# Generated by pormake.
# Topology apo, (3,6)-cn, num edge types: 1
# Building blocks:
#     Node 0, Type 0, BuildingBlock: QEWDON_clean_linker_0, # of connection points: 3
#     Node 1, Type 0, BuildingBlock: QEWDON_clean_linker_0, # of connection points: 3
#     Node 2, Type 0, BuildingBlock: QEWDON_clean_linker_0, # of connection points: 3
#     Node 3, Type 0, BuildingBlock: QEWDON_clean_linker_0, # of connection points: 3
#     Node 4, Type 0, BuildingBlock: QEWDON_clean_linker_0, # of connection points: 3
#     Node 5, Type 0, BuildingBlock: QEWDON_clean_linker_0, # of connection points: 3
#     Node 6, Type 0, BuildingBlock: QEWDON_clean_linker_0, # of connection points: 3
#     Node 7, Type 0, BuildingBlock: QEWDON_clean_linker_0, # of connection points: 3
#     Node 8, Type 1, BuildingBlock: KUMBUR_clean_sbu_1, # of connection points: 6
#     Node 9, Type 1, BuildingBlock: KUMBUR_clean_sbu_1, # of connection points: 6
#     Node 10, Type 1, BuildingBlock: KUMBUR_clean_sbu_1, # of connection points: 6
#     Node 11, Type 1, BuildingBlock: KUMBUR_clean_sbu_1, # of connection points: 6
#     Edge 12, Type (0, 1), BuildingBlock: XUDNAN_clean_linker_2, # of connection points: 2
#     Edge 13, Type (0, 1), BuildingBlock: XUDNAN_clean_linker_2, # of connection points: 2
#     Edge 14, Type (0, 1), BuildingBlock: XUDNAN_clean_linker_2, # of connection points: 2
#     Edge 15, Type (0, 1), BuildingBlock: XUDNAN_clean_linker_2, # of connection points: 2
#     Edge 16, Type (0, 1), BuildingBlock: XUDNAN_clean_linker_2, # of connection points: 2
#     Edge 17, Type (0, 1), BuildingBlock: XUDNAN_clean_linker_2, # of connection points: 2
#     Edge 18, Type (0, 1), BuildingBlock: XUDNAN_clean_linker_2, # of connection points: 2
#     Edge 19, Type (0, 1), BuildingBlock: XUDNAN_clean_linker_2, # of connection points: 2
#     Edge 20, Type (0, 1), BuildingBlock: XUDNAN_clean_linker_2, # of connection points: 2
#     Edge 21, Type (0, 1), BuildingBlock: XUDNAN_clean_linker_2, # of connection points: 2
#     Edge 22, Type (0, 1), BuildingBlock: XUDNAN_clean_linker_2, # of connection points: 2
#     Edge 23, Type (0, 1), BuildingBlock: XUDNAN_clean_linker_2, # of connection points: 2
#     Edge 24, Type (0, 1), BuildingBlock: XUDNAN_clean_linker_2, # of connection points: 2
#     Edge 25, Type (0, 1), BuildingBlock: XUDNAN_clean_linker_2, # of connection points: 2
#     Edge 26, Type (0, 1), BuildingBlock: XUDNAN_clean_linker_2, # of connection points: 2
#     Edge 27, Type (0, 1), BuildingBlock: XUDNAN_clean_linker_2, # of connection points: 2
#     Edge 28, Type (0, 1), BuildingBlock: XUDNAN_clean_linker_2, # of connection points: 2
#     Edge 29, Type (0, 1), BuildingBlock: XUDNAN_clean_linker_2, # of connection points: 2
#     Edge 30, Type (0, 1), BuildingBlock: XUDNAN_clean_linker_2, # of connection points: 2
#     Edge 31, Type (0, 1), BuildingBlock: XUDNAN_clean_linker_2, # of connection points: 2
#     Edge 32, Type (0, 1), BuildingBlock: XUDNAN_clean_linker_2, # of connection points: 2
#     Edge 33, Type (0, 1), BuildingBlock: XUDNAN_clean_linker_2, # of connection points: 2
#     Edge 34, Type (0, 1), BuildingBlock: XUDNAN_clean_linker_2, # of connection points: 2
#     Edge 35, Type (0, 1), BuildingBlock: XUDNAN_clean_linker_2, # of connection points: 2
# Relax obj value: 0.074
# Max RMSD: 0.260
# Mean RMSD: 0.207
data_MOF--net-apo--node1-KUMBUR_clean_sbu_1--node2-QEWDON_clean_linker_0--edge1-XUDNAN_clean_linker_2
_symmetry_space_group_name_H-M    P1
_symmetry_Int_Tables_number       1
_symmetry_cell_setting            triclinic
loop_
_symmetry_equiv_pos_as_xyz
'x, y, z'
_cell_length_a     30.080536
_cell_length_b     43.272222
_cell_length_c     51.6885
_cell_angle_alpha  89.863378
_cell_angle_beta   89.919731
_cell_angle_gamma 90.293925
loop_
_atom_site_label
_atom_site_type_symbol
_atom_site_fract_x
_atom_site_fract_y
_atom_site_fract_z
_atom_type_partial_charge
H0 H 0.26391 0.40791 0.37527 0.0
C1 C 0.28183 0.40652 0.39341 0.0
C2 C 0.31641 0.42776 0.39861 0.0
C3 C 0.2678 0.38549 0.41269 0.0
H4 H 0.36391 0.44371 0.42663 0.0
C5 C 0.33763 0.42712 0.42283 0.0
C6 C 0.32379 0.40667 0.44246 0.0
C7 C 0.28945 0.38558 0.43687 0.0
C8 C 0.22635 0.36667 0.40994 0.0
H9 H 0.27725 0.3703 0.45194 0.0
C10 C 0.21954 0.34554 0.38944 0.0
C11 C 0.18171 0.3259 0.38954 0.0
C12 C 0.19387 0.36886 0.42949 0.0
H13 H 0.19771 0.38521 0.44518 0.0
C14 C 0.15641 0.34986 0.42932 0.0
H15 H 0.24403 0.34362 0.37415 0.0
C16 C 0.15055 0.32833 0.40968 0.0
H17 H 0.12111 0.31379 0.40997 0.0
H18 H 0.13192 0.35172 0.44459 0.0
H19 H 0.22084 0.12816 0.87737 0.0
C20 C 0.20019 0.12811 0.89456 0.0
C21 C 0.16538 0.10641 0.8968 0.0
C22 C 0.20937 0.14879 0.9149 0.0
H23 H 0.11388 0.08787 0.92136 0.0
C24 C 0.13992 0.10516 0.9196 0.0
C25 C 0.14931 0.12487 0.9405 0.0
C26 C 0.18322 0.14712 0.93754 0.0
C27 C 0.24803 0.17069 0.91376 0.0
H28 H 0.19061 0.16251 0.95345 0.0
C29 C 0.25988 0.18668 0.8908 0.0
C30 C 0.29503 0.20843 0.89099 0.0
C31 C 0.27332 0.17601 0.93629 0.0
H32 H 0.26666 0.16337 0.95399 0.0
C33 C 0.30788 0.19754 0.93639 0.0
H34 H 0.24146 0.18281 0.8731 0.0
C35 C 0.31845 0.21385 0.91398 0.0
H36 H 0.34576 0.23029 0.91442 0.0
H37 H 0.32674 0.20146 0.95391 0.0
H38 H 0.76035 0.10151 0.65958 0.0
C39 C 0.77433 0.10467 0.64039 0.0
C40 C 0.80921 0.08571 0.63219 0.0
C41 C 0.75423 0.12533 0.62309 0.0
H42 H 0.85267 0.07405 0.6008 0.0
C43 C 0.82542 0.08867 0.60675 0.0
C44 C 0.80567 0.1092 0.5889 0.0
C45 C 0.76983 0.12747 0.59747 0.0
C46 C 0.71129 0.13937 0.63023 0.0
H47 H 0.75212 0.14206 0.58394 0.0
C48 C 0.70889 0.16756 0.64375 0.0
C49 C 0.66726 0.17912 0.6517 0.0
C50 C 0.67207 0.12316 0.62441 0.0
H51 H 0.67341 0.10141 0.6141 0.0
C52 C 0.63094 0.1346 0.63214 0.0
H53 H 0.73913 0.18009 0.64836 0.0
C54 C 0.62848 0.16229 0.64579 0.0
H55 H 0.59608 0.17083 0.65141 0.0
H56 H 0.60085 0.12192 0.62761 0.0
H57 H 0.72284 0.38455 0.16319 0.0
C58 C 0.70809 0.3849 0.14407 0.0
C59 C 0.66889 0.40164 0.13965 0.0
C60 C 0.7306 0.37077 0.1235 0.0
H61 H 0.61964 0.41406 0.11149 0.0
C62 C 0.65098 0.40244 0.1145 0.0
C63 C 0.67339 0.38903 0.09336 0.0
C64 C 0.71355 0.37335 0.09824 0.0
C65 C 0.77476 0.35658 0.12793 0.0
H66 H 0.7326 0.3638 0.0824 0.0
C67 C 0.78028 0.33184 0.14546 0.0
C68 C 0.82286 0.31934 0.14994 0.0
C69 C 0.81206 0.3686 0.11494 0.0
H70 H 0.80863 0.38769 0.1015 0.0
C71 C 0.85422 0.35654 0.11953 0.0
H72 H 0.75159 0.32235 0.15547 0.0
C73 C 0.85969 0.33216 0.13693 0.0
H74 H 0.89269 0.32284 0.13978 0.0
H75 H 0.88279 0.36606 0.1095 0.0
H76 H 0.68073 0.63017 0.66581 0.0
C77 C 0.67744 0.6304 0.64491 0.0
C78 C 0.66625 0.6031 0.63183 0.0
C79 C 0.68163 0.65835 0.63138 0.0
H80 H 0.65055 0.58268 0.59492 0.0
C81 C 0.66011 0.6037 0.60488 0.0
C82 C 0.66468 0.63159 0.59097 0.0
C83 C 0.67538 0.65885 0.6045 0.0
C84 C 0.68561 0.68759 0.64582 0.0
H85 H 0.67806 0.68066 0.59423 0.0
C86 C 0.72722 0.69951 0.65342 0.0
C87 C 0.72965 0.72694 0.66807 0.0
C88 C 0.64666 0.70328 0.6526 0.0
H89 H 0.61442 0.69434 0.6469 0.0
C90 C 0.64893 0.73045 0.66696 0.0
H91 H 0.75733 0.6873 0.64829 0.0
C92 C 0.69005 0.74221 0.67471 0.0
H93 H 0.6909 0.76354 0.68563 0.0
H94 H 0.61872 0.74245 0.67213 0.0
H95 H 0.81551 0.87326 0.16078 0.0
C96 C 0.82623 0.88135 0.14193 0.0
C97 C 0.84626 0.91088 0.13943 0.0
C98 C 0.82183 0.86162 0.12038 0.0
H99 H 0.87799 0.94253 0.11275 0.0
C100 C 0.86144 0.9204 0.11482 0.0
C101 C 0.85739 0.90124 0.09297 0.0
C102 C 0.83638 0.87236 0.09592 0.0
C103 C 0.80726 0.82852 0.12341 0.0
H104 H 0.83335 0.85744 0.07923 0.0
C105 C 0.77239 0.81904 0.1403 0.0
C106 C 0.76008 0.78735 0.14228 0.0
C107 C 0.82979 0.80572 0.10915 0.0
H108 H 0.85774 0.81162 0.09684 0.0
C109 C 0.81715 0.77485 0.11059 0.0
H110 H 0.75513 0.83609 0.1518 0.0
C111 C 0.78248 0.76576 0.12671 0.0
H112 H 0.77315 0.74156 0.12684 0.0
H113 H 0.83445 0.75779 0.09913 0.0
H114 H 0.17878 0.86622 0.36888 0.0
C115 C 0.17284 0.87012 0.3893 0.0
C116 C 0.15525 0.89855 0.3978 0.0
C117 C 0.17933 0.84561 0.4066 0.0
H118 H 0.13326 0.92418 0.43148 0.0
C119 C 0.14777 0.90287 0.42457 0.0
C120 C 0.15522 0.87852 0.44219 0.0
C121 C 0.17068 0.85003 0.43294 0.0
C122 C 0.1871 0.81399 0.39669 0.0
H123 H 0.17461 0.83079 0.44623 0.0
C124 C 0.22652 0.80604 0.38357 0.0
C125 C 0.2322 0.77581 0.37387 0.0
C126 C 0.15356 0.79164 0.39997 0.0
H127 H 0.12293 0.79734 0.40989 0.0
C128 C 0.15885 0.76192 0.39016 0.0
H129 H 0.25257 0.82318 0.38105 0.0
C130 C 0.1978 0.75402 0.37718 0.0
H131 H 0.20143 0.73056 0.37024 0.0
H132 H 0.13273 0.74488 0.39274 0.0
H133 H 0.33318 0.65003 0.86549 0.0
C134 C 0.34195 0.64523 0.88539 0.0
C135 C 0.36244 0.61689 0.89219 0.0
C136 C 0.33456 0.66828 0.90403 0.0
H137 H 0.39 0.59076 0.92429 0.0
C138 C 0.37306 0.61166 0.91848 0.0
C139 C 0.36453 0.63415 0.93738 0.0
C140 C 0.34537 0.66223 0.92996 0.0
C141 C 0.32047 0.70007 0.89657 0.0
H142 H 0.33924 0.67973 0.9445 0.0
C143 C 0.28281 0.70581 0.88093 0.0
C144 C 0.26934 0.73654 0.87585 0.0
C145 C 0.34519 0.72531 0.90603 0.0
H146 H 0.37465 0.72167 0.91766 0.0
C147 C 0.3325 0.7555 0.90059 0.0
H148 H 0.26335 0.68662 0.87357 0.0
C149 C 0.29483 0.76113 0.88577 0.0
H150 H 0.28588 0.78489 0.88177 0.0
H151 H 0.35192 0.77467 0.90797 0.0
Tb152 Tb 0.0446 0.11614 0.24024 0.0
C153 C 0.88404 0.06954 0.30433 0.0
N154 N 0.8949 0.09871 0.29684 0.0
C155 C 0.82062 0.10654 0.28146 0.0
C156 C 0.84154 0.0571 0.29953 0.0
C157 C 0.86341 0.11778 0.28659 0.0
C158 C 0.80981 0.07592 0.28761 0.0
C159 C 0.90589 0.02237 0.32589 0.0
C160 C 0.91588 0.05245 0.31706 0.0
C161 C 0.86417 1.00923 0.32031 0.0
C162 C 0.83202 0.02658 0.30714 0.0
Tb163 Tb 0.96621 0.11441 0.30478 0.0
N164 N 0.95571 0.06606 0.32211 0.0
C165 C 0.93759 1.00687 0.34077 0.0
C166 C 0.98461 0.05229 0.33884 0.0
C167 C 0.97673 0.02218 0.34775 0.0
H168 H 0.87138 0.14154 0.2821 0.0
H169 H 1.00043 0.011 0.36032 0.0
H170 H 0.12744 0.07092 0.26347 0.0
H171 H 0.05124 0.23128 0.20122 0.0
H172 H 0.01342 0.06471 0.34571 0.0
H173 H 0.93134 0.98368 0.3479 0.0
H174 H 0.01757 0.17988 0.20993 0.0
H175 H 0.796 0.12151 0.27283 0.0
H176 H 0.85604 0.986 0.32666 0.0
H177 H 0.79966 0.01643 0.30343 0.0
H178 H 0.20126 0.07878 0.2822 0.0
H179 H 0.77667 0.06727 0.2836 0.0
H180 H 0.12526 0.24425 0.21919 0.0
N181 N 0.11587 0.11894 0.2564 0.0
C182 C 0.13581 0.14719 0.25439 0.0
C183 C 0.18284 0.09838 0.27493 0.0
C184 C 0.17922 0.15244 0.26371 0.0
C185 C 0.14006 0.0942 0.26491 0.0
C186 C 0.2022 0.12775 0.27481 0.0
N187 N 0.07195 0.16445 0.23265 0.0
C188 C 0.04989 0.1855 0.21779 0.0
C189 C 0.13379 0.19952 0.23737 0.0
C190 C 0.11354 0.17052 0.24152 0.0
C191 C 0.11078 0.2217 0.22292 0.0
C192 C 0.06887 0.2145 0.21282 0.0
H193 H 0.23559 0.13081 0.28224 0.0
H194 H 0.23205 0.18632 0.26805 0.0
H195 H 0.19226 0.22753 0.24488 0.0
O196 O 0.02674 0.11728 0.20064 0.0
O197 O 0.03698 0.15628 0.26584 0.0
O198 O 0.03324 0.13457 0.3059 0.0
O199 O 0.08744 0.09635 0.2128 0.0
O200 O 0.97601 0.1327 0.23563 0.0
O201 O 0.95356 0.15144 0.27617 0.0
O202 O 0.95555 0.11532 0.34504 0.0
O203 O 0.94254 0.09126 0.26918 0.0
O204 O 0.00397 0.07446 0.24613 0.0
O205 O 0.94212 0.15529 0.32186 0.0
O206 O 0.03379 0.09487 0.3067 0.0
O207 O 0.04976 0.07582 0.26599 0.0
C208 C 0.04546 0.15736 0.2907 0.0
C209 C 0.08831 0.12128 0.17208 0.0
C210 C 0.1007 0.13152 0.12592 0.0
C211 C 0.13563 0.15174 0.13258 0.0
C212 C 0.12428 0.14084 0.17793 0.0
C213 C 0.14724 0.15629 0.15836 0.0
C214 C 0.0768 0.11648 0.14594 0.0
C215 C 0.95149 0.15072 0.25054 0.0
C216 C 0.06392 0.10509 0.19307 0.0
C217 C 0.19888 0.18179 0.26078 0.0
C218 C 0.1763 0.20524 0.24752 0.0
C219 C 0.96262 0.07117 0.25416 0.0
C220 C 0.89878 0.14808 0.36039 0.0
C221 C 0.86053 0.14488 0.40234 0.0
C222 C 0.82411 0.1604 0.39146 0.0
C223 C 0.86173 0.1633 0.34997 0.0
C224 C 0.89779 0.13877 0.38658 0.0
C225 C 0.8247 0.16935 0.36546 0.0
C226 C 0.05029 0.07343 0.29146 0.0
C227 C 0.93958 0.14306 0.34486 0.0
H228 H 0.15521 0.16323 0.11778 0.0
H229 H 0.13534 0.14378 0.19758 0.0
H230 H 0.17484 0.17135 0.16319 0.0
H231 H 0.04967 0.10091 0.14122 0.0
H232 H 0.79481 0.16516 0.40296 0.0
H233 H 0.86143 0.17075 0.32996 0.0
H234 H 0.92642 0.12726 0.39483 0.0
H235 H 0.79631 0.18112 0.35728 0.0
Tb236 Tb 0.45656 0.39627 0.73784 0.0
C237 C 0.65124 0.40824 0.78337 0.0
N238 N 0.623 0.38364 0.78369 0.0
C239 C 0.68301 0.35 0.77217 0.0
C240 C 0.69648 0.40479 0.77698 0.0
C241 C 0.63846 0.35458 0.77886 0.0
C242 C 0.71211 0.37524 0.77106 0.0
C243 C 0.66264 0.46312 0.7902 0.0
C244 C 0.63464 0.43694 0.78997 0.0
C245 C 0.70769 0.45995 0.78354 0.0
C246 C 0.72456 0.43085 0.77693 0.0
Tb247 Tb 0.55076 0.39402 0.79431 0.0
N248 N 0.59056 0.43917 0.79549 0.0
C249 C 0.64445 0.49163 0.79713 0.0
C250 C 0.57319 0.4666 0.80348 0.0
C251 C 0.59962 0.49329 0.80406 0.0
H252 H 0.61667 0.33477 0.78053 0.0
H253 H 0.58549 0.51507 0.81011 0.0
H254 H 0.37518 0.43472 0.76587 0.0
H255 H 0.46741 0.27841 0.70274 0.0
H256 H 0.53933 0.46798 0.80995 0.0
H257 H 0.66483 0.51234 0.79758 0.0
H258 H 0.49138 0.33234 0.7066 0.0
H259 H 0.69495 0.32696 0.7681 0.0
H260 H 0.72975 0.47982 0.78351 0.0
H261 H 0.75942 0.42871 0.77198 0.0
H262 H 0.3001 0.42311 0.78319 0.0
H263 H 0.74665 0.37159 0.766 0.0
H264 H 0.39637 0.26128 0.72227 0.0
N265 N 0.38688 0.38851 0.7539 0.0
C266 C 0.37044 0.35929 0.75176 0.0
C267 C 0.31961 0.40497 0.77443 0.0
C268 C 0.32791 0.35165 0.76131 0.0
C269 C 0.36205 0.41147 0.76468 0.0
C270 C 0.30252 0.37492 0.77283 0.0
N271 N 0.43824 0.34525 0.73171 0.0
C272 C 0.4621 0.32503 0.71696 0.0
C273 C 0.38097 0.30647 0.73765 0.0
C274 C 0.39706 0.33696 0.74041 0.0
C275 C 0.40747 0.28494 0.72478 0.0
C276 C 0.4478 0.29445 0.71395 0.0
H277 H 0.26969 0.36995 0.78048 0.0
H278 H 0.27972 0.31475 0.76643 0.0
H279 H 0.32607 0.27522 0.74566 0.0
O280 O 0.45962 0.39405 0.69719 0.0
O281 O 0.44191 0.3802 0.77759 0.0
O282 O 0.50439 0.35522 0.7909 0.0
O283 O 0.40994 0.42137 0.71578 0.0
O284 O 0.52156 0.37558 0.72923 0.0
O285 O 0.54272 0.35463 0.76824 0.0
O286 O 0.54244 0.40513 0.834 0.0
O287 O 0.5686 0.41858 0.75818 0.0
O288 O 0.50403 0.43481 0.73752 0.0
O289 O 0.58089 0.36603 0.82237 0.0
O290 O 0.49004 0.42202 0.80079 0.0
O291 O 0.46195 0.43841 0.76089 0.0
C292 C 0.46106 0.35695 0.78929 0.0
C293 C 0.39164 0.39897 0.67517 0.0
C294 C 0.367 0.39283 0.63028 0.0
C295 C 0.33152 0.37428 0.63909 0.0
C296 C 0.35559 0.38076 0.68341 0.0
C297 C 0.32588 0.36841 0.66545 0.0
C298 C 0.39708 0.40509 0.64856 0.0
C299 C 0.54627 0.35671 0.74298 0.0
C300 C 0.42459 0.41097 0.69383 0.0
C301 C 0.31231 0.32113 0.75918 0.0
C302 C 0.33876 0.2986 0.74739 0.0
C303 C 0.54741 0.43571 0.74106 0.0
C304 C 0.60392 0.39092 0.86069 0.0
C305 C 0.62883 0.396 0.90557 0.0
C306 C 0.67271 0.39964 0.89678 0.0
C307 C 0.64824 0.39457 0.85253 0.0
C308 C 0.59425 0.39205 0.88741 0.0
C309 C 0.68222 0.39916 0.87042 0.0
C310 C 0.46885 0.44219 0.78596 0.0
C311 C 0.5687 0.38311 0.84169 0.0
H312 H 0.30746 0.36487 0.62563 0.0
H313 H 0.35019 0.37613 0.70366 0.0
H314 H 0.29818 0.35437 0.67202 0.0
H315 H 0.42495 0.41911 0.64211 0.0
H316 H 0.69968 0.40291 0.9104 0.0
H317 H 0.65704 0.39301 0.83241 0.0
H318 H 0.56035 0.38884 0.89409 0.0
H319 H 0.7162 0.40182 0.86383 0.0
Tb320 Tb 0.04413 0.90431 0.73824 0.0
C321 C 0.85447 0.89929 0.79569 0.0
N322 N 0.88824 0.92024 0.79568 0.0
C323 C 0.83551 0.96168 0.79368 0.0
C324 C 0.80976 0.90874 0.79402 0.0
C325 C 0.87914 0.95119 0.79648 0.0
C326 C 0.80068 0.94033 0.79199 0.0
C327 C 0.83044 0.84681 0.80466 0.0
C328 C 0.86461 0.86866 0.80049 0.0
C329 C 0.78589 0.85576 0.80174 0.0
C330 C 0.77559 0.8866 0.79611 0.0
Tb331 Tb 0.95824 0.9001 0.79948 0.0
N332 N 0.90794 0.86098 0.80371 0.0
C333 C 0.84203 0.81701 0.81273 0.0
C334 C 0.91932 0.83256 0.81315 0.0
C335 C 0.88665 0.80994 0.81724 0.0
H336 H 0.90562 0.96791 0.799 0.0
H337 H 0.89583 0.78721 0.82411 0.0
H338 H 0.13214 0.86777 0.76026 0.0
H339 H 0.01535 0.02469 0.71394 0.0
H340 H 0.95378 0.82739 0.81716 0.0
H341 H 0.81673 0.79956 0.81619 0.0
H342 H 0.99746 0.96939 0.71462 0.0
H343 H 0.8287 0.98622 0.79337 0.0
H344 H 0.75916 0.83918 0.80446 0.0
H345 H 0.74105 0.89337 0.79468 0.0
H346 H 0.20828 0.88134 0.77434 0.0
H347 H 0.7668 0.94853 0.7905 0.0
H348 H 0.0874 0.04333 0.7308 0.0
N349 N 0.1143 0.91425 0.75211 0.0
C350 C 0.12778 0.94419 0.75073 0.0
C351 C 0.18588 0.89925 0.76787 0.0
C352 C 0.17079 0.95303 0.75864 0.0
C353 C 0.14269 0.89165 0.76006 0.0
C354 C 0.19995 0.93009 0.76727 0.0
N355 N 0.05636 0.95652 0.73476 0.0
C356 C 0.02776 0.97704 0.72361 0.0
C357 C 0.10991 0.99757 0.74134 0.0
C358 C 0.0976 0.9661 0.74223 0.0
C359 C 0.07926 0.01893 0.73182 0.0
C360 C 0.03835 1.00852 0.7225 0.0
H361 H 0.2333 0.93593 0.77353 0.0
H362 H 0.21571 0.99172 0.76435 0.0
H363 H 0.16242 0.03073 0.74919 0.0
O364 O 0.05306 0.91519 0.69894 0.0
O365 O 0.05869 0.91762 0.77853 0.0
O366 O 0.99663 0.94206 0.79237 0.0
O367 O 0.0806 0.87356 0.71473 0.0
O368 O 0.97607 0.91943 0.73142 0.0
O369 O 0.95409 0.93801 0.77095 0.0
O370 O 0.99673 0.904 0.83368 0.0
O371 O 0.95222 0.86182 0.77127 0.0
O372 O 0.98278 0.87805 0.73189 0.0
O373 O 0.92584 0.90391 0.83532 0.0
O374 O 0.01644 0.86889 0.80036 0.0
O375 O 0.04772 0.86051 0.75917 0.0
C376 C 0.03996 0.94094 0.79044 0.0
C377 C 0.11448 0.89468 0.67666 0.0
C378 C 0.14304 0.89529 0.63213 0.0
C379 C 0.18544 0.90271 0.64189 0.0
C380 C 0.15693 0.90217 0.68589 0.0
C381 C 0.19218 0.90618 0.66852 0.0
C382 C 0.10768 0.89154 0.64987 0.0
C383 C 0.94764 0.93435 0.74602 0.0
C384 C 0.0761 0.89062 0.69413 0.0
C385 C 0.18294 0.9844 0.75812 0.0
C386 C 0.15252 1.00663 0.74958 0.0
C387 C 0.95725 0.8596 0.7459 0.0
C388 C 0.96168 0.93094 0.86828 0.0
C389 C 0.95261 0.94667 0.91348 0.0
C390 C 0.95382 0.9777 0.90549 0.0
C391 C 0.96237 0.96209 0.86077 0.0
C392 C 0.95621 0.92325 0.89467 0.0
C393 C 0.95807 0.98527 0.87933 0.0
C394 C 0.04274 0.85387 0.78401 0.0
C395 C 0.96203 0.90635 0.84861 0.0
H396 H 0.21367 0.90529 0.62904 0.0
H397 H 0.16288 0.90493 0.70637 0.0
H398 H 0.22498 0.91181 0.67575 0.0
H399 H 0.07449 0.88643 0.64289 0.0
H400 H 0.95063 0.99614 0.91951 0.0
H401 H 0.9652 0.96841 0.84054 0.0
H402 H 0.95478 0.8992 0.90055 0.0
H403 H 0.95732 1.00923 0.87345 0.0
Tb404 Tb 0.47161 0.61268 0.23539 0.0
C405 C 0.65915 0.63338 0.28309 0.0
N406 N 0.63181 0.60826 0.28233 0.0
C407 C 0.69439 0.57571 0.27322 0.0
C408 C 0.7053 0.63056 0.27881 0.0
C409 C 0.64906 0.57948 0.27823 0.0
C410 C 0.72265 0.60134 0.27348 0.0
C411 C 0.66814 0.68872 0.28879 0.0
C412 C 0.64089 0.6621 0.28834 0.0
C413 C 0.7142 0.68584 0.28524 0.0
C414 C 0.73274 0.65683 0.2803 0.0
Tb415 Tb 0.55981 0.61754 0.29408 0.0
N416 N 0.59628 0.66404 0.2923 0.0
C417 C 0.64828 0.71749 0.29259 0.0
C418 C 0.57673 0.69217 0.29569 0.0
C419 C 0.60231 0.71923 0.29577 0.0
H420 H 0.62886 0.55903 0.28003 0.0
H421 H 0.58653 0.74143 0.29836 0.0
H422 H 0.40987 0.67419 0.22376 0.0
H423 H 0.42549 0.49188 0.22825 0.0
H424 H 0.54148 0.69421 0.29787 0.0
H425 H 0.66803 0.7385 0.29281 0.0
H426 H 0.47668 0.53674 0.22432 0.0
H427 H 0.7077 0.55286 0.26991 0.0
H428 H 0.73571 0.70599 0.28585 0.0
H429 H 0.76829 0.65504 0.2773 0.0
H430 H 0.32966 0.68717 0.22513 0.0
H431 H 0.75788 0.59825 0.27003 0.0
H432 H 0.34688 0.5001 0.24061 0.0
N433 N 0.39947 0.62779 0.23596 0.0
C434 C 0.36947 0.60489 0.24071 0.0
C435 C 0.34051 0.66412 0.23011 0.0
C436 C 0.32365 0.61123 0.24205 0.0
C437 C 0.38573 0.65675 0.22927 0.0
C438 C 0.30946 0.64152 0.23735 0.0
N439 N 0.42814 0.56928 0.23635 0.0
C440 C 0.44253 0.5403 0.22997 0.0
C441 C 0.35376 0.54987 0.24283 0.0
C442 C 0.3843 0.57454 0.24088 0.0
C443 C 0.3693 0.51972 0.23923 0.0
C444 C 0.41364 0.51498 0.23215 0.0
H445 H 0.27448 0.64732 0.23797 0.0
H446 H 0.2581 0.5913 0.2478 0.0
H447 H 0.28454 0.53755 0.24868 0.0
O448 O 0.50882 0.61711 0.20086 0.0
O449 O 0.46919 0.57788 0.26637 0.0
O450 O 0.49185 0.60244 0.30339 0.0
O451 O 0.43848 0.61049 0.19961 0.0
O452 O 0.53528 0.58835 0.23373 0.0
O453 O 0.55348 0.5725 0.27485 0.0
O454 O 0.57263 0.63373 0.33177 0.0
O455 O 0.57358 0.63593 0.25491 0.0
O456 O 0.50761 0.65614 0.24068 0.0
O457 O 0.58175 0.58581 0.32223 0.0
O458 O 0.50099 0.64665 0.29979 0.0
O459 O 0.45552 0.65048 0.2628 0.0
C460 C 0.4653 0.58323 0.29118 0.0
C461 C 0.46941 0.63925 0.16573 0.0
C462 C 0.44978 0.65202 0.12092 0.0
C463 C 0.4525 0.68361 0.12744 0.0
C464 C 0.47209 0.67077 0.17164 0.0
C465 C 0.46395 0.69279 0.1525 0.0
C466 C 0.45888 0.62999 0.1404 0.0
C467 C 0.55158 0.56768 0.2497 0.0
C468 C 0.47393 0.61568 0.1861 0.0
C469 C 0.29341 0.58685 0.24623 0.0
C470 C 0.30847 0.55621 0.2467 0.0
C471 C 0.55112 0.65767 0.24274 0.0
C472 C 0.62423 0.60602 0.35733 0.0
C473 C 0.65483 0.6113 0.40102 0.0
C474 C 0.69681 0.60294 0.39137 0.0
C475 C 0.66642 0.5977 0.3482 0.0
C476 C 0.61869 0.61291 0.38373 0.0
C477 C 0.70247 0.59629 0.36514 0.0
C478 C 0.46675 0.65814 0.28687 0.0
C479 C 0.58503 0.60679 0.34017 0.0
H480 H 0.44477 0.70141 0.11344 0.0
H481 H 0.47968 0.67828 0.19111 0.0
H482 H 0.46564 0.71713 0.15722 0.0
H483 H 0.45748 0.60552 0.13608 0.0
H484 H 0.72542 0.6019 0.40404 0.0
H485 H 0.67162 0.59203 0.32815 0.0
H486 H 0.58596 0.61891 0.39088 0.0
H487 H 0.73494 0.58992 0.35792 0.0
H488 H 0.15907 0.96301 0.39947 0.0
H489 H 0.11335 0.88637 0.35208 0.0
H490 H 0.0869 0.92283 0.31927 0.0
H491 H 0.06669 0.01165 0.38671 0.0
H492 H 0.09744 0.04745 0.3849 0.0
H493 H 0.11753 0.01614 0.40465 0.0
H494 H 0.19257 0.01619 0.38072 0.0
H495 H 0.17412 0.0482 0.36117 0.0
H496 H 0.19369 0.01339 0.34593 0.0
H497 H 0.0643 0.96653 0.29155 0.0
H498 H 0.04192 0.0159 0.27175 0.0
H499 H 0.09839 0.06569 0.33673 0.0
C500 C 0.14362 0.95392 0.38217 0.0
C501 C 0.13949 0.92159 0.37824 0.0
C502 C 0.11857 0.91083 0.35533 0.0
C503 C 0.10301 0.93141 0.33655 0.0
C504 C 0.10807 0.96292 0.34084 0.0
C505 C 0.12757 0.9743 0.36308 0.0
C506 C 0.12712 0.00946 0.36302 0.0
C507 C 0.10059 0.02191 0.38618 0.0
C508 C 0.17471 0.02258 0.36269 0.0
C509 C 0.10358 0.01583 0.33754 0.0
C510 C 0.09352 0.98854 0.32499 0.0
C511 C 0.07193 0.98809 0.30117 0.0
C512 C 0.05951 0.01625 0.29002 0.0
C513 C 0.06802 0.04453 0.30281 0.0
C514 C 0.09116 0.04433 0.32667 0.0
H515 H 0.37107 0.55282 0.89641 0.0
H516 H 0.38662 0.62845 0.84142 0.0
H517 H 0.41105 0.59165 0.80846 0.0
H518 H 0.4714 0.51453 0.87723 0.0
H519 H 0.44926 0.47616 0.88205 0.0
H520 H 0.4284 0.50787 0.90096 0.0
H521 H 0.3483 0.49541 0.88568 0.0
H522 H 0.36895 0.46367 0.86671 0.0
H523 H 0.33655 0.49355 0.85152 0.0
H524 H 0.43492 0.54704 0.78118 0.0
H525 H 0.46111 0.49804 0.76241 0.0
H526 H 0.43852 0.45179 0.83588 0.0
C527 C 0.37974 0.56193 0.87756 0.0
C528 C 0.37586 0.59396 0.87179 0.0
C529 C 0.38743 0.60421 0.84651 0.0
C530 C 0.40198 0.58342 0.82755 0.0
C531 C 0.40573 0.55232 0.83405 0.0
C532 C 0.39541 0.54159 0.8585 0.0
C533 C 0.40498 0.50722 0.86083 0.0
C534 C 0.44063 0.5011 0.88149 0.0
C535 C 0.36214 0.48888 0.86652 0.0
C536 C 0.42239 0.5004 0.83386 0.0
C537 C 0.4219 0.52672 0.81866 0.0
C538 C 0.43554 0.5263 0.79291 0.0
C539 C 0.4502 0.49831 0.7824 0.0
C540 C 0.45184 0.4711 0.79766 0.0
C541 C 0.43786 0.47226 0.8238 0.0
H542 H 0.58571 0.57821 0.64428 0.0
H543 H 0.7273 0.56528 0.6542 0.0
H544 H 0.7126 0.51979 0.68235 0.0
H545 H 0.55624 0.56056 0.70939 0.0
H546 H 0.50489 0.54127 0.7013 0.0
H547 H 0.52659 0.57112 0.68042 0.0
H548 H 0.52507 0.53329 0.64162 0.0
H549 H 0.5031 0.50336 0.66237 0.0
H550 H 0.5533 0.49676 0.64417 0.0
H551 H 0.68192 0.47607 0.70971 0.0
H552 H 0.63822 0.43857 0.73521 0.0
H553 H 0.51631 0.4825 0.70989 0.0
C554 C 0.61347 0.56536 0.65208 0.0
C555 C 0.65762 0.57463 0.64687 0.0
C556 C 0.69333 0.55804 0.65781 0.0
C557 C 0.68524 0.53231 0.67379 0.0
C558 C 0.64123 0.52382 0.6788 0.0
C559 C 0.60593 0.53992 0.66833 0.0
C560 C 0.56185 0.52703 0.6778 0.0
C561 C 0.53588 0.55145 0.69314 0.0
C562 C 0.53421 0.51435 0.65514 0.0
C563 C 0.57781 0.50122 0.69526 0.0
C564 C 0.62367 0.4996 0.69543 0.0
C565 C 0.646 0.47736 0.70991 0.0
C566 C 0.62082 0.45632 0.72462 0.0
C567 C 0.57376 0.45793 0.72522 0.0
C568 C 0.55219 0.48067 0.71012 0.0
H569 H 0.84534 0.97482 0.14261 0.0
H570 H 0.87004 0.89264 0.18872 0.0
H571 H 0.89357 0.9255 0.22513 0.0
H572 H 0.94129 0.01408 0.16191 0.0
H573 H 0.91657 0.05194 0.162 0.0
H574 H 0.89481 0.02236 0.14108 0.0
H575 H 0.81655 0.02939 0.16119 0.0
H576 H 0.83816 0.05904 0.18222 0.0
H577 H 0.80954 0.02604 0.19573 0.0
H578 H 0.92275 0.96713 0.25507 0.0
H579 H 0.95597 0.01381 0.27512 0.0
H580 H 0.91547 0.06862 0.20919 0.0
C581 C 0.85527 0.96358 0.1604 0.0
C582 C 0.85541 0.93087 0.16258 0.0
C583 C 0.86847 0.91749 0.18648 0.0
C584 C 0.88226 0.93603 0.20733 0.0
C585 C 0.8829 0.96805 0.20417 0.0
C586 C 0.86964 0.98172 0.18128 0.0
C587 C 0.87706 0.01644 0.18198 0.0
C588 C 0.90936 0.0268 0.16047 0.0
C589 C 0.83268 0.03375 0.18018 0.0
C590 C 0.89772 0.02012 0.20855 0.0
C591 C 0.90019 0.99198 0.22123 0.0
C592 C 0.92029 0.9893 0.24546 0.0
C593 C 0.93892 0.01588 0.25677 0.0
C594 C 0.93729 0.04469 0.24388 0.0
C595 C 0.91608 0.04688 0.21963 0.0
H596 H 0.84742 0.08622 0.681 0.0
H597 H 0.80201 0.02534 0.61989 0.0
H598 H 0.82275 0.97998 0.64614 0.0
H599 H 0.94293 0.04282 0.69627 0.0
H600 H 0.9411 0.04923 0.73074 0.0
H601 H 0.91763 0.07726 0.70898 0.0
H602 H 0.84212 0.07321 0.73265 0.0
H603 H 0.86513 0.04513 0.75466 0.0
H604 H 0.81575 0.03596 0.73647 0.0
H605 H 0.85133 0.94162 0.67699 0.0
H606 H 0.89518 0.91197 0.70858 0.0
H607 H 0.92572 0.99626 0.75022 0.0
C608 C 0.84154 0.06326 0.6734 0.0
C609 C 0.8231 0.05914 0.64844 0.0
C610 C 0.81634 0.02889 0.63888 0.0
C611 C 0.82759 1.00303 0.65375 0.0
C612 C 0.84579 1.00772 0.6782 0.0
C613 C 0.8533 0.037 0.68794 0.0
C614 C 0.87738 0.03526 0.71379 0.0
C615 C 0.92245 0.05213 0.71236 0.0
C616 C 0.84835 0.04816 0.73569 0.0
C617 C 0.88319 1.00051 0.71661 0.0
C618 C 0.86366 0.98519 0.69607 0.0
C619 C 0.86636 0.95328 0.6933 0.0
C620 C 0.89118 0.93662 0.71138 0.0
C621 C 0.91318 0.95178 0.73194 0.0
C622 C 0.90807 0.98405 0.73509 0.0
H623 H 0.63659 0.46042 0.13534 0.0
H624 H 0.65801 0.38724 0.19143 0.0
H625 H 0.62992 0.42138 0.22616 0.0
H626 H 0.67039 0.52246 0.17497 0.0
H627 H 0.6292 0.54888 0.16283 0.0
H628 H 0.64935 0.51825 0.14251 0.0
H629 H 0.56863 0.4986 0.13561 0.0
H630 H 0.54825 0.52935 0.15575 0.0
H631 H 0.53438 0.48978 0.16334 0.0
H632 H 0.60057 0.465 0.25504 0.0
H633 H 0.57214 0.51321 0.27478 0.0
H634 H 0.5705 0.55648 0.19896 0.0
C635 C 0.63455 0.45121 0.15481 0.0
C636 C 0.64919 0.42097 0.16056 0.0
C637 C 0.64713 0.41034 0.18652 0.0
C638 C 0.63108 0.42953 0.20636 0.0
C639 C 0.61724 0.45932 0.19995 0.0
C640 C 0.6187 0.46997 0.17473 0.0
C641 C 0.60296 0.50303 0.17279 0.0
C642 C 0.6402 0.52441 0.16268 0.0
C643 C 0.56106 0.50531 0.15587 0.0
C644 C 0.59253 0.50948 0.20087 0.0
C645 C 0.60086 0.48408 0.21634 0.0
C646 C 0.59393 0.48497 0.24305 0.0
C647 C 0.57798 0.51248 0.25412 0.0
C648 C 0.56928 0.5387 0.23848 0.0
C649 C 0.57671 0.53692 0.21153 0.0
H650 H 0.36083 0.42835 0.35155 0.0
H651 H 0.29602 0.48724 0.40764 0.0
H652 H 0.32151 0.53348 0.38371 0.0
H653 H 0.45616 0.4734 0.34414 0.0
H654 H 0.46309 0.46771 0.30984 0.0
H655 H 0.4349 0.43887 0.329 0.0
H656 H 0.3654 0.44257 0.29939 0.0
H657 H 0.39449 0.47072 0.27989 0.0
H658 H 0.34084 0.47983 0.29338 0.0
H659 H 0.36225 0.57298 0.35795 0.0
H660 H 0.41201 0.60377 0.32967 0.0
H661 H 0.44891 0.52066 0.28842 0.0
C662 C 0.35088 0.451 0.35817 0.0
C663 C 0.32593 0.45435 0.38121 0.0
C664 C 0.31463 0.48431 0.38985 0.0
C665 C 0.32901 0.51067 0.37641 0.0
C666 C 0.35454 0.5068 0.35417 0.0
C667 C 0.36498 0.47778 0.34482 0.0
C668 C 0.3955 0.4804 0.32141 0.0
C669 C 0.44005 0.46413 0.32641 0.0
C670 C 0.37266 0.46763 0.29707 0.0
C671 C 0.40155 0.51526 0.31964 0.0
C672 C 0.37747 0.52997 0.33874 0.0
C673 C 0.38052 0.56181 0.34257 0.0
C674 C 0.40899 0.5791 0.32654 0.0
C675 C 0.43369 0.56463 0.30674 0.0
C676 C 0.42947 0.53235 0.30304 0.0
H677 H 0.09223 0.09776 0.8661 0.0
H678 H 0.22184 0.06023 0.88387 0.0
H679 H 0.20567 0.01484 0.85625 0.0
H680 H 0.03236 0.03106 0.86768 0.0
H681 H 0.99673 0.03862 0.84027 0.0
H682 H 0.02019 0.07024 0.85826 0.0
H683 H 0.05569 0.09263 0.8166 0.0
H684 H 0.03128 0.06146 0.79829 0.0
H685 H 0.09035 0.06834 0.79681 0.0
H686 H 0.17125 0.97057 0.8319 0.0
H687 H 0.12401 0.93269 0.80906 0.0
H688 H 0.01791 0.99997 0.80481 0.0
C689 C 0.11757 0.08036 0.86347 0.0
C690 C 0.15839 0.08242 0.87683 0.0
C691 C 0.19066 0.05913 0.87343 0.0
C692 C 0.18169 0.03329 0.85787 0.0
C693 C 0.14064 0.03148 0.84543 0.0
C694 C 0.10953 0.05477 0.8475 0.0
C695 C 0.06742 0.04661 0.83286 0.0
C696 C 0.02675 0.04662 0.85086 0.0
C697 C 0.06081 0.06857 0.80977 0.0
C698 C 0.07851 0.01429 0.82373 0.0
C699 C 0.12118 1.0062 0.83085 0.0
C700 C 0.13818 0.97694 0.82573 0.0
C701 C 0.1111 0.95557 0.81272 0.0
C702 C 0.06763 0.96356 0.80474 0.0
C703 C 0.05115 0.99329 0.81051 0.0
H704 H 0.12619 0.16905 0.9767 0.0
H705 H 0.12513 0.06993 0.96366 0.0
H706 H 0.09985 0.06156 1.00843 0.0
H707 H 0.17542 0.1651 0.03656 0.0
H708 H 0.14543 0.19685 0.05068 0.0
H709 H 0.15414 0.19559 1.0163 0.0
H710 H 0.06919 0.19951 1.00876 0.0
H711 H 0.0602 0.20084 0.04323 0.0
H712 H 0.03237 0.17194 0.024 0.0
H713 H 0.08541 0.06331 0.05646 0.0
H714 H 0.08573 0.07514 0.10322 0.0
H715 H 0.09871 0.17279 0.08547 0.0
C716 C 0.12001 0.14556 0.98303 0.0
C717 C 0.12752 0.12022 0.96631 0.0
C718 C 0.11872 0.0899 0.97564 0.0
C719 C 0.10453 0.08485 1.00121 0.0
C720 C 0.0991 0.11029 0.01738 0.0
C721 C 0.10641 0.14008 1.00859 0.0
C722 C 0.10324 0.16318 0.0305 0.0
C723 C 0.14716 0.18122 0.03369 0.0
C724 C 0.0639 0.18517 0.02637 0.0
C725 C 0.09486 0.14164 0.05316 0.0
C726 C 0.09162 0.11127 0.04516 0.0
C727 C 0.08709 0.08707 0.06289 0.0
C728 C 0.08707 0.09402 0.08945 0.0
C729 C 0.09213 0.12489 0.09807 0.0
C730 C 0.09476 0.14895 0.07953 0.0
H731 H 0.33541 0.36079 0.47947 0.0
H732 H 0.34935 0.4599 0.46781 0.0
H733 H 0.37066 0.46593 0.51336 0.0
H734 H 0.28138 0.36687 0.53919 0.0
H735 H 0.30656 0.33313 0.55335 0.0
H736 H 0.29959 0.3356 0.51884 0.0
H737 H 0.38396 0.32654 0.51237 0.0
H738 H 0.39118 0.32397 0.54692 0.0
H739 H 0.42341 0.35144 0.5284 0.0
H740 H 0.38394 0.46222 0.56133 0.0
H741 H 0.38468 0.44906 0.60789 0.0
H742 H 0.35759 0.35314 0.5891 0.0
C743 C 0.34326 0.38379 0.4863 0.0
C744 C 0.34111 0.40975 0.46956 0.0
C745 C 0.35193 0.43935 0.47967 0.0
C746 C 0.36379 0.44313 0.50573 0.0
C747 C 0.36451 0.41718 0.52171 0.0
C748 C 0.35445 0.38808 0.51239 0.0
C749 C 0.3537 0.36442 0.53408 0.0
C750 C 0.30757 0.34912 0.5365 0.0
C751 C 0.39025 0.34016 0.53021 0.0
C752 C 0.36372 0.38491 0.55712 0.0
C753 C 0.37066 0.41518 0.54952 0.0
C754 C 0.37899 0.43852 0.56747 0.0
C755 C 0.37954 0.43081 0.59389 0.0
C756 C 0.37125 0.40009 0.60218 0.0
C757 C 0.36389 0.37686 0.5834 0.0
H758 H 0.68405 0.35022 0.05092 0.0
H759 H 0.62525 0.43789 0.07319 0.0
H760 H 0.59853 0.44511 0.02881 0.0
H761 H 0.72715 0.37878 0.99178 0.0
H762 H 0.71901 0.34309 0.97446 0.0
H763 H 0.72775 0.34242 1.00888 0.0
H764 H 0.65413 0.31183 1.01483 0.0
H765 H 0.64495 0.31269 0.98038 0.0
H766 H 0.60317 0.3274 1.00206 0.0
H767 H 0.58101 0.44453 0.981 0.0
H768 H 0.58249 0.43877 0.93325 0.0
H769 H 0.65914 0.35488 0.94138 0.0
C770 C 0.6656 0.37102 0.0467 0.0
C771 C 0.65626 0.39306 0.06623 0.0
C772 C 0.63172 0.41983 0.05927 0.0
C773 C 0.61653 0.42438 0.03388 0.0
C774 C 0.62656 0.40227 1.01527 0.0
C775 C 0.65109 0.37634 0.0213 0.0
C776 C 0.66129 0.35768 0.99723 0.0
C777 C 0.71179 0.35538 0.99283 0.0
C778 C 0.63958 0.32549 0.99872 0.0
C779 C 0.63937 0.37749 0.9767 0.0
C780 C 0.61859 0.40275 0.98755 0.0
C781 C 0.59696 0.42473 0.97232 0.0
C782 C 0.59768 0.42123 0.94528 0.0
C783 C 0.6205 0.39627 0.93382 0.0
C784 C 0.64096 0.37394 0.94978 0.0
H785 H 0.80486 0.15805 0.55373 0.0
H786 H 0.83674 0.06039 0.55973 0.0
H787 H 0.85876 0.06015 0.51402 0.0
H788 H 0.75425 0.15198 0.4913 0.0
H789 H 0.77406 0.18909 0.48017 0.0
H790 H 0.76458 0.18259 0.51416 0.0
H791 H 0.84571 0.19908 0.52397 0.0
H792 H 0.85547 0.20558 0.48998 0.0
H793 H 0.89087 0.17974 0.50787 0.0
H794 H 0.87626 0.06984 0.46704 0.0
H795 H 0.88276 0.08818 0.42183 0.0
H796 H 0.83433 0.1782 0.4451 0.0
C797 C 0.81636 0.13652 0.54557 0.0
C798 C 0.81972 0.10941 0.56095 0.0
C799 C 0.83516 0.08188 0.54905 0.0
C800 C 0.84743 0.08136 0.52285 0.0
C801 C 0.84363 0.1084 0.5084 0.0
C802 C 0.82809 0.13541 0.51925 0.0
C803 C 0.82486 0.16082 0.49902 0.0
C804 C 0.77656 0.17175 0.49599 0.0
C805 C 0.85609 0.1879 0.50561 0.0
C806 C 0.84064 0.14374 0.4751 0.0
C807 C 0.85189 0.11364 0.48103 0.0
C808 C 0.86754 0.09338 0.46218 0.0
C809 C 0.87133 0.10403 0.43657 0.0
C810 C 0.85902 0.13457 0.42989 0.0
C811 C 0.84369 0.15465 0.44956 0.0
H812 H 0.82728 0.89068 0.04277 0.0
H813 H 0.93706 0.93134 0.08562 0.0
H814 H 0.97335 0.94582 0.0447 0.0
H815 H 0.89556 0.85826 0.99156 0.0
H816 H 0.85548 0.8658 0.96646 0.0
H817 H 0.83707 0.85895 0.99918 0.0
H818 H 0.79529 0.91113 0.99895 0.0
H819 H 0.81341 0.91807 0.96621 0.0
H820 H 0.82517 0.94613 0.99103 0.0
H821 H 0.99743 0.95733 0.99935 0.0
H822 H 0.0077 0.96455 0.95224 0.0
H823 H 0.88561 0.91385 0.9379 0.0
C824 C 0.85907 0.90245 0.04362 0.0
C825 C 0.87873 0.91021 0.06773 0.0
C826 C 0.92037 0.92583 0.06767 0.0
C827 C 0.94165 0.93389 0.04443 0.0
C828 C 0.92138 0.92594 0.02116 0.0
C829 C 0.88112 0.91047 0.0205 0.0
C830 C 0.86672 0.90467 0.99272 0.0
C831 C 0.86353 0.86985 0.98716 0.0
C832 C 0.82253 0.92098 0.98689 0.0
C833 C 0.90504 0.91949 0.97794 0.0
C834 C 0.93613 0.93166 0.99481 0.0
C835 C 0.97355 0.94763 0.98596 0.0
C836 C 0.97916 0.9516 0.9592 0.0
C837 C 0.94782 0.93943 0.94149 0.0
C838 C 0.91052 0.92285 0.95102 0.0
H839 H 0.69508 0.59181 0.55345 0.0
H840 H 0.61519 0.67396 0.56438 0.0
H841 H 0.60246 0.67698 0.51726 0.0
H842 H 0.74803 0.61655 0.49507 0.0
H843 H 0.74777 0.57882 0.48036 0.0
H844 H 0.74924 0.58236 0.51506 0.0
H845 H 0.67863 0.54808 0.5188 0.0
H846 H 0.67701 0.54436 0.4841 0.0
H847 H 0.62923 0.55873 0.50127 0.0
H848 H 0.59916 0.67151 0.46882 0.0
H849 H 0.60731 0.65873 0.42249 0.0
H850 H 0.68941 0.58019 0.44291 0.0
C851 C 0.67454 0.61024 0.54593 0.0
C852 C 0.65622 0.63271 0.56261 0.0
C853 C 0.63 0.65671 0.55197 0.0
C854 C 0.62236 0.65851 0.52524 0.0
C855 C 0.6412 0.63617 0.50932 0.0
C856 C 0.6668 0.6125 0.51924 0.0
C857 C 0.68422 0.59197 0.4978 0.0
C858 C 0.73535 0.59247 0.49703 0.0
C859 C 0.66619 0.55882 0.50067 0.0
C860 C 0.66467 0.60791 0.47429 0.0
C861 C 0.63969 0.63322 0.48138 0.0
C862 C 0.61851 0.65166 0.46305 0.0
C863 C 0.62314 0.64413 0.43678 0.0
C864 C 0.64897 0.61847 0.42901 0.0
C865 C 0.6698 0.60014 0.44816 0.0
H866 H 0.41381 0.67246 0.9683 0.0
H867 H 0.34331 0.58485 0.96847 0.0
H868 H 0.35949 0.57867 1.01524 0.0
H869 H 0.50115 0.64906 1.01349 0.0
H870 H 0.50391 0.68658 0.02851 0.0
H871 H 0.48806 0.68321 0.99503 0.0
H872 H 0.4152 0.71277 1.00466 0.0
H873 H 0.43067 0.71605 0.03818 0.0
H874 H 0.37822 0.69861 0.02954 0.0
H875 H 0.37797 0.58474 0.06291 0.0
H876 H 0.40158 0.60018 0.10658 0.0
H877 H 0.46562 0.68191 0.07425 0.0
C878 C 0.40205 0.65188 0.97818 0.0
C879 C 0.37713 0.62915 0.96487 0.0
C880 C 0.36262 0.60242 0.97834 0.0
C881 C 0.37153 0.5988 1.00487 0.0
C882 C 0.39561 0.62191 0.01753 0.0
C883 C 0.41122 0.6477 1.00451 0.0
C884 C 0.4362 0.66922 0.02252 0.0
C885 C 0.48524 0.67218 1.0144 0.0
C886 C 0.41372 0.70104 0.02379 0.0
C887 C 0.43144 0.65186 0.04787 0.0
C888 C 0.40782 0.6247 0.04463 0.0
C889 C 0.39728 0.60566 0.06555 0.0
C890 C 0.41127 0.61459 0.09038 0.0
C891 C 0.43612 0.64222 0.09423 0.0
C892 C 0.44644 0.66082 0.07239 0.0
H893 H 0.18799 0.91803 0.47959 0.0
H894 H 0.09437 0.84307 0.46718 0.0
H895 H 0.07816 0.84128 0.51401 0.0
H896 H 0.23345 0.88852 0.5373 0.0
H897 H 0.24003 0.92527 0.55323 0.0
H898 H 0.24109 0.92325 0.51844 0.0
H899 H 0.17724 0.96305 0.51579 0.0
H900 H 0.17627 0.96543 0.5506 0.0
H901 H 0.12622 0.95582 0.53318 0.0
H902 H 0.07685 0.84421 0.5621 0.0
H903 H 0.0885 0.85272 0.60862 0.0
H904 H 0.18208 0.92667 0.59092 0.0
C905 C 0.16332 0.90183 0.48677 0.0
C906 C 0.14211 0.88081 0.46984 0.0
C907 C 0.11077 0.8594 0.47989 0.0
C908 C 0.10137 0.85822 0.50643 0.0
C909 C 0.12359 0.87864 0.52277 0.0
C910 C 0.15369 0.90021 0.5134 0.0
C911 C 0.17466 0.91822 0.53549 0.0
C912 C 0.22531 0.91352 0.53614 0.0
C913 C 0.16288 0.95267 0.53365 0.0
C914 C 0.1522 0.90301 0.55864 0.0
C915 C 0.12272 0.88037 0.55078 0.0
C916 C 0.09929 0.86225 0.5685 0.0
C917 C 0.10599 0.86742 0.59499 0.0
C918 C 0.13584 0.89064 0.60373 0.0
C919 C 0.15913 0.90865 0.58509 0.0
H920 H 0.17222 0.26329 0.39449 0.0
H921 H 0.16686 0.33777 0.33847 0.0
H922 H 0.13367 0.30194 0.30642 0.0
H923 H 0.19745 0.20047 0.34623 0.0
H924 H 0.16434 0.17266 0.36383 0.0
H925 H 0.19262 0.20323 0.38092 0.0
H926 H 0.11761 0.21963 0.40126 0.0
H927 H 0.08897 0.18963 0.3838 0.0
H928 H 0.07167 0.22925 0.38042 0.0
H929 H 0.08941 0.26067 0.2837 0.0
H930 H 0.0488 0.21462 0.26867 0.0
H931 H 0.08843 0.16479 0.33769 0.0
C932 C 0.16548 0.27168 0.37514 0.0
C933 C 0.17254 0.30317 0.36874 0.0
C934 C 0.16249 0.31363 0.3435 0.0
C935 C 0.14329 0.29349 0.32531 0.0
C936 C 0.13514 0.26285 0.33256 0.0
C937 C 0.14704 0.25174 0.35663 0.0
C938 C 0.13333 0.21809 0.35984 0.0
C939 C 0.17438 0.19739 0.36288 0.0
C940 C 0.10098 0.21393 0.38269 0.0
C941 C 0.1103 0.21232 0.33421 0.0
C942 C 0.11163 0.23851 0.31883 0.0
C943 C 0.08957 0.23974 0.29521 0.0
C944 C 0.06671 0.21334 0.28676 0.0
C945 C 0.0669 0.18561 0.30142 0.0
C946 C 0.08842 0.18537 0.32573 0.0
H947 H 0.28834 0.27002 0.88044 0.0
H948 H 0.33922 0.184 0.85013 0.0
H949 H 0.38213 0.21302 0.81704 0.0
H950 H 0.28282 0.31163 0.81555 0.0
H951 H 0.29941 0.34789 0.82977 0.0
H952 H 0.26692 0.32053 0.84829 0.0
H953 H 0.32617 0.32079 0.88436 0.0
H954 H 0.35916 0.34806 0.86628 0.0
H955 H 0.38308 0.31191 0.87644 0.0
H956 H 0.43144 0.25139 0.79444 0.0
H957 H 0.47505 0.2964 0.77888 0.0
H958 H 0.38746 0.35801 0.82048 0.0
C959 C 0.30691 0.25736 0.866 0.0
C960 C 0.30998 0.22482 0.86737 0.0
C961 C 0.33573 0.20887 0.84888 0.0
C962 C 0.36037 0.22519 0.83017 0.0
C963 C 0.35809 0.25741 0.82994 0.0
C964 C 0.33098 0.27332 0.84688 0.0
C965 C 0.3369 0.308 0.84377 0.0
C966 C 0.29396 0.3229 0.83373 0.0
C967 C 0.35225 0.32305 0.86922 0.0
C968 C 0.37325 0.3091 0.82346 0.0
C969 C 0.38506 0.27964 0.81577 0.0
C970 C 0.42156 0.27456 0.7997 0.0
C971 C 0.44641 0.30016 0.79119 0.0
C972 C 0.43408 0.33048 0.79828 0.0
C973 C 0.39678 0.33501 0.81436 0.0
H974 H 0.6219 0.19028 0.69655 0.0
H975 H 0.70152 0.23533 0.63743 0.0
H976 H 0.6842 0.28628 0.65668 0.0
H977 H 0.53652 0.24301 0.69801 0.0
H978 H 0.52719 0.24197 0.73246 0.0
H979 H 0.55017 0.20888 0.71635 0.0
H980 H 0.61851 0.20972 0.74672 0.0
H981 H 0.59544 0.24247 0.76343 0.0
H982 H 0.65068 0.24477 0.74998 0.0
H983 H 0.64849 0.33231 0.6784 0.0
H984 H 0.60364 0.36955 0.70368 0.0
H985 H 0.5514 0.2944 0.75031 0.0
C986 C 0.6365 0.21087 0.68805 0.0
C987 C 0.66313 0.20898 0.66556 0.0
C988 C 0.6815 0.23632 0.65484 0.0
C989 C 0.67166 0.26532 0.66558 0.0
C990 C 0.64413 0.26645 0.68732 0.0
C991 C 0.62756 0.23986 0.69876 0.0
C992 C 0.59717 0.24735 0.72128 0.0
C993 C 0.54998 0.23455 0.71674 0.0
C994 C 0.61663 0.23537 0.74687 0.0
C995 C 0.59798 0.2823 0.72024 0.0
C996 C 0.62518 0.29292 0.70049 0.0
C997 C 0.62797 0.32427 0.69428 0.0
C998 C 0.6023 0.34521 0.70859 0.0
C999 C 0.57485 0.33472 0.72906 0.0
C1000 C 0.57311 0.30296 0.73514 0.0
H1001 H 0.88497 0.31211 0.1883 0.0
H1002 H 0.77671 0.26471 0.14954 0.0
H1003 H 0.79433 0.21686 0.17372 0.0
H1004 H 0.9612 0.2513 0.18779 0.0
H1005 H 0.98364 0.25929 0.21942 0.0
H1006 H 0.95985 0.29003 0.20058 0.0
H1007 H 0.90651 0.3024 0.2387 0.0
H1008 H 0.93024 0.27132 0.25731 0.0
H1009 H 0.87117 0.27228 0.25157 0.0
H1010 H 0.8305 0.17253 0.19759 0.0
H1011 H 0.87799 0.13648 0.22256 0.0
H1012 H 0.9596 0.21332 0.24789 0.0
C1013 C 0.8645 0.29177 0.18527 0.0
C1014 C 0.82939 0.29208 0.16709 0.0
C1015 C 0.80337 0.26506 0.1636 0.0
C1016 C 0.8133 0.23776 0.17716 0.0
C1017 C 0.84887 0.23802 0.19447 0.0
C1018 C 0.87358 0.2645 0.19891 0.0
C1019 C 0.91088 0.25846 0.21795 0.0
C1020 C 0.95658 0.26516 0.20568 0.0
C1021 C 0.90429 0.27723 0.24286 0.0
C1022 C 0.9043 0.22421 0.22287 0.0
C1023 C 0.86836 0.21282 0.20912 0.0
C1024 C 0.85802 0.18133 0.20889 0.0
C1025 C 0.88511 0.16105 0.22302 0.0
C1026 C 0.92155 0.17242 0.23742 0.0
C1027 C 0.93103 0.20435 0.23754 0.0
H1028 H 0.75179 0.74829 0.71606 0.0
H1029 H 0.80447 0.73683 0.6386 0.0
H1030 H 0.87236 0.76577 0.65124 0.0
H1031 H 0.78503 0.82353 0.72424 0.0
H1032 H 0.79954 0.82049 0.75785 0.0
H1033 H 0.75815 0.79507 0.74457 0.0
H1034 H 0.80169 0.74733 0.75967 0.0
H1035 H 0.84399 0.77162 0.7737 0.0
H1036 H 0.85905 0.74281 0.75033 0.0
H1037 H 0.93008 0.80151 0.67124 0.0
H1038 H 0.97403 0.83854 0.69692 0.0
H1039 H 0.8832 0.82611 0.76133 0.0
C1040 C 0.77798 0.75139 0.70188 0.0
C1041 C 0.77294 0.74034 0.67635 0.0
C1042 C 0.80791 0.74482 0.65834 0.0
C1043 C 0.84648 0.76132 0.66534 0.0
C1044 C 0.84975 0.77274 0.69052 0.0
C1045 C 0.81664 0.76755 0.70857 0.0
C1046 C 0.82674 0.78367 0.73384 0.0
C1047 C 0.79016 0.80706 0.7405 0.0
C1048 C 0.83323 0.75996 0.75568 0.0
C1049 C 0.87005 0.79973 0.72705 0.0
C1050 C 0.883 0.79294 0.70204 0.0
C1051 C 0.92051 0.80658 0.69096 0.0
C1052 C 0.94517 0.82777 0.70575 0.0
C1053 C 0.93232 0.83533 0.73142 0.0
C1054 C 0.8945 0.82066 0.74213 0.0
H1055 H 0.75944 0.73369 0.17071 0.0
H1056 H 0.67875 0.81407 0.15392 0.0
H1057 H 0.61681 0.79085 0.17924 0.0
H1058 H 0.67164 0.67906 0.16209 0.0
H1059 H 0.69173 0.65327 0.18682 0.0
H1060 H 0.73021 0.67752 0.16931 0.0
H1061 H 0.75913 0.70109 0.21236 0.0
H1062 H 0.72161 0.67573 0.22934 0.0
H1063 H 0.71976 0.71692 0.23501 0.0
H1064 H 0.56119 0.75566 0.20391 0.0
H1065 H 0.51998 0.71434 0.22718 0.0
H1066 H 0.63816 0.65738 0.22661 0.0
C1067 C 0.72884 0.74662 0.17228 0.0
C1068 C 0.72414 0.77578 0.16006 0.0
C1069 C 0.68357 0.79191 0.16322 0.0
C1070 C 0.64803 0.77872 0.17741 0.0
C1071 C 0.65351 0.74938 0.18836 0.0
C1072 C 0.69312 0.73369 0.18595 0.0
C1073 C 0.6905 0.70198 0.19832 0.0
C1074 C 0.69636 0.67646 0.17792 0.0
C1075 C 0.72479 0.6988 0.2201 0.0
C1076 C 0.64345 0.70229 0.20873 0.0
C1077 C 0.62228 0.72964 0.20255 0.0
C1078 C 0.57775 0.73437 0.20902 0.0
C1079 C 0.55452 0.71069 0.22215 0.0
C1080 C 0.57582 0.68266 0.22889 0.0
C1081 C 0.62098 0.67865 0.2221 0.0
H1082 H 0.2425 0.74301 0.3289 0.0
H1083 H 0.31692 0.78534 0.39139 0.0
H1084 H 0.38621 0.76255 0.37421 0.0
H1085 H 0.29842 0.67255 0.32761 0.0
H1086 H 0.29802 0.66838 0.29293 0.0
H1087 H 0.25516 0.6903 0.30867 0.0
H1088 H 0.2741 0.7378 0.28007 0.0
H1089 H 0.31699 0.71608 0.26414 0.0
H1090 H 0.33034 0.7524 0.27921 0.0
H1091 H 0.44463 0.72889 0.35405 0.0
H1092 H 0.49011 0.69214 0.32969 0.0
H1093 H 0.37888 0.67364 0.27872 0.0
C1094 C 0.27354 0.74788 0.33871 0.0
C1095 C 0.27442 0.76599 0.36147 0.0
C1096 C 0.31561 0.77188 0.37376 0.0
C1097 C 0.35504 0.75887 0.36423 0.0
C1098 C 0.35279 0.74042 0.34216 0.0
C1099 C 0.31322 0.73535 0.3293 0.0
C1100 C 0.31966 0.71404 0.30637 0.0
C1101 C 0.29112 0.68458 0.30907 0.0
C1102 C 0.30968 0.7311 0.28094 0.0
C1103 C 0.36877 0.70697 0.30885 0.0
C1104 C 0.3872 0.72245 0.32962 0.0
C1105 C 0.43095 0.71751 0.3372 0.0
C1106 C 0.45668 0.69655 0.32303 0.0
C1107 C 0.4391 0.68108 0.30107 0.0
C1108 C 0.3943 0.68632 0.29421 0.0
H1109 H 0.20354 0.77752 0.88757 0.0
H1110 H 0.24604 0.71355 0.8282 0.0
H1111 H 0.18694 0.73318 0.79915 0.0
H1112 H 0.0825 0.77492 0.87252 0.0
H1113 H 0.07606 0.8155 0.87929 0.0
H1114 H 0.11743 0.79336 0.89629 0.0
H1115 H 0.17823 0.83218 0.88136 0.0
H1116 H 0.13718 0.85425 0.8642 0.0
H1117 H 0.18526 0.8399 0.8473 0.0
H1118 H 0.13047 0.76552 0.77459 0.0
H1119 H 0.07837 0.80475 0.7578 0.0
H1120 H 0.07179 0.84659 0.83387 0.0
C1121 C 0.19974 0.76713 0.86865 0.0
C1122 C 0.22932 0.74395 0.86012 0.0
C1123 C 0.2234 0.73102 0.83523 0.0
C1124 C 0.19007 0.74217 0.81858 0.0
C1125 C 0.16253 0.7659 0.82729 0.0
C1126 C 0.16661 0.77785 0.85195 0.0
C1127 C 0.13494 0.80451 0.8562 0.0
C1128 C 0.1007 0.79659 0.87733 0.0
C1129 C 0.16044 0.83447 0.86263 0.0
C1130 C 0.11324 0.80642 0.82984 0.0
C1131 C 0.12945 0.78392 0.81342 0.0
C1132 C 0.11693 0.78279 0.78746 0.0
C1133 C 0.08741 0.80525 0.77807 0.0
C1134 C 0.07047 0.82852 0.79459 0.0
C1135 C 0.08323 0.82868 0.82089 0.0
loop_
_geom_bond_atom_site_label_1
_geom_bond_atom_site_label_2
_geom_bond_distance
_geom_bond_site_symmetry_2
_ccdc_geom_bond_type
H0 C1 0.949 . S
C1 H0 0.949 . S
C1 C2 1.395 . S
C1 C3 1.391 . S
C2 C1 1.395 . S
C2 C5 1.390 . S
C3 C1 1.391 . S
C3 C7 1.387 . S
C3 C8 1.491 . S
H4 C5 0.950 . S
C5 C2 1.390 . S
C5 H4 0.950 . S
C5 C6 1.378 . S
C6 C5 1.378 . S
C6 C7 1.409 . S
C7 C3 1.387 . S
C7 C6 1.409 . S
C7 H9 0.951 . S
C8 C3 1.491 . S
C8 C10 1.382 . S
C8 C12 1.404 . S
H9 C7 0.951 . S
C10 C8 1.382 . S
C10 C11 1.390 . S
C10 H15 0.949 . S
C11 C10 1.390 . S
C11 C16 1.399 . S
C12 C8 1.404 . S
C12 H13 0.950 . S
C12 C14 1.375 . S
H13 C12 0.950 . S
C14 C12 1.375 . S
C14 C16 1.382 . S
C14 H18 0.950 . S
H15 C10 0.949 . S
C16 C11 1.399 . S
C16 C14 1.382 . S
C16 H17 0.952 . S
H17 C16 0.952 . S
H18 C14 0.950 . S
H19 C20 0.949 . S
C20 H19 0.949 . S
C20 C21 1.395 . S
C20 C22 1.391 . S
C21 C20 1.395 . S
C21 C24 1.390 . S
C22 C20 1.391 . S
C22 C26 1.387 . S
C22 C27 1.491 . S
H23 C24 0.950 . S
C24 C21 1.390 . S
C24 H23 0.950 . S
C24 C25 1.378 . S
C25 C24 1.378 . S
C25 C26 1.409 . S
C26 C22 1.387 . S
C26 C25 1.409 . S
C26 H28 0.951 . S
C27 C22 1.491 . S
C27 C29 1.382 . S
C27 C31 1.404 . S
H28 C26 0.951 . S
C29 C27 1.382 . S
C29 C30 1.390 . S
C29 H34 0.949 . S
C30 C29 1.390 . S
C30 C35 1.399 . S
C31 C27 1.404 . S
C31 H32 0.950 . S
C31 C33 1.375 . S
H32 C31 0.950 . S
C33 C31 1.375 . S
C33 C35 1.382 . S
C33 H37 0.950 . S
H34 C29 0.949 . S
C35 C30 1.399 . S
C35 C33 1.382 . S
C35 H36 0.952 . S
H36 C35 0.952 . S
H37 C33 0.950 . S
H38 C39 0.949 . S
C39 H38 0.949 . S
C39 C40 1.395 . S
C39 C41 1.391 . S
C40 C39 1.395 . S
C40 C43 1.390 . S
C41 C39 1.391 . S
C41 C45 1.387 . S
C41 C46 1.491 . S
H42 C43 0.950 . S
C43 C40 1.390 . S
C43 H42 0.950 . S
C43 C44 1.378 . S
C44 C43 1.378 . S
C44 C45 1.409 . S
C45 C41 1.387 . S
C45 C44 1.409 . S
C45 H47 0.951 . S
C46 C41 1.491 . S
C46 C48 1.382 . S
C46 C50 1.404 . S
H47 C45 0.951 . S
C48 C46 1.382 . S
C48 C49 1.390 . S
C48 H53 0.949 . S
C49 C48 1.390 . S
C49 C54 1.399 . S
C50 C46 1.404 . S
C50 H51 0.950 . S
C50 C52 1.375 . S
H51 C50 0.950 . S
C52 C50 1.375 . S
C52 C54 1.382 . S
C52 H56 0.950 . S
H53 C48 0.949 . S
C54 C49 1.399 . S
C54 C52 1.382 . S
C54 H55 0.952 . S
H55 C54 0.952 . S
H56 C52 0.950 . S
H57 C58 0.949 . S
C58 H57 0.949 . S
C58 C59 1.395 . S
C58 C60 1.391 . S
C59 C58 1.395 . S
C59 C62 1.390 . S
C60 C58 1.391 . S
C60 C64 1.387 . S
C60 C65 1.491 . S
H61 C62 0.950 . S
C62 C59 1.390 . S
C62 H61 0.950 . S
C62 C63 1.378 . S
C63 C62 1.378 . S
C63 C64 1.409 . S
C64 C60 1.387 . S
C64 C63 1.409 . S
C64 H66 0.951 . S
C65 C60 1.491 . S
C65 C67 1.382 . S
C65 C69 1.404 . S
H66 C64 0.951 . S
C67 C65 1.382 . S
C67 C68 1.390 . S
C67 H72 0.949 . S
C68 C67 1.390 . S
C68 C73 1.399 . S
C69 C65 1.404 . S
C69 H70 0.950 . S
C69 C71 1.375 . S
H70 C69 0.950 . S
C71 C69 1.375 . S
C71 C73 1.382 . S
C71 H75 0.950 . S
H72 C67 0.949 . S
C73 C68 1.399 . S
C73 C71 1.382 . S
C73 H74 0.952 . S
H74 C73 0.952 . S
H75 C71 0.950 . S
H76 C77 0.949 . S
C77 H76 0.949 . S
C77 C78 1.395 . S
C77 C79 1.391 . S
C78 C77 1.395 . S
C78 C81 1.390 . S
C79 C77 1.391 . S
C79 C83 1.387 . S
C79 C84 1.491 . S
H80 C81 0.950 . S
C81 C78 1.390 . S
C81 H80 0.950 . S
C81 C82 1.378 . S
C82 C81 1.378 . S
C82 C83 1.409 . S
C83 C79 1.387 . S
C83 C82 1.409 . S
C83 H85 0.951 . S
C84 C79 1.491 . S
C84 C86 1.382 . S
C84 C88 1.404 . S
H85 C83 0.951 . S
C86 C84 1.382 . S
C86 C87 1.390 . S
C86 H91 0.949 . S
C87 C86 1.390 . S
C87 C92 1.399 . S
C88 C84 1.404 . S
C88 H89 0.950 . S
C88 C90 1.375 . S
H89 C88 0.950 . S
C90 C88 1.375 . S
C90 C92 1.382 . S
C90 H94 0.950 . S
H91 C86 0.949 . S
C92 C87 1.399 . S
C92 C90 1.382 . S
C92 H93 0.952 . S
H93 C92 0.952 . S
H94 C90 0.950 . S
H95 C96 0.949 . S
C96 H95 0.949 . S
C96 C97 1.395 . S
C96 C98 1.391 . S
C97 C96 1.395 . S
C97 C100 1.390 . S
C98 C96 1.391 . S
C98 C102 1.387 . S
C98 C103 1.491 . S
H99 C100 0.950 . S
C100 C97 1.390 . S
C100 H99 0.950 . S
C100 C101 1.378 . S
C101 C100 1.378 . S
C101 C102 1.409 . S
C102 C98 1.387 . S
C102 C101 1.409 . S
C102 H104 0.951 . S
C103 C98 1.491 . S
C103 C105 1.382 . S
C103 C107 1.404 . S
H104 C102 0.951 . S
C105 C103 1.382 . S
C105 C106 1.390 . S
C105 H110 0.949 . S
C106 C105 1.390 . S
C106 C111 1.399 . S
C107 C103 1.404 . S
C107 H108 0.950 . S
C107 C109 1.375 . S
H108 C107 0.950 . S
C109 C107 1.375 . S
C109 C111 1.382 . S
C109 H113 0.950 . S
H110 C105 0.949 . S
C111 C106 1.399 . S
C111 C109 1.382 . S
C111 H112 0.952 . S
H112 C111 0.952 . S
H113 C109 0.950 . S
H114 C115 0.949 . S
C115 H114 0.949 . S
C115 C116 1.395 . S
C115 C117 1.391 . S
C116 C115 1.395 . S
C116 C119 1.390 . S
C117 C115 1.391 . S
C117 C121 1.387 . S
C117 C122 1.491 . S
H118 C119 0.950 . S
C119 C116 1.390 . S
C119 H118 0.950 . S
C119 C120 1.378 . S
C120 C119 1.378 . S
C120 C121 1.409 . S
C121 C117 1.387 . S
C121 C120 1.409 . S
C121 H123 0.951 . S
C122 C117 1.491 . S
C122 C124 1.382 . S
C122 C126 1.404 . S
H123 C121 0.951 . S
C124 C122 1.382 . S
C124 C125 1.390 . S
C124 H129 0.949 . S
C125 C124 1.390 . S
C125 C130 1.399 . S
C126 C122 1.404 . S
C126 H127 0.950 . S
C126 C128 1.375 . S
H127 C126 0.950 . S
C128 C126 1.375 . S
C128 C130 1.382 . S
C128 H132 0.950 . S
H129 C124 0.949 . S
C130 C125 1.399 . S
C130 C128 1.382 . S
C130 H131 0.952 . S
H131 C130 0.952 . S
H132 C128 0.950 . S
H133 C134 0.949 . S
C134 H133 0.949 . S
C134 C135 1.395 . S
C134 C136 1.391 . S
C135 C134 1.395 . S
C135 C138 1.390 . S
C136 C134 1.391 . S
C136 C140 1.387 . S
C136 C141 1.491 . S
H137 C138 0.950 . S
C138 C135 1.390 . S
C138 H137 0.950 . S
C138 C139 1.378 . S
C139 C138 1.378 . S
C139 C140 1.409 . S
C140 C136 1.387 . S
C140 C139 1.409 . S
C140 H142 0.951 . S
C141 C136 1.491 . S
C141 C143 1.382 . S
C141 C145 1.404 . S
H142 C140 0.951 . S
C143 C141 1.382 . S
C143 C144 1.390 . S
C143 H148 0.949 . S
C144 C143 1.390 . S
C144 C149 1.399 . S
C145 C141 1.404 . S
C145 H146 0.950 . S
C145 C147 1.375 . S
H146 C145 0.950 . S
C147 C145 1.375 . S
C147 C149 1.382 . S
C147 H151 0.950 . S
H148 C143 0.949 . S
C149 C144 1.399 . S
C149 C147 1.382 . S
C149 H150 0.952 . S
H150 C149 0.952 . S
H151 C147 0.950 . S
Tb152 N181 2.617 . S
Tb152 N187 2.572 . S
Tb152 O196 2.465 . S
Tb152 O197 2.387 . S
Tb152 O199 2.428 . S
Tb152 O200 2.308 1_455 S
Tb152 O204 2.336 1_455 S
Tb152 O207 2.393 . S
Tb152 C216 2.802 . S
C153 N154 1.379 . S
C153 C156 1.416 . S
C153 C160 1.424 . S
N154 C153 1.379 . S
N154 C157 1.334 . S
N154 Tb163 2.617 . S
C155 C157 1.390 . S
C155 C158 1.339 . S
C155 H175 0.930 . S
C156 C153 1.416 . S
C156 C158 1.416 . S
C156 C162 1.448 . S
C157 N154 1.334 . S
C157 C155 1.390 . S
C157 H168 0.930 . S
C158 C155 1.339 . S
C158 C156 1.416 . S
C158 H179 0.930 . S
C159 C160 1.413 . S
C159 C161 1.427 . S
C159 C165 1.416 1_545 S
C160 C153 1.424 . S
C160 C159 1.413 . S
C160 N164 1.361 . S
C161 C159 1.427 . S
C161 C162 1.328 . S
C161 H176 0.929 1_545 S
C162 C156 1.448 . S
C162 C161 1.328 . S
C162 H177 0.930 . S
Tb163 N154 2.617 . S
Tb163 N164 2.572 . S
Tb163 O198 2.349 1_655 S
Tb163 O201 2.393 . S
Tb163 O202 2.465 . S
Tb163 O203 2.387 . S
Tb163 O205 2.428 . S
Tb163 O206 2.308 1_655 S
Tb163 C227 2.802 . S
N164 C160 1.361 . S
N164 Tb163 2.572 . S
N164 C166 1.340 . S
C165 C159 1.416 1_565 S
C165 C167 1.332 . S
C165 H173 0.931 . S
C166 N164 1.340 . S
C166 C167 1.407 1_545 S
C166 H172 0.930 . S
C167 C165 1.332 . S
C167 C166 1.407 1_565 S
C167 H169 0.929 . S
H168 C157 0.930 . S
H169 C167 0.929 . S
H170 C185 0.930 . S
H171 C192 0.929 . S
H172 C166 0.930 . S
H173 C165 0.931 . S
H174 C188 0.930 . S
H175 C155 0.930 . S
H176 C161 0.929 1_565 S
H177 C162 0.930 . S
H178 C183 0.930 . S
H179 C158 0.930 . S
H180 C191 0.931 . S
N181 Tb152 2.617 . S
N181 C182 1.379 . S
N181 C185 1.334 . S
C182 N181 1.379 . S
C182 C184 1.416 . S
C182 C190 1.424 . S
C183 H178 0.930 . S
C183 C185 1.390 . S
C183 C186 1.339 . S
C184 C182 1.416 . S
C184 C186 1.416 . S
C184 C217 1.448 . S
C185 H170 0.930 . S
C185 N181 1.334 . S
C185 C183 1.390 . S
C186 C183 1.339 . S
C186 C184 1.416 . S
C186 H193 0.930 . S
N187 Tb152 2.572 . S
N187 C188 1.340 . S
N187 C190 1.361 . S
C188 H174 0.930 . S
C188 N187 1.340 . S
C188 C192 1.407 . S
C189 C190 1.413 . S
C189 C191 1.416 . S
C189 C218 1.427 . S
C190 C182 1.424 . S
C190 N187 1.361 . S
C190 C189 1.413 . S
C191 H180 0.931 . S
C191 C189 1.416 . S
C191 C192 1.332 . S
C192 H171 0.929 . S
C192 C188 1.407 . S
C192 C191 1.332 . S
H193 C186 0.930 . S
H194 C217 0.930 . S
H195 C218 0.929 . S
O196 Tb152 2.465 . S
O196 C216 1.264 . S
O197 Tb152 2.387 . S
O197 C208 1.264 . S
O198 Tb163 2.349 1_455 S
O198 C208 1.243 . S
O199 Tb152 2.428 . S
O199 C216 1.256 . S
O200 Tb152 2.308 1_655 S
O200 C215 1.266 . S
O201 Tb163 2.393 . S
O201 C215 1.248 . S
O202 Tb163 2.465 . S
O202 C227 1.264 . S
O203 Tb163 2.387 . S
O203 C219 1.264 . S
O204 Tb152 2.336 1_655 S
O204 C219 1.260 . S
O205 Tb163 2.428 . S
O205 C227 1.256 . S
O206 Tb163 2.308 1_455 S
O206 C226 1.266 . S
O207 Tb152 2.393 . S
O207 C226 1.248 . S
C208 O197 1.264 . S
C208 O198 1.243 . S
C209 C212 1.399 . S
C209 C214 1.383 . S
C209 C216 1.496 . S
C210 C211 1.399 . S
C210 C214 1.389 . S
C211 C210 1.399 . S
C211 C213 1.380 . S
C211 H228 0.929 . S
C212 C209 1.399 . S
C212 C213 1.392 . S
C212 H229 0.929 . S
C213 C211 1.380 . S
C213 C212 1.392 . S
C213 H230 0.929 . S
C214 C209 1.383 . S
C214 C210 1.389 . S
C214 H231 0.931 . S
C215 O200 1.266 . S
C215 O201 1.248 . S
C216 Tb152 2.802 . S
C216 O196 1.264 . S
C216 O199 1.256 . S
C216 C209 1.496 . S
C217 C184 1.448 . S
C217 H194 0.930 . S
C217 C218 1.328 . S
C218 C189 1.427 . S
C218 H195 0.929 . S
C218 C217 1.328 . S
C219 O203 1.264 . S
C219 O204 1.260 . S
C220 C223 1.399 . S
C220 C224 1.383 . S
C220 C227 1.496 . S
C221 C222 1.399 . S
C221 C224 1.389 . S
C222 C221 1.399 . S
C222 C225 1.380 . S
C222 H232 0.929 . S
C223 C220 1.399 . S
C223 C225 1.392 . S
C223 H233 0.929 . S
C224 C220 1.383 . S
C224 C221 1.389 . S
C224 H234 0.931 . S
C225 C222 1.380 . S
C225 C223 1.392 . S
C225 H235 0.929 . S
C226 O206 1.266 . S
C226 O207 1.248 . S
C227 Tb163 2.802 . S
C227 O202 1.264 . S
C227 O205 1.256 . S
C227 C220 1.496 . S
H228 C211 0.929 . S
H229 C212 0.929 . S
H230 C213 0.929 . S
H231 C214 0.931 . S
H232 C222 0.929 . S
H233 C223 0.929 . S
H234 C224 0.931 . S
H235 C225 0.929 . S
Tb236 N265 2.617 . S
Tb236 N271 2.572 . S
Tb236 O280 2.465 . S
Tb236 O281 2.387 . S
Tb236 O283 2.428 . S
Tb236 O284 2.308 . S
Tb236 O288 2.349 . S
Tb236 O291 2.393 . S
Tb236 C300 2.802 . S
C237 N238 1.379 . S
C237 C240 1.416 . S
C237 C244 1.424 . S
N238 C237 1.379 . S
N238 C241 1.334 . S
N238 Tb247 2.617 . S
C239 C241 1.390 . S
C239 C242 1.339 . S
C239 H259 0.930 . S
C240 C237 1.416 . S
C240 C242 1.416 . S
C240 C246 1.448 . S
C241 N238 1.334 . S
C241 C239 1.390 . S
C241 H252 0.930 . S
C242 C239 1.339 . S
C242 C240 1.416 . S
C242 H263 0.930 . S
C243 C244 1.413 . S
C243 C245 1.427 . S
C243 C249 1.416 . S
C244 C237 1.424 . S
C244 C243 1.413 . S
C244 N248 1.361 . S
C245 C243 1.427 . S
C245 C246 1.328 . S
C245 H260 0.929 . S
C246 C240 1.448 . S
C246 C245 1.328 . S
C246 H261 0.930 . S
Tb247 N238 2.617 . S
Tb247 N248 2.572 . S
Tb247 O282 2.349 . S
Tb247 O285 2.393 . S
Tb247 O286 2.465 . S
Tb247 O287 2.387 . S
Tb247 O289 2.428 . S
Tb247 O290 2.308 . S
Tb247 C311 2.802 . S
N248 C244 1.361 . S
N248 Tb247 2.572 . S
N248 C250 1.340 . S
C249 C243 1.416 . S
C249 C251 1.332 . S
C249 H257 0.931 . S
C250 N248 1.340 . S
C250 C251 1.407 . S
C250 H256 0.930 . S
C251 C249 1.332 . S
C251 C250 1.407 . S
C251 H253 0.929 . S
H252 C241 0.930 . S
H253 C251 0.929 . S
H254 C269 0.930 . S
H255 C276 0.929 . S
H256 C250 0.930 . S
H257 C249 0.931 . S
H258 C272 0.930 . S
H259 C239 0.930 . S
H260 C245 0.929 . S
H261 C246 0.930 . S
H262 C267 0.930 . S
H263 C242 0.930 . S
H264 C275 0.931 . S
N265 Tb236 2.617 . S
N265 C266 1.379 . S
N265 C269 1.334 . S
C266 N265 1.379 . S
C266 C268 1.416 . S
C266 C274 1.424 . S
C267 H262 0.930 . S
C267 C269 1.390 . S
C267 C270 1.339 . S
C268 C266 1.416 . S
C268 C270 1.416 . S
C268 C301 1.448 . S
C269 H254 0.930 . S
C269 N265 1.334 . S
C269 C267 1.390 . S
C270 C267 1.339 . S
C270 C268 1.416 . S
C270 H277 0.930 . S
N271 Tb236 2.572 . S
N271 C272 1.340 . S
N271 C274 1.361 . S
C272 H258 0.930 . S
C272 N271 1.340 . S
C272 C276 1.407 . S
C273 C274 1.413 . S
C273 C275 1.416 . S
C273 C302 1.427 . S
C274 C266 1.424 . S
C274 N271 1.361 . S
C274 C273 1.413 . S
C275 H264 0.931 . S
C275 C273 1.416 . S
C275 C276 1.332 . S
C276 H255 0.929 . S
C276 C272 1.407 . S
C276 C275 1.332 . S
H277 C270 0.930 . S
H278 C301 0.930 . S
H279 C302 0.929 . S
O280 Tb236 2.465 . S
O280 C300 1.264 . S
O281 Tb236 2.387 . S
O281 C292 1.264 . S
O282 Tb247 2.349 . S
O282 C292 1.243 . S
O283 Tb236 2.428 . S
O283 C300 1.256 . S
O284 Tb236 2.308 . S
O284 C299 1.266 . S
O285 Tb247 2.393 . S
O285 C299 1.248 . S
O286 Tb247 2.465 . S
O286 C311 1.264 . S
O287 Tb247 2.387 . S
O287 C303 1.264 . S
O288 Tb236 2.349 . S
O288 C303 1.243 . S
O289 Tb247 2.428 . S
O289 C311 1.256 . S
O290 Tb247 2.308 . S
O290 C310 1.266 . S
O291 Tb236 2.393 . S
O291 C310 1.248 . S
C292 O281 1.264 . S
C292 O282 1.243 . S
C293 C296 1.399 . S
C293 C298 1.383 . S
C293 C300 1.496 . S
C294 C295 1.399 . S
C294 C298 1.389 . S
C295 C294 1.399 . S
C295 C297 1.380 . S
C295 H312 0.929 . S
C296 C293 1.399 . S
C296 C297 1.392 . S
C296 H313 0.929 . S
C297 C295 1.380 . S
C297 C296 1.392 . S
C297 H314 0.929 . S
C298 C293 1.383 . S
C298 C294 1.389 . S
C298 H315 0.931 . S
C299 O284 1.266 . S
C299 O285 1.248 . S
C300 Tb236 2.802 . S
C300 O280 1.264 . S
C300 O283 1.256 . S
C300 C293 1.496 . S
C301 C268 1.448 . S
C301 H278 0.930 . S
C301 C302 1.328 . S
C302 C273 1.427 . S
C302 H279 0.929 . S
C302 C301 1.328 . S
C303 O287 1.264 . S
C303 O288 1.243 . S
C304 C307 1.399 . S
C304 C308 1.383 . S
C304 C311 1.496 . S
C305 C306 1.399 . S
C305 C308 1.389 . S
C306 C305 1.399 . S
C306 C309 1.380 . S
C306 H316 0.929 . S
C307 C304 1.399 . S
C307 C309 1.392 . S
C307 H317 0.929 . S
C308 C304 1.383 . S
C308 C305 1.389 . S
C308 H318 0.931 . S
C309 C306 1.380 . S
C309 C307 1.392 . S
C309 H319 0.929 . S
C310 O290 1.266 . S
C310 O291 1.248 . S
C311 Tb247 2.802 . S
C311 O286 1.264 . S
C311 O289 1.256 . S
C311 C304 1.496 . S
H312 C295 0.929 . S
H313 C296 0.929 . S
H314 C297 0.929 . S
H315 C298 0.931 . S
H316 C306 0.929 . S
H317 C307 0.929 . S
H318 C308 0.931 . S
H319 C309 0.929 . S
Tb320 N349 2.617 . S
Tb320 N355 2.572 . S
Tb320 O364 2.465 . S
Tb320 O365 2.387 . S
Tb320 O367 2.428 . S
Tb320 O368 2.324 . S
Tb320 O372 2.349 . S
Tb320 O375 2.393 . S
Tb320 C384 2.802 . S
C321 N322 1.379 . S
C321 C324 1.416 . S
C321 C328 1.424 . S
N322 C321 1.379 . S
N322 C325 1.334 . S
N322 Tb331 2.617 . S
C323 C325 1.390 . S
C323 C326 1.339 . S
C323 H343 0.930 . S
C324 C321 1.416 . S
C324 C326 1.416 . S
C324 C330 1.448 . S
C325 N322 1.334 . S
C325 C323 1.390 . S
C325 H336 0.930 . S
C326 C323 1.339 . S
C326 C324 1.416 . S
C326 H347 0.930 . S
C327 C328 1.413 . S
C327 C329 1.427 . S
C327 C333 1.416 . S
C328 C321 1.424 . S
C328 C327 1.413 . S
C328 N332 1.361 . S
C329 C327 1.427 . S
C329 C330 1.328 . S
C329 H344 0.929 . S
C330 C324 1.448 . S
C330 C329 1.328 . S
C330 H345 0.930 . S
Tb331 N322 2.617 . S
Tb331 N332 2.572 . S
Tb331 O366 2.349 1_655 S
Tb331 O369 2.393 . S
Tb331 O370 2.465 . S
Tb331 O371 2.387 . S
Tb331 O373 2.428 . S
Tb331 O374 2.308 1_655 S
Tb331 C395 2.802 . S
N332 C328 1.361 . S
N332 Tb331 2.572 . S
N332 C334 1.340 . S
C333 C327 1.416 . S
C333 C335 1.332 . S
C333 H341 0.931 . S
C334 N332 1.340 . S
C334 C335 1.407 . S
C334 H340 0.930 . S
C335 C333 1.332 . S
C335 C334 1.407 . S
C335 H337 0.929 . S
H336 C325 0.930 . S
H337 C335 0.929 . S
H338 C353 0.930 . S
H339 C360 0.929 . S
H340 C334 0.930 . S
H341 C333 0.931 . S
H342 C356 0.930 . S
H343 C323 0.930 . S
H344 C329 0.929 . S
H345 C330 0.930 . S
H346 C351 0.930 . S
H347 C326 0.930 . S
H348 C359 0.931 . S
N349 Tb320 2.617 . S
N349 C350 1.379 . S
N349 C353 1.334 . S
C350 N349 1.379 . S
C350 C352 1.416 . S
C350 C358 1.424 . S
C351 H346 0.930 . S
C351 C353 1.390 . S
C351 C354 1.339 . S
C352 C350 1.416 . S
C352 C354 1.416 . S
C352 C385 1.448 . S
C353 H338 0.930 . S
C353 N349 1.334 . S
C353 C351 1.390 . S
C354 C351 1.339 . S
C354 C352 1.416 . S
C354 H361 0.930 . S
N355 Tb320 2.572 . S
N355 C356 1.340 . S
N355 C358 1.361 . S
C356 H342 0.930 . S
C356 N355 1.340 . S
C356 C360 1.407 1_565 S
C357 C358 1.413 . S
C357 C359 1.416 1_565 S
C357 C386 1.427 . S
C358 C350 1.424 . S
C358 N355 1.361 . S
C358 C357 1.413 . S
C359 H348 0.931 . S
C359 C357 1.416 1_545 S
C359 C360 1.332 . S
C360 H339 0.929 . S
C360 C356 1.407 1_545 S
C360 C359 1.332 . S
H361 C354 0.930 . S
H362 C385 0.930 . S
H363 C386 0.929 1_545 S
O364 Tb320 2.465 . S
O364 C384 1.264 . S
O365 Tb320 2.387 . S
O365 C376 1.264 . S
O366 Tb331 2.349 1_455 S
O366 C376 1.243 . S
O367 Tb320 2.428 . S
O367 C384 1.256 . S
O368 Tb320 2.324 . S
O368 C383 1.247 1_455 S
O369 Tb331 2.393 . S
O369 C383 1.248 . S
O370 Tb331 2.465 . S
O370 C395 1.264 . S
O371 Tb331 2.387 . S
O371 C387 1.264 . S
O372 Tb320 2.349 . S
O372 C387 1.243 1_455 S
O373 Tb331 2.428 . S
O373 C395 1.256 . S
O374 Tb331 2.308 1_455 S
O374 C394 1.266 . S
O375 Tb320 2.393 . S
O375 C394 1.248 . S
C376 O365 1.264 . S
C376 O366 1.243 . S
C377 C380 1.399 . S
C377 C382 1.383 . S
C377 C384 1.496 . S
C378 C379 1.399 . S
C378 C382 1.389 . S
C379 C378 1.399 . S
C379 C381 1.380 . S
C379 H396 0.929 . S
C380 C377 1.399 . S
C380 C381 1.392 . S
C380 H397 0.929 . S
C381 C379 1.380 . S
C381 C380 1.392 . S
C381 H398 0.929 . S
C382 C377 1.383 . S
C382 C378 1.389 . S
C382 H399 0.931 . S
C383 O368 1.247 1_655 S
C383 O369 1.248 . S
C384 Tb320 2.802 . S
C384 O364 1.264 . S
C384 O367 1.256 . S
C384 C377 1.496 . S
C385 C352 1.448 . S
C385 H362 0.930 . S
C385 C386 1.328 . S
C386 C357 1.427 . S
C386 H363 0.929 1_565 S
C386 C385 1.328 . S
C387 O371 1.264 . S
C387 O372 1.243 1_655 S
C388 C391 1.399 . S
C388 C392 1.383 . S
C388 C395 1.496 . S
C389 C390 1.399 . S
C389 C392 1.389 . S
C390 C389 1.399 . S
C390 C393 1.380 . S
C390 H400 0.929 . S
C391 C388 1.399 . S
C391 C393 1.392 . S
C391 H401 0.929 . S
C392 C388 1.383 . S
C392 C389 1.389 . S
C392 H402 0.931 . S
C393 C390 1.380 . S
C393 C391 1.392 . S
C393 H403 0.929 . S
C394 O374 1.266 . S
C394 O375 1.248 . S
C395 Tb331 2.802 . S
C395 O370 1.264 . S
C395 O373 1.256 . S
C395 C388 1.496 . S
H396 C379 0.929 . S
H397 C380 0.929 . S
H398 C381 0.929 . S
H399 C382 0.931 . S
H400 C390 0.929 . S
H401 C391 0.929 . S
H402 C392 0.931 . S
H403 C393 0.929 . S
Tb404 N433 2.617 . S
Tb404 N439 2.572 . S
Tb404 O448 2.465 . S
Tb404 O449 2.387 . S
Tb404 O451 2.428 . S
Tb404 O452 2.308 . S
Tb404 O456 2.349 . S
Tb404 O459 2.393 . S
Tb404 C468 2.802 . S
C405 N406 1.379 . S
C405 C408 1.416 . S
C405 C412 1.424 . S
N406 C405 1.379 . S
N406 C409 1.334 . S
N406 Tb415 2.617 . S
C407 C409 1.390 . S
C407 C410 1.339 . S
C407 H427 0.930 . S
C408 C405 1.416 . S
C408 C410 1.416 . S
C408 C414 1.448 . S
C409 N406 1.334 . S
C409 C407 1.390 . S
C409 H420 0.930 . S
C410 C407 1.339 . S
C410 C408 1.416 . S
C410 H431 0.930 . S
C411 C412 1.413 . S
C411 C413 1.427 . S
C411 C417 1.416 . S
C412 C405 1.424 . S
C412 C411 1.413 . S
C412 N416 1.361 . S
C413 C411 1.427 . S
C413 C414 1.328 . S
C413 H428 0.929 . S
C414 C408 1.448 . S
C414 C413 1.328 . S
C414 H429 0.930 . S
Tb415 N406 2.617 . S
Tb415 N416 2.572 . S
Tb415 O450 2.349 . S
Tb415 O453 2.393 . S
Tb415 O454 2.465 . S
Tb415 O455 2.387 . S
Tb415 O457 2.428 . S
Tb415 O458 2.308 . S
Tb415 C479 2.802 . S
N416 C412 1.361 . S
N416 Tb415 2.572 . S
N416 C418 1.340 . S
C417 C411 1.416 . S
C417 C419 1.332 . S
C417 H425 0.931 . S
C418 N416 1.340 . S
C418 C419 1.407 . S
C418 H424 0.930 . S
C419 C417 1.332 . S
C419 C418 1.407 . S
C419 H421 0.929 . S
H420 C409 0.930 . S
H421 C419 0.929 . S
H422 C437 0.930 . S
H423 C444 0.929 . S
H424 C418 0.930 . S
H425 C417 0.931 . S
H426 C440 0.930 . S
H427 C407 0.930 . S
H428 C413 0.929 . S
H429 C414 0.930 . S
H430 C435 0.930 . S
H431 C410 0.930 . S
H432 C443 0.931 . S
N433 Tb404 2.617 . S
N433 C434 1.379 . S
N433 C437 1.334 . S
C434 N433 1.379 . S
C434 C436 1.416 . S
C434 C442 1.424 . S
C435 H430 0.930 . S
C435 C437 1.390 . S
C435 C438 1.339 . S
C436 C434 1.416 . S
C436 C438 1.416 . S
C436 C469 1.448 . S
C437 H422 0.930 . S
C437 N433 1.334 . S
C437 C435 1.390 . S
C438 C435 1.339 . S
C438 C436 1.416 . S
C438 H445 0.930 . S
N439 Tb404 2.572 . S
N439 C440 1.340 . S
N439 C442 1.361 . S
C440 H426 0.930 . S
C440 N439 1.340 . S
C440 C444 1.407 . S
C441 C442 1.413 . S
C441 C443 1.416 . S
C441 C470 1.427 . S
C442 C434 1.424 . S
C442 N439 1.361 . S
C442 C441 1.413 . S
C443 H432 0.931 . S
C443 C441 1.416 . S
C443 C444 1.332 . S
C444 H423 0.929 . S
C444 C440 1.407 . S
C444 C443 1.332 . S
H445 C438 0.930 . S
H446 C469 0.930 . S
H447 C470 0.929 . S
O448 Tb404 2.465 . S
O448 C468 1.264 . S
O449 Tb404 2.387 . S
O449 C460 1.264 . S
O450 Tb415 2.349 . S
O450 C460 1.243 . S
O451 Tb404 2.428 . S
O451 C468 1.256 . S
O452 Tb404 2.308 . S
O452 C467 1.266 . S
O453 Tb415 2.393 . S
O453 C467 1.248 . S
O454 Tb415 2.465 . S
O454 C479 1.264 . S
O455 Tb415 2.387 . S
O455 C471 1.264 . S
O456 Tb404 2.349 . S
O456 C471 1.243 . S
O457 Tb415 2.428 . S
O457 C479 1.256 . S
O458 Tb415 2.308 . S
O458 C478 1.266 . S
O459 Tb404 2.393 . S
O459 C478 1.248 . S
C460 O449 1.264 . S
C460 O450 1.243 . S
C461 C464 1.399 . S
C461 C466 1.383 . S
C461 C468 1.496 . S
C462 C463 1.399 . S
C462 C466 1.389 . S
C463 C462 1.399 . S
C463 C465 1.380 . S
C463 H480 0.929 . S
C464 C461 1.399 . S
C464 C465 1.392 . S
C464 H481 0.929 . S
C465 C463 1.380 . S
C465 C464 1.392 . S
C465 H482 0.929 . S
C466 C461 1.383 . S
C466 C462 1.389 . S
C466 H483 0.931 . S
C467 O452 1.266 . S
C467 O453 1.248 . S
C468 Tb404 2.802 . S
C468 O448 1.264 . S
C468 O451 1.256 . S
C468 C461 1.496 . S
C469 C436 1.448 . S
C469 H446 0.930 . S
C469 C470 1.328 . S
C470 C441 1.427 . S
C470 H447 0.929 . S
C470 C469 1.328 . S
C471 O455 1.264 . S
C471 O456 1.243 . S
C472 C475 1.399 . S
C472 C476 1.383 . S
C472 C479 1.496 . S
C473 C474 1.399 . S
C473 C476 1.389 . S
C474 C473 1.399 . S
C474 C477 1.380 . S
C474 H484 0.929 . S
C475 C472 1.399 . S
C475 C477 1.392 . S
C475 H485 0.929 . S
C476 C472 1.383 . S
C476 C473 1.389 . S
C476 H486 0.931 . S
C477 C474 1.380 . S
C477 C475 1.392 . S
C477 H487 0.929 . S
C478 O458 1.266 . S
C478 O459 1.248 . S
C479 Tb415 2.802 . S
C479 O454 1.264 . S
C479 O457 1.256 . S
C479 C472 1.496 . S
H480 C463 0.929 . S
H481 C464 0.929 . S
H482 C465 0.929 . S
H483 C466 0.931 . S
H484 C474 0.929 . S
H485 C475 0.929 . S
H486 C476 0.931 . S
H487 C477 0.929 . S
H488 C500 0.930 . S
H489 C502 0.930 . S
H490 C503 0.930 . S
H491 C507 0.959 . S
H492 C507 0.959 1_545 S
H493 C507 0.961 . S
H494 C508 0.960 . S
H495 C508 0.961 . S
H496 C508 0.959 . S
H497 C511 0.929 . S
H498 C512 0.931 . S
H499 C514 0.930 . S
C500 H488 0.930 . S
C500 C501 1.399 . S
C500 C505 1.399 . S
C501 C500 1.399 . S
C501 C502 1.376 . S
C502 H489 0.930 . S
C502 C501 1.376 . S
C502 C503 1.388 . S
C503 H490 0.930 . S
C503 C502 1.388 . S
C503 C504 1.390 . S
C504 C503 1.390 . S
C504 C505 1.394 . S
C504 C510 1.465 . S
C505 C500 1.399 . S
C505 C504 1.394 . S
C505 C506 1.516 . S
C506 C505 1.516 . S
C506 C507 1.502 . S
C506 C508 1.561 1_565 S
C506 C509 1.526 . S
C507 H491 0.959 . S
C507 H492 0.959 1_565 S
C507 H493 0.961 . S
C507 C506 1.502 . S
C508 H494 0.960 . S
C508 H495 0.961 . S
C508 H496 0.959 . S
C508 C506 1.561 1_545 S
C509 C506 1.526 . S
C509 C510 1.396 . S
C509 C514 1.390 1_565 S
C510 C504 1.465 . S
C510 C509 1.396 . S
C510 C511 1.399 . S
C511 H497 0.929 . S
C511 C510 1.399 . S
C511 C512 1.385 . S
C512 H498 0.931 . S
C512 C511 1.385 . S
C512 C513 1.389 1_565 S
C513 C512 1.389 1_545 S
C513 C514 1.387 . S
C514 H499 0.930 . S
C514 C509 1.390 1_545 S
C514 C513 1.387 . S
H515 C527 0.930 . S
H516 C529 0.930 . S
H517 C530 0.930 . S
H518 C534 0.959 . S
H519 C534 0.959 . S
H520 C534 0.961 . S
H521 C535 0.960 . S
H522 C535 0.961 . S
H523 C535 0.959 . S
H524 C538 0.929 . S
H525 C539 0.931 . S
H526 C541 0.930 . S
C527 H515 0.930 . S
C527 C528 1.399 . S
C527 C532 1.399 . S
C528 C527 1.399 . S
C528 C529 1.376 . S
C529 H516 0.930 . S
C529 C528 1.376 . S
C529 C530 1.388 . S
C530 H517 0.930 . S
C530 C529 1.388 . S
C530 C531 1.390 . S
C531 C530 1.390 . S
C531 C532 1.394 . S
C531 C537 1.465 . S
C532 C527 1.399 . S
C532 C531 1.394 . S
C532 C533 1.516 . S
C533 C532 1.516 . S
C533 C534 1.502 . S
C533 C535 1.561 . S
C533 C536 1.526 . S
C534 H518 0.959 . S
C534 H519 0.959 . S
C534 H520 0.961 . S
C534 C533 1.502 . S
C535 H521 0.960 . S
C535 H522 0.961 . S
C535 H523 0.959 . S
C535 C533 1.561 . S
C536 C533 1.526 . S
C536 C537 1.396 . S
C536 C541 1.390 . S
C537 C531 1.465 . S
C537 C536 1.396 . S
C537 C538 1.399 . S
C538 H524 0.929 . S
C538 C537 1.399 . S
C538 C539 1.385 . S
C539 H525 0.931 . S
C539 C538 1.385 . S
C539 C540 1.389 . S
C540 C539 1.389 . S
C540 C541 1.387 . S
C541 H526 0.930 . S
C541 C536 1.390 . S
C541 C540 1.387 . S
H542 C554 0.930 . S
H543 C556 0.930 . S
H544 C557 0.930 . S
H545 C561 0.959 . S
H546 C561 0.959 . S
H547 C561 0.961 . S
H548 C562 0.960 . S
H549 C562 0.961 . S
H550 C562 0.959 . S
H551 C565 0.929 . S
H552 C566 0.931 . S
H553 C568 0.930 . S
C554 H542 0.930 . S
C554 C555 1.399 . S
C554 C559 1.399 . S
C555 C554 1.399 . S
C555 C556 1.376 . S
C556 H543 0.930 . S
C556 C555 1.376 . S
C556 C557 1.388 . S
C557 H544 0.930 . S
C557 C556 1.388 . S
C557 C558 1.390 . S
C558 C557 1.390 . S
C558 C559 1.394 . S
C558 C564 1.465 . S
C559 C554 1.399 . S
C559 C558 1.394 . S
C559 C560 1.516 . S
C560 C559 1.516 . S
C560 C561 1.502 . S
C560 C562 1.561 . S
C560 C563 1.526 . S
C561 H545 0.959 . S
C561 H546 0.959 . S
C561 H547 0.961 . S
C561 C560 1.502 . S
C562 H548 0.960 . S
C562 H549 0.961 . S
C562 H550 0.959 . S
C562 C560 1.561 . S
C563 C560 1.526 . S
C563 C564 1.396 . S
C563 C568 1.390 . S
C564 C558 1.465 . S
C564 C563 1.396 . S
C564 C565 1.399 . S
C565 H551 0.929 . S
C565 C564 1.399 . S
C565 C566 1.385 . S
C566 H552 0.931 . S
C566 C565 1.385 . S
C566 C567 1.389 . S
C567 C566 1.389 . S
C567 C568 1.387 . S
C568 H553 0.930 . S
C568 C563 1.390 . S
C568 C567 1.387 . S
H569 C581 0.930 . S
H570 C583 0.930 . S
H571 C584 0.930 . S
H572 C588 0.959 . S
H573 C588 0.959 . S
H574 C588 0.961 . S
H575 C589 0.960 . S
H576 C589 0.961 1_545 S
H577 C589 0.959 . S
H578 C592 0.929 . S
H579 C593 0.931 . S
H580 C595 0.930 . S
C581 H569 0.930 . S
C581 C582 1.399 . S
C581 C586 1.399 . S
C582 C581 1.399 . S
C582 C583 1.376 . S
C583 H570 0.930 . S
C583 C582 1.376 . S
C583 C584 1.388 . S
C584 H571 0.930 . S
C584 C583 1.388 . S
C584 C585 1.390 . S
C585 C584 1.390 . S
C585 C586 1.394 . S
C585 C591 1.465 . S
C586 C581 1.399 . S
C586 C585 1.394 . S
C586 C587 1.516 . S
C587 C586 1.516 . S
C587 C588 1.502 1_565 S
C587 C589 1.561 . S
C587 C590 1.526 . S
C588 H572 0.959 . S
C588 H573 0.959 . S
C588 H574 0.961 . S
C588 C587 1.502 1_545 S
C589 H575 0.960 . S
C589 H576 0.961 1_565 S
C589 H577 0.959 . S
C589 C587 1.561 . S
C590 C587 1.526 . S
C590 C591 1.396 . S
C590 C595 1.390 1_565 S
C591 C585 1.465 . S
C591 C590 1.396 . S
C591 C592 1.399 . S
C592 H578 0.929 . S
C592 C591 1.399 . S
C592 C593 1.385 . S
C593 H579 0.931 . S
C593 C592 1.385 . S
C593 C594 1.389 1_565 S
C594 C593 1.389 1_545 S
C594 C595 1.387 . S
C595 H580 0.930 . S
C595 C590 1.390 1_545 S
C595 C594 1.387 . S
H596 C608 0.930 . S
H597 C610 0.930 . S
H598 C611 0.930 . S
H599 C615 0.959 . S
H600 C615 0.959 . S
H601 C615 0.961 . S
H602 C616 0.960 . S
H603 C616 0.961 . S
H604 C616 0.959 . S
H605 C619 0.929 . S
H606 C620 0.931 . S
H607 C622 0.930 . S
C608 H596 0.930 . S
C608 C609 1.399 . S
C608 C613 1.399 . S
C609 C608 1.399 . S
C609 C610 1.376 . S
C610 H597 0.930 . S
C610 C609 1.376 . S
C610 C611 1.388 . S
C611 H598 0.930 . S
C611 C610 1.388 . S
C611 C612 1.390 . S
C612 C611 1.390 . S
C612 C613 1.394 . S
C612 C618 1.465 . S
C613 C608 1.399 . S
C613 C612 1.394 . S
C613 C614 1.516 . S
C614 C613 1.516 . S
C614 C615 1.502 . S
C614 C616 1.561 . S
C614 C617 1.526 . S
C615 H599 0.959 . S
C615 H600 0.959 . S
C615 H601 0.961 . S
C615 C614 1.502 . S
C616 H602 0.960 . S
C616 H603 0.961 . S
C616 H604 0.959 . S
C616 C614 1.561 . S
C617 C614 1.526 . S
C617 C618 1.396 . S
C617 C622 1.390 . S
C618 C612 1.465 . S
C618 C617 1.396 . S
C618 C619 1.399 1_545 S
C619 H605 0.929 . S
C619 C618 1.399 1_565 S
C619 C620 1.385 . S
C620 H606 0.931 . S
C620 C619 1.385 . S
C620 C621 1.389 . S
C621 C620 1.389 . S
C621 C622 1.387 1_565 S
C622 H607 0.930 . S
C622 C617 1.390 . S
C622 C621 1.387 1_545 S
H623 C635 0.930 . S
H624 C637 0.930 . S
H625 C638 0.930 . S
H626 C642 0.959 . S
H627 C642 0.959 . S
H628 C642 0.961 . S
H629 C643 0.960 . S
H630 C643 0.961 . S
H631 C643 0.959 . S
H632 C646 0.929 . S
H633 C647 0.931 . S
H634 C649 0.930 . S
C635 H623 0.930 . S
C635 C636 1.399 . S
C635 C640 1.399 . S
C636 C635 1.399 . S
C636 C637 1.376 . S
C637 H624 0.930 . S
C637 C636 1.376 . S
C637 C638 1.388 . S
C638 H625 0.930 . S
C638 C637 1.388 . S
C638 C639 1.390 . S
C639 C638 1.390 . S
C639 C640 1.394 . S
C639 C645 1.465 . S
C640 C635 1.399 . S
C640 C639 1.394 . S
C640 C641 1.516 . S
C641 C640 1.516 . S
C641 C642 1.502 . S
C641 C643 1.561 . S
C641 C644 1.526 . S
C642 H626 0.959 . S
C642 H627 0.959 . S
C642 H628 0.961 . S
C642 C641 1.502 . S
C643 H629 0.960 . S
C643 H630 0.961 . S
C643 H631 0.959 . S
C643 C641 1.561 . S
C644 C641 1.526 . S
C644 C645 1.396 . S
C644 C649 1.390 . S
C645 C639 1.465 . S
C645 C644 1.396 . S
C645 C646 1.399 . S
C646 H632 0.929 . S
C646 C645 1.399 . S
C646 C647 1.385 . S
C647 H633 0.931 . S
C647 C646 1.385 . S
C647 C648 1.389 . S
C648 C647 1.389 . S
C648 C649 1.387 . S
C649 H634 0.930 . S
C649 C644 1.390 . S
C649 C648 1.387 . S
H650 C662 0.930 . S
H651 C664 0.930 . S
H652 C665 0.930 . S
H653 C669 0.959 . S
H654 C669 0.959 . S
H655 C669 0.961 . S
H656 C670 0.960 . S
H657 C670 0.961 . S
H658 C670 0.959 . S
H659 C673 0.929 . S
H660 C674 0.931 . S
H661 C676 0.930 . S
C662 H650 0.930 . S
C662 C663 1.399 . S
C662 C667 1.399 . S
C663 C662 1.399 . S
C663 C664 1.376 . S
C664 H651 0.930 . S
C664 C663 1.376 . S
C664 C665 1.388 . S
C665 H652 0.930 . S
C665 C664 1.388 . S
C665 C666 1.390 . S
C666 C665 1.390 . S
C666 C667 1.394 . S
C666 C672 1.465 . S
C667 C662 1.399 . S
C667 C666 1.394 . S
C667 C668 1.516 . S
C668 C667 1.516 . S
C668 C669 1.502 . S
C668 C670 1.561 . S
C668 C671 1.526 . S
C669 H653 0.959 . S
C669 H654 0.959 . S
C669 H655 0.961 . S
C669 C668 1.502 . S
C670 H656 0.960 . S
C670 H657 0.961 . S
C670 H658 0.959 . S
C670 C668 1.561 . S
C671 C668 1.526 . S
C671 C672 1.396 . S
C671 C676 1.390 . S
C672 C666 1.465 . S
C672 C671 1.396 . S
C672 C673 1.399 . S
C673 H659 0.929 . S
C673 C672 1.399 . S
C673 C674 1.385 . S
C674 H660 0.931 . S
C674 C673 1.385 . S
C674 C675 1.389 . S
C675 C674 1.389 . S
C675 C676 1.387 . S
C676 H661 0.930 . S
C676 C671 1.390 . S
C676 C675 1.387 . S
H677 C689 0.930 . S
H678 C691 0.930 . S
H679 C692 0.930 . S
H680 C696 0.959 . S
H681 C696 0.959 . S
H682 C696 0.961 . S
H683 C697 0.960 . S
H684 C697 0.961 . S
H685 C697 0.959 . S
H686 C700 0.929 . S
H687 C701 0.931 . S
H688 C703 0.930 1_565 S
C689 H677 0.930 . S
C689 C690 1.399 . S
C689 C694 1.399 . S
C690 C689 1.399 . S
C690 C691 1.376 . S
C691 H678 0.930 . S
C691 C690 1.376 . S
C691 C692 1.388 . S
C692 H679 0.930 . S
C692 C691 1.388 . S
C692 C693 1.390 . S
C693 C692 1.390 . S
C693 C694 1.394 . S
C693 C699 1.465 . S
C694 C689 1.399 . S
C694 C693 1.394 . S
C694 C695 1.516 . S
C695 C694 1.516 . S
C695 C696 1.502 . S
C695 C697 1.561 . S
C695 C698 1.526 . S
C696 H680 0.959 . S
C696 H681 0.959 . S
C696 H682 0.961 . S
C696 C695 1.502 . S
C697 H683 0.960 . S
C697 H684 0.961 . S
C697 H685 0.959 . S
C697 C695 1.561 . S
C698 C695 1.526 . S
C698 C699 1.396 . S
C698 C703 1.390 . S
C699 C693 1.465 . S
C699 C698 1.396 . S
C699 C700 1.399 . S
C700 H686 0.929 . S
C700 C699 1.399 . S
C700 C701 1.385 1_545 S
C701 H687 0.931 . S
C701 C700 1.385 1_565 S
C701 C702 1.389 . S
C702 C701 1.389 . S
C702 C703 1.387 1_565 S
C703 H688 0.930 1_545 S
C703 C698 1.390 . S
C703 C702 1.387 1_545 S
H704 C716 0.930 . S
H705 C718 0.930 . S
H706 C719 0.930 . S
H707 C723 0.959 . S
H708 C723 0.959 . S
H709 C723 0.961 . S
H710 C724 0.961 1_556 S
H711 C724 0.961 . S
H712 C724 0.959 . S
H713 C727 0.929 . S
H714 C728 0.931 . S
H715 C730 0.930 . S
C716 H704 0.930 . S
C716 C717 1.399 . S
C716 C721 1.399 1_556 S
C717 C716 1.399 . S
C717 C718 1.376 . S
C718 H705 0.930 . S
C718 C717 1.376 . S
C718 C719 1.388 . S
C719 H706 0.930 . S
C719 C718 1.388 . S
C719 C720 1.390 1_556 S
C720 C719 1.390 1_554 S
C720 C721 1.394 . S
C720 C726 1.465 . S
C721 C716 1.399 1_554 S
C721 C720 1.394 . S
C721 C722 1.516 . S
C722 C721 1.516 . S
C722 C723 1.502 . S
C722 C724 1.561 . S
C722 C725 1.526 . S
C723 H707 0.959 . S
C723 H708 0.959 . S
C723 H709 0.961 . S
C723 C722 1.502 . S
C724 H710 0.961 1_554 S
C724 H711 0.961 . S
C724 H712 0.959 . S
C724 C722 1.561 . S
C725 C722 1.526 . S
C725 C726 1.396 . S
C725 C730 1.390 . S
C726 C720 1.465 . S
C726 C725 1.396 . S
C726 C727 1.399 . S
C727 H713 0.929 . S
C727 C726 1.399 . S
C727 C728 1.385 . S
C728 H714 0.931 . S
C728 C727 1.385 . S
C728 C729 1.389 . S
C729 C728 1.389 . S
C729 C730 1.387 . S
C730 H715 0.930 . S
C730 C725 1.390 . S
C730 C729 1.387 . S
H731 C743 0.930 . S
H732 C745 0.930 . S
H733 C746 0.930 . S
H734 C750 0.959 . S
H735 C750 0.959 . S
H736 C750 0.961 . S
H737 C751 0.960 . S
H738 C751 0.961 . S
H739 C751 0.959 . S
H740 C754 0.929 . S
H741 C755 0.931 . S
H742 C757 0.930 . S
C743 H731 0.930 . S
C743 C744 1.399 . S
C743 C748 1.399 . S
C744 C743 1.399 . S
C744 C745 1.376 . S
C745 H732 0.930 . S
C745 C744 1.376 . S
C745 C746 1.388 . S
C746 H733 0.930 . S
C746 C745 1.388 . S
C746 C747 1.390 . S
C747 C746 1.390 . S
C747 C748 1.394 . S
C747 C753 1.465 . S
C748 C743 1.399 . S
C748 C747 1.394 . S
C748 C749 1.516 . S
C749 C748 1.516 . S
C749 C750 1.502 . S
C749 C751 1.561 . S
C749 C752 1.526 . S
C750 H734 0.959 . S
C750 H735 0.959 . S
C750 H736 0.961 . S
C750 C749 1.502 . S
C751 H737 0.960 . S
C751 H738 0.961 . S
C751 H739 0.959 . S
C751 C749 1.561 . S
C752 C749 1.526 . S
C752 C753 1.396 . S
C752 C757 1.390 . S
C753 C747 1.465 . S
C753 C752 1.396 . S
C753 C754 1.399 . S
C754 H740 0.929 . S
C754 C753 1.399 . S
C754 C755 1.385 . S
C755 H741 0.931 . S
C755 C754 1.385 . S
C755 C756 1.389 . S
C756 C755 1.389 . S
C756 C757 1.387 . S
C757 H742 0.930 . S
C757 C752 1.390 . S
C757 C756 1.387 . S
H758 C770 0.930 . S
H759 C772 0.930 . S
H760 C773 0.930 . S
H761 C777 0.959 . S
H762 C777 0.959 . S
H763 C777 0.961 . S
H764 C778 0.960 . S
H765 C778 0.961 . S
H766 C778 0.959 . S
H767 C781 0.929 . S
H768 C782 0.931 . S
H769 C784 0.930 . S
C770 H758 0.930 . S
C770 C771 1.399 . S
C770 C775 1.399 1_554 S
C771 C770 1.399 . S
C771 C772 1.376 . S
C772 H759 0.930 . S
C772 C771 1.376 . S
C772 C773 1.388 . S
C773 H760 0.930 . S
C773 C772 1.388 . S
C773 C774 1.390 1_554 S
C774 C773 1.390 1_556 S
C774 C775 1.394 . S
C774 C780 1.465 . S
C775 C770 1.399 1_556 S
C775 C774 1.394 . S
C775 C776 1.516 . S
C776 C775 1.516 . S
C776 C777 1.502 . S
C776 C778 1.561 . S
C776 C779 1.526 . S
C777 H761 0.959 . S
C777 H762 0.959 . S
C777 H763 0.961 . S
C777 C776 1.502 . S
C778 H764 0.960 . S
C778 H765 0.961 . S
C778 H766 0.959 . S
C778 C776 1.561 . S
C779 C776 1.526 . S
C779 C780 1.396 . S
C779 C784 1.390 . S
C780 C774 1.465 . S
C780 C779 1.396 . S
C780 C781 1.399 . S
C781 H767 0.929 . S
C781 C780 1.399 . S
C781 C782 1.385 . S
C782 H768 0.931 . S
C782 C781 1.385 . S
C782 C783 1.389 . S
C783 C782 1.389 . S
C783 C784 1.387 . S
C784 H769 0.930 . S
C784 C779 1.390 . S
C784 C783 1.387 . S
H785 C797 0.930 . S
H786 C799 0.930 . S
H787 C800 0.930 . S
H788 C804 0.959 . S
H789 C804 0.959 . S
H790 C804 0.961 . S
H791 C805 0.960 . S
H792 C805 0.961 . S
H793 C805 0.959 . S
H794 C808 0.929 . S
H795 C809 0.931 . S
H796 C811 0.930 . S
C797 H785 0.930 . S
C797 C798 1.399 . S
C797 C802 1.399 . S
C798 C797 1.399 . S
C798 C799 1.376 . S
C799 H786 0.930 . S
C799 C798 1.376 . S
C799 C800 1.388 . S
C800 H787 0.930 . S
C800 C799 1.388 . S
C800 C801 1.390 . S
C801 C800 1.390 . S
C801 C802 1.394 . S
C801 C807 1.465 . S
C802 C797 1.399 . S
C802 C801 1.394 . S
C802 C803 1.516 . S
C803 C802 1.516 . S
C803 C804 1.502 . S
C803 C805 1.561 . S
C803 C806 1.526 . S
C804 H788 0.959 . S
C804 H789 0.959 . S
C804 H790 0.961 . S
C804 C803 1.502 . S
C805 H791 0.960 . S
C805 H792 0.961 . S
C805 H793 0.959 . S
C805 C803 1.561 . S
C806 C803 1.526 . S
C806 C807 1.396 . S
C806 C811 1.390 . S
C807 C801 1.465 . S
C807 C806 1.396 . S
C807 C808 1.399 . S
C808 H794 0.929 . S
C808 C807 1.399 . S
C808 C809 1.385 . S
C809 H795 0.931 . S
C809 C808 1.385 . S
C809 C810 1.389 . S
C810 C809 1.389 . S
C810 C811 1.387 . S
C811 H796 0.930 . S
C811 C806 1.390 . S
C811 C810 1.387 . S
H812 C824 0.930 . S
H813 C826 0.930 . S
H814 C827 0.930 . S
H815 C831 0.959 . S
H816 C831 0.959 . S
H817 C831 0.961 . S
H818 C832 0.960 . S
H819 C832 0.961 . S
H820 C832 0.959 . S
H821 C835 0.929 . S
H822 C836 0.931 . S
H823 C838 0.930 . S
C824 H812 0.930 . S
C824 C825 1.399 . S
C824 C829 1.399 1_554 S
C825 C824 1.399 . S
C825 C826 1.376 . S
C826 H813 0.930 . S
C826 C825 1.376 . S
C826 C827 1.388 . S
C827 H814 0.930 . S
C827 C826 1.388 . S
C827 C828 1.390 1_554 S
C828 C827 1.390 1_556 S
C828 C829 1.394 . S
C828 C834 1.465 . S
C829 C824 1.399 1_556 S
C829 C828 1.394 . S
C829 C830 1.516 . S
C830 C829 1.516 . S
C830 C831 1.502 . S
C830 C832 1.561 . S
C830 C833 1.526 . S
C831 H815 0.959 . S
C831 H816 0.959 . S
C831 H817 0.961 . S
C831 C830 1.502 . S
C832 H818 0.960 . S
C832 H819 0.961 . S
C832 H820 0.959 . S
C832 C830 1.561 . S
C833 C830 1.526 . S
C833 C834 1.396 . S
C833 C838 1.390 . S
C834 C828 1.465 . S
C834 C833 1.396 . S
C834 C835 1.399 . S
C835 H821 0.929 . S
C835 C834 1.399 . S
C835 C836 1.385 . S
C836 H822 0.931 . S
C836 C835 1.385 . S
C836 C837 1.389 . S
C837 C836 1.389 . S
C837 C838 1.387 . S
C838 H823 0.930 . S
C838 C833 1.390 . S
C838 C837 1.387 . S
H839 C851 0.930 . S
H840 C853 0.930 . S
H841 C854 0.930 . S
H842 C858 0.959 . S
H843 C858 0.959 . S
H844 C858 0.961 . S
H845 C859 0.960 . S
H846 C859 0.961 . S
H847 C859 0.959 . S
H848 C862 0.929 . S
H849 C863 0.931 . S
H850 C865 0.930 . S
C851 H839 0.930 . S
C851 C852 1.399 . S
C851 C856 1.399 . S
C852 C851 1.399 . S
C852 C853 1.376 . S
C853 H840 0.930 . S
C853 C852 1.376 . S
C853 C854 1.388 . S
C854 H841 0.930 . S
C854 C853 1.388 . S
C854 C855 1.390 . S
C855 C854 1.390 . S
C855 C856 1.394 . S
C855 C861 1.465 . S
C856 C851 1.399 . S
C856 C855 1.394 . S
C856 C857 1.516 . S
C857 C856 1.516 . S
C857 C858 1.502 . S
C857 C859 1.561 . S
C857 C860 1.526 . S
C858 H842 0.959 . S
C858 H843 0.959 . S
C858 H844 0.961 . S
C858 C857 1.502 . S
C859 H845 0.960 . S
C859 H846 0.961 . S
C859 H847 0.959 . S
C859 C857 1.561 . S
C860 C857 1.526 . S
C860 C861 1.396 . S
C860 C865 1.390 . S
C861 C855 1.465 . S
C861 C860 1.396 . S
C861 C862 1.399 . S
C862 H848 0.929 . S
C862 C861 1.399 . S
C862 C863 1.385 . S
C863 H849 0.931 . S
C863 C862 1.385 . S
C863 C864 1.389 . S
C864 C863 1.389 . S
C864 C865 1.387 . S
C865 H850 0.930 . S
C865 C860 1.390 . S
C865 C864 1.387 . S
H866 C878 0.930 . S
H867 C880 0.930 . S
H868 C881 0.940 . S
H869 C885 0.959 . S
H870 C885 0.959 . S
H871 C885 0.961 . S
H872 C886 0.960 . S
H873 C886 0.961 . S
H874 C886 0.959 . S
H875 C889 0.929 . S
H876 C890 0.931 . S
H877 C892 0.930 . S
C878 H866 0.930 . S
C878 C879 1.399 . S
C878 C883 1.399 1_556 S
C879 C878 1.399 . S
C879 C880 1.376 . S
C880 H867 0.930 . S
C880 C879 1.376 . S
C880 C881 1.388 . S
C881 H868 0.940 . S
C881 C880 1.388 . S
C881 C882 1.390 1_556 S
C882 C881 1.390 1_554 S
C882 C883 1.394 . S
C882 C888 1.465 . S
C883 C878 1.399 1_554 S
C883 C882 1.394 . S
C883 C884 1.516 . S
C884 C883 1.516 . S
C884 C885 1.502 . S
C884 C886 1.561 . S
C884 C887 1.526 . S
C885 H869 0.959 . S
C885 H870 0.959 . S
C885 H871 0.961 . S
C885 C884 1.502 . S
C886 H872 0.960 . S
C886 H873 0.961 . S
C886 H874 0.959 . S
C886 C884 1.561 . S
C887 C884 1.526 . S
C887 C888 1.396 . S
C887 C892 1.390 . S
C888 C882 1.465 . S
C888 C887 1.396 . S
C888 C889 1.399 . S
C889 H875 0.929 . S
C889 C888 1.399 . S
C889 C890 1.385 . S
C890 H876 0.931 . S
C890 C889 1.385 . S
C890 C891 1.389 . S
C891 C890 1.389 . S
C891 C892 1.387 . S
C892 H877 0.930 . S
C892 C887 1.390 . S
C892 C891 1.387 . S
H893 C905 0.930 . S
H894 C907 0.930 . S
H895 C908 0.930 . S
H896 C912 0.959 . S
H897 C912 0.959 . S
H898 C912 0.961 . S
H899 C913 0.960 . S
H900 C913 0.961 . S
H901 C913 0.959 . S
H902 C916 0.929 . S
H903 C917 0.931 . S
H904 C919 0.930 . S
C905 H893 0.930 . S
C905 C906 1.399 . S
C905 C910 1.399 . S
C906 C905 1.399 . S
C906 C907 1.376 . S
C907 H894 0.930 . S
C907 C906 1.376 . S
C907 C908 1.388 . S
C908 H895 0.930 . S
C908 C907 1.388 . S
C908 C909 1.390 . S
C909 C908 1.390 . S
C909 C910 1.394 . S
C909 C915 1.465 . S
C910 C905 1.399 . S
C910 C909 1.394 . S
C910 C911 1.516 . S
C911 C910 1.516 . S
C911 C912 1.502 . S
C911 C913 1.561 . S
C911 C914 1.526 . S
C912 H896 0.959 . S
C912 H897 0.959 . S
C912 H898 0.961 . S
C912 C911 1.502 . S
C913 H899 0.960 . S
C913 H900 0.961 . S
C913 H901 0.959 . S
C913 C911 1.561 . S
C914 C911 1.526 . S
C914 C915 1.396 . S
C914 C919 1.390 . S
C915 C909 1.465 . S
C915 C914 1.396 . S
C915 C916 1.399 . S
C916 H902 0.929 . S
C916 C915 1.399 . S
C916 C917 1.385 . S
C917 H903 0.931 . S
C917 C916 1.385 . S
C917 C918 1.389 . S
C918 C917 1.389 . S
C918 C919 1.387 . S
C919 H904 0.930 . S
C919 C914 1.390 . S
C919 C918 1.387 . S
H920 C932 0.930 . S
H921 C934 0.930 . S
H922 C935 0.930 . S
H923 C939 0.959 . S
H924 C939 0.959 . S
H925 C939 0.961 . S
H926 C940 0.960 . S
H927 C940 0.961 . S
H928 C940 0.959 . S
H929 C943 0.929 . S
H930 C944 0.931 . S
H931 C946 0.930 . S
C932 H920 0.930 . S
C932 C933 1.399 . S
C932 C937 1.399 . S
C933 C932 1.399 . S
C933 C934 1.376 . S
C934 H921 0.930 . S
C934 C933 1.376 . S
C934 C935 1.388 . S
C935 H922 0.930 . S
C935 C934 1.388 . S
C935 C936 1.390 . S
C936 C935 1.390 . S
C936 C937 1.394 . S
C936 C942 1.465 . S
C937 C932 1.399 . S
C937 C936 1.394 . S
C937 C938 1.516 . S
C938 C937 1.516 . S
C938 C939 1.502 . S
C938 C940 1.561 . S
C938 C941 1.526 . S
C939 H923 0.959 . S
C939 H924 0.959 . S
C939 H925 0.961 . S
C939 C938 1.502 . S
C940 H926 0.960 . S
C940 H927 0.961 . S
C940 H928 0.959 . S
C940 C938 1.561 . S
C941 C938 1.526 . S
C941 C942 1.396 . S
C941 C946 1.390 . S
C942 C936 1.465 . S
C942 C941 1.396 . S
C942 C943 1.399 . S
C943 H929 0.929 . S
C943 C942 1.399 . S
C943 C944 1.385 . S
C944 H930 0.931 . S
C944 C943 1.385 . S
C944 C945 1.389 . S
C945 C944 1.389 . S
C945 C946 1.387 . S
C946 H931 0.930 . S
C946 C941 1.390 . S
C946 C945 1.387 . S
H947 C959 0.930 . S
H948 C961 0.930 . S
H949 C962 0.930 . S
H950 C966 0.959 . S
H951 C966 0.959 . S
H952 C966 0.961 . S
H953 C967 0.960 . S
H954 C967 0.961 . S
H955 C967 0.959 . S
H956 C970 0.929 . S
H957 C971 0.931 . S
H958 C973 0.930 . S
C959 H947 0.930 . S
C959 C960 1.399 . S
C959 C964 1.399 . S
C960 C959 1.399 . S
C960 C961 1.376 . S
C961 H948 0.930 . S
C961 C960 1.376 . S
C961 C962 1.388 . S
C962 H949 0.930 . S
C962 C961 1.388 . S
C962 C963 1.390 . S
C963 C962 1.390 . S
C963 C964 1.394 . S
C963 C969 1.465 . S
C964 C959 1.399 . S
C964 C963 1.394 . S
C964 C965 1.516 . S
C965 C964 1.516 . S
C965 C966 1.502 . S
C965 C967 1.561 . S
C965 C968 1.526 . S
C966 H950 0.959 . S
C966 H951 0.959 . S
C966 H952 0.961 . S
C966 C965 1.502 . S
C967 H953 0.960 . S
C967 H954 0.961 . S
C967 H955 0.959 . S
C967 C965 1.561 . S
C968 C965 1.526 . S
C968 C969 1.396 . S
C968 C973 1.390 . S
C969 C963 1.465 . S
C969 C968 1.396 . S
C969 C970 1.399 . S
C970 H956 0.929 . S
C970 C969 1.399 . S
C970 C971 1.385 . S
C971 H957 0.931 . S
C971 C970 1.385 . S
C971 C972 1.389 . S
C972 C971 1.389 . S
C972 C973 1.387 . S
C973 H958 0.930 . S
C973 C968 1.390 . S
C973 C972 1.387 . S
H974 C986 0.930 . S
H975 C988 0.930 . S
H976 C989 0.930 . S
H977 C993 0.959 . S
H978 C993 0.959 . S
H979 C993 0.961 . S
H980 C994 0.960 . S
H981 C994 0.961 . S
H982 C994 0.959 . S
H983 C997 0.929 . S
H984 C998 0.931 . S
H985 C1000 0.930 . S
C986 H974 0.930 . S
C986 C987 1.399 . S
C986 C991 1.399 . S
C987 C986 1.399 . S
C987 C988 1.376 . S
C988 H975 0.930 . S
C988 C987 1.376 . S
C988 C989 1.388 . S
C989 H976 0.930 . S
C989 C988 1.388 . S
C989 C990 1.390 . S
C990 C989 1.390 . S
C990 C991 1.394 . S
C990 C996 1.465 . S
C991 C986 1.399 . S
C991 C990 1.394 . S
C991 C992 1.516 . S
C992 C991 1.516 . S
C992 C993 1.502 . S
C992 C994 1.561 . S
C992 C995 1.526 . S
C993 H977 0.959 . S
C993 H978 0.959 . S
C993 H979 0.961 . S
C993 C992 1.502 . S
C994 H980 0.960 . S
C994 H981 0.961 . S
C994 H982 0.959 . S
C994 C992 1.561 . S
C995 C992 1.526 . S
C995 C996 1.396 . S
C995 C1000 1.390 . S
C996 C990 1.465 . S
C996 C995 1.396 . S
C996 C997 1.399 . S
C997 H983 0.929 . S
C997 C996 1.399 . S
C997 C998 1.385 . S
C998 H984 0.931 . S
C998 C997 1.385 . S
C998 C999 1.389 . S
C999 C998 1.389 . S
C999 C1000 1.387 . S
C1000 H985 0.930 . S
C1000 C995 1.390 . S
C1000 C999 1.387 . S
H1001 C1013 0.930 . S
H1002 C1015 0.930 . S
H1003 C1016 0.930 . S
H1004 C1020 0.959 . S
H1005 C1020 0.959 . S
H1006 C1020 0.961 . S
H1007 C1021 0.960 . S
H1008 C1021 0.961 . S
H1009 C1021 0.959 . S
H1010 C1024 0.929 . S
H1011 C1025 0.931 . S
H1012 C1027 0.930 . S
C1013 H1001 0.930 . S
C1013 C1014 1.399 . S
C1013 C1018 1.399 . S
C1014 C1013 1.399 . S
C1014 C1015 1.376 . S
C1015 H1002 0.930 . S
C1015 C1014 1.376 . S
C1015 C1016 1.388 . S
C1016 H1003 0.930 . S
C1016 C1015 1.388 . S
C1016 C1017 1.390 . S
C1017 C1016 1.390 . S
C1017 C1018 1.394 . S
C1017 C1023 1.465 . S
C1018 C1013 1.399 . S
C1018 C1017 1.394 . S
C1018 C1019 1.516 . S
C1019 C1018 1.516 . S
C1019 C1020 1.502 . S
C1019 C1021 1.561 . S
C1019 C1022 1.526 . S
C1020 H1004 0.959 . S
C1020 H1005 0.959 . S
C1020 H1006 0.961 . S
C1020 C1019 1.502 . S
C1021 H1007 0.960 . S
C1021 H1008 0.961 . S
C1021 H1009 0.959 . S
C1021 C1019 1.561 . S
C1022 C1019 1.526 . S
C1022 C1023 1.396 . S
C1022 C1027 1.390 . S
C1023 C1017 1.465 . S
C1023 C1022 1.396 . S
C1023 C1024 1.399 . S
C1024 H1010 0.929 . S
C1024 C1023 1.399 . S
C1024 C1025 1.385 . S
C1025 H1011 0.931 . S
C1025 C1024 1.385 . S
C1025 C1026 1.389 . S
C1026 C1025 1.389 . S
C1026 C1027 1.387 . S
C1027 H1012 0.930 . S
C1027 C1022 1.390 . S
C1027 C1026 1.387 . S
H1028 C1040 0.930 . S
H1029 C1042 0.930 . S
H1030 C1043 0.930 . S
H1031 C1047 0.959 . S
H1032 C1047 0.959 . S
H1033 C1047 0.961 . S
H1034 C1048 0.960 . S
H1035 C1048 0.961 . S
H1036 C1048 0.959 . S
H1037 C1051 0.929 . S
H1038 C1052 0.931 . S
H1039 C1054 0.930 . S
C1040 H1028 0.930 . S
C1040 C1041 1.399 . S
C1040 C1045 1.399 . S
C1041 C1040 1.399 . S
C1041 C1042 1.376 . S
C1042 H1029 0.930 . S
C1042 C1041 1.376 . S
C1042 C1043 1.388 . S
C1043 H1030 0.930 . S
C1043 C1042 1.388 . S
C1043 C1044 1.390 . S
C1044 C1043 1.390 . S
C1044 C1045 1.394 . S
C1044 C1050 1.465 . S
C1045 C1040 1.399 . S
C1045 C1044 1.394 . S
C1045 C1046 1.516 . S
C1046 C1045 1.516 . S
C1046 C1047 1.502 . S
C1046 C1048 1.561 . S
C1046 C1049 1.526 . S
C1047 H1031 0.959 . S
C1047 H1032 0.959 . S
C1047 H1033 0.961 . S
C1047 C1046 1.502 . S
C1048 H1034 0.960 . S
C1048 H1035 0.961 . S
C1048 H1036 0.959 . S
C1048 C1046 1.561 . S
C1049 C1046 1.526 . S
C1049 C1050 1.396 . S
C1049 C1054 1.390 . S
C1050 C1044 1.465 . S
C1050 C1049 1.396 . S
C1050 C1051 1.399 . S
C1051 H1037 0.929 . S
C1051 C1050 1.399 . S
C1051 C1052 1.385 . S
C1052 H1038 0.931 . S
C1052 C1051 1.385 . S
C1052 C1053 1.389 . S
C1053 C1052 1.389 . S
C1053 C1054 1.387 . S
C1054 H1039 0.930 . S
C1054 C1049 1.390 . S
C1054 C1053 1.387 . S
H1055 C1067 0.930 . S
H1056 C1069 0.930 . S
H1057 C1070 0.930 . S
H1058 C1074 0.959 . S
H1059 C1074 0.959 . S
H1060 C1074 0.961 . S
H1061 C1075 0.960 . S
H1062 C1075 0.961 . S
H1063 C1075 0.959 . S
H1064 C1078 0.929 . S
H1065 C1079 0.931 . S
H1066 C1081 0.930 . S
C1067 H1055 0.930 . S
C1067 C1068 1.399 . S
C1067 C1072 1.399 . S
C1068 C1067 1.399 . S
C1068 C1069 1.376 . S
C1069 H1056 0.930 . S
C1069 C1068 1.376 . S
C1069 C1070 1.388 . S
C1070 H1057 0.930 . S
C1070 C1069 1.388 . S
C1070 C1071 1.390 . S
C1071 C1070 1.390 . S
C1071 C1072 1.394 . S
C1071 C1077 1.465 . S
C1072 C1067 1.399 . S
C1072 C1071 1.394 . S
C1072 C1073 1.516 . S
C1073 C1072 1.516 . S
C1073 C1074 1.502 . S
C1073 C1075 1.561 . S
C1073 C1076 1.526 . S
C1074 H1058 0.959 . S
C1074 H1059 0.959 . S
C1074 H1060 0.961 . S
C1074 C1073 1.502 . S
C1075 H1061 0.960 . S
C1075 H1062 0.961 . S
C1075 H1063 0.959 . S
C1075 C1073 1.561 . S
C1076 C1073 1.526 . S
C1076 C1077 1.396 . S
C1076 C1081 1.390 . S
C1077 C1071 1.465 . S
C1077 C1076 1.396 . S
C1077 C1078 1.399 . S
C1078 H1064 0.929 . S
C1078 C1077 1.399 . S
C1078 C1079 1.385 . S
C1079 H1065 0.931 . S
C1079 C1078 1.385 . S
C1079 C1080 1.389 . S
C1080 C1079 1.389 . S
C1080 C1081 1.387 . S
C1081 H1066 0.930 . S
C1081 C1076 1.390 . S
C1081 C1080 1.387 . S
H1082 C1094 0.930 . S
H1083 C1096 0.930 . S
H1084 C1097 0.930 . S
H1085 C1101 0.959 . S
H1086 C1101 0.959 . S
H1087 C1101 0.961 . S
H1088 C1102 0.960 . S
H1089 C1102 0.961 . S
H1090 C1102 0.959 . S
H1091 C1105 0.929 . S
H1092 C1106 0.931 . S
H1093 C1108 0.930 . S
C1094 H1082 0.930 . S
C1094 C1095 1.399 . S
C1094 C1099 1.399 . S
C1095 C1094 1.399 . S
C1095 C1096 1.376 . S
C1096 H1083 0.930 . S
C1096 C1095 1.376 . S
C1096 C1097 1.388 . S
C1097 H1084 0.930 . S
C1097 C1096 1.388 . S
C1097 C1098 1.390 . S
C1098 C1097 1.390 . S
C1098 C1099 1.394 . S
C1098 C1104 1.465 . S
C1099 C1094 1.399 . S
C1099 C1098 1.394 . S
C1099 C1100 1.516 . S
C1100 C1099 1.516 . S
C1100 C1101 1.502 . S
C1100 C1102 1.561 . S
C1100 C1103 1.526 . S
C1101 H1085 0.959 . S
C1101 H1086 0.959 . S
C1101 H1087 0.961 . S
C1101 C1100 1.502 . S
C1102 H1088 0.960 . S
C1102 H1089 0.961 . S
C1102 H1090 0.959 . S
C1102 C1100 1.561 . S
C1103 C1100 1.526 . S
C1103 C1104 1.396 . S
C1103 C1108 1.390 . S
C1104 C1098 1.465 . S
C1104 C1103 1.396 . S
C1104 C1105 1.399 . S
C1105 H1091 0.929 . S
C1105 C1104 1.399 . S
C1105 C1106 1.385 . S
C1106 H1092 0.931 . S
C1106 C1105 1.385 . S
C1106 C1107 1.389 . S
C1107 C1106 1.389 . S
C1107 C1108 1.387 . S
C1108 H1093 0.930 . S
C1108 C1103 1.390 . S
C1108 C1107 1.387 . S
H1109 C1121 0.930 . S
H1110 C1123 0.930 . S
H1111 C1124 0.930 . S
H1112 C1128 0.959 . S
H1113 C1128 0.959 . S
H1114 C1128 0.961 . S
H1115 C1129 0.960 . S
H1116 C1129 0.961 . S
H1117 C1129 0.959 . S
H1118 C1132 0.929 . S
H1119 C1133 0.931 . S
H1120 C1135 0.930 . S
C1121 H1109 0.930 . S
C1121 C1122 1.399 . S
C1121 C1126 1.399 . S
C1122 C1121 1.399 . S
C1122 C1123 1.376 . S
C1123 H1110 0.930 . S
C1123 C1122 1.376 . S
C1123 C1124 1.388 . S
C1124 H1111 0.930 . S
C1124 C1123 1.388 . S
C1124 C1125 1.390 . S
C1125 C1124 1.390 . S
C1125 C1126 1.394 . S
C1125 C1131 1.465 . S
C1126 C1121 1.399 . S
C1126 C1125 1.394 . S
C1126 C1127 1.516 . S
C1127 C1126 1.516 . S
C1127 C1128 1.502 . S
C1127 C1129 1.561 . S
C1127 C1130 1.526 . S
C1128 H1112 0.959 . S
C1128 H1113 0.959 . S
C1128 H1114 0.961 . S
C1128 C1127 1.502 . S
C1129 H1115 0.960 . S
C1129 H1116 0.961 . S
C1129 H1117 0.959 . S
C1129 C1127 1.561 . S
C1130 C1127 1.526 . S
C1130 C1131 1.396 . S
C1130 C1135 1.390 . S
C1131 C1125 1.465 . S
C1131 C1130 1.396 . S
C1131 C1132 1.399 . S
C1132 H1118 0.929 . S
C1132 C1131 1.399 . S
C1132 C1133 1.385 . S
C1133 H1119 0.931 . S
C1133 C1132 1.385 . S
C1133 C1134 1.389 . S
C1134 C1133 1.389 . S
C1134 C1135 1.387 . S
C1135 H1120 0.930 . S
C1135 C1130 1.390 . S
C1135 C1134 1.387 . S
C501 C116 1.820 . S
C513 C226 1.783 . S
C540 C310 1.795 . S
C528 C135 1.809 . S
C567 C303 1.792 . S
C555 C78 1.802 . S
C582 C97 1.804 . S
C594 C219 1.821 . S
C621 C383 1.811 . S
C609 C40 1.810 . S
C648 C467 1.807 . S
C636 C59 1.794 . S
C663 C2 1.807 . S
C675 C460 1.793 . S
C690 C21 1.819 . S
C702 C376 1.806 . S
C729 C210 1.533 . S
C717 C25 1.726 . S
C756 C294 1.564 . S
C744 C6 1.723 . S
C783 C305 1.525 . S
C771 C63 1.725 . S
C810 C221 1.534 . S
C798 C44 1.724 . S
C837 C389 1.563 . S
C825 C101 1.726 . S
C852 C82 1.724 . S
C864 C473 1.606 . S
C891 C462 1.483 . S
C879 C139 1.737 . S
C906 C120 1.726 . S
C918 C378 1.448 . S
C945 C208 1.521 . S
C933 C11 1.449 . S
C972 C292 1.522 . S
C960 C30 1.402 . S
C987 C49 1.469 . S
C999 C299 1.483 . S
C1026 C215 1.493 . S
C1014 C68 1.456 . S
C1053 C387 1.515 . S
C1041 C87 1.384 . S
C1068 C106 1.393 . S
C1080 C471 1.516 . S
C1095 C125 1.425 . S
C1107 C478 1.498 . S
C1122 C144 1.406 . S
C1134 C394 1.452 . S
