# Generated by pormake.
# Topology pyr, (3,6)-cn, num edge types: 1
# Building blocks:
#     Node 0, Type 0, BuildingBlock: KAKCAD_clean_linker_0, # of connection points: 3
#     Node 1, Type 0, BuildingBlock: KAKCAD_clean_linker_0, # of connection points: 3
#     Node 2, Type 0, BuildingBlock: KAKCAD_clean_linker_0, # of connection points: 3
#     Node 3, Type 0, BuildingBlock: KAKCAD_clean_linker_0, # of connection points: 3
#     Node 4, Type 0, BuildingBlock: KAKCAD_clean_linker_0, # of connection points: 3
#     Node 5, Type 0, BuildingBlock: KAKCAD_clean_linker_0, # of connection points: 3
#     Node 6, Type 0, BuildingBlock: KAKCAD_clean_linker_0, # of connection points: 3
#     Node 7, Type 0, BuildingBlock: KAKCAD_clean_linker_0, # of connection points: 3
#     Node 8, Type 1, BuildingBlock: PAMTUU_clean_sbu_0, # of connection points: 6
#     Node 9, Type 1, BuildingBlock: PAMTUU_clean_sbu_0, # of connection points: 6
#     Node 10, Type 1, BuildingBlock: PAMTUU_clean_sbu_0, # of connection points: 6
#     Node 11, Type 1, BuildingBlock: PAMTUU_clean_sbu_0, # of connection points: 6
#     Edge 12, Type (0, 1), BuildingBlock: XUDNAN_clean_linker_2, # of connection points: 2
#     Edge 13, Type (0, 1), BuildingBlock: XUDNAN_clean_linker_2, # of connection points: 2
#     Edge 14, Type (0, 1), BuildingBlock: XUDNAN_clean_linker_2, # of connection points: 2
#     Edge 15, Type (0, 1), BuildingBlock: XUDNAN_clean_linker_2, # of connection points: 2
#     Edge 16, Type (0, 1), BuildingBlock: XUDNAN_clean_linker_2, # of connection points: 2
#     Edge 17, Type (0, 1), BuildingBlock: XUDNAN_clean_linker_2, # of connection points: 2
#     Edge 18, Type (0, 1), BuildingBlock: XUDNAN_clean_linker_2, # of connection points: 2
#     Edge 19, Type (0, 1), BuildingBlock: XUDNAN_clean_linker_2, # of connection points: 2
#     Edge 20, Type (0, 1), BuildingBlock: XUDNAN_clean_linker_2, # of connection points: 2
#     Edge 21, Type (0, 1), BuildingBlock: XUDNAN_clean_linker_2, # of connection points: 2
#     Edge 22, Type (0, 1), BuildingBlock: XUDNAN_clean_linker_2, # of connection points: 2
#     Edge 23, Type (0, 1), BuildingBlock: XUDNAN_clean_linker_2, # of connection points: 2
#     Edge 24, Type (0, 1), BuildingBlock: XUDNAN_clean_linker_2, # of connection points: 2
#     Edge 25, Type (0, 1), BuildingBlock: XUDNAN_clean_linker_2, # of connection points: 2
#     Edge 26, Type (0, 1), BuildingBlock: XUDNAN_clean_linker_2, # of connection points: 2
#     Edge 27, Type (0, 1), BuildingBlock: XUDNAN_clean_linker_2, # of connection points: 2
#     Edge 28, Type (0, 1), BuildingBlock: XUDNAN_clean_linker_2, # of connection points: 2
#     Edge 29, Type (0, 1), BuildingBlock: XUDNAN_clean_linker_2, # of connection points: 2
#     Edge 30, Type (0, 1), BuildingBlock: XUDNAN_clean_linker_2, # of connection points: 2
#     Edge 31, Type (0, 1), BuildingBlock: XUDNAN_clean_linker_2, # of connection points: 2
#     Edge 32, Type (0, 1), BuildingBlock: XUDNAN_clean_linker_2, # of connection points: 2
#     Edge 33, Type (0, 1), BuildingBlock: XUDNAN_clean_linker_2, # of connection points: 2
#     Edge 34, Type (0, 1), BuildingBlock: XUDNAN_clean_linker_2, # of connection points: 2
#     Edge 35, Type (0, 1), BuildingBlock: XUDNAN_clean_linker_2, # of connection points: 2
# Relax obj value: 0.085
# Max RMSD: 0.123
# Mean RMSD: 0.051
data_MOF--net-pyr--node1-PAMTUU_clean_sbu_0--node2-KAKCAD_clean_linker_0--edge1-XUDNAN_clean_linker_2
_symmetry_space_group_name_H-M    P1
_symmetry_Int_Tables_number       1
_symmetry_cell_setting            triclinic
loop_
_symmetry_equiv_pos_as_xyz
'x, y, z'
_cell_length_a     46.69302
_cell_length_b     47.540062
_cell_length_c     45.953649
_cell_angle_alpha  90.160859
_cell_angle_beta   89.117016
_cell_angle_gamma 100.46271
loop_
_atom_site_label
_atom_site_type_symbol
_atom_site_fract_x
_atom_site_fract_y
_atom_site_fract_z
_atom_type_partial_charge
C0 C 0.26526 0.25108 0.29536 0.0
C1 C 0.27959 0.23762 0.31637 0.0
C2 C 0.28086 0.26624 0.27259 0.0
C3 C 0.31124 0.2684 0.27028 0.0
C4 C 0.32578 0.2557 0.2918 0.0
C5 C 0.31007 0.24056 0.3148 0.0
C6 C 0.32685 0.28187 0.24407 0.0
C7 C 0.31908 0.30656 0.23229 0.0
C8 C 0.32828 0.31581 0.20422 0.0
C9 C 0.34676 0.30111 0.18832 0.0
C10 C 0.35583 0.27697 0.20025 0.0
C11 C 0.34588 0.26762 0.22826 0.0
C12 C 0.37282 0.25957 0.18234 0.0
C13 C 0.36581 0.25392 0.15302 0.0
C14 C 0.39506 0.24729 0.19465 0.0
C15 C 0.40987 0.22965 0.17798 0.0
C16 C 0.40276 0.22403 0.14868 0.0
C17 C 0.31385 0.33722 0.19015 0.0
C18 C 0.29464 0.32861 0.16733 0.0
C19 C 0.31473 0.36422 0.20278 0.0
C20 C 0.29535 0.38163 0.19397 0.0
C21 C 0.27409 0.37193 0.173 0.0
C22 C 0.27479 0.34567 0.15898 0.0
C23 C 0.3806 0.2364 0.13641 0.0
H24 H 0.2418 0.24938 0.29621 0.0
H25 H 0.26889 0.27532 0.25613 0.0
H26 H 0.34918 0.25707 0.29056 0.0
H27 H 0.3216 0.23026 0.3307 0.0
H28 H 0.30394 0.31738 0.24408 0.0
H29 H 0.35102 0.24791 0.23674 0.0
H30 H 0.35333 0.30804 0.16638 0.0
H31 H 0.3483 0.2624 0.14305 0.0
H32 H 0.40104 0.25136 0.21715 0.0
H33 H 0.42702 0.2206 0.18795 0.0
H34 H 0.29332 0.30764 0.15759 0.0
H35 H 0.32943 0.37121 0.22046 0.0
H36 H 0.37417 0.232 0.11407 0.0
H37 H 0.25869 0.33715 0.14303 0.0
H38 H 0.29611 0.40207 0.20466 0.0
C39 C 0.20921 0.80743 0.83056 0.0
C40 C 0.23896 0.81944 0.83286 0.0
C41 C 0.19803 0.79595 0.80404 0.0
C42 C 0.21649 0.79617 0.77956 0.0
C43 C 0.24607 0.80836 0.78193 0.0
C44 C 0.25712 0.81989 0.80813 0.0
C45 C 0.20549 0.78487 0.75098 0.0
C46 C 0.18142 0.79377 0.73843 0.0
C47 C 0.17481 0.7879 0.70895 0.0
C48 C 0.19214 0.7721 0.69252 0.0
C49 C 0.216 0.76283 0.70503 0.0
C50 C 0.22199 0.76866 0.73441 0.0
C51 C 0.23698 0.75032 0.68685 0.0
C52 C 0.22755 0.72799 0.66722 0.0
C53 C 0.26694 0.76107 0.68911 0.0
C54 C 0.28713 0.74939 0.67261 0.0
C55 C 0.27792 0.72655 0.65348 0.0
C56 C 0.15272 0.80155 0.69411 0.0
C57 C 0.15047 0.83007 0.7004 0.0
C58 C 0.13595 0.78733 0.67149 0.0
C59 C 0.11889 0.80186 0.65437 0.0
C60 C 0.11794 0.83077 0.65975 0.0
C61 C 0.13314 0.84446 0.68349 0.0
C62 C 0.24787 0.71612 0.65073 0.0
H63 H 0.19466 0.80686 0.84921 0.0
H64 H 0.17509 0.78677 0.80269 0.0
H65 H 0.26067 0.80963 0.76323 0.0
H66 H 0.27988 0.82988 0.8087 0.0
H67 H 0.16894 0.80668 0.75113 0.0
H68 H 0.24057 0.76171 0.74409 0.0
H69 H 0.18849 0.76885 0.66942 0.0
H70 H 0.20456 0.71937 0.66507 0.0
H71 H 0.2748 0.77877 0.70353 0.0
H72 H 0.31003 0.75844 0.67472 0.0
H73 H 0.16339 0.84193 0.71727 0.0
H74 H 0.13677 0.76523 0.66639 0.0
H75 H 0.24008 0.69842 0.63632 0.0
H76 H 0.13308 0.86685 0.68792 0.0
H77 H 0.10709 0.79073 0.63636 0.0
C78 C 0.76509 0.43208 0.88608 0.0
C79 C 0.7829 0.41422 0.89808 0.0
C80 C 0.73992 0.42046 0.87017 0.0
C81 C 0.73194 0.39065 0.86562 0.0
C82 C 0.75092 0.37321 0.87624 0.0
C83 C 0.77567 0.38471 0.89228 0.0
C84 C 0.70336 0.37719 0.85169 0.0
C85 C 0.69132 0.39001 0.82813 0.0
C86 C 0.66432 0.37727 0.81541 0.0
C87 C 0.64985 0.35046 0.82692 0.0
C88 C 0.6618 0.33679 0.85006 0.0
C89 C 0.68802 0.35088 0.86236 0.0
C90 C 0.648 0.30761 0.86191 0.0
C91 C 0.61794 0.29994 0.86857 0.0
C92 C 0.66585 0.28774 0.86899 0.0
C93 C 0.65468 0.26221 0.88376 0.0
C94 C 0.62507 0.25519 0.89203 0.0
C95 C 0.65156 0.39216 0.7904 0.0
C96 C 0.65821 0.42217 0.7871 0.0
C97 C 0.63276 0.37699 0.76941 0.0
C98 C 0.621 0.39128 0.7466 0.0
C99 C 0.62763 0.42136 0.74361 0.0
C100 C 0.64696 0.43627 0.76418 0.0
C101 C 0.60663 0.27406 0.88341 0.0
H102 H 0.76984 0.45489 0.89015 0.0
H103 H 0.72608 0.43477 0.8625 0.0
H104 H 0.74643 0.35033 0.87259 0.0
H105 H 0.78901 0.37026 0.90069 0.0
H106 H 0.70361 0.40967 0.81927 0.0
H107 H 0.69638 0.34128 0.88102 0.0
H108 H 0.62936 0.34005 0.81793 0.0
H109 H 0.6034 0.31454 0.86356 0.0
H110 H 0.68892 0.29226 0.8637 0.0
H111 H 0.66957 0.24812 0.88936 0.0
H112 H 0.67194 0.43529 0.80253 0.0
H113 H 0.62713 0.35392 0.77032 0.0
H114 H 0.58373 0.2695 0.88935 0.0
H115 H 0.65375 0.45922 0.76278 0.0
H116 H 0.6063 0.37862 0.7316 0.0
C117 C 0.87471 0.64117 0.24291 0.0
C118 C 0.90465 0.64104 0.23876 0.0
C119 C 0.86404 0.65233 0.26839 0.0
C120 C 0.88289 0.66417 0.2907 0.0
C121 C 0.91292 0.66414 0.28665 0.0
C122 C 0.9236 0.65246 0.26119 0.0
C123 C 0.87071 0.676 0.31789 0.0
C124 C 0.84492 0.6608 0.33112 0.0
C125 C 0.8314 0.67194 0.35521 0.0
C126 C 0.84428 0.69906 0.36587 0.0
C127 C 0.87024 0.71472 0.3537 0.0
C128 C 0.8836 0.70278 0.32992 0.0
C129 C 0.88204 0.74395 0.36582 0.0
C130 C 0.86312 0.76344 0.37081 0.0
C131 C 0.91108 0.75182 0.37495 0.0
C132 C 0.92037 0.77774 0.3901 0.0
C133 C 0.90087 0.79653 0.3964 0.0
C134 C 0.80366 0.6557 0.36905 0.0
C135 C 0.78269 0.63769 0.35241 0.0
C136 C 0.79762 0.65824 0.39909 0.0
C137 C 0.77164 0.64352 0.4119 0.0
C138 C 0.75105 0.62529 0.39527 0.0
C139 C 0.75698 0.6226 0.36535 0.0
C140 C 0.87236 0.78922 0.38565 0.0
H141 H 0.85933 0.6325 0.22634 0.0
H142 H 0.84085 0.65208 0.27039 0.0
H143 H 0.92815 0.67287 0.30332 0.0
H144 H 0.9468 0.65297 0.25877 0.0
H145 H 0.8356 0.63989 0.32273 0.0
H146 H 0.90318 0.7149 0.31999 0.0
H147 H 0.83388 0.7084 0.38376 0.0
H148 H 0.84076 0.75844 0.36368 0.0
H149 H 0.92625 0.73733 0.37158 0.0
H150 H 0.94248 0.78245 0.39792 0.0
H151 H 0.78585 0.63542 0.32921 0.0
H152 H 0.81319 0.67125 0.41304 0.0
H153 H 0.85682 0.8033 0.38908 0.0
H154 H 0.7415 0.60895 0.35178 0.0
H155 H 0.76805 0.64581 0.43506 0.0
C156 C 0.73847 0.79664 0.74795 0.0
C157 C 0.73781 0.82539 0.74179 0.0
C158 C 0.72758 0.78465 0.77455 0.0
C159 C 0.71649 0.80141 0.7958 0.0
C160 C 0.71531 0.83007 0.7891 0.0
C161 C 0.72557 0.8418 0.76232 0.0
C162 C 0.70845 0.78996 0.82559 0.0
C163 C 0.72527 0.77212 0.83901 0.0
C164 C 0.7204 0.76387 0.86829 0.0
C165 C 0.69803 0.7735 0.88409 0.0
C166 C 0.68195 0.79254 0.87162 0.0
C167 C 0.68652 0.79966 0.84203 0.0
C168 C 0.66456 0.80901 0.8904 0.0
C169 C 0.67532 0.81906 0.91768 0.0
C170 C 0.63963 0.81819 0.87989 0.0
C171 C 0.62722 0.83861 0.8952 0.0
C172 C 0.63942 0.85011 0.9214 0.0
C173 C 0.74141 0.74887 0.88327 0.0
C174 C 0.75469 0.72856 0.86848 0.0
C175 C 0.7505 0.75689 0.91163 0.0
C176 C 0.77311 0.74594 0.9243 0.0
C177 C 0.78767 0.72709 0.90879 0.0
C178 C 0.77767 0.71793 0.88101 0.0
C179 C 0.6628 0.83919 0.93302 0.0
H180 H 0.7478 0.7836 0.73235 0.0
H181 H 0.72844 0.76241 0.7787 0.0
H182 H 0.70773 0.84401 0.80497 0.0
H183 H 0.7253 0.86419 0.75824 0.0
H184 H 0.74366 0.7664 0.82727 0.0
H185 H 0.67422 0.8143 0.83225 0.0
H186 H 0.69409 0.76733 0.90667 0.0
H187 H 0.69462 0.81284 0.92648 0.0
H188 H 0.63045 0.81055 0.85922 0.0
H189 H 0.60914 0.84651 0.88569 0.0
H190 H 0.74796 0.72152 0.8468 0.0
H191 H 0.74115 0.7727 0.92369 0.0
H192 H 0.67227 0.84711 0.9535 0.0
H193 H 0.78837 0.70351 0.86833 0.0
H194 H 0.77972 0.75295 0.94602 0.0
C195 C 0.80624 0.20186 0.25682 0.0
C196 C 0.79212 0.2172 0.23727 0.0
C197 C 0.81736 0.21438 0.28268 0.0
C198 C 0.81492 0.24271 0.28954 0.0
C199 C 0.80238 0.25867 0.26913 0.0
C200 C 0.79108 0.24602 0.24321 0.0
C201 C 0.82303 0.25431 0.31897 0.0
C202 C 0.84696 0.24684 0.3331 0.0
C203 C 0.85169 0.25286 0.36271 0.0
C204 C 0.83343 0.26857 0.3778 0.0
C205 C 0.80955 0.27683 0.36392 0.0
C206 C 0.80461 0.26952 0.33446 0.0
C207 C 0.78787 0.29022 0.38064 0.0
C208 C 0.77979 0.28153 0.40931 0.0
C209 C 0.77348 0.31025 0.36734 0.0
C210 C 0.75072 0.32025 0.38176 0.0
C211 C 0.74198 0.31082 0.41007 0.0
C212 C 0.87305 0.23924 0.37852 0.0
C213 C 0.87374 0.21014 0.37381 0.0
C214 C 0.89157 0.25431 0.39932 0.0
C215 C 0.91012 0.24039 0.41535 0.0
C216 C 0.91028 0.21106 0.41107 0.0
C217 C 0.89205 0.19623 0.38988 0.0
C218 C 0.75731 0.29186 0.42389 0.0
H219 H 0.80769 0.17972 0.25265 0.0
H220 H 0.82649 0.20125 0.29795 0.0
H221 H 0.80049 0.28064 0.27361 0.0
H222 H 0.78021 0.25834 0.22858 0.0
H223 H 0.86132 0.2351 0.32137 0.0
H224 H 0.78519 0.2739 0.32413 0.0
H225 H 0.83703 0.27314 0.40069 0.0
H226 H 0.79003 0.26591 0.42025 0.0
H227 H 0.77938 0.3178 0.34547 0.0
H228 H 0.73937 0.33462 0.37021 0.0
H229 H 0.85927 0.19774 0.35838 0.0
H230 H 0.89159 0.27679 0.40328 0.0
H231 H 0.75168 0.28455 0.44588 0.0
H232 H 0.89098 0.17352 0.38644 0.0
H233 H 0.92413 0.25253 0.43129 0.0
C234 C 0.25619 0.61988 0.18699 0.0
C235 C 0.25053 0.62299 0.15719 0.0
C236 C 0.28198 0.63452 0.1997 0.0
C237 C 0.30336 0.65261 0.18302 0.0
C238 C 0.29761 0.65553 0.15311 0.0
C239 C 0.27161 0.64125 0.14054 0.0
C240 C 0.33114 0.66876 0.19658 0.0
C241 C 0.34457 0.65768 0.22044 0.0
C242 C 0.37036 0.67299 0.23316 0.0
C243 C 0.38303 0.69996 0.22081 0.0
C244 C 0.37048 0.71143 0.19659 0.0
C245 C 0.34429 0.69576 0.18549 0.0
C246 C 0.38409 0.73951 0.18205 0.0
C247 C 0.39719 0.7639 0.19789 0.0
C248 C 0.38248 0.74252 0.15159 0.0
C249 C 0.39179 0.76898 0.13775 0.0
C250 C 0.40352 0.79368 0.1536 0.0
C251 C 0.38361 0.66096 0.25956 0.0
C252 C 0.38328 0.63129 0.26296 0.0
C253 C 0.39601 0.67898 0.28225 0.0
C254 C 0.40674 0.66786 0.30751 0.0
C255 C 0.40577 0.63818 0.31129 0.0
C256 C 0.39429 0.62015 0.28821 0.0
C257 C 0.40683 0.79057 0.18386 0.0
H258 H 0.24046 0.60621 0.20069 0.0
H259 H 0.28486 0.63184 0.22278 0.0
H260 H 0.31345 0.66852 0.139 0.0
H261 H 0.26841 0.64387 0.11748 0.0
H262 H 0.33478 0.63708 0.22937 0.0
H263 H 0.33361 0.70517 0.16826 0.0
H264 H 0.40312 0.71168 0.22953 0.0
H265 H 0.39895 0.7627 0.2213 0.0
H266 H 0.37353 0.72435 0.13822 0.0
H267 H 0.3894 0.77017 0.1144 0.0
H268 H 0.37444 0.61647 0.24605 0.0
H269 H 0.39672 0.70183 0.28096 0.0
H270 H 0.41572 0.80902 0.19689 0.0
H271 H 0.39295 0.59725 0.29002 0.0
H272 H 0.41569 0.68274 0.32433 0.0
C273 C 0.1626 0.25605 0.668 0.0
C274 C 0.13301 0.24662 0.66149 0.0
C275 C 0.17209 0.2823 0.68189 0.0
C276 C 0.15241 0.30024 0.68999 0.0
C277 C 0.12255 0.29028 0.68492 0.0
C278 C 0.11298 0.26382 0.67083 0.0
C279 C 0.16371 0.32958 0.70226 0.0
C280 C 0.18895 0.34631 0.68985 0.0
C281 C 0.20121 0.37332 0.7011 0.0
C282 C 0.18759 0.3837 0.72559 0.0
C283 C 0.16198 0.36777 0.73868 0.0
C284 C 0.15013 0.34076 0.7263 0.0
C285 C 0.1484 0.37884 0.76575 0.0
C286 C 0.1506 0.40845 0.77134 0.0
C287 C 0.13357 0.35987 0.78684 0.0
C288 C 0.12185 0.36993 0.8124 0.0
C289 C 0.12486 0.39947 0.81849 0.0
C290 C 0.22833 0.39044 0.68711 0.0
C291 C 0.25095 0.37701 0.67635 0.0
C292 C 0.23159 0.42027 0.68369 0.0
C293 C 0.25654 0.4361 0.67003 0.0
C294 C 0.27929 0.42274 0.65944 0.0
C295 C 0.27596 0.39287 0.66274 0.0
C296 C 0.1392 0.41854 0.79721 0.0
H297 H 0.1787 0.24322 0.662 0.0
H298 H 0.19513 0.28872 0.68604 0.0
H299 H 0.1067 0.30342 0.6908 0.0
H300 H 0.09004 0.25742 0.66623 0.0
H301 H 0.19885 0.33839 0.67076 0.0
H302 H 0.1305 0.32811 0.73551 0.0
H303 H 0.19765 0.4039 0.73502 0.0
H304 H 0.16119 0.42408 0.75572 0.0
H305 H 0.13141 0.33698 0.7841 0.0
H306 H 0.11039 0.3542 0.82746 0.0
H307 H 0.24959 0.35417 0.67883 0.0
H308 H 0.21458 0.43143 0.69111 0.0
H309 H 0.14225 0.44141 0.80069 0.0
H310 H 0.29299 0.3817 0.65539 0.0
H311 H 0.25778 0.45892 0.66751 0.0
Tb312 Tb 0.03989 1.0235 0.50457 0.0
Tb313 Tb 0.99151 1.0175 0.55856 0.0
C314 C 0.98424 0.97483 0.5037 0.0
C315 C 0.09722 0.05498 0.45121 0.0
C316 C 0.13893 0.10027 0.42894 0.0
C317 C 0.13337 0.07376 0.41448 0.0
C318 C 0.11272 0.05126 0.42561 0.0
C319 C 0.10204 0.08162 0.46529 0.0
C320 C 0.12285 0.10409 0.4543 0.0
C321 C 0.07777 0.03042 0.46416 0.0
O322 O 1.00661 0.04784 0.49215 0.0
O323 O 0.99176 0.05821 0.53783 0.0
O324 O 0.02851 0.04838 0.57525 0.0
O325 O 0.05418 0.0606 0.53239 0.0
O326 O 0.9491 1.02238 0.56998 0.0
O327 O 0.97741 1.00863 0.60175 0.0
O328 O 1.01342 0.98174 0.56548 0.0
O329 O 0.05368 0.99431 0.5353 0.0
O330 O 1.01178 0.9826 0.49619 0.0
O331 O 0.97175 0.98935 0.52323 0.0
C332 C 0.9944 0.06387 0.51003 0.0
O333 O 0.08314 0.02517 0.49112 0.0
O334 O 0.04998 0.02867 0.45984 0.0
C335 C 0.04913 0.06515 0.56017 0.0
C336 C 0.92676 0.99086 0.60601 0.0
C337 C 0.87788 0.94977 0.62228 0.0
C338 C 0.87777 0.97909 0.62611 0.0
C339 C 0.90202 0.99943 0.61807 0.0
C340 C 0.92711 0.96162 0.6021 0.0
C341 C 0.90287 0.94117 0.6104 0.0
C342 C 0.95117 1.01292 0.59631 0.0
C343 C 0.03892 0.97806 0.55548 0.0
H344 H 0.14563 0.07013 0.39506 0.0
H345 H 0.10934 0.03076 0.41462 0.0
H346 H 0.09017 0.08483 0.48509 0.0
H347 H 0.12645 0.12439 0.46566 0.0
H348 H 0.85901 0.98633 0.63564 0.0
H349 H 0.90136 1.02192 0.62109 0.0
H350 H 0.94595 0.95465 0.59244 0.0
H351 H 0.90346 0.91871 0.60712 0.0
Tb352 Tb 0.52981 0.03579 0.05786 0.0
Tb353 Tb 0.4856 0.02435 1.00338 0.0
C354 C 0.54243 0.99946 1.00509 0.0
C355 C 0.5938 0.064 0.10341 0.0
C356 C 0.64778 0.09858 0.11639 0.0
C357 C 0.64213 0.06934 0.12372 0.0
C358 C 0.61532 0.05228 0.11744 0.0
C359 C 0.59993 0.09276 0.09452 0.0
C360 C 0.62662 0.10992 0.10108 0.0
C361 C 0.56483 0.04628 0.09935 0.0
O362 O 0.5437 0.07293 1.02933 0.0
O363 O 0.51987 0.0589 0.98644 0.0
O364 O 0.48064 0.06406 1.02389 0.0
O365 O 0.49016 0.05144 0.06971 0.0
O366 O 0.474 1.00823 0.96153 0.0
O367 O 0.44458 0.02805 0.98815 0.0
O368 O 0.46528 0.99601 0.03869 0.0
O369 O 0.50519 0.99256 0.06587 0.0
O370 O 0.55337 1.02113 1.02158 0.0
O371 O 0.51438 0.99333 1.00043 0.0
C372 C 0.53901 0.07708 1.00145 0.0
O373 O 0.54344 0.05988 0.09495 0.0
O374 O 0.5636 0.02415 0.08232 0.0
C375 C 0.47925 0.06805 0.05193 0.0
C376 C 0.42354 0.98869 0.95958 0.0
C377 C 0.37593 0.94485 0.94773 0.0
C378 C 0.37906 0.95717 0.97552 0.0
C379 C 0.40277 0.97875 0.98149 0.0
C380 C 0.42073 0.97596 0.93199 0.0
C381 C 0.3972 0.95409 0.92614 0.0
C382 C 0.44744 1.01294 0.96492 0.0
C383 C 0.47825 0.98249 0.05821 0.0
H384 H 0.65817 0.05976 0.13496 0.0
H385 H 0.61114 0.03006 0.12416 0.0
H386 H 0.5838 0.10226 0.0833 0.0
H387 H 0.63008 0.13236 0.0953 0.0
H388 H 0.36306 0.95023 0.99256 0.0
H389 H 0.4045 0.98795 1.00312 0.0
H390 H 0.43645 0.98328 0.91481 0.0
H391 H 0.39511 0.94507 0.90443 0.0
Tb392 Tb 0.51066 0.4962 0.51062 0.0
Tb393 Tb 0.51831 0.55796 0.5422 0.0
C394 C 0.48387 0.54737 0.48374 0.0
C395 C 0.53064 0.4298 0.48089 0.0
C396 C 0.57434 0.39644 0.47235 0.0
C397 C 0.56419 0.41045 0.4488 0.0
C398 C 0.54246 0.42681 0.45301 0.0
C399 C 0.54052 0.41549 0.50444 0.0
C400 C 0.56208 0.39887 0.50016 0.0
C401 C 0.50912 0.44886 0.48506 0.0
O402 O 0.55661 0.51517 0.50524 0.0
O403 O 0.55392 0.56251 0.50997 0.0
O404 O 0.54723 0.53567 0.56659 0.0
O405 O 0.52811 0.48927 0.55423 0.0
O406 O 0.52431 0.60263 0.5379 0.0
O407 O 0.51853 0.5828 0.58014 0.0
O408 O 0.48172 0.53097 0.56438 0.0
O409 O 0.46749 0.49618 0.53026 0.0
O410 O 0.49695 0.52555 0.47805 0.0
O411 O 0.48402 0.55744 0.51036 0.0
C412 C 0.56766 0.54229 0.50077 0.0
O413 O 0.49894 0.45134 0.51134 0.0
O414 O 0.51541 0.47356 0.47207 0.0
C415 C 0.54392 0.50796 0.57165 0.0
C416 C 0.49319 0.6199 0.57093 0.0
C417 C 0.4441 0.64569 0.57988 0.0
C418 C 0.47184 0.65972 0.5886 0.0
C419 C 0.49631 0.64692 0.58398 0.0
C420 C 0.46547 0.60575 0.56269 0.0
C421 C 0.4412 0.61856 0.56698 0.0
C422 C 0.5184 0.6061 0.56533 0.0
C423 C 0.4624 0.50968 0.55432 0.0
H424 H 0.57297 0.40863 0.42706 0.0
H425 H 0.53516 0.43749 0.43447 0.0
H426 H 0.53196 0.41741 0.52625 0.0
H427 H 0.56962 0.38845 0.51874 0.0
H428 H 0.47462 0.68069 0.59858 0.0
H429 H 0.51757 0.6581 0.5905 0.0
H430 H 0.46257 0.5847 0.55291 0.0
H431 H 0.42005 0.60702 0.56056 0.0
Tb432 Tb 0.01857 0.54582 1.00939 0.0
Tb433 Tb 1.0118 0.49138 0.0524 0.0
C434 C 0.04202 0.49057 0.9892 0.0
C435 C 0.99925 0.60866 0.97306 0.0
C436 C 0.9564 0.64216 0.96274 0.0
C437 C 0.96651 0.62652 0.94001 0.0
C438 C 0.98787 0.61005 0.9451 0.0
C439 C 0.98915 0.6244 0.99578 0.0
C440 C 0.96804 0.64104 0.99062 0.0
C441 C 0.02065 0.58996 0.97851 0.0
O442 O 0.97917 0.51651 0.99445 0.0
O443 O 0.96812 0.48853 0.03516 0.0
O444 O 1.00174 0.52703 0.079 0.0
O445 O 0.98638 0.55268 0.04253 0.0
O446 O 1.00453 0.44696 0.05991 0.0
O447 O 1.0132 0.47683 0.09531 0.0
O448 O 0.0579 0.50939 0.05196 0.0
O449 O 0.05525 0.5553 0.04027 0.0
O450 O 0.0454 0.51862 0.98741 0.0
O451 O 0.02665 0.47635 1.01056 0.0
C452 C 0.96107 0.49704 1.0094 0.0
O453 O 0.03083 0.59025 1.00476 0.0
O454 O 1.01428 0.56402 0.96832 0.0
C455 C 0.9877 0.54703 0.07041 0.0
C456 C 0.03674 0.43786 0.09628 0.0
C457 C 0.08861 0.42461 0.11845 0.0
C458 C 0.06266 0.41953 0.13519 0.0
C459 C 0.03695 0.42623 0.12421 0.0
C460 C 0.0622 0.44165 0.07898 0.0
C461 C 0.0879 0.43506 0.08994 0.0
C462 C 1.01185 0.45044 0.08711 0.0
C463 C 0.06917 0.53669 0.05242 0.0
H464 H 0.95805 0.62722 0.91825 0.0
H465 H 0.9953 0.59814 0.92725 0.0
H466 H 0.99726 0.62366 1.01767 0.0
H467 H 0.96039 0.65263 1.0086 0.0
H468 H 0.0624 0.41105 0.15706 0.0
H469 H 0.01759 0.42347 0.13797 0.0
H470 H 0.06263 0.45107 0.0575 0.0
H471 H 0.10751 0.43955 0.0766 0.0
H472 H 0.23154 0.19696 0.3074 0.0
H473 H 0.2888 0.23655 0.37525 0.0
H474 H 0.25843 0.20623 0.41212 0.0
H475 H 0.16452 0.19128 0.34772 0.0
H476 H 0.14897 0.15712 0.33228 0.0
H477 H 0.17526 0.18192 0.31163 0.0
H478 H 0.20752 0.14325 0.30527 0.0
H479 H 0.1813 0.11831 0.32584 0.0
H480 H 0.21874 0.12612 0.33701 0.0
H481 H 0.22078 0.17199 0.44138 0.0
H482 H 0.18092 0.13469 0.46033 0.0
H483 H 0.14907 0.11807 0.37262 0.0
C484 C 0.23759 0.1994 0.33006 0.0
C485 C 0.26229 0.21922 0.33862 0.0
C486 C 0.26993 0.2214 0.36834 0.0
C487 C 0.25276 0.2044 0.38936 0.0
C488 C 0.22829 0.18528 0.38015 0.0
C489 C 0.22089 0.18258 0.35115 0.0
C490 C 0.19393 0.16015 0.34667 0.0
C491 C 0.16921 0.17342 0.33382 0.0
C492 C 0.2008 0.1355 0.32757 0.0
C493 C 0.18716 0.15061 0.37772 0.0
C494 C 0.20708 0.16542 0.39678 0.0
C495 C 0.20509 0.16027 0.42665 0.0
C496 C 0.1823 0.13921 0.43721 0.0
C497 C 0.16199 0.12352 0.41791 0.0
C498 C 0.16446 0.12953 0.38784 0.0
H499 H 0.2921 0.81723 0.85581 0.0
H500 H 0.21441 0.85363 0.8706 0.0
H501 H 0.23942 0.88403 0.90956 0.0
H502 H 0.32089 0.82416 0.93251 0.0
H503 H 0.35775 0.8342 0.91893 0.0
H504 H 0.33143 0.80981 0.89844 0.0
H505 H 0.3423 0.84298 0.85342 0.0
H506 H 0.36829 0.86753 0.87374 0.0
H507 H 0.33843 0.87992 0.85655 0.0
H508 H 0.27541 0.91661 0.93994 0.0
H509 H 0.3191 0.9489 0.95801 0.0
H510 H 0.37402 0.8935 0.92048 0.0
C511 C 0.28006 0.83106 0.86775 0.0
C512 C 0.25131 0.83308 0.86013 0.0
C513 C 0.23628 0.85136 0.87634 0.0
C514 C 0.25037 0.86879 0.89847 0.0
C515 C 0.27937 0.8675 0.9042 0.0
C516 C 0.29396 0.84888 0.8894 0.0
C517 C 0.32611 0.85455 0.89614 0.0
C518 C 0.33453 0.82917 0.91249 0.0
C519 C 0.34485 0.86168 0.86832 0.0
C520 C 0.3277 0.88033 0.91573 0.0
C521 C 0.30042 0.88697 0.92089 0.0
C522 C 0.29678 0.91126 0.93656 0.0
C523 C 0.32167 0.92946 0.94673 0.0
C524 C 0.34979 0.92353 0.94064 0.0
C525 C 0.35271 0.89837 0.9255 0.0
H526 H 0.60778 0.40418 0.68679 0.0
H527 H 0.6151 0.47587 0.74691 0.0
H528 H 0.59662 0.50425 0.70974 0.0
H529 H 0.62654 0.44513 0.62071 0.0
H530 H 0.59981 0.42329 0.59841 0.0
H531 H 0.61458 0.40783 0.62929 0.0
H532 H 0.56258 0.39076 0.65007 0.0
H533 H 0.54767 0.40607 0.61918 0.0
H534 H 0.53882 0.41633 0.65555 0.0
H535 H 0.57922 0.52665 0.66596 0.0
H536 H 0.55951 0.54007 0.61986 0.0
H537 H 0.55787 0.45414 0.58677 0.0
C538 C 0.60539 0.42577 0.69234 0.0
C539 C 0.61419 0.43762 0.72021 0.0
C540 C 0.61012 0.4661 0.72588 0.0
C541 C 0.59917 0.48256 0.70479 0.0
C542 C 0.59146 0.47054 0.6777 0.0
C543 C 0.59389 0.44265 0.67142 0.0
C544 C 0.58291 0.43507 0.64055 0.0
C545 C 0.60742 0.42737 0.62109 0.0
C546 C 0.55642 0.41059 0.64139 0.0
C547 C 0.57424 0.4631 0.63061 0.0
C548 C 0.57974 0.48322 0.65252 0.0
C549 C 0.57463 0.51096 0.64876 0.0
C550 C 0.56347 0.51845 0.62219 0.0
C551 C 0.5569 0.4984 0.5992 0.0
C552 C 0.56239 0.47012 0.60372 0.0
H553 H 0.94438 0.60408 0.22929 0.0
H554 H 0.88965 0.65349 0.18367 0.0
H555 H 0.90515 0.63538 0.13677 0.0
H556 H 1.00387 0.61279 0.17535 0.0
H557 H 1.01046 0.57681 0.17931 0.0
H558 H 0.99599 0.59431 0.20955 0.0
H559 H 0.95223 0.55237 0.21357 0.0
H560 H 0.96653 0.53479 0.18329 0.0
H561 H 0.93005 0.54222 0.18214 0.0
H562 H 0.92643 0.61209 0.09426 0.0
H563 H 0.95082 0.58436 0.05946 0.0
H564 H 0.99119 0.54786 0.13123 0.0
C565 C 0.93589 0.61128 0.2094 0.0
C566 C 0.91563 0.63034 0.21043 0.0
C567 C 0.90488 0.63882 0.18374 0.0
C568 C 0.91368 0.62868 0.15685 0.0
C569 C 0.93328 0.60975 0.15658 0.0
C570 C 0.94423 0.601 0.18212 0.0
C571 C 0.96442 0.57978 0.17546 0.0
C572 C 0.99553 0.59163 0.18552 0.0
C573 C 0.9526 0.55056 0.18945 0.0
C574 C 0.96306 0.57803 0.1423 0.0
C575 C 0.94507 0.5957 0.13195 0.0
C576 C 0.94049 0.59813 0.10219 0.0
C577 C 0.95453 0.58219 0.08249 0.0
C578 C 0.97297 0.56361 0.09228 0.0
C579 C 0.97716 0.56162 0.12281 0.0
H580 H 0.41756 0.17262 0.16427 0.0
H581 H 0.42207 0.23258 0.09251 0.0
H582 H 0.44319 0.19946 0.06092 0.0
H583 H 0.48627 0.14791 0.14591 0.0
H584 H 0.47205 0.11153 0.15658 0.0
H585 H 0.4588 0.14066 0.17425 0.0
H586 H 0.40601 0.11767 0.16092 0.0
H587 H 0.41909 0.08865 0.14297 0.0
H588 H 0.39726 0.10964 0.12338 0.0
H589 H 0.45991 0.15924 0.03625 0.0
H590 H 0.47487 0.11484 1.01993 0.0
H591 H 0.46182 0.08055 0.10768 0.0
C592 C 0.42355 0.179 0.14208 0.0
C593 C 0.41798 0.20511 0.13077 0.0
C594 C 0.42572 0.21252 0.10149 0.0
C595 C 0.43787 0.19393 0.08343 0.0
C596 C 0.44242 0.16812 0.09503 0.0
C597 C 0.43586 0.16069 0.12371 0.0
C598 C 0.44231 0.1312 0.13027 0.0
C599 C 0.46629 0.13294 0.15311 0.0
C600 C 0.41451 0.11058 0.13995 0.0
C601 C 0.45297 0.12307 0.10062 0.0
C602 C 0.45278 0.14479 0.08072 0.0
C603 C 0.46044 0.14216 0.05164 0.0
C604 C 0.4687 0.1167 0.04258 0.0
C605 C 0.46944 0.09415 0.06253 0.0
C606 C 0.46159 0.09747 0.092 0.0
H607 H 0.08134 0.86873 0.67176 0.0
H608 H 0.12431 0.83157 0.60082 0.0
H609 H 0.10665 0.86382 0.56613 0.0
H610 H 0.01706 0.8796 0.6297 0.0
H611 H 0.01496 0.91286 0.64781 0.0
H612 H 0.02895 0.8852 0.66674 0.0
H613 H 0.07637 0.92109 0.67749 0.0
H614 H 0.06268 0.94876 0.65836 0.0
H615 H 0.09718 0.93966 0.64771 0.0
H616 H 0.08984 0.90366 0.54035 0.0
H617 H 0.06989 0.94544 0.52378 0.0
H618 H 0.03518 0.95539 0.61057 0.0
C619 C 0.08655 0.8671 0.64884 0.0
C620 C 0.10403 0.84758 0.63889 0.0
C621 C 0.11056 0.84606 0.6088 0.0
C622 C 0.10079 0.8644 0.58897 0.0
C623 C 0.08417 0.88384 0.59955 0.0
C624 C 0.07661 0.885 0.62867 0.0
C625 C 0.0591 0.90842 0.63435 0.0
C626 C 0.02818 0.89576 0.64529 0.0
C627 C 0.07478 0.9308 0.65574 0.0
C628 C 0.0587 0.92071 0.60401 0.0
C629 C 0.07344 0.90627 0.58433 0.0
C630 C 0.07781 0.91484 0.55541 0.0
C631 C 0.06662 0.93869 0.54627 0.0
C632 C 0.05095 0.95343 0.5659 0.0
C633 C 0.04677 0.94419 0.59508 0.0
H634 H 0.83026 0.46002 0.89181 0.0
H635 H 0.79091 0.39309 0.95159 0.0
H636 H 0.83065 0.40814 0.98605 0.0
H637 H 0.90476 0.45285 0.90517 0.0
H638 H 0.91951 0.49056 0.90296 0.0
H639 H 0.88722 0.47587 0.88314 0.0
H640 H 0.85949 0.51193 0.9082 0.0
H641 H 0.89172 0.52674 0.92808 0.0
H642 H 0.85806 0.51365 0.94738 0.0
H643 H 0.87454 0.42938 1.01421 0.0
H644 H 0.92086 0.45434 0.03382 0.0
H645 H 0.93509 0.50774 0.9565 0.0
C646 C 0.82992 0.44877 0.91229 0.0
C647 C 0.80719 0.4252 0.91884 0.0
C648 C 0.80795 0.41095 0.94582 0.0
C649 C 0.83047 0.41945 0.96567 0.0
C650 C 0.85261 0.44233 0.9585 0.0
C651 C 0.85272 0.45683 0.93246 0.0
C652 C 0.88005 0.48004 0.93006 0.0
C653 C 0.89901 0.47449 0.90377 0.0
C654 C 0.87183 0.50986 0.92832 0.0
C655 C 0.89516 0.47617 0.9587 0.0
C656 C 0.87864 0.45437 0.97473 0.0
C657 C 0.88764 0.44648 1.00182 0.0
C658 C 0.91419 0.46095 1.01284 0.0
C659 C 0.9321 0.48324 0.99696 0.0
C660 C 0.92216 0.49093 0.9694 0.0
H661 H 0.71167 0.6434 0.43389 0.0
H662 H 0.7294 0.56833 0.38818 0.0
H663 H 0.68554 0.53932 0.41087 0.0
H664 H 0.6836 0.60774 0.50089 0.0
H665 H 0.65553 0.62883 0.50622 0.0
H666 H 0.68873 0.64377 0.48702 0.0
H667 H 0.65889 0.65491 0.44286 0.0
H668 H 0.62561 0.64005 0.46194 0.0
H669 H 0.63328 0.62651 0.42654 0.0
H670 H 0.6403 0.51797 0.43926 0.0
H671 H 0.5951 0.50634 0.46856 0.0
H672 H 0.6043 0.59532 0.49478 0.0
C673 C 0.70636 0.62082 0.42879 0.0
C674 C 0.72414 0.60817 0.40917 0.0
C675 C 0.71614 0.57861 0.40286 0.0
C676 C 0.69129 0.56189 0.4158 0.0
C677 C 0.67426 0.57497 0.43492 0.0
C678 C 0.68125 0.60381 0.44124 0.0
C679 C 0.65856 0.61263 0.46184 0.0
C680 C 0.67244 0.62391 0.49071 0.0
C681 C 0.64317 0.63484 0.44743 0.0
C682 C 0.63782 0.58423 0.46618 0.0
C683 C 0.64753 0.56278 0.45063 0.0
C684 C 0.63247 0.53464 0.45142 0.0
C685 C 0.60675 0.52823 0.46829 0.0
C686 C 0.59587 0.54982 0.48411 0.0
C687 C 0.61183 0.57826 0.48295 0.0
H688 H 0.24339 0.37594 0.12252 0.0
H689 H 0.24709 0.40108 0.21364 0.0
H690 H 0.20226 0.4205 0.20825 0.0
H691 H 0.21031 0.43515 0.09472 0.0
H692 H 0.18739 0.41219 0.06986 0.0
H693 H 0.22233 0.40422 0.07946 0.0
H694 H 0.1973 0.35355 0.09613 0.0
H695 H 0.1623 0.36142 0.08683 0.0
H696 H 0.16847 0.34985 0.12316 0.0
H697 H 0.15461 0.43292 0.19479 0.0
H698 H 0.10791 0.43871 0.17345 0.0
H699 H 0.133 0.40229 0.09225 0.0
C700 C 0.23505 0.38579 0.14132 0.0
C701 C 0.24923 0.38711 0.16845 0.0
C702 C 0.23737 0.40038 0.19236 0.0
C703 C 0.21164 0.4113 0.18964 0.0
C704 C 0.19781 0.40872 0.16292 0.0
C705 C 0.20912 0.39642 0.13912 0.0
C706 C 0.18873 0.39427 0.11354 0.0
C707 C 0.20305 0.41255 0.08788 0.0
C708 C 0.17861 0.36291 0.10439 0.0
C709 C 0.16395 0.40671 0.12694 0.0
C710 C 0.16977 0.41516 0.15534 0.0
C711 C 0.14982 0.4265 0.17252 0.0
C712 C 0.12322 0.42939 0.1603 0.0
C713 C 0.11666 0.42077 0.13124 0.0
C714 C 0.13745 0.40935 0.11441 0.0
H715 H 0.57538 0.21152 0.8885 0.0
H716 H 0.6517 0.24089 0.94066 0.0
H717 H 0.63815 0.19913 0.97277 0.0
H718 H 0.52687 0.1826 0.94908 0.0
H719 H 0.50882 0.15195 0.92907 0.0
H720 H 0.52379 0.18458 0.91011 0.0
H721 H 0.55425 0.15673 0.87703 0.0
H722 H 0.53947 0.12405 0.896 0.0
H723 H 0.57835 0.13584 0.89334 0.0
H724 H 0.61697 0.15455 0.99985 0.0
H725 H 0.58958 0.10963 1.02009 0.0
H726 H 0.52657 0.10596 0.95103 0.0
C727 C 0.58909 0.20922 0.9068 0.0
C728 C 0.61489 0.22974 0.91173 0.0
C729 C 0.63217 0.22557 0.93595 0.0
C730 C 0.62456 0.20185 0.9545 0.0
C731 C 0.59947 0.18192 0.94884 0.0
C732 C 0.58191 0.1852 0.92562 0.0
C733 C 0.55636 0.16 0.92454 0.0
C734 C 0.52723 0.17041 0.92843 0.0
C735 C 0.55716 0.14316 0.89603 0.0
C736 C 0.5624 0.14222 0.9507 0.0
C737 C 0.58738 0.15554 0.96437 0.0
C738 C 0.59742 0.14393 0.98924 0.0
C739 C 0.58158 0.11823 1.00064 0.0
C740 C 0.55582 0.1038 0.98729 0.0
C741 C 0.54629 0.11608 0.96171 0.0
H742 H 0.95379 0.83543 0.39913 0.0
H743 H 0.86687 0.81717 0.4376 0.0
H744 H 0.87841 0.86033 0.46786 0.0
H745 H 0.99074 0.8621 0.46579 0.0
H746 H 0.01641 0.88958 0.44759 0.0
H747 H 1.00151 0.85717 0.42855 0.0
H748 H 0.98362 0.88703 0.38787 0.0
H749 H 0.99837 0.91952 0.40686 0.0
H750 H 0.96046 0.91228 0.39725 0.0
H751 H 0.89887 0.90602 0.49423 0.0
H752 H 0.9273 0.94998 0.51532 0.0
H753 H 1.00165 0.93933 0.4612 0.0
C754 C 0.93722 0.84037 0.41403 0.0
C755 C 0.90912 0.82273 0.41537 0.0
C756 C 0.88826 0.83037 0.43531 0.0
C757 C 0.89467 0.85489 0.45289 0.0
C758 C 0.92225 0.87191 0.45072 0.0
C759 C 0.94329 0.86497 0.43192 0.0
C760 C 0.97126 0.88709 0.43406 0.0
C761 C 0.99647 0.87315 0.44463 0.0
C762 C 0.97887 0.90238 0.40477 0.0
C763 C 0.96257 0.90744 0.4569 0.0
C764 C 0.93416 0.89824 0.46618 0.0
C765 C 0.92115 0.91341 0.4871 0.0
C766 C 0.93753 0.93851 0.49896 0.0
C767 C 0.96682 0.94851 0.49003 0.0
C768 C 0.97934 0.93254 0.46859 0.0
H769 H 0.32993 0.71547 0.67288 0.0
H770 H 0.27549 0.70852 0.59651 0.0
H771 H 0.31268 0.68804 0.56888 0.0
H772 H 0.39843 0.73679 0.6349 0.0
H773 H 0.41784 0.71681 0.6585 0.0
H774 H 0.38676 0.73052 0.67227 0.0
H775 H 0.36229 0.6795 0.68848 0.0
H776 H 0.39334 0.66565 0.6749 0.0
H777 H 0.3574 0.65086 0.66221 0.0
H778 H 0.35582 0.66812 0.54983 0.0
H779 H 0.40125 0.64941 0.54098 0.0
H780 H 0.42776 0.6709 0.62956 0.0
C781 C 0.32589 0.70994 0.65026 0.0
C782 C 0.2998 0.71369 0.63683 0.0
C783 C 0.29516 0.70556 0.60734 0.0
C784 C 0.31624 0.69412 0.59143 0.0
C785 C 0.34182 0.69103 0.60531 0.0
C786 C 0.34669 0.69867 0.63407 0.0
C787 C 0.37586 0.69301 0.64403 0.0
C788 C 0.3959 0.72095 0.65294 0.0
C789 C 0.37198 0.67094 0.66887 0.0
C790 C 0.38669 0.68089 0.61637 0.0
C791 C 0.36675 0.67991 0.59428 0.0
C792 C 0.37161 0.66886 0.56693 0.0
C793 C 0.3974 0.65823 0.56214 0.0
C794 C 0.41798 0.65882 0.58458 0.0
C795 C 0.41261 0.6706 0.6119 0.0
H796 H 0.79387 0.82696 0.72397 0.0
H797 H 0.71468 0.85687 0.70179 0.0
H798 H 0.74132 0.88705 0.66277 0.0
H799 H 0.83831 0.89187 0.71922 0.0
H800 H 0.86982 0.87963 0.70431 0.0
H801 H 0.84364 0.85584 0.72593 0.0
H802 H 0.83669 0.81895 0.68386 0.0
H803 H 0.86311 0.84259 0.66209 0.0
H804 H 0.82717 0.82981 0.64826 0.0
H805 H 0.7775 0.91898 0.63186 0.0
H806 H 0.82073 0.9509 0.61144 0.0
H807 H 0.8769 0.90126 0.65455 0.0
C808 C 0.78197 0.83898 0.71004 0.0
C809 C 0.75221 0.83933 0.71539 0.0
C810 C 0.73745 0.85618 0.69767 0.0
C811 C 0.75238 0.87325 0.67546 0.0
C812 C 0.78201 0.8732 0.67132 0.0
C813 C 0.79666 0.85639 0.68802 0.0
C814 C 0.82914 0.86301 0.68179 0.0
C815 C 0.84621 0.8732 0.70945 0.0
C816 C 0.83964 0.83704 0.66818 0.0
C817 C 0.83062 0.887 0.65991 0.0
C818 C 0.80314 0.89217 0.65377 0.0
C819 C 0.79908 0.91482 0.63609 0.0
C820 C 0.82374 0.93294 0.62477 0.0
C821 C 0.85209 0.92845 0.63137 0.0
C822 C 0.85547 0.9048 0.64865 0.0
H823 H 0.7567 0.16519 0.23899 0.0
H824 H 0.78949 0.23564 0.18065 0.0
H825 H 0.75901 0.21089 0.1412 0.0
H826 H 0.75164 0.10745 0.18517 0.0
H827 H 0.71853 0.08807 0.20144 0.0
H828 H 0.74504 0.11019 0.22374 0.0
H829 H 0.70542 0.13802 0.24221 0.0
H830 H 0.67885 0.11603 0.22005 0.0
H831 H 0.68502 0.15439 0.21621 0.0
H832 H 0.72231 0.17911 0.10922 0.0
H833 H 0.68172 0.14456 0.0884 0.0
H834 H 0.67322 0.0965 0.16923 0.0
C835 C 0.75815 0.17512 0.2177 0.0
C836 C 0.77577 0.20212 0.2127 0.0
C837 C 0.77617 0.21489 0.18485 0.0
C838 C 0.75909 0.20092 0.16233 0.0
C839 C 0.7418 0.1743 0.16814 0.0
C840 C 0.74127 0.16161 0.19521 0.0
C841 C 0.71939 0.13404 0.19681 0.0
C842 C 0.73457 0.10843 0.20209 0.0
C843 C 0.69578 0.13575 0.22019 0.0
C844 C 0.7072 0.13333 0.16654 0.0
C845 C 0.72055 0.15649 0.15013 0.0
C846 C 0.71186 0.16082 0.12185 0.0
C847 C 0.68868 0.14118 0.11028 0.0
C848 C 0.67431 0.11767 0.1271 0.0
C849 C 0.68411 0.11372 0.15544 0.0
H850 H 0.43646 0.59299 0.32178 0.0
H851 H 0.39562 0.6563 0.36651 0.0
H852 H 0.4101 0.63918 0.41352 0.0
H853 H 0.4171 0.5362 0.37632 0.0
H854 H 0.45117 0.52359 0.37319 0.0
H855 H 0.43741 0.54017 0.34243 0.0
H856 H 0.48549 0.57689 0.3388 0.0
H857 H 0.4994 0.56039 0.36952 0.0
H858 H 0.49818 0.59807 0.37022 0.0
H859 H 0.42871 0.61588 0.4563 0.0
H860 H 0.45144 0.58907 0.49202 0.0
H861 H 0.48202 0.53961 0.42226 0.0
C862 C 0.43042 0.60317 0.34147 0.0
C863 C 0.41492 0.62646 0.3399 0.0
C864 C 0.40781 0.63898 0.36653 0.0
C865 C 0.41581 0.6292 0.3936 0.0
C866 C 0.43116 0.60662 0.39435 0.0
C867 C 0.43855 0.59371 0.36905 0.0
C868 C 0.45575 0.57013 0.37649 0.0
C869 C 0.43938 0.54078 0.36651 0.0
C870 C 0.48653 0.57677 0.36295 0.0
C871 C 0.45682 0.57188 0.4098 0.0
C872 C 0.44228 0.59311 0.4194 0.0
C873 C 0.44014 0.59924 0.44895 0.0
C874 C 0.45327 0.58368 0.46924 0.0
C875 C 0.46878 0.56186 0.4605 0.0
C876 C 0.47032 0.55588 0.43005 0.0
H877 H 0.10387 0.45026 0.83132 0.0
H878 H 0.12162 0.37295 0.87212 0.0
H879 H 0.10259 0.38784 0.91856 0.0
H880 H 0.12573 0.49668 0.89388 0.0
H881 H 0.09803 0.51805 0.88869 0.0
H882 H 0.11245 0.5013 0.85789 0.0
H883 H 0.06034 0.47645 0.84449 0.0
H884 H 0.04578 0.49309 0.87526 0.0
H885 H 0.03795 0.45474 0.87129 0.0
H886 H 0.08001 0.4098 0.96091 0.0
H887 H 0.05809 0.43873 0.9966 0.0
H888 H 0.05762 0.50424 0.93112 0.0
C889 C 0.10406 0.43647 0.84997 0.0
C890 C 0.11394 0.40986 0.84723 0.0
C891 C 0.11345 0.39283 0.8727 0.0
C892 C 0.10288 0.40129 0.89955 0.0
C893 C 0.09307 0.42723 0.9013 0.0
C894 C 0.09381 0.44479 0.87731 0.0
C895 C 0.08227 0.47189 0.88557 0.0
C896 C 0.10604 0.49856 0.88125 0.0
C897 C 0.05496 0.47417 0.86811 0.0
C898 C 0.0748 0.46664 0.91781 0.0
C899 C 0.08108 0.44059 0.92626 0.0
C900 C 0.07524 0.43034 0.95455 0.0
C901 C 0.06265 0.44697 0.97474 0.0
C902 C 0.05616 0.47396 0.96699 0.0
C903 C 0.06259 0.48393 0.938 0.0
H904 H 0.5833 0.86016 0.92904 0.0
H905 H 0.6739 0.89715 0.94441 0.0
H906 H 0.65884 0.93933 0.96679 0.0
H907 H 0.56069 0.92652 0.91026 0.0
H908 H 0.52556 0.9173 0.92802 0.0
H909 H 0.54324 0.88955 0.91341 0.0
H910 H 0.53941 0.86485 0.96388 0.0
H911 H 0.52164 0.89247 0.97861 0.0
H912 H 0.55414 0.88497 0.99526 0.0
H913 H 0.63448 0.97734 0.98756 0.0
H914 H 0.60191 1.0089 1.00611 0.0
H915 H 0.52698 0.9482 0.97646 0.0
C916 C 0.59995 0.87718 0.93703 0.0
C917 C 0.62977 0.87514 0.93527 0.0
C918 C 0.65088 0.89786 0.9461 0.0
C919 C 0.64259 0.92206 0.95863 0.0
C920 C 0.61309 0.92337 0.96007 0.0
C921 C 0.59206 0.90159 0.94961 0.0
C922 C 0.56183 0.90847 0.95402 0.0
C923 C 0.54696 0.91059 0.92468 0.0
C924 C 0.54316 0.88638 0.97415 0.0
C925 C 0.56926 0.93745 0.96862 0.0
C926 C 0.59897 0.9456 0.97185 0.0
C927 C 0.61116 0.97127 0.98511 0.0
C928 C 0.59246 0.98904 0.99558 0.0
C929 C 0.5619 0.98108 0.99269 0.0
C930 C 0.55025 0.955 0.97883 0.0
H931 H 0.93928 0.16752 0.3955 0.0
H932 H 0.91943 0.21798 0.4696 0.0
H933 H 0.94285 0.18811 0.50202 0.0
H934 H 0.9218 0.10137 0.43003 0.0
H935 H 0.95023 0.08583 0.41287 0.0
H936 H 0.93588 0.11359 0.39462 0.0
H937 H 0.98777 0.14395 0.39002 0.0
H938 H 1.00236 0.11615 0.40809 0.0
H939 H 1.00934 0.15213 0.42218 0.0
H940 H 0.96302 0.15008 0.527 0.0
H941 H 0.98041 0.10706 0.5432 0.0
H942 H 0.98644 0.07983 0.45331 0.0
C943 C 0.94016 0.17254 0.4185 0.0
C944 C 0.92759 0.19528 0.42993 0.0
C945 C 0.92937 0.20113 0.46016 0.0
C946 C 0.94248 0.18414 0.47882 0.0
C947 C 0.95383 0.16144 0.46693 0.0
C948 C 0.95304 0.1557 0.43746 0.0
C949 C 0.96501 0.12877 0.4306 0.0
C950 C 0.94184 0.10606 0.41619 0.0
C951 C 0.99277 0.13567 0.4116 0.0
C952 C 0.9718 0.1198 0.46096 0.0
C953 C 0.96541 0.13915 0.48149 0.0
C954 C 0.96842 0.13494 0.51112 0.0
C955 C 0.97815 0.11027 0.52009 0.0
C956 C 0.98474 0.08997 0.49952 0.0
C957 C 0.98178 0.09502 0.46952 0.0
H958 H 0.21227 0.64068 0.11752 0.0
H959 H 0.22768 0.56636 0.16526 0.0
H960 H 0.18441 0.53729 0.14305 0.0
H961 H 0.13314 0.62429 0.12435 0.0
H962 H 0.12678 0.6369 0.08849 0.0
H963 H 0.15943 0.65217 0.10747 0.0
H964 H 0.19073 0.63975 0.064 0.0
H965 H 0.15817 0.62438 0.04491 0.0
H966 H 0.18595 0.60335 0.05116 0.0
H967 H 0.14032 0.51557 0.11525 0.0
H968 H 0.09633 0.50289 0.08623 0.0
H969 H 0.1059 0.59087 0.05657 0.0
C970 C 0.20657 0.61826 0.12321 0.0
C971 C 0.22365 0.60594 0.14339 0.0
C972 C 0.21505 0.57654 0.15029 0.0
C973 C 0.1905 0.55974 0.13759 0.0
C974 C 0.1742 0.57247 0.11799 0.0
C975 C 0.18164 0.6011 0.11095 0.0
C976 C 0.15958 0.60936 0.08976 0.0
C977 C 0.1438 0.63203 0.10333 0.0
C978 C 0.1745 0.61983 0.06073 0.0
C979 C 0.13873 0.58087 0.08595 0.0
C980 C 0.14794 0.55995 0.10236 0.0
C981 C 0.13291 0.53184 0.10242 0.0
C982 C 0.10777 0.52483 0.08561 0.0
C983 C 0.09718 0.54571 0.06877 0.0
C984 C 0.11314 0.57427 0.06905 0.0
H985 H 0.314 0.40872 0.61322 0.0
H986 H 0.3074 0.47627 0.67548 0.0
H987 H 0.35158 0.50544 0.65418 0.0
H988 H 0.3927 0.41724 0.61424 0.0
H989 H 0.3965 0.41021 0.57595 0.0
H990 H 0.36369 0.39454 0.59538 0.0
H991 H 0.333 0.41695 0.55853 0.0
H992 H 0.36573 0.43277 0.53903 0.0
H993 H 0.34091 0.45501 0.55224 0.0
H994 H 0.39689 0.52746 0.62714 0.0
H995 H 0.4409 0.54071 0.59663 0.0
H996 H 0.42035 0.45946 0.55119 0.0
C997 C 0.32186 0.42959 0.6225 0.0
C998 C 0.3066 0.44011 0.64605 0.0
C999 C 0.3179 0.46772 0.65717 0.0
C1000 C 0.34326 0.48449 0.6453 0.0
C1001 C 0.35751 0.47359 0.62216 0.0
C1002 C 0.34734 0.44677 0.61084 0.0
C1003 C 0.36728 0.44022 0.58605 0.0
C1004 C 0.38084 0.41399 0.59335 0.0
C1005 C 0.35074 0.43599 0.55725 0.0
C1006 C 0.39028 0.46749 0.58539 0.0
C1007 C 0.38403 0.48637 0.60646 0.0
C1008 C 0.40197 0.51281 0.61059 0.0
C1009 C 0.42709 0.52013 0.59305 0.0
C1010 C 0.43444 0.50122 0.57134 0.0
C1011 C 0.41544 0.47455 0.56738 0.0
H1012 H 0.80584 0.67506 0.90386 0.0
H1013 H 0.83054 0.76041 0.94011 0.0
H1014 H 0.87547 0.74745 0.95877 0.0
H1015 H 0.83497 0.6368 0.96089 0.0
H1016 H 0.84787 0.61218 0.93619 0.0
H1017 H 0.81665 0.62754 0.927 0.0
H1018 H 0.84199 0.64651 0.87853 0.0
H1019 H 0.87333 0.63129 0.88762 0.0
H1020 H 0.87757 0.66886 0.8793 0.0
H1021 H 0.91816 0.7259 0.97277 0.0
H1022 H 0.95632 0.69698 0.98055 0.0
H1023 H 0.90523 0.62644 0.93346 0.0
C1024 C 0.82067 0.69108 0.91566 0.0
C1025 C 0.81432 0.71868 0.92077 0.0
C1026 C 0.83439 0.73888 0.93651 0.0
C1027 C 0.86017 0.73183 0.94701 0.0
C1028 C 0.86577 0.70456 0.94144 0.0
C1029 C 0.84668 0.6845 0.9261 0.0
C1030 C 0.8584 0.65698 0.92241 0.0
C1031 C 0.83827 0.6319 0.93753 0.0
C1032 C 0.8631 0.65055 0.89004 0.0
C1033 C 0.88711 0.66483 0.93796 0.0
C1034 C 0.89083 0.69232 0.94892 0.0
C1035 C 0.91552 0.70433 0.96432 0.0
C1036 C 0.937 0.68775 0.9687 0.0
C1037 C 0.9337 0.65956 0.95756 0.0
C1038 C 0.90844 0.64806 0.94193 0.0
H1039 H 0.45274 0.83769 0.15691 0.0
H1040 H 0.36883 0.81517 0.11546 0.0
H1041 H 0.37838 0.86056 0.08826 0.0
H1042 H 0.45291 0.91473 0.16298 0.0
H1043 H 0.49122 0.92505 0.1546 0.0
H1044 H 0.47769 0.89117 0.17192 0.0
H1045 H 0.5006 0.86508 0.13061 0.0
H1046 H 0.51417 0.89888 0.11317 0.0
H1047 H 0.49147 0.87075 0.09336 0.0
H1048 H 0.39683 0.90825 0.06452 0.0
H1049 H 0.42328 0.95418 0.04536 0.0
H1050 H 0.4964 0.9473 0.10049 0.0
C1051 C 0.43628 0.84246 0.14232 0.0
C1052 C 0.40994 0.82245 0.13843 0.0
C1053 C 0.38925 0.82968 0.11877 0.0
C1054 C 0.39444 0.85561 0.10322 0.0
C1055 C 0.4206 0.87458 0.10719 0.0
C1056 C 0.44128 0.86841 0.1262 0.0
C1057 C 0.46795 0.89243 0.12552 0.0
C1058 C 0.47272 0.90669 0.15555 0.0
C1059 C 0.49516 0.8811 0.11504 0.0
C1060 C 0.45897 0.91291 0.10326 0.0
C1061 C 0.43146 0.90214 0.09313 0.0
C1062 C 0.41837 0.91687 0.07239 0.0
C1063 C 0.43367 0.94315 0.0616 0.0
C1064 C 0.46208 0.95485 0.07127 0.0
C1065 C 0.47474 0.93928 0.09256 0.0
H1066 H 0.08358 0.20318 0.66695 0.0
H1067 H 0.1618 0.22965 0.61426 0.0
H1068 H 0.14949 0.18605 0.5848 0.0
H1069 H 0.08565 0.12723 0.6666 0.0
H1070 H 0.04681 0.11592 0.66367 0.0
H1071 H 0.06132 0.14933 0.68118 0.0
H1072 H 0.03293 0.17614 0.64593 0.0
H1073 H 0.01821 0.14278 0.62844 0.0
H1074 H 0.03764 0.17218 0.60721 0.0
H1075 H 0.12923 0.14014 0.5603 0.0
H1076 H 0.10163 0.09488 0.54161 0.0
H1077 H 0.03569 0.0959 0.6091 0.0
C1078 C 0.09804 0.19986 0.64914 0.0
C1079 C 0.12403 0.22 0.6434 0.0
C1080 C 0.1422 0.21454 0.61977 0.0
C1081 C 0.13529 0.18979 0.60269 0.0
C1082 C 0.10996 0.17029 0.60916 0.0
C1083 C 0.09148 0.17494 0.63172 0.0
C1084 C 0.06553 0.15026 0.63364 0.0
C1085 C 0.06479 0.13477 0.66303 0.0
C1086 C 0.03688 0.16099 0.62849 0.0
C1087 C 0.07241 0.13117 0.60867 0.0
C1088 C 0.09819 0.14334 0.59492 0.0
C1089 C 0.10905 0.13039 0.57095 0.0
C1090 C 0.09312 0.10455 0.56046 0.0
C1091 C 0.06644 0.09145 0.57383 0.0
C1092 C 0.05616 0.10499 0.59855 0.0
H1093 H 0.72371 0.36285 0.40664 0.0
H1094 H 0.7009 0.27841 0.44563 0.0
H1095 H 0.65713 0.29204 0.4679 0.0
H1096 H 0.69711 0.40288 0.46522 0.0
H1097 H 0.68307 0.42662 0.44092 0.0
H1098 H 0.71399 0.41109 0.42997 0.0
H1099 H 0.68681 0.39047 0.38366 0.0
H1100 H 0.65582 0.40589 0.39449 0.0
H1101 H 0.65138 0.36807 0.38729 0.0
H1102 H 0.61472 0.3142 0.48465 0.0
H1103 H 0.5762 0.34291 0.49322 0.0
H1104 H 0.62534 0.41176 0.44127 0.0
C1105 C 0.70957 0.34713 0.4198 0.0
C1106 C 0.71612 0.31959 0.4245 0.0
C1107 C 0.69695 0.29989 0.44218 0.0
C1108 C 0.67183 0.30734 0.45479 0.0
C1109 C 0.66596 0.33451 0.44943 0.0
C1110 C 0.68422 0.35408 0.43228 0.0
C1111 C 0.67223 0.3814 0.4288 0.0
C1112 C 0.69283 0.40701 0.44202 0.0
C1113 C 0.6662 0.38676 0.39665 0.0
C1114 C 0.64421 0.374 0.44641 0.0
C1115 C 0.64113 0.34698 0.45838 0.0
C1116 C 0.61693 0.33542 0.47545 0.0
C1117 C 0.59523 0.3519 0.48028 0.0
C1118 C 0.59777 0.37948 0.46785 0.0
C1119 C 0.62268 0.39061 0.45081 0.0
loop_
_geom_bond_atom_site_label_1
_geom_bond_atom_site_label_2
_geom_bond_distance
_geom_bond_site_symmetry_2
_ccdc_geom_bond_type
C0 C1 1.386 . S
C0 C2 1.397 . S
C0 H24 0.931 . S
C1 C0 1.386 . S
C1 C5 1.397 . S
C2 C0 1.397 . S
C2 C3 1.384 . S
C2 H25 0.930 . S
C3 C2 1.384 . S
C3 C4 1.377 . S
C3 C6 1.481 . S
C4 C3 1.377 . S
C4 C5 1.389 . S
C4 H26 0.929 . S
C5 C1 1.397 . S
C5 C4 1.389 . S
C5 H27 0.931 . S
C6 C3 1.481 . S
C6 C7 1.387 . S
C6 C11 1.390 . S
C7 C6 1.387 . S
C7 C8 1.401 . S
C7 H28 0.930 . S
C8 C7 1.401 . S
C8 C9 1.376 . S
C8 C17 1.511 . S
C9 C8 1.376 . S
C9 C10 1.392 . S
C9 H30 0.931 . S
C10 C9 1.392 . S
C10 C11 1.361 . S
C10 C12 1.500 . S
C11 C6 1.390 . S
C11 C10 1.361 . S
C11 H29 0.931 . S
C12 C10 1.500 . S
C12 C13 1.371 . S
C12 C14 1.365 . S
C13 C12 1.371 . S
C13 C23 1.386 . S
C13 H31 0.931 . S
C14 C12 1.365 . S
C14 C15 1.409 . S
C14 H32 0.929 . S
C15 C14 1.409 . S
C15 C16 1.380 . S
C15 H33 0.930 . S
C16 C15 1.380 . S
C16 C23 1.357 . S
C17 C8 1.511 . S
C17 C18 1.341 . S
C17 C19 1.371 . S
C18 C17 1.341 . S
C18 C22 1.394 . S
C18 H34 0.930 . S
C19 C17 1.371 . S
C19 C20 1.392 . S
C19 H35 0.931 . S
C20 C19 1.392 . S
C20 C21 1.331 . S
C20 H38 0.932 . S
C21 C20 1.331 . S
C21 C22 1.336 . S
C22 C18 1.394 . S
C22 C21 1.336 . S
C22 H37 0.929 . S
C23 C13 1.386 . S
C23 C16 1.357 . S
C23 H36 0.928 . S
H24 C0 0.931 . S
H25 C2 0.930 . S
H26 C4 0.929 . S
H27 C5 0.931 . S
H28 C7 0.930 . S
H29 C11 0.931 . S
H30 C9 0.931 . S
H31 C13 0.931 . S
H32 C14 0.929 . S
H33 C15 0.930 . S
H34 C18 0.930 . S
H35 C19 0.931 . S
H36 C23 0.928 . S
H37 C22 0.929 . S
H38 C20 0.932 . S
C39 C40 1.386 . S
C39 C41 1.397 . S
C39 H63 0.931 . S
C40 C39 1.386 . S
C40 C44 1.397 . S
C41 C39 1.397 . S
C41 C42 1.384 . S
C41 H64 0.930 . S
C42 C41 1.384 . S
C42 C43 1.377 . S
C42 C45 1.481 . S
C43 C42 1.377 . S
C43 C44 1.389 . S
C43 H65 0.929 . S
C44 C40 1.397 . S
C44 C43 1.389 . S
C44 H66 0.931 . S
C45 C42 1.481 . S
C45 C46 1.387 . S
C45 C50 1.390 . S
C46 C45 1.387 . S
C46 C47 1.401 . S
C46 H67 0.930 . S
C47 C46 1.401 . S
C47 C48 1.376 . S
C47 C56 1.511 . S
C48 C47 1.376 . S
C48 C49 1.392 . S
C48 H69 0.931 . S
C49 C48 1.392 . S
C49 C50 1.361 . S
C49 C51 1.500 . S
C50 C45 1.390 . S
C50 C49 1.361 . S
C50 H68 0.931 . S
C51 C49 1.500 . S
C51 C52 1.371 . S
C51 C53 1.365 . S
C52 C51 1.371 . S
C52 C62 1.386 . S
C52 H70 0.931 . S
C53 C51 1.365 . S
C53 C54 1.409 . S
C53 H71 0.929 . S
C54 C53 1.409 . S
C54 C55 1.380 . S
C54 H72 0.930 . S
C55 C54 1.380 . S
C55 C62 1.357 . S
C56 C47 1.511 . S
C56 C57 1.341 . S
C56 C58 1.371 . S
C57 C56 1.341 . S
C57 C61 1.394 . S
C57 H73 0.930 . S
C58 C56 1.371 . S
C58 C59 1.392 . S
C58 H74 0.931 . S
C59 C58 1.392 . S
C59 C60 1.331 . S
C59 H77 0.932 . S
C60 C59 1.331 . S
C60 C61 1.336 . S
C61 C57 1.394 . S
C61 C60 1.336 . S
C61 H76 0.929 . S
C62 C52 1.386 . S
C62 C55 1.357 . S
C62 H75 0.928 . S
H63 C39 0.931 . S
H64 C41 0.930 . S
H65 C43 0.929 . S
H66 C44 0.931 . S
H67 C46 0.930 . S
H68 C50 0.931 . S
H69 C48 0.931 . S
H70 C52 0.931 . S
H71 C53 0.929 . S
H72 C54 0.930 . S
H73 C57 0.930 . S
H74 C58 0.931 . S
H75 C62 0.928 . S
H76 C61 0.929 . S
H77 C59 0.932 . S
C78 C79 1.386 . S
C78 C80 1.397 . S
C78 H102 0.931 . S
C79 C78 1.386 . S
C79 C83 1.397 . S
C80 C78 1.397 . S
C80 C81 1.384 . S
C80 H103 0.930 . S
C81 C80 1.384 . S
C81 C82 1.377 . S
C81 C84 1.481 . S
C82 C81 1.377 . S
C82 C83 1.389 . S
C82 H104 0.929 . S
C83 C79 1.397 . S
C83 C82 1.389 . S
C83 H105 0.931 . S
C84 C81 1.481 . S
C84 C85 1.387 . S
C84 C89 1.390 . S
C85 C84 1.387 . S
C85 C86 1.401 . S
C85 H106 0.930 . S
C86 C85 1.401 . S
C86 C87 1.376 . S
C86 C95 1.511 . S
C87 C86 1.376 . S
C87 C88 1.392 . S
C87 H108 0.931 . S
C88 C87 1.392 . S
C88 C89 1.361 . S
C88 C90 1.500 . S
C89 C84 1.390 . S
C89 C88 1.361 . S
C89 H107 0.931 . S
C90 C88 1.500 . S
C90 C91 1.371 . S
C90 C92 1.365 . S
C91 C90 1.371 . S
C91 C101 1.386 . S
C91 H109 0.931 . S
C92 C90 1.365 . S
C92 C93 1.409 . S
C92 H110 0.929 . S
C93 C92 1.409 . S
C93 C94 1.380 . S
C93 H111 0.930 . S
C94 C93 1.380 . S
C94 C101 1.357 . S
C95 C86 1.511 . S
C95 C96 1.341 . S
C95 C97 1.371 . S
C96 C95 1.341 . S
C96 C100 1.394 . S
C96 H112 0.930 . S
C97 C95 1.371 . S
C97 C98 1.392 . S
C97 H113 0.931 . S
C98 C97 1.392 . S
C98 C99 1.331 . S
C98 H116 0.932 . S
C99 C98 1.331 . S
C99 C100 1.336 . S
C100 C96 1.394 . S
C100 C99 1.336 . S
C100 H115 0.929 . S
C101 C91 1.386 . S
C101 C94 1.357 . S
C101 H114 0.928 . S
H102 C78 0.931 . S
H103 C80 0.930 . S
H104 C82 0.929 . S
H105 C83 0.931 . S
H106 C85 0.930 . S
H107 C89 0.931 . S
H108 C87 0.931 . S
H109 C91 0.931 . S
H110 C92 0.929 . S
H111 C93 0.930 . S
H112 C96 0.930 . S
H113 C97 0.931 . S
H114 C101 0.928 . S
H115 C100 0.929 . S
H116 C98 0.932 . S
C117 C118 1.386 . S
C117 C119 1.397 . S
C117 H141 0.931 . S
C118 C117 1.386 . S
C118 C122 1.397 . S
C119 C117 1.397 . S
C119 C120 1.384 . S
C119 H142 0.930 . S
C120 C119 1.384 . S
C120 C121 1.377 . S
C120 C123 1.481 . S
C121 C120 1.377 . S
C121 C122 1.389 . S
C121 H143 0.929 . S
C122 C118 1.397 . S
C122 C121 1.389 . S
C122 H144 0.931 . S
C123 C120 1.481 . S
C123 C124 1.387 . S
C123 C128 1.390 . S
C124 C123 1.387 . S
C124 C125 1.401 . S
C124 H145 0.930 . S
C125 C124 1.401 . S
C125 C126 1.376 . S
C125 C134 1.511 . S
C126 C125 1.376 . S
C126 C127 1.392 . S
C126 H147 0.931 . S
C127 C126 1.392 . S
C127 C128 1.361 . S
C127 C129 1.500 . S
C128 C123 1.390 . S
C128 C127 1.361 . S
C128 H146 0.931 . S
C129 C127 1.500 . S
C129 C130 1.371 . S
C129 C131 1.365 . S
C130 C129 1.371 . S
C130 C140 1.386 . S
C130 H148 0.931 . S
C131 C129 1.365 . S
C131 C132 1.409 . S
C131 H149 0.929 . S
C132 C131 1.409 . S
C132 C133 1.380 . S
C132 H150 0.930 . S
C133 C132 1.380 . S
C133 C140 1.357 . S
C134 C125 1.511 . S
C134 C135 1.341 . S
C134 C136 1.371 . S
C135 C134 1.341 . S
C135 C139 1.394 . S
C135 H151 0.930 . S
C136 C134 1.371 . S
C136 C137 1.392 . S
C136 H152 0.931 . S
C137 C136 1.392 . S
C137 C138 1.331 . S
C137 H155 0.932 . S
C138 C137 1.331 . S
C138 C139 1.336 . S
C139 C135 1.394 . S
C139 C138 1.336 . S
C139 H154 0.929 . S
C140 C130 1.386 . S
C140 C133 1.357 . S
C140 H153 0.928 . S
H141 C117 0.931 . S
H142 C119 0.930 . S
H143 C121 0.929 . S
H144 C122 0.931 . S
H145 C124 0.930 . S
H146 C128 0.931 . S
H147 C126 0.931 . S
H148 C130 0.931 . S
H149 C131 0.929 . S
H150 C132 0.930 . S
H151 C135 0.930 . S
H152 C136 0.931 . S
H153 C140 0.928 . S
H154 C139 0.929 . S
H155 C137 0.932 . S
C156 C157 1.386 . S
C156 C158 1.397 . S
C156 H180 0.931 . S
C157 C156 1.386 . S
C157 C161 1.397 . S
C158 C156 1.397 . S
C158 C159 1.384 . S
C158 H181 0.930 . S
C159 C158 1.384 . S
C159 C160 1.377 . S
C159 C162 1.481 . S
C160 C159 1.377 . S
C160 C161 1.389 . S
C160 H182 0.929 . S
C161 C157 1.397 . S
C161 C160 1.389 . S
C161 H183 0.931 . S
C162 C159 1.481 . S
C162 C163 1.387 . S
C162 C167 1.390 . S
C163 C162 1.387 . S
C163 C164 1.401 . S
C163 H184 0.930 . S
C164 C163 1.401 . S
C164 C165 1.376 . S
C164 C173 1.511 . S
C165 C164 1.376 . S
C165 C166 1.392 . S
C165 H186 0.931 . S
C166 C165 1.392 . S
C166 C167 1.361 . S
C166 C168 1.500 . S
C167 C162 1.390 . S
C167 C166 1.361 . S
C167 H185 0.931 . S
C168 C166 1.500 . S
C168 C169 1.371 . S
C168 C170 1.365 . S
C169 C168 1.371 . S
C169 C179 1.386 . S
C169 H187 0.931 . S
C170 C168 1.365 . S
C170 C171 1.409 . S
C170 H188 0.929 . S
C171 C170 1.409 . S
C171 C172 1.380 . S
C171 H189 0.930 . S
C172 C171 1.380 . S
C172 C179 1.357 . S
C173 C164 1.511 . S
C173 C174 1.341 . S
C173 C175 1.371 . S
C174 C173 1.341 . S
C174 C178 1.394 . S
C174 H190 0.930 . S
C175 C173 1.371 . S
C175 C176 1.392 . S
C175 H191 0.931 . S
C176 C175 1.392 . S
C176 C177 1.331 . S
C176 H194 0.932 . S
C177 C176 1.331 . S
C177 C178 1.336 . S
C178 C174 1.394 . S
C178 C177 1.336 . S
C178 H193 0.929 . S
C179 C169 1.386 . S
C179 C172 1.357 . S
C179 H192 0.928 . S
H180 C156 0.931 . S
H181 C158 0.930 . S
H182 C160 0.929 . S
H183 C161 0.931 . S
H184 C163 0.930 . S
H185 C167 0.931 . S
H186 C165 0.931 . S
H187 C169 0.931 . S
H188 C170 0.929 . S
H189 C171 0.930 . S
H190 C174 0.930 . S
H191 C175 0.931 . S
H192 C179 0.928 . S
H193 C178 0.929 . S
H194 C176 0.932 . S
C195 C196 1.386 . S
C195 C197 1.397 . S
C195 H219 0.931 . S
C196 C195 1.386 . S
C196 C200 1.397 . S
C197 C195 1.397 . S
C197 C198 1.384 . S
C197 H220 0.930 . S
C198 C197 1.384 . S
C198 C199 1.377 . S
C198 C201 1.481 . S
C199 C198 1.377 . S
C199 C200 1.389 . S
C199 H221 0.929 . S
C200 C196 1.397 . S
C200 C199 1.389 . S
C200 H222 0.931 . S
C201 C198 1.481 . S
C201 C202 1.387 . S
C201 C206 1.390 . S
C202 C201 1.387 . S
C202 C203 1.401 . S
C202 H223 0.930 . S
C203 C202 1.401 . S
C203 C204 1.376 . S
C203 C212 1.511 . S
C204 C203 1.376 . S
C204 C205 1.392 . S
C204 H225 0.931 . S
C205 C204 1.392 . S
C205 C206 1.361 . S
C205 C207 1.500 . S
C206 C201 1.390 . S
C206 C205 1.361 . S
C206 H224 0.931 . S
C207 C205 1.500 . S
C207 C208 1.371 . S
C207 C209 1.365 . S
C208 C207 1.371 . S
C208 C218 1.386 . S
C208 H226 0.931 . S
C209 C207 1.365 . S
C209 C210 1.409 . S
C209 H227 0.929 . S
C210 C209 1.409 . S
C210 C211 1.380 . S
C210 H228 0.930 . S
C211 C210 1.380 . S
C211 C218 1.357 . S
C212 C203 1.511 . S
C212 C213 1.341 . S
C212 C214 1.371 . S
C213 C212 1.341 . S
C213 C217 1.394 . S
C213 H229 0.930 . S
C214 C212 1.371 . S
C214 C215 1.392 . S
C214 H230 0.931 . S
C215 C214 1.392 . S
C215 C216 1.331 . S
C215 H233 0.932 . S
C216 C215 1.331 . S
C216 C217 1.336 . S
C217 C213 1.394 . S
C217 C216 1.336 . S
C217 H232 0.929 . S
C218 C208 1.386 . S
C218 C211 1.357 . S
C218 H231 0.928 . S
H219 C195 0.931 . S
H220 C197 0.930 . S
H221 C199 0.929 . S
H222 C200 0.931 . S
H223 C202 0.930 . S
H224 C206 0.931 . S
H225 C204 0.931 . S
H226 C208 0.931 . S
H227 C209 0.929 . S
H228 C210 0.930 . S
H229 C213 0.930 . S
H230 C214 0.931 . S
H231 C218 0.928 . S
H232 C217 0.929 . S
H233 C215 0.932 . S
C234 C235 1.386 . S
C234 C236 1.397 . S
C234 H258 0.931 . S
C235 C234 1.386 . S
C235 C239 1.397 . S
C236 C234 1.397 . S
C236 C237 1.384 . S
C236 H259 0.930 . S
C237 C236 1.384 . S
C237 C238 1.377 . S
C237 C240 1.481 . S
C238 C237 1.377 . S
C238 C239 1.389 . S
C238 H260 0.929 . S
C239 C235 1.397 . S
C239 C238 1.389 . S
C239 H261 0.931 . S
C240 C237 1.481 . S
C240 C241 1.387 . S
C240 C245 1.390 . S
C241 C240 1.387 . S
C241 C242 1.401 . S
C241 H262 0.930 . S
C242 C241 1.401 . S
C242 C243 1.376 . S
C242 C251 1.511 . S
C243 C242 1.376 . S
C243 C244 1.392 . S
C243 H264 0.931 . S
C244 C243 1.392 . S
C244 C245 1.361 . S
C244 C246 1.500 . S
C245 C240 1.390 . S
C245 C244 1.361 . S
C245 H263 0.931 . S
C246 C244 1.500 . S
C246 C247 1.371 . S
C246 C248 1.365 . S
C247 C246 1.371 . S
C247 C257 1.386 . S
C247 H265 0.931 . S
C248 C246 1.365 . S
C248 C249 1.409 . S
C248 H266 0.929 . S
C249 C248 1.409 . S
C249 C250 1.380 . S
C249 H267 0.930 . S
C250 C249 1.380 . S
C250 C257 1.357 . S
C251 C242 1.511 . S
C251 C252 1.341 . S
C251 C253 1.371 . S
C252 C251 1.341 . S
C252 C256 1.394 . S
C252 H268 0.930 . S
C253 C251 1.371 . S
C253 C254 1.392 . S
C253 H269 0.931 . S
C254 C253 1.392 . S
C254 C255 1.331 . S
C254 H272 0.932 . S
C255 C254 1.331 . S
C255 C256 1.336 . S
C256 C252 1.394 . S
C256 C255 1.336 . S
C256 H271 0.929 . S
C257 C247 1.386 . S
C257 C250 1.357 . S
C257 H270 0.928 . S
H258 C234 0.931 . S
H259 C236 0.930 . S
H260 C238 0.929 . S
H261 C239 0.931 . S
H262 C241 0.930 . S
H263 C245 0.931 . S
H264 C243 0.931 . S
H265 C247 0.931 . S
H266 C248 0.929 . S
H267 C249 0.930 . S
H268 C252 0.930 . S
H269 C253 0.931 . S
H270 C257 0.928 . S
H271 C256 0.929 . S
H272 C254 0.932 . S
C273 C274 1.386 . S
C273 C275 1.397 . S
C273 H297 0.931 . S
C274 C273 1.386 . S
C274 C278 1.397 . S
C275 C273 1.397 . S
C275 C276 1.384 . S
C275 H298 0.930 . S
C276 C275 1.384 . S
C276 C277 1.377 . S
C276 C279 1.481 . S
C277 C276 1.377 . S
C277 C278 1.389 . S
C277 H299 0.929 . S
C278 C274 1.397 . S
C278 C277 1.389 . S
C278 H300 0.931 . S
C279 C276 1.481 . S
C279 C280 1.387 . S
C279 C284 1.390 . S
C280 C279 1.387 . S
C280 C281 1.401 . S
C280 H301 0.930 . S
C281 C280 1.401 . S
C281 C282 1.376 . S
C281 C290 1.511 . S
C282 C281 1.376 . S
C282 C283 1.392 . S
C282 H303 0.931 . S
C283 C282 1.392 . S
C283 C284 1.361 . S
C283 C285 1.500 . S
C284 C279 1.390 . S
C284 C283 1.361 . S
C284 H302 0.931 . S
C285 C283 1.500 . S
C285 C286 1.371 . S
C285 C287 1.365 . S
C286 C285 1.371 . S
C286 C296 1.386 . S
C286 H304 0.931 . S
C287 C285 1.365 . S
C287 C288 1.409 . S
C287 H305 0.929 . S
C288 C287 1.409 . S
C288 C289 1.380 . S
C288 H306 0.930 . S
C289 C288 1.380 . S
C289 C296 1.357 . S
C290 C281 1.511 . S
C290 C291 1.341 . S
C290 C292 1.371 . S
C291 C290 1.341 . S
C291 C295 1.394 . S
C291 H307 0.930 . S
C292 C290 1.371 . S
C292 C293 1.392 . S
C292 H308 0.931 . S
C293 C292 1.392 . S
C293 C294 1.331 . S
C293 H311 0.932 . S
C294 C293 1.331 . S
C294 C295 1.336 . S
C295 C291 1.394 . S
C295 C294 1.336 . S
C295 H310 0.929 . S
C296 C286 1.386 . S
C296 C289 1.357 . S
C296 H309 0.928 . S
H297 C273 0.931 . S
H298 C275 0.930 . S
H299 C277 0.929 . S
H300 C278 0.931 . S
H301 C280 0.930 . S
H302 C284 0.931 . S
H303 C282 0.931 . S
H304 C286 0.931 . S
H305 C287 0.929 . S
H306 C288 0.930 . S
H307 C291 0.930 . S
H308 C292 0.931 . S
H309 C296 0.928 . S
H310 C295 0.929 . S
H311 C293 0.932 . S
Tb312 C321 2.764 . S
Tb312 O322 2.325 1_455 S
Tb312 O325 2.303 . S
Tb312 O329 2.322 1_545 S
Tb312 O330 2.349 1_545 S
Tb312 O333 2.415 . S
Tb312 O334 2.399 . S
Tb313 O323 2.343 . S
Tb313 O324 2.374 . S
Tb313 O326 2.389 1_545 S
Tb313 O327 2.396 1_545 S
Tb313 O328 2.308 1_645 S
Tb313 O331 2.284 1_545 S
Tb313 C342 2.748 1_545 S
C314 O330 1.261 1_655 S
C314 O331 1.257 . S
C315 C318 1.358 . S
C315 C319 1.332 . S
C315 C321 1.504 . S
C316 C317 1.373 . S
C316 C320 1.308 . S
C317 C316 1.373 . S
C317 C318 1.429 . S
C317 H344 0.932 . S
C318 C315 1.358 . S
C318 C317 1.429 . S
C318 H345 0.930 . S
C319 C315 1.332 . S
C319 C320 1.394 . S
C319 H346 0.932 . S
C320 C316 1.308 . S
C320 C319 1.394 . S
C320 H347 0.929 . S
C321 Tb312 2.764 . S
C321 C315 1.504 . S
C321 O333 1.239 . S
C321 O334 1.263 . S
O322 Tb312 2.325 1_655 S
O322 C332 1.236 . S
O323 Tb313 2.343 . S
O323 C332 1.257 . S
O324 Tb313 2.374 . S
O324 C335 1.261 1_655 S
O325 Tb312 2.303 . S
O325 C335 1.257 . S
O326 Tb313 2.389 1_565 S
O326 C342 1.239 . S
O327 Tb313 2.396 1_565 S
O327 C342 1.263 . S
O328 Tb313 2.308 1_465 S
O328 C343 1.236 . S
O329 Tb312 2.322 1_565 S
O329 C343 1.257 . S
O330 Tb312 2.349 1_565 S
O330 C314 1.261 1_455 S
O331 Tb313 2.284 1_565 S
O331 C314 1.257 . S
C332 O322 1.236 . S
C332 O323 1.257 . S
O333 Tb312 2.415 . S
O333 C321 1.239 . S
O334 Tb312 2.399 . S
O334 C321 1.263 . S
C335 O324 1.261 1_455 S
C335 O325 1.257 . S
C336 C339 1.358 . S
C336 C340 1.332 . S
C336 C342 1.504 . S
C337 C338 1.373 . S
C337 C341 1.308 . S
C338 C337 1.373 . S
C338 C339 1.429 . S
C338 H348 0.932 . S
C339 C336 1.358 . S
C339 C338 1.429 . S
C339 H349 0.930 . S
C340 C336 1.332 . S
C340 C341 1.394 . S
C340 H350 0.932 . S
C341 C337 1.308 . S
C341 C340 1.394 . S
C341 H351 0.929 . S
C342 Tb313 2.748 1_565 S
C342 O326 1.239 . S
C342 O327 1.263 . S
C342 C336 1.504 . S
C343 O328 1.236 . S
C343 O329 1.257 . S
H344 C317 0.932 . S
H345 C318 0.930 . S
H346 C319 0.932 . S
H347 C320 0.929 . S
H348 C338 0.932 . S
H349 C339 0.930 . S
H350 C340 0.932 . S
H351 C341 0.929 . S
Tb352 C361 2.764 . S
Tb352 O362 2.325 1_554 S
Tb352 O365 2.303 . S
Tb352 O369 2.322 1_545 S
Tb352 O370 2.330 1_544 S
Tb352 O373 2.415 . S
Tb352 O374 2.399 . S
Tb353 O363 2.322 1_565 S
Tb353 O364 2.349 1_566 S
Tb353 O366 2.415 . S
Tb353 O367 2.399 . S
Tb353 O368 2.325 1_556 S
Tb353 O371 2.303 . S
Tb353 C382 2.764 . S
C354 O370 1.287 . S
C354 O371 1.257 . S
C355 C358 1.358 . S
C355 C359 1.332 . S
C355 C361 1.504 . S
C356 C357 1.373 . S
C356 C360 1.308 . S
C357 C356 1.373 . S
C357 C358 1.429 . S
C357 H384 0.932 . S
C358 C355 1.358 . S
C358 C357 1.429 . S
C358 H385 0.930 . S
C359 C355 1.332 . S
C359 C360 1.394 . S
C359 H386 0.932 . S
C360 C356 1.308 . S
C360 C359 1.394 . S
C360 H387 0.929 . S
C361 Tb352 2.764 . S
C361 C355 1.504 . S
C361 O373 1.239 . S
C361 O374 1.263 . S
O362 Tb352 2.325 1_556 S
O362 C372 1.236 . S
O363 Tb353 2.322 1_545 S
O363 C372 1.257 . S
O364 Tb353 2.349 1_544 S
O364 C375 1.261 . S
O365 Tb352 2.303 . S
O365 C375 1.257 . S
O366 Tb353 2.415 . S
O366 C382 1.239 . S
O367 Tb353 2.399 . S
O367 C382 1.263 . S
O368 Tb353 2.325 1_554 S
O368 C383 1.236 . S
O369 Tb352 2.322 1_565 S
O369 C383 1.257 . S
O370 Tb352 2.330 1_566 S
O370 C354 1.287 . S
O371 Tb353 2.303 . S
O371 C354 1.257 . S
C372 O362 1.236 . S
C372 O363 1.257 . S
O373 Tb352 2.415 . S
O373 C361 1.239 . S
O374 Tb352 2.399 . S
O374 C361 1.263 . S
C375 O364 1.261 . S
C375 O365 1.257 . S
C376 C379 1.358 . S
C376 C380 1.332 . S
C376 C382 1.504 . S
C377 C378 1.373 . S
C377 C381 1.308 . S
C378 C377 1.373 . S
C378 C379 1.429 . S
C378 H388 0.932 . S
C379 C376 1.358 . S
C379 C378 1.429 . S
C379 H389 0.930 . S
C380 C376 1.332 . S
C380 C381 1.394 . S
C380 H390 0.932 . S
C381 C377 1.308 . S
C381 C380 1.394 . S
C381 H391 0.929 . S
C382 Tb353 2.764 . S
C382 O366 1.239 . S
C382 O367 1.263 . S
C382 C376 1.504 . S
C383 O368 1.236 . S
C383 O369 1.257 . S
H384 C357 0.932 . S
H385 C358 0.930 . S
H386 C359 0.932 . S
H387 C360 0.929 . S
H388 C378 0.932 . S
H389 C379 0.930 . S
H390 C380 0.932 . S
H391 C381 0.929 . S
Tb392 C401 2.764 . S
Tb392 O402 2.325 . S
Tb392 O405 2.303 . S
Tb392 O409 2.322 . S
Tb392 O410 2.349 . S
Tb392 O413 2.415 . S
Tb392 O414 2.399 . S
Tb393 O403 2.322 . S
Tb393 O404 2.349 . S
Tb393 O406 2.415 . S
Tb393 O407 2.399 . S
Tb393 O408 2.325 . S
Tb393 O411 2.303 . S
Tb393 C422 2.764 . S
C394 O410 1.261 . S
C394 O411 1.257 . S
C395 C398 1.358 . S
C395 C399 1.332 . S
C395 C401 1.504 . S
C396 C397 1.373 . S
C396 C400 1.308 . S
C397 C396 1.373 . S
C397 C398 1.429 . S
C397 H424 0.932 . S
C398 C395 1.358 . S
C398 C397 1.429 . S
C398 H425 0.930 . S
C399 C395 1.332 . S
C399 C400 1.394 . S
C399 H426 0.932 . S
C400 C396 1.308 . S
C400 C399 1.394 . S
C400 H427 0.929 . S
C401 Tb392 2.764 . S
C401 C395 1.504 . S
C401 O413 1.239 . S
C401 O414 1.263 . S
O402 Tb392 2.325 . S
O402 C412 1.236 . S
O403 Tb393 2.322 . S
O403 C412 1.257 . S
O404 Tb393 2.349 . S
O404 C415 1.261 . S
O405 Tb392 2.303 . S
O405 C415 1.257 . S
O406 Tb393 2.415 . S
O406 C422 1.239 . S
O407 Tb393 2.399 . S
O407 C422 1.263 . S
O408 Tb393 2.325 . S
O408 C423 1.236 . S
O409 Tb392 2.322 . S
O409 C423 1.257 . S
O410 Tb392 2.349 . S
O410 C394 1.261 . S
O411 Tb393 2.303 . S
O411 C394 1.257 . S
C412 O402 1.236 . S
C412 O403 1.257 . S
O413 Tb392 2.415 . S
O413 C401 1.239 . S
O414 Tb392 2.399 . S
O414 C401 1.263 . S
C415 O404 1.261 . S
C415 O405 1.257 . S
C416 C419 1.358 . S
C416 C420 1.332 . S
C416 C422 1.504 . S
C417 C418 1.373 . S
C417 C421 1.308 . S
C418 C417 1.373 . S
C418 C419 1.429 . S
C418 H428 0.932 . S
C419 C416 1.358 . S
C419 C418 1.429 . S
C419 H429 0.930 . S
C420 C416 1.332 . S
C420 C421 1.394 . S
C420 H430 0.932 . S
C421 C417 1.308 . S
C421 C420 1.394 . S
C421 H431 0.929 . S
C422 Tb393 2.764 . S
C422 O406 1.239 . S
C422 O407 1.263 . S
C422 C416 1.504 . S
C423 O408 1.236 . S
C423 O409 1.257 . S
H424 C397 0.932 . S
H425 C398 0.930 . S
H426 C399 0.932 . S
H427 C400 0.929 . S
H428 C418 0.932 . S
H429 C419 0.930 . S
H430 C420 0.932 . S
H431 C421 0.929 . S
Tb432 C441 2.764 . S
Tb432 O442 2.325 . S
Tb432 O445 2.303 1_556 S
Tb432 O449 2.323 1_655 S
Tb432 O450 2.349 1_655 S
Tb432 O453 2.415 . S
Tb432 O454 2.399 . S
Tb433 O443 2.322 1_455 S
Tb433 O444 2.349 1_455 S
Tb433 O446 2.415 . S
Tb433 O447 2.399 . S
Tb433 O448 2.325 . S
Tb433 O451 2.303 1_554 S
Tb433 C462 2.764 . S
C434 O450 1.261 . S
C434 O451 1.257 . S
C435 C438 1.358 . S
C435 C439 1.332 . S
C435 C441 1.504 . S
C436 C437 1.373 . S
C436 C440 1.308 . S
C437 C436 1.373 . S
C437 C438 1.429 . S
C437 H464 0.932 . S
C438 C435 1.358 . S
C438 C437 1.429 . S
C438 H465 0.930 . S
C439 C435 1.332 . S
C439 C440 1.394 . S
C439 H466 0.932 . S
C440 C436 1.308 . S
C440 C439 1.394 . S
C440 H467 0.929 . S
C441 Tb432 2.764 . S
C441 C435 1.504 . S
C441 O453 1.239 . S
C441 O454 1.263 . S
O442 Tb432 2.325 . S
O442 C452 1.236 . S
O443 Tb433 2.322 1_655 S
O443 C452 1.257 1_554 S
O444 Tb433 2.349 1_655 S
O444 C455 1.261 . S
O445 Tb432 2.303 1_554 S
O445 C455 1.257 . S
O446 Tb433 2.415 . S
O446 C462 1.239 . S
O447 Tb433 2.399 . S
O447 C462 1.263 . S
O448 Tb433 2.325 . S
O448 C463 1.236 . S
O449 Tb432 2.323 1_455 S
O449 C463 1.256 1_556 S
O450 Tb432 2.349 1_455 S
O450 C434 1.261 . S
O451 Tb433 2.303 1_556 S
O451 C434 1.257 . S
C452 O442 1.236 . S
C452 O443 1.257 1_556 S
O453 Tb432 2.415 . S
O453 C441 1.239 . S
O454 Tb432 2.399 . S
O454 C441 1.263 . S
C455 O444 1.261 . S
C455 O445 1.257 . S
C456 C459 1.358 . S
C456 C460 1.332 . S
C456 C462 1.504 . S
C457 C458 1.373 . S
C457 C461 1.308 . S
C458 C457 1.373 . S
C458 C459 1.429 . S
C458 H468 0.932 . S
C459 C456 1.358 . S
C459 C458 1.429 . S
C459 H469 0.930 . S
C460 C456 1.332 . S
C460 C461 1.394 . S
C460 H470 0.932 . S
C461 C457 1.308 . S
C461 C460 1.394 . S
C461 H471 0.929 . S
C462 Tb433 2.764 . S
C462 O446 1.239 . S
C462 O447 1.263 . S
C462 C456 1.504 . S
C463 O448 1.236 . S
C463 O449 1.256 1_554 S
H464 C437 0.932 . S
H465 C438 0.930 . S
H466 C439 0.932 . S
H467 C440 0.929 . S
H468 C458 0.932 . S
H469 C459 0.930 . S
H470 C460 0.932 . S
H471 C461 0.929 . S
H472 C484 0.930 . S
H473 C486 0.930 . S
H474 C487 0.930 . S
H475 C491 0.959 . S
H476 C491 0.959 . S
H477 C491 0.961 . S
H478 C492 0.960 . S
H479 C492 0.961 . S
H480 C492 0.959 . S
H481 C495 0.929 . S
H482 C496 0.931 . S
H483 C498 0.930 . S
C484 H472 0.930 . S
C484 C485 1.399 . S
C484 C489 1.399 . S
C485 C484 1.399 . S
C485 C486 1.376 . S
C486 H473 0.930 . S
C486 C485 1.376 . S
C486 C487 1.388 . S
C487 H474 0.930 . S
C487 C486 1.388 . S
C487 C488 1.390 . S
C488 C487 1.390 . S
C488 C489 1.394 . S
C488 C494 1.465 . S
C489 C484 1.399 . S
C489 C488 1.394 . S
C489 C490 1.516 . S
C490 C489 1.516 . S
C490 C491 1.502 . S
C490 C492 1.561 . S
C490 C493 1.526 . S
C491 H475 0.959 . S
C491 H476 0.959 . S
C491 H477 0.961 . S
C491 C490 1.502 . S
C492 H478 0.960 . S
C492 H479 0.961 . S
C492 H480 0.959 . S
C492 C490 1.561 . S
C493 C490 1.526 . S
C493 C494 1.396 . S
C493 C498 1.390 . S
C494 C488 1.465 . S
C494 C493 1.396 . S
C494 C495 1.399 . S
C495 H481 0.929 . S
C495 C494 1.399 . S
C495 C496 1.385 . S
C496 H482 0.931 . S
C496 C495 1.385 . S
C496 C497 1.389 . S
C497 C496 1.389 . S
C497 C498 1.387 . S
C498 H483 0.930 . S
C498 C493 1.390 . S
C498 C497 1.387 . S
H499 C511 0.930 . S
H500 C513 0.930 . S
H501 C514 0.930 . S
H502 C518 0.959 . S
H503 C518 0.959 . S
H504 C518 0.961 . S
H505 C519 0.960 . S
H506 C519 0.961 . S
H507 C519 0.959 . S
H508 C522 0.929 . S
H509 C523 0.931 . S
H510 C525 0.930 . S
C511 H499 0.930 . S
C511 C512 1.399 . S
C511 C516 1.399 . S
C512 C511 1.399 . S
C512 C513 1.376 . S
C513 H500 0.930 . S
C513 C512 1.376 . S
C513 C514 1.388 . S
C514 H501 0.930 . S
C514 C513 1.388 . S
C514 C515 1.390 . S
C515 C514 1.390 . S
C515 C516 1.394 . S
C515 C521 1.465 . S
C516 C511 1.399 . S
C516 C515 1.394 . S
C516 C517 1.516 . S
C517 C516 1.516 . S
C517 C518 1.502 . S
C517 C519 1.561 . S
C517 C520 1.526 . S
C518 H502 0.959 . S
C518 H503 0.959 . S
C518 H504 0.961 . S
C518 C517 1.502 . S
C519 H505 0.960 . S
C519 H506 0.961 . S
C519 H507 0.959 . S
C519 C517 1.561 . S
C520 C517 1.526 . S
C520 C521 1.396 . S
C520 C525 1.390 . S
C521 C515 1.465 . S
C521 C520 1.396 . S
C521 C522 1.399 . S
C522 H508 0.929 . S
C522 C521 1.399 . S
C522 C523 1.385 . S
C523 H509 0.931 . S
C523 C522 1.385 . S
C523 C524 1.389 . S
C524 C523 1.389 . S
C524 C525 1.387 . S
C525 H510 0.930 . S
C525 C520 1.390 . S
C525 C524 1.387 . S
H526 C538 0.930 . S
H527 C540 0.930 . S
H528 C541 0.930 . S
H529 C545 0.959 . S
H530 C545 0.959 . S
H531 C545 0.961 . S
H532 C546 0.960 . S
H533 C546 0.961 . S
H534 C546 0.959 . S
H535 C549 0.929 . S
H536 C550 0.931 . S
H537 C552 0.930 . S
C538 H526 0.930 . S
C538 C539 1.399 . S
C538 C543 1.399 . S
C539 C538 1.399 . S
C539 C540 1.376 . S
C540 H527 0.930 . S
C540 C539 1.376 . S
C540 C541 1.388 . S
C541 H528 0.930 . S
C541 C540 1.388 . S
C541 C542 1.390 . S
C542 C541 1.390 . S
C542 C543 1.394 . S
C542 C548 1.465 . S
C543 C538 1.399 . S
C543 C542 1.394 . S
C543 C544 1.516 . S
C544 C543 1.516 . S
C544 C545 1.502 . S
C544 C546 1.561 . S
C544 C547 1.526 . S
C545 H529 0.959 . S
C545 H530 0.959 . S
C545 H531 0.961 . S
C545 C544 1.502 . S
C546 H532 0.960 . S
C546 H533 0.961 . S
C546 H534 0.959 . S
C546 C544 1.561 . S
C547 C544 1.526 . S
C547 C548 1.396 . S
C547 C552 1.390 . S
C548 C542 1.465 . S
C548 C547 1.396 . S
C548 C549 1.399 . S
C549 H535 0.929 . S
C549 C548 1.399 . S
C549 C550 1.385 . S
C550 H536 0.931 . S
C550 C549 1.385 . S
C550 C551 1.389 . S
C551 C550 1.389 . S
C551 C552 1.387 . S
C552 H537 0.930 . S
C552 C547 1.390 . S
C552 C551 1.387 . S
H553 C565 0.930 . S
H554 C567 0.930 . S
H555 C568 0.930 . S
H556 C572 0.959 . S
H557 C572 0.959 . S
H558 C572 0.961 . S
H559 C573 0.960 . S
H560 C573 0.961 . S
H561 C573 0.959 . S
H562 C576 0.929 . S
H563 C577 0.931 . S
H564 C579 0.930 . S
C565 H553 0.930 . S
C565 C566 1.399 . S
C565 C570 1.399 . S
C566 C565 1.399 . S
C566 C567 1.376 . S
C567 H554 0.930 . S
C567 C566 1.376 . S
C567 C568 1.388 . S
C568 H555 0.930 . S
C568 C567 1.388 . S
C568 C569 1.390 . S
C569 C568 1.390 . S
C569 C570 1.394 . S
C569 C575 1.465 . S
C570 C565 1.399 . S
C570 C569 1.394 . S
C570 C571 1.516 . S
C571 C570 1.516 . S
C571 C572 1.502 . S
C571 C573 1.561 . S
C571 C574 1.526 . S
C572 H556 0.959 . S
C572 H557 0.959 . S
C572 H558 0.961 . S
C572 C571 1.502 . S
C573 H559 0.960 . S
C573 H560 0.961 . S
C573 H561 0.959 . S
C573 C571 1.561 . S
C574 C571 1.526 . S
C574 C575 1.396 . S
C574 C579 1.390 . S
C575 C569 1.465 . S
C575 C574 1.396 . S
C575 C576 1.399 . S
C576 H562 0.929 . S
C576 C575 1.399 . S
C576 C577 1.385 . S
C577 H563 0.931 . S
C577 C576 1.385 . S
C577 C578 1.389 . S
C578 C577 1.389 . S
C578 C579 1.387 . S
C579 H564 0.930 . S
C579 C574 1.390 . S
C579 C578 1.387 . S
H580 C592 0.930 . S
H581 C594 0.930 . S
H582 C595 0.930 . S
H583 C599 0.959 . S
H584 C599 0.959 . S
H585 C599 0.961 . S
H586 C600 0.960 . S
H587 C600 0.961 . S
H588 C600 0.959 . S
H589 C603 0.929 . S
H590 C604 0.931 . S
H591 C606 0.930 . S
C592 H580 0.930 . S
C592 C593 1.399 . S
C592 C597 1.399 . S
C593 C592 1.399 . S
C593 C594 1.376 . S
C594 H581 0.930 . S
C594 C593 1.376 . S
C594 C595 1.388 . S
C595 H582 0.930 . S
C595 C594 1.388 . S
C595 C596 1.390 . S
C596 C595 1.390 . S
C596 C597 1.394 . S
C596 C602 1.465 . S
C597 C592 1.399 . S
C597 C596 1.394 . S
C597 C598 1.516 . S
C598 C597 1.516 . S
C598 C599 1.502 . S
C598 C600 1.561 . S
C598 C601 1.526 . S
C599 H583 0.959 . S
C599 H584 0.959 . S
C599 H585 0.961 . S
C599 C598 1.502 . S
C600 H586 0.960 . S
C600 H587 0.961 . S
C600 H588 0.959 . S
C600 C598 1.561 . S
C601 C598 1.526 . S
C601 C602 1.396 . S
C601 C606 1.390 . S
C602 C596 1.465 . S
C602 C601 1.396 . S
C602 C603 1.399 . S
C603 H589 0.929 . S
C603 C602 1.399 . S
C603 C604 1.385 . S
C604 H590 0.931 . S
C604 C603 1.385 . S
C604 C605 1.389 . S
C605 C604 1.389 . S
C605 C606 1.387 . S
C606 H591 0.930 . S
C606 C601 1.390 . S
C606 C605 1.387 . S
H607 C619 0.930 . S
H608 C621 0.930 . S
H609 C622 0.930 . S
H610 C626 0.959 1_655 S
H611 C626 0.959 1_655 S
H612 C626 0.961 . S
H613 C627 0.960 . S
H614 C627 0.961 . S
H615 C627 0.959 . S
H616 C630 0.929 . S
H617 C631 0.931 . S
H618 C633 0.930 . S
C619 H607 0.930 . S
C619 C620 1.399 . S
C619 C624 1.399 . S
C620 C619 1.399 . S
C620 C621 1.376 . S
C621 H608 0.930 . S
C621 C620 1.376 . S
C621 C622 1.388 . S
C622 H609 0.930 . S
C622 C621 1.388 . S
C622 C623 1.390 . S
C623 C622 1.390 . S
C623 C624 1.394 . S
C623 C629 1.465 . S
C624 C619 1.399 . S
C624 C623 1.394 . S
C624 C625 1.516 . S
C625 C624 1.516 . S
C625 C626 1.502 . S
C625 C627 1.561 . S
C625 C628 1.526 . S
C626 H610 0.959 1_455 S
C626 H611 0.959 1_455 S
C626 H612 0.961 . S
C626 C625 1.502 . S
C627 H613 0.960 . S
C627 H614 0.961 . S
C627 H615 0.959 . S
C627 C625 1.561 . S
C628 C625 1.526 . S
C628 C629 1.396 . S
C628 C633 1.390 . S
C629 C623 1.465 . S
C629 C628 1.396 . S
C629 C630 1.399 . S
C630 H616 0.929 . S
C630 C629 1.399 . S
C630 C631 1.385 . S
C631 H617 0.931 . S
C631 C630 1.385 . S
C631 C632 1.389 . S
C632 C631 1.389 . S
C632 C633 1.387 . S
C633 H618 0.930 . S
C633 C628 1.390 . S
C633 C632 1.387 . S
H634 C646 0.930 . S
H635 C648 0.930 . S
H636 C649 0.930 . S
H637 C653 0.959 . S
H638 C653 0.959 . S
H639 C653 0.961 . S
H640 C654 0.960 . S
H641 C654 0.961 . S
H642 C654 0.959 . S
H643 C657 0.929 . S
H644 C658 0.931 1_554 S
H645 C660 0.930 . S
C646 H634 0.930 . S
C646 C647 1.399 . S
C646 C651 1.399 . S
C647 C646 1.399 . S
C647 C648 1.376 . S
C648 H635 0.930 . S
C648 C647 1.376 . S
C648 C649 1.388 . S
C649 H636 0.930 . S
C649 C648 1.388 . S
C649 C650 1.390 . S
C650 C649 1.390 . S
C650 C651 1.394 . S
C650 C656 1.465 . S
C651 C646 1.399 . S
C651 C650 1.394 . S
C651 C652 1.516 . S
C652 C651 1.516 . S
C652 C653 1.502 . S
C652 C654 1.561 . S
C652 C655 1.526 . S
C653 H637 0.959 . S
C653 H638 0.959 . S
C653 H639 0.961 . S
C653 C652 1.502 . S
C654 H640 0.960 . S
C654 H641 0.961 . S
C654 H642 0.959 . S
C654 C652 1.561 . S
C655 C652 1.526 . S
C655 C656 1.396 . S
C655 C660 1.390 . S
C656 C650 1.465 . S
C656 C655 1.396 . S
C656 C657 1.399 . S
C657 H643 0.929 . S
C657 C656 1.399 . S
C657 C658 1.385 . S
C658 H644 0.931 1_556 S
C658 C657 1.385 . S
C658 C659 1.389 . S
C659 C658 1.389 . S
C659 C660 1.387 . S
C660 H645 0.930 . S
C660 C655 1.390 . S
C660 C659 1.387 . S
H661 C673 0.930 . S
H662 C675 0.930 . S
H663 C676 0.930 . S
H664 C680 0.959 . S
H665 C680 0.959 . S
H666 C680 0.961 . S
H667 C681 0.960 . S
H668 C681 0.961 . S
H669 C681 0.959 . S
H670 C684 0.929 . S
H671 C685 0.931 . S
H672 C687 0.930 . S
C673 H661 0.930 . S
C673 C674 1.399 . S
C673 C678 1.399 . S
C674 C673 1.399 . S
C674 C675 1.376 . S
C675 H662 0.930 . S
C675 C674 1.376 . S
C675 C676 1.388 . S
C676 H663 0.930 . S
C676 C675 1.388 . S
C676 C677 1.390 . S
C677 C676 1.390 . S
C677 C678 1.394 . S
C677 C683 1.465 . S
C678 C673 1.399 . S
C678 C677 1.394 . S
C678 C679 1.516 . S
C679 C678 1.516 . S
C679 C680 1.502 . S
C679 C681 1.561 . S
C679 C682 1.526 . S
C680 H664 0.959 . S
C680 H665 0.959 . S
C680 H666 0.961 . S
C680 C679 1.502 . S
C681 H667 0.960 . S
C681 H668 0.961 . S
C681 H669 0.959 . S
C681 C679 1.561 . S
C682 C679 1.526 . S
C682 C683 1.396 . S
C682 C687 1.390 . S
C683 C677 1.465 . S
C683 C682 1.396 . S
C683 C684 1.399 . S
C684 H670 0.929 . S
C684 C683 1.399 . S
C684 C685 1.385 . S
C685 H671 0.931 . S
C685 C684 1.385 . S
C685 C686 1.389 . S
C686 C685 1.389 . S
C686 C687 1.387 . S
C687 H672 0.930 . S
C687 C682 1.390 . S
C687 C686 1.387 . S
H688 C700 0.930 . S
H689 C702 0.930 . S
H690 C703 0.930 . S
H691 C707 0.959 . S
H692 C707 0.959 . S
H693 C707 0.961 . S
H694 C708 0.960 . S
H695 C708 0.961 . S
H696 C708 0.959 . S
H697 C711 0.929 . S
H698 C712 0.931 . S
H699 C714 0.930 . S
C700 H688 0.930 . S
C700 C701 1.399 . S
C700 C705 1.399 . S
C701 C700 1.399 . S
C701 C702 1.376 . S
C702 H689 0.930 . S
C702 C701 1.376 . S
C702 C703 1.388 . S
C703 H690 0.930 . S
C703 C702 1.388 . S
C703 C704 1.390 . S
C704 C703 1.390 . S
C704 C705 1.394 . S
C704 C710 1.465 . S
C705 C700 1.399 . S
C705 C704 1.394 . S
C705 C706 1.516 . S
C706 C705 1.516 . S
C706 C707 1.502 . S
C706 C708 1.561 . S
C706 C709 1.526 . S
C707 H691 0.959 . S
C707 H692 0.959 . S
C707 H693 0.961 . S
C707 C706 1.502 . S
C708 H694 0.960 . S
C708 H695 0.961 . S
C708 H696 0.959 . S
C708 C706 1.561 . S
C709 C706 1.526 . S
C709 C710 1.396 . S
C709 C714 1.390 . S
C710 C704 1.465 . S
C710 C709 1.396 . S
C710 C711 1.399 . S
C711 H697 0.929 . S
C711 C710 1.399 . S
C711 C712 1.385 . S
C712 H698 0.931 . S
C712 C711 1.385 . S
C712 C713 1.389 . S
C713 C712 1.389 . S
C713 C714 1.387 . S
C714 H699 0.930 . S
C714 C709 1.390 . S
C714 C713 1.387 . S
H715 C727 0.930 . S
H716 C729 0.930 . S
H717 C730 0.930 . S
H718 C734 0.959 . S
H719 C734 0.959 . S
H720 C734 0.961 . S
H721 C735 0.960 . S
H722 C735 0.961 . S
H723 C735 0.959 . S
H724 C738 0.929 . S
H725 C739 0.939 . S
H726 C741 0.930 . S
C727 H715 0.930 . S
C727 C728 1.399 . S
C727 C732 1.399 . S
C728 C727 1.399 . S
C728 C729 1.376 . S
C729 H716 0.930 . S
C729 C728 1.376 . S
C729 C730 1.388 . S
C730 H717 0.930 . S
C730 C729 1.388 . S
C730 C731 1.390 . S
C731 C730 1.390 . S
C731 C732 1.394 . S
C731 C737 1.465 . S
C732 C727 1.399 . S
C732 C731 1.394 . S
C732 C733 1.516 . S
C733 C732 1.516 . S
C733 C734 1.502 . S
C733 C735 1.561 . S
C733 C736 1.526 . S
C734 H718 0.959 . S
C734 H719 0.959 . S
C734 H720 0.961 . S
C734 C733 1.502 . S
C735 H721 0.960 . S
C735 H722 0.961 . S
C735 H723 0.959 . S
C735 C733 1.561 . S
C736 C733 1.526 . S
C736 C737 1.396 . S
C736 C741 1.390 . S
C737 C731 1.465 . S
C737 C736 1.396 . S
C737 C738 1.399 . S
C738 H724 0.929 . S
C738 C737 1.399 . S
C738 C739 1.385 . S
C739 H725 0.939 . S
C739 C738 1.385 . S
C739 C740 1.389 . S
C740 C739 1.389 . S
C740 C741 1.387 . S
C741 H726 0.930 . S
C741 C736 1.390 . S
C741 C740 1.387 . S
H742 C754 0.930 . S
H743 C756 0.930 . S
H744 C757 0.930 . S
H745 C761 0.959 . S
H746 C761 0.959 . S
H747 C761 0.961 . S
H748 C762 0.960 . S
H749 C762 0.961 . S
H750 C762 0.959 . S
H751 C765 0.929 . S
H752 C766 0.931 . S
H753 C768 0.930 . S
C754 H742 0.930 . S
C754 C755 1.399 . S
C754 C759 1.399 . S
C755 C754 1.399 . S
C755 C756 1.376 . S
C756 H743 0.930 . S
C756 C755 1.376 . S
C756 C757 1.388 . S
C757 H744 0.930 . S
C757 C756 1.388 . S
C757 C758 1.390 . S
C758 C757 1.390 . S
C758 C759 1.394 . S
C758 C764 1.465 . S
C759 C754 1.399 . S
C759 C758 1.394 . S
C759 C760 1.516 . S
C760 C759 1.516 . S
C760 C761 1.502 . S
C760 C762 1.561 . S
C760 C763 1.526 . S
C761 H745 0.959 . S
C761 H746 0.959 . S
C761 H747 0.961 . S
C761 C760 1.502 . S
C762 H748 0.960 . S
C762 H749 0.961 . S
C762 H750 0.959 . S
C762 C760 1.561 . S
C763 C760 1.526 . S
C763 C764 1.396 . S
C763 C768 1.390 . S
C764 C758 1.465 . S
C764 C763 1.396 . S
C764 C765 1.399 . S
C765 H751 0.929 . S
C765 C764 1.399 . S
C765 C766 1.385 . S
C766 H752 0.931 . S
C766 C765 1.385 . S
C766 C767 1.389 . S
C767 C766 1.389 . S
C767 C768 1.387 . S
C768 H753 0.930 . S
C768 C763 1.390 . S
C768 C767 1.387 . S
H769 C781 0.930 . S
H770 C783 0.930 . S
H771 C784 0.930 . S
H772 C788 0.959 . S
H773 C788 0.959 . S
H774 C788 0.961 . S
H775 C789 0.960 . S
H776 C789 0.961 . S
H777 C789 0.959 . S
H778 C792 0.929 . S
H779 C793 0.931 . S
H780 C795 0.930 . S
C781 H769 0.930 . S
C781 C782 1.399 . S
C781 C786 1.399 . S
C782 C781 1.399 . S
C782 C783 1.376 . S
C783 H770 0.930 . S
C783 C782 1.376 . S
C783 C784 1.388 . S
C784 H771 0.930 . S
C784 C783 1.388 . S
C784 C785 1.390 . S
C785 C784 1.390 . S
C785 C786 1.394 . S
C785 C791 1.465 . S
C786 C781 1.399 . S
C786 C785 1.394 . S
C786 C787 1.516 . S
C787 C786 1.516 . S
C787 C788 1.502 . S
C787 C789 1.561 . S
C787 C790 1.526 . S
C788 H772 0.959 . S
C788 H773 0.959 . S
C788 H774 0.961 . S
C788 C787 1.502 . S
C789 H775 0.960 . S
C789 H776 0.961 . S
C789 H777 0.959 . S
C789 C787 1.561 . S
C790 C787 1.526 . S
C790 C791 1.396 . S
C790 C795 1.390 . S
C791 C785 1.465 . S
C791 C790 1.396 . S
C791 C792 1.399 . S
C792 H778 0.929 . S
C792 C791 1.399 . S
C792 C793 1.385 . S
C793 H779 0.931 . S
C793 C792 1.385 . S
C793 C794 1.389 . S
C794 C793 1.389 . S
C794 C795 1.387 . S
C795 H780 0.930 . S
C795 C790 1.390 . S
C795 C794 1.387 . S
H796 C808 0.930 . S
H797 C810 0.930 . S
H798 C811 0.930 . S
H799 C815 0.959 . S
H800 C815 0.959 . S
H801 C815 0.961 . S
H802 C816 0.960 . S
H803 C816 0.961 . S
H804 C816 0.959 . S
H805 C819 0.929 . S
H806 C820 0.931 . S
H807 C822 0.930 . S
C808 H796 0.930 . S
C808 C809 1.399 . S
C808 C813 1.399 . S
C809 C808 1.399 . S
C809 C810 1.376 . S
C810 H797 0.930 . S
C810 C809 1.376 . S
C810 C811 1.388 . S
C811 H798 0.930 . S
C811 C810 1.388 . S
C811 C812 1.390 . S
C812 C811 1.390 . S
C812 C813 1.394 . S
C812 C818 1.465 . S
C813 C808 1.399 . S
C813 C812 1.394 . S
C813 C814 1.516 . S
C814 C813 1.516 . S
C814 C815 1.502 . S
C814 C816 1.561 . S
C814 C817 1.526 . S
C815 H799 0.959 . S
C815 H800 0.959 . S
C815 H801 0.961 . S
C815 C814 1.502 . S
C816 H802 0.960 . S
C816 H803 0.961 . S
C816 H804 0.959 . S
C816 C814 1.561 . S
C817 C814 1.526 . S
C817 C818 1.396 . S
C817 C822 1.390 . S
C818 C812 1.465 . S
C818 C817 1.396 . S
C818 C819 1.399 . S
C819 H805 0.929 . S
C819 C818 1.399 . S
C819 C820 1.385 . S
C820 H806 0.931 . S
C820 C819 1.385 . S
C820 C821 1.389 . S
C821 C820 1.389 . S
C821 C822 1.387 . S
C822 H807 0.930 . S
C822 C817 1.390 . S
C822 C821 1.387 . S
H823 C835 0.930 . S
H824 C837 0.930 . S
H825 C838 0.930 . S
H826 C842 0.959 . S
H827 C842 0.959 . S
H828 C842 0.961 . S
H829 C843 0.960 . S
H830 C843 0.961 . S
H831 C843 0.959 . S
H832 C846 0.929 . S
H833 C847 0.931 . S
H834 C849 0.930 . S
C835 H823 0.930 . S
C835 C836 1.399 . S
C835 C840 1.399 . S
C836 C835 1.399 . S
C836 C837 1.376 . S
C837 H824 0.930 . S
C837 C836 1.376 . S
C837 C838 1.388 . S
C838 H825 0.930 . S
C838 C837 1.388 . S
C838 C839 1.390 . S
C839 C838 1.390 . S
C839 C840 1.394 . S
C839 C845 1.465 . S
C840 C835 1.399 . S
C840 C839 1.394 . S
C840 C841 1.516 . S
C841 C840 1.516 . S
C841 C842 1.502 . S
C841 C843 1.561 . S
C841 C844 1.526 . S
C842 H826 0.959 . S
C842 H827 0.959 . S
C842 H828 0.961 . S
C842 C841 1.502 . S
C843 H829 0.960 . S
C843 H830 0.961 . S
C843 H831 0.959 . S
C843 C841 1.561 . S
C844 C841 1.526 . S
C844 C845 1.396 . S
C844 C849 1.390 . S
C845 C839 1.465 . S
C845 C844 1.396 . S
C845 C846 1.399 . S
C846 H832 0.929 . S
C846 C845 1.399 . S
C846 C847 1.385 . S
C847 H833 0.931 . S
C847 C846 1.385 . S
C847 C848 1.389 . S
C848 C847 1.389 . S
C848 C849 1.387 . S
C849 H834 0.930 . S
C849 C844 1.390 . S
C849 C848 1.387 . S
H850 C862 0.930 . S
H851 C864 0.930 . S
H852 C865 0.930 . S
H853 C869 0.959 . S
H854 C869 0.959 . S
H855 C869 0.961 . S
H856 C870 0.960 . S
H857 C870 0.961 . S
H858 C870 0.959 . S
H859 C873 0.929 . S
H860 C874 0.931 . S
H861 C876 0.930 . S
C862 H850 0.930 . S
C862 C863 1.399 . S
C862 C867 1.399 . S
C863 C862 1.399 . S
C863 C864 1.376 . S
C864 H851 0.930 . S
C864 C863 1.376 . S
C864 C865 1.388 . S
C865 H852 0.930 . S
C865 C864 1.388 . S
C865 C866 1.390 . S
C866 C865 1.390 . S
C866 C867 1.394 . S
C866 C872 1.465 . S
C867 C862 1.399 . S
C867 C866 1.394 . S
C867 C868 1.516 . S
C868 C867 1.516 . S
C868 C869 1.502 . S
C868 C870 1.561 . S
C868 C871 1.526 . S
C869 H853 0.959 . S
C869 H854 0.959 . S
C869 H855 0.961 . S
C869 C868 1.502 . S
C870 H856 0.960 . S
C870 H857 0.961 . S
C870 H858 0.959 . S
C870 C868 1.561 . S
C871 C868 1.526 . S
C871 C872 1.396 . S
C871 C876 1.390 . S
C872 C866 1.465 . S
C872 C871 1.396 . S
C872 C873 1.399 . S
C873 H859 0.929 . S
C873 C872 1.399 . S
C873 C874 1.385 . S
C874 H860 0.931 . S
C874 C873 1.385 . S
C874 C875 1.389 . S
C875 C874 1.389 . S
C875 C876 1.387 . S
C876 H861 0.930 . S
C876 C871 1.390 . S
C876 C875 1.387 . S
H877 C889 0.930 . S
H878 C891 0.930 . S
H879 C892 0.930 . S
H880 C896 0.959 . S
H881 C896 0.959 . S
H882 C896 0.961 . S
H883 C897 0.960 . S
H884 C897 0.961 . S
H885 C897 0.959 . S
H886 C900 0.929 . S
H887 C901 0.931 . S
H888 C903 0.930 . S
C889 H877 0.930 . S
C889 C890 1.399 . S
C889 C894 1.399 . S
C890 C889 1.399 . S
C890 C891 1.376 . S
C891 H878 0.930 . S
C891 C890 1.376 . S
C891 C892 1.388 . S
C892 H879 0.930 . S
C892 C891 1.388 . S
C892 C893 1.390 . S
C893 C892 1.390 . S
C893 C894 1.394 . S
C893 C899 1.465 . S
C894 C889 1.399 . S
C894 C893 1.394 . S
C894 C895 1.516 . S
C895 C894 1.516 . S
C895 C896 1.502 . S
C895 C897 1.561 . S
C895 C898 1.526 . S
C896 H880 0.959 . S
C896 H881 0.959 . S
C896 H882 0.961 . S
C896 C895 1.502 . S
C897 H883 0.960 . S
C897 H884 0.961 . S
C897 H885 0.959 . S
C897 C895 1.561 . S
C898 C895 1.526 . S
C898 C899 1.396 . S
C898 C903 1.390 . S
C899 C893 1.465 . S
C899 C898 1.396 . S
C899 C900 1.399 . S
C900 H886 0.929 . S
C900 C899 1.399 . S
C900 C901 1.385 . S
C901 H887 0.931 . S
C901 C900 1.385 . S
C901 C902 1.389 . S
C902 C901 1.389 . S
C902 C903 1.387 . S
C903 H888 0.930 . S
C903 C898 1.390 . S
C903 C902 1.387 . S
H904 C916 0.930 . S
H905 C918 0.930 . S
H906 C919 0.930 . S
H907 C923 0.959 . S
H908 C923 0.959 . S
H909 C923 0.961 . S
H910 C924 0.960 . S
H911 C924 0.961 . S
H912 C924 0.959 . S
H913 C927 0.929 . S
H914 C928 0.931 . S
H915 C930 0.930 . S
C916 H904 0.930 . S
C916 C917 1.399 . S
C916 C921 1.399 . S
C917 C916 1.399 . S
C917 C918 1.376 . S
C918 H905 0.930 . S
C918 C917 1.376 . S
C918 C919 1.388 . S
C919 H906 0.930 . S
C919 C918 1.388 . S
C919 C920 1.390 . S
C920 C919 1.390 . S
C920 C921 1.394 . S
C920 C926 1.465 . S
C921 C916 1.399 . S
C921 C920 1.394 . S
C921 C922 1.516 . S
C922 C921 1.516 . S
C922 C923 1.502 . S
C922 C924 1.561 . S
C922 C925 1.526 . S
C923 H907 0.959 . S
C923 H908 0.959 . S
C923 H909 0.961 . S
C923 C922 1.502 . S
C924 H910 0.960 . S
C924 H911 0.961 . S
C924 H912 0.959 . S
C924 C922 1.561 . S
C925 C922 1.526 . S
C925 C926 1.396 . S
C925 C930 1.390 . S
C926 C920 1.465 . S
C926 C925 1.396 . S
C926 C927 1.399 . S
C927 H913 0.929 . S
C927 C926 1.399 . S
C927 C928 1.385 . S
C928 H914 0.931 . S
C928 C927 1.385 . S
C928 C929 1.389 . S
C929 C928 1.389 . S
C929 C930 1.387 . S
C930 H915 0.930 . S
C930 C925 1.390 . S
C930 C929 1.387 . S
H931 C943 0.930 . S
H932 C945 0.930 . S
H933 C946 0.930 . S
H934 C950 0.959 . S
H935 C950 0.959 . S
H936 C950 0.961 . S
H937 C951 0.960 1_455 S
H938 C951 0.957 1_455 S
H939 C951 0.956 1_455 S
H940 C954 0.929 . S
H941 C955 0.931 . S
H942 C957 0.930 . S
C943 H931 0.930 . S
C943 C944 1.399 . S
C943 C948 1.399 . S
C944 C943 1.399 . S
C944 C945 1.376 . S
C945 H932 0.930 . S
C945 C944 1.376 . S
C945 C946 1.388 . S
C946 H933 0.930 . S
C946 C945 1.388 . S
C946 C947 1.390 . S
C947 C946 1.390 . S
C947 C948 1.394 . S
C947 C953 1.465 . S
C948 C943 1.399 . S
C948 C947 1.394 . S
C948 C949 1.516 . S
C949 C948 1.516 . S
C949 C950 1.502 . S
C949 C951 1.569 . S
C949 C952 1.526 . S
C950 H934 0.959 . S
C950 H935 0.959 . S
C950 H936 0.961 . S
C950 C949 1.502 . S
C951 H937 0.960 1_655 S
C951 H938 0.957 1_655 S
C951 H939 0.956 1_655 S
C951 C949 1.569 . S
C952 C949 1.526 . S
C952 C953 1.396 . S
C952 C957 1.390 . S
C953 C947 1.465 . S
C953 C952 1.396 . S
C953 C954 1.399 . S
C954 H940 0.929 . S
C954 C953 1.399 . S
C954 C955 1.385 . S
C955 H941 0.931 . S
C955 C954 1.385 . S
C955 C956 1.389 . S
C956 C955 1.389 . S
C956 C957 1.387 . S
C957 H942 0.930 . S
C957 C952 1.390 . S
C957 C956 1.387 . S
H958 C970 0.930 . S
H959 C972 0.930 . S
H960 C973 0.930 . S
H961 C977 0.959 . S
H962 C977 0.959 . S
H963 C977 0.961 . S
H964 C978 0.960 . S
H965 C978 0.961 1_556 S
H966 C978 0.959 . S
H967 C981 0.929 . S
H968 C982 0.931 . S
H969 C984 0.930 . S
C970 H958 0.930 . S
C970 C971 1.399 . S
C970 C975 1.399 . S
C971 C970 1.399 . S
C971 C972 1.376 . S
C972 H959 0.930 . S
C972 C971 1.376 . S
C972 C973 1.388 . S
C973 H960 0.930 . S
C973 C972 1.388 . S
C973 C974 1.390 . S
C974 C973 1.390 . S
C974 C975 1.394 . S
C974 C980 1.465 . S
C975 C970 1.399 . S
C975 C974 1.394 . S
C975 C976 1.516 . S
C976 C975 1.516 . S
C976 C977 1.502 . S
C976 C978 1.561 . S
C976 C979 1.526 . S
C977 H961 0.959 . S
C977 H962 0.959 . S
C977 H963 0.961 . S
C977 C976 1.502 . S
C978 H964 0.960 . S
C978 H965 0.961 1_554 S
C978 H966 0.959 . S
C978 C976 1.561 . S
C979 C976 1.526 . S
C979 C980 1.396 . S
C979 C984 1.390 . S
C980 C974 1.465 . S
C980 C979 1.396 . S
C980 C981 1.399 . S
C981 H967 0.929 . S
C981 C980 1.399 . S
C981 C982 1.385 . S
C982 H968 0.931 . S
C982 C981 1.385 . S
C982 C983 1.389 . S
C983 C982 1.389 . S
C983 C984 1.387 . S
C984 H969 0.930 . S
C984 C979 1.390 . S
C984 C983 1.387 . S
H985 C997 0.930 . S
H986 C999 0.930 . S
H987 C1000 0.930 . S
H988 C1004 0.959 . S
H989 C1004 0.959 . S
H990 C1004 0.961 . S
H991 C1005 0.960 . S
H992 C1005 0.961 . S
H993 C1005 0.959 . S
H994 C1008 0.929 . S
H995 C1009 0.931 . S
H996 C1011 0.930 . S
C997 H985 0.930 . S
C997 C998 1.399 . S
C997 C1002 1.399 . S
C998 C997 1.399 . S
C998 C999 1.376 . S
C999 H986 0.930 . S
C999 C998 1.376 . S
C999 C1000 1.388 . S
C1000 H987 0.930 . S
C1000 C999 1.388 . S
C1000 C1001 1.390 . S
C1001 C1000 1.390 . S
C1001 C1002 1.394 . S
C1001 C1007 1.465 . S
C1002 C997 1.399 . S
C1002 C1001 1.394 . S
C1002 C1003 1.516 . S
C1003 C1002 1.516 . S
C1003 C1004 1.502 . S
C1003 C1005 1.561 . S
C1003 C1006 1.526 . S
C1004 H988 0.959 . S
C1004 H989 0.959 . S
C1004 H990 0.961 . S
C1004 C1003 1.502 . S
C1005 H991 0.960 . S
C1005 H992 0.961 . S
C1005 H993 0.959 . S
C1005 C1003 1.561 . S
C1006 C1003 1.526 . S
C1006 C1007 1.396 . S
C1006 C1011 1.390 . S
C1007 C1001 1.465 . S
C1007 C1006 1.396 . S
C1007 C1008 1.399 . S
C1008 H994 0.929 . S
C1008 C1007 1.399 . S
C1008 C1009 1.385 . S
C1009 H995 0.931 . S
C1009 C1008 1.385 . S
C1009 C1010 1.389 . S
C1010 C1009 1.389 . S
C1010 C1011 1.387 . S
C1011 H996 0.930 . S
C1011 C1006 1.390 . S
C1011 C1010 1.387 . S
H1012 C1024 0.930 . S
H1013 C1026 0.930 . S
H1014 C1027 0.930 . S
H1015 C1031 0.959 . S
H1016 C1031 0.959 . S
H1017 C1031 0.961 . S
H1018 C1032 0.960 . S
H1019 C1032 0.961 . S
H1020 C1032 0.959 . S
H1021 C1035 0.929 . S
H1022 C1036 0.931 . S
H1023 C1038 0.930 . S
C1024 H1012 0.930 . S
C1024 C1025 1.399 . S
C1024 C1029 1.399 . S
C1025 C1024 1.399 . S
C1025 C1026 1.376 . S
C1026 H1013 0.930 . S
C1026 C1025 1.376 . S
C1026 C1027 1.388 . S
C1027 H1014 0.930 . S
C1027 C1026 1.388 . S
C1027 C1028 1.390 . S
C1028 C1027 1.390 . S
C1028 C1029 1.394 . S
C1028 C1034 1.465 . S
C1029 C1024 1.399 . S
C1029 C1028 1.394 . S
C1029 C1030 1.516 . S
C1030 C1029 1.516 . S
C1030 C1031 1.502 . S
C1030 C1032 1.561 . S
C1030 C1033 1.526 . S
C1031 H1015 0.959 . S
C1031 H1016 0.959 . S
C1031 H1017 0.961 . S
C1031 C1030 1.502 . S
C1032 H1018 0.960 . S
C1032 H1019 0.961 . S
C1032 H1020 0.959 . S
C1032 C1030 1.561 . S
C1033 C1030 1.526 . S
C1033 C1034 1.396 . S
C1033 C1038 1.390 . S
C1034 C1028 1.465 . S
C1034 C1033 1.396 . S
C1034 C1035 1.399 . S
C1035 H1021 0.929 . S
C1035 C1034 1.399 . S
C1035 C1036 1.385 . S
C1036 H1022 0.931 . S
C1036 C1035 1.385 . S
C1036 C1037 1.389 . S
C1037 C1036 1.389 . S
C1037 C1038 1.387 . S
C1038 H1023 0.930 . S
C1038 C1033 1.390 . S
C1038 C1037 1.387 . S
H1039 C1051 0.930 . S
H1040 C1053 0.930 . S
H1041 C1054 0.930 . S
H1042 C1058 0.959 . S
H1043 C1058 0.959 . S
H1044 C1058 0.961 . S
H1045 C1059 0.960 . S
H1046 C1059 0.961 . S
H1047 C1059 0.959 . S
H1048 C1062 0.929 . S
H1049 C1063 0.931 1_556 S
H1050 C1065 0.930 . S
C1051 H1039 0.930 . S
C1051 C1052 1.399 . S
C1051 C1056 1.399 . S
C1052 C1051 1.399 . S
C1052 C1053 1.376 . S
C1053 H1040 0.930 . S
C1053 C1052 1.376 . S
C1053 C1054 1.388 . S
C1054 H1041 0.930 . S
C1054 C1053 1.388 . S
C1054 C1055 1.390 . S
C1055 C1054 1.390 . S
C1055 C1056 1.394 . S
C1055 C1061 1.465 . S
C1056 C1051 1.399 . S
C1056 C1055 1.394 . S
C1056 C1057 1.516 . S
C1057 C1056 1.516 . S
C1057 C1058 1.502 . S
C1057 C1059 1.561 . S
C1057 C1060 1.526 . S
C1058 H1042 0.959 . S
C1058 H1043 0.959 . S
C1058 H1044 0.961 . S
C1058 C1057 1.502 . S
C1059 H1045 0.960 . S
C1059 H1046 0.961 . S
C1059 H1047 0.959 . S
C1059 C1057 1.561 . S
C1060 C1057 1.526 . S
C1060 C1061 1.396 . S
C1060 C1065 1.390 . S
C1061 C1055 1.465 . S
C1061 C1060 1.396 . S
C1061 C1062 1.399 . S
C1062 H1048 0.929 . S
C1062 C1061 1.399 . S
C1062 C1063 1.385 . S
C1063 H1049 0.931 1_554 S
C1063 C1062 1.385 . S
C1063 C1064 1.389 . S
C1064 C1063 1.389 . S
C1064 C1065 1.387 . S
C1065 H1050 0.930 . S
C1065 C1060 1.390 . S
C1065 C1064 1.387 . S
H1066 C1078 0.930 . S
H1067 C1080 0.930 . S
H1068 C1081 0.930 . S
H1069 C1085 0.959 . S
H1070 C1085 0.959 . S
H1071 C1085 0.961 . S
H1072 C1086 0.960 . S
H1073 C1086 0.961 . S
H1074 C1086 0.959 . S
H1075 C1089 0.929 . S
H1076 C1090 0.931 . S
H1077 C1092 0.930 . S
C1078 H1066 0.930 . S
C1078 C1079 1.399 . S
C1078 C1083 1.399 . S
C1079 C1078 1.399 . S
C1079 C1080 1.376 . S
C1080 H1067 0.930 . S
C1080 C1079 1.376 . S
C1080 C1081 1.388 . S
C1081 H1068 0.930 . S
C1081 C1080 1.388 . S
C1081 C1082 1.390 . S
C1082 C1081 1.390 . S
C1082 C1083 1.394 . S
C1082 C1088 1.465 . S
C1083 C1078 1.399 . S
C1083 C1082 1.394 . S
C1083 C1084 1.516 . S
C1084 C1083 1.516 . S
C1084 C1085 1.502 . S
C1084 C1086 1.561 . S
C1084 C1087 1.526 . S
C1085 H1069 0.959 . S
C1085 H1070 0.959 . S
C1085 H1071 0.961 . S
C1085 C1084 1.502 . S
C1086 H1072 0.960 . S
C1086 H1073 0.961 . S
C1086 H1074 0.959 . S
C1086 C1084 1.561 . S
C1087 C1084 1.526 . S
C1087 C1088 1.396 . S
C1087 C1092 1.390 . S
C1088 C1082 1.465 . S
C1088 C1087 1.396 . S
C1088 C1089 1.399 . S
C1089 H1075 0.929 . S
C1089 C1088 1.399 . S
C1089 C1090 1.385 . S
C1090 H1076 0.931 . S
C1090 C1089 1.385 . S
C1090 C1091 1.389 . S
C1091 C1090 1.389 . S
C1091 C1092 1.387 . S
C1092 H1077 0.930 . S
C1092 C1087 1.390 . S
C1092 C1091 1.387 . S
H1093 C1105 0.930 . S
H1094 C1107 0.930 . S
H1095 C1108 0.930 . S
H1096 C1112 0.959 . S
H1097 C1112 0.959 . S
H1098 C1112 0.961 . S
H1099 C1113 0.960 . S
H1100 C1113 0.961 . S
H1101 C1113 0.959 . S
H1102 C1116 0.929 . S
H1103 C1117 0.931 . S
H1104 C1119 0.930 . S
C1105 H1093 0.930 . S
C1105 C1106 1.399 . S
C1105 C1110 1.399 . S
C1106 C1105 1.399 . S
C1106 C1107 1.376 . S
C1107 H1094 0.930 . S
C1107 C1106 1.376 . S
C1107 C1108 1.388 . S
C1108 H1095 0.930 . S
C1108 C1107 1.388 . S
C1108 C1109 1.390 . S
C1109 C1108 1.390 . S
C1109 C1110 1.394 . S
C1109 C1115 1.465 . S
C1110 C1105 1.399 . S
C1110 C1109 1.394 . S
C1110 C1111 1.516 . S
C1111 C1110 1.516 . S
C1111 C1112 1.502 . S
C1111 C1113 1.561 . S
C1111 C1114 1.526 . S
C1112 H1096 0.959 . S
C1112 H1097 0.959 . S
C1112 H1098 0.961 . S
C1112 C1111 1.502 . S
C1113 H1099 0.960 . S
C1113 H1100 0.961 . S
C1113 H1101 0.959 . S
C1113 C1111 1.561 . S
C1114 C1111 1.526 . S
C1114 C1115 1.396 . S
C1114 C1119 1.390 . S
C1115 C1109 1.465 . S
C1115 C1114 1.396 . S
C1115 C1116 1.399 . S
C1116 H1102 0.929 . S
C1116 C1115 1.399 . S
C1116 C1117 1.385 . S
C1117 H1103 0.931 . S
C1117 C1116 1.385 . S
C1117 C1118 1.389 . S
C1118 C1117 1.389 . S
C1118 C1119 1.387 . S
C1119 H1104 0.930 . S
C1119 C1114 1.390 . S
C1119 C1118 1.387 . S
C485 C1 0.986 . S
C497 C316 0.914 . S
C512 C40 1.163 . S
C524 C377 1.250 . S
C551 C415 2.476 . S
C539 C99 2.568 . S
C566 C118 2.319 . S
C578 C455 2.299 . S
C605 C375 1.285 . S
C593 C16 1.295 . S
C632 C343 2.154 . S
C620 C60 2.033 . S
C659 C452 1.754 . S
C647 C79 1.748 . S
C686 C412 1.804 . S
C674 C138 1.834 . S
C701 C21 1.061 . S
C713 C457 1.144 . S
C740 C372 2.400 . S
C728 C94 2.386 . S
C755 C133 2.156 . S
C767 C314 2.140 . S
C782 C55 1.501 . S
C794 C417 1.601 . S
C821 C337 0.958 . S
C809 C157 0.955 . S
C836 C196 1.209 . S
C848 C356 1.240 . S
C863 C255 2.553 . S
C875 C394 2.511 . S
C890 C289 2.326 . S
C902 C434 2.286 . S
C917 C172 1.219 . S
C929 C354 1.296 . S
C956 C332 2.152 . S
C944 C216 2.039 . S
C983 C463 1.731 . S
C971 C235 1.761 . S
C1010 C423 1.809 . S
C998 C294 1.837 . S
C1025 C177 1.070 . S
C1037 C436 1.125 . S
C1064 C383 2.401 . S
C1052 C250 2.397 . S
C1091 C335 2.142 . S
C1079 C274 2.164 . S
C1106 C211 1.487 . S
C1118 C396 1.600 . S
