# Generated by pormake.
# Topology zzz, (3,6)-cn, num edge types: 1
# Building blocks:
#     Node 0, Type 0, BuildingBlock: CUQRIR_clean_linker_1, # of connection points: 3
#     Node 1, Type 0, BuildingBlock: CUQRIR_clean_linker_1, # of connection points: 3
#     Node 2, Type 0, BuildingBlock: CUQRIR_clean_linker_1, # of connection points: 3
#     Node 3, Type 0, BuildingBlock: CUQRIR_clean_linker_1, # of connection points: 3
#     Node 4, Type 0, BuildingBlock: CUQRIR_clean_linker_1, # of connection points: 3
#     Node 5, Type 0, BuildingBlock: CUQRIR_clean_linker_1, # of connection points: 3
#     Node 6, Type 0, BuildingBlock: CUQRIR_clean_linker_1, # of connection points: 3
#     Node 7, Type 0, BuildingBlock: CUQRIR_clean_linker_1, # of connection points: 3
#     Node 8, Type 1, BuildingBlock: BETFAJ_clean_sbu_0, # of connection points: 6
#     Node 9, Type 1, BuildingBlock: BETFAJ_clean_sbu_0, # of connection points: 6
#     Node 10, Type 1, BuildingBlock: BETFAJ_clean_sbu_0, # of connection points: 6
#     Node 11, Type 1, BuildingBlock: BETFAJ_clean_sbu_0, # of connection points: 6
#     Edge 12, Type (0, 1), BuildingBlock: MIFKUJ_clean_linker_0, # of connection points: 2
#     Edge 13, Type (0, 1), BuildingBlock: MIFKUJ_clean_linker_0, # of connection points: 2
#     Edge 14, Type (0, 1), BuildingBlock: MIFKUJ_clean_linker_0, # of connection points: 2
#     Edge 15, Type (0, 1), BuildingBlock: MIFKUJ_clean_linker_0, # of connection points: 2
#     Edge 16, Type (0, 1), BuildingBlock: MIFKUJ_clean_linker_0, # of connection points: 2
#     Edge 17, Type (0, 1), BuildingBlock: MIFKUJ_clean_linker_0, # of connection points: 2
#     Edge 18, Type (0, 1), BuildingBlock: MIFKUJ_clean_linker_0, # of connection points: 2
#     Edge 19, Type (0, 1), BuildingBlock: MIFKUJ_clean_linker_0, # of connection points: 2
#     Edge 20, Type (0, 1), BuildingBlock: MIFKUJ_clean_linker_0, # of connection points: 2
#     Edge 21, Type (0, 1), BuildingBlock: MIFKUJ_clean_linker_0, # of connection points: 2
#     Edge 22, Type (0, 1), BuildingBlock: MIFKUJ_clean_linker_0, # of connection points: 2
#     Edge 23, Type (0, 1), BuildingBlock: MIFKUJ_clean_linker_0, # of connection points: 2
#     Edge 24, Type (0, 1), BuildingBlock: MIFKUJ_clean_linker_0, # of connection points: 2
#     Edge 25, Type (0, 1), BuildingBlock: MIFKUJ_clean_linker_0, # of connection points: 2
#     Edge 26, Type (0, 1), BuildingBlock: MIFKUJ_clean_linker_0, # of connection points: 2
#     Edge 27, Type (0, 1), BuildingBlock: MIFKUJ_clean_linker_0, # of connection points: 2
#     Edge 28, Type (0, 1), BuildingBlock: MIFKUJ_clean_linker_0, # of connection points: 2
#     Edge 29, Type (0, 1), BuildingBlock: MIFKUJ_clean_linker_0, # of connection points: 2
#     Edge 30, Type (0, 1), BuildingBlock: MIFKUJ_clean_linker_0, # of connection points: 2
#     Edge 31, Type (0, 1), BuildingBlock: MIFKUJ_clean_linker_0, # of connection points: 2
#     Edge 32, Type (0, 1), BuildingBlock: MIFKUJ_clean_linker_0, # of connection points: 2
#     Edge 33, Type (0, 1), BuildingBlock: MIFKUJ_clean_linker_0, # of connection points: 2
#     Edge 34, Type (0, 1), BuildingBlock: MIFKUJ_clean_linker_0, # of connection points: 2
#     Edge 35, Type (0, 1), BuildingBlock: MIFKUJ_clean_linker_0, # of connection points: 2
# Relax obj value: 0.248
# Max RMSD: 0.178
# Mean RMSD: 0.159
data_MOF--net-zzz--node1-BETFAJ_clean_sbu_0--node2-CUQRIR_clean_linker_1--edge1-MIFKUJ_clean_linker_0
_symmetry_space_group_name_H-M    P1
_symmetry_Int_Tables_number       1
_symmetry_cell_setting            triclinic
loop_
_symmetry_equiv_pos_as_xyz
'x, y, z'
_cell_length_a     65.035426
_cell_length_b     65.156485
_cell_length_c     15.679169
_cell_angle_alpha  89.993199
_cell_angle_beta   90.136232
_cell_angle_gamma 90.173368
loop_
_atom_site_label
_atom_site_type_symbol
_atom_site_fract_x
_atom_site_fract_y
_atom_site_fract_z
_atom_type_partial_charge
C0 C 0.74976 0.51667 0.38725 0.0
N1 N 0.7685 0.52606 0.38931 0.0
N2 N 0.73701 0.52606 0.33021 0.0
C3 C 0.74468 0.49727 0.434 0.0
C4 C 0.7487 0.54138 0.29793 0.0
N5 N 0.76765 0.54145 0.33351 0.0
C6 C 0.74183 0.55569 0.22827 0.0
H7 H 0.75154 0.48412 0.39939 0.0
H8 H 0.72779 0.49496 0.43783 0.0
H9 H 0.75142 0.49765 0.49906 0.0
H10 H 0.72531 0.55948 0.23593 0.0
H11 H 0.74373 0.54797 0.16572 0.0
H12 H 0.75109 0.57003 0.22846 0.0
C13 C 0.01618 0.74234 0.34857 0.0
N14 N 0.0277 0.75876 0.37317 0.0
N15 N 0.02829 0.72727 0.31584 0.0
C16 C 0.99318 0.74141 0.35263 0.0
C17 C 0.04748 0.73536 0.32 0.0
N18 N 0.04716 0.75435 0.35496 0.0
C19 C 0.06625 0.72536 0.28299 0.0
H20 H 0.98778 0.72526 0.35638 0.0
H21 H 0.98678 0.74843 0.29386 0.0
H22 H 0.98748 0.75024 0.40825 0.0
H23 H 0.0655 0.72639 0.21241 0.0
H24 H 0.06664 0.70887 0.30036 0.0
H25 H 0.08056 0.73294 0.30566 0.0
C26 C 0.78081 0.01956 0.30636 0.0
N27 N 0.76253 0.02968 0.30952 0.0
N28 N 0.79413 0.02917 0.25233 0.0
C29 C 0.78577 1.00061 0.35643 0.0
C30 C 0.78314 0.04521 0.22186 0.0
N31 N 0.76416 0.04559 0.25682 0.0
C32 C 0.79025 0.05928 0.15149 0.0
H33 H 0.77749 1.00061 0.41824 0.0
H34 H 0.80258 0.99942 0.3677 0.0
H35 H 0.78071 0.98697 0.31947 0.0
H36 H 0.80136 0.05145 0.10897 0.0
H37 H 0.79801 0.07279 0.18038 0.0
H38 H 0.77713 0.06483 0.11261 0.0
C39 C 0.51348 0.777 0.32445 0.0
N40 N 0.50324 0.75885 0.33289 0.0
N41 N 0.50426 0.78913 0.26474 0.0
C42 C 0.53274 0.78259 0.37179 0.0
C43 C 0.48813 0.77767 0.23745 0.0
N44 N 0.48749 0.75947 0.27878 0.0
C45 C 0.47403 0.78364 0.16544 0.0
H46 H 0.53304 0.7751 0.43535 0.0
H47 H 0.53405 0.79948 0.37914 0.0
H48 H 0.54619 0.77714 0.33482 0.0
H49 H 0.48049 0.77779 0.10472 0.0
H50 H 0.47266 0.80058 0.16068 0.0
H51 H 0.45852 0.77686 0.17377 0.0
C52 C 0.29462 0.50728 0.05632 0.0
N53 N 0.274 0.50373 0.05736 0.0
N54 N 0.30346 0.50138 0.13155 0.0
C55 C 0.30601 0.51664 0.98301 0.0
C56 C 0.28732 0.4944 0.17817 0.0
N57 N 0.2697 0.49563 0.13289 0.0
C58 C 0.28866 0.48725 0.26925 0.0
H59 H 0.32194 0.51063 0.98014 0.0
H60 H 0.30683 0.5335 0.99248 0.0
H61 H 0.29789 0.51356 0.92199 0.0
H62 H 0.30031 0.49636 0.30472 0.0
H63 H 0.29348 0.47094 0.27021 0.0
H64 H 0.27361 0.48843 0.30193 0.0
C65 C 0.01788 0.27875 0.11024 0.0
N66 N 1.00698 0.26105 0.09986 0.0
N67 N 1.00689 0.29277 0.15583 0.0
C68 C 0.03955 0.2819 0.08064 0.0
C69 C 0.98907 0.2828 0.17335 0.0
N70 N 0.98911 0.26374 0.13923 0.0
C71 C 0.9722 0.29136 0.22828 0.0
H72 H 0.05018 0.27513 0.12835 0.0
H73 H 0.04312 0.29849 0.07417 0.0
H74 H 0.0421 0.27402 0.01887 0.0
H75 H 0.96503 0.30459 0.19525 0.0
H76 H 0.97879 0.29709 0.28917 0.0
H77 H 0.96005 0.27986 0.24188 0.0
C78 C 0.24714 1.00681 0.10102 0.0
N79 N 0.2637 0.99456 0.08695 0.0
N80 N 0.23214 0.99638 0.14341 0.0
C81 C 0.2459 0.02903 0.07702 0.0
C82 C 0.24037 0.97755 0.15563 0.0
N83 N 0.25938 0.97639 0.12125 0.0
C84 C 0.23108 0.96136 0.21221 0.0
H85 H 0.25252 0.03838 0.12952 0.0
H86 H 0.22966 0.03369 0.06756 0.0
H87 H 0.25488 0.03207 0.01824 0.0
H88 H 0.23683 0.9459 0.19504 0.0
H89 H 0.21406 0.96155 0.20765 0.0
H90 H 0.23545 0.96463 0.27932 0.0
C91 C 0.51339 0.23931 0.07687 0.0
N92 N 0.50405 0.258 0.08008 0.0
N93 N 0.50503 0.2262 0.13524 0.0
C94 C 0.53079 0.23395 0.01863 0.0
C95 C 0.49061 0.23771 0.17453 0.0
N96 N 0.48992 0.2568 0.14111 0.0
C97 C 0.4789 0.23097 0.25236 0.0
H98 H 0.53102 0.2172 0.00583 0.0
H99 H 0.54549 0.23828 0.04994 0.0
H100 H 0.52953 0.24258 0.9578 0.0
H101 H 0.48966 0.23004 0.30724 0.0
H102 H 0.47229 0.21545 0.24218 0.0
H103 H 0.46634 0.24181 0.26802 0.0
Sm104 Sm 0.02347 1.00478 0.80773 0.0
Sm105 Sm 1.00693 0.01843 0.61611 0.0
C106 C 0.02667 0.99355 0.96874 0.0
C107 C 0.03917 0.97834 0.01354 0.0
C108 C 0.03698 0.97552 0.10158 0.0
C109 C 0.04744 0.95959 0.14259 0.0
C110 C 0.0601 0.94628 0.09567 0.0
C111 C 0.06293 0.94981 0.00805 0.0
C112 C 0.05254 0.96573 0.9673 0.0
C113 C 0.05552 1.00822 0.68932 0.0
C114 C 0.01546 0.96907 0.66288 0.0
C115 C 1.00353 0.02799 0.45325 0.0
C116 C 0.98952 0.04011 0.39987 0.0
C117 C 0.99739 0.051 0.33022 0.0
C118 C 0.98467 0.06405 0.28336 0.0
C119 C 0.96388 0.06652 0.3058 0.0
C120 C 0.95583 0.05482 0.37328 0.0
C121 C 0.96856 0.04174 0.42009 0.0
C122 C 0.97481 0.01545 0.73397 0.0
C123 C 0.01588 0.05417 0.76218 0.0
O124 O 0.01286 0.9859 0.9164 0.0
O125 O 0.03678 1.00918 0.93673 0.0
O126 O 0.0366 1.01099 0.67886 0.0
O127 O 0.05835 1.00328 0.76882 0.0
O128 O 0.0164 0.97324 0.74569 0.0
O129 O 0.01452 0.98363 0.60357 0.0
O130 O 0.01515 0.03842 0.50657 0.0
O131 O 0.99589 1.0111 0.48621 0.0
O132 O 0.99362 0.01184 0.74428 0.0
O133 O 0.97222 0.02114 0.65521 0.0
O134 O 0.01461 0.04995 0.67914 0.0
O135 O 0.01676 0.03956 0.82125 0.0
H136 H 0.02667 0.98517 0.13796 0.0
H137 H 0.0448 0.95706 0.20997 0.0
H138 H 0.07271 0.93985 0.9706 0.0
H139 H 0.05442 0.9678 0.89917 0.0
H140 H 0.01352 0.0499 0.31366 0.0
H141 H 0.99142 0.07297 0.23229 0.0
H142 H 0.93988 0.05636 0.39181 0.0
H143 H 0.96218 0.03343 0.47373 0.0
Sm144 Sm 0.52188 0.02207 0.80963 0.0
Sm145 Sm 0.50956 1.00093 0.62667 0.0
C146 C 0.53141 0.03063 0.96899 0.0
C147 C 0.54373 0.0465 0.01227 0.0
C148 C 0.55792 0.04058 0.07464 0.0
C149 C 0.57153 0.05492 0.10917 0.0
C150 C 0.57114 0.07557 0.08248 0.0
C151 C 0.55609 0.08169 0.02326 0.0
C152 C 0.54257 0.06726 0.98805 0.0
C153 C 0.51883 0.05142 0.67956 0.0
C154 C 0.55869 0.01115 0.67121 0.0
C155 C 0.49769 0.9938 0.4687 0.0
C156 C 0.48118 0.98068 0.43614 0.0
C157 C 0.46737 0.97188 0.49415 0.0
C158 C 0.4503 0.96109 0.46474 0.0
C159 C 0.44691 0.95875 0.3769 0.0
C160 C 0.46132 0.96659 0.31871 0.0
C161 C 0.4784 0.97766 0.34835 0.0
C162 C 0.51308 0.97117 0.75449 0.0
C163 C 0.47304 1.01018 0.76688 0.0
O164 O 0.54177 0.01734 0.92308 0.0
O165 O 0.5143 0.03674 0.93264 0.0
O166 O 0.51565 0.03239 0.67612 0.0
O167 O 0.52372 0.05582 0.75775 0.0
O168 O 0.55405 0.01535 0.75194 0.0
O169 O 0.5445 1.00708 0.61243 0.0
O170 O 0.49139 1.00964 0.51304 0.0
O171 O 0.51308 0.9841 0.50455 0.0
O172 O 0.51557 0.99033 0.76123 0.0
O173 O 0.50852 0.96715 0.67558 0.0
O174 O 0.47748 1.00756 0.68502 0.0
O175 O 0.48742 0.01335 0.82566 0.0
H176 H 0.55909 0.02465 0.09394 0.0
H177 H 0.58318 0.04945 0.15304 0.0
H178 H 0.55526 0.09747 0.00183 0.0
H179 H 0.53172 0.07222 0.93984 0.0
H180 H 0.46942 0.97397 0.56223 0.0
H181 H 0.43936 0.95509 0.51054 0.0
H182 H 0.45884 0.96503 0.25068 0.0
H183 H 0.48902 0.98434 0.30299 0.0
Sm184 Sm 0.50851 0.51282 0.796 0.0
Sm185 Sm 0.53471 0.5073 0.65534 0.0
C186 C 0.48841 0.52402 0.93493 0.0
C187 C 0.47493 0.54134 0.95696 0.0
C188 C 0.48143 0.56161 0.94329 0.0
C189 C 0.46849 0.57792 0.96254 0.0
C190 C 0.44862 0.5744 0.99484 0.0
C191 C 0.44202 0.55408 0.00788 0.0
C192 C 0.45511 0.53767 0.9891 0.0
C193 C 0.48626 0.50351 0.64948 0.0
C194 C 0.52204 0.55435 0.68497 0.0
C195 C 0.55046 0.49566 0.50786 0.0
C196 C 0.54045 0.48321 0.44214 0.0
C197 C 0.519 0.48093 0.44425 0.0
C198 C 0.50933 0.46635 0.39323 0.0
C199 C 0.52098 0.45369 0.33944 0.0
C200 C 0.5423 0.45726 0.33219 0.0
C201 C 0.55201 0.47187 0.38382 0.0
C202 C 0.55762 0.5161 0.80072 0.0
C203 C 0.52021 0.46652 0.76169 0.0
O204 O 0.50785 0.52824 0.92199 0.0
O205 O 0.48098 0.51103 0.87946 0.0
O206 O 0.50101 0.51613 0.65405 0.0
O207 O 0.48328 0.49493 0.72293 0.0
O208 O 0.51287 0.54723 0.75431 0.0
O209 O 0.53119 0.54169 0.6324 0.0
O210 O 0.54219 0.5136 0.51995 0.0
O211 O 0.55422 0.48608 0.57935 0.0
O212 O 0.54236 0.50401 0.79758 0.0
O213 O 0.56131 0.52353 0.72573 0.0
O214 O 0.5233 0.47379 0.68404 0.0
O215 O 0.51739 0.47942 0.82487 0.0
H216 H 0.49656 0.56497 0.91807 0.0
H217 H 0.47435 0.59336 0.95394 0.0
H218 H 0.42686 0.55088 0.03311 0.0
H219 H 0.44979 0.52212 0.99987 0.0
H220 H 0.50983 0.48957 0.48922 0.0
H221 H 0.49296 0.46393 0.40135 0.0
H222 H 0.55163 0.44795 0.29023 0.0
H223 H 0.56858 0.47356 0.38131 0.0
Sm224 Sm 0.01817 0.49809 0.82086 0.0
Sm225 Sm 0.02442 0.52263 0.64005 0.0
C226 C 0.01501 0.48958 0.98536 0.0
C227 C 1.0014 0.49464 0.05729 0.0
C228 C 0.99912 0.51493 0.0864 0.0
C229 C 0.98296 0.51996 0.14097 0.0
C230 C 0.96896 0.50477 0.16672 0.0
C231 C 0.97267 0.4842 0.14552 0.0
C232 C 0.98887 0.47915 0.09152 0.0
C233 C 0.02546 0.47089 0.68686 0.0
C234 C 0.97696 0.51142 0.70794 0.0
C235 C 0.02521 0.53076 0.47501 0.0
C236 C 0.03556 0.525 0.396 0.0
C237 C 0.04553 0.50605 0.38838 0.0
C238 C 0.0583 0.50235 0.31871 0.0
C239 C 0.06138 0.51766 0.25686 0.0
C240 C 0.04997 0.53587 0.26103 0.0
C241 C 0.03709 0.53951 0.33034 0.0
C242 C 0.01776 0.5503 0.77278 0.0
C243 C 0.06561 0.50907 0.75253 0.0
O244 O 0.0269 0.5042 0.95555 0.0
O245 O 1.00666 0.47833 0.92512 0.0
O246 O 0.02445 0.49017 0.68444 0.0
O247 O 0.02304 0.46516 0.76546 0.0
O248 O 0.98403 0.50447 0.78232 0.0
O249 O 0.98929 0.51784 0.64623 0.0
O250 O 0.01296 0.51702 0.50903 0.0
O251 O 0.03648 0.54064 0.53118 0.0
O252 O 0.01825 0.53092 0.77703 0.0
O253 O 0.02078 0.55561 0.69401 0.0
O254 O 0.05844 0.51513 0.67684 0.0
O255 O 0.05328 0.5036 0.81603 0.0
H256 H 1.00891 0.52711 0.06299 0.0
H257 H 0.98034 0.53594 0.15658 0.0
H258 H 0.96207 0.47225 0.16527 0.0
H259 H 0.99065 0.46333 0.07157 0.0
H260 H 0.04442 0.49468 0.43862 0.0
H261 H 0.06719 0.48831 0.31733 0.0
H262 H 0.05216 0.54784 0.21395 0.0
H263 H 0.02933 0.55415 0.33523 0.0
H264 H 0.22928 0.01518 0.29567 0.0
H265 H 0.19771 0.0204 0.37889 0.0
H266 H 0.16157 0.99788 0.16764 0.0
H267 H 0.19331 0.99268 0.08492 0.0
H268 H 0.14179 0.03044 0.25602 0.0
H269 H 0.17347 0.96557 0.31943 0.0
H270 H 0.20221 0.94299 0.36039 0.0
H271 H 0.20822 0.97482 0.59897 0.0
H272 H 0.17962 0.99773 0.55905 0.0
H273 H 0.05265 1.00663 0.51347 0.0
H274 H 0.08109 1.00692 0.41037 0.0
H275 H 0.12435 0.01499 0.61706 0.0
H276 H 0.09621 0.01345 0.71927 0.0
H277 H 0.13965 0.98903 0.52119 0.0
H278 H 0.10812 0.05446 0.45905 0.0
H279 H 0.07998 0.0777 0.41709 0.0
H280 H 0.0739 0.04621 0.17779 0.0
H281 H 0.10182 0.02259 0.21882 0.0
C282 C 0.21452 0.01206 0.26631 0.0
C283 C 0.21364 1.00391 0.18352 0.0
C284 C 0.19648 0.01484 0.31398 0.0
C285 C 0.17714 1.00938 0.28006 0.0
C286 C 0.17619 1.00231 0.19535 0.0
C287 C 0.19429 0.99943 0.14789 0.0
C288 C 0.15835 1.00923 0.33553 0.0
C289 C 0.14121 0.02127 0.31371 0.0
C290 C 0.15753 0.99742 0.41128 0.0
C291 C 0.17452 0.98347 0.43594 0.0
C292 C 0.181 0.96783 0.38042 0.0
C293 C 0.19725 0.95496 0.40348 0.0
C294 C 0.20708 0.95752 0.48209 0.0
C295 C 0.20061 0.97288 0.53803 0.0
C296 C 0.18436 0.98579 0.51529 0.0
C297 C 0.06825 1.00861 0.53648 0.0
C298 C 0.07218 1.01002 0.62456 0.0
C299 C 0.08457 1.0089 0.47741 0.0
C300 C 0.10515 0.01121 0.50497 0.0
C301 C 0.10882 0.01306 0.59316 0.0
C302 C 0.09265 0.01228 0.65191 0.0
C303 C 0.12305 1.01084 0.44391 0.0
C304 C 0.14008 0.99842 0.4641 0.0
C305 C 0.12372 0.02244 0.36709 0.0
C306 C 0.10692 0.03662 0.34242 0.0
C307 C 0.10068 0.05239 0.39776 0.0
C308 C 0.08478 0.06565 0.37409 0.0
C309 C 0.07512 0.0634 0.29492 0.0
C310 C 0.08137 0.04791 0.23916 0.0
C311 C 0.09724 0.03459 0.26257 0.0
H312 H 0.06282 0.07369 0.27669 0.0
H313 H 0.21969 0.94756 0.49976 0.0
H314 H 0.53775 0.21505 0.23102 0.0
H315 H 0.54247 0.18186 0.30323 0.0
H316 H 0.48898 0.15804 0.17301 0.0
H317 H 0.48428 0.19135 0.10248 0.0
H318 H 0.48487 0.15005 0.33117 0.0
H319 H 0.53927 0.13906 0.13778 0.0
H320 H 0.57101 0.14526 0.05599 0.0
H321 H 0.60581 0.14844 0.2886 0.0
H322 H 0.57422 0.14264 0.37205 0.0
H323 H 0.4988 0.04974 0.52361 0.0
H324 H 0.49823 0.07638 0.4119 0.0
H325 H 0.53929 0.11378 0.56244 0.0
H326 H 0.53946 0.08759 0.6743 0.0
H327 H 0.5495 0.11163 0.38056 0.0
H328 H 0.49179 0.12528 0.56958 0.0
H329 H 0.45959 0.11581 0.64273 0.0
H330 H 0.43067 0.10386 0.40122 0.0
H331 H 0.46282 0.113 0.32669 0.0
C332 C 0.52754 0.20242 0.21566 0.0
C333 C 0.51089 0.2056 0.15996 0.0
C334 C 0.53014 0.18343 0.2572 0.0
C335 C 0.51612 0.16715 0.24398 0.0
C336 C 0.50005 0.17016 0.18495 0.0
C337 C 0.49747 0.18913 0.1437 0.0
C338 C 0.51695 0.14792 0.29748 0.0
C339 C 0.499 0.14151 0.34024 0.0
C340 C 0.5353 0.13658 0.31097 0.0
C341 C 0.55427 0.14074 0.2613 0.0
C342 C 0.55363 0.1414 0.17164 0.0
C343 C 0.5716 0.1448 0.12495 0.0
C344 C 0.59037 0.14742 0.16713 0.0
C345 C 0.59123 0.14654 0.25607 0.0
C346 C 0.57328 0.1432 0.3031 0.0
C347 C 0.50784 0.06353 0.53231 0.0
C348 C 0.51916 0.0665 0.60789 0.0
C349 C 0.50748 0.0788 0.46856 0.0
C350 C 0.51876 0.09717 0.47846 0.0
C351 C 0.53054 0.09979 0.55281 0.0
C352 C 0.53054 0.08479 0.617 0.0
C353 C 0.51759 0.11419 0.41417 0.0
C354 C 0.53543 0.12017 0.37006 0.0
C355 C 0.49909 0.12491 0.39793 0.0
C356 C 0.47976 0.11958 0.44267 0.0
C357 C 0.47861 0.12046 0.53214 0.0
C358 C 0.46037 0.11519 0.57383 0.0
C359 C 0.44312 0.10918 0.52667 0.0
C360 C 0.44406 0.10849 0.43768 0.0
C361 C 0.46228 0.11372 0.39568 0.0
H362 H 0.42901 0.1051 0.55906 0.0
H363 H 0.60428 0.15001 0.13088 0.0
H364 H 0.32655 0.46969 0.18538 0.0
H365 H 0.35984 0.47146 0.25862 0.0
H366 H 0.3619 0.53683 0.21688 0.0
H367 H 0.32826 0.53498 0.14384 0.0
H368 H 0.40177 0.51719 0.20228 0.0
H369 H 0.34589 0.52132 0.40158 0.0
H370 H 0.31312 0.51026 0.46591 0.0
H371 H 0.33961 0.45194 0.52968 0.0
H372 H 0.37249 0.46257 0.46475 0.0
H373 H 0.47725 0.53376 0.53279 0.0
H374 H 0.44824 0.53486 0.43291 0.0
H375 H 0.43058 0.47366 0.50944 0.0
H376 H 0.45877 0.47318 0.61291 0.0
H377 H 0.39829 0.49393 0.50319 0.0
H378 H 0.4536 0.4884 0.29797 0.0
H379 H 0.48649 0.49884 0.23264 0.0
H380 H 0.46199 0.5587 0.18103 0.0
H381 H 0.42894 0.5486 0.24597 0.0
C382 C 0.33429 0.48437 0.19055 0.0
C383 C 0.32476 0.5022 0.15927 0.0
C384 C 0.35332 0.4854 0.23253 0.0
C385 C 0.36339 0.50432 0.24459 0.0
C386 C 0.35453 0.52203 0.20856 0.0
C387 C 0.33534 0.52099 0.16655 0.0
C388 C 0.38203 0.50558 0.30126 0.0
C389 C 0.40099 0.51231 0.26834 0.0
C390 C 0.38124 0.499 0.38736 0.0
C391 C 0.3616 0.49269 0.4277 0.0
C392 C 0.34469 0.50609 0.4289 0.0
C393 C 0.32611 0.49991 0.46557 0.0
C394 C 0.32426 0.48039 0.50166 0.0
C395 C 0.34105 0.46705 0.50157 0.0
C396 C 0.35967 0.47316 0.46498 0.0
C397 C 0.46729 0.52047 0.52748 0.0
C398 C 0.4703 0.50339 0.58098 0.0
C399 C 0.45069 0.52103 0.46969 0.0
C400 C 0.43704 0.50424 0.46193 0.0
C401 C 0.4406 0.48693 0.51374 0.0
C402 C 0.45684 0.48659 0.57282 0.0
C403 C 0.41845 0.50494 0.4041 0.0
C404 C 0.3993 0.49871 0.43707 0.0
C405 C 0.41919 0.51185 0.31808 0.0
C406 C 0.43885 0.51778 0.27714 0.0
C407 C 0.45524 0.50379 0.27269 0.0
C408 C 0.4739 0.50964 0.23566 0.0
C409 C 0.47632 0.52943 0.20272 0.0
C410 C 0.46008 0.54339 0.20657 0.0
C411 C 0.44135 0.53758 0.24304 0.0
H412 H 0.49077 0.53395 0.17406 0.0
H413 H 0.30985 0.47562 0.52986 0.0
H414 H 0.98902 0.32937 0.12479 0.0
H415 H 0.99506 0.36173 0.20124 0.0
H416 H 0.04416 0.3332 0.34312 0.0
H417 H 0.03778 0.30074 0.26702 0.0
H418 H 0.01802 0.35231 0.44804 0.0
H419 H 0.05231 0.37094 0.18684 0.0
H420 H 0.05514 0.37639 0.03169 0.0
H421 H 1.00627 0.4205 0.04111 0.0
H422 H 1.00288 0.41504 0.19608 0.0
H423 H 0.04913 0.43695 0.68586 0.0
H424 H 0.04947 0.40921 0.58139 0.0
H425 H 1.00631 0.44255 0.42491 0.0
H426 H 1.00721 0.47118 0.52761 0.0
H427 H 0.02897 0.42145 0.32357 0.0
H428 H 0.99188 0.40236 0.57365 0.0
H429 H 0.98627 0.39745 0.72784 0.0
H430 H 0.03615 0.35448 0.73745 0.0
H431 H 0.04223 0.35933 0.58346 0.0
C432 C 1.00137 0.3302 0.17112 0.0
C433 C 0.01304 0.3126 0.18956 0.0
C434 C 1.00487 0.34873 0.21476 0.0
C435 C 0.02018 0.35014 0.27812 0.0
C436 C 0.03229 0.33266 0.2946 0.0
C437 C 0.02881 0.31414 0.25059 0.0
C438 C 0.0225 0.3692 0.33163 0.0
C439 C 0.02078 0.36735 0.42063 0.0
C440 C 0.02515 0.38912 0.29637 0.0
C441 C 0.0272 0.3924 0.20307 0.0
C442 C 0.04203 0.38165 0.15575 0.0
C443 C 0.04375 0.38477 0.06781 0.0
C444 C 0.03084 0.39873 0.0265 0.0
C445 C 0.01623 0.40965 0.07312 0.0
C446 C 0.0144 0.40655 0.16103 0.0
C447 C 0.04009 0.43859 0.62812 0.0
C448 C 0.02814 0.45623 0.61501 0.0
C449 C 0.04006 0.42254 0.56868 0.0
C450 C 0.02726 0.42318 0.49617 0.0
C451 C 0.01617 0.44139 0.48045 0.0
C452 C 0.01672 0.45783 0.53905 0.0
C453 C 0.02483 0.40449 0.44016 0.0
C454 C 0.02633 0.40639 0.35094 0.0
C455 C 0.02148 0.38459 0.47484 0.0
C456 C 0.01762 0.38135 0.56716 0.0
C457 C 1.00171 0.39193 0.60873 0.0
C458 C 0.99844 0.38916 0.69608 0.0
C459 C 1.01088 0.3757 0.74246 0.0
C460 C 0.02654 0.36492 0.70147 0.0
C461 C 0.02989 0.36765 0.61413 0.0
H462 H 1.00836 0.37361 0.81013 0.0
H463 H 0.0322 0.40111 0.95842 0.0
H464 H 0.82867 0.05171 0.26842 0.0
H465 H 0.86152 0.04601 0.19539 0.0
H466 H 0.8385 0.98844 0.09802 0.0
H467 H 0.80556 0.99436 0.171 0.0
H468 H 0.89255 0.01758 0.18784 0.0
H469 H 0.8529 0.98501 0.88793 0.0
H470 H 0.81886 0.98547 0.81797 0.0
H471 H 0.80583 0.04386 0.93243 0.0
H472 H 0.83989 0.0439 0.00183 0.0
H473 H 0.97196 0.9925 0.88191 0.0
H474 H 0.94297 0.99124 0.98227 0.0
H475 H 0.91172 0.03768 0.83488 0.0
H476 H 0.9399 0.03788 0.73275 0.0
H477 H 0.88514 0.01199 0.87389 0.0
H478 H 0.93975 0.04375 0.03975 0.0
H479 H 0.97438 0.04384 0.10432 0.0
H480 H 0.95806 0.99211 0.25968 0.0
H481 H 0.92367 0.99103 0.19318 0.0
C482 C 0.83092 0.03758 0.2334 0.0
C483 C 0.81464 0.02343 0.22564 0.0
C484 C 0.84968 0.03431 0.19158 0.0
C485 C 0.85255 0.0169 0.14006 0.0
C486 C 0.8367 1.00209 0.13666 0.0
C487 C 0.81793 1.00535 0.17895 0.0
C488 C 0.87111 0.01541 0.08347 0.0
C489 C 0.89097 0.01626 0.11918 0.0
C490 C 0.8692 0.01398 0.99365 0.0
C491 C 0.84884 0.01431 0.95082 0.0
C492 C 0.84279 0.99797 0.89784 0.0
C493 C 0.8235 0.99815 0.85831 0.0
C494 C 0.81016 0.01465 0.871 0.0
C495 C 0.81614 0.03106 0.92287 0.0
C496 C 0.83543 0.03098 0.96233 0.0
C497 C 0.95894 1.0025 0.87162 0.0
C498 C 0.95827 0.01535 0.7996 0.0
C499 C 0.94232 1.00185 0.92921 0.0
C500 C 0.92498 0.01456 0.9176 0.0
C501 C 0.92465 0.02758 0.84596 0.0
C502 C 0.94091 0.0278 0.78754 0.0
C503 C 0.90688 0.01427 0.97762 0.0
C504 C 0.88695 0.01314 0.94252 0.0
C505 C 0.90883 0.01579 0.06782 0.0
C506 C 0.92919 0.01713 0.11051 0.0
C507 C 0.94357 0.0323 0.08726 0.0
C508 C 0.96318 0.03248 0.12401 0.0
C509 C 0.96841 0.01796 0.18586 0.0
C510 C 0.95401 1.00329 0.21146 0.0
C511 C 0.93449 1.00281 0.17395 0.0
H512 H 0.98362 0.01807 0.21394 0.0
H513 H 0.79522 0.01473 0.84047 0.0
H514 H 0.50078 0.82637 0.33933 0.0
H515 H 0.50535 0.86003 0.27003 0.0
H516 H 0.52498 0.82971 0.03974 0.0
H517 H 0.52052 0.79625 0.10976 0.0
H518 H 0.54726 0.86396 0.06301 0.0
H519 H 0.47519 0.8473 0.0584 0.0
H520 H 0.44255 0.83659 0.12498 0.0
H521 H 0.44423 0.88955 0.28753 0.0
H522 H 0.47684 0.90076 0.22113 0.0
H523 H 0.51878 0.93064 0.72884 0.0
H524 H 0.52031 0.90291 0.83308 0.0
H525 H 0.51245 0.94653 0.03688 0.0
H526 H 0.51133 0.97479 0.93139 0.0
H527 H 0.4859 0.90887 0.04475 0.0
H528 H 0.55687 0.92767 0.02339 0.0
H529 H 0.58898 0.9365 0.94848 0.0
H530 H 0.5891 0.87736 0.82774 0.0
H531 H 0.55679 0.86828 0.90093 0.0
C532 C 0.5066 0.82704 0.27476 0.0
C533 C 0.51059 0.80878 0.23022 0.0
C534 C 0.50899 0.84624 0.23467 0.0
C535 C 0.51529 0.84758 0.14882 0.0
C536 C 0.52015 0.82927 0.10579 0.0
C537 C 0.51769 0.81013 0.1458 0.0
C538 C 0.51581 0.86779 0.10218 0.0
C539 C 0.53381 0.87371 0.05904 0.0
C540 C 0.49844 0.88089 0.09748 0.0
C541 C 0.47848 0.87478 0.13523 0.0
C542 C 0.46856 0.8567 0.10819 0.0
C543 C 0.45005 0.85058 0.1457 0.0
C544 C 0.44129 0.86247 0.21016 0.0
C545 C 0.45097 0.88052 0.23699 0.0
C546 C 0.46943 0.8868 0.19929 0.0
C547 C 0.51753 0.93446 0.79587 0.0
C548 C 0.51504 0.955 0.82163 0.0
C549 C 0.5184 0.91851 0.85557 0.0
C550 C 0.51654 0.92249 0.94318 0.0
C551 C 0.51393 0.94301 0.96969 0.0
C552 C 0.51343 0.95917 0.90948 0.0
C553 C 0.51733 0.90493 0.00522 0.0
C554 C 0.4995 0.89937 0.05045 0.0
C555 C 0.5348 0.89202 0.01102 0.0
C556 C 0.55431 0.89735 0.96724 0.0
C557 C 0.56365 0.9166 0.98036 0.0
C558 C 0.5819 0.92164 0.93828 0.0
C559 C 0.59106 0.90751 0.88327 0.0
C560 C 0.58199 0.88829 0.87036 0.0
C561 C 0.56371 0.88318 0.91221 0.0
H562 H 0.60519 0.91145 0.85075 0.0
H563 H 0.42701 0.85767 0.23945 0.0
H564 H 0.69953 0.53284 0.39847 0.0
H565 H 0.66608 0.52838 0.32642 0.0
H566 H 0.69699 0.50237 0.10873 0.0
H567 H 0.73012 0.50657 0.18184 0.0
H568 H 0.65177 0.54575 0.1901 0.0
H569 H 0.66606 0.47096 0.99541 0.0
H570 H 0.6837 0.43776 0.01317 0.0
H571 H 0.67894 0.44316 0.28533 0.0
H572 H 0.66102 0.47623 0.26923 0.0
H573 H 0.5906 0.54173 0.81594 0.0
H574 H 0.61801 0.5412 0.92295 0.0
H575 H 0.58832 0.49044 0.04956 0.0
H576 H 0.56066 0.49098 0.94212 0.0
H577 H 0.62912 0.48337 0.03436 0.0
H578 H 0.58812 0.53725 0.14184 0.0
H579 H 0.56793 0.56921 0.14014 0.0
H580 H 0.62171 0.60337 0.06811 0.0
H581 H 0.64219 0.57156 0.0683 0.0
C582 C 0.69896 0.52553 0.33651 0.0
C583 C 0.71729 0.51957 0.2965 0.0
C584 C 0.67991 0.52321 0.29471 0.0
C585 C 0.67876 0.51486 0.21183 0.0
C586 C 0.69716 0.50843 0.17303 0.0
C587 C 0.71614 0.51075 0.21486 0.0
C588 C 0.6587 0.51408 0.16361 0.0
C589 C 0.64686 0.53205 0.15637 0.0
C590 C 0.65173 0.49615 0.1208 0.0
C591 C 0.66235 0.47617 0.13104 0.0
C592 C 0.6687 0.46502 0.05903 0.0
C593 C 0.67876 0.44623 0.06882 0.0
C594 C 0.68249 0.43839 0.15033 0.0
C595 C 0.67611 0.44929 0.22224 0.0
C596 C 0.66603 0.46807 0.21281 0.0
C597 C 0.58977 0.53055 0.86696 0.0
C598 C 0.57337 0.51642 0.87031 0.0
C599 C 0.60547 0.53029 0.92848 0.0
C600 C 0.60533 0.51585 0.99514 0.0
C601 C 0.58888 0.50176 0.99902 0.0
C602 C 0.57299 0.50214 0.93775 0.0
C603 C 0.6227 0.51522 0.05858 0.0
C604 C 0.63402 0.49701 0.0685 0.0
C605 C 0.62892 0.53279 0.10551 0.0
C606 C 0.61666 0.55197 0.1044 0.0
C607 C 0.59561 0.55155 0.12489 0.0
C608 C 0.58412 0.56964 0.12439 0.0
C609 C 0.59352 0.5883 0.10391 0.0
C610 C 0.61445 0.5889 0.08393 0.0
C611 C 0.62601 0.57084 0.08433 0.0
H612 H 0.58461 0.6023 0.10368 0.0
H613 H 0.6903 0.42384 0.15776 0.0
H614 H 1.01134 0.72233 0.15992 0.0
H615 H 1.00663 0.68991 0.08218 0.0
H616 H 0.02837 0.65647 0.30213 0.0
H617 H 0.0337 0.68911 0.37796 0.0
H618 H 0.04545 0.64063 0.17299 0.0
H619 H 0.97579 0.65608 0.23079 0.0
H620 H 0.94412 0.67671 0.23767 0.0
H621 H 0.94384 0.68242 0.96485 0.0
H622 H 0.97568 0.66206 0.95636 0.0
H623 H 0.02332 0.54561 0.94771 0.0
H624 H 0.02181 0.57276 0.05752 0.0
H625 H 1.0067 0.61703 0.86273 0.0
H626 H 1.00766 0.59015 0.75527 0.0
H627 H 0.98404 0.62415 0.99804 0.0
H628 H 0.05668 0.60851 0.95033 0.0
H629 H 0.08742 0.58643 0.95498 0.0
H630 H 0.0804 0.57929 0.2256 0.0
H631 H 0.04928 0.60068 0.22212 0.0
C632 C 0.01465 0.70798 0.19187 0.0
C633 C 0.02255 0.70813 0.27523 0.0
C634 C 1.01196 0.68938 0.14759 0.0
C635 C 0.01686 0.67042 0.18608 0.0
C636 C 0.02442 0.67069 0.27037 0.0
C637 C 0.02728 0.68931 0.31418 0.0
C638 C 0.01505 0.65055 0.13716 0.0
C639 C 0.03183 0.63692 0.13598 0.0
C640 C 0.99738 0.64539 0.08836 0.0
C641 C 0.97823 0.65768 0.09302 0.0
C642 C 0.96906 0.66186 0.17229 0.0
C643 C 0.95107 0.67349 0.17647 0.0
C644 C 0.942 0.68091 0.10176 0.0
C645 C 0.95089 0.67668 0.02268 0.0
C646 C 0.96891 0.66508 0.01813 0.0
C647 C 0.01923 0.56105 0.92918 0.0
C648 C 0.01543 0.56562 0.84293 0.0
C649 C 0.01863 0.57667 0.99167 0.0
C650 C 0.01432 0.5972 0.9688 0.0
C651 C 1.01003 0.60148 0.88281 0.0
C652 C 1.01065 0.586 0.82106 0.0
C653 C 0.01464 0.6146 0.03201 0.0
C654 C 0.99755 0.62779 0.03587 0.0
C655 C 0.03187 0.6191 0.08456 0.0
C656 C 0.05046 0.60597 0.08575 0.0
C657 C 0.06153 0.60199 0.01062 0.0
C658 C 0.07903 0.58956 0.01305 0.0
C659 C 0.08578 0.58129 0.09044 0.0
C660 C 0.07509 0.5855 0.16554 0.0
C661 C 0.05748 0.59773 0.16334 0.0
H662 H 0.09932 0.57171 0.09242 0.0
H663 H 0.92806 0.6899 0.10514 0.0
H664 H 0.9646 0.24517 0.02423 0.0
H665 H 0.94725 0.21187 0.04459 0.0
H666 H 0.96599 0.21171 0.30827 0.0
H667 H 0.98245 0.2453 0.28883 0.0
H668 H 0.98266 0.18005 0.21023 0.0
H669 H 0.91671 0.21114 0.26353 0.0
H670 H 0.8873 0.2336 0.23046 0.0
H671 H 0.87555 0.19956 0.00088 0.0
H672 H 0.90508 0.17706 0.03202 0.0
H673 H 0.93975 0.09396 0.38929 0.0
H674 H 0.93037 0.1279 0.33813 0.0
H675 H 0.95208 0.11238 0.08701 0.0
H676 H 0.96164 0.07827 0.13764 0.0
H677 H 0.91259 0.15135 0.16547 0.0
H678 H 0.98902 0.13158 0.09649 0.0
H679 H 0.01626 0.10693 0.13579 0.0
H680 H 1.00623 0.11958 0.40106 0.0
H681 H 0.97838 0.14368 0.36333 0.0
C682 C 0.96411 0.23834 0.08716 0.0
C683 C 0.97463 0.24757 0.15528 0.0
C684 C 0.95441 0.21938 0.0985 0.0
C685 C 0.95569 0.20929 0.17727 0.0
C686 C 0.96485 0.2193 0.24696 0.0
C687 C 0.97411 0.23844 0.23615 0.0
C688 C 0.9509 0.18719 0.18315 0.0
C689 C 0.96731 0.1739 0.20032 0.0
C690 C 0.931 0.17907 0.16831 0.0
C691 C 0.91322 0.19253 0.14972 0.0
C692 C 0.90797 0.20855 0.20561 0.0
C693 C 0.89125 0.22126 0.18731 0.0
C694 C 0.87959 0.21804 0.11351 0.0
C695 C 0.8846 0.20205 0.05798 0.0
C696 C 0.90131 0.1893 0.07598 0.0
C697 C 0.94153 0.09728 0.32203 0.0
C698 C 0.95189 0.08357 0.26792 0.0
C699 C 0.93601 0.11671 0.29276 0.0
C700 C 0.94073 0.12262 0.20918 0.0
C701 C 0.94828 0.108 0.15176 0.0
C702 C 0.95396 0.08858 0.1811 0.0
C703 C 0.94433 0.14458 0.19239 0.0
C704 C 0.9279 0.15771 0.17362 0.0
C705 C 0.96423 0.15276 0.20484 0.0
C706 C 0.98181 0.13944 0.22722 0.0
C707 C 0.99277 0.12918 0.16312 0.0
C708 C 1.00821 0.11525 0.18509 0.0
C709 C 0.01316 0.1119 0.27074 0.0
C710 C 1.0025 0.1223 0.33473 0.0
C711 C 0.98682 0.13601 0.31317 0.0
H712 H 0.02514 0.10112 0.2875 0.0
H713 H 0.86666 0.2279 0.09945 0.0
H714 H 0.28686 0.98421 0.24116 0.0
H715 H 0.31557 0.96286 0.28448 0.0
H716 H 0.29576 0.91554 0.10901 0.0
H717 H 0.26673 0.93769 0.06464 0.0
H718 H 0.31939 0.92569 0.35469 0.0
H719 H 0.35042 0.88922 0.07138 0.0
H720 H 0.34501 0.88338 0.9176 0.0
H721 H 0.32206 0.94454 0.88946 0.0
H722 H 0.32753 0.95101 0.04338 0.0
H723 H 0.44014 0.92616 0.26986 0.0
H724 H 0.4065 0.91125 0.23037 0.0
H725 H 0.37628 0.95921 0.37266 0.0
H726 H 0.40945 0.97296 0.41573 0.0
H727 H 0.37588 0.9233 0.14337 0.0
H728 H 0.33497 0.94876 0.4604 0.0
H729 H 0.34265 0.94891 0.61428 0.0
H730 H 0.38687 0.90089 0.57904 0.0
H731 H 0.37922 0.90016 0.42496 0.0
C732 C 0.28864 0.96918 0.2126 0.0
C733 C 0.27499 0.9625 0.14968 0.0
C734 C 0.30497 0.95692 0.23714 0.0
C735 C 0.30806 0.93764 0.19916 0.0
C736 C 0.29381 0.93044 0.13845 0.0
C737 C 0.27732 0.94295 0.11337 0.0
C738 C 0.3272 0.92659 0.2215 0.0
C739 C 0.33179 0.92475 0.30868 0.0
C740 C 0.34311 0.92362 0.16137 0.0
C741 C 0.33918 0.92049 0.06918 0.0
C742 C 0.3442 0.90147 0.03245 0.0
C743 C 0.34116 0.89808 0.94533 0.0
C744 C 0.33318 0.91366 0.89403 0.0
C745 C 0.32827 0.93264 0.92976 0.0
C746 C 0.33136 0.93618 0.01693 0.0
C747 C 0.42617 0.93313 0.29332 0.0
C748 C 0.42716 0.95025 0.34746 0.0
C749 C 0.40705 0.9247 0.27089 0.0
C750 C 0.38881 0.9336 0.3014 0.0
C751 C 0.39004 0.95138 0.35184 0.0
C752 C 0.40897 0.95941 0.3757 0.0
C753 C 0.36823 0.92569 0.27685 0.0
C754 C 0.36358 0.9234 0.18994 0.0
C755 C 0.35218 0.92435 0.33748 0.0
C756 C 0.35637 0.92428 0.43087 0.0
C757 C 0.34609 0.93798 0.48548 0.0
C758 C 0.3505 0.93822 0.57279 0.0
C759 C 0.36518 0.92486 0.60646 0.0
C760 C 0.37548 0.91121 0.55287 0.0
C761 C 0.37111 0.91087 0.46551 0.0
H762 H 0.36864 0.92515 0.67402 0.0
H763 H 0.33081 0.91103 0.82654 0.0
H764 H 0.50951 0.27762 0.26135 0.0
H765 H 0.50065 0.31135 0.31504 0.0
H766 H 0.44412 0.30987 0.16923 0.0
H767 H 0.45339 0.27554 0.11591 0.0
H768 H 0.46268 0.34203 0.12883 0.0
H769 H 0.4447 0.31868 0.39954 0.0
H770 H 0.44434 0.2994 0.53481 0.0
H771 H 0.50372 0.32382 0.5998 0.0
H772 H 0.50471 0.34285 0.46421 0.0
H773 H 0.48236 0.44853 0.26964 0.0
H774 H 0.46475 0.41567 0.24476 0.0
H775 H 0.52058 0.38341 0.30765 0.0
H776 H 0.53795 0.41569 0.33517 0.0
H777 H 0.48614 0.37162 0.4031 0.0
H778 H 0.5036 0.38972 0.10871 0.0
H779 H 0.49966 0.41338 0.98759 0.0
H780 H 0.43504 0.39991 0.97608 0.0
H781 H 0.43839 0.37704 0.10072 0.0
C782 C 0.49489 0.28432 0.24351 0.0
C783 C 0.48217 0.27444 0.18462 0.0
C784 C 0.48969 0.30357 0.27429 0.0
C785 C 0.47163 0.31334 0.24634 0.0
C786 C 0.45811 0.30269 0.1918 0.0
C787 C 0.46334 0.28321 0.16138 0.0
C788 C 0.46939 0.33569 0.26145 0.0
C789 C 0.46698 0.34856 0.18997 0.0
C790 C 0.4747 0.34445 0.3411 0.0
C791 C 0.47471 0.3323 0.42148 0.0
C792 C 0.45778 0.31979 0.44221 0.0
C793 C 0.45746 0.30891 0.51907 0.0
C794 C 0.47398 0.3104 0.57589 0.0
C795 C 0.49093 0.32267 0.55573 0.0
C796 C 0.49136 0.33353 0.47887 0.0
C797 C 0.49093 0.4344 0.27688 0.0
C798 C 0.51155 0.43473 0.30469 0.0
C799 C 0.48085 0.41572 0.26264 0.0
C800 C 0.49137 0.39722 0.2754 0.0
C801 C 0.51222 0.39758 0.29799 0.0
C802 C 0.52222 0.41611 0.31245 0.0
C803 C 0.48084 0.37721 0.27024 0.0
C804 C 0.48072 0.36505 0.3438 0.0
C805 C 0.47276 0.3693 0.19337 0.0
C806 C 0.47117 0.38197 0.11513 0.0
C807 C 0.48851 0.39193 0.08097 0.0
C808 C 0.48637 0.40523 0.01167 0.0
C809 C 0.4671 0.40817 0.9741 0.0
C810 C 0.44995 0.39769 0.00547 0.0
C811 C 0.45193 0.38466 0.0758 0.0
H812 H 0.46543 0.41859 0.92083 0.0
H813 H 0.47365 0.30205 0.63555 0.0
H814 H 0.24787 0.51972 0.23582 0.0
H815 H 0.21018 0.52097 0.23859 0.0
H816 H 0.20752 0.4657 0.08725 0.0
H817 H 0.24526 0.46447 0.08589 0.0
H818 H 0.18888 0.52555 0.08689 0.0
H819 H 0.15938 0.44267 0.13656 0.0
H820 H 0.16924 0.41119 0.21358 0.0
H821 H 0.20186 0.44731 0.39905 0.0
H822 H 0.19198 0.47898 0.32359 0.0
H823 H 0.07271 0.48758 0.14397 0.0
H824 H 0.10757 0.48238 0.08784 0.0
H825 H 0.12682 0.53939 0.20444 0.0
H826 H 0.09228 0.54489 0.25598 0.0
H827 H 0.13713 0.47556 0.19036 0.0
H828 H 0.1725 0.55744 0.13415 0.0
H829 H 0.16249 0.59043 0.07006 0.0
H830 H 0.11752 0.55974 0.91459 0.0
H831 H 0.127 0.52673 0.97913 0.0
C832 C 0.23911 0.50731 0.20741 0.0
C833 C 0.24915 0.49189 0.16156 0.0
C834 C 0.21771 0.50821 0.20744 0.0
C835 C 0.20618 0.49356 0.16218 0.0
C836 C 0.21619 0.47707 0.12282 0.0
C837 C 0.23762 0.47622 0.12288 0.0
C838 C 0.18393 0.49667 0.14992 0.0
C839 C 0.17744 0.51476 0.10972 0.0
C840 C 0.16927 0.48211 0.17703 0.0
C841 C 0.17525 0.46316 0.22328 0.0
C842 C 0.16869 0.44388 0.19357 0.0
C843 C 0.17425 0.426 0.23709 0.0
C844 C 0.18628 0.42723 0.3109 0.0
C845 C 0.19267 0.44636 0.34154 0.0
C846 C 0.18712 0.46427 0.29826 0.0
C847 C 0.08427 0.49936 0.15376 0.0
C848 C 0.07989 0.51674 0.20322 0.0
C849 C 0.10414 0.49638 0.1222 0.0
C850 C 0.11986 0.51054 0.14145 0.0
C851 C 0.11498 0.52852 0.18615 0.0
C852 C 0.09514 0.53169 0.21585 0.0
C853 C 0.14175 0.50501 0.12986 0.0
C854 C 0.14836 0.4863 0.16521 0.0
C855 C 0.15653 0.51933 0.09985 0.0
C856 C 0.15067 0.53935 0.06065 0.0
C857 C 0.16059 0.55764 0.0858 0.0
C858 C 0.15487 0.57644 0.05001 0.0
C859 C 0.13939 0.5772 0.9882 0.0
C860 C 0.12954 0.55917 0.96237 0.0
C861 C 0.13504 0.5404 0.9988 0.0
H862 H 0.13501 0.59176 0.96038 0.0
H863 H 0.19057 0.41338 0.34453 0.0
H864 H 0.06329 0.76931 0.21092 0.0
H865 H 0.08011 0.80277 0.19735 0.0
H866 H 0.08133 0.80866 0.47116 0.0
H867 H 0.06606 0.77428 0.4845 0.0
H868 H 0.05069 0.83304 0.34619 0.0
H869 H 0.12055 0.8195 0.42198 0.0
H870 H 0.15364 0.80129 0.41316 0.0
H871 H 0.16004 0.81968 0.15157 0.0
H872 H 0.12682 0.83774 0.15837 0.0
H873 H 0.07981 0.94225 0.24993 0.0
H874 H 0.08903 0.90996 0.32185 0.0
H875 H 0.06722 0.87576 0.10418 0.0
H876 H 0.05817 0.90766 0.03211 0.0
H877 H 0.11318 0.86892 0.2428 0.0
H878 H 0.02859 0.84571 0.2178 0.0
H879 H 0.99424 0.86148 0.20909 0.0
H880 H 0.01598 0.91362 0.35035 0.0
H881 H 0.05027 0.89775 0.36299 0.0
C882 C 0.06841 0.77719 0.26799 0.0
C883 C 0.06305 0.76965 0.34865 0.0
C884 C 0.07798 0.79627 0.26035 0.0
C885 C 0.0819 0.80812 0.3333 0.0
C886 C 0.07863 0.7996 0.41426 0.0
C887 C 0.06967 0.78018 0.42179 0.0
C888 C 0.08314 0.83053 0.32319 0.0
C889 C 0.06444 0.84107 0.32572 0.0
C890 C 0.10109 0.84067 0.29508 0.0
C891 C 0.1211 0.82987 0.29061 0.0
C892 C 0.12891 0.8195 0.36233 0.0
C893 C 0.14772 0.80925 0.35774 0.0
C894 C 0.15893 0.8093 0.28182 0.0
C895 C 0.15135 0.81966 0.21036 0.0
C896 C 0.13254 0.82994 0.2146 0.0
C897 C 0.07738 0.92783 0.21704 0.0
C898 C 0.06829 0.92741 0.13555 0.0
C899 C 0.08279 0.9095 0.25774 0.0
C900 C 0.07876 0.89064 0.2179 0.0
C901 C 0.07053 0.89025 0.13535 0.0
C902 C 0.0654 0.90848 0.09434 0.0
C903 C 0.0806 0.87119 0.26491 0.0
C904 C 0.09965 0.86113 0.26709 0.0
C905 C 0.06281 0.86115 0.29547 0.0
C906 C 0.0421 0.87065 0.29053 0.0
C907 C 0.02602 0.86048 0.24761 0.0
C908 C 1.00655 0.86941 0.24212 0.0
C909 C 1.00298 0.88859 0.27885 0.0
C910 C 0.01882 0.89877 0.3219 0.0
C911 C 0.03826 0.8898 0.32832 0.0
H912 H 0.98793 0.89554 0.27418 0.0
H913 H 0.17349 0.80135 0.2784 0.0
H914 H 0.76024 0.08689 0.26337 0.0
H915 H 0.73004 0.10692 0.21743 0.0
H916 H 0.70026 0.05072 0.13805 0.0
H917 H 0.73024 0.03121 0.18213 0.0
H918 H 0.69096 0.07755 0.03203 0.0
H919 H 0.69348 0.07696 0.34719 0.0
H920 H 0.70887 0.08619 0.48641 0.0
H921 H 0.70764 0.14992 0.41799 0.0
H922 H 0.69234 0.14113 0.27838 0.0
H923 H 0.59057 0.07876 0.23736 0.0
H924 H 0.62593 0.0899 0.25697 0.0
H925 H 0.62571 0.11675 0.00537 0.0
H926 H 0.59094 0.10398 0.98232 0.0
H927 H 0.65413 0.11751 0.25304 0.0
H928 H 0.66812 0.10067 0.90007 0.0
H929 H 0.65006 0.08573 0.77579 0.0
H930 H 0.61545 0.04629 0.94183 0.0
H931 H 0.63337 0.06084 0.06659 0.0
C932 C 0.74712 0.07907 0.23563 0.0
C933 C 0.74712 0.05762 0.2274 0.0
C934 C 0.72993 0.0904 0.20978 0.0
C935 C 0.71256 0.0803 0.17625 0.0
C936 C 0.71318 0.05891 0.165 0.0
C937 C 0.73025 0.04771 0.19042 0.0
C938 C 0.69308 0.09123 0.15691 0.0
C939 C 0.68309 0.08667 0.07972 0.0
C940 C 0.68275 0.10324 0.21861 0.0
C941 C 0.69204 0.10839 0.30216 0.0
C942 C 0.69661 0.09292 0.36175 0.0
C943 C 0.70529 0.09806 0.44063 0.0
C944 C 0.70931 0.11858 0.46076 0.0
C945 C 0.70458 0.13403 0.4022 0.0
C946 C 0.69591 0.129 0.32325 0.0
C947 C 0.59788 0.08739 0.18674 0.0
C948 C 0.58834 0.08947 0.10672 0.0
C949 C 0.61807 0.09408 0.19851 0.0
C950 C 0.62879 0.10335 0.13102 0.0
C951 C 0.61793 0.10897 0.05718 0.0
C952 C 0.59791 0.10176 0.04438 0.0
C953 C 0.65159 0.10242 0.13127 0.0
C954 C 0.66231 0.10914 0.20393 0.0
C955 C 0.66233 0.09139 0.06738 0.0
C956 C 0.65187 0.08209 0.9926 0.0
C957 C 0.65669 0.08877 0.90987 0.0
C958 C 0.64646 0.08039 0.83942 0.0
C959 C 0.63148 0.06523 0.85107 0.0
C960 C 0.62696 0.05813 0.93297 0.0
C961 C 0.63718 0.06641 0.00354 0.0
H962 H 0.62339 0.05897 0.7967 0.0
H963 H 0.71602 0.1225 0.52187 0.0
H964 H 0.50125 0.72484 0.20894 0.0
H965 H 0.48139 0.69367 0.179 0.0
H966 H 0.42625 0.72355 0.26735 0.0
H967 H 0.4465 0.75478 0.29906 0.0
H968 H 0.45857 0.66994 0.29341 0.0
H969 H 0.38747 0.70217 0.12926 0.0
H970 H 0.37617 0.73324 0.05223 0.0
H971 H 0.43773 0.74311 0.96228 0.0
H972 H 0.44929 0.71199 0.03783 0.0
H973 H 0.42456 0.57843 0.13786 0.0
H974 H 0.41354 0.61086 0.2008 0.0
H975 H 0.43441 0.6431 0.97649 0.0
H976 H 0.44373 0.61075 0.91078 0.0
H977 H 0.40826 0.6664 0.0553 0.0
H978 H 0.46981 0.6253 0.14432 0.0
H979 H 0.4834 0.59304 0.2046 0.0
H980 H 0.44628 0.60117 0.42819 0.0
H981 H 0.43234 0.63339 0.36863 0.0
C982 C 0.48489 0.72465 0.2216 0.0
C983 C 0.47524 0.74198 0.25556 0.0
C984 C 0.4736 0.70693 0.20511 0.0
C985 C 0.4524 0.70633 0.2215 0.0
C986 C 0.4426 0.72378 0.25434 0.0
C987 C 0.45403 0.74154 0.27172 0.0
C988 C 0.44094 0.68729 0.20216 0.0
C989 C 0.44718 0.66919 0.24276 0.0
C990 C 0.42604 0.68637 0.13654 0.0
C991 C 0.41926 0.70497 0.09021 0.0
C992 C 0.39856 0.71099 0.09297 0.0
C993 C 0.39212 0.72859 0.04954 0.0
C994 C 0.40624 0.7402 0.00273 0.0
C995 C 0.42683 0.73417 0.9989 0.0
C996 C 0.43333 0.71658 0.04211 0.0
C997 C 0.42581 0.59229 0.10019 0.0
C998 C 0.43591 0.59219 0.02096 0.0
C999 C 0.4196 0.61088 0.13652 0.0
C1000 C 0.42411 0.6295 0.09518 0.0
C1001 C 0.43114 0.62901 0.01067 0.0
C1002 C 0.43681 0.61048 0.97356 0.0
C1003 C 0.42663 0.64891 0.14376 0.0
C1004 C 0.41877 0.66717 0.10906 0.0
C1005 C 0.44049 0.65003 0.21363 0.0
C1006 C 0.44992 0.63155 0.25185 0.0
C1007 C 0.46467 0.62023 0.20654 0.0
C1008 C 0.47233 0.60192 0.24034 0.0
C1009 C 0.46554 0.59497 0.31983 0.0
C1010 C 0.45139 0.6065 0.36638 0.0
C1011 C 0.44361 0.62478 0.33269 0.0
H1012 H 0.47129 0.58068 0.34556 0.0
H1013 H 0.40123 0.75382 0.9692 0.0
H1014 H 0.79366 0.56597 0.42066 0.0
H1015 H 0.82982 0.57064 0.38239 0.0
H1016 H 0.81807 0.54389 0.1361 0.0
H1017 H 0.78206 0.53915 0.17405 0.0
H1018 H 0.83789 0.51852 0.2436 0.0
H1019 H 0.84465 0.58947 0.16023 0.0
H1020 H 0.84066 0.6268 0.17916 0.0
H1021 H 0.87729 0.62447 0.40717 0.0
H1022 H 0.88131 0.58708 0.39016 0.0
H1023 H 0.93334 0.49614 0.08912 0.0
H1024 H 0.89941 0.50897 0.12296 0.0
H1025 H 0.9239 0.54006 0.34456 0.0
H1026 H 0.95864 0.528 0.30691 0.0
H1027 H 0.89853 0.56438 0.26745 0.0
H1028 H 0.89146 0.49581 0.36372 0.0
H1029 H 0.89362 0.45792 0.36382 0.0
H1030 H 0.85563 0.45519 0.14029 0.0
H1031 H 0.85337 0.49294 0.13805 0.0
C1032 C 0.79868 0.56216 0.3568 0.0
C1033 C 0.78543 0.55181 0.30078 0.0
C1034 C 0.81931 0.56479 0.33512 0.0
C1035 C 0.82671 0.55691 0.25801 0.0
C1036 C 0.81266 0.54989 0.19645 0.0
C1037 C 0.79208 0.54723 0.218 0.0
C1038 C 0.84823 0.54987 0.2533 0.0
C1039 C 0.85116 0.52862 0.24748 0.0
C1040 C 0.86541 0.56291 0.26449 0.0
C1041 C 0.86313 0.58542 0.27428 0.0
C1042 C 0.85172 0.59688 0.21479 0.0
C1043 C 0.84949 0.61807 0.22507 0.0
C1044 C 0.85868 0.628 0.29442 0.0
C1045 C 0.87018 0.61676 0.35347 0.0
C1046 C 0.87247 0.59558 0.34343 0.0
C1047 C 0.93144 0.50536 0.14608 0.0
C1048 C 0.94842 0.51078 0.19652 0.0
C1049 C 0.91201 0.51267 0.16561 0.0
C1050 C 0.90895 0.52505 0.23766 0.0
C1051 C 0.9259 0.53039 0.28903 0.0
C1052 C 0.94562 0.52343 0.26805 0.0
C1053 C 0.88808 0.53304 0.2549 0.0
C1054 C 0.88523 0.55432 0.26424 0.0
C1055 C 0.87071 0.51997 0.2504 0.0
C1056 C 0.87239 0.49723 0.25046 0.0
C1057 C 0.88373 0.48712 0.31421 0.0
C1058 C 0.88493 0.4657 0.31479 0.0
C1059 C 0.87483 0.45421 0.25217 0.0
C1060 C 0.86346 0.46411 0.18877 0.0
C1061 C 0.86218 0.48552 0.1879 0.0
H1062 H 0.87579 0.43763 0.25285 0.0
H1063 H 0.85692 0.6444 0.30229 0.0
H1064 H 0.01334 0.253 0.93219 0.0
H1065 H 0.01788 0.21904 0.86627 0.0
H1066 H 0.01694 0.19111 0.11587 0.0
H1067 H 0.01396 0.22513 0.18085 0.0
H1068 H 0.04249 0.17114 0.02847 0.0
H1069 H 0.97264 0.19331 0.95959 0.0
H1070 H 0.94675 0.21646 0.89495 0.0
H1071 H 0.9753 0.20945 0.6504 0.0
H1072 H 1.00133 0.18647 0.71341 0.0
H1073 H 0.01407 0.06881 0.92652 0.0
H1074 H 0.0151 0.10427 0.97601 0.0
H1075 H 0.01992 0.12534 0.71625 0.0
H1076 H 0.01842 0.08972 0.66577 0.0
H1077 H 0.99487 0.14953 0.79792 0.0
H1078 H 0.06099 0.12294 0.85982 0.0
H1079 H 0.08664 0.09923 0.92 0.0
H1080 H 0.06735 0.11482 0.17346 0.0
H1081 H 0.04153 0.13858 0.11488 0.0
C1082 C 0.01474 0.23961 0.97268 0.0
C1083 C 0.01339 0.24175 0.06168 0.0
C1084 C 0.01689 0.22008 0.93502 0.0
C1085 C 0.01719 0.2021 0.98539 0.0
C1086 C 0.01668 0.20446 0.0747 0.0
C1087 C 0.01496 0.22397 0.11213 0.0
C1088 C 0.01781 0.18086 0.94644 0.0
C1089 C 0.03184 0.16638 0.97889 0.0
C1090 C 1.00459 0.17455 0.87894 0.0
C1091 C 0.98902 0.18843 0.84143 0.0
C1092 C 0.97343 0.19689 0.89224 0.0
C1093 C 0.95875 0.20992 0.85595 0.0
C1094 C 0.95947 0.21448 0.76894 0.0
C1095 C 0.9748 0.20596 0.71786 0.0
C1096 C 0.98949 0.19292 0.75377 0.0
C1097 C 0.0154 0.0809 0.87946 0.0
C1098 C 0.0163 0.07615 0.79172 0.0
C1099 C 0.01609 0.10132 0.90821 0.0
C1100 C 0.01801 0.11775 0.85046 0.0
C1101 C 0.01855 0.1131 0.76266 0.0
C1102 C 0.01773 0.09263 0.7337 0.0
C1103 C 0.01914 0.13965 0.88175 0.0
C1104 C 1.00552 0.15424 0.84761 0.0
C1105 C 0.03287 0.14608 0.94732 0.0
C1106 C 0.04886 0.13217 0.98275 0.0
C1107 C 0.06203 0.12116 0.92837 0.0
C1108 C 0.07668 0.10776 0.96224 0.0
C1109 C 0.07852 0.10539 0.05048 0.0
C1110 C 0.06585 0.11658 0.10508 0.0
C1111 C 0.05121 0.13003 0.07153 0.0
H1112 H 0.08983 0.09496 0.07657 0.0
H1113 H 0.94809 0.22456 0.74104 0.0
H1114 H 0.28098 0.97436 0.95673 0.0
H1115 H 0.3157 0.9785 0.90014 0.0
H1116 H 0.32624 0.02903 0.07237 0.0
H1117 H 0.29123 0.02471 0.12915 0.0
H1118 H 0.33717 1.00082 0.81961 0.0
H1119 H 0.37147 0.03685 0.12362 0.0
H1120 H 0.36984 0.03355 0.28055 0.0
H1121 H 0.35089 0.97067 0.25529 0.0
H1122 H 0.35214 0.97376 0.09869 0.0
H1123 H 0.43878 0.02638 0.68929 0.0
H1124 H 0.40323 0.02586 0.74041 0.0
H1125 H 0.42203 0.98927 0.95655 0.0
H1126 H 0.45772 0.99153 0.90924 0.0
H1127 H 0.39624 1.01062 0.01541 0.0
H1128 H 0.39276 0.97172 0.75946 0.0
H1129 H 0.39633 0.96316 0.60688 0.0
H1130 H 0.35613 0.01283 0.54052 0.0
H1131 H 0.35265 0.02197 0.6925 0.0
C1132 C 0.29066 0.98651 0.98166 0.0
C1133 C 0.28326 0.99934 0.04657 0.0
C1134 C 0.31068 0.98877 0.94987 0.0
C1135 C 0.32427 1.0036 0.98324 0.0
C1136 C 0.3166 0.01695 0.04666 0.0
C1137 C 0.29637 0.0148 0.07812 0.0
C1138 C 0.34618 1.00491 0.95089 0.0
C1139 C 0.35004 1.00296 0.86279 0.0
C1140 C 0.36341 1.00706 0.00594 0.0
C1141 C 0.36142 1.00567 0.09973 0.0
C1142 C 0.3667 0.02242 0.15178 0.0
C1143 C 0.36584 0.02059 0.24061 0.0
C1144 C 0.36002 1.00197 0.27793 0.0
C1145 C 0.35501 0.98518 0.22646 0.0
C1146 C 0.35564 0.987 0.13771 0.0
C1147 C 0.43526 0.01823 0.74771 0.0
C1148 C 0.45112 1.009 0.79512 0.0
C1149 C 0.41478 0.01774 0.77681 0.0
C1150 C 0.40937 1.00716 0.85221 0.0
C1151 C 0.42536 0.99772 0.89874 0.0
C1152 C 0.4459 0.99889 0.87133 0.0
C1153 C 0.38736 1.00622 0.88388 0.0
C1154 C 0.38344 1.00842 0.97187 0.0
C1155 C 0.3702 1.00284 0.8291 0.0
C1156 C 0.37266 0.99769 0.73742 0.0
C1157 C 0.38487 0.98097 0.71229 0.0
C1158 C 0.38687 0.97601 0.62592 0.0
C1159 C 0.3765 0.98748 0.56414 0.0
C1160 C 0.36418 1.00398 0.5885 0.0
C1161 C 0.36222 1.00908 0.67472 0.0
H1162 H 0.37791 0.98356 0.49743 0.0
H1163 H 0.35956 1.00051 0.34668 0.0
H1164 H 0.5403 0.27914 0.06497 0.0
H1165 H 0.5452 0.31322 0.99991 0.0
H1166 H 0.48108 0.31409 0.92843 0.0
H1167 H 0.47682 0.27967 0.98768 0.0
H1168 H 0.4985 0.33154 0.81091 0.0
H1169 H 0.50491 0.34182 0.11084 0.0
H1170 H 0.51788 0.34005 0.25874 0.0
H1171 H 0.57761 0.35932 0.17481 0.0
H1172 H 0.56484 0.36182 0.02684 0.0
H1173 H 0.48706 0.4406 0.75889 0.0
H1174 H 0.48581 0.40429 0.79955 0.0
H1175 H 0.55122 0.40529 0.84618 0.0
H1176 H 0.55224 0.44177 0.80687 0.0
H1177 H 0.53471 0.38649 0.97014 0.0
H1178 H 0.52268 0.3799 0.66421 0.0
H1179 H 0.50338 0.38856 0.53345 0.0
H1180 H 0.44814 0.36401 0.64344 0.0
H1181 H 0.46694 0.35572 0.77561 0.0
C1182 C 0.52746 0.28644 0.03323 0.0
C1183 C 0.50816 0.27665 0.03137 0.0
C1184 C 0.53012 0.30619 0.99737 0.0
C1185 C 0.51343 0.31686 0.96016 0.0
C1186 C 0.49434 0.3066 0.95622 0.0
C1187 C 0.49183 0.28685 0.99063 0.0
C1188 C 0.51551 0.33854 0.92551 0.0
C1189 C 0.50634 0.3435 0.84654 0.0
C1190 C 0.52586 0.35454 0.97008 0.0
C1191 C 0.53395 0.35177 0.05776 0.0
C1192 C 0.52083 0.3455 0.12395 0.0
C1193 C 0.52813 0.34441 0.20772 0.0
C1194 C 0.54859 0.34931 0.226 0.0
C1195 C 0.56178 0.35544 0.16054 0.0
C1196 C 0.55449 0.3568 0.07677 0.0
C1197 C 0.5012 0.43294 0.77659 0.0
C1198 C 0.51978 0.44398 0.77869 0.0
C1199 C 0.50054 0.41204 0.7996 0.0
C1200 C 0.51847 0.40153 0.82539 0.0
C1201 C 0.53709 0.4127 0.82667 0.0
C1202 C 0.53773 0.4336 0.8037 0.0
C1203 C 0.51774 0.37943 0.85589 0.0
C1204 C 0.52718 0.3744 0.93404 0.0
C1205 C 0.50709 0.36355 0.81183 0.0
C1206 C 0.49619 0.3674 0.73018 0.0
C1207 C 0.50641 0.37639 0.66055 0.0
C1208 C 0.49553 0.38132 0.58634 0.0
C1209 C 0.4745 0.37702 0.58058 0.0
C1210 C 0.46438 0.36748 0.64832 0.0
C1211 C 0.47515 0.36267 0.72287 0.0
H1212 H 0.466 0.38103 0.5236 0.0
H1213 H 0.55417 0.34848 0.29098 0.0
H1214 H 0.26161 0.48018 0.92529 0.0
H1215 H 0.22793 0.48199 0.85442 0.0
H1216 H 0.21518 0.53837 0.98821 0.0
H1217 H 0.24899 0.53658 0.05667 0.0
H1218 H 0.19259 0.47794 0.91706 0.0
H1219 H 0.17642 0.56552 0.89701 0.0
H1220 H 0.19529 0.59773 0.86993 0.0
H1221 H 0.24101 0.5645 0.72962 0.0
H1222 H 0.22226 0.53214 0.75533 0.0
H1223 H 0.08539 0.49249 0.89077 0.0
H1224 H 0.1218 0.49204 0.92371 0.0
H1225 H 0.13484 0.52331 0.68736 0.0
H1226 H 0.09791 0.52397 0.65411 0.0
H1227 H 0.15831 0.5393 0.79626 0.0
H1228 H 0.14634 0.46897 0.73262 0.0
H1229 H 0.12864 0.4355 0.74017 0.0
H1230 H 0.14219 0.43153 0.00761 0.0
H1231 H 0.15992 0.46512 0.00181 0.0
C1232 C 0.252 0.49348 0.93579 0.0
C1233 C 0.25824 0.50854 0.99464 0.0
C1234 C 0.23248 0.49432 0.89679 0.0
C1235 C 0.21859 0.51028 0.91555 0.0
C1236 C 0.22539 0.52598 0.97083 0.0
C1237 C 0.24492 0.52513 0.00943 0.0
C1238 C 0.19668 0.50969 0.88252 0.0
C1239 C 0.18524 0.4914 0.89016 0.0
C1240 C 0.18675 0.527 0.84601 0.0
C1241 C 0.19804 0.54639 0.82922 0.0
C1242 C 0.19047 0.56511 0.8604 0.0
C1243 C 0.20115 0.58339 0.84525 0.0
C1244 C 0.21939 0.58316 0.79836 0.0
C1245 C 0.22693 0.56465 0.76627 0.0
C1246 C 0.21629 0.54633 0.78127 0.0
C1247 C 0.09588 0.4992 0.845 0.0
C1248 C 0.08842 0.50827 0.76935 0.0
C1249 C 0.11698 0.49875 0.86376 0.0
C1250 C 0.13157 0.50745 0.80807 0.0
C1251 C 0.12417 0.51651 0.73219 0.0
C1252 C 0.10294 0.51681 0.71284 0.0
C1253 C 0.15426 0.50754 0.8306 0.0
C1254 C 0.16577 0.52579 0.82206 0.0
C1255 C 0.16452 0.48997 0.86334 0.0
C1256 C 0.15428 0.46963 0.86698 0.0
C1257 C 0.14548 0.461 0.79315 0.0
C1258 C 0.13547 0.44201 0.7971 0.0
C1259 C 0.13427 0.43143 0.87444 0.0
C1260 C 0.14316 0.43978 0.9479 0.0
C1261 C 0.15322 0.45876 0.9443 0.0
H1262 H 0.12648 0.41675 0.87742 0.0
H1263 H 0.22766 0.59732 0.78669 0.0
H1264 H 0.02992 0.77222 0.5352 0.0
H1265 H 0.02653 0.80789 0.58437 0.0
H1266 H 1.00664 0.82588 0.333 0.0
H1267 H 1.01138 0.79031 0.2828 0.0
H1268 H 0.0486 0.84229 0.51841 0.0
H1269 H 0.97086 0.86799 0.37408 0.0
H1270 H 0.93767 0.85278 0.33119 0.0
H1271 H 0.94607 0.80409 0.51242 0.0
H1272 H 0.97919 0.81915 0.55703 0.0
H1273 H 0.03602 0.95265 0.52715 0.0
H1274 H 0.03713 0.91675 0.48115 0.0
H1275 H 0.99609 0.89999 0.68501 0.0
H1276 H 0.99601 0.93582 0.73473 0.0
H1277 H 0.98428 0.88297 0.52269 0.0
H1278 H 0.04381 0.88882 0.70316 0.0
H1279 H 0.07679 0.90366 0.75081 0.0
H1280 H 0.10424 0.88813 0.51057 0.0
H1281 H 0.07139 0.87343 0.46141 0.0
C1282 C 0.02451 0.78378 0.49098 0.0
C1283 C 0.02087 0.77851 0.40536 0.0
C1284 C 0.02275 0.8042 0.5188 0.0
C1285 C 0.01659 0.8198 0.46234 0.0
C1286 C 1.01159 0.81428 0.37786 0.0
C1287 C 0.01401 0.79391 0.34935 0.0
C1288 C 0.01613 0.84181 0.49151 0.0
C1289 C 0.03452 0.85118 0.51888 0.0
C1290 C 0.99781 0.85354 0.49297 0.0
C1291 C 0.97775 0.84451 0.46759 0.0
C1292 C 0.96567 0.85402 0.40461 0.0
C1293 C 0.94684 0.84544 0.3801 0.0
C1294 C 0.93982 0.82741 0.41866 0.0
C1295 C 0.95158 0.81799 0.48216 0.0
C1296 C 0.97042 0.82652 0.50691 0.0
C1297 C 0.02723 0.94132 0.56225 0.0
C1298 C 0.01589 0.94715 0.63459 0.0
C1299 C 0.0278 0.92073 0.53554 0.0
C1300 C 0.01642 0.90549 0.57836 0.0
C1301 C 1.00489 0.91136 0.65018 0.0
C1302 C 1.00492 0.93185 0.67885 0.0
C1303 C 0.01676 0.88349 0.54912 0.0
C1304 C 0.99838 0.87414 0.52147 0.0
C1305 C 0.03509 0.87173 0.54765 0.0
C1306 C 0.05497 0.88035 0.5778 0.0
C1307 C 0.0568 0.88877 0.66009 0.0
C1308 C 0.07551 0.89711 0.68757 0.0
C1309 C 0.09258 0.89695 0.63361 0.0
C1310 C 0.091 0.88834 0.55225 0.0
C1311 C 0.07233 0.87999 0.52455 0.0
H1312 H 0.10705 0.90341 0.65498 0.0
H1313 H 0.92524 0.82079 0.39961 0.0
H1314 H 0.73995 0.99438 0.31086 0.0
H1315 H 0.70629 0.98904 0.37977 0.0
H1316 H 0.7095 0.04981 0.4865 0.0
H1317 H 0.74305 0.05518 0.41776 0.0
H1318 H 0.69516 0.01538 0.60369 0.0
H1319 H 0.65888 0.0531 0.34303 0.0
H1320 H 0.65685 0.05907 0.18845 0.0
H1321 H 0.67252 0.99612 0.1411 0.0
H1322 H 0.67398 0.98965 0.29635 0.0
H1323 H 0.59096 0.03397 0.73563 0.0
H1324 H 0.62634 0.03578 0.68219 0.0
H1325 H 0.61197 0.98968 0.49391 0.0
H1326 H 0.57638 0.9889 0.54316 0.0
H1327 H 0.63301 0.01621 0.42015 0.0
H1328 H 0.64407 0.9832 0.69568 0.0
H1329 H 0.64136 0.98123 0.85245 0.0
H1330 H 0.67445 0.03807 0.87644 0.0
H1331 H 0.67714 0.04051 0.71979 0.0
C1332 C 0.73364 1.00641 0.35049 0.0
C1333 C 0.74426 0.02512 0.35964 0.0
C1334 C 0.71425 1.00349 0.38883 0.0
C1335 C 0.70508 0.01921 0.43723 0.0
C1336 C 0.71608 0.03757 0.44894 0.0
C1337 C 0.73531 0.04055 0.41014 0.0
C1338 C 0.68396 0.0168 0.47462 0.0
C1339 C 0.68155 0.0154 0.56361 0.0
C1340 C 0.66606 0.01713 0.42332 0.0
C1341 C 0.66698 0.02103 0.33076 0.0
C1342 C 0.66209 0.0406 0.29951 0.0
C1343 C 0.66082 0.04402 0.21181 0.0
C1344 C 0.66458 0.02801 0.15465 0.0
C1345 C 0.66966 1.00852 0.18538 0.0
C1346 C 0.6707 1.00496 0.27328 0.0
C1347 C 0.5954 0.0241 0.68329 0.0
C1348 C 0.58075 0.01126 0.64388 0.0
C1349 C 0.61578 0.02501 0.65312 0.0
C1350 C 0.6223 0.01258 0.58478 0.0
C1351 C 0.60764 0.99951 0.54655 0.0
C1352 C 0.58718 0.99901 0.57504 0.0
C1353 C 0.64391 0.01378 0.54974 0.0
C1354 C 0.64649 0.01551 0.46094 0.0
C1355 C 0.66188 0.01382 0.60179 0.0
C1356 C 0.66072 0.01207 0.69599 0.0
C1357 C 0.65074 0.99529 0.7344 0.0
C1358 C 0.64919 0.99411 0.82323 0.0
C1359 C 0.65771 1.00953 0.87435 0.0
C1360 C 0.66789 0.02612 0.83676 0.0
C1361 C 0.66944 0.0274 0.74797 0.0
H1362 H 0.65643 1.00862 0.94306 0.0
H1363 H 0.66364 0.03073 0.08665 0.0
H1364 H 0.47798 0.74049 0.44542 0.0
H1365 H 0.48252 0.70696 0.51342 0.0
H1366 H 0.54334 0.7028 0.40589 0.0
H1367 H 0.5384 0.73628 0.33579 0.0
H1368 H 0.52369 0.66778 0.38176 0.0
H1369 H 0.53397 0.71064 0.62647 0.0
H1370 H 0.52561 0.7378 0.73015 0.0
H1371 H 0.4703 0.7058 0.79928 0.0
H1372 H 0.47817 0.67858 0.69506 0.0
H1373 H 0.55068 0.57599 0.59518 0.0
H1374 H 0.54934 0.61156 0.54701 0.0
H1375 H 0.49043 0.6188 0.66916 0.0
H1376 H 0.49245 0.58336 0.7223 0.0
H1377 H 0.50953 0.65264 0.68592 0.0
H1378 H 0.50016 0.60894 0.44159 0.0
H1379 H 0.50967 0.58157 0.34036 0.0
H1380 H 0.56344 0.61549 0.26723 0.0
H1381 H 0.55481 0.64266 0.37048 0.0
C1382 C 0.49251 0.73261 0.43813 0.0
C1383 C 0.50795 0.7412 0.3864 0.0
C1384 C 0.49512 0.71338 0.47703 0.0
C1385 C 0.51339 0.70215 0.46604 0.0
C1386 C 0.5291 0.71101 0.41604 0.0
C1387 C 0.52644 0.73032 0.37691 0.0
C1388 C 0.51558 0.68086 0.50295 0.0
C1389 C 0.52093 0.66455 0.44863 0.0
C1390 C 0.51136 0.67629 0.58974 0.0
C1391 C 0.50657 0.69267 0.65233 0.0
C1392 C 0.51994 0.70948 0.66325 0.0
C1393 C 0.5153 0.72487 0.72222 0.0
C1394 C 0.49741 0.72355 0.77111 0.0
C1395 C 0.48413 0.70682 0.76127 0.0
C1396 C 0.48869 0.6914 0.7023 0.0
C1397 C 0.53749 0.58519 0.61252 0.0
C1398 C 0.52161 0.57669 0.66231 0.0
C1399 C 0.53662 0.6056 0.58402 0.0
C1400 C 0.51944 0.61801 0.60139 0.0
C1401 C 0.50383 0.60972 0.65369 0.0
C1402 C 0.50497 0.58938 0.68427 0.0
C1403 C 0.51775 0.63944 0.56484 0.0
C1404 C 0.51237 0.65579 0.61905 0.0
C1405 C 0.52193 0.64403 0.47774 0.0
C1406 C 0.52691 0.62779 0.41453 0.0
C1407 C 0.51409 0.61051 0.40443 0.0
C1408 C 0.51934 0.59502 0.34676 0.0
C1409 C 0.53707 0.59684 0.29725 0.0
C1410 C 0.54969 0.61411 0.30561 0.0
C1411 C 0.54468 0.62952 0.36396 0.0
H1412 H 0.54104 0.58486 0.25246 0.0
H1413 H 0.49385 0.73548 0.81676 0.0
H1414 H 0.77764 0.53072 0.5569 0.0
H1415 H 0.81126 0.52576 0.62569 0.0
H1416 H 0.83598 0.50362 0.38833 0.0
H1417 H 0.80212 0.50797 0.32076 0.0
H1418 H 0.85359 0.48331 0.50684 0.0
H1419 H 0.85679 0.56218 0.47913 0.0
H1420 H 0.84075 0.59633 0.49677 0.0
H1421 H 0.82014 0.57928 0.74702 0.0
H1422 H 0.83625 0.54519 0.73061 0.0
H1423 H 0.95692 0.53678 0.59715 0.0
H1424 H 0.92061 0.53701 0.55744 0.0
H1425 H 0.90879 0.4878 0.73442 0.0
H1426 H 0.9454 0.48775 0.7761 0.0
H1427 H 0.88466 0.54314 0.65461 0.0
H1428 H 0.86985 0.45612 0.61408 0.0
H1429 H 0.88967 0.42441 0.59087 0.0
H1430 H 0.93771 0.45913 0.47035 0.0
H1431 H 0.91794 0.49092 0.4903 0.0
C1432 C 0.79019 0.52442 0.52009 0.0
C1433 C 0.78717 0.51965 0.43355 0.0
C1434 C 0.80965 0.52206 0.55883 0.0
C1435 C 0.8268 0.51521 0.51173 0.0
C1436 C 0.82338 0.50937 0.42628 0.0
C1437 C 0.80392 0.51165 0.3877 0.0
C1438 C 0.84822 0.51424 0.55019 0.0
C1439 C 0.86019 0.49636 0.54006 0.0
C1440 C 0.85743 0.53114 0.59324 0.0
C1441 C 0.84697 0.55105 0.60229 0.0
C1442 C 0.8485 0.5657 0.53715 0.0
C1443 C 0.83957 0.58505 0.54722 0.0
C1444 C 0.82919 0.58987 0.62251 0.0
C1445 C 0.82798 0.57545 0.68836 0.0
C1446 C 0.83705 0.55616 0.67878 0.0
C1447 C 0.94665 0.52608 0.62853 0.0
C1448 C 0.95426 0.51223 0.69008 0.0
C1449 C 0.92577 0.52629 0.60577 0.0
C1450 C 0.91179 0.51239 0.64238 0.0
C1451 C 0.91919 0.49867 0.70484 0.0
C1452 C 0.94015 0.49871 0.72898 0.0
C1453 C 0.88974 0.51216 0.61274 0.0
C1454 C 0.87783 0.5299 0.62342 0.0
C1455 C 0.88071 0.49511 0.57043 0.0
C1456 C 0.89252 0.47599 0.55525 0.0
C1457 C 0.88459 0.45699 0.58226 0.0
C1458 C 0.89582 0.43898 0.56953 0.0
C1459 C 0.915 0.43977 0.52969 0.0
C1460 C 0.92294 0.45855 0.5019 0.0
C1461 C 0.91171 0.47658 0.51394 0.0
H1462 H 0.92368 0.42581 0.52005 0.0
H1463 H 0.82225 0.60483 0.63013 0.0
loop_
_geom_bond_atom_site_label_1
_geom_bond_atom_site_label_2
_geom_bond_distance
_geom_bond_site_symmetry_2
_ccdc_geom_bond_type
C0 N1 1.317 . S
C0 N2 1.348 . S
C0 C3 1.485 . S
N1 C0 1.317 . S
N1 N5 1.370 . S
N2 C0 1.348 . S
N2 C4 1.346 . S
C3 C0 1.485 . S
C3 H7 0.960 . S
C3 H8 0.961 . S
C3 H9 0.960 . S
C4 N2 1.346 . S
C4 N5 1.307 . S
C4 C6 1.486 . S
N5 N1 1.370 . S
N5 C4 1.307 . S
C6 C4 1.486 . S
C6 H10 0.960 . S
C6 H11 0.960 . S
C6 H12 0.959 . S
H7 C3 0.960 . S
H8 C3 0.961 . S
H9 C3 0.960 . S
H10 C6 0.960 . S
H11 C6 0.960 . S
H12 C6 0.959 . S
C13 N14 1.317 . S
C13 N15 1.350 . S
C13 C16 1.485 . S
N14 C13 1.317 . S
N14 N18 1.371 . S
N15 C13 1.350 . S
N15 C17 1.345 1_655 S
C16 C13 1.485 . S
C16 H20 0.960 1_655 S
C16 H21 0.961 . S
C16 H22 0.960 . S
C17 N15 1.345 1_455 S
C17 N18 1.307 1_455 S
C17 C19 1.485 . S
N18 N14 1.371 . S
N18 C17 1.307 1_655 S
C19 C17 1.485 . S
C19 H23 0.925 1_455 S
C19 H24 0.989 . S
C19 H25 0.967 . S
H20 C16 0.960 1_455 S
H21 C16 0.961 . S
H22 C16 0.960 . S
H23 C19 0.925 1_655 S
H24 C19 0.989 . S
H25 C19 0.967 . S
C26 N27 1.317 . S
C26 N28 1.350 . S
C26 C29 1.485 . S
N27 C26 1.317 . S
N27 N31 1.371 . S
N28 C26 1.350 . S
N28 C30 1.345 1_565 S
C29 C26 1.485 . S
C29 H33 0.960 1_565 S
C29 H34 0.961 . S
C29 H35 0.960 . S
C30 N28 1.345 1_545 S
C30 N31 1.307 1_545 S
C30 C32 1.486 . S
N31 N27 1.371 . S
N31 C30 1.307 1_565 S
C32 C30 1.486 . S
C32 H36 0.925 1_545 S
C32 H37 0.989 . S
C32 H38 0.967 . S
H33 C29 0.960 1_545 S
H34 C29 0.961 . S
H35 C29 0.960 . S
H36 C32 0.925 1_565 S
H37 C32 0.989 . S
H38 C32 0.967 . S
C39 N40 1.317 . S
C39 N41 1.348 . S
C39 C42 1.485 . S
N40 C39 1.317 . S
N40 N44 1.370 . S
N41 C39 1.348 . S
N41 C43 1.346 . S
C42 C39 1.485 . S
C42 H46 0.960 . S
C42 H47 0.961 . S
C42 H48 0.960 . S
C43 N41 1.346 . S
C43 N44 1.307 . S
C43 C45 1.486 . S
N44 N40 1.370 . S
N44 C43 1.307 . S
C45 C43 1.486 . S
C45 H49 0.960 . S
C45 H50 0.960 . S
C45 H51 0.959 . S
H46 C42 0.960 . S
H47 C42 0.961 . S
H48 C42 0.960 . S
H49 C45 0.960 . S
H50 C45 0.960 . S
H51 C45 0.959 . S
C52 N53 1.317 . S
C52 N54 1.348 1_556 S
C52 C55 1.485 . S
N53 C52 1.317 . S
N53 N57 1.370 1_556 S
N54 C52 1.348 1_554 S
N54 C56 1.346 . S
C55 C52 1.485 . S
C55 H59 0.960 . S
C55 H60 0.961 . S
C55 H61 0.960 . S
C56 N54 1.346 . S
C56 N57 1.307 . S
C56 C58 1.486 . S
N57 N53 1.370 1_554 S
N57 C56 1.307 . S
C58 C56 1.486 . S
C58 H62 0.960 . S
C58 H63 0.960 . S
C58 H64 0.959 . S
H59 C55 0.960 . S
H60 C55 0.961 . S
H61 C55 0.960 . S
H62 C58 0.960 . S
H63 C58 0.960 . S
H64 C58 0.959 . S
C65 N66 1.319 . S
C65 N67 1.350 1_556 S
C65 C68 1.485 . S
N66 C65 1.319 . S
N66 N70 1.369 1_556 S
N67 C65 1.350 1_554 S
N67 C69 1.345 1_655 S
C68 C65 1.485 . S
C68 H72 0.960 1_655 S
C68 H73 0.961 . S
C68 H74 0.960 . S
C69 N67 1.345 1_455 S
C69 N70 1.307 1_455 S
C69 C71 1.485 . S
N70 N66 1.369 1_554 S
N70 C69 1.307 1_655 S
C71 C69 1.485 . S
C71 H75 0.913 1_455 S
C71 H76 0.999 . S
C71 H77 0.970 . S
H72 C68 0.960 1_455 S
H73 C68 0.961 . S
H74 C68 0.960 . S
H75 C71 0.913 1_655 S
H76 C71 0.999 . S
H77 C71 0.970 . S
C78 N79 1.319 . S
C78 N80 1.350 1_556 S
C78 C81 1.485 . S
N79 C78 1.319 . S
N79 N83 1.369 1_556 S
N80 C78 1.350 1_554 S
N80 C82 1.345 1_565 S
C81 C78 1.485 . S
C81 H85 0.960 1_565 S
C81 H86 0.961 . S
C81 H87 0.960 . S
C82 N80 1.345 1_545 S
C82 N83 1.307 1_545 S
C82 C84 1.485 . S
N83 N79 1.369 1_554 S
N83 C82 1.307 1_565 S
C84 C82 1.485 . S
C84 H88 0.913 1_545 S
C84 H89 0.999 . S
C84 H90 0.970 . S
H85 C81 0.960 1_545 S
H86 C81 0.961 . S
H87 C81 0.960 . S
H88 C84 0.913 1_565 S
H89 C84 0.999 . S
H90 C84 0.970 . S
C91 N92 1.317 . S
C91 N93 1.348 1_556 S
C91 C94 1.485 . S
N92 C91 1.317 . S
N92 N96 1.370 1_556 S
N93 C91 1.348 1_554 S
N93 C95 1.346 . S
C94 C91 1.485 . S
C94 H98 0.960 . S
C94 H99 0.961 . S
C94 H100 0.960 . S
C95 N93 1.346 . S
C95 N96 1.307 . S
C95 C97 1.486 . S
N96 N92 1.370 1_554 S
N96 C95 1.307 . S
C97 C95 1.486 . S
C97 H101 0.960 . S
C97 H102 0.960 . S
C97 H103 0.959 . S
H98 C94 0.960 . S
H99 C94 0.961 . S
H100 C94 0.960 . S
H101 C97 0.960 . S
H102 C97 0.960 . S
H103 C97 0.959 . S
Sm104 C106 2.846 . S
Sm104 O124 2.543 . S
Sm104 O125 2.450 . S
Sm104 O126 2.681 1_565 S
Sm104 O127 2.464 . S
Sm104 O128 2.396 . S
Sm104 O132 2.386 1_455 S
Sm104 O135 2.408 1_565 S
Sm105 C115 2.846 . S
Sm105 O126 2.386 1_655 S
Sm105 O129 2.408 1_545 S
Sm105 O130 2.543 1_655 S
Sm105 O131 2.450 . S
Sm105 O132 2.681 1_545 S
Sm105 O133 2.464 . S
Sm105 O134 2.396 . S
C106 Sm104 2.846 . S
C106 C107 1.506 . S
C106 O124 1.263 . S
C106 O125 1.242 . S
C107 C106 1.506 . S
C107 C108 1.358 . S
C107 C112 1.382 . S
C108 C107 1.358 . S
C108 C109 1.384 1_556 S
C108 H136 0.930 1_455 S
C109 C108 1.384 1_554 S
C109 C110 1.395 . S
C109 H137 0.930 1_455 S
C110 C109 1.395 . S
C110 C111 1.335 1_554 S
C111 C110 1.335 1_556 S
C111 C112 1.398 . S
C111 H138 0.930 1_556 S
C112 C107 1.382 . S
C112 C111 1.398 . S
C112 H139 0.929 . S
C113 O126 1.256 1_565 S
C113 O127 1.278 . S
C114 O128 1.252 1_655 S
C114 O129 1.272 . S
C115 Sm105 2.846 . S
C115 C116 1.506 . S
C115 O130 1.263 1_655 S
C115 O131 1.242 . S
C116 C115 1.506 . S
C116 C117 1.358 . S
C116 C121 1.382 . S
C117 C116 1.358 . S
C117 C118 1.385 . S
C117 H140 0.930 1_655 S
C118 C117 1.385 . S
C118 C119 1.395 . S
C118 H141 0.929 1_655 S
C119 C118 1.395 . S
C119 C120 1.335 . S
C120 C119 1.335 . S
C120 C121 1.398 . S
C120 H142 0.930 . S
C121 C116 1.382 . S
C121 C120 1.398 . S
C121 H143 0.929 . S
C122 O132 1.271 1_545 S
C122 O133 1.251 . S
C123 O134 1.252 1_455 S
C123 O135 1.272 . S
O124 Sm104 2.543 . S
O124 C106 1.263 . S
O125 Sm104 2.450 . S
O125 C106 1.242 . S
O126 Sm104 2.681 1_545 S
O126 Sm105 2.386 1_455 S
O126 C113 1.256 1_545 S
O127 Sm104 2.464 . S
O127 C113 1.278 . S
O128 Sm104 2.396 . S
O128 C114 1.252 1_455 S
O129 Sm105 2.408 1_565 S
O129 C114 1.272 . S
O130 Sm105 2.543 1_455 S
O130 C115 1.263 1_455 S
O131 Sm105 2.450 . S
O131 C115 1.242 . S
O132 Sm104 2.386 1_655 S
O132 Sm105 2.681 1_565 S
O132 C122 1.271 1_565 S
O133 Sm105 2.464 . S
O133 C122 1.251 . S
O134 Sm105 2.396 . S
O134 C123 1.252 1_655 S
O135 Sm104 2.408 1_545 S
O135 C123 1.272 . S
H136 C108 0.930 1_655 S
H137 C109 0.930 1_655 S
H138 C111 0.930 1_554 S
H139 C112 0.929 . S
H140 C117 0.930 1_455 S
H141 C118 0.929 1_455 S
H142 C120 0.930 . S
H143 C121 0.929 . S
Sm144 C146 2.846 . S
Sm144 O164 2.543 . S
Sm144 O165 2.450 . S
Sm144 O166 2.681 . S
Sm144 O167 2.464 . S
Sm144 O168 2.396 . S
Sm144 O172 2.386 1_545 S
Sm144 O175 2.408 . S
Sm145 C155 2.846 . S
Sm145 O166 2.386 1_565 S
Sm145 O169 2.408 . S
Sm145 O170 2.543 1_565 S
Sm145 O171 2.450 . S
Sm145 O172 2.681 . S
Sm145 O173 2.464 . S
Sm145 O174 2.396 . S
C146 Sm144 2.846 . S
C146 C147 1.506 . S
C146 O164 1.261 . S
C146 O165 1.242 . S
C147 C146 1.506 . S
C147 C148 1.358 . S
C147 C152 1.382 . S
C148 C147 1.358 . S
C148 C149 1.384 1_556 S
C148 H176 0.930 1_545 S
C149 C148 1.384 1_554 S
C149 C150 1.395 . S
C149 H177 0.930 1_545 S
C150 C149 1.395 . S
C150 C151 1.335 1_554 S
C151 C150 1.335 1_556 S
C151 C152 1.398 . S
C151 H178 0.929 . S
C152 C147 1.382 . S
C152 C151 1.398 . S
C152 H179 0.929 . S
C153 O166 1.271 . S
C153 O167 1.251 . S
C154 O168 1.252 1_565 S
C154 O169 1.272 . S
C155 Sm145 2.846 . S
C155 C156 1.506 . S
C155 O170 1.261 1_565 S
C155 O171 1.242 . S
C156 C155 1.506 . S
C156 C157 1.358 . S
C156 C161 1.382 . S
C157 C156 1.358 . S
C157 C158 1.385 . S
C157 H180 0.930 1_565 S
C158 C157 1.385 . S
C158 C159 1.395 . S
C158 H181 0.929 1_565 S
C159 C158 1.395 . S
C159 C160 1.335 . S
C160 C159 1.335 . S
C160 C161 1.398 . S
C160 H182 0.930 . S
C161 C156 1.382 . S
C161 C160 1.398 . S
C161 H183 0.929 . S
C162 O172 1.271 . S
C162 O173 1.251 . S
C163 O174 1.252 1_545 S
C163 O175 1.272 . S
O164 Sm144 2.543 . S
O164 C146 1.261 . S
O165 Sm144 2.450 . S
O165 C146 1.242 . S
O166 Sm144 2.681 . S
O166 Sm145 2.386 1_545 S
O166 C153 1.271 . S
O167 Sm144 2.464 . S
O167 C153 1.251 . S
O168 Sm144 2.396 . S
O168 C154 1.252 1_545 S
O169 Sm145 2.408 . S
O169 C154 1.272 . S
O170 Sm145 2.543 1_545 S
O170 C155 1.261 1_545 S
O171 Sm145 2.450 . S
O171 C155 1.242 . S
O172 Sm144 2.386 1_565 S
O172 Sm145 2.681 . S
O172 C162 1.271 . S
O173 Sm145 2.464 . S
O173 C162 1.251 . S
O174 Sm145 2.396 . S
O174 C163 1.252 1_565 S
O175 Sm144 2.408 . S
O175 C163 1.272 . S
H176 C148 0.930 1_565 S
H177 C149 0.930 1_565 S
H178 C151 0.929 . S
H179 C152 0.929 . S
H180 C157 0.930 1_545 S
H181 C158 0.929 1_545 S
H182 C160 0.930 . S
H183 C161 0.929 . S
Sm184 C186 2.846 . S
Sm184 O204 2.543 . S
Sm184 O205 2.450 . S
Sm184 O206 2.681 . S
Sm184 O207 2.464 . S
Sm184 O208 2.396 . S
Sm184 O212 2.386 . S
Sm184 O215 2.408 . S
Sm185 C195 2.846 . S
Sm185 O206 2.386 . S
Sm185 O209 2.408 . S
Sm185 O210 2.543 . S
Sm185 O211 2.450 . S
Sm185 O212 2.681 . S
Sm185 O213 2.464 . S
Sm185 O214 2.396 . S
C186 Sm184 2.846 . S
C186 C187 1.506 . S
C186 O204 1.261 . S
C186 O205 1.242 . S
C187 C186 1.506 . S
C187 C188 1.358 . S
C187 C192 1.382 . S
C188 C187 1.358 . S
C188 C189 1.385 1_556 S
C188 H216 0.930 . S
C189 C188 1.385 1_554 S
C189 C190 1.395 . S
C189 H217 0.929 . S
C190 C189 1.395 . S
C190 C191 1.335 1_554 S
C191 C190 1.335 1_556 S
C191 C192 1.398 . S
C191 H218 0.929 . S
C192 C187 1.382 . S
C192 C191 1.398 . S
C192 H219 0.929 . S
C193 O206 1.271 . S
C193 O207 1.251 . S
C194 O208 1.252 . S
C194 O209 1.272 . S
C195 Sm185 2.846 . S
C195 C196 1.506 . S
C195 O210 1.261 . S
C195 O211 1.242 . S
C196 C195 1.506 . S
C196 C197 1.358 . S
C196 C201 1.382 . S
C197 C196 1.358 . S
C197 C198 1.385 . S
C197 H220 0.930 . S
C198 C197 1.385 . S
C198 C199 1.395 . S
C198 H221 0.929 . S
C199 C198 1.395 . S
C199 C200 1.335 . S
C200 C199 1.335 . S
C200 C201 1.398 . S
C200 H222 0.930 . S
C201 C196 1.382 . S
C201 C200 1.398 . S
C201 H223 0.929 . S
C202 O212 1.271 . S
C202 O213 1.251 . S
C203 O214 1.252 . S
C203 O215 1.272 . S
O204 Sm184 2.543 . S
O204 C186 1.261 . S
O205 Sm184 2.450 . S
O205 C186 1.242 . S
O206 Sm184 2.681 . S
O206 Sm185 2.386 . S
O206 C193 1.271 . S
O207 Sm184 2.464 . S
O207 C193 1.251 . S
O208 Sm184 2.396 . S
O208 C194 1.252 . S
O209 Sm185 2.408 . S
O209 C194 1.272 . S
O210 Sm185 2.543 . S
O210 C195 1.261 . S
O211 Sm185 2.450 . S
O211 C195 1.242 . S
O212 Sm184 2.386 . S
O212 Sm185 2.681 . S
O212 C202 1.271 . S
O213 Sm185 2.464 . S
O213 C202 1.251 . S
O214 Sm185 2.396 . S
O214 C203 1.252 . S
O215 Sm184 2.408 . S
O215 C203 1.272 . S
H216 C188 0.930 . S
H217 C189 0.929 . S
H218 C191 0.929 . S
H219 C192 0.929 . S
H220 C197 0.930 . S
H221 C198 0.929 . S
H222 C200 0.930 . S
H223 C201 0.929 . S
Sm224 C226 2.846 . S
Sm224 O244 2.543 . S
Sm224 O245 2.450 . S
Sm224 O246 2.681 1_655 S
Sm224 O247 2.464 . S
Sm224 O248 2.396 . S
Sm224 O252 2.386 . S
Sm224 O255 2.408 1_655 S
Sm225 C235 2.846 . S
Sm225 O246 2.386 . S
Sm225 O249 2.408 1_455 S
Sm225 O250 2.543 . S
Sm225 O251 2.450 . S
Sm225 O252 2.681 1_455 S
Sm225 O253 2.464 . S
Sm225 O254 2.396 . S
C226 Sm224 2.846 . S
C226 C227 1.506 . S
C226 O244 1.261 . S
C226 O245 1.242 . S
C227 C226 1.506 . S
C227 C228 1.358 . S
C227 C232 1.382 . S
C228 C227 1.358 . S
C228 C229 1.385 . S
C228 H256 0.930 . S
C229 C228 1.385 . S
C229 C230 1.395 1_556 S
C229 H257 0.929 1_556 S
C230 C229 1.395 1_554 S
C230 C231 1.335 1_554 S
C231 C230 1.335 1_556 S
C231 C232 1.398 . S
C231 H258 0.930 . S
C232 C227 1.382 . S
C232 C231 1.398 . S
C232 H259 0.929 . S
C233 O246 1.257 1_655 S
C233 O247 1.276 . S
C234 O248 1.252 . S
C234 O249 1.272 . S
C235 Sm225 2.846 . S
C235 C236 1.506 . S
C235 O250 1.261 . S
C235 O251 1.242 . S
C236 C235 1.506 . S
C236 C237 1.358 . S
C236 C241 1.382 . S
C237 C236 1.358 . S
C237 C238 1.385 . S
C237 H260 0.930 . S
C238 C237 1.385 . S
C238 C239 1.395 . S
C238 H261 0.929 . S
C239 C238 1.395 . S
C239 C240 1.335 . S
C240 C239 1.335 . S
C240 C241 1.398 . S
C240 H262 0.930 . S
C241 C236 1.382 . S
C241 C240 1.398 . S
C241 H263 0.929 . S
C242 O252 1.271 1_455 S
C242 O253 1.251 . S
C243 O254 1.252 . S
C243 O255 1.272 . S
O244 Sm224 2.543 . S
O244 C226 1.261 . S
O245 Sm224 2.450 . S
O245 C226 1.242 . S
O246 Sm224 2.681 1_455 S
O246 Sm225 2.386 . S
O246 C233 1.257 1_455 S
O247 Sm224 2.464 . S
O247 C233 1.276 . S
O248 Sm224 2.396 . S
O248 C234 1.252 . S
O249 Sm225 2.408 1_655 S
O249 C234 1.272 . S
O250 Sm225 2.543 . S
O250 C235 1.261 . S
O251 Sm225 2.450 . S
O251 C235 1.242 . S
O252 Sm224 2.386 . S
O252 Sm225 2.681 1_655 S
O252 C242 1.271 1_655 S
O253 Sm225 2.464 . S
O253 C242 1.251 . S
O254 Sm225 2.396 . S
O254 C243 1.252 . S
O255 Sm224 2.408 1_455 S
O255 C243 1.272 . S
H256 C228 0.930 . S
H257 C229 0.929 1_554 S
H258 C231 0.930 . S
H259 C232 0.929 . S
H260 C237 0.930 . S
H261 C238 0.929 . S
H262 C240 0.930 . S
H263 C241 0.929 . S
H264 C282 0.951 . S
H265 C284 0.951 . S
H266 C286 0.950 . S
H267 C287 0.950 . S
H268 C289 0.950 . S
H269 C292 0.950 . S
H270 C293 0.950 . S
H271 C295 0.950 . S
H272 C296 0.950 . S
H273 C297 0.951 . S
H274 C299 0.951 . S
H275 C301 0.950 . S
H276 C302 0.950 . S
H277 C304 0.950 . S
H278 C307 0.950 . S
H279 C308 0.950 . S
H280 C310 0.950 . S
H281 C311 0.950 . S
C282 H264 0.951 . S
C282 C283 1.367 . S
C282 C284 1.388 . S
C283 C282 1.367 . S
C283 C287 1.383 1_545 S
C284 H265 0.951 . S
C284 C282 1.388 . S
C284 C285 1.360 1_545 S
C285 C284 1.360 1_565 S
C285 C286 1.419 . S
C285 C288 1.499 . S
C286 H266 0.950 . S
C286 C285 1.419 . S
C286 C287 1.374 . S
C287 H267 0.950 . S
C287 C283 1.383 1_565 S
C287 C286 1.374 . S
C288 C285 1.499 . S
C288 C289 1.351 1_565 S
C288 C290 1.410 . S
C289 H268 0.950 . S
C289 C288 1.351 1_545 S
C289 C305 1.377 . S
C290 C288 1.410 . S
C290 C291 1.524 . S
C290 C304 1.377 . S
C291 C290 1.524 . S
C291 C292 1.397 . S
C291 C296 1.363 . S
C292 H269 0.950 . S
C292 C291 1.397 . S
C292 C293 1.334 . S
C293 H270 0.950 . S
C293 C292 1.334 . S
C293 C294 1.287 . S
C294 C293 1.287 . S
C294 C295 1.524 . S
C294 H313 0.913 . S
C295 H271 0.950 . S
C295 C294 1.524 . S
C295 C296 1.415 . S
C296 H272 0.950 . S
C296 C291 1.363 . S
C296 C295 1.415 . S
C297 H273 0.951 . S
C297 C298 1.366 1_565 S
C297 C299 1.388 . S
C298 C297 1.366 1_545 S
C298 C302 1.385 . S
C299 H274 0.951 . S
C299 C297 1.388 . S
C299 C300 1.366 1_565 S
C300 C299 1.366 1_545 S
C300 C301 1.414 . S
C300 C303 1.499 . S
C301 H275 0.950 . S
C301 C300 1.414 . S
C301 C302 1.374 . S
C302 H276 0.950 . S
C302 C298 1.385 . S
C302 C301 1.374 . S
C303 C300 1.499 . S
C303 C304 1.373 1_545 S
C303 C305 1.389 . S
C304 H277 0.950 . S
C304 C290 1.377 . S
C304 C303 1.373 1_565 S
C305 C289 1.377 . S
C305 C303 1.389 . S
C305 C306 1.524 . S
C306 C305 1.524 . S
C306 C307 1.397 . S
C306 C311 1.363 . S
C307 H278 0.950 . S
C307 C306 1.397 . S
C307 C308 1.334 . S
C308 H279 0.950 . S
C308 C307 1.334 . S
C308 C309 1.287 . S
C309 C308 1.287 . S
C309 C310 1.524 . S
C309 H312 0.999 . S
C310 H280 0.950 . S
C310 C309 1.524 . S
C310 C311 1.415 . S
C311 H281 0.950 . S
C311 C306 1.363 . S
C311 C310 1.415 . S
H312 C309 0.999 . S
H313 C294 0.913 . S
H314 C332 0.951 . S
H315 C334 0.951 . S
H316 C336 0.950 . S
H317 C337 0.950 . S
H318 C339 0.950 . S
H319 C342 0.950 . S
H320 C343 0.950 . S
H321 C345 0.950 . S
H322 C346 0.950 . S
H323 C347 0.951 . S
H324 C349 0.951 . S
H325 C351 0.950 . S
H326 C352 0.950 . S
H327 C354 0.950 . S
H328 C357 0.950 . S
H329 C358 0.950 . S
H330 C360 0.950 . S
H331 C361 0.950 . S
C332 H314 0.951 . S
C332 C333 1.366 . S
C332 C334 1.388 . S
C333 C332 1.366 . S
C333 C337 1.385 . S
C334 H315 0.951 . S
C334 C332 1.388 . S
C334 C335 1.366 . S
C335 C334 1.366 . S
C335 C336 1.414 . S
C335 C338 1.499 . S
C336 H316 0.950 . S
C336 C335 1.414 . S
C336 C337 1.374 . S
C337 H317 0.950 . S
C337 C333 1.385 . S
C337 C336 1.374 . S
C338 C335 1.499 . S
C338 C339 1.373 . S
C338 C340 1.389 . S
C339 H318 0.950 . S
C339 C338 1.373 . S
C339 C355 1.377 . S
C340 C338 1.389 . S
C340 C341 1.524 . S
C340 C354 1.377 . S
C341 C340 1.524 . S
C341 C342 1.397 . S
C341 C346 1.363 . S
C342 H319 0.950 . S
C342 C341 1.397 . S
C342 C343 1.334 . S
C343 H320 0.950 . S
C343 C342 1.334 . S
C343 C344 1.287 . S
C344 C343 1.287 . S
C344 C345 1.524 . S
C344 H363 0.913 . S
C345 H321 0.950 . S
C345 C344 1.524 . S
C345 C346 1.415 . S
C346 H322 0.950 . S
C346 C341 1.363 . S
C346 C345 1.415 . S
C347 H323 0.951 . S
C347 C348 1.366 . S
C347 C349 1.388 . S
C348 C347 1.366 . S
C348 C352 1.385 . S
C349 H324 0.951 . S
C349 C347 1.388 . S
C349 C350 1.366 . S
C350 C349 1.366 . S
C350 C351 1.414 . S
C350 C353 1.499 . S
C351 H325 0.950 . S
C351 C350 1.414 . S
C351 C352 1.374 . S
C352 H326 0.950 . S
C352 C348 1.385 . S
C352 C351 1.374 . S
C353 C350 1.499 . S
C353 C354 1.373 . S
C353 C355 1.389 . S
C354 H327 0.950 . S
C354 C340 1.377 . S
C354 C353 1.373 . S
C355 C339 1.377 . S
C355 C353 1.389 . S
C355 C356 1.524 . S
C356 C355 1.524 . S
C356 C357 1.397 . S
C356 C361 1.363 . S
C357 H328 0.950 . S
C357 C356 1.397 . S
C357 C358 1.334 . S
C358 H329 0.950 . S
C358 C357 1.334 . S
C358 C359 1.287 . S
C359 C358 1.287 . S
C359 C360 1.524 . S
C359 H362 0.999 . S
C360 H330 0.950 . S
C360 C359 1.524 . S
C360 C361 1.415 . S
C361 H331 0.950 . S
C361 C356 1.363 . S
C361 C360 1.415 . S
H362 C359 0.999 . S
H363 C344 0.913 . S
H364 C382 0.951 . S
H365 C384 0.951 . S
H366 C386 0.950 . S
H367 C387 0.950 . S
H368 C389 0.950 . S
H369 C392 0.950 . S
H370 C393 0.950 . S
H371 C395 0.950 . S
H372 C396 0.950 . S
H373 C397 0.951 . S
H374 C399 0.951 . S
H375 C401 0.950 . S
H376 C402 0.950 . S
H377 C404 0.950 . S
H378 C407 0.950 . S
H379 C408 0.950 . S
H380 C410 0.950 . S
H381 C411 0.950 . S
C382 H364 0.951 . S
C382 C383 1.366 . S
C382 C384 1.388 . S
C383 C382 1.366 . S
C383 C387 1.385 . S
C384 H365 0.951 . S
C384 C382 1.388 . S
C384 C385 1.366 . S
C385 C384 1.366 . S
C385 C386 1.414 . S
C385 C388 1.499 . S
C386 H366 0.950 . S
C386 C385 1.414 . S
C386 C387 1.374 . S
C387 H367 0.950 . S
C387 C383 1.385 . S
C387 C386 1.374 . S
C388 C385 1.499 . S
C388 C389 1.373 . S
C388 C390 1.389 . S
C389 H368 0.950 . S
C389 C388 1.373 . S
C389 C405 1.377 . S
C390 C388 1.389 . S
C390 C391 1.524 . S
C390 C404 1.377 . S
C391 C390 1.524 . S
C391 C392 1.397 . S
C391 C396 1.363 . S
C392 H369 0.950 . S
C392 C391 1.397 . S
C392 C393 1.334 . S
C393 H370 0.950 . S
C393 C392 1.334 . S
C393 C394 1.287 . S
C394 C393 1.287 . S
C394 C395 1.524 . S
C394 H413 0.913 . S
C395 H371 0.950 . S
C395 C394 1.524 . S
C395 C396 1.415 . S
C396 H372 0.950 . S
C396 C391 1.363 . S
C396 C395 1.415 . S
C397 H373 0.951 . S
C397 C398 1.366 . S
C397 C399 1.388 . S
C398 C397 1.366 . S
C398 C402 1.385 . S
C399 H374 0.951 . S
C399 C397 1.388 . S
C399 C400 1.366 . S
C400 C399 1.366 . S
C400 C401 1.414 . S
C400 C403 1.499 . S
C401 H375 0.950 . S
C401 C400 1.414 . S
C401 C402 1.374 . S
C402 H376 0.950 . S
C402 C398 1.385 . S
C402 C401 1.374 . S
C403 C400 1.499 . S
C403 C404 1.373 . S
C403 C405 1.389 . S
C404 H377 0.950 . S
C404 C390 1.377 . S
C404 C403 1.373 . S
C405 C389 1.377 . S
C405 C403 1.389 . S
C405 C406 1.524 . S
C406 C405 1.524 . S
C406 C407 1.397 . S
C406 C411 1.363 . S
C407 H378 0.950 . S
C407 C406 1.397 . S
C407 C408 1.334 . S
C408 H379 0.950 . S
C408 C407 1.334 . S
C408 C409 1.287 . S
C409 C408 1.287 . S
C409 C410 1.524 . S
C409 H412 0.999 . S
C410 H380 0.950 . S
C410 C409 1.524 . S
C410 C411 1.415 . S
C411 H381 0.950 . S
C411 C406 1.363 . S
C411 C410 1.415 . S
H412 C409 0.999 . S
H413 C394 0.913 . S
H414 C432 0.951 . S
H415 C434 0.951 . S
H416 C436 0.950 . S
H417 C437 0.950 . S
H418 C439 0.950 . S
H419 C442 0.950 . S
H420 C443 0.950 . S
H421 C445 0.950 . S
H422 C446 0.950 . S
H423 C447 0.951 . S
H424 C449 0.951 . S
H425 C451 0.950 . S
H426 C452 0.950 . S
H427 C454 0.950 . S
H428 C457 0.950 . S
H429 C458 0.950 . S
H430 C460 0.950 . S
H431 C461 0.950 . S
C432 H414 0.951 . S
C432 C433 1.361 1_655 S
C432 C434 1.388 . S
C433 C432 1.361 1_455 S
C433 C437 1.390 . S
C434 H415 0.951 . S
C434 C432 1.388 . S
C434 C435 1.373 . S
C435 C434 1.373 . S
C435 C436 1.406 1_655 S
C435 C438 1.498 1_655 S
C436 H416 0.950 . S
C436 C435 1.406 1_455 S
C436 C437 1.374 . S
C437 H417 0.950 . S
C437 C433 1.390 . S
C437 C436 1.374 . S
C438 C435 1.498 1_455 S
C438 C439 1.379 . S
C438 C440 1.384 1_455 S
C439 H418 0.950 . S
C439 C438 1.379 . S
C439 C455 1.377 . S
C440 C438 1.384 1_655 S
C440 C441 1.524 . S
C440 C454 1.377 . S
C441 C440 1.524 . S
C441 C442 1.397 . S
C441 C446 1.363 . S
C442 H419 0.950 . S
C442 C441 1.397 . S
C442 C443 1.334 . S
C443 H420 0.950 . S
C443 C442 1.334 . S
C443 C444 1.287 . S
C444 C443 1.287 . S
C444 C445 1.524 . S
C444 H463 0.913 . S
C445 H421 0.950 . S
C445 C444 1.524 . S
C445 C446 1.415 . S
C446 H422 0.950 . S
C446 C441 1.363 . S
C446 C445 1.415 . S
C447 H423 0.951 . S
C447 C448 1.366 . S
C447 C449 1.388 . S
C448 C447 1.366 . S
C448 C452 1.385 1_455 S
C449 H424 0.951 . S
C449 C447 1.388 . S
C449 C450 1.366 . S
C450 C449 1.366 . S
C450 C451 1.414 1_455 S
C450 C453 1.499 . S
C451 H425 0.950 . S
C451 C450 1.414 1_655 S
C451 C452 1.374 . S
C452 H426 0.950 . S
C452 C448 1.385 1_655 S
C452 C451 1.374 . S
C453 C450 1.499 . S
C453 C454 1.373 1_455 S
C453 C455 1.389 . S
C454 H427 0.950 . S
C454 C440 1.377 . S
C454 C453 1.373 1_655 S
C455 C439 1.377 . S
C455 C453 1.389 . S
C455 C456 1.524 . S
C456 C455 1.524 . S
C456 C457 1.397 . S
C456 C461 1.363 . S
C457 H428 0.950 . S
C457 C456 1.397 . S
C457 C458 1.334 . S
C458 H429 0.950 . S
C458 C457 1.334 . S
C458 C459 1.287 . S
C459 C458 1.287 . S
C459 C460 1.524 . S
C459 H462 0.999 . S
C460 H430 0.950 . S
C460 C459 1.524 . S
C460 C461 1.415 . S
C461 H431 0.950 . S
C461 C456 1.363 . S
C461 C460 1.415 . S
H462 C459 0.999 . S
H463 C444 0.913 . S
H464 C482 0.951 . S
H465 C484 0.951 . S
H466 C486 0.950 . S
H467 C487 0.950 . S
H468 C489 0.950 . S
H469 C492 0.950 . S
H470 C493 0.950 . S
H471 C495 0.950 . S
H472 C496 0.950 . S
H473 C497 0.951 . S
H474 C499 0.951 1_554 S
H475 C501 0.950 . S
H476 C502 0.950 . S
H477 C504 0.950 1_556 S
H478 C507 0.950 . S
H479 C508 0.950 . S
H480 C510 0.950 . S
H481 C511 0.950 . S
C482 H464 0.951 . S
C482 C483 1.365 . S
C482 C484 1.388 . S
C483 C482 1.365 . S
C483 C487 1.385 1_545 S
C484 H465 0.951 . S
C484 C482 1.388 . S
C484 C485 1.366 1_545 S
C485 C484 1.366 1_565 S
C485 C486 1.414 . S
C485 C488 1.499 . S
C486 H466 0.950 . S
C486 C485 1.414 . S
C486 C487 1.374 . S
C487 H467 0.950 . S
C487 C483 1.385 1_565 S
C487 C486 1.374 . S
C488 C485 1.499 . S
C488 C489 1.373 1_565 S
C488 C490 1.389 . S
C489 H468 0.950 . S
C489 C488 1.373 1_545 S
C489 C505 1.377 . S
C490 C488 1.389 . S
C490 C491 1.524 . S
C490 C504 1.377 . S
C491 C490 1.524 . S
C491 C492 1.397 . S
C491 C496 1.363 1_554 S
C492 H469 0.950 . S
C492 C491 1.397 . S
C492 C493 1.334 . S
C493 H470 0.950 . S
C493 C492 1.334 . S
C493 C494 1.287 . S
C494 C493 1.287 . S
C494 C495 1.524 1_554 S
C494 H513 0.913 . S
C495 H471 0.950 . S
C495 C494 1.524 1_556 S
C495 C496 1.415 . S
C496 H472 0.950 . S
C496 C491 1.363 1_556 S
C496 C495 1.415 . S
C497 H473 0.951 . S
C497 C498 1.375 . S
C497 C499 1.388 . S
C498 C497 1.375 . S
C498 C502 1.377 1_565 S
C499 H474 0.951 1_556 S
C499 C497 1.388 . S
C499 C500 1.363 1_565 S
C500 C499 1.363 1_545 S
C500 C501 1.416 . S
C500 C503 1.498 1_556 S
C501 H475 0.950 . S
C501 C500 1.416 . S
C501 C502 1.374 . S
C502 H476 0.950 . S
C502 C498 1.377 1_545 S
C502 C501 1.374 . S
C503 C500 1.498 1_554 S
C503 C504 1.352 1_545 S
C503 C505 1.409 . S
C504 H477 0.950 1_554 S
C504 C490 1.377 . S
C504 C503 1.352 1_565 S
C505 C489 1.377 . S
C505 C503 1.409 . S
C505 C506 1.524 . S
C506 C505 1.524 . S
C506 C507 1.397 . S
C506 C511 1.363 . S
C507 H478 0.950 . S
C507 C506 1.397 . S
C507 C508 1.334 . S
C508 H479 0.950 . S
C508 C507 1.334 . S
C508 C509 1.287 . S
C509 C508 1.287 . S
C509 C510 1.524 . S
C509 H512 0.999 . S
C510 H480 0.950 . S
C510 C509 1.524 . S
C510 C511 1.415 . S
C511 H481 0.950 . S
C511 C506 1.363 . S
C511 C510 1.415 . S
H512 C509 0.999 . S
H513 C494 0.913 . S
H514 C532 0.951 . S
H515 C534 0.951 . S
H516 C536 0.950 . S
H517 C537 0.950 . S
H518 C539 0.950 . S
H519 C542 0.950 . S
H520 C543 0.950 . S
H521 C545 0.950 . S
H522 C546 0.950 . S
H523 C547 0.951 . S
H524 C549 0.951 . S
H525 C551 0.950 1_554 S
H526 C552 0.950 . S
H527 C554 0.950 . S
H528 C557 0.950 . S
H529 C558 0.950 . S
H530 C560 0.950 1_556 S
H531 C561 0.950 . S
C532 H514 0.951 . S
C532 C533 1.366 . S
C532 C534 1.388 . S
C533 C532 1.366 . S
C533 C537 1.385 . S
C534 H515 0.951 . S
C534 C532 1.388 . S
C534 C535 1.366 . S
C535 C534 1.366 . S
C535 C536 1.414 . S
C535 C538 1.499 . S
C536 H516 0.950 . S
C536 C535 1.414 . S
C536 C537 1.374 . S
C537 H517 0.950 . S
C537 C533 1.385 . S
C537 C536 1.374 . S
C538 C535 1.499 . S
C538 C539 1.373 . S
C538 C540 1.389 . S
C539 H518 0.950 . S
C539 C538 1.373 . S
C539 C555 1.377 . S
C540 C538 1.389 . S
C540 C541 1.524 . S
C540 C554 1.377 . S
C541 C540 1.524 . S
C541 C542 1.397 . S
C541 C546 1.363 . S
C542 H519 0.950 . S
C542 C541 1.397 . S
C542 C543 1.334 . S
C543 H520 0.950 . S
C543 C542 1.334 . S
C543 C544 1.287 . S
C544 C543 1.287 . S
C544 C545 1.524 . S
C544 H563 0.913 . S
C545 H521 0.950 . S
C545 C544 1.524 . S
C545 C546 1.415 . S
C546 H522 0.950 . S
C546 C541 1.363 . S
C546 C545 1.415 . S
C547 H523 0.951 . S
C547 C548 1.366 . S
C547 C549 1.388 . S
C548 C547 1.366 . S
C548 C552 1.385 . S
C549 H524 0.951 . S
C549 C547 1.388 . S
C549 C550 1.366 . S
C550 C549 1.366 . S
C550 C551 1.414 . S
C550 C553 1.499 1_556 S
C551 H525 0.950 1_556 S
C551 C550 1.414 . S
C551 C552 1.374 . S
C552 H526 0.950 . S
C552 C548 1.385 . S
C552 C551 1.374 . S
C553 C550 1.499 1_554 S
C553 C554 1.373 . S
C553 C555 1.389 . S
C554 H527 0.950 . S
C554 C540 1.377 . S
C554 C553 1.373 . S
C555 C539 1.377 . S
C555 C553 1.389 . S
C555 C556 1.524 . S
C556 C555 1.524 . S
C556 C557 1.397 . S
C556 C561 1.363 . S
C557 H528 0.950 . S
C557 C556 1.397 . S
C557 C558 1.334 . S
C558 H529 0.950 . S
C558 C557 1.334 . S
C558 C559 1.287 . S
C559 C558 1.287 . S
C559 C560 1.524 . S
C559 H562 0.999 . S
C560 H530 0.950 1_554 S
C560 C559 1.524 . S
C560 C561 1.415 . S
C561 H531 0.950 . S
C561 C556 1.363 . S
C561 C560 1.415 . S
H562 C559 0.999 . S
H563 C544 0.913 . S
H564 C582 0.951 . S
H565 C584 0.951 . S
H566 C586 0.950 . S
H567 C587 0.950 . S
H568 C589 0.950 . S
H569 C592 0.950 . S
H570 C593 0.950 . S
H571 C595 0.950 . S
H572 C596 0.950 . S
H573 C597 0.951 . S
H574 C599 0.951 . S
H575 C601 0.944 1_554 S
H576 C602 0.950 . S
H577 C604 0.950 . S
H578 C607 0.950 . S
H579 C608 0.950 . S
H580 C610 0.950 . S
H581 C611 0.950 . S
C582 H564 0.951 . S
C582 C583 1.366 . S
C582 C584 1.388 . S
C583 C582 1.366 . S
C583 C587 1.385 . S
C584 H565 0.951 . S
C584 C582 1.388 . S
C584 C585 1.366 . S
C585 C584 1.366 . S
C585 C586 1.414 . S
C585 C588 1.499 . S
C586 H566 0.950 . S
C586 C585 1.414 . S
C586 C587 1.374 . S
C587 H567 0.950 . S
C587 C583 1.385 . S
C587 C586 1.374 . S
C588 C585 1.499 . S
C588 C589 1.373 . S
C588 C590 1.389 . S
C589 H568 0.950 . S
C589 C588 1.373 . S
C589 C605 1.377 . S
C590 C588 1.389 . S
C590 C591 1.524 . S
C590 C604 1.377 . S
C591 C590 1.524 . S
C591 C592 1.397 . S
C591 C596 1.363 . S
C592 H569 0.950 . S
C592 C591 1.397 . S
C592 C593 1.334 . S
C593 H570 0.950 . S
C593 C592 1.334 . S
C593 C594 1.287 . S
C594 C593 1.287 . S
C594 C595 1.524 . S
C594 H613 0.913 . S
C595 H571 0.950 . S
C595 C594 1.524 . S
C595 C596 1.415 . S
C596 H572 0.950 . S
C596 C591 1.363 . S
C596 C595 1.415 . S
C597 H573 0.951 . S
C597 C598 1.366 . S
C597 C599 1.388 . S
C598 C597 1.366 . S
C598 C602 1.385 . S
C599 H574 0.951 . S
C599 C597 1.388 . S
C599 C600 1.366 . S
C600 C599 1.366 . S
C600 C601 1.416 . S
C600 C603 1.499 1_556 S
C601 H575 0.944 1_556 S
C601 C600 1.416 . S
C601 C602 1.378 . S
C602 H576 0.950 . S
C602 C598 1.385 . S
C602 C601 1.378 . S
C603 C600 1.499 1_554 S
C603 C604 1.373 . S
C603 C605 1.389 . S
C604 H577 0.950 . S
C604 C590 1.377 . S
C604 C603 1.373 . S
C605 C589 1.377 . S
C605 C603 1.389 . S
C605 C606 1.524 1_554 S
C606 C605 1.524 1_556 S
C606 C607 1.397 . S
C606 C611 1.363 . S
C607 H578 0.950 . S
C607 C606 1.397 . S
C607 C608 1.334 . S
C608 H579 0.950 . S
C608 C607 1.334 . S
C608 C609 1.287 . S
C609 C608 1.287 . S
C609 C610 1.524 . S
C609 H612 0.999 . S
C610 H580 0.950 . S
C610 C609 1.524 . S
C610 C611 1.415 . S
C611 H581 0.950 . S
C611 C606 1.363 . S
C611 C610 1.415 . S
H612 C609 0.999 . S
H613 C594 0.913 . S
H614 C632 0.951 . S
H615 C634 0.951 . S
H616 C636 0.952 . S
H617 C637 0.955 . S
H618 C639 0.950 . S
H619 C642 0.950 . S
H620 C643 0.950 . S
H621 C645 0.950 . S
H622 C646 0.950 1_556 S
H623 C647 0.950 . S
H624 C649 0.956 1_554 S
H625 C651 0.950 . S
H626 C652 0.950 . S
H627 C654 0.950 1_556 S
H628 C657 0.950 1_556 S
H629 C658 0.950 1_556 S
H630 C660 0.950 . S
H631 C661 0.950 . S
C632 H614 0.951 . S
C632 C633 1.366 . S
C632 C634 1.388 . S
C633 C632 1.366 . S
C633 C637 1.383 1_655 S
C634 H615 0.951 . S
C634 C632 1.388 . S
C634 C635 1.366 . S
C635 C634 1.366 . S
C635 C636 1.412 1_655 S
C635 C638 1.499 . S
C636 H616 0.952 . S
C636 C635 1.412 1_455 S
C636 C637 1.373 . S
C637 H617 0.955 . S
C637 C633 1.383 1_455 S
C637 C636 1.373 . S
C638 C635 1.499 . S
C638 C639 1.373 1_655 S
C638 C640 1.389 . S
C639 H618 0.950 . S
C639 C638 1.373 1_455 S
C639 C655 1.377 . S
C640 C638 1.389 . S
C640 C641 1.524 . S
C640 C654 1.377 . S
C641 C640 1.524 . S
C641 C642 1.397 . S
C641 C646 1.363 . S
C642 H619 0.950 . S
C642 C641 1.397 . S
C642 C643 1.334 . S
C643 H620 0.950 . S
C643 C642 1.334 . S
C643 C644 1.287 . S
C644 C643 1.287 . S
C644 C645 1.524 1_554 S
C644 H663 0.913 . S
C645 H621 0.950 . S
C645 C644 1.524 1_556 S
C645 C646 1.415 1_556 S
C646 H622 0.950 1_554 S
C646 C641 1.363 . S
C646 C645 1.415 1_554 S
C647 H623 0.950 . S
C647 C648 1.365 1_455 S
C647 C649 1.387 . S
C648 C647 1.365 1_655 S
C648 C652 1.385 . S
C649 H624 0.956 1_556 S
C649 C647 1.387 . S
C649 C650 1.365 . S
C650 C649 1.365 . S
C650 C651 1.414 1_455 S
C650 C653 1.499 1_556 S
C651 H625 0.950 . S
C651 C650 1.414 1_655 S
C651 C652 1.374 . S
C652 H626 0.950 . S
C652 C648 1.385 . S
C652 C651 1.374 . S
C653 C650 1.499 1_554 S
C653 C654 1.365 1_455 S
C653 C655 1.397 . S
C654 H627 0.950 1_554 S
C654 C640 1.377 . S
C654 C653 1.365 1_655 S
C655 C639 1.377 . S
C655 C653 1.397 . S
C655 C656 1.524 . S
C656 C655 1.524 . S
C656 C657 1.397 . S
C656 C661 1.363 . S
C657 H628 0.950 1_554 S
C657 C656 1.397 . S
C657 C658 1.334 . S
C658 H629 0.950 1_554 S
C658 C657 1.334 . S
C658 C659 1.287 . S
C659 C658 1.287 . S
C659 C660 1.524 . S
C659 H662 0.999 . S
C660 H630 0.950 . S
C660 C659 1.524 . S
C660 C661 1.415 . S
C661 H631 0.950 . S
C661 C656 1.363 . S
C661 C660 1.415 . S
H662 C659 0.999 . S
H663 C644 0.913 . S
H664 C682 0.951 1_556 S
H665 C684 0.951 . S
H666 C686 0.950 . S
H667 C687 0.950 . S
H668 C689 0.950 . S
H669 C692 0.950 . S
H670 C693 0.950 . S
H671 C695 0.950 . S
H672 C696 0.950 . S
H673 C697 0.951 . S
H674 C699 0.913 1_455 S
H675 C701 0.950 . S
H676 C702 0.950 . S
H677 C704 0.950 . S
H678 C707 0.950 . S
H679 C708 0.950 . S
H680 C710 0.950 . S
H681 C711 0.950 . S
C682 H664 0.951 1_554 S
C682 C683 1.366 1_655 S
C682 C684 1.388 . S
C683 C682 1.366 1_455 S
C683 C687 1.385 . S
C684 H665 0.951 . S
C684 C682 1.388 . S
C684 C685 1.366 . S
C685 C684 1.366 . S
C685 C686 1.414 1_655 S
C685 C688 1.499 . S
C686 H666 0.950 . S
C686 C685 1.414 1_455 S
C686 C687 1.374 . S
C687 H667 0.950 . S
C687 C683 1.385 . S
C687 C686 1.374 . S
C688 C685 1.499 . S
C688 C689 1.373 1_655 S
C688 C690 1.389 . S
C689 H668 0.950 . S
C689 C688 1.373 1_455 S
C689 C705 1.377 . S
C690 C688 1.389 . S
C690 C691 1.524 . S
C690 C704 1.377 . S
C691 C690 1.524 . S
C691 C692 1.397 . S
C691 C696 1.363 . S
C692 H669 0.950 . S
C692 C691 1.397 . S
C692 C693 1.334 . S
C693 H670 0.950 . S
C693 C692 1.334 . S
C693 C694 1.287 . S
C694 C693 1.287 . S
C694 C695 1.524 . S
C694 H713 0.913 . S
C695 H671 0.950 . S
C695 C694 1.524 . S
C695 C696 1.415 . S
C696 H672 0.950 . S
C696 C691 1.363 . S
C696 C695 1.415 . S
C697 H673 0.951 . S
C697 C698 1.366 . S
C697 C699 1.388 . S
C698 C697 1.366 . S
C698 C702 1.385 . S
C699 H674 0.913 1_655 S
C699 C697 1.388 . S
C699 C700 1.366 . S
C700 C699 1.366 . S
C700 C701 1.414 . S
C700 C703 1.499 . S
C701 H675 0.950 . S
C701 C700 1.414 . S
C701 C702 1.374 . S
C702 H676 0.950 . S
C702 C698 1.385 . S
C702 C701 1.374 . S
C703 C700 1.499 . S
C703 C704 1.373 . S
C703 C705 1.389 1_655 S
C704 H677 0.950 . S
C704 C690 1.377 . S
C704 C703 1.373 . S
C705 C689 1.377 . S
C705 C703 1.389 1_455 S
C705 C706 1.524 . S
C706 C705 1.524 . S
C706 C707 1.397 . S
C706 C711 1.363 . S
C707 H678 0.950 . S
C707 C706 1.397 . S
C707 C708 1.334 . S
C708 H679 0.950 . S
C708 C707 1.334 . S
C708 C709 1.287 . S
C709 C708 1.287 . S
C709 C710 1.524 . S
C709 H712 0.999 . S
C710 H680 0.950 . S
C710 C709 1.524 . S
C710 C711 1.415 . S
C711 H681 0.950 . S
C711 C706 1.363 . S
C711 C710 1.415 . S
H712 C709 0.999 . S
H713 C694 0.913 . S
H714 C732 0.951 . S
H715 C734 0.951 . S
H716 C736 0.950 . S
H717 C737 0.950 . S
H718 C739 0.950 . S
H719 C742 0.950 . S
H720 C743 0.950 . S
H721 C745 0.950 . S
H722 C746 0.950 . S
H723 C747 0.951 . S
H724 C749 0.951 . S
H725 C751 0.950 1_545 S
H726 C752 0.950 . S
H727 C754 0.950 . S
H728 C757 0.950 1_545 S
H729 C758 0.926 1_545 S
H730 C760 0.950 . S
H731 C761 0.950 . S
C732 H714 0.951 . S
C732 C733 1.366 . S
C732 C734 1.388 . S
C733 C732 1.366 . S
C733 C737 1.385 1_545 S
C734 H715 0.951 . S
C734 C732 1.388 . S
C734 C735 1.366 1_545 S
C735 C734 1.366 1_565 S
C735 C736 1.414 . S
C735 C738 1.499 . S
C736 H716 0.950 . S
C736 C735 1.414 . S
C736 C737 1.374 . S
C737 H717 0.950 . S
C737 C733 1.385 1_565 S
C737 C736 1.374 . S
C738 C735 1.499 . S
C738 C739 1.373 . S
C738 C740 1.389 . S
C739 H718 0.950 . S
C739 C738 1.373 . S
C739 C755 1.377 . S
C740 C738 1.389 . S
C740 C741 1.524 . S
C740 C754 1.377 . S
C741 C740 1.524 . S
C741 C742 1.397 . S
C741 C746 1.363 1_565 S
C742 H719 0.950 . S
C742 C741 1.397 . S
C742 C743 1.334 1_554 S
C743 H720 0.950 . S
C743 C742 1.334 1_556 S
C743 C744 1.287 . S
C744 C743 1.287 . S
C744 C745 1.524 1_565 S
C744 H763 0.913 . S
C745 H721 0.950 . S
C745 C744 1.524 1_545 S
C745 C746 1.415 1_556 S
C746 H722 0.950 . S
C746 C741 1.363 1_545 S
C746 C745 1.415 1_554 S
C747 H723 0.951 . S
C747 C748 1.366 . S
C747 C749 1.388 . S
C748 C747 1.366 . S
C748 C752 1.385 . S
C749 H724 0.951 . S
C749 C747 1.388 . S
C749 C750 1.366 . S
C750 C749 1.366 . S
C750 C751 1.414 . S
C750 C753 1.499 . S
C751 H725 0.950 1_565 S
C751 C750 1.414 . S
C751 C752 1.374 . S
C752 H726 0.950 . S
C752 C748 1.385 . S
C752 C751 1.374 . S
C753 C750 1.499 . S
C753 C754 1.373 . S
C753 C755 1.389 . S
C754 H727 0.950 . S
C754 C740 1.377 . S
C754 C753 1.373 . S
C755 C739 1.377 . S
C755 C753 1.389 . S
C755 C756 1.524 . S
C756 C755 1.524 . S
C756 C757 1.397 . S
C756 C761 1.363 . S
C757 H728 0.950 1_565 S
C757 C756 1.397 . S
C757 C758 1.337 . S
C758 H729 0.926 1_565 S
C758 C757 1.337 . S
C758 C759 1.311 . S
C759 C758 1.311 . S
C759 C760 1.524 . S
C759 H762 0.999 . S
C760 H730 0.950 . S
C760 C759 1.524 . S
C760 C761 1.415 . S
C761 H731 0.950 . S
C761 C756 1.363 . S
C761 C760 1.415 . S
H762 C759 0.999 . S
H763 C744 0.913 . S
H764 C782 0.951 . S
H765 C784 0.951 . S
H766 C786 0.950 . S
H767 C787 0.950 . S
H768 C789 0.950 . S
H769 C792 0.950 . S
H770 C793 0.950 . S
H771 C795 0.950 . S
H772 C796 0.950 . S
H773 C797 0.951 . S
H774 C799 0.951 . S
H775 C801 0.950 . S
H776 C802 0.950 . S
H777 C804 0.950 . S
H778 C807 0.950 . S
H779 C808 0.950 . S
H780 C810 0.950 . S
H781 C811 0.950 . S
C782 H764 0.951 . S
C782 C783 1.366 . S
C782 C784 1.388 . S
C783 C782 1.366 . S
C783 C787 1.385 . S
C784 H765 0.951 . S
C784 C782 1.388 . S
C784 C785 1.366 . S
C785 C784 1.366 . S
C785 C786 1.414 . S
C785 C788 1.499 . S
C786 H766 0.950 . S
C786 C785 1.414 . S
C786 C787 1.374 . S
C787 H767 0.950 . S
C787 C783 1.385 . S
C787 C786 1.374 . S
C788 C785 1.499 . S
C788 C789 1.373 . S
C788 C790 1.389 . S
C789 H768 0.950 . S
C789 C788 1.373 . S
C789 C805 1.377 . S
C790 C788 1.389 . S
C790 C791 1.524 . S
C790 C804 1.377 . S
C791 C790 1.524 . S
C791 C792 1.397 . S
C791 C796 1.363 . S
C792 H769 0.950 . S
C792 C791 1.397 . S
C792 C793 1.334 . S
C793 H770 0.950 . S
C793 C792 1.334 . S
C793 C794 1.287 . S
C794 C793 1.287 . S
C794 C795 1.524 . S
C794 H813 0.913 . S
C795 H771 0.950 . S
C795 C794 1.524 . S
C795 C796 1.415 . S
C796 H772 0.950 . S
C796 C791 1.363 . S
C796 C795 1.415 . S
C797 H773 0.951 . S
C797 C798 1.366 . S
C797 C799 1.388 . S
C798 C797 1.366 . S
C798 C802 1.385 . S
C799 H774 0.951 . S
C799 C797 1.388 . S
C799 C800 1.366 . S
C800 C799 1.366 . S
C800 C801 1.414 . S
C800 C803 1.499 . S
C801 H775 0.950 . S
C801 C800 1.414 . S
C801 C802 1.374 . S
C802 H776 0.950 . S
C802 C798 1.385 . S
C802 C801 1.374 . S
C803 C800 1.499 . S
C803 C804 1.373 . S
C803 C805 1.389 . S
C804 H777 0.950 . S
C804 C790 1.377 . S
C804 C803 1.373 . S
C805 C789 1.377 . S
C805 C803 1.389 . S
C805 C806 1.524 . S
C806 C805 1.524 . S
C806 C807 1.397 . S
C806 C811 1.363 . S
C807 H778 0.950 . S
C807 C806 1.397 . S
C807 C808 1.334 . S
C808 H779 0.950 . S
C808 C807 1.334 . S
C808 C809 1.287 . S
C809 C808 1.287 . S
C809 C810 1.524 . S
C809 H812 0.999 1_554 S
C810 H780 0.950 . S
C810 C809 1.524 . S
C810 C811 1.415 . S
C811 H781 0.950 . S
C811 C806 1.363 . S
C811 C810 1.415 . S
H812 C809 0.999 1_556 S
H813 C794 0.913 . S
H814 C832 0.951 . S
H815 C834 0.951 . S
H816 C836 0.950 . S
H817 C837 0.950 1_556 S
H818 C839 0.950 . S
H819 C842 0.950 . S
H820 C843 0.950 . S
H821 C845 0.950 . S
H822 C846 0.950 . S
H823 C847 0.951 . S
H824 C849 0.951 . S
H825 C851 0.950 . S
H826 C852 0.950 . S
H827 C854 0.950 . S
H828 C857 0.950 . S
H829 C858 0.950 . S
H830 C860 0.950 1_556 S
H831 C861 0.950 . S
C832 H814 0.951 . S
C832 C833 1.366 . S
C832 C834 1.388 . S
C833 C832 1.366 . S
C833 C837 1.385 . S
C834 H815 0.951 . S
C834 C832 1.388 . S
C834 C835 1.366 . S
C835 C834 1.366 . S
C835 C836 1.414 . S
C835 C838 1.499 . S
C836 H816 0.950 . S
C836 C835 1.414 . S
C836 C837 1.374 . S
C837 H817 0.950 1_554 S
C837 C833 1.385 . S
C837 C836 1.374 . S
C838 C835 1.499 . S
C838 C839 1.373 . S
C838 C840 1.389 . S
C839 H818 0.950 . S
C839 C838 1.373 . S
C839 C855 1.377 . S
C840 C838 1.389 . S
C840 C841 1.524 . S
C840 C854 1.377 . S
C841 C840 1.524 . S
C841 C842 1.397 . S
C841 C846 1.363 . S
C842 H819 0.950 . S
C842 C841 1.397 . S
C842 C843 1.334 . S
C843 H820 0.950 . S
C843 C842 1.334 . S
C843 C844 1.287 . S
C844 C843 1.287 . S
C844 C845 1.524 . S
C844 H863 0.913 . S
C845 H821 0.950 . S
C845 C844 1.524 . S
C845 C846 1.415 . S
C846 H822 0.950 . S
C846 C841 1.363 . S
C846 C845 1.415 . S
C847 H823 0.951 . S
C847 C848 1.366 . S
C847 C849 1.388 . S
C848 C847 1.366 . S
C848 C852 1.385 . S
C849 H824 0.951 . S
C849 C847 1.388 . S
C849 C850 1.366 . S
C850 C849 1.366 . S
C850 C851 1.414 . S
C850 C853 1.499 . S
C851 H825 0.950 . S
C851 C850 1.414 . S
C851 C852 1.374 . S
C852 H826 0.950 . S
C852 C848 1.385 . S
C852 C851 1.374 . S
C853 C850 1.499 . S
C853 C854 1.373 . S
C853 C855 1.389 . S
C854 H827 0.950 . S
C854 C840 1.377 . S
C854 C853 1.373 . S
C855 C839 1.377 . S
C855 C853 1.389 . S
C855 C856 1.524 . S
C856 C855 1.524 . S
C856 C857 1.397 . S
C856 C861 1.363 . S
C857 H828 0.950 . S
C857 C856 1.397 . S
C857 C858 1.334 . S
C858 H829 0.950 . S
C858 C857 1.334 . S
C858 C859 1.287 . S
C859 C858 1.287 . S
C859 C860 1.524 . S
C859 H862 0.999 . S
C860 H830 0.950 1_554 S
C860 C859 1.524 . S
C860 C861 1.415 . S
C861 H831 0.950 . S
C861 C856 1.363 . S
C861 C860 1.415 . S
H862 C859 0.999 . S
H863 C844 0.913 . S
H864 C882 0.951 . S
H865 C884 0.951 . S
H866 C886 0.950 . S
H867 C887 0.950 . S
H868 C889 0.950 . S
H869 C892 0.950 . S
H870 C893 0.950 . S
H871 C895 0.950 . S
H872 C896 0.950 1_556 S
H873 C897 0.951 . S
H874 C899 0.951 . S
H875 C901 0.950 1_556 S
H876 C902 0.950 . S
H877 C904 0.950 . S
H878 C907 0.950 . S
H879 C908 0.950 . S
H880 C910 0.950 1_455 S
H881 C911 0.950 . S
C882 H864 0.951 . S
C882 C883 1.366 . S
C882 C884 1.388 . S
C883 C882 1.366 . S
C883 C887 1.385 1_655 S
C884 H865 0.951 . S
C884 C882 1.388 . S
C884 C885 1.366 1_655 S
C885 C884 1.366 1_455 S
C885 C886 1.414 . S
C885 C888 1.499 . S
C886 H866 0.950 . S
C886 C885 1.414 . S
C886 C887 1.374 . S
C887 H867 0.950 . S
C887 C883 1.385 1_455 S
C887 C886 1.374 . S
C888 C885 1.499 . S
C888 C889 1.373 . S
C888 C890 1.389 . S
C889 H868 0.950 . S
C889 C888 1.373 . S
C889 C905 1.377 . S
C890 C888 1.389 . S
C890 C891 1.524 . S
C890 C904 1.377 . S
C891 C890 1.524 . S
C891 C892 1.397 . S
C891 C896 1.363 . S
C892 H869 0.950 . S
C892 C891 1.397 . S
C892 C893 1.334 . S
C893 H870 0.950 . S
C893 C892 1.334 . S
C893 C894 1.287 . S
C894 C893 1.287 . S
C894 C895 1.524 1_554 S
C894 H913 0.913 . S
C895 H871 0.950 . S
C895 C894 1.524 1_556 S
C895 C896 1.415 1_556 S
C896 H872 0.950 1_554 S
C896 C891 1.363 . S
C896 C895 1.415 1_554 S
C897 H873 0.951 . S
C897 C898 1.366 . S
C897 C899 1.388 . S
C898 C897 1.366 . S
C898 C902 1.385 1_554 S
C899 H874 0.951 . S
C899 C897 1.388 . S
C899 C900 1.366 . S
C900 C899 1.366 . S
C900 C901 1.414 . S
C900 C903 1.499 . S
C901 H875 0.950 1_554 S
C901 C900 1.414 . S
C901 C902 1.374 1_554 S
C902 H876 0.950 . S
C902 C898 1.385 1_556 S
C902 C901 1.374 1_556 S
C903 C900 1.499 . S
C903 C904 1.373 . S
C903 C905 1.389 . S
C904 H877 0.950 . S
C904 C890 1.377 . S
C904 C903 1.373 . S
C905 C889 1.377 . S
C905 C903 1.389 . S
C905 C906 1.533 . S
C906 C905 1.533 . S
C906 C907 1.379 1_455 S
C906 C911 1.370 . S
C907 H878 0.950 . S
C907 C906 1.379 1_655 S
C907 C908 1.334 . S
C908 H879 0.950 . S
C908 C907 1.334 . S
C908 C909 1.287 . S
C909 C908 1.287 . S
C909 C910 1.524 . S
C909 H912 0.999 . S
C910 H880 0.950 1_655 S
C910 C909 1.524 . S
C910 C911 1.415 1_655 S
C911 H881 0.950 . S
C911 C906 1.370 . S
C911 C910 1.415 1_455 S
H912 C909 0.999 . S
H913 C894 0.913 . S
H914 C932 0.951 . S
H915 C934 0.951 . S
H916 C936 0.950 . S
H917 C937 0.950 . S
H918 C939 0.950 . S
H919 C942 0.950 . S
H920 C943 0.950 . S
H921 C945 0.950 . S
H922 C946 0.950 . S
H923 C947 0.951 . S
H924 C949 0.951 . S
H925 C951 0.950 1_556 S
H926 C952 0.950 . S
H927 C954 0.950 . S
H928 C957 0.950 . S
H929 C958 0.950 . S
H930 C960 0.950 . S
H931 C961 0.950 . S
C932 H914 0.951 . S
C932 C933 1.366 1_545 S
C932 C934 1.388 . S
C933 C932 1.366 1_565 S
C933 C937 1.385 . S
C934 H915 0.951 . S
C934 C932 1.388 . S
C934 C935 1.366 . S
C935 C934 1.366 . S
C935 C936 1.414 1_545 S
C935 C938 1.499 . S
C936 H916 0.950 . S
C936 C935 1.414 1_565 S
C936 C937 1.374 . S
C937 H917 0.950 . S
C937 C933 1.385 . S
C937 C936 1.374 . S
C938 C935 1.499 . S
C938 C939 1.373 1_545 S
C938 C940 1.389 . S
C939 H918 0.950 . S
C939 C938 1.373 1_565 S
C939 C955 1.377 . S
C940 C938 1.389 . S
C940 C941 1.524 . S
C940 C954 1.377 . S
C941 C940 1.524 . S
C941 C942 1.397 . S
C941 C946 1.363 . S
C942 H919 0.950 . S
C942 C941 1.397 . S
C942 C943 1.334 . S
C943 H920 0.950 . S
C943 C942 1.334 . S
C943 C944 1.287 . S
C944 C943 1.287 . S
C944 C945 1.524 . S
C944 H963 0.913 . S
C945 H921 0.950 . S
C945 C944 1.524 . S
C945 C946 1.415 . S
C946 H922 0.950 . S
C946 C941 1.363 . S
C946 C945 1.415 . S
C947 H923 0.951 . S
C947 C948 1.366 . S
C947 C949 1.388 . S
C948 C947 1.366 . S
C948 C952 1.385 1_554 S
C949 H924 0.951 . S
C949 C947 1.388 . S
C949 C950 1.366 . S
C950 C949 1.366 . S
C950 C951 1.414 . S
C950 C953 1.499 . S
C951 H925 0.950 1_554 S
C951 C950 1.414 . S
C951 C952 1.374 1_554 S
C952 H926 0.950 . S
C952 C948 1.385 1_556 S
C952 C951 1.374 1_556 S
C953 C950 1.499 . S
C953 C954 1.373 . S
C953 C955 1.389 1_545 S
C954 H927 0.950 . S
C954 C940 1.377 . S
C954 C953 1.373 . S
C955 C939 1.377 . S
C955 C953 1.389 1_565 S
C955 C956 1.524 . S
C956 C955 1.524 . S
C956 C957 1.397 . S
C956 C961 1.363 . S
C957 H928 0.950 . S
C957 C956 1.397 . S
C957 C958 1.334 . S
C958 H929 0.950 . S
C958 C957 1.334 . S
C958 C959 1.287 . S
C959 C958 1.287 . S
C959 C960 1.524 . S
C959 H962 0.999 . S
C960 H930 0.950 . S
C960 C959 1.524 . S
C960 C961 1.415 . S
C961 H931 0.950 . S
C961 C956 1.363 . S
C961 C960 1.415 . S
H962 C959 0.999 . S
H963 C944 0.913 . S
H964 C982 0.951 . S
H965 C984 0.951 . S
H966 C986 0.950 . S
H967 C987 0.950 . S
H968 C989 0.950 . S
H969 C992 0.950 . S
H970 C993 0.950 . S
H971 C995 0.950 . S
H972 C996 0.950 1_556 S
H973 C997 0.951 . S
H974 C999 0.951 . S
H975 C1001 0.950 . S
H976 C1002 0.950 . S
H977 C1004 0.950 . S
H978 C1007 0.950 . S
H979 C1008 0.950 . S
H980 C1010 0.950 . S
H981 C1011 0.950 . S
C982 H964 0.951 . S
C982 C983 1.366 . S
C982 C984 1.388 . S
C983 C982 1.366 . S
C983 C987 1.385 . S
C984 H965 0.951 . S
C984 C982 1.388 . S
C984 C985 1.366 . S
C985 C984 1.366 . S
C985 C986 1.414 . S
C985 C988 1.499 . S
C986 H966 0.950 . S
C986 C985 1.414 . S
C986 C987 1.374 . S
C987 H967 0.950 . S
C987 C983 1.385 . S
C987 C986 1.374 . S
C988 C985 1.499 . S
C988 C989 1.373 . S
C988 C990 1.389 . S
C989 H968 0.950 . S
C989 C988 1.373 . S
C989 C1005 1.377 . S
C990 C988 1.389 . S
C990 C991 1.524 . S
C990 C1004 1.377 . S
C991 C990 1.524 . S
C991 C992 1.397 . S
C991 C996 1.363 . S
C992 H969 0.950 . S
C992 C991 1.397 . S
C992 C993 1.334 . S
C993 H970 0.950 . S
C993 C992 1.334 . S
C993 C994 1.287 . S
C994 C993 1.287 . S
C994 C995 1.524 1_554 S
C994 H1013 0.913 1_554 S
C995 H971 0.950 . S
C995 C994 1.524 1_556 S
C995 C996 1.415 1_556 S
C996 H972 0.950 1_554 S
C996 C991 1.363 . S
C996 C995 1.415 1_554 S
C997 H973 0.951 . S
C997 C998 1.366 . S
C997 C999 1.388 . S
C998 C997 1.366 . S
C998 C1002 1.385 1_554 S
C999 H974 0.951 . S
C999 C997 1.388 . S
C999 C1000 1.366 . S
C1000 C999 1.366 . S
C1000 C1001 1.414 . S
C1000 C1003 1.499 . S
C1001 H975 0.950 . S
C1001 C1000 1.414 . S
C1001 C1002 1.374 1_554 S
C1002 H976 0.950 . S
C1002 C998 1.385 1_556 S
C1002 C1001 1.374 1_556 S
C1003 C1000 1.499 . S
C1003 C1004 1.373 . S
C1003 C1005 1.389 . S
C1004 H977 0.950 . S
C1004 C990 1.377 . S
C1004 C1003 1.373 . S
C1005 C989 1.377 . S
C1005 C1003 1.389 . S
C1005 C1006 1.524 . S
C1006 C1005 1.524 . S
C1006 C1007 1.397 . S
C1006 C1011 1.363 . S
C1007 H978 0.950 . S
C1007 C1006 1.397 . S
C1007 C1008 1.334 . S
C1008 H979 0.950 . S
C1008 C1007 1.334 . S
C1008 C1009 1.287 . S
C1009 C1008 1.287 . S
C1009 C1010 1.524 . S
C1009 H1012 0.999 . S
C1010 H980 0.950 . S
C1010 C1009 1.524 . S
C1010 C1011 1.415 . S
C1011 H981 0.950 . S
C1011 C1006 1.363 . S
C1011 C1010 1.415 . S
H1012 C1009 0.999 . S
H1013 C994 0.913 1_556 S
H1014 C1032 0.951 . S
H1015 C1034 0.951 . S
H1016 C1036 0.950 . S
H1017 C1037 0.950 . S
H1018 C1039 0.950 . S
H1019 C1042 0.950 . S
H1020 C1043 0.950 . S
H1021 C1045 0.950 . S
H1022 C1046 0.950 . S
H1023 C1047 0.951 . S
H1024 C1049 0.950 1_556 S
H1025 C1051 0.950 . S
H1026 C1052 0.950 . S
H1027 C1054 0.950 . S
H1028 C1057 0.950 . S
H1029 C1058 0.950 . S
H1030 C1060 0.950 . S
H1031 C1061 0.950 . S
C1032 H1014 0.951 . S
C1032 C1033 1.366 . S
C1032 C1034 1.388 . S
C1033 C1032 1.366 . S
C1033 C1037 1.385 . S
C1034 H1015 0.951 . S
C1034 C1032 1.388 . S
C1034 C1035 1.366 . S
C1035 C1034 1.366 . S
C1035 C1036 1.414 . S
C1035 C1038 1.499 . S
C1036 H1016 0.950 . S
C1036 C1035 1.414 . S
C1036 C1037 1.374 . S
C1037 H1017 0.950 . S
C1037 C1033 1.385 . S
C1037 C1036 1.374 . S
C1038 C1035 1.499 . S
C1038 C1039 1.373 . S
C1038 C1040 1.389 . S
C1039 H1018 0.950 . S
C1039 C1038 1.373 . S
C1039 C1055 1.377 . S
C1040 C1038 1.389 . S
C1040 C1041 1.524 . S
C1040 C1054 1.377 . S
C1041 C1040 1.524 . S
C1041 C1042 1.397 . S
C1041 C1046 1.363 . S
C1042 H1019 0.950 . S
C1042 C1041 1.397 . S
C1042 C1043 1.334 . S
C1043 H1020 0.950 . S
C1043 C1042 1.334 . S
C1043 C1044 1.287 . S
C1044 C1043 1.287 . S
C1044 C1045 1.524 . S
C1044 H1063 0.913 . S
C1045 H1021 0.950 . S
C1045 C1044 1.524 . S
C1045 C1046 1.415 . S
C1046 H1022 0.950 . S
C1046 C1041 1.363 . S
C1046 C1045 1.415 . S
C1047 H1023 0.951 . S
C1047 C1048 1.366 1_556 S
C1047 C1049 1.388 1_556 S
C1048 C1047 1.366 1_554 S
C1048 C1052 1.385 . S
C1049 H1024 0.950 1_554 S
C1049 C1047 1.388 1_554 S
C1049 C1050 1.366 . S
C1050 C1049 1.366 . S
C1050 C1051 1.414 . S
C1050 C1053 1.499 . S
C1051 H1025 0.950 . S
C1051 C1050 1.414 . S
C1051 C1052 1.374 . S
C1052 H1026 0.950 . S
C1052 C1048 1.385 . S
C1052 C1051 1.374 . S
C1053 C1050 1.499 . S
C1053 C1054 1.373 . S
C1053 C1055 1.389 . S
C1054 H1027 0.950 . S
C1054 C1040 1.377 . S
C1054 C1053 1.373 . S
C1055 C1039 1.377 . S
C1055 C1053 1.389 . S
C1055 C1056 1.524 . S
C1056 C1055 1.524 . S
C1056 C1057 1.397 . S
C1056 C1061 1.363 . S
C1057 H1028 0.950 . S
C1057 C1056 1.397 . S
C1057 C1058 1.334 . S
C1058 H1029 0.950 . S
C1058 C1057 1.334 . S
C1058 C1059 1.287 . S
C1059 C1058 1.287 . S
C1059 C1060 1.524 . S
C1059 H1062 0.999 . S
C1060 H1030 0.950 . S
C1060 C1059 1.524 . S
C1060 C1061 1.415 . S
C1061 H1031 0.950 . S
C1061 C1056 1.363 . S
C1061 C1060 1.415 . S
H1062 C1059 0.999 . S
H1063 C1044 0.913 . S
H1064 C1082 0.951 . S
H1065 C1084 0.951 . S
H1066 C1086 0.950 1_554 S
H1067 C1087 0.948 1_654 S
H1068 C1089 0.950 . S
H1069 C1092 0.950 . S
H1070 C1093 0.950 . S
H1071 C1095 0.950 . S
H1072 C1096 0.950 . S
H1073 C1097 0.951 . S
H1074 C1099 0.951 . S
H1075 C1101 0.950 . S
H1076 C1102 0.950 . S
H1077 C1104 0.950 . S
H1078 C1107 0.950 . S
H1079 C1108 0.950 . S
H1080 C1110 0.950 . S
H1081 C1111 0.950 . S
C1082 H1064 0.951 . S
C1082 C1083 1.366 . S
C1082 C1084 1.388 . S
C1083 C1082 1.366 . S
C1083 C1087 1.385 . S
C1084 H1065 0.951 . S
C1084 C1082 1.388 . S
C1084 C1085 1.366 . S
C1085 C1084 1.366 . S
C1085 C1086 1.417 . S
C1085 C1088 1.499 . S
C1086 H1066 0.950 1_556 S
C1086 C1085 1.417 . S
C1086 C1087 1.373 . S
C1087 H1067 0.948 1_456 S
C1087 C1083 1.385 . S
C1087 C1086 1.373 . S
C1088 C1085 1.499 . S
C1088 C1089 1.373 . S
C1088 C1090 1.389 1_455 S
C1089 H1068 0.950 . S
C1089 C1088 1.373 . S
C1089 C1105 1.377 . S
C1090 C1088 1.389 1_655 S
C1090 C1091 1.524 . S
C1090 C1104 1.377 . S
C1091 C1090 1.524 . S
C1091 C1092 1.397 . S
C1091 C1096 1.363 . S
C1092 H1069 0.950 . S
C1092 C1091 1.397 . S
C1092 C1093 1.334 . S
C1093 H1070 0.950 . S
C1093 C1092 1.334 . S
C1093 C1094 1.287 . S
C1094 C1093 1.287 . S
C1094 C1095 1.524 . S
C1094 H1113 0.913 . S
C1095 H1071 0.950 . S
C1095 C1094 1.524 . S
C1095 C1096 1.415 . S
C1096 H1072 0.950 . S
C1096 C1091 1.363 . S
C1096 C1095 1.415 . S
C1097 H1073 0.951 . S
C1097 C1098 1.366 . S
C1097 C1099 1.388 . S
C1098 C1097 1.366 . S
C1098 C1102 1.385 . S
C1099 H1074 0.951 . S
C1099 C1097 1.388 . S
C1099 C1100 1.366 . S
C1100 C1099 1.366 . S
C1100 C1101 1.414 . S
C1100 C1103 1.499 . S
C1101 H1075 0.950 . S
C1101 C1100 1.414 . S
C1101 C1102 1.374 . S
C1102 H1076 0.950 . S
C1102 C1098 1.385 . S
C1102 C1101 1.374 . S
C1103 C1100 1.499 . S
C1103 C1104 1.373 1_455 S
C1103 C1105 1.389 . S
C1104 H1077 0.950 . S
C1104 C1090 1.377 . S
C1104 C1103 1.373 1_655 S
C1105 C1089 1.377 . S
C1105 C1103 1.389 . S
C1105 C1106 1.524 . S
C1106 C1105 1.524 . S
C1106 C1107 1.397 . S
C1106 C1111 1.363 1_556 S
C1107 H1078 0.950 . S
C1107 C1106 1.397 . S
C1107 C1108 1.334 . S
C1108 H1079 0.950 . S
C1108 C1107 1.334 . S
C1108 C1109 1.287 1_556 S
C1109 C1108 1.287 1_554 S
C1109 C1110 1.524 . S
C1109 H1112 0.999 . S
C1110 H1080 0.950 . S
C1110 C1109 1.524 . S
C1110 C1111 1.415 . S
C1111 H1081 0.950 . S
C1111 C1106 1.363 1_554 S
C1111 C1110 1.415 . S
H1112 C1109 0.999 . S
H1113 C1094 0.913 . S
H1114 C1132 0.951 . S
H1115 C1134 0.951 . S
H1116 C1136 0.950 . S
H1117 C1137 0.950 . S
H1118 C1139 0.950 . S
H1119 C1142 0.950 . S
H1120 C1143 0.950 . S
H1121 C1145 0.950 . S
H1122 C1146 0.950 . S
H1123 C1147 0.951 . S
H1124 C1149 0.951 . S
H1125 C1151 0.950 . S
H1126 C1152 0.950 . S
H1127 C1154 0.955 . S
H1128 C1157 0.945 . S
H1129 C1158 0.950 1_565 S
H1130 C1160 0.950 . S
H1131 C1161 0.950 . S
C1132 H1114 0.951 . S
C1132 C1133 1.366 1_565 S
C1132 C1134 1.388 . S
C1133 C1132 1.366 1_545 S
C1133 C1137 1.385 . S
C1134 H1115 0.951 . S
C1134 C1132 1.388 . S
C1134 C1135 1.366 1_565 S
C1135 C1134 1.366 1_545 S
C1135 C1136 1.414 . S
C1135 C1138 1.499 . S
C1136 H1116 0.950 . S
C1136 C1135 1.414 . S
C1136 C1137 1.374 . S
C1137 H1117 0.950 . S
C1137 C1133 1.385 . S
C1137 C1136 1.374 . S
C1138 C1135 1.499 . S
C1138 C1139 1.373 . S
C1138 C1140 1.389 1_545 S
C1139 H1118 0.950 . S
C1139 C1138 1.373 . S
C1139 C1155 1.377 . S
C1140 C1138 1.389 1_565 S
C1140 C1141 1.525 1_556 S
C1140 C1154 1.376 . S
C1141 C1140 1.525 1_554 S
C1141 C1142 1.397 1_565 S
C1141 C1146 1.363 . S
C1142 H1119 0.950 . S
C1142 C1141 1.397 1_545 S
C1142 C1143 1.334 . S
C1143 H1120 0.950 . S
C1143 C1142 1.334 . S
C1143 C1144 1.287 1_545 S
C1144 C1143 1.287 1_565 S
C1144 C1145 1.524 . S
C1144 H1163 0.913 . S
C1145 H1121 0.950 . S
C1145 C1144 1.524 . S
C1145 C1146 1.415 . S
C1146 H1122 0.950 . S
C1146 C1141 1.363 . S
C1146 C1145 1.415 . S
C1147 H1123 0.951 . S
C1147 C1148 1.366 . S
C1147 C1149 1.388 . S
C1148 C1147 1.366 . S
C1148 C1152 1.385 1_545 S
C1149 H1124 0.951 . S
C1149 C1147 1.388 . S
C1149 C1150 1.366 . S
C1150 C1149 1.366 . S
C1150 C1151 1.414 1_545 S
C1150 C1153 1.499 . S
C1151 H1125 0.950 . S
C1151 C1150 1.414 1_565 S
C1151 C1152 1.374 . S
C1152 H1126 0.950 . S
C1152 C1148 1.385 1_565 S
C1152 C1151 1.374 . S
C1153 C1150 1.499 . S
C1153 C1154 1.369 1_545 S
C1153 C1155 1.389 . S
C1154 H1127 0.955 . S
C1154 C1140 1.376 . S
C1154 C1153 1.369 1_565 S
C1155 C1139 1.377 . S
C1155 C1153 1.389 . S
C1155 C1156 1.524 . S
C1156 C1155 1.524 . S
C1156 C1157 1.401 1_545 S
C1156 C1161 1.363 . S
C1157 H1128 0.945 . S
C1157 C1156 1.401 1_565 S
C1157 C1158 1.335 1_565 S
C1158 H1129 0.950 1_545 S
C1158 C1157 1.335 1_545 S
C1158 C1159 1.287 . S
C1159 C1158 1.287 . S
C1159 C1160 1.524 . S
C1159 H1162 0.999 . S
C1160 H1130 0.950 . S
C1160 C1159 1.524 . S
C1160 C1161 1.415 . S
C1161 H1131 0.950 . S
C1161 C1156 1.363 . S
C1161 C1160 1.415 . S
H1162 C1159 0.999 . S
H1163 C1144 0.913 . S
H1164 C1182 0.951 . S
H1165 C1184 0.951 . S
H1166 C1186 0.950 . S
H1167 C1187 0.950 . S
H1168 C1189 0.950 . S
H1169 C1192 0.950 . S
H1170 C1193 0.950 . S
H1171 C1195 0.950 . S
H1172 C1196 0.950 . S
H1173 C1197 0.951 . S
H1174 C1199 0.951 . S
H1175 C1201 0.950 . S
H1176 C1202 0.950 . S
H1177 C1204 0.950 . S
H1178 C1207 0.950 . S
H1179 C1208 0.950 . S
H1180 C1210 0.950 . S
H1181 C1211 0.950 . S
C1182 H1164 0.951 . S
C1182 C1183 1.366 . S
C1182 C1184 1.388 . S
C1183 C1182 1.366 . S
C1183 C1187 1.385 . S
C1184 H1165 0.951 . S
C1184 C1182 1.388 . S
C1184 C1185 1.366 . S
C1185 C1184 1.366 . S
C1185 C1186 1.414 . S
C1185 C1188 1.499 . S
C1186 H1166 0.950 . S
C1186 C1185 1.414 . S
C1186 C1187 1.374 . S
C1187 H1167 0.950 . S
C1187 C1183 1.385 . S
C1187 C1186 1.374 . S
C1188 C1185 1.499 . S
C1188 C1189 1.373 . S
C1188 C1190 1.389 . S
C1189 H1168 0.950 . S
C1189 C1188 1.373 . S
C1189 C1205 1.377 . S
C1190 C1188 1.389 . S
C1190 C1191 1.524 . S
C1190 C1204 1.377 . S
C1191 C1190 1.524 . S
C1191 C1192 1.397 1_556 S
C1191 C1196 1.363 . S
C1192 H1169 0.950 . S
C1192 C1191 1.397 1_554 S
C1192 C1193 1.334 . S
C1193 H1170 0.950 . S
C1193 C1192 1.334 . S
C1193 C1194 1.287 . S
C1194 C1193 1.287 . S
C1194 C1195 1.524 . S
C1194 H1213 0.913 . S
C1195 H1171 0.950 . S
C1195 C1194 1.524 . S
C1195 C1196 1.415 1_554 S
C1196 H1172 0.950 . S
C1196 C1191 1.363 . S
C1196 C1195 1.415 1_556 S
C1197 H1173 0.951 . S
C1197 C1198 1.366 . S
C1197 C1199 1.388 . S
C1198 C1197 1.366 . S
C1198 C1202 1.385 . S
C1199 H1174 0.951 . S
C1199 C1197 1.388 . S
C1199 C1200 1.366 . S
C1200 C1199 1.366 . S
C1200 C1201 1.414 . S
C1200 C1203 1.499 . S
C1201 H1175 0.950 . S
C1201 C1200 1.414 . S
C1201 C1202 1.374 . S
C1202 H1176 0.950 . S
C1202 C1198 1.385 . S
C1202 C1201 1.374 . S
C1203 C1200 1.499 . S
C1203 C1204 1.373 . S
C1203 C1205 1.389 . S
C1204 H1177 0.950 . S
C1204 C1190 1.377 . S
C1204 C1203 1.373 . S
C1205 C1189 1.377 . S
C1205 C1203 1.389 . S
C1205 C1206 1.524 . S
C1206 C1205 1.524 . S
C1206 C1207 1.397 . S
C1206 C1211 1.363 . S
C1207 H1178 0.950 . S
C1207 C1206 1.397 . S
C1207 C1208 1.334 . S
C1208 H1179 0.950 . S
C1208 C1207 1.334 . S
C1208 C1209 1.287 . S
C1209 C1208 1.287 . S
C1209 C1210 1.524 . S
C1209 H1212 0.999 . S
C1210 H1180 0.950 . S
C1210 C1209 1.524 . S
C1210 C1211 1.415 . S
C1211 H1181 0.950 . S
C1211 C1206 1.363 . S
C1211 C1210 1.415 . S
H1212 C1209 0.999 . S
H1213 C1194 0.913 . S
H1214 C1232 0.951 . S
H1215 C1234 0.951 . S
H1216 C1236 0.950 1_554 S
H1217 C1237 0.950 1_554 S
H1218 C1239 0.950 . S
H1219 C1242 0.950 . S
H1220 C1243 0.950 . S
H1221 C1245 0.950 . S
H1222 C1246 0.950 . S
H1223 C1247 0.951 . S
H1224 C1249 0.951 . S
H1225 C1251 0.950 . S
H1226 C1252 0.950 . S
H1227 C1254 0.950 . S
H1228 C1257 0.950 . S
H1229 C1258 0.950 . S
H1230 C1260 0.950 . S
H1231 C1261 0.950 . S
C1232 H1214 0.951 . S
C1232 C1233 1.366 . S
C1232 C1234 1.388 . S
C1233 C1232 1.366 . S
C1233 C1237 1.385 . S
C1234 H1215 0.951 . S
C1234 C1232 1.388 . S
C1234 C1235 1.366 . S
C1235 C1234 1.366 . S
C1235 C1236 1.414 . S
C1235 C1238 1.499 . S
C1236 H1216 0.950 1_556 S
C1236 C1235 1.414 . S
C1236 C1237 1.374 . S
C1237 H1217 0.950 1_556 S
C1237 C1233 1.385 . S
C1237 C1236 1.374 . S
C1238 C1235 1.499 . S
C1238 C1239 1.373 . S
C1238 C1240 1.389 . S
C1239 H1218 0.950 . S
C1239 C1238 1.373 . S
C1239 C1255 1.377 . S
C1240 C1238 1.389 . S
C1240 C1241 1.524 . S
C1240 C1254 1.377 . S
C1241 C1240 1.524 . S
C1241 C1242 1.397 . S
C1241 C1246 1.363 . S
C1242 H1219 0.950 . S
C1242 C1241 1.397 . S
C1242 C1243 1.334 . S
C1243 H1220 0.950 . S
C1243 C1242 1.334 . S
C1243 C1244 1.287 . S
C1244 C1243 1.287 . S
C1244 C1245 1.524 . S
C1244 H1263 0.913 . S
C1245 H1221 0.950 . S
C1245 C1244 1.524 . S
C1245 C1246 1.415 . S
C1246 H1222 0.950 . S
C1246 C1241 1.363 . S
C1246 C1245 1.415 . S
C1247 H1223 0.951 . S
C1247 C1248 1.366 . S
C1247 C1249 1.388 . S
C1248 C1247 1.366 . S
C1248 C1252 1.385 . S
C1249 H1224 0.951 . S
C1249 C1247 1.388 . S
C1249 C1250 1.366 . S
C1250 C1249 1.366 . S
C1250 C1251 1.414 . S
C1250 C1253 1.499 . S
C1251 H1225 0.950 . S
C1251 C1250 1.414 . S
C1251 C1252 1.374 . S
C1252 H1226 0.950 . S
C1252 C1248 1.385 . S
C1252 C1251 1.374 . S
C1253 C1250 1.499 . S
C1253 C1254 1.373 . S
C1253 C1255 1.389 . S
C1254 H1227 0.950 . S
C1254 C1240 1.377 . S
C1254 C1253 1.373 . S
C1255 C1239 1.377 . S
C1255 C1253 1.389 . S
C1255 C1256 1.524 . S
C1256 C1255 1.524 . S
C1256 C1257 1.397 . S
C1256 C1261 1.363 1_556 S
C1257 H1228 0.950 . S
C1257 C1256 1.397 . S
C1257 C1258 1.334 . S
C1258 H1229 0.950 . S
C1258 C1257 1.334 . S
C1258 C1259 1.287 1_556 S
C1259 C1258 1.287 1_554 S
C1259 C1260 1.524 . S
C1259 H1262 0.999 . S
C1260 H1230 0.950 . S
C1260 C1259 1.524 . S
C1260 C1261 1.415 . S
C1261 H1231 0.950 . S
C1261 C1256 1.363 1_554 S
C1261 C1260 1.415 . S
H1262 C1259 0.999 . S
H1263 C1244 0.913 . S
H1264 C1282 0.952 . S
H1265 C1284 0.951 . S
H1266 C1286 0.950 . S
H1267 C1287 0.950 . S
H1268 C1289 0.950 . S
H1269 C1292 0.950 . S
H1270 C1293 0.950 . S
H1271 C1295 0.950 . S
H1272 C1296 0.950 . S
H1273 C1297 0.951 . S
H1274 C1299 0.951 . S
H1275 C1301 0.950 . S
H1276 C1302 0.950 . S
H1277 C1304 0.950 . S
H1278 C1307 0.950 . S
H1279 C1308 0.950 . S
H1280 C1310 0.950 . S
H1281 C1311 0.950 . S
C1282 H1264 0.952 . S
C1282 C1283 1.368 . S
C1282 C1284 1.388 . S
C1283 C1282 1.368 . S
C1283 C1287 1.389 . S
C1284 H1265 0.951 . S
C1284 C1282 1.388 . S
C1284 C1285 1.366 . S
C1285 C1284 1.366 . S
C1285 C1286 1.414 . S
C1285 C1288 1.499 . S
C1286 H1266 0.950 . S
C1286 C1285 1.414 . S
C1286 C1287 1.374 . S
C1287 H1267 0.950 . S
C1287 C1283 1.389 . S
C1287 C1286 1.374 . S
C1288 C1285 1.499 . S
C1288 C1289 1.373 1_655 S
C1288 C1290 1.389 . S
C1289 H1268 0.950 . S
C1289 C1288 1.373 1_455 S
C1289 C1305 1.377 . S
C1290 C1288 1.389 . S
C1290 C1291 1.524 . S
C1290 C1304 1.377 . S
C1291 C1290 1.524 . S
C1291 C1292 1.397 . S
C1291 C1296 1.363 . S
C1292 H1269 0.950 . S
C1292 C1291 1.397 . S
C1292 C1293 1.334 . S
C1293 H1270 0.950 . S
C1293 C1292 1.334 . S
C1293 C1294 1.287 . S
C1294 C1293 1.287 . S
C1294 C1295 1.524 . S
C1294 H1313 0.913 . S
C1295 H1271 0.950 . S
C1295 C1294 1.524 . S
C1295 C1296 1.415 . S
C1296 H1272 0.950 . S
C1296 C1291 1.363 . S
C1296 C1295 1.415 . S
C1297 H1273 0.951 . S
C1297 C1298 1.366 . S
C1297 C1299 1.388 . S
C1298 C1297 1.366 . S
C1298 C1302 1.385 . S
C1299 H1274 0.951 . S
C1299 C1297 1.388 . S
C1299 C1300 1.366 . S
C1300 C1299 1.366 . S
C1300 C1301 1.414 . S
C1300 C1303 1.499 . S
C1301 H1275 0.950 . S
C1301 C1300 1.414 . S
C1301 C1302 1.374 . S
C1302 H1276 0.950 . S
C1302 C1298 1.385 . S
C1302 C1301 1.374 . S
C1303 C1300 1.499 . S
C1303 C1304 1.373 . S
C1303 C1305 1.389 1_655 S
C1304 H1277 0.950 . S
C1304 C1290 1.377 . S
C1304 C1303 1.373 . S
C1305 C1289 1.377 . S
C1305 C1303 1.389 1_455 S
C1305 C1306 1.524 . S
C1306 C1305 1.524 . S
C1306 C1307 1.397 . S
C1306 C1311 1.363 . S
C1307 H1278 0.950 . S
C1307 C1306 1.397 . S
C1307 C1308 1.334 . S
C1308 H1279 0.950 . S
C1308 C1307 1.334 . S
C1308 C1309 1.287 . S
C1309 C1308 1.287 . S
C1309 C1310 1.524 . S
C1309 H1312 0.999 . S
C1310 H1280 0.950 . S
C1310 C1309 1.524 . S
C1310 C1311 1.415 . S
C1311 H1281 0.950 . S
C1311 C1306 1.363 . S
C1311 C1310 1.415 . S
H1312 C1309 0.999 . S
H1313 C1294 0.913 . S
H1314 C1332 0.951 . S
H1315 C1334 0.951 . S
H1316 C1336 0.950 . S
H1317 C1337 0.950 . S
H1318 C1339 0.950 . S
H1319 C1342 0.950 1_545 S
H1320 C1343 0.950 . S
H1321 C1345 0.950 . S
H1322 C1346 0.950 . S
H1323 C1347 0.951 . S
H1324 C1349 0.951 . S
H1325 C1351 0.950 . S
H1326 C1352 0.950 . S
H1327 C1354 0.950 . S
H1328 C1357 0.981 . S
H1329 C1358 0.950 1_565 S
H1330 C1360 0.950 . S
H1331 C1361 0.950 . S
C1332 H1314 0.951 . S
C1332 C1333 1.408 . S
C1332 C1334 1.388 . S
C1333 C1332 1.408 . S
C1333 C1337 1.344 1_565 S
C1334 H1315 0.951 . S
C1334 C1332 1.388 . S
C1334 C1335 1.366 . S
C1335 C1334 1.366 . S
C1335 C1336 1.414 1_565 S
C1335 C1338 1.499 . S
C1336 H1316 0.950 . S
C1336 C1335 1.414 1_545 S
C1336 C1337 1.374 . S
C1337 H1317 0.950 . S
C1337 C1333 1.344 1_545 S
C1337 C1336 1.374 . S
C1338 C1335 1.499 . S
C1338 C1339 1.373 1_565 S
C1338 C1340 1.389 . S
C1339 H1318 0.950 . S
C1339 C1338 1.373 1_545 S
C1339 C1355 1.377 . S
C1340 C1338 1.389 . S
C1340 C1341 1.524 . S
C1340 C1354 1.377 . S
C1341 C1340 1.524 . S
C1341 C1342 1.397 . S
C1341 C1346 1.363 . S
C1342 H1319 0.950 1_565 S
C1342 C1341 1.397 . S
C1342 C1343 1.334 . S
C1343 H1320 0.950 . S
C1343 C1342 1.334 . S
C1343 C1344 1.287 . S
C1344 C1343 1.287 . S
C1344 C1345 1.524 . S
C1344 H1363 0.913 . S
C1345 H1321 0.950 . S
C1345 C1344 1.524 . S
C1345 C1346 1.415 . S
C1346 H1322 0.950 . S
C1346 C1341 1.363 . S
C1346 C1345 1.415 . S
C1347 H1323 0.951 . S
C1347 C1348 1.366 1_545 S
C1347 C1349 1.388 . S
C1348 C1347 1.366 1_565 S
C1348 C1352 1.385 . S
C1349 H1324 0.951 . S
C1349 C1347 1.388 . S
C1349 C1350 1.366 1_545 S
C1350 C1349 1.366 1_565 S
C1350 C1351 1.414 . S
C1350 C1353 1.499 . S
C1351 H1325 0.950 . S
C1351 C1350 1.414 . S
C1351 C1352 1.374 . S
C1352 H1326 0.950 . S
C1352 C1348 1.385 . S
C1352 C1351 1.374 . S
C1353 C1350 1.499 . S
C1353 C1354 1.373 . S
C1353 C1355 1.389 1_565 S
C1354 H1327 0.950 . S
C1354 C1340 1.377 . S
C1354 C1353 1.373 . S
C1355 C1339 1.377 . S
C1355 C1353 1.389 1_545 S
C1355 C1356 1.524 . S
C1356 C1355 1.524 . S
C1356 C1357 1.376 1_545 S
C1356 C1361 1.363 . S
C1357 H1328 0.981 . S
C1357 C1356 1.376 1_565 S
C1357 C1358 1.324 1_565 S
C1358 H1329 0.950 1_545 S
C1358 C1357 1.324 1_545 S
C1358 C1359 1.287 . S
C1359 C1358 1.287 . S
C1359 C1360 1.524 . S
C1359 H1362 0.999 . S
C1360 H1330 0.950 . S
C1360 C1359 1.524 . S
C1360 C1361 1.415 . S
C1361 H1331 0.950 . S
C1361 C1356 1.363 . S
C1361 C1360 1.415 . S
H1362 C1359 0.999 . S
H1363 C1344 0.913 . S
H1364 C1382 0.951 . S
H1365 C1384 0.951 . S
H1366 C1386 0.950 . S
H1367 C1387 0.950 . S
H1368 C1389 0.950 . S
H1369 C1392 0.950 . S
H1370 C1393 0.950 . S
H1371 C1395 0.950 . S
H1372 C1396 0.950 . S
H1373 C1397 0.951 . S
H1374 C1399 0.951 . S
H1375 C1401 0.950 . S
H1376 C1402 0.950 . S
H1377 C1404 0.950 . S
H1378 C1407 0.950 . S
H1379 C1408 0.950 . S
H1380 C1410 0.950 . S
H1381 C1411 0.950 . S
C1382 H1364 0.951 . S
C1382 C1383 1.366 . S
C1382 C1384 1.388 . S
C1383 C1382 1.366 . S
C1383 C1387 1.385 . S
C1384 H1365 0.951 . S
C1384 C1382 1.388 . S
C1384 C1385 1.366 . S
C1385 C1384 1.366 . S
C1385 C1386 1.414 . S
C1385 C1388 1.499 . S
C1386 H1366 0.950 . S
C1386 C1385 1.414 . S
C1386 C1387 1.374 . S
C1387 H1367 0.950 . S
C1387 C1383 1.385 . S
C1387 C1386 1.374 . S
C1388 C1385 1.499 . S
C1388 C1389 1.373 . S
C1388 C1390 1.389 . S
C1389 H1368 0.950 . S
C1389 C1388 1.373 . S
C1389 C1405 1.377 . S
C1390 C1388 1.389 . S
C1390 C1391 1.524 . S
C1390 C1404 1.377 . S
C1391 C1390 1.524 . S
C1391 C1392 1.397 . S
C1391 C1396 1.363 . S
C1392 H1369 0.950 . S
C1392 C1391 1.397 . S
C1392 C1393 1.334 . S
C1393 H1370 0.950 . S
C1393 C1392 1.334 . S
C1393 C1394 1.287 . S
C1394 C1393 1.287 . S
C1394 C1395 1.524 . S
C1394 H1413 0.913 . S
C1395 H1371 0.950 . S
C1395 C1394 1.524 . S
C1395 C1396 1.415 . S
C1396 H1372 0.950 . S
C1396 C1391 1.363 . S
C1396 C1395 1.415 . S
C1397 H1373 0.951 . S
C1397 C1398 1.366 . S
C1397 C1399 1.388 . S
C1398 C1397 1.366 . S
C1398 C1402 1.385 . S
C1399 H1374 0.951 . S
C1399 C1397 1.388 . S
C1399 C1400 1.366 . S
C1400 C1399 1.366 . S
C1400 C1401 1.414 . S
C1400 C1403 1.499 . S
C1401 H1375 0.950 . S
C1401 C1400 1.414 . S
C1401 C1402 1.374 . S
C1402 H1376 0.950 . S
C1402 C1398 1.385 . S
C1402 C1401 1.374 . S
C1403 C1400 1.499 . S
C1403 C1404 1.373 . S
C1403 C1405 1.389 . S
C1404 H1377 0.950 . S
C1404 C1390 1.377 . S
C1404 C1403 1.373 . S
C1405 C1389 1.377 . S
C1405 C1403 1.389 . S
C1405 C1406 1.524 . S
C1406 C1405 1.524 . S
C1406 C1407 1.397 . S
C1406 C1411 1.363 . S
C1407 H1378 0.950 . S
C1407 C1406 1.397 . S
C1407 C1408 1.334 . S
C1408 H1379 0.950 . S
C1408 C1407 1.334 . S
C1408 C1409 1.287 . S
C1409 C1408 1.287 . S
C1409 C1410 1.524 . S
C1409 H1412 0.999 . S
C1410 H1380 0.950 . S
C1410 C1409 1.524 . S
C1410 C1411 1.415 . S
C1411 H1381 0.950 . S
C1411 C1406 1.363 . S
C1411 C1410 1.415 . S
H1412 C1409 0.999 . S
H1413 C1394 0.913 . S
H1414 C1432 0.951 . S
H1415 C1434 0.951 . S
H1416 C1436 0.950 . S
H1417 C1437 0.950 . S
H1418 C1439 0.950 . S
H1419 C1442 0.950 . S
H1420 C1443 0.950 . S
H1421 C1445 0.950 . S
H1422 C1446 0.950 . S
H1423 C1447 0.951 . S
H1424 C1449 0.951 . S
H1425 C1451 0.950 . S
H1426 C1452 0.950 . S
H1427 C1454 0.950 . S
H1428 C1457 0.950 . S
H1429 C1458 0.950 . S
H1430 C1460 0.950 . S
H1431 C1461 0.950 . S
C1432 H1414 0.951 . S
C1432 C1433 1.366 . S
C1432 C1434 1.388 . S
C1433 C1432 1.366 . S
C1433 C1437 1.385 . S
C1434 H1415 0.951 . S
C1434 C1432 1.388 . S
C1434 C1435 1.366 . S
C1435 C1434 1.366 . S
C1435 C1436 1.414 . S
C1435 C1438 1.499 . S
C1436 H1416 0.950 . S
C1436 C1435 1.414 . S
C1436 C1437 1.374 . S
C1437 H1417 0.950 . S
C1437 C1433 1.385 . S
C1437 C1436 1.374 . S
C1438 C1435 1.499 . S
C1438 C1439 1.373 . S
C1438 C1440 1.389 . S
C1439 H1418 0.950 . S
C1439 C1438 1.373 . S
C1439 C1455 1.377 . S
C1440 C1438 1.389 . S
C1440 C1441 1.524 . S
C1440 C1454 1.377 . S
C1441 C1440 1.524 . S
C1441 C1442 1.397 . S
C1441 C1446 1.363 . S
C1442 H1419 0.950 . S
C1442 C1441 1.397 . S
C1442 C1443 1.334 . S
C1443 H1420 0.950 . S
C1443 C1442 1.334 . S
C1443 C1444 1.287 . S
C1444 C1443 1.287 . S
C1444 C1445 1.524 . S
C1444 H1463 0.913 . S
C1445 H1421 0.950 . S
C1445 C1444 1.524 . S
C1445 C1446 1.415 . S
C1446 H1422 0.950 . S
C1446 C1441 1.363 . S
C1446 C1445 1.415 . S
C1447 H1423 0.951 . S
C1447 C1448 1.366 . S
C1447 C1449 1.388 . S
C1448 C1447 1.366 . S
C1448 C1452 1.385 . S
C1449 H1424 0.951 . S
C1449 C1447 1.388 . S
C1449 C1450 1.366 . S
C1450 C1449 1.366 . S
C1450 C1451 1.414 . S
C1450 C1453 1.499 . S
C1451 H1425 0.950 . S
C1451 C1450 1.414 . S
C1451 C1452 1.374 . S
C1452 H1426 0.950 . S
C1452 C1448 1.385 . S
C1452 C1451 1.374 . S
C1453 C1450 1.499 . S
C1453 C1454 1.373 . S
C1453 C1455 1.389 . S
C1454 H1427 0.950 . S
C1454 C1440 1.377 . S
C1454 C1453 1.373 . S
C1455 C1439 1.377 . S
C1455 C1453 1.389 . S
C1455 C1456 1.524 . S
C1456 C1455 1.524 . S
C1456 C1457 1.397 . S
C1456 C1461 1.363 . S
C1457 H1428 0.950 . S
C1457 C1456 1.397 . S
C1457 C1458 1.334 . S
C1458 H1429 0.950 . S
C1458 C1457 1.334 . S
C1458 C1459 1.287 . S
C1459 C1458 1.287 . S
C1459 C1460 1.524 . S
C1459 H1462 0.999 . S
C1460 H1430 0.950 . S
C1460 C1459 1.524 . S
C1460 C1461 1.415 . S
C1461 H1431 0.950 . S
C1461 C1456 1.363 . S
C1461 C1460 1.415 . S
H1462 C1459 0.999 . S
H1463 C1444 0.913 . S
C283 N80 1.793 1_545 S
C298 C113 1.823 1_545 S
C348 C153 1.833 . S
C333 N93 1.790 . S
C398 C193 1.833 . S
C383 N54 1.796 . S
C448 C233 1.828 1_455 S
C433 N67 1.793 1_455 S
C498 C122 1.828 1_565 S
C483 N28 1.799 1_545 S
C533 N41 1.794 . S
C548 C162 1.835 . S
C583 N2 1.795 . S
C598 C202 1.833 . S
C633 N15 1.794 . S
C648 C242 1.834 1_655 S
C698 C119 0.285 . S
C683 N70 0.235 1_455 S
C748 C159 0.285 . S
C733 N83 0.240 1_545 S
C798 C199 0.284 . S
C783 N96 0.241 . S
C833 N57 0.239 . S
C848 C239 0.279 . S
C883 N18 0.234 . S
C898 C110 0.279 . S
C948 C150 0.286 . S
C933 N31 0.232 . S
C998 C190 0.286 . S
C983 N44 0.233 . S
C1033 N5 0.229 . S
C1048 C230 0.286 . S
C1083 N66 1.974 1_455 S
C1098 C123 2.027 . S
C1133 N79 1.972 1_545 S
C1148 C163 2.031 . S
C1198 C203 2.029 . S
C1183 N92 1.973 . S
C1248 C243 2.032 . S
C1233 N53 1.970 . S
C1283 N14 1.975 . S
C1298 C114 2.043 . S
C1348 C154 2.031 . S
C1333 N27 1.971 . S
C1398 C194 2.028 . S
C1383 N40 1.967 . S
C1433 N1 1.971 . S
C1448 C234 2.039 . S
