# Generated by pormake.
# Topology pyr, (3,6)-cn, num edge types: 1
# Building blocks:
#     Node 0, Type 0, BuildingBlock: PAMTOO_clean_linker_0, # of connection points: 3
#     Node 1, Type 0, BuildingBlock: PAMTOO_clean_linker_0, # of connection points: 3
#     Node 2, Type 0, BuildingBlock: PAMTOO_clean_linker_0, # of connection points: 3
#     Node 3, Type 0, BuildingBlock: PAMTOO_clean_linker_0, # of connection points: 3
#     Node 4, Type 0, BuildingBlock: PAMTOO_clean_linker_0, # of connection points: 3
#     Node 5, Type 0, BuildingBlock: PAMTOO_clean_linker_0, # of connection points: 3
#     Node 6, Type 0, BuildingBlock: PAMTOO_clean_linker_0, # of connection points: 3
#     Node 7, Type 0, BuildingBlock: PAMTOO_clean_linker_0, # of connection points: 3
#     Node 8, Type 1, BuildingBlock: VOLQOD_clean_sbu_1, # of connection points: 6
#     Node 9, Type 1, BuildingBlock: VOLQOD_clean_sbu_1, # of connection points: 6
#     Node 10, Type 1, BuildingBlock: VOLQOD_clean_sbu_1, # of connection points: 6
#     Node 11, Type 1, BuildingBlock: VOLQOD_clean_sbu_1, # of connection points: 6
#     Edge 12, Type (0, 1), BuildingBlock: CIFDUS_clean_linker_0, # of connection points: 2
#     Edge 13, Type (0, 1), BuildingBlock: CIFDUS_clean_linker_0, # of connection points: 2
#     Edge 14, Type (0, 1), BuildingBlock: CIFDUS_clean_linker_0, # of connection points: 2
#     Edge 15, Type (0, 1), BuildingBlock: CIFDUS_clean_linker_0, # of connection points: 2
#     Edge 16, Type (0, 1), BuildingBlock: CIFDUS_clean_linker_0, # of connection points: 2
#     Edge 17, Type (0, 1), BuildingBlock: CIFDUS_clean_linker_0, # of connection points: 2
#     Edge 18, Type (0, 1), BuildingBlock: CIFDUS_clean_linker_0, # of connection points: 2
#     Edge 19, Type (0, 1), BuildingBlock: CIFDUS_clean_linker_0, # of connection points: 2
#     Edge 20, Type (0, 1), BuildingBlock: CIFDUS_clean_linker_0, # of connection points: 2
#     Edge 21, Type (0, 1), BuildingBlock: CIFDUS_clean_linker_0, # of connection points: 2
#     Edge 22, Type (0, 1), BuildingBlock: CIFDUS_clean_linker_0, # of connection points: 2
#     Edge 23, Type (0, 1), BuildingBlock: CIFDUS_clean_linker_0, # of connection points: 2
#     Edge 24, Type (0, 1), BuildingBlock: CIFDUS_clean_linker_0, # of connection points: 2
#     Edge 25, Type (0, 1), BuildingBlock: CIFDUS_clean_linker_0, # of connection points: 2
#     Edge 26, Type (0, 1), BuildingBlock: CIFDUS_clean_linker_0, # of connection points: 2
#     Edge 27, Type (0, 1), BuildingBlock: CIFDUS_clean_linker_0, # of connection points: 2
#     Edge 28, Type (0, 1), BuildingBlock: CIFDUS_clean_linker_0, # of connection points: 2
#     Edge 29, Type (0, 1), BuildingBlock: CIFDUS_clean_linker_0, # of connection points: 2
#     Edge 30, Type (0, 1), BuildingBlock: CIFDUS_clean_linker_0, # of connection points: 2
#     Edge 31, Type (0, 1), BuildingBlock: CIFDUS_clean_linker_0, # of connection points: 2
#     Edge 32, Type (0, 1), BuildingBlock: CIFDUS_clean_linker_0, # of connection points: 2
#     Edge 33, Type (0, 1), BuildingBlock: CIFDUS_clean_linker_0, # of connection points: 2
#     Edge 34, Type (0, 1), BuildingBlock: CIFDUS_clean_linker_0, # of connection points: 2
#     Edge 35, Type (0, 1), BuildingBlock: CIFDUS_clean_linker_0, # of connection points: 2
# Relax obj value: 0.122
# Max RMSD: 0.195
# Mean RMSD: 0.160
data_MOF--net-pry--node1-VOLQOD_clean_sbu_1--node2-PAMTOO_clean_linker_0--edge1-CIFDUS_clean_linker_0
_symmetry_space_group_name_H-M    P1
_symmetry_Int_Tables_number       1
_symmetry_cell_setting            triclinic
loop_
_symmetry_equiv_pos_as_xyz
'x, y, z'
_cell_length_a     31.967881
_cell_length_b     33.098734
_cell_length_c     32.819303
_cell_angle_alpha  90.081206
_cell_angle_beta   90.918791
_cell_angle_gamma 95.312638
loop_
_atom_site_label
_atom_site_type_symbol
_atom_site_fract_x
_atom_site_fract_y
_atom_site_fract_z
_atom_type_partial_charge
H0 H 0.12819 0.19993 0.21591 0.0
H1 H 0.21301 0.10676 0.20505 0.0
H2 H 0.20288 0.1917 0.1082 0.0
H3 H 0.20838 0.10916 0.08154 0.0
C4 C 0.23033 0.09906 0.10532 0.0
O5 O 0.24018 0.12971 0.13326 0.0
H6 H 0.21448 0.07206 0.1208 0.0
C7 C 0.15059 0.18493 0.19823 0.0
C8 C 0.16333 0.20051 0.15998 0.0
C9 C 0.16863 0.15122 0.21478 0.0
C10 C 0.19872 0.13259 0.19256 0.0
C11 C 0.21054 0.14712 0.15412 0.0
C12 C 0.193 0.18083 0.13798 0.0
H13 H 0.3546 0.92773 0.69676 0.0
H14 H 0.35013 0.85577 0.58731 0.0
H15 H 0.45199 0.84914 0.67263 0.0
H16 H 0.47526 0.8426 0.5879 0.0
C17 C 0.44641 0.82507 0.57558 0.0
O18 O 0.41704 0.81892 0.60578 0.0
H19 H 0.43357 0.84294 0.55036 0.0
C20 C 0.36889 0.90666 0.67719 0.0
C21 C 0.40651 0.89085 0.6894 0.0
C22 C 0.34875 0.89464 0.64018 0.0
C23 C 0.36609 0.86619 0.6153 0.0
C24 C 0.40294 0.8495 0.6275 0.0
C25 C 0.42328 0.86217 0.66405 0.0
H26 H 0.67819 0.3473 0.96013 0.0
H27 H 0.57201 0.35325 0.8787 0.0
H28 H 0.66866 0.45137 0.88306 0.0
H29 H 0.58541 0.47662 0.86826 0.0
C30 C 0.57257 0.45111 0.84821 0.0
O31 O 0.60035 0.42185 0.84638 0.0
H32 H 0.5422 0.43788 0.86072 0.0
C33 C 0.66079 0.36391 0.93825 0.0
C34 C 0.67834 0.40168 0.92405 0.0
C35 C 0.62235 0.34598 0.92229 0.0
C36 C 0.60058 0.36716 0.89297 0.0
C37 C 0.6175 0.40504 0.8792 0.0
C38 C 0.65579 0.42244 0.89501 0.0
H39 H 0.88714 0.67518 0.49893 0.0
H40 H 0.89368 0.57799 0.41187 0.0
H41 H 0.98312 0.68194 0.40821 0.0
H42 H 0.94026 0.66277 0.33368 0.0
C43 C 0.93653 0.62899 0.33483 0.0
O44 O 0.95396 0.61579 0.37061 0.0
H45 H 0.90221 0.61935 0.33372 0.0
C46 C 0.90294 0.66093 0.47455 0.0
C47 C 0.93817 0.68214 0.45678 0.0
C48 C 0.88595 0.62333 0.45847 0.0
C49 C 0.90591 0.60672 0.42519 0.0
C50 C 0.94019 0.62828 0.4068 0.0
C51 C 0.95685 0.66534 0.42313 0.0
H52 H 0.88675 0.95434 0.84729 0.0
H53 H 0.8926 0.88376 0.9566 0.0
H54 H 0.97787 0.86642 0.86028 0.0
H55 H 0.91559 0.79696 0.89306 0.0
C56 C 0.92498 0.80204 0.92566 0.0
O57 O 0.9491 0.83873 0.92978 0.0
H58 H 0.89576 0.8029 0.94345 0.0
C59 C 0.9021 0.93243 0.86532 0.0
C60 C 0.93558 0.91309 0.84903 0.0
C61 C 0.88695 0.92249 0.9043 0.0
C62 C 0.90526 0.89292 0.92723 0.0
C63 C 0.93706 0.87202 0.91067 0.0
C64 C 0.95284 0.88268 0.87221 0.0
H65 H 0.71429 0.05649 0.33444 0.0
H66 H 0.61265 0.13246 0.34247 0.0
H67 H 0.71117 0.14313 0.43264 0.0
H68 H 0.62121 0.14796 0.46346 0.0
C69 C 0.60946 0.16422 0.43654 0.0
O70 O 0.64116 0.17027 0.40851 0.0
H71 H 0.58216 0.14552 0.42272 0.0
C72 C 0.69938 0.08006 0.35004 0.0
C73 C 0.71803 0.09802 0.38572 0.0
C74 C 0.6615 0.09226 0.33404 0.0
C75 C 0.64138 0.12195 0.35476 0.0
C76 C 0.65907 0.13955 0.39059 0.0
C77 C 0.6972 0.12775 0.40591 0.0
H78 H 0.3697 0.69321 0.06122 0.0
H79 H 0.35852 0.58199 0.12996 0.0
H80 H 0.46787 0.66549 0.14544 0.0
H81 H 0.47861 0.5706 0.14605 0.0
C82 C 0.44885 0.56279 0.16261 0.0
O83 O 0.42896 0.59721 0.16947 0.0
H84 H 0.42828 0.5407 0.14395 0.0
C85 C 0.3827 0.67261 0.08262 0.0
C86 C 0.42176 0.68356 0.1018 0.0
C87 C 0.35981 0.63567 0.09221 0.0
C88 C 0.3764 0.60987 0.12089 0.0
C89 C 0.41535 0.62049 0.13947 0.0
C90 C 0.43811 0.65713 0.12996 0.0
H91 H 0.0633 0.34673 0.69343 0.0
H92 H 0.131 0.46435 0.68188 0.0
H93 H 0.14785 0.37197 0.59353 0.0
H94 H 0.21434 0.43678 0.66616 0.0
C95 C 0.21189 0.45419 0.63725 0.0
O96 O 0.17317 0.44557 0.61828 0.0
H97 H 0.21527 0.48675 0.64613 0.0
C98 C 0.08464 0.36762 0.67655 0.0
C99 C 0.10271 0.35477 0.64054 0.0
C100 C 0.09465 0.40701 0.6916 0.0
C101 C 0.1224 0.43404 0.67012 0.0
C102 C 0.14246 0.42088 0.63558 0.0
C103 C 0.13257 0.38144 0.6207 0.0
O104 O 0.03599 0.11129 0.56464 0.0
Zn105 Zn 0.00561 0.05585 0.55659 0.0
O106 O 0.04037 0.02237 0.52426 0.0
Zn107 Zn 0.01081 0.00697 0.47329 0.0
Zn108 Zn 0.0946 0.05211 0.51141 0.0
Zn109 Zn 0.05031 0.97388 0.55541 0.0
O110 O 0.00306 0.94623 0.46681 0.0
O111 O 0.02622 0.92363 0.52596 0.0
O112 O 0.94908 0.06183 0.52907 0.0
O113 O 0.9537 0.02739 0.47149 0.0
O114 O 0.04085 0.0318 0.42478 0.0
O115 O 0.09969 0.06293 0.45086 0.0
O116 O 0.1436 0.02161 0.53026 0.0
O117 O 0.99459 0.03203 0.61264 0.0
O118 O 0.11222 0.96942 0.56399 0.0
O119 O 0.02408 0.97398 0.61064 0.0
C120 C 0.07306 0.12687 0.55728 0.0
C121 C 0.00947 0.91715 0.49083 0.0
C122 C 0.07554 0.05338 0.42041 0.0
C123 C 0.93337 0.04869 0.49509 0.0
C124 C 0.14541 0.98972 0.55173 0.0
C125 C 0.00346 -0.00088 0.62942 0.0
O126 O 0.0993 0.10701 0.53871 0.0
O127 O 0.54688 0.09525 0.96656 0.0
Zn128 Zn 0.51732 0.03912 0.97365 0.0
O129 O 0.55537 0.00379 0.00116 0.0
Zn130 Zn 0.56312 0.95813 0.96551 0.0
Zn131 Zn 0.6104 0.0326 0.01277 0.0
Zn132 Zn 0.53145 0.98428 0.05278 0.0
O133 O 0.54297 0.9057 0.99177 0.0
O134 O 0.52254 0.92331 0.05314 0.0
O135 O 0.49791 0.01711 0.91757 0.0
O136 O 0.52962 0.96044 0.91395 0.0
O137 O 0.62346 0.95614 0.95026 0.0
O138 O 0.65742 0.00614 0.98613 0.0
O139 O 0.62306 0.03685 0.07319 0.0
O140 O 0.46516 0.04387 0.00703 0.0
O141 O 0.56744 0.00372 0.10146 0.0
O142 O 0.47505 0.00476 0.06057 0.0
C143 C 0.58439 0.11012 0.97436 0.0
C144 C 0.52779 0.89635 0.02644 0.0
C145 C 0.65744 0.97659 0.96127 0.0
C146 C 0.5054 0.98494 0.89862 0.0
C147 C 0.60303 0.02431 0.10466 0.0
C148 C 0.45275 0.02809 0.04066 0.0
O149 O 0.61131 0.08912 0.99109 0.0
O150 O 0.56675 0.50683 0.59435 0.0
Zn151 Zn 0.57101 0.5321 0.53817 0.0
O152 O 0.5352 0.49863 0.49907 0.0
Zn153 Zn 0.56949 0.48193 0.45523 0.0
Zn154 Zn 0.5088 0.44946 0.52478 0.0
Zn155 Zn 0.49168 0.53027 0.47631 0.0
O156 O 0.55044 0.50128 0.40147 0.0
O157 O 0.49305 0.53163 0.41492 0.0
O158 O 0.63242 0.53965 0.52035 0.0
O159 O 0.62839 0.50511 0.46224 0.0
O160 O 0.56872 0.42168 0.45094 0.0
O161 O 0.5265 0.39732 0.49986 0.0
O162 O 0.44542 0.44882 0.52355 0.0
O163 O 0.55066 0.58817 0.54285 0.0
O164 O 0.43452 0.50653 0.49257 0.0
O165 O 0.49776 0.5877 0.49814 0.0
C166 C 0.5468 0.47444 0.60758 0.0
C167 C 0.51923 0.51959 0.38983 0.0
C168 C 0.55063 0.39186 0.47019 0.0
C169 C 0.64952 0.52713 0.48839 0.0
C170 C 0.42063 0.4742 0.51071 0.0
C171 C 0.52181 0.606 0.52498 0.0
O172 O 0.52467 0.45031 0.58387 0.0
O173 O 0.98359 0.48435 0.11752 0.0
Zn174 Zn 0.98871 0.45324 0.06551 0.0
O175 O 0.02397 0.48651 0.02739 0.0
Zn176 Zn 0.99294 0.49536 0.97748 0.0
Zn177 Zn 0.04268 0.53971 0.0514 0.0
Zn178 Zn 0.0718 0.45734 0.01349 0.0
O179 O 0.0174 0.47055 0.92867 0.0
O180 O 0.07044 0.43979 0.95466 0.0
O181 O 0.92974 0.44054 0.0425 0.0
O182 O 0.93393 0.47134 0.98242 0.0
O183 O 0.99064 0.55426 0.96579 0.0
O184 O 0.02089 0.58624 0.01946 0.0
O185 O 0.10595 0.5489 0.05102 0.0
O186 O 0.01421 0.40104 0.08105 0.0
O187 O 0.12521 0.49248 0.023 0.0
O188 O 0.07446 0.40796 0.04803 0.0
C189 C 0.99872 0.51884 0.13102 0.0
C190 C 0.0476 0.44856 0.92442 0.0
C191 C 0.00185 0.58689 0.9851 0.0
C192 C 0.91289 0.45065 0.009 0.0
C193 C 0.13431 0.52766 0.03814 0.0
C194 C 0.04961 0.38853 0.07254 0.0
O195 O 0.02243 0.54293 0.10928 0.0
H196 H 0.09209 0.12037 0.24031 0.0
H197 H 0.22062 0.14722 0.28041 0.0
H198 H 0.20341 0.11949 0.34789 0.0
H199 H 0.15186 0.08687 0.39512 0.0
H200 H 0.02393 0.05657 0.35365 0.0
H201 H 0.04084 0.08593 0.28713 0.0
C202 C 0.1161 0.12031 0.26405 0.0
C203 C 0.15739 0.13597 0.25583 0.0
C204 C 0.10617 0.1034 0.30235 0.0
C205 C 0.18858 0.13533 0.28636 0.0
C206 C 0.17877 0.11945 0.32481 0.0
C207 C 0.12769 0.08663 0.37153 0.0
C208 C 0.0867 0.06954 0.37948 0.0
C209 C 0.1377 0.10321 0.33311 0.0
C210 C 0.05583 0.06929 0.34838 0.0
C211 C 0.06539 0.08626 0.31032 0.0
H212 H 0.41374 0.96575 0.72625 0.0
H213 H 0.44531 0.84264 0.74307 0.0
H214 H 0.47952 0.86151 0.80792 0.0
H215 H 0.49957 0.91208 0.8604 0.0
H216 H 0.46499 0.03439 0.8468 0.0
H217 H 0.43203 0.01635 0.78051 0.0
C218 C 0.4277 0.94289 0.74423 0.0
C219 C 0.42717 0.90283 0.72929 0.0
C220 C 0.44663 0.95371 0.78221 0.0
C221 C 0.44599 0.87389 0.75304 0.0
C222 C 0.46528 0.88455 0.79043 0.0
C223 C 0.48499 0.93497 0.84297 0.0
C224 C 0.48501 0.97464 0.85852 0.0
C225 C 0.46579 0.9243 0.80528 0.0
C226 C 0.46545 0.00364 0.8356 0.0
C227 C 0.44666 0.99334 0.79766 0.0
H228 H 0.52909 0.41023 0.78789 0.0
H229 H 0.60443 0.52245 0.8129 0.0
H230 H 0.60302 0.53996 0.74036 0.0
H231 H 0.58332 0.52127 0.66948 0.0
H232 H 0.51024 0.40707 0.64512 0.0
H233 H 0.50817 0.39226 0.71762 0.0
C234 C 0.54436 0.43889 0.77738 0.0
C235 C 0.56602 0.46544 0.80546 0.0
C236 C 0.54449 0.44802 0.73573 0.0
C237 C 0.58681 0.50201 0.79173 0.0
C238 C 0.58636 0.51178 0.7503 0.0
C239 C 0.56704 0.49311 0.68 0.0
C240 C 0.54718 0.4653 0.65173 0.0
C241 C 0.56589 0.48465 0.72193 0.0
C242 C 0.52599 0.42904 0.66604 0.0
C243 C 0.5246 0.42052 0.70757 0.0
H244 H 0.91885 0.55465 0.30047 0.0
H245 H 0.00024 0.66511 0.28897 0.0
H246 H 0.02863 0.63989 0.22589 0.0
H247 H 0.02634 0.58847 0.17165 0.0
H248 H 0.94417 0.47802 0.1832 0.0
H249 H 0.92018 0.5011 0.24857 0.0
C250 C 0.94305 0.57291 0.28418 0.0
C251 C 0.95697 0.61184 0.29861 0.0
C252 C 0.95882 0.55837 0.24786 0.0
C253 C 0.98875 0.63521 0.27789 0.0
C254 C 0.00487 0.62085 0.24188 0.0
C255 C 0.00339 0.5693 0.18854 0.0
C256 C 0.98682 0.53174 0.17219 0.0
C257 C 0.98949 0.58282 0.22613 0.0
C258 C 0.95735 0.50718 0.19481 0.0
C259 C 0.94352 0.52035 0.23226 0.0
H260 H 0.28513 0.04826 0.1351 0.0
H261 H 0.2652 0.12738 0.03397 0.0
H262 H 0.33206 0.1123 0.00462 0.0
H263 H 0.39653 0.07713 0.00841 0.0
H264 H 0.4164 0.99858 0.11059 0.0
H265 H 0.3493 0.01279 0.1387 0.0
C266 C 0.29538 0.06176 0.10642 0.0
C267 C 0.27015 0.08813 0.08618 0.0
C268 C 0.33387 0.05319 0.09002 0.0
C269 C 0.28394 0.10636 0.04957 0.0
C270 C 0.32215 0.09787 0.03293 0.0
C271 C 0.38619 0.06305 0.03679 0.0
C272 C 0.41165 0.03683 0.05726 0.0
C273 C 0.34744 0.07138 0.05295 0.0
C274 C 0.39762 0.01892 0.09407 0.0
C275 C 0.35916 0.02699 0.11026 0.0
H276 H 0.33082 0.93958 0.57409 0.0
H277 H 0.27609 0.88364 0.68161 0.0
H278 H 0.20801 0.90753 0.66342 0.0
H279 H 0.16418 0.94412 0.61688 0.0
H280 H 0.21956 0.00418 0.51151 0.0
H281 H 0.28732 0.9792 0.52889 0.0
C282 C 0.30385 0.93272 0.59336 0.0
C283 C 0.30808 0.90982 0.62895 0.0
C284 C 0.2651 0.94735 0.58314 0.0
C285 C 0.2733 0.90131 0.6541 0.0
C286 C 0.23448 0.9149 0.64368 0.0
C287 C 0.19106 0.9517 0.59767 0.0
C288 C 0.18678 0.97572 0.56279 0.0
C289 C 0.23001 0.9379 0.60827 0.0
C290 C 0.22206 0.98578 0.53856 0.0
C291 C 0.26077 0.97142 0.54841 0.0
H292 H 0.71811 0.39709 0.99832 0.0
H293 H 0.73826 0.43849 0.87468 0.0
H294 H 0.81165 0.45809 0.89079 0.0
H295 H 0.87079 0.46053 0.93824 0.0
H296 H 0.85336 0.41571 0.06089 0.0
H297 H 0.77838 0.39913 0.04631 0.0
C298 C 0.73856 0.41026 0.97484 0.0
C299 C 0.72231 0.41654 0.93542 0.0
C300 C 0.78136 0.42025 0.98385 0.0
C301 C 0.74932 0.43418 0.90558 0.0
C302 C 0.79158 0.44493 0.91456 0.0
C303 C 0.85073 0.44716 0.96194 0.0
C304 C 0.86774 0.43934 0.00059 0.0
C305 C 0.80797 0.43767 0.95338 0.0
C306 C 0.84114 0.42187 0.03079 0.0
C307 C 0.79825 0.41255 0.02253 0.0
H308 H 0.8236 0.58439 0.41221 0.0
H309 H 0.85423 0.62033 0.53645 0.0
H310 H 0.78373 0.59398 0.55728 0.0
H311 H 0.71228 0.56197 0.53931 0.0
H312 H 0.68617 0.52303 0.41495 0.0
H313 H 0.75651 0.54819 0.39565 0.0
C314 C 0.81567 0.58555 0.44415 0.0
C315 C 0.84461 0.60423 0.47263 0.0
C316 C 0.77564 0.56973 0.45601 0.0
C317 C 0.83259 0.60653 0.51363 0.0
C318 C 0.79229 0.59129 0.52564 0.0
C319 C 0.72216 0.55883 0.50811 0.0
C320 C 0.69373 0.54071 0.47873 0.0
C321 C 0.76332 0.57313 0.49695 0.0
C322 C 0.70719 0.53666 0.4384 0.0
C323 C 0.7475 0.55118 0.42714 0.0
H324 H 0.08306 0.22388 0.16068 0.0
H325 H 0.20915 0.26281 0.12282 0.0
H326 H 0.18476 0.32336 0.0922 0.0
H327 H 0.12826 0.36495 0.07526 0.0
H328 H 0.00206 0.32912 0.11443 0.0
H329 H 0.02599 0.26796 0.14584 0.0
C330 C 0.1052 0.24583 0.14606 0.0
C331 C 0.14779 0.23835 0.14352 0.0
C332 C 0.09101 0.28111 0.12868 0.0
C333 C 0.17604 0.26715 0.12437 0.0
C334 C 0.1622 0.30199 0.10703 0.0
C335 C 0.1058 0.34378 0.09052 0.0
C336 C 0.06333 0.35149 0.09214 0.0
C337 C 0.11978 0.30909 0.10869 0.0
C338 C 0.03493 0.3239 0.11263 0.0
C339 C 0.0486 0.28892 0.13058 0.0
H340 H 0.67001 0.28292 0.93124 0.0
H341 H 0.54162 0.31302 0.93537 0.0
H342 H 0.51809 0.24214 0.95019 0.0
H343 H 0.5345 0.17176 0.96294 0.0
H344 H 0.66385 0.14395 0.96242 0.0
H345 H 0.68656 0.21421 0.946 0.0
C346 C 0.63693 0.27432 0.93621 0.0
C347 C 0.6077 0.3034 0.93268 0.0
C348 C 0.62381 0.23391 0.94534 0.0
C349 C 0.56479 0.29121 0.93779 0.0
C350 C 0.55134 0.25074 0.9464 0.0
C351 C 0.56761 0.18112 0.95906 0.0
C352 C 0.59743 0.15269 0.96382 0.0
C353 C 0.58062 0.22183 0.95024 0.0
C354 C 0.64028 0.16527 0.9591 0.0
C355 C 0.65332 0.20542 0.94966 0.0
H356 H 0.95096 0.74842 0.40926 0.0
H357 H 0.95651 0.70919 0.53428 0.0
H358 H 0.98008 0.77865 0.55591 0.0
H359 H 0.99876 0.85031 0.53893 0.0
H360 H 0.99076 0.88938 0.41377 0.0
H361 H 0.96873 0.81992 0.39241 0.0
C362 C 0.95776 0.75507 0.4412 0.0
C363 C 0.95255 0.72387 0.47016 0.0
C364 C 0.97078 0.7949 0.45329 0.0
C365 C 0.96041 0.73288 0.51154 0.0
C366 C 0.97393 0.77246 0.52383 0.0
C367 C 0.9924 0.8436 0.50695 0.0
C368 C 0.99656 0.87497 0.47796 0.0
C369 C 0.97922 0.80369 0.49493 0.0
C370 C 0.98773 0.86584 0.43671 0.0
C371 C 0.97518 0.82613 0.42445 0.0
H372 H 0.51048 0.78107 0.59997 0.0
H373 H 0.40434 0.77779 0.51713 0.0
H374 H 0.41885 0.71041 0.49317 0.0
H375 H 0.46089 0.65202 0.49689 0.0
H376 H 0.56692 0.65506 0.58044 0.0
H377 H 0.55357 0.723 0.60268 0.0
C378 C 0.49089 0.76566 0.57638 0.0
C379 C 0.45687 0.78449 0.55973 0.0
C380 C 0.49938 0.72692 0.56292 0.0
C381 C 0.43108 0.76401 0.52983 0.0
C382 C 0.43932 0.72552 0.51625 0.0
C383 C 0.48129 0.66755 0.5198 0.0
C384 C 0.51488 0.64822 0.53692 0.0
C385 C 0.47332 0.70662 0.53267 0.0
C386 C 0.54083 0.66901 0.56667 0.0
C387 C 0.53319 0.70793 0.5795 0.0
H388 H 0.94318 0.98722 0.81175 0.0
H389 H 0.96129 0.86108 0.79122 0.0
H390 H 0.98518 0.87696 0.72255 0.0
H391 H -0.00063 0.92608 0.66757 0.0
H392 H 0.97673 0.0513 0.6861 0.0
H393 H 0.95515 0.03601 0.75592 0.0
C394 C 0.95189 0.96304 0.7922 0.0
C395 C 0.95061 0.92301 0.80708 0.0
C396 C 0.96453 0.97212 0.75218 0.0
C397 C 0.96277 0.89233 0.78124 0.0
C398 C 0.97607 0.90129 0.74168 0.0
C399 C 0.98981 0.95009 0.68687 0.0
C400 C 0.9898 0.98981 0.67159 0.0
C401 C 0.97696 0.94102 0.7268 0.0
C402 C 0.97692 0.02043 0.69698 0.0
C403 C 0.96468 0.01174 0.73697 0.0
H404 H 0.70375 0.08485 0.26384 0.0
H405 H 0.58053 0.06332 0.31543 0.0
H406 H 0.55186 0.0384 0.24946 0.0
H407 H 0.56158 0.02467 0.17661 0.0
H408 H 0.6845 0.04931 0.12468 0.0
H409 H 0.71359 0.07066 0.19134 0.0
C410 C 0.67072 0.07424 0.26072 0.0
C411 C 0.64431 0.07572 0.29447 0.0
C412 C 0.65441 0.06058 0.22262 0.0
C413 C 0.60142 0.06261 0.28982 0.0
C414 C 0.58507 0.04829 0.25216 0.0
C415 C 0.5948 0.03437 0.17994 0.0
C416 C 0.62081 0.03529 0.14564 0.0
C417 C 0.61122 0.0474 0.21827 0.0
C418 C 0.66372 0.0484 0.15048 0.0
C419 C 0.68041 0.06062 0.18861 0.0
H420 H 0.52367 0.562 0.20335 0.0
H421 H 0.39126 0.5258 0.21334 0.0
H422 H 0.40099 0.50937 0.28538 0.0
H423 H 0.44657 0.51045 0.34652 0.0
H424 H 0.57959 0.54319 0.33568 0.0
H425 H 0.57043 0.55611 0.26282 0.0
C426 C 0.49725 0.54953 0.22115 0.0
C427 C 0.45692 0.54473 0.20339 0.0
C428 C 0.5031 0.54036 0.26238 0.0
C429 C 0.42265 0.52912 0.22662 0.0
C430 C 0.42814 0.52018 0.26775 0.0
C431 C 0.47341 0.52044 0.32805 0.0
C432 C 0.51349 0.52663 0.34613 0.0
C433 C 0.46805 0.52665 0.28615 0.0
C434 C 0.54838 0.5386 0.32211 0.0
C435 C 0.54319 0.54588 0.28058 0.0
H436 H 0.10616 0.36917 0.76279 0.0
H437 H 0.0509 0.47131 0.71012 0.0
H438 H 0.02926 0.49205 0.77782 0.0
H439 H 0.02848 0.48218 0.85202 0.0
H440 H 0.0885 0.38263 0.90491 0.0
H441 H 0.10588 0.3596 0.83698 0.0
C442 C 0.08894 0.39568 0.76625 0.0
C443 C 0.07962 0.41855 0.73184 0.0
C444 C 0.07774 0.40788 0.80517 0.0
C445 C 0.05814 0.45332 0.73642 0.0
C446 C 0.04586 0.46511 0.775 0.0
C447 C 0.04507 0.45526 0.84863 0.0
C448 C 0.05707 0.43402 0.88336 0.0
C449 C 0.05581 0.44279 0.80961 0.0
C450 C 0.07906 0.39954 0.87861 0.0
C451 C 0.08894 0.38633 0.83982 0.0
H452 H 0.8107 0.91559 0.86789 0.0
H453 H 0.87759 0.96475 0.97445 0.0
H454 H 0.81246 0.98789 0.00089 0.0
H455 H 0.73592 0.99157 0.99455 0.0
H456 H 0.66877 0.93744 0.88997 0.0
H457 H 0.7345 0.91875 0.8618 0.0
C458 C 0.81094 0.93187 0.89663 0.0
C459 C 0.84863 0.93904 0.91907 0.0
C460 C 0.77334 0.94383 0.91205 0.0
C461 C 0.84875 0.95926 0.95669 0.0
C462 C 0.8116 0.97234 0.97176 0.0
C463 C 0.73577 0.97589 0.9655 0.0
C464 C 0.69756 0.96592 0.94437 0.0
C465 C 0.77361 0.96443 0.94987 0.0
C466 C 0.69774 0.94522 0.90695 0.0
C467 C 0.73531 0.93463 0.89075 0.0
H468 H 0.74743 0.09375 0.46468 0.0
H469 H 0.78434 0.07894 0.33977 0.0
H470 H 0.85263 0.06076 0.36284 0.0
H471 H 0.90272 0.05027 0.41789 0.0
H472 H 0.86928 0.07056 0.54259 0.0
H473 H 0.79923 0.08644 0.52002 0.0
C474 C 0.77047 0.08702 0.44239 0.0
C475 C 0.76006 0.08725 0.40043 0.0
C476 C 0.81053 0.0778 0.45579 0.0
C477 C 0.79056 0.07793 0.37225 0.0
C478 C 0.83 0.06792 0.38538 0.0
C479 C 0.88008 0.05801 0.44021 0.0
C480 C 0.8911 0.05894 0.48189 0.0
C481 C 0.84031 0.06776 0.427 0.0
C482 C 0.86159 0.06966 0.51032 0.0
C483 C 0.82152 0.07865 0.49742 0.0
H484 H 0.33003 0.56389 0.05918 0.0
H485 H 0.2942 0.6828 0.0884 0.0
H486 H 0.22073 0.66046 0.07181 0.0
H487 H 0.16619 0.60507 0.05566 0.0
H488 H 0.20286 0.48583 0.02775 0.0
H489 H 0.2765 0.51032 0.03746 0.0
C490 C 0.30611 0.58497 0.06142 0.0
C491 C 0.31721 0.62471 0.07526 0.0
C492 C 0.2641 0.57172 0.05269 0.0
C493 C 0.28627 0.65207 0.07755 0.0
C494 C 0.24428 0.6392 0.06849 0.0
C495 C 0.1903 0.5845 0.05154 0.0
C496 C 0.17895 0.54356 0.04157 0.0
C497 C 0.23272 0.59875 0.05716 0.0
C498 C 0.21063 0.51744 0.03569 0.0
C499 C 0.25281 0.53138 0.04122 0.0
H500 H 0.23963 0.49817 0.57173 0.0
H501 H 0.2621 0.39153 0.64079 0.0
H502 H 0.32657 0.38476 0.60314 0.0
H503 H 0.38101 0.41481 0.55755 0.0
H504 H 0.35911 0.52271 0.48955 0.0
H505 H 0.28975 0.5229 0.51916 0.0
C506 C 0.25838 0.4731 0.57785 0.0
C507 C 0.24693 0.44591 0.60937 0.0
C508 C 0.29564 0.46982 0.55654 0.0
C509 C 0.27087 0.41315 0.61697 0.0
C510 C 0.30771 0.40934 0.59554 0.0
C511 C 0.3608 0.43792 0.54855 0.0
C512 C 0.37571 0.46912 0.52195 0.0
C513 C 0.32117 0.43837 0.5663 0.0
C514 C 0.34878 0.49858 0.51036 0.0
C515 C 0.30908 0.49884 0.52738 0.0
H516 H 0.93696 0.73211 0.88612 0.0
H517 H 0.96243 0.79395 0.00065 0.0
H518 H 0.99141 0.73358 0.02887 0.0
H519 H 0.00442 0.6614 0.02207 0.0
H520 H 0.97564 0.59991 0.90741 0.0
H521 H 0.95324 0.66196 0.87815 0.0
C522 C 0.94954 0.73258 0.91703 0.0
C523 C 0.9481 0.76742 0.9412 0.0
C524 C 0.96516 0.69767 0.93313 0.0
C525 C 0.96384 0.76751 0.9814 0.0
C526 C 0.9801 0.73297 0.99754 0.0
C527 C 0.99365 0.66171 0.99058 0.0
C528 C 0.99141 0.62586 0.96716 0.0
C529 C 0.9802 0.69757 0.97389 0.0
C530 C 0.97732 0.62686 0.92636 0.0
C531 C 0.96453 0.66238 0.90949 0.0
H532 H 0.44743 0.7153 0.02959 0.0
H533 H 0.44614 0.74103 0.15829 0.0
H534 H 0.4809 0.80896 0.14673 0.0
H535 H 0.50881 0.86177 0.09961 0.0
H536 H 0.51222 0.83523 0.9709 0.0
H537 H 0.48002 0.76669 0.98289 0.0
C538 C 0.45494 0.73591 0.05495 0.0
C539 C 0.44419 0.72369 0.09459 0.0
C540 C 0.47535 0.77457 0.04812 0.0
C541 C 0.45434 0.7501 0.12751 0.0
C542 C 0.47408 0.78883 0.12092 0.0
C543 C 0.50278 0.8409 0.07423 0.0
C544 C 0.51259 0.85369 0.03445 0.0
C545 C 0.48437 0.80151 0.0813 0.0
C546 C 0.50503 0.82614 0.00189 0.0
C547 C 0.4864 0.78699 0.00864 0.0
H548 H 0.15387 0.30108 0.60953 0.0
H549 H 0.02411 0.31549 0.63552 0.0
H550 H 0.00374 0.24633 0.61249 0.0
H551 H 0.02261 0.1817 0.58584 0.0
H552 H 0.15192 0.16715 0.55793 0.0
H553 H 0.17248 0.23667 0.58036 0.0
C554 C 0.12108 0.28924 0.60966 0.0
C555 C 0.09062 0.31333 0.6245 0.0
C556 C 0.10948 0.24945 0.59611 0.0
C557 C 0.0483 0.29736 0.6249 0.0
C558 C 0.03657 0.25788 0.61156 0.0
C559 C 0.05534 0.19362 0.58468 0.0
C560 C 0.08566 0.16911 0.57041 0.0
C561 C 0.06691 0.23358 0.59739 0.0
C562 C 0.12787 0.18531 0.5688 0.0
C563 C 0.13969 0.22507 0.58165 0.0
H564 H 0.6005 0.23076 0.38922 0.0
H565 H 0.58432 0.18693 0.51206 0.0
H566 H 0.56152 0.25242 0.53311 0.0
H567 H 0.54947 0.3235 0.51696 0.0
H568 H 0.5701 0.36749 0.39454 0.0
H569 H 0.588 0.30081 0.373 0.0
C570 C 0.59233 0.23568 0.42068 0.0
C571 C 0.59523 0.20452 0.44934 0.0
C572 C 0.58004 0.2735 0.43261 0.0
C573 C 0.58323 0.21086 0.48969 0.0
C574 C 0.57012 0.24822 0.50168 0.0
C575 C 0.5575 0.31828 0.48553 0.0
C576 C 0.55851 0.35039 0.45742 0.0
C577 C 0.56887 0.27997 0.47349 0.0
C578 C 0.56936 0.34334 0.41684 0.0
C579 C 0.57959 0.30521 0.40446 0.0
loop_
_geom_bond_atom_site_label_1
_geom_bond_atom_site_label_2
_geom_bond_distance
_geom_bond_site_symmetry_2
_ccdc_geom_bond_type
H0 C7 0.929 . S
H1 C10 0.930 . S
H2 C12 0.929 . S
H3 C4 0.969 . S
C4 H3 0.969 . S
C4 O5 1.550 . S
C4 H6 0.973 . S
O5 C4 1.550 . S
O5 C11 1.412 . S
H6 C4 0.973 . S
C7 H0 0.929 . S
C7 C8 1.400 . S
C7 C9 1.364 . S
C8 C7 1.400 . S
C8 C12 1.377 . S
C9 C7 1.364 . S
C9 C10 1.374 . S
C10 H1 0.930 . S
C10 C9 1.374 . S
C10 C11 1.383 . S
C11 O5 1.412 . S
C11 C10 1.383 . S
C11 C12 1.394 . S
C12 H2 0.929 . S
C12 C8 1.377 . S
C12 C11 1.394 . S
H13 C20 0.929 . S
H14 C23 0.930 . S
H15 C25 0.929 . S
H16 C17 0.969 . S
C17 H16 0.969 . S
C17 O18 1.550 . S
C17 H19 0.973 . S
O18 C17 1.550 . S
O18 C24 1.412 . S
H19 C17 0.973 . S
C20 H13 0.929 . S
C20 C21 1.400 . S
C20 C22 1.364 . S
C21 C20 1.400 . S
C21 C25 1.377 . S
C22 C20 1.364 . S
C22 C23 1.374 . S
C23 H14 0.930 . S
C23 C22 1.374 . S
C23 C24 1.383 . S
C24 O18 1.412 . S
C24 C23 1.383 . S
C24 C25 1.394 . S
C25 H15 0.929 . S
C25 C21 1.377 . S
C25 C24 1.394 . S
H26 C33 0.929 . S
H27 C36 0.930 . S
H28 C38 0.929 . S
H29 C30 0.969 . S
C30 H29 0.969 . S
C30 O31 1.550 . S
C30 H32 0.973 . S
O31 C30 1.550 . S
O31 C37 1.412 . S
H32 C30 0.973 . S
C33 H26 0.929 . S
C33 C34 1.400 . S
C33 C35 1.364 . S
C34 C33 1.400 . S
C34 C38 1.377 . S
C35 C33 1.364 . S
C35 C36 1.374 . S
C36 H27 0.930 . S
C36 C35 1.374 . S
C36 C37 1.383 . S
C37 O31 1.412 . S
C37 C36 1.383 . S
C37 C38 1.394 . S
C38 H28 0.929 . S
C38 C34 1.377 . S
C38 C37 1.394 . S
H39 C46 0.929 . S
H40 C49 0.930 . S
H41 C51 0.929 . S
H42 C43 0.969 . S
C43 H42 0.969 . S
C43 O44 1.550 . S
C43 H45 0.973 . S
O44 C43 1.550 . S
O44 C50 1.412 . S
H45 C43 0.973 . S
C46 H39 0.929 . S
C46 C47 1.400 . S
C46 C48 1.364 . S
C47 C46 1.400 . S
C47 C51 1.377 . S
C48 C46 1.364 . S
C48 C49 1.374 . S
C49 H40 0.930 . S
C49 C48 1.374 . S
C49 C50 1.383 . S
C50 O44 1.412 . S
C50 C49 1.383 . S
C50 C51 1.394 . S
C51 H41 0.929 . S
C51 C47 1.377 . S
C51 C50 1.394 . S
H52 C59 0.929 . S
H53 C62 0.930 . S
H54 C64 0.929 . S
H55 C56 0.969 . S
C56 H55 0.969 . S
C56 O57 1.550 . S
C56 H58 0.973 . S
O57 C56 1.550 . S
O57 C63 1.412 . S
H58 C56 0.973 . S
C59 H52 0.929 . S
C59 C60 1.400 . S
C59 C61 1.364 . S
C60 C59 1.400 . S
C60 C64 1.377 . S
C61 C59 1.364 . S
C61 C62 1.374 . S
C62 H53 0.930 . S
C62 C61 1.374 . S
C62 C63 1.383 . S
C63 O57 1.412 . S
C63 C62 1.383 . S
C63 C64 1.394 . S
C64 H54 0.929 . S
C64 C60 1.377 . S
C64 C63 1.394 . S
H65 C72 0.929 . S
H66 C75 0.930 . S
H67 C77 0.929 . S
H68 C69 0.969 . S
C69 H68 0.969 . S
C69 O70 1.550 . S
C69 H71 0.973 . S
O70 C69 1.550 . S
O70 C76 1.412 . S
H71 C69 0.973 . S
C72 H65 0.929 . S
C72 C73 1.400 . S
C72 C74 1.364 . S
C73 C72 1.400 . S
C73 C77 1.377 . S
C74 C72 1.364 . S
C74 C75 1.374 . S
C75 H66 0.930 . S
C75 C74 1.374 . S
C75 C76 1.383 . S
C76 O70 1.412 . S
C76 C75 1.383 . S
C76 C77 1.394 . S
C77 H67 0.929 . S
C77 C73 1.377 . S
C77 C76 1.394 . S
H78 C85 0.929 . S
H79 C88 0.930 . S
H80 C90 0.929 . S
H81 C82 0.969 . S
C82 H81 0.969 . S
C82 O83 1.550 . S
C82 H84 0.973 . S
O83 C82 1.550 . S
O83 C89 1.412 . S
H84 C82 0.973 . S
C85 H78 0.929 . S
C85 C86 1.400 . S
C85 C87 1.364 . S
C86 C85 1.400 . S
C86 C90 1.377 . S
C87 C85 1.364 . S
C87 C88 1.374 . S
C88 H79 0.930 . S
C88 C87 1.374 . S
C88 C89 1.383 . S
C89 O83 1.412 . S
C89 C88 1.383 . S
C89 C90 1.394 . S
C90 H80 0.929 . S
C90 C86 1.377 . S
C90 C89 1.394 . S
H91 C98 0.929 . S
H92 C101 0.930 . S
H93 C103 0.929 . S
H94 C95 0.969 . S
C95 H94 0.969 . S
C95 O96 1.550 . S
C95 H97 0.973 . S
O96 C95 1.550 . S
O96 C102 1.412 . S
H97 C95 0.973 . S
C98 H91 0.929 . S
C98 C99 1.400 . S
C98 C100 1.364 . S
C99 C98 1.400 . S
C99 C103 1.377 . S
C100 C98 1.364 . S
C100 C101 1.374 . S
C101 H92 0.930 . S
C101 C100 1.374 . S
C101 C102 1.383 . S
C102 O96 1.412 . S
C102 C101 1.383 . S
C102 C103 1.394 . S
C103 H93 0.929 . S
C103 C99 1.377 . S
C103 C102 1.394 . S
O104 Zn105 1.953 1_455 S
O104 C120 1.225 . S
Zn105 O104 1.953 1_655 S
Zn105 O106 1.949 1_655 S
Zn105 O112 1.919 . S
Zn105 O117 1.924 . S
O106 Zn105 1.949 1_455 S
O106 Zn107 1.923 1_445 S
O106 Zn108 1.950 . S
O106 Zn109 1.945 1_545 S
Zn107 O106 1.923 1_665 S
Zn107 O110 1.931 . S
Zn107 O113 1.943 1_565 S
Zn107 O114 1.966 1_665 S
Zn108 O106 1.950 . S
Zn108 O115 1.938 . S
Zn108 O116 1.906 . S
Zn108 O126 1.953 . S
Zn109 O106 1.945 1_565 S
Zn109 O111 1.932 1_455 S
Zn109 O118 1.977 . S
Zn109 O119 1.910 1_455 S
O110 Zn107 1.931 . S
O110 C121 1.226 . S
O111 Zn109 1.932 1_655 S
O111 C121 1.307 . S
O112 Zn105 1.919 . S
O112 C123 1.253 . S
O113 Zn107 1.943 1_545 S
O113 C123 1.283 . S
O114 Zn107 1.966 1_445 S
O114 C122 1.303 . S
O115 Zn108 1.938 . S
O115 C122 1.247 . S
O116 Zn108 1.906 . S
O116 C124 1.304 1_545 S
O117 Zn105 1.924 . S
O117 C125 1.311 . S
O118 Zn109 1.977 . S
O118 C124 1.272 . S
O119 Zn109 1.910 1_655 S
O119 C125 1.231 1_565 S
C120 O104 1.225 . S
C120 O126 1.298 . S
C121 O110 1.226 . S
C121 O111 1.307 . S
C122 O114 1.303 . S
C122 O115 1.247 . S
C123 O112 1.253 . S
C123 O113 1.283 . S
C124 O116 1.304 1_565 S
C124 O118 1.272 . S
C125 O117 1.311 . S
C125 O119 1.231 1_545 S
O126 Zn108 1.953 . S
O126 C120 1.298 . S
O127 Zn128 1.953 . S
O127 C143 1.225 . S
Zn128 O127 1.953 . S
Zn128 O129 1.949 1_556 S
Zn128 O135 1.919 . S
Zn128 O140 1.924 . S
O129 Zn128 1.949 1_554 S
O129 Zn130 1.923 1_544 S
O129 Zn131 1.950 . S
O129 Zn132 1.945 1_545 S
Zn130 O129 1.923 1_566 S
Zn130 O133 1.933 1_556 S
Zn130 O136 1.941 . S
Zn130 O137 1.965 . S
Zn131 O129 1.950 . S
Zn131 O138 1.938 . S
Zn131 O139 1.906 . S
Zn131 O149 1.953 . S
Zn132 O129 1.945 1_565 S
Zn132 O134 1.932 . S
Zn132 O141 1.977 1_565 S
Zn132 O142 1.910 1_565 S
O133 Zn130 1.933 1_554 S
O133 C144 1.226 . S
O134 Zn132 1.932 . S
O134 C144 1.307 . S
O135 Zn128 1.919 . S
O135 C146 1.253 1_545 S
O136 Zn130 1.941 . S
O136 C146 1.283 . S
O137 Zn130 1.965 . S
O137 C145 1.303 . S
O138 Zn131 1.938 . S
O138 C145 1.247 1_544 S
O139 Zn131 1.906 . S
O139 C147 1.304 . S
O140 Zn128 1.924 . S
O140 C148 1.311 1_556 S
O141 Zn132 1.977 1_545 S
O141 C147 1.272 . S
O142 Zn132 1.910 1_545 S
O142 C148 1.231 . S
C143 O127 1.225 . S
C143 O149 1.298 1_556 S
C144 O133 1.226 . S
C144 O134 1.307 . S
C145 O137 1.303 . S
C145 O138 1.247 1_566 S
C146 O135 1.253 1_565 S
C146 O136 1.283 . S
C147 O139 1.304 . S
C147 O141 1.272 . S
C148 O140 1.311 1_554 S
C148 O142 1.231 . S
O149 Zn131 1.953 . S
O149 C143 1.298 1_554 S
O150 Zn151 1.953 . S
O150 C166 1.225 . S
Zn151 O150 1.953 . S
Zn151 O152 1.949 . S
Zn151 O158 1.919 . S
Zn151 O163 1.924 . S
O152 Zn151 1.949 . S
O152 Zn153 1.923 . S
O152 Zn154 1.950 . S
O152 Zn155 1.945 . S
Zn153 O152 1.923 . S
Zn153 O156 1.933 . S
Zn153 O159 1.941 . S
Zn153 O160 1.965 . S
Zn154 O152 1.950 . S
Zn154 O161 1.938 . S
Zn154 O162 1.906 . S
Zn154 O172 1.953 . S
Zn155 O152 1.945 . S
Zn155 O157 1.932 . S
Zn155 O164 1.977 . S
Zn155 O165 1.910 . S
O156 Zn153 1.933 . S
O156 C167 1.226 . S
O157 Zn155 1.932 . S
O157 C167 1.307 . S
O158 Zn151 1.919 . S
O158 C169 1.253 . S
O159 Zn153 1.941 . S
O159 C169 1.283 . S
O160 Zn153 1.965 . S
O160 C168 1.303 . S
O161 Zn154 1.938 . S
O161 C168 1.247 . S
O162 Zn154 1.906 . S
O162 C170 1.304 . S
O163 Zn151 1.924 . S
O163 C171 1.311 . S
O164 Zn155 1.977 . S
O164 C170 1.272 . S
O165 Zn155 1.910 . S
O165 C171 1.231 . S
C166 O150 1.225 . S
C166 O172 1.298 . S
C167 O156 1.226 . S
C167 O157 1.307 . S
C168 O160 1.303 . S
C168 O161 1.247 . S
C169 O158 1.253 . S
C169 O159 1.283 . S
C170 O162 1.304 . S
C170 O164 1.272 . S
C171 O163 1.311 . S
C171 O165 1.231 . S
O172 Zn154 1.953 . S
O172 C166 1.298 . S
O173 Zn174 1.953 . S
O173 C189 1.225 1_655 S
Zn174 O173 1.953 . S
Zn174 O175 1.949 1_655 S
Zn174 O181 1.919 . S
Zn174 O186 1.924 1_655 S
O175 Zn174 1.949 1_455 S
O175 Zn176 1.923 1_554 S
O175 Zn177 1.950 . S
O175 Zn178 1.945 . S
Zn176 O175 1.923 1_556 S
Zn176 O179 1.933 . S
Zn176 O182 1.941 1_455 S
Zn176 O183 1.965 . S
Zn177 O175 1.950 . S
Zn177 O184 1.938 . S
Zn177 O185 1.906 . S
Zn177 O195 1.953 . S
Zn178 O175 1.945 . S
Zn178 O180 1.932 1_554 S
Zn178 O187 1.977 . S
Zn178 O188 1.910 . S
O179 Zn176 1.933 . S
O179 C190 1.226 . S
O180 Zn178 1.932 1_556 S
O180 C190 1.307 . S
O181 Zn174 1.919 . S
O181 C192 1.253 1_554 S
O182 Zn176 1.941 1_655 S
O182 C192 1.283 . S
O183 Zn176 1.965 . S
O183 C191 1.303 . S
O184 Zn177 1.938 . S
O184 C191 1.247 1_554 S
O185 Zn177 1.906 . S
O185 C193 1.304 . S
O186 Zn174 1.924 1_455 S
O186 C194 1.311 . S
O187 Zn178 1.977 . S
O187 C193 1.272 . S
O188 Zn178 1.910 . S
O188 C194 1.231 . S
C189 O173 1.225 1_455 S
C189 O195 1.298 . S
C190 O179 1.226 . S
C190 O180 1.307 . S
C191 O183 1.303 . S
C191 O184 1.247 1_556 S
C192 O181 1.253 1_556 S
C192 O182 1.283 . S
C193 O185 1.304 . S
C193 O187 1.272 . S
C194 O186 1.311 . S
C194 O188 1.231 . S
O195 Zn177 1.953 . S
O195 C189 1.298 . S
H196 C202 0.930 . S
H197 C205 0.930 . S
H198 C206 0.930 . S
H199 C207 0.930 . S
H200 C210 0.930 . S
H201 C211 0.930 . S
C202 H196 0.930 . S
C202 C203 1.355 . S
C202 C204 1.415 . S
C203 C202 1.355 . S
C203 C205 1.419 . S
C204 C202 1.415 . S
C204 C209 1.425 . S
C204 C211 1.409 . S
C205 H197 0.930 . S
C205 C203 1.419 . S
C205 C206 1.362 . S
C206 H198 0.930 . S
C206 C205 1.362 . S
C206 C209 1.409 . S
C207 H199 0.930 . S
C207 C208 1.355 . S
C207 C209 1.415 . S
C208 C207 1.355 . S
C208 C210 1.419 . S
C209 C204 1.425 . S
C209 C206 1.409 . S
C209 C207 1.415 . S
C210 H200 0.930 . S
C210 C208 1.419 . S
C210 C211 1.362 . S
C211 H201 0.930 . S
C211 C204 1.409 . S
C211 C210 1.362 . S
H212 C218 0.930 . S
H213 C221 0.930 . S
H214 C222 0.930 . S
H215 C223 0.930 . S
H216 C226 0.930 1_545 S
H217 C227 0.933 . S
C218 H212 0.930 . S
C218 C219 1.355 . S
C218 C220 1.415 . S
C219 C218 1.355 . S
C219 C221 1.419 . S
C220 C218 1.415 . S
C220 C225 1.425 . S
C220 C227 1.409 . S
C221 H213 0.930 . S
C221 C219 1.419 . S
C221 C222 1.362 . S
C222 H214 0.930 . S
C222 C221 1.362 . S
C222 C225 1.409 . S
C223 H215 0.930 . S
C223 C224 1.355 . S
C223 C225 1.415 . S
C224 C223 1.355 . S
C224 C226 1.419 . S
C225 C220 1.425 . S
C225 C222 1.409 . S
C225 C223 1.415 . S
C226 H216 0.930 1_565 S
C226 C224 1.419 . S
C226 C227 1.362 . S
C227 H217 0.933 . S
C227 C220 1.409 . S
C227 C226 1.362 . S
H228 C234 0.930 . S
H229 C237 0.930 . S
H230 C238 0.930 . S
H231 C239 0.930 . S
H232 C242 0.930 . S
H233 C243 0.930 . S
C234 H228 0.930 . S
C234 C235 1.355 . S
C234 C236 1.415 . S
C235 C234 1.355 . S
C235 C237 1.419 . S
C236 C234 1.415 . S
C236 C241 1.425 . S
C236 C243 1.409 . S
C237 H229 0.930 . S
C237 C235 1.419 . S
C237 C238 1.362 . S
C238 H230 0.930 . S
C238 C237 1.362 . S
C238 C241 1.409 . S
C239 H231 0.930 . S
C239 C240 1.355 . S
C239 C241 1.415 . S
C240 C239 1.355 . S
C240 C242 1.419 . S
C241 C236 1.425 . S
C241 C238 1.409 . S
C241 C239 1.415 . S
C242 H232 0.930 . S
C242 C240 1.419 . S
C242 C243 1.362 . S
C243 H233 0.930 . S
C243 C236 1.409 . S
C243 C242 1.362 . S
H244 C250 0.930 . S
H245 C253 0.930 . S
H246 C254 0.930 . S
H247 C255 0.930 . S
H248 C258 0.930 . S
H249 C259 0.930 . S
C250 H244 0.930 . S
C250 C251 1.355 . S
C250 C252 1.415 . S
C251 C250 1.355 . S
C251 C253 1.419 1_655 S
C252 C250 1.415 . S
C252 C257 1.425 . S
C252 C259 1.409 . S
C253 H245 0.930 . S
C253 C251 1.419 1_455 S
C253 C254 1.362 . S
C254 H246 0.930 . S
C254 C253 1.362 . S
C254 C257 1.409 1_455 S
C255 H247 0.930 . S
C255 C256 1.355 1_455 S
C255 C257 1.415 1_455 S
C256 C255 1.355 1_655 S
C256 C258 1.419 . S
C257 C252 1.425 . S
C257 C254 1.409 1_655 S
C257 C255 1.415 1_655 S
C258 H248 0.930 . S
C258 C256 1.419 . S
C258 C259 1.362 . S
C259 H249 0.930 . S
C259 C252 1.409 . S
C259 C258 1.362 . S
H260 C266 0.930 . S
H261 C269 0.930 . S
H262 C270 0.930 . S
H263 C271 0.930 . S
H264 C274 0.930 . S
H265 C275 0.930 . S
C266 H260 0.930 . S
C266 C267 1.355 . S
C266 C268 1.415 . S
C267 C266 1.355 . S
C267 C269 1.419 . S
C268 C266 1.415 . S
C268 C273 1.425 . S
C268 C275 1.409 . S
C269 H261 0.930 . S
C269 C267 1.419 . S
C269 C270 1.362 . S
C270 H262 0.930 . S
C270 C269 1.362 . S
C270 C273 1.409 . S
C271 H263 0.930 . S
C271 C272 1.355 . S
C271 C273 1.415 . S
C272 C271 1.355 . S
C272 C274 1.419 . S
C273 C268 1.425 . S
C273 C270 1.409 . S
C273 C271 1.415 . S
C274 H264 0.930 . S
C274 C272 1.419 . S
C274 C275 1.362 . S
C275 H265 0.930 . S
C275 C268 1.409 . S
C275 C274 1.362 . S
H276 C282 0.930 . S
H277 C285 0.930 . S
H278 C286 0.930 . S
H279 C287 0.930 . S
H280 C290 0.930 . S
H281 C291 0.930 . S
C282 H276 0.930 . S
C282 C283 1.355 . S
C282 C284 1.415 . S
C283 C282 1.355 . S
C283 C285 1.419 . S
C284 C282 1.415 . S
C284 C289 1.425 . S
C284 C291 1.409 . S
C285 H277 0.930 . S
C285 C283 1.419 . S
C285 C286 1.362 . S
C286 H278 0.930 . S
C286 C285 1.362 . S
C286 C289 1.409 . S
C287 H279 0.930 . S
C287 C288 1.355 . S
C287 C289 1.415 . S
C288 C287 1.355 . S
C288 C290 1.419 . S
C289 C284 1.425 . S
C289 C286 1.409 . S
C289 C287 1.415 . S
C290 H280 0.930 . S
C290 C288 1.419 . S
C290 C291 1.362 . S
C291 H281 0.930 . S
C291 C284 1.409 . S
C291 C290 1.362 . S
H292 C298 0.930 . S
H293 C301 0.930 . S
H294 C302 0.930 . S
H295 C303 0.930 . S
H296 C306 0.930 1_554 S
H297 C307 0.930 1_554 S
C298 H292 0.930 . S
C298 C299 1.355 . S
C298 C300 1.415 . S
C299 C298 1.355 . S
C299 C301 1.419 . S
C300 C298 1.415 . S
C300 C305 1.425 . S
C300 C307 1.409 . S
C301 H293 0.930 . S
C301 C299 1.419 . S
C301 C302 1.362 . S
C302 H294 0.930 . S
C302 C301 1.362 . S
C302 C305 1.409 . S
C303 H295 0.930 . S
C303 C304 1.355 . S
C303 C305 1.415 . S
C304 C303 1.355 . S
C304 C306 1.419 . S
C305 C300 1.425 . S
C305 C302 1.409 . S
C305 C303 1.415 . S
C306 H296 0.930 1_556 S
C306 C304 1.419 . S
C306 C307 1.362 . S
C307 H297 0.930 1_556 S
C307 C300 1.409 . S
C307 C306 1.362 . S
H308 C314 0.930 . S
H309 C317 0.930 . S
H310 C318 0.930 . S
H311 C319 0.930 . S
H312 C322 0.930 . S
H313 C323 0.930 . S
C314 H308 0.930 . S
C314 C315 1.355 . S
C314 C316 1.415 . S
C315 C314 1.355 . S
C315 C317 1.419 . S
C316 C314 1.415 . S
C316 C321 1.425 . S
C316 C323 1.409 . S
C317 H309 0.930 . S
C317 C315 1.419 . S
C317 C318 1.362 . S
C318 H310 0.930 . S
C318 C317 1.362 . S
C318 C321 1.409 . S
C319 H311 0.930 . S
C319 C320 1.355 . S
C319 C321 1.415 . S
C320 C319 1.355 . S
C320 C322 1.419 . S
C321 C316 1.425 . S
C321 C318 1.409 . S
C321 C319 1.415 . S
C322 H312 0.930 . S
C322 C320 1.419 . S
C322 C323 1.362 . S
C323 H313 0.930 . S
C323 C316 1.409 . S
C323 C322 1.362 . S
H324 C330 0.930 . S
H325 C333 0.930 . S
H326 C334 0.930 . S
H327 C335 0.930 . S
H328 C338 0.930 . S
H329 C339 0.930 . S
C330 H324 0.930 . S
C330 C331 1.355 . S
C330 C332 1.415 . S
C331 C330 1.355 . S
C331 C333 1.419 . S
C332 C330 1.415 . S
C332 C337 1.425 . S
C332 C339 1.409 . S
C333 H325 0.930 . S
C333 C331 1.419 . S
C333 C334 1.362 . S
C334 H326 0.930 . S
C334 C333 1.362 . S
C334 C337 1.409 . S
C335 H327 0.930 . S
C335 C336 1.355 . S
C335 C337 1.415 . S
C336 C335 1.355 . S
C336 C338 1.419 . S
C337 C332 1.425 . S
C337 C334 1.409 . S
C337 C335 1.415 . S
C338 H328 0.930 . S
C338 C336 1.419 . S
C338 C339 1.362 . S
C339 H329 0.930 . S
C339 C332 1.409 . S
C339 C338 1.362 . S
H340 C346 0.930 . S
H341 C349 0.930 . S
H342 C350 0.930 . S
H343 C351 0.930 . S
H344 C354 0.930 1_554 S
H345 C355 0.930 . S
C346 H340 0.930 . S
C346 C347 1.355 . S
C346 C348 1.415 . S
C347 C346 1.355 . S
C347 C349 1.419 . S
C348 C346 1.415 . S
C348 C353 1.425 . S
C348 C355 1.409 . S
C349 H341 0.930 . S
C349 C347 1.419 . S
C349 C350 1.362 . S
C350 H342 0.930 . S
C350 C349 1.362 . S
C350 C353 1.409 . S
C351 H343 0.930 . S
C351 C352 1.355 . S
C351 C353 1.415 . S
C352 C351 1.355 . S
C352 C354 1.419 . S
C353 C348 1.425 . S
C353 C350 1.409 . S
C353 C351 1.415 . S
C354 H344 0.930 1_556 S
C354 C352 1.419 . S
C354 C355 1.362 . S
C355 H345 0.930 . S
C355 C348 1.409 . S
C355 C354 1.362 . S
H356 C362 0.930 . S
H357 C365 0.930 . S
H358 C366 0.930 . S
H359 C367 0.930 . S
H360 C370 0.930 1_455 S
H361 C371 0.930 1_455 S
C362 H356 0.930 . S
C362 C363 1.355 . S
C362 C364 1.415 . S
C363 C362 1.355 . S
C363 C365 1.419 . S
C364 C362 1.415 . S
C364 C369 1.425 . S
C364 C371 1.409 . S
C365 H357 0.930 . S
C365 C363 1.419 . S
C365 C366 1.362 . S
C366 H358 0.930 . S
C366 C365 1.362 . S
C366 C369 1.409 . S
C367 H359 0.930 . S
C367 C368 1.355 . S
C367 C369 1.415 . S
C368 C367 1.355 . S
C368 C370 1.419 . S
C369 C364 1.425 . S
C369 C366 1.409 . S
C369 C367 1.415 . S
C370 H360 0.930 1_655 S
C370 C368 1.419 . S
C370 C371 1.362 . S
C371 H361 0.930 1_655 S
C371 C364 1.409 . S
C371 C370 1.362 . S
H372 C378 0.930 . S
H373 C381 0.930 . S
H374 C382 0.930 . S
H375 C383 0.930 . S
H376 C386 0.930 . S
H377 C387 0.930 . S
C378 H372 0.930 . S
C378 C379 1.355 . S
C378 C380 1.415 . S
C379 C378 1.355 . S
C379 C381 1.419 . S
C380 C378 1.415 . S
C380 C385 1.425 . S
C380 C387 1.409 . S
C381 H373 0.930 . S
C381 C379 1.419 . S
C381 C382 1.362 . S
C382 H374 0.930 . S
C382 C381 1.362 . S
C382 C385 1.409 . S
C383 H375 0.930 . S
C383 C384 1.355 . S
C383 C385 1.415 . S
C384 C383 1.355 . S
C384 C386 1.419 . S
C385 C380 1.425 . S
C385 C382 1.409 . S
C385 C383 1.415 . S
C386 H376 0.930 . S
C386 C384 1.419 . S
C386 C387 1.362 . S
C387 H377 0.930 . S
C387 C380 1.409 . S
C387 C386 1.362 . S
H388 C394 0.930 1_545 S
H389 C397 0.930 . S
H390 C398 0.933 . S
H391 C399 0.930 1_455 S
H392 C402 0.930 . S
H393 C403 0.930 . S
C394 H388 0.930 1_565 S
C394 C395 1.355 . S
C394 C396 1.415 1_565 S
C395 C394 1.355 . S
C395 C397 1.419 . S
C396 C394 1.415 1_545 S
C396 C401 1.425 1_545 S
C396 C403 1.409 . S
C397 H389 0.930 . S
C397 C395 1.419 . S
C397 C398 1.362 . S
C398 H390 0.933 . S
C398 C397 1.362 . S
C398 C401 1.409 . S
C399 H391 0.930 1_655 S
C399 C400 1.355 1_565 S
C399 C401 1.415 . S
C400 C399 1.355 1_545 S
C400 C402 1.419 . S
C401 C396 1.425 1_565 S
C401 C398 1.409 . S
C401 C399 1.415 . S
C402 H392 0.930 . S
C402 C400 1.419 . S
C402 C403 1.362 . S
C403 H393 0.930 . S
C403 C396 1.409 . S
C403 C402 1.362 . S
H404 C410 0.930 . S
H405 C413 0.930 . S
H406 C414 0.930 1_565 S
H407 C415 0.930 1_565 S
H408 C418 0.930 . S
H409 C419 0.930 . S
C410 H404 0.930 . S
C410 C411 1.355 . S
C410 C412 1.415 . S
C411 C410 1.355 . S
C411 C413 1.419 . S
C412 C410 1.415 . S
C412 C417 1.425 . S
C412 C419 1.409 . S
C413 H405 0.930 . S
C413 C411 1.419 . S
C413 C414 1.362 . S
C414 H406 0.930 1_545 S
C414 C413 1.362 . S
C414 C417 1.409 . S
C415 H407 0.930 1_545 S
C415 C416 1.355 . S
C415 C417 1.415 . S
C416 C415 1.355 . S
C416 C418 1.419 . S
C417 C412 1.425 . S
C417 C414 1.409 . S
C417 C415 1.415 . S
C418 H408 0.930 . S
C418 C416 1.419 . S
C418 C419 1.362 . S
C419 H409 0.930 . S
C419 C412 1.409 . S
C419 C418 1.362 . S
H420 C426 0.930 . S
H421 C429 0.930 . S
H422 C430 0.930 . S
H423 C431 0.930 . S
H424 C434 0.930 . S
H425 C435 0.930 . S
C426 H420 0.930 . S
C426 C427 1.355 . S
C426 C428 1.415 . S
C427 C426 1.355 . S
C427 C429 1.419 . S
C428 C426 1.415 . S
C428 C433 1.425 . S
C428 C435 1.409 . S
C429 H421 0.930 . S
C429 C427 1.419 . S
C429 C430 1.362 . S
C430 H422 0.930 . S
C430 C429 1.362 . S
C430 C433 1.409 . S
C431 H423 0.930 . S
C431 C432 1.355 . S
C431 C433 1.415 . S
C432 C431 1.355 . S
C432 C434 1.419 . S
C433 C428 1.425 . S
C433 C430 1.409 . S
C433 C431 1.415 . S
C434 H424 0.930 . S
C434 C432 1.419 . S
C434 C435 1.362 . S
C435 H425 0.930 . S
C435 C428 1.409 . S
C435 C434 1.362 . S
H436 C442 0.930 . S
H437 C445 0.930 . S
H438 C446 0.930 . S
H439 C447 0.930 . S
H440 C450 0.930 . S
H441 C451 0.930 . S
C442 H436 0.930 . S
C442 C443 1.355 . S
C442 C444 1.415 . S
C443 C442 1.355 . S
C443 C445 1.419 . S
C444 C442 1.415 . S
C444 C449 1.425 . S
C444 C451 1.409 . S
C445 H437 0.930 . S
C445 C443 1.419 . S
C445 C446 1.362 . S
C446 H438 0.930 . S
C446 C445 1.362 . S
C446 C449 1.409 . S
C447 H439 0.930 . S
C447 C448 1.355 . S
C447 C449 1.415 . S
C448 C447 1.355 . S
C448 C450 1.419 . S
C449 C444 1.425 . S
C449 C446 1.409 . S
C449 C447 1.415 . S
C450 H440 0.930 . S
C450 C448 1.419 . S
C450 C451 1.362 . S
C451 H441 0.930 . S
C451 C444 1.409 . S
C451 C450 1.362 . S
H452 C458 0.930 . S
H453 C461 0.930 1_545 S
H454 C462 0.932 . S
H455 C463 0.931 . S
H456 C466 0.930 . S
H457 C467 0.930 . S
C458 H452 0.930 . S
C458 C459 1.355 . S
C458 C460 1.415 . S
C459 C458 1.355 . S
C459 C461 1.419 . S
C460 C458 1.415 . S
C460 C465 1.425 . S
C460 C467 1.409 . S
C461 H453 0.930 1_565 S
C461 C459 1.419 . S
C461 C462 1.362 1_565 S
C462 H454 0.932 . S
C462 C461 1.362 1_545 S
C462 C465 1.409 1_545 S
C463 H455 0.931 . S
C463 C464 1.355 1_545 S
C463 C465 1.415 1_545 S
C464 C463 1.355 1_565 S
C464 C466 1.419 . S
C465 C460 1.425 . S
C465 C462 1.409 1_565 S
C465 C463 1.415 1_565 S
C466 H456 0.930 . S
C466 C464 1.419 . S
C466 C467 1.362 . S
C467 H457 0.930 . S
C467 C460 1.409 . S
C467 C466 1.362 . S
H468 C474 0.930 . S
H469 C477 0.930 . S
H470 C478 0.930 . S
H471 C479 0.930 . S
H472 C482 0.930 1_565 S
H473 C483 0.930 1_565 S
C474 H468 0.930 . S
C474 C475 1.355 . S
C474 C476 1.415 . S
C475 C474 1.355 . S
C475 C477 1.419 . S
C476 C474 1.415 . S
C476 C481 1.425 . S
C476 C483 1.409 . S
C477 H469 0.930 . S
C477 C475 1.419 . S
C477 C478 1.362 . S
C478 H470 0.930 . S
C478 C477 1.362 . S
C478 C481 1.409 . S
C479 H471 0.930 . S
C479 C480 1.355 . S
C479 C481 1.415 . S
C480 C479 1.355 . S
C480 C482 1.419 . S
C481 C476 1.425 . S
C481 C478 1.409 . S
C481 C479 1.415 . S
C482 H472 0.930 1_545 S
C482 C480 1.419 . S
C482 C483 1.362 . S
C483 H473 0.930 1_545 S
C483 C476 1.409 . S
C483 C482 1.362 . S
H484 C490 0.930 . S
H485 C493 0.930 . S
H486 C494 0.930 . S
H487 C495 0.930 . S
H488 C498 0.930 . S
H489 C499 0.930 . S
C490 H484 0.930 . S
C490 C491 1.355 . S
C490 C492 1.415 . S
C491 C490 1.355 . S
C491 C493 1.419 . S
C492 C490 1.415 . S
C492 C497 1.425 . S
C492 C499 1.409 . S
C493 H485 0.930 . S
C493 C491 1.419 . S
C493 C494 1.362 . S
C494 H486 0.930 . S
C494 C493 1.362 . S
C494 C497 1.409 . S
C495 H487 0.930 . S
C495 C496 1.355 . S
C495 C497 1.415 . S
C496 C495 1.355 . S
C496 C498 1.419 . S
C497 C492 1.425 . S
C497 C494 1.409 . S
C497 C495 1.415 . S
C498 H488 0.930 . S
C498 C496 1.419 . S
C498 C499 1.362 . S
C499 H489 0.930 . S
C499 C492 1.409 . S
C499 C498 1.362 . S
H500 C506 0.930 . S
H501 C509 0.930 . S
H502 C510 0.930 . S
H503 C511 0.930 . S
H504 C514 0.930 . S
H505 C515 0.930 . S
C506 H500 0.930 . S
C506 C507 1.355 . S
C506 C508 1.415 . S
C507 C506 1.355 . S
C507 C509 1.419 . S
C508 C506 1.415 . S
C508 C513 1.425 . S
C508 C515 1.409 . S
C509 H501 0.930 . S
C509 C507 1.419 . S
C509 C510 1.362 . S
C510 H502 0.930 . S
C510 C509 1.362 . S
C510 C513 1.409 . S
C511 H503 0.930 . S
C511 C512 1.355 . S
C511 C513 1.415 . S
C512 C511 1.355 . S
C512 C514 1.419 . S
C513 C508 1.425 . S
C513 C510 1.409 . S
C513 C511 1.415 . S
C514 H504 0.930 . S
C514 C512 1.419 . S
C514 C515 1.362 . S
C515 H505 0.930 . S
C515 C508 1.409 . S
C515 C514 1.362 . S
H516 C522 0.930 . S
H517 C525 0.930 . S
H518 C526 0.930 . S
H519 C527 0.930 . S
H520 C530 0.930 . S
H521 C531 0.930 . S
C522 H516 0.930 . S
C522 C523 1.355 . S
C522 C524 1.415 . S
C523 C522 1.355 . S
C523 C525 1.419 1_656 S
C524 C522 1.415 . S
C524 C529 1.425 1_655 S
C524 C531 1.409 . S
C525 H517 0.930 . S
C525 C523 1.419 1_454 S
C525 C526 1.362 . S
C526 H518 0.930 . S
C526 C525 1.362 . S
C526 C529 1.409 1_554 S
C527 H519 0.930 . S
C527 C528 1.351 1_454 S
C527 C529 1.415 1_554 S
C528 C527 1.351 1_656 S
C528 C530 1.426 . S
C529 C524 1.425 1_455 S
C529 C526 1.409 1_556 S
C529 C527 1.415 1_556 S
C530 H520 0.930 . S
C530 C528 1.426 . S
C530 C531 1.362 . S
C531 H521 0.930 . S
C531 C524 1.409 . S
C531 C530 1.362 . S
H532 C538 0.930 . S
H533 C541 0.930 . S
H534 C542 0.930 . S
H535 C543 0.930 . S
H536 C546 0.930 . S
H537 C547 0.930 1_556 S
C538 H532 0.930 . S
C538 C539 1.355 . S
C538 C540 1.415 . S
C539 C538 1.355 . S
C539 C541 1.419 . S
C540 C538 1.415 . S
C540 C545 1.425 . S
C540 C547 1.409 . S
C541 H533 0.930 . S
C541 C539 1.419 . S
C541 C542 1.362 . S
C542 H534 0.930 . S
C542 C541 1.362 . S
C542 C545 1.409 . S
C543 H535 0.930 . S
C543 C544 1.355 . S
C543 C545 1.415 . S
C544 C543 1.355 . S
C544 C546 1.419 . S
C545 C540 1.425 . S
C545 C542 1.409 . S
C545 C543 1.415 . S
C546 H536 0.930 . S
C546 C544 1.419 . S
C546 C547 1.362 . S
C547 H537 0.930 1_554 S
C547 C540 1.409 . S
C547 C546 1.362 . S
H548 C554 0.930 . S
H549 C557 0.930 . S
H550 C558 0.935 . S
H551 C559 0.930 . S
H552 C562 0.930 . S
H553 C563 0.930 . S
C554 H548 0.930 . S
C554 C555 1.355 . S
C554 C556 1.415 . S
C555 C554 1.355 . S
C555 C557 1.419 . S
C556 C554 1.415 . S
C556 C561 1.425 . S
C556 C563 1.409 . S
C557 H549 0.930 . S
C557 C555 1.419 . S
C557 C558 1.362 . S
C558 H550 0.935 . S
C558 C557 1.362 . S
C558 C561 1.409 . S
C559 H551 0.930 . S
C559 C560 1.355 . S
C559 C561 1.415 . S
C560 C559 1.355 . S
C560 C562 1.419 . S
C561 C556 1.425 . S
C561 C558 1.409 . S
C561 C559 1.415 . S
C562 H552 0.930 . S
C562 C560 1.419 . S
C562 C563 1.362 . S
C563 H553 0.930 . S
C563 C556 1.409 . S
C563 C562 1.362 . S
H564 C570 0.930 . S
H565 C573 0.930 . S
H566 C574 0.930 . S
H567 C575 0.930 . S
H568 C578 0.930 . S
H569 C579 0.930 . S
C570 H564 0.930 . S
C570 C571 1.355 . S
C570 C572 1.415 . S
C571 C570 1.355 . S
C571 C573 1.419 . S
C572 C570 1.415 . S
C572 C577 1.425 . S
C572 C579 1.409 . S
C573 H565 0.930 . S
C573 C571 1.419 . S
C573 C574 1.362 . S
C574 H566 0.930 . S
C574 C573 1.362 . S
C574 C577 1.409 . S
C575 H567 0.930 . S
C575 C576 1.355 . S
C575 C577 1.415 . S
C576 C575 1.355 . S
C576 C578 1.419 . S
C577 C572 1.425 . S
C577 C574 1.409 . S
C577 C575 1.415 . S
C578 H568 0.930 . S
C578 C576 1.419 . S
C578 C579 1.362 . S
C579 H569 0.930 . S
C579 C572 1.409 . S
C579 C578 1.362 . S
C203 C9 1.946 . S
C208 C122 1.917 . S
C219 C21 1.572 . S
C224 C146 1.526 . S
C240 C166 1.202 . S
C235 C30 1.210 . S
C251 C43 1.223 . S
C256 C189 1.242 1_655 S
C272 C148 1.535 . S
C267 C4 1.600 . S
C288 C124 2.079 . S
C283 C22 2.100 . S
C304 C192 1.291 . S
C299 C34 1.321 . S
C320 C169 1.421 . S
C315 C48 1.442 . S
C331 C8 1.534 . S
C336 C194 1.508 . S
C352 C143 1.625 . S
C347 C35 1.615 . S
C363 C47 1.652 . S
C368 C121 1.650 . S
C379 C17 1.354 . S
C384 C171 1.355 . S
C400 C125 1.660 . S
C395 C60 1.614 . S
C411 C74 1.835 . S
C416 C147 1.801 . S
C427 C82 1.240 . S
C432 C167 1.294 . S
C443 C100 1.928 . S
C448 C190 1.944 . S
C459 C61 1.805 . S
C464 C145 1.759 . S
C480 C123 1.581 . S
C475 C73 1.532 . S
C496 C193 1.498 . S
C491 C87 1.535 . S
C512 C170 1.146 . S
C507 C95 1.114 . S
C523 C56 1.740 . S
C528 C191 1.797 1_655 S
C544 C144 1.614 . S
C539 C86 1.577 . S
C560 C120 1.501 . S
C555 C99 1.486 . S
C571 C69 1.684 . S
C576 C168 1.618 . S
