# Generated by pormake.
# Topology ptr, (4,4)-cn, num edge types: 1
# Building blocks:
#     Node 0, Type 0, BuildingBlock: GALJAG_clean_sbu_0, # of connection points: 4
#     Node 1, Type 0, BuildingBlock: GALJAG_clean_sbu_0, # of connection points: 4
#     Node 2, Type 0, BuildingBlock: GALJAG_clean_sbu_0, # of connection points: 4
#     Node 3, Type 0, BuildingBlock: GALJAG_clean_sbu_0, # of connection points: 4
#     Node 4, Type 0, BuildingBlock: GALJAG_clean_sbu_0, # of connection points: 4
#     Node 5, Type 0, BuildingBlock: GALJAG_clean_sbu_0, # of connection points: 4
#     Node 6, Type 0, BuildingBlock: GALJAG_clean_sbu_0, # of connection points: 4
#     Node 7, Type 0, BuildingBlock: GALJAG_clean_sbu_0, # of connection points: 4
#     Node 8, Type 0, BuildingBlock: GALJAG_clean_sbu_0, # of connection points: 4
#     Node 9, Type 0, BuildingBlock: GALJAG_clean_sbu_0, # of connection points: 4
#     Node 10, Type 0, BuildingBlock: GALJAG_clean_sbu_0, # of connection points: 4
#     Node 11, Type 0, BuildingBlock: GALJAG_clean_sbu_0, # of connection points: 4
#     Node 12, Type 0, BuildingBlock: GALJAG_clean_sbu_0, # of connection points: 4
#     Node 13, Type 0, BuildingBlock: GALJAG_clean_sbu_0, # of connection points: 4
#     Node 14, Type 0, BuildingBlock: GALJAG_clean_sbu_0, # of connection points: 4
#     Node 15, Type 0, BuildingBlock: GALJAG_clean_sbu_0, # of connection points: 4
#     Node 16, Type 0, BuildingBlock: GALJAG_clean_sbu_0, # of connection points: 4
#     Node 17, Type 0, BuildingBlock: GALJAG_clean_sbu_0, # of connection points: 4
#     Node 18, Type 1, BuildingBlock: NAWXER_clean_linker_0, # of connection points: 4
#     Node 19, Type 1, BuildingBlock: NAWXER_clean_linker_0, # of connection points: 4
#     Node 20, Type 1, BuildingBlock: NAWXER_clean_linker_0, # of connection points: 4
#     Node 21, Type 1, BuildingBlock: NAWXER_clean_linker_0, # of connection points: 4
#     Node 22, Type 1, BuildingBlock: NAWXER_clean_linker_0, # of connection points: 4
#     Node 23, Type 1, BuildingBlock: NAWXER_clean_linker_0, # of connection points: 4
#     Node 24, Type 1, BuildingBlock: NAWXER_clean_linker_0, # of connection points: 4
#     Node 25, Type 1, BuildingBlock: NAWXER_clean_linker_0, # of connection points: 4
#     Node 26, Type 1, BuildingBlock: NAWXER_clean_linker_0, # of connection points: 4
#     Node 27, Type 1, BuildingBlock: NAWXER_clean_linker_0, # of connection points: 4
#     Node 28, Type 1, BuildingBlock: NAWXER_clean_linker_0, # of connection points: 4
#     Node 29, Type 1, BuildingBlock: NAWXER_clean_linker_0, # of connection points: 4
#     Node 30, Type 1, BuildingBlock: NAWXER_clean_linker_0, # of connection points: 4
#     Node 31, Type 1, BuildingBlock: NAWXER_clean_linker_0, # of connection points: 4
#     Node 32, Type 1, BuildingBlock: NAWXER_clean_linker_0, # of connection points: 4
#     Node 33, Type 1, BuildingBlock: NAWXER_clean_linker_0, # of connection points: 4
#     Node 34, Type 1, BuildingBlock: NAWXER_clean_linker_0, # of connection points: 4
#     Node 35, Type 1, BuildingBlock: NAWXER_clean_linker_0, # of connection points: 4
#     Edge 36, Type (0, 1), BuildingBlock: KIFKEQ_clean_linker_1, # of connection points: 2
#     Edge 37, Type (0, 1), BuildingBlock: KIFKEQ_clean_linker_1, # of connection points: 2
#     Edge 38, Type (0, 1), BuildingBlock: KIFKEQ_clean_linker_1, # of connection points: 2
#     Edge 39, Type (0, 1), BuildingBlock: KIFKEQ_clean_linker_1, # of connection points: 2
#     Edge 40, Type (0, 1), BuildingBlock: KIFKEQ_clean_linker_1, # of connection points: 2
#     Edge 41, Type (0, 1), BuildingBlock: KIFKEQ_clean_linker_1, # of connection points: 2
#     Edge 42, Type (0, 1), BuildingBlock: KIFKEQ_clean_linker_1, # of connection points: 2
#     Edge 43, Type (0, 1), BuildingBlock: KIFKEQ_clean_linker_1, # of connection points: 2
#     Edge 44, Type (0, 1), BuildingBlock: KIFKEQ_clean_linker_1, # of connection points: 2
#     Edge 45, Type (0, 1), BuildingBlock: KIFKEQ_clean_linker_1, # of connection points: 2
#     Edge 46, Type (0, 1), BuildingBlock: KIFKEQ_clean_linker_1, # of connection points: 2
#     Edge 47, Type (0, 1), BuildingBlock: KIFKEQ_clean_linker_1, # of connection points: 2
#     Edge 48, Type (0, 1), BuildingBlock: KIFKEQ_clean_linker_1, # of connection points: 2
#     Edge 49, Type (0, 1), BuildingBlock: KIFKEQ_clean_linker_1, # of connection points: 2
#     Edge 50, Type (0, 1), BuildingBlock: KIFKEQ_clean_linker_1, # of connection points: 2
#     Edge 51, Type (0, 1), BuildingBlock: KIFKEQ_clean_linker_1, # of connection points: 2
#     Edge 52, Type (0, 1), BuildingBlock: KIFKEQ_clean_linker_1, # of connection points: 2
#     Edge 53, Type (0, 1), BuildingBlock: KIFKEQ_clean_linker_1, # of connection points: 2
#     Edge 54, Type (0, 1), BuildingBlock: KIFKEQ_clean_linker_1, # of connection points: 2
#     Edge 55, Type (0, 1), BuildingBlock: KIFKEQ_clean_linker_1, # of connection points: 2
#     Edge 56, Type (0, 1), BuildingBlock: KIFKEQ_clean_linker_1, # of connection points: 2
#     Edge 57, Type (0, 1), BuildingBlock: KIFKEQ_clean_linker_1, # of connection points: 2
#     Edge 58, Type (0, 1), BuildingBlock: KIFKEQ_clean_linker_1, # of connection points: 2
#     Edge 59, Type (0, 1), BuildingBlock: KIFKEQ_clean_linker_1, # of connection points: 2
#     Edge 60, Type (0, 1), BuildingBlock: KIFKEQ_clean_linker_1, # of connection points: 2
#     Edge 61, Type (0, 1), BuildingBlock: KIFKEQ_clean_linker_1, # of connection points: 2
#     Edge 62, Type (0, 1), BuildingBlock: KIFKEQ_clean_linker_1, # of connection points: 2
#     Edge 63, Type (0, 1), BuildingBlock: KIFKEQ_clean_linker_1, # of connection points: 2
#     Edge 64, Type (0, 1), BuildingBlock: KIFKEQ_clean_linker_1, # of connection points: 2
#     Edge 65, Type (0, 1), BuildingBlock: KIFKEQ_clean_linker_1, # of connection points: 2
#     Edge 66, Type (0, 1), BuildingBlock: KIFKEQ_clean_linker_1, # of connection points: 2
#     Edge 67, Type (0, 1), BuildingBlock: KIFKEQ_clean_linker_1, # of connection points: 2
#     Edge 68, Type (0, 1), BuildingBlock: KIFKEQ_clean_linker_1, # of connection points: 2
#     Edge 69, Type (0, 1), BuildingBlock: KIFKEQ_clean_linker_1, # of connection points: 2
#     Edge 70, Type (0, 1), BuildingBlock: KIFKEQ_clean_linker_1, # of connection points: 2
#     Edge 71, Type (0, 1), BuildingBlock: KIFKEQ_clean_linker_1, # of connection points: 2
#     Edge 72, Type (0, 1), BuildingBlock: KIFKEQ_clean_linker_1, # of connection points: 2
#     Edge 73, Type (0, 1), BuildingBlock: KIFKEQ_clean_linker_1, # of connection points: 2
#     Edge 74, Type (0, 1), BuildingBlock: KIFKEQ_clean_linker_1, # of connection points: 2
#     Edge 75, Type (0, 1), BuildingBlock: KIFKEQ_clean_linker_1, # of connection points: 2
#     Edge 76, Type (0, 1), BuildingBlock: KIFKEQ_clean_linker_1, # of connection points: 2
#     Edge 77, Type (0, 1), BuildingBlock: KIFKEQ_clean_linker_1, # of connection points: 2
#     Edge 78, Type (0, 1), BuildingBlock: KIFKEQ_clean_linker_1, # of connection points: 2
#     Edge 79, Type (0, 1), BuildingBlock: KIFKEQ_clean_linker_1, # of connection points: 2
#     Edge 80, Type (0, 1), BuildingBlock: KIFKEQ_clean_linker_1, # of connection points: 2
#     Edge 81, Type (0, 1), BuildingBlock: KIFKEQ_clean_linker_1, # of connection points: 2
#     Edge 82, Type (0, 1), BuildingBlock: KIFKEQ_clean_linker_1, # of connection points: 2
#     Edge 83, Type (0, 1), BuildingBlock: KIFKEQ_clean_linker_1, # of connection points: 2
#     Edge 84, Type (0, 1), BuildingBlock: KIFKEQ_clean_linker_1, # of connection points: 2
#     Edge 85, Type (0, 1), BuildingBlock: KIFKEQ_clean_linker_1, # of connection points: 2
#     Edge 86, Type (0, 1), BuildingBlock: KIFKEQ_clean_linker_1, # of connection points: 2
#     Edge 87, Type (0, 1), BuildingBlock: KIFKEQ_clean_linker_1, # of connection points: 2
#     Edge 88, Type (0, 1), BuildingBlock: KIFKEQ_clean_linker_1, # of connection points: 2
#     Edge 89, Type (0, 1), BuildingBlock: KIFKEQ_clean_linker_1, # of connection points: 2
#     Edge 90, Type (0, 1), BuildingBlock: KIFKEQ_clean_linker_1, # of connection points: 2
#     Edge 91, Type (0, 1), BuildingBlock: KIFKEQ_clean_linker_1, # of connection points: 2
#     Edge 92, Type (0, 1), BuildingBlock: KIFKEQ_clean_linker_1, # of connection points: 2
#     Edge 93, Type (0, 1), BuildingBlock: KIFKEQ_clean_linker_1, # of connection points: 2
#     Edge 94, Type (0, 1), BuildingBlock: KIFKEQ_clean_linker_1, # of connection points: 2
#     Edge 95, Type (0, 1), BuildingBlock: KIFKEQ_clean_linker_1, # of connection points: 2
#     Edge 96, Type (0, 1), BuildingBlock: KIFKEQ_clean_linker_1, # of connection points: 2
#     Edge 97, Type (0, 1), BuildingBlock: KIFKEQ_clean_linker_1, # of connection points: 2
#     Edge 98, Type (0, 1), BuildingBlock: KIFKEQ_clean_linker_1, # of connection points: 2
#     Edge 99, Type (0, 1), BuildingBlock: KIFKEQ_clean_linker_1, # of connection points: 2
#     Edge 100, Type (0, 1), BuildingBlock: KIFKEQ_clean_linker_1, # of connection points: 2
#     Edge 101, Type (0, 1), BuildingBlock: KIFKEQ_clean_linker_1, # of connection points: 2
#     Edge 102, Type (0, 1), BuildingBlock: KIFKEQ_clean_linker_1, # of connection points: 2
#     Edge 103, Type (0, 1), BuildingBlock: KIFKEQ_clean_linker_1, # of connection points: 2
#     Edge 104, Type (0, 1), BuildingBlock: KIFKEQ_clean_linker_1, # of connection points: 2
#     Edge 105, Type (0, 1), BuildingBlock: KIFKEQ_clean_linker_1, # of connection points: 2
#     Edge 106, Type (0, 1), BuildingBlock: KIFKEQ_clean_linker_1, # of connection points: 2
#     Edge 107, Type (0, 1), BuildingBlock: KIFKEQ_clean_linker_1, # of connection points: 2
# Relax obj value: 0.045
# Max RMSD: 0.081
# Mean RMSD: 0.066
data_MOF--net-ptr--node1-GALJAG_clean_sbu_0--node2-NAWXER_clean_linker_0--edge1-KIFKEQ_clean_linker_1
_symmetry_space_group_name_H-M    P1
_symmetry_Int_Tables_number       1
_symmetry_cell_setting            triclinic
loop_
_symmetry_equiv_pos_as_xyz
'x, y, z'
_cell_length_a     87.294374
_cell_length_b     87.416069
_cell_length_c     68.356047
_cell_angle_alpha  90.061947
_cell_angle_beta   89.940488
_cell_angle_gamma 120.05315
loop_
_atom_site_label
_atom_site_type_symbol
_atom_site_fract_x
_atom_site_fract_y
_atom_site_fract_z
_atom_type_partial_charge
In0 In 0.0023 0.35075 0.01138 0.0
O1 O 0.98722 0.35359 0.03734 0.0
O2 O 0.01257 0.37529 0.03008 0.0
C3 C 0.97926 0.3197 0.99461 0.0
C4 C 0.02535 0.3433 0.02902 0.0
C5 C 0.0052 0.3716 0.98096 0.0
O6 O 0.97448 0.32692 0.00741 0.0
O7 O 0.99558 0.32797 0.99071 0.0
O8 O 0.01748 0.36851 0.98533 0.0
O9 O 0.99182 0.36433 0.99199 0.0
C10 C 0.99931 0.36917 0.04129 0.0
O11 O 0.02997 0.35425 0.01508 0.0
O12 O 0.0092 0.33602 0.03362 0.0
In13 In 0.64832 0.64902 0.01265 0.0
O14 O 0.64646 0.6283 0.03448 0.0
O15 O 0.62911 0.63857 0.03823 0.0
C16 C 0.67844 0.65647 0.99371 0.0
C17 C 0.65667 0.68007 0.02961 0.0
C18 C 0.62393 0.6315 0.98445 0.0
O19 O 0.67243 0.64566 0.00775 0.0
O20 O 0.66938 0.66357 0.98945 0.0
O21 O 0.63011 0.64776 0.98768 0.0
O22 O 0.62981 0.62416 0.99558 0.0
C23 C 0.63422 0.62827 0.0444 0.0
O24 O 0.64374 0.67219 0.01802 0.0
O25 O 0.66548 0.67239 0.03238 0.0
In26 In 0.35007 0.00071 0.01132 0.0
O27 O 0.35484 0.02854 0.00594 0.0
O28 O 0.33244 0.00692 0.99251 0.0
C29 C 0.37441 0.00693 0.03927 0.0
C30 C 0.36484 0.99501 0.97954 0.0
C31 C 0.32006 0.978 0.03034 0.0
O32 O 0.36801 0.01694 0.03683 0.0
O33 O 0.36877 0.99415 0.02749 0.0
O34 O 0.32503 0.97359 0.01503 0.0
O35 O 0.3301 0.99373 0.03576 0.0
C36 C 0.34155 0.02345 0.99488 0.0
O37 O 0.35306 0.98241 0.98951 0.0
O38 O 0.36905 0.01024 0.98564 0.0
In39 In 0.00083 0.65138 0.01185 0.0
O40 O 0.01581 0.6484 0.98582 0.0
O41 O 0.99054 0.62675 0.99332 0.0
C42 C 0.02415 0.68266 0.02791 0.0
C43 C 0.97707 0.6584 0.99523 0.0
C44 C 0.99825 0.63088 0.04252 0.0
O45 O 0.02853 0.67563 0.01448 0.0
O46 O 0.00808 0.67403 0.03288 0.0
O47 O 0.986 0.63401 0.03822 0.0
O48 O 0.01154 0.63801 0.03135 0.0
C49 C 0.00376 0.63276 0.98208 0.0
O50 O 0.97281 0.64695 0.00857 0.0
O51 O 0.99323 0.66636 0.99062 0.0
In52 In 0.35138 0.35088 0.01038 0.0
O53 O 0.35396 0.37296 0.9901 0.0
O54 O 0.36908 0.36067 0.98353 0.0
C55 C 0.32228 0.34518 0.03038 0.0
C56 C 0.34306 0.31901 0.99556 0.0
C57 C 0.37684 0.36853 0.03728 0.0
O58 O 0.32418 0.34895 0.01239 0.0
O59 O 0.33483 0.34413 0.03803 0.0
O60 O 0.36975 0.35201 0.03496 0.0
O61 O 0.3713 0.37601 0.02583 0.0
C62 C 0.36505 0.37215 0.97887 0.0
O63 O 0.3569 0.3282 0.00549 0.0
O64 O 0.33325 0.32567 0.99363 0.0
In65 In 0.65201 0.00038 0.01285 0.0
O66 O 0.64989 0.01543 0.03925 0.0
O67 O 0.62715 0.99125 0.03089 0.0
C68 C 0.68284 0.02367 0.99576 0.0
C69 C 0.65944 0.97728 0.03045 0.0
C70 C 0.63074 0.99685 0.98261 0.0
O71 O 0.67549 0.02832 0.00854 0.0
O72 O 0.67481 0.00735 0.992 0.0
O73 O 0.63385 0.98466 0.98726 0.0
O74 O 0.63831 0.01051 0.99317 0.0
C75 C 0.63384 0.0042 0.04253 0.0
O76 O 0.6485 0.97272 0.01648 0.0
O77 O 0.66664 0.99337 0.03515 0.0
In78 In 0.66535 0.68301 0.34709 0.0
O79 O 0.64924 0.68435 0.37294 0.0
O80 O 0.67365 0.70732 0.36582 0.0
C81 C 0.64224 0.6525 0.3293 0.0
C82 C 0.68897 0.67607 0.3644 0.0
C83 C 0.67002 0.70461 0.3168 0.0
O84 O 0.63756 0.65918 0.34282 0.0
O85 O 0.65849 0.66104 0.32514 0.0
O86 O 0.68164 0.70072 0.32159 0.0
O87 O 0.65628 0.69766 0.32728 0.0
C88 C 0.66028 0.7003 0.37686 0.0
O89 O 0.69346 0.68808 0.35172 0.0
O90 O 0.67262 0.66751 0.36808 0.0
In91 In 0.31648 0.98424 0.34685 0.0
O92 O 0.31636 0.96813 0.37355 0.0
O93 O 0.29333 0.96974 0.36751 0.0
C94 C 0.34609 0.98951 0.32855 0.0
C95 C 0.32409 0.01559 0.36262 0.0
C96 C 0.29392 0.96689 0.31725 0.0
O97 O 0.33884 0.97819 0.34199 0.0
O98 O 0.33859 0.99832 0.32472 0.0
O99 O 0.29951 0.98307 0.32059 0.0
O100 O 0.29965 0.95969 0.32881 0.0
C101 C 0.30074 0.9638 0.37848 0.0
O102 O 0.31006 0.0061 0.35311 0.0
O103 O 0.33441 0.00945 0.36382 0.0
In104 In 0.01806 0.33427 0.34534 0.0
O105 O 0.02676 0.36313 0.33887 0.0
O106 O 0.00232 0.34323 0.32691 0.0
C107 C 0.0389 0.33895 0.37659 0.0
C108 C 0.03394 0.32828 0.3147 0.0
C109 C 0.98703 0.31039 0.36155 0.0
O110 O 0.03387 0.34983 0.37244 0.0
O111 O 0.03332 0.32594 0.36513 0.0
O112 O 0.99623 0.30592 0.35136 0.0
O113 O 0.99335 0.32684 0.36331 0.0
C114 C 0.01341 0.35949 0.32847 0.0
O115 O 0.01762 0.31844 0.31815 0.0
O116 O 0.04192 0.34086 0.32658 0.0
In117 In 0.66615 0.9822 0.34677 0.0
O118 O 0.68316 0.98115 0.32163 0.0
O119 O 0.65965 0.95758 0.32931 0.0
C120 C 0.68866 0.01355 0.36345 0.0
C121 C 0.64236 0.98821 0.3282 0.0
C122 C 0.66045 0.96127 0.37816 0.0
O123 O 0.69371 0.00606 0.35133 0.0
O124 O 0.67224 0.00534 0.3669 0.0
O125 O 0.64805 0.96201 0.36954 0.0
O126 O 0.67562 0.97106 0.37097 0.0
C127 C 0.67295 0.96493 0.31825 0.0
O128 O 0.63812 0.97747 0.34225 0.0
O129 O 0.65857 0.99608 0.32382 0.0
In130 In 0.01888 0.68475 0.34637 0.0
O131 O 0.02018 0.70241 0.32089 0.0
O132 O 0.0428 0.69998 0.3268 0.0
C133 C 0.98789 0.67654 0.36364 0.0
C134 C 0.01207 0.65453 0.32839 0.0
C135 C 0.04046 0.70197 0.37671 0.0
O136 O 0.99525 0.68887 0.35126 0.0
O137 O 0.99601 0.66826 0.36695 0.0
O138 O 0.03688 0.68658 0.37179 0.0
O139 O 0.03331 0.70853 0.36625 0.0
C140 C 0.03582 0.70662 0.31616 0.0
O141 O 0.02321 0.6612 0.34211 0.0
O142 O 0.00426 0.66293 0.32412 0.0
In143 In 0.31608 0.33243 0.34505 0.0
O144 O 0.30949 0.30432 0.35276 0.0
O145 O 0.33368 0.3256 0.36334 0.0
C146 C 0.29512 0.32594 0.31351 0.0
C147 C 0.29952 0.3388 0.37486 0.0
C148 C 0.34641 0.35569 0.32713 0.0
O149 O 0.2972 0.31406 0.32144 0.0
O150 O 0.30348 0.34092 0.32155 0.0
O151 O 0.33892 0.36043 0.33967 0.0
O152 O 0.33873 0.33925 0.32398 0.0
C153 C 0.32337 0.30913 0.36263 0.0
O154 O 0.31579 0.34881 0.3714 0.0
O155 O 0.29181 0.32604 0.36316 0.0
In156 In 0.33433 0.0189 0.67878 0.0
O157 O 0.363 0.0257 0.68409 0.0
O158 O 0.34262 0.00486 0.70062 0.0
C159 C 0.33819 0.03954 0.64775 0.0
C160 C 0.32724 0.03526 0.70795 0.0
C161 C 0.31235 0.98761 0.66161 0.0
O162 O 0.35034 0.0366 0.65315 0.0
O163 O 0.32434 0.03217 0.65805 0.0
O164 O 0.30711 0.9943 0.67452 0.0
O165 O 0.32864 0.99656 0.65769 0.0
C166 C 0.35896 0.01408 0.69714 0.0
O167 O 0.31749 0.01895 0.70449 0.0
O168 O 0.34038 0.04317 0.6967 0.0
In169 In 0.98335 0.31517 0.67748 0.0
O170 O 0.9774 0.33766 0.68213 0.0
O171 O 0.99685 0.33691 0.70012 0.0
C172 C 0.96254 0.29824 0.64655 0.0
C173 C 0.96664 0.29176 0.70659 0.0
C174 C 0.01469 0.3247 0.66017 0.0
O175 O 0.96517 0.31314 0.65224 0.0
O176 O 0.97028 0.29198 0.65654 0.0
O177 O 0.00803 0.31267 0.67296 0.0
O178 O 0.00572 0.33203 0.65649 0.0
C179 C 0.98838 0.34465 0.69593 0.0
O180 O 0.98295 0.29813 0.70317 0.0
O181 O 0.95889 0.29711 0.69531 0.0
In182 In 0.68432 0.66682 0.67874 0.0
O183 O 0.68978 0.69496 0.67356 0.0
O184 O 0.66871 0.67404 0.6578 0.0
C185 C 0.70658 0.67239 0.70873 0.0
C186 C 0.70098 0.66159 0.64842 0.0
C187 C 0.65388 0.64344 0.69661 0.0
O188 O 0.70101 0.6829 0.70494 0.0
O189 O 0.7009 0.65922 0.69747 0.0
O190 O 0.66144 0.63869 0.68421 0.0
O191 O 0.66155 0.65985 0.69967 0.0
C192 C 0.67759 0.69043 0.66109 0.0
O193 O 0.68508 0.65058 0.6527 0.0
O194 O 0.70825 0.67498 0.65939 0.0
In195 In 0.3326 0.31563 0.67893 0.0
O196 O 0.3523 0.31297 0.65877 0.0
O197 O 0.32497 0.29786 0.6521 0.0
C198 C 0.35453 0.34627 0.69717 0.0
C199 C 0.30929 0.32357 0.6628 0.0
C200 C 0.32587 0.29214 0.70811 0.0
O201 O 0.35922 0.34098 0.68233 0.0
O202 O 0.33872 0.33626 0.70253 0.0
O203 O 0.31404 0.29482 0.70116 0.0
O204 O 0.34082 0.30102 0.70019 0.0
C205 C 0.3405 0.30192 0.6475 0.0
O206 O 0.30451 0.30931 0.67191 0.0
O207 O 0.32581 0.33397 0.66213 0.0
In208 In 0.68491 0.01905 0.67866 0.0
O209 O 0.68697 0.03791 0.65422 0.0
O210 O 0.70995 0.03657 0.66155 0.0
C211 C 0.65332 0.01094 0.69422 0.0
C212 C 0.67807 0.98927 0.65947 0.0
C213 C 0.70619 0.03427 0.70984 0.0
O214 O 0.66161 0.02379 0.68266 0.0
O215 O 0.66073 0.00195 0.69741 0.0
O216 O 0.70659 0.0222 0.70004 0.0
O217 O 0.69518 0.03853 0.70387 0.0
C218 C 0.70309 0.04319 0.65072 0.0
O219 O 0.68414 0.99244 0.6767 0.0
O220 O 0.67522 0.00087 0.65227 0.0
In221 In 0.98273 0.66749 0.67886 0.0
O222 O 0.977 0.63917 0.68348 0.0
O223 O 0.99744 0.65961 0.70037 0.0
C224 C 0.96093 0.66246 0.64854 0.0
C225 C 0.9658 0.67269 0.70892 0.0
C226 C 0.01364 0.69099 0.66185 0.0
O227 O 0.96633 0.6518 0.65233 0.0
O228 O 0.96657 0.67552 0.65996 0.0
O229 O 0.00611 0.69553 0.67449 0.0
O230 O 0.00571 0.67468 0.65809 0.0
C231 C 0.98864 0.64332 0.69656 0.0
O232 O 0.98178 0.6836 0.70488 0.0
O233 O 0.95854 0.6594 0.6978 0.0
C234 C 0.22136 0.33522 0.13043 0.0
C235 C 0.218 0.32611 0.11262 0.0
C236 C 0.20735 0.33317 0.14219 0.0
C237 C 0.18973 0.32139 0.13672 0.0
C238 C 0.20045 0.31484 0.10676 0.0
C239 C 0.18644 0.31244 0.11875 0.0
C240 C 0.17465 0.3193 0.14875 0.0
C241 C 0.20657 0.30497 0.18949 0.0
C242 C 0.21132 0.31426 0.20727 0.0
C243 C 0.19445 0.3061 0.17699 0.0
C244 C 0.18745 0.31705 0.18181 0.0
C245 C 0.20411 0.3249 0.21225 0.0
C246 C 0.19238 0.32635 0.19962 0.0
C247 C 0.17405 0.31813 0.16943 0.0
C248 C 0.10233 0.30629 0.19196 0.0
C249 C 0.1077 0.31728 0.20857 0.0
C250 C 0.11494 0.30698 0.17871 0.0
C251 C 0.13306 0.31883 0.18178 0.0
C252 C 0.12579 0.32943 0.21121 0.0
C253 C 0.1383 0.33012 0.19805 0.0
C254 C 0.14694 0.3187 0.16945 0.0
C255 C 0.11755 0.33609 0.12947 0.0
C256 C 0.11046 0.32564 0.11262 0.0
C257 C 0.12937 0.33402 0.14141 0.0
C258 C 0.13409 0.32122 0.13694 0.0
C259 C 0.11537 0.313 0.10804 0.0
C260 C 0.12711 0.31087 0.12005 0.0
C261 C 0.14729 0.31946 0.14882 0.0
H262 H 0.23483 0.34422 0.13503 0.0
H263 H 0.21034 0.34094 0.15544 0.0
H264 H 0.1976 0.30773 0.09302 0.0
H265 H 0.17299 0.30355 0.114 0.0
H266 H 0.2119 0.29656 0.18553 0.0
H267 H 0.19042 0.29825 0.16375 0.0
H268 H 0.20766 0.33218 0.22591 0.0
H269 H 0.18709 0.33475 0.20384 0.0
H270 H 0.08848 0.29675 0.18961 0.0
H271 H 0.1106 0.29788 0.16647 0.0
H272 H 0.13033 0.33833 0.22363 0.0
H273 H 0.15218 0.33938 0.20072 0.0
H274 H 0.1143 0.34618 0.13318 0.0
H275 H 0.13509 0.34268 0.1539 0.0
H276 H 0.11003 0.30466 0.09525 0.0
H277 H 0.13073 0.30107 0.11617 0.0
N278 N 0.16111 0.31968 0.13933 0.0
N279 N 0.16029 0.31803 0.17881 0.0
C280 C 0.66588 0.88419 0.12916 0.0
C281 C 0.67712 0.89179 0.11297 0.0
C282 C 0.66742 0.87206 0.14105 0.0
C283 C 0.68047 0.86752 0.13724 0.0
C284 C 0.68999 0.88705 0.10898 0.0
C285 C 0.69161 0.87499 0.12098 0.0
C286 C 0.68154 0.8539 0.14907 0.0
C287 C 0.69349 0.89718 0.19408 0.0
C288 C 0.68164 0.89154 0.20997 0.0
C289 C 0.69278 0.88493 0.18032 0.0
C290 C 0.68009 0.86691 0.18217 0.0
C291 C 0.66858 0.87361 0.21127 0.0
C292 C 0.66787 0.86146 0.19761 0.0
C293 C 0.68044 0.85324 0.16971 0.0
C294 C 0.69162 0.79382 0.19372 0.0
C295 C 0.67895 0.78703 0.20882 0.0
C296 C 0.69165 0.80589 0.18021 0.0
C297 C 0.67895 0.81124 0.18158 0.0
C298 C 0.66586 0.79189 0.20953 0.0
C299 C 0.66596 0.80395 0.19618 0.0
C300 C 0.68 0.82572 0.16945 0.0
C301 C 0.66474 0.78056 0.12798 0.0
C302 C 0.67627 0.78414 0.11206 0.0
C303 C 0.66649 0.7942 0.14012 0.0
C304 C 0.68 0.81169 0.13684 0.0
C305 C 0.68976 0.80168 0.10876 0.0
C306 C 0.69153 0.81532 0.12097 0.0
C307 C 0.68123 0.82637 0.14885 0.0
H308 H 0.65557 0.88729 0.13236 0.0
H309 H 0.65811 0.86593 0.15295 0.0
H310 H 0.69889 0.89275 0.09666 0.0
H311 H 0.7016 0.87149 0.11756 0.0
H312 H 0.70374 0.91091 0.19275 0.0
H313 H 0.70257 0.88941 0.16875 0.0
H314 H 0.65903 0.86891 0.2231 0.0
H315 H 0.65795 0.84765 0.19933 0.0
H316 H 0.70192 0.79039 0.19284 0.0
H317 H 0.70198 0.81157 0.16924 0.0
H318 H 0.65566 0.78659 0.22067 0.0
H319 H 0.65601 0.80785 0.19748 0.0
H320 H 0.65429 0.76721 0.13104 0.0
H321 H 0.657 0.79107 0.15181 0.0
H322 H 0.6987 0.80493 0.09646 0.0
H323 H 0.70187 0.82875 0.11795 0.0
N324 N 0.68204 0.84049 0.13948 0.0
N325 N 0.67965 0.83915 0.17896 0.0
C326 C 0.11752 0.78264 0.1253 0.0
C327 C 0.1096 0.78656 0.10966 0.0
C328 C 0.12914 0.79596 0.13795 0.0
C329 C 0.13292 0.81345 0.1354 0.0
C330 C 0.11344 0.8041 0.1071 0.0
C331 C 0.12508 0.81743 0.11979 0.0
C332 C 0.14615 0.82784 0.1479 0.0
C333 C 0.10202 0.79359 0.19053 0.0
C334 C 0.10727 0.78558 0.20482 0.0
C335 C 0.11459 0.8066 0.17814 0.0
C336 C 0.13259 0.81186 0.18 0.0
C337 C 0.12527 0.79071 0.20635 0.0
C338 C 0.13779 0.80379 0.19418 0.0
C339 C 0.14637 0.82668 0.16848 0.0
C340 C 0.20467 0.89791 0.19432 0.0
C341 C 0.21091 0.89216 0.21003 0.0
C342 C 0.19292 0.88574 0.18064 0.0
C343 C 0.18741 0.86769 0.18237 0.0
C344 C 0.20573 0.87416 0.21132 0.0
C345 C 0.19405 0.86208 0.19772 0.0
C346 C 0.17352 0.8542 0.16959 0.0
C347 C 0.2197 0.88555 0.1296 0.0
C348 C 0.21636 0.89365 0.1137 0.0
C349 C 0.20582 0.87335 0.1413 0.0
C350 C 0.18833 0.86919 0.13755 0.0
C351 C 0.19883 0.88938 0.10987 0.0
C352 C 0.18495 0.87721 0.12165 0.0
C353 C 0.17341 0.85535 0.14898 0.0
H354 H 0.11474 0.76926 0.12777 0.0
H355 H 0.13545 0.79261 0.14946 0.0
H356 H 0.10775 0.8076 0.09504 0.0
H357 H 0.12804 0.83088 0.11734 0.0
H358 H 0.08823 0.78988 0.18903 0.0
H359 H 0.11032 0.81288 0.16752 0.0
H360 H 0.12976 0.78498 0.21741 0.0
H361 H 0.15162 0.80776 0.19598 0.0
H362 H 0.20833 0.91168 0.19303 0.0
H363 H 0.18769 0.89035 0.16916 0.0
H364 H 0.21057 0.86935 0.22301 0.0
H365 H 0.19001 0.84823 0.19936 0.0
H366 H 0.233 0.88827 0.13269 0.0
H367 H 0.20875 0.86683 0.15296 0.0
H368 H 0.19584 0.89548 0.09782 0.0
H369 H 0.17154 0.87402 0.1183 0.0
N370 N 0.15965 0.84217 0.13897 0.0
N371 N 0.16004 0.83988 0.17844 0.0
C372 C 0.32343 0.1109 0.83055 0.0
C373 C 0.31013 0.1035 0.81622 0.0
C374 C 0.32384 0.12323 0.84391 0.0
C375 C 0.31071 0.12806 0.84349 0.0
C376 C 0.29685 0.10811 0.81601 0.0
C377 C 0.29715 0.12026 0.82951 0.0
C378 C 0.31215 0.14273 0.85574 0.0
C379 C 0.30797 0.10194 0.89908 0.0
C380 C 0.32244 0.10783 0.91191 0.0
C381 C 0.30617 0.11393 0.88714 0.0
C382 C 0.31895 0.13199 0.88758 0.0
C383 C 0.33513 0.12593 0.91239 0.0
C384 C 0.33336 0.13787 0.90041 0.0
C385 C 0.31696 0.14507 0.87574 0.0
C386 C 0.31043 0.20803 0.89912 0.0
C387 C 0.32505 0.2163 0.9118 0.0
C388 C 0.30811 0.19409 0.88708 0.0
C389 C 0.32044 0.18823 0.88736 0.0
C390 C 0.33737 0.2104 0.91203 0.0
C391 C 0.33503 0.19646 0.90001 0.0
C392 C 0.31764 0.17275 0.87571 0.0
C393 C 0.32645 0.21304 0.82891 0.0
C394 C 0.31144 0.20849 0.81727 0.0
C395 C 0.32659 0.2009 0.84208 0.0
C396 C 0.3118 0.18391 0.84382 0.0
C397 C 0.29644 0.19159 0.81957 0.0
C398 C 0.29672 0.17937 0.83252 0.0
C399 C 0.31267 0.17032 0.85582 0.0
H400 H 0.33399 0.10781 0.83081 0.0
H401 H 0.33486 0.1295 0.85399 0.0
H402 H 0.28641 0.10254 0.80517 0.0
H403 H 0.28698 0.12388 0.82873 0.0
H404 H 0.29783 0.08812 0.8986 0.0
H405 H 0.29463 0.10911 0.87783 0.0
H406 H 0.34653 0.13086 0.92193 0.0
H407 H 0.34333 0.15175 0.90112 0.0
H408 H 0.30076 0.21232 0.89852 0.0
H409 H 0.29646 0.18765 0.87789 0.0
H410 H 0.34862 0.2163 0.92182 0.0
H411 H 0.3446 0.19204 0.90067 0.0
H412 H 0.33839 0.22574 0.82733 0.0
H413 H 0.33853 0.20455 0.85034 0.0
H414 H 0.28452 0.18767 0.8112 0.0
H415 H 0.2852 0.16628 0.8336 0.0
N416 N 0.31008 0.15542 0.84667 0.0
N417 N 0.3196 0.16004 0.88485 0.0
C418 C 0.90008 0.20782 0.8985 0.0
C419 C 0.89419 0.21611 0.91173 0.0
C420 C 0.88802 0.19395 0.88663 0.0
C421 C 0.86988 0.18833 0.88753 0.0
C422 C 0.87602 0.21036 0.91269 0.0
C423 C 0.86401 0.19659 0.90077 0.0
C424 C 0.85668 0.17317 0.87582 0.0
C425 C 0.89051 0.21373 0.83014 0.0
C426 C 0.89761 0.20766 0.81563 0.0
C427 C 0.87825 0.20194 0.84367 0.0
C428 C 0.8732 0.18393 0.84323 0.0
C429 C 0.89278 0.18973 0.81543 0.0
C430 C 0.88071 0.17801 0.82908 0.0
C431 C 0.8586 0.17079 0.85567 0.0
C432 C 0.78677 0.11516 0.8311 0.0
C433 C 0.79101 0.10556 0.8178 0.0
C434 C 0.7995 0.12712 0.84408 0.0
C435 C 0.81671 0.12969 0.84403 0.0
C436 C 0.80812 0.10782 0.81812 0.0
C437 C 0.82091 0.11991 0.83099 0.0
C438 C 0.8308 0.14382 0.85602 0.0
C439 C 0.7936 0.10321 0.89889 0.0
C440 C 0.78581 0.10938 0.91245 0.0
C441 C 0.80752 0.11505 0.88696 0.0
C442 C 0.81376 0.13328 0.88814 0.0
C443 C 0.79221 0.12765 0.91375 0.0
C444 C 0.80607 0.13946 0.90176 0.0
C445 C 0.82895 0.14612 0.87616 0.0
H446 H 0.91398 0.21179 0.89764 0.0
H447 H 0.89285 0.18743 0.87702 0.0
H448 H 0.87109 0.2166 0.92257 0.0
H449 H 0.85007 0.19243 0.90185 0.0
H450 H 0.89378 0.22743 0.83043 0.0
H451 H 0.87221 0.2068 0.85391 0.0
H452 H 0.89812 0.18472 0.80447 0.0
H453 H 0.87691 0.16417 0.82829 0.0
H454 H 0.77366 0.11364 0.83122 0.0
H455 H 0.79604 0.1348 0.85367 0.0
H456 H 0.81182 0.10075 0.80789 0.0
H457 H 0.83417 0.12186 0.83055 0.0
H458 H 0.78918 0.08924 0.8978 0.0
H459 H 0.81361 0.10995 0.87709 0.0
H460 H 0.78638 0.13281 0.92392 0.0
H461 H 0.81074 0.15347 0.90306 0.0
N462 N 0.84192 0.16074 0.88519 0.0
N463 N 0.84559 0.15617 0.84666 0.0
C464 C 0.79131 0.69021 0.8983 0.0
C465 C 0.78314 0.67629 0.91184 0.0
C466 C 0.80538 0.69206 0.88674 0.0
C467 C 0.81125 0.67979 0.88822 0.0
C468 C 0.78922 0.6642 0.91348 0.0
C469 C 0.80313 0.66596 0.90182 0.0
C470 C 0.82645 0.68166 0.87663 0.0
C471 C 0.7855 0.67397 0.83114 0.0
C472 C 0.79145 0.68701 0.81653 0.0
C473 C 0.79744 0.67362 0.84451 0.0
C474 C 0.81548 0.68658 0.84381 0.0
C475 C 0.80943 0.70005 0.81597 0.0
C476 C 0.82131 0.69983 0.82948 0.0
C477 C 0.8287 0.68544 0.85638 0.0
C478 C 0.88709 0.67165 0.83406 0.0
C479 C 0.89499 0.68433 0.81912 0.0
C480 C 0.8747 0.67202 0.84673 0.0
C481 C 0.87027 0.68536 0.84511 0.0
C482 C 0.89063 0.69776 0.81767 0.0
C483 C 0.87841 0.69824 0.83049 0.0
C484 C 0.85587 0.68497 0.85703 0.0
C485 C 0.89656 0.6895 0.90069 0.0
C486 C 0.89035 0.6755 0.91421 0.0
C487 C 0.88475 0.69147 0.8886 0.0
C488 C 0.86651 0.67932 0.88959 0.0
C489 C 0.87205 0.66358 0.91537 0.0
C490 C 0.86028 0.6655 0.90324 0.0
C491 C 0.85366 0.68132 0.8773 0.0
H492 H 0.78707 0.69988 0.89695 0.0
H493 H 0.81179 0.7032 0.87686 0.0
H494 H 0.78308 0.65326 0.92365 0.0
H495 H 0.80751 0.6564 0.90336 0.0
H496 H 0.77176 0.66359 0.83167 0.0
H497 H 0.79266 0.66285 0.85489 0.0
H498 H 0.81435 0.71028 0.8049 0.0
H499 H 0.83517 0.70986 0.82849 0.0
H500 H 0.89022 0.6612 0.83577 0.0
H501 H 0.86822 0.66154 0.85739 0.0
H502 H 0.89614 0.70755 0.80615 0.0
H503 H 0.87502 0.70851 0.82872 0.0
H504 H 0.91058 0.69887 0.89932 0.0
H505 H 0.88987 0.70255 0.8786 0.0
H506 H 0.86677 0.65286 0.92587 0.0
H507 H 0.84625 0.65611 0.90448 0.0
N508 N 0.839 0.67972 0.8862 0.0
N509 N 0.84335 0.687 0.84748 0.0
C510 C 0.76979 0.64402 0.45765 0.0
C511 C 0.77582 0.65811 0.44429 0.0
C512 C 0.78176 0.642 0.4694 0.0
C513 C 0.79998 0.65419 0.46821 0.0
C514 C 0.7941 0.67004 0.44286 0.0
C515 C 0.80604 0.66805 0.45464 0.0
C516 C 0.81296 0.65227 0.48034 0.0
C517 C 0.7798 0.66222 0.52361 0.0
C518 C 0.77196 0.64963 0.53864 0.0
C519 C 0.79219 0.66182 0.51097 0.0
C520 C 0.79668 0.64852 0.51269 0.0
C521 C 0.77642 0.63627 0.54025 0.0
C522 C 0.78863 0.63575 0.52743 0.0
C523 C 0.81098 0.64882 0.50066 0.0
C524 C 0.88166 0.6602 0.52581 0.0
C525 C 0.87588 0.64743 0.5407 0.0
C526 C 0.86957 0.66032 0.51248 0.0
C527 C 0.85154 0.64738 0.5135 0.0
C528 C 0.85791 0.63439 0.54155 0.0
C529 C 0.84588 0.63437 0.5281 0.0
C530 C 0.83816 0.64837 0.50105 0.0
C531 C 0.87483 0.64294 0.45861 0.0
C532 C 0.88311 0.65691 0.44512 0.0
C533 C 0.86093 0.64126 0.47034 0.0
C534 C 0.85525 0.6537 0.46902 0.0
C535 C 0.87726 0.6692 0.44372 0.0
C536 C 0.86345 0.66757 0.45549 0.0
C537 C 0.84019 0.65196 0.48076 0.0
H538 H 0.75579 0.63464 0.45919 0.0
H539 H 0.77678 0.6309 0.47936 0.0
H540 H 0.79924 0.68083 0.43246 0.0
H541 H 0.82005 0.67747 0.45326 0.0
H542 H 0.7766 0.67261 0.52178 0.0
H543 H 0.79861 0.67224 0.50022 0.0
H544 H 0.77096 0.62656 0.55184 0.0
H545 H 0.79207 0.62553 0.52929 0.0
H546 H 0.89539 0.67058 0.52503 0.0
H547 H 0.87424 0.67093 0.5019 0.0
H548 H 0.85311 0.62435 0.55284 0.0
H549 H 0.83204 0.62436 0.52934 0.0
H550 H 0.87887 0.63311 0.4598 0.0
H551 H 0.85447 0.63012 0.48021 0.0
H552 H 0.88348 0.68021 0.43364 0.0
H553 H 0.85923 0.67726 0.45411 0.0
N554 N 0.82753 0.65381 0.47129 0.0
N555 N 0.8236 0.64688 0.5101 0.0
C556 C 0.33195 0.2164 0.46018 0.0
C557 C 0.34507 0.22703 0.44662 0.0
C558 C 0.33424 0.20479 0.4722 0.0
C559 C 0.34957 0.20346 0.47061 0.0
C560 C 0.36054 0.22594 0.44525 0.0
C561 C 0.36266 0.21402 0.45698 0.0
C562 C 0.35127 0.19012 0.4821 0.0
C563 C 0.36159 0.23384 0.52463 0.0
C564 C 0.35147 0.22854 0.54186 0.0
C565 C 0.36109 0.22121 0.51164 0.0
C566 C 0.35002 0.20304 0.51536 0.0
C567 C 0.34047 0.21045 0.54561 0.0
C568 C 0.3397 0.19786 0.53247 0.0
C569 C 0.35016 0.18924 0.50275 0.0
C570 C 0.3595 0.12766 0.52354 0.0
C571 C 0.34606 0.11968 0.53768 0.0
C572 C 0.36036 0.14093 0.51134 0.0
C573 C 0.34786 0.14649 0.51322 0.0
C574 C 0.3334 0.12506 0.53922 0.0
C575 C 0.33439 0.13843 0.52723 0.0
C576 C 0.34943 0.16157 0.50183 0.0
C577 C 0.33129 0.11815 0.45664 0.0
C578 C 0.34527 0.12043 0.44453 0.0
C579 C 0.33333 0.13177 0.469 0.0
C580 C 0.34929 0.14796 0.46919 0.0
C581 C 0.36134 0.13653 0.44495 0.0
C582 C 0.36324 0.15032 0.45701 0.0
C583 C 0.35092 0.16266 0.4813 0.0
H584 H 0.31992 0.21706 0.4614 0.0
H585 H 0.32387 0.19653 0.48242 0.0
H586 H 0.37076 0.23399 0.43478 0.0
H587 H 0.37448 0.21303 0.45542 0.0
H588 H 0.37034 0.24774 0.52158 0.0
H589 H 0.36981 0.22571 0.49908 0.0
H590 H 0.33245 0.20605 0.55874 0.0
H591 H 0.33113 0.18399 0.53584 0.0
H592 H 0.36942 0.12375 0.52205 0.0
H593 H 0.37108 0.1472 0.50088 0.0
H594 H 0.32304 0.11933 0.55016 0.0
H595 H 0.3247 0.14262 0.52903 0.0
H596 H 0.31881 0.1058 0.45655 0.0
H597 H 0.32235 0.12981 0.47815 0.0
H598 H 0.37225 0.13855 0.43565 0.0
H599 H 0.37559 0.16279 0.45689 0.0
N600 N 0.35174 0.17686 0.47217 0.0
N601 N 0.34917 0.17491 0.51173 0.0
C602 C 0.7823 0.11522 0.45997 0.0
C603 C 0.77389 0.11859 0.4444 0.0
C604 C 0.79449 0.129 0.47176 0.0
C605 C 0.79836 0.14643 0.46847 0.0
C606 C 0.77776 0.13606 0.44112 0.0
C607 C 0.78996 0.14985 0.45297 0.0
C608 C 0.81229 0.16126 0.47994 0.0
C609 C 0.76991 0.12919 0.52485 0.0
C610 C 0.77546 0.12167 0.5394 0.0
C611 C 0.78218 0.14161 0.51176 0.0
C612 C 0.80018 0.14672 0.51308 0.0
C613 C 0.79346 0.12671 0.54051 0.0
C614 C 0.80568 0.13918 0.52758 0.0
C615 C 0.81366 0.16081 0.50052 0.0
C616 C 0.875 0.23169 0.52164 0.0
C617 C 0.88318 0.22627 0.53554 0.0
C618 C 0.86181 0.21929 0.50931 0.0
C619 C 0.85651 0.20128 0.51081 0.0
C620 C 0.87811 0.20829 0.53665 0.0
C621 C 0.86481 0.19592 0.52453 0.0
C622 C 0.84133 0.18774 0.4995 0.0
C623 C 0.8842 0.21359 0.45397 0.0
C624 C 0.88181 0.22539 0.44222 0.0
C625 C 0.87065 0.20184 0.46631 0.0
C626 C 0.85443 0.20153 0.46683 0.0
C627 C 0.86567 0.22526 0.44296 0.0
C628 C 0.85194 0.2132 0.45499 0.0
C629 C 0.83986 0.18837 0.47903 0.0
H630 H 0.77953 0.10192 0.46301 0.0
H631 H 0.80121 0.12603 0.48317 0.0
H632 H 0.77171 0.13914 0.42908 0.0
H633 H 0.79295 0.16323 0.44994 0.0
H634 H 0.75612 0.12553 0.52365 0.0
H635 H 0.77768 0.14751 0.50093 0.0
H636 H 0.7982 0.12139 0.55175 0.0
H637 H 0.81952 0.14304 0.52899 0.0
H638 H 0.87868 0.24546 0.52046 0.0
H639 H 0.85535 0.2237 0.49909 0.0
H640 H 0.884 0.20369 0.54739 0.0
H641 H 0.86082 0.18208 0.52605 0.0
H642 H 0.89658 0.21354 0.45363 0.0
H643 H 0.87271 0.19277 0.47519 0.0
H644 H 0.86358 0.23424 0.43394 0.0
H645 H 0.83945 0.21302 0.45514 0.0
N646 N 0.82542 0.17512 0.46999 0.0
N647 N 0.82818 0.174 0.50943 0.0
C648 C 0.9835 0.54362 0.16531 0.0
C649 C 0.99655 0.55197 0.15082 0.0
C650 C 0.98379 0.53101 0.17769 0.0
C651 C 0.99709 0.52653 0.1757 0.0
C652 C 0.00988 0.54752 0.149 0.0
C653 C 0.01005 0.53483 0.1612 0.0
C654 C 0.99704 0.51247 0.18775 0.0
C655 C 0.01016 0.55741 0.22885 0.0
C656 C 0.9985 0.5534 0.24472 0.0
C657 C 0.00916 0.54397 0.21692 0.0
C658 C 0.99625 0.52626 0.22034 0.0
C659 C 0.98578 0.53565 0.24833 0.0
C660 C 0.9847 0.52221 0.23628 0.0
C661 C 0.99564 0.51181 0.20838 0.0
C662 C 0.01403 0.45785 0.2317 0.0
C663 C 0.00014 0.44665 0.24434 0.0
C664 C 0.01246 0.46987 0.21963 0.0
C665 C 0.99711 0.47117 0.22014 0.0
C666 C 0.98464 0.44789 0.24453 0.0
C667 C 0.98327 0.46021 0.23275 0.0
C668 C 0.99599 0.48469 0.20836 0.0
C669 C 0.98547 0.44108 0.16549 0.0
C670 C 0.99834 0.44612 0.15072 0.0
C671 C 0.98549 0.45375 0.17803 0.0
C672 C 0.99835 0.47168 0.17597 0.0
C673 C 0.01134 0.46404 0.14893 0.0
C674 C 0.01125 0.4767 0.16133 0.0
C675 C 0.99759 0.48546 0.18782 0.0
H676 H 0.97308 0.54681 0.16705 0.0
H677 H 0.97345 0.52453 0.18853 0.0
H678 H 0.01994 0.55353 0.13777 0.0
H679 H 0.02033 0.53144 0.15929 0.0
H680 H 0.02034 0.57092 0.22595 0.0
H681 H 0.01876 0.54744 0.20527 0.0
H682 H 0.97657 0.53217 0.2604 0.0
H683 H 0.9748 0.50863 0.23939 0.0
H684 H 0.02634 0.45767 0.23139 0.0
H685 H 0.02343 0.47848 0.21023 0.0
H686 H 0.9735 0.43932 0.25371 0.0
H687 H 0.97133 0.4611 0.23335 0.0
H688 H 0.97532 0.42736 0.16722 0.0
H689 H 0.97514 0.44959 0.18892 0.0
H690 H 0.02127 0.46837 0.13752 0.0
H691 H 0.02118 0.49047 0.15935 0.0
N692 N 0.99809 0.49933 0.17832 0.0
N693 N 0.99504 0.49785 0.21788 0.0
C694 C 0.4625 0.436 0.16314 0.0
C695 C 0.45706 0.44174 0.14669 0.0
C696 C 0.47365 0.44822 0.17718 0.0
C697 C 0.4793 0.46628 0.17505 0.0
C698 C 0.46224 0.45971 0.14508 0.0
C699 C 0.47328 0.47182 0.15904 0.0
C700 C 0.49302 0.4799 0.18783 0.0
C701 C 0.44626 0.449 0.22758 0.0
C702 C 0.44964 0.44139 0.24394 0.0
C703 C 0.46014 0.4611 0.21578 0.0
C704 C 0.47769 0.46571 0.21996 0.0
C705 C 0.46723 0.44604 0.24809 0.0
C706 C 0.4811 0.45815 0.23628 0.0
C707 C 0.49264 0.47945 0.20847 0.0
C708 C 0.54897 0.55314 0.22968 0.0
C709 C 0.55629 0.54969 0.24624 0.0
C710 C 0.53718 0.53934 0.21762 0.0
C711 C 0.53274 0.52184 0.22165 0.0
C712 C 0.55152 0.53213 0.25051 0.0
C713 C 0.53982 0.51833 0.23835 0.0
C714 C 0.51989 0.50704 0.2093 0.0
C715 C 0.56593 0.54063 0.16868 0.0
C716 C 0.56124 0.54539 0.15102 0.0
C717 C 0.55279 0.52844 0.18124 0.0
C718 C 0.53476 0.52131 0.1766 0.0
C719 C 0.5433 0.53828 0.14638 0.0
C720 C 0.53022 0.52645 0.15907 0.0
C721 C 0.52041 0.5073 0.18861 0.0
H722 H 0.45875 0.42224 0.16469 0.0
H723 H 0.47841 0.44367 0.18919 0.0
H724 H 0.45798 0.46448 0.1328 0.0
H725 H 0.47744 0.48567 0.15709 0.0
H726 H 0.43286 0.44563 0.2239 0.0
H727 H 0.45715 0.46715 0.20366 0.0
H728 H 0.47033 0.44065 0.26074 0.0
H729 H 0.49456 0.46172 0.23998 0.0
H730 H 0.55211 0.5665 0.22624 0.0
H731 H 0.53138 0.54234 0.20526 0.0
H732 H 0.55702 0.52907 0.26311 0.0
H733 H 0.53639 0.50491 0.24191 0.0
H734 H 0.57973 0.54588 0.17241 0.0
H735 H 0.55676 0.52427 0.19425 0.0
H736 H 0.53941 0.54185 0.13287 0.0
H737 H 0.51648 0.52111 0.15501 0.0
N738 N 0.50688 0.49375 0.17885 0.0
N739 N 0.50613 0.49302 0.21837 0.0
C740 C 0.45476 0.01484 0.2309 0.0
C741 C 0.44608 0.00056 0.24392 0.0
C742 C 0.46856 0.01643 0.21907 0.0
C743 C 0.47374 0.0036 0.21976 0.0
C744 C 0.45144 0.98785 0.24476 0.0
C745 C 0.46515 0.98939 0.23283 0.0
C746 C 0.48882 0.00541 0.20798 0.0
C747 C 0.44889 0.00064 0.1622 0.0
C748 C 0.45546 0.01437 0.14833 0.0
C749 C 0.46033 0.99942 0.17564 0.0
C750 C 0.47846 0.01213 0.1757 0.0
C751 C 0.47349 0.02724 0.14872 0.0
C752 C 0.48485 0.02612 0.16224 0.0
C753 C 0.49129 0.01002 0.18795 0.0
C754 C 0.55119 0.999 0.16365 0.0
C755 C 0.55861 0.01234 0.14937 0.0
C756 C 0.53848 0.99828 0.17671 0.0
C757 C 0.53332 0.01116 0.17602 0.0
C758 C 0.55363 0.02531 0.14888 0.0
C759 C 0.54113 0.02472 0.16207 0.0
C760 C 0.51851 0.00967 0.18812 0.0
C761 C 0.5596 0.01463 0.2312 0.0
C762 C 0.55388 0.00054 0.24447 0.0
C763 C 0.54743 0.01622 0.21936 0.0
C764 C 0.52933 0.00353 0.22026 0.0
C765 C 0.53574 0.98804 0.24562 0.0
C766 C 0.52359 0.98955 0.23366 0.0
C767 C 0.51616 0.00524 0.20821 0.0
H768 H 0.45115 0.02501 0.23019 0.0
H769 H 0.47537 0.02787 0.20966 0.0
H770 H 0.44493 0.97663 0.25453 0.0
H771 H 0.46902 0.97942 0.23378 0.0
H772 H 0.43509 0.9904 0.16204 0.0
H773 H 0.45511 0.98818 0.18541 0.0
H774 H 0.47888 0.03803 0.13832 0.0
H775 H 0.49879 0.03602 0.16189 0.0
H776 H 0.55461 0.98869 0.16413 0.0
H777 H 0.53225 0.98731 0.18682 0.0
H778 H 0.55922 0.03577 0.13808 0.0
H779 H 0.5373 0.03473 0.16111 0.0
H780 H 0.57346 0.02465 0.23026 0.0
H781 H 0.55216 0.02751 0.20971 0.0
H782 H 0.53095 0.97699 0.25563 0.0
H783 H 0.50968 0.9797 0.23478 0.0
N784 N 0.50134 0.00315 0.21725 0.0
N785 N 0.50603 0.01197 0.17893 0.0
C786 C 0.557 0.00859 0.79551 0.0
C787 C 0.55276 0.99715 0.77938 0.0
C788 C 0.5437 0.00756 0.80778 0.0
C789 C 0.52589 0.9949 0.80434 0.0
C790 C 0.53492 0.98451 0.77598 0.0
C791 C 0.52163 0.98346 0.78828 0.0
C792 C 0.5115 0.99444 0.81627 0.0
C793 C 0.54228 0.98145 0.86077 0.0
C794 C 0.54939 0.99377 0.87617 0.0
C795 C 0.53049 0.98215 0.84739 0.0
C796 C 0.52572 0.99524 0.84917 0.0
C797 C 0.54502 0.0072 0.87738 0.0
C798 C 0.53322 0.00782 0.86415 0.0
C799 C 0.51171 0.99508 0.8369 0.0
C800 C 0.43872 0.98188 0.85722 0.0
C801 C 0.44328 0.99139 0.87486 0.0
C802 C 0.45194 0.98316 0.84456 0.0
C803 C 0.46993 0.99445 0.84904 0.0
C804 C 0.4612 0.00259 0.87938 0.0
C805 C 0.47436 0.00415 0.86658 0.0
C806 C 0.48432 0.99509 0.83681 0.0
C807 C 0.45491 0.0115 0.7957 0.0
C808 C 0.44731 0.00034 0.77943 0.0
C809 C 0.46681 0.00968 0.80779 0.0
C810 C 0.47116 0.99651 0.804 0.0
C811 C 0.45188 0.98732 0.77555 0.0
C812 C 0.46376 0.9855 0.78766 0.0
C813 C 0.48434 0.99492 0.81612 0.0
H814 H 0.57061 0.01841 0.79862 0.0
H815 H 0.54733 0.01695 0.81967 0.0
H816 H 0.53115 0.97569 0.76353 0.0
H817 H 0.50797 0.97378 0.78515 0.0
H818 H 0.54527 0.97087 0.85951 0.0
H819 H 0.52461 0.97211 0.83615 0.0
H820 H 0.55056 0.01714 0.88876 0.0
H821 H 0.52973 0.01804 0.86578 0.0
H822 H 0.42496 0.97301 0.85357 0.0
H823 H 0.44804 0.97494 0.83161 0.0
H824 H 0.46501 0.01012 0.89286 0.0
H825 H 0.48809 0.01283 0.87053 0.0
H826 H 0.4516 0.02159 0.79916 0.0
H827 H 0.47274 0.01869 0.81997 0.0
H828 H 0.44651 0.97871 0.76296 0.0
H829 H 0.46715 0.97545 0.78425 0.0
N830 N 0.49781 0.99439 0.80672 0.0
N831 N 0.49811 0.99533 0.84627 0.0
C832 C 0.98911 0.54644 0.79495 0.0
C833 C 0.00083 0.55431 0.77917 0.0
C834 C 0.99021 0.534 0.80678 0.0
C835 C 0.0032 0.52932 0.80321 0.0
C836 C 0.01376 0.54955 0.77559 0.0
C837 C 0.01486 0.53711 0.78743 0.0
C838 C 0.00384 0.51537 0.81484 0.0
C839 C 0.01671 0.55875 0.85969 0.0
C840 C 0.00457 0.55348 0.87528 0.0
C841 C 0.01588 0.54629 0.84617 0.0
C842 C 0.00281 0.5284 0.84797 0.0
C843 C 0.99119 0.53565 0.87657 0.0
C844 C 0.99041 0.52326 0.86317 0.0
C845 C 0.00289 0.51462 0.83548 0.0
C846 C 0.0171 0.45641 0.85651 0.0
C847 C 0.00448 0.44819 0.87144 0.0
C848 C 0.0164 0.46881 0.84417 0.0
C849 C 0.00312 0.47326 0.84666 0.0
C850 C 0.99112 0.45256 0.8737 0.0
C851 C 0.99054 0.46507 0.86154 0.0
C852 C 0.00293 0.48734 0.83488 0.0
C853 C 0.98851 0.44215 0.79395 0.0
C854 C 0.99988 0.44597 0.77785 0.0
C855 C 0.98973 0.45573 0.8058 0.0
C856 C 0.00258 0.4734 0.80205 0.0
C857 C 0.01247 0.46368 0.77382 0.0
C858 C 0.01377 0.47727 0.7858 0.0
C859 C 0.00367 0.48794 0.81423 0.0
H860 H 0.97906 0.54989 0.79818 0.0
H861 H 0.98068 0.52779 0.81846 0.0
H862 H 0.02281 0.55515 0.76338 0.0
H863 H 0.0248 0.53351 0.78421 0.0
H864 H 0.02727 0.57234 0.85837 0.0
H865 H 0.02582 0.55051 0.83479 0.0
H866 H 0.98139 0.5312 0.88813 0.0
H867 H 0.98023 0.50953 0.86485 0.0
H868 H 0.02754 0.45328 0.85445 0.0
H869 H 0.02645 0.47523 0.83301 0.0
H870 H 0.98137 0.44665 0.88526 0.0
H871 H 0.9803 0.46844 0.86384 0.0
H872 H 0.97842 0.42867 0.79716 0.0
H873 H 0.9804 0.4524 0.81772 0.0
H874 H 0.02146 0.46702 0.76156 0.0
H875 H 0.02362 0.49081 0.78244 0.0
N876 N 0.00425 0.50202 0.80504 0.0
N877 N 0.00244 0.50062 0.84462 0.0
C878 C 0.54083 0.56445 0.79131 0.0
C879 C 0.54895 0.55832 0.77813 0.0
C880 C 0.52669 0.55258 0.803 0.0
C881 C 0.52058 0.53436 0.80196 0.0
C882 C 0.54263 0.54007 0.77694 0.0
C883 C 0.52856 0.52823 0.78868 0.0
C884 C 0.50536 0.52146 0.81384 0.0
C885 C 0.54736 0.5541 0.85855 0.0
C886 C 0.54223 0.56192 0.87325 0.0
C887 C 0.53493 0.54202 0.84539 0.0
C888 C 0.51716 0.5378 0.84631 0.0
C889 C 0.52447 0.55784 0.87395 0.0
C890 C 0.5121 0.54591 0.86066 0.0
C891 C 0.5034 0.52354 0.83405 0.0
C892 C 0.44523 0.45313 0.85941 0.0
C893 C 0.43576 0.45809 0.87215 0.0
C894 C 0.45786 0.46542 0.84657 0.0
C895 C 0.46127 0.48291 0.84616 0.0
C896 C 0.43903 0.47556 0.8714 0.0
C897 C 0.45177 0.48787 0.85867 0.0
C898 C 0.47576 0.49642 0.83403 0.0
C899 C 0.43407 0.45904 0.79218 0.0
C900 C 0.43988 0.45111 0.77841 0.0
C901 C 0.44626 0.47309 0.80374 0.0
C902 C 0.46448 0.47918 0.80208 0.0
C903 C 0.45811 0.45744 0.77649 0.0
C904 C 0.47027 0.47133 0.78819 0.0
C905 C 0.47772 0.4943 0.81386 0.0
H906 H 0.54519 0.57841 0.79232 0.0
H907 H 0.5204 0.55762 0.81267 0.0
H908 H 0.5487 0.53493 0.76709 0.0
H909 H 0.52401 0.51423 0.7875 0.0
H910 H 0.56094 0.55703 0.85743 0.0
H911 H 0.53915 0.53556 0.83493 0.0
H912 H 0.51993 0.56332 0.88525 0.0
H913 H 0.49842 0.54267 0.86189 0.0
H914 H 0.44336 0.43993 0.85983 0.0
H915 H 0.46536 0.46141 0.83741 0.0
H916 H 0.43184 0.4798 0.88076 0.0
H917 H 0.45428 0.50133 0.85867 0.0
H918 H 0.42011 0.45462 0.79372 0.0
H919 H 0.44142 0.47933 0.81373 0.0
H920 H 0.46296 0.45151 0.76607 0.0
H921 H 0.48424 0.47588 0.78648 0.0
N922 N 0.49247 0.50689 0.80463 0.0
N923 N 0.48861 0.51097 0.84326 0.0
C924 C 0.66256 0.78066 0.50057 0.0
C925 C 0.64961 0.77271 0.48589 0.0
C926 C 0.66241 0.79308 0.51334 0.0
C927 C 0.649 0.79747 0.51214 0.0
C928 C 0.63613 0.77706 0.48481 0.0
C929 C 0.63586 0.7893 0.49777 0.0
C930 C 0.6496 0.81186 0.52428 0.0
C931 C 0.64568 0.77109 0.56728 0.0
C932 C 0.66009 0.77706 0.58022 0.0
C933 C 0.64362 0.78306 0.55559 0.0
C934 C 0.65606 0.80121 0.5564 0.0
C935 C 0.67233 0.79528 0.58124 0.0
C936 C 0.67029 0.80721 0.56951 0.0
C937 C 0.65401 0.81419 0.54442 0.0
C938 C 0.64499 0.87501 0.56867 0.0
C939 C 0.66101 0.8856 0.57855 0.0
C940 C 0.64281 0.86087 0.55707 0.0
C941 C 0.65653 0.85697 0.55547 0.0
C942 C 0.67477 0.88178 0.57676 0.0
C943 C 0.67245 0.86742 0.56551 0.0
C944 C 0.65408 0.84153 0.54412 0.0
C945 C 0.66215 0.88196 0.49813 0.0
C946 C 0.64727 0.87715 0.48619 0.0
C947 C 0.66255 0.86978 0.51103 0.0
C948 C 0.64813 0.8525 0.51225 0.0
C949 C 0.63266 0.85992 0.48786 0.0
C950 C 0.63319 0.84767 0.50059 0.0
C951 C 0.64931 0.83903 0.52419 0.0
H952 H 0.67304 0.77754 0.50203 0.0
H953 H 0.67311 0.79961 0.52375 0.0
H954 H 0.62612 0.7715 0.47351 0.0
H955 H 0.62553 0.79266 0.49631 0.0
H956 H 0.63606 0.75715 0.56605 0.0
H957 H 0.63224 0.77812 0.54601 0.0
H958 H 0.68338 0.80038 0.5913 0.0
H959 H 0.67993 0.82117 0.57061 0.0
H960 H 0.63422 0.87777 0.56981 0.0
H961 H 0.63033 0.85279 0.54964 0.0
H962 H 0.68719 0.88971 0.58436 0.0
H963 H 0.68313 0.86453 0.56454 0.0
H964 H 0.67381 0.89493 0.49701 0.0
H965 H 0.67443 0.87367 0.5195 0.0
H966 H 0.62086 0.85579 0.47919 0.0
H967 H 0.62195 0.83437 0.50124 0.0
N968 N 0.64726 0.82432 0.51505 0.0
N969 N 0.65623 0.82903 0.55346 0.0
C970 C 0.12822 0.77008 0.50117 0.0
C971 C 0.12033 0.77529 0.48669 0.0
C972 C 0.14107 0.78265 0.51367 0.0
C973 C 0.14631 0.80062 0.51175 0.0
C974 C 0.12549 0.79326 0.485 0.0
C975 C 0.13845 0.8058 0.49729 0.0
C976 C 0.16075 0.81433 0.52375 0.0
C977 C 0.11524 0.7848 0.56512 0.0
C978 C 0.11864 0.77672 0.581 0.0
C979 C 0.129 0.79662 0.55302 0.0
C980 C 0.14644 0.80042 0.55634 0.0
C981 C 0.13613 0.78061 0.58435 0.0
C982 C 0.1499 0.79242 0.57221 0.0
C983 C 0.16126 0.8138 0.54438 0.0
C984 C 0.21969 0.88681 0.56434 0.0
C985 C 0.22754 0.88308 0.58019 0.0
C986 C 0.20722 0.87318 0.55261 0.0
C987 C 0.20262 0.85556 0.55621 0.0
C988 C 0.22267 0.86542 0.58404 0.0
C989 C 0.21029 0.85179 0.57217 0.0
C990 C 0.18889 0.84095 0.54432 0.0
C991 C 0.23289 0.87373 0.50134 0.0
C992 C 0.22789 0.88205 0.48718 0.0
C993 C 0.22013 0.86067 0.51353 0.0
C994 C 0.2022 0.85569 0.51162 0.0
C995 C 0.20993 0.87701 0.48537 0.0
C996 C 0.19722 0.86388 0.49735 0.0
C997 C 0.18833 0.84142 0.52368 0.0
H998 H 0.12447 0.75632 0.50278 0.0
H999 H 0.1472 0.77841 0.52451 0.0
H1000 H 0.11984 0.7977 0.47379 0.0
H1001 H 0.1424 0.8196 0.49544 0.0
H1002 H 0.10192 0.78202 0.56203 0.0
H1003 H 0.12601 0.80305 0.54132 0.0
H1004 H 0.13925 0.77482 0.59662 0.0
H1005 H 0.16329 0.79539 0.57526 0.0
H1006 H 0.22289 0.90024 0.56129 0.0
H1007 H 0.20094 0.87643 0.54097 0.0
H1008 H 0.22853 0.86217 0.59613 0.0
H1009 H 0.20674 0.83828 0.57542 0.0
H1010 H 0.24663 0.87735 0.50302 0.0
H1011 H 0.22423 0.85431 0.52422 0.0
H1012 H 0.20565 0.88298 0.47438 0.0
H1013 H 0.18345 0.86013 0.49552 0.0
N1014 N 0.17425 0.82815 0.51426 0.0
N1015 N 0.17538 0.82709 0.55384 0.0
C1016 C 0.23356 0.35923 0.50114 0.0
C1017 C 0.22808 0.34628 0.48642 0.0
C1018 C 0.22111 0.35989 0.51354 0.0
C1019 C 0.20298 0.34765 0.51135 0.0
C1020 C 0.20996 0.3339 0.48454 0.0
C1021 C 0.19756 0.33465 0.49678 0.0
C1022 C 0.18938 0.34911 0.52282 0.0
C1023 C 0.21503 0.33149 0.56791 0.0
C1024 C 0.22635 0.34533 0.58039 0.0
C1025 C 0.20348 0.33347 0.55546 0.0
C1026 C 0.20288 0.34922 0.55554 0.0
C1027 C 0.22596 0.3612 0.58024 0.0
C1028 C 0.21409 0.36303 0.56809 0.0
C1029 C 0.18979 0.35075 0.54335 0.0
C1030 C 0.11631 0.33538 0.56185 0.0
C1031 C 0.11975 0.34664 0.57795 0.0
C1032 C 0.13015 0.33692 0.55017 0.0
C1033 C 0.14772 0.35004 0.55408 0.0
C1034 C 0.13734 0.3596 0.58204 0.0
C1035 C 0.15118 0.36125 0.57023 0.0
C1036 C 0.16259 0.35108 0.54253 0.0
C1037 C 0.13077 0.36193 0.49762 0.0
C1038 C 0.1241 0.34959 0.48222 0.0
C1039 C 0.14289 0.36182 0.51098 0.0
C1040 C 0.14836 0.34924 0.50925 0.0
C1041 C 0.12931 0.33679 0.48091 0.0
C1042 C 0.14137 0.3367 0.49417 0.0
C1043 C 0.16236 0.34972 0.5219 0.0
H1044 H 0.24744 0.36893 0.50295 0.0
H1045 H 0.2256 0.3703 0.52438 0.0
H1046 H 0.20527 0.32394 0.47315 0.0
H1047 H 0.18365 0.32517 0.49469 0.0
H1048 H 0.21517 0.31916 0.5678 0.0
H1049 H 0.19474 0.32259 0.54605 0.0
H1050 H 0.23455 0.37199 0.58984 0.0
H1051 H 0.21368 0.37521 0.56843 0.0
H1052 H 0.10294 0.32502 0.55859 0.0
H1053 H 0.12712 0.32755 0.53839 0.0
H1054 H 0.14038 0.3685 0.59433 0.0
H1055 H 0.16463 0.37128 0.57374 0.0
H1056 H 0.12711 0.37203 0.49894 0.0
H1057 H 0.14836 0.37186 0.52227 0.0
H1058 H 0.12415 0.32687 0.46948 0.0
H1059 H 0.14536 0.32686 0.49254 0.0
N1060 N 0.1757 0.34868 0.51294 0.0
N1061 N 0.17642 0.35169 0.55244 0.0
H1062 H 0.97379 0.35849 0.06977 0.0
H1063 H 0.0229 0.40329 0.05036 0.0
H1064 H 0.97321 0.37576 0.0977 0.0
H1065 H 0.02212 0.42058 0.07776 0.0
H1066 H 0.02599 0.44249 0.13798 0.0
H1067 H 0.02571 0.42278 0.11256 0.0
H1068 H 0.96929 0.40067 0.10567 0.0
H1069 H 0.96958 0.42022 0.13139 0.0
C1070 C 0.98439 0.37204 0.07142 0.0
C1071 C 0.99841 0.37952 0.05792 0.0
C1072 C 0.98404 0.38195 0.08736 0.0
C1073 C 0.9977 0.39953 0.09008 0.0
C1074 C 0.01158 0.40698 0.0764 0.0
C1075 C 0.01196 0.3971 0.06057 0.0
C1076 C 0.01352 0.43335 0.13108 0.0
C1077 C 0.99784 0.43299 0.13657 0.0
C1078 C 0.01335 0.42209 0.11647 0.0
C1079 C 0.99751 0.41028 0.10687 0.0
C1080 C 0.9817 0.40948 0.11286 0.0
C1081 C 0.98186 0.42069 0.12759 0.0
H1082 H 0.61485 0.63219 0.07306 0.0
H1083 H 0.63524 0.59856 0.05452 0.0
H1084 H 0.59981 0.61239 0.10054 0.0
H1085 H 0.61985 0.57852 0.08189 0.0
H1086 H 0.56542 0.53826 0.11345 0.0
H1087 H 0.5857 0.55886 0.08894 0.0
H1088 H 0.60738 0.60035 0.1323 0.0
H1089 H 0.58724 0.57954 0.15698 0.0
C1090 C 0.6162 0.62062 0.07495 0.0
C1091 C 0.62613 0.61684 0.06163 0.0
C1092 C 0.60771 0.60938 0.09074 0.0
C1093 C 0.60871 0.59398 0.09331 0.0
C1094 C 0.61888 0.59033 0.08018 0.0
C1095 C 0.62768 0.60178 0.06459 0.0
C1096 C 0.57475 0.55171 0.11776 0.0
C1097 C 0.57483 0.5574 0.137 0.0
C1098 C 0.58638 0.56344 0.10381 0.0
C1099 C 0.59806 0.58116 0.10876 0.0
C1100 C 0.59845 0.58675 0.12815 0.0
C1101 C 0.58704 0.57489 0.14223 0.0
H1102 H 0.38255 0.02788 0.07182 0.0
H1103 H 0.39443 0.99127 0.04245 0.0
H1104 H 0.40237 0.03054 0.09868 0.0
H1105 H 0.41426 0.99406 0.06907 0.0
H1106 H 0.46258 0.01895 0.10937 0.0
H1107 H 0.44344 0.01837 0.08305 0.0
H1108 H 0.40295 0.00945 0.12523 0.0
H1109 H 0.42221 0.01006 0.15172 0.0
C1110 C 0.38949 0.02054 0.07104 0.0
C1111 C 0.38699 0.0094 0.05505 0.0
C1112 C 0.40072 0.02196 0.08644 0.0
C1113 C 0.40984 0.01251 0.08591 0.0
C1114 C 0.40751 0.00161 0.06977 0.0
C1115 C 0.39612 0.99998 0.05457 0.0
C1116 C 0.44967 0.01706 0.11306 0.0
C1117 C 0.44389 0.0146 0.13259 0.0
C1118 C 0.43868 0.01661 0.09798 0.0
C1119 C 0.42173 0.01385 0.10211 0.0
C1120 C 0.41603 0.01172 0.12168 0.0
C1121 C 0.42696 0.01194 0.13678 0.0
H1122 H 0.36728 0.96584 0.97036 0.0
H1123 H 0.38249 0.01844 0.95043 0.0
H1124 H 0.38445 0.96292 0.94363 0.0
H1125 H 0.39927 0.01535 0.92359 0.0
H1126 H 0.41526 0.99637 0.86819 0.0
H1127 H 0.39393 0.99538 0.89236 0.0
H1128 H 0.41903 0.98077 0.93716 0.0
H1129 H 0.44048 0.98209 0.91314 0.0
C1130 C 0.37405 0.97663 0.96009 0.0
C1131 C 0.37366 0.99239 0.96249 0.0
C1132 C 0.38388 0.97498 0.94488 0.0
C1133 C 0.39313 0.98891 0.93159 0.0
C1134 C 0.39213 0.00437 0.93355 0.0
C1135 C 0.38263 0.00616 0.94896 0.0
C1136 C 0.41603 0.99277 0.88317 0.0
C1137 C 0.4295 0.9894 0.8889 0.0
C1138 C 0.40391 0.99225 0.89695 0.0
C1139 C 0.40485 0.98796 0.91657 0.0
C1140 C 0.41793 0.98395 0.92209 0.0
C1141 C 0.43024 0.98482 0.90842 0.0
H1142 H 0.03103 0.38686 0.95282 0.0
H1143 H 0.98108 0.38119 0.97117 0.0
H1144 H 0.03142 0.40435 0.92462 0.0
H1145 H 0.98165 0.39886 0.94355 0.0
H1146 H 0.97758 0.41623 0.88344 0.0
H1147 H 0.97843 0.39703 0.90871 0.0
H1148 H 0.03449 0.43289 0.91631 0.0
H1149 H 0.03363 0.45193 0.89068 0.0
C1150 C 0.02021 0.38942 0.95088 0.0
C1151 C 0.006 0.38261 0.96415 0.0
C1152 C 0.02044 0.39947 0.93478 0.0
C1153 C 0.00647 0.40287 0.9317 0.0
C1154 C 0.99242 0.39618 0.94518 0.0
C1155 C 0.99217 0.38615 0.96114 0.0
C1156 C 0.9901 0.41993 0.89043 0.0
C1157 C 0.0055 0.43564 0.88523 0.0
C1158 C 0.99059 0.40898 0.90495 0.0
C1159 C 0.00648 0.41356 0.91477 0.0
C1160 C 0.02206 0.4289 0.90897 0.0
C1161 C 0.02157 0.43982 0.8943 0.0
H1162 H 0.60621 0.59605 0.97803 0.0
H1163 H 0.61351 0.64512 0.95461 0.0
H1164 H 0.58665 0.57998 0.95097 0.0
H1165 H 0.59434 0.62909 0.92701 0.0
H1166 H 0.54516 0.59167 0.89066 0.0
H1167 H 0.56438 0.60863 0.91771 0.0
H1168 H 0.58804 0.57546 0.91695 0.0
H1169 H 0.56816 0.55789 0.89085 0.0
C1170 C 0.60365 0.60341 0.96704 0.0
C1171 C 0.61142 0.62184 0.96841 0.0
C1172 C 0.59255 0.59421 0.95141 0.0
C1173 C 0.58906 0.60324 0.93663 0.0
C1174 C 0.59661 0.62169 0.93819 0.0
C1175 C 0.60764 0.63089 0.95397 0.0
C1176 C 0.55438 0.58792 0.89635 0.0
C1177 C 0.555 0.57332 0.88858 0.0
C1178 C 0.56556 0.59778 0.91173 0.0
C1179 C 0.57769 0.59335 0.91966 0.0
C1180 C 0.57864 0.57907 0.91149 0.0
C1181 C 0.56741 0.56915 0.89624 0.0
H1182 H 0.02918 0.64299 0.95349 0.0
H1183 H 0.98062 0.59828 0.97426 0.0
H1184 H 0.03058 0.62461 0.92715 0.0
H1185 H 0.98199 0.58012 0.94814 0.0
H1186 H 0.0006 0.54786 0.91463 0.0
H1187 H 0.00139 0.56777 0.93997 0.0
H1188 H 0.01344 0.6081 0.89656 0.0
H1189 H 0.01242 0.58797 0.87093 0.0
C1190 C 0.01883 0.62928 0.95242 0.0
C1191 C 0.00484 0.62204 0.96597 0.0
C1192 C 0.01959 0.61881 0.93732 0.0
C1193 C 0.00646 0.60091 0.93569 0.0
C1194 C 0.99244 0.59379 0.94919 0.0
C1195 C 0.99162 0.60424 0.96411 0.0
C1196 C 0.00327 0.56091 0.9104 0.0
C1197 C 0.00613 0.56621 0.89069 0.0
C1198 C 0.00379 0.57234 0.92495 0.0
C1199 C 0.00728 0.58942 0.92022 0.0
C1200 C 0.0108 0.59503 0.90063 0.0
C1201 C 0.0102 0.58351 0.88598 0.0
H1202 H 0.36383 0.402 0.96966 0.0
H1203 H 0.38499 0.36927 0.9501 0.0
H1204 H 0.3792 0.42262 0.94279 0.0
H1205 H 0.40025 0.38979 0.92335 0.0
H1206 H 0.41279 0.42248 0.8676 0.0
H1207 H 0.39404 0.40132 0.89246 0.0
H1208 H 0.41133 0.44358 0.93461 0.0
H1209 H 0.43042 0.4647 0.91003 0.0
C1210 C 0.37162 0.39914 0.95953 0.0
C1211 C 0.37327 0.38408 0.962 0.0
C1212 C 0.38047 0.41096 0.94423 0.0
C1213 C 0.39092 0.4078 0.93098 0.0
C1214 C 0.39214 0.39248 0.93319 0.0
C1215 C 0.38349 0.38079 0.94858 0.0
C1216 C 0.41266 0.42728 0.88218 0.0
C1217 C 0.42322 0.44532 0.88679 0.0
C1218 C 0.40186 0.41515 0.89638 0.0
C1219 C 0.40124 0.4208 0.91547 0.0
C1220 C 0.41135 0.43887 0.91995 0.0
C1221 C 0.42227 0.45098 0.90581 0.0
H1222 H 0.62002 0.02018 0.97339 0.0
H1223 H 0.61486 0.97047 0.95512 0.0
H1224 H 0.60019 0.01813 0.9473 0.0
H1225 H 0.59481 0.96844 0.92875 0.0
H1226 H 0.57585 0.98559 0.87171 0.0
H1227 H 0.59534 0.98503 0.89717 0.0
H1228 H 0.56786 0.99821 0.94058 0.0
H1229 H 0.5483 0.99845 0.91546 0.0
C1230 C 0.61466 0.0088 0.96377 0.0
C1231 C 0.61893 0.99543 0.96637 0.0
C1232 C 0.60323 0.0076 0.94887 0.0
C1233 C 0.59585 0.99306 0.9361 0.0
C1234 C 0.60037 0.97981 0.93838 0.0
C1235 C 0.61174 0.98094 0.95349 0.0
C1236 C 0.57384 0.98813 0.88673 0.0
C1237 C 0.56072 0.99237 0.89149 0.0
C1238 C 0.58499 0.98781 0.90128 0.0
C1239 C 0.58324 0.99181 0.92079 0.0
C1240 C 0.56974 0.99543 0.9256 0.0
C1241 C 0.55859 0.99565 0.91117 0.0
H1242 H 0.59813 0.98605 0.04685 0.0
H1243 H 0.64609 0.02613 0.07442 0.0
H1244 H 0.58063 0.98867 0.07311 0.0
H1245 H 0.62845 0.02855 0.10097 0.0
H1246 H 0.58784 0.00879 0.15428 0.0
H1247 H 0.6069 0.00751 0.12862 0.0
H1248 H 0.57498 0.01364 0.08456 0.0
H1249 H 0.5561 0.01503 0.11006 0.0
C1250 C 0.60494 0.9954 0.05856 0.0
C1251 C 0.62347 0.00593 0.05858 0.0
C1252 C 0.59491 0.99692 0.07353 0.0
C1253 C 0.60321 0.00883 0.08901 0.0
C1254 C 0.62176 0.01922 0.08922 0.0
C1255 C 0.63181 0.0179 0.07402 0.0
C1256 C 0.58499 0.00992 0.1391 0.0
C1257 C 0.57055 0.01205 0.13413 0.0
C1258 C 0.59592 0.0093 0.12448 0.0
C1259 C 0.59236 0.01045 0.10466 0.0
C1260 C 0.57796 0.01263 0.09973 0.0
C1261 C 0.56724 0.01354 0.11431 0.0
H1262 H 0.02239 0.62134 0.05253 0.0
H1263 H 0.97222 0.61543 0.07036 0.0
H1264 H 0.02137 0.60312 0.07984 0.0
H1265 H 0.97139 0.59743 0.09822 0.0
H1266 H 0.968 0.54896 0.1309 0.0
H1267 H 0.96792 0.56867 0.10565 0.0
H1268 H 0.02391 0.60383 0.11473 0.0
H1269 H 0.024 0.58396 0.13964 0.0
C1270 C 0.01118 0.61623 0.06239 0.0
C1271 C 0.99739 0.61982 0.0593 0.0
C1272 C 0.01066 0.60589 0.07817 0.0
C1273 C 0.99638 0.59893 0.09136 0.0
C1274 C 0.98252 0.60249 0.08826 0.0
C1275 C 0.98302 0.61284 0.07236 0.0
C1276 C 0.98021 0.56104 0.12768 0.0
C1277 C 0.99604 0.56484 0.13708 0.0
C1278 C 0.98017 0.57236 0.11323 0.0
C1279 C 0.99595 0.58774 0.10798 0.0
C1280 C 0.0116 0.59189 0.11807 0.0
C1281 C 0.01166 0.58054 0.13239 0.0
H1282 H 0.38786 0.35524 0.06696 0.0
H1283 H 0.39503 0.40404 0.04281 0.0
H1284 H 0.40837 0.37184 0.09355 0.0
H1285 H 0.4152 0.42048 0.06927 0.0
H1286 H 0.46299 0.44711 0.10761 0.0
H1287 H 0.44473 0.42844 0.08096 0.0
H1288 H 0.40943 0.38973 0.12273 0.0
H1289 H 0.42789 0.40852 0.14958 0.0
C1290 C 0.3939 0.36949 0.06727 0.0
C1291 C 0.38989 0.37836 0.05279 0.0
C1292 C 0.40553 0.37896 0.08254 0.0
C1293 C 0.41345 0.39746 0.08347 0.0
C1294 C 0.40954 0.40627 0.06882 0.0
C1295 C 0.3979 0.39684 0.05369 0.0
C1296 C 0.45133 0.43461 0.11113 0.0
C1297 C 0.44668 0.42941 0.13069 0.0
C1298 C 0.44088 0.42391 0.09586 0.0
C1299 C 0.4255 0.40774 0.09974 0.0
C1300 C 0.42126 0.4021 0.11928 0.0
C1301 C 0.43179 0.41285 0.13464 0.0
H1302 H 0.63587 0.6874 0.40656 0.0
H1303 H 0.67956 0.73558 0.38368 0.0
H1304 H 0.63311 0.704 0.43385 0.0
H1305 H 0.67643 0.75222 0.4103 0.0
H1306 H 0.67948 0.77555 0.46923 0.0
H1307 H 0.68158 0.75709 0.44415 0.0
H1308 H 0.62454 0.72523 0.44239 0.0
H1309 H 0.62245 0.74303 0.4686 0.0
C1310 C 0.64478 0.70155 0.40729 0.0
C1311 C 0.65799 0.71018 0.39307 0.0
C1312 C 0.64316 0.71108 0.42287 0.0
C1313 C 0.65464 0.72946 0.42442 0.0
C1314 C 0.66763 0.73805 0.40991 0.0
C1315 C 0.66934 0.72852 0.39452 0.0
C1316 C 0.66736 0.76439 0.46388 0.0
C1317 C 0.65078 0.76084 0.47104 0.0
C1318 C 0.66856 0.75394 0.44918 0.0
C1319 C 0.65323 0.73978 0.441 0.0
C1320 C 0.63664 0.73596 0.4484 0.0
C1321 C 0.63544 0.74633 0.46328 0.0
H1322 H 0.26709 0.95267 0.39021 0.0
H1323 H 0.31347 0.94953 0.40534 0.0
H1324 H 0.25133 0.93402 0.41787 0.0
H1325 H 0.29769 0.93099 0.43358 0.0
H1326 H 0.25403 0.88071 0.46641 0.0
H1327 H 0.27317 0.90139 0.44129 0.0
H1328 H 0.25072 0.93472 0.45293 0.0
H1329 H 0.23145 0.91392 0.47768 0.0
C1330 C 0.27398 0.94809 0.39956 0.0
C1331 C 0.29154 0.95259 0.3956 0.0
C1332 C 0.26498 0.93749 0.41555 0.0
C1333 C 0.27329 0.93114 0.4281 0.0
C1334 C 0.29088 0.9356 0.42414 0.0
C1335 C 0.29993 0.94625 0.40804 0.0
C1336 C 0.25344 0.89262 0.46379 0.0
C1337 C 0.2411 0.8956 0.4738 0.0
C1338 C 0.26441 0.90448 0.44942 0.0
C1339 C 0.26329 0.91958 0.44488 0.0
C1340 C 0.25161 0.923 0.45571 0.0
C1341 C 0.24061 0.91112 0.46992 0.0
H1342 H 0.05225 0.36503 0.40464 0.0
H1343 H 0.0526 0.31805 0.38564 0.0
H1344 H 0.0732 0.36907 0.43085 0.0
H1345 H 0.07327 0.32204 0.41159 0.0
H1346 H 0.12559 0.34576 0.44286 0.0
H1347 H 0.10492 0.3442 0.41805 0.0
H1348 H 0.07519 0.35371 0.46212 0.0
H1349 H 0.09591 0.35509 0.48723 0.0
C1350 C 0.05673 0.35556 0.40611 0.0
C1351 C 0.05088 0.34129 0.39302 0.0
C1352 C 0.06864 0.35783 0.42113 0.0
C1353 C 0.075 0.34597 0.42311 0.0
C1354 C 0.06884 0.33157 0.41022 0.0
C1355 C 0.05692 0.32924 0.3954 0.0
C1356 C 0.11461 0.34743 0.44734 0.0
C1357 C 0.1122 0.3502 0.46709 0.0
C1358 C 0.10279 0.34658 0.4331 0.0
C1359 C 0.0883 0.34857 0.4382 0.0
C1360 C 0.08628 0.35216 0.45779 0.0
C1361 C 0.09813 0.35295 0.47214 0.0
H1362 H 0.02002 0.30377 0.285 0.0
H1363 H 0.06919 0.34636 0.30761 0.0
H1364 H 0.03641 0.29908 0.25862 0.0
H1365 H 0.08534 0.34173 0.28153 0.0
H1366 H 0.11104 0.31666 0.24803 0.0
H1367 H 0.09185 0.31776 0.27313 0.0
H1368 H 0.05577 0.3156 0.22861 0.0
H1369 H 0.07519 0.3146 0.20324 0.0
C1370 C 0.03427 0.31211 0.28432 0.0
C1371 C 0.04334 0.32536 0.29842 0.0
C1372 C 0.04361 0.30948 0.26922 0.0
C1373 C 0.06215 0.31992 0.26817 0.0
C1374 C 0.07109 0.33327 0.28215 0.0
C1375 C 0.06181 0.33598 0.29705 0.0
C1376 C 0.09902 0.31642 0.24355 0.0
C1377 C 0.09481 0.31592 0.22364 0.0
C1378 C 0.08801 0.31701 0.25793 0.0
C1379 C 0.07247 0.31706 0.2528 0.0
C1380 C 0.06767 0.31556 0.23296 0.0
C1381 C 0.07878 0.315 0.21847 0.0
H1382 H 0.64818 0.71707 0.30696 0.0
H1383 H 0.69675 0.71905 0.28962 0.0
H1384 H 0.65167 0.73715 0.2805 0.0
H1385 H 0.70026 0.73933 0.26293 0.0
H1386 H 0.68562 0.75951 0.20515 0.0
H1387 H 0.68466 0.73965 0.23106 0.0
H1388 H 0.673 0.76902 0.27349 0.0
H1389 H 0.6742 0.78888 0.24791 0.0
C1390 C 0.65961 0.72179 0.29747 0.0
C1391 C 0.67224 0.71656 0.30041 0.0
C1392 C 0.66165 0.73336 0.28236 0.0
C1393 C 0.67631 0.7399 0.26976 0.0
C1394 C 0.68881 0.73443 0.27241 0.0
C1395 C 0.68684 0.72292 0.28771 0.0
C1396 C 0.68308 0.76183 0.22006 0.0
C1397 C 0.67965 0.77556 0.22441 0.0
C1398 C 0.68254 0.75048 0.23486 0.0
C1399 C 0.67849 0.75266 0.25421 0.0
C1400 C 0.67576 0.76679 0.25863 0.0
C1401 C 0.67638 0.77812 0.24395 0.0
H1402 H 0.27882 0.9318 0.3098 0.0
H1403 H 0.28125 0.97946 0.28839 0.0
H1404 H 0.25845 0.91495 0.28365 0.0
H1405 H 0.26058 0.96239 0.26206 0.0
H1406 H 0.23935 0.92576 0.2059 0.0
H1407 H 0.25915 0.94494 0.23174 0.0
H1408 H 0.22756 0.90564 0.27495 0.0
H1409 H 0.20787 0.88664 0.24936 0.0
C1410 C 0.27496 0.93868 0.29951 0.0
C1411 C 0.28158 0.95694 0.30119 0.0
C1412 C 0.26321 0.92899 0.28458 0.0
C1413 C 0.2578 0.93732 0.2709 0.0
C1414 C 0.26458 0.95565 0.27237 0.0
C1415 C 0.27632 0.96538 0.28746 0.0
C1416 C 0.23655 0.92136 0.22096 0.0
C1417 C 0.22225 0.90456 0.22556 0.0
C1418 C 0.24786 0.93233 0.23573 0.0
C1419 C 0.24504 0.92666 0.25532 0.0
C1420 C 0.23031 0.91019 0.25994 0.0
C1421 C 0.21905 0.8993 0.24527 0.0
H1422 H 0.6984 0.97808 0.28955 0.0
H1423 H 0.65402 0.9297 0.31114 0.0
H1424 H 0.7025 0.96145 0.26308 0.0
H1425 H 0.65801 0.91327 0.28486 0.0
H1426 H 0.68016 0.8859 0.24919 0.0
H1427 H 0.67982 0.90465 0.2753 0.0
H1428 H 0.68644 0.94405 0.23283 0.0
H1429 H 0.68677 0.92513 0.20648 0.0
C1430 C 0.68958 0.96392 0.28867 0.0
C1431 C 0.67594 0.95517 0.30244 0.0
C1432 C 0.69187 0.95444 0.27349 0.0
C1433 C 0.68065 0.93605 0.27198 0.0
C1434 C 0.66705 0.92738 0.2858 0.0
C1435 C 0.66471 0.93682 0.30081 0.0
C1436 C 0.68152 0.89855 0.24538 0.0
C1437 C 0.68314 0.9039 0.22575 0.0
C1438 C 0.68135 0.9093 0.26035 0.0
C1439 C 0.68283 0.92569 0.25609 0.0
C1440 C 0.68533 0.93149 0.23654 0.0
C1441 C 0.68549 0.92067 0.22148 0.0
H1442 H 0.0697 0.7181 0.30489 0.0
H1443 H 0.02322 0.72083 0.28922 0.0
H1444 H 0.08535 0.73629 0.27683 0.0
H1445 H 0.03883 0.73884 0.26066 0.0
H1446 H 0.08159 0.78769 0.22561 0.0
H1447 H 0.06315 0.7681 0.25184 0.0
H1448 H 0.08546 0.73442 0.24173 0.0
H1449 H 0.10402 0.75413 0.21582 0.0
C1450 C 0.06279 0.72254 0.29538 0.0
C1451 C 0.04522 0.71801 0.29924 0.0
C1452 C 0.07172 0.73286 0.27917 0.0
C1453 C 0.06329 0.73887 0.26634 0.0
C1454 C 0.04574 0.7345 0.27031 0.0
C1455 C 0.03678 0.72416 0.28662 0.0
C1456 C 0.08229 0.77592 0.22879 0.0
C1457 C 0.09437 0.77253 0.21883 0.0
C1458 C 0.07174 0.7647 0.24382 0.0
C1459 C 0.07303 0.74983 0.2491 0.0
C1460 C 0.08446 0.74599 0.23839 0.0
C1461 C 0.09504 0.75723 0.22349 0.0
H1462 H 0.2962 0.35028 0.28801 0.0
H1463 H 0.26816 0.29431 0.30037 0.0
H1464 H 0.27638 0.34531 0.26047 0.0
H1465 H 0.24803 0.28941 0.27299 0.0
H1466 H 0.2039 0.29956 0.2434 0.0
H1467 H 0.22494 0.30059 0.26783 0.0
H1468 H 0.26768 0.32801 0.22661 0.0
H1469 H 0.24647 0.32656 0.20201 0.0
C1470 C 0.28584 0.33691 0.28476 0.0
C1471 C 0.28365 0.32268 0.29633 0.0
C1472 C 0.2746 0.33406 0.26895 0.0
C1473 C 0.26075 0.31698 0.26463 0.0
C1474 C 0.25864 0.3027 0.27606 0.0
C1475 C 0.27015 0.3055 0.29165 0.0
C1476 C 0.21775 0.30544 0.2395 0.0
C1477 C 0.22366 0.31293 0.22093 0.0
C1478 C 0.22974 0.306 0.2534 0.0
C1479 C 0.24789 0.31439 0.24906 0.0
C1480 C 0.25374 0.32148 0.23027 0.0
C1481 C 0.24167 0.3206 0.21623 0.0
H1482 H 0.26477 0.31848 0.38406 0.0
H1483 H 0.31309 0.36416 0.40366 0.0
H1484 H 0.24917 0.32101 0.4122 0.0
H1485 H 0.29739 0.36656 0.43223 0.0
H1486 H 0.25526 0.37433 0.46735 0.0
H1487 H 0.2738 0.37332 0.4411 0.0
H1488 H 0.24832 0.31662 0.44741 0.0
H1489 H 0.2298 0.31764 0.47348 0.0
C1490 C 0.27208 0.32908 0.39441 0.0
C1491 C 0.29018 0.3411 0.39167 0.0
C1492 C 0.26316 0.33044 0.41065 0.0
C1493 C 0.27208 0.34384 0.42461 0.0
C1494 C 0.29014 0.35611 0.42171 0.0
C1495 C 0.29913 0.35472 0.40539 0.0
C1496 C 0.25388 0.36171 0.46336 0.0
C1497 C 0.24093 0.34604 0.47232 0.0
C1498 C 0.26449 0.36113 0.44832 0.0
C1499 C 0.26234 0.34486 0.44196 0.0
C1500 C 0.25001 0.32932 0.45164 0.0
C1501 C 0.23942 0.3299 0.4666 0.0
H1502 H 0.62916 0.93353 0.39095 0.0
H1503 H 0.68518 0.96261 0.40341 0.0
H1504 H 0.62471 0.91338 0.41805 0.0
H1505 H 0.68069 0.94263 0.43057 0.0
H1506 H 0.66223 0.91324 0.48926 0.0
H1507 H 0.66469 0.93398 0.4639 0.0
H1508 H 0.63473 0.89052 0.42438 0.0
H1509 H 0.63285 0.86977 0.4493 0.0
C1510 C 0.64048 0.9357 0.39958 0.0
C1511 C 0.65752 0.94959 0.39506 0.0
C1512 C 0.63794 0.92414 0.41501 0.0
C1513 C 0.65235 0.92648 0.42639 0.0
C1514 C 0.66932 0.94063 0.42214 0.0
C1515 C 0.6719 0.95199 0.40654 0.0
C1516 C 0.65625 0.90806 0.47515 0.0
C1517 C 0.64743 0.88976 0.47138 0.0
C1518 C 0.65759 0.91996 0.46067 0.0
C1519 C 0.64992 0.91384 0.44219 0.0
C1520 C 0.6406 0.89558 0.43858 0.0
C1521 C 0.63947 0.88369 0.45294 0.0
H1522 H 0.0554 0.69011 0.40365 0.0
H1523 H 0.0513 0.73572 0.38771 0.0
H1524 H 0.07363 0.70625 0.43188 0.0
H1525 H 0.06976 0.75192 0.41538 0.0
H1526 H 0.08875 0.77184 0.47574 0.0
H1527 H 0.06873 0.75281 0.45029 0.0
H1528 H 0.10267 0.73074 0.44025 0.0
H1529 H 0.1225 0.7496 0.46609 0.0
C1530 C 0.05846 0.70359 0.40613 0.0
C1531 C 0.05188 0.71164 0.39352 0.0
C1532 C 0.06894 0.71286 0.42225 0.0
C1533 C 0.07304 0.73034 0.42602 0.0
C1534 C 0.06656 0.73836 0.41321 0.0
C1535 C 0.05608 0.72911 0.39722 0.0
C1536 C 0.09184 0.76283 0.46818 0.0
C1537 C 0.10725 0.76231 0.47276 0.0
C1538 C 0.08043 0.75197 0.45354 0.0
C1539 C 0.08423 0.74044 0.44299 0.0
C1540 C 0.09927 0.73938 0.44816 0.0
C1541 C 0.11064 0.75018 0.46295 0.0
H1542 H 0.30466 0.02069 0.739 0.0
H1543 H 0.34198 0.07071 0.71286 0.0
H1544 H 0.29945 0.03639 0.76563 0.0
H1545 H 0.33661 0.08628 0.73924 0.0
H1546 H 0.30701 0.10643 0.77701 0.0
H1547 H 0.31012 0.08909 0.75089 0.0
H1548 H 0.31843 0.05782 0.79385 0.0
H1549 H 0.31534 0.07525 0.82012 0.0
C1550 C 0.31167 0.03501 0.73891 0.0
C1551 C 0.32371 0.0445 0.72388 0.0
C1552 C 0.30875 0.04396 0.75416 0.0
C1553 C 0.31759 0.06252 0.75441 0.0
C1554 C 0.3295 0.07196 0.73929 0.0
C1555 C 0.33262 0.06305 0.72425 0.0
C1556 C 0.30927 0.0957 0.78089 0.0
C1557 C 0.31091 0.09215 0.80058 0.0
C1558 C 0.31118 0.08588 0.76595 0.0
C1559 C 0.31456 0.07217 0.77038 0.0
C1560 C 0.31573 0.06827 0.79007 0.0
C1561 C 0.31407 0.07828 0.80505 0.0
H1562 H 0.93108 0.27144 0.71152 0.0
H1563 H 0.98092 0.28367 0.73781 0.0
H1564 H 0.91524 0.25087 0.73808 0.0
H1565 H 0.96496 0.26313 0.76462 0.0
H1566 H 0.92622 0.24104 0.81922 0.0
H1567 H 0.94377 0.26124 0.79278 0.0
H1568 H 0.91175 0.22152 0.75015 0.0
H1569 H 0.89429 0.20141 0.77644 0.0
C1570 C 0.93865 0.26972 0.72298 0.0
C1571 C 0.95723 0.27913 0.72259 0.0
C1572 C 0.92957 0.25789 0.73813 0.0
C1573 C 0.93889 0.2554 0.75336 0.0
C1574 C 0.95748 0.26488 0.75308 0.0
C1575 C 0.96659 0.27654 0.73772 0.0
C1576 C 0.92303 0.23665 0.80419 0.0
C1577 C 0.90893 0.21967 0.79987 0.0
C1578 C 0.93312 0.24813 0.78911 0.0
C1579 C 0.92907 0.24292 0.76945 0.0
C1580 C 0.91509 0.22589 0.76517 0.0
C1581 C 0.90519 0.21435 0.78022 0.0
H1582 H 0.71553 0.69523 0.73967 0.0
H1583 H 0.72557 0.65586 0.71414 0.0
H1584 H 0.73617 0.69961 0.76632 0.0
H1585 H 0.74624 0.66041 0.7405 0.0
H1586 H 0.79692 0.68921 0.77723 0.0
H1587 H 0.7764 0.68648 0.75138 0.0
H1588 H 0.73779 0.6802 0.79489 0.0
H1589 H 0.75839 0.68287 0.82089 0.0
C1590 C 0.72217 0.68757 0.73974 0.0
C1591 C 0.71898 0.67523 0.72485 0.0
C1592 C 0.73388 0.69001 0.755 0.0
C1593 C 0.74282 0.68039 0.75538 0.0
C1594 C 0.73964 0.66811 0.74045 0.0
C1595 C 0.72775 0.66546 0.72542 0.0
C1596 C 0.78413 0.68745 0.78128 0.0
C1597 C 0.77923 0.68627 0.80104 0.0
C1598 C 0.77236 0.68576 0.7665 0.0
C1599 C 0.75553 0.68309 0.77118 0.0
C1600 C 0.75075 0.68235 0.79093 0.0
C1601 C 0.76245 0.68376 0.80576 0.0
H1602 H 0.73612 0.68101 0.64057 0.0
H1603 H 0.68753 0.63687 0.61908 0.0
H1604 H 0.75227 0.67767 0.61355 0.0
H1605 H 0.70363 0.63387 0.59139 0.0
H1606 H 0.74241 0.6228 0.55648 0.0
H1607 H 0.72485 0.62529 0.58269 0.0
H1608 H 0.75646 0.68223 0.57952 0.0
H1609 H 0.77471 0.67974 0.55439 0.0
C1610 C 0.72885 0.67065 0.62994 0.0
C1611 C 0.71055 0.65922 0.63191 0.0
C1612 C 0.7381 0.66882 0.61432 0.0
C1613 C 0.72926 0.65562 0.6001 0.0
C1614 C 0.71091 0.64409 0.60215 0.0
C1615 C 0.70166 0.64584 0.61794 0.0
C1616 C 0.7457 0.63585 0.56147 0.0
C1617 C 0.76011 0.65105 0.55335 0.0
C1618 C 0.73547 0.63729 0.57635 0.0
C1619 C 0.73931 0.65396 0.58339 0.0
C1620 C 0.75331 0.66915 0.57477 0.0
C1621 C 0.76363 0.66772 0.56006 0.0
H1622 H 0.31488 0.04966 0.63602 0.0
H1623 H 0.3652 0.05452 0.62103 0.0
H1624 H 0.3173 0.06806 0.60825 0.0
H1625 H 0.36743 0.07261 0.59269 0.0
H1626 H 0.3735 0.12146 0.55871 0.0
H1627 H 0.372 0.10139 0.58443 0.0
H1628 H 0.31603 0.06783 0.57346 0.0
H1629 H 0.31753 0.08815 0.54814 0.0
C1630 C 0.32642 0.05457 0.62667 0.0
C1631 C 0.33986 0.05066 0.63071 0.0
C1632 C 0.32774 0.06501 0.61062 0.0
C1633 C 0.34249 0.07172 0.59809 0.0
C1634 C 0.35596 0.06779 0.60213 0.0
C1635 C 0.35467 0.05738 0.6183 0.0
C1636 C 0.36096 0.10963 0.56162 0.0
C1637 C 0.3456 0.10642 0.55156 0.0
C1638 C 0.36009 0.09811 0.57634 0.0
C1639 C 0.34385 0.08309 0.58121 0.0
C1640 C 0.32867 0.0795 0.57045 0.0
C1641 C 0.32952 0.09107 0.55587 0.0
H1642 H 0.95296 0.26506 0.63429 0.0
H1643 H 0.94701 0.30997 0.6203 0.0
H1644 H 0.93468 0.24912 0.60638 0.0
H1645 H 0.92906 0.29418 0.59182 0.0
H1646 H 0.88073 0.25124 0.5572 0.0
H1647 H 0.90051 0.26968 0.58323 0.0
H1648 H 0.935 0.24852 0.57158 0.0
H1649 H 0.91497 0.22983 0.54592 0.0
C1650 C 0.94784 0.27158 0.62514 0.0
C1651 C 0.95141 0.28876 0.62949 0.0
C1652 C 0.93746 0.26249 0.60901 0.0
C1653 C 0.9305 0.2704 0.5967 0.0
C1654 C 0.93408 0.28763 0.60108 0.0
C1655 C 0.94441 0.2967 0.61734 0.0
C1656 C 0.89269 0.25077 0.56002 0.0
C1657 C 0.89625 0.239 0.54965 0.0
C1658 C 0.90405 0.26134 0.57493 0.0
C1659 C 0.91925 0.26044 0.57969 0.0
C1660 C 0.92318 0.24924 0.56865 0.0
C1661 C 0.91177 0.23859 0.55388 0.0
H1662 H 0.37029 0.29988 0.64055 0.0
H1663 H 0.31914 0.28559 0.6164 0.0
H1664 H 0.37518 0.28409 0.61375 0.0
H1665 H 0.32417 0.27017 0.58954 0.0
H1666 H 0.34651 0.25658 0.53546 0.0
H1667 H 0.34587 0.27676 0.56005 0.0
H1668 H 0.35842 0.25024 0.60512 0.0
H1669 H 0.35879 0.22996 0.58066 0.0
C1670 C 0.36024 0.2936 0.62937 0.0
C1671 C 0.3443 0.29385 0.63057 0.0
C1672 C 0.36301 0.28456 0.61411 0.0
C1673 C 0.35005 0.27596 0.59961 0.0
C1674 C 0.33443 0.27682 0.60043 0.0
C1675 C 0.33152 0.28554 0.61586 0.0
C1676 C 0.34933 0.25525 0.5506 0.0
C1677 C 0.35258 0.2417 0.55625 0.0
C1678 C 0.34891 0.26672 0.56462 0.0
C1679 C 0.35212 0.26503 0.58444 0.0
C1680 C 0.35606 0.25191 0.58993 0.0
C1681 C 0.35614 0.24026 0.57599 0.0
H1682 H 0.69081 0.05717 0.62314 0.0
H1683 H 0.73774 0.05642 0.64156 0.0
H1684 H 0.70702 0.07553 0.59502 0.0
H1685 H 0.75394 0.0749 0.61386 0.0
H1686 H 0.77277 0.09087 0.55215 0.0
H1687 H 0.75439 0.07189 0.5786 0.0
H1688 H 0.73138 0.10523 0.58638 0.0
H1689 H 0.74975 0.1242 0.55971 0.0
C1690 C 0.70461 0.06106 0.62128 0.0
C1691 C 0.71299 0.05531 0.63449 0.0
C1692 C 0.7139 0.07159 0.60522 0.0
C1693 C 0.73171 0.0765 0.60208 0.0
C1694 C 0.74013 0.07104 0.6156 0.0
C1695 C 0.73088 0.06056 0.63158 0.0
C1696 C 0.76374 0.09411 0.55946 0.0
C1697 C 0.76283 0.10912 0.55399 0.0
C1698 C 0.75325 0.08327 0.57465 0.0
C1699 C 0.74162 0.08721 0.5848 0.0
C1700 C 0.74014 0.10179 0.57879 0.0
C1701 C 0.75064 0.11264 0.56351 0.0
H1702 H 0.95191 0.63961 0.6176 0.0
H1703 H 0.94239 0.67943 0.64283 0.0
H1704 H 0.93137 0.63535 0.5909 0.0
H1705 H 0.9218 0.675 0.6164 0.0
H1706 H 0.8708 0.64595 0.58004 0.0
H1707 H 0.89152 0.64903 0.60581 0.0
H1708 H 0.9297 0.65451 0.56214 0.0
H1709 H 0.90891 0.65149 0.53622 0.0
C1710 C 0.94543 0.64741 0.61744 0.0
C1711 C 0.94871 0.65982 0.63229 0.0
C1712 C 0.93376 0.64504 0.60215 0.0
C1713 C 0.92497 0.6548 0.60168 0.0
C1714 C 0.92829 0.66719 0.61653 0.0
C1715 C 0.94012 0.66977 0.63159 0.0
C1716 C 0.88354 0.64762 0.57594 0.0
C1717 C 0.88826 0.64846 0.55615 0.0
C1718 C 0.89543 0.64951 0.59067 0.0
C1719 C 0.9122 0.65205 0.58593 0.0
C1720 C 0.91681 0.65248 0.56615 0.0
C1721 C 0.90499 0.65086 0.55137 0.0
H1722 H 0.93058 0.65348 0.71649 0.0
H1723 H 0.97927 0.69711 0.73852 0.0
H1724 H 0.91443 0.65671 0.74361 0.0
H1725 H 0.96317 0.7 0.76626 0.0
H1726 H 0.92467 0.71117 0.8015 0.0
H1727 H 0.94212 0.70875 0.77512 0.0
H1728 H 0.91012 0.65182 0.77763 0.0
H1729 H 0.89199 0.65425 0.80296 0.0
C1730 C 0.93786 0.66371 0.72725 0.0
C1731 C 0.9562 0.67502 0.72541 0.0
C1732 C 0.92861 0.66548 0.74291 0.0
C1733 C 0.93749 0.6785 0.7573 0.0
C1734 C 0.95587 0.68993 0.75537 0.0
C1735 C 0.96512 0.68824 0.73954 0.0
C1736 C 0.92127 0.69813 0.79633 0.0
C1737 C 0.9068 0.68292 0.80433 0.0
C1738 C 0.93144 0.69674 0.78135 0.0
C1739 C 0.92746 0.68009 0.77408 0.0
C1740 C 0.91338 0.66488 0.78256 0.0
C1741 C 0.90313 0.66627 0.79738 0.0
H1742 H 0.35064 0.29108 0.73117 0.0
H1743 H 0.29417 0.26586 0.72221 0.0
H1744 H 0.34587 0.27117 0.75846 0.0
H1745 H 0.28943 0.24564 0.74942 0.0
H1746 H 0.29587 0.20056 0.78092 0.0
H1747 H 0.29801 0.22099 0.75542 0.0
H1748 H 0.33079 0.26513 0.79297 0.0
H1749 H 0.32801 0.2448 0.81899 0.0
C1750 C 0.33721 0.28125 0.73502 0.0
C1751 C 0.32277 0.27998 0.72456 0.0
C1752 C 0.33449 0.26995 0.75071 0.0
C1753 C 0.31729 0.25694 0.75605 0.0
C1754 C 0.30282 0.25556 0.74554 0.0
C1755 C 0.30553 0.26712 0.73004 0.0
C1756 C 0.30316 0.21459 0.78404 0.0
C1757 C 0.31181 0.22096 0.80211 0.0
C1758 C 0.30444 0.22628 0.76934 0.0
C1759 C 0.31463 0.24459 0.77223 0.0
C1760 C 0.323 0.25103 0.79033 0.0
C1761 C 0.32148 0.23936 0.80517 0.0
H1762 H 0.73615 0.0338 0.72069 0.0
H1763 H 0.70251 0.05479 0.73709 0.0
H1764 H 0.75643 0.05041 0.7473 0.0
H1765 H 0.72219 0.07071 0.76411 0.0
H1766 H 0.77079 0.11362 0.79457 0.0
H1767 H 0.75018 0.09563 0.76912 0.0
H1768 H 0.76103 0.05351 0.78178 0.0
H1769 H 0.78218 0.07193 0.80694 0.0
C1770 C 0.73299 0.04178 0.73016 0.0
C1771 C 0.71786 0.04315 0.72673 0.0
C1772 C 0.74454 0.05123 0.74549 0.0
C1773 C 0.74107 0.06208 0.7578 0.0
C1774 C 0.72556 0.06288 0.75467 0.0
C1775 C 0.71419 0.05365 0.73925 0.0
C1776 C 0.76863 0.10045 0.79204 0.0
C1777 C 0.778 0.09413 0.80282 0.0
C1778 C 0.75677 0.09008 0.77747 0.0
C1779 C 0.75378 0.073 0.77343 0.0
C1780 C 0.76313 0.06666 0.7843 0.0
C1781 C 0.77519 0.07715 0.79877 0.0
H1782 H 0.06101 0.35772 0.02304 0.0
H1783 H 0.01797 0.32113 0.05992 0.0
H1784 H 0.08179 0.35324 0.04286 0.0
H1785 H 0.0386 0.31653 0.07948 0.0
H1786 H 0.08278 0.32994 0.12369 0.0
H1787 H 0.06253 0.33404 0.10274 0.0
H1788 H 0.08961 0.33038 0.05157 0.0
H1789 H 0.11019 0.32673 0.07259 0.0
C1790 C 0.05598 0.34861 0.03525 0.0
C1791 C 0.03789 0.33984 0.03998 0.0
C1792 C 0.06785 0.346 0.04655 0.0
C1793 C 0.06184 0.33464 0.06283 0.0
C1794 C 0.04368 0.3256 0.06724 0.0
C1795 C 0.03185 0.32815 0.05594 0.0
C1796 C 0.0845 0.33015 0.10798 0.0
C1797 C 0.09807 0.328 0.0998 0.0
C1798 C 0.07279 0.33231 0.09597 0.0
C1799 C 0.07443 0.33246 0.07549 0.0
C1800 C 0.08808 0.33044 0.06729 0.0
C1801 C 0.09974 0.32817 0.07932 0.0
H1802 H 0.68224 0.69783 0.057 0.0
H1803 H 0.63997 0.69926 0.02581 0.0
H1804 H 0.68744 0.72362 0.07594 0.0
H1805 H 0.64546 0.72537 0.04441 0.0
H1806 H 0.64529 0.75663 0.09822 0.0
H1807 H 0.64132 0.7323 0.07744 0.0
H1808 H 0.69805 0.75495 0.07414 0.0
H1809 H 0.702 0.77891 0.09572 0.0
C1810 C 0.67421 0.7038 0.05403 0.0
C1811 C 0.66064 0.69648 0.04 0.0
C1812 C 0.67725 0.71865 0.06481 0.0
C1813 C 0.66682 0.72654 0.06176 0.0
C1814 C 0.65354 0.71945 0.04735 0.0
C1815 C 0.65047 0.70456 0.0366 0.0
C1816 C 0.65692 0.75635 0.09322 0.0
C1817 C 0.67396 0.76966 0.09877 0.0
C1818 C 0.65465 0.74252 0.08106 0.0
C1819 C 0.66936 0.74167 0.07408 0.0
C1820 C 0.68642 0.7551 0.07942 0.0
C1821 C 0.6887 0.76894 0.09162 0.0
H1822 H 0.30741 0.9853 0.06326 0.0
H1823 H 0.29667 0.94306 0.02284 0.0
H1824 H 0.28187 0.96511 0.08277 0.0
H1825 H 0.27114 0.92268 0.04263 0.0
H1826 H 0.217 0.89591 0.0737 0.0
H1827 H 0.24147 0.91647 0.05289 0.0
H1828 H 0.27372 0.93997 0.10421 0.0
H1829 H 0.24913 0.91985 0.12499 0.0
C1830 C 0.29957 0.97168 0.05853 0.0
C1831 C 0.30408 0.96573 0.04156 0.0
C1832 C 0.28499 0.96009 0.06978 0.0
C1833 C 0.27455 0.94226 0.06434 0.0
C1834 C 0.27884 0.93638 0.04713 0.0
C1835 C 0.29349 0.94801 0.03585 0.0
C1836 C 0.22925 0.90561 0.08053 0.0
C1837 C 0.23112 0.90627 0.101 0.0
C1838 C 0.24333 0.91724 0.0686 0.0
C1839 C 0.25953 0.92985 0.0769 0.0
C1840 C 0.26135 0.93054 0.09737 0.0
C1841 C 0.24732 0.91889 0.10927 0.0
H1842 H 0.31357 0.01531 0.9709 0.0
H1843 H 0.36075 0.05954 0.99491 0.0
H1844 H 0.30806 0.03555 0.95171 0.0
H1845 H 0.35549 0.0798 0.97537 0.0
H1846 H 0.33216 0.11214 0.95044 0.0
H1847 H 0.33588 0.09173 0.9715 0.0
H1848 H 0.32077 0.05464 0.9236 0.0
H1849 H 0.31695 0.07501 0.90261 0.0
C1850 C 0.32273 0.02937 0.97214 0.0
C1851 C 0.33761 0.03584 0.98438 0.0
C1852 C 0.31965 0.04097 0.96103 0.0
C1853 C 0.3314 0.0593 0.96188 0.0
C1854 C 0.34607 0.06578 0.97451 0.0
C1855 C 0.34913 0.05417 0.98565 0.0
C1856 C 0.32972 0.09966 0.94439 0.0
C1857 C 0.3243 0.09521 0.92484 0.0
C1858 C 0.33185 0.08796 0.95646 0.0
C1859 C 0.32864 0.07155 0.94925 0.0
C1860 C 0.32308 0.06705 0.92973 0.0
C1861 C 0.32091 0.07873 0.91768 0.0
H1862 H 0.94308 0.30179 0.99636 0.0
H1863 H 0.98722 0.30095 0.96885 0.0
H1864 H 0.92258 0.27631 0.97675 0.0
H1865 H 0.96681 0.27525 0.94969 0.0
H1866 H 0.92641 0.24417 0.90186 0.0
H1867 H 0.94685 0.2685 0.92273 0.0
H1868 H 0.91112 0.24515 0.97162 0.0
H1869 H 0.89058 0.22094 0.95063 0.0
C1870 C 0.94839 0.296 0.98632 0.0
C1871 C 0.96674 0.3034 0.98407 0.0
C1872 C 0.93665 0.28137 0.97513 0.0
C1873 C 0.94304 0.27379 0.96152 0.0
C1874 C 0.96143 0.28095 0.95973 0.0
C1875 C 0.97313 0.2956 0.97083 0.0
C1876 C 0.92301 0.24416 0.91711 0.0
C1877 C 0.90687 0.23066 0.92458 0.0
C1878 C 0.93473 0.25809 0.9291 0.0
C1879 C 0.93065 0.25879 0.94889 0.0
C1880 C 0.91456 0.24518 0.95639 0.0
C1881 C 0.90281 0.2313 0.94437 0.0
H1882 H 0.69535 0.68161 0.96577 0.0
H1883 H 0.69768 0.63973 0.9966 0.0
H1884 H 0.72122 0.68728 0.94664 0.0
H1885 H 0.72324 0.64497 0.977 0.0
H1886 H 0.77856 0.66947 0.95103 0.0
H1887 H 0.75389 0.66547 0.97143 0.0
H1888 H 0.72944 0.67427 0.92101 0.0
H1889 H 0.75433 0.67863 0.90077 0.0
C1890 C 0.70139 0.67359 0.96842 0.0
C1891 C 0.69449 0.66021 0.98266 0.0
C1892 C 0.71615 0.67676 0.95736 0.0
C1893 C 0.72429 0.66653 0.96017 0.0
C1894 C 0.71747 0.65326 0.97461 0.0
C1895 C 0.70277 0.65018 0.98578 0.0
C1896 C 0.76788 0.67051 0.94433 0.0
C1897 C 0.76834 0.67433 0.9243 0.0
C1898 C 0.75371 0.66817 0.956 0.0
C1899 C 0.73962 0.66949 0.94788 0.0
C1900 C 0.74018 0.67344 0.92784 0.0
C1901 C 0.75442 0.67591 0.91621 0.0
H1902 H 0.98393 0.68399 0.96836 0.0
H1903 H 0.94102 0.64028 0.99893 0.0
H1904 H 0.96268 0.68843 0.94975 0.0
H1905 H 0.91969 0.64484 0.98035 0.0
H1906 H 0.88928 0.64475 0.92466 0.0
H1907 H 0.90977 0.64117 0.94571 0.0
H1908 H 0.94035 0.69771 0.95382 0.0
H1909 H 0.91971 0.70134 0.93298 0.0
C1910 C 0.96995 0.67543 0.97123 0.0
C1911 C 0.96412 0.66175 0.98505 0.0
C1912 C 0.95778 0.67804 0.96063 0.0
C1913 C 0.93952 0.66696 0.96355 0.0
C1914 C 0.93369 0.65346 0.97764 0.0
C1915 C 0.94588 0.65092 0.98835 0.0
C1916 C 0.90023 0.65642 0.93113 0.0
C1917 C 0.90285 0.67334 0.9271 0.0
C1918 C 0.91197 0.65435 0.9432 0.0
C1919 C 0.92665 0.66915 0.95143 0.0
C1920 C 0.92925 0.68607 0.94749 0.0
C1921 C 0.91746 0.68814 0.93549 0.0
H1922 H 0.31478 0.29796 0.97246 0.0
H1923 H 0.36317 0.30308 0.9956 0.0
H1924 H 0.31016 0.2726 0.95307 0.0
H1925 H 0.35837 0.27743 0.97646 0.0
H1926 H 0.3556 0.24701 0.92027 0.0
H1927 H 0.35936 0.27076 0.94201 0.0
H1928 H 0.30341 0.24209 0.95507 0.0
H1929 H 0.29964 0.21833 0.93328 0.0
C1930 C 0.3243 0.2935 0.97362 0.0
C1931 C 0.33937 0.30254 0.98549 0.0
C1932 C 0.32161 0.27891 0.96256 0.0
C1933 C 0.33395 0.27305 0.96312 0.0
C1934 C 0.34876 0.28179 0.97547 0.0
C1935 C 0.35144 0.29639 0.98654 0.0
C1936 C 0.34413 0.2457 0.92792 0.0
C1937 C 0.32732 0.2308 0.925 0.0
C1938 C 0.34629 0.25929 0.94042 0.0
C1939 C 0.33169 0.2583 0.95032 0.0
C1940 C 0.31488 0.24336 0.94747 0.0
C1941 C 0.31272 0.22977 0.93495 0.0
H1942 H 0.70053 0.05978 0.99788 0.0
H1943 H 0.70149 0.01616 0.96934 0.0
H1944 H 0.72577 0.08058 0.97815 0.0
H1945 H 0.72693 0.03687 0.95001 0.0
H1946 H 0.7572 0.07765 0.90239 0.0
H1947 H 0.73301 0.05711 0.92334 0.0
H1948 H 0.7571 0.09216 0.97257 0.0
H1949 H 0.78124 0.11278 0.95152 0.0
C1950 C 0.70628 0.05465 0.98758 0.0
C1951 C 0.69899 0.03636 0.98508 0.0
C1952 C 0.72078 0.06656 0.97632 0.0
C1953 C 0.7283 0.06039 0.96238 0.0
C1954 C 0.72126 0.04207 0.96032 0.0
C1955 C 0.70675 0.0302 0.97151 0.0
C1956 C 0.7574 0.08089 0.91772 0.0
C1957 C 0.77113 0.09683 0.92529 0.0
C1958 C 0.74355 0.06911 0.92975 0.0
C1959 C 0.74313 0.07295 0.94967 0.0
C1960 C 0.75689 0.0889 0.95725 0.0
C1961 C 0.77072 0.10071 0.94519 0.0
H1962 H 0.68143 0.98456 0.06151 0.0
H1963 H 0.64559 0.94182 0.02383 0.0
H1964 H 0.68637 0.96398 0.0807 0.0
H1965 H 0.65043 0.9211 0.04327 0.0
H1966 H 0.67736 0.89302 0.07293 0.0
H1967 H 0.67384 0.91378 0.05206 0.0
H1968 H 0.66858 0.93958 0.10345 0.0
H1969 H 0.67248 0.91915 0.12424 0.0
C1970 C 0.67465 0.97076 0.05727 0.0
C1971 C 0.66306 0.96478 0.04121 0.0
C1972 C 0.67741 0.95896 0.06835 0.0
C1973 C 0.66868 0.9409 0.06359 0.0
C1974 C 0.65743 0.93496 0.04721 0.0
C1975 C 0.6546 0.9468 0.03614 0.0
C1976 C 0.67562 0.90325 0.07973 0.0
C1977 C 0.67522 0.90448 0.10022 0.0
C1978 C 0.67343 0.915 0.06779 0.0
C1979 C 0.67096 0.92832 0.07611 0.0
C1980 C 0.67065 0.92958 0.0966 0.0
C1981 C 0.67272 0.91778 0.10851 0.0
H1982 H 0.01716 0.69979 0.05671 0.0
H1983 H 0.05986 0.70282 0.02179 0.0
H1984 H 0.03818 0.72579 0.07501 0.0
H1985 H 0.08097 0.72915 0.03993 0.0
H1986 H 0.11367 0.75999 0.09407 0.0
H1987 H 0.09326 0.73591 0.07293 0.0
H1988 H 0.05822 0.75744 0.07243 0.0
H1989 H 0.07834 0.78118 0.09422 0.0
C1990 C 0.03103 0.70615 0.05279 0.0
C1991 C 0.03688 0.69923 0.03787 0.0
C1992 C 0.04308 0.72113 0.0632 0.0
C1993 C 0.06126 0.72954 0.05896 0.0
C1994 C 0.06706 0.72284 0.04371 0.0
C1995 C 0.05498 0.70784 0.03325 0.0
C1996 C 0.10156 0.75953 0.08954 0.0
C1997 C 0.09755 0.77241 0.09597 0.0
C1998 C 0.08998 0.74586 0.0772 0.0
C1999 C 0.0741 0.74474 0.071 0.0
C2000 C 0.07026 0.75783 0.07712 0.0
C2001 C 0.08186 0.77152 0.08945 0.0
H2002 H 0.28918 0.33587 0.0171 0.0
H2003 H 0.32064 0.34853 0.0696 0.0
H2004 H 0.26348 0.33041 0.03662 0.0
H2005 H 0.29553 0.34431 0.08902 0.0
H2006 H 0.24432 0.31959 0.12225 0.0
H2007 H 0.2689 0.32339 0.10188 0.0
H2008 H 0.25011 0.34287 0.05484 0.0
H2009 H 0.2249 0.33784 0.07501 0.0
C2010 C 0.29061 0.33768 0.03281 0.0
C2011 C 0.30682 0.34249 0.04188 0.0
C2012 C 0.27593 0.33468 0.04403 0.0
C2013 C 0.27728 0.3368 0.06452 0.0
C2014 C 0.29372 0.34202 0.07341 0.0
C2015 C 0.30822 0.34461 0.06226 0.0
C2016 C 0.2455 0.32461 0.10751 0.0
C2017 C 0.23284 0.32845 0.10014 0.0
C2018 C 0.25965 0.32695 0.09583 0.0
C2019 C 0.26171 0.33363 0.07665 0.0
C2020 C 0.2489 0.33744 0.06935 0.0
C2021 C 0.23451 0.3347 0.08092 0.0
H2022 H 0.72504 0.69457 0.36151 0.0
H2023 H 0.6819 0.65009 0.39088 0.0
H2024 H 0.74623 0.68982 0.38004 0.0
H2025 H 0.70305 0.64548 0.40952 0.0
H2026 H 0.74625 0.6325 0.42562 0.0
H2027 H 0.72545 0.6364 0.40536 0.0
H2028 H 0.75603 0.69283 0.41444 0.0
H2029 H 0.77671 0.68896 0.43485 0.0
C2030 C 0.72009 0.68374 0.37185 0.0
C2031 C 0.70183 0.67272 0.37478 0.0
C2032 C 0.73222 0.68109 0.38254 0.0
C2033 C 0.7263 0.66731 0.39629 0.0
C2034 C 0.70801 0.65609 0.3989 0.0
C2035 C 0.69591 0.65879 0.38829 0.0
C2036 C 0.74845 0.64573 0.42343 0.0
C2037 C 0.76315 0.66042 0.43187 0.0
C2038 C 0.73656 0.64796 0.41179 0.0
C2039 C 0.73913 0.66493 0.40826 0.0
C2040 C 0.75386 0.67961 0.41662 0.0
C2041 C 0.7657 0.67738 0.42831 0.0
H2042 H 0.30023 0.0253 0.37371 0.0
H2043 H 0.35602 0.04271 0.37438 0.0
H2044 H 0.3057 0.05097 0.39294 0.0
H2045 H 0.36182 0.0691 0.39249 0.0
H2046 H 0.36437 0.10362 0.44373 0.0
H2047 H 0.35947 0.07878 0.42311 0.0
H2048 H 0.31654 0.08095 0.39406 0.0
H2049 H 0.32087 0.10498 0.4157 0.0
C2050 C 0.31373 0.03486 0.37765 0.0
C2051 C 0.32769 0.03202 0.37264 0.0
C2052 C 0.31693 0.04969 0.3886 0.0
C2053 C 0.33425 0.06224 0.39443 0.0
C2054 C 0.34827 0.05959 0.38876 0.0
C2055 C 0.34499 0.04454 0.37819 0.0
C2056 C 0.35393 0.09872 0.43287 0.0
C2057 C 0.34293 0.10605 0.43129 0.0
C2058 C 0.35117 0.08457 0.42091 0.0
C2059 C 0.33756 0.07771 0.4068 0.0
C2060 C 0.32687 0.08549 0.40499 0.0
C2061 C 0.3294 0.09936 0.41726 0.0
H2062 H 0.9602 0.31524 0.37425 0.0
H2063 H 0.97701 0.27653 0.37153 0.0
H2064 H 0.93369 0.29439 0.39203 0.0
H2065 H 0.9512 0.25601 0.39045 0.0
H2066 H 0.89693 0.21696 0.41257 0.0
H2067 H 0.9211 0.23708 0.39127 0.0
H2068 H 0.92387 0.28161 0.42231 0.0
H2069 H 0.89889 0.26129 0.44258 0.0
C2070 C 0.95822 0.30225 0.37756 0.0
C2071 C 0.9706 0.29746 0.37152 0.0
C2072 C 0.94309 0.29032 0.38793 0.0
C2073 C 0.94022 0.27345 0.39291 0.0
C2074 C 0.95265 0.26869 0.38663 0.0
C2075 C 0.96756 0.28049 0.37587 0.0
C2076 C 0.9027 0.23108 0.41462 0.0
C2077 C 0.89615 0.23766 0.42911 0.0
C2078 C 0.91665 0.24265 0.40256 0.0
C2079 C 0.92465 0.26109 0.40504 0.0
C2080 C 0.91791 0.26757 0.4196 0.0
C2081 C 0.90369 0.25597 0.43135 0.0
H2082 H 0.98283 0.35697 0.3152 0.0
H2083 H 0.03935 0.39239 0.31769 0.0
H2084 H 0.97961 0.37874 0.29573 0.0
H2085 H 0.03611 0.41387 0.29766 0.0
H2086 H 0.01793 0.42862 0.23719 0.0
H2087 H 0.02163 0.40871 0.25907 0.0
H2088 H 0.98931 0.41486 0.30252 0.0
H2089 H 0.98648 0.43578 0.28138 0.0
C2090 C 0.99453 0.36944 0.31166 0.0
C2091 C 0.01134 0.37305 0.31794 0.0
C2092 C 0.99266 0.38184 0.30059 0.0
C2093 C 0.00763 0.39785 0.29524 0.0
C2094 C 0.02442 0.40156 0.30164 0.0
C2095 C 0.02624 0.38934 0.31312 0.0
C2096 C 0.01187 0.4261 0.25153 0.0
C2097 C 0.00194 0.43398 0.25743 0.0
C2098 C 0.01393 0.41459 0.26397 0.0
C2099 C 0.00577 0.41037 0.28239 0.0
C2100 C 0.99564 0.41792 0.2883 0.0
C2101 C 0.99391 0.42976 0.27606 0.0
H2102 H 0.60659 0.63149 0.33533 0.0
H2103 H 0.64947 0.63748 0.29843 0.0
H2104 H 0.58568 0.60616 0.31567 0.0
H2105 H 0.62867 0.61218 0.27898 0.0
H2106 H 0.58395 0.58156 0.23499 0.0
H2107 H 0.60451 0.60589 0.25582 0.0
H2108 H 0.57787 0.57528 0.30717 0.0
H2109 H 0.55701 0.55102 0.28627 0.0
C2110 C 0.61156 0.6273 0.32314 0.0
C2111 C 0.62964 0.6365 0.31837 0.0
C2112 C 0.59961 0.61278 0.31194 0.0
C2113 C 0.60553 0.60726 0.29571 0.0
C2114 C 0.62368 0.61627 0.29122 0.0
C2115 C 0.6356 0.6307 0.30244 0.0
C2116 C 0.58241 0.58007 0.25072 0.0
C2117 C 0.56886 0.56439 0.259 0.0
C2118 C 0.59428 0.59393 0.26265 0.0
C2119 C 0.59284 0.59246 0.28314 0.0
C2120 C 0.57924 0.57682 0.29143 0.0
C2121 C 0.56741 0.56289 0.27948 0.0
H2122 H 0.36517 0.01477 0.30142 0.0
H2123 H 0.3619 0.96931 0.33029 0.0
H2124 H 0.38973 0.01776 0.28162 0.0
H2125 H 0.38617 0.97194 0.31005 0.0
H2126 H 0.44096 0.99207 0.2828 0.0
H2127 H 0.41741 0.98985 0.30397 0.0
H2128 H 0.3949 0.00311 0.25505 0.0
H2129 H 0.41861 0.00558 0.23404 0.0
C2130 C 0.36972 0.00541 0.30353 0.0
C2131 C 0.3616 0.99179 0.31738 0.0
C2132 C 0.38371 0.00704 0.29207 0.0
C2133 C 0.38985 0.99501 0.29409 0.0
C2134 C 0.38191 0.98155 0.30823 0.0
C2135 C 0.36796 0.97999 0.31979 0.0
C2136 C 0.4309 0.9944 0.27657 0.0
C2137 C 0.43165 0.99903 0.25676 0.0
C2138 C 0.41739 0.99311 0.28869 0.0
C2139 C 0.40426 0.99635 0.28125 0.0
C2140 C 0.40498 0.00087 0.26138 0.0
C2141 C 0.41854 0.00225 0.24931 0.0
H2142 H 0.64903 0.01281 0.30007 0.0
H2143 H 0.60631 0.96932 0.33105 0.0
H2144 H 0.62766 0.01627 0.2805 0.0
H2145 H 0.58485 0.97234 0.31102 0.0
H2146 H 0.55108 0.9931 0.28359 0.0
H2147 H 0.57243 0.99076 0.30452 0.0
H2148 H 0.60701 0.00167 0.25477 0.0
H2149 H 0.58581 0.00438 0.23402 0.0
C2150 C 0.63504 0.00398 0.30268 0.0
C2151 C 0.62933 0.99078 0.31707 0.0
C2152 C 0.62278 0.00587 0.29136 0.0
C2153 C 0.6045 0.9945 0.29404 0.0
C2154 C 0.59881 0.98147 0.30869 0.0
C2155 C 0.61109 0.97967 0.32012 0.0
C2156 C 0.56322 0.99492 0.27715 0.0
C2157 C 0.56679 0.99895 0.25718 0.0
C2158 C 0.57545 0.99354 0.28912 0.0
C2159 C 0.59148 0.99606 0.28137 0.0
C2160 C 0.59497 1.0 0.26134 0.0
C2161 C 0.5828 0.0015 0.24941 0.0
H2162 H 0.02671 0.63364 0.33479 0.0
H2163 H 0.99055 0.63977 0.29692 0.0
H2164 H 0.02285 0.6086 0.315 0.0
H2165 H 0.98663 0.61477 0.2773 0.0
H2166 H 0.00254 0.5852 0.23366 0.0
H2167 H 0.00536 0.60905 0.25466 0.0
H2168 H 0.99996 0.57772 0.30577 0.0
H2169 H 0.99749 0.55393 0.28472 0.0
C2170 C 0.01783 0.62954 0.32235 0.0
C2171 C 0.00898 0.63869 0.31736 0.0
C2172 C 0.01558 0.61518 0.31108 0.0
C2173 C 0.00452 0.6098 0.29453 0.0
C2174 C 0.99542 0.61876 0.2898 0.0
C2175 C 0.99759 0.63301 0.30111 0.0
C2176 C 0.00204 0.58344 0.24938 0.0
C2177 C 0.9998 0.5677 0.25755 0.0
C2178 C 0.00348 0.59702 0.2614 0.0
C2179 C 0.00283 0.59523 0.28187 0.0
C2180 C 0.00063 0.57951 0.29006 0.0
C2181 C 0.99904 0.56585 0.27801 0.0
H2182 H 0.36471 0.39173 0.33018 0.0
H2183 H 0.36417 0.34831 0.29934 0.0
H2184 H 0.39029 0.41265 0.31093 0.0
H2185 H 0.38946 0.36916 0.27987 0.0
H2186 H 0.44486 0.41082 0.26064 0.0
H2187 H 0.42084 0.39056 0.28203 0.0
H2188 H 0.39684 0.42327 0.27734 0.0
H2189 H 0.42119 0.44386 0.25658 0.0
C2190 C 0.37009 0.38666 0.31934 0.0
C2191 C 0.36243 0.36839 0.31625 0.0
C2192 C 0.38466 0.39864 0.30822 0.0
C2193 C 0.39188 0.39259 0.2938 0.0
C2194 C 0.38437 0.37428 0.291 0.0
C2195 C 0.36981 0.36232 0.30209 0.0
C2196 C 0.43455 0.41378 0.26434 0.0
C2197 C 0.43493 0.42894 0.25685 0.0
C2198 C 0.4207 0.40208 0.27644 0.0
C2199 C 0.4069 0.40528 0.28138 0.0
C2200 C 0.40735 0.4205 0.27401 0.0
C2201 C 0.42119 0.43219 0.26189 0.0
H2202 H 0.35521 0.31426 0.37511 0.0
H2203 H 0.29942 0.27589 0.37465 0.0
H2204 H 0.36095 0.29409 0.39408 0.0
H2205 H 0.30482 0.25613 0.39474 0.0
H2206 H 0.32024 0.21762 0.41831 0.0
H2207 H 0.31562 0.237 0.39648 0.0
H2208 H 0.35864 0.28255 0.42491 0.0
H2209 H 0.36383 0.26291 0.44568 0.0
C2210 C 0.34417 0.3015 0.37918 0.0
C2211 C 0.32689 0.29659 0.3734 0.0
C2212 C 0.3474 0.28997 0.39024 0.0
C2213 C 0.33337 0.27342 0.39619 0.0
C2214 C 0.31606 0.26855 0.39021 0.0
C2215 C 0.3129 0.27992 0.37876 0.0
C2216 C 0.3287 0.2318 0.4197 0.0
C2217 C 0.34236 0.23887 0.43355 0.0
C2218 C 0.32601 0.24296 0.40733 0.0
C2219 C 0.33668 0.26146 0.40887 0.0
C2220 C 0.35036 0.26843 0.42291 0.0
C2221 C 0.35328 0.25723 0.43496 0.0
H2222 H 0.68096 0.03088 0.39152 0.0
H2223 H 0.72443 0.03354 0.35849 0.0
H2224 H 0.70167 0.05695 0.41009 0.0
H2225 H 0.74515 0.05988 0.37675 0.0
H2226 H 0.77751 0.09138 0.42998 0.0
H2227 H 0.7569 0.06685 0.40956 0.0
H2228 H 0.722 0.08853 0.40801 0.0
H2229 H 0.74233 0.11275 0.42918 0.0
C2230 C 0.69493 0.03718 0.38807 0.0
C2231 C 0.70109 0.03012 0.37362 0.0
C2232 C 0.7068 0.05218 0.39864 0.0
C2233 C 0.72509 0.06047 0.39498 0.0
C2234 C 0.73117 0.05365 0.38015 0.0
C2235 C 0.7193 0.03863 0.36961 0.0
C2236 C 0.76537 0.09085 0.42544 0.0
C2237 C 0.76151 0.10397 0.43136 0.0
C2238 C 0.75366 0.0769 0.41349 0.0
C2239 C 0.7378 0.07572 0.4071 0.0
C2240 C 0.73402 0.08895 0.41282 0.0
C2241 C 0.74575 0.10292 0.4248 0.0
H2242 H 0.96927 0.64978 0.38943 0.0
H2243 H 0.96974 0.69447 0.36192 0.0
H2244 H 0.94326 0.64409 0.40834 0.0
H2245 H 0.94396 0.68908 0.38121 0.0
H2246 H 0.88816 0.66486 0.40613 0.0
H2247 H 0.91271 0.66874 0.38561 0.0
H2248 H 0.93589 0.65714 0.43517 0.0
H2249 H 0.91123 0.65309 0.45562 0.0
C2250 C 0.96379 0.65838 0.3874 0.0
C2251 C 0.97155 0.67259 0.37422 0.0
C2252 C 0.94895 0.65519 0.39834 0.0
C2253 C 0.94158 0.66619 0.3964 0.0
C2254 C 0.94918 0.68022 0.38291 0.0
C2255 C 0.964 0.68337 0.37191 0.0
C2256 C 0.89854 0.6632 0.41265 0.0
C2257 C 0.89778 0.65872 0.43251 0.0
C2258 C 0.91262 0.66544 0.40089 0.0
C2259 C 0.9263 0.66329 0.40873 0.0
C2260 C 0.92544 0.65863 0.42857 0.0
C2261 C 0.91132 0.65633 0.44031 0.0
H2262 H 0.35279 0.99009 0.72579 0.0
H2263 H 0.39503 0.03278 0.69334 0.0
H2264 H 0.37442 0.98681 0.745 0.0
H2265 H 0.41678 0.02927 0.71238 0.0
H2266 H 0.44942 0.03095 0.7663 0.0
H2267 H 0.42831 0.03407 0.74577 0.0
H2268 H 0.39597 0.97723 0.74213 0.0
H2269 H 0.41669 0.97412 0.76328 0.0
C2270 C 0.36671 0.99868 0.72264 0.0
C2271 C 0.37222 0.0117 0.70807 0.0
C2272 C 0.37912 0.99674 0.73359 0.0
C2273 C 0.39733 0.00776 0.73022 0.0
C2274 C 0.40285 0.0207 0.71549 0.0
C2275 C 0.3904 0.02264 0.70451 0.0
C2276 C 0.43773 0.01912 0.76125 0.0
C2277 C 0.4347 0.00228 0.76651 0.0
C2278 C 0.42575 0.02091 0.74927 0.0
C2279 C 0.41045 0.0059 0.74231 0.0
C2280 C 0.40753 0.98906 0.74742 0.0
C2281 C 0.4195 0.98728 0.75937 0.0
H2282 H 0.97259 0.36447 0.68928 0.0
H2283 H 0.00952 0.36 0.72754 0.0
H2284 H 0.97568 0.38941 0.70869 0.0
H2285 H 0.01268 0.3849 0.74677 0.0
H2286 H 0.99633 0.41454 0.78959 0.0
H2287 H 0.99371 0.39046 0.76915 0.0
H2288 H 0.99809 0.42063 0.71733 0.0
H2289 H 0.00037 0.44464 0.73784 0.0
C2290 C 0.98144 0.36888 0.70174 0.0
C2291 C 0.99076 0.36026 0.70693 0.0
C2292 C 0.98326 0.3832 0.71279 0.0
C2293 C 0.99434 0.38904 0.72931 0.0
C2294 C 0.00385 0.38055 0.73428 0.0
C2295 C 0.00211 0.36635 0.7232 0.0
C2296 C 0.99663 0.41599 0.77384 0.0
C2297 C 0.99855 0.43147 0.76532 0.0
C2298 C 0.99529 0.40227 0.76213 0.0
C2299 C 0.99575 0.40368 0.74163 0.0
C2300 C 0.99759 0.41913 0.73308 0.0
C2301 C 0.99906 0.43293 0.74482 0.0
H2302 H 0.63643 0.60729 0.69526 0.0
H2303 H 0.63499 0.65119 0.72243 0.0
H2304 H 0.61081 0.58669 0.71467 0.0
H2305 H 0.6092 0.63067 0.74144 0.0
H2306 H 0.57729 0.5901 0.7887 0.0
H2307 H 0.60216 0.61049 0.7684 0.0
H2308 H 0.57937 0.57535 0.71898 0.0
H2309 H 0.55455 0.55489 0.73936 0.0
C2310 C 0.63053 0.61252 0.70523 0.0
C2311 C 0.63775 0.63084 0.70738 0.0
C2312 C 0.61581 0.60073 0.71629 0.0
C2313 C 0.608 0.60703 0.72971 0.0
C2314 C 0.61507 0.62537 0.73152 0.0
C2315 C 0.62978 0.63713 0.72052 0.0
C2316 C 0.57751 0.58681 0.77345 0.0
C2317 C 0.56395 0.57088 0.76565 0.0
C2318 C 0.59176 0.5985 0.7618 0.0
C2319 C 0.59276 0.59458 0.74203 0.0
C2320 C 0.57915 0.57866 0.73421 0.0
C2321 C 0.56492 0.56695 0.74589 0.0
H2322 H 0.65124 0.68334 0.63503 0.0
H2323 H 0.69673 0.72648 0.66304 0.0
H2324 H 0.64679 0.70441 0.61607 0.0
H2325 H 0.69216 0.74761 0.64419 0.0
H2326 H 0.69087 0.77745 0.58906 0.0
H2327 H 0.69468 0.75683 0.60961 0.0
H2328 H 0.63832 0.72726 0.62 0.0
H2329 H 0.63449 0.748 0.59962 0.0
C2330 C 0.6602 0.69733 0.63725 0.0
C2331 C 0.67436 0.70327 0.65049 0.0
C2332 C 0.6576 0.7094 0.62646 0.0
C2333 C 0.66915 0.72767 0.62859 0.0
C2334 C 0.68317 0.7336 0.64205 0.0
C2335 C 0.68572 0.72152 0.65293 0.0
C2336 C 0.6793 0.76668 0.59591 0.0
C2337 C 0.66237 0.7644 0.59268 0.0
C2338 C 0.6815 0.75486 0.60769 0.0
C2339 C 0.66681 0.74044 0.61646 0.0
C2340 C 0.64987 0.73813 0.61325 0.0
C2341 C 0.64768 0.74999 0.60153 0.0
H2342 H 0.27697 0.96547 0.66788 0.0
H2343 H 0.32052 0.97265 0.63139 0.0
H2344 H 0.25678 0.93938 0.64878 0.0
H2345 H 0.30041 0.94658 0.61243 0.0
H2346 H 0.25519 0.9148 0.5686 0.0
H2347 H 0.27587 0.93929 0.5892 0.0
H2348 H 0.25012 0.90867 0.64084 0.0
H2349 H 0.22919 0.88423 0.62018 0.0
C2350 C 0.28225 0.96138 0.65591 0.0
C2351 C 0.3003 0.97113 0.65107 0.0
C2352 C 0.27071 0.94641 0.64504 0.0
C2353 C 0.27701 0.94101 0.62904 0.0
C2354 C 0.29514 0.95056 0.62451 0.0
C2355 C 0.30666 0.96543 0.63544 0.0
C2356 C 0.25394 0.91332 0.58435 0.0
C2357 C 0.24056 0.89763 0.59278 0.0
C2358 C 0.26587 0.92727 0.59614 0.0
C2359 C 0.26463 0.92589 0.61664 0.0
C2360 C 0.25132 0.91015 0.62509 0.0
C2361 C 0.23945 0.89612 0.61328 0.0
H2362 H 0.02948 0.34802 0.63013 0.0
H2363 H 0.03698 0.31157 0.66589 0.0
H2364 H 0.05554 0.35429 0.61093 0.0
H2365 H 0.06308 0.3178 0.64654 0.0
H2366 H 0.11844 0.34646 0.61796 0.0
H2367 H 0.09378 0.34219 0.63876 0.0
H2368 H 0.06304 0.33747 0.58729 0.0
H2369 H 0.08775 0.34202 0.56656 0.0
C2370 C 0.03677 0.34142 0.63397 0.0
C2371 C 0.03116 0.32926 0.64947 0.0
C2372 C 0.05163 0.34494 0.6229 0.0
C2373 C 0.06129 0.33646 0.62715 0.0
C2374 C 0.05597 0.32464 0.64301 0.0
C2375 C 0.041 0.32102 0.65402 0.0
C2376 C 0.10647 0.3447 0.61112 0.0
C2377 C 0.10502 0.34458 0.59063 0.0
C2378 C 0.09231 0.34209 0.62302 0.0
C2379 C 0.07648 0.3395 0.61465 0.0
C2380 C 0.07513 0.3396 0.59417 0.0
C2381 C 0.08921 0.34205 0.58229 0.0
H2382 H 0.31424 0.35563 0.65151 0.0
H2383 H 0.27597 0.29987 0.65083 0.0
H2384 H 0.29384 0.36164 0.63329 0.0
H2385 H 0.25599 0.30556 0.63153 0.0
H2386 H 0.21718 0.32067 0.60889 0.0
H2387 H 0.23674 0.31627 0.63064 0.0
H2388 H 0.28211 0.35977 0.60255 0.0
H2389 H 0.26228 0.36473 0.58182 0.0
C2390 C 0.30145 0.34466 0.64737 0.0
C2391 C 0.29664 0.32731 0.6526 0.0
C2392 C 0.28979 0.34806 0.63675 0.0
C2393 C 0.2732 0.33411 0.63072 0.0
C2394 C 0.26843 0.31674 0.63617 0.0
C2395 C 0.27993 0.31341 0.64716 0.0
C2396 C 0.23136 0.32932 0.60757 0.0
C2397 C 0.2383 0.34301 0.59376 0.0
C2398 C 0.24262 0.32674 0.6199 0.0
C2399 C 0.26113 0.33755 0.61837 0.0
C2400 C 0.26799 0.35135 0.60451 0.0
C2401 C 0.25667 0.35416 0.59249 0.0
H2402 H 0.67503 0.98512 0.62007 0.0
H2403 H 0.67465 0.9583 0.67326 0.0
H2404 H 0.671 0.95978 0.60086 0.0
H2405 H 0.67016 0.93267 0.65391 0.0
H2406 H 0.64009 0.88496 0.60855 0.0
H2407 H 0.64425 0.90988 0.62899 0.0
H2408 H 0.69126 0.94484 0.59624 0.0
H2409 H 0.68732 0.91989 0.57611 0.0
C2410 C 0.67396 0.97375 0.62766 0.0
C2411 C 0.67516 0.97365 0.64815 0.0
C2412 C 0.67174 0.95932 0.61666 0.0
C2413 C 0.6703 0.94436 0.62595 0.0
C2414 C 0.67118 0.94407 0.64646 0.0
C2415 C 0.6738 0.95871 0.65748 0.0
C2416 C 0.6513 0.89799 0.60578 0.0
C2417 C 0.66339 0.9006 0.59079 0.0
C2418 C 0.65373 0.91216 0.61751 0.0
C2419 C 0.66806 0.9292 0.61413 0.0
C2420 C 0.68008 0.93181 0.59906 0.0
C2421 C 0.67787 0.91759 0.58762 0.0
H2422 H 0.03289 0.72687 0.66662 0.0
H2423 H 0.03133 0.68388 0.63375 0.0
H2424 H 0.05918 0.74792 0.64839 0.0
H2425 H 0.05728 0.70486 0.61528 0.0
H2426 H 0.113 0.74552 0.59683 0.0
H2427 H 0.08874 0.72531 0.618 0.0
H2428 H 0.0666 0.75976 0.61546 0.0
H2429 H 0.09121 0.7803 0.595 0.0
C2430 C 0.0382 0.72193 0.65555 0.0
C2431 C 0.03004 0.70374 0.65159 0.0
C2432 C 0.05319 0.73397 0.64502 0.0
C2433 C 0.06032 0.72808 0.63032 0.0
C2434 C 0.0523 0.70984 0.62666 0.0
C2435 C 0.03734 0.69782 0.63717 0.0
C2436 C 0.10308 0.74889 0.60101 0.0
C2437 C 0.10402 0.7645 0.59414 0.0
C2438 C 0.08907 0.73722 0.61298 0.0
C2439 C 0.07568 0.74088 0.61838 0.0
C2440 C 0.07677 0.75661 0.61175 0.0
C2441 C 0.09076 0.76828 0.59979 0.0
H2442 H 0.01249 0.6495 0.7255 0.0
H2443 H 0.97056 0.6074 0.69212 0.0
H2444 H 0.01565 0.62783 0.7448 0.0
H2445 H 0.97395 0.58566 0.71121 0.0
H2446 H 0.97068 0.55265 0.76509 0.0
H2447 H 0.96824 0.57404 0.74444 0.0
H2448 H 0.02525 0.60619 0.7427 0.0
H2449 H 0.02767 0.58512 0.76399 0.0
C2450 C 0.00407 0.63561 0.72215 0.0
C2451 C 0.99125 0.63014 0.70732 0.0
C2452 C 0.00594 0.62319 0.73315 0.0
C2453 C 0.99503 0.605 0.72958 0.0
C2454 C 0.9824 0.59956 0.7145 0.0
C2455 C 0.98053 0.612 0.70348 0.0
C2456 C 0.98269 0.56436 0.76045 0.0
C2457 C 0.99937 0.56722 0.76628 0.0
C2458 C 0.9813 0.57651 0.7484 0.0
C2459 C 0.99655 0.59181 0.74189 0.0
C2460 C 0.01323 0.59461 0.74761 0.0
C2461 C 0.01463 0.58245 0.75965 0.0
H2462 H 0.34637 0.36232 0.72628 0.0
H2463 H 0.39028 0.36676 0.69258 0.0
H2464 H 0.36663 0.38832 0.74519 0.0
H2465 H 0.41068 0.39236 0.71195 0.0
H2466 H 0.44145 0.44701 0.73899 0.0
H2467 H 0.42052 0.42249 0.71862 0.0
H2468 H 0.3886 0.39703 0.76972 0.0
H2469 H 0.40931 0.42183 0.78988 0.0
C2470 C 0.36038 0.36886 0.72294 0.0
C2471 C 0.36675 0.36251 0.70797 0.0
C2472 C 0.37202 0.3837 0.73387 0.0
C2473 C 0.39034 0.39242 0.73022 0.0
C2474 C 0.39665 0.38616 0.71502 0.0
C2475 C 0.38498 0.37142 0.70396 0.0
C2476 C 0.42995 0.43614 0.74582 0.0
C2477 C 0.427 0.43631 0.76601 0.0
C2478 C 0.41797 0.42206 0.73418 0.0
C2479 C 0.40284 0.40772 0.74249 0.0
C2480 C 0.39991 0.40796 0.76272 0.0
C2481 C 0.4118 0.42214 0.77431 0.0
H2482 H 0.63554 0.02915 0.69098 0.0
H2483 H 0.63461 0.98532 0.72119 0.0
H2484 H 0.61029 0.02518 0.71039 0.0
H2485 H 0.60971 0.9816 0.74088 0.0
H2486 H 0.55584 0.97039 0.76244 0.0
H2487 H 0.57874 0.97291 0.74004 0.0
H2488 H 0.60476 0.02983 0.74398 0.0
H2489 H 0.58146 0.02732 0.76567 0.0
C2490 C 0.62986 0.01859 0.70167 0.0
C2491 C 0.63707 0.00757 0.7046 0.0
C2492 C 0.61549 0.0164 0.71289 0.0
C2493 C 0.60805 0.00315 0.7273 0.0
C2494 C 0.61497 0.99181 0.72979 0.0
C2495 C 0.62931 0.99399 0.71855 0.0
C2496 C 0.56633 0.98344 0.75834 0.0
C2497 C 0.56683 0.99865 0.7659 0.0
C2498 C 0.57956 0.98488 0.74565 0.0
C2499 C 0.5936 0.00157 0.74021 0.0
C2500 C 0.59402 0.01677 0.74767 0.0
C2501 C 0.5808 0.01533 0.76034 0.0
loop_
_geom_bond_atom_site_label_1
_geom_bond_atom_site_label_2
_geom_bond_distance
_geom_bond_site_symmetry_2
_ccdc_geom_bond_type
In0 O1 2.294 1_455 S
In0 O2 2.326 . S
In0 O6 2.266 1_455 S
In0 O7 2.326 1_454 S
In0 O8 2.266 1_554 S
In0 O9 2.326 1_454 S
In0 O11 2.294 . S
In0 O12 2.326 . S
O1 In0 2.294 1_655 S
O1 C10 1.239 1_655 S
O2 In0 2.326 . S
O2 C10 1.253 . S
C3 O6 1.252 1_556 S
C3 O7 1.260 . S
C4 O11 1.240 . S
C4 O12 1.252 . S
C5 O8 1.252 . S
C5 O9 1.260 1_455 S
O6 In0 2.266 1_655 S
O6 C3 1.252 1_554 S
O7 In0 2.326 1_656 S
O7 C3 1.260 . S
O8 In0 2.266 1_556 S
O8 C5 1.252 . S
O9 In0 2.326 1_656 S
O9 C5 1.260 1_655 S
C10 O1 1.239 1_455 S
C10 O2 1.253 . S
O11 In0 2.294 . S
O11 C4 1.240 . S
O12 In0 2.326 . S
O12 C4 1.252 . S
In13 O14 2.294 . S
In13 O15 2.326 . S
In13 O19 2.266 . S
In13 O20 2.326 1_554 S
In13 O21 2.266 1_554 S
In13 O22 2.326 1_554 S
In13 O24 2.294 . S
In13 O25 2.326 . S
O14 In13 2.294 . S
O14 C23 1.240 . S
O15 In13 2.326 . S
O15 C23 1.252 . S
C16 O19 1.252 1_556 S
C16 O20 1.260 . S
C17 O24 1.240 . S
C17 O25 1.252 . S
C18 O21 1.252 . S
C18 O22 1.260 . S
O19 In13 2.266 . S
O19 C16 1.252 1_554 S
O20 In13 2.326 1_556 S
O20 C16 1.260 . S
O21 In13 2.266 1_556 S
O21 C18 1.252 . S
O22 In13 2.326 1_556 S
O22 C18 1.260 . S
C23 O14 1.240 . S
C23 O15 1.252 . S
O24 In13 2.294 . S
O24 C17 1.240 . S
O25 In13 2.326 . S
O25 C17 1.252 . S
In26 O27 2.294 . S
In26 O28 2.326 1_554 S
In26 O32 2.266 . S
In26 O33 2.326 1_545 S
In26 O34 2.266 1_545 S
In26 O35 2.326 1_545 S
In26 O37 2.294 1_544 S
In26 O38 2.326 1_554 S
O27 In26 2.294 . S
O27 C36 1.240 1_554 S
O28 In26 2.326 1_556 S
O28 C36 1.252 . S
C29 O32 1.252 . S
C29 O33 1.260 1_545 S
C30 O37 1.232 1_545 S
C30 O38 1.267 . S
C31 O34 1.252 . S
C31 O35 1.260 . S
O32 In26 2.266 . S
O32 C29 1.252 . S
O33 In26 2.326 1_565 S
O33 C29 1.260 1_565 S
O34 In26 2.266 1_565 S
O34 C31 1.252 . S
O35 In26 2.326 1_565 S
O35 C31 1.260 . S
C36 O27 1.240 1_556 S
C36 O28 1.252 . S
O37 In26 2.294 1_566 S
O37 C30 1.232 1_565 S
O38 In26 2.326 1_556 S
O38 C30 1.267 . S
In39 O40 2.293 1_554 S
In39 O41 2.326 1_454 S
In39 O45 2.265 . S
In39 O46 2.326 . S
In39 O47 2.267 1_455 S
In39 O48 2.324 . S
In39 O50 2.296 1_455 S
In39 O51 2.327 1_454 S
O40 In39 2.293 1_556 S
O40 C49 1.273 . S
O41 In39 2.326 1_656 S
O41 C49 1.195 1_655 S
C42 O45 1.252 . S
C42 O46 1.260 . S
C43 O50 1.240 1_556 S
C43 O51 1.252 . S
C44 O47 1.286 . S
C44 O48 1.235 1_655 S
O45 In39 2.265 . S
O45 C42 1.252 . S
O46 In39 2.326 . S
O46 C42 1.260 . S
O47 In39 2.267 1_655 S
O47 C44 1.286 . S
O48 In39 2.324 . S
O48 C44 1.235 1_455 S
C49 O40 1.273 . S
C49 O41 1.195 1_455 S
O50 In39 2.296 1_655 S
O50 C43 1.240 1_554 S
O51 In39 2.327 1_656 S
O51 C43 1.252 . S
In52 O53 2.294 1_554 S
In52 O54 2.326 1_554 S
In52 O58 2.266 . S
In52 O59 2.326 . S
In52 O60 2.266 . S
In52 O61 2.326 . S
In52 O63 2.294 . S
In52 O64 2.326 1_554 S
O53 In52 2.294 1_556 S
O53 C62 1.240 . S
O54 In52 2.326 1_556 S
O54 C62 1.252 . S
C55 O58 1.252 . S
C55 O59 1.260 . S
C56 O63 1.240 1_556 S
C56 O64 1.252 . S
C57 O60 1.252 . S
C57 O61 1.260 . S
O58 In52 2.266 . S
O58 C55 1.252 . S
O59 In52 2.326 . S
O59 C55 1.260 . S
O60 In52 2.266 . S
O60 C57 1.252 . S
O61 In52 2.326 . S
O61 C57 1.260 . S
C62 O53 1.240 . S
C62 O54 1.252 . S
O63 In52 2.294 . S
O63 C56 1.240 1_554 S
O64 In52 2.326 1_556 S
O64 C56 1.252 . S
In65 O66 2.293 . S
In65 O67 2.326 1_545 S
In65 O71 2.265 . S
In65 O72 2.326 1_554 S
In65 O73 2.267 1_544 S
In65 O74 2.324 1_554 S
In65 O76 2.296 1_545 S
In65 O77 2.327 1_545 S
O66 In65 2.293 . S
O66 C75 1.273 . S
O67 In65 2.326 1_565 S
O67 C75 1.196 1_565 S
C68 O71 1.252 1_556 S
C68 O72 1.260 . S
C69 O76 1.240 . S
C69 O77 1.252 . S
C70 O73 1.289 . S
C70 O74 1.234 1_565 S
O71 In65 2.265 . S
O71 C68 1.252 1_554 S
O72 In65 2.326 1_556 S
O72 C68 1.260 . S
O73 In65 2.267 1_566 S
O73 C70 1.289 . S
O74 In65 2.324 1_556 S
O74 C70 1.234 1_545 S
C75 O66 1.273 . S
C75 O67 1.196 1_545 S
O76 In65 2.296 1_565 S
O76 C69 1.240 . S
O77 In65 2.327 1_565 S
O77 C69 1.252 . S
In78 O79 2.294 . S
In78 O80 2.326 . S
In78 O84 2.266 . S
In78 O85 2.326 . S
In78 O86 2.266 . S
In78 O87 2.326 . S
In78 O89 2.294 . S
In78 O90 2.326 . S
O79 In78 2.294 . S
O79 C88 1.240 . S
O80 In78 2.326 . S
O80 C88 1.252 . S
C81 O84 1.252 . S
C81 O85 1.260 . S
C82 O89 1.240 . S
C82 O90 1.252 . S
C83 O86 1.252 . S
C83 O87 1.260 . S
O84 In78 2.266 . S
O84 C81 1.252 . S
O85 In78 2.326 . S
O85 C81 1.260 . S
O86 In78 2.266 . S
O86 C83 1.252 . S
O87 In78 2.326 . S
O87 C83 1.260 . S
C88 O79 1.240 . S
C88 O80 1.252 . S
O89 In78 2.294 . S
O89 C82 1.240 . S
O90 In78 2.326 . S
O90 C82 1.252 . S
In91 O92 2.294 . S
In91 O93 2.326 . S
In91 O97 2.266 . S
In91 O98 2.326 . S
In91 O99 2.266 . S
In91 O100 2.326 . S
In91 O102 2.294 1_565 S
In91 O103 2.326 1_565 S
O92 In91 2.294 . S
O92 C101 1.240 . S
O93 In91 2.326 . S
O93 C101 1.252 . S
C94 O97 1.252 . S
C94 O98 1.260 . S
C95 O102 1.240 . S
C95 O103 1.252 . S
C96 O99 1.252 . S
C96 O100 1.260 . S
O97 In91 2.266 . S
O97 C94 1.252 . S
O98 In91 2.326 . S
O98 C94 1.260 . S
O99 In91 2.266 . S
O99 C96 1.252 . S
O100 In91 2.326 . S
O100 C96 1.260 . S
C101 O92 1.240 . S
C101 O93 1.252 . S
O102 In91 2.294 1_545 S
O102 C95 1.240 . S
O103 In91 2.326 1_545 S
O103 C95 1.252 . S
In104 O105 2.294 . S
In104 O106 2.326 . S
In104 O110 2.266 . S
In104 O111 2.326 . S
In104 O112 2.266 1_455 S
In104 O113 2.326 1_455 S
In104 O115 2.294 . S
In104 O116 2.326 . S
O105 In104 2.294 . S
O105 C114 1.240 . S
O106 In104 2.326 . S
O106 C114 1.252 . S
C107 O110 1.252 . S
C107 O111 1.260 . S
C108 O115 1.240 . S
C108 O116 1.252 . S
C109 O112 1.252 . S
C109 O113 1.260 . S
O110 In104 2.266 . S
O110 C107 1.252 . S
O111 In104 2.326 . S
O111 C107 1.260 . S
O112 In104 2.266 1_655 S
O112 C109 1.252 . S
O113 In104 2.326 1_655 S
O113 C109 1.260 . S
C114 O105 1.240 . S
C114 O106 1.252 . S
O115 In104 2.294 . S
O115 C108 1.240 . S
O116 In104 2.326 . S
O116 C108 1.252 . S
In117 O118 2.294 . S
In117 O119 2.326 . S
In117 O123 2.266 1_565 S
In117 O124 2.326 1_565 S
In117 O125 2.266 . S
In117 O126 2.326 . S
In117 O128 2.294 . S
In117 O129 2.326 . S
O118 In117 2.294 . S
O118 C127 1.240 . S
O119 In117 2.326 . S
O119 C127 1.252 . S
C120 O123 1.252 . S
C120 O124 1.260 . S
C121 O128 1.240 . S
C121 O129 1.252 . S
C122 O125 1.252 . S
C122 O126 1.260 . S
O123 In117 2.266 1_545 S
O123 C120 1.252 . S
O124 In117 2.326 1_545 S
O124 C120 1.260 . S
O125 In117 2.266 . S
O125 C122 1.252 . S
O126 In117 2.326 . S
O126 C122 1.260 . S
C127 O118 1.240 . S
C127 O119 1.252 . S
O128 In117 2.294 . S
O128 C121 1.240 . S
O129 In117 2.326 . S
O129 C121 1.252 . S
In130 O131 2.294 . S
In130 O132 2.326 . S
In130 O136 2.266 1_455 S
In130 O137 2.326 1_455 S
In130 O138 2.266 . S
In130 O139 2.326 . S
In130 O141 2.294 . S
In130 O142 2.326 . S
O131 In130 2.294 . S
O131 C140 1.240 . S
O132 In130 2.326 . S
O132 C140 1.252 . S
C133 O136 1.252 . S
C133 O137 1.260 . S
C134 O141 1.240 . S
C134 O142 1.252 . S
C135 O138 1.252 . S
C135 O139 1.260 . S
O136 In130 2.266 1_655 S
O136 C133 1.252 . S
O137 In130 2.326 1_655 S
O137 C133 1.260 . S
O138 In130 2.266 . S
O138 C135 1.252 . S
O139 In130 2.326 . S
O139 C135 1.260 . S
C140 O131 1.240 . S
C140 O132 1.252 . S
O141 In130 2.294 . S
O141 C134 1.240 . S
O142 In130 2.326 . S
O142 C134 1.252 . S
In143 O144 2.294 . S
In143 O145 2.326 . S
In143 O149 2.266 . S
In143 O150 2.326 . S
In143 O151 2.266 . S
In143 O152 2.326 . S
In143 O154 2.294 . S
In143 O155 2.326 . S
O144 In143 2.294 . S
O144 C153 1.240 . S
O145 In143 2.326 . S
O145 C153 1.252 . S
C146 O149 1.252 . S
C146 O150 1.260 . S
C147 O154 1.240 . S
C147 O155 1.252 . S
C148 O151 1.252 . S
C148 O152 1.260 . S
O149 In143 2.266 . S
O149 C146 1.252 . S
O150 In143 2.326 . S
O150 C146 1.260 . S
O151 In143 2.266 . S
O151 C148 1.252 . S
O152 In143 2.326 . S
O152 C148 1.260 . S
C153 O144 1.240 . S
C153 O145 1.252 . S
O154 In143 2.294 . S
O154 C147 1.240 . S
O155 In143 2.326 . S
O155 C147 1.252 . S
In156 O157 2.294 . S
In156 O158 2.326 . S
In156 O162 2.266 . S
In156 O163 2.326 . S
In156 O164 2.266 1_545 S
In156 O165 2.326 1_545 S
In156 O167 2.294 . S
In156 O168 2.326 . S
O157 In156 2.294 . S
O157 C166 1.240 . S
O158 In156 2.326 . S
O158 C166 1.252 . S
C159 O162 1.252 . S
C159 O163 1.260 . S
C160 O167 1.240 . S
C160 O168 1.252 . S
C161 O164 1.252 . S
C161 O165 1.260 . S
O162 In156 2.266 . S
O162 C159 1.252 . S
O163 In156 2.326 . S
O163 C159 1.260 . S
O164 In156 2.266 1_565 S
O164 C161 1.252 . S
O165 In156 2.326 1_565 S
O165 C161 1.260 . S
C166 O157 1.240 . S
C166 O158 1.252 . S
O167 In156 2.294 . S
O167 C160 1.240 . S
O168 In156 2.326 . S
O168 C160 1.252 . S
In169 O170 2.294 . S
In169 O171 2.326 . S
In169 O175 2.266 . S
In169 O176 2.326 . S
In169 O177 2.266 1_655 S
In169 O178 2.326 1_655 S
In169 O180 2.294 . S
In169 O181 2.326 . S
O170 In169 2.294 . S
O170 C179 1.240 . S
O171 In169 2.326 . S
O171 C179 1.252 . S
C172 O175 1.252 . S
C172 O176 1.260 . S
C173 O180 1.240 . S
C173 O181 1.252 . S
C174 O177 1.252 . S
C174 O178 1.260 . S
O175 In169 2.266 . S
O175 C172 1.252 . S
O176 In169 2.326 . S
O176 C172 1.260 . S
O177 In169 2.266 1_455 S
O177 C174 1.252 . S
O178 In169 2.326 1_455 S
O178 C174 1.260 . S
C179 O170 1.240 . S
C179 O171 1.252 . S
O180 In169 2.294 . S
O180 C173 1.240 . S
O181 In169 2.326 . S
O181 C173 1.252 . S
In182 O183 2.294 . S
In182 O184 2.326 . S
In182 O188 2.266 . S
In182 O189 2.326 . S
In182 O190 2.266 . S
In182 O191 2.326 . S
In182 O193 2.294 . S
In182 O194 2.326 . S
O183 In182 2.294 . S
O183 C192 1.240 . S
O184 In182 2.326 . S
O184 C192 1.252 . S
C185 O188 1.252 . S
C185 O189 1.260 . S
C186 O193 1.240 . S
C186 O194 1.252 . S
C187 O190 1.252 . S
C187 O191 1.260 . S
O188 In182 2.266 . S
O188 C185 1.252 . S
O189 In182 2.326 . S
O189 C185 1.260 . S
O190 In182 2.266 . S
O190 C187 1.252 . S
O191 In182 2.326 . S
O191 C187 1.260 . S
C192 O183 1.240 . S
C192 O184 1.252 . S
O193 In182 2.294 . S
O193 C186 1.240 . S
O194 In182 2.326 . S
O194 C186 1.252 . S
In195 O196 2.294 . S
In195 O197 2.326 . S
In195 O201 2.266 . S
In195 O202 2.326 . S
In195 O203 2.266 . S
In195 O204 2.326 . S
In195 O206 2.294 . S
In195 O207 2.326 . S
O196 In195 2.294 . S
O196 C205 1.240 . S
O197 In195 2.326 . S
O197 C205 1.252 . S
C198 O201 1.252 . S
C198 O202 1.260 . S
C199 O206 1.240 . S
C199 O207 1.252 . S
C200 O203 1.252 . S
C200 O204 1.260 . S
O201 In195 2.266 . S
O201 C198 1.252 . S
O202 In195 2.326 . S
O202 C198 1.260 . S
O203 In195 2.266 . S
O203 C200 1.252 . S
O204 In195 2.326 . S
O204 C200 1.260 . S
C205 O196 1.240 . S
C205 O197 1.252 . S
O206 In195 2.294 . S
O206 C199 1.240 . S
O207 In195 2.326 . S
O207 C199 1.252 . S
In208 O209 2.294 . S
In208 O210 2.326 . S
In208 O214 2.266 . S
In208 O215 2.326 . S
In208 O216 2.266 . S
In208 O217 2.326 . S
In208 O219 2.294 1_545 S
In208 O220 2.326 1_545 S
O209 In208 2.294 . S
O209 C218 1.240 . S
O210 In208 2.326 . S
O210 C218 1.252 . S
C211 O214 1.252 . S
C211 O215 1.260 . S
C212 O219 1.240 . S
C212 O220 1.252 . S
C213 O216 1.252 . S
C213 O217 1.260 . S
O214 In208 2.266 . S
O214 C211 1.252 . S
O215 In208 2.326 . S
O215 C211 1.260 . S
O216 In208 2.266 . S
O216 C213 1.252 . S
O217 In208 2.326 . S
O217 C213 1.260 . S
C218 O209 1.240 . S
C218 O210 1.252 . S
O219 In208 2.294 1_565 S
O219 C212 1.240 . S
O220 In208 2.326 1_565 S
O220 C212 1.252 . S
In221 O222 2.294 . S
In221 O223 2.326 . S
In221 O227 2.266 . S
In221 O228 2.326 . S
In221 O229 2.266 1_655 S
In221 O230 2.326 1_655 S
In221 O232 2.294 . S
In221 O233 2.326 . S
O222 In221 2.294 . S
O222 C231 1.240 . S
O223 In221 2.326 . S
O223 C231 1.252 . S
C224 O227 1.252 . S
C224 O228 1.260 . S
C225 O232 1.240 . S
C225 O233 1.252 . S
C226 O229 1.252 . S
C226 O230 1.260 . S
O227 In221 2.266 . S
O227 C224 1.252 . S
O228 In221 2.326 . S
O228 C224 1.260 . S
O229 In221 2.266 1_455 S
O229 C226 1.252 . S
O230 In221 2.326 1_455 S
O230 C226 1.260 . S
C231 O222 1.240 . S
C231 O223 1.252 . S
O232 In221 2.294 . S
O232 C225 1.240 . S
O233 In221 2.326 . S
O233 C225 1.252 . S
C234 C235 1.384 . S
C234 C236 1.384 . S
C234 H262 0.931 . S
C235 C234 1.384 . S
C235 C238 1.382 . S
C236 C234 1.384 . S
C236 C237 1.381 . S
C236 H263 0.930 . S
C237 C236 1.381 . S
C237 C239 1.381 . S
C237 C240 1.487 . S
C238 C235 1.382 . S
C238 C239 1.387 . S
C238 H264 0.930 . S
C239 C237 1.381 . S
C239 C238 1.387 . S
C239 H265 0.931 . S
C240 C237 1.487 . S
C240 C247 1.399 . S
C240 N278 1.343 . S
C241 C242 1.384 . S
C241 C243 1.384 . S
C241 H266 0.931 . S
C242 C241 1.384 . S
C242 C245 1.382 . S
C243 C241 1.384 . S
C243 C244 1.381 . S
C243 H267 0.930 . S
C244 C243 1.381 . S
C244 C246 1.381 . S
C244 C247 1.487 . S
C245 C242 1.382 . S
C245 C246 1.387 . S
C245 H268 0.930 . S
C246 C244 1.381 . S
C246 C245 1.387 . S
C246 H269 0.931 . S
C247 C240 1.399 . S
C247 C244 1.487 . S
C247 N279 1.343 . S
C248 C249 1.384 . S
C248 C250 1.384 . S
C248 H270 0.931 . S
C249 C248 1.384 . S
C249 C252 1.382 . S
C250 C248 1.384 . S
C250 C251 1.381 . S
C250 H271 0.930 . S
C251 C250 1.381 . S
C251 C253 1.381 . S
C251 C254 1.487 . S
C252 C249 1.382 . S
C252 C253 1.387 . S
C252 H272 0.930 . S
C253 C251 1.381 . S
C253 C252 1.387 . S
C253 H273 0.931 . S
C254 C251 1.487 . S
C254 C261 1.399 . S
C254 N279 1.343 . S
C255 C256 1.384 . S
C255 C257 1.384 . S
C255 H274 0.931 . S
C256 C255 1.384 . S
C256 C259 1.382 . S
C257 C255 1.384 . S
C257 C258 1.381 . S
C257 H275 0.930 . S
C258 C257 1.381 . S
C258 C260 1.381 . S
C258 C261 1.487 . S
C259 C256 1.382 . S
C259 C260 1.387 . S
C259 H276 0.930 . S
C260 C258 1.381 . S
C260 C259 1.387 . S
C260 H277 0.931 . S
C261 C254 1.399 . S
C261 C258 1.487 . S
C261 N278 1.343 . S
H262 C234 0.931 . S
H263 C236 0.930 . S
H264 C238 0.930 . S
H265 C239 0.931 . S
H266 C241 0.931 . S
H267 C243 0.930 . S
H268 C245 0.930 . S
H269 C246 0.931 . S
H270 C248 0.931 . S
H271 C250 0.930 . S
H272 C252 0.930 . S
H273 C253 0.931 . S
H274 C255 0.931 . S
H275 C257 0.930 . S
H276 C259 0.930 . S
H277 C260 0.931 . S
N278 C240 1.343 . S
N278 C261 1.343 . S
N279 C247 1.343 . S
N279 C254 1.343 . S
C280 C281 1.384 . S
C280 C282 1.384 . S
C280 H308 0.931 . S
C281 C280 1.384 . S
C281 C284 1.382 . S
C282 C280 1.384 . S
C282 C283 1.381 . S
C282 H309 0.930 . S
C283 C282 1.381 . S
C283 C285 1.381 . S
C283 C286 1.487 . S
C284 C281 1.382 . S
C284 C285 1.387 . S
C284 H310 0.930 . S
C285 C283 1.381 . S
C285 C284 1.387 . S
C285 H311 0.931 . S
C286 C283 1.487 . S
C286 C293 1.399 . S
C286 N324 1.343 . S
C287 C288 1.384 . S
C287 C289 1.384 . S
C287 H312 0.931 . S
C288 C287 1.384 . S
C288 C291 1.382 . S
C289 C287 1.384 . S
C289 C290 1.381 . S
C289 H313 0.930 . S
C290 C289 1.381 . S
C290 C292 1.381 . S
C290 C293 1.487 . S
C291 C288 1.382 . S
C291 C292 1.387 . S
C291 H314 0.930 . S
C292 C290 1.381 . S
C292 C291 1.387 . S
C292 H315 0.931 . S
C293 C286 1.399 . S
C293 C290 1.487 . S
C293 N325 1.343 . S
C294 C295 1.384 . S
C294 C296 1.384 . S
C294 H316 0.931 . S
C295 C294 1.384 . S
C295 C298 1.382 . S
C296 C294 1.384 . S
C296 C297 1.381 . S
C296 H317 0.930 . S
C297 C296 1.381 . S
C297 C299 1.381 . S
C297 C300 1.487 . S
C298 C295 1.382 . S
C298 C299 1.387 . S
C298 H318 0.930 . S
C299 C297 1.381 . S
C299 C298 1.387 . S
C299 H319 0.931 . S
C300 C297 1.487 . S
C300 C307 1.399 . S
C300 N325 1.343 . S
C301 C302 1.384 . S
C301 C303 1.384 . S
C301 H320 0.931 . S
C302 C301 1.384 . S
C302 C305 1.382 . S
C303 C301 1.384 . S
C303 C304 1.381 . S
C303 H321 0.930 . S
C304 C303 1.381 . S
C304 C306 1.381 . S
C304 C307 1.487 . S
C305 C302 1.382 . S
C305 C306 1.387 . S
C305 H322 0.930 . S
C306 C304 1.381 . S
C306 C305 1.387 . S
C306 H323 0.931 . S
C307 C300 1.399 . S
C307 C304 1.487 . S
C307 N324 1.343 . S
H308 C280 0.931 . S
H309 C282 0.930 . S
H310 C284 0.930 . S
H311 C285 0.931 . S
H312 C287 0.931 . S
H313 C289 0.930 . S
H314 C291 0.930 . S
H315 C292 0.931 . S
H316 C294 0.931 . S
H317 C296 0.930 . S
H318 C298 0.930 . S
H319 C299 0.931 . S
H320 C301 0.931 . S
H321 C303 0.930 . S
H322 C305 0.930 . S
H323 C306 0.931 . S
N324 C286 1.343 . S
N324 C307 1.343 . S
N325 C293 1.343 . S
N325 C300 1.343 . S
C326 C327 1.384 . S
C326 C328 1.384 . S
C326 H354 0.931 . S
C327 C326 1.384 . S
C327 C330 1.382 . S
C328 C326 1.384 . S
C328 C329 1.381 . S
C328 H355 0.930 . S
C329 C328 1.381 . S
C329 C331 1.381 . S
C329 C332 1.487 . S
C330 C327 1.382 . S
C330 C331 1.387 . S
C330 H356 0.930 . S
C331 C329 1.381 . S
C331 C330 1.387 . S
C331 H357 0.931 . S
C332 C329 1.487 . S
C332 C339 1.399 . S
C332 N370 1.343 . S
C333 C334 1.384 . S
C333 C335 1.384 . S
C333 H358 0.931 . S
C334 C333 1.384 . S
C334 C337 1.382 . S
C335 C333 1.384 . S
C335 C336 1.381 . S
C335 H359 0.930 . S
C336 C335 1.381 . S
C336 C338 1.381 . S
C336 C339 1.487 . S
C337 C334 1.382 . S
C337 C338 1.387 . S
C337 H360 0.930 . S
C338 C336 1.381 . S
C338 C337 1.387 . S
C338 H361 0.931 . S
C339 C332 1.399 . S
C339 C336 1.487 . S
C339 N371 1.343 . S
C340 C341 1.384 . S
C340 C342 1.384 . S
C340 H362 0.931 . S
C341 C340 1.384 . S
C341 C344 1.382 . S
C342 C340 1.384 . S
C342 C343 1.381 . S
C342 H363 0.930 . S
C343 C342 1.381 . S
C343 C345 1.381 . S
C343 C346 1.487 . S
C344 C341 1.382 . S
C344 C345 1.387 . S
C344 H364 0.930 . S
C345 C343 1.381 . S
C345 C344 1.387 . S
C345 H365 0.931 . S
C346 C343 1.487 . S
C346 C353 1.399 . S
C346 N371 1.343 . S
C347 C348 1.384 . S
C347 C349 1.384 . S
C347 H366 0.931 . S
C348 C347 1.384 . S
C348 C351 1.382 . S
C349 C347 1.384 . S
C349 C350 1.381 . S
C349 H367 0.930 . S
C350 C349 1.381 . S
C350 C352 1.381 . S
C350 C353 1.487 . S
C351 C348 1.382 . S
C351 C352 1.387 . S
C351 H368 0.930 . S
C352 C350 1.381 . S
C352 C351 1.387 . S
C352 H369 0.931 . S
C353 C346 1.399 . S
C353 C350 1.487 . S
C353 N370 1.343 . S
H354 C326 0.931 . S
H355 C328 0.930 . S
H356 C330 0.930 . S
H357 C331 0.931 . S
H358 C333 0.931 . S
H359 C335 0.930 . S
H360 C337 0.930 . S
H361 C338 0.931 . S
H362 C340 0.931 . S
H363 C342 0.930 . S
H364 C344 0.930 . S
H365 C345 0.931 . S
H366 C347 0.931 . S
H367 C349 0.930 . S
H368 C351 0.930 . S
H369 C352 0.931 . S
N370 C332 1.343 . S
N370 C353 1.343 . S
N371 C339 1.343 . S
N371 C346 1.343 . S
C372 C373 1.384 . S
C372 C374 1.384 . S
C372 H400 0.931 . S
C373 C372 1.384 . S
C373 C376 1.382 . S
C374 C372 1.384 . S
C374 C375 1.381 . S
C374 H401 0.930 . S
C375 C374 1.381 . S
C375 C377 1.381 . S
C375 C378 1.487 . S
C376 C373 1.382 . S
C376 C377 1.387 . S
C376 H402 0.930 . S
C377 C375 1.381 . S
C377 C376 1.387 . S
C377 H403 0.931 . S
C378 C375 1.487 . S
C378 C385 1.399 . S
C378 N416 1.343 . S
C379 C380 1.384 . S
C379 C381 1.384 . S
C379 H404 0.931 . S
C380 C379 1.384 . S
C380 C383 1.382 . S
C381 C379 1.384 . S
C381 C382 1.381 . S
C381 H405 0.930 . S
C382 C381 1.381 . S
C382 C384 1.381 . S
C382 C385 1.487 . S
C383 C380 1.382 . S
C383 C384 1.387 . S
C383 H406 0.930 . S
C384 C382 1.381 . S
C384 C383 1.387 . S
C384 H407 0.931 . S
C385 C378 1.399 . S
C385 C382 1.487 . S
C385 N417 1.343 . S
C386 C387 1.384 . S
C386 C388 1.384 . S
C386 H408 0.931 . S
C387 C386 1.384 . S
C387 C390 1.382 . S
C388 C386 1.384 . S
C388 C389 1.381 . S
C388 H409 0.930 . S
C389 C388 1.381 . S
C389 C391 1.381 . S
C389 C392 1.487 . S
C390 C387 1.382 . S
C390 C391 1.387 . S
C390 H410 0.930 . S
C391 C389 1.381 . S
C391 C390 1.387 . S
C391 H411 0.931 . S
C392 C389 1.487 . S
C392 C399 1.399 . S
C392 N417 1.343 . S
C393 C394 1.384 . S
C393 C395 1.384 . S
C393 H412 0.931 . S
C394 C393 1.384 . S
C394 C397 1.382 . S
C395 C393 1.384 . S
C395 C396 1.381 . S
C395 H413 0.930 . S
C396 C395 1.381 . S
C396 C398 1.381 . S
C396 C399 1.487 . S
C397 C394 1.382 . S
C397 C398 1.387 . S
C397 H414 0.930 . S
C398 C396 1.381 . S
C398 C397 1.387 . S
C398 H415 0.931 . S
C399 C392 1.399 . S
C399 C396 1.487 . S
C399 N416 1.343 . S
H400 C372 0.931 . S
H401 C374 0.930 . S
H402 C376 0.930 . S
H403 C377 0.931 . S
H404 C379 0.931 . S
H405 C381 0.930 . S
H406 C383 0.930 . S
H407 C384 0.931 . S
H408 C386 0.931 . S
H409 C388 0.930 . S
H410 C390 0.930 . S
H411 C391 0.931 . S
H412 C393 0.931 . S
H413 C395 0.930 . S
H414 C397 0.930 . S
H415 C398 0.931 . S
N416 C378 1.343 . S
N416 C399 1.343 . S
N417 C385 1.343 . S
N417 C392 1.343 . S
C418 C419 1.384 . S
C418 C420 1.384 . S
C418 H446 0.931 . S
C419 C418 1.384 . S
C419 C422 1.382 . S
C420 C418 1.384 . S
C420 C421 1.381 . S
C420 H447 0.930 . S
C421 C420 1.381 . S
C421 C423 1.381 . S
C421 C424 1.487 . S
C422 C419 1.382 . S
C422 C423 1.387 . S
C422 H448 0.930 . S
C423 C421 1.381 . S
C423 C422 1.387 . S
C423 H449 0.931 . S
C424 C421 1.487 . S
C424 C431 1.399 . S
C424 N462 1.343 . S
C425 C426 1.384 . S
C425 C427 1.384 . S
C425 H450 0.931 . S
C426 C425 1.384 . S
C426 C429 1.382 . S
C427 C425 1.384 . S
C427 C428 1.381 . S
C427 H451 0.930 . S
C428 C427 1.381 . S
C428 C430 1.381 . S
C428 C431 1.487 . S
C429 C426 1.382 . S
C429 C430 1.387 . S
C429 H452 0.930 . S
C430 C428 1.381 . S
C430 C429 1.387 . S
C430 H453 0.931 . S
C431 C424 1.399 . S
C431 C428 1.487 . S
C431 N463 1.343 . S
C432 C433 1.384 . S
C432 C434 1.384 . S
C432 H454 0.931 . S
C433 C432 1.384 . S
C433 C436 1.382 . S
C434 C432 1.384 . S
C434 C435 1.381 . S
C434 H455 0.930 . S
C435 C434 1.381 . S
C435 C437 1.381 . S
C435 C438 1.487 . S
C436 C433 1.382 . S
C436 C437 1.387 . S
C436 H456 0.930 . S
C437 C435 1.381 . S
C437 C436 1.387 . S
C437 H457 0.931 . S
C438 C435 1.487 . S
C438 C445 1.399 . S
C438 N463 1.343 . S
C439 C440 1.384 . S
C439 C441 1.384 . S
C439 H458 0.931 . S
C440 C439 1.384 . S
C440 C443 1.382 . S
C441 C439 1.384 . S
C441 C442 1.381 . S
C441 H459 0.930 . S
C442 C441 1.381 . S
C442 C444 1.381 . S
C442 C445 1.487 . S
C443 C440 1.382 . S
C443 C444 1.387 . S
C443 H460 0.930 . S
C444 C442 1.381 . S
C444 C443 1.387 . S
C444 H461 0.931 . S
C445 C438 1.399 . S
C445 C442 1.487 . S
C445 N462 1.343 . S
H446 C418 0.931 . S
H447 C420 0.930 . S
H448 C422 0.930 . S
H449 C423 0.931 . S
H450 C425 0.931 . S
H451 C427 0.930 . S
H452 C429 0.930 . S
H453 C430 0.931 . S
H454 C432 0.931 . S
H455 C434 0.930 . S
H456 C436 0.930 . S
H457 C437 0.931 . S
H458 C439 0.931 . S
H459 C441 0.930 . S
H460 C443 0.930 . S
H461 C444 0.931 . S
N462 C424 1.343 . S
N462 C445 1.343 . S
N463 C431 1.343 . S
N463 C438 1.343 . S
C464 C465 1.384 . S
C464 C466 1.384 . S
C464 H492 0.931 . S
C465 C464 1.384 . S
C465 C468 1.382 . S
C466 C464 1.384 . S
C466 C467 1.381 . S
C466 H493 0.930 . S
C467 C466 1.381 . S
C467 C469 1.381 . S
C467 C470 1.487 . S
C468 C465 1.382 . S
C468 C469 1.387 . S
C468 H494 0.930 . S
C469 C467 1.381 . S
C469 C468 1.387 . S
C469 H495 0.931 . S
C470 C467 1.487 . S
C470 C477 1.399 . S
C470 N508 1.343 . S
C471 C472 1.384 . S
C471 C473 1.384 . S
C471 H496 0.931 . S
C472 C471 1.384 . S
C472 C475 1.382 . S
C473 C471 1.384 . S
C473 C474 1.381 . S
C473 H497 0.930 . S
C474 C473 1.381 . S
C474 C476 1.381 . S
C474 C477 1.487 . S
C475 C472 1.382 . S
C475 C476 1.387 . S
C475 H498 0.930 . S
C476 C474 1.381 . S
C476 C475 1.387 . S
C476 H499 0.931 . S
C477 C470 1.399 . S
C477 C474 1.487 . S
C477 N509 1.343 . S
C478 C479 1.384 . S
C478 C480 1.384 . S
C478 H500 0.931 . S
C479 C478 1.384 . S
C479 C482 1.382 . S
C480 C478 1.384 . S
C480 C481 1.381 . S
C480 H501 0.930 . S
C481 C480 1.381 . S
C481 C483 1.381 . S
C481 C484 1.487 . S
C482 C479 1.382 . S
C482 C483 1.387 . S
C482 H502 0.930 . S
C483 C481 1.381 . S
C483 C482 1.387 . S
C483 H503 0.931 . S
C484 C481 1.487 . S
C484 C491 1.399 . S
C484 N509 1.343 . S
C485 C486 1.384 . S
C485 C487 1.384 . S
C485 H504 0.931 . S
C486 C485 1.384 . S
C486 C489 1.382 . S
C487 C485 1.384 . S
C487 C488 1.381 . S
C487 H505 0.930 . S
C488 C487 1.381 . S
C488 C490 1.381 . S
C488 C491 1.487 . S
C489 C486 1.382 . S
C489 C490 1.387 . S
C489 H506 0.930 . S
C490 C488 1.381 . S
C490 C489 1.387 . S
C490 H507 0.931 . S
C491 C484 1.399 . S
C491 C488 1.487 . S
C491 N508 1.343 . S
H492 C464 0.931 . S
H493 C466 0.930 . S
H494 C468 0.930 . S
H495 C469 0.931 . S
H496 C471 0.931 . S
H497 C473 0.930 . S
H498 C475 0.930 . S
H499 C476 0.931 . S
H500 C478 0.931 . S
H501 C480 0.930 . S
H502 C482 0.930 . S
H503 C483 0.931 . S
H504 C485 0.931 . S
H505 C487 0.930 . S
H506 C489 0.930 . S
H507 C490 0.931 . S
N508 C470 1.343 . S
N508 C491 1.343 . S
N509 C477 1.343 . S
N509 C484 1.343 . S
C510 C511 1.384 . S
C510 C512 1.384 . S
C510 H538 0.931 . S
C511 C510 1.384 . S
C511 C514 1.382 . S
C512 C510 1.384 . S
C512 C513 1.381 . S
C512 H539 0.930 . S
C513 C512 1.381 . S
C513 C515 1.381 . S
C513 C516 1.487 . S
C514 C511 1.382 . S
C514 C515 1.387 . S
C514 H540 0.930 . S
C515 C513 1.381 . S
C515 C514 1.387 . S
C515 H541 0.931 . S
C516 C513 1.487 . S
C516 C523 1.399 . S
C516 N554 1.343 . S
C517 C518 1.384 . S
C517 C519 1.384 . S
C517 H542 0.931 . S
C518 C517 1.384 . S
C518 C521 1.382 . S
C519 C517 1.384 . S
C519 C520 1.381 . S
C519 H543 0.930 . S
C520 C519 1.381 . S
C520 C522 1.381 . S
C520 C523 1.487 . S
C521 C518 1.382 . S
C521 C522 1.387 . S
C521 H544 0.930 . S
C522 C520 1.381 . S
C522 C521 1.387 . S
C522 H545 0.931 . S
C523 C516 1.399 . S
C523 C520 1.487 . S
C523 N555 1.343 . S
C524 C525 1.384 . S
C524 C526 1.384 . S
C524 H546 0.931 . S
C525 C524 1.384 . S
C525 C528 1.382 . S
C526 C524 1.384 . S
C526 C527 1.381 . S
C526 H547 0.930 . S
C527 C526 1.381 . S
C527 C529 1.381 . S
C527 C530 1.487 . S
C528 C525 1.382 . S
C528 C529 1.387 . S
C528 H548 0.930 . S
C529 C527 1.381 . S
C529 C528 1.387 . S
C529 H549 0.931 . S
C530 C527 1.487 . S
C530 C537 1.399 . S
C530 N555 1.343 . S
C531 C532 1.384 . S
C531 C533 1.384 . S
C531 H550 0.931 . S
C532 C531 1.384 . S
C532 C535 1.382 . S
C533 C531 1.384 . S
C533 C534 1.381 . S
C533 H551 0.930 . S
C534 C533 1.381 . S
C534 C536 1.381 . S
C534 C537 1.487 . S
C535 C532 1.382 . S
C535 C536 1.387 . S
C535 H552 0.930 . S
C536 C534 1.381 . S
C536 C535 1.387 . S
C536 H553 0.931 . S
C537 C530 1.399 . S
C537 C534 1.487 . S
C537 N554 1.343 . S
H538 C510 0.931 . S
H539 C512 0.930 . S
H540 C514 0.930 . S
H541 C515 0.931 . S
H542 C517 0.931 . S
H543 C519 0.930 . S
H544 C521 0.930 . S
H545 C522 0.931 . S
H546 C524 0.931 . S
H547 C526 0.930 . S
H548 C528 0.930 . S
H549 C529 0.931 . S
H550 C531 0.931 . S
H551 C533 0.930 . S
H552 C535 0.930 . S
H553 C536 0.931 . S
N554 C516 1.343 . S
N554 C537 1.343 . S
N555 C523 1.343 . S
N555 C530 1.343 . S
C556 C557 1.384 . S
C556 C558 1.384 . S
C556 H584 0.931 . S
C557 C556 1.384 . S
C557 C560 1.382 . S
C558 C556 1.384 . S
C558 C559 1.381 . S
C558 H585 0.930 . S
C559 C558 1.381 . S
C559 C561 1.381 . S
C559 C562 1.487 . S
C560 C557 1.382 . S
C560 C561 1.387 . S
C560 H586 0.930 . S
C561 C559 1.381 . S
C561 C560 1.387 . S
C561 H587 0.931 . S
C562 C559 1.487 . S
C562 C569 1.399 . S
C562 N600 1.343 . S
C563 C564 1.384 . S
C563 C565 1.384 . S
C563 H588 0.931 . S
C564 C563 1.384 . S
C564 C567 1.382 . S
C565 C563 1.384 . S
C565 C566 1.381 . S
C565 H589 0.930 . S
C566 C565 1.381 . S
C566 C568 1.381 . S
C566 C569 1.487 . S
C567 C564 1.382 . S
C567 C568 1.387 . S
C567 H590 0.930 . S
C568 C566 1.381 . S
C568 C567 1.387 . S
C568 H591 0.931 . S
C569 C562 1.399 . S
C569 C566 1.487 . S
C569 N601 1.343 . S
C570 C571 1.384 . S
C570 C572 1.384 . S
C570 H592 0.931 . S
C571 C570 1.384 . S
C571 C574 1.382 . S
C572 C570 1.384 . S
C572 C573 1.381 . S
C572 H593 0.930 . S
C573 C572 1.381 . S
C573 C575 1.381 . S
C573 C576 1.487 . S
C574 C571 1.382 . S
C574 C575 1.387 . S
C574 H594 0.930 . S
C575 C573 1.381 . S
C575 C574 1.387 . S
C575 H595 0.931 . S
C576 C573 1.487 . S
C576 C583 1.399 . S
C576 N601 1.343 . S
C577 C578 1.384 . S
C577 C579 1.384 . S
C577 H596 0.931 . S
C578 C577 1.384 . S
C578 C581 1.382 . S
C579 C577 1.384 . S
C579 C580 1.381 . S
C579 H597 0.930 . S
C580 C579 1.381 . S
C580 C582 1.381 . S
C580 C583 1.487 . S
C581 C578 1.382 . S
C581 C582 1.387 . S
C581 H598 0.930 . S
C582 C580 1.381 . S
C582 C581 1.387 . S
C582 H599 0.931 . S
C583 C576 1.399 . S
C583 C580 1.487 . S
C583 N600 1.343 . S
H584 C556 0.931 . S
H585 C558 0.930 . S
H586 C560 0.930 . S
H587 C561 0.931 . S
H588 C563 0.931 . S
H589 C565 0.930 . S
H590 C567 0.930 . S
H591 C568 0.931 . S
H592 C570 0.931 . S
H593 C572 0.930 . S
H594 C574 0.930 . S
H595 C575 0.931 . S
H596 C577 0.931 . S
H597 C579 0.930 . S
H598 C581 0.930 . S
H599 C582 0.931 . S
N600 C562 1.343 . S
N600 C583 1.343 . S
N601 C569 1.343 . S
N601 C576 1.343 . S
C602 C603 1.384 . S
C602 C604 1.384 . S
C602 H630 0.931 . S
C603 C602 1.384 . S
C603 C606 1.382 . S
C604 C602 1.384 . S
C604 C605 1.381 . S
C604 H631 0.930 . S
C605 C604 1.381 . S
C605 C607 1.381 . S
C605 C608 1.487 . S
C606 C603 1.382 . S
C606 C607 1.387 . S
C606 H632 0.930 . S
C607 C605 1.381 . S
C607 C606 1.387 . S
C607 H633 0.931 . S
C608 C605 1.487 . S
C608 C615 1.399 . S
C608 N646 1.343 . S
C609 C610 1.384 . S
C609 C611 1.384 . S
C609 H634 0.931 . S
C610 C609 1.384 . S
C610 C613 1.382 . S
C611 C609 1.384 . S
C611 C612 1.381 . S
C611 H635 0.930 . S
C612 C611 1.381 . S
C612 C614 1.381 . S
C612 C615 1.487 . S
C613 C610 1.382 . S
C613 C614 1.387 . S
C613 H636 0.930 . S
C614 C612 1.381 . S
C614 C613 1.387 . S
C614 H637 0.931 . S
C615 C608 1.399 . S
C615 C612 1.487 . S
C615 N647 1.343 . S
C616 C617 1.384 . S
C616 C618 1.384 . S
C616 H638 0.931 . S
C617 C616 1.384 . S
C617 C620 1.382 . S
C618 C616 1.384 . S
C618 C619 1.381 . S
C618 H639 0.930 . S
C619 C618 1.381 . S
C619 C621 1.381 . S
C619 C622 1.487 . S
C620 C617 1.382 . S
C620 C621 1.387 . S
C620 H640 0.930 . S
C621 C619 1.381 . S
C621 C620 1.387 . S
C621 H641 0.931 . S
C622 C619 1.487 . S
C622 C629 1.399 . S
C622 N647 1.343 . S
C623 C624 1.384 . S
C623 C625 1.384 . S
C623 H642 0.931 . S
C624 C623 1.384 . S
C624 C627 1.382 . S
C625 C623 1.384 . S
C625 C626 1.381 . S
C625 H643 0.930 . S
C626 C625 1.381 . S
C626 C628 1.381 . S
C626 C629 1.487 . S
C627 C624 1.382 . S
C627 C628 1.387 . S
C627 H644 0.930 . S
C628 C626 1.381 . S
C628 C627 1.387 . S
C628 H645 0.931 . S
C629 C622 1.399 . S
C629 C626 1.487 . S
C629 N646 1.343 . S
H630 C602 0.931 . S
H631 C604 0.930 . S
H632 C606 0.930 . S
H633 C607 0.931 . S
H634 C609 0.931 . S
H635 C611 0.930 . S
H636 C613 0.930 . S
H637 C614 0.931 . S
H638 C616 0.931 . S
H639 C618 0.930 . S
H640 C620 0.930 . S
H641 C621 0.931 . S
H642 C623 0.931 . S
H643 C625 0.930 . S
H644 C627 0.930 . S
H645 C628 0.931 . S
N646 C608 1.343 . S
N646 C629 1.343 . S
N647 C615 1.343 . S
N647 C622 1.343 . S
C648 C649 1.384 . S
C648 C650 1.384 . S
C648 H676 0.931 . S
C649 C648 1.384 . S
C649 C652 1.382 1_655 S
C650 C648 1.384 . S
C650 C651 1.387 . S
C650 H677 0.930 . S
C651 C650 1.387 . S
C651 C653 1.378 1_655 S
C651 C654 1.477 1_655 S
C652 C649 1.382 1_455 S
C652 C653 1.387 . S
C652 H678 0.930 . S
C653 C651 1.378 1_455 S
C653 C652 1.387 . S
C653 H679 0.931 . S
C654 C651 1.477 1_455 S
C654 C661 1.399 1_455 S
C654 N692 1.319 . S
C655 C656 1.384 . S
C655 C657 1.384 . S
C655 H680 0.931 . S
C656 C655 1.384 . S
C656 C659 1.382 1_455 S
C657 C655 1.384 . S
C657 C658 1.384 . S
C657 H681 0.930 . S
C658 C657 1.384 . S
C658 C660 1.373 1_455 S
C658 C661 1.494 1_455 S
C659 C656 1.382 1_655 S
C659 C660 1.387 . S
C659 H682 0.930 . S
C660 C658 1.373 1_655 S
C660 C659 1.387 . S
C660 H683 0.931 . S
C661 C654 1.399 1_655 S
C661 C658 1.494 1_655 S
C661 N693 1.364 . S
C662 C663 1.384 . S
C662 C664 1.384 . S
C662 H684 0.931 . S
C663 C662 1.384 . S
C663 C666 1.382 1_455 S
C664 C662 1.384 . S
C664 C665 1.403 . S
C664 H685 0.930 . S
C665 C664 1.403 . S
C665 C667 1.370 1_455 S
C665 C668 1.477 1_455 S
C666 C663 1.382 1_655 S
C666 C667 1.387 . S
C666 H686 0.930 . S
C667 C665 1.370 1_655 S
C667 C666 1.387 . S
C667 H687 0.931 . S
C668 C665 1.477 1_655 S
C668 C675 1.399 1_655 S
C668 N693 1.319 . S
C669 C670 1.384 . S
C669 C671 1.384 . S
C669 H688 0.931 . S
C670 C669 1.384 . S
C670 C673 1.382 1_655 S
C671 C669 1.384 . S
C671 C672 1.381 . S
C671 H689 0.930 . S
C672 C671 1.381 . S
C672 C674 1.382 1_655 S
C672 C675 1.494 1_655 S
C673 C670 1.382 1_455 S
C673 C674 1.387 . S
C673 H690 0.930 . S
C674 C672 1.382 1_455 S
C674 C673 1.387 . S
C674 H691 0.931 . S
C675 C668 1.399 1_455 S
C675 C672 1.494 1_455 S
C675 N692 1.364 . S
H676 C648 0.931 . S
H677 C650 0.930 . S
H678 C652 0.930 . S
H679 C653 0.931 . S
H680 C655 0.931 . S
H681 C657 0.930 . S
H682 C659 0.930 . S
H683 C660 0.931 . S
H684 C662 0.931 . S
H685 C664 0.930 . S
H686 C666 0.930 . S
H687 C667 0.931 . S
H688 C669 0.931 . S
H689 C671 0.930 . S
H690 C673 0.930 . S
H691 C674 0.931 . S
N692 C654 1.319 . S
N692 C675 1.364 . S
N693 C661 1.364 . S
N693 C668 1.319 . S
C694 C695 1.384 . S
C694 C696 1.384 . S
C694 H722 0.931 . S
C695 C694 1.384 . S
C695 C698 1.382 . S
C696 C694 1.384 . S
C696 C697 1.381 . S
C696 H723 0.930 . S
C697 C696 1.381 . S
C697 C699 1.381 . S
C697 C700 1.487 . S
C698 C695 1.382 . S
C698 C699 1.387 . S
C698 H724 0.930 . S
C699 C697 1.381 . S
C699 C698 1.387 . S
C699 H725 0.931 . S
C700 C697 1.487 . S
C700 C707 1.399 . S
C700 N738 1.343 . S
C701 C702 1.384 . S
C701 C703 1.384 . S
C701 H726 0.931 . S
C702 C701 1.384 . S
C702 C705 1.382 . S
C703 C701 1.384 . S
C703 C704 1.381 . S
C703 H727 0.930 . S
C704 C703 1.381 . S
C704 C706 1.381 . S
C704 C707 1.487 . S
C705 C702 1.382 . S
C705 C706 1.387 . S
C705 H728 0.930 . S
C706 C704 1.381 . S
C706 C705 1.387 . S
C706 H729 0.931 . S
C707 C700 1.399 . S
C707 C704 1.487 . S
C707 N739 1.343 . S
C708 C709 1.384 . S
C708 C710 1.384 . S
C708 H730 0.931 . S
C709 C708 1.384 . S
C709 C712 1.382 . S
C710 C708 1.384 . S
C710 C711 1.381 . S
C710 H731 0.930 . S
C711 C710 1.381 . S
C711 C713 1.381 . S
C711 C714 1.487 . S
C712 C709 1.382 . S
C712 C713 1.387 . S
C712 H732 0.930 . S
C713 C711 1.381 . S
C713 C712 1.387 . S
C713 H733 0.931 . S
C714 C711 1.487 . S
C714 C721 1.399 . S
C714 N739 1.343 . S
C715 C716 1.384 . S
C715 C717 1.384 . S
C715 H734 0.931 . S
C716 C715 1.384 . S
C716 C719 1.382 . S
C717 C715 1.384 . S
C717 C718 1.381 . S
C717 H735 0.930 . S
C718 C717 1.381 . S
C718 C720 1.381 . S
C718 C721 1.487 . S
C719 C716 1.382 . S
C719 C720 1.387 . S
C719 H736 0.930 . S
C720 C718 1.381 . S
C720 C719 1.387 . S
C720 H737 0.931 . S
C721 C714 1.399 . S
C721 C718 1.487 . S
C721 N738 1.343 . S
H722 C694 0.931 . S
H723 C696 0.930 . S
H724 C698 0.930 . S
H725 C699 0.931 . S
H726 C701 0.931 . S
H727 C703 0.930 . S
H728 C705 0.930 . S
H729 C706 0.931 . S
H730 C708 0.931 . S
H731 C710 0.930 . S
H732 C712 0.930 . S
H733 C713 0.931 . S
H734 C715 0.931 . S
H735 C717 0.930 . S
H736 C719 0.930 . S
H737 C720 0.931 . S
N738 C700 1.343 . S
N738 C721 1.343 . S
N739 C707 1.343 . S
N739 C714 1.343 . S
C740 C741 1.384 1_545 S
C740 C742 1.384 . S
C740 H768 0.931 . S
C741 C740 1.384 1_565 S
C741 C744 1.382 . S
C742 C740 1.384 . S
C742 C743 1.381 1_545 S
C742 H769 0.930 . S
C743 C742 1.381 1_565 S
C743 C745 1.381 . S
C743 C746 1.487 . S
C744 C741 1.382 . S
C744 C745 1.387 . S
C744 H770 0.930 . S
C745 C743 1.381 . S
C745 C744 1.387 . S
C745 H771 0.931 . S
C746 C743 1.487 . S
C746 C753 1.399 1_565 S
C746 N784 1.343 . S
C747 C748 1.384 1_565 S
C747 C749 1.384 . S
C747 H772 0.931 . S
C748 C747 1.384 1_545 S
C748 C751 1.382 . S
C749 C747 1.384 . S
C749 C750 1.381 1_565 S
C749 H773 0.930 . S
C750 C749 1.381 1_545 S
C750 C752 1.381 . S
C750 C753 1.487 . S
C751 C748 1.382 . S
C751 C752 1.387 . S
C751 H774 0.930 . S
C752 C750 1.381 . S
C752 C751 1.387 . S
C752 H775 0.931 . S
C753 C746 1.399 1_545 S
C753 C750 1.487 . S
C753 N785 1.343 . S
C754 C755 1.384 1_565 S
C754 C756 1.384 . S
C754 H776 0.931 . S
C755 C754 1.384 1_545 S
C755 C758 1.382 . S
C756 C754 1.384 . S
C756 C757 1.381 1_565 S
C756 H777 0.930 . S
C757 C756 1.381 1_545 S
C757 C759 1.381 . S
C757 C760 1.487 . S
C758 C755 1.382 . S
C758 C759 1.387 . S
C758 H778 0.930 . S
C759 C757 1.381 . S
C759 C758 1.387 . S
C759 H779 0.931 . S
C760 C757 1.487 . S
C760 C767 1.399 1_545 S
C760 N785 1.343 . S
C761 C762 1.384 1_545 S
C761 C763 1.384 . S
C761 H780 0.931 . S
C762 C761 1.384 1_565 S
C762 C765 1.382 . S
C763 C761 1.384 . S
C763 C764 1.381 1_545 S
C763 H781 0.930 . S
C764 C763 1.381 1_565 S
C764 C766 1.381 . S
C764 C767 1.487 . S
C765 C762 1.382 . S
C765 C766 1.387 . S
C765 H782 0.930 . S
C766 C764 1.381 . S
C766 C765 1.387 . S
C766 H783 0.931 . S
C767 C760 1.399 1_565 S
C767 C764 1.487 . S
C767 N784 1.343 . S
H768 C740 0.931 . S
H769 C742 0.930 . S
H770 C744 0.930 . S
H771 C745 0.931 . S
H772 C747 0.931 . S
H773 C749 0.930 . S
H774 C751 0.930 . S
H775 C752 0.931 . S
H776 C754 0.931 . S
H777 C756 0.930 . S
H778 C758 0.930 . S
H779 C759 0.931 . S
H780 C761 0.931 . S
H781 C763 0.930 . S
H782 C765 0.930 . S
H783 C766 0.931 . S
N784 C746 1.343 . S
N784 C767 1.343 . S
N785 C753 1.343 . S
N785 C760 1.343 . S
C786 C787 1.384 . S
C786 C788 1.384 . S
C786 H814 0.931 . S
C787 C786 1.384 . S
C787 C790 1.382 1_545 S
C788 C786 1.384 . S
C788 C789 1.384 . S
C788 H815 0.930 . S
C789 C788 1.384 . S
C789 C791 1.374 1_545 S
C789 C792 1.494 1_545 S
C790 C787 1.382 1_565 S
C790 C791 1.387 . S
C790 H816 0.930 . S
C791 C789 1.374 1_565 S
C791 C790 1.387 . S
C791 H817 0.931 . S
C792 C789 1.494 1_565 S
C792 C799 1.399 1_565 S
C792 N830 1.364 . S
C793 C794 1.384 . S
C793 C795 1.384 . S
C793 H818 0.931 . S
C794 C793 1.384 . S
C794 C797 1.382 1_565 S
C795 C793 1.384 . S
C795 C796 1.388 . S
C795 H819 0.930 . S
C796 C795 1.388 . S
C796 C798 1.378 1_565 S
C796 C799 1.477 1_565 S
C797 C794 1.382 1_545 S
C797 C798 1.387 . S
C797 H820 0.930 . S
C798 C796 1.378 1_545 S
C798 C797 1.387 . S
C798 H821 0.931 . S
C799 C792 1.399 1_545 S
C799 C796 1.477 1_545 S
C799 N831 1.318 . S
C800 C801 1.384 . S
C800 C802 1.384 . S
C800 H822 0.931 . S
C801 C800 1.384 . S
C801 C804 1.382 1_565 S
C802 C800 1.384 . S
C802 C803 1.381 . S
C802 H823 0.930 . S
C803 C802 1.381 . S
C803 C805 1.383 1_565 S
C803 C806 1.494 1_565 S
C804 C801 1.382 1_545 S
C804 C805 1.387 . S
C804 H824 0.930 . S
C805 C803 1.383 1_545 S
C805 C804 1.387 . S
C805 H825 0.931 . S
C806 C803 1.494 1_545 S
C806 C813 1.399 1_545 S
C806 N831 1.364 . S
C807 C808 1.384 . S
C807 C809 1.384 . S
C807 H826 0.931 . S
C808 C807 1.384 . S
C808 C811 1.382 1_545 S
C809 C807 1.384 . S
C809 C810 1.404 . S
C809 H827 0.930 . S
C810 C809 1.404 . S
C810 C812 1.369 1_545 S
C810 C813 1.477 1_545 S
C811 C808 1.382 1_565 S
C811 C812 1.387 . S
C811 H828 0.930 . S
C812 C810 1.369 1_565 S
C812 C811 1.387 . S
C812 H829 0.931 . S
C813 C806 1.399 1_565 S
C813 C810 1.477 1_565 S
C813 N830 1.318 . S
H814 C786 0.931 . S
H815 C788 0.930 . S
H816 C790 0.930 . S
H817 C791 0.931 . S
H818 C793 0.931 . S
H819 C795 0.930 . S
H820 C797 0.930 . S
H821 C798 0.931 . S
H822 C800 0.931 . S
H823 C802 0.930 . S
H824 C804 0.930 . S
H825 C805 0.931 . S
H826 C807 0.931 . S
H827 C809 0.930 . S
H828 C811 0.930 . S
H829 C812 0.931 . S
N830 C792 1.364 . S
N830 C813 1.318 . S
N831 C799 1.318 . S
N831 C806 1.364 . S
C832 C833 1.384 . S
C832 C834 1.384 . S
C832 H860 0.931 . S
C833 C832 1.384 . S
C833 C836 1.382 1_655 S
C834 C832 1.384 . S
C834 C835 1.406 . S
C834 H861 0.930 . S
C835 C834 1.406 . S
C835 C837 1.369 1_655 S
C835 C838 1.477 1_655 S
C836 C833 1.382 1_455 S
C836 C837 1.387 . S
C836 H862 0.930 . S
C837 C835 1.369 1_455 S
C837 C836 1.387 . S
C837 H863 0.931 . S
C838 C835 1.477 1_455 S
C838 C845 1.399 1_455 S
C838 N876 1.319 . S
C839 C840 1.384 . S
C839 C841 1.384 . S
C839 H864 0.931 . S
C840 C839 1.384 . S
C840 C843 1.382 1_455 S
C841 C839 1.384 . S
C841 C842 1.381 . S
C841 H865 0.930 . S
C842 C841 1.381 . S
C842 C844 1.381 1_455 S
C842 C845 1.495 1_455 S
C843 C840 1.382 1_655 S
C843 C844 1.387 . S
C843 H866 0.930 . S
C844 C842 1.381 1_655 S
C844 C843 1.387 . S
C844 H867 0.931 . S
C845 C838 1.399 1_655 S
C845 C842 1.495 1_655 S
C845 N877 1.364 . S
C846 C847 1.384 . S
C846 C848 1.384 . S
C846 H868 0.931 . S
C847 C846 1.384 . S
C847 C850 1.382 1_455 S
C848 C846 1.384 . S
C848 C849 1.389 . S
C848 H869 0.930 . S
C849 C848 1.389 . S
C849 C851 1.377 1_455 S
C849 C852 1.477 1_455 S
C850 C847 1.382 1_655 S
C850 C851 1.387 . S
C850 H870 0.930 . S
C851 C849 1.377 1_655 S
C851 C850 1.387 . S
C851 H871 0.931 . S
C852 C849 1.477 1_655 S
C852 C859 1.399 1_655 S
C852 N877 1.319 . S
C853 C854 1.384 . S
C853 C855 1.384 . S
C853 H872 0.931 . S
C854 C853 1.384 . S
C854 C857 1.382 1_655 S
C855 C853 1.384 . S
C855 C856 1.385 . S
C855 H873 0.930 . S
C856 C855 1.385 . S
C856 C858 1.371 1_655 S
C856 C859 1.495 1_655 S
C857 C854 1.382 1_455 S
C857 C858 1.387 . S
C857 H874 0.930 . S
C858 C856 1.371 1_455 S
C858 C857 1.387 . S
C858 H875 0.931 . S
C859 C852 1.399 1_455 S
C859 C856 1.495 1_455 S
C859 N876 1.364 . S
H860 C832 0.931 . S
H861 C834 0.930 . S
H862 C836 0.930 . S
H863 C837 0.931 . S
H864 C839 0.931 . S
H865 C841 0.930 . S
H866 C843 0.930 . S
H867 C844 0.931 . S
H868 C846 0.931 . S
H869 C848 0.930 . S
H870 C850 0.930 . S
H871 C851 0.931 . S
H872 C853 0.931 . S
H873 C855 0.930 . S
H874 C857 0.930 . S
H875 C858 0.931 . S
N876 C838 1.319 . S
N876 C859 1.364 . S
N877 C845 1.364 . S
N877 C852 1.319 . S
C878 C879 1.384 . S
C878 C880 1.384 . S
C878 H906 0.931 . S
C879 C878 1.384 . S
C879 C882 1.382 . S
C880 C878 1.384 . S
C880 C881 1.381 . S
C880 H907 0.930 . S
C881 C880 1.381 . S
C881 C883 1.381 . S
C881 C884 1.487 . S
C882 C879 1.382 . S
C882 C883 1.387 . S
C882 H908 0.930 . S
C883 C881 1.381 . S
C883 C882 1.387 . S
C883 H909 0.931 . S
C884 C881 1.487 . S
C884 C891 1.399 . S
C884 N922 1.343 . S
C885 C886 1.384 . S
C885 C887 1.384 . S
C885 H910 0.931 . S
C886 C885 1.384 . S
C886 C889 1.382 . S
C887 C885 1.384 . S
C887 C888 1.381 . S
C887 H911 0.930 . S
C888 C887 1.381 . S
C888 C890 1.381 . S
C888 C891 1.487 . S
C889 C886 1.382 . S
C889 C890 1.387 . S
C889 H912 0.930 . S
C890 C888 1.381 . S
C890 C889 1.387 . S
C890 H913 0.931 . S
C891 C884 1.399 . S
C891 C888 1.487 . S
C891 N923 1.343 . S
C892 C893 1.384 . S
C892 C894 1.384 . S
C892 H914 0.931 . S
C893 C892 1.384 . S
C893 C896 1.382 . S
C894 C892 1.384 . S
C894 C895 1.381 . S
C894 H915 0.930 . S
C895 C894 1.381 . S
C895 C897 1.381 . S
C895 C898 1.487 . S
C896 C893 1.382 . S
C896 C897 1.387 . S
C896 H916 0.930 . S
C897 C895 1.381 . S
C897 C896 1.387 . S
C897 H917 0.931 . S
C898 C895 1.487 . S
C898 C905 1.399 . S
C898 N923 1.343 . S
C899 C900 1.384 . S
C899 C901 1.384 . S
C899 H918 0.931 . S
C900 C899 1.384 . S
C900 C903 1.382 . S
C901 C899 1.384 . S
C901 C902 1.381 . S
C901 H919 0.930 . S
C902 C901 1.381 . S
C902 C904 1.381 . S
C902 C905 1.487 . S
C903 C900 1.382 . S
C903 C904 1.387 . S
C903 H920 0.930 . S
C904 C902 1.381 . S
C904 C903 1.387 . S
C904 H921 0.931 . S
C905 C898 1.399 . S
C905 C902 1.487 . S
C905 N922 1.343 . S
H906 C878 0.931 . S
H907 C880 0.930 . S
H908 C882 0.930 . S
H909 C883 0.931 . S
H910 C885 0.931 . S
H911 C887 0.930 . S
H912 C889 0.930 . S
H913 C890 0.931 . S
H914 C892 0.931 . S
H915 C894 0.930 . S
H916 C896 0.930 . S
H917 C897 0.931 . S
H918 C899 0.931 . S
H919 C901 0.930 . S
H920 C903 0.930 . S
H921 C904 0.931 . S
N922 C884 1.343 . S
N922 C905 1.343 . S
N923 C891 1.343 . S
N923 C898 1.343 . S
C924 C925 1.384 . S
C924 C926 1.384 . S
C924 H952 0.931 . S
C925 C924 1.384 . S
C925 C928 1.382 . S
C926 C924 1.384 . S
C926 C927 1.381 . S
C926 H953 0.930 . S
C927 C926 1.381 . S
C927 C929 1.381 . S
C927 C930 1.487 . S
C928 C925 1.382 . S
C928 C929 1.387 . S
C928 H954 0.930 . S
C929 C927 1.381 . S
C929 C928 1.387 . S
C929 H955 0.931 . S
C930 C927 1.487 . S
C930 C937 1.399 . S
C930 N968 1.343 . S
C931 C932 1.384 . S
C931 C933 1.384 . S
C931 H956 0.931 . S
C932 C931 1.384 . S
C932 C935 1.382 . S
C933 C931 1.384 . S
C933 C934 1.381 . S
C933 H957 0.930 . S
C934 C933 1.381 . S
C934 C936 1.381 . S
C934 C937 1.487 . S
C935 C932 1.382 . S
C935 C936 1.387 . S
C935 H958 0.930 . S
C936 C934 1.381 . S
C936 C935 1.387 . S
C936 H959 0.931 . S
C937 C930 1.399 . S
C937 C934 1.487 . S
C937 N969 1.343 . S
C938 C939 1.384 . S
C938 C940 1.384 . S
C938 H960 0.931 . S
C939 C938 1.384 . S
C939 C942 1.382 . S
C940 C938 1.384 . S
C940 C941 1.381 . S
C940 H961 0.930 . S
C941 C940 1.381 . S
C941 C943 1.381 . S
C941 C944 1.487 . S
C942 C939 1.382 . S
C942 C943 1.387 . S
C942 H962 0.930 . S
C943 C941 1.381 . S
C943 C942 1.387 . S
C943 H963 0.931 . S
C944 C941 1.487 . S
C944 C951 1.399 . S
C944 N969 1.343 . S
C945 C946 1.384 . S
C945 C947 1.384 . S
C945 H964 0.931 . S
C946 C945 1.384 . S
C946 C949 1.382 . S
C947 C945 1.384 . S
C947 C948 1.381 . S
C947 H965 0.930 . S
C948 C947 1.381 . S
C948 C950 1.381 . S
C948 C951 1.487 . S
C949 C946 1.382 . S
C949 C950 1.387 . S
C949 H966 0.930 . S
C950 C948 1.381 . S
C950 C949 1.387 . S
C950 H967 0.931 . S
C951 C944 1.399 . S
C951 C948 1.487 . S
C951 N968 1.343 . S
H952 C924 0.931 . S
H953 C926 0.930 . S
H954 C928 0.930 . S
H955 C929 0.931 . S
H956 C931 0.931 . S
H957 C933 0.930 . S
H958 C935 0.930 . S
H959 C936 0.931 . S
H960 C938 0.931 . S
H961 C940 0.930 . S
H962 C942 0.930 . S
H963 C943 0.931 . S
H964 C945 0.931 . S
H965 C947 0.930 . S
H966 C949 0.930 . S
H967 C950 0.931 . S
N968 C930 1.343 . S
N968 C951 1.343 . S
N969 C937 1.343 . S
N969 C944 1.343 . S
C970 C971 1.384 . S
C970 C972 1.384 . S
C970 H998 0.931 . S
C971 C970 1.384 . S
C971 C974 1.382 . S
C972 C970 1.384 . S
C972 C973 1.381 . S
C972 H999 0.930 . S
C973 C972 1.381 . S
C973 C975 1.381 . S
C973 C976 1.487 . S
C974 C971 1.382 . S
C974 C975 1.387 . S
C974 H1000 0.930 . S
C975 C973 1.381 . S
C975 C974 1.387 . S
C975 H1001 0.931 . S
C976 C973 1.487 . S
C976 C983 1.399 . S
C976 N1014 1.343 . S
C977 C978 1.384 . S
C977 C979 1.384 . S
C977 H1002 0.931 . S
C978 C977 1.384 . S
C978 C981 1.382 . S
C979 C977 1.384 . S
C979 C980 1.381 . S
C979 H1003 0.930 . S
C980 C979 1.381 . S
C980 C982 1.381 . S
C980 C983 1.487 . S
C981 C978 1.382 . S
C981 C982 1.387 . S
C981 H1004 0.930 . S
C982 C980 1.381 . S
C982 C981 1.387 . S
C982 H1005 0.931 . S
C983 C976 1.399 . S
C983 C980 1.487 . S
C983 N1015 1.343 . S
C984 C985 1.384 . S
C984 C986 1.384 . S
C984 H1006 0.931 . S
C985 C984 1.384 . S
C985 C988 1.382 . S
C986 C984 1.384 . S
C986 C987 1.381 . S
C986 H1007 0.930 . S
C987 C986 1.381 . S
C987 C989 1.381 . S
C987 C990 1.487 . S
C988 C985 1.382 . S
C988 C989 1.387 . S
C988 H1008 0.930 . S
C989 C987 1.381 . S
C989 C988 1.387 . S
C989 H1009 0.931 . S
C990 C987 1.487 . S
C990 C997 1.399 . S
C990 N1015 1.343 . S
C991 C992 1.384 . S
C991 C993 1.384 . S
C991 H1010 0.931 . S
C992 C991 1.384 . S
C992 C995 1.382 . S
C993 C991 1.384 . S
C993 C994 1.381 . S
C993 H1011 0.930 . S
C994 C993 1.381 . S
C994 C996 1.381 . S
C994 C997 1.487 . S
C995 C992 1.382 . S
C995 C996 1.387 . S
C995 H1012 0.930 . S
C996 C994 1.381 . S
C996 C995 1.387 . S
C996 H1013 0.931 . S
C997 C990 1.399 . S
C997 C994 1.487 . S
C997 N1014 1.343 . S
H998 C970 0.931 . S
H999 C972 0.930 . S
H1000 C974 0.930 . S
H1001 C975 0.931 . S
H1002 C977 0.931 . S
H1003 C979 0.930 . S
H1004 C981 0.930 . S
H1005 C982 0.931 . S
H1006 C984 0.931 . S
H1007 C986 0.930 . S
H1008 C988 0.930 . S
H1009 C989 0.931 . S
H1010 C991 0.931 . S
H1011 C993 0.930 . S
H1012 C995 0.930 . S
H1013 C996 0.931 . S
N1014 C976 1.343 . S
N1014 C997 1.343 . S
N1015 C983 1.343 . S
N1015 C990 1.343 . S
C1016 C1017 1.384 . S
C1016 C1018 1.384 . S
C1016 H1044 0.931 . S
C1017 C1016 1.384 . S
C1017 C1020 1.382 . S
C1018 C1016 1.384 . S
C1018 C1019 1.381 . S
C1018 H1045 0.930 . S
C1019 C1018 1.381 . S
C1019 C1021 1.381 . S
C1019 C1022 1.487 . S
C1020 C1017 1.382 . S
C1020 C1021 1.387 . S
C1020 H1046 0.930 . S
C1021 C1019 1.381 . S
C1021 C1020 1.387 . S
C1021 H1047 0.931 . S
C1022 C1019 1.487 . S
C1022 C1029 1.399 . S
C1022 N1060 1.343 . S
C1023 C1024 1.384 . S
C1023 C1025 1.384 . S
C1023 H1048 0.931 . S
C1024 C1023 1.384 . S
C1024 C1027 1.382 . S
C1025 C1023 1.384 . S
C1025 C1026 1.381 . S
C1025 H1049 0.930 . S
C1026 C1025 1.381 . S
C1026 C1028 1.381 . S
C1026 C1029 1.487 . S
C1027 C1024 1.382 . S
C1027 C1028 1.387 . S
C1027 H1050 0.930 . S
C1028 C1026 1.381 . S
C1028 C1027 1.387 . S
C1028 H1051 0.931 . S
C1029 C1022 1.399 . S
C1029 C1026 1.487 . S
C1029 N1061 1.343 . S
C1030 C1031 1.384 . S
C1030 C1032 1.384 . S
C1030 H1052 0.931 . S
C1031 C1030 1.384 . S
C1031 C1034 1.382 . S
C1032 C1030 1.384 . S
C1032 C1033 1.381 . S
C1032 H1053 0.930 . S
C1033 C1032 1.381 . S
C1033 C1035 1.381 . S
C1033 C1036 1.487 . S
C1034 C1031 1.382 . S
C1034 C1035 1.387 . S
C1034 H1054 0.930 . S
C1035 C1033 1.381 . S
C1035 C1034 1.387 . S
C1035 H1055 0.931 . S
C1036 C1033 1.487 . S
C1036 C1043 1.399 . S
C1036 N1061 1.343 . S
C1037 C1038 1.384 . S
C1037 C1039 1.384 . S
C1037 H1056 0.931 . S
C1038 C1037 1.384 . S
C1038 C1041 1.382 . S
C1039 C1037 1.384 . S
C1039 C1040 1.381 . S
C1039 H1057 0.930 . S
C1040 C1039 1.381 . S
C1040 C1042 1.381 . S
C1040 C1043 1.487 . S
C1041 C1038 1.382 . S
C1041 C1042 1.387 . S
C1041 H1058 0.930 . S
C1042 C1040 1.381 . S
C1042 C1041 1.387 . S
C1042 H1059 0.931 . S
C1043 C1036 1.399 . S
C1043 C1040 1.487 . S
C1043 N1060 1.343 . S
H1044 C1016 0.931 . S
H1045 C1018 0.930 . S
H1046 C1020 0.930 . S
H1047 C1021 0.931 . S
H1048 C1023 0.931 . S
H1049 C1025 0.930 . S
H1050 C1027 0.930 . S
H1051 C1028 0.931 . S
H1052 C1030 0.931 . S
H1053 C1032 0.930 . S
H1054 C1034 0.930 . S
H1055 C1035 0.931 . S
H1056 C1037 0.931 . S
H1057 C1039 0.930 . S
H1058 C1041 0.930 . S
H1059 C1042 0.931 . S
N1060 C1022 1.343 . S
N1060 C1043 1.343 . S
N1061 C1029 1.343 . S
N1061 C1036 1.343 . S
H1062 C1070 0.950 . S
H1063 C1075 0.950 . S
H1064 C1072 0.950 . S
H1065 C1074 0.950 . S
H1066 C1076 0.950 . S
H1067 C1078 0.950 . S
H1068 C1080 0.950 . S
H1069 C1081 0.950 . S
C1070 H1062 0.950 . S
C1070 C1071 1.386 . S
C1070 C1072 1.391 . S
C1071 C1070 1.386 . S
C1071 C1075 1.393 1_655 S
C1072 H1064 0.950 . S
C1072 C1070 1.391 . S
C1072 C1073 1.400 . S
C1073 C1072 1.400 . S
C1073 C1074 1.398 1_655 S
C1073 C1079 1.491 . S
C1074 H1065 0.950 . S
C1074 C1073 1.398 1_455 S
C1074 C1075 1.391 . S
C1075 H1063 0.950 . S
C1075 C1071 1.393 1_455 S
C1075 C1074 1.391 . S
C1076 H1066 0.950 . S
C1076 C1077 1.386 1_455 S
C1076 C1078 1.391 . S
C1077 C1076 1.386 1_655 S
C1077 C1081 1.393 . S
C1078 H1067 0.950 . S
C1078 C1076 1.391 . S
C1078 C1079 1.400 1_455 S
C1079 C1073 1.491 . S
C1079 C1078 1.400 1_655 S
C1079 C1080 1.398 . S
C1080 H1068 0.950 . S
C1080 C1079 1.398 . S
C1080 C1081 1.391 . S
C1081 H1069 0.950 . S
C1081 C1077 1.393 . S
C1081 C1080 1.391 . S
H1082 C1090 0.950 . S
H1083 C1095 0.950 . S
H1084 C1092 0.950 . S
H1085 C1094 0.950 . S
H1086 C1096 0.950 . S
H1087 C1098 0.950 . S
H1088 C1100 0.950 . S
H1089 C1101 0.950 . S
C1090 H1082 0.950 . S
C1090 C1091 1.386 . S
C1090 C1092 1.391 . S
C1091 C1090 1.386 . S
C1091 C1095 1.393 . S
C1092 H1084 0.950 . S
C1092 C1090 1.391 . S
C1092 C1093 1.400 . S
C1093 C1092 1.400 . S
C1093 C1094 1.398 . S
C1093 C1099 1.491 . S
C1094 H1085 0.950 . S
C1094 C1093 1.398 . S
C1094 C1095 1.391 . S
C1095 H1083 0.950 . S
C1095 C1091 1.393 . S
C1095 C1094 1.391 . S
C1096 H1086 0.950 . S
C1096 C1097 1.386 . S
C1096 C1098 1.391 . S
C1097 C1096 1.386 . S
C1097 C1101 1.393 . S
C1098 H1087 0.950 . S
C1098 C1096 1.391 . S
C1098 C1099 1.400 . S
C1099 C1093 1.491 . S
C1099 C1098 1.400 . S
C1099 C1100 1.398 . S
C1100 H1088 0.950 . S
C1100 C1099 1.398 . S
C1100 C1101 1.391 . S
C1101 H1089 0.950 . S
C1101 C1097 1.393 . S
C1101 C1100 1.391 . S
H1102 C1110 0.950 . S
H1103 C1115 0.950 . S
H1104 C1112 0.950 . S
H1105 C1114 0.950 . S
H1106 C1116 0.950 . S
H1107 C1118 0.950 . S
H1108 C1120 0.950 . S
H1109 C1121 0.950 . S
C1110 H1102 0.950 . S
C1110 C1111 1.386 . S
C1110 C1112 1.391 . S
C1111 C1110 1.386 . S
C1111 C1115 1.393 . S
C1112 H1104 0.950 . S
C1112 C1110 1.391 . S
C1112 C1113 1.400 . S
C1113 C1112 1.400 . S
C1113 C1114 1.398 . S
C1113 C1119 1.491 . S
C1114 H1105 0.950 . S
C1114 C1113 1.398 . S
C1114 C1115 1.391 . S
C1115 H1103 0.950 . S
C1115 C1111 1.393 . S
C1115 C1114 1.391 . S
C1116 H1106 0.950 . S
C1116 C1117 1.386 . S
C1116 C1118 1.391 . S
C1117 C1116 1.386 . S
C1117 C1121 1.393 . S
C1118 H1107 0.950 . S
C1118 C1116 1.391 . S
C1118 C1119 1.400 . S
C1119 C1113 1.491 . S
C1119 C1118 1.400 . S
C1119 C1120 1.398 . S
C1120 H1108 0.950 . S
C1120 C1119 1.398 . S
C1120 C1121 1.391 . S
C1121 H1109 0.950 . S
C1121 C1117 1.393 . S
C1121 C1120 1.391 . S
H1122 C1130 0.950 . S
H1123 C1135 0.950 . S
H1124 C1132 0.950 . S
H1125 C1134 0.950 . S
H1126 C1136 0.950 . S
H1127 C1138 0.950 . S
H1128 C1140 0.950 . S
H1129 C1141 0.950 . S
C1130 H1122 0.950 . S
C1130 C1131 1.386 . S
C1130 C1132 1.391 . S
C1131 C1130 1.386 . S
C1131 C1135 1.393 1_565 S
C1132 H1124 0.950 . S
C1132 C1130 1.391 . S
C1132 C1133 1.400 . S
C1133 C1132 1.400 . S
C1133 C1134 1.398 1_565 S
C1133 C1139 1.491 . S
C1134 H1125 0.950 . S
C1134 C1133 1.398 1_545 S
C1134 C1135 1.391 . S
C1135 H1123 0.950 . S
C1135 C1131 1.393 1_545 S
C1135 C1134 1.391 . S
C1136 H1126 0.950 . S
C1136 C1137 1.386 1_545 S
C1136 C1138 1.391 . S
C1137 C1136 1.386 1_565 S
C1137 C1141 1.393 . S
C1138 H1127 0.950 . S
C1138 C1136 1.391 . S
C1138 C1139 1.400 1_545 S
C1139 C1133 1.491 . S
C1139 C1138 1.400 1_565 S
C1139 C1140 1.398 . S
C1140 H1128 0.950 . S
C1140 C1139 1.398 . S
C1140 C1141 1.391 . S
C1141 H1129 0.950 . S
C1141 C1137 1.393 . S
C1141 C1140 1.391 . S
H1142 C1150 0.950 . S
H1143 C1155 0.950 . S
H1144 C1152 0.950 . S
H1145 C1154 0.950 . S
H1146 C1156 0.950 . S
H1147 C1158 0.950 . S
H1148 C1160 0.950 . S
H1149 C1161 0.950 . S
C1150 H1142 0.950 . S
C1150 C1151 1.386 . S
C1150 C1152 1.391 . S
C1151 C1150 1.386 . S
C1151 C1155 1.393 1_455 S
C1152 H1144 0.950 . S
C1152 C1150 1.391 . S
C1152 C1153 1.400 . S
C1153 C1152 1.400 . S
C1153 C1154 1.398 1_455 S
C1153 C1159 1.491 . S
C1154 H1145 0.950 . S
C1154 C1153 1.398 1_655 S
C1154 C1155 1.391 . S
C1155 H1143 0.950 . S
C1155 C1151 1.393 1_655 S
C1155 C1154 1.391 . S
C1156 H1146 0.950 . S
C1156 C1157 1.386 1_655 S
C1156 C1158 1.391 . S
C1157 C1156 1.386 1_455 S
C1157 C1161 1.393 . S
C1158 H1147 0.950 . S
C1158 C1156 1.391 . S
C1158 C1159 1.400 1_655 S
C1159 C1153 1.491 . S
C1159 C1158 1.400 1_455 S
C1159 C1160 1.398 . S
C1160 H1148 0.950 . S
C1160 C1159 1.398 . S
C1160 C1161 1.391 . S
C1161 H1149 0.950 . S
C1161 C1157 1.393 . S
C1161 C1160 1.391 . S
H1162 C1170 0.950 . S
H1163 C1175 0.950 . S
H1164 C1172 0.950 . S
H1165 C1174 0.950 . S
H1166 C1176 0.950 . S
H1167 C1178 0.950 . S
H1168 C1180 0.950 . S
H1169 C1181 0.950 . S
C1170 H1162 0.950 . S
C1170 C1171 1.386 . S
C1170 C1172 1.391 . S
C1171 C1170 1.386 . S
C1171 C1175 1.393 . S
C1172 H1164 0.950 . S
C1172 C1170 1.391 . S
C1172 C1173 1.400 . S
C1173 C1172 1.400 . S
C1173 C1174 1.398 . S
C1173 C1179 1.491 . S
C1174 H1165 0.950 . S
C1174 C1173 1.398 . S
C1174 C1175 1.391 . S
C1175 H1163 0.950 . S
C1175 C1171 1.393 . S
C1175 C1174 1.391 . S
C1176 H1166 0.950 . S
C1176 C1177 1.386 . S
C1176 C1178 1.391 . S
C1177 C1176 1.386 . S
C1177 C1181 1.393 . S
C1178 H1167 0.950 . S
C1178 C1176 1.391 . S
C1178 C1179 1.400 . S
C1179 C1173 1.491 . S
C1179 C1178 1.400 . S
C1179 C1180 1.398 . S
C1180 H1168 0.950 . S
C1180 C1179 1.398 . S
C1180 C1181 1.391 . S
C1181 H1169 0.950 . S
C1181 C1177 1.393 . S
C1181 C1180 1.391 . S
H1182 C1190 0.950 . S
H1183 C1195 0.950 . S
H1184 C1192 0.950 . S
H1185 C1194 0.950 . S
H1186 C1196 0.950 . S
H1187 C1198 0.950 . S
H1188 C1200 0.950 . S
H1189 C1201 0.950 . S
C1190 H1182 0.950 . S
C1190 C1191 1.386 . S
C1190 C1192 1.391 . S
C1191 C1190 1.386 . S
C1191 C1195 1.393 . S
C1192 H1184 0.950 . S
C1192 C1190 1.391 . S
C1192 C1193 1.400 . S
C1193 C1192 1.400 . S
C1193 C1194 1.398 . S
C1193 C1199 1.491 . S
C1194 H1185 0.950 . S
C1194 C1193 1.398 . S
C1194 C1195 1.391 . S
C1195 H1183 0.950 . S
C1195 C1191 1.393 . S
C1195 C1194 1.391 . S
C1196 H1186 0.950 . S
C1196 C1197 1.386 . S
C1196 C1198 1.391 . S
C1197 C1196 1.386 . S
C1197 C1201 1.393 . S
C1198 H1187 0.950 . S
C1198 C1196 1.391 . S
C1198 C1199 1.400 . S
C1199 C1193 1.491 . S
C1199 C1198 1.400 . S
C1199 C1200 1.398 . S
C1200 H1188 0.950 . S
C1200 C1199 1.398 . S
C1200 C1201 1.391 . S
C1201 H1189 0.950 . S
C1201 C1197 1.393 . S
C1201 C1200 1.391 . S
H1202 C1210 0.950 . S
H1203 C1215 0.950 . S
H1204 C1212 0.950 . S
H1205 C1214 0.950 . S
H1206 C1216 0.950 . S
H1207 C1218 0.950 . S
H1208 C1220 0.950 . S
H1209 C1221 0.950 . S
C1210 H1202 0.950 . S
C1210 C1211 1.386 . S
C1210 C1212 1.391 . S
C1211 C1210 1.386 . S
C1211 C1215 1.393 . S
C1212 H1204 0.950 . S
C1212 C1210 1.391 . S
C1212 C1213 1.400 . S
C1213 C1212 1.400 . S
C1213 C1214 1.398 . S
C1213 C1219 1.491 . S
C1214 H1205 0.950 . S
C1214 C1213 1.398 . S
C1214 C1215 1.391 . S
C1215 H1203 0.950 . S
C1215 C1211 1.393 . S
C1215 C1214 1.391 . S
C1216 H1206 0.950 . S
C1216 C1217 1.386 . S
C1216 C1218 1.391 . S
C1217 C1216 1.386 . S
C1217 C1221 1.393 . S
C1218 H1207 0.950 . S
C1218 C1216 1.391 . S
C1218 C1219 1.400 . S
C1219 C1213 1.491 . S
C1219 C1218 1.400 . S
C1219 C1220 1.398 . S
C1220 H1208 0.950 . S
C1220 C1219 1.398 . S
C1220 C1221 1.391 . S
C1221 H1209 0.950 . S
C1221 C1217 1.393 . S
C1221 C1220 1.391 . S
H1222 C1230 0.950 . S
H1223 C1235 0.950 . S
H1224 C1232 0.950 . S
H1225 C1234 0.950 . S
H1226 C1236 0.950 . S
H1227 C1238 0.950 . S
H1228 C1240 0.950 . S
H1229 C1241 0.950 . S
C1230 H1222 0.950 . S
C1230 C1231 1.386 1_545 S
C1230 C1232 1.391 . S
C1231 C1230 1.386 1_565 S
C1231 C1235 1.393 . S
C1232 H1224 0.950 . S
C1232 C1230 1.391 . S
C1232 C1233 1.400 1_545 S
C1233 C1232 1.400 1_565 S
C1233 C1234 1.398 . S
C1233 C1239 1.491 . S
C1234 H1225 0.950 . S
C1234 C1233 1.398 . S
C1234 C1235 1.391 . S
C1235 H1223 0.950 . S
C1235 C1231 1.393 . S
C1235 C1234 1.391 . S
C1236 H1226 0.950 . S
C1236 C1237 1.386 . S
C1236 C1238 1.391 . S
C1237 C1236 1.386 . S
C1237 C1241 1.393 1_565 S
C1238 H1227 0.950 . S
C1238 C1236 1.391 . S
C1238 C1239 1.400 . S
C1239 C1233 1.491 . S
C1239 C1238 1.400 . S
C1239 C1240 1.398 1_565 S
C1240 H1228 0.950 . S
C1240 C1239 1.398 1_545 S
C1240 C1241 1.391 . S
C1241 H1229 0.950 . S
C1241 C1237 1.393 1_545 S
C1241 C1240 1.391 . S
H1242 C1250 0.956 . S
H1243 C1255 0.950 . S
H1244 C1252 0.950 . S
H1245 C1254 0.950 . S
H1246 C1256 0.950 . S
H1247 C1258 0.950 . S
H1248 C1260 0.950 . S
H1249 C1261 0.950 . S
C1250 H1242 0.956 . S
C1250 C1251 1.359 . S
C1250 C1252 1.414 . S
C1251 C1250 1.359 . S
C1251 C1255 1.393 . S
C1252 H1244 0.950 . S
C1252 C1250 1.414 . S
C1252 C1253 1.400 . S
C1253 C1252 1.400 . S
C1253 C1254 1.398 . S
C1253 C1259 1.491 . S
C1254 H1245 0.950 . S
C1254 C1253 1.398 . S
C1254 C1255 1.391 . S
C1255 H1243 0.950 . S
C1255 C1251 1.393 . S
C1255 C1254 1.391 . S
C1256 H1246 0.950 . S
C1256 C1257 1.386 . S
C1256 C1258 1.391 . S
C1257 C1256 1.386 . S
C1257 C1261 1.393 . S
C1258 H1247 0.950 . S
C1258 C1256 1.391 . S
C1258 C1259 1.400 . S
C1259 C1253 1.491 . S
C1259 C1258 1.400 . S
C1259 C1260 1.398 . S
C1260 H1248 0.950 . S
C1260 C1259 1.398 . S
C1260 C1261 1.391 . S
C1261 H1249 0.950 . S
C1261 C1257 1.393 . S
C1261 C1260 1.391 . S
H1262 C1270 0.950 . S
H1263 C1275 0.950 . S
H1264 C1272 0.950 . S
H1265 C1274 0.950 . S
H1266 C1276 0.950 . S
H1267 C1278 0.950 . S
H1268 C1280 0.950 . S
H1269 C1281 0.950 . S
C1270 H1262 0.950 . S
C1270 C1271 1.386 1_455 S
C1270 C1272 1.391 . S
C1271 C1270 1.386 1_655 S
C1271 C1275 1.393 . S
C1272 H1264 0.950 . S
C1272 C1270 1.391 . S
C1272 C1273 1.400 1_455 S
C1273 C1272 1.400 1_655 S
C1273 C1274 1.398 . S
C1273 C1279 1.491 . S
C1274 H1265 0.950 . S
C1274 C1273 1.398 . S
C1274 C1275 1.391 . S
C1275 H1263 0.950 . S
C1275 C1271 1.393 . S
C1275 C1274 1.391 . S
C1276 H1266 0.950 . S
C1276 C1277 1.386 . S
C1276 C1278 1.391 . S
C1277 C1276 1.386 . S
C1277 C1281 1.393 1_655 S
C1278 H1267 0.950 . S
C1278 C1276 1.391 . S
C1278 C1279 1.400 . S
C1279 C1273 1.491 . S
C1279 C1278 1.400 . S
C1279 C1280 1.398 1_655 S
C1280 H1268 0.950 . S
C1280 C1279 1.398 1_455 S
C1280 C1281 1.391 . S
C1281 H1269 0.950 . S
C1281 C1277 1.393 1_455 S
C1281 C1280 1.391 . S
H1282 C1290 0.950 . S
H1283 C1295 0.950 . S
H1284 C1292 0.950 . S
H1285 C1294 0.950 . S
H1286 C1296 0.950 . S
H1287 C1298 0.950 . S
H1288 C1300 0.950 . S
H1289 C1301 0.950 . S
C1290 H1282 0.950 . S
C1290 C1291 1.386 . S
C1290 C1292 1.391 . S
C1291 C1290 1.386 . S
C1291 C1295 1.393 . S
C1292 H1284 0.950 . S
C1292 C1290 1.391 . S
C1292 C1293 1.400 . S
C1293 C1292 1.400 . S
C1293 C1294 1.398 . S
C1293 C1299 1.491 . S
C1294 H1285 0.950 . S
C1294 C1293 1.398 . S
C1294 C1295 1.391 . S
C1295 H1283 0.950 . S
C1295 C1291 1.393 . S
C1295 C1294 1.391 . S
C1296 H1286 0.950 . S
C1296 C1297 1.386 . S
C1296 C1298 1.391 . S
C1297 C1296 1.386 . S
C1297 C1301 1.393 . S
C1298 H1287 0.950 . S
C1298 C1296 1.391 . S
C1298 C1299 1.400 . S
C1299 C1293 1.491 . S
C1299 C1298 1.400 . S
C1299 C1300 1.398 . S
C1300 H1288 0.950 . S
C1300 C1299 1.398 . S
C1300 C1301 1.391 . S
C1301 H1289 0.950 . S
C1301 C1297 1.393 . S
C1301 C1300 1.391 . S
H1302 C1310 0.950 . S
H1303 C1315 0.950 . S
H1304 C1312 0.950 . S
H1305 C1314 0.950 . S
H1306 C1316 0.950 . S
H1307 C1318 0.950 . S
H1308 C1320 0.950 . S
H1309 C1321 0.950 . S
C1310 H1302 0.950 . S
C1310 C1311 1.386 . S
C1310 C1312 1.391 . S
C1311 C1310 1.386 . S
C1311 C1315 1.393 . S
C1312 H1304 0.950 . S
C1312 C1310 1.391 . S
C1312 C1313 1.400 . S
C1313 C1312 1.400 . S
C1313 C1314 1.398 . S
C1313 C1319 1.491 . S
C1314 H1305 0.950 . S
C1314 C1313 1.398 . S
C1314 C1315 1.391 . S
C1315 H1303 0.950 . S
C1315 C1311 1.393 . S
C1315 C1314 1.391 . S
C1316 H1306 0.950 . S
C1316 C1317 1.386 . S
C1316 C1318 1.391 . S
C1317 C1316 1.386 . S
C1317 C1321 1.393 . S
C1318 H1307 0.950 . S
C1318 C1316 1.391 . S
C1318 C1319 1.400 . S
C1319 C1313 1.491 . S
C1319 C1318 1.400 . S
C1319 C1320 1.398 . S
C1320 H1308 0.950 . S
C1320 C1319 1.398 . S
C1320 C1321 1.391 . S
C1321 H1309 0.950 . S
C1321 C1317 1.393 . S
C1321 C1320 1.391 . S
H1322 C1330 0.950 . S
H1323 C1335 0.950 . S
H1324 C1332 0.950 . S
H1325 C1334 0.950 . S
H1326 C1336 0.950 . S
H1327 C1338 0.950 . S
H1328 C1340 0.950 . S
H1329 C1341 0.950 . S
C1330 H1322 0.950 . S
C1330 C1331 1.386 . S
C1330 C1332 1.391 . S
C1331 C1330 1.386 . S
C1331 C1335 1.393 . S
C1332 H1324 0.950 . S
C1332 C1330 1.391 . S
C1332 C1333 1.400 . S
C1333 C1332 1.400 . S
C1333 C1334 1.398 . S
C1333 C1339 1.491 . S
C1334 H1325 0.950 . S
C1334 C1333 1.398 . S
C1334 C1335 1.391 . S
C1335 H1323 0.950 . S
C1335 C1331 1.393 . S
C1335 C1334 1.391 . S
C1336 H1326 0.950 . S
C1336 C1337 1.386 . S
C1336 C1338 1.391 . S
C1337 C1336 1.386 . S
C1337 C1341 1.393 . S
C1338 H1327 0.950 . S
C1338 C1336 1.391 . S
C1338 C1339 1.400 . S
C1339 C1333 1.491 . S
C1339 C1338 1.400 . S
C1339 C1340 1.398 . S
C1340 H1328 0.950 . S
C1340 C1339 1.398 . S
C1340 C1341 1.391 . S
C1341 H1329 0.950 . S
C1341 C1337 1.393 . S
C1341 C1340 1.391 . S
H1342 C1350 0.950 . S
H1343 C1355 0.950 . S
H1344 C1352 0.950 . S
H1345 C1354 0.950 . S
H1346 C1356 0.950 . S
H1347 C1358 0.950 . S
H1348 C1360 0.950 . S
H1349 C1361 0.950 . S
C1350 H1342 0.950 . S
C1350 C1351 1.386 . S
C1350 C1352 1.391 . S
C1351 C1350 1.386 . S
C1351 C1355 1.393 . S
C1352 H1344 0.950 . S
C1352 C1350 1.391 . S
C1352 C1353 1.400 . S
C1353 C1352 1.400 . S
C1353 C1354 1.398 . S
C1353 C1359 1.491 . S
C1354 H1345 0.950 . S
C1354 C1353 1.398 . S
C1354 C1355 1.391 . S
C1355 H1343 0.950 . S
C1355 C1351 1.393 . S
C1355 C1354 1.391 . S
C1356 H1346 0.950 . S
C1356 C1357 1.386 . S
C1356 C1358 1.391 . S
C1357 C1356 1.386 . S
C1357 C1361 1.393 . S
C1358 H1347 0.950 . S
C1358 C1356 1.391 . S
C1358 C1359 1.400 . S
C1359 C1353 1.491 . S
C1359 C1358 1.400 . S
C1359 C1360 1.398 . S
C1360 H1348 0.950 . S
C1360 C1359 1.398 . S
C1360 C1361 1.391 . S
C1361 H1349 0.950 . S
C1361 C1357 1.393 . S
C1361 C1360 1.391 . S
H1362 C1370 0.950 . S
H1363 C1375 0.950 . S
H1364 C1372 0.950 . S
H1365 C1374 0.950 . S
H1366 C1376 0.950 . S
H1367 C1378 0.950 . S
H1368 C1380 0.950 . S
H1369 C1381 0.950 . S
C1370 H1362 0.950 . S
C1370 C1371 1.386 . S
C1370 C1372 1.391 . S
C1371 C1370 1.386 . S
C1371 C1375 1.393 . S
C1372 H1364 0.950 . S
C1372 C1370 1.391 . S
C1372 C1373 1.400 . S
C1373 C1372 1.400 . S
C1373 C1374 1.398 . S
C1373 C1379 1.491 . S
C1374 H1365 0.950 . S
C1374 C1373 1.398 . S
C1374 C1375 1.391 . S
C1375 H1363 0.950 . S
C1375 C1371 1.393 . S
C1375 C1374 1.391 . S
C1376 H1366 0.950 . S
C1376 C1377 1.386 . S
C1376 C1378 1.391 . S
C1377 C1376 1.386 . S
C1377 C1381 1.393 . S
C1378 H1367 0.950 . S
C1378 C1376 1.391 . S
C1378 C1379 1.400 . S
C1379 C1373 1.491 . S
C1379 C1378 1.400 . S
C1379 C1380 1.398 . S
C1380 H1368 0.950 . S
C1380 C1379 1.398 . S
C1380 C1381 1.391 . S
C1381 H1369 0.950 . S
C1381 C1377 1.393 . S
C1381 C1380 1.391 . S
H1382 C1390 0.950 . S
H1383 C1395 0.950 . S
H1384 C1392 0.950 . S
H1385 C1394 0.950 . S
H1386 C1396 0.950 . S
H1387 C1398 0.950 . S
H1388 C1400 0.950 . S
H1389 C1401 0.950 . S
C1390 H1382 0.950 . S
C1390 C1391 1.386 . S
C1390 C1392 1.391 . S
C1391 C1390 1.386 . S
C1391 C1395 1.393 . S
C1392 H1384 0.950 . S
C1392 C1390 1.391 . S
C1392 C1393 1.400 . S
C1393 C1392 1.400 . S
C1393 C1394 1.398 . S
C1393 C1399 1.491 . S
C1394 H1385 0.950 . S
C1394 C1393 1.398 . S
C1394 C1395 1.391 . S
C1395 H1383 0.950 . S
C1395 C1391 1.393 . S
C1395 C1394 1.391 . S
C1396 H1386 0.950 . S
C1396 C1397 1.386 . S
C1396 C1398 1.391 . S
C1397 C1396 1.386 . S
C1397 C1401 1.393 . S
C1398 H1387 0.950 . S
C1398 C1396 1.391 . S
C1398 C1399 1.400 . S
C1399 C1393 1.491 . S
C1399 C1398 1.400 . S
C1399 C1400 1.398 . S
C1400 H1388 0.950 . S
C1400 C1399 1.398 . S
C1400 C1401 1.391 . S
C1401 H1389 0.950 . S
C1401 C1397 1.393 . S
C1401 C1400 1.391 . S
H1402 C1410 0.950 . S
H1403 C1415 0.950 . S
H1404 C1412 0.950 . S
H1405 C1414 0.950 . S
H1406 C1416 0.950 . S
H1407 C1418 0.950 . S
H1408 C1420 0.950 . S
H1409 C1421 0.950 . S
C1410 H1402 0.950 . S
C1410 C1411 1.386 . S
C1410 C1412 1.391 . S
C1411 C1410 1.386 . S
C1411 C1415 1.393 . S
C1412 H1404 0.950 . S
C1412 C1410 1.391 . S
C1412 C1413 1.400 . S
C1413 C1412 1.400 . S
C1413 C1414 1.398 . S
C1413 C1419 1.491 . S
C1414 H1405 0.950 . S
C1414 C1413 1.398 . S
C1414 C1415 1.391 . S
C1415 H1403 0.950 . S
C1415 C1411 1.393 . S
C1415 C1414 1.391 . S
C1416 H1406 0.950 . S
C1416 C1417 1.386 . S
C1416 C1418 1.391 . S
C1417 C1416 1.386 . S
C1417 C1421 1.393 . S
C1418 H1407 0.950 . S
C1418 C1416 1.391 . S
C1418 C1419 1.400 . S
C1419 C1413 1.491 . S
C1419 C1418 1.400 . S
C1419 C1420 1.398 . S
C1420 H1408 0.950 . S
C1420 C1419 1.398 . S
C1420 C1421 1.391 . S
C1421 H1409 0.950 . S
C1421 C1417 1.393 . S
C1421 C1420 1.391 . S
H1422 C1430 0.950 . S
H1423 C1435 0.950 . S
H1424 C1432 0.950 . S
H1425 C1434 0.950 . S
H1426 C1436 0.950 . S
H1427 C1438 0.950 . S
H1428 C1440 0.950 . S
H1429 C1441 0.950 . S
C1430 H1422 0.950 . S
C1430 C1431 1.386 . S
C1430 C1432 1.391 . S
C1431 C1430 1.386 . S
C1431 C1435 1.393 . S
C1432 H1424 0.950 . S
C1432 C1430 1.391 . S
C1432 C1433 1.400 . S
C1433 C1432 1.400 . S
C1433 C1434 1.398 . S
C1433 C1439 1.491 . S
C1434 H1425 0.950 . S
C1434 C1433 1.398 . S
C1434 C1435 1.391 . S
C1435 H1423 0.950 . S
C1435 C1431 1.393 . S
C1435 C1434 1.391 . S
C1436 H1426 0.950 . S
C1436 C1437 1.386 . S
C1436 C1438 1.391 . S
C1437 C1436 1.386 . S
C1437 C1441 1.393 . S
C1438 H1427 0.950 . S
C1438 C1436 1.391 . S
C1438 C1439 1.400 . S
C1439 C1433 1.491 . S
C1439 C1438 1.400 . S
C1439 C1440 1.398 . S
C1440 H1428 0.950 . S
C1440 C1439 1.398 . S
C1440 C1441 1.391 . S
C1441 H1429 0.950 . S
C1441 C1437 1.393 . S
C1441 C1440 1.391 . S
H1442 C1450 0.950 . S
H1443 C1455 0.950 . S
H1444 C1452 0.950 . S
H1445 C1454 0.950 . S
H1446 C1456 0.950 . S
H1447 C1458 0.950 . S
H1448 C1460 0.950 . S
H1449 C1461 0.950 . S
C1450 H1442 0.950 . S
C1450 C1451 1.386 . S
C1450 C1452 1.391 . S
C1451 C1450 1.386 . S
C1451 C1455 1.393 . S
C1452 H1444 0.950 . S
C1452 C1450 1.391 . S
C1452 C1453 1.400 . S
C1453 C1452 1.400 . S
C1453 C1454 1.398 . S
C1453 C1459 1.491 . S
C1454 H1445 0.950 . S
C1454 C1453 1.398 . S
C1454 C1455 1.391 . S
C1455 H1443 0.950 . S
C1455 C1451 1.393 . S
C1455 C1454 1.391 . S
C1456 H1446 0.950 . S
C1456 C1457 1.386 . S
C1456 C1458 1.391 . S
C1457 C1456 1.386 . S
C1457 C1461 1.393 . S
C1458 H1447 0.950 . S
C1458 C1456 1.391 . S
C1458 C1459 1.400 . S
C1459 C1453 1.491 . S
C1459 C1458 1.400 . S
C1459 C1460 1.398 . S
C1460 H1448 0.950 . S
C1460 C1459 1.398 . S
C1460 C1461 1.391 . S
C1461 H1449 0.950 . S
C1461 C1457 1.393 . S
C1461 C1460 1.391 . S
H1462 C1470 0.950 . S
H1463 C1475 0.950 . S
H1464 C1472 0.950 . S
H1465 C1474 0.950 . S
H1466 C1476 0.950 . S
H1467 C1478 0.950 . S
H1468 C1480 0.950 . S
H1469 C1481 0.950 . S
C1470 H1462 0.950 . S
C1470 C1471 1.386 . S
C1470 C1472 1.391 . S
C1471 C1470 1.386 . S
C1471 C1475 1.393 . S
C1472 H1464 0.950 . S
C1472 C1470 1.391 . S
C1472 C1473 1.400 . S
C1473 C1472 1.400 . S
C1473 C1474 1.398 . S
C1473 C1479 1.491 . S
C1474 H1465 0.950 . S
C1474 C1473 1.398 . S
C1474 C1475 1.391 . S
C1475 H1463 0.950 . S
C1475 C1471 1.393 . S
C1475 C1474 1.391 . S
C1476 H1466 0.950 . S
C1476 C1477 1.386 . S
C1476 C1478 1.391 . S
C1477 C1476 1.386 . S
C1477 C1481 1.393 . S
C1478 H1467 0.950 . S
C1478 C1476 1.391 . S
C1478 C1479 1.400 . S
C1479 C1473 1.491 . S
C1479 C1478 1.400 . S
C1479 C1480 1.398 . S
C1480 H1468 0.950 . S
C1480 C1479 1.398 . S
C1480 C1481 1.391 . S
C1481 H1469 0.950 . S
C1481 C1477 1.393 . S
C1481 C1480 1.391 . S
H1482 C1490 0.950 . S
H1483 C1495 0.950 . S
H1484 C1492 0.950 . S
H1485 C1494 0.950 . S
H1486 C1496 0.950 . S
H1487 C1498 0.950 . S
H1488 C1500 0.950 . S
H1489 C1501 0.950 . S
C1490 H1482 0.950 . S
C1490 C1491 1.386 . S
C1490 C1492 1.391 . S
C1491 C1490 1.386 . S
C1491 C1495 1.393 . S
C1492 H1484 0.950 . S
C1492 C1490 1.391 . S
C1492 C1493 1.400 . S
C1493 C1492 1.400 . S
C1493 C1494 1.398 . S
C1493 C1499 1.491 . S
C1494 H1485 0.950 . S
C1494 C1493 1.398 . S
C1494 C1495 1.391 . S
C1495 H1483 0.950 . S
C1495 C1491 1.393 . S
C1495 C1494 1.391 . S
C1496 H1486 0.950 . S
C1496 C1497 1.386 . S
C1496 C1498 1.391 . S
C1497 C1496 1.386 . S
C1497 C1501 1.393 . S
C1498 H1487 0.950 . S
C1498 C1496 1.391 . S
C1498 C1499 1.400 . S
C1499 C1493 1.491 . S
C1499 C1498 1.400 . S
C1499 C1500 1.398 . S
C1500 H1488 0.950 . S
C1500 C1499 1.398 . S
C1500 C1501 1.391 . S
C1501 H1489 0.950 . S
C1501 C1497 1.393 . S
C1501 C1500 1.391 . S
H1502 C1510 0.950 . S
H1503 C1515 0.950 . S
H1504 C1512 0.950 . S
H1505 C1514 0.950 . S
H1506 C1516 0.950 . S
H1507 C1518 0.950 . S
H1508 C1520 0.950 . S
H1509 C1521 0.950 . S
C1510 H1502 0.950 . S
C1510 C1511 1.386 . S
C1510 C1512 1.391 . S
C1511 C1510 1.386 . S
C1511 C1515 1.393 . S
C1512 H1504 0.950 . S
C1512 C1510 1.391 . S
C1512 C1513 1.400 . S
C1513 C1512 1.400 . S
C1513 C1514 1.398 . S
C1513 C1519 1.491 . S
C1514 H1505 0.950 . S
C1514 C1513 1.398 . S
C1514 C1515 1.391 . S
C1515 H1503 0.950 . S
C1515 C1511 1.393 . S
C1515 C1514 1.391 . S
C1516 H1506 0.950 . S
C1516 C1517 1.386 . S
C1516 C1518 1.391 . S
C1517 C1516 1.386 . S
C1517 C1521 1.393 . S
C1518 H1507 0.950 . S
C1518 C1516 1.391 . S
C1518 C1519 1.400 . S
C1519 C1513 1.491 . S
C1519 C1518 1.400 . S
C1519 C1520 1.398 . S
C1520 H1508 0.950 . S
C1520 C1519 1.398 . S
C1520 C1521 1.391 . S
C1521 H1509 0.950 . S
C1521 C1517 1.393 . S
C1521 C1520 1.391 . S
H1522 C1530 0.950 . S
H1523 C1535 0.950 . S
H1524 C1532 0.950 . S
H1525 C1534 0.950 . S
H1526 C1536 0.950 . S
H1527 C1538 0.950 . S
H1528 C1540 0.950 . S
H1529 C1541 0.950 . S
C1530 H1522 0.950 . S
C1530 C1531 1.386 . S
C1530 C1532 1.391 . S
C1531 C1530 1.386 . S
C1531 C1535 1.393 . S
C1532 H1524 0.950 . S
C1532 C1530 1.391 . S
C1532 C1533 1.400 . S
C1533 C1532 1.400 . S
C1533 C1534 1.398 . S
C1533 C1539 1.491 . S
C1534 H1525 0.950 . S
C1534 C1533 1.398 . S
C1534 C1535 1.391 . S
C1535 H1523 0.950 . S
C1535 C1531 1.393 . S
C1535 C1534 1.391 . S
C1536 H1526 0.950 . S
C1536 C1537 1.386 . S
C1536 C1538 1.391 . S
C1537 C1536 1.386 . S
C1537 C1541 1.393 . S
C1538 H1527 0.950 . S
C1538 C1536 1.391 . S
C1538 C1539 1.400 . S
C1539 C1533 1.491 . S
C1539 C1538 1.400 . S
C1539 C1540 1.398 . S
C1540 H1528 0.950 . S
C1540 C1539 1.398 . S
C1540 C1541 1.391 . S
C1541 H1529 0.950 . S
C1541 C1537 1.393 . S
C1541 C1540 1.391 . S
H1542 C1550 0.950 . S
H1543 C1555 0.950 . S
H1544 C1552 0.950 . S
H1545 C1554 0.950 . S
H1546 C1556 0.950 . S
H1547 C1558 0.950 . S
H1548 C1560 0.950 . S
H1549 C1561 0.950 . S
C1550 H1542 0.950 . S
C1550 C1551 1.386 . S
C1550 C1552 1.391 . S
C1551 C1550 1.386 . S
C1551 C1555 1.393 . S
C1552 H1544 0.950 . S
C1552 C1550 1.391 . S
C1552 C1553 1.400 . S
C1553 C1552 1.400 . S
C1553 C1554 1.398 . S
C1553 C1559 1.491 . S
C1554 H1545 0.950 . S
C1554 C1553 1.398 . S
C1554 C1555 1.391 . S
C1555 H1543 0.950 . S
C1555 C1551 1.393 . S
C1555 C1554 1.391 . S
C1556 H1546 0.950 . S
C1556 C1557 1.386 . S
C1556 C1558 1.391 . S
C1557 C1556 1.386 . S
C1557 C1561 1.393 . S
C1558 H1547 0.950 . S
C1558 C1556 1.391 . S
C1558 C1559 1.400 . S
C1559 C1553 1.491 . S
C1559 C1558 1.400 . S
C1559 C1560 1.398 . S
C1560 H1548 0.950 . S
C1560 C1559 1.398 . S
C1560 C1561 1.391 . S
C1561 H1549 0.950 . S
C1561 C1557 1.393 . S
C1561 C1560 1.391 . S
H1562 C1570 0.950 . S
H1563 C1575 0.950 . S
H1564 C1572 0.950 . S
H1565 C1574 0.950 . S
H1566 C1576 0.950 . S
H1567 C1578 0.950 . S
H1568 C1580 0.950 . S
H1569 C1581 0.950 . S
C1570 H1562 0.950 . S
C1570 C1571 1.386 . S
C1570 C1572 1.391 . S
C1571 C1570 1.386 . S
C1571 C1575 1.393 . S
C1572 H1564 0.950 . S
C1572 C1570 1.391 . S
C1572 C1573 1.400 . S
C1573 C1572 1.400 . S
C1573 C1574 1.398 . S
C1573 C1579 1.491 . S
C1574 H1565 0.950 . S
C1574 C1573 1.398 . S
C1574 C1575 1.391 . S
C1575 H1563 0.950 . S
C1575 C1571 1.393 . S
C1575 C1574 1.391 . S
C1576 H1566 0.950 . S
C1576 C1577 1.386 . S
C1576 C1578 1.391 . S
C1577 C1576 1.386 . S
C1577 C1581 1.393 . S
C1578 H1567 0.950 . S
C1578 C1576 1.391 . S
C1578 C1579 1.400 . S
C1579 C1573 1.491 . S
C1579 C1578 1.400 . S
C1579 C1580 1.398 . S
C1580 H1568 0.950 . S
C1580 C1579 1.398 . S
C1580 C1581 1.391 . S
C1581 H1569 0.950 . S
C1581 C1577 1.393 . S
C1581 C1580 1.391 . S
H1582 C1590 0.950 . S
H1583 C1595 0.950 . S
H1584 C1592 0.950 . S
H1585 C1594 0.950 . S
H1586 C1596 0.950 . S
H1587 C1598 0.950 . S
H1588 C1600 0.950 . S
H1589 C1601 0.950 . S
C1590 H1582 0.950 . S
C1590 C1591 1.386 . S
C1590 C1592 1.391 . S
C1591 C1590 1.386 . S
C1591 C1595 1.393 . S
C1592 H1584 0.950 . S
C1592 C1590 1.391 . S
C1592 C1593 1.400 . S
C1593 C1592 1.400 . S
C1593 C1594 1.398 . S
C1593 C1599 1.491 . S
C1594 H1585 0.950 . S
C1594 C1593 1.398 . S
C1594 C1595 1.391 . S
C1595 H1583 0.950 . S
C1595 C1591 1.393 . S
C1595 C1594 1.391 . S
C1596 H1586 0.950 . S
C1596 C1597 1.386 . S
C1596 C1598 1.391 . S
C1597 C1596 1.386 . S
C1597 C1601 1.393 . S
C1598 H1587 0.950 . S
C1598 C1596 1.391 . S
C1598 C1599 1.400 . S
C1599 C1593 1.491 . S
C1599 C1598 1.400 . S
C1599 C1600 1.398 . S
C1600 H1588 0.950 . S
C1600 C1599 1.398 . S
C1600 C1601 1.391 . S
C1601 H1589 0.950 . S
C1601 C1597 1.393 . S
C1601 C1600 1.391 . S
H1602 C1610 0.950 . S
H1603 C1615 0.950 . S
H1604 C1612 0.950 . S
H1605 C1614 0.950 . S
H1606 C1616 0.950 . S
H1607 C1618 0.950 . S
H1608 C1620 0.950 . S
H1609 C1621 0.950 . S
C1610 H1602 0.950 . S
C1610 C1611 1.386 . S
C1610 C1612 1.391 . S
C1611 C1610 1.386 . S
C1611 C1615 1.393 . S
C1612 H1604 0.950 . S
C1612 C1610 1.391 . S
C1612 C1613 1.400 . S
C1613 C1612 1.400 . S
C1613 C1614 1.398 . S
C1613 C1619 1.491 . S
C1614 H1605 0.950 . S
C1614 C1613 1.398 . S
C1614 C1615 1.391 . S
C1615 H1603 0.950 . S
C1615 C1611 1.393 . S
C1615 C1614 1.391 . S
C1616 H1606 0.950 . S
C1616 C1617 1.386 . S
C1616 C1618 1.391 . S
C1617 C1616 1.386 . S
C1617 C1621 1.393 . S
C1618 H1607 0.950 . S
C1618 C1616 1.391 . S
C1618 C1619 1.400 . S
C1619 C1613 1.491 . S
C1619 C1618 1.400 . S
C1619 C1620 1.398 . S
C1620 H1608 0.950 . S
C1620 C1619 1.398 . S
C1620 C1621 1.391 . S
C1621 H1609 0.950 . S
C1621 C1617 1.393 . S
C1621 C1620 1.391 . S
H1622 C1630 0.950 . S
H1623 C1635 0.950 . S
H1624 C1632 0.950 . S
H1625 C1634 0.950 . S
H1626 C1636 0.950 . S
H1627 C1638 0.950 . S
H1628 C1640 0.950 . S
H1629 C1641 0.950 . S
C1630 H1622 0.950 . S
C1630 C1631 1.386 . S
C1630 C1632 1.391 . S
C1631 C1630 1.386 . S
C1631 C1635 1.393 . S
C1632 H1624 0.950 . S
C1632 C1630 1.391 . S
C1632 C1633 1.400 . S
C1633 C1632 1.400 . S
C1633 C1634 1.398 . S
C1633 C1639 1.491 . S
C1634 H1625 0.950 . S
C1634 C1633 1.398 . S
C1634 C1635 1.391 . S
C1635 H1623 0.950 . S
C1635 C1631 1.393 . S
C1635 C1634 1.391 . S
C1636 H1626 0.950 . S
C1636 C1637 1.386 . S
C1636 C1638 1.391 . S
C1637 C1636 1.386 . S
C1637 C1641 1.393 . S
C1638 H1627 0.950 . S
C1638 C1636 1.391 . S
C1638 C1639 1.400 . S
C1639 C1633 1.491 . S
C1639 C1638 1.400 . S
C1639 C1640 1.398 . S
C1640 H1628 0.950 . S
C1640 C1639 1.398 . S
C1640 C1641 1.391 . S
C1641 H1629 0.950 . S
C1641 C1637 1.393 . S
C1641 C1640 1.391 . S
H1642 C1650 0.950 . S
H1643 C1655 0.950 . S
H1644 C1652 0.950 . S
H1645 C1654 0.950 . S
H1646 C1656 0.950 . S
H1647 C1658 0.950 . S
H1648 C1660 0.950 . S
H1649 C1661 0.950 . S
C1650 H1642 0.950 . S
C1650 C1651 1.386 . S
C1650 C1652 1.391 . S
C1651 C1650 1.386 . S
C1651 C1655 1.393 . S
C1652 H1644 0.950 . S
C1652 C1650 1.391 . S
C1652 C1653 1.400 . S
C1653 C1652 1.400 . S
C1653 C1654 1.398 . S
C1653 C1659 1.491 . S
C1654 H1645 0.950 . S
C1654 C1653 1.398 . S
C1654 C1655 1.391 . S
C1655 H1643 0.950 . S
C1655 C1651 1.393 . S
C1655 C1654 1.391 . S
C1656 H1646 0.950 . S
C1656 C1657 1.386 . S
C1656 C1658 1.391 . S
C1657 C1656 1.386 . S
C1657 C1661 1.393 . S
C1658 H1647 0.950 . S
C1658 C1656 1.391 . S
C1658 C1659 1.400 . S
C1659 C1653 1.491 . S
C1659 C1658 1.400 . S
C1659 C1660 1.398 . S
C1660 H1648 0.950 . S
C1660 C1659 1.398 . S
C1660 C1661 1.391 . S
C1661 H1649 0.950 . S
C1661 C1657 1.393 . S
C1661 C1660 1.391 . S
H1662 C1670 0.950 . S
H1663 C1675 0.950 . S
H1664 C1672 0.950 . S
H1665 C1674 0.950 . S
H1666 C1676 0.950 . S
H1667 C1678 0.950 . S
H1668 C1680 0.950 . S
H1669 C1681 0.950 . S
C1670 H1662 0.950 . S
C1670 C1671 1.386 . S
C1670 C1672 1.391 . S
C1671 C1670 1.386 . S
C1671 C1675 1.393 . S
C1672 H1664 0.950 . S
C1672 C1670 1.391 . S
C1672 C1673 1.400 . S
C1673 C1672 1.400 . S
C1673 C1674 1.398 . S
C1673 C1679 1.491 . S
C1674 H1665 0.950 . S
C1674 C1673 1.398 . S
C1674 C1675 1.391 . S
C1675 H1663 0.950 . S
C1675 C1671 1.393 . S
C1675 C1674 1.391 . S
C1676 H1666 0.950 . S
C1676 C1677 1.386 . S
C1676 C1678 1.391 . S
C1677 C1676 1.386 . S
C1677 C1681 1.393 . S
C1678 H1667 0.950 . S
C1678 C1676 1.391 . S
C1678 C1679 1.400 . S
C1679 C1673 1.491 . S
C1679 C1678 1.400 . S
C1679 C1680 1.398 . S
C1680 H1668 0.950 . S
C1680 C1679 1.398 . S
C1680 C1681 1.391 . S
C1681 H1669 0.950 . S
C1681 C1677 1.393 . S
C1681 C1680 1.391 . S
H1682 C1690 0.950 . S
H1683 C1695 0.950 . S
H1684 C1692 0.950 . S
H1685 C1694 0.950 . S
H1686 C1696 0.950 . S
H1687 C1698 0.950 . S
H1688 C1700 0.950 . S
H1689 C1701 0.950 . S
C1690 H1682 0.950 . S
C1690 C1691 1.386 . S
C1690 C1692 1.391 . S
C1691 C1690 1.386 . S
C1691 C1695 1.393 . S
C1692 H1684 0.950 . S
C1692 C1690 1.391 . S
C1692 C1693 1.400 . S
C1693 C1692 1.400 . S
C1693 C1694 1.398 . S
C1693 C1699 1.491 . S
C1694 H1685 0.950 . S
C1694 C1693 1.398 . S
C1694 C1695 1.391 . S
C1695 H1683 0.950 . S
C1695 C1691 1.393 . S
C1695 C1694 1.391 . S
C1696 H1686 0.950 . S
C1696 C1697 1.386 . S
C1696 C1698 1.391 . S
C1697 C1696 1.386 . S
C1697 C1701 1.393 . S
C1698 H1687 0.950 . S
C1698 C1696 1.391 . S
C1698 C1699 1.400 . S
C1699 C1693 1.491 . S
C1699 C1698 1.400 . S
C1699 C1700 1.398 . S
C1700 H1688 0.950 . S
C1700 C1699 1.398 . S
C1700 C1701 1.391 . S
C1701 H1689 0.950 . S
C1701 C1697 1.393 . S
C1701 C1700 1.391 . S
H1702 C1710 0.950 . S
H1703 C1715 0.950 . S
H1704 C1712 0.950 . S
H1705 C1714 0.950 . S
H1706 C1716 0.950 . S
H1707 C1718 0.950 . S
H1708 C1720 0.950 . S
H1709 C1721 0.950 . S
C1710 H1702 0.950 . S
C1710 C1711 1.386 . S
C1710 C1712 1.391 . S
C1711 C1710 1.386 . S
C1711 C1715 1.393 . S
C1712 H1704 0.950 . S
C1712 C1710 1.391 . S
C1712 C1713 1.400 . S
C1713 C1712 1.400 . S
C1713 C1714 1.398 . S
C1713 C1719 1.491 . S
C1714 H1705 0.950 . S
C1714 C1713 1.398 . S
C1714 C1715 1.391 . S
C1715 H1703 0.950 . S
C1715 C1711 1.393 . S
C1715 C1714 1.391 . S
C1716 H1706 0.950 . S
C1716 C1717 1.386 . S
C1716 C1718 1.391 . S
C1717 C1716 1.386 . S
C1717 C1721 1.393 . S
C1718 H1707 0.950 . S
C1718 C1716 1.391 . S
C1718 C1719 1.400 . S
C1719 C1713 1.491 . S
C1719 C1718 1.400 . S
C1719 C1720 1.398 . S
C1720 H1708 0.950 . S
C1720 C1719 1.398 . S
C1720 C1721 1.391 . S
C1721 H1709 0.950 . S
C1721 C1717 1.393 . S
C1721 C1720 1.391 . S
H1722 C1730 0.950 . S
H1723 C1735 0.950 . S
H1724 C1732 0.950 . S
H1725 C1734 0.950 . S
H1726 C1736 0.950 . S
H1727 C1738 0.950 . S
H1728 C1740 0.950 . S
H1729 C1741 0.950 . S
C1730 H1722 0.950 . S
C1730 C1731 1.386 . S
C1730 C1732 1.391 . S
C1731 C1730 1.386 . S
C1731 C1735 1.393 . S
C1732 H1724 0.950 . S
C1732 C1730 1.391 . S
C1732 C1733 1.400 . S
C1733 C1732 1.400 . S
C1733 C1734 1.398 . S
C1733 C1739 1.491 . S
C1734 H1725 0.950 . S
C1734 C1733 1.398 . S
C1734 C1735 1.391 . S
C1735 H1723 0.950 . S
C1735 C1731 1.393 . S
C1735 C1734 1.391 . S
C1736 H1726 0.950 . S
C1736 C1737 1.386 . S
C1736 C1738 1.391 . S
C1737 C1736 1.386 . S
C1737 C1741 1.393 . S
C1738 H1727 0.950 . S
C1738 C1736 1.391 . S
C1738 C1739 1.400 . S
C1739 C1733 1.491 . S
C1739 C1738 1.400 . S
C1739 C1740 1.398 . S
C1740 H1728 0.950 . S
C1740 C1739 1.398 . S
C1740 C1741 1.391 . S
C1741 H1729 0.950 . S
C1741 C1737 1.393 . S
C1741 C1740 1.391 . S
H1742 C1750 0.950 . S
H1743 C1755 0.950 . S
H1744 C1752 0.950 . S
H1745 C1754 0.950 . S
H1746 C1756 0.950 . S
H1747 C1758 0.950 . S
H1748 C1760 0.950 . S
H1749 C1761 0.950 . S
C1750 H1742 0.950 . S
C1750 C1751 1.386 . S
C1750 C1752 1.391 . S
C1751 C1750 1.386 . S
C1751 C1755 1.393 . S
C1752 H1744 0.950 . S
C1752 C1750 1.391 . S
C1752 C1753 1.400 . S
C1753 C1752 1.400 . S
C1753 C1754 1.398 . S
C1753 C1759 1.491 . S
C1754 H1745 0.950 . S
C1754 C1753 1.398 . S
C1754 C1755 1.391 . S
C1755 H1743 0.950 . S
C1755 C1751 1.393 . S
C1755 C1754 1.391 . S
C1756 H1746 0.950 . S
C1756 C1757 1.386 . S
C1756 C1758 1.391 . S
C1757 C1756 1.386 . S
C1757 C1761 1.393 . S
C1758 H1747 0.950 . S
C1758 C1756 1.391 . S
C1758 C1759 1.400 . S
C1759 C1753 1.491 . S
C1759 C1758 1.400 . S
C1759 C1760 1.398 . S
C1760 H1748 0.950 . S
C1760 C1759 1.398 . S
C1760 C1761 1.391 . S
C1761 H1749 0.950 . S
C1761 C1757 1.393 . S
C1761 C1760 1.391 . S
H1762 C1770 0.950 . S
H1763 C1775 0.950 . S
H1764 C1772 0.950 . S
H1765 C1774 0.950 . S
H1766 C1776 0.950 . S
H1767 C1778 0.950 . S
H1768 C1780 0.950 . S
H1769 C1781 0.950 . S
C1770 H1762 0.950 . S
C1770 C1771 1.386 . S
C1770 C1772 1.391 . S
C1771 C1770 1.386 . S
C1771 C1775 1.393 . S
C1772 H1764 0.950 . S
C1772 C1770 1.391 . S
C1772 C1773 1.400 . S
C1773 C1772 1.400 . S
C1773 C1774 1.398 . S
C1773 C1779 1.491 . S
C1774 H1765 0.950 . S
C1774 C1773 1.398 . S
C1774 C1775 1.391 . S
C1775 H1763 0.950 . S
C1775 C1771 1.393 . S
C1775 C1774 1.391 . S
C1776 H1766 0.950 . S
C1776 C1777 1.386 . S
C1776 C1778 1.391 . S
C1777 C1776 1.386 . S
C1777 C1781 1.393 . S
C1778 H1767 0.950 . S
C1778 C1776 1.391 . S
C1778 C1779 1.400 . S
C1779 C1773 1.491 . S
C1779 C1778 1.400 . S
C1779 C1780 1.398 . S
C1780 H1768 0.950 . S
C1780 C1779 1.398 . S
C1780 C1781 1.391 . S
C1781 H1769 0.950 . S
C1781 C1777 1.393 . S
C1781 C1780 1.391 . S
H1782 C1790 0.950 . S
H1783 C1795 0.950 . S
H1784 C1792 0.950 . S
H1785 C1794 0.950 . S
H1786 C1796 0.950 . S
H1787 C1798 0.950 . S
H1788 C1800 0.950 . S
H1789 C1801 0.950 . S
C1790 H1782 0.950 . S
C1790 C1791 1.386 . S
C1790 C1792 1.391 . S
C1791 C1790 1.386 . S
C1791 C1795 1.393 . S
C1792 H1784 0.950 . S
C1792 C1790 1.391 . S
C1792 C1793 1.400 . S
C1793 C1792 1.400 . S
C1793 C1794 1.398 . S
C1793 C1799 1.491 . S
C1794 H1785 0.950 . S
C1794 C1793 1.398 . S
C1794 C1795 1.391 . S
C1795 H1783 0.950 . S
C1795 C1791 1.393 . S
C1795 C1794 1.391 . S
C1796 H1786 0.950 . S
C1796 C1797 1.386 . S
C1796 C1798 1.391 . S
C1797 C1796 1.386 . S
C1797 C1801 1.393 . S
C1798 H1787 0.950 . S
C1798 C1796 1.391 . S
C1798 C1799 1.400 . S
C1799 C1793 1.491 . S
C1799 C1798 1.400 . S
C1799 C1800 1.398 . S
C1800 H1788 0.950 . S
C1800 C1799 1.398 . S
C1800 C1801 1.391 . S
C1801 H1789 0.950 . S
C1801 C1797 1.393 . S
C1801 C1800 1.391 . S
H1802 C1810 0.950 . S
H1803 C1815 0.950 . S
H1804 C1812 0.950 . S
H1805 C1814 0.950 . S
H1806 C1816 0.950 . S
H1807 C1818 0.950 . S
H1808 C1820 0.950 . S
H1809 C1821 0.950 . S
C1810 H1802 0.950 . S
C1810 C1811 1.386 . S
C1810 C1812 1.391 . S
C1811 C1810 1.386 . S
C1811 C1815 1.393 . S
C1812 H1804 0.950 . S
C1812 C1810 1.391 . S
C1812 C1813 1.400 . S
C1813 C1812 1.400 . S
C1813 C1814 1.398 . S
C1813 C1819 1.491 . S
C1814 H1805 0.950 . S
C1814 C1813 1.398 . S
C1814 C1815 1.391 . S
C1815 H1803 0.950 . S
C1815 C1811 1.393 . S
C1815 C1814 1.391 . S
C1816 H1806 0.950 . S
C1816 C1817 1.386 . S
C1816 C1818 1.391 . S
C1817 C1816 1.386 . S
C1817 C1821 1.393 . S
C1818 H1807 0.950 . S
C1818 C1816 1.391 . S
C1818 C1819 1.400 . S
C1819 C1813 1.491 . S
C1819 C1818 1.400 . S
C1819 C1820 1.398 . S
C1820 H1808 0.950 . S
C1820 C1819 1.398 . S
C1820 C1821 1.391 . S
C1821 H1809 0.950 . S
C1821 C1817 1.393 . S
C1821 C1820 1.391 . S
H1822 C1830 0.950 . S
H1823 C1835 0.950 . S
H1824 C1832 0.950 . S
H1825 C1834 0.950 . S
H1826 C1836 0.950 . S
H1827 C1838 0.950 . S
H1828 C1840 0.950 . S
H1829 C1841 0.950 . S
C1830 H1822 0.950 . S
C1830 C1831 1.386 . S
C1830 C1832 1.391 . S
C1831 C1830 1.386 . S
C1831 C1835 1.393 . S
C1832 H1824 0.950 . S
C1832 C1830 1.391 . S
C1832 C1833 1.400 . S
C1833 C1832 1.400 . S
C1833 C1834 1.398 . S
C1833 C1839 1.491 . S
C1834 H1825 0.950 . S
C1834 C1833 1.398 . S
C1834 C1835 1.391 . S
C1835 H1823 0.950 . S
C1835 C1831 1.393 . S
C1835 C1834 1.391 . S
C1836 H1826 0.950 . S
C1836 C1837 1.386 . S
C1836 C1838 1.391 . S
C1837 C1836 1.386 . S
C1837 C1841 1.393 . S
C1838 H1827 0.950 . S
C1838 C1836 1.391 . S
C1838 C1839 1.400 . S
C1839 C1833 1.491 . S
C1839 C1838 1.400 . S
C1839 C1840 1.398 . S
C1840 H1828 0.950 . S
C1840 C1839 1.398 . S
C1840 C1841 1.391 . S
C1841 H1829 0.950 . S
C1841 C1837 1.393 . S
C1841 C1840 1.391 . S
H1842 C1850 0.950 . S
H1843 C1855 0.896 1_554 S
H1844 C1852 0.950 . S
H1845 C1854 0.950 . S
H1846 C1856 0.950 . S
H1847 C1858 0.950 . S
H1848 C1860 0.950 . S
H1849 C1861 0.950 . S
C1850 H1842 0.950 . S
C1850 C1851 1.386 . S
C1850 C1852 1.391 . S
C1851 C1850 1.386 . S
C1851 C1855 1.393 . S
C1852 H1844 0.950 . S
C1852 C1850 1.391 . S
C1852 C1853 1.400 . S
C1853 C1852 1.400 . S
C1853 C1854 1.398 . S
C1853 C1859 1.491 . S
C1854 H1845 0.950 . S
C1854 C1853 1.398 . S
C1854 C1855 1.391 . S
C1855 H1843 0.896 1_556 S
C1855 C1851 1.393 . S
C1855 C1854 1.391 . S
C1856 H1846 0.950 . S
C1856 C1857 1.386 . S
C1856 C1858 1.391 . S
C1857 C1856 1.386 . S
C1857 C1861 1.393 . S
C1858 H1847 0.950 . S
C1858 C1856 1.391 . S
C1858 C1859 1.400 . S
C1859 C1853 1.491 . S
C1859 C1858 1.400 . S
C1859 C1860 1.398 . S
C1860 H1848 0.950 . S
C1860 C1859 1.398 . S
C1860 C1861 1.391 . S
C1861 H1849 0.950 . S
C1861 C1857 1.393 . S
C1861 C1860 1.391 . S
H1862 C1870 0.950 1_554 S
H1863 C1875 0.950 . S
H1864 C1872 0.950 . S
H1865 C1874 0.950 . S
H1866 C1876 0.950 . S
H1867 C1878 0.950 . S
H1868 C1880 0.950 . S
H1869 C1881 0.950 . S
C1870 H1862 0.950 1_556 S
C1870 C1871 1.386 . S
C1870 C1872 1.391 . S
C1871 C1870 1.386 . S
C1871 C1875 1.393 . S
C1872 H1864 0.950 . S
C1872 C1870 1.391 . S
C1872 C1873 1.400 . S
C1873 C1872 1.400 . S
C1873 C1874 1.398 . S
C1873 C1879 1.491 . S
C1874 H1865 0.950 . S
C1874 C1873 1.398 . S
C1874 C1875 1.391 . S
C1875 H1863 0.950 . S
C1875 C1871 1.393 . S
C1875 C1874 1.391 . S
C1876 H1866 0.950 . S
C1876 C1877 1.386 . S
C1876 C1878 1.391 . S
C1877 C1876 1.386 . S
C1877 C1881 1.393 . S
C1878 H1867 0.950 . S
C1878 C1876 1.391 . S
C1878 C1879 1.400 . S
C1879 C1873 1.491 . S
C1879 C1878 1.400 . S
C1879 C1880 1.398 . S
C1880 H1868 0.950 . S
C1880 C1879 1.398 . S
C1880 C1881 1.391 . S
C1881 H1869 0.950 . S
C1881 C1877 1.393 . S
C1881 C1880 1.391 . S
H1882 C1890 0.950 . S
H1883 C1895 0.997 . S
H1884 C1892 0.950 . S
H1885 C1894 0.950 . S
H1886 C1896 0.950 . S
H1887 C1898 0.950 . S
H1888 C1900 0.950 . S
H1889 C1901 0.950 . S
C1890 H1882 0.950 . S
C1890 C1891 1.386 . S
C1890 C1892 1.391 . S
C1891 C1890 1.386 . S
C1891 C1895 1.393 . S
C1892 H1884 0.950 . S
C1892 C1890 1.391 . S
C1892 C1893 1.400 . S
C1893 C1892 1.400 . S
C1893 C1894 1.398 . S
C1893 C1899 1.491 . S
C1894 H1885 0.950 . S
C1894 C1893 1.398 . S
C1894 C1895 1.391 . S
C1895 H1883 0.997 . S
C1895 C1891 1.393 . S
C1895 C1894 1.391 . S
C1896 H1886 0.950 . S
C1896 C1897 1.386 . S
C1896 C1898 1.391 . S
C1897 C1896 1.386 . S
C1897 C1901 1.393 . S
C1898 H1887 0.950 . S
C1898 C1896 1.391 . S
C1898 C1899 1.400 . S
C1899 C1893 1.491 . S
C1899 C1898 1.400 . S
C1899 C1900 1.398 . S
C1900 H1888 0.950 . S
C1900 C1899 1.398 . S
C1900 C1901 1.391 . S
C1901 H1889 0.950 . S
C1901 C1897 1.393 . S
C1901 C1900 1.391 . S
H1902 C1910 0.950 . S
H1903 C1915 0.950 . S
H1904 C1912 0.950 . S
H1905 C1914 0.950 . S
H1906 C1916 0.950 . S
H1907 C1918 0.950 . S
H1908 C1920 0.950 . S
H1909 C1921 0.950 . S
C1910 H1902 0.950 . S
C1910 C1911 1.386 . S
C1910 C1912 1.391 . S
C1911 C1910 1.386 . S
C1911 C1915 1.393 . S
C1912 H1904 0.950 . S
C1912 C1910 1.391 . S
C1912 C1913 1.400 . S
C1913 C1912 1.400 . S
C1913 C1914 1.398 . S
C1913 C1919 1.491 . S
C1914 H1905 0.950 . S
C1914 C1913 1.398 . S
C1914 C1915 1.391 . S
C1915 H1903 0.950 . S
C1915 C1911 1.393 . S
C1915 C1914 1.391 . S
C1916 H1906 0.950 . S
C1916 C1917 1.386 . S
C1916 C1918 1.391 . S
C1917 C1916 1.386 . S
C1917 C1921 1.393 . S
C1918 H1907 0.950 . S
C1918 C1916 1.391 . S
C1918 C1919 1.400 . S
C1919 C1913 1.491 . S
C1919 C1918 1.400 . S
C1919 C1920 1.398 . S
C1920 H1908 0.950 . S
C1920 C1919 1.398 . S
C1920 C1921 1.391 . S
C1921 H1909 0.950 . S
C1921 C1917 1.393 . S
C1921 C1920 1.391 . S
H1922 C1930 0.950 . S
H1923 C1935 0.950 . S
H1924 C1932 0.950 . S
H1925 C1934 0.950 . S
H1926 C1936 0.950 . S
H1927 C1938 0.950 . S
H1928 C1940 0.950 . S
H1929 C1941 0.950 . S
C1930 H1922 0.950 . S
C1930 C1931 1.386 . S
C1930 C1932 1.391 . S
C1931 C1930 1.386 . S
C1931 C1935 1.393 . S
C1932 H1924 0.950 . S
C1932 C1930 1.391 . S
C1932 C1933 1.400 . S
C1933 C1932 1.400 . S
C1933 C1934 1.398 . S
C1933 C1939 1.491 . S
C1934 H1925 0.950 . S
C1934 C1933 1.398 . S
C1934 C1935 1.391 . S
C1935 H1923 0.950 . S
C1935 C1931 1.393 . S
C1935 C1934 1.391 . S
C1936 H1926 0.950 . S
C1936 C1937 1.386 . S
C1936 C1938 1.391 . S
C1937 C1936 1.386 . S
C1937 C1941 1.393 . S
C1938 H1927 0.950 . S
C1938 C1936 1.391 . S
C1938 C1939 1.400 . S
C1939 C1933 1.491 . S
C1939 C1938 1.400 . S
C1939 C1940 1.398 . S
C1940 H1928 0.950 . S
C1940 C1939 1.398 . S
C1940 C1941 1.391 . S
C1941 H1929 0.950 . S
C1941 C1937 1.393 . S
C1941 C1940 1.391 . S
H1942 C1950 0.950 . S
H1943 C1955 0.950 . S
H1944 C1952 0.950 . S
H1945 C1954 0.950 . S
H1946 C1956 0.950 . S
H1947 C1958 0.950 . S
H1948 C1960 0.950 . S
H1949 C1961 0.950 . S
C1950 H1942 0.950 . S
C1950 C1951 1.386 . S
C1950 C1952 1.391 . S
C1951 C1950 1.386 . S
C1951 C1955 1.393 . S
C1952 H1944 0.950 . S
C1952 C1950 1.391 . S
C1952 C1953 1.400 . S
C1953 C1952 1.400 . S
C1953 C1954 1.398 . S
C1953 C1959 1.491 . S
C1954 H1945 0.950 . S
C1954 C1953 1.398 . S
C1954 C1955 1.391 . S
C1955 H1943 0.950 . S
C1955 C1951 1.393 . S
C1955 C1954 1.391 . S
C1956 H1946 0.950 . S
C1956 C1957 1.386 . S
C1956 C1958 1.391 . S
C1957 C1956 1.386 . S
C1957 C1961 1.393 . S
C1958 H1947 0.950 . S
C1958 C1956 1.391 . S
C1958 C1959 1.400 . S
C1959 C1953 1.491 . S
C1959 C1958 1.400 . S
C1959 C1960 1.398 . S
C1960 H1948 0.950 . S
C1960 C1959 1.398 . S
C1960 C1961 1.391 . S
C1961 H1949 0.950 . S
C1961 C1957 1.393 . S
C1961 C1960 1.391 . S
H1962 C1970 0.950 . S
H1963 C1975 0.950 . S
H1964 C1972 0.950 . S
H1965 C1974 0.950 . S
H1966 C1976 0.950 . S
H1967 C1978 0.950 . S
H1968 C1980 0.950 . S
H1969 C1981 0.950 . S
C1970 H1962 0.950 . S
C1970 C1971 1.386 . S
C1970 C1972 1.391 . S
C1971 C1970 1.386 . S
C1971 C1975 1.393 . S
C1972 H1964 0.950 . S
C1972 C1970 1.391 . S
C1972 C1973 1.400 . S
C1973 C1972 1.400 . S
C1973 C1974 1.398 . S
C1973 C1979 1.491 . S
C1974 H1965 0.950 . S
C1974 C1973 1.398 . S
C1974 C1975 1.391 . S
C1975 H1963 0.950 . S
C1975 C1971 1.393 . S
C1975 C1974 1.391 . S
C1976 H1966 0.950 . S
C1976 C1977 1.386 . S
C1976 C1978 1.391 . S
C1977 C1976 1.386 . S
C1977 C1981 1.393 . S
C1978 H1967 0.950 . S
C1978 C1976 1.391 . S
C1978 C1979 1.400 . S
C1979 C1973 1.491 . S
C1979 C1978 1.400 . S
C1979 C1980 1.398 . S
C1980 H1968 0.950 . S
C1980 C1979 1.398 . S
C1980 C1981 1.391 . S
C1981 H1969 0.950 . S
C1981 C1977 1.393 . S
C1981 C1980 1.391 . S
H1982 C1990 0.950 . S
H1983 C1995 0.950 . S
H1984 C1992 0.950 . S
H1985 C1994 0.950 . S
H1986 C1996 0.950 . S
H1987 C1998 0.950 . S
H1988 C2000 0.950 . S
H1989 C2001 0.950 . S
C1990 H1982 0.950 . S
C1990 C1991 1.386 . S
C1990 C1992 1.391 . S
C1991 C1990 1.386 . S
C1991 C1995 1.393 . S
C1992 H1984 0.950 . S
C1992 C1990 1.391 . S
C1992 C1993 1.400 . S
C1993 C1992 1.400 . S
C1993 C1994 1.398 . S
C1993 C1999 1.491 . S
C1994 H1985 0.950 . S
C1994 C1993 1.398 . S
C1994 C1995 1.391 . S
C1995 H1983 0.950 . S
C1995 C1991 1.393 . S
C1995 C1994 1.391 . S
C1996 H1986 0.950 . S
C1996 C1997 1.386 . S
C1996 C1998 1.391 . S
C1997 C1996 1.386 . S
C1997 C2001 1.393 . S
C1998 H1987 0.950 . S
C1998 C1996 1.391 . S
C1998 C1999 1.400 . S
C1999 C1993 1.491 . S
C1999 C1998 1.400 . S
C1999 C2000 1.398 . S
C2000 H1988 0.950 . S
C2000 C1999 1.398 . S
C2000 C2001 1.391 . S
C2001 H1989 0.950 . S
C2001 C1997 1.393 . S
C2001 C2000 1.391 . S
H2002 C2010 0.950 . S
H2003 C2015 0.950 . S
H2004 C2012 0.950 . S
H2005 C2014 0.950 . S
H2006 C2016 0.950 . S
H2007 C2018 0.950 . S
H2008 C2020 0.950 . S
H2009 C2021 0.950 . S
C2010 H2002 0.950 . S
C2010 C2011 1.386 . S
C2010 C2012 1.391 . S
C2011 C2010 1.386 . S
C2011 C2015 1.393 . S
C2012 H2004 0.950 . S
C2012 C2010 1.391 . S
C2012 C2013 1.400 . S
C2013 C2012 1.400 . S
C2013 C2014 1.398 . S
C2013 C2019 1.491 . S
C2014 H2005 0.950 . S
C2014 C2013 1.398 . S
C2014 C2015 1.391 . S
C2015 H2003 0.950 . S
C2015 C2011 1.393 . S
C2015 C2014 1.391 . S
C2016 H2006 0.950 . S
C2016 C2017 1.386 . S
C2016 C2018 1.391 . S
C2017 C2016 1.386 . S
C2017 C2021 1.393 . S
C2018 H2007 0.950 . S
C2018 C2016 1.391 . S
C2018 C2019 1.400 . S
C2019 C2013 1.491 . S
C2019 C2018 1.400 . S
C2019 C2020 1.398 . S
C2020 H2008 0.950 . S
C2020 C2019 1.398 . S
C2020 C2021 1.391 . S
C2021 H2009 0.950 . S
C2021 C2017 1.393 . S
C2021 C2020 1.391 . S
H2022 C2030 0.950 . S
H2023 C2035 0.950 . S
H2024 C2032 0.950 . S
H2025 C2034 0.950 . S
H2026 C2036 0.950 . S
H2027 C2038 0.950 . S
H2028 C2040 0.950 . S
H2029 C2041 0.950 . S
C2030 H2022 0.950 . S
C2030 C2031 1.386 . S
C2030 C2032 1.391 . S
C2031 C2030 1.386 . S
C2031 C2035 1.393 . S
C2032 H2024 0.950 . S
C2032 C2030 1.391 . S
C2032 C2033 1.400 . S
C2033 C2032 1.400 . S
C2033 C2034 1.398 . S
C2033 C2039 1.491 . S
C2034 H2025 0.950 . S
C2034 C2033 1.398 . S
C2034 C2035 1.391 . S
C2035 H2023 0.950 . S
C2035 C2031 1.393 . S
C2035 C2034 1.391 . S
C2036 H2026 0.950 . S
C2036 C2037 1.386 . S
C2036 C2038 1.391 . S
C2037 C2036 1.386 . S
C2037 C2041 1.393 . S
C2038 H2027 0.950 . S
C2038 C2036 1.391 . S
C2038 C2039 1.400 . S
C2039 C2033 1.491 . S
C2039 C2038 1.400 . S
C2039 C2040 1.398 . S
C2040 H2028 0.950 . S
C2040 C2039 1.398 . S
C2040 C2041 1.391 . S
C2041 H2029 0.950 . S
C2041 C2037 1.393 . S
C2041 C2040 1.391 . S
H2042 C2050 0.950 . S
H2043 C2055 0.950 . S
H2044 C2052 0.950 . S
H2045 C2054 0.950 . S
H2046 C2056 0.950 . S
H2047 C2058 0.950 . S
H2048 C2060 0.950 . S
H2049 C2061 0.950 . S
C2050 H2042 0.950 . S
C2050 C2051 1.386 . S
C2050 C2052 1.391 . S
C2051 C2050 1.386 . S
C2051 C2055 1.393 . S
C2052 H2044 0.950 . S
C2052 C2050 1.391 . S
C2052 C2053 1.400 . S
C2053 C2052 1.400 . S
C2053 C2054 1.398 . S
C2053 C2059 1.491 . S
C2054 H2045 0.950 . S
C2054 C2053 1.398 . S
C2054 C2055 1.391 . S
C2055 H2043 0.950 . S
C2055 C2051 1.393 . S
C2055 C2054 1.391 . S
C2056 H2046 0.950 . S
C2056 C2057 1.386 . S
C2056 C2058 1.391 . S
C2057 C2056 1.386 . S
C2057 C2061 1.393 . S
C2058 H2047 0.950 . S
C2058 C2056 1.391 . S
C2058 C2059 1.400 . S
C2059 C2053 1.491 . S
C2059 C2058 1.400 . S
C2059 C2060 1.398 . S
C2060 H2048 0.950 . S
C2060 C2059 1.398 . S
C2060 C2061 1.391 . S
C2061 H2049 0.950 . S
C2061 C2057 1.393 . S
C2061 C2060 1.391 . S
H2062 C2070 0.950 . S
H2063 C2075 0.950 . S
H2064 C2072 0.950 . S
H2065 C2074 0.950 . S
H2066 C2076 0.950 . S
H2067 C2078 0.950 . S
H2068 C2080 0.950 . S
H2069 C2081 0.950 . S
C2070 H2062 0.950 . S
C2070 C2071 1.386 . S
C2070 C2072 1.391 . S
C2071 C2070 1.386 . S
C2071 C2075 1.393 . S
C2072 H2064 0.950 . S
C2072 C2070 1.391 . S
C2072 C2073 1.400 . S
C2073 C2072 1.400 . S
C2073 C2074 1.398 . S
C2073 C2079 1.491 . S
C2074 H2065 0.950 . S
C2074 C2073 1.398 . S
C2074 C2075 1.391 . S
C2075 H2063 0.950 . S
C2075 C2071 1.393 . S
C2075 C2074 1.391 . S
C2076 H2066 0.950 . S
C2076 C2077 1.386 . S
C2076 C2078 1.391 . S
C2077 C2076 1.386 . S
C2077 C2081 1.393 . S
C2078 H2067 0.950 . S
C2078 C2076 1.391 . S
C2078 C2079 1.400 . S
C2079 C2073 1.491 . S
C2079 C2078 1.400 . S
C2079 C2080 1.398 . S
C2080 H2068 0.950 . S
C2080 C2079 1.398 . S
C2080 C2081 1.391 . S
C2081 H2069 0.950 . S
C2081 C2077 1.393 . S
C2081 C2080 1.391 . S
H2082 C2090 0.961 . S
H2083 C2095 0.950 . S
H2084 C2092 0.950 . S
H2085 C2094 0.950 . S
H2086 C2096 0.950 . S
H2087 C2098 0.950 . S
H2088 C2100 0.950 . S
H2089 C2101 0.950 . S
C2090 H2082 0.961 . S
C2090 C2091 1.362 1_655 S
C2090 C2092 1.405 . S
C2091 C2090 1.362 1_455 S
C2091 C2095 1.393 . S
C2092 H2084 0.950 . S
C2092 C2090 1.405 . S
C2092 C2093 1.400 1_655 S
C2093 C2092 1.400 1_455 S
C2093 C2094 1.398 . S
C2093 C2099 1.491 . S
C2094 H2085 0.950 . S
C2094 C2093 1.398 . S
C2094 C2095 1.391 . S
C2095 H2083 0.950 . S
C2095 C2091 1.393 . S
C2095 C2094 1.391 . S
C2096 H2086 0.950 . S
C2096 C2097 1.386 . S
C2096 C2098 1.391 . S
C2097 C2096 1.386 . S
C2097 C2101 1.393 1_455 S
C2098 H2087 0.950 . S
C2098 C2096 1.391 . S
C2098 C2099 1.400 . S
C2099 C2093 1.491 . S
C2099 C2098 1.400 . S
C2099 C2100 1.398 1_455 S
C2100 H2088 0.950 . S
C2100 C2099 1.398 1_655 S
C2100 C2101 1.391 . S
C2101 H2089 0.950 . S
C2101 C2097 1.393 1_655 S
C2101 C2100 1.391 . S
H2102 C2110 0.950 . S
H2103 C2115 0.950 . S
H2104 C2112 0.950 . S
H2105 C2114 0.950 . S
H2106 C2116 0.950 . S
H2107 C2118 0.950 . S
H2108 C2120 0.950 . S
H2109 C2121 0.950 . S
C2110 H2102 0.950 . S
C2110 C2111 1.386 . S
C2110 C2112 1.391 . S
C2111 C2110 1.386 . S
C2111 C2115 1.393 . S
C2112 H2104 0.950 . S
C2112 C2110 1.391 . S
C2112 C2113 1.400 . S
C2113 C2112 1.400 . S
C2113 C2114 1.398 . S
C2113 C2119 1.491 . S
C2114 H2105 0.950 . S
C2114 C2113 1.398 . S
C2114 C2115 1.391 . S
C2115 H2103 0.950 . S
C2115 C2111 1.393 . S
C2115 C2114 1.391 . S
C2116 H2106 0.950 . S
C2116 C2117 1.386 . S
C2116 C2118 1.391 . S
C2117 C2116 1.386 . S
C2117 C2121 1.393 . S
C2118 H2107 0.950 . S
C2118 C2116 1.391 . S
C2118 C2119 1.400 . S
C2119 C2113 1.491 . S
C2119 C2118 1.400 . S
C2119 C2120 1.398 . S
C2120 H2108 0.950 . S
C2120 C2119 1.398 . S
C2120 C2121 1.391 . S
C2121 H2109 0.950 . S
C2121 C2117 1.393 . S
C2121 C2120 1.391 . S
H2122 C2130 0.950 . S
H2123 C2135 0.950 . S
H2124 C2132 0.950 . S
H2125 C2134 0.950 . S
H2126 C2136 0.950 . S
H2127 C2138 0.950 . S
H2128 C2140 0.950 . S
H2129 C2141 0.950 . S
C2130 H2122 0.950 . S
C2130 C2131 1.386 1_545 S
C2130 C2132 1.391 . S
C2131 C2130 1.386 1_565 S
C2131 C2135 1.393 . S
C2132 H2124 0.950 . S
C2132 C2130 1.391 . S
C2132 C2133 1.400 1_545 S
C2133 C2132 1.400 1_565 S
C2133 C2134 1.398 . S
C2133 C2139 1.491 . S
C2134 H2125 0.950 . S
C2134 C2133 1.398 . S
C2134 C2135 1.391 . S
C2135 H2123 0.950 . S
C2135 C2131 1.393 . S
C2135 C2134 1.391 . S
C2136 H2126 0.950 . S
C2136 C2137 1.386 . S
C2136 C2138 1.391 . S
C2137 C2136 1.386 . S
C2137 C2141 1.393 1_565 S
C2138 H2127 0.950 . S
C2138 C2136 1.391 . S
C2138 C2139 1.400 . S
C2139 C2133 1.491 . S
C2139 C2138 1.400 . S
C2139 C2140 1.398 1_565 S
C2140 H2128 0.950 . S
C2140 C2139 1.398 1_545 S
C2140 C2141 1.391 . S
C2141 H2129 0.950 . S
C2141 C2137 1.393 1_545 S
C2141 C2140 1.391 . S
H2142 C2150 0.950 . S
H2143 C2155 0.950 . S
H2144 C2152 0.950 . S
H2145 C2154 0.950 . S
H2146 C2156 0.946 . S
H2147 C2158 0.950 . S
H2148 C2160 0.950 . S
H2149 C2161 0.950 . S
C2150 H2142 0.950 . S
C2150 C2151 1.386 . S
C2150 C2152 1.391 . S
C2151 C2150 1.386 . S
C2151 C2155 1.393 . S
C2152 H2144 0.950 . S
C2152 C2150 1.391 . S
C2152 C2153 1.400 . S
C2153 C2152 1.400 . S
C2153 C2154 1.398 . S
C2153 C2159 1.491 . S
C2154 H2145 0.950 . S
C2154 C2153 1.398 . S
C2154 C2155 1.391 . S
C2155 H2143 0.950 . S
C2155 C2151 1.393 . S
C2155 C2154 1.391 . S
C2156 H2146 0.946 . S
C2156 C2157 1.386 . S
C2156 C2158 1.391 . S
C2157 C2156 1.386 . S
C2157 C2161 1.393 . S
C2158 H2147 0.950 . S
C2158 C2156 1.391 . S
C2158 C2159 1.400 . S
C2159 C2153 1.491 . S
C2159 C2158 1.400 . S
C2159 C2160 1.398 . S
C2160 H2148 0.950 . S
C2160 C2159 1.398 . S
C2160 C2161 1.391 . S
C2161 H2149 0.950 . S
C2161 C2157 1.393 . S
C2161 C2160 1.391 . S
H2162 C2170 0.950 . S
H2163 C2175 0.950 . S
H2164 C2172 0.950 . S
H2165 C2174 0.950 . S
H2166 C2176 0.950 . S
H2167 C2178 0.950 . S
H2168 C2180 0.950 . S
H2169 C2181 0.950 . S
C2170 H2162 0.950 . S
C2170 C2171 1.386 . S
C2170 C2172 1.391 . S
C2171 C2170 1.386 . S
C2171 C2175 1.393 . S
C2172 H2164 0.950 . S
C2172 C2170 1.391 . S
C2172 C2173 1.400 . S
C2173 C2172 1.400 . S
C2173 C2174 1.398 . S
C2173 C2179 1.491 . S
C2174 H2165 0.950 . S
C2174 C2173 1.398 . S
C2174 C2175 1.391 . S
C2175 H2163 0.950 . S
C2175 C2171 1.393 . S
C2175 C2174 1.391 . S
C2176 H2166 0.950 . S
C2176 C2177 1.386 . S
C2176 C2178 1.391 . S
C2177 C2176 1.386 . S
C2177 C2181 1.393 . S
C2178 H2167 0.950 . S
C2178 C2176 1.391 . S
C2178 C2179 1.400 . S
C2179 C2173 1.491 . S
C2179 C2178 1.400 . S
C2179 C2180 1.398 . S
C2180 H2168 0.950 . S
C2180 C2179 1.398 . S
C2180 C2181 1.391 . S
C2181 H2169 0.950 . S
C2181 C2177 1.393 . S
C2181 C2180 1.391 . S
H2182 C2190 0.950 . S
H2183 C2195 0.950 . S
H2184 C2192 0.950 . S
H2185 C2194 0.950 . S
H2186 C2196 0.950 . S
H2187 C2198 0.950 . S
H2188 C2200 0.950 . S
H2189 C2201 0.950 . S
C2190 H2182 0.950 . S
C2190 C2191 1.386 . S
C2190 C2192 1.391 . S
C2191 C2190 1.386 . S
C2191 C2195 1.393 . S
C2192 H2184 0.950 . S
C2192 C2190 1.391 . S
C2192 C2193 1.400 . S
C2193 C2192 1.400 . S
C2193 C2194 1.398 . S
C2193 C2199 1.491 . S
C2194 H2185 0.950 . S
C2194 C2193 1.398 . S
C2194 C2195 1.391 . S
C2195 H2183 0.950 . S
C2195 C2191 1.393 . S
C2195 C2194 1.391 . S
C2196 H2186 0.950 . S
C2196 C2197 1.386 . S
C2196 C2198 1.391 . S
C2197 C2196 1.386 . S
C2197 C2201 1.393 . S
C2198 H2187 0.950 . S
C2198 C2196 1.391 . S
C2198 C2199 1.400 . S
C2199 C2193 1.491 . S
C2199 C2198 1.400 . S
C2199 C2200 1.398 . S
C2200 H2188 0.950 . S
C2200 C2199 1.398 . S
C2200 C2201 1.391 . S
C2201 H2189 0.950 . S
C2201 C2197 1.393 . S
C2201 C2200 1.391 . S
H2202 C2210 0.950 . S
H2203 C2215 0.950 . S
H2204 C2212 0.950 . S
H2205 C2214 0.950 . S
H2206 C2216 0.950 . S
H2207 C2218 0.950 . S
H2208 C2220 0.950 . S
H2209 C2221 0.950 . S
C2210 H2202 0.950 . S
C2210 C2211 1.386 . S
C2210 C2212 1.391 . S
C2211 C2210 1.386 . S
C2211 C2215 1.393 . S
C2212 H2204 0.950 . S
C2212 C2210 1.391 . S
C2212 C2213 1.400 . S
C2213 C2212 1.400 . S
C2213 C2214 1.398 . S
C2213 C2219 1.491 . S
C2214 H2205 0.950 . S
C2214 C2213 1.398 . S
C2214 C2215 1.391 . S
C2215 H2203 0.950 . S
C2215 C2211 1.393 . S
C2215 C2214 1.391 . S
C2216 H2206 0.950 . S
C2216 C2217 1.386 . S
C2216 C2218 1.391 . S
C2217 C2216 1.386 . S
C2217 C2221 1.393 . S
C2218 H2207 0.950 . S
C2218 C2216 1.391 . S
C2218 C2219 1.400 . S
C2219 C2213 1.491 . S
C2219 C2218 1.400 . S
C2219 C2220 1.398 . S
C2220 H2208 0.950 . S
C2220 C2219 1.398 . S
C2220 C2221 1.391 . S
C2221 H2209 0.950 . S
C2221 C2217 1.393 . S
C2221 C2220 1.391 . S
H2222 C2230 0.950 . S
H2223 C2235 0.950 . S
H2224 C2232 0.950 . S
H2225 C2234 0.950 . S
H2226 C2236 0.950 . S
H2227 C2238 0.950 . S
H2228 C2240 0.950 . S
H2229 C2241 0.950 . S
C2230 H2222 0.950 . S
C2230 C2231 1.386 . S
C2230 C2232 1.391 . S
C2231 C2230 1.386 . S
C2231 C2235 1.393 . S
C2232 H2224 0.950 . S
C2232 C2230 1.391 . S
C2232 C2233 1.400 . S
C2233 C2232 1.400 . S
C2233 C2234 1.398 . S
C2233 C2239 1.491 . S
C2234 H2225 0.950 . S
C2234 C2233 1.398 . S
C2234 C2235 1.391 . S
C2235 H2223 0.950 . S
C2235 C2231 1.393 . S
C2235 C2234 1.391 . S
C2236 H2226 0.950 . S
C2236 C2237 1.386 . S
C2236 C2238 1.391 . S
C2237 C2236 1.386 . S
C2237 C2241 1.393 . S
C2238 H2227 0.950 . S
C2238 C2236 1.391 . S
C2238 C2239 1.400 . S
C2239 C2233 1.491 . S
C2239 C2238 1.400 . S
C2239 C2240 1.398 . S
C2240 H2228 0.950 . S
C2240 C2239 1.398 . S
C2240 C2241 1.391 . S
C2241 H2229 0.950 . S
C2241 C2237 1.393 . S
C2241 C2240 1.391 . S
H2242 C2250 0.950 . S
H2243 C2255 0.950 . S
H2244 C2252 0.950 . S
H2245 C2254 0.950 . S
H2246 C2256 0.950 . S
H2247 C2258 0.950 . S
H2248 C2260 0.950 . S
H2249 C2261 0.950 . S
C2250 H2242 0.950 . S
C2250 C2251 1.386 . S
C2250 C2252 1.391 . S
C2251 C2250 1.386 . S
C2251 C2255 1.393 . S
C2252 H2244 0.950 . S
C2252 C2250 1.391 . S
C2252 C2253 1.400 . S
C2253 C2252 1.400 . S
C2253 C2254 1.398 . S
C2253 C2259 1.491 . S
C2254 H2245 0.950 . S
C2254 C2253 1.398 . S
C2254 C2255 1.391 . S
C2255 H2243 0.950 . S
C2255 C2251 1.393 . S
C2255 C2254 1.391 . S
C2256 H2246 0.950 . S
C2256 C2257 1.386 . S
C2256 C2258 1.391 . S
C2257 C2256 1.386 . S
C2257 C2261 1.393 . S
C2258 H2247 0.950 . S
C2258 C2256 1.391 . S
C2258 C2259 1.400 . S
C2259 C2253 1.491 . S
C2259 C2258 1.400 . S
C2259 C2260 1.398 . S
C2260 H2248 0.950 . S
C2260 C2259 1.398 . S
C2260 C2261 1.391 . S
C2261 H2249 0.950 . S
C2261 C2257 1.393 . S
C2261 C2260 1.391 . S
H2262 C2270 0.950 . S
H2263 C2275 0.950 . S
H2264 C2272 0.950 . S
H2265 C2274 0.950 . S
H2266 C2276 0.950 . S
H2267 C2278 0.950 . S
H2268 C2280 0.950 . S
H2269 C2281 0.950 . S
C2270 H2262 0.950 . S
C2270 C2271 1.386 1_565 S
C2270 C2272 1.391 . S
C2271 C2270 1.386 1_545 S
C2271 C2275 1.393 . S
C2272 H2264 0.950 . S
C2272 C2270 1.391 . S
C2272 C2273 1.400 1_565 S
C2273 C2272 1.400 1_545 S
C2273 C2274 1.398 . S
C2273 C2279 1.491 . S
C2274 H2265 0.950 . S
C2274 C2273 1.398 . S
C2274 C2275 1.391 . S
C2275 H2263 0.950 . S
C2275 C2271 1.393 . S
C2275 C2274 1.391 . S
C2276 H2266 0.950 . S
C2276 C2277 1.386 . S
C2276 C2278 1.391 . S
C2277 C2276 1.386 . S
C2277 C2281 1.393 1_545 S
C2278 H2267 0.950 . S
C2278 C2276 1.391 . S
C2278 C2279 1.400 . S
C2279 C2273 1.491 . S
C2279 C2278 1.400 . S
C2279 C2280 1.398 1_545 S
C2280 H2268 0.950 . S
C2280 C2279 1.398 1_565 S
C2280 C2281 1.391 . S
C2281 H2269 0.950 . S
C2281 C2277 1.393 1_565 S
C2281 C2280 1.391 . S
H2282 C2290 0.950 . S
H2283 C2295 0.950 . S
H2284 C2292 0.950 . S
H2285 C2294 0.950 . S
H2286 C2296 0.950 . S
H2287 C2298 0.950 . S
H2288 C2300 0.950 . S
H2289 C2301 0.950 . S
C2290 H2282 0.950 . S
C2290 C2291 1.386 . S
C2290 C2292 1.391 . S
C2291 C2290 1.386 . S
C2291 C2295 1.393 1_655 S
C2292 H2284 0.950 . S
C2292 C2290 1.391 . S
C2292 C2293 1.400 . S
C2293 C2292 1.400 . S
C2293 C2294 1.398 1_655 S
C2293 C2299 1.491 . S
C2294 H2285 0.950 . S
C2294 C2293 1.398 1_455 S
C2294 C2295 1.391 . S
C2295 H2283 0.950 . S
C2295 C2291 1.393 1_455 S
C2295 C2294 1.391 . S
C2296 H2286 0.950 . S
C2296 C2297 1.386 1_455 S
C2296 C2298 1.391 . S
C2297 C2296 1.386 1_655 S
C2297 C2301 1.393 . S
C2298 H2287 0.950 . S
C2298 C2296 1.391 . S
C2298 C2299 1.400 1_455 S
C2299 C2293 1.491 . S
C2299 C2298 1.400 1_655 S
C2299 C2300 1.398 . S
C2300 H2288 0.950 . S
C2300 C2299 1.398 . S
C2300 C2301 1.391 . S
C2301 H2289 0.950 . S
C2301 C2297 1.393 . S
C2301 C2300 1.391 . S
H2302 C2310 0.950 . S
H2303 C2315 0.950 . S
H2304 C2312 0.950 . S
H2305 C2314 0.950 . S
H2306 C2316 0.950 . S
H2307 C2318 0.950 . S
H2308 C2320 0.950 . S
H2309 C2321 0.950 . S
C2310 H2302 0.950 . S
C2310 C2311 1.386 . S
C2310 C2312 1.391 . S
C2311 C2310 1.386 . S
C2311 C2315 1.393 . S
C2312 H2304 0.950 . S
C2312 C2310 1.391 . S
C2312 C2313 1.400 . S
C2313 C2312 1.400 . S
C2313 C2314 1.398 . S
C2313 C2319 1.491 . S
C2314 H2305 0.950 . S
C2314 C2313 1.398 . S
C2314 C2315 1.391 . S
C2315 H2303 0.950 . S
C2315 C2311 1.393 . S
C2315 C2314 1.391 . S
C2316 H2306 0.950 . S
C2316 C2317 1.386 . S
C2316 C2318 1.391 . S
C2317 C2316 1.386 . S
C2317 C2321 1.393 . S
C2318 H2307 0.950 . S
C2318 C2316 1.391 . S
C2318 C2319 1.400 . S
C2319 C2313 1.491 . S
C2319 C2318 1.400 . S
C2319 C2320 1.398 . S
C2320 H2308 0.950 . S
C2320 C2319 1.398 . S
C2320 C2321 1.391 . S
C2321 H2309 0.950 . S
C2321 C2317 1.393 . S
C2321 C2320 1.391 . S
H2322 C2330 0.950 . S
H2323 C2335 0.950 . S
H2324 C2332 0.950 . S
H2325 C2334 0.950 . S
H2326 C2336 0.950 . S
H2327 C2338 0.950 . S
H2328 C2340 0.950 . S
H2329 C2341 0.950 . S
C2330 H2322 0.950 . S
C2330 C2331 1.386 . S
C2330 C2332 1.391 . S
C2331 C2330 1.386 . S
C2331 C2335 1.393 . S
C2332 H2324 0.950 . S
C2332 C2330 1.391 . S
C2332 C2333 1.400 . S
C2333 C2332 1.400 . S
C2333 C2334 1.398 . S
C2333 C2339 1.491 . S
C2334 H2325 0.950 . S
C2334 C2333 1.398 . S
C2334 C2335 1.391 . S
C2335 H2323 0.950 . S
C2335 C2331 1.393 . S
C2335 C2334 1.391 . S
C2336 H2326 0.950 . S
C2336 C2337 1.386 . S
C2336 C2338 1.391 . S
C2337 C2336 1.386 . S
C2337 C2341 1.393 . S
C2338 H2327 0.950 . S
C2338 C2336 1.391 . S
C2338 C2339 1.400 . S
C2339 C2333 1.491 . S
C2339 C2338 1.400 . S
C2339 C2340 1.398 . S
C2340 H2328 0.950 . S
C2340 C2339 1.398 . S
C2340 C2341 1.391 . S
C2341 H2329 0.950 . S
C2341 C2337 1.393 . S
C2341 C2340 1.391 . S
H2342 C2350 0.950 . S
H2343 C2355 0.950 . S
H2344 C2352 0.950 . S
H2345 C2354 0.950 . S
H2346 C2356 0.950 . S
H2347 C2358 0.950 . S
H2348 C2360 0.950 . S
H2349 C2361 0.950 . S
C2350 H2342 0.950 . S
C2350 C2351 1.386 . S
C2350 C2352 1.391 . S
C2351 C2350 1.386 . S
C2351 C2355 1.393 . S
C2352 H2344 0.950 . S
C2352 C2350 1.391 . S
C2352 C2353 1.400 . S
C2353 C2352 1.400 . S
C2353 C2354 1.398 . S
C2353 C2359 1.491 . S
C2354 H2345 0.950 . S
C2354 C2353 1.398 . S
C2354 C2355 1.391 . S
C2355 H2343 0.950 . S
C2355 C2351 1.393 . S
C2355 C2354 1.391 . S
C2356 H2346 0.950 . S
C2356 C2357 1.386 . S
C2356 C2358 1.391 . S
C2357 C2356 1.386 . S
C2357 C2361 1.393 . S
C2358 H2347 0.950 . S
C2358 C2356 1.391 . S
C2358 C2359 1.400 . S
C2359 C2353 1.491 . S
C2359 C2358 1.400 . S
C2359 C2360 1.398 . S
C2360 H2348 0.950 . S
C2360 C2359 1.398 . S
C2360 C2361 1.391 . S
C2361 H2349 0.950 . S
C2361 C2357 1.393 . S
C2361 C2360 1.391 . S
H2362 C2370 0.950 . S
H2363 C2375 0.950 . S
H2364 C2372 0.950 . S
H2365 C2374 0.950 . S
H2366 C2376 0.950 . S
H2367 C2378 0.950 . S
H2368 C2380 0.950 . S
H2369 C2381 0.950 . S
C2370 H2362 0.950 . S
C2370 C2371 1.386 . S
C2370 C2372 1.391 . S
C2371 C2370 1.386 . S
C2371 C2375 1.393 . S
C2372 H2364 0.950 . S
C2372 C2370 1.391 . S
C2372 C2373 1.400 . S
C2373 C2372 1.400 . S
C2373 C2374 1.398 . S
C2373 C2379 1.491 . S
C2374 H2365 0.950 . S
C2374 C2373 1.398 . S
C2374 C2375 1.391 . S
C2375 H2363 0.950 . S
C2375 C2371 1.393 . S
C2375 C2374 1.391 . S
C2376 H2366 0.950 . S
C2376 C2377 1.386 . S
C2376 C2378 1.391 . S
C2377 C2376 1.386 . S
C2377 C2381 1.393 . S
C2378 H2367 0.950 . S
C2378 C2376 1.391 . S
C2378 C2379 1.400 . S
C2379 C2373 1.491 . S
C2379 C2378 1.400 . S
C2379 C2380 1.398 . S
C2380 H2368 0.950 . S
C2380 C2379 1.398 . S
C2380 C2381 1.391 . S
C2381 H2369 0.950 . S
C2381 C2377 1.393 . S
C2381 C2380 1.391 . S
H2382 C2390 0.950 . S
H2383 C2395 0.950 . S
H2384 C2392 0.950 . S
H2385 C2394 0.950 . S
H2386 C2396 0.950 . S
H2387 C2398 0.950 . S
H2388 C2400 0.950 . S
H2389 C2401 0.950 . S
C2390 H2382 0.950 . S
C2390 C2391 1.386 . S
C2390 C2392 1.391 . S
C2391 C2390 1.386 . S
C2391 C2395 1.393 . S
C2392 H2384 0.950 . S
C2392 C2390 1.391 . S
C2392 C2393 1.400 . S
C2393 C2392 1.400 . S
C2393 C2394 1.398 . S
C2393 C2399 1.491 . S
C2394 H2385 0.950 . S
C2394 C2393 1.398 . S
C2394 C2395 1.391 . S
C2395 H2383 0.950 . S
C2395 C2391 1.393 . S
C2395 C2394 1.391 . S
C2396 H2386 0.950 . S
C2396 C2397 1.386 . S
C2396 C2398 1.391 . S
C2397 C2396 1.386 . S
C2397 C2401 1.393 . S
C2398 H2387 0.950 . S
C2398 C2396 1.391 . S
C2398 C2399 1.400 . S
C2399 C2393 1.491 . S
C2399 C2398 1.400 . S
C2399 C2400 1.398 . S
C2400 H2388 0.950 . S
C2400 C2399 1.398 . S
C2400 C2401 1.391 . S
C2401 H2389 0.950 . S
C2401 C2397 1.393 . S
C2401 C2400 1.391 . S
H2402 C2410 0.950 . S
H2403 C2415 0.950 . S
H2404 C2412 0.950 . S
H2405 C2414 0.950 . S
H2406 C2416 0.950 . S
H2407 C2418 0.950 . S
H2408 C2420 0.950 . S
H2409 C2421 0.950 . S
C2410 H2402 0.950 . S
C2410 C2411 1.386 . S
C2410 C2412 1.391 . S
C2411 C2410 1.386 . S
C2411 C2415 1.393 . S
C2412 H2404 0.950 . S
C2412 C2410 1.391 . S
C2412 C2413 1.400 . S
C2413 C2412 1.400 . S
C2413 C2414 1.398 . S
C2413 C2419 1.491 . S
C2414 H2405 0.950 . S
C2414 C2413 1.398 . S
C2414 C2415 1.391 . S
C2415 H2403 0.950 . S
C2415 C2411 1.393 . S
C2415 C2414 1.391 . S
C2416 H2406 0.950 . S
C2416 C2417 1.386 . S
C2416 C2418 1.391 . S
C2417 C2416 1.386 . S
C2417 C2421 1.393 . S
C2418 H2407 0.950 . S
C2418 C2416 1.391 . S
C2418 C2419 1.400 . S
C2419 C2413 1.491 . S
C2419 C2418 1.400 . S
C2419 C2420 1.398 . S
C2420 H2408 0.950 . S
C2420 C2419 1.398 . S
C2420 C2421 1.391 . S
C2421 H2409 0.950 . S
C2421 C2417 1.393 . S
C2421 C2420 1.391 . S
H2422 C2430 0.950 . S
H2423 C2435 0.950 . S
H2424 C2432 0.950 . S
H2425 C2434 0.950 . S
H2426 C2436 0.950 . S
H2427 C2438 0.950 . S
H2428 C2440 0.950 . S
H2429 C2441 0.950 . S
C2430 H2422 0.950 . S
C2430 C2431 1.386 . S
C2430 C2432 1.391 . S
C2431 C2430 1.386 . S
C2431 C2435 1.393 . S
C2432 H2424 0.950 . S
C2432 C2430 1.391 . S
C2432 C2433 1.400 . S
C2433 C2432 1.400 . S
C2433 C2434 1.398 . S
C2433 C2439 1.491 . S
C2434 H2425 0.950 . S
C2434 C2433 1.398 . S
C2434 C2435 1.391 . S
C2435 H2423 0.950 . S
C2435 C2431 1.393 . S
C2435 C2434 1.391 . S
C2436 H2426 0.950 . S
C2436 C2437 1.386 . S
C2436 C2438 1.391 . S
C2437 C2436 1.386 . S
C2437 C2441 1.393 . S
C2438 H2427 0.950 . S
C2438 C2436 1.391 . S
C2438 C2439 1.400 . S
C2439 C2433 1.491 . S
C2439 C2438 1.400 . S
C2439 C2440 1.398 . S
C2440 H2428 0.950 . S
C2440 C2439 1.398 . S
C2440 C2441 1.391 . S
C2441 H2429 0.950 . S
C2441 C2437 1.393 . S
C2441 C2440 1.391 . S
H2442 C2450 0.950 . S
H2443 C2455 0.950 . S
H2444 C2452 0.950 . S
H2445 C2454 0.950 . S
H2446 C2456 0.950 . S
H2447 C2458 0.950 . S
H2448 C2460 0.950 . S
H2449 C2461 0.950 . S
C2450 H2442 0.950 . S
C2450 C2451 1.386 1_455 S
C2450 C2452 1.391 . S
C2451 C2450 1.386 1_655 S
C2451 C2455 1.393 . S
C2452 H2444 0.950 . S
C2452 C2450 1.391 . S
C2452 C2453 1.400 1_455 S
C2453 C2452 1.400 1_655 S
C2453 C2454 1.398 . S
C2453 C2459 1.491 . S
C2454 H2445 0.950 . S
C2454 C2453 1.398 . S
C2454 C2455 1.391 . S
C2455 H2443 0.950 . S
C2455 C2451 1.393 . S
C2455 C2454 1.391 . S
C2456 H2446 0.950 . S
C2456 C2457 1.386 . S
C2456 C2458 1.391 . S
C2457 C2456 1.386 . S
C2457 C2461 1.393 1_655 S
C2458 H2447 0.950 . S
C2458 C2456 1.391 . S
C2458 C2459 1.400 . S
C2459 C2453 1.491 . S
C2459 C2458 1.400 . S
C2459 C2460 1.398 1_655 S
C2460 H2448 0.950 . S
C2460 C2459 1.398 1_455 S
C2460 C2461 1.391 . S
C2461 H2449 0.950 . S
C2461 C2457 1.393 1_455 S
C2461 C2460 1.391 . S
H2462 C2470 0.950 . S
H2463 C2475 0.950 . S
H2464 C2472 0.950 . S
H2465 C2474 0.950 . S
H2466 C2476 0.950 . S
H2467 C2478 0.950 . S
H2468 C2480 0.950 . S
H2469 C2481 0.950 . S
C2470 H2462 0.950 . S
C2470 C2471 1.386 . S
C2470 C2472 1.391 . S
C2471 C2470 1.386 . S
C2471 C2475 1.393 . S
C2472 H2464 0.950 . S
C2472 C2470 1.391 . S
C2472 C2473 1.400 . S
C2473 C2472 1.400 . S
C2473 C2474 1.398 . S
C2473 C2479 1.491 . S
C2474 H2465 0.950 . S
C2474 C2473 1.398 . S
C2474 C2475 1.391 . S
C2475 H2463 0.950 . S
C2475 C2471 1.393 . S
C2475 C2474 1.391 . S
C2476 H2466 0.950 . S
C2476 C2477 1.386 . S
C2476 C2478 1.391 . S
C2477 C2476 1.386 . S
C2477 C2481 1.393 . S
C2478 H2467 0.950 . S
C2478 C2476 1.391 . S
C2478 C2479 1.400 . S
C2479 C2473 1.491 . S
C2479 C2478 1.400 . S
C2479 C2480 1.398 . S
C2480 H2468 0.950 . S
C2480 C2479 1.398 . S
C2480 C2481 1.391 . S
C2481 H2469 0.950 . S
C2481 C2477 1.393 . S
C2481 C2480 1.391 . S
H2482 C2490 0.950 . S
H2483 C2495 0.950 . S
H2484 C2492 0.950 . S
H2485 C2494 0.950 . S
H2486 C2496 0.950 . S
H2487 C2498 0.950 . S
H2488 C2500 0.950 . S
H2489 C2501 0.950 . S
C2490 H2482 0.950 . S
C2490 C2491 1.386 . S
C2490 C2492 1.391 . S
C2491 C2490 1.386 . S
C2491 C2495 1.393 1_545 S
C2492 H2484 0.950 . S
C2492 C2490 1.391 . S
C2492 C2493 1.400 . S
C2493 C2492 1.400 . S
C2493 C2494 1.398 1_545 S
C2493 C2499 1.491 . S
C2494 H2485 0.950 . S
C2494 C2493 1.398 1_565 S
C2494 C2495 1.391 . S
C2495 H2483 0.950 . S
C2495 C2491 1.393 1_565 S
C2495 C2494 1.391 . S
C2496 H2486 0.950 . S
C2496 C2497 1.386 1_565 S
C2496 C2498 1.391 . S
C2497 C2496 1.386 1_545 S
C2497 C2501 1.393 . S
C2498 H2487 0.950 . S
C2498 C2496 1.391 . S
C2498 C2499 1.400 1_565 S
C2499 C2493 1.491 . S
C2499 C2498 1.400 1_545 S
C2499 C2500 1.398 . S
C2500 H2488 0.950 . S
C2500 C2499 1.398 . S
C2500 C2501 1.391 . S
C2501 H2489 0.950 . S
C2501 C2497 1.393 . S
C2501 C2500 1.391 . S
C1071 C10 1.560 1_655 S
C1077 C670 1.549 . S
C1091 C23 1.611 . S
C1097 C716 1.604 . S
C1117 C748 1.562 . S
C1111 C29 1.561 . S
C1131 C30 1.553 1_565 S
C1137 C801 1.548 . S
C1151 C5 1.570 . S
C1157 C847 1.566 . S
C1171 C18 1.613 . S
C1177 C886 1.613 . S
C1191 C49 1.588 . S
C1197 C840 1.544 . S
C1217 C893 1.609 . S
C1211 C62 1.610 . S
C1237 C794 1.564 . S
C1231 C70 1.557 . S
C1251 C75 1.579 . S
C1257 C755 1.546 . S
C1277 C649 1.567 . S
C1271 C44 1.566 . S
C1291 C57 1.615 . S
C1297 C695 1.599 . S
C1311 C88 1.656 . S
C1317 C925 1.646 . S
C1331 C101 1.654 . S
C1337 C992 1.641 . S
C1357 C1038 1.629 . S
C1351 C107 1.637 . S
C1371 C108 1.613 . S
C1377 C249 1.604 . S
C1391 C83 1.639 . S
C1397 C295 1.620 . S
C1411 C96 1.637 . S
C1417 C341 1.616 . S
C1431 C127 1.612 . S
C1437 C288 1.594 . S
C1451 C140 1.634 . S
C1457 C334 1.616 . S
C1477 C242 1.612 . S
C1471 C146 1.631 . S
C1497 C1017 1.635 . S
C1491 C147 1.655 . S
C1517 C946 1.641 . S
C1511 C122 1.642 . S
C1537 C971 1.652 . S
C1531 C135 1.659 . S
C1551 C160 1.615 . S
C1557 C373 1.608 . S
C1571 C173 1.631 . S
C1577 C426 1.619 . S
C1591 C185 1.632 . S
C1597 C472 1.626 . S
C1611 C186 1.652 . S
C1617 C518 1.649 . S
C1637 C571 1.634 . S
C1631 C159 1.642 . S
C1657 C617 1.650 . S
C1651 C172 1.658 . S
C1677 C564 1.648 . S
C1671 C205 1.657 . S
C1697 C610 1.647 . S
C1691 C218 1.656 . S
C1711 C224 1.632 . S
C1717 C525 1.628 . S
C1737 C479 1.602 . S
C1731 C225 1.612 . S
C1751 C200 1.638 . S
C1757 C394 1.629 . S
C1777 C433 1.636 . S
C1771 C213 1.637 . S
C1797 C256 1.537 . S
C1791 C4 1.537 . S
C1811 C17 1.499 . S
C1817 C302 1.486 . S
C1837 C348 1.527 . S
C1831 C31 1.538 . S
C1857 C380 1.521 . S
C1851 C36 1.537 . S
C1877 C419 1.535 . S
C1871 C3 1.545 . S
C1897 C465 1.484 . S
C1891 C16 1.504 . S
C1911 C43 1.541 . S
C1917 C486 1.541 . S
C1931 C56 1.497 . S
C1937 C387 1.489 . S
C1951 C68 1.534 . S
C1957 C440 1.511 . S
C1971 C69 1.543 . S
C1977 C281 1.546 . S
C1997 C327 1.538 . S
C1991 C42 1.537 . S
C2011 C55 1.504 . S
C2017 C235 1.498 . S
C2037 C511 1.522 . S
C2031 C82 1.530 . S
C2051 C95 1.560 . S
C2057 C578 1.556 . S
C2071 C109 1.574 . S
C2077 C624 1.564 . S
C2097 C663 1.469 . S
C2091 C114 1.465 . S
C2111 C81 1.542 . S
C2117 C709 1.538 . S
C2131 C94 1.477 . S
C2137 C741 1.471 . S
C2151 C121 1.469 . S
C2157 C762 1.467 . S
C2171 C134 1.471 . S
C2177 C656 1.470 . S
C2197 C702 1.526 . S
C2191 C148 1.538 . S
C2211 C153 1.534 . S
C2217 C557 1.530 . S
C2231 C120 1.576 . S
C2237 C603 1.573 . S
C2257 C532 1.556 . S
C2251 C133 1.566 . S
C2277 C808 1.471 . S
C2271 C166 1.472 . S
C2291 C179 1.463 . S
C2297 C854 1.471 . S
C2311 C187 1.537 . S
C2317 C879 1.529 . S
C2337 C932 1.513 . S
C2331 C192 1.531 . S
C2357 C985 1.574 . S
C2351 C161 1.577 . S
C2371 C174 1.568 . S
C2377 C1031 1.556 . S
C2391 C199 1.534 . S
C2397 C1024 1.529 . S
C2411 C212 1.558 . S
C2417 C939 1.545 . S
C2437 C978 1.559 . S
C2431 C226 1.572 . S
C2457 C833 1.472 . S
C2451 C231 1.463 . S
C2477 C900 1.531 . S
C2471 C198 1.543 . S
C2491 C211 1.479 . S
C2497 C787 1.475 . S
