# Generated by pormake.
# Topology zzz, (3,6)-cn, num edge types: 1
# Building blocks:
#     Node 0, Type 0, BuildingBlock: ESEHIV_clean_linker_0, # of connection points: 3
#     Node 1, Type 0, BuildingBlock: ESEHIV_clean_linker_0, # of connection points: 3
#     Node 2, Type 0, BuildingBlock: ESEHIV_clean_linker_0, # of connection points: 3
#     Node 3, Type 0, BuildingBlock: ESEHIV_clean_linker_0, # of connection points: 3
#     Node 4, Type 0, BuildingBlock: ESEHIV_clean_linker_0, # of connection points: 3
#     Node 5, Type 0, BuildingBlock: ESEHIV_clean_linker_0, # of connection points: 3
#     Node 6, Type 0, BuildingBlock: ESEHIV_clean_linker_0, # of connection points: 3
#     Node 7, Type 0, BuildingBlock: ESEHIV_clean_linker_0, # of connection points: 3
#     Node 8, Type 1, BuildingBlock: NUHQIS_clean_sbu_0, # of connection points: 6
#     Node 9, Type 1, BuildingBlock: NUHQIS_clean_sbu_0, # of connection points: 6
#     Node 10, Type 1, BuildingBlock: NUHQIS_clean_sbu_0, # of connection points: 6
#     Node 11, Type 1, BuildingBlock: NUHQIS_clean_sbu_0, # of connection points: 6
#     Edge 12, Type (0, 1), BuildingBlock: XUDNAN_clean_linker_2, # of connection points: 2
#     Edge 13, Type (0, 1), BuildingBlock: XUDNAN_clean_linker_2, # of connection points: 2
#     Edge 14, Type (0, 1), BuildingBlock: XUDNAN_clean_linker_2, # of connection points: 2
#     Edge 15, Type (0, 1), BuildingBlock: XUDNAN_clean_linker_2, # of connection points: 2
#     Edge 16, Type (0, 1), BuildingBlock: XUDNAN_clean_linker_2, # of connection points: 2
#     Edge 17, Type (0, 1), BuildingBlock: XUDNAN_clean_linker_2, # of connection points: 2
#     Edge 18, Type (0, 1), BuildingBlock: XUDNAN_clean_linker_2, # of connection points: 2
#     Edge 19, Type (0, 1), BuildingBlock: XUDNAN_clean_linker_2, # of connection points: 2
#     Edge 20, Type (0, 1), BuildingBlock: XUDNAN_clean_linker_2, # of connection points: 2
#     Edge 21, Type (0, 1), BuildingBlock: XUDNAN_clean_linker_2, # of connection points: 2
#     Edge 22, Type (0, 1), BuildingBlock: XUDNAN_clean_linker_2, # of connection points: 2
#     Edge 23, Type (0, 1), BuildingBlock: XUDNAN_clean_linker_2, # of connection points: 2
#     Edge 24, Type (0, 1), BuildingBlock: XUDNAN_clean_linker_2, # of connection points: 2
#     Edge 25, Type (0, 1), BuildingBlock: XUDNAN_clean_linker_2, # of connection points: 2
#     Edge 26, Type (0, 1), BuildingBlock: XUDNAN_clean_linker_2, # of connection points: 2
#     Edge 27, Type (0, 1), BuildingBlock: XUDNAN_clean_linker_2, # of connection points: 2
#     Edge 28, Type (0, 1), BuildingBlock: XUDNAN_clean_linker_2, # of connection points: 2
#     Edge 29, Type (0, 1), BuildingBlock: XUDNAN_clean_linker_2, # of connection points: 2
#     Edge 30, Type (0, 1), BuildingBlock: XUDNAN_clean_linker_2, # of connection points: 2
#     Edge 31, Type (0, 1), BuildingBlock: XUDNAN_clean_linker_2, # of connection points: 2
#     Edge 32, Type (0, 1), BuildingBlock: XUDNAN_clean_linker_2, # of connection points: 2
#     Edge 33, Type (0, 1), BuildingBlock: XUDNAN_clean_linker_2, # of connection points: 2
#     Edge 34, Type (0, 1), BuildingBlock: XUDNAN_clean_linker_2, # of connection points: 2
#     Edge 35, Type (0, 1), BuildingBlock: XUDNAN_clean_linker_2, # of connection points: 2
# Relax obj value: 0.479
# Max RMSD: 0.249
# Mean RMSD: 0.233
data_MOF--net-zzz--node1-NUHQIS_clean_sbu_0--node2-ESEHIV_clean_linker_0--edge1-XUDNAN_clean_linker_2
_symmetry_space_group_name_H-M    P1
_symmetry_Int_Tables_number       1
_symmetry_cell_setting            triclinic
loop_
_symmetry_equiv_pos_as_xyz
'x, y, z'
_cell_length_a     45.744206
_cell_length_b     45.562261
_cell_length_c     14.783623
_cell_angle_alpha  90.116171
_cell_angle_beta   90.046026
_cell_angle_gamma 90.044087
loop_
_atom_site_label
_atom_site_type_symbol
_atom_site_fract_x
_atom_site_fract_y
_atom_site_fract_z
_atom_type_partial_charge
H0 H 0.81218 0.44005 0.33335 0.0
H1 H 0.73522 0.44056 0.17084 0.0
H2 H 0.74731 0.5072 0.37717 0.0
C3 C 0.79107 0.4497 0.31799 0.0
C4 C 0.78232 0.4753 0.36302 0.0
C5 C 0.77389 0.43714 0.25018 0.0
C6 C 0.74721 0.44988 0.22726 0.0
C7 C 0.73645 0.47472 0.27353 0.0
C8 C 0.75451 0.48766 0.34189 0.0
H9 H 0.95326 0.77944 0.3923 0.0
H10 H 0.94742 0.7018 0.22947 0.0
H11 H 0.02513 0.71904 0.38669 0.0
C12 C 0.96173 0.75812 0.37295 0.0
C13 C 0.98968 0.75035 0.40349 0.0
C14 C 0.94724 0.74181 0.30588 0.0
C15 C 0.95906 0.71479 0.27945 0.0
C16 C 0.98732 0.70631 0.30626 0.0
C17 C 1.00282 0.7244 0.36859 0.0
H18 H 0.72698 0.07325 0.32271 0.0
H19 H 0.80645 0.07807 0.1693 0.0
H20 H 0.78641 1.00045 0.32437 0.0
C21 C 0.74776 0.06398 0.30246 0.0
C22 C 0.7551 0.03599 0.33452 0.0
C23 C 0.76577 0.07927 0.24172 0.0
C24 C 0.79203 0.06615 0.21423 0.0
C25 C 0.79938 0.03735 0.2401 0.0
C26 C 0.78117 0.02258 0.30325 0.0
H27 H 0.4485 0.70895 0.32616 0.0
H28 H 0.523 0.76585 0.31571 0.0
H29 H 0.44451 0.78879 0.17098 0.0
C30 C 0.45804 0.72943 0.30381 0.0
C31 C 0.44232 0.7482 0.24593 0.0
C32 C 0.4866 0.73585 0.33187 0.0
C33 C 0.5005 0.76127 0.29764 0.0
C34 C 0.48534 0.78033 0.23803 0.0
C35 C 0.45604 0.77408 0.21599 0.0
H36 H 0.24276 0.5797 0.13231 0.0
H37 H 0.31955 0.58114 0.29723 0.0
H38 H 0.29562 0.502 0.15439 0.0
C39 C 0.26276 0.5691 0.15393 0.0
C40 C 0.26757 0.53966 0.12976 0.0
C41 C 0.28114 0.58404 0.21455 0.0
C42 C 0.3059 0.56976 0.24844 0.0
C43 C 0.31143 0.54012 0.22805 0.0
C44 C 0.29195 0.525 0.16892 0.0
H45 H 0.95707 0.20978 0.18037 0.0
H46 H 0.95459 0.29087 0.32518 0.0
H47 H 0.02744 0.27156 0.14859 0.0
C48 C 0.96625 0.23133 0.19307 0.0
C49 C 0.99307 0.23869 0.15297 0.0
C50 C 0.95226 0.25004 0.25467 0.0
C51 C 0.96527 0.27701 0.27581 0.0
C52 C 0.9924 0.28551 0.23882 0.0
C53 C 1.00647 0.26581 0.17751 0.0
H54 H 0.3117 0.06709 0.15825 0.0
H55 H 0.23321 0.07563 0.3152 0.0
H56 H 0.24448 1.00229 0.13314 0.0
C57 C 0.28992 0.05986 0.17557 0.0
C58 C 0.27986 0.03386 0.13576 0.0
C59 C 0.27382 0.07479 0.24232 0.0
C60 C 0.24568 0.06453 0.26314 0.0
C61 C 0.23479 0.03826 0.22544 0.0
C62 C 0.25209 0.02294 0.16098 0.0
H63 H 0.58836 0.28786 0.13973 0.0
H64 H 0.51193 0.23556 0.18655 0.0
H65 H 0.5956 0.21023 0.2994 0.0
C66 C 0.57864 0.26783 0.16533 0.0
C67 C 0.59523 0.24962 0.22168 0.0
C68 C 0.54882 0.2628 0.15006 0.0
C69 C 0.53528 0.23865 0.19384 0.0
C70 C 0.55186 0.21924 0.2492 0.0
C71 C 0.5821 0.22465 0.259 0.0
Tb72 Tb 0.03813 0.98618 0.81673 0.0
Eu73 Eu 0.99754 0.01271 0.65755 0.0
C74 C 0.06695 1.00576 0.6292 0.0
C75 C 0.02501 0.05434 0.81362 0.0
C76 C 0.04974 0.9315 0.97454 0.0
C77 C 0.01598 0.91237 0.08686 0.0
C78 C 0.03817 0.93198 0.0624 0.0
C79 C 0.04044 0.90938 0.91439 0.0
C80 C 0.01787 0.89041 0.93783 0.0
C81 C 1.00463 0.89221 0.02338 0.0
C82 C 0.06373 0.95811 0.93739 0.0
O83 O 0.99635 0.99133 0.8845 0.0
O84 O 0.96488 1.00024 0.76678 0.0
O85 O 0.01356 0.96772 0.61505 0.0
O86 O 0.0137 0.94947 0.75659 0.0
C87 C 0.96982 0.99487 0.85286 0.0
O88 O 0.96045 1.00511 0.56775 0.0
O89 O 0.98651 0.04478 0.55422 0.0
O90 O 0.04371 0.02139 0.60893 0.0
O91 O 0.06761 0.98864 0.70073 0.0
O92 O 0.04501 0.03386 0.82705 0.0
O93 O 1.00229 0.04935 0.76085 0.0
C94 C 0.01364 0.94502 0.66905 0.0
O95 O 0.0715 0.95662 0.85266 0.0
O96 O 0.04973 0.98243 0.9542 0.0
C97 C 0.93699 0.04787 0.51439 0.0
C98 C 0.89368 0.09115 0.49256 0.0
C99 C 0.89719 0.07681 0.57631 0.0
C100 C 0.91896 0.05553 0.58743 0.0
C101 C 0.93162 0.05977 0.42908 0.0
C102 C 0.91027 0.08121 0.41809 0.0
C103 C 0.96345 0.03032 0.52704 0.0
H104 H 1.00715 0.91371 0.15465 0.0
H105 H 0.04477 0.94885 0.10999 0.0
H106 H 0.04873 0.90822 0.84586 0.0
H107 H 0.00986 0.87544 0.88657 0.0
H108 H 0.8845 0.08337 0.63473 0.0
H109 H 0.92275 0.04626 0.65387 0.0
H110 H 0.94533 0.05395 0.37201 0.0
H111 H 0.90889 0.09168 0.35262 0.0
Tb112 Tb 0.52702 0.01818 0.82556 0.0
Eu113 Eu 0.50814 0.97982 0.64803 0.0
C114 C 0.50952 0.04905 0.64358 0.0
C115 C 0.45959 0.99908 0.79677 0.0
C116 C 0.56097 0.07538 0.9729 0.0
C117 C 0.5892 0.11728 0.92072 0.0
C118 C 0.56801 0.0957 0.90493 0.0
C119 C 0.57438 0.07763 0.05759 0.0
C120 C 0.59571 0.0989 0.07315 0.0
C121 C 0.60394 0.11861 1.00425 0.0
C122 C 0.54055 0.05109 0.95636 0.0
O123 O 0.51765 0.97415 0.87724 0.0
O124 O 0.52589 0.94684 0.7489 0.0
O125 O 0.55431 0.99484 0.62275 0.0
O126 O 0.56926 1.00438 0.76781 0.0
C127 C 0.52257 0.94878 0.83729 0.0
O128 O 0.48231 0.94714 0.57416 0.0
O129 O 0.51525 0.97209 0.5039 0.0
O130 O 0.49287 0.02632 0.62675 0.0
O131 O 0.52905 0.04765 0.70852 0.0
O132 O 0.47943 0.01464 0.84021 0.0
O133 O 0.46573 0.98364 0.72424 0.0
C134 C 0.57517 1.00011 0.68142 0.0
O135 O 0.51916 0.05639 0.90038 0.0
O136 O 0.55226 0.02534 0.9425 0.0
C137 C 0.46792 0.97219 0.44133 0.0
C138 C 0.42637 0.01689 0.41587 0.0
C139 C 0.41783 0.98936 0.44995 0.0
C140 C 0.43841 0.96714 0.46225 0.0
C141 C 0.47513 0.99754 0.3914 0.0
C142 C 0.45449 0.01979 0.37898 0.0
C143 C 0.49082 0.95753 0.49609 0.0
H144 H 0.59481 0.13216 0.86641 0.0
H145 H 0.55777 0.0944 0.83893 0.0
H146 H 0.56916 0.06216 0.1108 0.0
H147 H 0.60693 0.09857 0.13764 0.0
H148 H 0.39574 0.98572 0.4738 0.0
H149 H 0.43183 0.94748 0.49802 0.0
H150 H 0.49753 1.00183 0.37165 0.0
H151 H 0.46154 0.04028 0.34915 0.0
Tb152 Tb 0.49277 0.51707 0.85798 0.0
Eu153 Eu 0.53959 0.49494 0.70402 0.0
C154 C 0.4715 0.50245 0.65801 0.0
C155 C 0.51148 0.45009 0.84909 0.0
C156 C 0.42946 0.55243 0.97289 0.0
C157 C 0.38417 0.56868 0.04269 0.0
C158 C 0.40652 0.54786 0.03416 0.0
C159 C 0.42866 0.57682 0.91548 0.0
C160 C 0.40675 0.59782 0.92503 0.0
C161 C 0.38483 0.59472 0.99147 0.0
C162 C 0.45503 0.5329 0.97319 0.0
O163 O 0.53629 0.526 0.91618 0.0
O164 O 0.56317 0.49198 0.83827 0.0
O165 O 0.53926 0.54457 0.69498 0.0
O166 O 0.49573 0.55479 0.7667 0.0
C167 C 0.55992 0.50971 0.90754 0.0
O168 O 0.58414 0.49606 0.65006 0.0
O169 O 0.55028 0.47104 0.58123 0.0
O170 O 0.49817 0.50576 0.62724 0.0
O171 O 0.46634 0.50004 0.74524 0.0
O172 O 0.50494 0.4729 0.89981 0.0
O173 O 0.5209 0.45319 0.7654 0.0
C174 C 0.51765 0.56257 0.71423 0.0
O175 O 0.4529 0.5091 0.92488 0.0
O176 O 0.48033 0.5456 0.96239 0.0
C177 C 0.59866 0.45308 0.5717 0.0
C178 C 0.63539 0.40577 0.5235 0.0
C179 C 0.64436 0.43496 0.50896 0.0
C180 C 0.62605 0.45838 0.53235 0.0
C181 C 0.59046 0.4242 0.59188 0.0
C182 C 0.60844 0.40083 0.56736 0.0
C183 C 0.5781 0.47752 0.58527 0.0
H184 H 0.36727 0.56512 0.09266 0.0
H185 H 0.40653 0.52884 0.07805 0.0
H186 H 0.44593 0.58054 0.86672 0.0
H187 H 0.40855 0.61753 0.88471 0.0
H188 H 0.66507 0.43974 0.47673 0.0
H189 H 0.63286 0.4806 0.51696 0.0
H190 H 0.56951 0.41954 0.62297 0.0
H191 H 0.60019 0.37886 0.57832 0.0
Tb192 Tb 0.01705 0.47447 0.81956 0.0
Eu193 Eu 0.03343 0.52624 0.67879 0.0
C194 C 0.02998 0.45904 0.61803 0.0
C195 C 0.08273 0.49807 0.80764 0.0
C196 C 0.98255 0.40996 0.92928 0.0
C197 C 0.93966 0.38661 0.8648 0.0
C198 C 0.96462 0.40396 0.85446 0.0
C199 C 0.97662 0.39673 1.01251 0.0
C200 C 0.95159 0.3796 0.02314 0.0
C201 C 0.93206 0.3755 0.95043 0.0
C202 C 1.00532 0.43246 0.92442 0.0
O203 O 0.0265 0.51254 0.90529 0.0
O204 O 0.01487 0.54835 0.8041 0.0
O205 O 0.98711 0.51308 0.6421 0.0
O206 O 0.97409 0.4913 0.7761 0.0
C207 C 0.01985 0.54001 0.88775 0.0
O208 O 0.03347 0.57281 0.64284 0.0
O209 O 0.05022 0.54079 0.54844 0.0
O210 O 0.04664 0.48255 0.61501 0.0
O211 O 0.01142 0.4556 0.68462 0.0
O212 O 0.06507 0.47536 0.81649 0.0
O213 O 0.07406 0.52196 0.7657 0.0
C214 C 0.96702 0.50223 0.69626 0.0
O215 O 0.02344 0.4305 0.85669 0.0
O216 O 0.99627 0.45931 0.93685 0.0
C217 C 0.0732 0.5871 0.55196 0.0
C218 C 0.12296 0.62141 0.51197 0.0
C219 C 0.09463 0.63279 0.49914 0.0
C220 C 0.06997 0.61569 0.51854 0.0
C221 C 0.10127 0.57617 0.56909 0.0
C222 C 0.12584 0.59297 0.54856 0.0
C223 C 0.04734 0.5686 0.56718 0.0
H224 H 0.92526 0.38359 0.80732 0.0
H225 H 0.96902 0.414 0.78949 0.0
H226 H 0.9903 0.40118 0.07085 0.0
H227 H 0.94638 0.37182 0.0904 0.0
H228 H 0.09145 0.65464 0.47228 0.0
H229 H 0.0484 0.62459 0.50585 0.0
H230 H 0.10425 0.55424 0.59577 0.0
H231 H 0.14707 0.58292 0.55761 0.0
H232 H 0.18257 0.06595 0.26447 0.0
H233 H 0.22668 0.98204 0.28569 0.0
H234 H 0.18711 0.9639 0.38469 0.0
H235 H 0.16072 0.07112 0.48815 0.0
H236 H 0.12551 0.08746 0.46693 0.0
H237 H 0.1549 0.09275 0.38776 0.0
H238 H 0.12295 0.07181 0.2582 0.0
H239 H 0.09321 0.0669 0.33665 0.0
H240 H 0.1062 0.03622 0.27086 0.0
H241 H 0.14676 0.95748 0.49924 0.0
H242 H 0.1054 0.96077 0.60559 0.0
H243 H 0.08582 0.04834 0.50798 0.0
C244 C 0.18346 0.04346 0.28785 0.0
C245 C 0.20775 0.02533 0.26641 0.0
C246 C 0.20816 0.99616 0.29933 0.0
C247 C 0.18587 0.98577 0.35651 0.0
C248 C 0.16298 1.00464 0.37942 0.0
C249 C 0.16125 0.03267 0.34452 0.0
C250 C 0.135 0.04896 0.38294 0.0
C251 C 0.14462 0.07671 0.4345 0.0
C252 C 0.11304 0.05641 0.30768 0.0
C253 C 0.12268 0.02603 0.44698 0.0
C254 C 0.13924 1.00066 0.44393 0.0
C255 C 0.13339 0.97706 0.50097 0.0
C256 C 0.10994 0.97927 0.56187 0.0
C257 C 0.09222 1.00479 0.56539 0.0
C258 C 0.09871 0.02842 0.50646 0.0
H259 H 0.5686 0.19651 0.4157 0.0
H260 H 0.50365 0.18486 0.20383 0.0
H261 H 0.48321 0.14268 0.28789 0.0
H262 H 0.5834 0.12009 0.4406 0.0
H263 H 0.58996 0.12276 0.56057 0.0
H264 H 0.59711 0.15378 0.48869 0.0
H265 H 0.56288 0.18585 0.58751 0.0
H266 H 0.55547 0.15484 0.65939 0.0
H267 H 0.52571 0.1742 0.60635 0.0
H268 H 0.47058 0.10029 0.39643 0.0
H269 H 0.46959 0.06048 0.50984 0.0
H270 H 0.54657 0.09702 0.6388 0.0
C271 C 0.55036 0.18508 0.38517 0.0
C272 C 0.53811 0.19433 0.30146 0.0
C273 C 0.51345 0.17881 0.26776 0.0
C274 C 0.50174 0.1546 0.315 0.0
C275 C 0.51499 0.14581 0.3958 0.0
C276 C 0.53895 0.16052 0.42995 0.0
C277 C 0.55059 0.14576 0.51464 0.0
C278 C 0.58212 0.13496 0.50023 0.0
C279 C 0.54853 0.16639 0.59682 0.0
C280 C 0.52948 0.12026 0.52319 0.0
C281 C 0.50881 0.12086 0.45481 0.0
C282 C 0.48693 0.09957 0.44936 0.0
C283 C 0.48663 0.07687 0.51385 0.0
C284 C 0.50832 0.07508 0.58222 0.0
C285 C 0.5297 0.09752 0.58741 0.0
H286 H 0.36812 0.55891 0.2568 0.0
H287 H 0.30811 0.48849 0.32283 0.0
H288 H 0.34365 0.4694 0.43459 0.0
H289 H 0.43669 0.5156 0.28238 0.0
H290 H 0.45615 0.54634 0.33039 0.0
H291 H 0.42723 0.5525 0.24978 0.0
H292 H 0.40213 0.58655 0.36404 0.0
H293 H 0.42954 0.57986 0.44875 0.0
H294 H 0.39167 0.57285 0.47363 0.0
H295 H 0.38266 0.46292 0.55677 0.0
H296 H 0.42471 0.46513 0.66239 0.0
H297 H 0.46135 0.53722 0.50902 0.0
C298 C 0.36283 0.53888 0.29246 0.0
C299 C 0.33531 0.52498 0.27977 0.0
C300 C 0.32914 0.4992 0.32965 0.0
C301 C 0.34915 0.48836 0.39403 0.0
C302 C 0.3756 0.50318 0.40694 0.0
C303 C 0.38277 0.5275 0.35583 0.0
C304 C 0.41211 0.5401 0.38498 0.0
C305 C 0.43437 0.53853 0.30726 0.0
C306 C 0.40864 0.57172 0.41992 0.0
C307 C 0.42023 0.5194 0.46138 0.0
C308 C 0.39868 0.49847 0.47385 0.0
C309 C 0.39995 0.47874 0.54596 0.0
C310 C 0.42385 0.48024 0.60599 0.0
C311 C 0.44658 0.50093 0.59303 0.0
C312 C 0.44471 0.52063 0.51924 0.0
H313 H 0.96429 0.33724 0.28642 0.0
H314 H 0.05095 0.29883 0.27014 0.0
H315 H 0.07105 0.34215 0.35039 0.0
H316 H 0.98446 0.41521 0.27822 0.0
H317 H 0.95743 0.42508 0.36155 0.0
H318 H 0.95116 0.39428 0.28732 0.0
H319 H 0.9431 0.36072 0.42639 0.0
H320 H 0.94946 0.39134 0.50083 0.0
H321 H 0.97108 0.35848 0.51205 0.0
H322 H 0.08095 0.38922 0.44553 0.0
H323 H 0.0789 0.43151 0.55179 0.0
H324 H 0.98471 0.43392 0.52418 0.0
C325 C 0.98758 0.33767 0.2991 0.0
C326 C 1.00585 0.31398 0.27183 0.0
C327 C 0.03632 0.31651 0.28856 0.0
C328 C 0.04794 0.34108 0.33501 0.0
C329 C 0.02891 0.36307 0.36525 0.0
C330 C 0.9993 0.3614 0.34791 0.0
C331 C 0.98278 0.38587 0.39561 0.0
C332 C 0.9681 0.40632 0.32656 0.0
C333 C 0.96029 0.37335 0.46269 0.0
C334 C 1.00757 0.40133 0.4446 0.0
C335 C 0.03418 0.38847 0.4243 0.0
C336 C 0.06017 0.39931 0.46155 0.0
C337 C 0.05885 0.42341 0.52172 0.0
C338 C 0.03168 0.43595 0.54645 0.0
C339 C 1.00581 0.42474 0.5067 0.0
H340 H 0.81468 0.0402 0.06068 0.0
H341 H 0.84272 1.00267 0.3158 0.0
H342 H 0.88774 0.98423 0.24116 0.0
H343 H 0.8444 0.98342 0.91131 0.0
H344 H 0.85506 1.00959 0.82617 0.0
H345 H 0.82403 0.01698 0.8977 0.0
H346 H 0.84736 0.06637 0.94664 0.0
H347 H 0.87841 0.0591 0.8754 0.0
H348 H 0.88367 0.06654 0.99411 0.0
H349 H 0.9318 0.97349 0.13949 0.0
H350 H 0.97031 0.97124 0.02304 0.0
H351 H 0.91363 0.01702 0.83479 0.0
C352 C 0.83016 0.02795 0.10117 0.0
C353 C 0.8251 0.02306 0.19477 0.0
C354 C 0.84586 1.00653 0.24421 0.0
C355 C 0.87157 0.9961 0.20227 0.0
C356 C 0.87616 1.00214 0.11053 0.0
C357 C 0.85586 0.01758 0.06061 0.0
C358 C 0.86644 0.0226 0.96442 0.0
C359 C 0.84628 1.00723 0.89586 0.0
C360 C 0.86913 0.05561 0.94399 0.0
C361 C 0.89621 1.00803 0.96788 0.0
C362 C 0.90134 0.99615 0.05257 0.0
C363 C 0.92782 0.98257 0.07303 0.0
C364 C 0.94965 0.98148 1.00615 0.0
C365 C 0.94513 0.99391 0.91916 0.0
C366 C 0.91776 1.00696 0.89987 0.0
H367 H 0.46872 0.83844 0.2258 0.0
H368 H 0.53406 0.77673 0.13205 0.0
H369 H 0.55213 0.81361 0.02263 0.0
H370 H 0.45081 0.86887 0.01762 0.0
H371 H 0.44685 0.90616 0.05672 0.0
H372 H 0.44085 0.87616 0.13349 0.0
H373 H 0.47958 0.89741 0.24344 0.0
H374 H 0.48537 0.92774 0.16745 0.0
H375 H 0.51582 0.90537 0.20236 0.0
H376 H 0.55799 0.85486 0.90737 0.0
H377 H 0.55636 0.89967 0.8126 0.0
H378 H 0.49004 0.93631 0.98888 0.0
C379 C 0.48743 0.83306 0.18412 0.0
C380 C 0.50022 0.80473 0.1883 0.0
C381 C 0.52431 0.79839 0.13145 0.0
C382 C 0.53453 0.81915 0.06841 0.0
C383 C 0.52082 0.84651 0.06394 0.0
C384 C 0.49828 0.85379 0.12206 0.0
C385 C 0.48699 0.88453 0.10247 0.0
C386 C 0.45445 0.88387 0.07599 0.0
C387 C 0.49226 0.90497 0.18376 0.0
C388 C 0.50606 0.89308 0.02258 0.0
C389 C 0.52527 0.87075 1.00083 0.0
C390 C 0.54348 0.8727 0.9252 0.0
C391 C 0.5423 0.89817 0.87133 0.0
C392 C 0.52342 0.92169 0.89387 0.0
C393 C 0.50517 0.91898 0.97089 0.0
H394 H 0.68788 0.44408 0.21416 0.0
H395 H 0.71842 0.53301 0.26127 0.0
H396 H 0.67382 0.55202 0.18605 0.0
H397 H 0.66616 0.45657 0.99147 0.0
H398 H 0.63541 0.43182 0.99494 0.0
H399 H 0.66639 0.42566 0.06745 0.0
H400 H 0.63257 0.42608 0.20781 0.0
H401 H 0.60138 0.4321 0.13563 0.0
H402 H 0.60894 0.45708 0.22748 0.0
H403 H 0.62614 0.56093 0.09318 0.0
H404 H 0.5839 0.55868 0.98754 0.0
H405 H 0.58976 0.46384 0.98403 0.0
C406 C 0.6854 0.46765 0.20936 0.0
C407 C 0.70725 0.48695 0.24363 0.0
C408 C 0.70218 0.51759 0.23708 0.0
C409 C 0.67688 0.5286 0.1936 0.0
C410 C 0.65676 0.50879 0.15625 0.0
C411 C 0.66094 0.47889 0.16382 0.0
C412 C 0.63806 0.46191 0.11059 0.0
C413 C 0.65237 0.44288 0.03675 0.0
C414 C 0.61912 0.44319 0.17417 0.0
C415 C 0.62054 0.48685 0.06974 0.0
C416 C 0.63106 0.51377 0.09869 0.0
C417 C 0.61793 0.53991 0.07029 0.0
C418 C 0.59389 0.53846 1.01032 0.0
C419 C 0.58366 0.51114 0.97694 0.0
C420 C 0.59721 0.48508 1.00776 0.0
H421 H 0.98924 0.69588 0.12395 0.0
H422 H 0.01427 0.65755 0.38057 0.0
H423 H 0.02749 0.61127 0.30112 0.0
H424 H 0.95481 0.63402 0.03452 0.0
H425 H 0.9667 0.63977 0.9197 0.0
H426 H 0.96275 0.67058 0.99506 0.0
H427 H 0.01645 0.68573 0.96598 0.0
H428 H 0.02054 0.65516 0.88948 0.0
H429 H 0.04528 0.65938 0.98357 0.0
H430 H 0.03291 0.56714 0.19232 0.0
H431 H 0.0336 0.53122 0.06693 0.0
H432 H 1.00441 0.59888 0.88158 0.0
C433 C 0.99799 0.67791 0.16346 0.0
C434 C 1.00064 0.68038 0.2589 0.0
C435 C 0.01227 0.65635 0.30765 0.0
C436 C 0.01962 0.6299 0.26291 0.0
C437 C 0.01548 0.62787 0.16913 0.0
C438 C 1.00532 0.65151 0.12 0.0
C439 C 1.00159 0.64364 0.02069 0.0
C440 C 0.96956 0.64721 0.99078 0.0
C441 C 0.0222 0.66207 0.96144 0.0
C442 C 0.01061 0.61159 0.0212 0.0
C443 C 0.01866 0.60288 0.10733 0.0
C444 C 0.02691 0.57395 0.12473 0.0
C445 C 0.02711 0.5536 0.05274 0.0
C446 C 0.01909 0.56199 0.96361 0.0
C447 C 0.01079 0.59156 0.94837 0.0
H448 H 0.90685 0.21622 0.19193 0.0
H449 H 0.93985 0.25828 0.4346 0.0
H450 H 0.90598 0.22964 0.52607 0.0
H451 H 0.82865 0.19381 0.29491 0.0
H452 H 0.83105 0.15943 0.23486 0.0
H453 H 0.84503 0.19259 0.18413 0.0
H454 H 0.89532 0.16759 0.16166 0.0
H455 H 0.88152 0.13476 0.21134 0.0
H456 H 0.91372 0.15193 0.25818 0.0
H457 H 0.88721 0.18606 0.5932 0.0
H458 H 0.88972 0.13376 0.62375 0.0
H459 H 0.86505 0.11505 0.34645 0.0
C460 C 0.906 0.22013 0.26409 0.0
C461 C 0.92621 0.23939 0.30565 0.0
C462 C 0.9244 0.24414 0.40013 0.0
C463 C 0.90503 0.22782 0.45314 0.0
C464 C 0.88751 0.20671 0.41127 0.0
C465 C 0.88733 0.2032 0.31812 0.0
C466 C 0.87262 0.17459 0.29142 0.0
C467 C 0.84255 0.18047 0.24885 0.0
C468 C 0.89198 0.15616 0.22712 0.0
C469 C 0.86926 0.16048 0.38371 0.0
C470 C 0.8761 0.18015 0.45218 0.0
C471 C 0.8809 0.17074 0.54068 0.0
C472 C 0.88214 0.14059 0.55773 0.0
C473 C 0.87854 0.12009 0.48642 0.0
C474 C 0.86864 0.1303 0.40152 0.0
H475 H 0.31751 0.11421 0.20198 0.0
H476 H 0.26679 0.08149 0.4267 0.0
H477 H 0.30841 0.08716 0.52576 0.0
H478 H 0.3618 0.07201 0.19833 0.0
H479 H 0.39684 0.08961 0.18233 0.0
H480 H 0.36426 0.10822 0.14966 0.0
H481 H 0.3775 0.15196 0.25154 0.0
H482 H 0.41085 0.13351 0.28348 0.0
H483 H 0.38593 0.14627 0.36924 0.0
H484 H 0.3534 0.06632 0.57163 0.0
H485 H 0.39197 0.02943 0.56142 0.0
H486 H 0.41749 0.06329 0.29959 0.0
C487 C 0.31516 0.10964 0.27336 0.0
C488 C 0.28966 0.09535 0.30457 0.0
C489 C 0.28623 0.09152 0.39888 0.0
C490 C 0.31023 0.09463 0.45656 0.0
C491 C 0.33747 0.10105 0.41882 0.0
C492 C 0.33999 0.11012 0.32932 0.0
C493 C 0.37137 0.10666 0.29678 0.0
C494 C 0.37364 0.09324 0.20122 0.0
C495 C 0.38735 0.13635 0.30056 0.0
C496 C 0.38304 0.08649 0.36968 0.0
C497 C 0.36454 0.08651 0.4439 0.0
C498 C 0.36822 0.06667 0.51464 0.0
C499 C 0.38979 0.04518 0.50706 0.0
C500 C 0.407 0.04282 0.42788 0.0
C501 C 0.40462 0.06471 0.36074 0.0
H502 H 0.61271 0.25043 0.39669 0.0
H503 H 0.63992 0.27652 0.12857 0.0
H504 H 0.67119 0.31481 0.1946 0.0
H505 H 0.59698 0.30931 0.47453 0.0
H506 H 0.61075 0.30793 0.58879 0.0
H507 H 0.60322 0.27458 0.52995 0.0
H508 H 0.65616 0.25666 0.55445 0.0
H509 H 0.66392 0.28994 0.61635 0.0
H510 H 0.68647 0.27957 0.52162 0.0
H511 H 0.67825 0.36067 0.27521 0.0
H512 H 0.66581 0.40444 0.36277 0.0
H513 H 0.64018 0.34959 0.58861 0.0
C514 C 0.62698 0.26273 0.35244 0.0
C515 C 0.62345 0.26098 0.2577 0.0
C516 C 0.64201 0.27779 0.20147 0.0
C517 C 0.65997 0.29959 0.23867 0.0
C518 C 0.65991 0.3036 0.33232 0.0
C519 C 0.64496 0.28464 0.38917 0.0
C520 C 0.64336 0.29692 0.48453 0.0
C521 C 0.61172 0.29724 0.5213 0.0
C522 C 0.6637 0.27976 0.54797 0.0
C523 C 0.65501 0.3276 0.46857 0.0
C524 C 0.66569 0.33064 0.38145 0.0
C525 C 0.67131 0.3583 0.34478 0.0
C526 C 0.66415 0.38328 0.39556 0.0
C527 C 0.65158 0.38057 0.48274 0.0
C528 C 0.64933 0.35237 0.52173 0.0
H529 H 0.27856 0.59584 0.39382 0.0
H530 H 0.25651 0.63211 0.13258 0.0
H531 H 0.21871 0.66272 0.20359 0.0
H532 H 0.21851 0.57979 0.46045 0.0
H533 H 0.21905 0.59002 0.57837 0.0
H534 H 0.25264 0.58312 0.52112 0.0
H535 H 0.27196 0.63463 0.56323 0.0
H536 H 0.2384 0.64166 0.62356 0.0
H537 H 0.25054 0.66671 0.53716 0.0
H538 H 0.17256 0.6693 0.28142 0.0
H539 H 0.12751 0.65626 0.36074 0.0
H540 H 0.17852 0.62092 0.58243 0.0
C541 C 0.26728 0.6119 0.35288 0.0
C542 C 0.27004 0.61131 0.25781 0.0
C543 C 0.2545 0.63207 0.20559 0.0
C544 C 0.23299 0.64964 0.24568 0.0
C545 C 0.22795 0.64685 0.33841 0.0
C546 C 0.24565 0.62947 0.39248 0.0
C547 C 0.23228 0.62537 0.48554 0.0
C548 C 0.23048 0.59266 0.51266 0.0
C549 C 0.2493 0.64317 0.55656 0.0
C550 C 0.20234 0.63858 0.46984 0.0
C551 C 0.20071 0.6521 0.38619 0.0
C552 C 0.17385 0.66007 0.34869 0.0
C553 C 0.14814 0.65252 0.39466 0.0
C554 C 0.14934 0.63716 0.47781 0.0
C555 C 0.17687 0.63228 0.51845 0.0
H556 H 0.94803 0.74011 0.12309 0.0
H557 H 0.90305 0.78144 0.34638 0.0
H558 H 0.8988 0.82679 0.2583 0.0
H559 H 0.99477 0.78304 0.09935 0.0
H560 H 0.99939 0.78623 0.97855 0.0
H561 H 0.98312 0.75402 0.02401 0.0
H562 H 0.93692 0.76124 0.92666 0.0
H563 H 0.95341 0.79344 0.87746 0.0
H564 H 0.91777 0.79579 0.92865 0.0
H565 H 0.92023 0.87024 0.1883 0.0
H566 H 0.95755 0.90478 0.13382 0.0
H567 H 0.99416 0.83614 0.96492 0.0
C568 C 0.93536 0.75796 0.15097 0.0
C569 C 0.92737 0.75789 0.24321 0.0
C570 C 0.91024 0.78137 0.27658 0.0
C571 C 0.90782 0.80737 0.22667 0.0
C572 C 0.9217 0.80895 0.14266 0.0
C573 C 0.93404 0.78427 0.1028 0.0
C574 C 0.9541 0.79267 0.02535 0.0
C575 C 0.98461 0.77819 0.03261 0.0
C576 C 0.93968 0.78536 0.93414 0.0
C577 C 0.95546 0.82549 0.03944 0.0
C578 C 0.93521 0.83472 0.10285 0.0
C579 C 0.93549 0.86336 0.13656 0.0
C580 C 0.9573 0.88269 0.10675 0.0
C581 C 0.97922 0.8731 0.04585 0.0
C582 C 0.97745 0.84444 1.00977 0.0
H583 H 0.72966 0.12222 0.31076 0.0
H584 H 0.77497 0.09655 0.0656 0.0
H585 H 0.74298 0.1279 0.97744 0.0
H586 H 0.66842 0.10533 0.24496 0.0
H587 H 0.64584 0.134 0.29205 0.0
H588 H 0.68038 0.12613 0.34221 0.0
H589 H 0.69616 0.18028 0.32142 0.0
H590 H 0.6612 0.18832 0.27055 0.0
H591 H 0.69447 0.19698 0.21113 0.0
H592 H 0.69736 0.13995 0.9105 0.0
H593 H 0.64626 0.12918 0.87758 0.0
H594 H 0.62365 0.14656 0.15701 0.0
C595 C 0.7334 0.12408 0.23879 0.0
C596 C 0.75444 0.10616 0.1956 0.0
C597 C 0.75931 0.10993 0.10174 0.0
C598 C 0.74097 0.1279 0.05036 0.0
C599 C 0.71758 0.14183 0.09302 0.0
C600 C 0.71408 0.14074 0.18614 0.0
C601 C 0.68341 0.15007 0.21308 0.0
C602 C 0.66869 0.12751 0.27653 0.0
C603 C 0.68385 0.18074 0.25658 0.0
C604 C 0.66898 0.15118 0.12077 0.0
C605 C 0.68951 0.14862 0.0523 0.0
C606 C 0.68119 0.14297 0.96308 0.0
C607 C 0.65181 0.1369 0.94473 0.0
C608 C 0.63099 0.13643 0.01541 0.0
C609 C 0.63932 0.14641 0.10222 0.0
H610 H 0.40063 0.71264 0.32478 0.0
H611 H 0.41877 0.76031 0.07736 0.0
H612 H 0.38135 0.7321 0.99944 0.0
H613 H 0.41161 0.6515 0.24082 0.0
H614 H 0.38422 0.6296 0.29706 0.0
H615 H 0.39651 0.66279 0.3482 0.0
H616 H 0.34287 0.68096 0.35484 0.0
H617 H 0.33087 0.64731 0.30197 0.0
H618 H 0.32116 0.68216 0.25313 0.0
H619 H 0.35821 0.68978 0.93248 0.0
H620 H 0.36269 0.63867 0.88277 0.0
H621 H 0.36823 0.61089 0.16219 0.0
C622 C 0.39628 0.7176 0.25461 0.0
C623 C 0.41353 0.73837 0.20759 0.0
C624 C 0.40609 0.74492 0.11675 0.0
C625 C 0.38453 0.72879 0.07124 0.0
C626 C 0.37084 0.70563 0.11612 0.0
C627 C 0.37634 0.70011 0.20674 0.0
C628 C 0.36693 0.66924 0.23208 0.0
C629 C 0.39133 0.65234 0.28219 0.0
C630 C 0.33879 0.66998 0.28883 0.0
C631 C 0.36069 0.65674 0.13887 0.0
C632 C 0.35993 0.67882 0.07463 0.0
C633 C 0.35855 0.67244 0.98239 0.0
C634 C 0.36146 0.64322 0.95458 0.0
C635 C 0.3673 0.62092 0.01859 0.0
C636 C 0.36392 0.62742 0.11161 0.0
H637 H 0.78522 0.43804 0.07163 0.0
H638 H 0.79217 0.38351 0.30943 0.0
H639 H 0.82414 0.34921 0.22623 0.0
H640 H 0.79894 0.37573 0.89047 0.0
H641 H 0.82039 0.40122 0.82513 0.0
H642 H 0.78889 0.41396 0.88717 0.0
H643 H 0.82116 0.4526 0.96867 0.0
H644 H 0.8523 0.44015 0.90693 0.0
H645 H 0.85332 0.44063 0.02892 0.0
H646 H 0.86525 0.33026 0.13884 0.0
H647 H 0.91343 0.33164 0.065 0.0
H648 H 0.88225 0.39957 0.88452 0.0
C649 C 0.79217 0.41788 0.10379 0.0
C650 C 0.78602 0.41291 0.19571 0.0
C651 C 0.79641 0.38725 0.23829 0.0
C652 C 0.81439 0.3676 0.1912 0.0
C653 C 0.8218 0.37402 0.10178 0.0
C654 C 0.81073 0.39853 0.05807 0.0
C655 C 0.82715 0.40464 0.97125 0.0
C656 C 0.80768 0.3985 0.88862 0.0
C657 C 0.83921 0.43633 0.96904 0.0
C658 C 0.85127 0.38204 0.97854 0.0
C659 C 0.84689 0.3635 0.05137 0.0
C660 C 0.86854 0.34409 0.0803 0.0
C661 C 0.89596 0.34512 0.03826 0.0
C662 C 0.90166 0.36591 0.96948 0.0
C663 C 0.87839 0.38297 0.93535 0.0
H664 H 0.96636 0.20668 0.0182 0.0
H665 H 0.05 0.21795 0.15166 0.0
H666 H 0.06863 0.17361 0.07259 0.0
H667 H 0.96306 0.13048 0.04052 0.0
H668 H 0.94552 0.12385 0.93318 0.0
H669 H 0.9403 0.15835 0.99043 0.0
H670 H 0.95875 0.18627 0.84907 0.0
H671 H 0.96373 0.15184 0.79094 0.0
H672 H 0.99386 0.17714 0.80142 0.0
H673 H 0.0759 0.12383 0.9904 0.0
H674 H 0.07228 0.07668 0.9076 0.0
H675 H 0.98342 0.09815 0.8296 0.0
C676 C 0.98886 0.20027 0.02941 0.0
C677 C 1.00674 0.21613 0.09126 0.0
C678 C 0.03598 0.20668 0.10383 0.0
C679 C 0.04663 0.18126 0.05968 0.0
C680 C 0.02791 0.16548 1.00236 0.0
C681 C 0.99971 0.17497 0.98638 0.0
C682 C 0.98326 0.15346 0.92615 0.0
C683 C 0.95646 0.14079 0.97552 0.0
C684 C 0.97439 0.16805 0.83657 0.0
C685 C 1.00641 0.13008 0.91109 0.0
C686 C 0.03206 0.13733 0.9555 0.0
C687 C 0.056 0.11829 0.9546 0.0
C688 C 0.05371 0.0914 0.90734 0.0
C689 C 0.02768 0.08352 0.86085 0.0
C690 C 1.00384 0.10345 0.86295 0.0
H691 H 0.3354 0.01514 0.17244 0.0
H692 H 0.27172 0.02025 0.95623 0.0
H693 H 0.3103 1.00712 0.8453 0.0
H694 H 0.39165 0.04833 0.06897 0.0
H695 H 0.42105 0.0254 0.10851 0.0
H696 H 0.38836 0.02844 0.17453 0.0
H697 H 0.38033 0.97283 0.17217 0.0
H698 H 0.41386 0.96879 0.10936 0.0
H699 H 0.38037 0.95338 0.06587 0.0
H700 H 0.35787 0.99976 0.75583 0.0
H701 H 0.40875 0.99771 0.69835 0.0
H702 H 0.44131 0.99975 0.97352 0.0
C703 C 0.32935 0.01232 0.1021 0.0
C704 C 0.30036 0.01827 0.07306 0.0
C705 C 0.2935 0.01513 0.98023 0.0
C706 C 0.3154 1.0079 0.91675 0.0
C707 C 0.34404 1.00348 0.94723 0.0
C708 C 0.3509 1.00502 0.03824 0.0
C709 C 0.38359 1.00126 0.05331 0.0
C710 C 0.3969 0.02748 0.10431 0.0
C711 C 0.3899 0.97234 0.1031 0.0
C712 C 0.39438 0.99988 0.95648 0.0
C713 C 0.37124 1.00016 0.89616 0.0
C714 C 0.37601 0.99931 0.80282 0.0
C715 C 0.40501 0.99826 0.77067 0.0
C716 C 0.429 0.99894 0.83138 0.0
C717 C 0.42343 0.99957 0.92545 0.0
H718 H 0.56477 0.28927 0.99036 0.0
H719 H 0.49709 0.28996 0.19543 0.0
H720 H 0.47714 0.33573 0.12993 0.0
H721 H 0.5797 0.36343 0.99834 0.0
H722 H 0.58658 0.36805 0.87918 0.0
H723 H 0.59245 0.33291 0.93139 0.0
H724 H 0.55732 0.30845 0.81619 0.0
H725 H 0.55163 0.34353 0.76286 0.0
H726 H 0.52078 0.32261 0.80285 0.0
H727 H 0.46973 0.38558 0.05791 0.0
H728 H 0.47263 0.43302 0.97807 0.0
H729 H 0.54491 0.40029 0.81746 0.0
C730 C 0.54516 0.29854 0.01982 0.0
C731 C 0.53236 0.28572 0.09794 0.0
C732 C 0.50697 0.29885 0.13483 0.0
C733 C 0.49566 0.32508 0.09841 0.0
C734 C 0.50975 0.33785 0.02431 0.0
C735 C 0.53369 0.32472 0.98443 0.0
C736 C 0.54628 0.34399 0.91 0.0
C737 C 0.57813 0.3526 0.93103 0.0
C738 C 0.54385 0.32874 0.81748 0.0
C739 C 0.52615 0.37043 0.91549 0.0
C740 C 0.5052 0.36639 0.98185 0.0
C741 C 0.48565 0.38865 1.00466 0.0
C742 C 0.48757 0.41563 0.95907 0.0
C743 C 0.50874 0.42035 0.89054 0.0
C744 C 0.52804 0.39718 0.86788 0.0
H745 H 0.23593 0.56245 0.98616 0.0
H746 H 0.24567 0.48312 0.14534 0.0
H747 H 0.20205 0.46222 0.06989 0.0
H748 H 0.15999 0.56691 1.00831 0.0
H749 H 0.15341 0.5812 0.89653 0.0
H750 H 0.18785 0.58798 0.95168 0.0
H751 H 0.2153 0.56515 0.81559 0.0
H752 H 0.1809 0.55845 0.7597 0.0
H753 H 0.20602 0.52861 0.77836 0.0
H754 H 0.15385 0.45201 0.98745 0.0
H755 H 0.10666 0.45311 0.90674 0.0
H756 H 0.12658 0.54048 0.80772 0.0
C757 C 0.22924 0.54048 1.0047 0.0
C758 C 0.24463 0.52454 0.07248 0.0
C759 C 0.23491 0.49576 0.09311 0.0
C760 C 0.20986 0.48377 0.05092 0.0
C761 C 0.19458 0.5007 0.98772 0.0
C762 C 0.20409 0.52841 0.96432 0.0
C763 C 0.18264 0.54312 0.89992 0.0
C764 C 0.17024 0.57147 0.94163 0.0
C765 C 0.19708 0.54918 0.80794 0.0
C766 C 0.1592 0.5196 0.89179 0.0
C767 C 0.16667 0.49515 0.94211 0.0
C768 C 0.14802 0.47098 0.94737 0.0
C769 C 0.12112 0.47184 0.901 0.0
C770 C 0.11261 0.49682 0.85001 0.0
C771 C 0.13227 0.5209 0.84517 0.0
H772 H 0.97393 0.77662 0.56418 0.0
H773 H 0.03935 0.77918 0.35288 0.0
H774 H 0.05537 0.82805 0.40683 0.0
H775 H 0.95184 0.84741 0.54972 0.0
H776 H 0.94681 0.85456 0.66867 0.0
H777 H 0.94395 0.81766 0.62618 0.0
H778 H 0.98433 0.79988 0.73685 0.0
H779 H 0.98575 0.83657 0.78255 0.0
H780 H 0.01863 0.8193 0.74159 0.0
H781 H 0.05708 0.8805 0.4631 0.0
H782 H 0.05008 0.92935 0.53267 0.0
H783 H 0.98596 0.89279 0.71641 0.0
C784 C 0.99269 0.78681 0.53245 0.0
C785 C 1.00587 0.7736 0.45535 0.0
C786 C 0.02953 0.78826 0.41344 0.0
C787 C 0.03851 0.81628 0.44309 0.0
C788 C 0.02402 0.82932 0.51611 0.0
C789 C 1.00219 0.81467 0.56218 0.0
C790 C 0.98887 0.83433 0.63492 0.0
C791 C 0.95592 0.83874 0.61884 0.0
C792 C 0.99476 0.82178 0.72962 0.0
C793 C 1.00573 0.86274 0.62015 0.0
C794 C 0.02584 0.85933 0.55099 0.0
C795 C 0.04197 0.88312 0.51881 0.0
C796 C 0.03768 0.9109 0.55835 0.0
C797 C 0.01772 0.91493 0.63056 0.0
C798 C 1.00179 0.89032 0.6625 0.0
H799 H 0.69736 0.02502 0.30252 0.0
H800 H 0.76389 0.01684 0.50923 0.0
H801 H 0.72547 1.00466 0.62205 0.0
H802 H 0.64609 0.06099 0.43537 0.0
H803 H 0.61451 0.04344 0.38629 0.0
H804 H 0.64735 0.04758 0.32066 0.0
H805 H 0.64896 0.99152 0.29127 0.0
H806 H 0.61578 0.98722 0.35548 0.0
H807 H 0.64791 0.96655 0.38567 0.0
H808 H 0.67772 0.99951 0.7164 0.0
H809 H 0.6272 0.9969 0.77735 0.0
H810 H 0.59293 1.00807 0.50602 0.0
C811 C 0.70395 0.01969 0.37094 0.0
C812 C 0.73374 0.02144 0.39677 0.0
C813 C 0.74136 0.01499 0.48742 0.0
C814 C 0.71958 1.00838 0.5521 0.0
C815 C 0.69023 1.00808 0.52499 0.0
C816 C 0.68257 0.01309 0.43585 0.0
C817 C 0.64963 0.01307 0.42385 0.0
C818 C 0.63877 0.04304 0.38954 0.0
C819 C 0.64001 0.9881 0.36032 0.0
C820 C 0.63974 1.00751 0.52018 0.0
C821 C 0.66334 1.00482 0.57802 0.0
C822 C 0.6592 1.00113 0.6711 0.0
C823 C 0.63037 0.99981 0.70535 0.0
C824 C 0.6059 1.00192 0.64676 0.0
C825 C 0.61098 1.00586 0.55295 0.0
H826 H 0.49788 0.67716 0.3084 0.0
H827 H 0.50404 0.74728 0.50552 0.0
H828 H 0.51491 0.71076 0.6252 0.0
H829 H 0.46212 0.62664 0.44365 0.0
H830 H 0.48108 0.59459 0.40256 0.0
H831 H 0.47715 0.62623 0.33101 0.0
H832 H 0.53328 0.62876 0.30986 0.0
H833 H 0.5373 0.59676 0.38025 0.0
H834 H 0.55671 0.63005 0.40793 0.0
H835 H 0.51738 0.66537 0.72728 0.0
H836 H 0.51859 0.61605 0.79843 0.0
H837 H 0.51439 0.5756 0.5335 0.0
C838 C 0.50263 0.68488 0.37618 0.0
C839 C 0.50065 0.7152 0.39736 0.0
C840 C 0.50615 0.72434 0.48732 0.0
C841 C 0.51202 0.70366 0.55587 0.0
C842 C 0.51276 0.67383 0.53332 0.0
C843 C 0.50893 0.66455 0.44501 0.0
C844 C 0.50984 0.63124 0.43873 0.0
C845 C 0.48082 0.61897 0.40182 0.0
C846 C 0.53584 0.62111 0.38076 0.0
C847 C 0.51414 0.6231 0.53747 0.0
C848 C 0.5155 0.64797 0.59121 0.0
C849 C 0.51706 0.64586 0.68544 0.0
C850 C 0.51763 0.61778 0.72542 0.0
C851 C 0.51722 0.59211 0.67144 0.0
C852 C 0.51549 0.59491 0.57624 0.0
H853 H 0.83802 0.49376 0.32857 0.0
H854 H 0.77632 0.48238 0.54746 0.0
H855 H 0.81637 0.49042 0.65858 0.0
H856 H 0.89526 0.45504 0.42616 0.0
H857 H 0.9241 0.47829 0.38431 0.0
H858 H 0.89017 0.47554 0.32317 0.0
H859 H 0.88359 0.53195 0.33148 0.0
H860 H 0.91777 0.53492 0.39148 0.0
H861 H 0.88493 0.55014 0.43983 0.0
H862 H 0.86561 0.49303 0.74549 0.0
H863 H 0.91697 0.49532 0.79854 0.0
H864 H 0.94603 0.50624 0.52154 0.0
C865 C 0.83272 0.49411 0.39997 0.0
C866 C 0.80377 0.48809 0.42922 0.0
C867 C 0.79801 0.48775 0.52329 0.0
C868 C 0.82079 0.49196 0.58685 0.0
C869 C 0.84931 0.4967 0.5555 0.0
C870 C 0.85514 0.49833 0.46393 0.0
C871 C 0.88771 0.50215 0.44683 0.0
C872 C 0.90002 0.47621 0.39188 0.0
C873 C 0.89386 0.53154 0.39962 0.0
C874 C 0.89952 0.5021 0.54288 0.0
C875 C 0.87712 0.49875 0.60484 0.0
C876 C 0.88312 0.49622 0.69729 0.0
C877 C 0.91247 0.49745 0.72692 0.0
C878 C 0.93577 0.50143 0.66476 0.0
C879 C 0.92888 0.50381 0.57144 0.0
loop_
_geom_bond_atom_site_label_1
_geom_bond_atom_site_label_2
_geom_bond_distance
_geom_bond_site_symmetry_2
_ccdc_geom_bond_type
H0 C3 0.931 . S
H1 C6 0.928 . S
H2 C8 0.930 . S
C3 H0 0.931 . S
C3 C4 1.413 . S
C3 C5 1.360 . S
C4 C3 1.413 . S
C4 C8 1.429 . S
C5 C3 1.360 . S
C5 C6 1.372 . S
C6 H1 0.928 . S
C6 C5 1.372 . S
C6 C7 1.404 . S
C7 C6 1.404 . S
C7 C8 1.391 . S
C8 H2 0.930 . S
C8 C4 1.429 . S
C8 C7 1.391 . S
H9 C12 0.931 . S
H10 C15 0.928 . S
H11 C17 0.930 . S
C12 H9 0.931 . S
C12 C13 1.413 . S
C12 C14 1.360 . S
C13 C12 1.413 . S
C13 C17 1.429 1_655 S
C14 C12 1.360 . S
C14 C15 1.372 . S
C15 H10 0.928 . S
C15 C14 1.372 . S
C15 C16 1.404 . S
C16 C15 1.404 . S
C16 C17 1.390 1_655 S
C17 H11 0.930 . S
C17 C13 1.429 1_455 S
C17 C16 1.390 1_455 S
H18 C21 0.931 . S
H19 C24 0.928 . S
H20 C26 0.930 . S
C21 H18 0.931 . S
C21 C22 1.413 . S
C21 C23 1.360 . S
C22 C21 1.413 . S
C22 C26 1.429 1_565 S
C23 C21 1.360 . S
C23 C24 1.372 . S
C24 H19 0.928 . S
C24 C23 1.372 . S
C24 C25 1.404 . S
C25 C24 1.404 . S
C25 C26 1.390 1_565 S
C26 H20 0.930 . S
C26 C22 1.429 1_545 S
C26 C25 1.390 1_545 S
H27 C30 0.931 . S
H28 C33 0.928 . S
H29 C35 0.930 . S
C30 H27 0.931 . S
C30 C31 1.413 . S
C30 C32 1.360 . S
C31 C30 1.413 . S
C31 C35 1.429 . S
C32 C30 1.360 . S
C32 C33 1.372 . S
C33 H28 0.928 . S
C33 C32 1.372 . S
C33 C34 1.404 . S
C34 C33 1.404 . S
C34 C35 1.391 . S
C35 H29 0.930 . S
C35 C31 1.429 . S
C35 C34 1.391 . S
H36 C39 0.931 . S
H37 C42 0.928 . S
H38 C44 0.930 . S
C39 H36 0.931 . S
C39 C40 1.413 1_554 S
C39 C41 1.360 . S
C40 C39 1.413 1_556 S
C40 C44 1.429 . S
C41 C39 1.360 . S
C41 C42 1.372 . S
C42 H37 0.928 . S
C42 C41 1.372 . S
C42 C43 1.404 . S
C43 C42 1.404 . S
C43 C44 1.391 1_554 S
C44 H38 0.930 . S
C44 C40 1.429 . S
C44 C43 1.391 1_556 S
H45 C48 0.931 . S
H46 C51 0.928 . S
H47 C53 0.930 . S
C48 H45 0.931 . S
C48 C49 1.413 1_554 S
C48 C50 1.360 . S
C49 C48 1.413 1_556 S
C49 C53 1.429 1_655 S
C50 C48 1.360 . S
C50 C51 1.372 . S
C51 H46 0.928 . S
C51 C50 1.372 . S
C51 C52 1.404 . S
C52 C51 1.404 . S
C52 C53 1.391 1_654 S
C53 H47 0.930 . S
C53 C49 1.429 1_455 S
C53 C52 1.391 1_456 S
H54 C57 0.931 . S
H55 C60 0.928 . S
H56 C62 0.930 . S
C57 H54 0.931 . S
C57 C58 1.413 1_554 S
C57 C59 1.360 . S
C58 C57 1.413 1_556 S
C58 C62 1.429 1_565 S
C59 C57 1.360 . S
C59 C60 1.372 . S
C60 H55 0.928 . S
C60 C59 1.372 . S
C60 C61 1.404 . S
C61 C60 1.404 . S
C61 C62 1.391 1_564 S
C62 H56 0.930 . S
C62 C58 1.429 1_545 S
C62 C61 1.391 1_546 S
H63 C66 0.931 . S
H64 C69 0.928 . S
H65 C71 0.930 . S
C66 H63 0.931 . S
C66 C67 1.413 . S
C66 C68 1.360 1_554 S
C67 C66 1.413 . S
C67 C71 1.429 . S
C68 C66 1.360 1_556 S
C68 C69 1.372 . S
C69 H64 0.928 . S
C69 C68 1.372 . S
C69 C70 1.404 1_556 S
C70 C69 1.404 1_554 S
C70 C71 1.391 . S
C71 H65 0.930 . S
C71 C67 1.429 . S
C71 C70 1.391 . S
Tb72 C82 2.825 . S
Tb72 O83 2.347 1_455 S
Tb72 O86 2.366 . S
Tb72 O91 2.418 . S
Tb72 O92 2.384 1_565 S
Tb72 O95 2.479 . S
Tb72 O96 2.471 . S
Eu73 O84 2.418 . S
Eu73 O85 2.384 1_545 S
Eu73 O88 2.479 . S
Eu73 O89 2.471 . S
Eu73 O90 2.347 1_655 S
Eu73 O93 2.366 . S
Eu73 C103 2.825 . S
C74 O90 1.259 1_565 S
C74 O91 1.265 . S
C75 O92 1.255 . S
C75 O93 1.265 1_455 S
C76 C78 1.380 . S
C76 C79 1.374 . S
C76 C82 1.507 . S
C77 C78 1.384 1_554 S
C77 C81 1.387 . S
C77 H104 0.930 . S
C78 C76 1.380 . S
C78 C77 1.384 1_556 S
C78 H105 0.931 . S
C79 C76 1.374 . S
C79 C80 1.390 1_556 S
C79 H106 0.930 1_455 S
C80 C79 1.390 1_554 S
C80 C81 1.391 . S
C80 H107 0.899 1_455 S
C81 C77 1.387 . S
C81 C80 1.391 . S
C82 Tb72 2.825 . S
C82 C76 1.507 . S
C82 O95 1.238 . S
C82 O96 1.247 . S
O83 Tb72 2.347 1_655 S
O83 C87 1.259 1_565 S
O84 Eu73 2.418 . S
O84 C87 1.265 . S
O85 Eu73 2.384 1_565 S
O85 C94 1.255 . S
O86 Tb72 2.366 . S
O86 C94 1.265 1_455 S
C87 O83 1.259 1_545 S
C87 O84 1.265 . S
O88 Eu73 2.479 . S
O88 C103 1.238 . S
O89 Eu73 2.471 . S
O89 C103 1.247 . S
O90 Eu73 2.347 1_455 S
O90 C74 1.259 1_545 S
O91 Tb72 2.418 . S
O91 C74 1.265 . S
O92 Tb72 2.384 1_545 S
O92 C75 1.255 . S
O93 Eu73 2.366 . S
O93 C75 1.265 1_655 S
C94 O85 1.255 . S
C94 O86 1.265 1_655 S
O95 Tb72 2.479 . S
O95 C82 1.238 . S
O96 Tb72 2.471 . S
O96 C82 1.247 . S
C97 C100 1.380 . S
C97 C101 1.374 . S
C97 C103 1.507 . S
C98 C99 1.387 . S
C98 C102 1.391 . S
C99 C98 1.387 . S
C99 C100 1.384 . S
C99 H108 0.930 . S
C100 C97 1.380 . S
C100 C99 1.384 . S
C100 H109 0.931 . S
C101 C97 1.374 . S
C101 C102 1.390 . S
C101 H110 0.930 1_655 S
C102 C98 1.391 . S
C102 C101 1.390 . S
C102 H111 0.930 1_655 S
C103 Eu73 2.825 . S
C103 O88 1.238 . S
C103 O89 1.247 . S
C103 C97 1.507 . S
H104 C77 0.930 . S
H105 C78 0.931 . S
H106 C79 0.930 1_655 S
H107 C80 0.899 1_655 S
H108 C99 0.930 . S
H109 C100 0.931 . S
H110 C101 0.930 1_455 S
H111 C102 0.930 1_455 S
Tb112 C122 2.825 . S
Tb112 O123 2.347 1_545 S
Tb112 O126 2.366 . S
Tb112 O131 2.418 . S
Tb112 O132 2.384 . S
Tb112 O135 2.479 . S
Tb112 O136 2.471 . S
Eu113 O124 2.418 . S
Eu113 O125 2.384 . S
Eu113 O128 2.479 . S
Eu113 O129 2.471 . S
Eu113 O130 2.347 1_565 S
Eu113 O133 2.366 . S
Eu113 C143 2.825 . S
C114 O130 1.259 . S
C114 O131 1.265 . S
C115 O132 1.255 . S
C115 O133 1.265 1_545 S
C116 C118 1.380 . S
C116 C119 1.374 . S
C116 C122 1.507 . S
C117 C118 1.384 1_554 S
C117 C121 1.387 . S
C117 H144 0.930 . S
C118 C116 1.380 . S
C118 C117 1.384 1_556 S
C118 H145 0.931 . S
C119 C116 1.374 . S
C119 C120 1.390 1_556 S
C119 H146 0.930 1_545 S
C120 C119 1.390 1_554 S
C120 C121 1.391 . S
C120 H147 0.930 1_545 S
C121 C117 1.387 . S
C121 C120 1.391 . S
C122 Tb112 2.825 . S
C122 C116 1.507 . S
C122 O135 1.238 . S
C122 O136 1.247 . S
O123 Tb112 2.347 1_565 S
O123 C127 1.259 . S
O124 Eu113 2.418 . S
O124 C127 1.265 . S
O125 Eu113 2.384 . S
O125 C134 1.255 . S
O126 Tb112 2.366 . S
O126 C134 1.265 1_545 S
C127 O123 1.259 . S
C127 O124 1.265 . S
O128 Eu113 2.479 . S
O128 C143 1.238 . S
O129 Eu113 2.471 . S
O129 C143 1.247 . S
O130 Eu113 2.347 1_545 S
O130 C114 1.259 . S
O131 Tb112 2.418 . S
O131 C114 1.265 . S
O132 Tb112 2.384 . S
O132 C115 1.255 . S
O133 Eu113 2.366 . S
O133 C115 1.265 1_565 S
C134 O125 1.255 . S
C134 O126 1.265 1_565 S
O135 Tb112 2.479 . S
O135 C122 1.238 . S
O136 Tb112 2.471 . S
O136 C122 1.247 . S
C137 C140 1.380 . S
C137 C141 1.374 . S
C137 C143 1.507 . S
C138 C139 1.387 . S
C138 C142 1.391 . S
C139 C138 1.387 . S
C139 C140 1.384 . S
C139 H148 0.930 . S
C140 C137 1.380 . S
C140 C139 1.384 . S
C140 H149 0.931 . S
C141 C137 1.374 . S
C141 C142 1.390 . S
C141 H150 0.930 1_565 S
C142 C138 1.391 . S
C142 C141 1.390 . S
C142 H151 0.930 1_565 S
C143 Eu113 2.825 . S
C143 O128 1.238 . S
C143 O129 1.247 . S
C143 C137 1.507 . S
H144 C117 0.930 . S
H145 C118 0.931 . S
H146 C119 0.930 1_565 S
H147 C120 0.930 1_565 S
H148 C139 0.930 . S
H149 C140 0.931 . S
H150 C141 0.930 1_545 S
H151 C142 0.930 1_545 S
Tb152 C162 2.825 . S
Tb152 O163 2.347 . S
Tb152 O166 2.366 . S
Tb152 O171 2.418 . S
Tb152 O172 2.384 . S
Tb152 O175 2.479 . S
Tb152 O176 2.471 . S
Eu153 O164 2.418 . S
Eu153 O165 2.384 . S
Eu153 O168 2.479 . S
Eu153 O169 2.471 . S
Eu153 O170 2.347 . S
Eu153 O173 2.366 . S
Eu153 C183 2.825 . S
C154 O170 1.259 . S
C154 O171 1.265 . S
C155 O172 1.255 . S
C155 O173 1.265 . S
C156 C158 1.380 . S
C156 C159 1.374 . S
C156 C162 1.507 . S
C157 C158 1.384 1_554 S
C157 C161 1.387 . S
C157 H184 0.930 . S
C158 C156 1.380 . S
C158 C157 1.384 1_556 S
C158 H185 0.931 . S
C159 C156 1.374 . S
C159 C160 1.390 1_556 S
C159 H186 0.930 . S
C160 C159 1.390 1_554 S
C160 C161 1.391 . S
C160 H187 0.930 . S
C161 C157 1.387 . S
C161 C160 1.391 . S
C162 Tb152 2.825 . S
C162 C156 1.507 . S
C162 O175 1.238 . S
C162 O176 1.247 . S
O163 Tb152 2.347 . S
O163 C167 1.259 . S
O164 Eu153 2.418 . S
O164 C167 1.265 . S
O165 Eu153 2.384 . S
O165 C174 1.255 . S
O166 Tb152 2.366 . S
O166 C174 1.265 . S
C167 O163 1.259 . S
C167 O164 1.265 . S
O168 Eu153 2.479 . S
O168 C183 1.238 . S
O169 Eu153 2.471 . S
O169 C183 1.247 . S
O170 Eu153 2.347 . S
O170 C154 1.259 . S
O171 Tb152 2.418 . S
O171 C154 1.265 . S
O172 Tb152 2.384 . S
O172 C155 1.255 . S
O173 Eu153 2.366 . S
O173 C155 1.265 . S
C174 O165 1.255 . S
C174 O166 1.265 . S
O175 Tb152 2.479 . S
O175 C162 1.238 . S
O176 Tb152 2.471 . S
O176 C162 1.247 . S
C177 C180 1.380 . S
C177 C181 1.374 . S
C177 C183 1.507 . S
C178 C179 1.387 . S
C178 C182 1.391 . S
C179 C178 1.387 . S
C179 C180 1.384 . S
C179 H188 0.930 . S
C180 C177 1.380 . S
C180 C179 1.384 . S
C180 H189 0.931 . S
C181 C177 1.374 . S
C181 C182 1.390 . S
C181 H190 0.930 . S
C182 C178 1.391 . S
C182 C181 1.390 . S
C182 H191 0.930 . S
C183 Eu153 2.825 . S
C183 O168 1.238 . S
C183 O169 1.247 . S
C183 C177 1.507 . S
H184 C157 0.930 . S
H185 C158 0.931 . S
H186 C159 0.930 . S
H187 C160 0.930 . S
H188 C179 0.930 . S
H189 C180 0.931 . S
H190 C181 0.930 . S
H191 C182 0.930 . S
Tb192 C202 2.825 . S
Tb192 O203 2.347 . S
Tb192 O206 2.366 . S
Tb192 O211 2.418 . S
Tb192 O212 2.384 1_655 S
Tb192 O215 2.479 . S
Tb192 O216 2.471 . S
Eu193 O204 2.418 . S
Eu193 O205 2.384 1_455 S
Eu193 O208 2.479 . S
Eu193 O209 2.471 . S
Eu193 O210 2.347 . S
Eu193 O213 2.366 . S
Eu193 C223 2.825 . S
C194 O210 1.259 1_655 S
C194 O211 1.265 . S
C195 O212 1.255 . S
C195 O213 1.265 . S
C196 C198 1.380 . S
C196 C199 1.374 . S
C196 C202 1.507 . S
C197 C198 1.384 1_554 S
C197 C201 1.387 . S
C197 H224 0.930 . S
C198 C196 1.380 . S
C198 C197 1.384 1_556 S
C198 H225 0.931 . S
C199 C196 1.374 . S
C199 C200 1.390 1_556 S
C199 H226 0.930 . S
C200 C199 1.390 1_554 S
C200 C201 1.391 . S
C200 H227 0.930 . S
C201 C197 1.387 . S
C201 C200 1.391 . S
C202 Tb192 2.825 . S
C202 C196 1.507 . S
C202 O215 1.238 . S
C202 O216 1.247 . S
O203 Tb192 2.347 . S
O203 C207 1.259 1_655 S
O204 Eu193 2.418 . S
O204 C207 1.265 . S
O205 Eu193 2.384 1_655 S
O205 C214 1.255 . S
O206 Tb192 2.366 . S
O206 C214 1.265 . S
C207 O203 1.259 1_455 S
C207 O204 1.265 . S
O208 Eu193 2.479 . S
O208 C223 1.238 . S
O209 Eu193 2.471 . S
O209 C223 1.247 . S
O210 Eu193 2.347 . S
O210 C194 1.259 1_455 S
O211 Tb192 2.418 . S
O211 C194 1.265 . S
O212 Tb192 2.384 1_455 S
O212 C195 1.255 . S
O213 Eu193 2.366 . S
O213 C195 1.265 . S
C214 O205 1.255 . S
C214 O206 1.265 . S
O215 Tb192 2.479 . S
O215 C202 1.238 . S
O216 Tb192 2.471 . S
O216 C202 1.247 . S
C217 C220 1.380 . S
C217 C221 1.374 . S
C217 C223 1.507 . S
C218 C219 1.387 . S
C218 C222 1.391 . S
C219 C218 1.387 . S
C219 C220 1.384 . S
C219 H228 0.930 . S
C220 C217 1.380 . S
C220 C219 1.384 . S
C220 H229 0.931 . S
C221 C217 1.374 . S
C221 C222 1.390 . S
C221 H230 0.930 . S
C222 C218 1.391 . S
C222 C221 1.390 . S
C222 H231 0.930 . S
C223 Eu193 2.825 . S
C223 O208 1.238 . S
C223 O209 1.247 . S
C223 C217 1.507 . S
H224 C197 0.930 . S
H225 C198 0.931 . S
H226 C199 0.930 . S
H227 C200 0.930 . S
H228 C219 0.930 . S
H229 C220 0.931 . S
H230 C221 0.930 . S
H231 C222 0.930 . S
H232 C244 0.930 . S
H233 C246 0.930 . S
H234 C247 0.930 . S
H235 C251 0.959 . S
H236 C251 0.959 . S
H237 C251 0.961 . S
H238 C252 0.960 . S
H239 C252 0.961 . S
H240 C252 0.959 . S
H241 C255 0.929 . S
H242 C256 0.931 . S
H243 C258 0.930 . S
C244 H232 0.930 . S
C244 C245 1.399 1_545 S
C244 C249 1.399 . S
C245 C244 1.399 1_565 S
C245 C246 1.376 . S
C246 H233 0.930 . S
C246 C245 1.376 . S
C246 C247 1.388 . S
C247 H234 0.930 . S
C247 C246 1.388 . S
C247 C248 1.390 . S
C248 C247 1.390 . S
C248 C249 1.394 1_565 S
C248 C254 1.465 . S
C249 C244 1.399 . S
C249 C248 1.394 1_545 S
C249 C250 1.516 . S
C250 C249 1.516 . S
C250 C251 1.502 . S
C250 C252 1.561 . S
C250 C253 1.526 . S
C251 H235 0.959 . S
C251 H236 0.959 . S
C251 H237 0.961 . S
C251 C250 1.502 . S
C252 H238 0.960 . S
C252 H239 0.961 . S
C252 H240 0.959 . S
C252 C250 1.561 . S
C253 C250 1.526 . S
C253 C254 1.396 1_545 S
C253 C258 1.390 . S
C254 C248 1.465 . S
C254 C253 1.396 1_565 S
C254 C255 1.399 . S
C255 H241 0.929 . S
C255 C254 1.399 . S
C255 C256 1.385 . S
C256 H242 0.931 . S
C256 C255 1.385 . S
C256 C257 1.389 . S
C257 C256 1.389 . S
C257 C258 1.387 1_565 S
C258 H243 0.930 . S
C258 C253 1.390 . S
C258 C257 1.387 1_545 S
H259 C271 0.930 . S
H260 C273 0.930 . S
H261 C274 0.930 . S
H262 C278 0.959 . S
H263 C278 0.959 . S
H264 C278 0.961 . S
H265 C279 0.960 . S
H266 C279 0.961 . S
H267 C279 0.959 . S
H268 C282 0.929 . S
H269 C283 0.931 . S
H270 C285 0.930 . S
C271 H259 0.930 . S
C271 C272 1.399 . S
C271 C276 1.399 . S
C272 C271 1.399 . S
C272 C273 1.376 . S
C273 H260 0.930 . S
C273 C272 1.376 . S
C273 C274 1.388 . S
C274 H261 0.930 . S
C274 C273 1.388 . S
C274 C275 1.390 . S
C275 C274 1.390 . S
C275 C276 1.394 . S
C275 C281 1.465 . S
C276 C271 1.399 . S
C276 C275 1.394 . S
C276 C277 1.516 . S
C277 C276 1.516 . S
C277 C278 1.502 . S
C277 C279 1.561 . S
C277 C280 1.526 . S
C278 H262 0.959 . S
C278 H263 0.959 . S
C278 H264 0.961 . S
C278 C277 1.502 . S
C279 H265 0.960 . S
C279 H266 0.961 . S
C279 H267 0.959 . S
C279 C277 1.561 . S
C280 C277 1.526 . S
C280 C281 1.396 . S
C280 C285 1.390 . S
C281 C275 1.465 . S
C281 C280 1.396 . S
C281 C282 1.399 . S
C282 H268 0.929 . S
C282 C281 1.399 . S
C282 C283 1.385 . S
C283 H269 0.931 . S
C283 C282 1.385 . S
C283 C284 1.389 . S
C284 C283 1.389 . S
C284 C285 1.387 . S
C285 H270 0.930 . S
C285 C280 1.390 . S
C285 C284 1.387 . S
H286 C298 0.930 . S
H287 C300 0.930 . S
H288 C301 0.930 . S
H289 C305 0.959 . S
H290 C305 0.959 . S
H291 C305 0.961 . S
H292 C306 0.960 . S
H293 C306 0.961 . S
H294 C306 0.959 . S
H295 C309 0.929 . S
H296 C310 0.931 . S
H297 C312 0.930 . S
C298 H286 0.930 . S
C298 C299 1.399 . S
C298 C303 1.399 . S
C299 C298 1.399 . S
C299 C300 1.376 . S
C300 H287 0.930 . S
C300 C299 1.376 . S
C300 C301 1.388 . S
C301 H288 0.930 . S
C301 C300 1.388 . S
C301 C302 1.390 . S
C302 C301 1.390 . S
C302 C303 1.394 . S
C302 C308 1.465 . S
C303 C298 1.399 . S
C303 C302 1.394 . S
C303 C304 1.516 . S
C304 C303 1.516 . S
C304 C305 1.502 . S
C304 C306 1.561 . S
C304 C307 1.526 . S
C305 H289 0.959 . S
C305 H290 0.959 . S
C305 H291 0.961 . S
C305 C304 1.502 . S
C306 H292 0.960 . S
C306 H293 0.961 . S
C306 H294 0.959 . S
C306 C304 1.561 . S
C307 C304 1.526 . S
C307 C308 1.396 . S
C307 C312 1.390 . S
C308 C302 1.465 . S
C308 C307 1.396 . S
C308 C309 1.399 . S
C309 H295 0.929 . S
C309 C308 1.399 . S
C309 C310 1.385 . S
C310 H296 0.931 . S
C310 C309 1.385 . S
C310 C311 1.389 . S
C311 C310 1.389 . S
C311 C312 1.387 . S
C312 H297 0.930 . S
C312 C307 1.390 . S
C312 C311 1.387 . S
H313 C325 0.930 . S
H314 C327 0.930 . S
H315 C328 0.930 . S
H316 C332 0.959 . S
H317 C332 0.959 . S
H318 C332 0.961 . S
H319 C333 0.960 1_655 S
H320 C333 0.961 1_655 S
H321 C333 0.959 . S
H322 C336 0.929 . S
H323 C337 0.931 . S
H324 C339 0.930 . S
C325 H313 0.930 . S
C325 C326 1.399 1_655 S
C325 C330 1.399 . S
C326 C325 1.399 1_455 S
C326 C327 1.376 . S
C327 H314 0.930 . S
C327 C326 1.376 . S
C327 C328 1.388 . S
C328 H315 0.930 . S
C328 C327 1.388 . S
C328 C329 1.390 . S
C329 C328 1.390 . S
C329 C330 1.394 1_455 S
C329 C335 1.465 . S
C330 C325 1.399 . S
C330 C329 1.394 1_655 S
C330 C331 1.516 . S
C331 C330 1.516 . S
C331 C332 1.502 . S
C331 C333 1.561 1_655 S
C331 C334 1.526 . S
C332 H316 0.959 . S
C332 H317 0.959 . S
C332 H318 0.961 . S
C332 C331 1.502 . S
C333 H319 0.960 1_455 S
C333 H320 0.961 1_455 S
C333 H321 0.959 . S
C333 C331 1.561 1_455 S
C334 C331 1.526 . S
C334 C335 1.396 1_655 S
C334 C339 1.390 . S
C335 C329 1.465 . S
C335 C334 1.396 1_455 S
C335 C336 1.399 . S
C336 H322 0.929 . S
C336 C335 1.399 . S
C336 C337 1.385 . S
C337 H323 0.931 . S
C337 C336 1.385 . S
C337 C338 1.389 . S
C338 C337 1.389 . S
C338 C339 1.387 1_455 S
C339 H324 0.930 . S
C339 C334 1.390 . S
C339 C338 1.387 1_655 S
H340 C352 0.930 . S
H341 C354 0.930 . S
H342 C355 0.930 . S
H343 C359 0.959 . S
H344 C359 0.959 . S
H345 C359 0.961 . S
H346 C360 0.960 . S
H347 C360 0.961 . S
H348 C360 0.959 . S
H349 C363 0.929 . S
H350 C364 0.931 . S
H351 C366 0.930 . S
C352 H340 0.930 . S
C352 C353 1.399 1_565 S
C352 C357 1.399 . S
C353 C352 1.399 1_545 S
C353 C354 1.376 . S
C354 H341 0.930 . S
C354 C353 1.376 . S
C354 C355 1.388 . S
C355 H342 0.930 . S
C355 C354 1.388 . S
C355 C356 1.390 . S
C356 C355 1.390 . S
C356 C357 1.394 1_545 S
C356 C362 1.465 . S
C357 C352 1.399 . S
C357 C356 1.394 1_565 S
C357 C358 1.516 . S
C358 C357 1.516 . S
C358 C359 1.502 . S
C358 C360 1.561 . S
C358 C361 1.526 . S
C359 H343 0.959 . S
C359 H344 0.959 . S
C359 H345 0.961 . S
C359 C358 1.502 . S
C360 H346 0.960 . S
C360 H347 0.961 . S
C360 H348 0.959 . S
C360 C358 1.561 . S
C361 C358 1.526 . S
C361 C362 1.396 1_565 S
C361 C366 1.390 1_554 S
C362 C356 1.465 . S
C362 C361 1.396 1_545 S
C362 C363 1.399 1_554 S
C363 H349 0.929 . S
C363 C362 1.399 1_556 S
C363 C364 1.385 . S
C364 H350 0.931 . S
C364 C363 1.385 . S
C364 C365 1.389 . S
C365 C364 1.389 . S
C365 C366 1.387 1_545 S
C366 H351 0.930 . S
C366 C361 1.390 1_556 S
C366 C365 1.387 1_565 S
H367 C379 0.930 . S
H368 C381 0.930 . S
H369 C382 0.930 . S
H370 C386 0.959 . S
H371 C386 0.959 . S
H372 C386 0.961 . S
H373 C387 0.960 . S
H374 C387 0.961 . S
H375 C387 0.959 . S
H376 C390 0.929 . S
H377 C391 0.931 . S
H378 C393 0.930 . S
C379 H367 0.930 . S
C379 C380 1.399 . S
C379 C384 1.399 . S
C380 C379 1.399 . S
C380 C381 1.376 . S
C381 H368 0.930 . S
C381 C380 1.376 . S
C381 C382 1.388 . S
C382 H369 0.930 . S
C382 C381 1.388 . S
C382 C383 1.390 . S
C383 C382 1.390 . S
C383 C384 1.394 . S
C383 C389 1.465 . S
C384 C379 1.399 . S
C384 C383 1.394 . S
C384 C385 1.516 . S
C385 C384 1.516 . S
C385 C386 1.502 . S
C385 C387 1.561 . S
C385 C388 1.526 . S
C386 H370 0.959 . S
C386 H371 0.959 . S
C386 H372 0.961 . S
C386 C385 1.502 . S
C387 H373 0.960 . S
C387 H374 0.961 . S
C387 H375 0.959 . S
C387 C385 1.561 . S
C388 C385 1.526 . S
C388 C389 1.396 . S
C388 C393 1.390 . S
C389 C383 1.465 . S
C389 C388 1.396 . S
C389 C390 1.399 1_554 S
C390 H376 0.929 . S
C390 C389 1.399 1_556 S
C390 C391 1.385 . S
C391 H377 0.931 . S
C391 C390 1.385 . S
C391 C392 1.389 . S
C392 C391 1.389 . S
C392 C393 1.387 1_556 S
C393 H378 0.930 . S
C393 C388 1.390 . S
C393 C392 1.387 1_554 S
H394 C406 0.930 . S
H395 C408 0.930 . S
H396 C409 0.930 . S
H397 C413 0.959 . S
H398 C413 0.959 1_556 S
H399 C413 0.961 . S
H400 C414 0.960 . S
H401 C414 0.961 . S
H402 C414 0.959 . S
H403 C417 0.929 . S
H404 C418 0.931 . S
H405 C420 0.930 . S
C406 H394 0.930 . S
C406 C407 1.399 . S
C406 C411 1.399 . S
C407 C406 1.399 . S
C407 C408 1.376 . S
C408 H395 0.930 . S
C408 C407 1.376 . S
C408 C409 1.388 . S
C409 H396 0.930 . S
C409 C408 1.388 . S
C409 C410 1.390 . S
C410 C409 1.390 . S
C410 C411 1.394 . S
C410 C416 1.465 . S
C411 C406 1.399 . S
C411 C410 1.394 . S
C411 C412 1.516 . S
C412 C411 1.516 . S
C412 C413 1.502 . S
C412 C414 1.561 . S
C412 C415 1.526 . S
C413 H397 0.959 . S
C413 H398 0.959 1_554 S
C413 H399 0.961 . S
C413 C412 1.502 . S
C414 H400 0.960 . S
C414 H401 0.961 . S
C414 H402 0.959 . S
C414 C412 1.561 . S
C415 C412 1.526 . S
C415 C416 1.396 . S
C415 C420 1.390 1_554 S
C416 C410 1.465 . S
C416 C415 1.396 . S
C416 C417 1.399 . S
C417 H403 0.929 . S
C417 C416 1.399 . S
C417 C418 1.385 1_554 S
C418 H404 0.931 . S
C418 C417 1.385 1_556 S
C418 C419 1.389 . S
C419 C418 1.389 . S
C419 C420 1.387 . S
C420 H405 0.930 . S
C420 C415 1.390 1_556 S
C420 C419 1.387 . S
H421 C433 0.930 . S
H422 C435 0.930 . S
H423 C436 0.930 . S
H424 C440 0.959 . S
H425 C440 0.959 . S
H426 C440 0.961 . S
H427 C441 0.960 . S
H428 C441 0.961 . S
H429 C441 0.959 . S
H430 C444 0.929 . S
H431 C445 0.931 . S
H432 C447 0.930 . S
C433 H421 0.930 . S
C433 C434 1.399 1_455 S
C433 C438 1.399 . S
C434 C433 1.399 1_655 S
C434 C435 1.376 . S
C435 H422 0.930 . S
C435 C434 1.376 . S
C435 C436 1.388 . S
C436 H423 0.930 . S
C436 C435 1.388 . S
C436 C437 1.390 . S
C437 C436 1.390 . S
C437 C438 1.394 1_655 S
C437 C443 1.465 . S
C438 C433 1.399 . S
C438 C437 1.394 1_455 S
C438 C439 1.516 . S
C439 C438 1.516 . S
C439 C440 1.502 . S
C439 C441 1.561 . S
C439 C442 1.526 . S
C440 H424 0.959 . S
C440 H425 0.959 . S
C440 H426 0.961 . S
C440 C439 1.502 . S
C441 H427 0.960 . S
C441 H428 0.961 . S
C441 H429 0.959 . S
C441 C439 1.561 . S
C442 C439 1.526 . S
C442 C443 1.396 1_455 S
C442 C447 1.390 1_554 S
C443 C437 1.465 . S
C443 C442 1.396 1_655 S
C443 C444 1.399 . S
C444 H430 0.929 . S
C444 C443 1.399 . S
C444 C445 1.385 1_554 S
C445 H431 0.931 . S
C445 C444 1.385 1_556 S
C445 C446 1.389 . S
C446 C445 1.389 . S
C446 C447 1.387 1_655 S
C447 H432 0.930 . S
C447 C442 1.390 1_556 S
C447 C446 1.387 1_455 S
H448 C460 0.930 . S
H449 C462 0.930 . S
H450 C463 0.930 . S
H451 C467 0.959 . S
H452 C467 0.959 . S
H453 C467 0.961 . S
H454 C468 0.960 . S
H455 C468 0.961 . S
H456 C468 0.959 . S
H457 C471 0.929 . S
H458 C472 0.931 . S
H459 C474 0.930 . S
C460 H448 0.930 . S
C460 C461 1.399 1_655 S
C460 C465 1.399 . S
C461 C460 1.399 1_455 S
C461 C462 1.376 . S
C462 H449 0.930 . S
C462 C461 1.376 . S
C462 C463 1.388 . S
C463 H450 0.930 . S
C463 C462 1.388 . S
C463 C464 1.390 1_455 S
C464 C463 1.390 1_655 S
C464 C465 1.394 . S
C464 C470 1.465 . S
C465 C460 1.399 . S
C465 C464 1.394 . S
C465 C466 1.516 . S
C466 C465 1.516 . S
C466 C467 1.502 . S
C466 C468 1.561 . S
C466 C469 1.526 . S
C467 H451 0.959 . S
C467 H452 0.959 . S
C467 H453 0.961 . S
C467 C466 1.502 . S
C468 H454 0.960 . S
C468 H455 0.961 . S
C468 H456 0.959 . S
C468 C466 1.561 . S
C469 C466 1.526 . S
C469 C470 1.396 . S
C469 C474 1.390 . S
C470 C464 1.465 . S
C470 C469 1.396 . S
C470 C471 1.399 1_655 S
C471 H457 0.929 . S
C471 C470 1.399 1_455 S
C471 C472 1.385 1_455 S
C472 H458 0.931 . S
C472 C471 1.385 1_655 S
C472 C473 1.389 . S
C473 C472 1.389 . S
C473 C474 1.387 . S
C474 H459 0.930 . S
C474 C469 1.390 . S
C474 C473 1.387 . S
H475 C487 0.930 . S
H476 C489 0.930 . S
H477 C490 0.930 . S
H478 C494 0.959 . S
H479 C494 0.959 . S
H480 C494 0.961 1_545 S
H481 C495 0.960 . S
H482 C495 0.961 . S
H483 C495 0.959 . S
H484 C498 0.929 . S
H485 C499 0.931 . S
H486 C501 0.930 . S
C487 H475 0.930 . S
C487 C488 1.399 . S
C487 C492 1.399 1_545 S
C488 C487 1.399 . S
C488 C489 1.376 1_545 S
C489 H476 0.930 . S
C489 C488 1.376 1_565 S
C489 C490 1.388 . S
C490 H477 0.930 . S
C490 C489 1.388 . S
C490 C491 1.390 . S
C491 C490 1.390 . S
C491 C492 1.394 . S
C491 C497 1.465 . S
C492 C487 1.399 1_565 S
C492 C491 1.394 . S
C492 C493 1.518 . S
C493 C492 1.518 . S
C493 C494 1.505 . S
C493 C495 1.547 1_565 S
C493 C496 1.534 . S
C494 H478 0.959 . S
C494 H479 0.959 . S
C494 H480 0.961 1_565 S
C494 C493 1.505 . S
C495 H481 0.960 . S
C495 H482 0.961 . S
C495 H483 0.959 . S
C495 C493 1.547 1_545 S
C496 C493 1.534 . S
C496 C497 1.396 . S
C496 C501 1.390 . S
C497 C491 1.465 . S
C497 C496 1.396 . S
C497 C498 1.399 . S
C498 H484 0.929 . S
C498 C497 1.399 . S
C498 C499 1.385 . S
C499 H485 0.931 . S
C499 C498 1.385 . S
C499 C500 1.389 . S
C500 C499 1.389 . S
C500 C501 1.387 . S
C501 H486 0.930 . S
C501 C496 1.390 . S
C501 C500 1.387 . S
H502 C514 0.930 . S
H503 C516 0.930 . S
H504 C517 0.930 . S
H505 C521 0.959 . S
H506 C521 0.959 . S
H507 C521 0.961 . S
H508 C522 0.960 . S
H509 C522 0.961 . S
H510 C522 0.959 . S
H511 C525 0.929 . S
H512 C526 0.931 . S
H513 C528 0.930 . S
C514 H502 0.930 . S
C514 C515 1.399 . S
C514 C519 1.399 . S
C515 C514 1.399 . S
C515 C516 1.376 . S
C516 H503 0.930 . S
C516 C515 1.376 . S
C516 C517 1.388 . S
C517 H504 0.930 . S
C517 C516 1.388 . S
C517 C518 1.390 . S
C518 C517 1.390 . S
C518 C519 1.394 . S
C518 C524 1.465 . S
C519 C514 1.399 . S
C519 C518 1.394 . S
C519 C520 1.516 . S
C520 C519 1.516 . S
C520 C521 1.502 . S
C520 C522 1.561 . S
C520 C523 1.526 . S
C521 H505 0.959 . S
C521 H506 0.959 . S
C521 H507 0.961 . S
C521 C520 1.502 . S
C522 H508 0.960 . S
C522 H509 0.961 . S
C522 H510 0.959 . S
C522 C520 1.561 . S
C523 C520 1.526 . S
C523 C524 1.396 . S
C523 C528 1.390 . S
C524 C518 1.465 . S
C524 C523 1.396 . S
C524 C525 1.399 . S
C525 H511 0.929 . S
C525 C524 1.399 . S
C525 C526 1.385 . S
C526 H512 0.931 . S
C526 C525 1.385 . S
C526 C527 1.389 . S
C527 C526 1.389 . S
C527 C528 1.387 . S
C528 H513 0.930 . S
C528 C523 1.390 . S
C528 C527 1.387 . S
H529 C541 0.930 . S
H530 C543 0.930 . S
H531 C544 0.930 . S
H532 C548 0.959 . S
H533 C548 0.959 . S
H534 C548 0.961 . S
H535 C549 0.960 . S
H536 C549 0.961 . S
H537 C549 0.959 . S
H538 C552 0.929 . S
H539 C553 0.931 . S
H540 C555 0.930 . S
C541 H529 0.930 . S
C541 C542 1.399 . S
C541 C546 1.399 . S
C542 C541 1.399 . S
C542 C543 1.376 . S
C543 H530 0.930 . S
C543 C542 1.376 . S
C543 C544 1.388 . S
C544 H531 0.930 . S
C544 C543 1.388 . S
C544 C545 1.390 . S
C545 C544 1.390 . S
C545 C546 1.394 . S
C545 C551 1.465 . S
C546 C541 1.399 . S
C546 C545 1.394 . S
C546 C547 1.516 . S
C547 C546 1.516 . S
C547 C548 1.502 . S
C547 C549 1.561 . S
C547 C550 1.526 . S
C548 H532 0.959 . S
C548 H533 0.959 . S
C548 H534 0.961 . S
C548 C547 1.502 . S
C549 H535 0.960 . S
C549 H536 0.961 . S
C549 H537 0.959 . S
C549 C547 1.561 . S
C550 C547 1.526 . S
C550 C551 1.396 . S
C550 C555 1.390 . S
C551 C545 1.465 . S
C551 C550 1.396 . S
C551 C552 1.399 . S
C552 H538 0.929 . S
C552 C551 1.399 . S
C552 C553 1.385 . S
C553 H539 0.931 . S
C553 C552 1.385 . S
C553 C554 1.389 . S
C554 C553 1.389 . S
C554 C555 1.387 . S
C555 H540 0.930 . S
C555 C550 1.390 . S
C555 C554 1.387 . S
H556 C568 0.930 . S
H557 C570 0.930 . S
H558 C571 0.930 . S
H559 C575 0.959 . S
H560 C575 0.959 . S
H561 C575 0.961 . S
H562 C576 0.960 1_655 S
H563 C576 0.961 1_556 S
H564 C576 0.959 1_655 S
H565 C579 0.929 . S
H566 C580 0.931 . S
H567 C582 0.930 1_556 S
C568 H556 0.930 . S
C568 C569 1.399 1_455 S
C568 C573 1.399 . S
C569 C568 1.399 1_655 S
C569 C570 1.376 . S
C570 H557 0.930 . S
C570 C569 1.376 . S
C570 C571 1.388 . S
C571 H558 0.930 . S
C571 C570 1.388 . S
C571 C572 1.390 1_655 S
C572 C571 1.390 1_455 S
C572 C573 1.394 . S
C572 C578 1.465 . S
C573 C568 1.399 . S
C573 C572 1.394 . S
C573 C574 1.516 . S
C574 C573 1.516 . S
C574 C575 1.502 . S
C574 C576 1.561 . S
C574 C577 1.526 . S
C575 H559 0.959 . S
C575 H560 0.959 . S
C575 H561 0.961 . S
C575 C574 1.502 . S
C576 H562 0.960 1_455 S
C576 H563 0.961 1_554 S
C576 H564 0.959 1_455 S
C576 C574 1.561 . S
C577 C574 1.526 . S
C577 C578 1.396 . S
C577 C582 1.390 . S
C578 C572 1.465 . S
C578 C577 1.396 . S
C578 C579 1.399 . S
C579 H565 0.929 . S
C579 C578 1.399 . S
C579 C580 1.385 . S
C580 H566 0.931 . S
C580 C579 1.385 . S
C580 C581 1.389 . S
C581 C580 1.389 . S
C581 C582 1.387 . S
C582 H567 0.930 1_554 S
C582 C577 1.390 . S
C582 C581 1.387 . S
H583 C595 0.930 . S
H584 C597 0.930 . S
H585 C598 0.930 . S
H586 C602 0.959 . S
H587 C602 0.959 . S
H588 C602 0.961 . S
H589 C603 0.960 . S
H590 C603 0.961 . S
H591 C603 0.959 . S
H592 C606 0.929 1_565 S
H593 C607 0.931 1_556 S
H594 C609 0.930 . S
C595 H583 0.930 . S
C595 C596 1.399 1_545 S
C595 C600 1.399 . S
C596 C595 1.399 1_565 S
C596 C597 1.376 . S
C597 H584 0.930 . S
C597 C596 1.376 . S
C597 C598 1.388 . S
C598 H585 0.930 . S
C598 C597 1.388 . S
C598 C599 1.390 1_565 S
C599 C598 1.390 1_545 S
C599 C600 1.394 . S
C599 C605 1.465 . S
C600 C595 1.399 . S
C600 C599 1.394 . S
C600 C601 1.516 . S
C601 C600 1.516 . S
C601 C602 1.502 . S
C601 C603 1.561 . S
C601 C604 1.526 . S
C602 H586 0.959 . S
C602 H587 0.959 . S
C602 H588 0.961 . S
C602 C601 1.502 . S
C603 H589 0.960 . S
C603 H590 0.961 . S
C603 H591 0.959 . S
C603 C601 1.561 . S
C604 C601 1.526 . S
C604 C605 1.396 . S
C604 C609 1.390 . S
C605 C599 1.465 . S
C605 C604 1.396 . S
C605 C606 1.399 . S
C606 H592 0.929 1_545 S
C606 C605 1.399 . S
C606 C607 1.385 . S
C607 H593 0.931 1_554 S
C607 C606 1.385 . S
C607 C608 1.389 . S
C608 C607 1.389 . S
C608 C609 1.387 . S
C609 H594 0.930 . S
C609 C604 1.390 . S
C609 C608 1.387 . S
H610 C622 0.930 . S
H611 C624 0.930 . S
H612 C625 0.930 . S
H613 C629 0.959 . S
H614 C629 0.959 . S
H615 C629 0.961 . S
H616 C630 0.960 . S
H617 C630 0.961 . S
H618 C630 0.959 . S
H619 C633 0.929 . S
H620 C634 0.931 1_556 S
H621 C636 0.930 . S
C622 H610 0.930 . S
C622 C623 1.399 . S
C622 C627 1.399 . S
C623 C622 1.399 . S
C623 C624 1.376 . S
C624 H611 0.930 . S
C624 C623 1.376 . S
C624 C625 1.388 . S
C625 H612 0.930 . S
C625 C624 1.388 . S
C625 C626 1.390 . S
C626 C625 1.390 . S
C626 C627 1.394 . S
C626 C632 1.465 . S
C627 C622 1.399 . S
C627 C626 1.394 . S
C627 C628 1.516 . S
C628 C627 1.516 . S
C628 C629 1.502 . S
C628 C630 1.561 . S
C628 C631 1.526 . S
C629 H613 0.959 . S
C629 H614 0.959 . S
C629 H615 0.961 . S
C629 C628 1.502 . S
C630 H616 0.960 . S
C630 H617 0.961 . S
C630 H618 0.959 . S
C630 C628 1.561 . S
C631 C628 1.526 . S
C631 C632 1.396 . S
C631 C636 1.390 . S
C632 C626 1.465 . S
C632 C631 1.396 . S
C632 C633 1.399 . S
C633 H619 0.929 . S
C633 C632 1.399 . S
C633 C634 1.385 . S
C634 H620 0.931 1_554 S
C634 C633 1.385 . S
C634 C635 1.389 . S
C635 C634 1.389 . S
C635 C636 1.387 . S
C636 H621 0.930 . S
C636 C631 1.390 . S
C636 C635 1.387 . S
H637 C649 0.930 . S
H638 C651 0.930 . S
H639 C652 0.930 . S
H640 C656 0.959 . S
H641 C656 0.959 . S
H642 C656 0.961 . S
H643 C657 0.960 . S
H644 C657 0.961 . S
H645 C657 0.959 . S
H646 C660 0.929 . S
H647 C661 0.931 . S
H648 C663 0.930 . S
C649 H637 0.930 . S
C649 C650 1.399 . S
C649 C654 1.399 . S
C650 C649 1.399 . S
C650 C651 1.376 . S
C651 H638 0.930 . S
C651 C650 1.376 . S
C651 C652 1.388 . S
C652 H639 0.930 . S
C652 C651 1.388 . S
C652 C653 1.390 . S
C653 C652 1.390 . S
C653 C654 1.394 . S
C653 C659 1.465 . S
C654 C649 1.399 . S
C654 C653 1.394 . S
C654 C655 1.516 . S
C655 C654 1.516 . S
C655 C656 1.502 . S
C655 C657 1.561 . S
C655 C658 1.526 . S
C656 H640 0.959 . S
C656 H641 0.959 . S
C656 H642 0.961 . S
C656 C655 1.502 . S
C657 H643 0.960 . S
C657 H644 0.961 . S
C657 H645 0.959 . S
C657 C655 1.561 . S
C658 C655 1.526 . S
C658 C659 1.396 . S
C658 C663 1.390 . S
C659 C653 1.465 . S
C659 C658 1.396 . S
C659 C660 1.399 . S
C660 H646 0.929 . S
C660 C659 1.399 . S
C660 C661 1.385 . S
C661 H647 0.931 . S
C661 C660 1.385 . S
C661 C662 1.389 . S
C662 C661 1.389 . S
C662 C663 1.387 . S
C663 H648 0.930 . S
C663 C658 1.390 . S
C663 C662 1.387 . S
H664 C676 0.930 . S
H665 C678 0.930 1_554 S
H666 C679 0.930 1_554 S
H667 C683 0.959 . S
H668 C683 0.959 . S
H669 C683 0.961 . S
H670 C684 0.960 . S
H671 C684 0.961 . S
H672 C684 0.959 . S
H673 C687 0.929 . S
H674 C688 0.931 . S
H675 C690 0.919 1_655 S
C676 H664 0.930 . S
C676 C677 1.399 1_655 S
C676 C681 1.399 1_655 S
C677 C676 1.399 1_455 S
C677 C678 1.376 . S
C678 H665 0.930 1_556 S
C678 C677 1.376 . S
C678 C679 1.388 . S
C679 H666 0.930 1_556 S
C679 C678 1.388 . S
C679 C680 1.390 . S
C680 C679 1.390 . S
C680 C681 1.394 . S
C680 C686 1.465 . S
C681 C676 1.399 1_455 S
C681 C680 1.394 . S
C681 C682 1.512 1_455 S
C682 C681 1.512 1_655 S
C682 C683 1.538 . S
C682 C684 1.535 1_655 S
C682 C685 1.517 1_655 S
C683 H667 0.959 . S
C683 H668 0.959 . S
C683 H669 0.961 . S
C683 C682 1.538 . S
C684 H670 0.960 . S
C684 H671 0.961 . S
C684 H672 0.959 . S
C684 C682 1.535 1_455 S
C685 C682 1.517 1_455 S
C685 C686 1.396 . S
C685 C690 1.390 . S
C686 C680 1.465 . S
C686 C685 1.396 . S
C686 C687 1.399 . S
C687 H673 0.929 . S
C687 C686 1.399 . S
C687 C688 1.385 . S
C688 H674 0.931 . S
C688 C687 1.385 . S
C688 C689 1.389 . S
C689 C688 1.389 . S
C689 C690 1.387 . S
C690 H675 0.919 1_455 S
C690 C685 1.390 . S
C690 C689 1.387 . S
H691 C703 0.930 . S
H692 C705 0.930 . S
H693 C706 0.930 . S
H694 C710 0.959 . S
H695 C710 0.959 . S
H696 C710 0.961 . S
H697 C711 0.960 . S
H698 C711 0.961 . S
H699 C711 0.959 . S
H700 C714 0.929 . S
H701 C715 0.931 . S
H702 C717 0.930 . S
C703 H691 0.930 . S
C703 C704 1.399 1_565 S
C703 C708 1.399 . S
C704 C703 1.399 1_545 S
C704 C705 1.376 . S
C705 H692 0.930 . S
C705 C704 1.376 . S
C705 C706 1.388 . S
C706 H693 0.930 . S
C706 C705 1.388 . S
C706 C707 1.390 . S
C707 C706 1.390 . S
C707 C708 1.394 1_545 S
C707 C713 1.465 . S
C708 C703 1.399 . S
C708 C707 1.394 1_565 S
C708 C709 1.516 . S
C709 C708 1.516 . S
C709 C710 1.502 . S
C709 C711 1.561 . S
C709 C712 1.526 . S
C710 H694 0.959 . S
C710 H695 0.959 . S
C710 H696 0.961 . S
C710 C709 1.502 . S
C711 H697 0.960 . S
C711 H698 0.961 . S
C711 H699 0.959 . S
C711 C709 1.561 . S
C712 C709 1.526 . S
C712 C713 1.396 1_565 S
C712 C717 1.390 . S
C713 C707 1.465 . S
C713 C712 1.396 1_545 S
C713 C714 1.399 . S
C714 H700 0.929 . S
C714 C713 1.399 . S
C714 C715 1.385 . S
C715 H701 0.931 . S
C715 C714 1.385 . S
C715 C716 1.389 . S
C716 C715 1.389 . S
C716 C717 1.387 1_545 S
C717 H702 0.930 . S
C717 C712 1.390 . S
C717 C716 1.387 1_565 S
H718 C730 0.930 . S
H719 C732 0.930 1_554 S
H720 C733 0.930 1_554 S
H721 C737 0.959 . S
H722 C737 0.959 . S
H723 C737 0.961 . S
H724 C738 0.960 . S
H725 C738 0.961 . S
H726 C738 0.959 . S
H727 C741 0.929 . S
H728 C742 0.931 . S
H729 C744 0.930 . S
C730 H718 0.930 . S
C730 C731 1.399 . S
C730 C735 1.399 . S
C731 C730 1.399 . S
C731 C732 1.376 . S
C732 H719 0.930 1_556 S
C732 C731 1.376 . S
C732 C733 1.388 . S
C733 H720 0.930 1_556 S
C733 C732 1.388 . S
C733 C734 1.390 . S
C734 C733 1.390 . S
C734 C735 1.394 . S
C734 C740 1.465 . S
C735 C730 1.399 . S
C735 C734 1.394 . S
C735 C736 1.516 . S
C736 C735 1.516 . S
C736 C737 1.502 . S
C736 C738 1.561 . S
C736 C739 1.526 . S
C737 H721 0.959 . S
C737 H722 0.959 . S
C737 H723 0.961 . S
C737 C736 1.502 . S
C738 H724 0.960 . S
C738 H725 0.961 . S
C738 H726 0.959 . S
C738 C736 1.561 . S
C739 C736 1.526 . S
C739 C740 1.396 . S
C739 C744 1.390 . S
C740 C734 1.465 . S
C740 C739 1.396 . S
C740 C741 1.399 . S
C741 H727 0.929 . S
C741 C740 1.399 . S
C741 C742 1.385 . S
C742 H728 0.931 . S
C742 C741 1.385 . S
C742 C743 1.389 . S
C743 C742 1.389 . S
C743 C744 1.387 . S
C744 H729 0.930 . S
C744 C739 1.390 . S
C744 C743 1.387 . S
H745 C757 0.930 . S
H746 C759 0.930 . S
H747 C760 0.930 . S
H748 C764 0.959 . S
H749 C764 0.959 . S
H750 C764 0.961 . S
H751 C765 0.960 . S
H752 C765 0.961 . S
H753 C765 0.959 . S
H754 C768 0.929 . S
H755 C769 0.931 . S
H756 C771 0.930 . S
C757 H745 0.930 . S
C757 C758 1.399 . S
C757 C762 1.399 . S
C758 C757 1.399 . S
C758 C759 1.376 . S
C759 H746 0.930 . S
C759 C758 1.376 . S
C759 C760 1.388 . S
C760 H747 0.930 . S
C760 C759 1.388 . S
C760 C761 1.390 . S
C761 C760 1.390 . S
C761 C762 1.394 . S
C761 C767 1.465 . S
C762 C757 1.399 . S
C762 C761 1.394 . S
C762 C763 1.516 . S
C763 C762 1.516 . S
C763 C764 1.502 . S
C763 C765 1.561 . S
C763 C766 1.526 . S
C764 H748 0.959 . S
C764 H749 0.959 . S
C764 H750 0.961 . S
C764 C763 1.502 . S
C765 H751 0.960 . S
C765 H752 0.961 . S
C765 H753 0.959 . S
C765 C763 1.561 . S
C766 C763 1.526 . S
C766 C767 1.396 . S
C766 C771 1.390 . S
C767 C761 1.465 . S
C767 C766 1.396 . S
C767 C768 1.399 . S
C768 H754 0.929 . S
C768 C767 1.399 . S
C768 C769 1.385 . S
C769 H755 0.931 . S
C769 C768 1.385 . S
C769 C770 1.389 . S
C770 C769 1.389 . S
C770 C771 1.387 . S
C771 H756 0.930 . S
C771 C766 1.390 . S
C771 C770 1.387 . S
H772 C784 0.930 . S
H773 C786 0.930 . S
H774 C787 0.930 . S
H775 C791 0.959 . S
H776 C791 0.959 . S
H777 C791 0.961 . S
H778 C792 0.960 . S
H779 C792 0.961 . S
H780 C792 0.959 . S
H781 C795 0.929 . S
H782 C796 0.936 . S
H783 C798 0.930 . S
C784 H772 0.930 . S
C784 C785 1.401 . S
C784 C789 1.399 . S
C785 C784 1.401 . S
C785 C786 1.374 1_655 S
C786 H773 0.930 . S
C786 C785 1.374 1_455 S
C786 C787 1.388 . S
C787 H774 0.930 . S
C787 C786 1.388 . S
C787 C788 1.394 . S
C788 C787 1.394 . S
C788 C789 1.390 1_455 S
C788 C794 1.464 1_455 S
C789 C784 1.399 . S
C789 C788 1.390 1_655 S
C789 C790 1.516 . S
C790 C789 1.516 . S
C790 C791 1.502 . S
C790 C792 1.561 1_655 S
C790 C793 1.526 . S
C791 H775 0.959 . S
C791 H776 0.959 . S
C791 H777 0.961 . S
C791 C790 1.502 . S
C792 H778 0.960 . S
C792 H779 0.961 . S
C792 H780 0.959 . S
C792 C790 1.561 1_455 S
C793 C790 1.526 . S
C793 C794 1.396 . S
C793 C798 1.390 . S
C794 C788 1.464 1_655 S
C794 C793 1.396 . S
C794 C795 1.399 1_655 S
C795 H781 0.929 . S
C795 C794 1.399 1_455 S
C795 C796 1.385 1_455 S
C796 H782 0.936 . S
C796 C795 1.385 1_655 S
C796 C797 1.389 . S
C797 C796 1.389 . S
C797 C798 1.387 . S
C798 H783 0.930 . S
C798 C793 1.390 . S
C798 C797 1.387 . S
H799 C811 0.930 . S
H800 C813 0.930 . S
H801 C814 0.930 . S
H802 C818 0.959 . S
H803 C818 0.959 . S
H804 C818 0.961 . S
H805 C819 0.960 . S
H806 C819 0.961 . S
H807 C819 0.959 . S
H808 C822 0.929 . S
H809 C823 0.931 . S
H810 C825 0.930 . S
C811 H799 0.930 . S
C811 C812 1.401 1_565 S
C811 C816 1.399 . S
C812 C811 1.401 1_545 S
C812 C813 1.375 . S
C813 H800 0.930 . S
C813 C812 1.375 . S
C813 C814 1.388 . S
C814 H801 0.930 . S
C814 C813 1.388 . S
C814 C815 1.390 . S
C815 C814 1.390 . S
C815 C816 1.394 1_545 S
C815 C821 1.465 . S
C816 C811 1.399 . S
C816 C815 1.394 1_565 S
C816 C817 1.516 . S
C817 C816 1.516 . S
C817 C818 1.502 . S
C817 C819 1.561 . S
C817 C820 1.526 . S
C818 H802 0.959 . S
C818 H803 0.959 . S
C818 H804 0.961 . S
C818 C817 1.502 . S
C819 H805 0.960 . S
C819 H806 0.961 . S
C819 H807 0.959 . S
C819 C817 1.561 . S
C820 C817 1.526 . S
C820 C821 1.396 1_565 S
C820 C825 1.390 . S
C821 C815 1.465 . S
C821 C820 1.396 1_545 S
C821 C822 1.399 . S
C822 H808 0.929 . S
C822 C821 1.399 . S
C822 C823 1.385 . S
C823 H809 0.931 . S
C823 C822 1.385 . S
C823 C824 1.389 1_545 S
C824 C823 1.389 1_565 S
C824 C825 1.387 . S
C825 H810 0.930 . S
C825 C820 1.390 . S
C825 C824 1.387 . S
H826 C838 0.930 . S
H827 C840 0.930 . S
H828 C841 0.930 . S
H829 C845 0.959 . S
H830 C845 0.959 . S
H831 C845 0.961 . S
H832 C846 0.960 . S
H833 C846 0.961 . S
H834 C846 0.959 . S
H835 C849 0.929 . S
H836 C850 0.931 . S
H837 C852 0.930 . S
C838 H826 0.930 . S
C838 C839 1.399 . S
C838 C843 1.399 . S
C839 C838 1.399 . S
C839 C840 1.376 . S
C840 H827 0.930 . S
C840 C839 1.376 . S
C840 C841 1.388 . S
C841 H828 0.930 . S
C841 C840 1.388 . S
C841 C842 1.390 . S
C842 C841 1.390 . S
C842 C843 1.394 . S
C842 C848 1.465 . S
C843 C838 1.399 . S
C843 C842 1.394 . S
C843 C844 1.516 . S
C844 C843 1.516 . S
C844 C845 1.502 . S
C844 C846 1.561 . S
C844 C847 1.526 . S
C845 H829 0.959 . S
C845 H830 0.959 . S
C845 H831 0.961 . S
C845 C844 1.502 . S
C846 H832 0.960 . S
C846 H833 0.961 . S
C846 H834 0.959 . S
C846 C844 1.561 . S
C847 C844 1.526 . S
C847 C848 1.396 . S
C847 C852 1.390 . S
C848 C842 1.465 . S
C848 C847 1.396 . S
C848 C849 1.399 . S
C849 H835 0.929 . S
C849 C848 1.399 . S
C849 C850 1.385 . S
C850 H836 0.931 . S
C850 C849 1.385 . S
C850 C851 1.389 . S
C851 C850 1.389 . S
C851 C852 1.387 . S
C852 H837 0.930 . S
C852 C847 1.390 . S
C852 C851 1.387 . S
H853 C865 0.930 . S
H854 C867 0.930 . S
H855 C868 0.930 . S
H856 C872 0.959 . S
H857 C872 0.959 . S
H858 C872 0.961 . S
H859 C873 0.960 . S
H860 C873 0.961 . S
H861 C873 0.959 . S
H862 C876 0.929 . S
H863 C877 0.931 . S
H864 C879 0.930 . S
C865 H853 0.930 . S
C865 C866 1.399 . S
C865 C870 1.399 . S
C866 C865 1.399 . S
C866 C867 1.376 . S
C867 H854 0.930 . S
C867 C866 1.376 . S
C867 C868 1.388 . S
C868 H855 0.930 . S
C868 C867 1.388 . S
C868 C869 1.390 . S
C869 C868 1.390 . S
C869 C870 1.394 . S
C869 C875 1.465 . S
C870 C865 1.399 . S
C870 C869 1.394 . S
C870 C871 1.516 . S
C871 C870 1.516 . S
C871 C872 1.502 . S
C871 C873 1.561 . S
C871 C874 1.526 . S
C872 H856 0.959 . S
C872 H857 0.959 . S
C872 H858 0.961 . S
C872 C871 1.502 . S
C873 H859 0.960 . S
C873 H860 0.961 . S
C873 H861 0.959 . S
C873 C871 1.561 . S
C874 C871 1.526 . S
C874 C875 1.396 . S
C874 C879 1.390 . S
C875 C869 1.465 . S
C875 C874 1.396 . S
C875 C876 1.399 . S
C876 H862 0.929 . S
C876 C875 1.399 . S
C876 C877 1.385 . S
C877 H863 0.931 . S
C877 C876 1.385 . S
C877 C878 1.389 . S
C878 C877 1.389 . S
C878 C879 1.387 . S
C879 H864 0.930 . S
C879 C874 1.390 . S
C879 C878 1.387 . S
C245 C61 1.828 . S
C257 C74 1.931 . S
C284 C114 1.965 . S
C272 C70 1.852 . S
C311 C154 1.981 . S
C299 C43 1.795 . S
C338 C194 1.961 1_455 S
C326 C52 1.836 1_455 S
C365 C87 1.936 . S
C353 C25 1.763 1_545 S
C380 C34 1.792 . S
C392 C127 1.968 . S
C407 C7 1.868 . S
C419 C167 1.974 . S
C434 C16 1.820 . S
C446 C207 1.966 1_655 S
C473 C98 0.380 . S
C461 C50 0.517 1_455 S
C500 C138 0.552 . S
C488 C59 0.493 1_545 S
C527 C178 0.497 . S
C515 C67 0.390 . S
C542 C41 0.390 . S
C554 C218 0.548 . S
C569 C14 0.481 . S
C581 C81 0.398 . S
C608 C121 0.466 . S
C596 C23 0.518 . S
C635 C161 0.543 . S
C623 C31 0.454 . S
C650 C5 0.387 . S
C662 C201 0.514 . S
C677 C49 2.004 1_455 S
C689 C75 2.298 . S
C704 C58 2.011 1_545 S
C716 C115 2.254 . S
C743 C155 2.234 . S
C731 C68 1.936 . S
C770 C195 2.283 . S
C758 C40 1.999 . S
C785 C13 2.002 . S
C797 C94 2.297 . S
C824 C134 2.232 . S
C812 C22 2.025 1_545 S
C851 C174 2.221 . S
C839 C32 1.935 . S
C866 C4 1.999 . S
C878 C214 2.268 . S
