# Generated by pormake.
# Topology pto, (3,4)-cn, num edge types: 1
# Building blocks:
#     Node 0, Type 0, BuildingBlock: WUSLED_clean_sbu_0, # of connection points: 3
#     Node 1, Type 0, BuildingBlock: WUSLED_clean_sbu_0, # of connection points: 3
#     Node 2, Type 0, BuildingBlock: WUSLED_clean_sbu_0, # of connection points: 3
#     Node 3, Type 0, BuildingBlock: WUSLED_clean_sbu_0, # of connection points: 3
#     Node 4, Type 0, BuildingBlock: WUSLED_clean_sbu_0, # of connection points: 3
#     Node 5, Type 0, BuildingBlock: WUSLED_clean_sbu_0, # of connection points: 3
#     Node 6, Type 0, BuildingBlock: WUSLED_clean_sbu_0, # of connection points: 3
#     Node 7, Type 0, BuildingBlock: WUSLED_clean_sbu_0, # of connection points: 3
#     Node 8, Type 1, BuildingBlock: MIFKUJ_clean_linker_1, # of connection points: 4
#     Node 9, Type 1, BuildingBlock: MIFKUJ_clean_linker_1, # of connection points: 4
#     Node 10, Type 1, BuildingBlock: MIFKUJ_clean_linker_1, # of connection points: 4
#     Node 11, Type 1, BuildingBlock: MIFKUJ_clean_linker_1, # of connection points: 4
#     Node 12, Type 1, BuildingBlock: MIFKUJ_clean_linker_1, # of connection points: 4
#     Node 13, Type 1, BuildingBlock: MIFKUJ_clean_linker_1, # of connection points: 4
#     Edge 14, Type (0, 1), BuildingBlock: MIFKUJ_clean_linker_0, # of connection points: 2
#     Edge 15, Type (0, 1), BuildingBlock: MIFKUJ_clean_linker_0, # of connection points: 2
#     Edge 16, Type (0, 1), BuildingBlock: MIFKUJ_clean_linker_0, # of connection points: 2
#     Edge 17, Type (0, 1), BuildingBlock: MIFKUJ_clean_linker_0, # of connection points: 2
#     Edge 18, Type (0, 1), BuildingBlock: MIFKUJ_clean_linker_0, # of connection points: 2
#     Edge 19, Type (0, 1), BuildingBlock: MIFKUJ_clean_linker_0, # of connection points: 2
#     Edge 20, Type (0, 1), BuildingBlock: MIFKUJ_clean_linker_0, # of connection points: 2
#     Edge 21, Type (0, 1), BuildingBlock: MIFKUJ_clean_linker_0, # of connection points: 2
#     Edge 22, Type (0, 1), BuildingBlock: MIFKUJ_clean_linker_0, # of connection points: 2
#     Edge 23, Type (0, 1), BuildingBlock: MIFKUJ_clean_linker_0, # of connection points: 2
#     Edge 24, Type (0, 1), BuildingBlock: MIFKUJ_clean_linker_0, # of connection points: 2
#     Edge 25, Type (0, 1), BuildingBlock: MIFKUJ_clean_linker_0, # of connection points: 2
#     Edge 26, Type (0, 1), BuildingBlock: MIFKUJ_clean_linker_0, # of connection points: 2
#     Edge 27, Type (0, 1), BuildingBlock: MIFKUJ_clean_linker_0, # of connection points: 2
#     Edge 28, Type (0, 1), BuildingBlock: MIFKUJ_clean_linker_0, # of connection points: 2
#     Edge 29, Type (0, 1), BuildingBlock: MIFKUJ_clean_linker_0, # of connection points: 2
#     Edge 30, Type (0, 1), BuildingBlock: MIFKUJ_clean_linker_0, # of connection points: 2
#     Edge 31, Type (0, 1), BuildingBlock: MIFKUJ_clean_linker_0, # of connection points: 2
#     Edge 32, Type (0, 1), BuildingBlock: MIFKUJ_clean_linker_0, # of connection points: 2
#     Edge 33, Type (0, 1), BuildingBlock: MIFKUJ_clean_linker_0, # of connection points: 2
#     Edge 34, Type (0, 1), BuildingBlock: MIFKUJ_clean_linker_0, # of connection points: 2
#     Edge 35, Type (0, 1), BuildingBlock: MIFKUJ_clean_linker_0, # of connection points: 2
#     Edge 36, Type (0, 1), BuildingBlock: MIFKUJ_clean_linker_0, # of connection points: 2
#     Edge 37, Type (0, 1), BuildingBlock: MIFKUJ_clean_linker_0, # of connection points: 2
# Relax obj value: 0.001
# Max RMSD: 0.013
# Mean RMSD: 0.005
data_MOF--net-pto--node1-WUSLED_clean_sbu_0--node2-MIFKUJ_clean_linker_1--edge1-MIFKUJ_clean_linker_0
_symmetry_space_group_name_H-M    P1
_symmetry_Int_Tables_number       1
_symmetry_cell_setting            triclinic
loop_
_symmetry_equiv_pos_as_xyz
'x, y, z'
_cell_length_a     59.511616
_cell_length_b     87.723874
_cell_length_c     73.839002
_cell_angle_alpha  89.482655
_cell_angle_beta   90.722561
_cell_angle_gamma 90.537701
loop_
_atom_site_label
_atom_site_type_symbol
_atom_site_fract_x
_atom_site_fract_y
_atom_site_fract_z
_atom_type_partial_charge
C0 C 0.23472 0.23358 0.33833 0.0
C1 C 0.25212 0.22321 0.33553 0.0
C2 C 0.23677 0.20621 0.3587 0.0
C3 C 0.25318 0.20966 0.34567 0.0
C4 C 0.21932 0.21666 0.36135 0.0
C5 C 0.21834 0.23021 0.35126 0.0
U6 U 0.25338 0.25903 0.29904 0.0
O7 O 0.23359 0.27363 0.2806 0.0
O8 O 0.25986 0.28376 0.29794 0.0
C9 C 0.2434 0.28623 0.28628 0.0
C10 C 0.23338 0.24789 0.32784 0.0
C11 C 0.22832 0.29884 0.29058 0.0
C12 C 0.1984 0.30986 0.30822 0.0
C13 C 0.21271 0.29767 0.30462 0.0
C14 C 0.21535 0.32444 0.28385 0.0
C15 C 0.19948 0.32337 0.29779 0.0
C16 C 0.22959 0.31229 0.2803 0.0
C17 C 0.29793 0.24512 0.26656 0.0
C18 C 0.30848 0.25967 0.23977 0.0
C19 C 0.32791 0.23629 0.2474 0.0
C20 C 0.31445 0.23441 0.26266 0.0
C21 C 0.32507 0.24892 0.23573 0.0
C22 C 0.29505 0.2578 0.25508 0.0
C23 C 0.28376 0.24287 0.28255 0.0
O24 O 0.25132 0.25674 0.32866 0.0
O25 O 0.22501 0.24663 0.31136 0.0
O26 O 0.26209 0.24159 0.27919 0.0
O27 O 0.28847 0.25176 0.29634 0.0
H28 H 0.26485 0.22559 0.32551 0.0
H29 H 0.26667 0.20179 0.34315 0.0
H30 H 0.20659 0.21446 0.37141 0.0
H31 H 0.2048 0.2381 0.35359 0.0
H32 H 0.18627 0.30861 0.31896 0.0
H33 H 0.21153 0.28733 0.3127 0.0
H34 H 0.21695 0.33476 0.27578 0.0
H35 H 0.24163 0.31341 0.26946 0.0
H36 H 0.30602 0.26962 0.2312 0.0
H37 H 0.34031 0.22769 0.24457 0.0
H38 H 0.31685 0.22454 0.27137 0.0
H39 H 0.2824 0.26622 0.25795 0.0
C40 C 0.23797 0.7914 0.67719 0.0
C41 C 0.24893 0.80418 0.68461 0.0
C42 C 0.24127 0.81881 0.657 0.0
C43 C 0.2505 0.81778 0.67462 0.0
C44 C 0.23043 0.80591 0.64964 0.0
C45 C 0.22879 0.79235 0.65966 0.0
U46 U 0.25463 0.76568 0.71705 0.0
O47 O 0.23396 0.75082 0.73439 0.0
O48 O 0.26055 0.74092 0.71797 0.0
C49 C 0.24349 0.7383 0.72872 0.0
C50 C 0.23601 0.77703 0.68751 0.0
C51 C 0.22825 0.72574 0.72337 0.0
C52 C 0.19285 0.71629 0.71078 0.0
C53 C 0.20733 0.72847 0.71499 0.0
C54 C 0.22026 0.69853 0.72287 0.0
C55 C 0.19913 0.70117 0.71475 0.0
C56 C 0.23463 0.7107 0.72716 0.0
C57 C 0.29863 0.77931 0.75155 0.0
C58 C 0.30464 0.76761 0.78118 0.0
C59 C 0.3324 0.78519 0.76906 0.0
C60 C 0.31918 0.7871 0.75342 0.0
C61 C 0.32523 0.77549 0.78317 0.0
C62 C 0.29151 0.76945 0.76546 0.0
C63 C 0.28491 0.78163 0.73503 0.0
O64 O 0.25382 0.76829 0.68736 0.0
O65 O 0.22706 0.77811 0.70363 0.0
O66 O 0.26316 0.78294 0.73747 0.0
O67 O 0.28985 0.7729 0.72131 0.0
H68 H 0.25625 0.80362 0.69811 0.0
H69 H 0.25918 0.82744 0.68061 0.0
H70 H 0.22289 0.80636 0.63622 0.0
H71 H 0.22026 0.78259 0.65373 0.0
H72 H 0.17679 0.71868 0.70436 0.0
H73 H 0.20212 0.74 0.71182 0.0
H74 H 0.2255 0.68707 0.72631 0.0
H75 H 0.25068 0.70837 0.73365 0.0
H76 H 0.29879 0.75993 0.79171 0.0
H77 H 0.34804 0.79152 0.77025 0.0
H78 H 0.32496 0.79474 0.74281 0.0
H79 H 0.27577 0.76321 0.7642 0.0
C80 C 0.73109 0.78092 0.27009 0.0
C81 C 0.73511 0.76896 0.25809 0.0
C82 C 0.7039 0.77724 0.2388 0.0
C83 C 0.72167 0.76716 0.24255 0.0
C84 C 0.69992 0.78915 0.25096 0.0
C85 C 0.71342 0.79097 0.26644 0.0
U86 U 0.77514 0.76656 0.30389 0.0
O87 O 0.8033 0.77862 0.31718 0.0
O88 O 0.77653 0.76841 0.33361 0.0
C89 C 0.79458 0.77715 0.33338 0.0
C90 C 0.74507 0.783 0.28646 0.0
C91 C 0.79321 0.79128 0.34388 0.0
C92 C 0.78141 0.8176 0.34688 0.0
C93 C 0.78236 0.80419 0.33677 0.0
C94 C 0.80192 0.80524 0.37138 0.0
C95 C 0.79126 0.81831 0.36431 0.0
C96 C 0.80289 0.79188 0.36124 0.0
C97 C 0.80016 0.72685 0.29649 0.0
C98 C 0.82853 0.7153 0.31607 0.0
C99 C 0.81368 0.70144 0.29026 0.0
C100 C 0.79984 0.71372 0.28584 0.0
C101 C 0.82815 0.70202 0.30547 0.0
C102 C 0.8146 0.72761 0.31163 0.0
C103 C 0.78524 0.73952 0.29152 0.0
O104 O 0.74013 0.77396 0.30015 0.0
O105 O 0.7668 0.7843 0.28374 0.0
O106 O 0.79524 0.75216 0.28614 0.0
O107 O 0.76851 0.74188 0.30256 0.0
H108 H 0.74862 0.76103 0.26077 0.0
H109 H 0.72502 0.75777 0.23359 0.0
H110 H 0.68657 0.79722 0.24837 0.0
H111 H 0.71009 0.80027 0.27557 0.0
H112 H 0.77328 0.82746 0.34092 0.0
H113 H 0.77474 0.80392 0.32337 0.0
H114 H 0.80934 0.80528 0.38485 0.0
H115 H 0.81122 0.78199 0.36698 0.0
H116 H 0.83933 0.71608 0.32795 0.0
H117 H 0.81323 0.69152 0.28162 0.0
H118 H 0.78885 0.71298 0.27406 0.0
H119 H 0.81502 0.73769 0.32002 0.0
C120 C 0.76201 0.21578 0.69927 0.0
C121 C 0.77831 0.21792 0.68589 0.0
C122 C 0.76999 0.19263 0.67387 0.0
C123 C 0.78226 0.20644 0.67327 0.0
C124 C 0.75359 0.19066 0.68728 0.0
C125 C 0.74967 0.20212 0.69985 0.0
U126 U 0.77226 0.25524 0.72 0.0
O127 O 0.74776 0.27129 0.73102 0.0
O128 O 0.77437 0.26191 0.74859 0.0
C129 C 0.75586 0.26997 0.74759 0.0
C130 C 0.75762 0.22758 0.71277 0.0
C131 C 0.73918 0.26713 0.76188 0.0
C132 C 0.72206 0.2508 0.78479 0.0
C133 C 0.7374 0.25294 0.77075 0.0
C134 C 0.70964 0.27686 0.78094 0.0
C135 C 0.70807 0.26277 0.79009 0.0
C136 C 0.72509 0.27902 0.76702 0.0
C137 C 0.8149 0.28311 0.70001 0.0
C138 C 0.8237 0.30728 0.71441 0.0
C139 C 0.8406 0.30108 0.68576 0.0
C140 C 0.82911 0.2871 0.68572 0.0
C141 C 0.83811 0.31134 0.70013 0.0
C142 C 0.81219 0.2933 0.71434 0.0
C143 C 0.8031 0.26831 0.69985 0.0
O144 O 0.77414 0.23043 0.72426 0.0
O145 O 0.74786 0.23997 0.70654 0.0
O146 O 0.7815 0.26885 0.69599 0.0
O147 O 0.80782 0.25916 0.71355 0.0
H148 H 0.78801 0.22842 0.68527 0.0
H149 H 0.79514 0.20828 0.66324 0.0
H150 H 0.74358 0.18031 0.68797 0.0
H151 H 0.73696 0.20032 0.71004 0.0
H152 H 0.72105 0.23977 0.79144 0.0
H153 H 0.74797 0.24354 0.76694 0.0
H154 H 0.69927 0.28635 0.78482 0.0
H155 H 0.72621 0.29006 0.76038 0.0
H156 H 0.82158 0.31481 0.7258 0.0
H157 H 0.85127 0.30391 0.67441 0.0
H158 H 0.83131 0.27939 0.67451 0.0
H159 H 0.80127 0.29038 0.72551 0.0
C160 C 0.79806 0.72513 0.73171 0.0
C161 C 0.81292 0.72618 0.71714 0.0
C162 C 0.82659 0.70058 0.72387 0.0
C163 C 0.82707 0.71399 0.71323 0.0
C164 C 0.81147 0.69961 0.73834 0.0
C165 C 0.79737 0.71177 0.74221 0.0
U166 U 0.77374 0.76508 0.72359 0.0
O167 O 0.73899 0.77289 0.72676 0.0
O168 O 0.76607 0.78276 0.74347 0.0
C169 C 0.74431 0.7818 0.7404 0.0
C170 C 0.78328 0.73781 0.73634 0.0
C171 C 0.73043 0.77991 0.75661 0.0
C172 C 0.7175 0.76471 0.78218 0.0
C173 C 0.73065 0.76627 0.76667 0.0
C174 C 0.70382 0.79041 0.77768 0.0
C175 C 0.70397 0.77679 0.78791 0.0
C176 C 0.71693 0.79194 0.76218 0.0
C177 C 0.79227 0.79008 0.6839 0.0
C178 C 0.77466 0.81438 0.67702 0.0
C179 C 0.80733 0.80658 0.66032 0.0
C180 C 0.80814 0.79303 0.67044 0.0
C181 C 0.79057 0.81742 0.66347 0.0
C182 C 0.77554 0.80085 0.68718 0.0
C183 C 0.79342 0.77579 0.69444 0.0
O184 O 0.79348 0.75031 0.74187 0.0
O185 O 0.76659 0.74044 0.72495 0.0
O186 O 0.7752 0.76721 0.69393 0.0
O187 O 0.80219 0.77701 0.71079 0.0
H188 H 0.81366 0.73645 0.70889 0.0
H189 H 0.83864 0.71517 0.70209 0.0
H190 H 0.81037 0.68938 0.74662 0.0
H191 H 0.78592 0.71074 0.75346 0.0
H192 H 0.71821 0.75413 0.78984 0.0
H193 H 0.74107 0.75687 0.76257 0.0
H194 H 0.69336 0.79985 0.78154 0.0
H195 H 0.71654 0.80254 0.75453 0.0
H196 H 0.7617 0.82256 0.67994 0.0
H197 H 0.81965 0.80846 0.64984 0.0
H198 H 0.82115 0.78484 0.66772 0.0
H199 H 0.76321 0.79878 0.69762 0.0
C200 C 0.73004 0.24227 0.26934 0.0
C201 C 0.72085 0.25651 0.26477 0.0
C202 C 0.70326 0.24572 0.23774 0.0
C203 C 0.70747 0.2582 0.24917 0.0
C204 C 0.71271 0.23153 0.24227 0.0
C205 C 0.72591 0.22983 0.25795 0.0
U206 U 0.77407 0.2566 0.30339 0.0
O207 O 0.77573 0.25423 0.33306 0.0
O208 O 0.80229 0.24457 0.31646 0.0
C209 C 0.79376 0.24571 0.33272 0.0
C210 C 0.74406 0.24016 0.28577 0.0
C211 C 0.79245 0.23141 0.34322 0.0
C212 C 0.77611 0.20629 0.34859 0.0
C213 C 0.77711 0.21984 0.33844 0.0
C214 C 0.8058 0.21575 0.36836 0.0
C215 C 0.79049 0.20407 0.36367 0.0
C216 C 0.80675 0.22928 0.35822 0.0
C217 C 0.79946 0.29663 0.29583 0.0
C218 C 0.82864 0.30794 0.31489 0.0
C219 C 0.81424 0.32185 0.28879 0.0
C220 C 0.79962 0.30974 0.28487 0.0
C221 C 0.82904 0.32108 0.30378 0.0
C222 C 0.81398 0.29579 0.31092 0.0
C223 C 0.78426 0.28395 0.29103 0.0
O224 O 0.76577 0.23914 0.28304 0.0
O225 O 0.73915 0.24873 0.29968 0.0
O226 O 0.76766 0.28127 0.30222 0.0
O227 O 0.79406 0.27148 0.28554 0.0
H228 H 0.72401 0.26634 0.27325 0.0
H229 H 0.70065 0.26931 0.24592 0.0
H230 H 0.70962 0.22168 0.23383 0.0
H231 H 0.73288 0.21875 0.26122 0.0
H232 H 0.76431 0.19747 0.34447 0.0
H233 H 0.76598 0.22128 0.32684 0.0
H234 H 0.81689 0.21453 0.38001 0.0
H235 H 0.81865 0.23812 0.36213 0.0
H236 H 0.83994 0.30694 0.32644 0.0
H237 H 0.81381 0.33187 0.28013 0.0
H238 H 0.78846 0.31059 0.2732 0.0
H239 H 0.81409 0.28571 0.31951 0.0
C240 C 0.23442 0.23208 0.67775 0.0
C241 C 0.24988 0.22081 0.68287 0.0
C242 C 0.23669 0.20467 0.65812 0.0
C243 C 0.25103 0.20723 0.67312 0.0
C244 C 0.22121 0.21604 0.65311 0.0
C245 C 0.22011 0.22961 0.66284 0.0
U246 U 0.25259 0.25767 0.7169 0.0
O247 O 0.2596 0.28238 0.71728 0.0
O248 O 0.23275 0.27267 0.73408 0.0
C249 C 0.24279 0.28512 0.72812 0.0
C250 C 0.23307 0.24645 0.68777 0.0
C251 C 0.22804 0.2978 0.72265 0.0
C252 C 0.19335 0.30755 0.70939 0.0
C253 C 0.20734 0.29526 0.71378 0.0
C254 C 0.22084 0.32501 0.72229 0.0
C255 C 0.19993 0.32257 0.71365 0.0
C256 C 0.23472 0.31274 0.72675 0.0
C257 C 0.29643 0.24367 0.75123 0.0
C258 C 0.30645 0.25793 0.77827 0.0
C259 C 0.32702 0.23518 0.77078 0.0
C260 C 0.31352 0.23328 0.75532 0.0
C261 C 0.32365 0.24751 0.78247 0.0
C262 C 0.29299 0.25605 0.76275 0.0
C263 C 0.28238 0.24144 0.73492 0.0
O264 O 0.22434 0.24536 0.704 0.0
O265 O 0.25118 0.25513 0.6873 0.0
O266 O 0.28749 0.25014 0.72097 0.0
O267 O 0.26064 0.2404 0.73768 0.0
H268 H 0.26102 0.22252 0.69441 0.0
H269 H 0.26295 0.19865 0.67748 0.0
H270 H 0.21014 0.21455 0.64149 0.0
H271 H 0.20812 0.23822 0.65867 0.0
H272 H 0.17745 0.30532 0.70258 0.0
H273 H 0.20193 0.28381 0.71038 0.0
H274 H 0.2263 0.33639 0.72597 0.0
H275 H 0.25061 0.31492 0.73361 0.0
H276 H 0.30358 0.26764 0.78687 0.0
H277 H 0.3399 0.22684 0.77373 0.0
H278 H 0.31637 0.22365 0.74658 0.0
H279 H 0.27991 0.26423 0.75972 0.0
C280 C 0.21014 0.73991 0.32129 0.0
C281 C 0.21813 0.72762 0.31125 0.0
C282 C 0.18643 0.71188 0.32091 0.0
C283 C 0.20643 0.7137 0.31113 0.0
C284 C 0.17843 0.72429 0.33083 0.0
C285 C 0.19022 0.73817 0.33103 0.0
U286 U 0.25284 0.76746 0.30096 0.0
O287 O 0.25181 0.79233 0.29721 0.0
O288 O 0.27845 0.78209 0.31401 0.0
C289 C 0.26899 0.79473 0.30821 0.0
C290 C 0.22231 0.7546 0.32157 0.0
C291 C 0.26597 0.80663 0.32186 0.0
C292 C 0.24532 0.81782 0.34658 0.0
C293 C 0.24809 0.80607 0.33407 0.0
C294 C 0.27843 0.83061 0.33491 0.0
C295 C 0.26038 0.8303 0.34705 0.0
C296 C 0.28116 0.8189 0.32245 0.0
C297 C 0.28312 0.7556 0.2577 0.0
C298 C 0.31849 0.76567 0.24625 0.0
C299 C 0.29296 0.75207 0.22618 0.0
C300 C 0.278 0.74991 0.24044 0.0
C301 C 0.31342 0.75991 0.22893 0.0
C302 C 0.30341 0.7636 0.2605 0.0
C303 C 0.26713 0.75286 0.27249 0.0
O304 O 0.244 0.7538 0.32498 0.0
O305 O 0.21735 0.76403 0.30821 0.0
O306 O 0.24913 0.76142 0.27217 0.0
O307 O 0.27584 0.75107 0.28883 0.0
H308 H 0.23341 0.72879 0.3035 0.0
H309 H 0.21288 0.70444 0.30317 0.0
H310 H 0.16321 0.72321 0.33865 0.0
H311 H 0.18379 0.74754 0.33883 0.0
H312 H 0.23116 0.81727 0.35564 0.0
H313 H 0.2362 0.79664 0.33381 0.0
H314 H 0.29059 0.83988 0.33509 0.0
H315 H 0.29512 0.81948 0.31318 0.0
H316 H 0.33401 0.7719 0.24873 0.0
H317 H 0.28867 0.74734 0.21308 0.0
H318 H 0.26245 0.7437 0.23801 0.0
H319 H 0.30764 0.7682 0.27369 0.0
H320 H 0.96978 0.49011 0.30156 0.0
H321 H 0.94834 0.46623 0.30104 0.0
H322 H 0.98455 0.45068 0.34872 0.0
H323 H 0.00546 0.47483 0.34948 0.0
H324 H 0.97287 0.51245 0.32566 0.0
H325 H 0.02272 0.47668 0.2997 0.0
H326 H 0.04394 0.45311 0.29774 0.0
H327 H 0.08243 0.46585 0.34537 0.0
H328 H 0.06034 0.4891 0.34775 0.0
H329 H 0.0601 0.53613 0.34851 0.0
H330 H 0.0815 0.56008 0.34748 0.0
H331 H 0.04412 0.57385 0.29964 0.0
H332 H 0.02295 0.54985 0.30062 0.0
H333 H 0.05623 0.51302 0.32542 0.0
H334 H 0.00544 0.54991 0.3501 0.0
H335 H 0.98378 0.57349 0.35017 0.0
H336 H 0.94797 0.55887 0.30202 0.0
H337 H 0.96964 0.53535 0.30203 0.0
C338 C 0.98938 0.48423 0.32546 0.0
C339 C 0.973 0.48161 0.31197 0.0
C340 C 0.9609 0.46787 0.3116 0.0
C341 C 0.96485 0.45648 0.32475 0.0
C342 C 0.98099 0.45924 0.33845 0.0
C343 C 0.9931 0.473 0.33881 0.0
C344 C 1.00265 0.49869 0.32539 0.0
C345 C 0.9911 0.51258 0.32544 0.0
C346 C 0.02646 0.49884 0.3254 0.0
C347 C 0.03968 0.48459 0.32403 0.0
C348 C 0.03553 0.47432 0.30987 0.0
C349 C 0.04789 0.4609 0.30864 0.0
C350 C 0.06494 0.45754 0.3214 0.0
C351 C 0.06921 0.46793 0.33547 0.0
C352 C 0.05674 0.48132 0.33675 0.0
C353 C 0.03967 0.54126 0.3248 0.0
C354 C 0.05659 0.54428 0.33774 0.0
C355 C 0.06884 0.55796 0.33712 0.0
C356 C 0.06443 0.56891 0.32353 0.0
C357 C 0.04767 0.56577 0.31045 0.0
C358 C 0.03555 0.55205 0.311 0.0
C359 C 0.02645 0.5268 0.32568 0.0
C360 C 0.03801 0.51289 0.32579 0.0
C361 C 1.00263 0.52663 0.32564 0.0
C362 C 0.98931 0.54089 0.32597 0.0
C363 C 0.99302 0.55183 0.3395 0.0
C364 C 0.98065 0.56532 0.33951 0.0
C365 C 0.96414 0.56808 0.32609 0.0
C366 C 0.96033 0.55703 0.31268 0.0
C367 C 0.97275 0.54358 0.31265 0.0
H368 H 0.05164 0.53528 0.67075 0.0
H369 H 0.07341 0.55907 0.67142 0.0
H370 H 0.04378 0.57021 0.72272 0.0
H371 H 0.02198 0.54648 0.72188 0.0
H372 H 0.05136 0.51101 0.6936 0.0
H373 H 0.9985 0.54873 0.67334 0.0
H374 H 0.97774 0.57254 0.67529 0.0
H375 H 0.94555 0.55586 0.72384 0.0
H376 H 0.96718 0.53241 0.72228 0.0
H377 H 0.9685 0.48666 0.72215 0.0
H378 H 0.94739 0.46263 0.72286 0.0
H379 H 0.9764 0.45011 0.67178 0.0
H380 H 0.99764 0.47409 0.67129 0.0
H381 H 0.96829 0.51031 0.69857 0.0
H382 H 0.02204 0.47411 0.72067 0.0
H383 H 0.04415 0.45079 0.72094 0.0
H384 H 0.07369 0.4642 0.66998 0.0
H385 H 0.05164 0.4876 0.66991 0.0
C386 C 0.03498 0.53916 0.69615 0.0
C387 C 0.04988 0.54284 0.68215 0.0
C388 C 0.06236 0.55643 0.68258 0.0
C389 C 0.06029 0.5666 0.6971 0.0
C390 C 0.04549 0.5628 0.71118 0.0
C391 C 0.03304 0.5492 0.71074 0.0
C392 C 0.02167 0.52474 0.6956 0.0
C393 C 0.03316 0.51087 0.6944 0.0
C394 C 0.99794 0.52456 0.6971 0.0
C395 C 0.98468 0.53884 0.69781 0.0
C396 C 0.98714 0.55026 0.68451 0.0
C397 C 0.97504 0.56382 0.68553 0.0
C398 C 0.96001 0.56619 0.69978 0.0
C399 C 0.95727 0.55458 0.71287 0.0
C400 C 0.96946 0.54107 0.71189 0.0
C401 C 0.98482 0.48213 0.69676 0.0
C402 C 0.97023 0.47876 0.71107 0.0
C403 C 0.95812 0.46502 0.71143 0.0
C404 C 0.96023 0.45439 0.6974 0.0
C405 C 0.97466 0.4579 0.68297 0.0
C406 C 0.98678 0.47163 0.68263 0.0
C407 C 0.998 0.49661 0.69664 0.0
C408 C 0.98648 0.51048 0.69769 0.0
C409 C 0.0217 0.49681 0.69511 0.0
C410 C 0.03501 0.48255 0.69518 0.0
C411 C 0.03313 0.47196 0.70947 0.0
C412 C 0.04575 0.4586 0.70958 0.0
C413 C 0.06066 0.45557 0.69544 0.0
C414 C 0.06257 0.46624 0.68118 0.0
C415 C 0.04993 0.47961 0.68109 0.0
H416 H 0.21339 0.98952 0.54347 0.0
H417 H 0.21367 0.96605 0.56158 0.0
H418 H 0.27545 0.95276 0.53625 0.0
H419 H 0.27513 0.9763 0.51822 0.0
H420 H 0.24189 0.01277 0.54261 0.0
H421 H 0.21556 0.97551 0.49946 0.0
H422 H 0.21626 0.95253 0.48093 0.0
H423 H 0.27767 0.96847 0.45621 0.0
H424 H 0.27689 0.99138 0.47476 0.0
H425 H 0.27554 0.03722 0.47486 0.0
H426 H 0.27468 0.06065 0.45669 0.0
H427 H 0.21285 0.07343 0.48234 0.0
H428 H 0.21342 0.04973 0.50002 0.0
H429 H 0.24724 0.01364 0.47566 0.0
H430 H 0.27347 0.05091 0.5181 0.0
H431 H 0.27274 0.07427 0.53583 0.0
H432 H 0.21285 0.05803 0.56266 0.0
H433 H 0.21308 0.03505 0.54425 0.0
C434 C 0.24411 0.98463 0.52933 0.0
C435 C 0.22702 0.98156 0.54183 0.0
C436 C 0.22723 0.96816 0.55222 0.0
C437 C 0.24457 0.95752 0.55036 0.0
C438 C 0.26168 0.96061 0.53782 0.0
C439 C 0.26151 0.97406 0.5275 0.0
C440 C 0.24397 0.99909 0.51862 0.0
C441 C 0.24273 0.01295 0.52794 0.0
C442 C 0.24572 0.99934 0.4995 0.0
C443 C 0.24627 0.98515 0.48862 0.0
C444 C 0.22931 0.97397 0.4902 0.0
C445 C 0.22973 0.96083 0.47959 0.0
C446 C 0.24699 0.95867 0.46705 0.0
C447 C 0.26395 0.96987 0.46554 0.0
C448 C 0.26357 0.98296 0.47618 0.0
C449 C 0.24466 0.04175 0.48894 0.0
C450 C 0.26177 0.04506 0.47655 0.0
C451 C 0.26136 0.05853 0.46627 0.0
C452 C 0.24373 0.06897 0.46809 0.0
C453 C 0.22656 0.06559 0.48047 0.0
C454 C 0.22699 0.05211 0.49074 0.0
C455 C 0.24507 0.0273 0.49965 0.0
C456 C 0.24638 0.01345 0.49033 0.0
C457 C 0.24343 0.02706 0.51878 0.0
C458 C 0.24315 0.04128 0.52963 0.0
C459 C 0.26 0.05247 0.52762 0.0
C460 C 0.25972 0.06576 0.53795 0.0
C461 C 0.24272 0.06808 0.5507 0.0
C462 C 0.22599 0.05677 0.55279 0.0
C463 C 0.22622 0.04354 0.54238 0.0
H464 H 0.47019 0.78848 0.98455 0.0
H465 H 0.44725 0.78879 0.95684 0.0
H466 H 0.48057 0.7483 0.9386 0.0
H467 H 0.50317 0.74782 0.96651 0.0
H468 H 0.47241 0.76905 0.01114 0.0
H469 H 0.52669 0.78878 0.9687 0.0
H470 H 0.54914 0.78931 0.94112 0.0
H471 H 0.5777 0.74582 0.95607 0.0
H472 H 0.55502 0.74527 0.98351 0.0
H473 H 0.55765 0.74613 0.03914 0.0
H474 H 0.5806 0.74652 0.06686 0.0
H475 H 0.54759 0.78767 0.0834 0.0
H476 H 0.5249 0.78735 0.05557 0.0
H477 H 0.55549 0.76526 0.01178 0.0
H478 H 0.50236 0.74675 0.05569 0.0
H479 H 0.4794 0.74663 0.08294 0.0
H480 H 0.44865 0.78875 0.06532 0.0
H481 H 0.47156 0.78876 0.03809 0.0
C482 C 0.48863 0.76823 0.97759 0.0
C483 C 0.47254 0.77963 0.97462 0.0
C484 C 0.45941 0.77979 0.95879 0.0
C485 C 0.46213 0.76858 0.94554 0.0
C486 C 0.4783 0.7572 0.94846 0.0
C487 C 0.49128 0.75696 0.96439 0.0
C488 C 0.50203 0.7679 0.99475 0.0
C489 C 0.49062 0.76844 0.01127 0.0
C490 C 0.52575 0.76668 0.99497 0.0
C491 C 0.53906 0.76693 0.9781 0.0
C492 C 0.53766 0.77931 0.96596 0.0
C493 C 0.55061 0.77965 0.95028 0.0
C494 C 0.56517 0.7676 0.94641 0.0
C495 C 0.56646 0.75519 0.95856 0.0
C496 C 0.55363 0.75491 0.9743 0.0
C497 C 0.53932 0.7666 0.04532 0.0
C498 C 0.55536 0.75525 0.04873 0.0
C499 C 0.5685 0.7555 0.06455 0.0
C500 C 0.56588 0.76711 0.07734 0.0
C501 C 0.54978 0.77845 0.07394 0.0
C502 C 0.53676 0.77826 0.05804 0.0
C503 C 0.52588 0.76652 0.02819 0.0
C504 C 0.53729 0.76587 0.01167 0.0
C505 C 0.50215 0.76772 0.02798 0.0
C506 C 0.4888 0.76782 0.04487 0.0
C507 C 0.49085 0.75605 0.0578 0.0
C508 C 0.47774 0.75601 0.07339 0.0
C509 C 0.46215 0.76767 0.07631 0.0
C510 C 0.46024 0.77948 0.06338 0.0
C511 C 0.47338 0.77953 0.04782 0.0
H512 H 0.75528 0.98667 0.5467 0.0
H513 H 0.75531 0.96334 0.56503 0.0
H514 H 0.81649 0.94932 0.53929 0.0
H515 H 0.81681 0.97295 0.52153 0.0
H516 H 0.78451 0.0097 0.54591 0.0
H517 H 0.75562 0.97386 0.50167 0.0
H518 H 0.75567 0.95043 0.48385 0.0
H519 H 0.81995 0.96341 0.46164 0.0
H520 H 0.81988 0.98675 0.47961 0.0
H521 H 0.8178 0.03345 0.47738 0.0
H522 H 0.81743 0.05686 0.45927 0.0
H523 H 0.75732 0.07106 0.48648 0.0
H524 H 0.75719 0.04726 0.50388 0.0
H525 H 0.78967 0.0104 0.47893 0.0
H526 H 0.81664 0.0477 0.52119 0.0
H527 H 0.81669 0.07087 0.53942 0.0
H528 H 0.75655 0.05512 0.56615 0.0
H529 H 0.75633 0.03211 0.54772 0.0
C530 C 0.78591 0.98153 0.53259 0.0
C531 C 0.76871 0.97858 0.54502 0.0
C532 C 0.76865 0.96515 0.55539 0.0
C533 C 0.78586 0.9544 0.55361 0.0
C534 C 0.80308 0.9574 0.54114 0.0
C535 C 0.80315 0.97084 0.53081 0.0
C536 C 0.78613 0.996 0.52192 0.0
C537 C 0.7853 0.00988 0.53124 0.0
C538 C 0.78784 0.99622 0.50282 0.0
C539 C 0.78783 0.98199 0.49206 0.0
C540 C 0.76977 0.97161 0.49303 0.0
C541 C 0.76974 0.95829 0.48275 0.0
C542 C 0.78784 0.95507 0.47137 0.0
C543 C 0.80589 0.96549 0.47043 0.0
C544 C 0.80581 0.97887 0.48059 0.0
C545 C 0.78767 0.03862 0.49215 0.0
C546 C 0.80448 0.04157 0.47938 0.0
C547 C 0.80436 0.05506 0.46916 0.0
C548 C 0.78742 0.06594 0.47145 0.0
C549 C 0.77052 0.06291 0.4842 0.0
C550 C 0.77057 0.04936 0.49434 0.0
C551 C 0.78784 0.02418 0.50289 0.0
C552 C 0.78883 0.01028 0.4936 0.0
C553 C 0.78629 0.02397 0.52204 0.0
C554 C 0.78634 0.03819 0.53292 0.0
C555 C 0.80328 0.04932 0.53079 0.0
C556 C 0.80332 0.06255 0.54124 0.0
C557 C 0.78664 0.06481 0.55423 0.0
C558 C 0.76977 0.05363 0.5564 0.0
C559 C 0.76962 0.04048 0.54585 0.0
H560 H 0.46994 0.27718 0.98274 0.0
H561 H 0.44731 0.2773 0.95484 0.0
H562 H 0.47837 0.23534 0.93863 0.0
H563 H 0.50077 0.23519 0.9666 0.0
H564 H 0.47118 0.25803 0.01027 0.0
H565 H 0.52544 0.27595 0.96707 0.0
H566 H 0.54803 0.27593 0.93966 0.0
H567 H 0.5758 0.23241 0.95565 0.0
H568 H 0.55343 0.23266 0.98318 0.0
H569 H 0.5528 0.23217 0.0391 0.0
H570 H 0.57528 0.23158 0.067 0.0
H571 H 0.54947 0.27571 0.08138 0.0
H572 H 0.52662 0.276 0.05364 0.0
H573 H 0.55404 0.25243 0.01088 0.0
H574 H 0.50061 0.23505 0.0546 0.0
H575 H 0.47837 0.23529 0.08219 0.0
H576 H 0.44868 0.2779 0.0651 0.0
H577 H 0.47102 0.2776 0.03753 0.0
C578 C 0.48729 0.25628 0.97671 0.0
C579 C 0.47187 0.268 0.97319 0.0
C580 C 0.4589 0.26803 0.95725 0.0
C581 C 0.4611 0.25636 0.94449 0.0
C582 C 0.47655 0.24463 0.94804 0.0
C583 C 0.48939 0.24454 0.96403 0.0
C584 C 0.5007 0.25612 0.99386 0.0
C585 C 0.48934 0.25706 0.01039 0.0
C586 C 0.52436 0.25443 0.99405 0.0
C587 C 0.53763 0.25426 0.97714 0.0
C588 C 0.53626 0.26635 0.96459 0.0
C589 C 0.54916 0.2663 0.94888 0.0
C590 C 0.56376 0.25416 0.9454 0.0
C591 C 0.56501 0.24205 0.958 0.0
C592 C 0.55216 0.24214 0.97372 0.0
C593 C 0.53792 0.25407 0.04434 0.0
C594 C 0.55198 0.2417 0.04829 0.0
C595 C 0.56492 0.24143 0.06422 0.0
C596 C 0.56428 0.25362 0.07648 0.0
C597 C 0.55015 0.26601 0.07244 0.0
C598 C 0.53712 0.26623 0.05654 0.0
C599 C 0.52452 0.2544 0.02724 0.0
C600 C 0.53588 0.25346 0.01074 0.0
C601 C 0.50089 0.25613 0.02708 0.0
C602 C 0.48769 0.25639 0.04405 0.0
C603 C 0.48953 0.24455 0.0569 0.0
C604 C 0.4768 0.2447 0.07268 0.0
C605 C 0.46176 0.25663 0.07588 0.0
C606 C 0.45991 0.26846 0.06297 0.0
C607 C 0.47271 0.26832 0.04722 0.0
H608 H 0.17782 0.34143 0.27288 0.0
H609 H 0.15477 0.36374 0.2784 0.0
H610 H 0.16307 0.35703 0.33602 0.0
H611 H 0.18644 0.3347 0.33059 0.0
H612 H 0.11952 0.36457 0.32651 0.0
H613 H 0.19369 0.38382 0.31519 0.0
H614 H 0.22902 0.38659 0.29834 0.0
H615 H 0.19264 0.40446 0.25239 0.0
H616 H 0.15703 0.40158 0.26889 0.0
H617 H 0.08005 0.43863 0.34875 0.0
H618 H 0.10264 0.41565 0.34607 0.0
H619 H 0.10219 0.42099 0.28793 0.0
H620 H 0.08054 0.44433 0.29054 0.0
H621 H 0.14283 0.41415 0.29948 0.0
H622 H 0.06855 0.39416 0.31017 0.0
H623 H 0.033 0.39115 0.32668 0.0
H624 H 0.06915 0.37462 0.37345 0.0
H625 H 0.10496 0.37773 0.35729 0.0
C626 C 0.17487 0.34473 0.28674 0.0
C627 C 0.18423 0.33637 0.30129 0.0
C628 C 0.16162 0.35746 0.28987 0.0
C629 C 0.15748 0.3622 0.30762 0.0
C630 C 0.1661 0.3536 0.32221 0.0
C631 C 0.1794 0.34082 0.31908 0.0
C632 C 0.14461 0.37634 0.3108 0.0
C633 C 0.12476 0.37547 0.32084 0.0
C634 C 0.15126 0.3905 0.30313 0.0
C635 C 0.17267 0.39236 0.29323 0.0
C636 C 0.1932 0.38824 0.30145 0.0
C637 C 0.21328 0.38984 0.29197 0.0
C638 C 0.21307 0.39567 0.27429 0.0
C639 C 0.19278 0.39994 0.26608 0.0
C640 C 0.17264 0.39834 0.27549 0.0
C641 C 0.08492 0.435 0.3354 0.0
C642 C 0.07838 0.44335 0.31986 0.0
C643 C 0.09764 0.42174 0.33387 0.0
C644 C 0.1039 0.41645 0.31678 0.0
C645 C 0.0975 0.4248 0.30127 0.0
C646 C 0.08491 0.43808 0.30278 0.0
C647 C 0.11747 0.40239 0.31496 0.0
C648 C 0.13755 0.40328 0.30522 0.0
C649 C 0.11097 0.38826 0.32287 0.0
C650 C 0.08945 0.38633 0.33258 0.0
C651 C 0.06893 0.39 0.32402 0.0
C652 C 0.04873 0.38825 0.33331 0.0
C653 C 0.04882 0.38274 0.35112 0.0
C654 C 0.06911 0.37891 0.35967 0.0
C655 C 0.08936 0.38065 0.35044 0.0
H656 H 0.03317 0.3814 0.35829 0.0
H657 H 0.22863 0.3969 0.26697 0.0
H658 H 0.20929 0.67348 0.70028 0.0
H659 H 0.18421 0.65157 0.69582 0.0
H660 H 0.12871 0.6775 0.71589 0.0
H661 H 0.15385 0.69939 0.72076 0.0
H662 H 0.13051 0.64953 0.73148 0.0
H663 H 0.13228 0.6698 0.6712 0.0
H664 H 0.14975 0.67946 0.64321 0.0
H665 H 0.18186 0.63637 0.63582 0.0
H666 H 0.16483 0.62651 0.66393 0.0
H667 H 0.04657 0.59488 0.70766 0.0
H668 H 0.0689 0.61837 0.70937 0.0
H669 H 0.12651 0.59459 0.68937 0.0
H670 H 0.10434 0.57102 0.68775 0.0
H671 H 0.12223 0.62221 0.67319 0.0
H672 H 0.122 0.60241 0.73409 0.0
H673 H 0.10475 0.59268 0.76215 0.0
H674 H 0.06998 0.63494 0.76837 0.0
H675 H 0.08679 0.64485 0.74018 0.0
C676 C 0.19174 0.67453 0.70375 0.0
C677 C 0.18357 0.68818 0.71091 0.0
C678 C 0.17738 0.66203 0.70104 0.0
C679 C 0.15453 0.66292 0.70539 0.0
C680 C 0.14627 0.67657 0.71239 0.0
C681 C 0.16061 0.68911 0.71503 0.0
C682 C 0.1395 0.64939 0.70332 0.0
C683 C 0.12839 0.64371 0.71865 0.0
C684 C 0.13716 0.64158 0.68669 0.0
C685 C 0.14744 0.64747 0.66978 0.0
C686 C 0.14322 0.66242 0.6637 0.0
C687 C 0.15301 0.66792 0.64779 0.0
C688 C 0.16695 0.65854 0.63776 0.0
C689 C 0.17108 0.64363 0.64361 0.0
C690 C 0.16135 0.63807 0.65952 0.0
C691 C 0.06403 0.59461 0.70375 0.0
C692 C 0.07368 0.58102 0.69766 0.0
C693 C 0.07677 0.60807 0.70468 0.0
C694 C 0.09946 0.60822 0.69968 0.0
C695 C 0.10902 0.59476 0.69327 0.0
C696 C 0.0963 0.5813 0.69231 0.0
C697 C 0.11333 0.62233 0.70137 0.0
C698 C 0.12425 0.6281 0.68598 0.0
C699 C 0.11553 0.63022 0.71795 0.0
C700 C 0.10547 0.62431 0.73493 0.0
C701 C 0.11054 0.60958 0.74136 0.0
C702 C 0.10086 0.60404 0.7573 0.0
C703 C 0.08623 0.61317 0.767 0.0
C704 C 0.08129 0.62788 0.76082 0.0
C705 C 0.0909 0.63346 0.74487 0.0
H706 H 0.07877 0.60886 0.77935 0.0
H707 H 0.17451 0.66282 0.62545 0.0
H708 H 0.87222 0.70238 0.31703 0.0
H709 H 0.89642 0.68049 0.32331 0.0
H710 H 0.84152 0.64993 0.31013 0.0
H711 H 0.81709 0.6717 0.30443 0.0
H712 H 0.86405 0.63997 0.33947 0.0
H713 H 0.8831 0.65816 0.27965 0.0
H714 H 0.89541 0.67732 0.25714 0.0
H715 H 0.9577 0.68338 0.28629 0.0
H716 H 0.94562 0.66439 0.30911 0.0
H717 H 0.91911 0.57137 0.3193 0.0
H718 H 0.89752 0.5949 0.31829 0.0
H719 H 0.95723 0.62072 0.33218 0.0
H720 H 0.97914 0.59721 0.33267 0.0
H721 H 0.93436 0.63418 0.3049 0.0
H722 H 0.91653 0.61436 0.36343 0.0
H723 H 0.90426 0.59502 0.38572 0.0
H724 H 0.83981 0.59191 0.35914 0.0
H725 H 0.8518 0.61109 0.33652 0.0
C726 C 0.86522 0.691 0.31571 0.0
C727 C 0.84275 0.6888 0.31008 0.0
C728 C 0.87913 0.67849 0.31914 0.0
C729 C 0.87089 0.66355 0.31695 0.0
C730 C 0.8483 0.66134 0.31185 0.0
C731 C 0.8344 0.67381 0.30842 0.0
C732 C 0.88578 0.65016 0.31956 0.0
C733 C 0.87932 0.63864 0.3318 0.0
C734 C 0.90605 0.6486 0.30992 0.0
C735 C 0.91335 0.65999 0.29619 0.0
C736 C 0.89934 0.66367 0.28133 0.0
C737 C 0.90629 0.67448 0.26851 0.0
C738 C 0.92729 0.6816 0.27031 0.0
C739 C 0.94142 0.67788 0.28492 0.0
C740 C 0.93454 0.66709 0.2978 0.0
C741 C 0.92771 0.58205 0.32205 0.0
C742 C 0.95088 0.58239 0.32605 0.0
C743 C 0.91528 0.59549 0.32165 0.0
C744 C 0.92568 0.60957 0.32538 0.0
C745 C 0.94882 0.60998 0.32935 0.0
C746 C 0.96128 0.59652 0.32976 0.0
C747 C 0.91245 0.62387 0.32461 0.0
C748 C 0.91921 0.63556 0.31271 0.0
C749 C 0.89246 0.62558 0.33456 0.0
C750 C 0.88514 0.61408 0.34819 0.0
C751 C 0.8998 0.60947 0.36225 0.0
C752 C 0.89288 0.59855 0.37496 0.0
C753 C 0.87129 0.59222 0.37382 0.0
C754 C 0.85654 0.59682 0.36 0.0
C755 C 0.86338 0.60773 0.34724 0.0
H756 H 0.86597 0.58376 0.38368 0.0
H757 H 0.93265 0.68997 0.26037 0.0
H758 H 0.88157 0.31696 0.68993 0.0
H759 H 0.9018 0.3413 0.68972 0.0
H760 H 0.84352 0.36358 0.71087 0.0
H761 H 0.82286 0.33934 0.71049 0.0
H762 H 0.86163 0.38015 0.68411 0.0
H763 H 0.88911 0.35545 0.73806 0.0
H764 H 0.90588 0.3346 0.75614 0.0
H765 H 0.96589 0.33748 0.72456 0.0
H766 H 0.94935 0.35821 0.70611 0.0
H767 H 0.91674 0.4494 0.70804 0.0
H768 H 0.89602 0.42524 0.70902 0.0
H769 H 0.95368 0.40201 0.68823 0.0
H770 H 0.97483 0.42604 0.68789 0.0
H771 H 0.93553 0.38604 0.71525 0.0
H772 H 0.90783 0.41051 0.66105 0.0
H773 H 0.89105 0.43134 0.64295 0.0
H774 H 0.83142 0.4289 0.67503 0.0
H775 H 0.84798 0.40818 0.69349 0.0
C776 C 0.87296 0.32705 0.69439 0.0
C777 C 0.85056 0.32616 0.70024 0.0
C778 C 0.88464 0.34095 0.69444 0.0
C779 C 0.87429 0.35426 0.7005 0.0
C780 C 0.8519 0.35345 0.70621 0.0
C781 C 0.84017 0.33955 0.70613 0.0
C782 C 0.88675 0.36904 0.70066 0.0
C783 C 0.87763 0.3815 0.69115 0.0
C784 C 0.90789 0.37072 0.70948 0.0
C785 C 0.9179 0.35829 0.72059 0.0
C786 C 0.90582 0.35155 0.73488 0.0
C787 C 0.91529 0.33977 0.74521 0.0
C788 C 0.93691 0.33469 0.74147 0.0
C789 C 0.94913 0.34141 0.72742 0.0
C790 C 0.93972 0.35319 0.71704 0.0
C791 C 0.92511 0.43914 0.70383 0.0
C792 C 0.94746 0.4397 0.69784 0.0
C793 C 0.91314 0.42534 0.70422 0.0
C794 C 0.92318 0.41182 0.69847 0.0
C795 C 0.94554 0.4123 0.69265 0.0
C796 C 0.95755 0.42608 0.69231 0.0
C797 C 0.91044 0.39714 0.69865 0.0
C798 C 0.91951 0.3847 0.70823 0.0
C799 C 0.88926 0.39547 0.68989 0.0
C800 C 0.87924 0.40789 0.67876 0.0
C801 C 0.89121 0.41449 0.66433 0.0
C802 C 0.88173 0.42627 0.65399 0.0
C803 C 0.86021 0.43147 0.65787 0.0
C804 C 0.8481 0.42487 0.67206 0.0
C805 C 0.85752 0.41311 0.68246 0.0
H806 H 0.85289 0.44058 0.64984 0.0
H807 H 0.94422 0.32557 0.74949 0.0
H808 H 0.20211 0.18691 0.36757 0.0
H809 H 0.20369 0.16368 0.38605 0.0
H810 H 0.27531 0.16969 0.39288 0.0
H811 H 0.27385 0.19294 0.37434 0.0
H812 H 0.2652 0.14052 0.38626 0.0
H813 H 0.23882 0.17862 0.42681 0.0
H814 H 0.21412 0.19922 0.43686 0.0
H815 H 0.1572 0.16883 0.43443 0.0
H816 H 0.18152 0.14809 0.42411 0.0
H817 H 0.27885 0.08809 0.45959 0.0
H818 H 0.27792 0.1112 0.44084 0.0
H819 H 0.20648 0.10532 0.43273 0.0
H820 H 0.20729 0.08215 0.45136 0.0
H821 H 0.21688 0.13451 0.44017 0.0
H822 H 0.24344 0.09642 0.39953 0.0
H823 H 0.26828 0.07587 0.38955 0.0
H824 H 0.3251 0.10632 0.39237 0.0
H825 H 0.30063 0.12701 0.40261 0.0
C826 C 0.21818 0.18335 0.3731 0.0
C827 C 0.23783 0.19185 0.36956 0.0
C828 C 0.21907 0.17005 0.38366 0.0
C829 C 0.23958 0.16504 0.3911 0.0
C830 C 0.25929 0.17333 0.38731 0.0
C831 C 0.25844 0.1866 0.37667 0.0
C832 C 0.24043 0.15118 0.40285 0.0
C833 C 0.25486 0.1393 0.39819 0.0
C834 C 0.22661 0.14942 0.41822 0.0
C835 C 0.21196 0.16184 0.42452 0.0
C836 C 0.22101 0.17636 0.42829 0.0
C837 C 0.20708 0.18806 0.43405 0.0
C838 C 0.1841 0.18535 0.43624 0.0
C839 C 0.175 0.17092 0.43271 0.0
C840 C 0.18886 0.15918 0.42692 0.0
C841 C 0.26296 0.09163 0.45369 0.0
C842 C 0.24315 0.08321 0.45694 0.0
C843 C 0.26246 0.10487 0.44299 0.0
C844 C 0.24217 0.10992 0.43519 0.0
C845 C 0.22233 0.10166 0.43861 0.0
C846 C 0.22281 0.08843 0.44933 0.0
C847 C 0.2416 0.12384 0.42355 0.0
C848 C 0.22723 0.13574 0.42825 0.0
C849 C 0.2555 0.12563 0.40824 0.0
C850 C 0.27023 0.11322 0.40201 0.0
C851 C 0.26126 0.0987 0.39816 0.0
C852 C 0.27527 0.08703 0.39243 0.0
C853 C 0.29826 0.08977 0.39038 0.0
C854 C 0.30729 0.10421 0.394 0.0
C855 C 0.29336 0.11591 0.39975 0.0
H856 H 0.30908 0.08073 0.38594 0.0
H857 H 0.17334 0.19442 0.4407 0.0
H858 H 0.37078 0.77185 0.78606 0.0
H859 H 0.39363 0.76989 0.81376 0.0
H860 H 0.33391 0.77321 0.84592 0.0
H861 H 0.31098 0.7754 0.81826 0.0
H862 H 0.36787 0.7921 0.858 0.0
H863 H 0.35901 0.73951 0.84166 0.0
H864 H 0.36065 0.71738 0.82138 0.0
H865 H 0.4319 0.72378 0.81617 0.0
H866 H 0.43065 0.74609 0.83623 0.0
H867 H 0.41676 0.7727 0.94282 0.0
H868 H 0.3934 0.77314 0.91536 0.0
H869 H 0.452 0.76527 0.88304 0.0
H870 H 0.47539 0.76452 0.91056 0.0
H871 H 0.41833 0.74853 0.87095 0.0
H872 H 0.42767 0.80118 0.88644 0.0
H873 H 0.42664 0.82364 0.90623 0.0
H874 H 0.35542 0.81775 0.91233 0.0
H875 H 0.35607 0.79511 0.89276 0.0
C876 C 0.36252 0.7722 0.79903 0.0
C877 C 0.33906 0.77377 0.79997 0.0
C878 C 0.37558 0.77096 0.81485 0.0
C879 C 0.36545 0.7713 0.83191 0.0
C880 C 0.34205 0.77289 0.83289 0.0
C881 C 0.32896 0.77402 0.81708 0.0
C882 C 0.37934 0.77036 0.84873 0.0
C883 C 0.37867 0.78248 0.86098 0.0
C884 C 0.39389 0.758 0.85234 0.0
C885 C 0.39469 0.74457 0.84031 0.0
C886 C 0.375 0.73628 0.83607 0.0
C887 C 0.37587 0.72369 0.82464 0.0
C888 C 0.39636 0.71921 0.81745 0.0
C889 C 0.41604 0.72728 0.82172 0.0
C890 C 0.41526 0.73989 0.83314 0.0
C891 C 0.42468 0.77115 0.92985 0.0
C892 C 0.44793 0.76868 0.92883 0.0
C893 C 0.41131 0.77142 0.91415 0.0
C894 C 0.42097 0.7695 0.89706 0.0
C895 C 0.44415 0.76679 0.89604 0.0
C896 C 0.4575 0.76636 0.91177 0.0
C897 C 0.40689 0.7703 0.88027 0.0
C898 C 0.40753 0.75817 0.86801 0.0
C899 C 0.39242 0.78271 0.87656 0.0
C900 C 0.39196 0.79636 0.88827 0.0
C901 C 0.41182 0.80461 0.89211 0.0
C902 C 0.4113 0.81738 0.90327 0.0
C903 C 0.39099 0.8221 0.91057 0.0
C904 C 0.37115 0.81407 0.90668 0.0
C905 C 0.37158 0.80128 0.89555 0.0
H906 H 0.39062 0.83199 0.91921 0.0
H907 H 0.39699 0.70945 0.80861 0.0
H908 H 0.8246 0.83074 0.38562 0.0
H909 H 0.82314 0.85382 0.40379 0.0
H910 H 0.7551 0.86155 0.3854 0.0
H911 H 0.7563 0.83834 0.36732 0.0
H912 H 0.77982 0.88768 0.38468 0.0
H913 H 0.76506 0.84767 0.42741 0.0
H914 H 0.77176 0.82341 0.4436 0.0
H915 H 0.83476 0.84075 0.46404 0.0
H916 H 0.82858 0.86506 0.44774 0.0
H917 H 0.75326 0.94298 0.45119 0.0
H918 H 0.75346 0.91982 0.43291 0.0
H919 H 0.82257 0.91212 0.44838 0.0
H920 H 0.82242 0.9352 0.46681 0.0
H921 H 0.79641 0.88595 0.4507 0.0
H922 H 0.81102 0.92594 0.4075 0.0
H923 H 0.80386 0.95019 0.39139 0.0
H924 H 0.74038 0.93278 0.37205 0.0
H925 H 0.74702 0.90849 0.38827 0.0
C926 C 0.80922 0.83724 0.38556 0.0
C927 C 0.79051 0.83259 0.37508 0.0
C928 C 0.80845 0.85048 0.39593 0.0
C929 C 0.78892 0.85933 0.39613 0.0
C930 C 0.77035 0.8549 0.38545 0.0
C931 C 0.7711 0.84164 0.37507 0.0
C932 C 0.78795 0.87321 0.40751 0.0
C933 C 0.78312 0.88726 0.39916 0.0
C934 C 0.79268 0.87273 0.42635 0.0
C935 C 0.79645 0.85813 0.4362 0.0
C936 C 0.78043 0.84627 0.43523 0.0
C937 C 0.78412 0.83252 0.44445 0.0
C938 C 0.8037 0.83053 0.45481 0.0
C939 C 0.81961 0.8423 0.45599 0.0
C940 C 0.81601 0.85608 0.44678 0.0
C941 C 0.76845 0.93629 0.45078 0.0
C942 C 0.78784 0.94093 0.46041 0.0
C943 C 0.76859 0.92313 0.44024 0.0
C944 C 0.78809 0.91431 0.43917 0.0
C945 C 0.80737 0.91878 0.44898 0.0
C946 C 0.8073 0.93201 0.4594 0.0
C947 C 0.78838 0.9004 0.42785 0.0
C948 C 0.79307 0.88634 0.43622 0.0
C949 C 0.78344 0.90087 0.40905 0.0
C950 C 0.77941 0.91546 0.39927 0.0
C951 C 0.79544 0.92733 0.39995 0.0
C952 C 0.79149 0.94107 0.39077 0.0
C953 C 0.77165 0.94304 0.38075 0.0
C954 C 0.75573 0.93125 0.37985 0.0
C955 C 0.75958 0.91749 0.38902 0.0
H956 H 0.76863 0.95369 0.37364 0.0
H957 H 0.80653 0.81987 0.46194 0.0
H958 H 0.71613 0.24915 0.82298 0.0
H959 H 0.69065 0.2468 0.84858 0.0
H960 H 0.63875 0.2694 0.8174 0.0
H961 H 0.66432 0.27197 0.79184 0.0
H962 H 0.64073 0.28079 0.85 0.0
H963 H 0.63745 0.23021 0.8263 0.0
H964 H 0.65251 0.20585 0.81557 0.0
H965 H 0.68272 0.19757 0.86781 0.0
H966 H 0.6681 0.22199 0.87878 0.0
H967 H 0.55212 0.2635 0.91097 0.0
H968 H 0.57579 0.26429 0.88414 0.0
H969 H 0.63089 0.24565 0.91539 0.0
H970 H 0.60751 0.24506 0.94236 0.0
H971 H 0.62623 0.23193 0.88233 0.0
H972 H 0.62996 0.28303 0.90549 0.0
H973 H 0.61433 0.30728 0.91601 0.0
H974 H 0.58237 0.3143 0.86418 0.0
H975 H 0.59757 0.28997 0.85343 0.0
C976 C 0.6992 0.25345 0.8215 0.0
C977 C 0.69223 0.26072 0.80537 0.0
C978 C 0.68462 0.25209 0.83615 0.0
C979 C 0.66264 0.25776 0.83489 0.0
C980 C 0.65561 0.26495 0.81874 0.0
C981 C 0.67025 0.26642 0.80414 0.0
C982 C 0.64724 0.25666 0.85059 0.0
C983 C 0.63729 0.27005 0.85686 0.0
C984 C 0.64307 0.24272 0.85985 0.0
C985 C 0.65185 0.228 0.85331 0.0
C986 C 0.64745 0.22325 0.83546 0.0
C987 C 0.65588 0.20942 0.82934 0.0
C988 C 0.66861 0.20019 0.84099 0.0
C989 C 0.67288 0.20475 0.8588 0.0
C990 C 0.66451 0.21857 0.86498 0.0
C991 C 0.56933 0.25968 0.9122 0.0
C992 C 0.57791 0.25427 0.92888 0.0
C993 C 0.58281 0.26009 0.89682 0.0
C994 C 0.60517 0.25515 0.89779 0.0
C995 C 0.61367 0.24949 0.91431 0.0
C996 C 0.60023 0.24911 0.92971 0.0
C997 C 0.61982 0.25604 0.88166 0.0
C998 C 0.62962 0.24263 0.87536 0.0
C999 C 0.62377 0.26994 0.87231 0.0
C1000 C 0.61471 0.2846 0.87872 0.0
C1001 C 0.61945 0.28969 0.89638 0.0
C1002 C 0.61069 0.30346 0.90238 0.0
C1003 C 0.59731 0.31231 0.89079 0.0
C1004 C 0.59271 0.30743 0.87315 0.0
C1005 C 0.6014 0.29365 0.8671 0.0
H1006 H 0.59055 0.32297 0.89545 0.0
H1007 H 0.67512 0.18949 0.83623 0.0
H1008 H 0.23499 0.84796 0.66887 0.0
H1009 H 0.23656 0.87164 0.65114 0.0
H1010 H 0.25198 0.84609 0.60331 0.0
H1011 H 0.25095 0.8224 0.62104 0.0
H1012 H 0.27811 0.87164 0.60613 0.0
H1013 H 0.19945 0.85899 0.60975 0.0
H1014 H 0.16418 0.85248 0.62532 0.0
H1015 H 0.16737 0.89489 0.65387 0.0
H1016 H 0.20285 0.90156 0.63865 0.0
H1017 H 0.25453 0.92854 0.53968 0.0
H1018 H 0.25489 0.90527 0.55816 0.0
H1019 H 0.23575 0.93109 0.60486 0.0
H1020 H 0.23527 0.95439 0.58643 0.0
H1021 H 0.21188 0.90555 0.60307 0.0
H1022 H 0.29001 0.91855 0.59946 0.0
H1023 H 0.32547 0.92523 0.58428 0.0
H1024 H 0.32372 0.88254 0.55629 0.0
H1025 H 0.28807 0.87568 0.57113 0.0
C1026 C 0.23895 0.84739 0.65462 0.0
C1027 C 0.24275 0.83327 0.64636 0.0
C1028 C 0.23965 0.86093 0.64447 0.0
C1029 C 0.24413 0.86063 0.62584 0.0
C1030 C 0.24841 0.8466 0.61764 0.0
C1031 C 0.24763 0.83306 0.62777 0.0
C1032 C 0.24412 0.87491 0.61485 0.0
C1033 C 0.26354 0.87897 0.60528 0.0
C1034 C 0.2253 0.88466 0.61409 0.0
C1035 C 0.20393 0.8807 0.6232 0.0
C1036 C 0.19273 0.86687 0.61946 0.0
C1037 C 0.17268 0.86317 0.6282 0.0
C1038 C 0.16357 0.87325 0.64061 0.0
C1039 C 0.17446 0.88708 0.64427 0.0
C1040 C 0.19453 0.89084 0.63558 0.0
C1041 C 0.25059 0.92929 0.55392 0.0
C1042 C 0.24491 0.94334 0.56158 0.0
C1043 C 0.25081 0.91597 0.56448 0.0
C1044 C 0.2456 0.91643 0.58298 0.0
C1045 C 0.2398 0.93043 0.59063 0.0
C1046 C 0.23947 0.94374 0.58006 0.0
C1047 C 0.24588 0.90231 0.5943 0.0
C1048 C 0.22649 0.89826 0.60394 0.0
C1049 C 0.26477 0.8926 0.59518 0.0
C1050 C 0.28625 0.89667 0.58628 0.0
C1051 C 0.2971 0.91063 0.58997 0.0
C1052 C 0.31725 0.91445 0.58144 0.0
C1053 C 0.32681 0.90433 0.56929 0.0
C1054 C 0.31628 0.89037 0.56569 0.0
C1055 C 0.29611 0.8865 0.57416 0.0
H1056 H 0.34242 0.90731 0.5627 0.0
H1057 H 0.14805 0.87036 0.64737 0.0
H1058 H 0.71735 0.77053 0.20445 0.0
H1059 H 0.69394 0.76807 0.17714 0.0
H1060 H 0.63493 0.77773 0.20821 0.0
H1061 H 0.65818 0.77982 0.23567 0.0
H1062 H 0.62732 0.7544 0.18503 0.0
H1063 H 0.65827 0.80502 0.18182 0.0
H1064 H 0.68839 0.82451 0.18194 0.0
H1065 H 0.71767 0.80408 0.13528 0.0
H1066 H 0.68788 0.78432 0.13504 0.0
H1067 H 0.55285 0.77289 0.11202 0.0
H1068 H 0.57651 0.77391 0.13937 0.0
H1069 H 0.63464 0.7632 0.10777 0.0
H1070 H 0.61115 0.76238 0.08033 0.0
H1071 H 0.64292 0.78673 0.13106 0.0
H1072 H 0.61142 0.73632 0.13403 0.0
H1073 H 0.58106 0.71701 0.13389 0.0
H1074 H 0.55254 0.73722 0.18099 0.0
H1075 H 0.58257 0.75681 0.18126 0.0
C1076 C 0.69936 0.77197 0.20551 0.0
C1077 C 0.68965 0.77544 0.22223 0.0
C1078 C 0.68602 0.77069 0.18986 0.0
C1079 C 0.6627 0.77289 0.19059 0.0
C1080 C 0.65289 0.77604 0.20731 0.0
C1081 C 0.66623 0.77736 0.22296 0.0
C1082 C 0.64856 0.77205 0.17389 0.0
C1083 C 0.63056 0.7616 0.17331 0.0
C1084 C 0.65307 0.78122 0.15845 0.0
C1085 C 0.67098 0.7931 0.15853 0.0
C1086 C 0.67124 0.8046 0.17168 0.0
C1087 C 0.68823 0.81571 0.17175 0.0
C1088 C 0.70497 0.81551 0.15866 0.0
C1089 C 0.70472 0.80421 0.14544 0.0
C1090 C 0.68777 0.79306 0.14532 0.0
C1091 C 0.57069 0.77082 0.11089 0.0
C1092 C 0.58012 0.76752 0.09402 0.0
C1093 C 0.58416 0.77129 0.12654 0.0
C1094 C 0.60731 0.7685 0.12563 0.0
C1095 C 0.61681 0.76534 0.10879 0.0
C1096 C 0.60333 0.76476 0.09315 0.0
C1097 C 0.62168 0.76909 0.14221 0.0
C1098 C 0.63972 0.7795 0.14277 0.0
C1099 C 0.61717 0.75991 0.15764 0.0
C1100 C 0.59912 0.74813 0.15755 0.0
C1101 C 0.59857 0.73673 0.14427 0.0
C1102 C 0.58144 0.72572 0.14418 0.0
C1103 C 0.56485 0.72591 0.1574 0.0
C1104 C 0.56539 0.7371 0.17075 0.0
C1105 C 0.58247 0.74815 0.17088 0.0
H1106 H 0.5516 0.71737 0.15731 0.0
H1107 H 0.71811 0.82413 0.15874 0.0
H1108 H 0.77167 0.16191 0.68048 0.0
H1109 H 0.77703 0.14151 0.6588 0.0
H1110 H 0.78401 0.17473 0.61576 0.0
H1111 H 0.77782 0.19527 0.63736 0.0
H1112 H 0.75746 0.15191 0.60508 0.0
H1113 H 0.82979 0.15574 0.63262 0.0
H1114 H 0.85779 0.15722 0.65745 0.0
H1115 H 0.83784 0.11272 0.67626 0.0
H1116 H 0.80947 0.11105 0.65169 0.0
H1117 H 0.79395 0.09449 0.54374 0.0
H1118 H 0.79384 0.11725 0.56278 0.0
H1119 H 0.77978 0.08916 0.6096 0.0
H1120 H 0.78014 0.0664 0.59072 0.0
H1121 H 0.81285 0.11086 0.61631 0.0
H1122 H 0.73823 0.10864 0.58933 0.0
H1123 H 0.71146 0.10744 0.56359 0.0
H1124 H 0.73792 0.14964 0.54256 0.0
H1125 H 0.76502 0.15099 0.5681 0.0
C1126 C 0.77421 0.16491 0.66639 0.0
C1127 C 0.77425 0.18026 0.66068 0.0
C1128 C 0.77753 0.15322 0.65402 0.0
C1129 C 0.78121 0.15657 0.63566 0.0
C1130 C 0.7813 0.17187 0.62987 0.0
C1131 C 0.77794 0.1836 0.64227 0.0
C1132 C 0.78432 0.14401 0.62252 0.0
C1133 C 0.76986 0.14309 0.60738 0.0
C1134 C 0.80033 0.13239 0.62556 0.0
C1135 C 0.81736 0.13333 0.64039 0.0
C1136 C 0.83124 0.14631 0.64214 0.0
C1137 C 0.8472 0.14718 0.65615 0.0
C1138 C 0.84956 0.13509 0.66845 0.0
C1139 C 0.83598 0.12209 0.66673 0.0
C1140 C 0.81997 0.12117 0.65275 0.0
C1141 C 0.791 0.09317 0.55811 0.0
C1142 C 0.78694 0.07866 0.56572 0.0
C1143 C 0.79081 0.10618 0.56895 0.0
C1144 C 0.78663 0.10491 0.58758 0.0
C1145 C 0.783 0.09041 0.59525 0.0
C1146 C 0.78303 0.07743 0.58442 0.0
C1147 C 0.78572 0.11865 0.59915 0.0
C1148 C 0.80062 0.11978 0.61397 0.0
C1149 C 0.77029 0.13053 0.59571 0.0
C1150 C 0.75379 0.12984 0.58051 0.0
C1151 C 0.73843 0.11761 0.57915 0.0
C1152 C 0.72318 0.11691 0.56462 0.0
C1153 C 0.72303 0.12843 0.55142 0.0
C1154 C 0.73807 0.14071 0.55278 0.0
C1155 C 0.75336 0.14146 0.56729 0.0
H1156 H 0.71124 0.12786 0.54017 0.0
H1157 H 0.86193 0.13578 0.67928 0.0
H1158 H 0.37024 0.2439 0.23271 0.0
H1159 H 0.39318 0.24609 0.20557 0.0
H1160 H 0.33511 0.26056 0.17462 0.0
H1161 H 0.3119 0.25798 0.20162 0.0
H1162 H 0.35825 0.23941 0.15674 0.0
H1163 H 0.37573 0.28605 0.18714 0.0
H1164 H 0.38766 0.30222 0.21272 0.0
H1165 H 0.45179 0.2802 0.21449 0.0
H1166 H 0.44012 0.26374 0.18907 0.0
H1167 H 0.41733 0.26402 0.0787 0.0
H1168 H 0.39428 0.26363 0.10587 0.0
H1169 H 0.45122 0.24842 0.13768 0.0
H1170 H 0.47457 0.24918 0.11062 0.0
H1171 H 0.42831 0.27046 0.15494 0.0
H1172 H 0.41037 0.22348 0.12489 0.0
H1173 H 0.39836 0.2074 0.09926 0.0
H1174 H 0.33489 0.23025 0.0968 0.0
H1175 H 0.34666 0.24663 0.12227 0.0
C1176 C 0.36231 0.24748 0.22011 0.0
C1177 C 0.33922 0.25076 0.21935 0.0
C1178 C 0.3755 0.24887 0.20464 0.0
C1179 C 0.36593 0.25364 0.18808 0.0
C1180 C 0.34288 0.25691 0.18726 0.0
C1181 C 0.32968 0.25555 0.20274 0.0
C1182 C 0.37985 0.25485 0.17154 0.0
C1183 C 0.37338 0.24639 0.15626 0.0
C1184 C 0.39988 0.26367 0.17103 0.0
C1185 C 0.40696 0.27356 0.18632 0.0
C1186 C 0.39231 0.28457 0.19308 0.0
C1187 C 0.39904 0.2938 0.20754 0.0
C1188 C 0.42045 0.29221 0.21526 0.0
C1189 C 0.4352 0.2814 0.20851 0.0
C1190 C 0.42854 0.27213 0.19407 0.0
C1191 C 0.42503 0.26074 0.09151 0.0
C1192 C 0.4478 0.25659 0.09247 0.0
C1193 C 0.41177 0.26039 0.107 0.0
C1194 C 0.42094 0.25582 0.12378 0.0
C1195 C 0.44375 0.25193 0.12486 0.0
C1196 C 0.45703 0.25225 0.10936 0.0
C1197 C 0.40672 0.25501 0.14018 0.0
C1198 C 0.41314 0.26352 0.15542 0.0
C1199 C 0.38663 0.24625 0.14065 0.0
C1200 C 0.37949 0.23639 0.12537 0.0
C1201 C 0.39393 0.22516 0.11879 0.0
C1202 C 0.38715 0.21598 0.10431 0.0
C1203 C 0.3659 0.21783 0.09637 0.0
C1204 C 0.35136 0.22885 0.10294 0.0
C1205 C 0.35807 0.23808 0.11741 0.0
H1206 H 0.36068 0.2107 0.08517 0.0
H1207 H 0.42563 0.29938 0.22644 0.0
H1208 H 0.84975 0.68292 0.74832 0.0
H1209 H 0.87353 0.66109 0.74231 0.0
H1210 H 0.86238 0.66726 0.68488 0.0
H1211 H 0.83788 0.6889 0.69085 0.0
H1212 H 0.85812 0.63771 0.69456 0.0
H1213 H 0.91252 0.67726 0.70442 0.0
H1214 H 0.93073 0.69864 0.72055 0.0
H1215 H 0.9442 0.66937 0.76626 0.0
H1216 H 0.92579 0.64786 0.7505 0.0
H1217 H 0.94085 0.58304 0.67217 0.0
H1218 H 0.91997 0.60679 0.67448 0.0
H1219 H 0.92871 0.60567 0.73256 0.0
H1220 H 0.95049 0.58235 0.7303 0.0
H1221 H 0.93533 0.63365 0.72015 0.0
H1222 H 0.87861 0.5947 0.7112 0.0
H1223 H 0.86006 0.57331 0.6953 0.0
H1224 H 0.8508 0.60153 0.64802 0.0
H1225 H 0.86956 0.62304 0.66357 0.0
C1226 C 0.85222 0.6796 0.7344 0.0
C1227 C 0.84184 0.68766 0.72007 0.0
C1228 C 0.86604 0.6672 0.73097 0.0
C1229 C 0.86997 0.66262 0.71313 0.0
C1230 C 0.85967 0.67062 0.69876 0.0
C1231 C 0.84581 0.68306 0.70218 0.0
C1232 C 0.88436 0.64922 0.7096 0.0
C1233 C 0.87515 0.63693 0.69988 0.0
C1234 C 0.90643 0.64807 0.71683 0.0
C1235 C 0.91761 0.66097 0.72633 0.0
C1236 C 0.91922 0.6754 0.71797 0.0
C1237 C 0.9296 0.68754 0.72704 0.0
C1238 C 0.93858 0.68537 0.74443 0.0
C1239 C 0.93723 0.67104 0.75278 0.0
C1240 C 0.92685 0.65886 0.74378 0.0
C1241 C 0.93857 0.58793 0.68542 0.0
C1242 C 0.94729 0.58069 0.70106 0.0
C1243 C 0.9264 0.60144 0.68674 0.0
C1244 C 0.92246 0.60793 0.70372 0.0
C1245 C 0.93143 0.60086 0.71931 0.0
C1246 C 0.94369 0.58742 0.718 0.0
C1247 C 0.90897 0.62204 0.70536 0.0
C1248 C 0.91836 0.63447 0.71471 0.0
C1249 C 0.88706 0.62332 0.69781 0.0
C1250 C 0.8757 0.61042 0.68848 0.0
C1251 C 0.87277 0.5963 0.69736 0.0
C1252 C 0.86219 0.58417 0.68842 0.0
C1253 C 0.85431 0.58605 0.67064 0.0
C1254 C 0.85694 0.60009 0.66178 0.0
C1255 C 0.86753 0.61225 0.67066 0.0
H1256 H 0.84613 0.57664 0.66375 0.0
H1257 H 0.94661 0.69478 0.75143 0.0
H1258 H 0.85364 0.33774 0.27946 0.0
H1259 H 0.87822 0.35958 0.28538 0.0
H1260 H 0.86548 0.35528 0.34259 0.0
H1261 H 0.84021 0.33361 0.33669 0.0
H1262 H 0.86246 0.38446 0.33156 0.0
H1263 H 0.91586 0.34474 0.32543 0.0
H1264 H 0.93393 0.32279 0.31116 0.0
H1265 H 0.94929 0.3503 0.26446 0.0
H1266 H 0.93101 0.37237 0.27834 0.0
H1267 H 0.94682 0.44012 0.35303 0.0
H1268 H 0.92568 0.41608 0.35163 0.0
H1269 H 0.93274 0.41566 0.29358 0.0
H1270 H 0.95444 0.43941 0.29492 0.0
H1271 H 0.94006 0.38784 0.30796 0.0
H1272 H 0.88388 0.42685 0.31326 0.0
H1273 H 0.86564 0.44875 0.32753 0.0
H1274 H 0.85567 0.42234 0.37607 0.0
H1275 H 0.87414 0.40034 0.36216 0.0
C1276 C 0.85596 0.34146 0.29331 0.0
C1277 C 0.84487 0.33394 0.3076 0.0
C1278 C 0.87023 0.35386 0.2967 0.0
C1279 C 0.87392 0.35898 0.31446 0.0
C1280 C 0.86296 0.35149 0.32878 0.0
C1281 C 0.84866 0.33904 0.3254 0.0
C1282 C 0.88863 0.37248 0.31788 0.0
C1283 C 0.87958 0.38509 0.3267 0.0
C1284 C 0.91084 0.37342 0.31127 0.0
C1285 C 0.9219 0.36018 0.30287 0.0
C1286 C 0.92293 0.34608 0.31205 0.0
C1287 C 0.93324 0.33362 0.30405 0.0
C1288 C 0.94271 0.33514 0.2869 0.0
C1289 C 0.94193 0.34914 0.27774 0.0
C1290 C 0.93162 0.36163 0.28568 0.0
C1291 C 0.94407 0.43483 0.33998 0.0
C1292 C 0.95222 0.44175 0.32407 0.0
C1293 C 0.93182 0.42115 0.33919 0.0
C1294 C 0.92739 0.41414 0.32247 0.0
C1295 C 0.93588 0.42087 0.30662 0.0
C1296 C 0.9481 0.43453 0.3074 0.0
C1297 C 0.91375 0.39989 0.32136 0.0
C1298 C 0.92302 0.38714 0.31297 0.0
C1299 C 0.89176 0.39881 0.3284 0.0
C1300 C 0.88061 0.41201 0.33675 0.0
C1301 C 0.87796 0.42576 0.32703 0.0
C1302 C 0.86755 0.43818 0.33504 0.0
C1303 C 0.85956 0.43695 0.35271 0.0
C1304 C 0.86191 0.42329 0.36239 0.0
C1305 C 0.87233 0.41084 0.35445 0.0
H1306 H 0.8515 0.44658 0.35889 0.0
H1307 H 0.95069 0.32548 0.28072 0.0
H1308 H 0.15445 0.32432 0.7185 0.0
H1309 H 0.13032 0.34644 0.71359 0.0
H1310 H 0.18731 0.3726 0.69479 0.0
H1311 H 0.21152 0.35055 0.69975 0.0
H1312 H 0.16454 0.38841 0.7185 0.0
H1313 H 0.1455 0.35961 0.66549 0.0
H1314 H 0.13306 0.33697 0.64839 0.0
H1315 H 0.06998 0.33699 0.67598 0.0
H1316 H 0.08216 0.35951 0.69343 0.0
H1317 H 0.1048 0.45254 0.686 0.0
H1318 H 0.12766 0.42957 0.6873 0.0
H1319 H 0.07106 0.40381 0.70752 0.0
H1320 H 0.04781 0.42664 0.70563 0.0
H1321 H 0.09344 0.38775 0.68271 0.0
H1322 H 0.11279 0.41617 0.73607 0.0
H1323 H 0.12516 0.4388 0.75322 0.0
H1324 H 0.18777 0.43939 0.72492 0.0
H1325 H 0.17563 0.41687 0.70742 0.0
C1326 C 0.16177 0.33471 0.71305 0.0
C1327 C 0.18492 0.33568 0.70955 0.0
C1328 C 0.14795 0.34736 0.71025 0.0
C1329 C 0.15694 0.36118 0.70369 0.0
C1330 C 0.17999 0.36209 0.69992 0.0
C1331 C 0.19382 0.34948 0.7028 0.0
C1332 C 0.14259 0.3749 0.70151 0.0
C1333 C 0.14917 0.38832 0.71043 0.0
C1334 C 0.12221 0.3747 0.69139 0.0
C1335 C 0.11483 0.36116 0.68089 0.0
C1336 C 0.12905 0.35471 0.66802 0.0
C1337 C 0.12203 0.34191 0.65824 0.0
C1338 C 0.10077 0.33552 0.66113 0.0
C1339 C 0.08645 0.34194 0.67377 0.0
C1340 C 0.0934 0.35473 0.6836 0.0
C1341 C 0.09709 0.44196 0.69049 0.0
C1342 C 0.07446 0.44148 0.69579 0.0
C1343 C 0.11027 0.42885 0.6914 0.0
C1344 C 0.10118 0.415 0.69776 0.0
C1345 C 0.07847 0.41438 0.70265 0.0
C1346 C 0.06526 0.42748 0.70172 0.0
C1347 C 0.11548 0.40124 0.69962 0.0
C1348 C 0.10885 0.38783 0.69071 0.0
C1349 C 0.13584 0.40142 0.70975 0.0
C1350 C 0.14321 0.41492 0.72032 0.0
C1351 C 0.12912 0.42119 0.73341 0.0
C1352 C 0.13611 0.43399 0.74321 0.0
C1353 C 0.15721 0.44055 0.74013 0.0
C1354 C 0.17141 0.43431 0.72727 0.0
C1355 C 0.1645 0.42152 0.71742 0.0
H1356 H 0.16259 0.45046 0.74773 0.0
H1357 H 0.09537 0.32561 0.65355 0.0
H1358 H 0.20362 0.68313 0.32413 0.0
H1359 H 0.18307 0.65886 0.32423 0.0
H1360 H 0.12055 0.68288 0.31749 0.0
H1361 H 0.14101 0.70719 0.31758 0.0
H1362 H 0.11603 0.66126 0.34211 0.0
H1363 H 0.14543 0.66374 0.28204 0.0
H1364 H 0.17464 0.66664 0.25883 0.0
H1365 H 0.20875 0.62739 0.28029 0.0
H1366 H 0.1799 0.62438 0.30379 0.0
H1367 H 0.04802 0.59755 0.31737 0.0
H1368 H 0.06899 0.62167 0.31665 0.0
H1369 H 0.13051 0.59764 0.3281 0.0
H1370 H 0.10968 0.57342 0.32852 0.0
H1371 H 0.13555 0.61907 0.30104 0.0
H1372 H 0.1055 0.61679 0.36112 0.0
H1373 H 0.07563 0.61391 0.38377 0.0
H1374 H 0.04194 0.653 0.36146 0.0
H1375 H 0.07147 0.65599 0.3385 0.0
C1376 C 0.18551 0.68323 0.32251 0.0
C1377 C 0.17396 0.69709 0.3208 0.0
C1378 C 0.17377 0.66934 0.32256 0.0
C1379 C 0.15025 0.669 0.32064 0.0
C1380 C 0.13868 0.68283 0.31901 0.0
C1381 C 0.15039 0.69673 0.3191 0.0
C1382 C 0.13767 0.65425 0.3206 0.0
C1383 C 0.12012 0.65213 0.33294 0.0
C1384 C 0.14326 0.64216 0.30892 0.0
C1385 C 0.16062 0.64393 0.29479 0.0
C1386 C 0.15926 0.6558 0.2819 0.0
C1387 C 0.17573 0.65745 0.26868 0.0
C1388 C 0.19357 0.64723 0.26812 0.0
C1389 C 0.19494 0.63531 0.28076 0.0
C1390 C 0.17852 0.63362 0.29402 0.0
C1391 C 0.06604 0.59739 0.31959 0.0
C1392 C 0.07718 0.58357 0.32304 0.0
C1393 C 0.07797 0.61119 0.31932 0.0
C1394 C 0.10129 0.61147 0.32249 0.0
C1395 C 0.11252 0.59769 0.32568 0.0
C1396 C 0.10057 0.58388 0.32605 0.0
C1397 C 0.11395 0.62615 0.32251 0.0
C1398 C 0.1315 0.62823 0.31018 0.0
C1399 C 0.10828 0.63824 0.33412 0.0
C1400 C 0.09058 0.63652 0.34798 0.0
C1401 C 0.09163 0.6247 0.36095 0.0
C1402 C 0.07478 0.62306 0.37386 0.0
C1403 C 0.05687 0.63325 0.37403 0.0
C1404 C 0.05581 0.64511 0.3613 0.0
C1405 C 0.07261 0.64679 0.34835 0.0
H1406 H 0.04384 0.63196 0.38403 0.0
H1407 H 0.20631 0.64853 0.25787 0.0
H1408 H 0.75345 0.83151 0.64899 0.0
H1409 H 0.75219 0.85494 0.63077 0.0
H1410 H 0.82434 0.8591 0.6348 0.0
H1411 H 0.82569 0.8359 0.6534 0.0
H1412 H 0.80412 0.88627 0.64002 0.0
H1413 H 0.79948 0.8459 0.59646 0.0
H1414 H 0.78387 0.82244 0.58289 0.0
H1415 H 0.72014 0.84423 0.575 0.0
H1416 H 0.73529 0.86777 0.58877 0.0
H1417 H 0.82201 0.94059 0.57006 0.0
H1418 H 0.82218 0.91746 0.58872 0.0
H1419 H 0.75029 0.91325 0.58206 0.0
H1420 H 0.75008 0.93607 0.56278 0.0
H1421 H 0.76961 0.88622 0.5785 0.0
H1422 H 0.77401 0.92666 0.62153 0.0
H1423 H 0.7892 0.95016 0.63529 0.0
H1424 H 0.85272 0.92841 0.64449 0.0
H1425 H 0.838 0.90483 0.63055 0.0
C1426 C 0.76904 0.83749 0.64615 0.0
C1427 C 0.78969 0.83179 0.6526 0.0
C1428 C 0.7683 0.85081 0.6356 0.0
C1429 C 0.7882 0.85868 0.63124 0.0
C1430 C 0.80879 0.85318 0.63793 0.0
C1431 C 0.80955 0.83985 0.64843 0.0
C1432 C 0.78759 0.87263 0.61965 0.0
C1433 C 0.79683 0.88622 0.62648 0.0
C1434 C 0.77757 0.87266 0.60216 0.0
C1435 C 0.76845 0.85854 0.59382 0.0
C1436 C 0.78208 0.84565 0.59197 0.0
C1437 C 0.77333 0.83235 0.58421 0.0
C1438 C 0.75101 0.83183 0.57813 0.0
C1439 C 0.73741 0.84464 0.57974 0.0
C1440 C 0.74608 0.85797 0.58751 0.0
C1441 C 0.80624 0.93467 0.57238 0.0
C1442 C 0.78601 0.94024 0.56492 0.0
C1443 C 0.80634 0.92152 0.58324 0.0
C1444 C 0.7862 0.91372 0.58703 0.0
C1445 C 0.76602 0.91911 0.57941 0.0
C1446 C 0.76591 0.93224 0.56851 0.0
C1447 C 0.78622 0.89988 0.59884 0.0
C1448 C 0.77687 0.8863 0.59205 0.0
C1449 C 0.79607 0.89987 0.6164 0.0
C1450 C 0.80496 0.91402 0.62484 0.0
C1451 C 0.79127 0.92692 0.62636 0.0
C1452 C 0.79979 0.94025 0.63421 0.0
C1453 C 0.82193 0.94079 0.64072 0.0
C1454 C 0.83558 0.92798 0.63943 0.0
C1455 C 0.82715 0.91463 0.63156 0.0
H1456 H 0.82849 0.95112 0.6468 0.0
H1457 H 0.74426 0.82152 0.57213 0.0
H1458 H 0.71123 0.2349 0.20381 0.0
H1459 H 0.68737 0.23732 0.17671 0.0
H1460 H 0.63931 0.26288 0.20705 0.0
H1461 H 0.66302 0.26037 0.23428 0.0
H1462 H 0.61937 0.24027 0.18622 0.0
H1463 H 0.67234 0.28123 0.17823 0.0
H1464 H 0.70999 0.29307 0.17641 0.0
H1465 H 0.72587 0.26436 0.13165 0.0
H1466 H 0.6884 0.25218 0.13336 0.0
H1467 H 0.55346 0.26373 0.11038 0.0
H1468 H 0.57694 0.26356 0.13774 0.0
H1469 H 0.6303 0.24241 0.10831 0.0
H1470 H 0.60741 0.24327 0.08068 0.0
H1471 H 0.64717 0.26369 0.12924 0.0
H1472 H 0.59547 0.22195 0.13767 0.0
H1473 H 0.55822 0.20951 0.13938 0.0
H1474 H 0.54046 0.23877 0.18314 0.0
H1475 H 0.57752 0.25153 0.18153 0.0
C1476 C 0.69554 0.24099 0.20472 0.0
C1477 C 0.689 0.24745 0.22118 0.0
C1478 C 0.68201 0.24246 0.1892 0.0
C1479 C 0.66164 0.25038 0.18983 0.0
C1480 C 0.65499 0.25677 0.20626 0.0
C1481 C 0.66862 0.25541 0.22176 0.0
C1482 C 0.64713 0.25176 0.1734 0.0
C1483 C 0.62531 0.2456 0.17383 0.0
C1484 C 0.6551 0.25838 0.15712 0.0
C1485 C 0.67763 0.26569 0.15604 0.0
C1486 C 0.68392 0.27735 0.1681 0.0
C1487 C 0.70522 0.28414 0.16707 0.0
C1488 C 0.72033 0.27944 0.15395 0.0
C1489 C 0.71415 0.26797 0.14181 0.0
C1490 C 0.69288 0.26113 0.1428 0.0
C1491 C 0.57029 0.2592 0.10964 0.0
C1492 C 0.57846 0.25345 0.09328 0.0
C1493 C 0.58362 0.25895 0.12538 0.0
C1494 C 0.6053 0.25275 0.12519 0.0
C1495 C 0.6136 0.24718 0.10884 0.0
C1496 C 0.60036 0.24753 0.09308 0.0
C1497 C 0.61939 0.25209 0.14198 0.0
C1498 C 0.64116 0.2584 0.14163 0.0
C1499 C 0.61143 0.2455 0.1583 0.0
C1500 C 0.58918 0.2378 0.15935 0.0
C1501 C 0.58356 0.22581 0.14757 0.0
C1502 C 0.56249 0.21868 0.14853 0.0
C1503 C 0.54696 0.22337 0.16133 0.0
C1504 C 0.55249 0.23517 0.17322 0.0
C1505 C 0.57353 0.24234 0.1723 0.0
H1506 H 0.53065 0.21785 0.16205 0.0
H1507 H 0.73681 0.28472 0.15317 0.0
H1508 H 0.20173 0.18756 0.6445 0.0
H1509 H 0.20363 0.16426 0.62672 0.0
H1510 H 0.276 0.16554 0.63065 0.0
H1511 H 0.27425 0.18915 0.64798 0.0
H1512 H 0.26242 0.15923 0.59673 0.0
H1513 H 0.24554 0.14035 0.65598 0.0
H1514 H 0.22481 0.13849 0.68463 0.0
H1515 H 0.16487 0.12548 0.65547 0.0
H1516 H 0.18516 0.12747 0.6266 0.0
H1517 H 0.27866 0.08327 0.56605 0.0
H1518 H 0.27817 0.10633 0.58436 0.0
H1519 H 0.20595 0.10771 0.57943 0.0
H1520 H 0.20627 0.08482 0.5608 0.0
H1521 H 0.22044 0.11237 0.61433 0.0
H1522 H 0.23764 0.1318 0.55498 0.0
H1523 H 0.25882 0.13342 0.52653 0.0
H1524 H 0.31887 0.14513 0.55633 0.0
H1525 H 0.2981 0.14336 0.585 0.0
C1526 C 0.21807 0.18295 0.64149 0.0
C1527 C 0.23784 0.19024 0.64768 0.0
C1528 C 0.21912 0.16954 0.63147 0.0
C1529 C 0.23995 0.16304 0.6275 0.0
C1530 C 0.25973 0.17031 0.63359 0.0
C1531 C 0.2587 0.18374 0.64363 0.0
C1532 C 0.24106 0.1488 0.61676 0.0
C1533 C 0.25352 0.14892 0.60074 0.0
C1534 C 0.22909 0.13542 0.62177 0.0
C1535 C 0.21682 0.13421 0.63911 0.0
C1536 C 0.22789 0.13722 0.65566 0.0
C1537 C 0.21623 0.13612 0.67194 0.0
C1538 C 0.19352 0.13191 0.67187 0.0
C1539 C 0.18245 0.12876 0.65551 0.0
C1540 C 0.19402 0.12986 0.63918 0.0
C1541 C 0.26267 0.08856 0.56864 0.0
C1542 C 0.2425 0.08216 0.56187 0.0
C1543 C 0.26243 0.10173 0.57919 0.0
C1544 C 0.24203 0.1088 0.58317 0.0
C1545 C 0.22187 0.10241 0.57658 0.0
C1546 C 0.2221 0.08928 0.56597 0.0
C1547 C 0.24169 0.12284 0.59428 0.0
C1548 C 0.22938 0.12268 0.61037 0.0
C1549 C 0.25386 0.13616 0.58937 0.0
C1550 C 0.26637 0.13729 0.57215 0.0
C1551 C 0.2554 0.13459 0.55548 0.0
C1552 C 0.26733 0.13556 0.53931 0.0
C1553 C 0.29019 0.13933 0.53962 0.0
C1554 C 0.30116 0.14219 0.55611 0.0
C1555 C 0.28932 0.14121 0.57232 0.0
H1556 H 0.29939 0.14008 0.52709 0.0
H1557 H 0.18453 0.13106 0.68449 0.0
H1558 H 0.35904 0.75604 0.22975 0.0
H1559 H 0.38507 0.758 0.20443 0.0
H1560 H 0.33013 0.77009 0.16858 0.0
H1561 H 0.30403 0.76799 0.1938 0.0
H1562 H 0.355 0.74931 0.15345 0.0
H1563 H 0.36995 0.79668 0.18358 0.0
H1564 H 0.37989 0.81319 0.20938 0.0
H1565 H 0.44359 0.79095 0.21509 0.0
H1566 H 0.43391 0.77416 0.18947 0.0
H1567 H 0.41743 0.77445 0.07797 0.0
H1568 H 0.39327 0.77372 0.10445 0.0
H1569 H 0.4492 0.75903 0.13776 0.0
H1570 H 0.47371 0.76017 0.11136 0.0
H1571 H 0.42473 0.78075 0.15451 0.0
H1572 H 0.40965 0.73362 0.124 0.0
H1573 H 0.39963 0.71738 0.09798 0.0
H1574 H 0.33582 0.73955 0.09287 0.0
H1575 H 0.34559 0.75608 0.11871 0.0
C1576 C 0.35257 0.75931 0.21651 0.0
C1577 C 0.32947 0.76185 0.21378 0.0
C1578 C 0.36747 0.76043 0.20204 0.0
C1579 C 0.35962 0.76433 0.18459 0.0
C1580 C 0.33659 0.76702 0.18189 0.0
C1581 C 0.32168 0.7658 0.19631 0.0
C1582 C 0.37521 0.7651 0.16899 0.0
C1583 C 0.37007 0.75636 0.15361 0.0
C1584 C 0.39523 0.77396 0.16933 0.0
C1585 C 0.4011 0.78406 0.18472 0.0
C1586 C 0.38601 0.79523 0.19043 0.0
C1587 C 0.3916 0.80465 0.205 0.0
C1588 C 0.41233 0.80309 0.2139 0.0
C1589 C 0.42753 0.79213 0.20821 0.0
C1590 C 0.422 0.78267 0.19365 0.0
C1591 C 0.42469 0.77123 0.09096 0.0
C1592 C 0.44753 0.76735 0.09253 0.0
C1593 C 0.41079 0.77067 0.10606 0.0
C1594 C 0.41935 0.76614 0.12306 0.0
C1595 C 0.44221 0.7625 0.12477 0.0
C1596 C 0.45615 0.76304 0.10964 0.0
C1597 C 0.40435 0.76508 0.13897 0.0
C1598 C 0.40963 0.77371 0.15439 0.0
C1599 C 0.38441 0.75616 0.13867 0.0
C1600 C 0.37845 0.74618 0.12319 0.0
C1601 C 0.39355 0.73511 0.11724 0.0
C1602 C 0.3879 0.72584 0.10254 0.0
C1603 C 0.36712 0.72746 0.09375 0.0
C1604 C 0.35192 0.73832 0.09967 0.0
C1605 C 0.3575 0.74764 0.11436 0.0
H1606 H 0.36278 0.72027 0.08237 0.0
H1607 H 0.41663 0.8104 0.22518 0.0
H1608 H 0.82578 0.18772 0.37762 0.0
H1609 H 0.82437 0.16433 0.39578 0.0
H1610 H 0.75198 0.16407 0.39198 0.0
H1611 H 0.75323 0.18777 0.37423 0.0
H1612 H 0.76599 0.15769 0.42605 0.0
H1613 H 0.78266 0.13989 0.3667 0.0
H1614 H 0.80323 0.13887 0.33797 0.0
H1615 H 0.86361 0.1268 0.36691 0.0
H1616 H 0.84347 0.12796 0.39586 0.0
H1617 H 0.75112 0.08079 0.45649 0.0
H1618 H 0.75112 0.10429 0.43846 0.0
H1619 H 0.82334 0.10701 0.44311 0.0
H1620 H 0.8235 0.0837 0.4615 0.0
H1621 H 0.80848 0.1119 0.40827 0.0
H1622 H 0.79169 0.13006 0.46768 0.0
H1623 H 0.77087 0.13085 0.49632 0.0
H1624 H 0.71033 0.14197 0.46705 0.0
H1625 H 0.73072 0.14103 0.4382 0.0
C1626 C 0.80953 0.18277 0.38075 0.0
C1627 C 0.78961 0.18964 0.37445 0.0
C1628 C 0.80876 0.1693 0.391 0.0
C1629 C 0.78807 0.16233 0.39509 0.0
C1630 C 0.76814 0.16921 0.38895 0.0
C1631 C 0.76889 0.18268 0.37867 0.0
C1632 C 0.7873 0.14795 0.40591 0.0
C1633 C 0.775 0.1476 0.42202 0.0
C1634 C 0.79943 0.13488 0.40086 0.0
C1635 C 0.8116 0.13416 0.38347 0.0
C1636 C 0.80037 0.13714 0.36696 0.0
C1637 C 0.81194 0.13651 0.35063 0.0
C1638 C 0.83472 0.13281 0.35062 0.0
C1639 C 0.84597 0.12968 0.36694 0.0
C1640 C 0.83448 0.13031 0.38331 0.0
C1641 C 0.767 0.08647 0.45391 0.0
C1642 C 0.78732 0.08032 0.46051 0.0
C1643 C 0.76697 0.09989 0.44352 0.0
C1644 C 0.78722 0.10745 0.43952 0.0
C1645 C 0.80752 0.10132 0.44598 0.0
C1646 C 0.80757 0.08795 0.45644 0.0
C1647 C 0.78728 0.12167 0.42844 0.0
C1648 C 0.79943 0.12198 0.41227 0.0
C1649 C 0.77498 0.13468 0.43342 0.0
C1650 C 0.76269 0.13532 0.45076 0.0
C1651 C 0.77389 0.13255 0.46734 0.0
C1652 C 0.76218 0.13305 0.48361 0.0
C1653 C 0.73928 0.13642 0.48351 0.0
C1654 C 0.72806 0.13934 0.46712 0.0
C1655 C 0.73969 0.13884 0.4508 0.0
H1656 H 0.73024 0.1368 0.49612 0.0
H1657 H 0.84365 0.13232 0.33796 0.0
H1658 H 0.31054 0.25546 0.81654 0.0
H1659 H 0.33399 0.25784 0.84383 0.0
H1660 H 0.39249 0.24614 0.81315 0.0
H1661 H 0.36913 0.24373 0.78583 0.0
H1662 H 0.39159 0.23059 0.84424 0.0
H1663 H 0.38269 0.28306 0.82652 0.0
H1664 H 0.36154 0.30614 0.81803 0.0
H1665 H 0.32852 0.30507 0.86941 0.0
H1666 H 0.34926 0.28185 0.87811 0.0
H1667 H 0.47435 0.25008 0.91 0.0
H1668 H 0.45111 0.24931 0.88247 0.0
H1669 H 0.39301 0.26154 0.91334 0.0
H1670 H 0.41622 0.26245 0.9409 0.0
H1671 H 0.39356 0.27696 0.88221 0.0
H1672 H 0.40185 0.22452 0.8999 0.0
H1673 H 0.42263 0.20134 0.90859 0.0
H1674 H 0.45623 0.20216 0.85746 0.0
H1675 H 0.43586 0.22548 0.84856 0.0
C1676 C 0.32844 0.25357 0.81555 0.0
C1677 C 0.33796 0.2494 0.79899 0.0
C1678 C 0.34183 0.25493 0.83118 0.0
C1679 C 0.36506 0.25231 0.83053 0.0
C1680 C 0.37461 0.24819 0.814 0.0
C1681 C 0.36122 0.24677 0.7984 0.0
C1682 C 0.37936 0.25346 0.84714 0.0
C1683 C 0.39226 0.24081 0.85239 0.0
C1684 C 0.3798 0.26664 0.85807 0.0
C1685 C 0.36737 0.28063 0.85289 0.0
C1686 C 0.37079 0.28768 0.83595 0.0
C1687 C 0.3589 0.3008 0.83111 0.0
C1688 C 0.34365 0.30705 0.84316 0.0
C1689 C 0.34031 0.30021 0.86008 0.0
C1690 C 0.35215 0.28707 0.86498 0.0
C1691 C 0.4566 0.25253 0.91094 0.0
C1692 C 0.44711 0.25625 0.92765 0.0
C1693 C 0.44332 0.25209 0.89518 0.0
C1694 C 0.42022 0.25516 0.89585 0.0
C1695 C 0.41078 0.25914 0.91247 0.0
C1696 C 0.42408 0.25968 0.92821 0.0
C1697 C 0.40586 0.25411 0.87926 0.0
C1698 C 0.39291 0.26675 0.87404 0.0
C1699 C 0.40531 0.2409 0.86836 0.0
C1700 C 0.41749 0.22683 0.87364 0.0
C1701 C 0.41379 0.21982 0.89056 0.0
C1702 C 0.42548 0.20664 0.89552 0.0
C1703 C 0.44078 0.2003 0.8836 0.0
C1704 C 0.44439 0.20709 0.86668 0.0
C1705 C 0.43277 0.22028 0.86167 0.0
H1706 H 0.44982 0.1901 0.88746 0.0
H1707 H 0.33446 0.3172 0.83939 0.0
H1708 H 0.24799 0.8287 0.38278 0.0
H1709 H 0.24438 0.84977 0.40406 0.0
H1710 H 0.26243 0.88177 0.36189 0.0
H1711 H 0.26587 0.86086 0.34056 0.0
H1712 H 0.28579 0.88727 0.3925 0.0
H1713 H 0.20824 0.87802 0.37618 0.0
H1714 H 0.17376 0.86249 0.37249 0.0
H1715 H 0.17396 0.85258 0.42955 0.0
H1716 H 0.20864 0.86789 0.43354 0.0
H1717 H 0.25662 0.95732 0.43099 0.0
H1718 H 0.25798 0.9348 0.41187 0.0
H1719 H 0.23899 0.90639 0.45724 0.0
H1720 H 0.23759 0.92896 0.47652 0.0
H1721 H 0.21664 0.89797 0.42682 0.0
H1722 H 0.29323 0.90781 0.44349 0.0
H1723 H 0.32771 0.92329 0.44742 0.0
H1724 H 0.32965 0.93174 0.39009 0.0
H1725 H 0.29497 0.91649 0.38584 0.0
C1726 C 0.25091 0.84024 0.37797 0.0
C1727 C 0.25733 0.84306 0.35996 0.0
C1728 C 0.24888 0.85227 0.39017 0.0
C1729 C 0.25306 0.86737 0.38456 0.0
C1730 C 0.25925 0.87022 0.36656 0.0
C1731 C 0.26129 0.85822 0.35439 0.0
C1732 C 0.25163 0.88024 0.39747 0.0
C1733 C 0.27058 0.8897 0.39984 0.0
C1734 C 0.23203 0.88315 0.4075 0.0
C1735 C 0.21117 0.87396 0.40512 0.0
C1736 C 0.20104 0.87242 0.38792 0.0
C1737 C 0.18144 0.86368 0.38578 0.0
C1738 C 0.17171 0.85652 0.40077 0.0
C1739 C 0.18154 0.85812 0.41794 0.0
C1740 C 0.20116 0.86683 0.42015 0.0
C1741 C 0.2529 0.94628 0.43696 0.0
C1742 C 0.24721 0.94493 0.45534 0.0
C1743 C 0.25364 0.9334 0.426 0.0
C1744 C 0.24893 0.91886 0.43317 0.0
C1745 C 0.24273 0.91749 0.45141 0.0
C1746 C 0.2419 0.9304 0.4624 0.0
C1747 C 0.25069 0.90513 0.42161 0.0
C1748 C 0.23188 0.89549 0.41953 0.0
C1749 C 0.27045 0.902 0.41187 0.0
C1750 C 0.29139 0.91111 0.41437 0.0
C1751 C 0.30091 0.91306 0.43173 0.0
C1752 C 0.32051 0.92178 0.43402 0.0
C1753 C 0.33083 0.92852 0.41902 0.0
C1754 C 0.32162 0.92652 0.4017 0.0
C1755 C 0.302 0.91783 0.39934 0.0
H1756 H 0.34601 0.93527 0.42082 0.0
H1757 H 0.15653 0.84976 0.39909 0.0
H1758 H 0.67909 0.75205 0.79915 0.0
H1759 H 0.65596 0.74975 0.82621 0.0
H1760 H 0.67377 0.79581 0.84095 0.0
H1761 H 0.69747 0.79803 0.81424 0.0
H1762 H 0.67542 0.77727 0.86994 0.0
H1763 H 0.62278 0.78743 0.82161 0.0
H1764 H 0.60416 0.78325 0.79203 0.0
H1765 H 0.58296 0.73858 0.80932 0.0
H1766 H 0.60173 0.74241 0.83894 0.0
H1767 H 0.5896 0.79169 0.93318 0.0
H1768 H 0.61332 0.79238 0.90635 0.0
H1769 H 0.59665 0.74533 0.89571 0.0
H1770 H 0.57266 0.74461 0.92245 0.0
H1771 H 0.59458 0.76339 0.86485 0.0
H1772 H 0.64641 0.75369 0.91363 0.0
H1773 H 0.66477 0.75816 0.94325 0.0
H1774 H 0.68728 0.80229 0.9251 0.0
H1775 H 0.66876 0.79819 0.89543 0.0
C1776 C 0.67827 0.76164 0.80824 0.0
C1777 C 0.69007 0.77525 0.80447 0.0
C1778 C 0.66487 0.76035 0.82362 0.0
C1779 C 0.66289 0.77268 0.8355 0.0
C1780 C 0.67495 0.78618 0.83194 0.0
C1781 C 0.68834 0.78747 0.81658 0.0
C1782 C 0.64823 0.77155 0.85163 0.0
C1783 C 0.65769 0.77441 0.86879 0.0
C1784 C 0.6252 0.76747 0.8502 0.0
C1785 C 0.61387 0.76514 0.83242 0.0
C1786 C 0.6143 0.77666 0.81905 0.0
C1787 C 0.6037 0.77437 0.80229 0.0
C1788 C 0.59244 0.76064 0.79878 0.0
C1789 C 0.59172 0.7492 0.81205 0.0
C1790 C 0.60232 0.75143 0.82883 0.0
C1791 C 0.59084 0.78152 0.92505 0.0
C1792 C 0.57929 0.76808 0.92995 0.0
C1793 C 0.60454 0.7819 0.9098 0.0
C1794 C 0.60692 0.76886 0.89913 0.0
C1795 C 0.59511 0.7555 0.90379 0.0
C1796 C 0.58153 0.75508 0.91913 0.0
C1797 C 0.62175 0.76921 0.88311 0.0
C1798 C 0.61233 0.7662 0.86598 0.0
C1799 C 0.6448 0.77319 0.88455 0.0
C1800 C 0.656 0.77569 0.90236 0.0
C1801 C 0.65511 0.76441 0.916 0.0
C1802 C 0.66558 0.76686 0.93279 0.0
C1803 C 0.67713 0.78052 0.93607 0.0
C1804 C 0.67829 0.79173 0.92254 0.0
C1805 C 0.66783 0.78934 0.90573 0.0
H1806 H 0.68523 0.78239 0.94908 0.0
H1807 H 0.58423 0.75889 0.78579 0.0
loop_
_geom_bond_atom_site_label_1
_geom_bond_atom_site_label_2
_geom_bond_distance
_geom_bond_site_symmetry_2
_ccdc_geom_bond_type
C0 C1 1.264 . S
C0 C5 1.479 . S
C0 C10 1.465 . S
C1 C0 1.264 . S
C1 C3 1.339 . S
C1 H28 0.931 . S
C2 C3 1.395 . S
C2 C4 1.320 . S
C3 C1 1.339 . S
C3 C2 1.395 . S
C3 H29 0.929 . S
C4 C2 1.320 . S
C4 C5 1.405 . S
C4 H30 0.930 . S
C5 C0 1.479 . S
C5 C4 1.405 . S
C5 H31 0.931 . S
U6 O7 2.454 . S
U6 O8 2.458 . S
U6 C9 2.984 . S
U6 C10 2.847 . S
U6 C23 2.882 . S
U6 O24 2.441 . S
U6 O25 2.420 . S
U6 O26 2.455 . S
U6 O27 2.449 . S
O7 U6 2.454 . S
O7 C9 1.353 . S
O8 U6 2.458 . S
O8 C9 1.286 . S
C9 U6 2.984 . S
C9 O7 1.353 . S
C9 O8 1.286 . S
C9 C11 1.363 . S
C10 C0 1.465 . S
C10 U6 2.847 . S
C10 O24 1.249 . S
C10 O25 1.202 . S
C11 C9 1.363 . S
C11 C13 1.408 . S
C11 C16 1.342 . S
C12 C13 1.310 . S
C12 C15 1.461 . S
C12 H32 0.932 . S
C13 C11 1.408 . S
C13 C12 1.310 . S
C13 H33 0.930 . S
C14 C15 1.474 . S
C14 C16 1.285 . S
C14 H34 0.929 . S
C15 C12 1.461 . S
C15 C14 1.474 . S
C16 C11 1.342 . S
C16 C14 1.285 . S
C16 H35 0.930 . S
C17 C20 1.424 . S
C17 C22 1.245 . S
C17 C23 1.428 . S
C18 C21 1.260 . S
C18 C22 1.477 . S
C18 H36 0.932 . S
C19 C20 1.384 . S
C19 C21 1.479 . S
C19 H37 0.929 . S
C20 C17 1.424 . S
C20 C19 1.384 . S
C20 H38 0.928 . S
C21 C18 1.260 . S
C21 C19 1.479 . S
C22 C17 1.245 . S
C22 C18 1.477 . S
C22 H39 0.932 . S
C23 U6 2.882 . S
C23 C17 1.428 . S
C23 O26 1.301 . S
C23 O27 1.282 . S
O24 U6 2.441 . S
O24 C10 1.249 . S
O25 U6 2.420 . S
O25 C10 1.202 . S
O26 U6 2.455 . S
O26 C23 1.301 . S
O27 U6 2.449 . S
O27 C23 1.282 . S
H28 C1 0.931 . S
H29 C3 0.929 . S
H30 C4 0.930 . S
H31 C5 0.931 . S
H32 C12 0.932 . S
H33 C13 0.930 . S
H34 C14 0.929 . S
H35 C16 0.930 . S
H36 C18 0.932 . S
H37 C19 0.929 . S
H38 C20 0.928 . S
H39 C22 0.932 . S
C40 C41 1.264 . S
C40 C45 1.479 . S
C40 C50 1.465 . S
C41 C40 1.264 . S
C41 C43 1.339 . S
C41 H68 0.931 . S
C42 C43 1.395 . S
C42 C44 1.320 . S
C43 C41 1.339 . S
C43 C42 1.395 . S
C43 H69 0.929 . S
C44 C42 1.320 . S
C44 C45 1.405 . S
C44 H70 0.930 . S
C45 C40 1.479 . S
C45 C44 1.405 . S
C45 H71 0.931 . S
U46 O47 2.454 . S
U46 O48 2.458 . S
U46 C49 2.984 . S
U46 C50 2.847 . S
U46 C63 2.882 . S
U46 O64 2.441 . S
U46 O65 2.420 . S
U46 O66 2.455 . S
U46 O67 2.449 . S
O47 U46 2.454 . S
O47 C49 1.353 . S
O48 U46 2.458 . S
O48 C49 1.286 . S
C49 U46 2.984 . S
C49 O47 1.353 . S
C49 O48 1.286 . S
C49 C51 1.363 . S
C50 C40 1.465 . S
C50 U46 2.847 . S
C50 O64 1.249 . S
C50 O65 1.202 . S
C51 C49 1.363 . S
C51 C53 1.408 . S
C51 C56 1.342 . S
C52 C53 1.310 . S
C52 C55 1.461 . S
C52 H72 0.932 . S
C53 C51 1.408 . S
C53 C52 1.310 . S
C53 H73 0.930 . S
C54 C55 1.474 . S
C54 C56 1.285 . S
C54 H74 0.929 . S
C55 C52 1.461 . S
C55 C54 1.474 . S
C56 C51 1.342 . S
C56 C54 1.285 . S
C56 H75 0.930 . S
C57 C60 1.424 . S
C57 C62 1.245 . S
C57 C63 1.428 . S
C58 C61 1.260 . S
C58 C62 1.477 . S
C58 H76 0.932 . S
C59 C60 1.384 . S
C59 C61 1.479 . S
C59 H77 0.929 . S
C60 C57 1.424 . S
C60 C59 1.384 . S
C60 H78 0.928 . S
C61 C58 1.260 . S
C61 C59 1.479 . S
C62 C57 1.245 . S
C62 C58 1.477 . S
C62 H79 0.932 . S
C63 U46 2.882 . S
C63 C57 1.428 . S
C63 O66 1.301 . S
C63 O67 1.282 . S
O64 U46 2.441 . S
O64 C50 1.249 . S
O65 U46 2.420 . S
O65 C50 1.202 . S
O66 U46 2.455 . S
O66 C63 1.301 . S
O67 U46 2.449 . S
O67 C63 1.282 . S
H68 C41 0.931 . S
H69 C43 0.929 . S
H70 C44 0.930 . S
H71 C45 0.931 . S
H72 C52 0.932 . S
H73 C53 0.930 . S
H74 C54 0.929 . S
H75 C56 0.930 . S
H76 C58 0.932 . S
H77 C59 0.929 . S
H78 C60 0.928 . S
H79 C62 0.932 . S
C80 C81 1.264 . S
C80 C85 1.479 . S
C80 C90 1.465 . S
C81 C80 1.264 . S
C81 C83 1.339 . S
C81 H108 0.931 . S
C82 C83 1.395 . S
C82 C84 1.320 . S
C83 C81 1.339 . S
C83 C82 1.395 . S
C83 H109 0.929 . S
C84 C82 1.320 . S
C84 C85 1.405 . S
C84 H110 0.930 . S
C85 C80 1.479 . S
C85 C84 1.405 . S
C85 H111 0.931 . S
U86 O87 2.454 . S
U86 O88 2.458 . S
U86 C89 2.984 . S
U86 C90 2.847 . S
U86 C103 2.882 . S
U86 O104 2.441 . S
U86 O105 2.420 . S
U86 O106 2.455 . S
U86 O107 2.449 . S
O87 U86 2.454 . S
O87 C89 1.353 . S
O88 U86 2.458 . S
O88 C89 1.286 . S
C89 U86 2.984 . S
C89 O87 1.353 . S
C89 O88 1.286 . S
C89 C91 1.363 . S
C90 C80 1.465 . S
C90 U86 2.847 . S
C90 O104 1.249 . S
C90 O105 1.202 . S
C91 C89 1.363 . S
C91 C93 1.408 . S
C91 C96 1.342 . S
C92 C93 1.310 . S
C92 C95 1.461 . S
C92 H112 0.932 . S
C93 C91 1.408 . S
C93 C92 1.310 . S
C93 H113 0.930 . S
C94 C95 1.474 . S
C94 C96 1.285 . S
C94 H114 0.929 . S
C95 C92 1.461 . S
C95 C94 1.474 . S
C96 C91 1.342 . S
C96 C94 1.285 . S
C96 H115 0.930 . S
C97 C100 1.424 . S
C97 C102 1.245 . S
C97 C103 1.428 . S
C98 C101 1.260 . S
C98 C102 1.477 . S
C98 H116 0.932 . S
C99 C100 1.384 . S
C99 C101 1.479 . S
C99 H117 0.929 . S
C100 C97 1.424 . S
C100 C99 1.384 . S
C100 H118 0.928 . S
C101 C98 1.260 . S
C101 C99 1.479 . S
C102 C97 1.245 . S
C102 C98 1.477 . S
C102 H119 0.932 . S
C103 U86 2.882 . S
C103 C97 1.428 . S
C103 O106 1.301 . S
C103 O107 1.282 . S
O104 U86 2.441 . S
O104 C90 1.249 . S
O105 U86 2.420 . S
O105 C90 1.202 . S
O106 U86 2.455 . S
O106 C103 1.301 . S
O107 U86 2.449 . S
O107 C103 1.282 . S
H108 C81 0.931 . S
H109 C83 0.929 . S
H110 C84 0.930 . S
H111 C85 0.931 . S
H112 C92 0.932 . S
H113 C93 0.930 . S
H114 C94 0.929 . S
H115 C96 0.930 . S
H116 C98 0.932 . S
H117 C99 0.929 . S
H118 C100 0.928 . S
H119 C102 0.932 . S
C120 C121 1.264 . S
C120 C125 1.479 . S
C120 C130 1.465 . S
C121 C120 1.264 . S
C121 C123 1.339 . S
C121 H148 0.931 . S
C122 C123 1.395 . S
C122 C124 1.320 . S
C123 C121 1.339 . S
C123 C122 1.395 . S
C123 H149 0.929 . S
C124 C122 1.320 . S
C124 C125 1.405 . S
C124 H150 0.930 . S
C125 C120 1.479 . S
C125 C124 1.405 . S
C125 H151 0.931 . S
U126 O127 2.454 . S
U126 O128 2.458 . S
U126 C129 2.984 . S
U126 C130 2.847 . S
U126 C143 2.882 . S
U126 O144 2.441 . S
U126 O145 2.420 . S
U126 O146 2.455 . S
U126 O147 2.449 . S
O127 U126 2.454 . S
O127 C129 1.353 . S
O128 U126 2.458 . S
O128 C129 1.286 . S
C129 U126 2.984 . S
C129 O127 1.353 . S
C129 O128 1.286 . S
C129 C131 1.363 . S
C130 C120 1.465 . S
C130 U126 2.847 . S
C130 O144 1.249 . S
C130 O145 1.202 . S
C131 C129 1.363 . S
C131 C133 1.408 . S
C131 C136 1.342 . S
C132 C133 1.310 . S
C132 C135 1.461 . S
C132 H152 0.932 . S
C133 C131 1.408 . S
C133 C132 1.310 . S
C133 H153 0.930 . S
C134 C135 1.474 . S
C134 C136 1.285 . S
C134 H154 0.929 . S
C135 C132 1.461 . S
C135 C134 1.474 . S
C136 C131 1.342 . S
C136 C134 1.285 . S
C136 H155 0.930 . S
C137 C140 1.424 . S
C137 C142 1.245 . S
C137 C143 1.428 . S
C138 C141 1.260 . S
C138 C142 1.477 . S
C138 H156 0.932 . S
C139 C140 1.384 . S
C139 C141 1.479 . S
C139 H157 0.929 . S
C140 C137 1.424 . S
C140 C139 1.384 . S
C140 H158 0.928 . S
C141 C138 1.260 . S
C141 C139 1.479 . S
C142 C137 1.245 . S
C142 C138 1.477 . S
C142 H159 0.932 . S
C143 U126 2.882 . S
C143 C137 1.428 . S
C143 O146 1.301 . S
C143 O147 1.282 . S
O144 U126 2.441 . S
O144 C130 1.249 . S
O145 U126 2.420 . S
O145 C130 1.202 . S
O146 U126 2.455 . S
O146 C143 1.301 . S
O147 U126 2.449 . S
O147 C143 1.282 . S
H148 C121 0.931 . S
H149 C123 0.929 . S
H150 C124 0.930 . S
H151 C125 0.931 . S
H152 C132 0.932 . S
H153 C133 0.930 . S
H154 C134 0.929 . S
H155 C136 0.930 . S
H156 C138 0.932 . S
H157 C139 0.929 . S
H158 C140 0.928 . S
H159 C142 0.932 . S
C160 C161 1.264 . S
C160 C165 1.479 . S
C160 C170 1.465 . S
C161 C160 1.264 . S
C161 C163 1.339 . S
C161 H188 0.931 . S
C162 C163 1.395 . S
C162 C164 1.320 . S
C163 C161 1.339 . S
C163 C162 1.395 . S
C163 H189 0.929 . S
C164 C162 1.320 . S
C164 C165 1.405 . S
C164 H190 0.930 . S
C165 C160 1.479 . S
C165 C164 1.405 . S
C165 H191 0.931 . S
U166 O167 2.454 . S
U166 O168 2.458 . S
U166 C169 2.984 . S
U166 C170 2.847 . S
U166 C183 2.882 . S
U166 O184 2.441 . S
U166 O185 2.420 . S
U166 O186 2.455 . S
U166 O187 2.449 . S
O167 U166 2.454 . S
O167 C169 1.353 . S
O168 U166 2.458 . S
O168 C169 1.286 . S
C169 U166 2.984 . S
C169 O167 1.353 . S
C169 O168 1.286 . S
C169 C171 1.363 . S
C170 C160 1.465 . S
C170 U166 2.847 . S
C170 O184 1.249 . S
C170 O185 1.202 . S
C171 C169 1.363 . S
C171 C173 1.408 . S
C171 C176 1.342 . S
C172 C173 1.310 . S
C172 C175 1.461 . S
C172 H192 0.932 . S
C173 C171 1.408 . S
C173 C172 1.310 . S
C173 H193 0.930 . S
C174 C175 1.474 . S
C174 C176 1.285 . S
C174 H194 0.929 . S
C175 C172 1.461 . S
C175 C174 1.474 . S
C176 C171 1.342 . S
C176 C174 1.285 . S
C176 H195 0.930 . S
C177 C180 1.424 . S
C177 C182 1.245 . S
C177 C183 1.428 . S
C178 C181 1.260 . S
C178 C182 1.477 . S
C178 H196 0.932 . S
C179 C180 1.384 . S
C179 C181 1.479 . S
C179 H197 0.929 . S
C180 C177 1.424 . S
C180 C179 1.384 . S
C180 H198 0.928 . S
C181 C178 1.260 . S
C181 C179 1.479 . S
C182 C177 1.245 . S
C182 C178 1.477 . S
C182 H199 0.932 . S
C183 U166 2.882 . S
C183 C177 1.428 . S
C183 O186 1.301 . S
C183 O187 1.282 . S
O184 U166 2.441 . S
O184 C170 1.249 . S
O185 U166 2.420 . S
O185 C170 1.202 . S
O186 U166 2.455 . S
O186 C183 1.301 . S
O187 U166 2.449 . S
O187 C183 1.282 . S
H188 C161 0.931 . S
H189 C163 0.929 . S
H190 C164 0.930 . S
H191 C165 0.931 . S
H192 C172 0.932 . S
H193 C173 0.930 . S
H194 C174 0.929 . S
H195 C176 0.930 . S
H196 C178 0.932 . S
H197 C179 0.929 . S
H198 C180 0.928 . S
H199 C182 0.932 . S
C200 C201 1.264 . S
C200 C205 1.479 . S
C200 C210 1.465 . S
C201 C200 1.264 . S
C201 C203 1.339 . S
C201 H228 0.931 . S
C202 C203 1.395 . S
C202 C204 1.320 . S
C203 C201 1.339 . S
C203 C202 1.395 . S
C203 H229 0.929 . S
C204 C202 1.320 . S
C204 C205 1.405 . S
C204 H230 0.930 . S
C205 C200 1.479 . S
C205 C204 1.405 . S
C205 H231 0.931 . S
U206 O207 2.454 . S
U206 O208 2.458 . S
U206 C209 2.984 . S
U206 C210 2.847 . S
U206 C223 2.882 . S
U206 O224 2.441 . S
U206 O225 2.420 . S
U206 O226 2.455 . S
U206 O227 2.449 . S
O207 U206 2.454 . S
O207 C209 1.353 . S
O208 U206 2.458 . S
O208 C209 1.286 . S
C209 U206 2.984 . S
C209 O207 1.353 . S
C209 O208 1.286 . S
C209 C211 1.363 . S
C210 C200 1.465 . S
C210 U206 2.847 . S
C210 O224 1.249 . S
C210 O225 1.202 . S
C211 C209 1.363 . S
C211 C213 1.408 . S
C211 C216 1.342 . S
C212 C213 1.310 . S
C212 C215 1.461 . S
C212 H232 0.932 . S
C213 C211 1.408 . S
C213 C212 1.310 . S
C213 H233 0.930 . S
C214 C215 1.474 . S
C214 C216 1.285 . S
C214 H234 0.929 . S
C215 C212 1.461 . S
C215 C214 1.474 . S
C216 C211 1.342 . S
C216 C214 1.285 . S
C216 H235 0.930 . S
C217 C220 1.424 . S
C217 C222 1.245 . S
C217 C223 1.428 . S
C218 C221 1.260 . S
C218 C222 1.477 . S
C218 H236 0.932 . S
C219 C220 1.384 . S
C219 C221 1.479 . S
C219 H237 0.929 . S
C220 C217 1.424 . S
C220 C219 1.384 . S
C220 H238 0.928 . S
C221 C218 1.260 . S
C221 C219 1.479 . S
C222 C217 1.245 . S
C222 C218 1.477 . S
C222 H239 0.932 . S
C223 U206 2.882 . S
C223 C217 1.428 . S
C223 O226 1.301 . S
C223 O227 1.282 . S
O224 U206 2.441 . S
O224 C210 1.249 . S
O225 U206 2.420 . S
O225 C210 1.202 . S
O226 U206 2.455 . S
O226 C223 1.301 . S
O227 U206 2.449 . S
O227 C223 1.282 . S
H228 C201 0.931 . S
H229 C203 0.929 . S
H230 C204 0.930 . S
H231 C205 0.931 . S
H232 C212 0.932 . S
H233 C213 0.930 . S
H234 C214 0.929 . S
H235 C216 0.930 . S
H236 C218 0.932 . S
H237 C219 0.929 . S
H238 C220 0.928 . S
H239 C222 0.932 . S
C240 C241 1.264 . S
C240 C245 1.479 . S
C240 C250 1.465 . S
C241 C240 1.264 . S
C241 C243 1.339 . S
C241 H268 0.931 . S
C242 C243 1.395 . S
C242 C244 1.320 . S
C243 C241 1.339 . S
C243 C242 1.395 . S
C243 H269 0.929 . S
C244 C242 1.320 . S
C244 C245 1.405 . S
C244 H270 0.930 . S
C245 C240 1.479 . S
C245 C244 1.405 . S
C245 H271 0.931 . S
U246 O247 2.454 . S
U246 O248 2.458 . S
U246 C249 2.984 . S
U246 C250 2.847 . S
U246 C263 2.882 . S
U246 O264 2.441 . S
U246 O265 2.420 . S
U246 O266 2.455 . S
U246 O267 2.449 . S
O247 U246 2.454 . S
O247 C249 1.353 . S
O248 U246 2.458 . S
O248 C249 1.286 . S
C249 U246 2.984 . S
C249 O247 1.353 . S
C249 O248 1.286 . S
C249 C251 1.363 . S
C250 C240 1.465 . S
C250 U246 2.847 . S
C250 O264 1.249 . S
C250 O265 1.202 . S
C251 C249 1.363 . S
C251 C253 1.408 . S
C251 C256 1.342 . S
C252 C253 1.310 . S
C252 C255 1.461 . S
C252 H272 0.932 . S
C253 C251 1.408 . S
C253 C252 1.310 . S
C253 H273 0.930 . S
C254 C255 1.474 . S
C254 C256 1.285 . S
C254 H274 0.929 . S
C255 C252 1.461 . S
C255 C254 1.474 . S
C256 C251 1.342 . S
C256 C254 1.285 . S
C256 H275 0.930 . S
C257 C260 1.424 . S
C257 C262 1.245 . S
C257 C263 1.428 . S
C258 C261 1.260 . S
C258 C262 1.477 . S
C258 H276 0.932 . S
C259 C260 1.384 . S
C259 C261 1.479 . S
C259 H277 0.929 . S
C260 C257 1.424 . S
C260 C259 1.384 . S
C260 H278 0.928 . S
C261 C258 1.260 . S
C261 C259 1.479 . S
C262 C257 1.245 . S
C262 C258 1.477 . S
C262 H279 0.932 . S
C263 U246 2.882 . S
C263 C257 1.428 . S
C263 O266 1.301 . S
C263 O267 1.282 . S
O264 U246 2.441 . S
O264 C250 1.249 . S
O265 U246 2.420 . S
O265 C250 1.202 . S
O266 U246 2.455 . S
O266 C263 1.301 . S
O267 U246 2.449 . S
O267 C263 1.282 . S
H268 C241 0.931 . S
H269 C243 0.929 . S
H270 C244 0.930 . S
H271 C245 0.931 . S
H272 C252 0.932 . S
H273 C253 0.930 . S
H274 C254 0.929 . S
H275 C256 0.930 . S
H276 C258 0.932 . S
H277 C259 0.929 . S
H278 C260 0.928 . S
H279 C262 0.932 . S
C280 C281 1.264 . S
C280 C285 1.479 . S
C280 C290 1.465 . S
C281 C280 1.264 . S
C281 C283 1.339 . S
C281 H308 0.931 . S
C282 C283 1.395 . S
C282 C284 1.320 . S
C283 C281 1.339 . S
C283 C282 1.395 . S
C283 H309 0.929 . S
C284 C282 1.320 . S
C284 C285 1.405 . S
C284 H310 0.930 . S
C285 C280 1.479 . S
C285 C284 1.405 . S
C285 H311 0.931 . S
U286 O287 2.454 . S
U286 O288 2.458 . S
U286 C289 2.984 . S
U286 C290 2.847 . S
U286 C303 2.882 . S
U286 O304 2.441 . S
U286 O305 2.420 . S
U286 O306 2.455 . S
U286 O307 2.449 . S
O287 U286 2.454 . S
O287 C289 1.353 . S
O288 U286 2.458 . S
O288 C289 1.286 . S
C289 U286 2.984 . S
C289 O287 1.353 . S
C289 O288 1.286 . S
C289 C291 1.363 . S
C290 C280 1.465 . S
C290 U286 2.847 . S
C290 O304 1.249 . S
C290 O305 1.202 . S
C291 C289 1.363 . S
C291 C293 1.408 . S
C291 C296 1.342 . S
C292 C293 1.310 . S
C292 C295 1.461 . S
C292 H312 0.932 . S
C293 C291 1.408 . S
C293 C292 1.310 . S
C293 H313 0.930 . S
C294 C295 1.474 . S
C294 C296 1.285 . S
C294 H314 0.929 . S
C295 C292 1.461 . S
C295 C294 1.474 . S
C296 C291 1.342 . S
C296 C294 1.285 . S
C296 H315 0.930 . S
C297 C300 1.424 . S
C297 C302 1.245 . S
C297 C303 1.428 . S
C298 C301 1.260 . S
C298 C302 1.477 . S
C298 H316 0.932 . S
C299 C300 1.384 . S
C299 C301 1.479 . S
C299 H317 0.929 . S
C300 C297 1.424 . S
C300 C299 1.384 . S
C300 H318 0.928 . S
C301 C298 1.260 . S
C301 C299 1.479 . S
C302 C297 1.245 . S
C302 C298 1.477 . S
C302 H319 0.932 . S
C303 U286 2.882 . S
C303 C297 1.428 . S
C303 O306 1.301 . S
C303 O307 1.282 . S
O304 U286 2.441 . S
O304 C290 1.249 . S
O305 U286 2.420 . S
O305 C290 1.202 . S
O306 U286 2.455 . S
O306 C303 1.301 . S
O307 U286 2.449 . S
O307 C303 1.282 . S
H308 C281 0.931 . S
H309 C283 0.929 . S
H310 C284 0.930 . S
H311 C285 0.931 . S
H312 C292 0.932 . S
H313 C293 0.930 . S
H314 C294 0.929 . S
H315 C296 0.930 . S
H316 C298 0.932 . S
H317 C299 0.929 . S
H318 C300 0.928 . S
H319 C302 0.932 . S
H320 C339 0.949 . S
H321 C340 0.950 . S
H322 C342 0.950 . S
H323 C343 0.950 . S
H324 C345 0.950 . S
H325 C348 0.950 . S
H326 C349 0.950 . S
H327 C351 0.951 . S
H328 C352 0.949 . S
H329 C354 0.949 . S
H330 C355 0.950 . S
H331 C357 0.950 . S
H332 C358 0.950 . S
H333 C360 0.950 . S
H334 C363 0.950 . S
H335 C364 0.950 . S
H336 C366 0.951 . S
H337 C367 0.949 . S
C338 C339 1.376 . S
C338 C343 1.386 . S
C338 C344 1.483 . S
C339 H320 0.949 . S
C339 C338 1.376 . S
C339 C340 1.397 . S
C340 H321 0.950 . S
C340 C339 1.397 . S
C340 C341 1.391 . S
C341 C340 1.391 . S
C341 C342 1.405 . S
C342 H322 0.950 . S
C342 C341 1.405 . S
C342 C343 1.367 . S
C343 H323 0.950 . S
C343 C338 1.386 . S
C343 C342 1.367 . S
C344 C338 1.483 . S
C344 C345 1.382 . S
C344 C346 1.403 1_655 S
C345 H324 0.950 . S
C345 C344 1.382 . S
C345 C361 1.411 . S
C346 C344 1.403 1_455 S
C346 C347 1.489 . S
C346 C360 1.411 . S
C347 C346 1.489 . S
C347 C348 1.383 . S
C347 C352 1.382 . S
C348 H325 0.950 . S
C348 C347 1.383 . S
C348 C349 1.395 . S
C349 H326 0.950 . S
C349 C348 1.395 . S
C349 C350 1.288 . S
C350 C349 1.288 . S
C350 C351 1.392 . S
C351 H327 0.951 . S
C351 C350 1.392 . S
C351 C352 1.392 . S
C352 H328 0.949 . S
C352 C347 1.382 . S
C352 C351 1.392 . S
C353 C354 1.376 . S
C353 C358 1.386 . S
C353 C359 1.483 . S
C354 H329 0.949 . S
C354 C353 1.376 . S
C354 C355 1.397 . S
C355 H330 0.950 . S
C355 C354 1.397 . S
C355 C356 1.391 . S
C356 C355 1.391 . S
C356 C357 1.405 . S
C357 H331 0.950 . S
C357 C356 1.405 . S
C357 C358 1.367 . S
C358 H332 0.950 . S
C358 C353 1.386 . S
C358 C357 1.367 . S
C359 C353 1.483 . S
C359 C360 1.382 . S
C359 C361 1.403 1_455 S
C360 H333 0.950 . S
C360 C346 1.411 . S
C360 C359 1.382 . S
C361 C345 1.411 . S
C361 C359 1.403 1_655 S
C361 C362 1.489 . S
C362 C361 1.489 . S
C362 C363 1.383 . S
C362 C367 1.382 . S
C363 H334 0.950 . S
C363 C362 1.383 . S
C363 C364 1.395 . S
C364 H335 0.950 . S
C364 C363 1.395 . S
C364 C365 1.288 . S
C365 C364 1.288 . S
C365 C366 1.392 . S
C366 H336 0.951 . S
C366 C365 1.392 . S
C366 C367 1.392 . S
C367 H337 0.949 . S
C367 C362 1.382 . S
C367 C366 1.392 . S
H368 C387 0.949 . S
H369 C388 0.950 . S
H370 C390 0.950 . S
H371 C391 0.950 . S
H372 C393 0.950 . S
H373 C396 0.950 . S
H374 C397 0.950 . S
H375 C399 0.951 . S
H376 C400 0.949 . S
H377 C402 0.949 . S
H378 C403 0.950 . S
H379 C405 0.950 . S
H380 C406 0.950 . S
H381 C408 0.950 . S
H382 C411 0.950 . S
H383 C412 0.950 . S
H384 C414 0.951 . S
H385 C415 0.949 . S
C386 C387 1.376 . S
C386 C391 1.386 . S
C386 C392 1.483 . S
C387 H368 0.949 . S
C387 C386 1.376 . S
C387 C388 1.397 . S
C388 H369 0.950 . S
C388 C387 1.397 . S
C388 C389 1.391 . S
C389 C388 1.391 . S
C389 C390 1.405 . S
C390 H370 0.950 . S
C390 C389 1.405 . S
C390 C391 1.367 . S
C391 H371 0.950 . S
C391 C386 1.386 . S
C391 C390 1.367 . S
C392 C386 1.483 . S
C392 C393 1.382 . S
C392 C394 1.403 1_455 S
C393 H372 0.950 . S
C393 C392 1.382 . S
C393 C409 1.411 . S
C394 C392 1.403 1_655 S
C394 C395 1.489 . S
C394 C408 1.411 . S
C395 C394 1.489 . S
C395 C396 1.383 . S
C395 C400 1.382 . S
C396 H373 0.950 . S
C396 C395 1.383 . S
C396 C397 1.395 . S
C397 H374 0.950 . S
C397 C396 1.395 . S
C397 C398 1.288 . S
C398 C397 1.288 . S
C398 C399 1.392 . S
C399 H375 0.951 . S
C399 C398 1.392 . S
C399 C400 1.392 . S
C400 H376 0.949 . S
C400 C395 1.382 . S
C400 C399 1.392 . S
C401 C402 1.376 . S
C401 C406 1.386 . S
C401 C407 1.483 . S
C402 H377 0.949 . S
C402 C401 1.376 . S
C402 C403 1.397 . S
C403 H378 0.950 . S
C403 C402 1.397 . S
C403 C404 1.391 . S
C404 C403 1.391 . S
C404 C405 1.405 . S
C405 H379 0.950 . S
C405 C404 1.405 . S
C405 C406 1.367 . S
C406 H380 0.950 . S
C406 C401 1.386 . S
C406 C405 1.367 . S
C407 C401 1.483 . S
C407 C408 1.382 . S
C407 C409 1.403 1_655 S
C408 H381 0.950 . S
C408 C394 1.411 . S
C408 C407 1.382 . S
C409 C393 1.411 . S
C409 C407 1.403 1_455 S
C409 C410 1.489 . S
C410 C409 1.489 . S
C410 C411 1.383 . S
C410 C415 1.382 . S
C411 H382 0.950 . S
C411 C410 1.383 . S
C411 C412 1.395 . S
C412 H383 0.950 . S
C412 C411 1.395 . S
C412 C413 1.288 . S
C413 C412 1.288 . S
C413 C414 1.392 . S
C414 H384 0.951 . S
C414 C413 1.392 . S
C414 C415 1.392 . S
C415 H385 0.949 . S
C415 C410 1.382 . S
C415 C414 1.392 . S
H416 C435 0.949 . S
H417 C436 0.950 . S
H418 C438 0.950 . S
H419 C439 0.950 . S
H420 C441 0.950 . S
H421 C444 0.950 . S
H422 C445 0.950 . S
H423 C447 0.951 . S
H424 C448 0.949 . S
H425 C450 0.949 . S
H426 C451 0.950 . S
H427 C453 0.950 . S
H428 C454 0.950 . S
H429 C456 0.950 . S
H430 C459 0.950 . S
H431 C460 0.950 . S
H432 C462 0.951 . S
H433 C463 0.949 . S
C434 C435 1.376 . S
C434 C439 1.386 . S
C434 C440 1.483 . S
C435 H416 0.949 . S
C435 C434 1.376 . S
C435 C436 1.397 . S
C436 H417 0.950 . S
C436 C435 1.397 . S
C436 C437 1.391 . S
C437 C436 1.391 . S
C437 C438 1.405 . S
C438 H418 0.950 . S
C438 C437 1.405 . S
C438 C439 1.367 . S
C439 H419 0.950 . S
C439 C434 1.386 . S
C439 C438 1.367 . S
C440 C434 1.483 . S
C440 C441 1.382 1_565 S
C440 C442 1.403 . S
C441 H420 0.950 . S
C441 C440 1.382 1_545 S
C441 C457 1.411 . S
C442 C440 1.403 . S
C442 C443 1.489 . S
C442 C456 1.411 1_565 S
C443 C442 1.489 . S
C443 C444 1.383 . S
C443 C448 1.382 . S
C444 H421 0.950 . S
C444 C443 1.383 . S
C444 C445 1.395 . S
C445 H422 0.950 . S
C445 C444 1.395 . S
C445 C446 1.288 . S
C446 C445 1.288 . S
C446 C447 1.392 . S
C447 H423 0.951 . S
C447 C446 1.392 . S
C447 C448 1.392 . S
C448 H424 0.949 . S
C448 C443 1.382 . S
C448 C447 1.392 . S
C449 C450 1.376 . S
C449 C454 1.386 . S
C449 C455 1.483 . S
C450 H425 0.949 . S
C450 C449 1.376 . S
C450 C451 1.397 . S
C451 H426 0.950 . S
C451 C450 1.397 . S
C451 C452 1.391 . S
C452 C451 1.391 . S
C452 C453 1.405 . S
C453 H427 0.950 . S
C453 C452 1.405 . S
C453 C454 1.367 . S
C454 H428 0.950 . S
C454 C449 1.386 . S
C454 C453 1.367 . S
C455 C449 1.483 . S
C455 C456 1.382 . S
C455 C457 1.403 . S
C456 H429 0.950 . S
C456 C442 1.411 1_545 S
C456 C455 1.382 . S
C457 C441 1.411 . S
C457 C455 1.403 . S
C457 C458 1.489 . S
C458 C457 1.489 . S
C458 C459 1.383 . S
C458 C463 1.382 . S
C459 H430 0.950 . S
C459 C458 1.383 . S
C459 C460 1.395 . S
C460 H431 0.950 . S
C460 C459 1.395 . S
C460 C461 1.288 . S
C461 C460 1.288 . S
C461 C462 1.392 . S
C462 H432 0.951 . S
C462 C461 1.392 . S
C462 C463 1.392 . S
C463 H433 0.949 . S
C463 C458 1.382 . S
C463 C462 1.392 . S
H464 C483 0.949 . S
H465 C484 0.950 . S
H466 C486 0.950 . S
H467 C487 0.950 . S
H468 C489 0.950 . S
H469 C492 0.950 . S
H470 C493 0.950 . S
H471 C495 0.951 . S
H472 C496 0.949 . S
H473 C498 0.949 . S
H474 C499 0.950 . S
H475 C501 0.950 . S
H476 C502 0.950 . S
H477 C504 0.950 . S
H478 C507 0.950 . S
H479 C508 0.950 . S
H480 C510 0.951 . S
H481 C511 0.949 . S
C482 C483 1.376 . S
C482 C487 1.386 . S
C482 C488 1.483 . S
C483 H464 0.949 . S
C483 C482 1.376 . S
C483 C484 1.397 . S
C484 H465 0.950 . S
C484 C483 1.397 . S
C484 C485 1.391 . S
C485 C484 1.391 . S
C485 C486 1.405 . S
C486 H466 0.950 . S
C486 C485 1.405 . S
C486 C487 1.367 . S
C487 H467 0.950 . S
C487 C482 1.386 . S
C487 C486 1.367 . S
C488 C482 1.483 . S
C488 C489 1.382 1_556 S
C488 C490 1.403 . S
C489 H468 0.950 . S
C489 C488 1.382 1_554 S
C489 C505 1.411 . S
C490 C488 1.403 . S
C490 C491 1.489 . S
C490 C504 1.411 1_556 S
C491 C490 1.489 . S
C491 C492 1.383 . S
C491 C496 1.382 . S
C492 H469 0.950 . S
C492 C491 1.383 . S
C492 C493 1.395 . S
C493 H470 0.950 . S
C493 C492 1.395 . S
C493 C494 1.288 . S
C494 C493 1.288 . S
C494 C495 1.392 . S
C495 H471 0.951 . S
C495 C494 1.392 . S
C495 C496 1.392 . S
C496 H472 0.949 . S
C496 C491 1.382 . S
C496 C495 1.392 . S
C497 C498 1.376 . S
C497 C502 1.386 . S
C497 C503 1.483 . S
C498 H473 0.949 . S
C498 C497 1.376 . S
C498 C499 1.397 . S
C499 H474 0.950 . S
C499 C498 1.397 . S
C499 C500 1.391 . S
C500 C499 1.391 . S
C500 C501 1.405 . S
C501 H475 0.950 . S
C501 C500 1.405 . S
C501 C502 1.367 . S
C502 H476 0.950 . S
C502 C497 1.386 . S
C502 C501 1.367 . S
C503 C497 1.483 . S
C503 C504 1.382 . S
C503 C505 1.403 . S
C504 H477 0.950 . S
C504 C490 1.411 1_554 S
C504 C503 1.382 . S
C505 C489 1.411 . S
C505 C503 1.403 . S
C505 C506 1.489 . S
C506 C505 1.489 . S
C506 C507 1.383 . S
C506 C511 1.382 . S
C507 H478 0.950 . S
C507 C506 1.383 . S
C507 C508 1.395 . S
C508 H479 0.950 . S
C508 C507 1.395 . S
C508 C509 1.288 . S
C509 C508 1.288 . S
C509 C510 1.392 . S
C510 H480 0.951 . S
C510 C509 1.392 . S
C510 C511 1.392 . S
C511 H481 0.949 . S
C511 C506 1.382 . S
C511 C510 1.392 . S
H512 C531 0.949 . S
H513 C532 0.950 . S
H514 C534 0.950 . S
H515 C535 0.950 . S
H516 C537 0.950 . S
H517 C540 0.950 . S
H518 C541 0.950 . S
H519 C543 0.951 . S
H520 C544 0.949 . S
H521 C546 0.949 . S
H522 C547 0.950 . S
H523 C549 0.950 . S
H524 C550 0.950 . S
H525 C552 0.950 . S
H526 C555 0.950 . S
H527 C556 0.950 . S
H528 C558 0.951 . S
H529 C559 0.949 . S
C530 C531 1.376 . S
C530 C535 1.386 . S
C530 C536 1.483 . S
C531 H512 0.949 . S
C531 C530 1.376 . S
C531 C532 1.397 . S
C532 H513 0.950 . S
C532 C531 1.397 . S
C532 C533 1.391 . S
C533 C532 1.391 . S
C533 C534 1.405 . S
C534 H514 0.950 . S
C534 C533 1.405 . S
C534 C535 1.367 . S
C535 H515 0.950 . S
C535 C530 1.386 . S
C535 C534 1.367 . S
C536 C530 1.483 . S
C536 C537 1.336 1_565 S
C536 C538 1.403 . S
C537 H516 0.950 . S
C537 C536 1.336 1_545 S
C537 C553 1.459 . S
C538 C536 1.403 . S
C538 C539 1.489 . S
C538 C552 1.411 1_565 S
C539 C538 1.489 . S
C539 C540 1.383 . S
C539 C544 1.382 . S
C540 H517 0.950 . S
C540 C539 1.383 . S
C540 C541 1.395 . S
C541 H518 0.950 . S
C541 C540 1.395 . S
C541 C542 1.288 . S
C542 C541 1.288 . S
C542 C543 1.392 . S
C543 H519 0.951 . S
C543 C542 1.392 . S
C543 C544 1.392 . S
C544 H520 0.949 . S
C544 C539 1.382 . S
C544 C543 1.392 . S
C545 C546 1.376 . S
C545 C550 1.386 . S
C545 C551 1.483 . S
C546 H521 0.949 . S
C546 C545 1.376 . S
C546 C547 1.397 . S
C547 H522 0.950 . S
C547 C546 1.397 . S
C547 C548 1.391 . S
C548 C547 1.391 . S
C548 C549 1.405 . S
C549 H523 0.950 . S
C549 C548 1.405 . S
C549 C550 1.367 . S
C550 H524 0.950 . S
C550 C545 1.386 . S
C550 C549 1.367 . S
C551 C545 1.483 . S
C551 C552 1.382 . S
C551 C553 1.403 . S
C552 H525 0.950 . S
C552 C538 1.411 1_545 S
C552 C551 1.382 . S
C553 C537 1.459 . S
C553 C551 1.403 . S
C553 C554 1.489 . S
C554 C553 1.489 . S
C554 C555 1.383 . S
C554 C559 1.382 . S
C555 H526 0.950 . S
C555 C554 1.383 . S
C555 C556 1.395 . S
C556 H527 0.950 . S
C556 C555 1.395 . S
C556 C557 1.288 . S
C557 C556 1.288 . S
C557 C558 1.392 . S
C558 H528 0.951 . S
C558 C557 1.392 . S
C558 C559 1.392 . S
C559 H529 0.949 . S
C559 C554 1.382 . S
C559 C558 1.392 . S
H560 C579 0.949 . S
H561 C580 0.950 . S
H562 C582 0.950 . S
H563 C583 0.950 . S
H564 C585 0.950 . S
H565 C588 0.950 . S
H566 C589 0.950 . S
H567 C591 0.951 . S
H568 C592 0.949 . S
H569 C594 0.949 . S
H570 C595 0.950 . S
H571 C597 0.950 . S
H572 C598 0.950 . S
H573 C600 0.950 . S
H574 C603 0.950 . S
H575 C604 0.950 . S
H576 C606 0.951 . S
H577 C607 0.949 . S
C578 C579 1.376 . S
C578 C583 1.386 . S
C578 C584 1.483 . S
C579 H560 0.949 . S
C579 C578 1.376 . S
C579 C580 1.397 . S
C580 H561 0.950 . S
C580 C579 1.397 . S
C580 C581 1.391 . S
C581 C580 1.391 . S
C581 C582 1.405 . S
C582 H562 0.950 . S
C582 C581 1.405 . S
C582 C583 1.367 . S
C583 H563 0.950 . S
C583 C578 1.386 . S
C583 C582 1.367 . S
C584 C578 1.483 . S
C584 C585 1.382 1_556 S
C584 C586 1.403 . S
C585 H564 0.950 . S
C585 C584 1.382 1_554 S
C585 C601 1.411 . S
C586 C584 1.403 . S
C586 C587 1.489 . S
C586 C600 1.411 1_556 S
C587 C586 1.489 . S
C587 C588 1.383 . S
C587 C592 1.382 . S
C588 H565 0.950 . S
C588 C587 1.383 . S
C588 C589 1.395 . S
C589 H566 0.950 . S
C589 C588 1.395 . S
C589 C590 1.288 . S
C590 C589 1.288 . S
C590 C591 1.392 . S
C591 H567 0.951 . S
C591 C590 1.392 . S
C591 C592 1.392 . S
C592 H568 0.949 . S
C592 C587 1.382 . S
C592 C591 1.392 . S
C593 C594 1.376 . S
C593 C598 1.386 . S
C593 C599 1.483 . S
C594 H569 0.949 . S
C594 C593 1.376 . S
C594 C595 1.397 . S
C595 H570 0.950 . S
C595 C594 1.397 . S
C595 C596 1.391 . S
C596 C595 1.391 . S
C596 C597 1.405 . S
C597 H571 0.950 . S
C597 C596 1.405 . S
C597 C598 1.367 . S
C598 H572 0.950 . S
C598 C593 1.386 . S
C598 C597 1.367 . S
C599 C593 1.483 . S
C599 C600 1.382 . S
C599 C601 1.403 . S
C600 H573 0.950 . S
C600 C586 1.411 1_554 S
C600 C599 1.382 . S
C601 C585 1.411 . S
C601 C599 1.403 . S
C601 C602 1.489 . S
C602 C601 1.489 . S
C602 C603 1.383 . S
C602 C607 1.382 . S
C603 H574 0.950 . S
C603 C602 1.383 . S
C603 C604 1.395 . S
C604 H575 0.950 . S
C604 C603 1.395 . S
C604 C605 1.288 . S
C605 C604 1.288 . S
C605 C606 1.392 . S
C606 H576 0.951 . S
C606 C605 1.392 . S
C606 C607 1.392 . S
C607 H577 0.949 . S
C607 C602 1.382 . S
C607 C606 1.392 . S
H608 C626 0.951 . S
H609 C628 0.951 . S
H610 C630 0.950 . S
H611 C631 0.950 . S
H612 C633 0.950 . S
H613 C636 0.950 . S
H614 C637 0.950 . S
H615 C639 0.950 . S
H616 C640 0.950 . S
H617 C641 0.951 . S
H618 C643 0.951 . S
H619 C645 0.950 . S
H620 C646 0.950 . S
H621 C648 0.950 . S
H622 C651 0.950 . S
H623 C652 0.950 . S
H624 C654 0.950 . S
H625 C655 0.950 . S
C626 H608 0.951 . S
C626 C627 1.366 . S
C626 C628 1.388 . S
C627 C626 1.366 . S
C627 C631 1.385 . S
C628 H609 0.951 . S
C628 C626 1.388 . S
C628 C629 1.366 . S
C629 C628 1.366 . S
C629 C630 1.414 . S
C629 C632 1.499 . S
C630 H610 0.950 . S
C630 C629 1.414 . S
C630 C631 1.374 . S
C631 H611 0.950 . S
C631 C627 1.385 . S
C631 C630 1.374 . S
C632 C629 1.499 . S
C632 C633 1.373 . S
C632 C634 1.389 . S
C633 H612 0.950 . S
C633 C632 1.373 . S
C633 C649 1.377 . S
C634 C632 1.389 . S
C634 C635 1.524 . S
C634 C648 1.377 . S
C635 C634 1.524 . S
C635 C636 1.397 . S
C635 C640 1.363 . S
C636 H613 0.950 . S
C636 C635 1.397 . S
C636 C637 1.334 . S
C637 H614 0.950 . S
C637 C636 1.334 . S
C637 C638 1.287 . S
C638 C637 1.287 . S
C638 C639 1.524 . S
C638 H657 0.913 . S
C639 H615 0.950 . S
C639 C638 1.524 . S
C639 C640 1.415 . S
C640 H616 0.950 . S
C640 C635 1.363 . S
C640 C639 1.415 . S
C641 H617 0.951 . S
C641 C642 1.366 . S
C641 C643 1.388 . S
C642 C641 1.366 . S
C642 C646 1.385 . S
C643 H618 0.951 . S
C643 C641 1.388 . S
C643 C644 1.366 . S
C644 C643 1.366 . S
C644 C645 1.414 . S
C644 C647 1.499 . S
C645 H619 0.950 . S
C645 C644 1.414 . S
C645 C646 1.374 . S
C646 H620 0.950 . S
C646 C642 1.385 . S
C646 C645 1.374 . S
C647 C644 1.499 . S
C647 C648 1.373 . S
C647 C649 1.389 . S
C648 H621 0.950 . S
C648 C634 1.377 . S
C648 C647 1.373 . S
C649 C633 1.377 . S
C649 C647 1.389 . S
C649 C650 1.524 . S
C650 C649 1.524 . S
C650 C651 1.397 . S
C650 C655 1.363 . S
C651 H622 0.950 . S
C651 C650 1.397 . S
C651 C652 1.334 . S
C652 H623 0.950 . S
C652 C651 1.334 . S
C652 C653 1.287 . S
C653 C652 1.287 . S
C653 C654 1.524 . S
C653 H656 0.999 . S
C654 H624 0.950 . S
C654 C653 1.524 . S
C654 C655 1.415 . S
C655 H625 0.950 . S
C655 C650 1.363 . S
C655 C654 1.415 . S
H656 C653 0.999 . S
H657 C638 0.913 . S
H658 C676 0.951 . S
H659 C678 0.951 . S
H660 C680 0.950 . S
H661 C681 0.950 . S
H662 C683 0.950 . S
H663 C686 0.950 . S
H664 C687 0.950 . S
H665 C689 0.950 . S
H666 C690 0.950 . S
H667 C691 0.951 . S
H668 C693 0.951 . S
H669 C695 0.950 . S
H670 C696 0.950 . S
H671 C698 0.950 . S
H672 C701 0.950 . S
H673 C702 0.950 . S
H674 C704 0.950 . S
H675 C705 0.950 . S
C676 H658 0.951 . S
C676 C677 1.366 . S
C676 C678 1.388 . S
C677 C676 1.366 . S
C677 C681 1.385 . S
C678 H659 0.951 . S
C678 C676 1.388 . S
C678 C679 1.366 . S
C679 C678 1.366 . S
C679 C680 1.414 . S
C679 C682 1.499 . S
C680 H660 0.950 . S
C680 C679 1.414 . S
C680 C681 1.374 . S
C681 H661 0.950 . S
C681 C677 1.385 . S
C681 C680 1.374 . S
C682 C679 1.499 . S
C682 C683 1.373 . S
C682 C684 1.389 . S
C683 H662 0.950 . S
C683 C682 1.373 . S
C683 C699 1.377 . S
C684 C682 1.389 . S
C684 C685 1.524 . S
C684 C698 1.377 . S
C685 C684 1.524 . S
C685 C686 1.397 . S
C685 C690 1.363 . S
C686 H663 0.950 . S
C686 C685 1.397 . S
C686 C687 1.334 . S
C687 H664 0.950 . S
C687 C686 1.334 . S
C687 C688 1.287 . S
C688 C687 1.287 . S
C688 C689 1.524 . S
C688 H707 0.913 . S
C689 H665 0.950 . S
C689 C688 1.524 . S
C689 C690 1.415 . S
C690 H666 0.950 . S
C690 C685 1.363 . S
C690 C689 1.415 . S
C691 H667 0.951 . S
C691 C692 1.366 . S
C691 C693 1.388 . S
C692 C691 1.366 . S
C692 C696 1.385 . S
C693 H668 0.951 . S
C693 C691 1.388 . S
C693 C694 1.366 . S
C694 C693 1.366 . S
C694 C695 1.414 . S
C694 C697 1.499 . S
C695 H669 0.950 . S
C695 C694 1.414 . S
C695 C696 1.374 . S
C696 H670 0.950 . S
C696 C692 1.385 . S
C696 C695 1.374 . S
C697 C694 1.499 . S
C697 C698 1.373 . S
C697 C699 1.389 . S
C698 H671 0.950 . S
C698 C684 1.377 . S
C698 C697 1.373 . S
C699 C683 1.377 . S
C699 C697 1.389 . S
C699 C700 1.524 . S
C700 C699 1.524 . S
C700 C701 1.397 . S
C700 C705 1.363 . S
C701 H672 0.950 . S
C701 C700 1.397 . S
C701 C702 1.334 . S
C702 H673 0.950 . S
C702 C701 1.334 . S
C702 C703 1.287 . S
C703 C702 1.287 . S
C703 C704 1.524 . S
C703 H706 0.999 . S
C704 H674 0.950 . S
C704 C703 1.524 . S
C704 C705 1.415 . S
C705 H675 0.950 . S
C705 C700 1.363 . S
C705 C704 1.415 . S
H706 C703 0.999 . S
H707 C688 0.913 . S
H708 C726 0.951 . S
H709 C728 0.951 . S
H710 C730 0.950 . S
H711 C731 0.950 . S
H712 C733 0.950 . S
H713 C736 0.950 . S
H714 C737 0.950 . S
H715 C739 0.950 . S
H716 C740 0.950 . S
H717 C741 0.951 . S
H718 C743 0.951 . S
H719 C745 0.950 . S
H720 C746 0.950 . S
H721 C748 0.950 . S
H722 C751 0.950 . S
H723 C752 0.950 . S
H724 C754 0.950 . S
H725 C755 0.950 . S
C726 H708 0.951 . S
C726 C727 1.366 . S
C726 C728 1.388 . S
C727 C726 1.366 . S
C727 C731 1.385 . S
C728 H709 0.951 . S
C728 C726 1.388 . S
C728 C729 1.366 . S
C729 C728 1.366 . S
C729 C730 1.414 . S
C729 C732 1.499 . S
C730 H710 0.950 . S
C730 C729 1.414 . S
C730 C731 1.374 . S
C731 H711 0.950 . S
C731 C727 1.385 . S
C731 C730 1.374 . S
C732 C729 1.499 . S
C732 C733 1.373 . S
C732 C734 1.389 . S
C733 H712 0.950 . S
C733 C732 1.373 . S
C733 C749 1.377 . S
C734 C732 1.389 . S
C734 C735 1.524 . S
C734 C748 1.377 . S
C735 C734 1.524 . S
C735 C736 1.397 . S
C735 C740 1.363 . S
C736 H713 0.950 . S
C736 C735 1.397 . S
C736 C737 1.334 . S
C737 H714 0.950 . S
C737 C736 1.334 . S
C737 C738 1.287 . S
C738 C737 1.287 . S
C738 C739 1.524 . S
C738 H757 0.913 . S
C739 H715 0.950 . S
C739 C738 1.524 . S
C739 C740 1.415 . S
C740 H716 0.950 . S
C740 C735 1.363 . S
C740 C739 1.415 . S
C741 H717 0.951 . S
C741 C742 1.366 . S
C741 C743 1.388 . S
C742 C741 1.366 . S
C742 C746 1.385 . S
C743 H718 0.951 . S
C743 C741 1.388 . S
C743 C744 1.366 . S
C744 C743 1.366 . S
C744 C745 1.414 . S
C744 C747 1.499 . S
C745 H719 0.950 . S
C745 C744 1.414 . S
C745 C746 1.374 . S
C746 H720 0.950 . S
C746 C742 1.385 . S
C746 C745 1.374 . S
C747 C744 1.499 . S
C747 C748 1.373 . S
C747 C749 1.389 . S
C748 H721 0.950 . S
C748 C734 1.377 . S
C748 C747 1.373 . S
C749 C733 1.377 . S
C749 C747 1.389 . S
C749 C750 1.524 . S
C750 C749 1.524 . S
C750 C751 1.397 . S
C750 C755 1.363 . S
C751 H722 0.950 . S
C751 C750 1.397 . S
C751 C752 1.334 . S
C752 H723 0.950 . S
C752 C751 1.334 . S
C752 C753 1.287 . S
C753 C752 1.287 . S
C753 C754 1.524 . S
C753 H756 0.999 . S
C754 H724 0.950 . S
C754 C753 1.524 . S
C754 C755 1.415 . S
C755 H725 0.950 . S
C755 C750 1.363 . S
C755 C754 1.415 . S
H756 C753 0.999 . S
H757 C738 0.913 . S
H758 C776 0.951 . S
H759 C778 0.951 . S
H760 C780 0.950 . S
H761 C781 0.950 . S
H762 C783 0.950 . S
H763 C786 0.950 . S
H764 C787 0.950 . S
H765 C789 0.950 . S
H766 C790 0.950 . S
H767 C791 0.951 . S
H768 C793 0.951 . S
H769 C795 0.950 . S
H770 C796 0.950 . S
H771 C798 0.950 . S
H772 C801 0.950 . S
H773 C802 0.950 . S
H774 C804 0.950 . S
H775 C805 0.950 . S
C776 H758 0.951 . S
C776 C777 1.366 . S
C776 C778 1.388 . S
C777 C776 1.366 . S
C777 C781 1.385 . S
C778 H759 0.951 . S
C778 C776 1.388 . S
C778 C779 1.366 . S
C779 C778 1.366 . S
C779 C780 1.414 . S
C779 C782 1.499 . S
C780 H760 0.950 . S
C780 C779 1.414 . S
C780 C781 1.374 . S
C781 H761 0.950 . S
C781 C777 1.385 . S
C781 C780 1.374 . S
C782 C779 1.499 . S
C782 C783 1.373 . S
C782 C784 1.389 . S
C783 H762 0.950 . S
C783 C782 1.373 . S
C783 C799 1.377 . S
C784 C782 1.389 . S
C784 C785 1.524 . S
C784 C798 1.377 . S
C785 C784 1.524 . S
C785 C786 1.397 . S
C785 C790 1.363 . S
C786 H763 0.950 . S
C786 C785 1.397 . S
C786 C787 1.334 . S
C787 H764 0.950 . S
C787 C786 1.334 . S
C787 C788 1.287 . S
C788 C787 1.287 . S
C788 C789 1.524 . S
C788 H807 0.913 . S
C789 H765 0.950 . S
C789 C788 1.524 . S
C789 C790 1.415 . S
C790 H766 0.950 . S
C790 C785 1.363 . S
C790 C789 1.415 . S
C791 H767 0.951 . S
C791 C792 1.366 . S
C791 C793 1.388 . S
C792 C791 1.366 . S
C792 C796 1.385 . S
C793 H768 0.951 . S
C793 C791 1.388 . S
C793 C794 1.366 . S
C794 C793 1.366 . S
C794 C795 1.414 . S
C794 C797 1.499 . S
C795 H769 0.950 . S
C795 C794 1.414 . S
C795 C796 1.374 . S
C796 H770 0.950 . S
C796 C792 1.385 . S
C796 C795 1.374 . S
C797 C794 1.499 . S
C797 C798 1.373 . S
C797 C799 1.389 . S
C798 H771 0.950 . S
C798 C784 1.377 . S
C798 C797 1.373 . S
C799 C783 1.377 . S
C799 C797 1.389 . S
C799 C800 1.524 . S
C800 C799 1.524 . S
C800 C801 1.397 . S
C800 C805 1.363 . S
C801 H772 0.950 . S
C801 C800 1.397 . S
C801 C802 1.334 . S
C802 H773 0.950 . S
C802 C801 1.334 . S
C802 C803 1.287 . S
C803 C802 1.287 . S
C803 C804 1.524 . S
C803 H806 0.999 . S
C804 H774 0.950 . S
C804 C803 1.524 . S
C804 C805 1.415 . S
C805 H775 0.950 . S
C805 C800 1.363 . S
C805 C804 1.415 . S
H806 C803 0.999 . S
H807 C788 0.913 . S
H808 C826 0.951 . S
H809 C828 0.951 . S
H810 C830 0.950 . S
H811 C831 0.950 . S
H812 C833 0.950 . S
H813 C836 0.950 . S
H814 C837 0.950 . S
H815 C839 0.950 . S
H816 C840 0.950 . S
H817 C841 0.951 . S
H818 C843 0.951 . S
H819 C845 0.950 . S
H820 C846 0.950 . S
H821 C848 0.950 . S
H822 C851 0.950 . S
H823 C852 0.950 . S
H824 C854 0.950 . S
H825 C855 0.950 . S
C826 H808 0.951 . S
C826 C827 1.366 . S
C826 C828 1.388 . S
C827 C826 1.366 . S
C827 C831 1.385 . S
C828 H809 0.951 . S
C828 C826 1.388 . S
C828 C829 1.366 . S
C829 C828 1.366 . S
C829 C830 1.414 . S
C829 C832 1.499 . S
C830 H810 0.950 . S
C830 C829 1.414 . S
C830 C831 1.374 . S
C831 H811 0.950 . S
C831 C827 1.385 . S
C831 C830 1.374 . S
C832 C829 1.499 . S
C832 C833 1.373 . S
C832 C834 1.389 . S
C833 H812 0.950 . S
C833 C832 1.373 . S
C833 C849 1.377 . S
C834 C832 1.389 . S
C834 C835 1.524 . S
C834 C848 1.377 . S
C835 C834 1.524 . S
C835 C836 1.397 . S
C835 C840 1.363 . S
C836 H813 0.950 . S
C836 C835 1.397 . S
C836 C837 1.334 . S
C837 H814 0.950 . S
C837 C836 1.334 . S
C837 C838 1.287 . S
C838 C837 1.287 . S
C838 C839 1.524 . S
C838 H857 0.913 . S
C839 H815 0.950 . S
C839 C838 1.524 . S
C839 C840 1.415 . S
C840 H816 0.950 . S
C840 C835 1.363 . S
C840 C839 1.415 . S
C841 H817 0.951 . S
C841 C842 1.366 . S
C841 C843 1.388 . S
C842 C841 1.366 . S
C842 C846 1.385 . S
C843 H818 0.951 . S
C843 C841 1.388 . S
C843 C844 1.366 . S
C844 C843 1.366 . S
C844 C845 1.414 . S
C844 C847 1.499 . S
C845 H819 0.950 . S
C845 C844 1.414 . S
C845 C846 1.374 . S
C846 H820 0.950 . S
C846 C842 1.385 . S
C846 C845 1.374 . S
C847 C844 1.499 . S
C847 C848 1.373 . S
C847 C849 1.389 . S
C848 H821 0.950 . S
C848 C834 1.377 . S
C848 C847 1.373 . S
C849 C833 1.377 . S
C849 C847 1.389 . S
C849 C850 1.524 . S
C850 C849 1.524 . S
C850 C851 1.397 . S
C850 C855 1.363 . S
C851 H822 0.950 . S
C851 C850 1.397 . S
C851 C852 1.334 . S
C852 H823 0.950 . S
C852 C851 1.334 . S
C852 C853 1.287 . S
C853 C852 1.287 . S
C853 C854 1.524 . S
C853 H856 0.999 . S
C854 H824 0.950 . S
C854 C853 1.524 . S
C854 C855 1.415 . S
C855 H825 0.950 . S
C855 C850 1.363 . S
C855 C854 1.415 . S
H856 C853 0.999 . S
H857 C838 0.913 . S
H858 C876 0.951 . S
H859 C878 0.951 . S
H860 C880 0.950 . S
H861 C881 0.950 . S
H862 C883 0.950 . S
H863 C886 0.950 . S
H864 C887 0.950 . S
H865 C889 0.950 . S
H866 C890 0.950 . S
H867 C891 0.951 . S
H868 C893 0.951 . S
H869 C895 0.950 . S
H870 C896 0.950 . S
H871 C898 0.950 . S
H872 C901 0.950 . S
H873 C902 0.950 . S
H874 C904 0.950 . S
H875 C905 0.950 . S
C876 H858 0.951 . S
C876 C877 1.366 . S
C876 C878 1.388 . S
C877 C876 1.366 . S
C877 C881 1.385 . S
C878 H859 0.951 . S
C878 C876 1.388 . S
C878 C879 1.366 . S
C879 C878 1.366 . S
C879 C880 1.414 . S
C879 C882 1.499 . S
C880 H860 0.950 . S
C880 C879 1.414 . S
C880 C881 1.374 . S
C881 H861 0.950 . S
C881 C877 1.385 . S
C881 C880 1.374 . S
C882 C879 1.499 . S
C882 C883 1.373 . S
C882 C884 1.389 . S
C883 H862 0.950 . S
C883 C882 1.373 . S
C883 C899 1.377 . S
C884 C882 1.389 . S
C884 C885 1.524 . S
C884 C898 1.377 . S
C885 C884 1.524 . S
C885 C886 1.397 . S
C885 C890 1.363 . S
C886 H863 0.950 . S
C886 C885 1.397 . S
C886 C887 1.334 . S
C887 H864 0.950 . S
C887 C886 1.334 . S
C887 C888 1.287 . S
C888 C887 1.287 . S
C888 C889 1.524 . S
C888 H907 0.913 . S
C889 H865 0.950 . S
C889 C888 1.524 . S
C889 C890 1.415 . S
C890 H866 0.950 . S
C890 C885 1.363 . S
C890 C889 1.415 . S
C891 H867 0.951 . S
C891 C892 1.366 . S
C891 C893 1.388 . S
C892 C891 1.366 . S
C892 C896 1.385 . S
C893 H868 0.951 . S
C893 C891 1.388 . S
C893 C894 1.366 . S
C894 C893 1.366 . S
C894 C895 1.414 . S
C894 C897 1.499 . S
C895 H869 0.950 . S
C895 C894 1.414 . S
C895 C896 1.374 . S
C896 H870 0.950 . S
C896 C892 1.385 . S
C896 C895 1.374 . S
C897 C894 1.499 . S
C897 C898 1.373 . S
C897 C899 1.389 . S
C898 H871 0.950 . S
C898 C884 1.377 . S
C898 C897 1.373 . S
C899 C883 1.377 . S
C899 C897 1.389 . S
C899 C900 1.524 . S
C900 C899 1.524 . S
C900 C901 1.397 . S
C900 C905 1.363 . S
C901 H872 0.950 . S
C901 C900 1.397 . S
C901 C902 1.334 . S
C902 H873 0.950 . S
C902 C901 1.334 . S
C902 C903 1.287 . S
C903 C902 1.287 . S
C903 C904 1.524 . S
C903 H906 0.999 . S
C904 H874 0.950 . S
C904 C903 1.524 . S
C904 C905 1.415 . S
C905 H875 0.950 . S
C905 C900 1.363 . S
C905 C904 1.415 . S
H906 C903 0.999 . S
H907 C888 0.913 . S
H908 C926 0.951 . S
H909 C928 0.951 . S
H910 C930 0.950 . S
H911 C931 0.950 . S
H912 C933 0.950 . S
H913 C936 0.950 . S
H914 C937 0.950 . S
H915 C939 0.950 . S
H916 C940 0.950 . S
H917 C941 0.951 . S
H918 C943 0.951 . S
H919 C945 0.950 . S
H920 C946 0.950 . S
H921 C948 0.950 . S
H922 C951 0.950 . S
H923 C952 0.950 . S
H924 C954 0.950 . S
H925 C955 0.950 . S
C926 H908 0.951 . S
C926 C927 1.366 . S
C926 C928 1.388 . S
C927 C926 1.366 . S
C927 C931 1.385 . S
C928 H909 0.951 . S
C928 C926 1.388 . S
C928 C929 1.366 . S
C929 C928 1.366 . S
C929 C930 1.414 . S
C929 C932 1.499 . S
C930 H910 0.950 . S
C930 C929 1.414 . S
C930 C931 1.374 . S
C931 H911 0.950 . S
C931 C927 1.385 . S
C931 C930 1.374 . S
C932 C929 1.499 . S
C932 C933 1.373 . S
C932 C934 1.389 . S
C933 H912 0.950 . S
C933 C932 1.373 . S
C933 C949 1.377 . S
C934 C932 1.389 . S
C934 C935 1.524 . S
C934 C948 1.377 . S
C935 C934 1.524 . S
C935 C936 1.397 . S
C935 C940 1.363 . S
C936 H913 0.950 . S
C936 C935 1.397 . S
C936 C937 1.334 . S
C937 H914 0.950 . S
C937 C936 1.334 . S
C937 C938 1.287 . S
C938 C937 1.287 . S
C938 C939 1.524 . S
C938 H957 0.913 . S
C939 H915 0.950 . S
C939 C938 1.524 . S
C939 C940 1.415 . S
C940 H916 0.950 . S
C940 C935 1.363 . S
C940 C939 1.415 . S
C941 H917 0.951 . S
C941 C942 1.366 . S
C941 C943 1.388 . S
C942 C941 1.366 . S
C942 C946 1.385 . S
C943 H918 0.951 . S
C943 C941 1.388 . S
C943 C944 1.366 . S
C944 C943 1.366 . S
C944 C945 1.414 . S
C944 C947 1.499 . S
C945 H919 0.950 . S
C945 C944 1.414 . S
C945 C946 1.374 . S
C946 H920 0.950 . S
C946 C942 1.385 . S
C946 C945 1.374 . S
C947 C944 1.499 . S
C947 C948 1.373 . S
C947 C949 1.389 . S
C948 H921 0.950 . S
C948 C934 1.377 . S
C948 C947 1.373 . S
C949 C933 1.377 . S
C949 C947 1.389 . S
C949 C950 1.524 . S
C950 C949 1.524 . S
C950 C951 1.397 . S
C950 C955 1.363 . S
C951 H922 0.950 . S
C951 C950 1.397 . S
C951 C952 1.334 . S
C952 H923 0.950 . S
C952 C951 1.334 . S
C952 C953 1.287 . S
C953 C952 1.287 . S
C953 C954 1.524 . S
C953 H956 0.999 . S
C954 H924 0.950 . S
C954 C953 1.524 . S
C954 C955 1.415 . S
C955 H925 0.950 . S
C955 C950 1.363 . S
C955 C954 1.415 . S
H956 C953 0.999 . S
H957 C938 0.913 . S
H958 C976 0.951 . S
H959 C978 0.951 . S
H960 C980 0.950 . S
H961 C981 0.950 . S
H962 C983 0.950 . S
H963 C986 0.950 . S
H964 C987 0.950 . S
H965 C989 0.950 . S
H966 C990 0.950 . S
H967 C991 0.951 . S
H968 C993 0.951 . S
H969 C995 0.950 . S
H970 C996 0.950 . S
H971 C998 0.950 . S
H972 C1001 0.950 . S
H973 C1002 0.950 . S
H974 C1004 0.950 . S
H975 C1005 0.950 . S
C976 H958 0.951 . S
C976 C977 1.366 . S
C976 C978 1.388 . S
C977 C976 1.366 . S
C977 C981 1.385 . S
C978 H959 0.951 . S
C978 C976 1.388 . S
C978 C979 1.366 . S
C979 C978 1.366 . S
C979 C980 1.414 . S
C979 C982 1.499 . S
C980 H960 0.950 . S
C980 C979 1.414 . S
C980 C981 1.374 . S
C981 H961 0.950 . S
C981 C977 1.385 . S
C981 C980 1.374 . S
C982 C979 1.499 . S
C982 C983 1.373 . S
C982 C984 1.389 . S
C983 H962 0.950 . S
C983 C982 1.373 . S
C983 C999 1.377 . S
C984 C982 1.389 . S
C984 C985 1.524 . S
C984 C998 1.377 . S
C985 C984 1.524 . S
C985 C986 1.397 . S
C985 C990 1.363 . S
C986 H963 0.950 . S
C986 C985 1.397 . S
C986 C987 1.334 . S
C987 H964 0.950 . S
C987 C986 1.334 . S
C987 C988 1.287 . S
C988 C987 1.287 . S
C988 C989 1.524 . S
C988 H1007 0.913 . S
C989 H965 0.950 . S
C989 C988 1.524 . S
C989 C990 1.415 . S
C990 H966 0.950 . S
C990 C985 1.363 . S
C990 C989 1.415 . S
C991 H967 0.951 . S
C991 C992 1.366 . S
C991 C993 1.388 . S
C992 C991 1.366 . S
C992 C996 1.385 . S
C993 H968 0.951 . S
C993 C991 1.388 . S
C993 C994 1.366 . S
C994 C993 1.366 . S
C994 C995 1.414 . S
C994 C997 1.499 . S
C995 H969 0.950 . S
C995 C994 1.414 . S
C995 C996 1.374 . S
C996 H970 0.950 . S
C996 C992 1.385 . S
C996 C995 1.374 . S
C997 C994 1.499 . S
C997 C998 1.373 . S
C997 C999 1.389 . S
C998 H971 0.950 . S
C998 C984 1.377 . S
C998 C997 1.373 . S
C999 C983 1.377 . S
C999 C997 1.389 . S
C999 C1000 1.524 . S
C1000 C999 1.524 . S
C1000 C1001 1.397 . S
C1000 C1005 1.363 . S
C1001 H972 0.950 . S
C1001 C1000 1.397 . S
C1001 C1002 1.334 . S
C1002 H973 0.950 . S
C1002 C1001 1.334 . S
C1002 C1003 1.287 . S
C1003 C1002 1.287 . S
C1003 C1004 1.524 . S
C1003 H1006 0.999 . S
C1004 H974 0.950 . S
C1004 C1003 1.524 . S
C1004 C1005 1.415 . S
C1005 H975 0.950 . S
C1005 C1000 1.363 . S
C1005 C1004 1.415 . S
H1006 C1003 0.999 . S
H1007 C988 0.913 . S
H1008 C1026 0.951 . S
H1009 C1028 0.951 . S
H1010 C1030 0.950 . S
H1011 C1031 0.950 . S
H1012 C1033 0.950 . S
H1013 C1036 0.950 . S
H1014 C1037 0.950 . S
H1015 C1039 0.950 . S
H1016 C1040 0.950 . S
H1017 C1041 0.951 . S
H1018 C1043 0.951 . S
H1019 C1045 0.950 . S
H1020 C1046 0.950 . S
H1021 C1048 0.950 . S
H1022 C1051 0.950 . S
H1023 C1052 0.950 . S
H1024 C1054 0.950 . S
H1025 C1055 0.950 . S
C1026 H1008 0.951 . S
C1026 C1027 1.366 . S
C1026 C1028 1.388 . S
C1027 C1026 1.366 . S
C1027 C1031 1.385 . S
C1028 H1009 0.951 . S
C1028 C1026 1.388 . S
C1028 C1029 1.366 . S
C1029 C1028 1.366 . S
C1029 C1030 1.414 . S
C1029 C1032 1.499 . S
C1030 H1010 0.950 . S
C1030 C1029 1.414 . S
C1030 C1031 1.374 . S
C1031 H1011 0.950 . S
C1031 C1027 1.385 . S
C1031 C1030 1.374 . S
C1032 C1029 1.499 . S
C1032 C1033 1.373 . S
C1032 C1034 1.389 . S
C1033 H1012 0.950 . S
C1033 C1032 1.373 . S
C1033 C1049 1.377 . S
C1034 C1032 1.389 . S
C1034 C1035 1.524 . S
C1034 C1048 1.377 . S
C1035 C1034 1.524 . S
C1035 C1036 1.397 . S
C1035 C1040 1.363 . S
C1036 H1013 0.950 . S
C1036 C1035 1.397 . S
C1036 C1037 1.334 . S
C1037 H1014 0.950 . S
C1037 C1036 1.334 . S
C1037 C1038 1.287 . S
C1038 C1037 1.287 . S
C1038 C1039 1.524 . S
C1038 H1057 0.913 . S
C1039 H1015 0.950 . S
C1039 C1038 1.524 . S
C1039 C1040 1.415 . S
C1040 H1016 0.950 . S
C1040 C1035 1.363 . S
C1040 C1039 1.415 . S
C1041 H1017 0.951 . S
C1041 C1042 1.366 . S
C1041 C1043 1.388 . S
C1042 C1041 1.366 . S
C1042 C1046 1.385 . S
C1043 H1018 0.951 . S
C1043 C1041 1.388 . S
C1043 C1044 1.366 . S
C1044 C1043 1.366 . S
C1044 C1045 1.414 . S
C1044 C1047 1.499 . S
C1045 H1019 0.950 . S
C1045 C1044 1.414 . S
C1045 C1046 1.374 . S
C1046 H1020 0.950 . S
C1046 C1042 1.385 . S
C1046 C1045 1.374 . S
C1047 C1044 1.499 . S
C1047 C1048 1.373 . S
C1047 C1049 1.389 . S
C1048 H1021 0.950 . S
C1048 C1034 1.377 . S
C1048 C1047 1.373 . S
C1049 C1033 1.377 . S
C1049 C1047 1.389 . S
C1049 C1050 1.524 . S
C1050 C1049 1.524 . S
C1050 C1051 1.397 . S
C1050 C1055 1.363 . S
C1051 H1022 0.950 . S
C1051 C1050 1.397 . S
C1051 C1052 1.334 . S
C1052 H1023 0.950 . S
C1052 C1051 1.334 . S
C1052 C1053 1.287 . S
C1053 C1052 1.287 . S
C1053 C1054 1.524 . S
C1053 H1056 0.999 . S
C1054 H1024 0.950 . S
C1054 C1053 1.524 . S
C1054 C1055 1.415 . S
C1055 H1025 0.950 . S
C1055 C1050 1.363 . S
C1055 C1054 1.415 . S
H1056 C1053 0.999 . S
H1057 C1038 0.913 . S
H1058 C1076 0.951 . S
H1059 C1078 0.951 . S
H1060 C1080 0.950 . S
H1061 C1081 0.950 . S
H1062 C1083 0.950 . S
H1063 C1086 0.950 . S
H1064 C1087 0.950 . S
H1065 C1089 0.950 . S
H1066 C1090 0.950 . S
H1067 C1091 0.951 . S
H1068 C1093 0.951 . S
H1069 C1095 0.950 . S
H1070 C1096 0.950 . S
H1071 C1098 0.950 . S
H1072 C1101 0.950 . S
H1073 C1102 0.950 . S
H1074 C1104 0.950 . S
H1075 C1105 0.950 . S
C1076 H1058 0.951 . S
C1076 C1077 1.366 . S
C1076 C1078 1.388 . S
C1077 C1076 1.366 . S
C1077 C1081 1.385 . S
C1078 H1059 0.951 . S
C1078 C1076 1.388 . S
C1078 C1079 1.366 . S
C1079 C1078 1.366 . S
C1079 C1080 1.414 . S
C1079 C1082 1.499 . S
C1080 H1060 0.950 . S
C1080 C1079 1.414 . S
C1080 C1081 1.374 . S
C1081 H1061 0.950 . S
C1081 C1077 1.385 . S
C1081 C1080 1.374 . S
C1082 C1079 1.499 . S
C1082 C1083 1.373 . S
C1082 C1084 1.389 . S
C1083 H1062 0.950 . S
C1083 C1082 1.373 . S
C1083 C1099 1.377 . S
C1084 C1082 1.389 . S
C1084 C1085 1.524 . S
C1084 C1098 1.377 . S
C1085 C1084 1.524 . S
C1085 C1086 1.397 . S
C1085 C1090 1.363 . S
C1086 H1063 0.950 . S
C1086 C1085 1.397 . S
C1086 C1087 1.334 . S
C1087 H1064 0.950 . S
C1087 C1086 1.334 . S
C1087 C1088 1.287 . S
C1088 C1087 1.287 . S
C1088 C1089 1.524 . S
C1088 H1107 0.913 . S
C1089 H1065 0.950 . S
C1089 C1088 1.524 . S
C1089 C1090 1.415 . S
C1090 H1066 0.950 . S
C1090 C1085 1.363 . S
C1090 C1089 1.415 . S
C1091 H1067 0.951 . S
C1091 C1092 1.366 . S
C1091 C1093 1.388 . S
C1092 C1091 1.366 . S
C1092 C1096 1.385 . S
C1093 H1068 0.951 . S
C1093 C1091 1.388 . S
C1093 C1094 1.366 . S
C1094 C1093 1.366 . S
C1094 C1095 1.414 . S
C1094 C1097 1.499 . S
C1095 H1069 0.950 . S
C1095 C1094 1.414 . S
C1095 C1096 1.374 . S
C1096 H1070 0.950 . S
C1096 C1092 1.385 . S
C1096 C1095 1.374 . S
C1097 C1094 1.499 . S
C1097 C1098 1.373 . S
C1097 C1099 1.389 . S
C1098 H1071 0.950 . S
C1098 C1084 1.377 . S
C1098 C1097 1.373 . S
C1099 C1083 1.377 . S
C1099 C1097 1.389 . S
C1099 C1100 1.524 . S
C1100 C1099 1.524 . S
C1100 C1101 1.397 . S
C1100 C1105 1.363 . S
C1101 H1072 0.950 . S
C1101 C1100 1.397 . S
C1101 C1102 1.334 . S
C1102 H1073 0.950 . S
C1102 C1101 1.334 . S
C1102 C1103 1.287 . S
C1103 C1102 1.287 . S
C1103 C1104 1.524 . S
C1103 H1106 0.999 . S
C1104 H1074 0.950 . S
C1104 C1103 1.524 . S
C1104 C1105 1.415 . S
C1105 H1075 0.950 . S
C1105 C1100 1.363 . S
C1105 C1104 1.415 . S
H1106 C1103 0.999 . S
H1107 C1088 0.913 . S
H1108 C1126 0.951 . S
H1109 C1128 0.951 . S
H1110 C1130 0.950 . S
H1111 C1131 0.950 . S
H1112 C1133 0.950 . S
H1113 C1136 0.950 . S
H1114 C1137 0.950 . S
H1115 C1139 0.950 . S
H1116 C1140 0.950 . S
H1117 C1141 0.951 . S
H1118 C1143 0.951 . S
H1119 C1145 0.950 . S
H1120 C1146 0.950 . S
H1121 C1148 0.950 . S
H1122 C1151 0.950 . S
H1123 C1152 0.950 . S
H1124 C1154 0.950 . S
H1125 C1155 0.950 . S
C1126 H1108 0.951 . S
C1126 C1127 1.366 . S
C1126 C1128 1.388 . S
C1127 C1126 1.366 . S
C1127 C1131 1.385 . S
C1128 H1109 0.951 . S
C1128 C1126 1.388 . S
C1128 C1129 1.366 . S
C1129 C1128 1.366 . S
C1129 C1130 1.414 . S
C1129 C1132 1.499 . S
C1130 H1110 0.950 . S
C1130 C1129 1.414 . S
C1130 C1131 1.374 . S
C1131 H1111 0.950 . S
C1131 C1127 1.385 . S
C1131 C1130 1.374 . S
C1132 C1129 1.499 . S
C1132 C1133 1.373 . S
C1132 C1134 1.389 . S
C1133 H1112 0.950 . S
C1133 C1132 1.373 . S
C1133 C1149 1.377 . S
C1134 C1132 1.389 . S
C1134 C1135 1.524 . S
C1134 C1148 1.377 . S
C1135 C1134 1.524 . S
C1135 C1136 1.397 . S
C1135 C1140 1.363 . S
C1136 H1113 0.950 . S
C1136 C1135 1.397 . S
C1136 C1137 1.334 . S
C1137 H1114 0.950 . S
C1137 C1136 1.334 . S
C1137 C1138 1.287 . S
C1138 C1137 1.287 . S
C1138 C1139 1.524 . S
C1138 H1157 0.913 . S
C1139 H1115 0.950 . S
C1139 C1138 1.524 . S
C1139 C1140 1.415 . S
C1140 H1116 0.950 . S
C1140 C1135 1.363 . S
C1140 C1139 1.415 . S
C1141 H1117 0.951 . S
C1141 C1142 1.366 . S
C1141 C1143 1.388 . S
C1142 C1141 1.366 . S
C1142 C1146 1.385 . S
C1143 H1118 0.951 . S
C1143 C1141 1.388 . S
C1143 C1144 1.366 . S
C1144 C1143 1.366 . S
C1144 C1145 1.414 . S
C1144 C1147 1.499 . S
C1145 H1119 0.950 . S
C1145 C1144 1.414 . S
C1145 C1146 1.374 . S
C1146 H1120 0.950 . S
C1146 C1142 1.385 . S
C1146 C1145 1.374 . S
C1147 C1144 1.499 . S
C1147 C1148 1.373 . S
C1147 C1149 1.389 . S
C1148 H1121 0.950 . S
C1148 C1134 1.377 . S
C1148 C1147 1.373 . S
C1149 C1133 1.377 . S
C1149 C1147 1.389 . S
C1149 C1150 1.524 . S
C1150 C1149 1.524 . S
C1150 C1151 1.397 . S
C1150 C1155 1.363 . S
C1151 H1122 0.950 . S
C1151 C1150 1.397 . S
C1151 C1152 1.334 . S
C1152 H1123 0.950 . S
C1152 C1151 1.334 . S
C1152 C1153 1.287 . S
C1153 C1152 1.287 . S
C1153 C1154 1.524 . S
C1153 H1156 0.999 . S
C1154 H1124 0.950 . S
C1154 C1153 1.524 . S
C1154 C1155 1.415 . S
C1155 H1125 0.950 . S
C1155 C1150 1.363 . S
C1155 C1154 1.415 . S
H1156 C1153 0.999 . S
H1157 C1138 0.913 . S
H1158 C1176 0.951 . S
H1159 C1178 0.951 . S
H1160 C1180 0.950 . S
H1161 C1181 0.950 . S
H1162 C1183 0.950 . S
H1163 C1186 0.950 . S
H1164 C1187 0.950 . S
H1165 C1189 0.950 . S
H1166 C1190 0.950 . S
H1167 C1191 0.951 . S
H1168 C1193 0.951 . S
H1169 C1195 0.950 . S
H1170 C1196 0.950 . S
H1171 C1198 0.950 . S
H1172 C1201 0.950 . S
H1173 C1202 0.950 . S
H1174 C1204 0.950 . S
H1175 C1205 0.950 . S
C1176 H1158 0.951 . S
C1176 C1177 1.366 . S
C1176 C1178 1.388 . S
C1177 C1176 1.366 . S
C1177 C1181 1.385 . S
C1178 H1159 0.951 . S
C1178 C1176 1.388 . S
C1178 C1179 1.366 . S
C1179 C1178 1.366 . S
C1179 C1180 1.414 . S
C1179 C1182 1.499 . S
C1180 H1160 0.950 . S
C1180 C1179 1.414 . S
C1180 C1181 1.374 . S
C1181 H1161 0.950 . S
C1181 C1177 1.385 . S
C1181 C1180 1.374 . S
C1182 C1179 1.499 . S
C1182 C1183 1.373 . S
C1182 C1184 1.389 . S
C1183 H1162 0.950 . S
C1183 C1182 1.373 . S
C1183 C1199 1.377 . S
C1184 C1182 1.389 . S
C1184 C1185 1.524 . S
C1184 C1198 1.377 . S
C1185 C1184 1.524 . S
C1185 C1186 1.397 . S
C1185 C1190 1.363 . S
C1186 H1163 0.950 . S
C1186 C1185 1.397 . S
C1186 C1187 1.334 . S
C1187 H1164 0.950 . S
C1187 C1186 1.334 . S
C1187 C1188 1.287 . S
C1188 C1187 1.287 . S
C1188 C1189 1.524 . S
C1188 H1207 0.913 . S
C1189 H1165 0.950 . S
C1189 C1188 1.524 . S
C1189 C1190 1.415 . S
C1190 H1166 0.950 . S
C1190 C1185 1.363 . S
C1190 C1189 1.415 . S
C1191 H1167 0.951 . S
C1191 C1192 1.366 . S
C1191 C1193 1.388 . S
C1192 C1191 1.366 . S
C1192 C1196 1.385 . S
C1193 H1168 0.951 . S
C1193 C1191 1.388 . S
C1193 C1194 1.366 . S
C1194 C1193 1.366 . S
C1194 C1195 1.414 . S
C1194 C1197 1.499 . S
C1195 H1169 0.950 . S
C1195 C1194 1.414 . S
C1195 C1196 1.374 . S
C1196 H1170 0.950 . S
C1196 C1192 1.385 . S
C1196 C1195 1.374 . S
C1197 C1194 1.499 . S
C1197 C1198 1.373 . S
C1197 C1199 1.389 . S
C1198 H1171 0.950 . S
C1198 C1184 1.377 . S
C1198 C1197 1.373 . S
C1199 C1183 1.377 . S
C1199 C1197 1.389 . S
C1199 C1200 1.524 . S
C1200 C1199 1.524 . S
C1200 C1201 1.397 . S
C1200 C1205 1.363 . S
C1201 H1172 0.950 . S
C1201 C1200 1.397 . S
C1201 C1202 1.334 . S
C1202 H1173 0.950 . S
C1202 C1201 1.334 . S
C1202 C1203 1.287 . S
C1203 C1202 1.287 . S
C1203 C1204 1.524 . S
C1203 H1206 0.999 . S
C1204 H1174 0.950 . S
C1204 C1203 1.524 . S
C1204 C1205 1.415 . S
C1205 H1175 0.950 . S
C1205 C1200 1.363 . S
C1205 C1204 1.415 . S
H1206 C1203 0.999 . S
H1207 C1188 0.913 . S
H1208 C1226 0.951 . S
H1209 C1228 0.951 . S
H1210 C1230 0.950 . S
H1211 C1231 0.950 . S
H1212 C1233 0.950 . S
H1213 C1236 0.950 . S
H1214 C1237 0.950 . S
H1215 C1239 0.950 . S
H1216 C1240 0.950 . S
H1217 C1241 0.951 . S
H1218 C1243 0.951 . S
H1219 C1245 0.950 . S
H1220 C1246 0.950 . S
H1221 C1248 0.950 . S
H1222 C1251 0.950 . S
H1223 C1252 0.950 . S
H1224 C1254 0.950 . S
H1225 C1255 0.950 . S
C1226 H1208 0.951 . S
C1226 C1227 1.366 . S
C1226 C1228 1.388 . S
C1227 C1226 1.366 . S
C1227 C1231 1.385 . S
C1228 H1209 0.951 . S
C1228 C1226 1.388 . S
C1228 C1229 1.366 . S
C1229 C1228 1.366 . S
C1229 C1230 1.414 . S
C1229 C1232 1.499 . S
C1230 H1210 0.950 . S
C1230 C1229 1.414 . S
C1230 C1231 1.374 . S
C1231 H1211 0.950 . S
C1231 C1227 1.385 . S
C1231 C1230 1.374 . S
C1232 C1229 1.499 . S
C1232 C1233 1.373 . S
C1232 C1234 1.389 . S
C1233 H1212 0.950 . S
C1233 C1232 1.373 . S
C1233 C1249 1.377 . S
C1234 C1232 1.389 . S
C1234 C1235 1.524 . S
C1234 C1248 1.377 . S
C1235 C1234 1.524 . S
C1235 C1236 1.397 . S
C1235 C1240 1.363 . S
C1236 H1213 0.950 . S
C1236 C1235 1.397 . S
C1236 C1237 1.334 . S
C1237 H1214 0.950 . S
C1237 C1236 1.334 . S
C1237 C1238 1.287 . S
C1238 C1237 1.287 . S
C1238 C1239 1.524 . S
C1238 H1257 0.913 . S
C1239 H1215 0.950 . S
C1239 C1238 1.524 . S
C1239 C1240 1.415 . S
C1240 H1216 0.950 . S
C1240 C1235 1.363 . S
C1240 C1239 1.415 . S
C1241 H1217 0.951 . S
C1241 C1242 1.366 . S
C1241 C1243 1.388 . S
C1242 C1241 1.366 . S
C1242 C1246 1.385 . S
C1243 H1218 0.951 . S
C1243 C1241 1.388 . S
C1243 C1244 1.366 . S
C1244 C1243 1.366 . S
C1244 C1245 1.414 . S
C1244 C1247 1.499 . S
C1245 H1219 0.950 . S
C1245 C1244 1.414 . S
C1245 C1246 1.374 . S
C1246 H1220 0.950 . S
C1246 C1242 1.385 . S
C1246 C1245 1.374 . S
C1247 C1244 1.499 . S
C1247 C1248 1.373 . S
C1247 C1249 1.389 . S
C1248 H1221 0.950 . S
C1248 C1234 1.377 . S
C1248 C1247 1.373 . S
C1249 C1233 1.377 . S
C1249 C1247 1.389 . S
C1249 C1250 1.524 . S
C1250 C1249 1.524 . S
C1250 C1251 1.397 . S
C1250 C1255 1.363 . S
C1251 H1222 0.950 . S
C1251 C1250 1.397 . S
C1251 C1252 1.334 . S
C1252 H1223 0.950 . S
C1252 C1251 1.334 . S
C1252 C1253 1.287 . S
C1253 C1252 1.287 . S
C1253 C1254 1.524 . S
C1253 H1256 0.999 . S
C1254 H1224 0.950 . S
C1254 C1253 1.524 . S
C1254 C1255 1.415 . S
C1255 H1225 0.950 . S
C1255 C1250 1.363 . S
C1255 C1254 1.415 . S
H1256 C1253 0.999 . S
H1257 C1238 0.913 . S
H1258 C1276 0.951 . S
H1259 C1278 0.951 . S
H1260 C1280 0.950 . S
H1261 C1281 0.950 . S
H1262 C1283 0.950 . S
H1263 C1286 0.950 . S
H1264 C1287 0.950 . S
H1265 C1289 0.950 . S
H1266 C1290 0.950 . S
H1267 C1291 0.951 . S
H1268 C1293 0.951 . S
H1269 C1295 0.950 . S
H1270 C1296 0.950 . S
H1271 C1298 0.950 . S
H1272 C1301 0.950 . S
H1273 C1302 0.950 . S
H1274 C1304 0.950 . S
H1275 C1305 0.950 . S
C1276 H1258 0.951 . S
C1276 C1277 1.366 . S
C1276 C1278 1.388 . S
C1277 C1276 1.366 . S
C1277 C1281 1.385 . S
C1278 H1259 0.951 . S
C1278 C1276 1.388 . S
C1278 C1279 1.366 . S
C1279 C1278 1.366 . S
C1279 C1280 1.414 . S
C1279 C1282 1.499 . S
C1280 H1260 0.950 . S
C1280 C1279 1.414 . S
C1280 C1281 1.374 . S
C1281 H1261 0.950 . S
C1281 C1277 1.385 . S
C1281 C1280 1.374 . S
C1282 C1279 1.499 . S
C1282 C1283 1.373 . S
C1282 C1284 1.389 . S
C1283 H1262 0.950 . S
C1283 C1282 1.373 . S
C1283 C1299 1.377 . S
C1284 C1282 1.389 . S
C1284 C1285 1.524 . S
C1284 C1298 1.377 . S
C1285 C1284 1.524 . S
C1285 C1286 1.397 . S
C1285 C1290 1.363 . S
C1286 H1263 0.950 . S
C1286 C1285 1.397 . S
C1286 C1287 1.334 . S
C1287 H1264 0.950 . S
C1287 C1286 1.334 . S
C1287 C1288 1.287 . S
C1288 C1287 1.287 . S
C1288 C1289 1.524 . S
C1288 H1307 0.913 . S
C1289 H1265 0.950 . S
C1289 C1288 1.524 . S
C1289 C1290 1.415 . S
C1290 H1266 0.950 . S
C1290 C1285 1.363 . S
C1290 C1289 1.415 . S
C1291 H1267 0.951 . S
C1291 C1292 1.366 . S
C1291 C1293 1.388 . S
C1292 C1291 1.366 . S
C1292 C1296 1.385 . S
C1293 H1268 0.951 . S
C1293 C1291 1.388 . S
C1293 C1294 1.366 . S
C1294 C1293 1.366 . S
C1294 C1295 1.414 . S
C1294 C1297 1.499 . S
C1295 H1269 0.950 . S
C1295 C1294 1.414 . S
C1295 C1296 1.374 . S
C1296 H1270 0.950 . S
C1296 C1292 1.385 . S
C1296 C1295 1.374 . S
C1297 C1294 1.499 . S
C1297 C1298 1.373 . S
C1297 C1299 1.389 . S
C1298 H1271 0.950 . S
C1298 C1284 1.377 . S
C1298 C1297 1.373 . S
C1299 C1283 1.377 . S
C1299 C1297 1.389 . S
C1299 C1300 1.524 . S
C1300 C1299 1.524 . S
C1300 C1301 1.397 . S
C1300 C1305 1.363 . S
C1301 H1272 0.950 . S
C1301 C1300 1.397 . S
C1301 C1302 1.334 . S
C1302 H1273 0.950 . S
C1302 C1301 1.334 . S
C1302 C1303 1.287 . S
C1303 C1302 1.287 . S
C1303 C1304 1.524 . S
C1303 H1306 0.999 . S
C1304 H1274 0.950 . S
C1304 C1303 1.524 . S
C1304 C1305 1.415 . S
C1305 H1275 0.950 . S
C1305 C1300 1.363 . S
C1305 C1304 1.415 . S
H1306 C1303 0.999 . S
H1307 C1288 0.913 . S
H1308 C1326 0.951 . S
H1309 C1328 0.951 . S
H1310 C1330 0.950 . S
H1311 C1331 0.950 . S
H1312 C1333 0.950 . S
H1313 C1336 0.950 . S
H1314 C1337 0.950 . S
H1315 C1339 0.950 . S
H1316 C1340 0.950 . S
H1317 C1341 0.951 . S
H1318 C1343 0.951 . S
H1319 C1345 0.950 . S
H1320 C1346 0.950 . S
H1321 C1348 0.950 . S
H1322 C1351 0.950 . S
H1323 C1352 0.950 . S
H1324 C1354 0.950 . S
H1325 C1355 0.950 . S
C1326 H1308 0.951 . S
C1326 C1327 1.366 . S
C1326 C1328 1.388 . S
C1327 C1326 1.366 . S
C1327 C1331 1.385 . S
C1328 H1309 0.951 . S
C1328 C1326 1.388 . S
C1328 C1329 1.366 . S
C1329 C1328 1.366 . S
C1329 C1330 1.414 . S
C1329 C1332 1.499 . S
C1330 H1310 0.950 . S
C1330 C1329 1.414 . S
C1330 C1331 1.374 . S
C1331 H1311 0.950 . S
C1331 C1327 1.385 . S
C1331 C1330 1.374 . S
C1332 C1329 1.499 . S
C1332 C1333 1.373 . S
C1332 C1334 1.389 . S
C1333 H1312 0.950 . S
C1333 C1332 1.373 . S
C1333 C1349 1.377 . S
C1334 C1332 1.389 . S
C1334 C1335 1.524 . S
C1334 C1348 1.377 . S
C1335 C1334 1.524 . S
C1335 C1336 1.397 . S
C1335 C1340 1.363 . S
C1336 H1313 0.950 . S
C1336 C1335 1.397 . S
C1336 C1337 1.334 . S
C1337 H1314 0.950 . S
C1337 C1336 1.334 . S
C1337 C1338 1.287 . S
C1338 C1337 1.287 . S
C1338 C1339 1.524 . S
C1338 H1357 0.913 . S
C1339 H1315 0.950 . S
C1339 C1338 1.524 . S
C1339 C1340 1.415 . S
C1340 H1316 0.950 . S
C1340 C1335 1.363 . S
C1340 C1339 1.415 . S
C1341 H1317 0.951 . S
C1341 C1342 1.366 . S
C1341 C1343 1.388 . S
C1342 C1341 1.366 . S
C1342 C1346 1.385 . S
C1343 H1318 0.951 . S
C1343 C1341 1.388 . S
C1343 C1344 1.366 . S
C1344 C1343 1.366 . S
C1344 C1345 1.414 . S
C1344 C1347 1.499 . S
C1345 H1319 0.950 . S
C1345 C1344 1.414 . S
C1345 C1346 1.374 . S
C1346 H1320 0.950 . S
C1346 C1342 1.385 . S
C1346 C1345 1.374 . S
C1347 C1344 1.499 . S
C1347 C1348 1.373 . S
C1347 C1349 1.389 . S
C1348 H1321 0.950 . S
C1348 C1334 1.377 . S
C1348 C1347 1.373 . S
C1349 C1333 1.377 . S
C1349 C1347 1.389 . S
C1349 C1350 1.524 . S
C1350 C1349 1.524 . S
C1350 C1351 1.397 . S
C1350 C1355 1.363 . S
C1351 H1322 0.950 . S
C1351 C1350 1.397 . S
C1351 C1352 1.334 . S
C1352 H1323 0.950 . S
C1352 C1351 1.334 . S
C1352 C1353 1.287 . S
C1353 C1352 1.287 . S
C1353 C1354 1.524 . S
C1353 H1356 0.999 . S
C1354 H1324 0.950 . S
C1354 C1353 1.524 . S
C1354 C1355 1.415 . S
C1355 H1325 0.950 . S
C1355 C1350 1.363 . S
C1355 C1354 1.415 . S
H1356 C1353 0.999 . S
H1357 C1338 0.913 . S
H1358 C1376 0.951 . S
H1359 C1378 0.951 . S
H1360 C1380 0.950 . S
H1361 C1381 0.950 . S
H1362 C1383 0.950 . S
H1363 C1386 0.950 . S
H1364 C1387 0.950 . S
H1365 C1389 0.950 . S
H1366 C1390 0.950 . S
H1367 C1391 0.951 . S
H1368 C1393 0.951 . S
H1369 C1395 0.950 . S
H1370 C1396 0.950 . S
H1371 C1398 0.950 . S
H1372 C1401 0.950 . S
H1373 C1402 0.950 . S
H1374 C1404 0.950 . S
H1375 C1405 0.950 . S
C1376 H1358 0.951 . S
C1376 C1377 1.366 . S
C1376 C1378 1.388 . S
C1377 C1376 1.366 . S
C1377 C1381 1.385 . S
C1378 H1359 0.951 . S
C1378 C1376 1.388 . S
C1378 C1379 1.366 . S
C1379 C1378 1.366 . S
C1379 C1380 1.414 . S
C1379 C1382 1.499 . S
C1380 H1360 0.950 . S
C1380 C1379 1.414 . S
C1380 C1381 1.374 . S
C1381 H1361 0.950 . S
C1381 C1377 1.385 . S
C1381 C1380 1.374 . S
C1382 C1379 1.499 . S
C1382 C1383 1.373 . S
C1382 C1384 1.389 . S
C1383 H1362 0.950 . S
C1383 C1382 1.373 . S
C1383 C1399 1.377 . S
C1384 C1382 1.389 . S
C1384 C1385 1.524 . S
C1384 C1398 1.377 . S
C1385 C1384 1.524 . S
C1385 C1386 1.397 . S
C1385 C1390 1.363 . S
C1386 H1363 0.950 . S
C1386 C1385 1.397 . S
C1386 C1387 1.334 . S
C1387 H1364 0.950 . S
C1387 C1386 1.334 . S
C1387 C1388 1.287 . S
C1388 C1387 1.287 . S
C1388 C1389 1.524 . S
C1388 H1407 0.913 . S
C1389 H1365 0.950 . S
C1389 C1388 1.524 . S
C1389 C1390 1.415 . S
C1390 H1366 0.950 . S
C1390 C1385 1.363 . S
C1390 C1389 1.415 . S
C1391 H1367 0.951 . S
C1391 C1392 1.366 . S
C1391 C1393 1.388 . S
C1392 C1391 1.366 . S
C1392 C1396 1.385 . S
C1393 H1368 0.951 . S
C1393 C1391 1.388 . S
C1393 C1394 1.366 . S
C1394 C1393 1.366 . S
C1394 C1395 1.414 . S
C1394 C1397 1.499 . S
C1395 H1369 0.950 . S
C1395 C1394 1.414 . S
C1395 C1396 1.374 . S
C1396 H1370 0.950 . S
C1396 C1392 1.385 . S
C1396 C1395 1.374 . S
C1397 C1394 1.499 . S
C1397 C1398 1.373 . S
C1397 C1399 1.389 . S
C1398 H1371 0.950 . S
C1398 C1384 1.377 . S
C1398 C1397 1.373 . S
C1399 C1383 1.377 . S
C1399 C1397 1.389 . S
C1399 C1400 1.524 . S
C1400 C1399 1.524 . S
C1400 C1401 1.397 . S
C1400 C1405 1.363 . S
C1401 H1372 0.950 . S
C1401 C1400 1.397 . S
C1401 C1402 1.334 . S
C1402 H1373 0.950 . S
C1402 C1401 1.334 . S
C1402 C1403 1.287 . S
C1403 C1402 1.287 . S
C1403 C1404 1.524 . S
C1403 H1406 0.999 . S
C1404 H1374 0.950 . S
C1404 C1403 1.524 . S
C1404 C1405 1.415 . S
C1405 H1375 0.950 . S
C1405 C1400 1.363 . S
C1405 C1404 1.415 . S
H1406 C1403 0.999 . S
H1407 C1388 0.913 . S
H1408 C1426 0.951 . S
H1409 C1428 0.951 . S
H1410 C1430 0.950 . S
H1411 C1431 0.950 . S
H1412 C1433 0.950 . S
H1413 C1436 0.950 . S
H1414 C1437 0.950 . S
H1415 C1439 0.950 . S
H1416 C1440 0.950 . S
H1417 C1441 0.951 . S
H1418 C1443 0.951 . S
H1419 C1445 0.950 . S
H1420 C1446 0.950 . S
H1421 C1448 0.950 . S
H1422 C1451 0.950 . S
H1423 C1452 0.950 . S
H1424 C1454 0.950 . S
H1425 C1455 0.950 . S
C1426 H1408 0.951 . S
C1426 C1427 1.366 . S
C1426 C1428 1.388 . S
C1427 C1426 1.366 . S
C1427 C1431 1.385 . S
C1428 H1409 0.951 . S
C1428 C1426 1.388 . S
C1428 C1429 1.366 . S
C1429 C1428 1.366 . S
C1429 C1430 1.414 . S
C1429 C1432 1.499 . S
C1430 H1410 0.950 . S
C1430 C1429 1.414 . S
C1430 C1431 1.374 . S
C1431 H1411 0.950 . S
C1431 C1427 1.385 . S
C1431 C1430 1.374 . S
C1432 C1429 1.499 . S
C1432 C1433 1.373 . S
C1432 C1434 1.389 . S
C1433 H1412 0.950 . S
C1433 C1432 1.373 . S
C1433 C1449 1.377 . S
C1434 C1432 1.389 . S
C1434 C1435 1.524 . S
C1434 C1448 1.377 . S
C1435 C1434 1.524 . S
C1435 C1436 1.397 . S
C1435 C1440 1.363 . S
C1436 H1413 0.950 . S
C1436 C1435 1.397 . S
C1436 C1437 1.334 . S
C1437 H1414 0.950 . S
C1437 C1436 1.334 . S
C1437 C1438 1.287 . S
C1438 C1437 1.287 . S
C1438 C1439 1.524 . S
C1438 H1457 0.913 . S
C1439 H1415 0.950 . S
C1439 C1438 1.524 . S
C1439 C1440 1.415 . S
C1440 H1416 0.950 . S
C1440 C1435 1.363 . S
C1440 C1439 1.415 . S
C1441 H1417 0.951 . S
C1441 C1442 1.366 . S
C1441 C1443 1.388 . S
C1442 C1441 1.366 . S
C1442 C1446 1.385 . S
C1443 H1418 0.951 . S
C1443 C1441 1.388 . S
C1443 C1444 1.366 . S
C1444 C1443 1.366 . S
C1444 C1445 1.414 . S
C1444 C1447 1.499 . S
C1445 H1419 0.950 . S
C1445 C1444 1.414 . S
C1445 C1446 1.374 . S
C1446 H1420 0.950 . S
C1446 C1442 1.385 . S
C1446 C1445 1.374 . S
C1447 C1444 1.499 . S
C1447 C1448 1.373 . S
C1447 C1449 1.389 . S
C1448 H1421 0.950 . S
C1448 C1434 1.377 . S
C1448 C1447 1.373 . S
C1449 C1433 1.377 . S
C1449 C1447 1.389 . S
C1449 C1450 1.524 . S
C1450 C1449 1.524 . S
C1450 C1451 1.397 . S
C1450 C1455 1.363 . S
C1451 H1422 0.950 . S
C1451 C1450 1.397 . S
C1451 C1452 1.334 . S
C1452 H1423 0.950 . S
C1452 C1451 1.334 . S
C1452 C1453 1.287 . S
C1453 C1452 1.287 . S
C1453 C1454 1.524 . S
C1453 H1456 0.999 . S
C1454 H1424 0.950 . S
C1454 C1453 1.524 . S
C1454 C1455 1.415 . S
C1455 H1425 0.950 . S
C1455 C1450 1.363 . S
C1455 C1454 1.415 . S
H1456 C1453 0.999 . S
H1457 C1438 0.913 . S
H1458 C1476 0.951 . S
H1459 C1478 0.951 . S
H1460 C1480 0.950 . S
H1461 C1481 0.950 . S
H1462 C1483 0.950 . S
H1463 C1486 0.950 . S
H1464 C1487 0.950 . S
H1465 C1489 0.950 . S
H1466 C1490 0.950 . S
H1467 C1491 0.951 . S
H1468 C1493 0.951 . S
H1469 C1495 0.950 . S
H1470 C1496 0.950 . S
H1471 C1498 0.950 . S
H1472 C1501 0.950 . S
H1473 C1502 0.950 . S
H1474 C1504 0.950 . S
H1475 C1505 0.950 . S
C1476 H1458 0.951 . S
C1476 C1477 1.366 . S
C1476 C1478 1.388 . S
C1477 C1476 1.366 . S
C1477 C1481 1.385 . S
C1478 H1459 0.951 . S
C1478 C1476 1.388 . S
C1478 C1479 1.366 . S
C1479 C1478 1.366 . S
C1479 C1480 1.414 . S
C1479 C1482 1.499 . S
C1480 H1460 0.950 . S
C1480 C1479 1.414 . S
C1480 C1481 1.374 . S
C1481 H1461 0.950 . S
C1481 C1477 1.385 . S
C1481 C1480 1.374 . S
C1482 C1479 1.499 . S
C1482 C1483 1.373 . S
C1482 C1484 1.389 . S
C1483 H1462 0.950 . S
C1483 C1482 1.373 . S
C1483 C1499 1.377 . S
C1484 C1482 1.389 . S
C1484 C1485 1.524 . S
C1484 C1498 1.377 . S
C1485 C1484 1.524 . S
C1485 C1486 1.397 . S
C1485 C1490 1.363 . S
C1486 H1463 0.950 . S
C1486 C1485 1.397 . S
C1486 C1487 1.334 . S
C1487 H1464 0.950 . S
C1487 C1486 1.334 . S
C1487 C1488 1.287 . S
C1488 C1487 1.287 . S
C1488 C1489 1.524 . S
C1488 H1507 0.913 . S
C1489 H1465 0.950 . S
C1489 C1488 1.524 . S
C1489 C1490 1.415 . S
C1490 H1466 0.950 . S
C1490 C1485 1.363 . S
C1490 C1489 1.415 . S
C1491 H1467 0.951 . S
C1491 C1492 1.366 . S
C1491 C1493 1.388 . S
C1492 C1491 1.366 . S
C1492 C1496 1.385 . S
C1493 H1468 0.951 . S
C1493 C1491 1.388 . S
C1493 C1494 1.366 . S
C1494 C1493 1.366 . S
C1494 C1495 1.414 . S
C1494 C1497 1.499 . S
C1495 H1469 0.950 . S
C1495 C1494 1.414 . S
C1495 C1496 1.374 . S
C1496 H1470 0.950 . S
C1496 C1492 1.385 . S
C1496 C1495 1.374 . S
C1497 C1494 1.499 . S
C1497 C1498 1.373 . S
C1497 C1499 1.389 . S
C1498 H1471 0.950 . S
C1498 C1484 1.377 . S
C1498 C1497 1.373 . S
C1499 C1483 1.377 . S
C1499 C1497 1.389 . S
C1499 C1500 1.524 . S
C1500 C1499 1.524 . S
C1500 C1501 1.397 . S
C1500 C1505 1.363 . S
C1501 H1472 0.950 . S
C1501 C1500 1.397 . S
C1501 C1502 1.334 . S
C1502 H1473 0.950 . S
C1502 C1501 1.334 . S
C1502 C1503 1.287 . S
C1503 C1502 1.287 . S
C1503 C1504 1.524 . S
C1503 H1506 0.999 . S
C1504 H1474 0.950 . S
C1504 C1503 1.524 . S
C1504 C1505 1.415 . S
C1505 H1475 0.950 . S
C1505 C1500 1.363 . S
C1505 C1504 1.415 . S
H1506 C1503 0.999 . S
H1507 C1488 0.913 . S
H1508 C1526 0.951 . S
H1509 C1528 0.951 . S
H1510 C1530 0.950 . S
H1511 C1531 0.950 . S
H1512 C1533 0.950 . S
H1513 C1536 0.950 . S
H1514 C1537 0.950 . S
H1515 C1539 0.950 . S
H1516 C1540 0.950 . S
H1517 C1541 0.951 . S
H1518 C1543 0.951 . S
H1519 C1545 0.950 . S
H1520 C1546 0.950 . S
H1521 C1548 0.950 . S
H1522 C1551 0.950 . S
H1523 C1552 0.950 . S
H1524 C1554 0.950 . S
H1525 C1555 0.950 . S
C1526 H1508 0.951 . S
C1526 C1527 1.366 . S
C1526 C1528 1.388 . S
C1527 C1526 1.366 . S
C1527 C1531 1.385 . S
C1528 H1509 0.951 . S
C1528 C1526 1.388 . S
C1528 C1529 1.366 . S
C1529 C1528 1.366 . S
C1529 C1530 1.414 . S
C1529 C1532 1.499 . S
C1530 H1510 0.950 . S
C1530 C1529 1.414 . S
C1530 C1531 1.374 . S
C1531 H1511 0.950 . S
C1531 C1527 1.385 . S
C1531 C1530 1.374 . S
C1532 C1529 1.499 . S
C1532 C1533 1.373 . S
C1532 C1534 1.389 . S
C1533 H1512 0.950 . S
C1533 C1532 1.373 . S
C1533 C1549 1.377 . S
C1534 C1532 1.389 . S
C1534 C1535 1.524 . S
C1534 C1548 1.377 . S
C1535 C1534 1.524 . S
C1535 C1536 1.397 . S
C1535 C1540 1.363 . S
C1536 H1513 0.950 . S
C1536 C1535 1.397 . S
C1536 C1537 1.334 . S
C1537 H1514 0.950 . S
C1537 C1536 1.334 . S
C1537 C1538 1.287 . S
C1538 C1537 1.287 . S
C1538 C1539 1.524 . S
C1538 H1557 0.913 . S
C1539 H1515 0.950 . S
C1539 C1538 1.524 . S
C1539 C1540 1.415 . S
C1540 H1516 0.950 . S
C1540 C1535 1.363 . S
C1540 C1539 1.415 . S
C1541 H1517 0.951 . S
C1541 C1542 1.366 . S
C1541 C1543 1.388 . S
C1542 C1541 1.366 . S
C1542 C1546 1.385 . S
C1543 H1518 0.951 . S
C1543 C1541 1.388 . S
C1543 C1544 1.366 . S
C1544 C1543 1.366 . S
C1544 C1545 1.414 . S
C1544 C1547 1.499 . S
C1545 H1519 0.950 . S
C1545 C1544 1.414 . S
C1545 C1546 1.374 . S
C1546 H1520 0.950 . S
C1546 C1542 1.385 . S
C1546 C1545 1.374 . S
C1547 C1544 1.499 . S
C1547 C1548 1.373 . S
C1547 C1549 1.389 . S
C1548 H1521 0.950 . S
C1548 C1534 1.377 . S
C1548 C1547 1.373 . S
C1549 C1533 1.377 . S
C1549 C1547 1.389 . S
C1549 C1550 1.524 . S
C1550 C1549 1.524 . S
C1550 C1551 1.397 . S
C1550 C1555 1.363 . S
C1551 H1522 0.950 . S
C1551 C1550 1.397 . S
C1551 C1552 1.334 . S
C1552 H1523 0.950 . S
C1552 C1551 1.334 . S
C1552 C1553 1.287 . S
C1553 C1552 1.287 . S
C1553 C1554 1.524 . S
C1553 H1556 0.999 . S
C1554 H1524 0.950 . S
C1554 C1553 1.524 . S
C1554 C1555 1.415 . S
C1555 H1525 0.950 . S
C1555 C1550 1.363 . S
C1555 C1554 1.415 . S
H1556 C1553 0.999 . S
H1557 C1538 0.913 . S
H1558 C1576 0.951 . S
H1559 C1578 0.951 . S
H1560 C1580 0.950 . S
H1561 C1581 0.950 . S
H1562 C1583 0.950 . S
H1563 C1586 0.950 . S
H1564 C1587 0.950 . S
H1565 C1589 0.950 . S
H1566 C1590 0.950 . S
H1567 C1591 0.951 . S
H1568 C1593 0.951 . S
H1569 C1595 0.950 . S
H1570 C1596 0.950 . S
H1571 C1598 0.950 . S
H1572 C1601 0.950 . S
H1573 C1602 0.950 . S
H1574 C1604 0.950 . S
H1575 C1605 0.950 . S
C1576 H1558 0.951 . S
C1576 C1577 1.366 . S
C1576 C1578 1.388 . S
C1577 C1576 1.366 . S
C1577 C1581 1.385 . S
C1578 H1559 0.951 . S
C1578 C1576 1.388 . S
C1578 C1579 1.366 . S
C1579 C1578 1.366 . S
C1579 C1580 1.414 . S
C1579 C1582 1.499 . S
C1580 H1560 0.950 . S
C1580 C1579 1.414 . S
C1580 C1581 1.374 . S
C1581 H1561 0.950 . S
C1581 C1577 1.385 . S
C1581 C1580 1.374 . S
C1582 C1579 1.499 . S
C1582 C1583 1.373 . S
C1582 C1584 1.389 . S
C1583 H1562 0.950 . S
C1583 C1582 1.373 . S
C1583 C1599 1.377 . S
C1584 C1582 1.389 . S
C1584 C1585 1.524 . S
C1584 C1598 1.377 . S
C1585 C1584 1.524 . S
C1585 C1586 1.397 . S
C1585 C1590 1.363 . S
C1586 H1563 0.950 . S
C1586 C1585 1.397 . S
C1586 C1587 1.334 . S
C1587 H1564 0.950 . S
C1587 C1586 1.334 . S
C1587 C1588 1.287 . S
C1588 C1587 1.287 . S
C1588 C1589 1.524 . S
C1588 H1607 0.913 . S
C1589 H1565 0.950 . S
C1589 C1588 1.524 . S
C1589 C1590 1.415 . S
C1590 H1566 0.950 . S
C1590 C1585 1.363 . S
C1590 C1589 1.415 . S
C1591 H1567 0.951 . S
C1591 C1592 1.366 . S
C1591 C1593 1.388 . S
C1592 C1591 1.366 . S
C1592 C1596 1.385 . S
C1593 H1568 0.951 . S
C1593 C1591 1.388 . S
C1593 C1594 1.366 . S
C1594 C1593 1.366 . S
C1594 C1595 1.414 . S
C1594 C1597 1.499 . S
C1595 H1569 0.950 . S
C1595 C1594 1.414 . S
C1595 C1596 1.374 . S
C1596 H1570 0.950 . S
C1596 C1592 1.385 . S
C1596 C1595 1.374 . S
C1597 C1594 1.499 . S
C1597 C1598 1.373 . S
C1597 C1599 1.389 . S
C1598 H1571 0.950 . S
C1598 C1584 1.377 . S
C1598 C1597 1.373 . S
C1599 C1583 1.377 . S
C1599 C1597 1.389 . S
C1599 C1600 1.524 . S
C1600 C1599 1.524 . S
C1600 C1601 1.397 . S
C1600 C1605 1.363 . S
C1601 H1572 0.950 . S
C1601 C1600 1.397 . S
C1601 C1602 1.334 . S
C1602 H1573 0.950 . S
C1602 C1601 1.334 . S
C1602 C1603 1.287 . S
C1603 C1602 1.287 . S
C1603 C1604 1.524 . S
C1603 H1606 0.999 . S
C1604 H1574 0.950 . S
C1604 C1603 1.524 . S
C1604 C1605 1.415 . S
C1605 H1575 0.950 . S
C1605 C1600 1.363 . S
C1605 C1604 1.415 . S
H1606 C1603 0.999 . S
H1607 C1588 0.913 . S
H1608 C1626 0.951 . S
H1609 C1628 0.951 . S
H1610 C1630 0.950 . S
H1611 C1631 0.950 . S
H1612 C1633 0.950 . S
H1613 C1636 0.950 . S
H1614 C1637 0.950 . S
H1615 C1639 0.950 . S
H1616 C1640 0.950 . S
H1617 C1641 0.951 . S
H1618 C1643 0.951 . S
H1619 C1645 0.950 . S
H1620 C1646 0.950 . S
H1621 C1648 0.950 . S
H1622 C1651 0.950 . S
H1623 C1652 0.950 . S
H1624 C1654 0.950 . S
H1625 C1655 0.950 . S
C1626 H1608 0.951 . S
C1626 C1627 1.366 . S
C1626 C1628 1.388 . S
C1627 C1626 1.366 . S
C1627 C1631 1.385 . S
C1628 H1609 0.951 . S
C1628 C1626 1.388 . S
C1628 C1629 1.366 . S
C1629 C1628 1.366 . S
C1629 C1630 1.414 . S
C1629 C1632 1.499 . S
C1630 H1610 0.950 . S
C1630 C1629 1.414 . S
C1630 C1631 1.374 . S
C1631 H1611 0.950 . S
C1631 C1627 1.385 . S
C1631 C1630 1.374 . S
C1632 C1629 1.499 . S
C1632 C1633 1.373 . S
C1632 C1634 1.389 . S
C1633 H1612 0.950 . S
C1633 C1632 1.373 . S
C1633 C1649 1.377 . S
C1634 C1632 1.389 . S
C1634 C1635 1.524 . S
C1634 C1648 1.377 . S
C1635 C1634 1.524 . S
C1635 C1636 1.397 . S
C1635 C1640 1.363 . S
C1636 H1613 0.950 . S
C1636 C1635 1.397 . S
C1636 C1637 1.334 . S
C1637 H1614 0.950 . S
C1637 C1636 1.334 . S
C1637 C1638 1.287 . S
C1638 C1637 1.287 . S
C1638 C1639 1.524 . S
C1638 H1657 0.913 . S
C1639 H1615 0.950 . S
C1639 C1638 1.524 . S
C1639 C1640 1.415 . S
C1640 H1616 0.950 . S
C1640 C1635 1.363 . S
C1640 C1639 1.415 . S
C1641 H1617 0.951 . S
C1641 C1642 1.366 . S
C1641 C1643 1.388 . S
C1642 C1641 1.366 . S
C1642 C1646 1.385 . S
C1643 H1618 0.951 . S
C1643 C1641 1.388 . S
C1643 C1644 1.366 . S
C1644 C1643 1.366 . S
C1644 C1645 1.414 . S
C1644 C1647 1.499 . S
C1645 H1619 0.950 . S
C1645 C1644 1.414 . S
C1645 C1646 1.374 . S
C1646 H1620 0.950 . S
C1646 C1642 1.385 . S
C1646 C1645 1.374 . S
C1647 C1644 1.499 . S
C1647 C1648 1.373 . S
C1647 C1649 1.389 . S
C1648 H1621 0.950 . S
C1648 C1634 1.377 . S
C1648 C1647 1.373 . S
C1649 C1633 1.377 . S
C1649 C1647 1.389 . S
C1649 C1650 1.524 . S
C1650 C1649 1.524 . S
C1650 C1651 1.397 . S
C1650 C1655 1.363 . S
C1651 H1622 0.950 . S
C1651 C1650 1.397 . S
C1651 C1652 1.334 . S
C1652 H1623 0.950 . S
C1652 C1651 1.334 . S
C1652 C1653 1.287 . S
C1653 C1652 1.287 . S
C1653 C1654 1.524 . S
C1653 H1656 0.999 . S
C1654 H1624 0.950 . S
C1654 C1653 1.524 . S
C1654 C1655 1.415 . S
C1655 H1625 0.950 . S
C1655 C1650 1.363 . S
C1655 C1654 1.415 . S
H1656 C1653 0.999 . S
H1657 C1638 0.913 . S
H1658 C1676 0.951 . S
H1659 C1678 0.951 . S
H1660 C1680 0.950 . S
H1661 C1681 0.950 . S
H1662 C1683 0.950 . S
H1663 C1686 0.950 . S
H1664 C1687 0.950 . S
H1665 C1689 0.950 . S
H1666 C1690 0.950 . S
H1667 C1691 0.951 . S
H1668 C1693 0.951 . S
H1669 C1695 0.950 . S
H1670 C1696 0.950 . S
H1671 C1698 0.950 . S
H1672 C1701 0.950 . S
H1673 C1702 0.950 . S
H1674 C1704 0.950 . S
H1675 C1705 0.950 . S
C1676 H1658 0.951 . S
C1676 C1677 1.366 . S
C1676 C1678 1.388 . S
C1677 C1676 1.366 . S
C1677 C1681 1.385 . S
C1678 H1659 0.951 . S
C1678 C1676 1.388 . S
C1678 C1679 1.366 . S
C1679 C1678 1.366 . S
C1679 C1680 1.414 . S
C1679 C1682 1.499 . S
C1680 H1660 0.950 . S
C1680 C1679 1.414 . S
C1680 C1681 1.374 . S
C1681 H1661 0.950 . S
C1681 C1677 1.385 . S
C1681 C1680 1.374 . S
C1682 C1679 1.499 . S
C1682 C1683 1.373 . S
C1682 C1684 1.389 . S
C1683 H1662 0.950 . S
C1683 C1682 1.373 . S
C1683 C1699 1.377 . S
C1684 C1682 1.389 . S
C1684 C1685 1.524 . S
C1684 C1698 1.377 . S
C1685 C1684 1.524 . S
C1685 C1686 1.397 . S
C1685 C1690 1.363 . S
C1686 H1663 0.950 . S
C1686 C1685 1.397 . S
C1686 C1687 1.334 . S
C1687 H1664 0.950 . S
C1687 C1686 1.334 . S
C1687 C1688 1.287 . S
C1688 C1687 1.287 . S
C1688 C1689 1.524 . S
C1688 H1707 0.913 . S
C1689 H1665 0.950 . S
C1689 C1688 1.524 . S
C1689 C1690 1.415 . S
C1690 H1666 0.950 . S
C1690 C1685 1.363 . S
C1690 C1689 1.415 . S
C1691 H1667 0.951 . S
C1691 C1692 1.366 . S
C1691 C1693 1.388 . S
C1692 C1691 1.366 . S
C1692 C1696 1.385 . S
C1693 H1668 0.951 . S
C1693 C1691 1.388 . S
C1693 C1694 1.366 . S
C1694 C1693 1.366 . S
C1694 C1695 1.414 . S
C1694 C1697 1.499 . S
C1695 H1669 0.950 . S
C1695 C1694 1.414 . S
C1695 C1696 1.374 . S
C1696 H1670 0.950 . S
C1696 C1692 1.385 . S
C1696 C1695 1.374 . S
C1697 C1694 1.499 . S
C1697 C1698 1.373 . S
C1697 C1699 1.389 . S
C1698 H1671 0.950 . S
C1698 C1684 1.377 . S
C1698 C1697 1.373 . S
C1699 C1683 1.377 . S
C1699 C1697 1.389 . S
C1699 C1700 1.524 . S
C1700 C1699 1.524 . S
C1700 C1701 1.397 . S
C1700 C1705 1.363 . S
C1701 H1672 0.950 . S
C1701 C1700 1.397 . S
C1701 C1702 1.334 . S
C1702 H1673 0.950 . S
C1702 C1701 1.334 . S
C1702 C1703 1.287 . S
C1703 C1702 1.287 . S
C1703 C1704 1.524 . S
C1703 H1706 0.999 . S
C1704 H1674 0.950 . S
C1704 C1703 1.524 . S
C1704 C1705 1.415 . S
C1705 H1675 0.950 . S
C1705 C1700 1.363 . S
C1705 C1704 1.415 . S
H1706 C1703 0.999 . S
H1707 C1688 0.913 . S
H1708 C1726 0.951 . S
H1709 C1728 0.951 . S
H1710 C1730 0.950 . S
H1711 C1731 0.950 . S
H1712 C1733 0.950 . S
H1713 C1736 0.950 . S
H1714 C1737 0.950 . S
H1715 C1739 0.950 . S
H1716 C1740 0.950 . S
H1717 C1741 0.951 . S
H1718 C1743 0.951 . S
H1719 C1745 0.950 . S
H1720 C1746 0.950 . S
H1721 C1748 0.950 . S
H1722 C1751 0.950 . S
H1723 C1752 0.950 . S
H1724 C1754 0.950 . S
H1725 C1755 0.950 . S
C1726 H1708 0.951 . S
C1726 C1727 1.366 . S
C1726 C1728 1.388 . S
C1727 C1726 1.366 . S
C1727 C1731 1.385 . S
C1728 H1709 0.951 . S
C1728 C1726 1.388 . S
C1728 C1729 1.366 . S
C1729 C1728 1.366 . S
C1729 C1730 1.414 . S
C1729 C1732 1.499 . S
C1730 H1710 0.950 . S
C1730 C1729 1.414 . S
C1730 C1731 1.374 . S
C1731 H1711 0.950 . S
C1731 C1727 1.385 . S
C1731 C1730 1.374 . S
C1732 C1729 1.499 . S
C1732 C1733 1.373 . S
C1732 C1734 1.389 . S
C1733 H1712 0.950 . S
C1733 C1732 1.373 . S
C1733 C1749 1.377 . S
C1734 C1732 1.389 . S
C1734 C1735 1.524 . S
C1734 C1748 1.377 . S
C1735 C1734 1.524 . S
C1735 C1736 1.397 . S
C1735 C1740 1.363 . S
C1736 H1713 0.950 . S
C1736 C1735 1.397 . S
C1736 C1737 1.334 . S
C1737 H1714 0.950 . S
C1737 C1736 1.334 . S
C1737 C1738 1.287 . S
C1738 C1737 1.287 . S
C1738 C1739 1.524 . S
C1738 H1757 0.913 . S
C1739 H1715 0.950 . S
C1739 C1738 1.524 . S
C1739 C1740 1.415 . S
C1740 H1716 0.950 . S
C1740 C1735 1.363 . S
C1740 C1739 1.415 . S
C1741 H1717 0.951 . S
C1741 C1742 1.366 . S
C1741 C1743 1.388 . S
C1742 C1741 1.366 . S
C1742 C1746 1.385 . S
C1743 H1718 0.951 . S
C1743 C1741 1.388 . S
C1743 C1744 1.366 . S
C1744 C1743 1.366 . S
C1744 C1745 1.414 . S
C1744 C1747 1.499 . S
C1745 H1719 0.950 . S
C1745 C1744 1.414 . S
C1745 C1746 1.374 . S
C1746 H1720 0.950 . S
C1746 C1742 1.385 . S
C1746 C1745 1.374 . S
C1747 C1744 1.499 . S
C1747 C1748 1.373 . S
C1747 C1749 1.389 . S
C1748 H1721 0.950 . S
C1748 C1734 1.377 . S
C1748 C1747 1.373 . S
C1749 C1733 1.377 . S
C1749 C1747 1.389 . S
C1749 C1750 1.524 . S
C1750 C1749 1.524 . S
C1750 C1751 1.397 . S
C1750 C1755 1.363 . S
C1751 H1722 0.950 . S
C1751 C1750 1.397 . S
C1751 C1752 1.334 . S
C1752 H1723 0.950 . S
C1752 C1751 1.334 . S
C1752 C1753 1.287 . S
C1753 C1752 1.287 . S
C1753 C1754 1.524 . S
C1753 H1756 0.999 . S
C1754 H1724 0.950 . S
C1754 C1753 1.524 . S
C1754 C1755 1.415 . S
C1755 H1725 0.950 . S
C1755 C1750 1.363 . S
C1755 C1754 1.415 . S
H1756 C1753 0.999 . S
H1757 C1738 0.913 . S
H1758 C1776 0.951 . S
H1759 C1778 0.951 . S
H1760 C1780 0.950 . S
H1761 C1781 0.950 . S
H1762 C1783 0.950 . S
H1763 C1786 0.950 . S
H1764 C1787 0.950 . S
H1765 C1789 0.950 . S
H1766 C1790 0.950 . S
H1767 C1791 0.951 . S
H1768 C1793 0.951 . S
H1769 C1795 0.950 . S
H1770 C1796 0.950 . S
H1771 C1798 0.950 . S
H1772 C1801 0.950 . S
H1773 C1802 0.950 . S
H1774 C1804 0.950 . S
H1775 C1805 0.950 . S
C1776 H1758 0.951 . S
C1776 C1777 1.366 . S
C1776 C1778 1.388 . S
C1777 C1776 1.366 . S
C1777 C1781 1.385 . S
C1778 H1759 0.951 . S
C1778 C1776 1.388 . S
C1778 C1779 1.366 . S
C1779 C1778 1.366 . S
C1779 C1780 1.414 . S
C1779 C1782 1.499 . S
C1780 H1760 0.950 . S
C1780 C1779 1.414 . S
C1780 C1781 1.374 . S
C1781 H1761 0.950 . S
C1781 C1777 1.385 . S
C1781 C1780 1.374 . S
C1782 C1779 1.499 . S
C1782 C1783 1.373 . S
C1782 C1784 1.389 . S
C1783 H1762 0.950 . S
C1783 C1782 1.373 . S
C1783 C1799 1.377 . S
C1784 C1782 1.389 . S
C1784 C1785 1.524 . S
C1784 C1798 1.377 . S
C1785 C1784 1.524 . S
C1785 C1786 1.397 . S
C1785 C1790 1.363 . S
C1786 H1763 0.950 . S
C1786 C1785 1.397 . S
C1786 C1787 1.334 . S
C1787 H1764 0.950 . S
C1787 C1786 1.334 . S
C1787 C1788 1.287 . S
C1788 C1787 1.287 . S
C1788 C1789 1.524 . S
C1788 H1807 0.913 . S
C1789 H1765 0.950 . S
C1789 C1788 1.524 . S
C1789 C1790 1.415 . S
C1790 H1766 0.950 . S
C1790 C1785 1.363 . S
C1790 C1789 1.415 . S
C1791 H1767 0.951 . S
C1791 C1792 1.366 . S
C1791 C1793 1.388 . S
C1792 C1791 1.366 . S
C1792 C1796 1.385 . S
C1793 H1768 0.951 . S
C1793 C1791 1.388 . S
C1793 C1794 1.366 . S
C1794 C1793 1.366 . S
C1794 C1795 1.414 . S
C1794 C1797 1.499 . S
C1795 H1769 0.950 . S
C1795 C1794 1.414 . S
C1795 C1796 1.374 . S
C1796 H1770 0.950 . S
C1796 C1792 1.385 . S
C1796 C1795 1.374 . S
C1797 C1794 1.499 . S
C1797 C1798 1.373 . S
C1797 C1799 1.389 . S
C1798 H1771 0.950 . S
C1798 C1784 1.377 . S
C1798 C1797 1.373 . S
C1799 C1783 1.377 . S
C1799 C1797 1.389 . S
C1799 C1800 1.524 . S
C1800 C1799 1.524 . S
C1800 C1801 1.397 . S
C1800 C1805 1.363 . S
C1801 H1772 0.950 . S
C1801 C1800 1.397 . S
C1801 C1802 1.334 . S
C1802 H1773 0.950 . S
C1802 C1801 1.334 . S
C1802 C1803 1.287 . S
C1803 C1802 1.287 . S
C1803 C1804 1.524 . S
C1803 H1806 0.999 . S
C1804 H1774 0.950 . S
C1804 C1803 1.524 . S
C1804 C1805 1.415 . S
C1805 H1775 0.950 . S
C1805 C1800 1.363 . S
C1805 C1804 1.415 . S
H1806 C1803 0.999 . S
H1807 C1788 0.913 . S
C642 C350 1.583 . S
C627 C15 1.582 . S
C692 C389 1.599 . S
C677 C55 1.603 . S
C742 C365 1.607 . S
C727 C101 1.611 . S
C792 C404 1.646 . S
C777 C141 1.653 . S
C842 C452 1.547 . S
C827 C2 1.530 . S
C892 C485 1.538 . S
C877 C61 1.517 . S
C927 C95 1.671 . S
C942 C542 1.677 . S
C992 C590 1.537 . S
C977 C135 1.536 . S
C1042 C437 1.547 . S
C1027 C42 1.523 . S
C1077 C82 1.529 . S
C1092 C500 1.551 . S
C1142 C557 1.640 . S
C1127 C122 1.674 . S
C1192 C605 1.535 . S
C1177 C21 1.524 . S
C1227 C162 1.649 . S
C1242 C398 1.628 . S
C1292 C341 1.615 . S
C1277 C221 1.621 . S
C1327 C255 1.604 . S
C1342 C413 1.604 . S
C1377 C282 1.560 . S
C1392 C356 1.577 . S
C1442 C533 1.666 . S
C1427 C181 1.688 . S
C1492 C596 1.549 . S
C1477 C202 1.544 . S
C1542 C461 1.557 . S
C1527 C242 1.550 . S
C1577 C301 1.525 . S
C1592 C509 1.546 . S
C1642 C548 1.669 . S
C1627 C215 1.675 . S
C1692 C581 1.537 . S
C1677 C261 1.540 . S
C1742 C446 1.534 . S
C1727 C295 1.552 . S
C1777 C175 1.541 . S
C1792 C494 1.530 . S
