# Generated by pormake.
# Topology ctn, (3,4)-cn, num edge types: 1
# Building blocks:
#     Node 0, Type 0, BuildingBlock: PAMTOO_clean_linker_0, # of connection points: 3
#     Node 1, Type 0, BuildingBlock: PAMTOO_clean_linker_0, # of connection points: 3
#     Node 2, Type 0, BuildingBlock: PAMTOO_clean_linker_0, # of connection points: 3
#     Node 3, Type 0, BuildingBlock: PAMTOO_clean_linker_0, # of connection points: 3
#     Node 4, Type 0, BuildingBlock: PAMTOO_clean_linker_0, # of connection points: 3
#     Node 5, Type 0, BuildingBlock: PAMTOO_clean_linker_0, # of connection points: 3
#     Node 6, Type 0, BuildingBlock: PAMTOO_clean_linker_0, # of connection points: 3
#     Node 7, Type 0, BuildingBlock: PAMTOO_clean_linker_0, # of connection points: 3
#     Node 8, Type 0, BuildingBlock: PAMTOO_clean_linker_0, # of connection points: 3
#     Node 9, Type 0, BuildingBlock: PAMTOO_clean_linker_0, # of connection points: 3
#     Node 10, Type 0, BuildingBlock: PAMTOO_clean_linker_0, # of connection points: 3
#     Node 11, Type 0, BuildingBlock: PAMTOO_clean_linker_0, # of connection points: 3
#     Node 12, Type 0, BuildingBlock: PAMTOO_clean_linker_0, # of connection points: 3
#     Node 13, Type 0, BuildingBlock: PAMTOO_clean_linker_0, # of connection points: 3
#     Node 14, Type 0, BuildingBlock: PAMTOO_clean_linker_0, # of connection points: 3
#     Node 15, Type 0, BuildingBlock: PAMTOO_clean_linker_0, # of connection points: 3
#     Node 16, Type 1, BuildingBlock: UXUYUI_clean_sbu_0, # of connection points: 4
#     Node 17, Type 1, BuildingBlock: UXUYUI_clean_sbu_0, # of connection points: 4
#     Node 18, Type 1, BuildingBlock: UXUYUI_clean_sbu_0, # of connection points: 4
#     Node 19, Type 1, BuildingBlock: UXUYUI_clean_sbu_0, # of connection points: 4
#     Node 20, Type 1, BuildingBlock: UXUYUI_clean_sbu_0, # of connection points: 4
#     Node 21, Type 1, BuildingBlock: UXUYUI_clean_sbu_0, # of connection points: 4
#     Node 22, Type 1, BuildingBlock: UXUYUI_clean_sbu_0, # of connection points: 4
#     Node 23, Type 1, BuildingBlock: UXUYUI_clean_sbu_0, # of connection points: 4
#     Node 24, Type 1, BuildingBlock: UXUYUI_clean_sbu_0, # of connection points: 4
#     Node 25, Type 1, BuildingBlock: UXUYUI_clean_sbu_0, # of connection points: 4
#     Node 26, Type 1, BuildingBlock: UXUYUI_clean_sbu_0, # of connection points: 4
#     Node 27, Type 1, BuildingBlock: UXUYUI_clean_sbu_0, # of connection points: 4
#     Edge 28, Type (0, 1), BuildingBlock: CIFDUS_clean_linker_0, # of connection points: 2
#     Edge 29, Type (0, 1), BuildingBlock: CIFDUS_clean_linker_0, # of connection points: 2
#     Edge 30, Type (0, 1), BuildingBlock: CIFDUS_clean_linker_0, # of connection points: 2
#     Edge 31, Type (0, 1), BuildingBlock: CIFDUS_clean_linker_0, # of connection points: 2
#     Edge 32, Type (0, 1), BuildingBlock: CIFDUS_clean_linker_0, # of connection points: 2
#     Edge 33, Type (0, 1), BuildingBlock: CIFDUS_clean_linker_0, # of connection points: 2
#     Edge 34, Type (0, 1), BuildingBlock: CIFDUS_clean_linker_0, # of connection points: 2
#     Edge 35, Type (0, 1), BuildingBlock: CIFDUS_clean_linker_0, # of connection points: 2
#     Edge 36, Type (0, 1), BuildingBlock: CIFDUS_clean_linker_0, # of connection points: 2
#     Edge 37, Type (0, 1), BuildingBlock: CIFDUS_clean_linker_0, # of connection points: 2
#     Edge 38, Type (0, 1), BuildingBlock: CIFDUS_clean_linker_0, # of connection points: 2
#     Edge 39, Type (0, 1), BuildingBlock: CIFDUS_clean_linker_0, # of connection points: 2
#     Edge 40, Type (0, 1), BuildingBlock: CIFDUS_clean_linker_0, # of connection points: 2
#     Edge 41, Type (0, 1), BuildingBlock: CIFDUS_clean_linker_0, # of connection points: 2
#     Edge 42, Type (0, 1), BuildingBlock: CIFDUS_clean_linker_0, # of connection points: 2
#     Edge 43, Type (0, 1), BuildingBlock: CIFDUS_clean_linker_0, # of connection points: 2
#     Edge 44, Type (0, 1), BuildingBlock: CIFDUS_clean_linker_0, # of connection points: 2
#     Edge 45, Type (0, 1), BuildingBlock: CIFDUS_clean_linker_0, # of connection points: 2
#     Edge 46, Type (0, 1), BuildingBlock: CIFDUS_clean_linker_0, # of connection points: 2
#     Edge 47, Type (0, 1), BuildingBlock: CIFDUS_clean_linker_0, # of connection points: 2
#     Edge 48, Type (0, 1), BuildingBlock: CIFDUS_clean_linker_0, # of connection points: 2
#     Edge 49, Type (0, 1), BuildingBlock: CIFDUS_clean_linker_0, # of connection points: 2
#     Edge 50, Type (0, 1), BuildingBlock: CIFDUS_clean_linker_0, # of connection points: 2
#     Edge 51, Type (0, 1), BuildingBlock: CIFDUS_clean_linker_0, # of connection points: 2
#     Edge 52, Type (0, 1), BuildingBlock: CIFDUS_clean_linker_0, # of connection points: 2
#     Edge 53, Type (0, 1), BuildingBlock: CIFDUS_clean_linker_0, # of connection points: 2
#     Edge 54, Type (0, 1), BuildingBlock: CIFDUS_clean_linker_0, # of connection points: 2
#     Edge 55, Type (0, 1), BuildingBlock: CIFDUS_clean_linker_0, # of connection points: 2
#     Edge 56, Type (0, 1), BuildingBlock: CIFDUS_clean_linker_0, # of connection points: 2
#     Edge 57, Type (0, 1), BuildingBlock: CIFDUS_clean_linker_0, # of connection points: 2
#     Edge 58, Type (0, 1), BuildingBlock: CIFDUS_clean_linker_0, # of connection points: 2
#     Edge 59, Type (0, 1), BuildingBlock: CIFDUS_clean_linker_0, # of connection points: 2
#     Edge 60, Type (0, 1), BuildingBlock: CIFDUS_clean_linker_0, # of connection points: 2
#     Edge 61, Type (0, 1), BuildingBlock: CIFDUS_clean_linker_0, # of connection points: 2
#     Edge 62, Type (0, 1), BuildingBlock: CIFDUS_clean_linker_0, # of connection points: 2
#     Edge 63, Type (0, 1), BuildingBlock: CIFDUS_clean_linker_0, # of connection points: 2
#     Edge 64, Type (0, 1), BuildingBlock: CIFDUS_clean_linker_0, # of connection points: 2
#     Edge 65, Type (0, 1), BuildingBlock: CIFDUS_clean_linker_0, # of connection points: 2
#     Edge 66, Type (0, 1), BuildingBlock: CIFDUS_clean_linker_0, # of connection points: 2
#     Edge 67, Type (0, 1), BuildingBlock: CIFDUS_clean_linker_0, # of connection points: 2
#     Edge 68, Type (0, 1), BuildingBlock: CIFDUS_clean_linker_0, # of connection points: 2
#     Edge 69, Type (0, 1), BuildingBlock: CIFDUS_clean_linker_0, # of connection points: 2
#     Edge 70, Type (0, 1), BuildingBlock: CIFDUS_clean_linker_0, # of connection points: 2
#     Edge 71, Type (0, 1), BuildingBlock: CIFDUS_clean_linker_0, # of connection points: 2
#     Edge 72, Type (0, 1), BuildingBlock: CIFDUS_clean_linker_0, # of connection points: 2
#     Edge 73, Type (0, 1), BuildingBlock: CIFDUS_clean_linker_0, # of connection points: 2
#     Edge 74, Type (0, 1), BuildingBlock: CIFDUS_clean_linker_0, # of connection points: 2
#     Edge 75, Type (0, 1), BuildingBlock: CIFDUS_clean_linker_0, # of connection points: 2
# Relax obj value: 0.064
# Max RMSD: 0.181
# Mean RMSD: 0.115
data_MOF--net-ctn--node1-UXUYUI_clean_sbu_0--node2-PAMTOO_clean_linker_0--edge1-CIFDUS_clean_linker_0
_symmetry_space_group_name_H-M    P1
_symmetry_Int_Tables_number       1
_symmetry_cell_setting            triclinic
loop_
_symmetry_equiv_pos_as_xyz
'x, y, z'
_cell_length_a     59.486335
_cell_length_b     59.912091
_cell_length_c     60.887551
_cell_angle_alpha  85.341118
_cell_angle_beta   92.169037
_cell_angle_gamma 97.061215
loop_
_atom_site_label
_atom_site_type_symbol
_atom_site_fract_x
_atom_site_fract_y
_atom_site_fract_z
_atom_type_partial_charge
H0 H 0.02208 0.09148 0.07088 0.0
H1 H 0.05358 0.03274 0.0947 0.0
H2 H 0.07323 0.06834 0.03313 0.0
H3 H 0.06877 0.02039 0.03293 0.0
C4 C 0.0759 0.01566 0.04957 0.0
O5 O 0.08048 0.03455 0.06134 0.0
H6 H 0.0632 1.00337 0.0585 0.0
C7 C 0.03425 0.07976 0.06901 0.0
C8 C 0.04729 0.08209 0.05 0.0
C9 C 0.0362 0.06193 0.08522 0.0
C10 C 0.05158 0.04642 0.08229 0.0
C11 C 0.06494 0.04885 0.06357 0.0
C12 C 0.06274 0.06659 0.04749 0.0
H13 H 0.3166 0.69684 0.28788 0.0
H14 H 0.27754 0.71583 0.22977 0.0
H15 H 0.33369 0.76109 0.25162 0.0
H16 H 0.29305 0.78169 0.23537 0.0
C17 C 0.28742 0.77053 0.22195 0.0
O18 O 0.30204 0.75445 0.22115 0.0
H19 H 0.27007 0.76219 0.22569 0.0
C20 C 0.31315 0.70902 0.27442 0.0
C21 C 0.32719 0.72972 0.272 0.0
C22 C 0.29499 0.7037 0.25947 0.0
C23 C 0.29149 0.71924 0.24143 0.0
C24 C 0.30559 0.73972 0.23859 0.0
C25 C 0.3233 0.74495 0.25383 0.0
H26 H 0.97332 0.51515 0.10301 0.0
H27 H 0.95191 0.48069 0.04508 0.0
H28 H 0.0114 0.46432 0.08165 0.0
H29 H 0.01534 0.46756 0.0338 0.0
C30 C 0.99769 0.46104 0.02889 0.0
O31 O 0.98498 0.45544 0.04749 0.0
H32 H 0.99046 0.47466 0.01842 0.0
C33 C 0.97605 0.50301 0.09142 0.0
C34 C 0.99438 0.49014 0.09484 0.0
C35 C 0.9606 0.49971 0.07358 0.0
C36 C 0.96361 0.48341 0.05896 0.0
C37 C 0.982 0.47084 0.06186 0.0
C38 C 0.99722 0.47413 0.07976 0.0
H39 H 0.72117 0.82861 0.27838 0.0
H40 H 0.69465 0.76513 0.25344 0.0
H41 H 0.75179 0.80479 0.22306 0.0
H42 H 0.71535 0.78492 0.19352 0.0
C43 C 0.71256 0.76776 0.20221 0.0
O44 O 0.72423 0.7674 0.22223 0.0
H45 H 0.69407 0.76373 0.205 0.0
C46 C 0.72202 0.81582 0.26692 0.0
C47 C 0.73853 0.81921 0.25065 0.0
C48 C 0.70604 0.79645 0.26808 0.0
C49 C 0.70671 0.78026 0.25272 0.0
C50 C 0.72322 0.78334 0.23656 0.0
C51 C 0.73902 0.80274 0.23554 0.0
H52 H 0.09371 0.97133 0.53182 0.0
H53 H 0.03066 0.94978 0.49799 0.0
H54 H 0.07034 0.01138 0.47559 0.0
H55 H 0.02035 0.01108 0.47932 0.0
C56 C 0.01507 0.99526 0.47108 0.0
O57 O 0.03359 0.98406 0.46844 0.0
H58 H 1.00268 0.98443 0.48176 0.0
C59 C 0.08117 0.97389 0.51877 0.0
C60 C 0.08436 0.99327 0.50405 0.0
C61 C 0.06177 0.95803 0.51692 0.0
C62 C 0.04582 0.96159 0.49971 0.0
C63 C 0.04896 0.9808 0.48494 0.0
C64 C 0.0681 0.9966 0.48716 0.0
H65 H 0.1931 0.75704 0.82642 0.0
H66 H 0.21869 0.70943 0.78709 0.0
H67 H 0.25542 0.72985 0.84529 0.0
H68 H 0.2854 0.72314 0.80998 0.0
C69 C 0.2734 0.71187 0.80016 0.0
O70 O 0.25436 0.70448 0.81221 0.0
H71 H 0.26872 0.72181 0.78476 0.0
C72 C 0.20596 0.74649 0.82319 0.0
C73 C 0.22463 0.74528 0.83799 0.0
C74 C 0.20333 0.73334 0.80486 0.0
C75 C 0.22001 0.71939 0.80126 0.0
C76 C 0.23868 0.71822 0.81578 0.0
C77 C 0.24087 0.73096 0.83416 0.0
H78 H 0.95165 0.56217 0.5251 0.0
H79 H 0.98095 0.53175 0.47297 0.0
H80 H 0.01572 0.59144 0.49849 0.0
H81 H 0.02402 0.58985 0.45087 0.0
C82 C 0.01763 0.57175 0.44964 0.0
O83 O 0.01728 0.56073 0.47048 0.0
H84 H 1.00016 0.57081 0.44222 0.0
C85 C 0.96498 0.56222 0.51345 0.0
C86 C 0.98359 0.57921 0.51351 0.0
C87 C 0.96374 0.5449 0.49897 0.0
C88 C 0.98157 0.54468 0.4845 0.0
C89 C 1.00024 0.56135 0.48445 0.0
C90 C 1.00128 0.57851 0.49894 0.0
H91 H 0.77184 0.80405 0.85545 0.0
H92 H 0.82361 0.77305 0.82587 0.0
H93 H 0.79611 0.82901 0.79107 0.0
H94 H 0.8053 0.79362 0.76266 0.0
C95 C 0.81923 0.78665 0.77267 0.0
O96 O 0.8254 0.79996 0.7899 0.0
H97 H 0.81279 0.76921 0.77916 0.0
C98 C 0.78285 0.80327 0.84183 0.0
C99 C 0.78199 0.81875 0.82318 0.0
C100 C 0.79766 0.78659 0.84294 0.0
C101 C 0.81196 0.78566 0.82527 0.0
C102 C 0.81144 0.80102 0.80673 0.0
C103 C 0.79655 0.8175 0.80571 0.0
H104 H 0.26619 0.30546 0.35319 0.0
H105 H 0.32425 0.27749 0.3319 0.0
H106 H 0.29861 0.33207 0.29278 0.0
H107 H 0.31196 0.29812 0.26655 0.0
C108 C 0.32481 0.29091 0.27787 0.0
O109 O 0.32913 0.30393 0.29561 0.0
H110 H 0.31762 0.27347 0.28366 0.0
C111 C 0.27918 0.30525 0.34123 0.0
C112 C 0.28036 0.32093 0.32264 0.0
C113 C 0.29502 0.28963 0.34484 0.0
C114 C 0.31213 0.28965 0.32957 0.0
C115 C 0.31325 0.30482 0.31077 0.0
C116 C 0.29761 0.32056 0.30748 0.0
H117 H 0.47993 0.01947 0.61216 0.0
H118 H 0.45722 0.98844 0.55264 0.0
H119 H 0.50963 0.9619 0.59333 0.0
H120 H 0.51742 0.9678 0.54525 0.0
C121 C 0.49988 0.96242 0.53911 0.0
O122 O 0.4856 0.95807 0.55672 0.0
H123 H 0.49437 0.97644 0.52789 0.0
C124 C 0.48098 0.00655 0.6009 0.0
C125 C 0.4965 0.99069 0.60539 0.0
C126 C 0.46662 1.00582 0.58202 0.0
C127 C 0.46804 0.98915 0.56735 0.0
C128 C 0.48387 0.97368 0.57126 0.0
C129 C 0.49789 0.97435 0.59028 0.0
H130 H 0.21941 0.34099 0.76822 0.0
H131 H 0.19617 0.27645 0.74368 0.0
H132 H 0.25826 0.31369 0.72081 0.0
H133 H 0.2277 0.29533 0.68746 0.0
C134 C 0.22244 0.27823 0.6955 0.0
O135 O 0.23018 0.277 0.71721 0.0
H136 H 0.2036 0.27518 0.69515 0.0
C137 C 0.22175 0.3276 0.75787 0.0
C138 C 0.24089 0.32969 0.74468 0.0
C139 C 0.2055 0.30848 0.7577 0.0
C140 C 0.20861 0.29122 0.74417 0.0
C141 C 0.22753 0.29328 0.73074 0.0
C142 C 0.24364 0.31239 0.73113 0.0
H143 H 0.8224 0.19007 0.77455 0.0
H144 H 0.78299 0.21346 0.71838 0.0
H145 H 0.84144 0.25544 0.74095 0.0
H146 H 0.80089 0.2788 0.72807 0.0
C147 C 0.79414 0.26851 0.71432 0.0
O148 O 0.80808 0.25218 0.71172 0.0
H149 H 0.77686 0.2604 0.71865 0.0
C150 C 0.81943 0.20295 0.76157 0.0
C151 C 0.83427 0.22316 0.75965 0.0
C152 C 0.80083 0.19921 0.74679 0.0
C153 C 0.79726 0.21593 0.72989 0.0
C154 C 0.81173 0.23621 0.72802 0.0
C155 C 0.83016 0.23981 0.74284 0.0
H156 H 0.52663 0.59293 0.57646 0.0
H157 H 0.55728 0.5321 0.59432 0.0
H158 H 0.57835 0.57392 0.53656 0.0
H159 H 0.57188 0.5246 0.532 0.0
C160 C 0.57811 0.51864 0.54866 0.0
O161 O 0.58418 0.53695 0.56093 0.0
H162 H 0.56416 0.50722 0.55678 0.0
C163 C 0.53824 0.5811 0.57313 0.0
C164 C 0.55208 0.58567 0.55469 0.0
C165 C 0.54011 0.56196 0.58782 0.0
C166 C 0.55573 0.54713 0.58348 0.0
C167 C 0.56929 0.55137 0.56495 0.0
C168 C 0.56764 0.57071 0.55076 0.0
H169 H 0.59304 0.46529 0.0343 0.0
H170 H 0.52939 0.45358 0.99837 0.0
H171 H 0.57847 0.50863 0.97684 0.0
H172 H 0.53336 0.52018 0.97154 0.0
C173 C 0.52357 0.50327 0.97024 0.0
O174 O 0.53832 0.48738 0.96892 0.0
H175 H 0.51329 0.49897 0.98524 0.0
C176 C 0.58183 0.4697 0.02061 0.0
C177 C 0.58845 0.48857 1.00597 0.0
C178 C 0.56048 0.45698 0.01817 0.0
C179 C 0.5458 0.46327 1.00074 0.0
C180 C 0.55235 0.48183 0.98593 0.0
C181 C 0.57359 0.49439 0.98853 0.0
H182 H 0.70196 0.26306 0.32189 0.0
H183 H 0.72336 0.21012 0.28646 0.0
H184 H 0.7589 0.22906 0.34573 0.0
H185 H 0.78848 0.22119 0.3106 0.0
C186 C 0.77707 0.20838 0.30193 0.0
O187 O 0.75724 0.20287 0.31327 0.0
H188 H 0.77327 0.21592 0.28508 0.0
C189 C 0.71324 0.25046 0.32015 0.0
C190 C 0.73055 0.24759 0.3362 0.0
C191 C 0.71034 0.23706 0.30201 0.0
C192 C 0.72531 0.2209 0.30002 0.0
C193 C 0.74282 0.21823 0.31564 0.0
C194 C 0.74527 0.23136 0.33376 0.0
H195 H 0.44875 0.06397 0.03139 0.0
H196 H 0.47065 0.03161 0.9766 0.0
H197 H 0.51507 0.08407 1.00519 0.0
H198 H 0.51913 0.08468 0.95685 0.0
C199 C 0.51247 0.06681 0.95462 0.0
O200 O 0.5107 0.05485 0.97497 0.0
H201 H 0.49544 0.06664 0.94634 0.0
C202 C 0.46148 0.06222 0.01957 0.0
C203 C 0.48234 0.07609 0.02021 0.0
C204 C 0.45692 0.04612 1.0039 0.0
C205 C 0.47374 0.04384 0.98887 0.0
C206 C 0.49457 0.05757 0.98929 0.0
C207 C 0.49881 0.07371 1.00486 0.0
Li208 Li 0.27962 0.9048 0.01116 0.0
Li209 Li 0.25943 0.87407 0.03477 0.0
Li210 Li 0.25272 0.87621 0.99332 0.0
Li211 Li 0.23704 0.90204 0.01665 0.0
C212 C 0.30129 0.86714 1.00384 0.0
N213 N 0.34247 0.85822 0.98923 0.0
C214 C 0.31617 0.85636 0.0182 0.0
C215 C 0.30723 0.87305 0.98197 0.0
C216 C 0.33695 0.8521 0.01053 0.0
C217 C 0.32814 0.86848 0.97491 0.0
C218 C 0.2672 0.9083 0.06054 0.0
C219 C 0.25472 0.90402 0.09805 0.0
N220 N 0.27646 0.90948 0.10529 0.0
C221 C 0.28937 0.91412 0.06834 0.0
C222 C 0.24969 0.90345 0.07549 0.0
C223 C 0.29372 0.91454 0.09102 0.0
C224 C 0.30806 0.94481 0.99656 0.0
N225 N 0.30757 0.92436 0.00814 0.0
C226 C 0.34735 0.93118 0.01637 0.0
C227 C 0.32664 0.9175 0.01814 0.0
C228 C 0.3485 0.95229 1.00433 0.0
C229 C 0.32845 0.95909 0.9944 0.0
H230 H 0.29261 0.95004 0.98902 0.0
H231 H 0.32573 0.90154 0.02785 0.0
C232 C 0.24516 0.83972 0.06818 0.0
N233 N 0.26293 0.85461 0.06093 0.0
C234 C 0.24721 0.82616 0.08777 0.0
C235 C 0.28599 0.84309 0.09185 0.0
C236 C 0.28316 0.85635 0.07221 0.0
C237 C 0.26781 0.82779 0.09998 0.0
H238 H 0.22932 0.83845 0.05885 0.0
H239 H 0.29709 0.86821 0.06603 0.0
C240 C 0.25309 0.91749 0.96744 0.0
N241 N 0.25005 0.9331 0.92356 0.0
C242 C 0.23247 0.92308 0.95818 0.0
C243 C 0.27228 0.92032 0.95447 0.0
C244 C 0.23124 0.9308 0.93594 0.0
C245 C 0.27038 0.92811 0.93231 0.0
C246 C 0.20767 0.86335 0.01958 0.0
C247 C 0.19412 0.85507 1.00209 0.0
C248 C 0.19765 0.86647 0.03933 0.0
C249 C 0.17071 0.85043 1.0045 0.0
C250 C 0.17417 0.86167 0.0411 0.0
N251 N 0.1613 0.85384 0.02378 0.0
C252 C 0.25902 0.84124 0.96606 0.0
C253 C 0.23129 0.86428 0.95227 0.0
C254 C 0.25557 0.82842 0.94778 0.0
N255 N 0.24718 0.85901 0.96785 0.0
C256 C 0.2271 0.85176 0.93383 0.0
C257 C 0.23939 0.83356 0.93128 0.0
H258 H 0.27118 0.83695 0.97886 0.0
H259 H 0.22147 0.87791 0.95437 0.0
C260 C 0.21353 0.93419 0.03535 0.0
N261 N 0.21189 0.9187 0.02004 0.0
C262 C 0.19499 0.94549 0.03919 0.0
C263 C 0.17353 0.92501 0.01118 0.0
C264 C 0.19253 0.9143 1.00772 0.0
C265 C 0.17453 0.94068 0.02724 0.0
H266 H 0.22915 0.93755 0.04481 0.0
H267 H 0.19168 0.90219 0.99542 0.0
O268 O 0.28098 0.87171 0.01117 0.0
O269 O 0.26268 0.90733 0.0384 0.0
O270 O 0.25459 0.90994 0.98923 0.0
O271 O 0.23061 0.86826 0.01739 0.0
H272 H 0.31177 0.8514 0.03511 0.0
H273 H 0.29568 0.88079 0.9705 0.0
H274 H 0.34867 0.8439 0.0215 0.0
H275 H 0.33294 0.87301 0.95802 0.0
H276 H 0.24134 0.90015 0.1098 0.0
H277 H 0.30311 0.91812 0.05704 0.0
H278 H 0.2324 0.89926 0.06976 0.0
H279 H 0.31083 0.91885 0.09728 0.0
H280 H 0.36223 0.92544 0.02472 0.0
H281 H 0.32855 0.97518 0.9849 0.0
H282 H 0.23265 0.81481 0.09346 0.0
H283 H 0.30229 0.84471 0.10047 0.0
H284 H 0.21752 0.92132 0.96799 0.0
H285 H 0.28855 0.91683 0.96147 0.0
H286 H 0.21532 0.93499 0.92853 0.0
H287 H 0.28509 0.93029 0.92208 0.0
H288 H 0.20156 0.85226 0.98679 0.0
H289 H 0.20785 0.87265 0.0531 0.0
H290 H 0.16002 0.84413 0.99104 0.0
H291 H 0.1662 0.86418 0.05623 0.0
H292 H 0.26566 0.81474 0.94656 0.0
H293 H 0.21406 0.85609 0.92191 0.0
H294 H 0.19646 0.95739 0.05179 0.0
H295 H 0.15821 0.92106 1.00136 0.0
Li296 Li 0.13173 0.50416 0.30089 0.0
Li297 Li 0.1569 0.48033 0.28691 0.0
Li298 Li 0.1611 0.52289 0.27625 0.0
Li299 Li 0.1285 0.49584 0.26239 0.0
C300 C 0.16929 0.50755 0.32764 0.0
N301 N 0.17698 0.51021 0.37245 0.0
C302 C 0.16169 0.48936 0.34239 0.0
C303 C 0.18084 0.52712 0.33567 0.0
C304 C 0.16571 0.49102 0.36499 0.0
C305 C 0.18456 0.52813 0.35839 0.0
C306 C 0.11964 0.45204 0.29538 0.0
C307 C 0.11802 0.41308 0.28737 0.0
N308 N 0.1131 0.40656 0.30874 0.0
C309 C 0.11446 0.44493 0.31724 0.0
C310 C 0.12131 0.43598 0.28028 0.0
C311 C 0.11124 0.42187 0.32368 0.0
C312 C 0.09308 0.49855 0.32778 0.0
N313 N 0.11386 0.51052 0.32501 0.0
C314 C 0.107 0.53422 0.35329 0.0
C315 C 0.12095 0.52812 0.33738 0.0
C316 C 0.08536 0.52228 0.35642 0.0
C317 C 0.07857 0.50405 0.34352 0.0
H318 H 0.08747 0.48511 0.31729 0.0
H319 H 0.13705 0.53809 0.33428 0.0
C320 C 0.1919 0.4556 0.27727 0.0
N321 N 0.1755 0.45597 0.29217 0.0
C322 C 0.20708 0.43949 0.27993 0.0
C323 C 0.18835 0.42415 0.31327 0.0
C324 C 0.17353 0.44065 0.30999 0.0
C325 C 0.20558 0.42354 0.29821 0.0
H326 H 0.19346 0.46807 0.2634 0.0
H327 H 0.16073 0.44133 0.3219 0.0
C328 C 0.11457 0.53983 0.28108 0.0
N329 N 0.086 0.56755 0.29668 0.0
C330 C 0.09112 0.53393 0.27987 0.0
C331 C 0.12352 0.5599 0.29001 0.0
C332 C 0.07695 0.54815 0.28792 0.0
C333 C 0.10878 0.57368 0.29785 0.0
C334 C 0.16249 0.49404 0.23549 0.0
C335 C 0.16794 0.51257 0.22038 0.0
C336 C 0.15746 0.4725 0.228 0.0
C337 C 0.16792 0.50928 0.19792 0.0
C338 C 0.1576 0.46991 0.20541 0.0
N339 N 0.16276 0.4882 0.19096 0.0
C340 C 0.20233 0.55141 0.27944 0.0
C341 C 0.17492 0.56569 0.2546 0.0
C342 C 0.21729 0.57106 0.2754 0.0
N343 N 0.18152 0.54925 0.26928 0.0
C344 C 0.18951 0.58548 0.24977 0.0
C345 C 0.21089 0.58841 0.26045 0.0
H346 H 0.20721 0.53792 0.29083 0.0
H347 H 0.15825 0.56348 0.24678 0.0
C348 C 0.09258 0.47307 0.23714 0.0
N349 N 0.10828 0.49156 0.2374 0.0
C350 C 0.07774 0.47007 0.21896 0.0
C351 C 0.09532 0.50531 0.20172 0.0
C352 C 0.10968 0.50771 0.22031 0.0
C353 C 0.07902 0.48627 0.20081 0.0
H354 H 0.09139 0.46074 0.25114 0.0
H355 H 0.12202 0.52248 0.22112 0.0
O356 O 0.16536 0.50627 0.30547 0.0
O357 O 0.12284 0.47455 0.28873 0.0
O358 O 0.12873 0.5258 0.27394 0.0
O359 O 0.16199 0.49698 0.25751 0.0
H360 H 0.15252 0.47424 0.33648 0.0
H361 H 0.18663 0.54149 0.32454 0.0
H362 H 0.15982 0.47708 0.37659 0.0
H363 H 0.19341 0.54318 0.36484 0.0
H364 H 0.11936 0.40049 0.27587 0.0
H365 H 0.11316 0.45706 0.32921 0.0
H366 H 0.12514 0.44114 0.26329 0.0
H367 H 0.10733 0.41615 0.34057 0.0
H368 H 0.11277 0.54873 0.3624 0.0
H369 H 0.06209 0.49429 0.34536 0.0
H370 H 0.2199 0.43956 0.26776 0.0
H371 H 0.18671 0.41241 0.32777 0.0
H372 H 0.08398 0.51839 0.27304 0.0
H373 H 0.14166 0.5646 0.2912 0.0
H374 H 0.05877 0.54373 0.28727 0.0
H375 H 0.11546 0.58919 0.30497 0.0
H376 H 0.17196 0.52933 0.2259 0.0
H377 H 0.1535 0.45796 0.23949 0.0
H378 H 0.17196 0.52348 0.18602 0.0
H379 H 0.15363 0.45335 0.19937 0.0
H380 H 0.23374 0.57265 0.28378 0.0
H381 H 0.18395 0.59855 0.23824 0.0
H382 H 0.06517 0.45537 0.2193 0.0
H383 H 0.09718 0.51816 0.18813 0.0
Li384 Li 0.76635 0.62453 0.0346 0.0
Li385 Li 0.78289 0.6527 0.05896 0.0
Li386 Li 0.79129 0.65806 0.01923 0.0
Li387 Li 0.80728 0.62948 0.04439 0.0
C388 C 0.74488 0.66101 0.01824 0.0
N389 N 0.7114 0.66986 0.98721 0.0
C390 C 0.72825 0.6743 0.02307 0.0
C391 C 0.74447 0.65217 0.99765 0.0
C392 C 0.71147 0.67859 1.00715 0.0
C393 C 0.72741 0.65686 0.98218 0.0
C394 C 0.7767 0.61717 0.08576 0.0
C395 C 0.78854 0.62117 0.12372 0.0
N396 N 0.76683 0.6148 0.12995 0.0
C397 C 0.75456 0.61046 0.09256 0.0
C398 C 0.79388 0.62238 0.10148 0.0
C399 C 0.74989 0.60943 0.11496 0.0
C400 C 0.73764 0.58811 0.01475 0.0
N401 N 0.73892 0.60502 0.02856 0.0
C402 C 0.6992 0.59697 0.03515 0.0
C403 C 0.72015 0.60972 0.03853 0.0
C404 C 0.6975 0.57911 0.02138 0.0
C405 C 0.71707 0.57475 0.0111 0.0
H406 H 0.75237 0.58504 1.00627 0.0
H407 H 0.72145 0.62353 0.04909 0.0
C408 C 0.79289 0.68109 0.09437 0.0
N409 N 0.77604 0.669 0.08313 0.0
C410 C 0.78772 0.69439 0.11088 0.0
C411 C 0.74796 0.68228 0.1042 0.0
C412 C 0.75391 0.6692 0.08783 0.0
C413 C 0.76496 0.69539 0.1158 0.0
H414 H 0.81034 0.68074 0.09023 0.0
H415 H 0.74085 0.65955 0.0785 0.0
C416 C 0.79622 0.60604 1.0066 0.0
N417 N 0.80444 0.56578 0.99115 0.0
C418 C 0.79547 0.58648 0.02089 0.0
C419 C 0.80117 0.60511 0.98447 0.0
C420 C 0.7997 0.56631 0.01277 0.0
C421 C 0.80523 0.58459 0.97696 0.0
C422 C 0.83532 0.66746 0.04646 0.0
C423 C 0.84747 0.67663 0.02798 0.0
C424 C 0.84695 0.66266 0.06634 0.0
C425 C 0.8711 0.68052 0.0296 0.0
C426 C 0.87059 0.66675 0.06728 0.0
N427 N 0.88207 0.67551 0.04904 0.0
C428 C 0.78557 0.69925 0.99535 0.0
C429 C 0.80622 0.67582 0.97637 0.0
C430 C 0.78666 0.71537 0.97741 0.0
N431 N 0.79507 0.67985 0.99445 0.0
C432 C 0.80796 0.69164 0.9581 0.0
C433 C 0.79794 0.71173 0.95835 0.0
H434 H 0.77681 0.70204 0.00995 0.0
H435 H 0.81382 0.66036 0.97617 0.0
C436 C 0.83287 0.5966 0.06628 0.0
N437 N 0.83328 0.6132 0.04961 0.0
C438 C 0.85095 0.58373 0.06978 0.0
C439 C 0.86974 0.60541 0.03909 0.0
C440 C 0.85108 0.61753 0.03588 0.0
C441 C 0.86975 0.58818 0.05616 0.0
H442 H 0.8183 0.59305 0.07663 0.0
H443 H 0.85071 0.63027 0.02229 0.0
O444 O 0.76135 0.65662 0.03373 0.0
O445 O 0.78152 0.61889 0.06384 0.0
O446 O 0.79279 0.62613 0.01432 0.0
O447 O 0.81218 0.66336 0.04513 0.0
H448 H 0.72833 0.68122 0.03896 0.0
H449 H 0.75715 0.6418 0.99363 0.0
H450 H 0.6985 0.68886 0.01065 0.0
H451 H 0.72688 0.65014 0.96618 0.0
H452 H 0.80165 0.62533 0.13603 0.0
H453 H 0.7411 0.60611 0.0807 0.0
H454 H 0.81112 0.62748 0.09654 0.0
H455 H 0.73279 0.60438 0.12043 0.0
H456 H 0.68454 0.60089 0.04343 0.0
H457 H 0.71638 0.56142 1.00001 0.0
H458 H 0.8014 0.70397 0.11955 0.0
H459 H 0.73019 0.68272 0.10717 0.0
H460 H 0.7915 0.58684 0.03804 0.0
H461 H 0.80183 0.62008 0.97319 0.0
H462 H 0.79917 0.55106 0.02364 0.0
H463 H 0.80905 0.58362 0.95986 0.0
H464 H 0.83879 0.6806 0.01251 0.0
H465 H 0.83788 0.65567 0.08083 0.0
H466 H 0.88071 0.6875 0.01539 0.0
H467 H 0.8798 0.66294 0.08251 0.0
H468 H 0.77833 0.73033 0.97836 0.0
H469 H 0.81719 0.6882 0.94401 0.0
H470 H 0.85033 0.57055 0.0831 0.0
H471 H 0.8838 0.60911 0.02805 0.0
Li472 Li 0.87947 0.04035 0.26985 0.0
Li473 Li 0.90553 0.01587 0.28902 0.0
Li474 Li 0.90561 0.02273 0.24754 0.0
Li475 Li 0.87496 0.99805 0.26657 0.0
C476 C 0.92193 0.06686 0.26765 0.0
N477 N 0.93924 0.11184 0.26167 0.0
C478 C 0.93309 0.07782 0.2851 0.0
C479 C 0.9199 0.0787 0.24707 0.0
C480 C 0.94163 0.10059 0.28178 0.0
C481 C 0.92867 0.10144 0.2444 0.0
C482 C 0.87045 0.01314 0.3153 0.0
C483 C 0.87059 0.9908 0.35009 0.0
N484 N 0.86785 0.00936 0.3607 0.0
C485 C 0.86743 0.03194 0.32653 0.0
C486 C 0.87183 0.99235 0.32714 0.0
C487 C 0.86622 0.0297 0.34949 0.0
C488 C 0.8427 0.06584 0.26153 0.0
N489 N 0.86337 0.06593 0.27189 0.0
C490 C 0.85992 0.10154 0.28583 0.0
C491 C 0.87202 0.08323 0.28402 0.0
C492 C 0.83861 0.10204 0.27514 0.0
C493 C 0.83004 0.08383 0.26285 0.0
H494 H 0.83598 0.05168 0.25234 0.0
H495 H 0.88817 0.0827 0.29263 0.0
C496 C 0.93475 0.99305 0.3183 0.0
N497 N 0.92377 0.01171 0.31528 0.0
C498 C 0.94665 0.9885 0.33804 0.0
C499 C 0.9365 0.02292 0.35093 0.0
C500 C 0.92472 0.02676 0.33095 0.0
C501 C 0.94741 1.0034 0.35479 0.0
H502 H 0.93409 0.98154 0.30548 0.0
H503 H 0.91588 0.04149 0.32815 0.0
C504 C 0.86562 0.02901 0.22214 0.0
N505 N 0.85203 0.04119 0.17938 0.0
C506 C 0.85641 0.01251 0.20831 0.0
C507 C 0.86749 0.05174 0.21435 0.0
C508 C 0.84977 0.019 0.18671 0.0
C509 C 0.86063 0.05755 0.19266 0.0
C510 C 0.90804 0.97181 0.26353 0.0
C511 C 0.915 0.96509 0.24367 0.0
C512 C 0.90123 0.95547 0.28047 0.0
C513 C 0.91467 0.94212 0.24095 0.0
C514 C 0.90111 0.93267 0.2771 0.0
N515 N 0.90776 0.92652 0.25757 0.0
C516 C 0.94516 0.03874 0.22354 0.0
C517 C 0.91702 0.01669 0.20345 0.0
C518 C 0.95949 0.04136 0.20559 0.0
N519 N 0.92428 0.02672 0.22212 0.0
C520 C 0.93086 0.0187 0.18519 0.0
C521 C 0.95244 0.03117 0.18611 0.0
H522 H 0.95083 0.04608 0.23873 0.0
H523 H 0.9007 0.00662 0.20289 0.0
C524 C 0.83793 0.96688 0.28066 0.0
N525 N 0.85348 0.97163 0.26464 0.0
C526 C 0.82293 0.94702 0.28105 0.0
C527 C 0.83975 0.93749 0.24808 0.0
C528 C 0.85436 0.95763 0.24827 0.0
C529 C 0.82391 0.93181 0.2648 0.0
H530 H 0.83731 0.97844 0.29329 0.0
H531 H 0.86678 0.96181 0.23562 0.0
O532 O 0.91334 0.0446 0.27068 0.0
O533 O 0.87209 0.01511 0.29284 0.0
O534 O 0.87213 0.02293 0.24338 0.0
O535 O 0.90801 0.99424 0.2664 0.0
H536 H 0.93506 0.06888 0.30108 0.0
H537 H 0.91191 0.07034 0.23324 0.0
H538 H 0.95017 0.10931 0.29519 0.0
H539 H 0.92717 0.11079 0.22856 0.0
H540 H 0.87181 0.97484 0.35946 0.0
H541 H 0.86619 0.04813 0.31767 0.0
H542 H 0.87395 0.97758 0.31873 0.0
H543 H 0.86402 0.04415 0.3584 0.0
H544 H 0.86728 0.11524 0.29538 0.0
H545 H 0.81354 0.08329 0.25463 0.0
H546 H 0.95515 0.97346 0.34017 0.0
H547 H 0.93651 0.03477 0.36345 0.0
H548 H 0.85455 0.99488 0.21412 0.0
H549 H 0.87387 0.0648 0.22499 0.0
H550 H 0.8428 0.00638 0.17577 0.0
H551 H 0.86205 0.07508 0.18641 0.0
H552 H 0.92058 0.97745 0.23049 0.0
H553 H 0.89591 0.96033 0.29597 0.0
H554 H 0.91992 0.9367 0.22562 0.0
H555 H 0.8957 0.91987 0.29001 0.0
H556 H 0.97613 0.0508 0.20715 0.0
H557 H 0.92472 0.0106 0.17048 0.0
H558 H 0.8107 0.94362 0.29399 0.0
H559 H 0.84127 0.92625 0.23531 0.0
Li560 Li 0.28181 0.15294 0.55427 0.0
Li561 Li 0.26645 0.12326 0.53038 0.0
Li562 Li 0.30656 0.12677 0.54278 0.0
Li563 Li 0.29225 0.15454 0.51526 0.0
C564 C 0.27181 0.11684 0.58164 0.0
N565 N 0.25608 0.11278 0.62406 0.0
C566 C 0.24873 0.11095 0.58537 0.0
C567 C 0.28692 0.12051 0.59949 0.0
C568 C 0.2411 0.10901 0.60694 0.0
C569 C 0.27862 0.11843 0.62081 0.0
C570 C 0.25538 0.1739 0.51567 0.0
C571 C 0.24059 0.19174 0.48214 0.0
N572 N 0.24483 0.21211 0.4908 0.0
C573 C 0.25963 0.19503 0.52421 0.0
C574 C 0.24578 0.17223 0.49445 0.0
C575 C 0.25414 0.21413 0.5114 0.0
C576 C 0.28791 0.18483 0.58797 0.0
N577 N 0.27313 0.17002 0.57719 0.0
C578 C 0.24203 0.18034 0.59627 0.0
C579 C 0.25059 0.16758 0.58109 0.0
C580 C 0.25669 0.19624 0.60732 0.0
C581 C 0.28002 0.19817 0.60321 0.0
H582 H 0.30571 0.18677 0.58428 0.0
H583 H 0.23916 0.15597 0.57201 0.0
C584 C 0.24083 0.0805 0.53506 0.0
N585 N 0.24066 0.10173 0.52537 0.0
C586 C 0.22232 0.06414 0.53224 0.0
C587 C 0.20397 0.09166 0.50914 0.0
C588 C 0.22271 0.10757 0.51267 0.0
C589 C 0.20348 0.06958 0.51911 0.0
H590 H 0.25531 0.07637 0.54518 0.0
H591 H 0.22295 0.12456 0.50523 0.0
C592 C 0.33475 0.16436 0.54682 0.0
N593 N 0.38064 0.17075 0.55691 0.0
C594 C 0.35023 0.17102 0.53014 0.0
C595 C 0.34257 0.1611 0.56863 0.0
C596 C 0.37338 0.17414 0.53558 0.0
C597 C 0.36584 0.16436 0.57339 0.0
C598 C 0.28679 0.10289 0.5023 0.0
C599 C 0.29503 0.08264 0.50967 0.0
C600 C 0.27058 0.10311 0.48506 0.0
C601 C 0.28686 0.06293 0.4997 0.0
C602 C 0.26281 0.08303 0.47556 0.0
N603 N 0.27104 0.06352 0.48301 0.0
C604 C 0.32754 0.09241 0.56727 0.0
C605 C 0.35033 0.11224 0.53924 0.0
C606 C 0.34366 0.07746 0.57207 0.0
N607 N 0.33105 0.10932 0.55101 0.0
C608 C 0.3671 0.09792 0.54377 0.0
C609 C 0.36367 0.08002 0.56013 0.0
H610 H 0.31184 0.09001 0.576 0.0
H611 H 0.35237 0.1252 0.52582 0.0
C612 C 0.30777 0.19659 0.49258 0.0
N613 N 0.29899 0.17493 0.48969 0.0
C614 C 0.31093 0.21242 0.47444 0.0
C615 C 0.29582 0.18343 0.4507 0.0
C616 C 0.29336 0.16807 0.46923 0.0
C617 C 0.30458 0.20595 0.45321 0.0
H618 H 0.31186 0.20167 0.50904 0.0
H619 H 0.2864 0.15083 0.46734 0.0
O620 O 0.27957 0.11924 0.56062 0.0
O621 O 0.26133 0.15508 0.52767 0.0
O622 O 0.31204 0.16103 0.54181 0.0
O623 O 0.29416 0.12228 0.51222 0.0
H624 H 0.23677 0.10821 0.57174 0.0
H625 H 0.30484 0.12501 0.59689 0.0
H626 H 0.22326 0.10459 0.61006 0.0
H627 H 0.29011 0.12131 0.63477 0.0
H628 H 0.23336 0.19071 0.46563 0.0
H629 H 0.26738 0.19677 0.54041 0.0
H630 H 0.24291 0.15615 0.48731 0.0
H631 H 0.25741 0.23058 0.51779 0.0
H632 H 0.224 0.17791 0.59909 0.0
H633 H 0.29195 0.21039 0.61106 0.0
H634 H 0.22266 0.04753 0.5406 0.0
H635 H 0.19012 0.09663 0.49857 0.0
H636 H 0.34448 0.17348 0.51315 0.0
H637 H 0.33081 0.156 0.58172 0.0
H638 H 0.38557 0.17918 0.52283 0.0
H639 H 0.37215 0.16179 0.59019 0.0
H640 H 0.30749 0.08206 0.52301 0.0
H641 H 0.26359 0.11847 0.47946 0.0
H642 H 0.29306 0.04714 0.50528 0.0
H643 H 0.2501 0.08292 0.46236 0.0
H644 H 0.34038 0.06386 0.58481 0.0
H645 H 0.38214 0.10022 0.53396 0.0
H646 H 0.31759 0.22969 0.47703 0.0
H647 H 0.29089 0.17779 0.43456 0.0
Li648 Li 0.41124 0.5231 0.79026 0.0
Li649 Li 0.38323 0.54729 0.77443 0.0
Li650 Li 0.37948 0.50532 0.76903 0.0
Li651 Li 0.40811 0.5318 0.74905 0.0
C652 C 0.37749 0.51635 0.81886 0.0
N653 N 0.37681 0.50737 0.86408 0.0
C654 C 0.37426 0.53334 0.83243 0.0
C655 C 0.38002 0.49471 0.82826 0.0
C656 C 0.37405 0.52849 0.85526 0.0
C657 C 0.37973 0.49053 0.85116 0.0
C658 C 0.42508 0.57493 0.76955 0.0
C659 C 0.42946 0.60979 0.74652 0.0
N660 N 0.44166 0.62004 0.76303 0.0
C661 C 0.43787 0.58574 0.78621 0.0
C662 C 0.42101 0.58698 0.74948 0.0
C663 C 0.44601 0.60858 0.78263 0.0
C664 C 0.44487 0.5024 0.81645 0.0
N665 N 0.43148 0.51932 0.81503 0.0
C666 C 0.44574 0.53113 0.85001 0.0
C667 C 0.43191 0.53378 0.83117 0.0
C668 C 0.45956 0.51364 0.85209 0.0
C669 C 0.45916 0.49927 0.83492 0.0
H670 H 0.44442 0.49129 0.80328 0.0
H671 H 0.42139 0.54734 0.82945 0.0
C672 C 0.34622 0.57346 0.77101 0.0
N673 N 0.36741 0.57215 0.77981 0.0
C674 C 0.3342 0.59114 0.77556 0.0
C675 C 0.36597 0.60567 0.79827 0.0
C676 C 0.37732 0.58773 0.79332 0.0
C677 C 0.34404 0.60754 0.78945 0.0
H678 H 0.33852 0.56061 0.76067 0.0
H679 H 0.39389 0.58599 0.80064 0.0
C680 C 0.41397 0.48104 0.76184 0.0
N681 N 0.41652 0.43697 0.75283 0.0
C682 C 0.41918 0.47611 0.7407 0.0
C683 C 0.41036 0.46359 0.77846 0.0
C684 C 0.42032 0.45371 0.73646 0.0
C685 C 0.41163 0.44141 0.77356 0.0
C686 C 0.36529 0.53728 0.72729 0.0
C687 C 0.35496 0.52079 0.71398 0.0
C688 C 0.36566 0.56007 0.72007 0.0
C689 C 0.34565 0.52736 0.69341 0.0
C690 C 0.35615 0.56597 0.6994 0.0
N691 N 0.34646 0.54963 0.68659 0.0
C692 C 0.34241 0.4739 0.78265 0.0
C693 C 0.35937 0.46494 0.75045 0.0
C694 C 0.32696 0.45437 0.78231 0.0
N695 N 0.35836 0.47868 0.76701 0.0
C696 C 0.34446 0.44508 0.74962 0.0
C697 C 0.32797 0.43946 0.76576 0.0
H698 H 0.34165 0.48529 0.79541 0.0
H699 H 0.37185 0.46931 0.7379 0.0
C700 C 0.44644 0.54838 0.72391 0.0
N701 N 0.42491 0.53781 0.7225 0.0
C702 C 0.45961 0.55269 0.70516 0.0
C703 C 0.42835 0.53492 0.68382 0.0
C704 C 0.41582 0.53091 0.703 0.0
C705 C 0.45059 0.54594 0.68473 0.0
H706 H 0.45344 0.55338 0.73967 0.0
H707 H 0.39902 0.52184 0.70235 0.0
O708 O 0.37815 0.52088 0.79648 0.0
O709 O 0.4169 0.55259 0.77285 0.0
O710 O 0.41263 0.50287 0.76625 0.0
O711 O 0.37439 0.53111 0.74753 0.0
H712 H 0.37211 0.55014 0.82543 0.0
H713 H 0.38222 0.4813 0.81799 0.0
H714 H 0.37172 0.54153 0.86597 0.0
H715 H 0.38182 0.47389 0.85866 0.0
H716 H 0.4264 0.61932 0.73106 0.0
H717 H 0.44136 0.57661 0.80179 0.0
H718 H 0.41165 0.57876 0.73624 0.0
H719 H 0.45581 0.6172 0.79543 0.0
H720 H 0.44581 0.5428 0.86271 0.0
H721 H 0.46952 0.48554 0.83591 0.0
H722 H 0.3172 0.59164 0.76868 0.0
H723 H 0.37436 0.61797 0.80889 0.0
H724 H 0.4222 0.4894 0.72768 0.0
H725 H 0.40656 0.46711 0.79495 0.0
H726 H 0.42421 0.44964 0.72015 0.0
H727 H 0.40873 0.42772 0.78624 0.0
H728 H 0.35429 0.50309 0.7194 0.0
H729 H 0.37296 0.57309 0.73038 0.0
H730 H 0.33777 0.51476 0.68287 0.0
H731 H 0.35638 0.58354 0.69358 0.0
H732 H 0.31425 0.45114 0.79481 0.0
H733 H 0.34611 0.43412 0.73665 0.0
H734 H 0.47662 0.56135 0.70662 0.0
H735 H 0.42087 0.529 0.66855 0.0
Li736 Li 0.78138 0.41007 0.50803 0.0
Li737 Li 0.76196 0.37863 0.53119 0.0
Li738 Li 0.75573 0.38067 0.48985 0.0
Li739 Li 0.73889 0.40581 0.51312 0.0
C740 C 0.80481 0.37393 0.5002 0.0
N741 N 0.84645 0.36734 0.48483 0.0
C742 C 0.82101 0.36517 0.51456 0.0
C743 C 0.80968 0.37895 0.47795 0.0
C744 C 0.84199 0.36207 0.5065 0.0
C745 C 0.83084 0.3756 0.47051 0.0
C746 C 0.76852 0.41229 0.5573 0.0
C747 C 0.75608 0.40674 0.59482 0.0
N748 N 0.77771 0.41267 0.60212 0.0
C749 C 0.79058 0.41855 0.56517 0.0
C750 C 0.75108 0.40654 0.57222 0.0
C751 C 0.7949 0.41857 0.58789 0.0
C752 C 0.80589 0.45208 0.49479 0.0
N753 N 0.808 0.4315 0.50525 0.0
C754 C 0.84723 0.44276 0.51345 0.0
C755 C 0.82814 0.42662 0.51455 0.0
C756 C 0.84559 0.46421 0.50272 0.0
C757 C 0.82455 0.46868 0.49316 0.0
H758 H 0.7896 0.45571 0.48787 0.0
H759 H 0.82927 0.41042 0.52342 0.0
C760 C 0.74808 0.34375 0.56413 0.0
N761 N 0.76568 0.359 0.55716 0.0
C762 C 0.75036 0.32966 0.58333 0.0
C763 C 0.78897 0.34697 0.58768 0.0
C764 C 0.78591 0.36076 0.56844 0.0
C765 C 0.77103 0.33116 0.59544 0.0
H766 H 0.73221 0.34255 0.55483 0.0
H767 H 0.79968 0.37298 0.56254 0.0
C768 C 0.75604 0.42233 0.46416 0.0
N769 N 0.75528 0.43917 0.42052 0.0
C770 C 0.73585 0.42807 0.45401 0.0
C771 C 0.77594 0.42562 0.45221 0.0
C772 C 0.73577 0.43642 0.43191 0.0
C773 C 0.77519 0.43403 0.43015 0.0
C774 C 0.71026 0.36749 0.51486 0.0
C775 C 0.69729 0.36008 0.49665 0.0
C776 C 0.69954 0.37015 0.53436 0.0
C777 C 0.67375 0.35581 0.49813 0.0
C778 C 0.67596 0.36573 0.53518 0.0
N779 N 0.66366 0.35873 0.51719 0.0
C780 C 0.76261 0.34512 0.4637 0.0
C781 C 0.73638 0.36889 0.44788 0.0
C782 C 0.75987 0.33205 0.44556 0.0
N783 N 0.75116 0.36334 0.46443 0.0
C784 C 0.73297 0.35618 0.42951 0.0
C785 C 0.74487 0.33748 0.42807 0.0
H786 H 0.77394 0.34072 0.47722 0.0
H787 H 0.72682 0.3829 0.44911 0.0
C788 C 0.71516 0.43768 0.53152 0.0
N789 N 0.71367 0.42243 0.516 0.0
C790 C 0.69743 0.45053 0.5339 0.0
C791 C 0.67694 0.43185 0.5042 0.0
C792 C 0.69504 0.41936 0.50242 0.0
C793 C 0.67801 0.44779 0.52005 0.0
H794 H 0.73026 0.44009 0.5419 0.0
H795 H 0.69426 0.40727 0.4901 0.0
O796 O 0.78422 0.37724 0.50787 0.0
O797 O 0.76405 0.41171 0.53513 0.0
O798 O 0.7564 0.41419 0.48584 0.0
O799 O 0.73333 0.37196 0.51364 0.0
H800 H 0.81747 0.36088 0.53177 0.0
H801 H 0.79714 0.38506 0.46647 0.0
H802 H 0.85473 0.35545 0.51748 0.0
H803 H 0.83481 0.37947 0.45332 0.0
H804 H 0.74276 0.40218 0.60654 0.0
H805 H 0.80426 0.42317 0.5539 0.0
H806 H 0.73388 0.40192 0.56644 0.0
H807 H 0.81192 0.42323 0.5942 0.0
H808 H 0.86291 0.43866 0.52149 0.0
H809 H 0.82247 0.48485 0.48452 0.0
H810 H 0.73595 0.31795 0.58877 0.0
H811 H 0.80532 0.34854 0.59624 0.0
H812 H 0.72034 0.42594 0.46302 0.0
H813 H 0.79188 0.42204 0.45993 0.0
H814 H 0.72021 0.44073 0.42382 0.0
H815 H 0.79047 0.43659 0.42072 0.0
H816 H 0.70527 0.35768 0.48152 0.0
H817 H 0.70929 0.37567 0.54866 0.0
H818 H 0.6635 0.35017 0.48412 0.0
H819 H 0.66745 0.36787 0.55012 0.0
H820 H 0.76961 0.31797 0.4452 0.0
H821 H 0.72081 0.36075 0.41676 0.0
H822 H 0.69916 0.46284 0.54612 0.0
H823 H 0.66221 0.42898 0.49333 0.0
Li824 Li 0.661 0.98049 0.79614 0.0
Li825 Li 0.63346 1.00264 0.81032 0.0
Li826 Li 0.63417 0.99729 0.76954 0.0
Li827 Li 0.66427 0.02186 0.78795 0.0
C828 C 0.61971 0.95416 0.80598 0.0
N829 N 0.60525 0.91343 0.82864 0.0
C830 C 0.62569 0.95035 0.82824 0.0
C831 C 0.60643 0.93727 0.79519 0.0
C832 C 0.6182 0.92965 0.83943 0.0
C833 C 0.59927 0.91678 0.80695 0.0
C834 C 0.67086 0.0073 0.83868 0.0
C835 C 0.67382 0.0307 0.86933 0.0
N836 N 0.6791 0.01288 0.88299 0.0
C837 C 0.67649 0.98925 0.853 0.0
C838 C 0.66966 0.02824 0.84687 0.0
C839 C 0.68054 0.9924 0.87535 0.0
C840 C 0.70089 0.96199 0.80849 0.0
N841 N 0.67912 0.95608 0.80162 0.0
C842 C 0.6862 0.91775 0.80001 0.0
C843 C 0.67155 0.93443 0.79742 0.0
C844 C 0.70891 0.92342 0.80683 0.0
C845 C 0.71608 0.94589 0.8113 0.0
H846 H 0.70654 0.97937 0.81148 0.0
H847 H 0.65434 0.93017 0.79148 0.0
C848 C 0.59462 0.01722 0.82564 0.0
N849 N 0.61288 0.00689 0.83304 0.0
C850 C 0.57906 0.02259 0.84039 0.0
C851 C 0.60099 0.00623 0.87031 0.0
C852 C 0.61609 1.00103 0.85492 0.0
C853 C 0.58221 0.01728 0.86312 0.0
H854 H 0.59228 0.0216 0.8082 0.0
H855 H 0.6304 0.99248 0.86058 0.0
C856 C 0.67282 0.98418 0.7522 0.0
N857 N 0.68363 0.95521 0.72224 0.0
C858 C 0.69247 0.98944 0.74003 0.0
C859 C 0.65866 0.96419 0.74915 0.0
C860 C 0.69764 0.97458 0.72494 0.0
C861 C 0.66442 0.94976 0.73392 0.0
C862 C 0.62937 0.04719 0.78042 0.0
C863 C 0.62462 0.05591 0.75899 0.0
C864 C 0.63192 0.06148 0.79759 0.0
C865 C 0.62292 0.07895 0.75503 0.0
C866 C 0.6301 0.08442 0.79297 0.0
N867 N 0.62571 0.09261 0.77195 0.0
C868 C 0.59446 0.98374 0.74437 0.0
C869 C 0.62476 1.00305 0.72356 0.0
C870 C 0.58067 0.98189 0.72532 0.0
N871 N 0.61603 0.99421 0.74314 0.0
C872 C 0.61158 1.00158 0.70411 0.0
C873 C 0.58915 0.99095 0.7048 0.0
H874 H 0.58793 0.97695 0.76018 0.0
H875 H 0.64191 0.01151 0.72311 0.0
C876 C 0.70147 0.05322 0.79958 0.0
N877 N 0.68516 0.04872 0.78378 0.0
C878 C 0.7168 0.07282 0.79734 0.0
C879 C 0.69868 0.08262 0.76231 0.0
C880 C 0.68379 0.06271 0.76517 0.0
C881 C 0.71543 0.088 0.7786 0.0
H882 H 0.7027 0.0415 0.8139 0.0
H883 H 0.67111 0.05845 0.75253 0.0
O884 O 0.62717 0.97415 0.79461 0.0
O885 O 0.66687 1.00454 0.81674 0.0
O886 O 0.66769 0.99849 0.76717 0.0
O887 O 0.63128 0.02472 0.78457 0.0
H888 H 0.63616 0.96315 0.8367 0.0
H889 H 0.60183 0.93991 0.77789 0.0
H890 H 0.62274 0.92645 0.85667 0.0
H891 H 0.589 0.90353 0.79882 0.0
H892 H 0.67285 0.04679 0.8759 0.0
H893 H 0.67758 0.97294 0.84696 0.0
H894 H 0.6656 0.04245 0.83599 0.0
H895 H 0.6848 0.97855 0.88663 0.0
H896 H 0.67999 0.90075 0.79605 0.0
H897 H 0.73331 0.95104 0.81684 0.0
H898 H 0.56496 0.03129 0.83407 0.0
H899 H 0.60391 1.00153 0.88764 0.0
H900 H 0.70361 1.00484 0.74225 0.0
H901 H 0.64342 0.95979 0.75846 0.0
H902 H 0.7128 0.97842 0.71541 0.0
H903 H 0.65364 0.93423 0.73142 0.0
H904 H 0.62245 0.04504 0.74553 0.0
H905 H 0.63522 0.05492 0.81431 0.0
H906 H 0.61941 0.08597 0.7385 0.0
H907 H 0.63215 0.09571 0.80609 0.0
H908 H 0.5636 0.97332 0.72664 0.0
H909 H 0.61875 0.00911 0.68877 0.0
H910 H 0.72976 0.07589 0.81007 0.0
H911 H 0.69684 0.09379 0.74763 0.0
Li912 Li 0.04344 0.27888 0.89063 0.0
Li913 Li 0.02078 0.29519 0.91702 0.0
Li914 Li 0.02414 0.25453 0.91933 0.0
Li915 Li 1.00181 0.27219 0.88944 0.0
C916 C 0.05852 0.2727 0.94215 0.0
N917 N 0.07656 0.25597 0.98175 0.0
C918 C 0.05259 0.28034 0.96199 0.0
C919 C 0.07365 0.25655 0.94248 0.0
C920 C 0.06192 0.2717 0.98183 0.0
C921 C 0.08255 0.24828 0.96266 0.0
C922 C 0.02317 0.32398 0.88224 0.0
C923 C 1.00663 0.35862 0.88359 0.0
N924 N 0.02731 0.37054 0.87998 0.0
C925 C 0.04425 0.33657 0.87851 0.0
C926 C 1.00418 0.33507 0.88474 0.0
C927 C 0.04599 0.3601 0.87742 0.0
C928 C 0.06628 0.29035 0.85057 0.0
N929 N 0.0694 0.28357 0.87222 0.0
C930 C 0.1082 0.2796 0.86641 0.0
C931 C 0.08994 0.2786 0.88038 0.0
C932 C 0.10538 0.28609 0.84388 0.0
C933 C 0.08416 0.29184 0.83605 0.0
H934 H 0.04972 0.29407 0.84448 0.0
H935 H 0.09204 0.27338 0.89764 0.0
C936 C 1.00032 0.32191 0.94555 0.0
N937 N 0.01925 0.32055 0.93412 0.0
C938 C 0.99928 0.33985 0.95866 0.0
C939 C 0.03729 0.35465 0.94814 0.0
C940 C 0.03761 0.3364 0.93527 0.0
C941 C 0.01797 0.35653 0.96018 0.0
H942 H 0.98615 0.30885 0.94482 0.0
H943 H 0.05259 0.33475 0.92632 0.0
C944 C 0.0328 0.24229 0.86986 0.0
N945 N 0.05272 0.22919 0.83345 0.0
C946 C 0.0228 0.24551 0.84888 0.0
C947 C 0.05292 0.23236 0.87231 0.0
C948 C 0.03311 0.23875 0.83069 0.0
C949 C 0.06275 0.2259 0.8537 0.0
C950 C 0.97393 0.26333 0.92219 0.0
C951 C 0.96568 0.24077 0.92759 0.0
C952 C 0.95873 0.279 0.91637 0.0
C953 C 0.9423 0.23424 0.92704 0.0
C954 C 0.93548 0.27179 0.91597 0.0
N955 N 0.92782 0.24975 0.92127 0.0
C956 C 0.01728 0.22925 0.96017 0.0
C957 C 0.03632 0.21108 0.93459 0.0
C958 C 0.01952 0.21167 0.97632 0.0
N959 N 0.02577 0.22873 0.93983 0.0
C960 C 0.03924 0.19328 0.95033 0.0
C961 C 0.03091 0.19343 0.97164 0.0
H962 H 0.009 0.24353 0.96392 0.0
H963 H 0.04298 0.21107 0.91836 0.0
C964 C 0.9695 0.28509 0.85667 0.0
N965 N 0.97551 0.26765 0.8704 0.0
C966 C 0.95046 0.28201 0.84258 0.0
C967 C 0.94418 0.24304 0.85696 0.0
C968 C 0.96346 0.24683 0.87061 0.0
C969 C 0.9374 0.26076 0.84262 0.0
H970 H 0.97962 0.30136 0.85647 0.0
H971 H 0.96883 0.23315 0.88144 0.0
O972 O 0.04905 0.28046 0.9226 0.0
O973 O 0.0212 0.30093 0.88378 0.0
O974 O 0.02328 0.24934 0.88782 0.0
O975 O 0.99677 0.26999 0.92225 0.0
H976 H 0.04072 0.29259 0.96216 0.0
H977 H 0.078 0.24997 0.92739 0.0
H978 H 0.05741 0.27741 0.9973 0.0
H979 H 0.0941 0.23563 0.96315 0.0
H980 H 0.99211 0.36742 0.88563 0.0
H981 H 0.05916 0.32827 0.87673 0.0
H982 H 0.98778 0.32558 0.88781 0.0
H983 H 0.06221 0.37006 0.87463 0.0
H984 H 0.12437 0.27531 0.87315 0.0
H985 H 0.08124 0.29679 0.81877 0.0
H986 H 0.98419 0.34033 0.96793 0.0
H987 H 0.05202 0.36717 0.94859 0.0
H988 H 1.00739 0.25336 0.84656 0.0
H989 H 0.06124 0.23023 0.88831 0.0
H990 H 0.02559 0.24121 0.81435 0.0
H991 H 0.07844 0.21843 0.85535 0.0
H992 H 0.97718 0.22836 0.93189 0.0
H993 H 0.96482 0.29648 0.91189 0.0
H994 H 0.93568 0.21682 0.9311 0.0
H995 H 0.92354 0.28371 0.91136 0.0
H996 H 0.01239 0.21243 0.99229 0.0
H997 H 0.04844 0.17987 0.94594 0.0
H998 H 0.94625 0.29608 0.83153 0.0
H999 H 0.93459 0.22644 0.85781 0.0
Li1000 Li 0.5408 0.7814 0.39662 0.0
Li1001 Li 0.52089 0.79926 0.42256 0.0
Li1002 Li 0.52213 0.75663 0.42626 0.0
Li1003 Li 0.49979 0.77657 0.39603 0.0
C1004 C 0.57039 0.78472 0.43091 0.0
N1005 N 0.61718 0.79084 0.43441 0.0
C1006 C 0.58247 0.80505 0.42289 0.0
C1007 C 0.58213 0.76749 0.44071 0.0
C1008 C 0.6061 0.80782 0.42479 0.0
C1009 C 0.60578 0.77092 0.44235 0.0
C1010 C 0.52095 0.82759 0.38763 0.0
C1011 C 0.50254 0.86115 0.38882 0.0
N1012 N 0.5225 0.87403 0.38419 0.0
C1013 C 0.54126 0.84116 0.38277 0.0
C1014 C 0.50139 0.83765 0.39055 0.0
C1015 C 0.5417 0.8646 0.38113 0.0
C1016 C 0.56324 0.7953 0.35695 0.0
N1017 N 0.56566 0.78339 0.37671 0.0
C1018 C 0.60066 0.77237 0.36571 0.0
C1019 C 0.58377 0.77175 0.38117 0.0
C1020 C 0.59863 0.78461 0.34522 0.0
C1021 C 0.57957 0.79615 0.34091 0.0
H1022 H 0.54832 0.80376 0.35344 0.0
H1023 H 0.58485 0.76142 0.39645 0.0
C1024 C 0.50245 0.82434 0.45372 0.0
N1025 N 0.52018 0.82459 0.44018 0.0
C1026 C 0.50147 0.84194 0.4673 0.0
C1027 C 0.53697 0.85985 0.45277 0.0
C1028 C 0.53728 0.8419 0.43952 0.0
C1029 C 0.51898 0.85999 0.46706 0.0
H1030 H 0.48918 0.81029 0.45426 0.0
H1031 H 0.55125 0.84185 0.42877 0.0
C1032 C 0.52927 0.74235 0.37888 0.0
N1033 N 0.54976 0.72258 0.34677 0.0
C1034 C 0.5243 0.74776 0.35661 0.0
C1035 C 0.5445 0.72677 0.38486 0.0
C1036 C 0.53489 0.73762 0.34062 0.0
C1037 C 0.55471 0.71698 0.36836 0.0
C1038 C 0.47291 0.7685 0.42996 0.0
C1039 C 0.46422 0.74632 0.43652 0.0
C1040 C 0.45805 0.78451 0.42425 0.0
C1041 C 0.44076 0.74045 0.43697 0.0
C1042 C 0.4347 0.77797 0.42487 0.0
N1043 N 0.42661 0.75626 0.43115 0.0
C1044 C 0.53266 0.73184 0.46617 0.0
C1045 C 0.5139 0.70991 0.43871 0.0
C1046 C 0.53403 0.71251 0.48039 0.0
N1047 N 0.52296 0.73016 0.4457 0.0
C1048 C 0.51447 0.69019 0.45257 0.0
C1049 C 0.52482 0.69137 0.47363 0.0
H1050 H 0.53953 0.74821 0.47135 0.0
H1051 H 0.5062 0.7091 0.42237 0.0
C1052 C 0.46957 0.78905 0.36134 0.0
N1053 N 0.47368 0.77232 0.37688 0.0
C1054 C 0.45159 0.7857 0.34606 0.0
C1055 C 0.4423 0.748 0.36311 0.0
C1056 C 0.46059 0.75201 0.37794 0.0
C1057 C 0.43772 0.76491 0.34676 0.0
H1058 H 0.48054 0.80484 0.36049 0.0
H1059 H 0.46464 0.73877 0.39004 0.0
O1060 O 0.54722 0.78169 0.42922 0.0
O1061 O 0.5202 0.80459 0.38956 0.0
O1062 O 0.51962 0.75261 0.39474 0.0
O1063 O 0.49583 0.77447 0.42903 0.0
H1064 H 0.57374 0.81837 0.41489 0.0
H1065 H 0.57316 0.75153 0.44677 0.0
H1066 H 0.61565 0.82342 0.41852 0.0
H1067 H 0.61507 0.75771 0.44984 0.0
H1068 H 0.48756 0.86916 0.39116 0.0
H1069 H 0.55658 0.83372 0.38049 0.0
H1070 H 0.48553 0.82743 0.39422 0.0
H1071 H 0.55733 0.8753 0.37749 0.0
H1072 H 0.61485 0.76284 0.36951 0.0
H1073 H 0.57734 0.80576 0.3253 0.0
H1074 H 0.48741 0.84112 0.47824 0.0
H1075 H 0.5507 0.87352 0.45174 0.0
H1076 H 0.5126 0.75987 0.35176 0.0
H1077 H 0.54861 0.72254 0.40205 0.0
H1078 H 0.53135 0.74176 0.32331 0.0
H1079 H 0.56666 0.705 0.37272 0.0
H1080 H 0.47544 0.73373 0.44111 0.0
H1081 H 0.46446 0.80177 0.41926 0.0
H1082 H 0.43381 0.72331 0.44191 0.0
H1083 H 0.42301 0.79016 0.42035 0.0
H1084 H 0.54196 0.71407 0.4966 0.0
H1085 H 0.50726 0.67416 0.44678 0.0
H1086 H 0.44861 0.79921 0.33377 0.0
H1087 H 0.43228 0.73161 0.36401 0.0
Li1088 Li 0.01926 0.77872 0.6414 0.0
Li1089 Li 0.99414 0.75797 0.66915 0.0
Li1090 Li 0.03604 0.75612 0.6726 0.0
Li1091 Li 0.01209 0.73593 0.64458 0.0
C1092 C 0.02984 0.80346 0.67844 0.0
N1093 N 0.0518 0.84503 0.68819 0.0
C1094 C 0.01796 0.81907 0.6875 0.0
C1095 C 0.05295 0.80891 0.67461 0.0
C1096 C 0.02934 0.84003 0.69223 0.0
C1097 C 0.06374 0.83001 0.67958 0.0
C1098 C 0.96823 0.76122 0.63359 0.0
C1099 C 0.92886 0.74575 0.63351 0.0
N1100 N 0.92286 0.7669 0.62933 0.0
C1101 C 0.96171 0.78279 0.62912 0.0
C1102 C 0.95172 0.74252 0.63565 0.0
C1103 C 0.93867 0.78532 0.62708 0.0
C1104 C 0.03307 0.80164 0.60116 0.0
N1105 N 0.02425 0.80457 0.62085 0.0
C1106 C 0.02282 0.84373 0.61033 0.0
C1107 C 0.01885 0.82503 0.62556 0.0
C1108 C 0.03226 0.84131 0.58995 0.0
C1109 C 0.03732 0.81986 0.58545 0.0
H1110 H 0.03695 0.78512 0.59772 0.0
H1111 H 0.01123 0.82683 0.64104 0.0
C1112 C 0.95823 0.74184 0.69831 0.0
N1113 N 0.96767 0.76006 0.68564 0.0
C1114 C 0.93961 0.74351 0.71118 0.0
C1115 C 0.94071 0.78267 0.69774 0.0
C1116 C 0.95924 0.7802 0.68505 0.0
C1117 C 0.93069 0.76421 0.71121 0.0
H1118 H 0.96529 0.72606 0.69867 0.0
H1119 H 0.96708 0.79445 0.67489 0.0
C1120 C 0.06292 0.75689 0.63409 0.0
N1121 N 0.10699 0.75836 0.62058 0.0
C1122 C 0.07185 0.73696 0.63071 0.0
C1123 C 0.07632 0.7776 0.63016 0.0
C1124 C 0.09418 0.73804 0.62402 0.0
C1125 C 0.09857 0.77799 0.62345 0.0
C1126 C 1.00807 0.70857 0.68189 0.0
C1127 C 0.02561 0.69792 0.69243 0.0
C1128 C 0.98793 0.69568 0.67582 0.0
C1129 C 0.02279 0.67447 0.69651 0.0
C1130 C 0.98578 0.67227 0.68016 0.0
N1131 N 1.00311 0.66224 0.69032 0.0
C1132 C 0.0618 0.76674 0.71127 0.0
C1133 C 0.07833 0.74251 0.68943 0.0
C1134 C 0.08009 0.76683 0.72638 0.0
N1135 N 0.06141 0.755 0.69301 0.0
C1136 C 0.09686 0.74196 0.70421 0.0
C1137 C 0.09798 0.75437 0.72292 0.0
H1138 H 0.04789 0.77607 0.71412 0.0
H1139 H 0.07738 0.73274 0.67524 0.0
C1140 C 0.9956 0.71101 0.60855 0.0
N1141 N 0.009 0.71023 0.62713 0.0
C1142 C 0.99398 0.6936 0.59437 0.0
C1143 C 0.01971 0.67466 0.61883 0.0
C1144 C 0.02091 0.69247 0.63247 0.0
C1145 C 1.0063 0.67514 0.5993 0.0
H1146 H 0.98654 0.72544 0.60447 0.0
H1147 H 0.0317 0.69227 0.64713 0.0
O1148 O 0.01888 0.78294 0.67349 0.0
O1149 O 0.99068 0.75846 0.63616 0.0
O1150 O 0.04095 0.75613 0.64041 0.0
O1151 O 0.01058 0.7315 0.67767 0.0
H1152 H 1.00013 0.81511 0.6908 0.0
H1153 H 0.06251 0.79684 0.66819 0.0
H1154 H 0.02033 0.8523 0.69914 0.0
H1155 H 0.08162 0.83442 0.67669 0.0
H1156 H 0.91588 0.73144 0.63519 0.0
H1157 H 0.97429 0.79743 0.6275 0.0
H1158 H 0.95651 0.7257 0.63894 0.0
H1159 H 0.93336 0.80192 0.62377 0.0
H1160 H 0.01821 0.85982 0.61433 0.0
H1161 H 0.04476 0.81721 0.57005 0.0
H1162 H 0.9323 0.7287 0.72099 0.0
H1163 H 0.93469 0.79903 0.69737 0.0
H1164 H 0.06175 0.7208 0.63347 0.0
H1165 H 0.06962 0.79328 0.63202 0.0
H1166 H 0.10134 0.72271 0.62155 0.0
H1167 H 0.10912 0.79391 0.62043 0.0
H1168 H 0.04123 0.70764 0.69739 0.0
H1169 H 0.97419 0.70364 0.66768 0.0
H1170 H 0.03625 0.666 0.70458 0.0
H1171 H 0.97034 0.66207 0.67543 0.0
H1172 H 0.08005 0.7763 0.7408 0.0
H1173 H 0.11028 0.73213 0.70088 0.0
H1174 H 0.98368 0.69495 0.57939 0.0
H1175 H 0.02929 0.6607 0.62352 0.0
Li1176 Li 0.52257 0.27878 0.14517 0.0
Li1177 Li 0.49653 0.25784 0.17155 0.0
Li1178 Li 0.53744 0.25406 0.17545 0.0
Li1179 Li 0.51411 0.2371 0.14598 0.0
C1180 C 0.53768 0.29875 0.184 0.0
N1181 N 0.5696 0.33261 0.1978 0.0
C1182 C 0.534 0.30982 0.20263 0.0
C1183 C 0.55765 0.30483 0.17244 0.0
C1184 C 0.55033 0.32692 0.20933 0.0
C1185 C 0.57356 0.32201 0.17966 0.0
C1186 C 0.47143 0.26457 0.13664 0.0
C1187 C 0.43171 0.25163 0.13159 0.0
N1188 N 0.4267 0.27279 0.13417 0.0
C1189 C 0.46592 0.28622 0.13908 0.0
C1190 C 0.45424 0.24714 0.13274 0.0
C1191 C 0.44319 0.29003 0.13784 0.0
C1192 C 0.53929 0.30346 0.10701 0.0
N1193 N 0.52904 0.30559 0.12616 0.0
C1194 C 0.52994 0.34539 0.1177 0.0
C1195 C 0.52412 0.32597 0.13166 0.0
C1196 C 0.54105 0.34376 0.09803 0.0
C1197 C 0.54559 0.32241 0.09269 0.0
H1198 H 0.54267 0.287 0.10292 0.0
H1199 H 0.51595 0.32718 0.14702 0.0
C1200 C 0.45395 0.24258 0.19199 0.0
N1201 N 0.47005 0.26049 0.18807 0.0
C1202 C 0.43532 0.24449 0.20473 0.0
C1203 C 0.44988 0.28337 0.20899 0.0
C1204 C 0.46822 0.28071 0.1961 0.0
C1205 C 0.43319 0.26502 0.21368 0.0
H1206 H 0.45553 0.22674 0.18535 0.0
H1207 H 0.48113 0.29477 0.19263 0.0
C1208 C 0.56061 0.24283 0.13919 0.0
N1209 N 0.59346 0.21624 0.13021 0.0
C1210 C 0.56363 0.22346 0.15282 0.0
C1211 C 0.5744 0.24875 0.12104 0.0
C1212 C 0.58029 0.21022 0.148 0.0
C1213 C 0.59089 0.23507 0.11676 0.0
C1214 C 0.50473 0.2074 0.18138 0.0
C1215 C 0.51812 0.19339 0.19414 0.0
C1216 C 0.48467 0.19799 0.1713 0.0
C1217 C 0.5112 0.1702 0.19661 0.0
C1218 C 0.47832 0.17473 0.17415 0.0
N1219 N 0.49161 0.16143 0.18665 0.0
C1220 C 0.55768 0.24254 0.21697 0.0
C1221 C 0.58367 0.26 0.19046 0.0
C1222 C 0.5752 0.24098 0.23277 0.0
N1223 N 0.5622 0.25181 0.19626 0.0
C1224 C 0.60167 0.25904 0.2058 0.0
C1225 C 0.59762 0.24938 0.22735 0.0
H1226 H 0.54042 0.23635 0.22121 0.0
H1227 H 0.58683 0.2675 0.17394 0.0
C1228 C 0.50049 0.21775 0.10637 0.0
N1229 N 0.51046 0.21299 0.12639 0.0
C1230 C 0.49794 0.20183 0.09061 0.0
C1231 C 0.51585 0.1762 0.11631 0.0
C1232 C 0.51826 0.1927 0.1315 0.0
C1233 C 0.50568 0.1807 0.09548 0.0
H1234 H 0.49466 0.23406 0.10255 0.0
H1235 H 0.5265 0.18927 0.14731 0.0
O1236 O 0.5219 0.28183 0.17739 0.0
O1237 O 0.49353 0.26038 0.13851 0.0
O1238 O 0.5444 0.25607 0.14362 0.0
O1239 O 0.5113 0.23014 0.17872 0.0
H1240 H 0.51872 0.30521 0.21189 0.0
H1241 H 0.56093 0.29633 0.15811 0.0
H1242 H 0.54769 0.33564 0.22372 0.0
H1243 H 0.58909 0.32687 0.17086 0.0
H1244 H 0.41821 0.23828 0.12867 0.0
H1245 H 0.47903 0.29985 0.14224 0.0
H1246 H 0.45824 0.23031 0.13066 0.0
H1247 H 0.43865 0.30666 0.13989 0.0
H1248 H 0.52625 0.36155 0.12247 0.0
H1249 H 0.55381 0.32036 0.07753 0.0
H1250 H 0.42269 0.23 0.20749 0.0
H1251 H 0.44908 0.29947 0.21562 0.0
H1252 H 0.55322 0.21866 0.16697 0.0
H1253 H 0.57246 0.26377 0.11038 0.0
H1254 H 0.58274 0.19515 0.15841 0.0
H1255 H 0.60165 0.23945 0.10275 0.0
H1256 H 0.53376 0.20031 0.202 0.0
H1257 H 0.47438 0.20847 0.16095 0.0
H1258 H 0.52142 0.15917 0.20642 0.0
H1259 H 0.46291 0.16724 0.16632 0.0
H1260 H 0.57119 0.23309 0.24901 0.0
H1261 H 0.6185 0.26615 0.20087 0.0
H1262 H 0.48985 0.20597 0.07482 0.0
H1263 H 0.52232 0.16024 0.12066 0.0
H1264 H 0.22124 0.79005 0.83965 0.0
H1265 H 0.23369 0.73034 0.88047 0.0
H1266 H 0.23885 0.75215 0.91289 0.0
H1267 H 0.23998 0.78813 0.92961 0.0
H1268 H 0.22962 0.84842 0.88852 0.0
H1269 H 0.22298 0.82638 0.85644 0.0
C1270 C 0.22492 0.78183 0.8557 0.0
C1271 C 0.2271 0.75863 0.85767 0.0
C1272 C 0.22816 0.79456 0.87425 0.0
C1273 C 0.23213 0.74822 0.8785 0.0
C1274 C 0.23501 0.76067 0.89705 0.0
C1275 C 0.23656 0.79658 0.91363 0.0
C1276 C 0.23532 0.82 0.91165 0.0
C1277 C 0.23321 0.78388 0.8951 0.0
C1278 C 0.23035 0.83041 0.89075 0.0
C1279 C 0.2267 0.81783 0.87229 0.0
H1280 H 1.00721 0.5535 0.41021 0.0
H1281 H 0.0627 0.56778 0.45649 0.0
H1282 H 0.08849 0.55312 0.43225 0.0
H1283 H 0.09532 0.53707 0.39744 0.0
H1284 H 0.03978 0.52414 0.35067 0.0
H1285 H 0.01394 0.53711 0.37565 0.0
C1286 C 0.02492 0.55324 0.41503 0.0
C1287 C 0.03307 0.56157 0.43514 0.0
C1288 C 0.03962 0.54501 0.40092 0.0
C1289 C 0.05608 0.56131 0.44113 0.0
C1290 C 0.07079 0.553 0.42726 0.0
C1291 C 0.07758 0.53718 0.39266 0.0
C1292 C 0.06957 0.52953 0.37217 0.0
C1293 C 0.06279 0.54496 0.40702 0.0
C1294 C 0.04643 0.52953 0.36644 0.0
C1295 C 0.03162 0.53713 0.38066 0.0
H1296 H 0.80028 0.79466 0.88639 0.0
H1297 H 0.79568 0.74091 0.84285 0.0
H1298 H 0.79557 0.71307 0.87453 0.0
H1299 H 0.79583 0.70394 0.91458 0.0
H1300 H 0.80239 0.75791 0.95817 0.0
H1301 H 0.80225 0.78558 0.92656 0.0
C1302 C 0.79917 0.77684 0.88389 0.0
C1303 C 0.79792 0.76985 0.86232 0.0
C1304 C 0.79934 0.76093 0.90219 0.0
C1305 C 0.79681 0.74672 0.85929 0.0
C1306 C 0.79667 0.73079 0.8774 0.0
C1307 C 0.79758 0.72175 0.91724 0.0
C1308 C 0.79894 0.72867 0.93888 0.0
C1309 C 0.79789 0.73769 0.89893 0.0
C1310 C 0.80083 0.75192 0.94181 0.0
C1311 C 0.80092 0.76784 0.9237 0.0
H1312 H 0.98822 0.9665 0.44621 0.0
H1313 H 0.01802 0.03576 0.44626 0.0
H1314 H 0.99988 0.04444 0.41031 0.0
H1315 H 0.97523 0.0323 0.37901 0.0
H1316 H 0.94553 0.96287 0.37899 0.0
H1317 H 0.96403 0.95421 0.41462 0.0
C1318 C 0.99062 0.98347 0.43829 0.0
C1319 C 1.00405 1.00056 0.44891 0.0
C1320 C 0.98022 0.98827 0.41763 0.0
C1321 C 1.00746 0.02243 0.43846 0.0
C1322 C 0.99713 0.02737 0.41793 0.0
C1323 C 0.97271 0.01531 0.38688 0.0
C1324 C 0.95901 0.99827 0.37634 0.0
C1325 C 0.98337 0.01045 0.40741 0.0
C1326 C 0.95619 0.97625 0.38661 0.0
C1327 C 0.96666 0.9713 0.40705 0.0
H1328 H 0.20417 0.26089 0.6584 0.0
H1329 H 0.26253 0.2589 0.70235 0.0
H1330 H 0.27802 0.23319 0.67929 0.0
H1331 H 0.27504 0.21143 0.64629 0.0
H1332 H 0.21743 0.21561 0.60142 0.0
H1333 H 0.20155 0.23993 0.62527 0.0
C1334 C 0.22015 0.25456 0.66306 0.0
C1335 C 0.23179 0.26122 0.6824 0.0
C1336 C 0.22912 0.24014 0.64952 0.0
C1337 C 0.25287 0.25353 0.68788 0.0
C1338 C 0.26181 0.23893 0.67461 0.0
C1339 C 0.25909 0.21777 0.64164 0.0
C1340 C 0.2474 0.21137 0.62211 0.0
C1341 C 0.25011 0.23216 0.65533 0.0
C1342 C 0.22663 0.21971 0.61654 0.0
C1343 C 0.21756 0.23382 0.6301 0.0
H1344 H 0.49537 0.56673 0.59145 0.0
H1345 H 0.55374 0.54788 0.62949 0.0
H1346 H 0.53129 0.54119 0.66263 0.0
H1347 H 0.49512 0.54076 0.68091 0.0
H1348 H 0.4369 0.5603 0.64312 0.0
H1349 H 0.45925 0.56668 0.60986 0.0
C1350 C 0.50323 0.56133 0.60702 0.0
C1351 C 0.52622 0.55778 0.60792 0.0
C1352 C 0.49024 0.55762 0.62609 0.0
C1353 C 0.53602 0.55045 0.62821 0.0
C1354 C 0.52322 0.54675 0.64723 0.0
C1355 C 0.48737 0.54663 0.66545 0.0
C1356 C 0.46436 0.55006 0.66456 0.0
C1357 C 0.50033 0.55031 0.64637 0.0
C1358 C 0.4545 0.55729 0.64426 0.0
C1359 C 0.46731 0.56105 0.62523 0.0
H1360 H 0.77256 0.25721 0.67594 0.0
H1361 H 0.81249 0.31249 0.70549 0.0
H1362 H 0.80901 0.33664 0.67142 0.0
H1363 H 0.79372 0.34228 0.63361 0.0
H1364 H 0.75462 0.28659 0.6036 0.0
H1365 H 0.75835 0.2625 0.6375 0.0
C1366 C 0.78049 0.27455 0.6748 0.0
C1367 C 0.79255 0.28318 0.69316 0.0
C1368 C 0.77843 0.28829 0.65516 0.0
C1369 C 0.80297 0.30557 0.69158 0.0
C1370 C 0.80098 0.31936 0.67212 0.0
C1371 C 0.78625 0.3248 0.63435 0.0
C1372 C 0.77382 0.31636 0.61602 0.0
C1373 C 0.78865 0.31093 0.65385 0.0
C1374 C 0.76395 0.29371 0.61751 0.0
C1375 C 0.76621 0.27984 0.63686 0.0
H1376 H 0.54125 0.98439 0.61038 0.0
H1377 H 0.48415 0.99774 0.64684 0.0
H1378 H 0.50761 0.99902 0.68055 0.0
H1379 H 0.54439 0.99673 0.69973 0.0
H1380 H 0.6013 0.9823 0.66364 0.0
H1381 H 0.57786 0.98104 0.62985 0.0
C1382 C 0.53387 0.98736 0.62574 0.0
C1383 C 0.51094 0.99107 0.62597 0.0
C1384 C 0.54744 0.98794 0.64518 0.0
C1385 C 0.5018 0.99519 0.64603 0.0
C1386 C 0.51518 0.99579 0.66538 0.0
C1387 C 0.55163 0.99303 0.68455 0.0
C1388 C 0.57463 0.98964 0.68431 0.0
C1389 C 0.53803 0.99223 0.66516 0.0
C1390 C 0.58375 0.98528 0.66432 0.0
C1391 C 0.57032 0.98443 0.64498 0.0
H1392 H 0.84877 0.2605 0.78139 0.0
H1393 H 0.86464 0.19362 0.77216 0.0
H1394 H 0.89779 0.19926 0.79694 0.0
H1395 H 0.92268 0.22344 0.82061 0.0
H1396 H 0.90603 0.28988 0.831 0.0
H1397 H 0.87315 0.28434 0.80602 0.0
C1398 C 0.85957 0.24722 0.78475 0.0
C1399 C 0.85426 0.22668 0.77494 0.0
C1400 C 0.87856 0.25055 0.7991 0.0
C1401 C 0.86823 0.2095 0.77966 0.0
C1402 C 0.88725 0.21276 0.79375 0.0
C1403 C 0.91173 0.23663 0.81769 0.0
C1404 C 0.91701 0.2571 0.8277 0.0
C1405 C 0.89259 0.23322 0.80356 0.0
C1406 C 0.90272 0.2741 0.82329 0.0
C1407 C 0.88377 0.27089 0.8091 0.0
H1408 H 0.5352 0.9395 0.53052 0.0
H1409 H 0.4634 0.93976 0.51846 0.0
H1410 H 0.46267 0.90788 0.49547 0.0
H1411 H 0.48286 0.88089 0.47773 0.0
H1412 H 0.5548 0.88089 0.49006 0.0
H1413 H 0.55512 0.91185 0.51374 0.0
C1414 C 0.51937 0.93243 0.52299 0.0
C1415 C 0.49933 0.94182 0.52626 0.0
C1416 C 0.51917 0.91431 0.50966 0.0
C1417 C 0.47898 0.93265 0.51627 0.0
C1418 C 0.47859 0.91451 0.50309 0.0
C1419 C 0.49857 0.88749 0.48578 0.0
C1420 C 0.51881 0.87859 0.48192 0.0
C1421 C 0.49863 0.9053 0.49952 0.0
C1422 C 0.53904 0.88761 0.49234 0.0
C1423 C 0.53922 0.90525 0.50604 0.0
H1424 H 0.1893 0.27391 0.78686 0.0
H1425 H 0.17642 0.3399 0.75945 0.0
H1426 H 0.14396 0.33861 0.78318 0.0
H1427 H 0.11985 0.31919 0.81253 0.0
H1428 H 0.13348 0.25378 0.84102 0.0
H1429 H 0.16501 0.25437 0.81623 0.0
C1430 C 0.17922 0.28788 0.78599 0.0
C1431 C 0.18519 0.30696 0.77144 0.0
C1432 C 0.16081 0.28719 0.8 0.0
C1433 C 0.1722 0.32509 0.77063 0.0
C1434 C 0.15363 0.32435 0.78417 0.0
C1435 C 0.12963 0.30501 0.81318 0.0
C1436 C 0.12436 0.28649 0.8286 0.0
C1437 C 0.14788 0.30557 0.79904 0.0
C1438 C 0.13737 0.26835 0.82945 0.0
C1439 C 0.15532 0.26862 0.81521 0.0
H1440 H 0.51444 0.60012 0.5344 0.0
H1441 H 0.58668 0.61747 0.54175 0.0
H1442 H 0.58461 0.65198 0.51771 0.0
H1443 H 0.56219 0.67727 0.49457 0.0
H1444 H 0.49026 0.65899 0.48558 0.0
H1445 H 0.49217 0.62483 0.51024 0.0
C1446 C 0.52967 0.61154 0.53074 0.0
C1447 C 0.55066 0.60637 0.53984 0.0
C1448 C 0.52838 0.63114 0.51662 0.0
C1449 C 0.57036 0.62109 0.53481 0.0
C1450 C 0.56917 0.64083 0.52115 0.0
C1451 C 0.54695 0.66581 0.49812 0.0
C1452 C 0.5261 0.67063 0.48843 0.0
C1453 C 0.54827 0.64604 0.51197 0.0
C1454 C 0.5065 0.65554 0.49284 0.0
C1455 C 0.50759 0.63607 0.50696 0.0
H1456 H 0.85538 0.76349 0.78244 0.0
H1457 H 0.82817 0.80779 0.73169 0.0
H1458 H 0.8601 0.80488 0.70828 0.0
H1459 H 0.89511 0.78872 0.70181 0.0
H1460 H 0.92294 0.74522 0.75314 0.0
H1461 H 0.8913 0.74848 0.7765 0.0
C1462 C 0.85656 0.77251 0.76626 0.0
C1463 C 0.8394 0.78562 0.75865 0.0
C1464 C 0.87495 0.77072 0.7529 0.0
C1465 C 0.84112 0.79745 0.73778 0.0
C1466 C 0.85935 0.79576 0.72441 0.0
C1467 C 0.89444 0.78015 0.71819 0.0
C1468 C 0.91142 0.7666 0.72554 0.0
C1469 C 0.87629 0.78231 0.73173 0.0
C1470 C 0.90996 0.75539 0.74678 0.0
C1471 C 0.89193 0.75739 0.76027 0.0
H1472 H 0.04559 0.91464 0.50915 0.0
H1473 H 0.06907 0.95681 0.56159 0.0
H1474 H 0.06237 0.92452 0.58862 0.0
H1475 H 0.04955 0.88437 0.59749 0.0
H1476 H 0.02491 0.84243 0.54524 0.0
H1477 H 0.03232 0.87455 0.51809 0.0
C1478 C 0.04908 0.91682 0.52651 0.0
C1479 C 0.05789 0.93816 0.53327 0.0
C1480 C 0.04499 0.8982 0.54203 0.0
C1481 C 0.06262 0.94054 0.55583 0.0
C1482 C 0.05864 0.92211 0.57135 0.0
C1483 C 0.0456 0.88229 0.58019 0.0
C1484 C 0.03668 0.86098 0.57347 0.0
C1485 C 0.04977 0.90087 0.56465 0.0
C1486 C 0.03204 0.85854 0.5509 0.0
C1487 C 0.03615 0.87695 0.53535 0.0
H1488 H 0.18205 0.76967 0.78923 0.0
H1489 H 0.17878 0.69755 0.78656 0.0
H1490 H 0.14635 0.69776 0.76092 0.0
H1491 H 0.11875 0.71828 0.73922 0.0
H1492 H 0.12127 0.79022 0.7423 0.0
H1493 H 0.15375 0.79012 0.76814 0.0
C1494 C 0.17411 0.75396 0.78323 0.0
C1495 C 0.18305 0.73366 0.78973 0.0
C1496 C 0.15523 0.75414 0.76858 0.0
C1497 C 0.17261 0.71351 0.78155 0.0
C1498 C 0.15393 0.71357 0.76696 0.0
C1499 C 0.12651 0.73396 0.74543 0.0
C1500 C 0.11763 0.75422 0.73878 0.0
C1501 C 0.14516 0.73378 0.76028 0.0
C1502 C 0.12765 0.77434 0.74729 0.0
C1503 C 0.14629 0.77432 0.76199 0.0
H1504 H 0.01993 0.59796 0.53744 0.0
H1505 H 0.94877 0.60205 0.52374 0.0
H1506 H 0.94938 0.63155 0.54919 0.0
H1507 H 0.96997 0.65612 0.57554 0.0
H1508 H 0.04147 0.65307 0.58821 0.0
H1509 H 0.04077 0.62327 0.56311 0.0
C1510 C 1.0046 0.60545 0.53984 0.0
C1511 C 0.98432 0.59765 0.5287 0.0
C1512 C 1.00507 0.62257 0.55445 0.0
C1513 C 0.96456 0.60741 0.53231 0.0
C1514 C 0.9649 0.6244 0.54679 0.0
C1515 C 0.98547 0.64912 0.57268 0.0
C1516 C 1.00571 0.65688 0.58392 0.0
C1517 C 0.98504 0.63209 0.55799 0.0
C1518 C 0.02553 0.64725 0.58016 0.0
C1519 C 0.0252 0.63028 0.56564 0.0
H1520 H 0.76154 0.8395 0.28458 0.0
H1521 H 0.75236 0.84585 0.21382 0.0
H1522 H 0.7782 0.88095 0.21184 0.0
H1523 H 0.80235 0.91056 0.23037 0.0
H1524 H 0.81166 0.90379 0.30117 0.0
H1525 H 0.78639 0.86848 0.30297 0.0
C1526 C 0.7651 0.84863 0.26873 0.0
C1527 C 0.75496 0.84008 0.24939 0.0
C1528 C 0.77983 0.86886 0.26772 0.0
C1529 C 0.76009 0.85192 0.22894 0.0
C1530 C 0.77476 0.87208 0.22781 0.0
C1531 C 0.79905 0.90126 0.24618 0.0
C1532 C 0.8088 0.91 0.26561 0.0
C1533 C 0.78463 0.88078 0.24711 0.0
C1534 C 0.80408 0.89777 0.28597 0.0
C1535 C 0.78974 0.87745 0.28702 0.0
H1536 H 0.78034 0.18418 0.26622 0.0
H1537 H 0.79988 0.18626 0.33495 0.0
H1538 H 0.82035 0.15339 0.33298 0.0
H1539 H 0.83323 0.12457 0.31145 0.0
H1540 H 0.81424 0.12309 0.24242 0.0
H1541 H 0.79288 0.15505 0.24478 0.0
C1542 C 0.78909 0.17738 0.28074 0.0
C1543 C 0.78888 0.18768 0.30066 0.0
C1544 C 0.8009 0.15861 0.27941 0.0
C1545 C 0.80003 0.17863 0.31943 0.0
C1546 C 0.81172 0.1599 0.31828 0.0
C1547 C 0.82457 0.13135 0.29687 0.0
C1548 C 0.82542 0.12141 0.27677 0.0
C1549 C 0.81243 0.14987 0.29831 0.0
C1550 C 0.81371 0.13019 0.25816 0.0
C1551 C 0.80157 0.14857 0.25946 0.0
H1552 H 0.44895 1.00101 0.99861 0.0
H1553 H 0.41479 0.05887 0.00804 0.0
H1554 H 0.37833 0.03516 0.00859 0.0
H1555 H 0.35618 0.99781 1.00732 0.0
H1556 H 0.39029 0.94007 0.9973 0.0
H1557 H 0.42664 0.96391 0.99596 0.0
C1558 C 0.43351 0.00849 1.00052 0.0
C1559 C 0.43467 0.03169 1.00338 0.0
C1560 C 0.41256 0.99475 1.0008 0.0
C1561 C 0.41447 0.04101 1.00614 0.0
C1562 C 0.39358 0.02748 1.00634 0.0
C1563 C 0.37152 0.99049 1.00456 0.0
C1564 C 0.37046 0.96714 1.0025 0.0
C1565 C 0.39242 1.00431 1.00382 0.0
C1566 C 0.39061 0.95791 0.99925 0.0
C1567 C 0.41142 0.97156 0.99838 0.0
H1568 H 0.28804 0.36552 0.30836 0.0
H1569 H 0.2346 0.31344 0.32877 0.0
H1570 H 0.20692 0.34044 0.32341 0.0
H1571 H 0.19772 0.37885 0.3125 0.0
H1572 H 0.25127 0.43084 0.29209 0.0
H1573 H 0.27886 0.40382 0.29744 0.0
C1574 C 0.27031 0.36001 0.31144 0.0
C1575 C 0.26349 0.33744 0.31901 0.0
C1576 C 0.25442 0.37562 0.30823 0.0
C1577 C 0.24044 0.33074 0.32323 0.0
C1578 C 0.22454 0.34616 0.32005 0.0
C1579 C 0.21545 0.38431 0.30938 0.0
C1580 C 0.22231 0.40688 0.30179 0.0
C1581 C 0.23133 0.36867 0.31259 0.0
C1582 C 0.24537 0.41354 0.2976 0.0
C1583 C 0.26123 0.39811 0.30078 0.0
H1584 H 0.12859 0.98602 0.50795 0.0
H1585 H 0.08495 0.03858 0.50571 0.0
H1586 H 0.11784 0.06678 0.51034 0.0
H1587 H 0.1588 0.07631 0.51574 0.0
H1588 H 0.20279 0.02407 0.51557 0.0
H1589 H 0.16994 0.99591 0.51168 0.0
C1590 C 0.12635 1.00365 0.50855 0.0
C1591 C 0.10444 0.01025 0.50657 0.0
C1592 C 0.14535 0.0198 0.51093 0.0
C1593 C 0.1017 0.03316 0.50708 0.0
C1594 C 0.12047 0.04925 0.5098 0.0
C1595 C 0.16133 0.05885 0.51451 0.0
C1596 C 0.18339 0.05245 0.51607 0.0
C1597 C 0.14238 0.04276 0.51175 0.0
C1598 C 0.18609 0.02956 0.51487 0.0
C1599 C 0.16728 0.0134 0.51246 0.0
H1600 H 0.7818 0.17864 0.78421 0.0
H1601 H 0.78445 0.17214 0.71437 0.0
H1602 H 0.75836 0.13724 0.71797 0.0
H1603 H 0.73517 0.10835 0.74106 0.0
H1604 H 0.7315 0.11572 0.81075 0.0
H1605 H 0.75797 0.15017 0.80716 0.0
C1606 C 0.77678 0.16947 0.76982 0.0
C1607 C 0.78509 0.17793 0.74907 0.0
C1608 C 0.76168 0.1495 0.77199 0.0
C1609 C 0.77816 0.16607 0.7305 0.0
C1610 C 0.76331 0.14608 0.73256 0.0
C1611 C 0.73992 0.11759 0.75544 0.0
C1612 C 0.73135 0.10927 0.77617 0.0
C1613 C 0.75493 0.13765 0.75323 0.0
C1614 C 0.73808 0.1214 0.79465 0.0
C1615 C 0.75312 0.14124 0.7926 0.0
H1616 H 0.42122 0.99759 0.57412 0.0
H1617 H 0.47543 0.05161 0.58054 0.0
H1618 H 0.44855 0.07945 0.57391 0.0
H1619 H 0.40942 0.08842 0.56658 0.0
H1620 H 0.35501 0.03424 0.56209 0.0
H1621 H 0.38202 0.00651 0.56772 0.0
C1622 C 0.4271 0.01548 0.57393 0.0
C1623 C 0.45024 0.02258 0.57769 0.0
C1624 C 0.41148 0.03134 0.57055 0.0
C1625 C 0.45766 0.04577 0.57773 0.0
C1626 C 0.44231 0.06168 0.57392 0.0
C1627 C 0.40355 0.07054 0.56678 0.0
C1628 C 0.38027 0.06338 0.56393 0.0
C1629 C 0.41916 0.05467 0.57036 0.0
C1630 C 0.37282 0.04015 0.56445 0.0
C1631 C 0.38827 0.0243 0.56757 0.0
H1632 H 0.5973 0.50799 0.51135 0.0
H1633 H 0.60301 0.49974 0.58222 0.0
H1634 H 0.63451 0.4773 0.57982 0.0
H1635 H 0.65986 0.45941 0.55745 0.0
H1636 H 0.65389 0.46773 0.48647 0.0
H1637 H 0.6229 0.49049 0.48901 0.0
C1638 C 0.60556 0.50137 0.52625 0.0
C1639 C 0.59806 0.50564 0.54695 0.0
C1640 C 0.62347 0.48836 0.5247 0.0
C1641 C 0.6087 0.49679 0.56613 0.0
C1642 C 0.62663 0.48394 0.56474 0.0
C1643 C 0.65192 0.46638 0.54253 0.0
C1644 C 0.65919 0.46177 0.5218 0.0
C1645 C 0.63412 0.47955 0.54411 0.0
C1646 C 0.64845 0.47069 0.50265 0.0
C1647 C 0.63081 0.48385 0.50408 0.0
H1648 H 0.73028 0.29304 0.33672 0.0
H1649 H 0.73682 0.23292 0.37932 0.0
H1650 H 0.74162 0.25525 0.41138 0.0
H1651 H 0.7437 0.29175 0.42737 0.0
H1652 H 0.73863 0.35219 0.38465 0.0
H1653 H 0.73298 0.32979 0.35275 0.0
C1654 C 0.7326 0.28484 0.35305 0.0
C1655 C 0.73319 0.26135 0.35562 0.0
C1656 C 0.7355 0.29782 0.37144 0.0
C1657 C 0.73651 0.251 0.37686 0.0
C1658 C 0.73917 0.26374 0.39522 0.0
C1659 C 0.74164 0.30012 0.41108 0.0
C1660 C 0.74158 0.32371 0.40856 0.0
C1661 C 0.73877 0.28718 0.3927 0.0
C1662 C 0.73841 0.33407 0.38726 0.0
C1663 C 0.73534 0.32128 0.36893 0.0
H1664 H 0.50235 0.04432 0.91745 0.0
H1665 H 0.55827 0.06709 0.96035 0.0
H1666 H 0.58479 0.05285 0.93656 0.0
H1667 H 0.59215 0.03559 0.90251 0.0
H1668 H 0.53599 0.01328 0.85948 0.0
H1669 H 0.50953 0.02578 0.88422 0.0
C1670 C 0.52034 0.04605 0.9216 0.0
C1671 C 0.52844 0.05685 0.94051 0.0
C1672 C 0.53544 0.03804 0.90774 0.0
C1673 C 0.55174 0.0589 0.9458 0.0
C1674 C 0.56686 0.05079 0.9322 0.0
C1675 C 0.5741 0.03319 0.8987 0.0
C1676 C 0.56611 0.02361 0.87907 0.0
C1677 C 0.55893 0.04054 0.91299 0.0
C1678 C 0.54266 0.02089 0.87429 0.0
C1679 C 0.52748 0.02795 0.88848 0.0
H1680 H 0.32816 0.28062 0.37514 0.0
H1681 H 0.25785 0.26137 0.35808 0.0
H1682 H 0.25469 0.23347 0.38981 0.0
H1683 H 0.27193 0.21454 0.42249 0.0
H1684 H 0.34166 0.23502 0.44077 0.0
H1685 H 0.34511 0.26245 0.4086 0.0
C1686 C 0.3122 0.27023 0.37839 0.0
C1687 C 0.29328 0.27295 0.36429 0.0
C1688 C 0.31042 0.25449 0.39689 0.0
C1689 C 0.2726 0.25963 0.36879 0.0
C1690 C 0.27081 0.24365 0.38688 0.0
C1691 C 0.28789 0.22496 0.41931 0.0
C1692 C 0.30657 0.22269 0.43383 0.0
C1693 C 0.2896 0.24092 0.40103 0.0
C1694 C 0.32706 0.23653 0.42981 0.0
C1695 C 0.32904 0.25215 0.41141 0.0
H1696 H 0.53448 0.50109 0.92718 0.0
H1697 H 0.47868 0.50898 0.96789 0.0
H1698 H 0.45398 0.51283 0.93511 0.0
H1699 H 0.44832 0.51424 0.89486 0.0
H1700 H 0.50395 0.50594 0.85405 0.0
H1701 H 0.52854 0.50156 0.88685 0.0
C1702 C 0.51683 0.50334 0.92884 0.0
C1703 C 0.50825 0.50424 0.94993 0.0
C1704 C 0.50271 0.50546 0.90992 0.0
C1705 C 0.48552 0.50779 0.95185 0.0
C1706 C 0.47143 0.51007 0.93312 0.0
C1707 C 0.46586 0.51157 0.89316 0.0
C1708 C 0.47432 0.5105 0.87206 0.0
C1709 C 0.47985 0.50899 0.91208 0.0
C1710 C 0.49698 0.50666 0.87012 0.0
C1711 C 0.51108 0.50426 0.88886 0.0
H1712 H 0.74821 0.77391 0.17469 0.0
H1713 H 0.69495 0.72369 0.19888 0.0
H1714 H 0.70688 0.69653 0.17501 0.0
H1715 H 0.73173 0.68758 0.14631 0.0
H1716 H 0.78453 0.73832 0.12161 0.0
H1717 H 0.77376 0.76459 0.14675 0.0
C1718 C 0.73927 0.757 0.17466 0.0
C1719 C 0.72048 0.75087 0.18811 0.0
C1720 C 0.74618 0.74156 0.16085 0.0
C1721 C 0.70925 0.72882 0.18835 0.0
C1722 C 0.71607 0.71333 0.17474 0.0
C1723 C 0.74083 0.70441 0.14636 0.0
C1724 C 0.75892 0.71089 0.13202 0.0
C1725 C 0.73436 0.7196 0.16071 0.0
C1726 C 0.77075 0.73269 0.13263 0.0
C1727 C 0.76449 0.74783 0.1469 0.0
H1728 H 0.01183 0.02391 0.10343 0.0
H1729 H 0.02878 0.09491 0.11149 0.0
H1730 H 1.00465 0.09167 0.14348 0.0
H1731 H 0.97818 0.06879 0.16882 0.0
H1732 H 0.96082 0.99787 0.16051 0.0
H1733 H 0.98555 1.00094 0.12899 0.0
C1734 C 0.01039 0.0386 0.11234 0.0
C1735 C 0.02208 0.05961 0.1051 0.0
C1736 C 0.9963 0.03666 0.13061 0.0
C1737 C 0.0198 0.07859 0.11662 0.0
C1738 C 1.00606 0.07674 0.13495 0.0
C1739 C 0.97996 0.05398 0.16022 0.0
C1740 C 0.96764 0.03314 0.16701 0.0
C1741 C 0.99414 0.05588 0.14203 0.0
C1742 C 0.96989 0.01417 0.15548 0.0
C1743 C 0.98413 0.01588 0.13751 0.0
H1744 H 0.26674 0.75748 0.18369 0.0
H1745 H 0.30688 0.8138 0.21134 0.0
H1746 H 0.30468 0.83632 0.17609 0.0
H1747 H 0.29022 0.84036 0.13783 0.0
H1748 H 0.25079 0.78364 0.1098 0.0
H1749 H 0.25354 0.76106 0.14479 0.0
C1750 C 0.27499 0.77469 0.18188 0.0
C1751 C 0.28668 0.78412 0.20006 0.0
C1752 C 0.27364 0.7875 0.16158 0.0
C1753 C 0.29758 0.80631 0.19759 0.0
C1754 C 0.29632 0.81916 0.17746 0.0
C1755 C 0.28247 0.82297 0.13924 0.0
C1756 C 0.27022 0.81381 0.12115 0.0
C1757 C 0.28426 0.80998 0.15938 0.0
C1758 C 0.26001 0.79131 0.1235 0.0
C1759 C 0.26168 0.7783 0.14348 0.0
H1760 H 0.01375 0.45771 0.1206 0.0
H1761 H 0.01103 0.52962 0.1128 0.0
H1762 H 0.03638 0.53466 0.14492 0.0
H1763 H 0.05922 0.51872 0.17537 0.0
H1764 H 0.06369 0.44708 0.18178 0.0
H1765 H 0.03781 0.44198 0.15009 0.0
C1766 C 0.01891 0.47455 0.1257 0.0
C1767 C 0.01034 0.49323 0.1142 0.0
C1768 C 0.03378 0.47741 0.14404 0.0
C1769 C 0.01698 0.51485 0.12144 0.0
C1770 C 0.03163 0.51779 0.13977 0.0
C1771 C 0.05481 0.50201 0.16971 0.0
C1772 C 0.06344 0.48332 0.18114 0.0
C1773 C 0.04013 0.49919 0.15121 0.0
C1774 C 0.05708 0.46176 0.17366 0.0
C1775 C 0.04237 0.45882 0.15539 0.0
H1776 H 0.36996 0.75114 0.26502 0.0
H1777 H 0.32564 0.72123 0.31678 0.0
H1778 H 0.35578 0.72925 0.34426 0.0
H1779 H 0.3948 0.74469 0.35378 0.0
H1780 H 0.43888 0.77548 0.30229 0.0
H1781 H 0.40863 0.7677 0.27468 0.0
C1782 C 0.36679 0.7466 0.28233 0.0
C1783 C 0.34555 0.73539 0.28871 0.0
C1784 C 0.38415 0.75152 0.29817 0.0
C1785 C 0.34192 0.72944 0.31126 0.0
C1786 C 0.35911 0.73416 0.32706 0.0
C1787 C 0.3978 0.7496 0.3365 0.0
C1788 C 0.41907 0.76062 0.33012 0.0
C1789 C 0.38033 0.74508 0.3207 0.0
C1790 C 0.42259 0.76719 0.30768 0.0
C1791 C 0.40534 0.76263 0.29186 0.0
H1792 H 0.03222 0.43567 0.02425 0.0
H1793 H 0.96273 0.44105 1.00426 0.0
H1794 H 0.96258 0.40912 0.98145 0.0
H1795 H 0.98273 0.38054 0.96628 0.0
H1796 H 0.05226 0.37509 0.98671 0.0
H1797 H 0.05201 0.40637 0.00991 0.0
C1798 C 0.01706 0.42978 0.01492 0.0
C1799 C 0.99755 0.44074 0.01573 0.0
C1800 C 0.01719 0.41155 1.00176 0.0
C1801 C 0.97794 0.43288 1.00373 0.0
C1802 C 0.97789 0.41468 0.9907 0.0
C1803 C 0.99777 0.38603 0.97597 0.0
C1804 C 0.01753 0.37548 0.97457 0.0
C1805 C 0.99748 0.40399 0.98944 0.0
C1806 C 0.03693 0.38309 0.98709 0.0
C1807 C 0.03677 0.4009 1.00052 0.0
H1808 H 0.66046 0.78588 0.26265 0.0
H1809 H 0.71282 0.80059 0.3121 0.0
H1810 H 0.68433 0.79756 0.34046 0.0
H1811 H 0.64441 0.79188 0.35102 0.0
H1812 H 0.59189 0.77842 0.30143 0.0
H1813 H 0.62046 0.77985 0.27333 0.0
C1814 C 0.66559 0.78818 0.27969 0.0
C1815 C 0.68868 0.79342 0.28531 0.0
C1816 C 0.64907 0.78679 0.29584 0.0
C1817 C 0.69512 0.79668 0.30738 0.0
C1818 C 0.67885 0.79492 0.32359 0.0
C1819 C 0.63926 0.78908 0.33409 0.0
C1820 C 0.61608 0.78509 0.32831 0.0
C1821 C 0.65576 0.79016 0.31799 0.0
C1822 C 0.60962 0.78177 0.30625 0.0
C1823 C 0.62595 0.78248 0.29019 0.0
H1824 H 0.04691 0.12662 0.05541 0.0
H1825 H 0.0413 0.07875 1.00573 0.0
H1826 H 0.03544 0.10878 0.97715 0.0
H1827 H 0.03102 0.14842 0.96648 0.0
H1828 H 0.03903 0.19673 0.01601 0.0
H1829 H 0.04422 0.16667 0.04445 0.0
C1830 C 0.04435 0.12281 0.03832 0.0
C1831 C 0.04447 0.10052 0.03267 0.0
C1832 C 0.04119 0.14018 0.02197 0.0
C1833 C 0.04143 0.09581 0.01044 0.0
C1834 C 0.03798 0.11295 0.99413 0.0
C1835 C 0.03421 0.15252 0.98342 0.0
C1836 C 0.03441 0.17494 0.98895 0.0
C1837 C 0.03777 0.1352 0.99971 0.0
C1838 C 0.03821 0.17965 0.01117 0.0
C1839 C 0.04141 0.16247 0.0275 0.0
H1840 H 0.35162 0.25691 0.27899 0.0
H1841 H 0.34582 0.32374 0.24923 0.0
H1842 H 0.3791 0.32206 0.22709 0.0
H1843 H 0.40865 0.30071 0.21494 0.0
H1844 H 0.4144 0.23385 0.24517 0.0
H1845 H 0.38218 0.23626 0.26806 0.0
C1846 C 0.35775 0.27111 0.26771 0.0
C1847 C 0.3462 0.29032 0.26548 0.0
C1848 C 0.37671 0.2699 0.25494 0.0
C1849 C 0.3544 0.30873 0.25102 0.0
C1850 C 0.37336 0.30773 0.23836 0.0
C1851 C 0.40304 0.28676 0.22671 0.0
C1852 C 0.4139 0.26704 0.2281 0.0
C1853 C 0.38449 0.28828 0.23998 0.0
C1854 C 0.40615 0.24906 0.24335 0.0
C1855 C 0.38779 0.25047 0.2566 0.0
H1856 H 0.58537 0.42342 0.03311 0.0
H1857 H 0.51984 0.44609 0.03822 0.0
H1858 H 0.50813 0.41336 0.06365 0.0
H1859 H 0.51642 0.378 0.08421 0.0
H1860 H 0.58182 0.35519 0.07859 0.0
H1861 H 0.5937 0.38824 0.0537 0.0
C1862 C 0.5686 0.42128 0.03995 0.0
C1863 C 0.55352 0.43717 0.03381 0.0
C1864 C 0.56194 0.40236 0.05445 0.0
C1865 C 0.5317 0.43398 0.04253 0.0
C1866 C 0.52503 0.41533 0.05715 0.0
C1867 C 0.53332 0.38039 0.07766 0.0
C1868 C 0.5482 0.36415 0.08323 0.0
C1869 C 0.53999 0.39937 0.06319 0.0
C1870 C 0.56996 0.36731 0.07438 0.0
C1871 C 0.5768 0.38626 0.06021 0.0
H1872 H 0.66687 0.24494 0.30883 0.0
H1873 H 0.71175 0.23509 0.25728 0.0
H1874 H 0.68095 0.23751 0.22996 0.0
H1875 H 0.64119 0.24176 0.22068 0.0
H1876 H 0.59693 0.2543 0.27177 0.0
H1877 H 0.62759 0.25142 0.29918 0.0
C1878 C 0.67006 0.24366 0.29159 0.0
C1879 C 0.69167 0.23967 0.28526 0.0
C1880 C 0.65232 0.24539 0.27583 0.0
C1881 C 0.69525 0.23771 0.2628 0.0
C1882 C 0.67766 0.23924 0.24709 0.0
C1883 C 0.63825 0.24421 0.23774 0.0
C1884 C 0.6166 0.24812 0.24403 0.0
C1885 C 0.6561 0.24297 0.25343 0.0
C1886 C 0.6132 0.25081 0.26638 0.0
C1887 C 0.63081 0.24936 0.2821 0.0
H1888 H 0.49906 0.12052 0.01399 0.0
H1889 H 0.4753 0.06915 0.06434 0.0
H1890 H 0.48087 0.09673 0.0921 0.0
H1891 H 0.49155 0.1357 0.10197 0.0
H1892 H 0.51451 0.18735 0.05155 0.0
H1893 H 0.51015 0.15954 0.02399 0.0
C1894 C 0.49532 0.11537 0.03109 0.0
C1895 C 0.48677 0.09283 0.03709 0.0
C1896 C 0.49829 0.13141 0.04694 0.0
C1897 C 0.48172 0.08644 0.05926 0.0
C1898 C 0.48495 0.10219 0.07515 0.0
C1899 C 0.49579 0.14082 0.08498 0.0
C1900 C 0.50332 0.16359 0.07885 0.0
C1901 C 0.49307 0.12476 0.06917 0.0
C1902 C 0.50844 0.17 0.05669 0.0
C1903 C 0.50605 0.15407 0.04092 0.0
H1904 H 0.26049 0.34948 0.78037 0.0
H1905 H 0.25893 0.35573 0.70929 0.0
H1906 H 0.28566 0.39021 0.70947 0.0
H1907 H 0.30852 0.4191 0.72984 0.0
H1908 H 0.31147 0.41169 0.80103 0.0
H1909 H 0.28471 0.3775 0.80074 0.0
C1910 C 0.26598 0.35845 0.76493 0.0
C1911 C 0.25771 0.35015 0.74485 0.0
C1912 C 0.28142 0.37817 0.76517 0.0
C1913 C 0.2652 0.36173 0.72496 0.0
C1914 C 0.28038 0.38149 0.72506 0.0
C1915 C 0.30361 0.4099 0.74532 0.0
C1916 C 0.31199 0.41822 0.76543 0.0
C1917 C 0.28854 0.38991 0.74507 0.0
C1918 C 0.30501 0.40609 0.78528 0.0
C1919 C 0.28982 0.38637 0.78516 0.0
H1920 H 0.29927 0.68655 0.82736 0.0
H1921 H 0.27225 0.69245 0.76079 0.0
H1922 H 0.29136 0.66061 0.75163 0.0
H1923 H 0.31673 0.63184 0.76232 0.0
H1924 H 0.34292 0.62534 0.82934 0.0
H1925 H 0.32348 0.65677 0.83846 0.0
C1926 C 0.29764 0.68079 0.81088 0.0
C1927 C 0.28474 0.69196 0.79467 0.0
C1928 C 0.30865 0.66248 0.80577 0.0
C1929 C 0.28237 0.68424 0.77343 0.0
C1930 C 0.29327 0.66605 0.76821 0.0
C1931 C 0.31799 0.63711 0.77899 0.0
C1932 C 0.33147 0.62628 0.79504 0.0
C1933 C 0.30659 0.65513 0.78421 0.0
C1934 C 0.33307 0.63359 0.8165 0.0
C1935 C 0.32181 0.65149 0.8218 0.0
H1936 H 0.91915 0.55005 0.50288 0.0
H1937 H 0.9636 0.49963 0.49506 0.0
H1938 H 0.9311 0.47048 0.49488 0.0
H1939 H 0.89007 0.45921 0.49719 0.0
H1940 H 0.84594 0.50942 0.50697 0.0
H1941 H 0.8783 0.53865 0.5061 0.0
C1942 C 0.9218 0.53265 0.50138 0.0
C1943 C 0.94386 0.52712 0.49898 0.0
C1944 C 0.90305 0.5159 0.50155 0.0
C1945 C 0.94683 0.50449 0.49663 0.0
C1946 C 0.92825 0.48776 0.49666 0.0
C1947 C 0.88751 0.4765 0.49935 0.0
C1948 C 0.86548 0.48201 0.50206 0.0
C1949 C 0.90628 0.49325 0.49916 0.0
C1950 C 0.86257 0.50464 0.50446 0.0
C1951 C 0.88112 0.5214 0.50414 0.0
H1952 H 0.78926 0.86302 0.80754 0.0
H1953 H 0.73775 0.81292 0.83562 0.0
H1954 H 0.71082 0.84071 0.83333 0.0
H1955 H 0.70171 0.87928 0.8232 0.0
H1956 H 0.753 0.92902 0.79417 0.0
H1957 H 0.78003 0.90138 0.79697 0.0
C1958 C 0.77209 0.85811 0.81299 0.0
C1959 C 0.76564 0.83586 0.82178 0.0
C1960 C 0.75658 0.87416 0.81151 0.0
C1961 C 0.74336 0.82996 0.82908 0.0
C1962 C 0.72786 0.84583 0.82764 0.0
C1963 C 0.71875 0.88404 0.81732 0.0
C1964 C 0.72526 0.9063 0.80857 0.0
C1965 C 0.73426 0.86798 0.81886 0.0
C1966 C 0.74755 0.91216 0.80131 0.0
C1967 C 0.76303 0.8963 0.80277 0.0
H1968 H 0.59711 0.53428 1.00443 0.0
H1969 H 0.62975 0.4737 0.0146 0.0
H1970 H 0.66639 0.49631 0.01998 0.0
H1971 H 0.68912 0.53337 0.02204 0.0
H1972 H 0.65629 0.59387 0.01239 0.0
H1973 H 0.61978 0.57126 1.00652 0.0
C1974 C 0.61228 0.52605 1.00764 0.0
C1975 C 0.61072 0.50235 0.00905 0.0
C1976 C 0.63324 0.53915 0.01086 0.0
C1977 C 0.63048 0.49191 0.01359 0.0
C1978 C 0.65143 0.50483 0.01659 0.0
C1979 C 0.67398 0.54158 0.01848 0.0
C1980 C 0.67541 0.56526 0.01763 0.0
C1981 C 0.65302 0.52846 0.01528 0.0
C1982 C 0.6556 0.57566 0.01334 0.0
C1983 C 0.63474 0.56275 0.00989 0.0
H1984 H 0.27447 0.67652 0.2285 0.0
H1985 H 0.28021 0.68253 0.29879 0.0
H1986 H 0.25568 0.64718 0.30517 0.0
H1987 H 0.23204 0.61469 0.29096 0.0
H1988 H 0.2239 0.60977 0.22082 0.0
H1989 H 0.24946 0.64481 0.2142 0.0
C1990 C 0.27018 0.6703 0.24521 0.0
C1991 C 0.27951 0.68222 0.2631 0.0
C1992 C 0.25551 0.65015 0.24881 0.0
C1993 C 0.27385 0.67357 0.28466 0.0
C1994 C 0.25961 0.6534 0.28836 0.0
C1995 C 0.23599 0.62127 0.27425 0.0
C1996 C 0.22627 0.60966 0.25641 0.0
C1997 C 0.25038 0.64153 0.27059 0.0
C1998 C 0.23117 0.6185 0.2348 0.0
C1999 C 0.24581 0.63847 0.23103 0.0
H2000 H 0.96176 0.54534 0.07129 0.0
H2001 H 0.91591 0.48401 0.06847 0.0
H2002 H 0.88367 0.50586 0.06337 0.0
H2003 H 0.8685 0.54254 0.05958 0.0
H2004 H 0.91453 0.60395 0.06029 0.0
H2005 H 0.9467 0.58207 0.0663 0.0
C2006 C 0.94468 0.53682 0.06963 0.0
C2007 C 0.94116 0.51312 0.07035 0.0
C2008 C 0.92629 0.54953 0.06629 0.0
C2009 C 0.91901 0.50225 0.06788 0.0
C2010 C 0.90059 0.51473 0.06503 0.0
C2011 C 0.88559 0.55107 0.06115 0.0
C2012 C 0.88917 0.57479 0.05963 0.0
C2013 C 0.90401 0.53838 0.0642 0.0
C2014 C 0.9114 0.5857 0.06134 0.0
C2015 C 0.92976 0.5732 0.06484 0.0
H2016 H 0.07941 0.97143 0.04564 0.0
H2017 H 0.11988 0.03627 0.04529 0.0
H2018 H 0.15388 0.01881 0.03892 0.0
H2019 H 0.17206 0.98505 0.03284 0.0
H2020 H 0.1312 0.92044 0.03193 0.0
H2021 H 0.09746 0.93781 0.03926 0.0
C2022 C 0.09574 0.98165 0.04443 0.0
C2023 C 0.09723 1.00497 0.04666 0.0
C2024 C 0.11514 0.97155 0.04037 0.0
C2025 C 0.11837 0.01818 0.0443 0.0
C2026 C 0.1378 0.00822 0.04052 0.0
C2027 C 0.15579 0.97478 0.03442 0.0
C2028 C 0.15416 0.95149 0.03182 0.0
C2029 C 0.1364 0.98491 0.03852 0.0
C2030 C 0.13289 0.93844 0.0336 0.0
C2031 C 0.1136 0.94834 0.03791 0.0
loop_
_geom_bond_atom_site_label_1
_geom_bond_atom_site_label_2
_geom_bond_distance
_geom_bond_site_symmetry_2
_ccdc_geom_bond_type
H0 C7 0.929 1_655 S
H1 C10 0.930 . S
H2 C12 0.929 . S
H3 C4 0.969 . S
C4 H3 0.969 . S
C4 O5 1.550 1_565 S
C4 H6 0.973 . S
O5 C4 1.550 1_545 S
O5 C11 1.412 . S
H6 C4 0.973 . S
C7 H0 0.929 1_455 S
C7 C8 1.400 . S
C7 C9 1.364 . S
C8 C7 1.400 . S
C8 C12 1.377 . S
C9 C7 1.364 . S
C9 C10 1.374 . S
C10 H1 0.930 . S
C10 C9 1.374 . S
C10 C11 1.383 . S
C11 O5 1.412 . S
C11 C10 1.383 . S
C11 C12 1.394 . S
C12 H2 0.929 . S
C12 C8 1.377 . S
C12 C11 1.394 . S
H13 C20 0.929 . S
H14 C23 0.930 . S
H15 C25 0.929 . S
H16 C17 0.969 . S
C17 H16 0.969 . S
C17 O18 1.550 . S
C17 H19 0.973 . S
O18 C17 1.550 . S
O18 C24 1.412 . S
H19 C17 0.973 . S
C20 H13 0.929 . S
C20 C21 1.400 . S
C20 C22 1.364 . S
C21 C20 1.400 . S
C21 C25 1.377 . S
C22 C20 1.364 . S
C22 C23 1.374 . S
C23 H14 0.930 . S
C23 C22 1.374 . S
C23 C24 1.383 . S
C24 O18 1.412 . S
C24 C23 1.383 . S
C24 C25 1.394 . S
C25 H15 0.929 . S
C25 C21 1.377 . S
C25 C24 1.394 . S
H26 C33 0.929 . S
H27 C36 0.930 . S
H28 C38 0.929 1_455 S
H29 C30 0.969 . S
C30 H29 0.969 . S
C30 O31 1.550 . S
C30 H32 0.973 . S
O31 C30 1.550 . S
O31 C37 1.412 . S
H32 C30 0.973 . S
C33 H26 0.929 . S
C33 C34 1.400 . S
C33 C35 1.364 . S
C34 C33 1.400 . S
C34 C38 1.377 . S
C35 C33 1.364 . S
C35 C36 1.374 . S
C36 H27 0.930 . S
C36 C35 1.374 . S
C36 C37 1.383 . S
C37 O31 1.412 . S
C37 C36 1.383 . S
C37 C38 1.394 . S
C38 H28 0.929 1_655 S
C38 C34 1.377 . S
C38 C37 1.394 . S
H39 C46 0.929 . S
H40 C49 0.930 . S
H41 C51 0.929 . S
H42 C43 0.969 . S
C43 H42 0.969 . S
C43 O44 1.550 . S
C43 H45 0.973 . S
O44 C43 1.550 . S
O44 C50 1.412 . S
H45 C43 0.973 . S
C46 H39 0.929 . S
C46 C47 1.400 . S
C46 C48 1.364 . S
C47 C46 1.400 . S
C47 C51 1.377 . S
C48 C46 1.364 . S
C48 C49 1.374 . S
C49 H40 0.930 . S
C49 C48 1.374 . S
C49 C50 1.383 . S
C50 O44 1.412 . S
C50 C49 1.383 . S
C50 C51 1.394 . S
C51 H41 0.929 . S
C51 C47 1.377 . S
C51 C50 1.394 . S
H52 C59 0.929 . S
H53 C62 0.930 . S
H54 C64 0.911 1_545 S
H55 C56 0.969 1_655 S
C56 H55 0.969 1_455 S
C56 O57 1.550 . S
C56 H58 0.973 . S
O57 C56 1.550 . S
O57 C63 1.412 . S
H58 C56 0.973 . S
C59 H52 0.929 . S
C59 C60 1.400 . S
C59 C61 1.364 . S
C60 C59 1.400 . S
C60 C64 1.383 . S
C61 C59 1.364 . S
C61 C62 1.374 . S
C62 H53 0.930 . S
C62 C61 1.374 . S
C62 C63 1.383 . S
C63 O57 1.412 . S
C63 C62 1.383 . S
C63 C64 1.406 . S
C64 H54 0.911 1_565 S
C64 C60 1.383 . S
C64 C63 1.406 . S
H65 C72 0.929 . S
H66 C75 0.930 . S
H67 C77 0.929 . S
H68 C69 0.969 . S
C69 H68 0.969 . S
C69 O70 1.550 . S
C69 H71 0.973 . S
O70 C69 1.550 . S
O70 C76 1.412 . S
H71 C69 0.973 . S
C72 H65 0.929 . S
C72 C73 1.400 . S
C72 C74 1.364 . S
C73 C72 1.400 . S
C73 C77 1.377 . S
C74 C72 1.364 . S
C74 C75 1.374 . S
C75 H66 0.930 . S
C75 C74 1.374 . S
C75 C76 1.383 . S
C76 O70 1.412 . S
C76 C75 1.383 . S
C76 C77 1.394 . S
C77 H67 0.929 . S
C77 C73 1.377 . S
C77 C76 1.394 . S
H78 C85 0.929 . S
H79 C88 0.930 . S
H80 C90 0.929 . S
H81 C82 0.969 . S
C82 H81 0.969 . S
C82 O83 1.550 . S
C82 H84 0.973 . S
O83 C82 1.550 . S
O83 C89 1.412 1_455 S
H84 C82 0.973 . S
C85 H78 0.929 . S
C85 C86 1.400 . S
C85 C87 1.364 . S
C86 C85 1.400 . S
C86 C90 1.377 1_655 S
C87 C85 1.364 . S
C87 C88 1.374 . S
C88 H79 0.930 . S
C88 C87 1.374 . S
C88 C89 1.383 . S
C89 O83 1.412 1_655 S
C89 C88 1.383 . S
C89 C90 1.394 1_655 S
C90 H80 0.929 . S
C90 C86 1.377 1_455 S
C90 C89 1.394 1_455 S
H91 C98 0.929 . S
H92 C101 0.930 . S
H93 C103 0.929 . S
H94 C95 0.969 . S
C95 H94 0.969 . S
C95 O96 1.550 . S
C95 H97 0.973 . S
O96 C95 1.550 . S
O96 C102 1.412 . S
H97 C95 0.973 . S
C98 H91 0.929 . S
C98 C99 1.400 . S
C98 C100 1.364 . S
C99 C98 1.400 . S
C99 C103 1.377 . S
C100 C98 1.364 . S
C100 C101 1.374 . S
C101 H92 0.930 . S
C101 C100 1.374 . S
C101 C102 1.383 . S
C102 O96 1.412 . S
C102 C101 1.383 . S
C102 C103 1.394 . S
C103 H93 0.929 . S
C103 C99 1.377 . S
C103 C102 1.394 . S
H104 C111 0.929 . S
H105 C114 0.930 . S
H106 C116 0.929 . S
H107 C108 0.969 . S
C108 H107 0.969 . S
C108 O109 1.550 . S
C108 H110 0.973 . S
O109 C108 1.550 . S
O109 C115 1.412 . S
H110 C108 0.973 . S
C111 H104 0.929 . S
C111 C112 1.400 . S
C111 C113 1.364 . S
C112 C111 1.400 . S
C112 C116 1.377 . S
C113 C111 1.364 . S
C113 C114 1.374 . S
C114 H105 0.930 . S
C114 C113 1.374 . S
C114 C115 1.383 . S
C115 O109 1.412 . S
C115 C114 1.383 . S
C115 C116 1.394 . S
C116 H106 0.929 . S
C116 C112 1.377 . S
C116 C115 1.394 . S
H117 C124 0.929 . S
H118 C127 0.930 . S
H119 C129 0.929 . S
H120 C121 0.969 . S
C121 H120 0.969 . S
C121 O122 1.550 . S
C121 H123 0.973 . S
O122 C121 1.550 . S
O122 C128 1.412 . S
H123 C121 0.973 . S
C124 H117 0.929 . S
C124 C125 1.400 . S
C124 C126 1.364 . S
C125 C124 1.400 . S
C125 C129 1.377 . S
C126 C124 1.364 . S
C126 C127 1.374 . S
C127 H118 0.930 . S
C127 C126 1.374 . S
C127 C128 1.383 . S
C128 O122 1.412 . S
C128 C127 1.383 . S
C128 C129 1.394 . S
C129 H119 0.929 . S
C129 C125 1.377 . S
C129 C128 1.394 . S
H130 C137 0.929 . S
H131 C140 0.930 . S
H132 C142 0.929 . S
H133 C134 0.969 . S
C134 H133 0.969 . S
C134 O135 1.550 . S
C134 H136 0.973 . S
O135 C134 1.550 . S
O135 C141 1.412 . S
H136 C134 0.973 . S
C137 H130 0.929 . S
C137 C138 1.400 . S
C137 C139 1.364 . S
C138 C137 1.400 . S
C138 C142 1.377 . S
C139 C137 1.364 . S
C139 C140 1.374 . S
C140 H131 0.930 . S
C140 C139 1.374 . S
C140 C141 1.383 . S
C141 O135 1.412 . S
C141 C140 1.383 . S
C141 C142 1.394 . S
C142 H132 0.929 . S
C142 C138 1.377 . S
C142 C141 1.394 . S
H143 C150 0.929 . S
H144 C153 0.930 . S
H145 C155 0.929 . S
H146 C147 0.969 . S
C147 H146 0.969 . S
C147 O148 1.550 . S
C147 H149 0.973 . S
O148 C147 1.550 . S
O148 C154 1.412 . S
H149 C147 0.973 . S
C150 H143 0.929 . S
C150 C151 1.400 . S
C150 C152 1.364 . S
C151 C150 1.400 . S
C151 C155 1.377 . S
C152 C150 1.364 . S
C152 C153 1.374 . S
C153 H144 0.930 . S
C153 C152 1.374 . S
C153 C154 1.383 . S
C154 O148 1.412 . S
C154 C153 1.383 . S
C154 C155 1.394 . S
C155 H145 0.929 . S
C155 C151 1.377 . S
C155 C154 1.394 . S
H156 C163 0.929 . S
H157 C166 0.930 . S
H158 C168 0.929 . S
H159 C160 0.969 . S
C160 H159 0.969 . S
C160 O161 1.550 . S
C160 H162 0.973 . S
O161 C160 1.550 . S
O161 C167 1.412 . S
H162 C160 0.973 . S
C163 H156 0.929 . S
C163 C164 1.400 . S
C163 C165 1.364 . S
C164 C163 1.400 . S
C164 C168 1.377 . S
C165 C163 1.364 . S
C165 C166 1.374 . S
C166 H157 0.930 . S
C166 C165 1.374 . S
C166 C167 1.383 . S
C167 O161 1.412 . S
C167 C166 1.383 . S
C167 C168 1.394 . S
C168 H158 0.929 . S
C168 C164 1.377 . S
C168 C167 1.394 . S
H169 C176 0.959 . S
H170 C179 0.930 . S
H171 C181 0.929 . S
H172 C173 0.969 . S
C173 H172 0.969 . S
C173 O174 1.550 . S
C173 H175 0.973 . S
O174 C173 1.550 . S
O174 C180 1.412 . S
H175 C173 0.973 . S
C176 H169 0.959 . S
C176 C177 1.381 1_554 S
C176 C178 1.353 1_554 S
C177 C176 1.381 1_556 S
C177 C181 1.377 . S
C178 C176 1.353 1_556 S
C178 C179 1.374 . S
C179 H170 0.930 . S
C179 C178 1.374 . S
C179 C180 1.383 . S
C180 O174 1.412 . S
C180 C179 1.383 . S
C180 C181 1.394 . S
C181 H171 0.929 . S
C181 C177 1.377 . S
C181 C180 1.394 . S
H182 C189 0.929 . S
H183 C192 0.930 . S
H184 C194 0.929 . S
H185 C186 0.969 . S
C186 H185 0.969 . S
C186 O187 1.550 . S
C186 H188 0.973 . S
O187 C186 1.550 . S
O187 C193 1.412 . S
H188 C186 0.973 . S
C189 H182 0.929 . S
C189 C190 1.400 . S
C189 C191 1.364 . S
C190 C189 1.400 . S
C190 C194 1.377 . S
C191 C189 1.364 . S
C191 C192 1.374 . S
C192 H183 0.930 . S
C192 C191 1.374 . S
C192 C193 1.383 . S
C193 O187 1.412 . S
C193 C192 1.383 . S
C193 C194 1.394 . S
C194 H184 0.929 . S
C194 C190 1.377 . S
C194 C193 1.394 . S
H195 C202 0.929 . S
H196 C205 0.930 . S
H197 C207 0.929 . S
H198 C199 0.969 . S
C199 H198 0.969 . S
C199 O200 1.550 . S
C199 H201 0.973 . S
O200 C199 1.550 . S
O200 C206 1.412 . S
H201 C199 0.973 . S
C202 H195 0.929 . S
C202 C203 1.400 . S
C202 C204 1.364 . S
C203 C202 1.400 . S
C203 C207 1.377 . S
C204 C202 1.364 . S
C204 C205 1.374 1_554 S
C205 H196 0.930 . S
C205 C204 1.374 1_556 S
C205 C206 1.383 . S
C206 O200 1.412 . S
C206 C205 1.383 . S
C206 C207 1.394 1_556 S
C207 H197 0.929 . S
C207 C203 1.377 . S
C207 C206 1.394 1_554 S
Li208 N225 1.990 . S
Li208 O268 1.956 . S
Li208 O269 1.970 1_556 S
Li208 O270 1.961 . S
Li209 N233 1.990 . S
Li209 O268 1.970 1_554 S
Li209 O269 1.956 . S
Li209 O271 1.961 . S
Li210 N255 1.990 . S
Li210 O268 1.961 . S
Li210 O270 1.956 . S
Li210 O271 1.970 1_556 S
Li211 N261 1.990 . S
Li211 O269 1.961 . S
Li211 O270 1.970 1_554 S
Li211 O271 1.956 . S
C212 C214 1.348 1_556 S
C212 C215 1.356 . S
C212 O268 1.325 . S
N213 C216 1.314 1_556 S
N213 C217 1.279 . S
C214 C212 1.348 1_554 S
C214 C216 1.353 . S
C214 H272 0.929 . S
C215 C212 1.356 . S
C215 C217 1.358 . S
C215 H273 0.930 . S
C216 N213 1.314 1_554 S
C216 C214 1.353 . S
C216 H274 0.930 . S
C217 N213 1.279 . S
C217 C215 1.358 . S
C217 H275 0.930 . S
C218 C221 1.348 . S
C218 C222 1.356 . S
C218 O269 1.325 . S
C219 N220 1.279 . S
C219 C222 1.358 . S
C219 H276 0.930 . S
N220 C219 1.279 . S
N220 C223 1.314 . S
C221 C218 1.348 . S
C221 C223 1.353 . S
C221 H277 0.929 . S
C222 C218 1.356 . S
C222 C219 1.358 . S
C222 H278 0.930 . S
C223 N220 1.314 . S
C223 C221 1.353 . S
C223 H279 0.930 . S
C224 N225 1.314 . S
C224 C229 1.353 . S
C224 H230 0.930 . S
N225 Li208 1.990 . S
N225 C224 1.314 . S
N225 C227 1.279 . S
C226 C227 1.358 . S
C226 C228 1.356 . S
C226 H280 0.930 . S
C227 N225 1.279 . S
C227 C226 1.358 . S
C227 H231 0.930 1_556 S
C228 C226 1.356 . S
C228 C229 1.348 . S
C229 C224 1.353 . S
C229 C228 1.348 . S
C229 H281 0.929 . S
H230 C224 0.930 . S
H231 C227 0.930 1_554 S
C232 N233 1.314 . S
C232 C234 1.353 . S
C232 H238 0.930 . S
N233 Li209 1.990 . S
N233 C232 1.314 . S
N233 C236 1.279 . S
C234 C232 1.353 . S
C234 C237 1.348 . S
C234 H282 0.929 . S
C235 C236 1.358 . S
C235 C237 1.356 . S
C235 H283 0.930 . S
C236 N233 1.279 . S
C236 C235 1.358 . S
C236 H239 0.930 . S
C237 C234 1.348 . S
C237 C235 1.356 . S
H238 C232 0.930 . S
H239 C236 0.930 . S
C240 C242 1.348 . S
C240 C243 1.356 . S
C240 O270 1.325 . S
N241 C244 1.314 . S
N241 C245 1.279 . S
C242 C240 1.348 . S
C242 C244 1.353 . S
C242 H284 0.929 . S
C243 C240 1.356 . S
C243 C245 1.358 . S
C243 H285 0.930 . S
C244 N241 1.314 . S
C244 C242 1.353 . S
C244 H286 0.930 . S
C245 N241 1.279 . S
C245 C243 1.358 . S
C245 H287 0.930 . S
C246 C247 1.348 1_554 S
C246 C248 1.356 . S
C246 O271 1.325 . S
C247 C246 1.348 1_556 S
C247 C249 1.353 . S
C247 H288 0.929 . S
C248 C246 1.356 . S
C248 C250 1.358 . S
C248 H289 0.930 . S
C249 C247 1.353 . S
C249 N251 1.314 1_556 S
C249 H290 0.930 . S
C250 C248 1.358 . S
C250 N251 1.279 . S
C250 H291 0.930 . S
N251 C249 1.314 1_554 S
N251 C250 1.279 . S
C252 C254 1.353 . S
C252 N255 1.314 . S
C252 H258 0.930 . S
C253 N255 1.279 . S
C253 C256 1.358 . S
C253 H259 0.930 . S
C254 C252 1.353 . S
C254 C257 1.348 . S
C254 H292 0.929 . S
N255 Li210 1.990 . S
N255 C252 1.314 . S
N255 C253 1.279 . S
C256 C253 1.358 . S
C256 C257 1.356 . S
C256 H293 0.930 . S
C257 C254 1.348 . S
C257 C256 1.356 . S
H258 C252 0.930 . S
H259 C253 0.930 . S
C260 N261 1.314 . S
C260 C262 1.353 . S
C260 H266 0.930 . S
N261 Li211 1.990 . S
N261 C260 1.314 . S
N261 C264 1.279 . S
C262 C260 1.353 . S
C262 C265 1.348 . S
C262 H294 0.929 . S
C263 C264 1.358 . S
C263 C265 1.356 . S
C263 H295 0.937 . S
C264 N261 1.279 . S
C264 C263 1.358 . S
C264 H267 0.919 1_554 S
C265 C262 1.348 . S
C265 C263 1.356 . S
H266 C260 0.930 . S
H267 C264 0.919 1_556 S
O268 Li208 1.956 . S
O268 Li209 1.970 1_556 S
O268 Li210 1.961 . S
O268 C212 1.325 . S
O269 Li208 1.970 1_554 S
O269 Li209 1.956 . S
O269 Li211 1.961 . S
O269 C218 1.325 . S
O270 Li208 1.961 . S
O270 Li210 1.956 . S
O270 Li211 1.970 1_556 S
O270 C240 1.325 . S
O271 Li209 1.961 . S
O271 Li210 1.970 1_554 S
O271 Li211 1.956 . S
O271 C246 1.325 . S
H272 C214 0.929 . S
H273 C215 0.930 . S
H274 C216 0.930 . S
H275 C217 0.930 . S
H276 C219 0.930 . S
H277 C221 0.929 . S
H278 C222 0.930 . S
H279 C223 0.930 . S
H280 C226 0.930 . S
H281 C229 0.929 . S
H282 C234 0.929 . S
H283 C235 0.930 . S
H284 C242 0.929 . S
H285 C243 0.930 . S
H286 C244 0.930 . S
H287 C245 0.930 . S
H288 C247 0.929 . S
H289 C248 0.930 . S
H290 C249 0.930 . S
H291 C250 0.930 . S
H292 C254 0.929 . S
H293 C256 0.930 . S
H294 C262 0.929 . S
H295 C263 0.937 . S
Li296 N313 1.990 . S
Li296 O356 1.956 . S
Li296 O357 1.970 . S
Li296 O358 1.961 . S
Li297 N321 1.990 . S
Li297 O356 1.970 . S
Li297 O357 1.956 . S
Li297 O359 1.961 . S
Li298 N343 1.990 . S
Li298 O356 1.961 . S
Li298 O358 1.956 . S
Li298 O359 1.970 . S
Li299 N349 1.990 . S
Li299 O357 1.961 . S
Li299 O358 1.970 . S
Li299 O359 1.956 . S
C300 C302 1.348 . S
C300 C303 1.356 . S
C300 O356 1.325 . S
N301 C304 1.314 . S
N301 C305 1.279 . S
C302 C300 1.348 . S
C302 C304 1.353 . S
C302 H360 0.929 . S
C303 C300 1.356 . S
C303 C305 1.358 . S
C303 H361 0.930 . S
C304 N301 1.314 . S
C304 C302 1.353 . S
C304 H362 0.930 . S
C305 N301 1.279 . S
C305 C303 1.358 . S
C305 H363 0.930 . S
C306 C309 1.348 . S
C306 C310 1.356 . S
C306 O357 1.325 . S
C307 N308 1.279 . S
C307 C310 1.358 . S
C307 H364 0.930 . S
N308 C307 1.279 . S
N308 C311 1.314 . S
C309 C306 1.348 . S
C309 C311 1.353 . S
C309 H365 0.929 . S
C310 C306 1.356 . S
C310 C307 1.358 . S
C310 H366 0.930 . S
C311 N308 1.314 . S
C311 C309 1.353 . S
C311 H367 0.930 . S
C312 N313 1.314 . S
C312 C317 1.353 . S
C312 H318 0.930 . S
N313 Li296 1.990 . S
N313 C312 1.314 . S
N313 C315 1.279 . S
C314 C315 1.358 . S
C314 C316 1.356 . S
C314 H368 0.930 . S
C315 N313 1.279 . S
C315 C314 1.358 . S
C315 H319 0.930 . S
C316 C314 1.356 . S
C316 C317 1.348 . S
C317 C312 1.353 . S
C317 C316 1.348 . S
C317 H369 0.929 . S
H318 C312 0.930 . S
H319 C315 0.930 . S
C320 N321 1.314 . S
C320 C322 1.353 . S
C320 H326 0.930 . S
N321 Li297 1.990 . S
N321 C320 1.314 . S
N321 C324 1.279 . S
C322 C320 1.353 . S
C322 C325 1.348 . S
C322 H370 0.929 . S
C323 C324 1.358 . S
C323 C325 1.356 . S
C323 H371 0.930 . S
C324 N321 1.279 . S
C324 C323 1.358 . S
C324 H327 0.930 . S
C325 C322 1.348 . S
C325 C323 1.356 . S
H326 C320 0.930 . S
H327 C324 0.930 . S
C328 C330 1.348 . S
C328 C331 1.356 . S
C328 O358 1.325 . S
N329 C332 1.314 . S
N329 C333 1.279 . S
C330 C328 1.348 . S
C330 C332 1.353 . S
C330 H372 0.929 . S
C331 C328 1.356 . S
C331 C333 1.358 . S
C331 H373 0.930 . S
C332 N329 1.314 . S
C332 C330 1.353 . S
C332 H374 0.930 . S
C333 N329 1.279 . S
C333 C331 1.358 . S
C333 H375 0.930 . S
C334 C335 1.348 . S
C334 C336 1.356 . S
C334 O359 1.325 . S
C335 C334 1.348 . S
C335 C337 1.353 . S
C335 H376 0.929 . S
C336 C334 1.356 . S
C336 C338 1.358 . S
C336 H377 0.930 . S
C337 C335 1.353 . S
C337 N339 1.314 . S
C337 H378 0.930 . S
C338 C336 1.358 . S
C338 N339 1.279 . S
C338 H379 0.930 . S
N339 C337 1.314 . S
N339 C338 1.279 . S
C340 C342 1.353 . S
C340 N343 1.314 . S
C340 H346 0.930 . S
C341 N343 1.279 . S
C341 C344 1.358 . S
C341 H347 0.930 . S
C342 C340 1.353 . S
C342 C345 1.348 . S
C342 H380 0.929 . S
N343 Li298 1.990 . S
N343 C340 1.314 . S
N343 C341 1.279 . S
C344 C341 1.358 . S
C344 C345 1.356 . S
C344 H381 0.930 . S
C345 C342 1.348 . S
C345 C344 1.356 . S
H346 C340 0.930 . S
H347 C341 0.930 . S
C348 N349 1.314 . S
C348 C350 1.353 . S
C348 H354 0.930 . S
N349 Li299 1.990 . S
N349 C348 1.314 . S
N349 C352 1.279 . S
C350 C348 1.353 . S
C350 C353 1.348 . S
C350 H382 0.929 . S
C351 C352 1.358 . S
C351 C353 1.356 . S
C351 H383 0.930 . S
C352 N349 1.279 . S
C352 C351 1.358 . S
C352 H355 0.930 . S
C353 C350 1.348 . S
C353 C351 1.356 . S
H354 C348 0.930 . S
H355 C352 0.930 . S
O356 Li296 1.956 . S
O356 Li297 1.970 . S
O356 Li298 1.961 . S
O356 C300 1.325 . S
O357 Li296 1.970 . S
O357 Li297 1.956 . S
O357 Li299 1.961 . S
O357 C306 1.325 . S
O358 Li296 1.961 . S
O358 Li298 1.956 . S
O358 Li299 1.970 . S
O358 C328 1.325 . S
O359 Li297 1.961 . S
O359 Li298 1.970 . S
O359 Li299 1.956 . S
O359 C334 1.325 . S
H360 C302 0.929 . S
H361 C303 0.930 . S
H362 C304 0.930 . S
H363 C305 0.930 . S
H364 C307 0.930 . S
H365 C309 0.929 . S
H366 C310 0.930 . S
H367 C311 0.930 . S
H368 C314 0.930 . S
H369 C317 0.929 . S
H370 C322 0.929 . S
H371 C323 0.930 . S
H372 C330 0.929 . S
H373 C331 0.930 . S
H374 C332 0.930 . S
H375 C333 0.930 . S
H376 C335 0.929 . S
H377 C336 0.930 . S
H378 C337 0.930 . S
H379 C338 0.930 . S
H380 C342 0.929 . S
H381 C344 0.930 . S
H382 C350 0.929 . S
H383 C351 0.930 . S
Li384 N401 1.990 . S
Li384 O444 1.956 . S
Li384 O445 1.970 . S
Li384 O446 1.961 . S
Li385 N409 1.990 . S
Li385 O444 1.970 . S
Li385 O445 1.956 . S
Li385 O447 1.961 . S
Li386 N431 1.990 1_554 S
Li386 O444 1.961 . S
Li386 O446 1.956 . S
Li386 O447 1.970 . S
Li387 N437 1.990 . S
Li387 O445 1.961 . S
Li387 O446 1.970 . S
Li387 O447 1.956 . S
C388 C390 1.348 . S
C388 C391 1.356 . S
C388 O444 1.325 . S
N389 C392 1.314 . S
N389 C393 1.279 . S
C390 C388 1.348 . S
C390 C392 1.353 . S
C390 H448 0.929 . S
C391 C388 1.356 . S
C391 C393 1.358 . S
C391 H449 0.930 . S
C392 N389 1.314 . S
C392 C390 1.353 . S
C392 H450 0.930 . S
C393 N389 1.279 . S
C393 C391 1.358 . S
C393 H451 0.930 1_554 S
C394 C397 1.348 . S
C394 C398 1.356 . S
C394 O445 1.325 . S
C395 N396 1.279 . S
C395 C398 1.358 . S
C395 H452 0.930 . S
N396 C395 1.279 . S
N396 C399 1.314 . S
C397 C394 1.348 . S
C397 C399 1.353 . S
C397 H453 0.929 . S
C398 C394 1.356 . S
C398 C395 1.358 . S
C398 H454 0.930 . S
C399 N396 1.314 . S
C399 C397 1.353 . S
C399 H455 0.930 . S
C400 N401 1.314 . S
C400 C405 1.353 . S
C400 H406 0.930 . S
N401 Li384 1.990 . S
N401 C400 1.314 . S
N401 C403 1.279 . S
C402 C403 1.358 . S
C402 C404 1.356 . S
C402 H456 0.930 . S
C403 N401 1.279 . S
C403 C402 1.358 . S
C403 H407 0.930 . S
C404 C402 1.356 . S
C404 C405 1.348 . S
C405 C400 1.353 . S
C405 C404 1.348 . S
C405 H457 0.929 . S
H406 C400 0.930 . S
H407 C403 0.930 . S
C408 N409 1.314 . S
C408 C410 1.353 . S
C408 H414 0.930 . S
N409 Li385 1.990 . S
N409 C408 1.314 . S
N409 C412 1.279 . S
C410 C408 1.353 . S
C410 C413 1.348 . S
C410 H458 0.929 . S
C411 C412 1.358 . S
C411 C413 1.356 . S
C411 H459 0.930 . S
C412 N409 1.279 . S
C412 C411 1.358 . S
C412 H415 0.930 . S
C413 C410 1.348 . S
C413 C411 1.356 . S
H414 C408 0.930 . S
H415 C412 0.930 . S
C416 C418 1.344 1_554 S
C416 C419 1.356 1_554 S
C416 O446 1.325 . S
N417 C420 1.314 . S
N417 C421 1.279 . S
C418 C416 1.344 1_556 S
C418 C420 1.367 . S
C418 H460 0.920 1_556 S
C419 C416 1.356 1_556 S
C419 C421 1.358 . S
C419 H461 0.930 . S
C420 N417 1.314 . S
C420 C418 1.367 . S
C420 H462 0.930 . S
C421 N417 1.279 . S
C421 C419 1.358 . S
C421 H463 0.930 . S
C422 C423 1.348 . S
C422 C424 1.356 . S
C422 O447 1.325 . S
C423 C422 1.348 . S
C423 C425 1.353 . S
C423 H464 0.929 . S
C424 C422 1.356 . S
C424 C426 1.358 . S
C424 H465 0.930 . S
C425 C423 1.353 . S
C425 N427 1.314 . S
C425 H466 0.930 . S
C426 C424 1.358 . S
C426 N427 1.279 . S
C426 H467 0.930 . S
N427 C425 1.314 . S
N427 C426 1.279 . S
C428 C430 1.353 . S
C428 N431 1.314 . S
C428 H434 0.930 1_556 S
C429 N431 1.279 . S
C429 C432 1.358 . S
C429 H435 0.930 . S
C430 C428 1.353 . S
C430 C433 1.348 . S
C430 H468 0.929 . S
N431 Li386 1.990 1_556 S
N431 C428 1.314 . S
N431 C429 1.279 . S
C432 C429 1.358 . S
C432 C433 1.356 . S
C432 H469 0.930 . S
C433 C430 1.348 . S
C433 C432 1.356 . S
H434 C428 0.930 1_554 S
H435 C429 0.930 . S
C436 N437 1.314 . S
C436 C438 1.353 . S
C436 H442 0.930 . S
N437 Li387 1.990 . S
N437 C436 1.314 . S
N437 C440 1.279 . S
C438 C436 1.353 . S
C438 C441 1.348 . S
C438 H470 0.929 . S
C439 C440 1.358 . S
C439 C441 1.356 . S
C439 H471 0.930 . S
C440 N437 1.279 . S
C440 C439 1.358 . S
C440 H443 0.930 . S
C441 C438 1.348 . S
C441 C439 1.356 . S
H442 C436 0.930 . S
H443 C440 0.930 . S
O444 Li384 1.956 . S
O444 Li385 1.970 . S
O444 Li386 1.961 . S
O444 C388 1.325 . S
O445 Li384 1.970 . S
O445 Li385 1.956 . S
O445 Li387 1.961 . S
O445 C394 1.325 . S
O446 Li384 1.961 . S
O446 Li386 1.956 . S
O446 Li387 1.970 . S
O446 C416 1.325 . S
O447 Li385 1.961 . S
O447 Li386 1.970 . S
O447 Li387 1.956 . S
O447 C422 1.325 . S
H448 C390 0.929 . S
H449 C391 0.930 . S
H450 C392 0.930 . S
H451 C393 0.930 1_556 S
H452 C395 0.930 . S
H453 C397 0.929 . S
H454 C398 0.930 . S
H455 C399 0.930 . S
H456 C402 0.930 . S
H457 C405 0.929 . S
H458 C410 0.929 . S
H459 C411 0.930 . S
H460 C418 0.920 1_554 S
H461 C419 0.930 . S
H462 C420 0.930 . S
H463 C421 0.930 . S
H464 C423 0.929 . S
H465 C424 0.930 . S
H466 C425 0.930 . S
H467 C426 0.930 . S
H468 C430 0.929 . S
H469 C432 0.930 . S
H470 C438 0.929 . S
H471 C439 0.930 . S
Li472 N489 1.990 . S
Li472 O532 1.956 . S
Li472 O533 1.970 . S
Li472 O534 1.961 . S
Li473 N497 1.990 . S
Li473 O532 1.970 . S
Li473 O533 1.956 . S
Li473 O535 1.961 1_545 S
Li474 N519 1.990 . S
Li474 O532 1.961 . S
Li474 O534 1.956 . S
Li474 O535 1.970 1_545 S
Li475 N525 1.990 . S
Li475 O533 1.961 1_565 S
Li475 O534 1.970 1_565 S
Li475 O535 1.956 . S
C476 C478 1.348 . S
C476 C479 1.356 . S
C476 O532 1.325 . S
N477 C480 1.314 . S
N477 C481 1.279 . S
C478 C476 1.348 . S
C478 C480 1.353 . S
C478 H536 0.929 . S
C479 C476 1.356 . S
C479 C481 1.358 . S
C479 H537 0.930 . S
C480 N477 1.314 . S
C480 C478 1.353 . S
C480 H538 0.930 . S
C481 N477 1.279 . S
C481 C479 1.358 . S
C481 H539 0.930 . S
C482 C485 1.348 . S
C482 C486 1.356 1_545 S
C482 O533 1.325 . S
C483 N484 1.279 1_565 S
C483 C486 1.358 . S
C483 H540 0.930 . S
N484 C483 1.279 1_545 S
N484 C487 1.314 . S
C485 C482 1.348 . S
C485 C487 1.353 . S
C485 H541 0.929 . S
C486 C482 1.356 1_565 S
C486 C483 1.358 . S
C486 H542 0.930 . S
C487 N484 1.314 . S
C487 C485 1.353 . S
C487 H543 0.930 . S
C488 N489 1.314 . S
C488 C493 1.353 . S
C488 H494 0.930 . S
N489 Li472 1.990 . S
N489 C488 1.314 . S
N489 C491 1.279 . S
C490 C491 1.358 . S
C490 C492 1.356 . S
C490 H544 0.930 . S
C491 N489 1.279 . S
C491 C490 1.358 . S
C491 H495 0.930 . S
C492 C490 1.356 . S
C492 C493 1.348 . S
C493 C488 1.353 . S
C493 C492 1.348 . S
C493 H545 0.929 . S
H494 C488 0.930 . S
H495 C491 0.930 . S
C496 N497 1.314 . S
C496 C498 1.353 . S
C496 H502 0.930 . S
N497 Li473 1.990 . S
N497 C496 1.314 . S
N497 C500 1.279 . S
C498 C496 1.353 . S
C498 C501 1.348 . S
C498 H546 0.929 . S
C499 C500 1.358 . S
C499 C501 1.356 . S
C499 H547 0.930 . S
C500 N497 1.279 . S
C500 C499 1.358 . S
C500 H503 0.930 . S
C501 C498 1.348 . S
C501 C499 1.356 . S
H502 C496 0.930 . S
H503 C500 0.930 . S
C504 C506 1.348 . S
C504 C507 1.356 . S
C504 O534 1.325 . S
N505 C508 1.314 . S
N505 C509 1.279 . S
C506 C504 1.348 . S
C506 C508 1.353 . S
C506 H548 0.929 1_545 S
C507 C504 1.356 . S
C507 C509 1.358 . S
C507 H549 0.930 . S
C508 N505 1.314 . S
C508 C506 1.353 . S
C508 H550 0.930 1_545 S
C509 N505 1.279 . S
C509 C507 1.358 . S
C509 H551 0.930 . S
C510 C511 1.348 . S
C510 C512 1.356 . S
C510 O535 1.325 . S
C511 C510 1.348 . S
C511 C513 1.353 . S
C511 H552 0.929 . S
C512 C510 1.356 . S
C512 C514 1.358 . S
C512 H553 0.930 . S
C513 C511 1.353 . S
C513 N515 1.314 . S
C513 H554 0.930 . S
C514 C512 1.358 . S
C514 N515 1.279 . S
C514 H555 0.930 . S
N515 C513 1.314 . S
N515 C514 1.279 . S
C516 C518 1.353 . S
C516 N519 1.314 . S
C516 H522 0.930 . S
C517 N519 1.279 . S
C517 C520 1.358 . S
C517 H523 0.930 . S
C518 C516 1.353 . S
C518 C521 1.348 . S
C518 H556 0.929 . S
N519 Li474 1.990 . S
N519 C516 1.314 . S
N519 C517 1.279 . S
C520 C517 1.358 . S
C520 C521 1.356 . S
C520 H557 0.930 . S
C521 C518 1.348 . S
C521 C520 1.356 . S
H522 C516 0.930 . S
H523 C517 0.930 . S
C524 N525 1.314 . S
C524 C526 1.353 . S
C524 H530 0.930 . S
N525 Li475 1.990 . S
N525 C524 1.314 . S
N525 C528 1.279 . S
C526 C524 1.353 . S
C526 C529 1.348 . S
C526 H558 0.929 . S
C527 C528 1.358 . S
C527 C529 1.356 . S
C527 H559 0.930 . S
C528 N525 1.279 . S
C528 C527 1.358 . S
C528 H531 0.930 . S
C529 C526 1.348 . S
C529 C527 1.356 . S
H530 C524 0.930 . S
H531 C528 0.930 . S
O532 Li472 1.956 . S
O532 Li473 1.970 . S
O532 Li474 1.961 . S
O532 C476 1.325 . S
O533 Li472 1.970 . S
O533 Li473 1.956 . S
O533 Li475 1.961 1_545 S
O533 C482 1.325 . S
O534 Li472 1.961 . S
O534 Li474 1.956 . S
O534 Li475 1.970 1_545 S
O534 C504 1.325 . S
O535 Li473 1.961 1_565 S
O535 Li474 1.970 1_565 S
O535 Li475 1.956 . S
O535 C510 1.325 . S
H536 C478 0.929 . S
H537 C479 0.930 . S
H538 C480 0.930 . S
H539 C481 0.930 . S
H540 C483 0.930 . S
H541 C485 0.929 . S
H542 C486 0.930 . S
H543 C487 0.930 . S
H544 C490 0.930 . S
H545 C493 0.929 . S
H546 C498 0.929 . S
H547 C499 0.930 . S
H548 C506 0.929 1_565 S
H549 C507 0.930 . S
H550 C508 0.930 1_565 S
H551 C509 0.930 . S
H552 C511 0.929 . S
H553 C512 0.930 . S
H554 C513 0.930 . S
H555 C514 0.930 . S
H556 C518 0.929 . S
H557 C520 0.930 . S
H558 C526 0.929 . S
H559 C527 0.930 . S
Li560 N577 1.990 . S
Li560 O620 1.956 . S
Li560 O621 1.970 . S
Li560 O622 1.961 . S
Li561 N585 1.990 . S
Li561 O620 1.970 . S
Li561 O621 1.956 . S
Li561 O623 1.961 . S
Li562 N607 1.990 . S
Li562 O620 1.961 . S
Li562 O622 1.956 . S
Li562 O623 1.970 . S
Li563 N613 1.990 . S
Li563 O621 1.961 . S
Li563 O622 1.970 . S
Li563 O623 1.956 . S
C564 C566 1.348 . S
C564 C567 1.356 . S
C564 O620 1.325 . S
N565 C568 1.314 . S
N565 C569 1.279 . S
C566 C564 1.348 . S
C566 C568 1.353 . S
C566 H624 0.929 . S
C567 C564 1.356 . S
C567 C569 1.358 . S
C567 H625 0.930 . S
C568 N565 1.314 . S
C568 C566 1.353 . S
C568 H626 0.930 . S
C569 N565 1.279 . S
C569 C567 1.358 . S
C569 H627 0.930 . S
C570 C573 1.348 . S
C570 C574 1.356 . S
C570 O621 1.325 . S
C571 N572 1.279 . S
C571 C574 1.358 . S
C571 H628 0.930 . S
N572 C571 1.279 . S
N572 C575 1.314 . S
C573 C570 1.348 . S
C573 C575 1.353 . S
C573 H629 0.929 . S
C574 C570 1.356 . S
C574 C571 1.358 . S
C574 H630 0.930 . S
C575 N572 1.314 . S
C575 C573 1.353 . S
C575 H631 0.930 . S
C576 N577 1.314 . S
C576 C581 1.353 . S
C576 H582 0.930 . S
N577 Li560 1.990 . S
N577 C576 1.314 . S
N577 C579 1.279 . S
C578 C579 1.358 . S
C578 C580 1.356 . S
C578 H632 0.930 . S
C579 N577 1.279 . S
C579 C578 1.358 . S
C579 H583 0.930 . S
C580 C578 1.356 . S
C580 C581 1.348 . S
C581 C576 1.353 . S
C581 C580 1.348 . S
C581 H633 0.929 . S
H582 C576 0.930 . S
H583 C579 0.930 . S
C584 N585 1.314 . S
C584 C586 1.353 . S
C584 H590 0.930 . S
N585 Li561 1.990 . S
N585 C584 1.314 . S
N585 C588 1.279 . S
C586 C584 1.353 . S
C586 C589 1.348 . S
C586 H634 0.929 . S
C587 C588 1.358 . S
C587 C589 1.356 . S
C587 H635 0.930 . S
C588 N585 1.279 . S
C588 C587 1.358 . S
C588 H591 0.930 . S
C589 C586 1.348 . S
C589 C587 1.356 . S
H590 C584 0.930 . S
H591 C588 0.930 . S
C592 C594 1.348 . S
C592 C595 1.356 . S
C592 O622 1.325 . S
N593 C596 1.314 . S
N593 C597 1.279 . S
C594 C592 1.348 . S
C594 C596 1.353 . S
C594 H636 0.929 . S
C595 C592 1.356 . S
C595 C597 1.358 . S
C595 H637 0.930 . S
C596 N593 1.314 . S
C596 C594 1.353 . S
C596 H638 0.930 . S
C597 N593 1.279 . S
C597 C595 1.358 . S
C597 H639 0.930 . S
C598 C599 1.348 . S
C598 C600 1.356 . S
C598 O623 1.325 . S
C599 C598 1.348 . S
C599 C601 1.353 . S
C599 H640 0.929 . S
C600 C598 1.356 . S
C600 C602 1.358 . S
C600 H641 0.930 . S
C601 C599 1.353 . S
C601 N603 1.314 . S
C601 H642 0.930 . S
C602 C600 1.358 . S
C602 N603 1.279 . S
C602 H643 0.930 . S
N603 C601 1.314 . S
N603 C602 1.279 . S
C604 C606 1.353 . S
C604 N607 1.314 . S
C604 H610 0.930 . S
C605 N607 1.279 . S
C605 C608 1.358 . S
C605 H611 0.930 . S
C606 C604 1.353 . S
C606 C609 1.348 . S
C606 H644 0.929 . S
N607 Li562 1.990 . S
N607 C604 1.314 . S
N607 C605 1.279 . S
C608 C605 1.358 . S
C608 C609 1.356 . S
C608 H645 0.930 . S
C609 C606 1.348 . S
C609 C608 1.356 . S
H610 C604 0.930 . S
H611 C605 0.930 . S
C612 N613 1.314 . S
C612 C614 1.353 . S
C612 H618 0.930 . S
N613 Li563 1.990 . S
N613 C612 1.314 . S
N613 C616 1.279 . S
C614 C612 1.353 . S
C614 C617 1.348 . S
C614 H646 0.929 . S
C615 C616 1.358 . S
C615 C617 1.356 . S
C615 H647 0.930 . S
C616 N613 1.279 . S
C616 C615 1.358 . S
C616 H619 0.930 . S
C617 C614 1.348 . S
C617 C615 1.356 . S
H618 C612 0.930 . S
H619 C616 0.930 . S
O620 Li560 1.956 . S
O620 Li561 1.970 . S
O620 Li562 1.961 . S
O620 C564 1.325 . S
O621 Li560 1.970 . S
O621 Li561 1.956 . S
O621 Li563 1.961 . S
O621 C570 1.325 . S
O622 Li560 1.961 . S
O622 Li562 1.956 . S
O622 Li563 1.970 . S
O622 C592 1.325 . S
O623 Li561 1.961 . S
O623 Li562 1.970 . S
O623 Li563 1.956 . S
O623 C598 1.325 . S
H624 C566 0.929 . S
H625 C567 0.930 . S
H626 C568 0.930 . S
H627 C569 0.930 . S
H628 C571 0.930 . S
H629 C573 0.929 . S
H630 C574 0.930 . S
H631 C575 0.930 . S
H632 C578 0.930 . S
H633 C581 0.929 . S
H634 C586 0.929 . S
H635 C587 0.930 . S
H636 C594 0.929 . S
H637 C595 0.930 . S
H638 C596 0.930 . S
H639 C597 0.930 . S
H640 C599 0.929 . S
H641 C600 0.930 . S
H642 C601 0.930 . S
H643 C602 0.930 . S
H644 C606 0.929 . S
H645 C608 0.930 . S
H646 C614 0.929 . S
H647 C615 0.930 . S
Li648 N665 1.990 . S
Li648 O708 1.956 . S
Li648 O709 1.970 . S
Li648 O710 1.961 . S
Li649 N673 1.990 . S
Li649 O708 1.970 . S
Li649 O709 1.956 . S
Li649 O711 1.961 . S
Li650 N695 1.990 . S
Li650 O708 1.961 . S
Li650 O710 1.956 . S
Li650 O711 1.970 . S
Li651 N701 1.990 . S
Li651 O709 1.961 . S
Li651 O710 1.970 . S
Li651 O711 1.956 . S
C652 C654 1.348 . S
C652 C655 1.356 . S
C652 O708 1.325 . S
N653 C656 1.314 . S
N653 C657 1.279 . S
C654 C652 1.348 . S
C654 C656 1.353 . S
C654 H712 0.929 . S
C655 C652 1.356 . S
C655 C657 1.358 . S
C655 H713 0.930 . S
C656 N653 1.314 . S
C656 C654 1.353 . S
C656 H714 0.930 . S
C657 N653 1.279 . S
C657 C655 1.358 . S
C657 H715 0.930 . S
C658 C661 1.348 . S
C658 C662 1.356 . S
C658 O709 1.325 . S
C659 N660 1.279 . S
C659 C662 1.358 . S
C659 H716 0.930 . S
N660 C659 1.279 . S
N660 C663 1.314 . S
C661 C658 1.348 . S
C661 C663 1.353 . S
C661 H717 0.929 . S
C662 C658 1.356 . S
C662 C659 1.358 . S
C662 H718 0.930 . S
C663 N660 1.314 . S
C663 C661 1.353 . S
C663 H719 0.930 . S
C664 N665 1.314 . S
C664 C669 1.353 . S
C664 H670 0.930 . S
N665 Li648 1.990 . S
N665 C664 1.314 . S
N665 C667 1.279 . S
C666 C667 1.358 . S
C666 C668 1.356 . S
C666 H720 0.930 . S
C667 N665 1.279 . S
C667 C666 1.358 . S
C667 H671 0.930 . S
C668 C666 1.356 . S
C668 C669 1.348 . S
C669 C664 1.353 . S
C669 C668 1.348 . S
C669 H721 0.929 . S
H670 C664 0.930 . S
H671 C667 0.930 . S
C672 N673 1.314 . S
C672 C674 1.353 . S
C672 H678 0.930 . S
N673 Li649 1.990 . S
N673 C672 1.314 . S
N673 C676 1.279 . S
C674 C672 1.353 . S
C674 C677 1.348 . S
C674 H722 0.929 . S
C675 C676 1.358 . S
C675 C677 1.356 . S
C675 H723 0.930 . S
C676 N673 1.279 . S
C676 C675 1.358 . S
C676 H679 0.930 . S
C677 C674 1.348 . S
C677 C675 1.356 . S
H678 C672 0.930 . S
H679 C676 0.930 . S
C680 C682 1.348 . S
C680 C683 1.356 . S
C680 O710 1.325 . S
N681 C684 1.314 . S
N681 C685 1.279 . S
C682 C680 1.348 . S
C682 C684 1.353 . S
C682 H724 0.929 . S
C683 C680 1.356 . S
C683 C685 1.358 . S
C683 H725 0.930 . S
C684 N681 1.314 . S
C684 C682 1.353 . S
C684 H726 0.930 . S
C685 N681 1.279 . S
C685 C683 1.358 . S
C685 H727 0.930 . S
C686 C687 1.348 . S
C686 C688 1.356 . S
C686 O711 1.325 . S
C687 C686 1.348 . S
C687 C689 1.353 . S
C687 H728 0.929 . S
C688 C686 1.356 . S
C688 C690 1.358 . S
C688 H729 0.930 . S
C689 C687 1.353 . S
C689 N691 1.314 . S
C689 H730 0.930 . S
C690 C688 1.358 . S
C690 N691 1.279 . S
C690 H731 0.930 . S
N691 C689 1.314 . S
N691 C690 1.279 . S
C692 C694 1.353 . S
C692 N695 1.314 . S
C692 H698 0.930 . S
C693 N695 1.279 . S
C693 C696 1.358 . S
C693 H699 0.930 . S
C694 C692 1.353 . S
C694 C697 1.348 . S
C694 H732 0.929 . S
N695 Li650 1.990 . S
N695 C692 1.314 . S
N695 C693 1.279 . S
C696 C693 1.358 . S
C696 C697 1.356 . S
C696 H733 0.930 . S
C697 C694 1.348 . S
C697 C696 1.356 . S
H698 C692 0.930 . S
H699 C693 0.930 . S
C700 N701 1.314 . S
C700 C702 1.353 . S
C700 H706 0.930 . S
N701 Li651 1.990 . S
N701 C700 1.314 . S
N701 C704 1.279 . S
C702 C700 1.353 . S
C702 C705 1.348 . S
C702 H734 0.929 . S
C703 C704 1.358 . S
C703 C705 1.356 . S
C703 H735 0.930 . S
C704 N701 1.279 . S
C704 C703 1.358 . S
C704 H707 0.930 . S
C705 C702 1.348 . S
C705 C703 1.356 . S
H706 C700 0.930 . S
H707 C704 0.930 . S
O708 Li648 1.956 . S
O708 Li649 1.970 . S
O708 Li650 1.961 . S
O708 C652 1.325 . S
O709 Li648 1.970 . S
O709 Li649 1.956 . S
O709 Li651 1.961 . S
O709 C658 1.325 . S
O710 Li648 1.961 . S
O710 Li650 1.956 . S
O710 Li651 1.970 . S
O710 C680 1.325 . S
O711 Li649 1.961 . S
O711 Li650 1.970 . S
O711 Li651 1.956 . S
O711 C686 1.325 . S
H712 C654 0.929 . S
H713 C655 0.930 . S
H714 C656 0.930 . S
H715 C657 0.930 . S
H716 C659 0.930 . S
H717 C661 0.929 . S
H718 C662 0.930 . S
H719 C663 0.930 . S
H720 C666 0.930 . S
H721 C669 0.929 . S
H722 C674 0.929 . S
H723 C675 0.930 . S
H724 C682 0.929 . S
H725 C683 0.930 . S
H726 C684 0.930 . S
H727 C685 0.930 . S
H728 C687 0.929 . S
H729 C688 0.930 . S
H730 C689 0.930 . S
H731 C690 0.930 . S
H732 C694 0.929 . S
H733 C696 0.930 . S
H734 C702 0.929 . S
H735 C703 0.930 . S
Li736 N753 1.990 . S
Li736 O796 1.956 . S
Li736 O797 1.970 . S
Li736 O798 1.961 . S
Li737 N761 1.990 . S
Li737 O796 1.970 . S
Li737 O797 1.956 . S
Li737 O799 1.961 . S
Li738 N783 1.990 . S
Li738 O796 1.961 . S
Li738 O798 1.956 . S
Li738 O799 1.970 . S
Li739 N789 1.990 . S
Li739 O797 1.961 . S
Li739 O798 1.970 . S
Li739 O799 1.956 . S
C740 C742 1.348 . S
C740 C743 1.356 . S
C740 O796 1.325 . S
N741 C744 1.314 . S
N741 C745 1.279 . S
C742 C740 1.348 . S
C742 C744 1.353 . S
C742 H800 0.929 . S
C743 C740 1.356 . S
C743 C745 1.358 . S
C743 H801 0.930 . S
C744 N741 1.314 . S
C744 C742 1.353 . S
C744 H802 0.930 . S
C745 N741 1.279 . S
C745 C743 1.358 . S
C745 H803 0.930 . S
C746 C749 1.348 . S
C746 C750 1.356 . S
C746 O797 1.325 . S
C747 N748 1.279 . S
C747 C750 1.358 . S
C747 H804 0.930 . S
N748 C747 1.279 . S
N748 C751 1.314 . S
C749 C746 1.348 . S
C749 C751 1.353 . S
C749 H805 0.929 . S
C750 C746 1.356 . S
C750 C747 1.358 . S
C750 H806 0.930 . S
C751 N748 1.314 . S
C751 C749 1.353 . S
C751 H807 0.930 . S
C752 N753 1.314 . S
C752 C757 1.353 . S
C752 H758 0.930 . S
N753 Li736 1.990 . S
N753 C752 1.314 . S
N753 C755 1.279 . S
C754 C755 1.358 . S
C754 C756 1.356 . S
C754 H808 0.930 . S
C755 N753 1.279 . S
C755 C754 1.358 . S
C755 H759 0.930 . S
C756 C754 1.356 . S
C756 C757 1.348 . S
C757 C752 1.353 . S
C757 C756 1.348 . S
C757 H809 0.929 . S
H758 C752 0.930 . S
H759 C755 0.930 . S
C760 N761 1.314 . S
C760 C762 1.353 . S
C760 H766 0.930 . S
N761 Li737 1.990 . S
N761 C760 1.314 . S
N761 C764 1.279 . S
C762 C760 1.353 . S
C762 C765 1.348 . S
C762 H810 0.929 . S
C763 C764 1.358 . S
C763 C765 1.356 . S
C763 H811 0.930 . S
C764 N761 1.279 . S
C764 C763 1.358 . S
C764 H767 0.930 . S
C765 C762 1.348 . S
C765 C763 1.356 . S
H766 C760 0.930 . S
H767 C764 0.930 . S
C768 C770 1.348 . S
C768 C771 1.356 . S
C768 O798 1.325 . S
N769 C772 1.314 . S
N769 C773 1.279 . S
C770 C768 1.348 . S
C770 C772 1.353 . S
C770 H812 0.929 . S
C771 C768 1.356 . S
C771 C773 1.358 . S
C771 H813 0.930 . S
C772 N769 1.314 . S
C772 C770 1.353 . S
C772 H814 0.930 . S
C773 N769 1.279 . S
C773 C771 1.358 . S
C773 H815 0.930 . S
C774 C775 1.348 . S
C774 C776 1.356 . S
C774 O799 1.325 . S
C775 C774 1.348 . S
C775 C777 1.353 . S
C775 H816 0.929 . S
C776 C774 1.356 . S
C776 C778 1.358 . S
C776 H817 0.930 . S
C777 C775 1.353 . S
C777 N779 1.314 . S
C777 H818 0.930 . S
C778 C776 1.358 . S
C778 N779 1.279 . S
C778 H819 0.930 . S
N779 C777 1.314 . S
N779 C778 1.279 . S
C780 C782 1.353 . S
C780 N783 1.314 . S
C780 H786 0.930 . S
C781 N783 1.279 . S
C781 C784 1.358 . S
C781 H787 0.930 . S
C782 C780 1.353 . S
C782 C785 1.348 . S
C782 H820 0.929 . S
N783 Li738 1.990 . S
N783 C780 1.314 . S
N783 C781 1.279 . S
C784 C781 1.358 . S
C784 C785 1.356 . S
C784 H821 0.930 . S
C785 C782 1.348 . S
C785 C784 1.356 . S
H786 C780 0.930 . S
H787 C781 0.930 . S
C788 N789 1.314 . S
C788 C790 1.353 . S
C788 H794 0.930 . S
N789 Li739 1.990 . S
N789 C788 1.314 . S
N789 C792 1.279 . S
C790 C788 1.353 . S
C790 C793 1.348 . S
C790 H822 0.929 . S
C791 C792 1.358 . S
C791 C793 1.356 . S
C791 H823 0.930 . S
C792 N789 1.279 . S
C792 C791 1.358 . S
C792 H795 0.930 . S
C793 C790 1.348 . S
C793 C791 1.356 . S
H794 C788 0.930 . S
H795 C792 0.930 . S
O796 Li736 1.956 . S
O796 Li737 1.970 . S
O796 Li738 1.961 . S
O796 C740 1.325 . S
O797 Li736 1.970 . S
O797 Li737 1.956 . S
O797 Li739 1.961 . S
O797 C746 1.325 . S
O798 Li736 1.961 . S
O798 Li738 1.956 . S
O798 Li739 1.970 . S
O798 C768 1.325 . S
O799 Li737 1.961 . S
O799 Li738 1.970 . S
O799 Li739 1.956 . S
O799 C774 1.325 . S
H800 C742 0.929 . S
H801 C743 0.930 . S
H802 C744 0.930 . S
H803 C745 0.930 . S
H804 C747 0.930 . S
H805 C749 0.929 . S
H806 C750 0.930 . S
H807 C751 0.930 . S
H808 C754 0.930 . S
H809 C757 0.929 . S
H810 C762 0.929 . S
H811 C763 0.930 . S
H812 C770 0.929 . S
H813 C771 0.930 . S
H814 C772 0.930 . S
H815 C773 0.930 . S
H816 C775 0.929 . S
H817 C776 0.930 . S
H818 C777 0.930 . S
H819 C778 0.930 . S
H820 C782 0.929 . S
H821 C784 0.930 . S
H822 C790 0.929 . S
H823 C791 0.930 . S
Li824 N841 1.990 . S
Li824 O884 1.956 . S
Li824 O885 1.970 1_565 S
Li824 O886 1.961 . S
Li825 N849 1.990 . S
Li825 O884 1.970 1_545 S
Li825 O885 1.956 . S
Li825 O887 1.961 . S
Li826 N871 1.990 . S
Li826 O884 1.961 . S
Li826 O886 1.956 . S
Li826 O887 1.970 1_565 S
Li827 N877 1.990 . S
Li827 O885 1.961 . S
Li827 O886 1.970 1_545 S
Li827 O887 1.956 . S
C828 C830 1.348 . S
C828 C831 1.356 . S
C828 O884 1.325 . S
N829 C832 1.314 . S
N829 C833 1.279 . S
C830 C828 1.348 . S
C830 C832 1.353 . S
C830 H888 0.929 . S
C831 C828 1.356 . S
C831 C833 1.358 . S
C831 H889 0.930 . S
C832 N829 1.314 . S
C832 C830 1.353 . S
C832 H890 0.930 . S
C833 N829 1.279 . S
C833 C831 1.358 . S
C833 H891 0.930 . S
C834 C837 1.348 1_545 S
C834 C838 1.356 . S
C834 O885 1.325 . S
C835 N836 1.279 . S
C835 C838 1.358 . S
C835 H892 0.930 . S
N836 C835 1.279 . S
N836 C839 1.314 . S
C837 C834 1.348 1_565 S
C837 C839 1.353 1_565 S
C837 H893 0.929 . S
C838 C834 1.356 . S
C838 C835 1.358 . S
C838 H894 0.930 . S
C839 N836 1.314 . S
C839 C837 1.353 1_545 S
C839 H895 0.930 1_545 S
C840 N841 1.314 . S
C840 C845 1.353 . S
C840 H846 0.930 . S
N841 Li824 1.990 . S
N841 C840 1.314 . S
N841 C843 1.279 . S
C842 C843 1.358 . S
C842 C844 1.356 . S
C842 H896 0.930 . S
C843 N841 1.279 . S
C843 C842 1.358 . S
C843 H847 0.930 . S
C844 C842 1.356 . S
C844 C845 1.348 . S
C845 C840 1.353 . S
C845 C844 1.348 . S
C845 H897 0.929 . S
H846 C840 0.930 . S
H847 C843 0.930 . S
C848 N849 1.314 . S
C848 C850 1.353 . S
C848 H854 0.930 . S
N849 Li825 1.990 . S
N849 C848 1.314 . S
N849 C852 1.279 . S
C850 C848 1.353 . S
C850 C853 1.348 . S
C850 H898 0.929 . S
C851 C852 1.358 . S
C851 C853 1.356 . S
C851 H899 0.930 . S
C852 N849 1.279 . S
C852 C851 1.358 . S
C852 H855 0.930 . S
C853 C850 1.348 . S
C853 C851 1.356 . S
H854 C848 0.930 . S
H855 C852 0.930 . S
C856 C858 1.348 1_565 S
C856 C859 1.356 . S
C856 O886 1.325 . S
N857 C860 1.314 1_565 S
N857 C861 1.279 . S
C858 C856 1.348 1_545 S
C858 C860 1.353 . S
C858 H900 0.929 . S
C859 C856 1.356 . S
C859 C861 1.358 . S
C859 H901 0.930 . S
C860 N857 1.314 1_545 S
C860 C858 1.353 . S
C860 H902 0.930 . S
C861 N857 1.279 . S
C861 C859 1.358 . S
C861 H903 0.930 . S
C862 C863 1.348 . S
C862 C864 1.356 . S
C862 O887 1.325 . S
C863 C862 1.348 . S
C863 C865 1.353 . S
C863 H904 0.929 . S
C864 C862 1.356 . S
C864 C866 1.358 . S
C864 H905 0.930 . S
C865 C863 1.353 . S
C865 N867 1.314 . S
C865 H906 0.930 . S
C866 C864 1.358 . S
C866 N867 1.279 . S
C866 H907 0.930 . S
N867 C865 1.314 . S
N867 C866 1.279 . S
C868 C870 1.353 . S
C868 N871 1.314 . S
C868 H874 0.930 . S
C869 N871 1.279 . S
C869 C872 1.358 . S
C869 H875 0.930 . S
C870 C868 1.353 . S
C870 C873 1.348 . S
C870 H908 0.929 . S
N871 Li826 1.990 . S
N871 C868 1.314 . S
N871 C869 1.279 . S
C872 C869 1.358 . S
C872 C873 1.356 . S
C872 H909 0.930 . S
C873 C870 1.348 . S
C873 C872 1.356 . S
H874 C868 0.930 . S
H875 C869 0.930 . S
C876 N877 1.314 . S
C876 C878 1.353 . S
C876 H882 0.930 . S
N877 Li827 1.990 . S
N877 C876 1.314 . S
N877 C880 1.279 . S
C878 C876 1.353 . S
C878 C881 1.348 . S
C878 H910 0.929 . S
C879 C880 1.358 . S
C879 C881 1.356 . S
C879 H911 0.930 . S
C880 N877 1.279 . S
C880 C879 1.358 . S
C880 H883 0.930 . S
C881 C878 1.348 . S
C881 C879 1.356 . S
H882 C876 0.930 . S
H883 C880 0.930 . S
O884 Li824 1.956 . S
O884 Li825 1.970 1_565 S
O884 Li826 1.961 . S
O884 C828 1.325 . S
O885 Li824 1.970 1_545 S
O885 Li825 1.956 . S
O885 Li827 1.961 . S
O885 C834 1.325 . S
O886 Li824 1.961 . S
O886 Li826 1.956 . S
O886 Li827 1.970 1_565 S
O886 C856 1.325 . S
O887 Li825 1.961 . S
O887 Li826 1.970 1_545 S
O887 Li827 1.956 . S
O887 C862 1.325 . S
H888 C830 0.929 . S
H889 C831 0.930 . S
H890 C832 0.930 . S
H891 C833 0.930 . S
H892 C835 0.930 . S
H893 C837 0.929 . S
H894 C838 0.930 . S
H895 C839 0.930 1_565 S
H896 C842 0.930 . S
H897 C845 0.929 . S
H898 C850 0.929 . S
H899 C851 0.930 . S
H900 C858 0.929 . S
H901 C859 0.930 . S
H902 C860 0.930 . S
H903 C861 0.930 . S
H904 C863 0.929 . S
H905 C864 0.930 . S
H906 C865 0.930 . S
H907 C866 0.930 . S
H908 C870 0.929 . S
H909 C872 0.930 . S
H910 C878 0.929 . S
H911 C879 0.930 . S
Li912 N929 1.990 . S
Li912 O972 1.956 . S
Li912 O973 1.945 1_455 S
Li912 O974 1.987 . S
Li913 N937 1.990 . S
Li913 O972 1.970 1_655 S
Li913 O973 1.958 . S
Li913 O975 1.961 . S
Li914 N959 1.990 . S
Li914 O972 1.961 . S
Li914 O974 1.956 . S
Li914 O975 1.970 1_455 S
Li915 N965 1.990 . S
Li915 O973 1.979 . S
Li915 O974 1.934 1_655 S
Li915 O975 1.956 . S
C916 C918 1.348 . S
C916 C919 1.356 . S
C916 O972 1.325 . S
N917 C920 1.314 . S
N917 C921 1.279 . S
C918 C916 1.348 . S
C918 C920 1.353 . S
C918 H976 0.929 . S
C919 C916 1.356 . S
C919 C921 1.358 . S
C919 H977 0.930 . S
C920 N917 1.314 . S
C920 C918 1.353 . S
C920 H978 0.930 . S
C921 N917 1.279 . S
C921 C919 1.358 . S
C921 H979 0.930 . S
C922 C925 1.348 1_655 S
C922 C926 1.356 . S
C922 O973 1.330 . S
C923 N924 1.279 . S
C923 C926 1.358 . S
C923 H980 0.930 . S
N924 C923 1.279 . S
N924 C927 1.314 1_655 S
C925 C922 1.348 1_455 S
C925 C927 1.353 . S
C925 H981 0.929 . S
C926 C922 1.356 . S
C926 C923 1.358 . S
C926 H982 0.930 . S
C927 N924 1.314 1_455 S
C927 C925 1.353 . S
C927 H983 0.930 . S
C928 N929 1.314 . S
C928 C933 1.353 . S
C928 H934 0.930 . S
N929 Li912 1.990 . S
N929 C928 1.314 . S
N929 C931 1.279 . S
C930 C931 1.358 . S
C930 C932 1.356 . S
C930 H984 0.930 . S
C931 N929 1.279 . S
C931 C930 1.358 . S
C931 H935 0.930 . S
C932 C930 1.356 . S
C932 C933 1.348 . S
C933 C928 1.353 . S
C933 C932 1.348 . S
C933 H985 0.929 . S
H934 C928 0.930 . S
H935 C931 0.930 . S
C936 N937 1.314 . S
C936 C938 1.353 . S
C936 H942 0.930 . S
N937 Li913 1.990 . S
N937 C936 1.314 . S
N937 C940 1.278 1_655 S
C938 C936 1.353 . S
C938 C941 1.348 . S
C938 H986 0.929 . S
C939 C940 1.357 . S
C939 C941 1.354 1_455 S
C939 H987 0.930 . S
C940 N937 1.278 1_455 S
C940 C939 1.357 . S
C940 H943 0.936 . S
C941 C938 1.348 . S
C941 C939 1.354 1_655 S
H942 C936 0.930 . S
H943 C940 0.936 . S
C944 C946 1.348 1_455 S
C944 C947 1.356 . S
C944 O974 1.334 . S
N945 C948 1.314 1_455 S
N945 C949 1.279 . S
C946 C944 1.348 1_655 S
C946 C948 1.353 . S
C946 H988 0.929 . S
C947 C944 1.356 . S
C947 C949 1.358 . S
C947 H989 0.930 . S
C948 N945 1.314 1_655 S
C948 C946 1.353 . S
C948 H990 0.930 . S
C949 N945 1.279 . S
C949 C947 1.358 . S
C949 H991 0.930 . S
C950 C951 1.348 . S
C950 C952 1.356 . S
C950 O975 1.325 . S
C951 C950 1.348 . S
C951 C953 1.353 . S
C951 H992 0.929 . S
C952 C950 1.356 . S
C952 C954 1.358 . S
C952 H993 0.930 . S
C953 C951 1.353 . S
C953 N955 1.314 . S
C953 H994 0.930 . S
C954 C952 1.358 . S
C954 N955 1.279 . S
C954 H995 0.930 . S
N955 C953 1.314 . S
N955 C954 1.279 . S
C956 C958 1.353 . S
C956 N959 1.314 . S
C956 H962 0.930 . S
C957 N959 1.278 1_655 S
C957 C960 1.357 . S
C957 H963 0.933 . S
C958 C956 1.353 . S
C958 C961 1.348 . S
C958 H996 0.929 . S
N959 Li914 1.990 . S
N959 C956 1.314 . S
N959 C957 1.278 1_455 S
C960 C957 1.357 . S
C960 C961 1.355 1_655 S
C960 H997 0.930 . S
C961 C958 1.348 . S
C961 C960 1.355 1_455 S
H962 C956 0.930 . S
H963 C957 0.933 . S
C964 N965 1.314 . S
C964 C966 1.353 . S
C964 H970 0.930 . S
N965 Li915 1.990 . S
N965 C964 1.314 . S
N965 C968 1.279 . S
C966 C964 1.353 . S
C966 C969 1.348 . S
C966 H998 0.929 . S
C967 C968 1.358 . S
C967 C969 1.356 . S
C967 H999 0.930 . S
C968 N965 1.279 . S
C968 C967 1.358 . S
C968 H971 0.930 . S
C969 C966 1.348 . S
C969 C967 1.356 . S
H970 C964 0.930 . S
H971 C968 0.930 . S
O972 Li912 1.956 . S
O972 Li913 1.970 1_455 S
O972 Li914 1.961 . S
O972 C916 1.325 . S
O973 Li912 1.945 1_655 S
O973 Li913 1.958 . S
O973 Li915 1.979 . S
O973 C922 1.330 . S
O974 Li912 1.987 . S
O974 Li914 1.956 . S
O974 Li915 1.934 1_455 S
O974 C944 1.334 . S
O975 Li913 1.961 . S
O975 Li914 1.970 1_655 S
O975 Li915 1.956 . S
O975 C950 1.325 . S
H976 C918 0.929 . S
H977 C919 0.930 . S
H978 C920 0.930 . S
H979 C921 0.930 . S
H980 C923 0.930 . S
H981 C925 0.929 . S
H982 C926 0.930 . S
H983 C927 0.930 . S
H984 C930 0.930 . S
H985 C933 0.929 . S
H986 C938 0.929 . S
H987 C939 0.930 . S
H988 C946 0.929 . S
H989 C947 0.930 . S
H990 C948 0.930 . S
H991 C949 0.930 . S
H992 C951 0.929 . S
H993 C952 0.930 . S
H994 C953 0.930 . S
H995 C954 0.930 . S
H996 C958 0.929 . S
H997 C960 0.930 . S
H998 C966 0.929 . S
H999 C967 0.930 . S
Li1000 N1017 1.990 . S
Li1000 O1060 1.956 . S
Li1000 O1061 1.970 . S
Li1000 O1062 1.961 . S
Li1001 N1025 1.990 . S
Li1001 O1060 1.970 . S
Li1001 O1061 1.956 . S
Li1001 O1063 1.961 . S
Li1002 N1047 1.990 . S
Li1002 O1060 1.961 . S
Li1002 O1062 1.956 . S
Li1002 O1063 1.970 . S
Li1003 N1053 1.990 . S
Li1003 O1061 1.961 . S
Li1003 O1062 1.970 . S
Li1003 O1063 1.956 . S
C1004 C1006 1.348 . S
C1004 C1007 1.356 . S
C1004 O1060 1.325 . S
N1005 C1008 1.314 . S
N1005 C1009 1.279 . S
C1006 C1004 1.348 . S
C1006 C1008 1.353 . S
C1006 H1064 0.929 . S
C1007 C1004 1.356 . S
C1007 C1009 1.358 . S
C1007 H1065 0.930 . S
C1008 N1005 1.314 . S
C1008 C1006 1.353 . S
C1008 H1066 0.930 . S
C1009 N1005 1.279 . S
C1009 C1007 1.358 . S
C1009 H1067 0.930 . S
C1010 C1013 1.348 . S
C1010 C1014 1.356 . S
C1010 O1061 1.325 . S
C1011 N1012 1.279 . S
C1011 C1014 1.358 . S
C1011 H1068 0.930 . S
N1012 C1011 1.279 . S
N1012 C1015 1.314 . S
C1013 C1010 1.348 . S
C1013 C1015 1.353 . S
C1013 H1069 0.929 . S
C1014 C1010 1.356 . S
C1014 C1011 1.358 . S
C1014 H1070 0.930 . S
C1015 N1012 1.314 . S
C1015 C1013 1.353 . S
C1015 H1071 0.930 . S
C1016 N1017 1.314 . S
C1016 C1021 1.353 . S
C1016 H1022 0.930 . S
N1017 Li1000 1.990 . S
N1017 C1016 1.314 . S
N1017 C1019 1.279 . S
C1018 C1019 1.358 . S
C1018 C1020 1.356 . S
C1018 H1072 0.930 . S
C1019 N1017 1.279 . S
C1019 C1018 1.358 . S
C1019 H1023 0.930 . S
C1020 C1018 1.356 . S
C1020 C1021 1.348 . S
C1021 C1016 1.353 . S
C1021 C1020 1.348 . S
C1021 H1073 0.929 . S
H1022 C1016 0.930 . S
H1023 C1019 0.930 . S
C1024 N1025 1.314 . S
C1024 C1026 1.353 . S
C1024 H1030 0.930 . S
N1025 Li1001 1.990 . S
N1025 C1024 1.314 . S
N1025 C1028 1.279 . S
C1026 C1024 1.353 . S
C1026 C1029 1.348 . S
C1026 H1074 0.929 . S
C1027 C1028 1.358 . S
C1027 C1029 1.356 . S
C1027 H1075 0.930 . S
C1028 N1025 1.279 . S
C1028 C1027 1.358 . S
C1028 H1031 0.930 . S
C1029 C1026 1.348 . S
C1029 C1027 1.356 . S
H1030 C1024 0.930 . S
H1031 C1028 0.930 . S
C1032 C1034 1.348 . S
C1032 C1035 1.356 . S
C1032 O1062 1.325 . S
N1033 C1036 1.314 . S
N1033 C1037 1.279 . S
C1034 C1032 1.348 . S
C1034 C1036 1.353 . S
C1034 H1076 0.929 . S
C1035 C1032 1.356 . S
C1035 C1037 1.358 . S
C1035 H1077 0.930 . S
C1036 N1033 1.314 . S
C1036 C1034 1.353 . S
C1036 H1078 0.930 . S
C1037 N1033 1.279 . S
C1037 C1035 1.358 . S
C1037 H1079 0.930 . S
C1038 C1039 1.348 . S
C1038 C1040 1.356 . S
C1038 O1063 1.325 . S
C1039 C1038 1.348 . S
C1039 C1041 1.353 . S
C1039 H1080 0.929 . S
C1040 C1038 1.356 . S
C1040 C1042 1.358 . S
C1040 H1081 0.930 . S
C1041 C1039 1.353 . S
C1041 N1043 1.314 . S
C1041 H1082 0.930 . S
C1042 C1040 1.358 . S
C1042 N1043 1.279 . S
C1042 H1083 0.930 . S
N1043 C1041 1.314 . S
N1043 C1042 1.279 . S
C1044 C1046 1.353 . S
C1044 N1047 1.314 . S
C1044 H1050 0.930 . S
C1045 N1047 1.279 . S
C1045 C1048 1.358 . S
C1045 H1051 0.930 . S
C1046 C1044 1.353 . S
C1046 C1049 1.348 . S
C1046 H1084 0.929 . S
N1047 Li1002 1.990 . S
N1047 C1044 1.314 . S
N1047 C1045 1.279 . S
C1048 C1045 1.358 . S
C1048 C1049 1.356 . S
C1048 H1085 0.930 . S
C1049 C1046 1.348 . S
C1049 C1048 1.356 . S
H1050 C1044 0.930 . S
H1051 C1045 0.930 . S
C1052 N1053 1.314 . S
C1052 C1054 1.353 . S
C1052 H1058 0.930 . S
N1053 Li1003 1.990 . S
N1053 C1052 1.314 . S
N1053 C1056 1.279 . S
C1054 C1052 1.353 . S
C1054 C1057 1.348 . S
C1054 H1086 0.929 . S
C1055 C1056 1.358 . S
C1055 C1057 1.356 . S
C1055 H1087 0.930 . S
C1056 N1053 1.279 . S
C1056 C1055 1.358 . S
C1056 H1059 0.930 . S
C1057 C1054 1.348 . S
C1057 C1055 1.356 . S
H1058 C1052 0.930 . S
H1059 C1056 0.930 . S
O1060 Li1000 1.956 . S
O1060 Li1001 1.970 . S
O1060 Li1002 1.961 . S
O1060 C1004 1.325 . S
O1061 Li1000 1.970 . S
O1061 Li1001 1.956 . S
O1061 Li1003 1.961 . S
O1061 C1010 1.325 . S
O1062 Li1000 1.961 . S
O1062 Li1002 1.956 . S
O1062 Li1003 1.970 . S
O1062 C1032 1.325 . S
O1063 Li1001 1.961 . S
O1063 Li1002 1.970 . S
O1063 Li1003 1.956 . S
O1063 C1038 1.325 . S
H1064 C1006 0.929 . S
H1065 C1007 0.930 . S
H1066 C1008 0.930 . S
H1067 C1009 0.930 . S
H1068 C1011 0.930 . S
H1069 C1013 0.929 . S
H1070 C1014 0.930 . S
H1071 C1015 0.930 . S
H1072 C1018 0.930 . S
H1073 C1021 0.929 . S
H1074 C1026 0.929 . S
H1075 C1027 0.930 . S
H1076 C1034 0.929 . S
H1077 C1035 0.930 . S
H1078 C1036 0.930 . S
H1079 C1037 0.930 . S
H1080 C1039 0.929 . S
H1081 C1040 0.930 . S
H1082 C1041 0.930 . S
H1083 C1042 0.930 . S
H1084 C1046 0.929 . S
H1085 C1048 0.930 . S
H1086 C1054 0.929 . S
H1087 C1055 0.930 . S
Li1088 N1105 1.990 . S
Li1088 O1148 1.956 . S
Li1088 O1149 1.970 1_455 S
Li1088 O1150 1.961 . S
Li1089 N1113 1.990 . S
Li1089 O1148 1.970 1_655 S
Li1089 O1149 1.956 . S
Li1089 O1151 1.961 1_655 S
Li1090 N1135 1.990 . S
Li1090 O1148 1.961 . S
Li1090 O1150 1.956 . S
Li1090 O1151 1.970 . S
Li1091 N1141 1.990 . S
Li1091 O1149 1.961 1_455 S
Li1091 O1150 1.970 . S
Li1091 O1151 1.956 . S
C1092 C1094 1.348 . S
C1092 C1095 1.356 . S
C1092 O1148 1.325 . S
N1093 C1096 1.314 . S
N1093 C1097 1.279 . S
C1094 C1092 1.348 . S
C1094 C1096 1.353 . S
C1094 H1152 0.890 1_455 S
C1095 C1092 1.356 . S
C1095 C1097 1.358 . S
C1095 H1153 0.930 . S
C1096 N1093 1.314 . S
C1096 C1094 1.353 . S
C1096 H1154 0.930 . S
C1097 N1093 1.279 . S
C1097 C1095 1.358 . S
C1097 H1155 0.930 . S
C1098 C1101 1.348 . S
C1098 C1102 1.356 . S
C1098 O1149 1.325 . S
C1099 N1100 1.279 . S
C1099 C1102 1.358 . S
C1099 H1156 0.930 . S
N1100 C1099 1.279 . S
N1100 C1103 1.314 . S
C1101 C1098 1.348 . S
C1101 C1103 1.353 . S
C1101 H1157 0.929 . S
C1102 C1098 1.356 . S
C1102 C1099 1.358 . S
C1102 H1158 0.930 . S
C1103 N1100 1.314 . S
C1103 C1101 1.353 . S
C1103 H1159 0.930 . S
C1104 N1105 1.314 . S
C1104 C1109 1.353 . S
C1104 H1110 0.930 . S
N1105 Li1088 1.990 . S
N1105 C1104 1.314 . S
N1105 C1107 1.279 . S
C1106 C1107 1.358 . S
C1106 C1108 1.356 . S
C1106 H1160 0.930 . S
C1107 N1105 1.279 . S
C1107 C1106 1.358 . S
C1107 H1111 0.930 . S
C1108 C1106 1.356 . S
C1108 C1109 1.348 . S
C1109 C1104 1.353 . S
C1109 C1108 1.348 . S
C1109 H1161 0.929 . S
H1110 C1104 0.930 . S
H1111 C1107 0.930 . S
C1112 N1113 1.314 . S
C1112 C1114 1.353 . S
C1112 H1118 0.930 . S
N1113 Li1089 1.990 . S
N1113 C1112 1.314 . S
N1113 C1116 1.279 . S
C1114 C1112 1.353 . S
C1114 C1117 1.348 . S
C1114 H1162 0.929 . S
C1115 C1116 1.358 . S
C1115 C1117 1.356 . S
C1115 H1163 0.930 . S
C1116 N1113 1.279 . S
C1116 C1115 1.358 . S
C1116 H1119 0.930 . S
C1117 C1114 1.348 . S
C1117 C1115 1.356 . S
H1118 C1112 0.930 . S
H1119 C1116 0.930 . S
C1120 C1122 1.348 . S
C1120 C1123 1.356 . S
C1120 O1150 1.325 . S
N1121 C1124 1.314 . S
N1121 C1125 1.279 . S
C1122 C1120 1.348 . S
C1122 C1124 1.353 . S
C1122 H1164 0.929 . S
C1123 C1120 1.356 . S
C1123 C1125 1.358 . S
C1123 H1165 0.930 . S
C1124 N1121 1.314 . S
C1124 C1122 1.353 . S
C1124 H1166 0.930 . S
C1125 N1121 1.279 . S
C1125 C1123 1.358 . S
C1125 H1167 0.930 . S
C1126 C1127 1.348 . S
C1126 C1128 1.356 1_455 S
C1126 O1151 1.325 . S
C1127 C1126 1.348 . S
C1127 C1129 1.353 . S
C1127 H1168 0.929 . S
C1128 C1126 1.356 1_655 S
C1128 C1130 1.358 . S
C1128 H1169 0.930 . S
C1129 C1127 1.353 . S
C1129 N1131 1.314 . S
C1129 H1170 0.930 . S
C1130 C1128 1.358 . S
C1130 N1131 1.279 1_655 S
C1130 H1171 0.930 . S
N1131 C1129 1.314 . S
N1131 C1130 1.279 1_455 S
C1132 C1134 1.353 . S
C1132 N1135 1.314 . S
C1132 H1138 0.930 . S
C1133 N1135 1.279 . S
C1133 C1136 1.358 . S
C1133 H1139 0.930 . S
C1134 C1132 1.353 . S
C1134 C1137 1.348 . S
C1134 H1172 0.929 . S
N1135 Li1090 1.990 . S
N1135 C1132 1.314 . S
N1135 C1133 1.279 . S
C1136 C1133 1.358 . S
C1136 C1137 1.356 . S
C1136 H1173 0.930 . S
C1137 C1134 1.348 . S
C1137 C1136 1.356 . S
H1138 C1132 0.930 . S
H1139 C1133 0.930 . S
C1140 N1141 1.314 1_655 S
C1140 C1142 1.353 . S
C1140 H1146 0.930 . S
N1141 Li1091 1.990 . S
N1141 C1140 1.314 1_455 S
N1141 C1144 1.279 . S
C1142 C1140 1.353 . S
C1142 C1145 1.348 . S
C1142 H1174 0.929 . S
C1143 C1144 1.358 . S
C1143 C1145 1.356 1_455 S
C1143 H1175 0.930 . S
C1144 N1141 1.279 . S
C1144 C1143 1.358 . S
C1144 H1147 0.930 . S
C1145 C1142 1.348 . S
C1145 C1143 1.356 1_655 S
H1146 C1140 0.930 . S
H1147 C1144 0.930 . S
O1148 Li1088 1.956 . S
O1148 Li1089 1.970 1_455 S
O1148 Li1090 1.961 . S
O1148 C1092 1.325 . S
O1149 Li1088 1.970 1_655 S
O1149 Li1089 1.956 . S
O1149 Li1091 1.961 1_655 S
O1149 C1098 1.325 . S
O1150 Li1088 1.961 . S
O1150 Li1090 1.956 . S
O1150 Li1091 1.970 . S
O1150 C1120 1.325 . S
O1151 Li1089 1.961 1_455 S
O1151 Li1090 1.970 . S
O1151 Li1091 1.956 . S
O1151 C1126 1.325 . S
H1152 C1094 0.890 1_655 S
H1153 C1095 0.930 . S
H1154 C1096 0.930 . S
H1155 C1097 0.930 . S
H1156 C1099 0.930 . S
H1157 C1101 0.929 . S
H1158 C1102 0.930 . S
H1159 C1103 0.930 . S
H1160 C1106 0.930 . S
H1161 C1109 0.929 . S
H1162 C1114 0.929 . S
H1163 C1115 0.930 . S
H1164 C1122 0.929 . S
H1165 C1123 0.930 . S
H1166 C1124 0.930 . S
H1167 C1125 0.930 . S
H1168 C1127 0.929 . S
H1169 C1128 0.930 . S
H1170 C1129 0.930 . S
H1171 C1130 0.930 . S
H1172 C1134 0.929 . S
H1173 C1136 0.930 . S
H1174 C1142 0.929 . S
H1175 C1143 0.930 . S
Li1176 N1193 1.990 . S
Li1176 O1236 1.956 . S
Li1176 O1237 1.970 . S
Li1176 O1238 1.961 . S
Li1177 N1201 1.990 . S
Li1177 O1236 1.970 . S
Li1177 O1237 1.956 . S
Li1177 O1239 1.961 . S
Li1178 N1223 1.990 . S
Li1178 O1236 1.961 . S
Li1178 O1238 1.956 . S
Li1178 O1239 1.970 . S
Li1179 N1229 1.990 . S
Li1179 O1237 1.961 . S
Li1179 O1238 1.970 . S
Li1179 O1239 1.956 . S
C1180 C1182 1.348 . S
C1180 C1183 1.356 . S
C1180 O1236 1.325 . S
N1181 C1184 1.314 . S
N1181 C1185 1.279 . S
C1182 C1180 1.348 . S
C1182 C1184 1.353 . S
C1182 H1240 0.929 . S
C1183 C1180 1.356 . S
C1183 C1185 1.358 . S
C1183 H1241 0.930 . S
C1184 N1181 1.314 . S
C1184 C1182 1.353 . S
C1184 H1242 0.930 . S
C1185 N1181 1.279 . S
C1185 C1183 1.358 . S
C1185 H1243 0.930 . S
C1186 C1189 1.348 . S
C1186 C1190 1.356 . S
C1186 O1237 1.325 . S
C1187 N1188 1.279 . S
C1187 C1190 1.358 . S
C1187 H1244 0.930 . S
N1188 C1187 1.279 . S
N1188 C1191 1.314 . S
C1189 C1186 1.348 . S
C1189 C1191 1.353 . S
C1189 H1245 0.929 . S
C1190 C1186 1.356 . S
C1190 C1187 1.358 . S
C1190 H1246 0.930 . S
C1191 N1188 1.314 . S
C1191 C1189 1.353 . S
C1191 H1247 0.930 . S
C1192 N1193 1.314 . S
C1192 C1197 1.353 . S
C1192 H1198 0.930 . S
N1193 Li1176 1.990 . S
N1193 C1192 1.314 . S
N1193 C1195 1.279 . S
C1194 C1195 1.358 . S
C1194 C1196 1.356 . S
C1194 H1248 0.930 . S
C1195 N1193 1.279 . S
C1195 C1194 1.358 . S
C1195 H1199 0.930 . S
C1196 C1194 1.356 . S
C1196 C1197 1.348 . S
C1197 C1192 1.353 . S
C1197 C1196 1.348 . S
C1197 H1249 0.929 . S
H1198 C1192 0.930 . S
H1199 C1195 0.930 . S
C1200 N1201 1.314 . S
C1200 C1202 1.353 . S
C1200 H1206 0.930 . S
N1201 Li1177 1.990 . S
N1201 C1200 1.314 . S
N1201 C1204 1.279 . S
C1202 C1200 1.353 . S
C1202 C1205 1.348 . S
C1202 H1250 0.929 . S
C1203 C1204 1.358 . S
C1203 C1205 1.356 . S
C1203 H1251 0.930 . S
C1204 N1201 1.279 . S
C1204 C1203 1.358 . S
C1204 H1207 0.930 . S
C1205 C1202 1.348 . S
C1205 C1203 1.356 . S
H1206 C1200 0.930 . S
H1207 C1204 0.930 . S
C1208 C1210 1.348 . S
C1208 C1211 1.356 . S
C1208 O1238 1.325 . S
N1209 C1212 1.314 . S
N1209 C1213 1.279 . S
C1210 C1208 1.348 . S
C1210 C1212 1.353 . S
C1210 H1252 0.929 . S
C1211 C1208 1.356 . S
C1211 C1213 1.358 . S
C1211 H1253 0.930 . S
C1212 N1209 1.314 . S
C1212 C1210 1.353 . S
C1212 H1254 0.930 . S
C1213 N1209 1.279 . S
C1213 C1211 1.358 . S
C1213 H1255 0.930 . S
C1214 C1215 1.348 . S
C1214 C1216 1.356 . S
C1214 O1239 1.325 . S
C1215 C1214 1.348 . S
C1215 C1217 1.353 . S
C1215 H1256 0.929 . S
C1216 C1214 1.356 . S
C1216 C1218 1.358 . S
C1216 H1257 0.930 . S
C1217 C1215 1.353 . S
C1217 N1219 1.314 . S
C1217 H1258 0.930 . S
C1218 C1216 1.358 . S
C1218 N1219 1.279 . S
C1218 H1259 0.930 . S
N1219 C1217 1.314 . S
N1219 C1218 1.279 . S
C1220 C1222 1.353 . S
C1220 N1223 1.314 . S
C1220 H1226 0.930 . S
C1221 N1223 1.279 . S
C1221 C1224 1.358 . S
C1221 H1227 0.930 . S
C1222 C1220 1.353 . S
C1222 C1225 1.348 . S
C1222 H1260 0.929 . S
N1223 Li1178 1.990 . S
N1223 C1220 1.314 . S
N1223 C1221 1.279 . S
C1224 C1221 1.358 . S
C1224 C1225 1.356 . S
C1224 H1261 0.930 . S
C1225 C1222 1.348 . S
C1225 C1224 1.356 . S
H1226 C1220 0.930 . S
H1227 C1221 0.930 . S
C1228 N1229 1.314 . S
C1228 C1230 1.353 . S
C1228 H1234 0.930 . S
N1229 Li1179 1.990 . S
N1229 C1228 1.314 . S
N1229 C1232 1.279 . S
C1230 C1228 1.353 . S
C1230 C1233 1.348 . S
C1230 H1262 0.929 . S
C1231 C1232 1.358 . S
C1231 C1233 1.356 . S
C1231 H1263 0.930 . S
C1232 N1229 1.279 . S
C1232 C1231 1.358 . S
C1232 H1235 0.930 . S
C1233 C1230 1.348 . S
C1233 C1231 1.356 . S
H1234 C1228 0.930 . S
H1235 C1232 0.930 . S
O1236 Li1176 1.956 . S
O1236 Li1177 1.970 . S
O1236 Li1178 1.961 . S
O1236 C1180 1.325 . S
O1237 Li1176 1.970 . S
O1237 Li1177 1.956 . S
O1237 Li1179 1.961 . S
O1237 C1186 1.325 . S
O1238 Li1176 1.961 . S
O1238 Li1178 1.956 . S
O1238 Li1179 1.970 . S
O1238 C1208 1.325 . S
O1239 Li1177 1.961 . S
O1239 Li1178 1.970 . S
O1239 Li1179 1.956 . S
O1239 C1214 1.325 . S
H1240 C1182 0.929 . S
H1241 C1183 0.930 . S
H1242 C1184 0.930 . S
H1243 C1185 0.930 . S
H1244 C1187 0.930 . S
H1245 C1189 0.929 . S
H1246 C1190 0.930 . S
H1247 C1191 0.930 . S
H1248 C1194 0.930 . S
H1249 C1197 0.929 . S
H1250 C1202 0.929 . S
H1251 C1203 0.930 . S
H1252 C1210 0.929 . S
H1253 C1211 0.930 . S
H1254 C1212 0.930 . S
H1255 C1213 0.930 . S
H1256 C1215 0.929 . S
H1257 C1216 0.930 . S
H1258 C1217 0.930 . S
H1259 C1218 0.930 . S
H1260 C1222 0.929 . S
H1261 C1224 0.930 . S
H1262 C1230 0.929 . S
H1263 C1231 0.930 . S
H1264 C1270 0.930 . S
H1265 C1273 0.930 . S
H1266 C1274 0.930 . S
H1267 C1275 0.930 . S
H1268 C1278 0.930 . S
H1269 C1279 0.930 . S
C1270 H1264 0.930 . S
C1270 C1271 1.355 . S
C1270 C1272 1.415 . S
C1271 C1270 1.355 . S
C1271 C1273 1.419 . S
C1272 C1270 1.415 . S
C1272 C1277 1.425 . S
C1272 C1279 1.409 . S
C1273 H1265 0.930 . S
C1273 C1271 1.419 . S
C1273 C1274 1.362 . S
C1274 H1266 0.930 . S
C1274 C1273 1.362 . S
C1274 C1277 1.409 . S
C1275 H1267 0.930 . S
C1275 C1276 1.355 . S
C1275 C1277 1.415 . S
C1276 C1275 1.355 . S
C1276 C1278 1.419 . S
C1277 C1272 1.425 . S
C1277 C1274 1.409 . S
C1277 C1275 1.415 . S
C1278 H1268 0.930 . S
C1278 C1276 1.419 . S
C1278 C1279 1.362 . S
C1279 H1269 0.930 . S
C1279 C1272 1.409 . S
C1279 C1278 1.362 . S
H1280 C1286 0.930 . S
H1281 C1289 0.930 . S
H1282 C1290 0.930 . S
H1283 C1291 0.930 . S
H1284 C1294 0.930 . S
H1285 C1295 0.930 . S
C1286 H1280 0.930 . S
C1286 C1287 1.355 . S
C1286 C1288 1.415 . S
C1287 C1286 1.355 . S
C1287 C1289 1.419 . S
C1288 C1286 1.415 . S
C1288 C1293 1.425 . S
C1288 C1295 1.409 . S
C1289 H1281 0.930 . S
C1289 C1287 1.419 . S
C1289 C1290 1.362 . S
C1290 H1282 0.930 . S
C1290 C1289 1.362 . S
C1290 C1293 1.409 . S
C1291 H1283 0.930 . S
C1291 C1292 1.355 . S
C1291 C1293 1.415 . S
C1292 C1291 1.355 . S
C1292 C1294 1.419 . S
C1293 C1288 1.425 . S
C1293 C1290 1.409 . S
C1293 C1291 1.415 . S
C1294 H1284 0.930 . S
C1294 C1292 1.419 . S
C1294 C1295 1.362 . S
C1295 H1285 0.930 . S
C1295 C1288 1.409 . S
C1295 C1294 1.362 . S
H1296 C1302 0.930 . S
H1297 C1305 0.930 . S
H1298 C1306 0.930 . S
H1299 C1307 0.930 . S
H1300 C1310 0.930 . S
H1301 C1311 0.930 . S
C1302 H1296 0.930 . S
C1302 C1303 1.355 . S
C1302 C1304 1.415 . S
C1303 C1302 1.355 . S
C1303 C1305 1.419 . S
C1304 C1302 1.415 . S
C1304 C1309 1.425 . S
C1304 C1311 1.409 . S
C1305 H1297 0.930 . S
C1305 C1303 1.419 . S
C1305 C1306 1.362 . S
C1306 H1298 0.930 . S
C1306 C1305 1.362 . S
C1306 C1309 1.409 . S
C1307 H1299 0.930 . S
C1307 C1308 1.355 . S
C1307 C1309 1.415 . S
C1308 C1307 1.355 . S
C1308 C1310 1.419 . S
C1309 C1304 1.425 . S
C1309 C1306 1.409 . S
C1309 C1307 1.415 . S
C1310 H1300 0.930 . S
C1310 C1308 1.419 . S
C1310 C1311 1.362 . S
C1311 H1301 0.930 . S
C1311 C1304 1.409 . S
C1311 C1310 1.362 . S
H1312 C1318 0.933 . S
H1313 C1321 0.930 . S
H1314 C1322 0.930 . S
H1315 C1323 0.930 . S
H1316 C1326 0.930 . S
H1317 C1327 0.930 . S
C1318 H1312 0.933 . S
C1318 C1319 1.354 1_455 S
C1318 C1320 1.412 1_455 S
C1319 C1318 1.354 1_655 S
C1319 C1321 1.419 1_565 S
C1320 C1318 1.412 1_655 S
C1320 C1325 1.425 1_565 S
C1320 C1327 1.409 . S
C1321 H1313 0.930 . S
C1321 C1319 1.419 1_545 S
C1321 C1322 1.362 . S
C1322 H1314 0.930 . S
C1322 C1321 1.362 . S
C1322 C1325 1.409 . S
C1323 H1315 0.930 . S
C1323 C1324 1.355 . S
C1323 C1325 1.415 . S
C1324 C1323 1.355 . S
C1324 C1326 1.419 1_545 S
C1325 C1320 1.425 1_545 S
C1325 C1322 1.409 . S
C1325 C1323 1.415 . S
C1326 H1316 0.930 . S
C1326 C1324 1.419 1_565 S
C1326 C1327 1.362 . S
C1327 H1317 0.930 . S
C1327 C1320 1.409 . S
C1327 C1326 1.362 . S
H1328 C1334 0.930 . S
H1329 C1337 0.930 . S
H1330 C1338 0.930 . S
H1331 C1339 0.930 . S
H1332 C1342 0.930 . S
H1333 C1343 0.930 . S
C1334 H1328 0.930 . S
C1334 C1335 1.355 . S
C1334 C1336 1.415 . S
C1335 C1334 1.355 . S
C1335 C1337 1.419 . S
C1336 C1334 1.415 . S
C1336 C1341 1.425 . S
C1336 C1343 1.409 . S
C1337 H1329 0.930 . S
C1337 C1335 1.419 . S
C1337 C1338 1.362 . S
C1338 H1330 0.930 . S
C1338 C1337 1.362 . S
C1338 C1341 1.409 . S
C1339 H1331 0.930 . S
C1339 C1340 1.355 . S
C1339 C1341 1.415 . S
C1340 C1339 1.355 . S
C1340 C1342 1.419 . S
C1341 C1336 1.425 . S
C1341 C1338 1.409 . S
C1341 C1339 1.415 . S
C1342 H1332 0.930 . S
C1342 C1340 1.419 . S
C1342 C1343 1.362 . S
C1343 H1333 0.930 . S
C1343 C1336 1.409 . S
C1343 C1342 1.362 . S
H1344 C1350 0.930 . S
H1345 C1353 0.930 . S
H1346 C1354 0.930 . S
H1347 C1355 0.930 . S
H1348 C1358 0.930 . S
H1349 C1359 0.930 . S
C1350 H1344 0.930 . S
C1350 C1351 1.355 . S
C1350 C1352 1.415 . S
C1351 C1350 1.355 . S
C1351 C1353 1.419 . S
C1352 C1350 1.415 . S
C1352 C1357 1.425 . S
C1352 C1359 1.409 . S
C1353 H1345 0.930 . S
C1353 C1351 1.419 . S
C1353 C1354 1.362 . S
C1354 H1346 0.930 . S
C1354 C1353 1.362 . S
C1354 C1357 1.409 . S
C1355 H1347 0.930 . S
C1355 C1356 1.355 . S
C1355 C1357 1.415 . S
C1356 C1355 1.355 . S
C1356 C1358 1.419 . S
C1357 C1352 1.425 . S
C1357 C1354 1.409 . S
C1357 C1355 1.415 . S
C1358 H1348 0.930 . S
C1358 C1356 1.419 . S
C1358 C1359 1.362 . S
C1359 H1349 0.930 . S
C1359 C1352 1.409 . S
C1359 C1358 1.362 . S
H1360 C1366 0.930 . S
H1361 C1369 0.930 . S
H1362 C1370 0.930 . S
H1363 C1371 0.930 . S
H1364 C1374 0.930 . S
H1365 C1375 0.930 . S
C1366 H1360 0.930 . S
C1366 C1367 1.355 . S
C1366 C1368 1.415 . S
C1367 C1366 1.355 . S
C1367 C1369 1.419 . S
C1368 C1366 1.415 . S
C1368 C1373 1.425 . S
C1368 C1375 1.409 . S
C1369 H1361 0.930 . S
C1369 C1367 1.419 . S
C1369 C1370 1.362 . S
C1370 H1362 0.930 . S
C1370 C1369 1.362 . S
C1370 C1373 1.409 . S
C1371 H1363 0.930 . S
C1371 C1372 1.355 . S
C1371 C1373 1.415 . S
C1372 C1371 1.355 . S
C1372 C1374 1.419 . S
C1373 C1368 1.425 . S
C1373 C1370 1.409 . S
C1373 C1371 1.415 . S
C1374 H1364 0.930 . S
C1374 C1372 1.419 . S
C1374 C1375 1.362 . S
C1375 H1365 0.930 . S
C1375 C1368 1.409 . S
C1375 C1374 1.362 . S
H1376 C1382 0.930 . S
H1377 C1385 0.935 . S
H1378 C1386 0.930 1_545 S
H1379 C1387 0.930 . S
H1380 C1390 0.930 . S
H1381 C1391 0.930 . S
C1382 H1376 0.930 . S
C1382 C1383 1.355 . S
C1382 C1384 1.415 . S
C1383 C1382 1.355 . S
C1383 C1385 1.419 . S
C1384 C1382 1.415 . S
C1384 C1389 1.425 . S
C1384 C1391 1.409 . S
C1385 H1377 0.935 . S
C1385 C1383 1.419 . S
C1385 C1386 1.362 . S
C1386 H1378 0.930 1_565 S
C1386 C1385 1.362 . S
C1386 C1389 1.409 . S
C1387 H1379 0.930 . S
C1387 C1388 1.355 . S
C1387 C1389 1.415 . S
C1388 C1387 1.355 . S
C1388 C1390 1.419 . S
C1389 C1384 1.425 . S
C1389 C1386 1.409 . S
C1389 C1387 1.415 . S
C1390 H1380 0.930 . S
C1390 C1388 1.419 . S
C1390 C1391 1.362 . S
C1391 H1381 0.930 . S
C1391 C1384 1.409 . S
C1391 C1390 1.362 . S
H1392 C1398 0.930 . S
H1393 C1401 0.930 . S
H1394 C1402 0.930 . S
H1395 C1403 0.930 . S
H1396 C1406 0.930 . S
H1397 C1407 0.930 . S
C1398 H1392 0.930 . S
C1398 C1399 1.355 . S
C1398 C1400 1.415 . S
C1399 C1398 1.355 . S
C1399 C1401 1.419 . S
C1400 C1398 1.415 . S
C1400 C1405 1.425 . S
C1400 C1407 1.409 . S
C1401 H1393 0.930 . S
C1401 C1399 1.419 . S
C1401 C1402 1.362 . S
C1402 H1394 0.930 . S
C1402 C1401 1.362 . S
C1402 C1405 1.409 . S
C1403 H1395 0.930 . S
C1403 C1404 1.355 . S
C1403 C1405 1.415 . S
C1404 C1403 1.355 . S
C1404 C1406 1.419 . S
C1405 C1400 1.425 . S
C1405 C1402 1.409 . S
C1405 C1403 1.415 . S
C1406 H1396 0.930 . S
C1406 C1404 1.419 . S
C1406 C1407 1.362 . S
C1407 H1397 0.930 . S
C1407 C1400 1.409 . S
C1407 C1406 1.362 . S
H1408 C1414 0.930 . S
H1409 C1417 0.930 . S
H1410 C1418 0.930 . S
H1411 C1419 0.930 . S
H1412 C1422 0.930 . S
H1413 C1423 0.930 . S
C1414 H1408 0.930 . S
C1414 C1415 1.355 . S
C1414 C1416 1.415 . S
C1415 C1414 1.355 . S
C1415 C1417 1.419 . S
C1416 C1414 1.415 . S
C1416 C1421 1.425 . S
C1416 C1423 1.409 . S
C1417 H1409 0.930 . S
C1417 C1415 1.419 . S
C1417 C1418 1.362 . S
C1418 H1410 0.930 . S
C1418 C1417 1.362 . S
C1418 C1421 1.409 . S
C1419 H1411 0.930 . S
C1419 C1420 1.355 . S
C1419 C1421 1.415 . S
C1420 C1419 1.355 . S
C1420 C1422 1.419 . S
C1421 C1416 1.425 . S
C1421 C1418 1.409 . S
C1421 C1419 1.415 . S
C1422 H1412 0.930 . S
C1422 C1420 1.419 . S
C1422 C1423 1.362 . S
C1423 H1413 0.930 . S
C1423 C1416 1.409 . S
C1423 C1422 1.362 . S
H1424 C1430 0.930 . S
H1425 C1433 0.930 . S
H1426 C1434 0.930 . S
H1427 C1435 0.930 . S
H1428 C1438 0.930 . S
H1429 C1439 0.930 . S
C1430 H1424 0.930 . S
C1430 C1431 1.355 . S
C1430 C1432 1.415 . S
C1431 C1430 1.355 . S
C1431 C1433 1.419 . S
C1432 C1430 1.415 . S
C1432 C1437 1.425 . S
C1432 C1439 1.409 . S
C1433 H1425 0.930 . S
C1433 C1431 1.419 . S
C1433 C1434 1.362 . S
C1434 H1426 0.930 . S
C1434 C1433 1.362 . S
C1434 C1437 1.409 . S
C1435 H1427 0.930 . S
C1435 C1436 1.355 . S
C1435 C1437 1.415 . S
C1436 C1435 1.355 . S
C1436 C1438 1.419 . S
C1437 C1432 1.425 . S
C1437 C1434 1.409 . S
C1437 C1435 1.415 . S
C1438 H1428 0.930 . S
C1438 C1436 1.419 . S
C1438 C1439 1.362 . S
C1439 H1429 0.930 . S
C1439 C1432 1.409 . S
C1439 C1438 1.362 . S
H1440 C1446 0.930 . S
H1441 C1449 0.930 . S
H1442 C1450 0.930 . S
H1443 C1451 0.930 . S
H1444 C1454 0.930 . S
H1445 C1455 0.930 . S
C1446 H1440 0.930 . S
C1446 C1447 1.355 . S
C1446 C1448 1.415 . S
C1447 C1446 1.355 . S
C1447 C1449 1.419 . S
C1448 C1446 1.415 . S
C1448 C1453 1.425 . S
C1448 C1455 1.409 . S
C1449 H1441 0.930 . S
C1449 C1447 1.419 . S
C1449 C1450 1.362 . S
C1450 H1442 0.930 . S
C1450 C1449 1.362 . S
C1450 C1453 1.409 . S
C1451 H1443 0.930 . S
C1451 C1452 1.355 . S
C1451 C1453 1.415 . S
C1452 C1451 1.355 . S
C1452 C1454 1.419 . S
C1453 C1448 1.425 . S
C1453 C1450 1.409 . S
C1453 C1451 1.415 . S
C1454 H1444 0.930 . S
C1454 C1452 1.419 . S
C1454 C1455 1.362 . S
C1455 H1445 0.930 . S
C1455 C1448 1.409 . S
C1455 C1454 1.362 . S
H1456 C1462 0.930 . S
H1457 C1465 0.930 . S
H1458 C1466 0.930 . S
H1459 C1467 0.930 . S
H1460 C1470 0.930 . S
H1461 C1471 0.930 . S
C1462 H1456 0.930 . S
C1462 C1463 1.355 . S
C1462 C1464 1.415 . S
C1463 C1462 1.355 . S
C1463 C1465 1.419 . S
C1464 C1462 1.415 . S
C1464 C1469 1.425 . S
C1464 C1471 1.409 . S
C1465 H1457 0.930 . S
C1465 C1463 1.419 . S
C1465 C1466 1.362 . S
C1466 H1458 0.930 . S
C1466 C1465 1.362 . S
C1466 C1469 1.409 . S
C1467 H1459 0.930 . S
C1467 C1468 1.355 . S
C1467 C1469 1.415 . S
C1468 C1467 1.355 . S
C1468 C1470 1.419 . S
C1469 C1464 1.425 . S
C1469 C1466 1.409 . S
C1469 C1467 1.415 . S
C1470 H1460 0.930 . S
C1470 C1468 1.419 . S
C1470 C1471 1.362 . S
C1471 H1461 0.930 . S
C1471 C1464 1.409 . S
C1471 C1470 1.362 . S
H1472 C1478 0.930 . S
H1473 C1481 0.930 . S
H1474 C1482 0.930 . S
H1475 C1483 0.930 . S
H1476 C1486 0.930 . S
H1477 C1487 0.930 . S
C1478 H1472 0.930 . S
C1478 C1479 1.355 . S
C1478 C1480 1.415 . S
C1479 C1478 1.355 . S
C1479 C1481 1.419 . S
C1480 C1478 1.415 . S
C1480 C1485 1.425 . S
C1480 C1487 1.409 . S
C1481 H1473 0.930 . S
C1481 C1479 1.419 . S
C1481 C1482 1.362 . S
C1482 H1474 0.930 . S
C1482 C1481 1.362 . S
C1482 C1485 1.409 . S
C1483 H1475 0.930 . S
C1483 C1484 1.355 . S
C1483 C1485 1.415 . S
C1484 C1483 1.355 . S
C1484 C1486 1.419 . S
C1485 C1480 1.425 . S
C1485 C1482 1.409 . S
C1485 C1483 1.415 . S
C1486 H1476 0.930 . S
C1486 C1484 1.419 . S
C1486 C1487 1.362 . S
C1487 H1477 0.930 . S
C1487 C1480 1.409 . S
C1487 C1486 1.362 . S
H1488 C1494 0.930 . S
H1489 C1497 0.930 . S
H1490 C1498 0.930 . S
H1491 C1499 0.930 . S
H1492 C1502 0.930 . S
H1493 C1503 0.930 . S
C1494 H1488 0.930 . S
C1494 C1495 1.355 . S
C1494 C1496 1.415 . S
C1495 C1494 1.355 . S
C1495 C1497 1.419 . S
C1496 C1494 1.415 . S
C1496 C1501 1.425 . S
C1496 C1503 1.409 . S
C1497 H1489 0.930 . S
C1497 C1495 1.419 . S
C1497 C1498 1.362 . S
C1498 H1490 0.930 . S
C1498 C1497 1.362 . S
C1498 C1501 1.409 . S
C1499 H1491 0.930 . S
C1499 C1500 1.355 . S
C1499 C1501 1.415 . S
C1500 C1499 1.355 . S
C1500 C1502 1.419 . S
C1501 C1496 1.425 . S
C1501 C1498 1.409 . S
C1501 C1499 1.415 . S
C1502 H1492 0.930 . S
C1502 C1500 1.419 . S
C1502 C1503 1.362 . S
C1503 H1493 0.930 . S
C1503 C1496 1.409 . S
C1503 C1502 1.362 . S
H1504 C1510 0.930 . S
H1505 C1513 0.930 . S
H1506 C1514 0.930 . S
H1507 C1515 0.930 . S
H1508 C1518 0.930 . S
H1509 C1519 0.930 . S
C1510 H1504 0.930 . S
C1510 C1511 1.355 1_455 S
C1510 C1512 1.415 . S
C1511 C1510 1.355 1_655 S
C1511 C1513 1.419 . S
C1512 C1510 1.415 . S
C1512 C1517 1.425 1_455 S
C1512 C1519 1.409 . S
C1513 H1505 0.930 . S
C1513 C1511 1.419 . S
C1513 C1514 1.362 . S
C1514 H1506 0.930 . S
C1514 C1513 1.362 . S
C1514 C1517 1.409 . S
C1515 H1507 0.930 . S
C1515 C1516 1.355 . S
C1515 C1517 1.415 . S
C1516 C1515 1.355 . S
C1516 C1518 1.419 1_655 S
C1517 C1512 1.425 1_655 S
C1517 C1514 1.409 . S
C1517 C1515 1.415 . S
C1518 H1508 0.930 . S
C1518 C1516 1.419 1_455 S
C1518 C1519 1.362 . S
C1519 H1509 0.930 . S
C1519 C1512 1.409 . S
C1519 C1518 1.362 . S
H1520 C1526 0.930 . S
H1521 C1529 0.930 . S
H1522 C1530 0.930 . S
H1523 C1531 0.930 . S
H1524 C1534 0.930 . S
H1525 C1535 0.930 . S
C1526 H1520 0.930 . S
C1526 C1527 1.355 . S
C1526 C1528 1.415 . S
C1527 C1526 1.355 . S
C1527 C1529 1.419 . S
C1528 C1526 1.415 . S
C1528 C1533 1.425 . S
C1528 C1535 1.409 . S
C1529 H1521 0.930 . S
C1529 C1527 1.419 . S
C1529 C1530 1.362 . S
C1530 H1522 0.930 . S
C1530 C1529 1.362 . S
C1530 C1533 1.409 . S
C1531 H1523 0.930 . S
C1531 C1532 1.355 . S
C1531 C1533 1.415 . S
C1532 C1531 1.355 . S
C1532 C1534 1.419 . S
C1533 C1528 1.425 . S
C1533 C1530 1.409 . S
C1533 C1531 1.415 . S
C1534 H1524 0.930 . S
C1534 C1532 1.419 . S
C1534 C1535 1.362 . S
C1535 H1525 0.930 . S
C1535 C1528 1.409 . S
C1535 C1534 1.362 . S
H1536 C1542 0.930 . S
H1537 C1545 0.930 . S
H1538 C1546 0.930 . S
H1539 C1547 0.930 . S
H1540 C1550 0.930 . S
H1541 C1551 0.930 . S
C1542 H1536 0.930 . S
C1542 C1543 1.355 . S
C1542 C1544 1.415 . S
C1543 C1542 1.355 . S
C1543 C1545 1.419 . S
C1544 C1542 1.415 . S
C1544 C1549 1.425 . S
C1544 C1551 1.409 . S
C1545 H1537 0.930 . S
C1545 C1543 1.419 . S
C1545 C1546 1.362 . S
C1546 H1538 0.930 . S
C1546 C1545 1.362 . S
C1546 C1549 1.409 . S
C1547 H1539 0.930 . S
C1547 C1548 1.355 . S
C1547 C1549 1.415 . S
C1548 C1547 1.355 . S
C1548 C1550 1.419 . S
C1549 C1544 1.425 . S
C1549 C1546 1.409 . S
C1549 C1547 1.415 . S
C1550 H1540 0.930 . S
C1550 C1548 1.419 . S
C1550 C1551 1.362 . S
C1551 H1541 0.930 . S
C1551 C1544 1.409 . S
C1551 C1550 1.362 . S
H1552 C1558 0.930 1_565 S
H1553 C1561 0.930 . S
H1554 C1562 0.930 . S
H1555 C1563 0.924 1_554 S
H1556 C1566 0.930 . S
H1557 C1567 0.930 . S
C1558 H1552 0.930 1_545 S
C1558 C1559 1.355 1_556 S
C1558 C1560 1.415 1_545 S
C1559 C1558 1.355 1_554 S
C1559 C1561 1.419 . S
C1560 C1558 1.415 1_565 S
C1560 C1565 1.434 1_565 S
C1560 C1567 1.409 . S
C1561 H1553 0.930 . S
C1561 C1559 1.419 . S
C1561 C1562 1.362 . S
C1562 H1554 0.930 . S
C1562 C1561 1.362 . S
C1562 C1565 1.401 1_554 S
C1563 H1555 0.924 1_556 S
C1563 C1564 1.355 1_545 S
C1563 C1565 1.416 . S
C1564 C1563 1.355 1_565 S
C1564 C1566 1.419 . S
C1565 C1560 1.434 1_545 S
C1565 C1562 1.401 1_556 S
C1565 C1563 1.416 . S
C1566 H1556 0.930 . S
C1566 C1564 1.419 . S
C1566 C1567 1.362 . S
C1567 H1557 0.930 . S
C1567 C1560 1.409 . S
C1567 C1566 1.362 . S
H1568 C1574 0.930 . S
H1569 C1577 0.930 . S
H1570 C1578 0.930 . S
H1571 C1579 0.930 . S
H1572 C1582 0.930 . S
H1573 C1583 0.930 . S
C1574 H1568 0.930 . S
C1574 C1575 1.355 . S
C1574 C1576 1.415 . S
C1575 C1574 1.355 . S
C1575 C1577 1.419 . S
C1576 C1574 1.415 . S
C1576 C1581 1.425 . S
C1576 C1583 1.409 . S
C1577 H1569 0.930 . S
C1577 C1575 1.419 . S
C1577 C1578 1.362 . S
C1578 H1570 0.930 . S
C1578 C1577 1.362 . S
C1578 C1581 1.409 . S
C1579 H1571 0.930 . S
C1579 C1580 1.355 . S
C1579 C1581 1.415 . S
C1580 C1579 1.355 . S
C1580 C1582 1.419 . S
C1581 C1576 1.425 . S
C1581 C1578 1.409 . S
C1581 C1579 1.415 . S
C1582 H1572 0.930 . S
C1582 C1580 1.419 . S
C1582 C1583 1.362 . S
C1583 H1573 0.930 . S
C1583 C1576 1.409 . S
C1583 C1582 1.362 . S
H1584 C1590 0.930 1_565 S
H1585 C1593 0.930 . S
H1586 C1594 0.930 . S
H1587 C1595 0.930 . S
H1588 C1598 0.930 . S
H1589 C1599 0.930 . S
C1590 H1584 0.930 1_545 S
C1590 C1591 1.355 . S
C1590 C1592 1.415 . S
C1591 C1590 1.355 . S
C1591 C1593 1.419 . S
C1592 C1590 1.415 . S
C1592 C1597 1.425 . S
C1592 C1599 1.409 . S
C1593 H1585 0.930 . S
C1593 C1591 1.419 . S
C1593 C1594 1.362 . S
C1594 H1586 0.930 . S
C1594 C1593 1.362 . S
C1594 C1597 1.409 . S
C1595 H1587 0.930 . S
C1595 C1596 1.355 . S
C1595 C1597 1.415 . S
C1596 C1595 1.355 . S
C1596 C1598 1.419 . S
C1597 C1592 1.425 . S
C1597 C1594 1.409 . S
C1597 C1595 1.415 . S
C1598 H1588 0.930 . S
C1598 C1596 1.419 . S
C1598 C1599 1.362 . S
C1599 H1589 0.930 . S
C1599 C1592 1.409 . S
C1599 C1598 1.362 . S
H1600 C1606 0.930 . S
H1601 C1609 0.930 . S
H1602 C1610 0.930 . S
H1603 C1611 0.930 . S
H1604 C1614 0.930 . S
H1605 C1615 0.930 . S
C1606 H1600 0.930 . S
C1606 C1607 1.355 . S
C1606 C1608 1.415 . S
C1607 C1606 1.355 . S
C1607 C1609 1.419 . S
C1608 C1606 1.415 . S
C1608 C1613 1.425 . S
C1608 C1615 1.409 . S
C1609 H1601 0.930 . S
C1609 C1607 1.419 . S
C1609 C1610 1.362 . S
C1610 H1602 0.930 . S
C1610 C1609 1.362 . S
C1610 C1613 1.409 . S
C1611 H1603 0.930 . S
C1611 C1612 1.355 . S
C1611 C1613 1.415 . S
C1612 C1611 1.355 . S
C1612 C1614 1.419 . S
C1613 C1608 1.425 . S
C1613 C1610 1.409 . S
C1613 C1611 1.415 . S
C1614 H1604 0.930 . S
C1614 C1612 1.419 . S
C1614 C1615 1.362 . S
C1615 H1605 0.930 . S
C1615 C1608 1.409 . S
C1615 C1614 1.362 . S
H1616 C1622 0.930 . S
H1617 C1625 0.930 . S
H1618 C1626 0.930 . S
H1619 C1627 0.930 . S
H1620 C1630 0.930 . S
H1621 C1631 0.930 1_565 S
C1622 H1616 0.930 . S
C1622 C1623 1.355 . S
C1622 C1624 1.415 1_565 S
C1623 C1622 1.355 . S
C1623 C1625 1.419 1_565 S
C1624 C1622 1.415 1_545 S
C1624 C1629 1.425 . S
C1624 C1631 1.409 . S
C1625 H1617 0.930 . S
C1625 C1623 1.419 1_545 S
C1625 C1626 1.362 . S
C1626 H1618 0.930 . S
C1626 C1625 1.362 . S
C1626 C1629 1.409 . S
C1627 H1619 0.930 . S
C1627 C1628 1.355 . S
C1627 C1629 1.415 . S
C1628 C1627 1.355 . S
C1628 C1630 1.419 . S
C1629 C1624 1.425 . S
C1629 C1626 1.409 . S
C1629 C1627 1.415 . S
C1630 H1620 0.930 . S
C1630 C1628 1.419 . S
C1630 C1631 1.362 . S
C1631 H1621 0.930 1_545 S
C1631 C1624 1.409 . S
C1631 C1630 1.362 . S
H1632 C1638 0.930 . S
H1633 C1641 0.930 . S
H1634 C1642 0.930 . S
H1635 C1643 0.930 . S
H1636 C1646 0.930 . S
H1637 C1647 0.930 . S
C1638 H1632 0.930 . S
C1638 C1639 1.355 . S
C1638 C1640 1.415 . S
C1639 C1638 1.355 . S
C1639 C1641 1.419 . S
C1640 C1638 1.415 . S
C1640 C1645 1.425 . S
C1640 C1647 1.409 . S
C1641 H1633 0.930 . S
C1641 C1639 1.419 . S
C1641 C1642 1.362 . S
C1642 H1634 0.930 . S
C1642 C1641 1.362 . S
C1642 C1645 1.409 . S
C1643 H1635 0.930 . S
C1643 C1644 1.355 . S
C1643 C1645 1.415 . S
C1644 C1643 1.355 . S
C1644 C1646 1.419 . S
C1645 C1640 1.425 . S
C1645 C1642 1.409 . S
C1645 C1643 1.415 . S
C1646 H1636 0.930 . S
C1646 C1644 1.419 . S
C1646 C1647 1.362 . S
C1647 H1637 0.930 . S
C1647 C1640 1.409 . S
C1647 C1646 1.362 . S
H1648 C1654 0.930 . S
H1649 C1657 0.930 . S
H1650 C1658 0.930 . S
H1651 C1659 0.930 . S
H1652 C1662 0.930 . S
H1653 C1663 0.930 . S
C1654 H1648 0.930 . S
C1654 C1655 1.355 . S
C1654 C1656 1.415 . S
C1655 C1654 1.355 . S
C1655 C1657 1.419 . S
C1656 C1654 1.415 . S
C1656 C1661 1.425 . S
C1656 C1663 1.409 . S
C1657 H1649 0.930 . S
C1657 C1655 1.419 . S
C1657 C1658 1.362 . S
C1658 H1650 0.930 . S
C1658 C1657 1.362 . S
C1658 C1661 1.409 . S
C1659 H1651 0.930 . S
C1659 C1660 1.355 . S
C1659 C1661 1.415 . S
C1660 C1659 1.355 . S
C1660 C1662 1.419 . S
C1661 C1656 1.425 . S
C1661 C1658 1.409 . S
C1661 C1659 1.415 . S
C1662 H1652 0.930 . S
C1662 C1660 1.419 . S
C1662 C1663 1.362 . S
C1663 H1653 0.930 . S
C1663 C1656 1.409 . S
C1663 C1662 1.362 . S
H1664 C1670 0.930 . S
H1665 C1673 0.930 . S
H1666 C1674 0.930 . S
H1667 C1675 0.930 . S
H1668 C1678 0.930 . S
H1669 C1679 0.930 . S
C1670 H1664 0.930 . S
C1670 C1671 1.355 . S
C1670 C1672 1.415 . S
C1671 C1670 1.355 . S
C1671 C1673 1.419 . S
C1672 C1670 1.415 . S
C1672 C1677 1.425 . S
C1672 C1679 1.409 . S
C1673 H1665 0.930 . S
C1673 C1671 1.419 . S
C1673 C1674 1.362 . S
C1674 H1666 0.930 . S
C1674 C1673 1.362 . S
C1674 C1677 1.409 . S
C1675 H1667 0.930 . S
C1675 C1676 1.355 . S
C1675 C1677 1.415 . S
C1676 C1675 1.355 . S
C1676 C1678 1.419 . S
C1677 C1672 1.425 . S
C1677 C1674 1.409 . S
C1677 C1675 1.415 . S
C1678 H1668 0.930 . S
C1678 C1676 1.419 . S
C1678 C1679 1.362 . S
C1679 H1669 0.930 . S
C1679 C1672 1.409 . S
C1679 C1678 1.362 . S
H1680 C1686 0.930 . S
H1681 C1689 0.930 . S
H1682 C1690 0.930 . S
H1683 C1691 0.930 . S
H1684 C1694 0.930 . S
H1685 C1695 0.930 . S
C1686 H1680 0.930 . S
C1686 C1687 1.355 . S
C1686 C1688 1.415 . S
C1687 C1686 1.355 . S
C1687 C1689 1.419 . S
C1688 C1686 1.415 . S
C1688 C1693 1.425 . S
C1688 C1695 1.409 . S
C1689 H1681 0.930 . S
C1689 C1687 1.419 . S
C1689 C1690 1.362 . S
C1690 H1682 0.930 . S
C1690 C1689 1.362 . S
C1690 C1693 1.409 . S
C1691 H1683 0.930 . S
C1691 C1692 1.355 . S
C1691 C1693 1.415 . S
C1692 C1691 1.355 . S
C1692 C1694 1.419 . S
C1693 C1688 1.425 . S
C1693 C1690 1.409 . S
C1693 C1691 1.415 . S
C1694 H1684 0.930 . S
C1694 C1692 1.419 . S
C1694 C1695 1.362 . S
C1695 H1685 0.930 . S
C1695 C1688 1.409 . S
C1695 C1694 1.362 . S
H1696 C1702 0.930 . S
H1697 C1705 0.930 . S
H1698 C1706 0.930 . S
H1699 C1707 0.930 . S
H1700 C1710 0.930 . S
H1701 C1711 0.930 . S
C1702 H1696 0.930 . S
C1702 C1703 1.355 . S
C1702 C1704 1.415 . S
C1703 C1702 1.355 . S
C1703 C1705 1.419 . S
C1704 C1702 1.415 . S
C1704 C1709 1.425 . S
C1704 C1711 1.409 . S
C1705 H1697 0.930 . S
C1705 C1703 1.419 . S
C1705 C1706 1.362 . S
C1706 H1698 0.930 . S
C1706 C1705 1.362 . S
C1706 C1709 1.409 . S
C1707 H1699 0.930 . S
C1707 C1708 1.355 . S
C1707 C1709 1.415 . S
C1708 C1707 1.355 . S
C1708 C1710 1.419 . S
C1709 C1704 1.425 . S
C1709 C1706 1.409 . S
C1709 C1707 1.415 . S
C1710 H1700 0.930 . S
C1710 C1708 1.419 . S
C1710 C1711 1.362 . S
C1711 H1701 0.930 . S
C1711 C1704 1.409 . S
C1711 C1710 1.362 . S
H1712 C1718 0.930 . S
H1713 C1721 0.930 . S
H1714 C1722 0.930 . S
H1715 C1723 0.930 . S
H1716 C1726 0.930 . S
H1717 C1727 0.930 . S
C1718 H1712 0.930 . S
C1718 C1719 1.355 . S
C1718 C1720 1.415 . S
C1719 C1718 1.355 . S
C1719 C1721 1.419 . S
C1720 C1718 1.415 . S
C1720 C1725 1.425 . S
C1720 C1727 1.409 . S
C1721 H1713 0.930 . S
C1721 C1719 1.419 . S
C1721 C1722 1.362 . S
C1722 H1714 0.930 . S
C1722 C1721 1.362 . S
C1722 C1725 1.409 . S
C1723 H1715 0.930 . S
C1723 C1724 1.355 . S
C1723 C1725 1.415 . S
C1724 C1723 1.355 . S
C1724 C1726 1.419 . S
C1725 C1720 1.425 . S
C1725 C1722 1.409 . S
C1725 C1723 1.415 . S
C1726 H1716 0.930 . S
C1726 C1724 1.419 . S
C1726 C1727 1.362 . S
C1727 H1717 0.930 . S
C1727 C1720 1.409 . S
C1727 C1726 1.362 . S
H1728 C1734 0.930 . S
H1729 C1737 0.930 . S
H1730 C1738 0.930 1_455 S
H1731 C1739 0.930 . S
H1732 C1742 0.930 . S
H1733 C1743 0.930 . S
C1734 H1728 0.930 . S
C1734 C1735 1.355 . S
C1734 C1736 1.415 . S
C1735 C1734 1.355 . S
C1735 C1737 1.419 1_655 S
C1736 C1734 1.415 . S
C1736 C1741 1.425 . S
C1736 C1743 1.409 . S
C1737 H1729 0.930 . S
C1737 C1735 1.419 1_455 S
C1737 C1738 1.362 1_455 S
C1738 H1730 0.930 1_655 S
C1738 C1737 1.362 1_655 S
C1738 C1741 1.409 . S
C1739 H1731 0.930 . S
C1739 C1740 1.355 . S
C1739 C1741 1.415 . S
C1740 C1739 1.355 . S
C1740 C1742 1.419 . S
C1741 C1736 1.425 . S
C1741 C1738 1.409 . S
C1741 C1739 1.415 . S
C1742 H1732 0.930 . S
C1742 C1740 1.419 . S
C1742 C1743 1.362 . S
C1743 H1733 0.930 . S
C1743 C1736 1.409 . S
C1743 C1742 1.362 . S
H1744 C1750 0.930 . S
H1745 C1753 0.930 . S
H1746 C1754 0.930 . S
H1747 C1755 0.930 . S
H1748 C1758 0.930 . S
H1749 C1759 0.930 . S
C1750 H1744 0.930 . S
C1750 C1751 1.355 . S
C1750 C1752 1.415 . S
C1751 C1750 1.355 . S
C1751 C1753 1.419 . S
C1752 C1750 1.415 . S
C1752 C1757 1.425 . S
C1752 C1759 1.409 . S
C1753 H1745 0.930 . S
C1753 C1751 1.419 . S
C1753 C1754 1.362 . S
C1754 H1746 0.930 . S
C1754 C1753 1.362 . S
C1754 C1757 1.409 . S
C1755 H1747 0.930 . S
C1755 C1756 1.355 . S
C1755 C1757 1.415 . S
C1756 C1755 1.355 . S
C1756 C1758 1.419 . S
C1757 C1752 1.425 . S
C1757 C1754 1.409 . S
C1757 C1755 1.415 . S
C1758 H1748 0.930 . S
C1758 C1756 1.419 . S
C1758 C1759 1.362 . S
C1759 H1749 0.930 . S
C1759 C1752 1.409 . S
C1759 C1758 1.362 . S
H1760 C1766 0.930 1_655 S
H1761 C1769 0.930 . S
H1762 C1770 0.930 . S
H1763 C1771 0.930 . S
H1764 C1774 0.930 . S
H1765 C1775 0.930 . S
C1766 H1760 0.930 1_455 S
C1766 C1767 1.355 . S
C1766 C1768 1.415 . S
C1767 C1766 1.355 . S
C1767 C1769 1.419 . S
C1768 C1766 1.415 . S
C1768 C1773 1.425 . S
C1768 C1775 1.409 . S
C1769 H1761 0.930 . S
C1769 C1767 1.419 . S
C1769 C1770 1.362 . S
C1770 H1762 0.930 . S
C1770 C1769 1.362 . S
C1770 C1773 1.409 . S
C1771 H1763 0.930 . S
C1771 C1772 1.355 . S
C1771 C1773 1.415 . S
C1772 C1771 1.355 . S
C1772 C1774 1.419 . S
C1773 C1768 1.425 . S
C1773 C1770 1.409 . S
C1773 C1771 1.415 . S
C1774 H1764 0.930 . S
C1774 C1772 1.419 . S
C1774 C1775 1.362 . S
C1775 H1765 0.930 . S
C1775 C1768 1.409 . S
C1775 C1774 1.362 . S
H1776 C1782 0.930 . S
H1777 C1785 0.930 . S
H1778 C1786 0.930 . S
H1779 C1787 0.930 . S
H1780 C1790 0.930 . S
H1781 C1791 0.930 . S
C1782 H1776 0.930 . S
C1782 C1783 1.355 . S
C1782 C1784 1.415 . S
C1783 C1782 1.355 . S
C1783 C1785 1.419 . S
C1784 C1782 1.415 . S
C1784 C1789 1.425 . S
C1784 C1791 1.409 . S
C1785 H1777 0.930 . S
C1785 C1783 1.419 . S
C1785 C1786 1.362 . S
C1786 H1778 0.930 . S
C1786 C1785 1.362 . S
C1786 C1789 1.409 . S
C1787 H1779 0.930 . S
C1787 C1788 1.355 . S
C1787 C1789 1.415 . S
C1788 C1787 1.355 . S
C1788 C1790 1.419 . S
C1789 C1784 1.425 . S
C1789 C1786 1.409 . S
C1789 C1787 1.415 . S
C1790 H1780 0.930 . S
C1790 C1788 1.419 . S
C1790 C1791 1.362 . S
C1791 H1781 0.930 . S
C1791 C1784 1.409 . S
C1791 C1790 1.362 . S
H1792 C1798 0.946 . S
H1793 C1801 0.930 . S
H1794 C1802 0.930 1_556 S
H1795 C1803 0.930 . S
H1796 C1806 0.930 . S
H1797 C1807 0.930 . S
C1798 H1792 0.946 . S
C1798 C1799 1.337 1_455 S
C1798 C1800 1.418 1_454 S
C1799 C1798 1.337 1_655 S
C1799 C1801 1.419 . S
C1800 C1798 1.418 1_656 S
C1800 C1805 1.431 . S
C1800 C1807 1.403 1_655 S
C1801 H1793 0.930 . S
C1801 C1799 1.419 . S
C1801 C1802 1.362 . S
C1802 H1794 0.930 1_554 S
C1802 C1801 1.362 . S
C1802 C1805 1.409 1_554 S
C1803 H1795 0.930 . S
C1803 C1804 1.355 . S
C1803 C1805 1.415 . S
C1804 C1803 1.355 . S
C1804 C1806 1.419 1_655 S
C1805 C1800 1.431 . S
C1805 C1802 1.409 1_556 S
C1805 C1803 1.415 . S
C1806 H1796 0.930 . S
C1806 C1804 1.419 1_455 S
C1806 C1807 1.362 . S
C1807 H1797 0.930 . S
C1807 C1800 1.403 1_455 S
C1807 C1806 1.362 . S
H1808 C1814 0.930 . S
H1809 C1817 0.930 . S
H1810 C1818 0.930 . S
H1811 C1819 0.930 . S
H1812 C1822 0.930 . S
H1813 C1823 0.930 . S
C1814 H1808 0.930 . S
C1814 C1815 1.355 . S
C1814 C1816 1.415 . S
C1815 C1814 1.355 . S
C1815 C1817 1.419 . S
C1816 C1814 1.415 . S
C1816 C1821 1.425 . S
C1816 C1823 1.409 . S
C1817 H1809 0.930 . S
C1817 C1815 1.419 . S
C1817 C1818 1.362 . S
C1818 H1810 0.930 . S
C1818 C1817 1.362 . S
C1818 C1821 1.409 . S
C1819 H1811 0.930 . S
C1819 C1820 1.355 . S
C1819 C1821 1.415 . S
C1820 C1819 1.355 . S
C1820 C1822 1.419 . S
C1821 C1816 1.425 . S
C1821 C1818 1.409 . S
C1821 C1819 1.415 . S
C1822 H1812 0.930 . S
C1822 C1820 1.419 . S
C1822 C1823 1.362 . S
C1823 H1813 0.930 . S
C1823 C1816 1.409 . S
C1823 C1822 1.362 . S
H1824 C1830 0.930 . S
H1825 C1833 0.930 . S
H1826 C1834 0.930 . S
H1827 C1835 0.930 . S
H1828 C1838 0.930 . S
H1829 C1839 0.898 1_554 S
C1830 H1824 0.930 . S
C1830 C1831 1.355 . S
C1830 C1832 1.415 1_554 S
C1831 C1830 1.355 . S
C1831 C1833 1.419 1_454 S
C1832 C1830 1.415 1_556 S
C1832 C1837 1.425 . S
C1832 C1839 1.418 . S
C1833 H1825 0.930 . S
C1833 C1831 1.419 1_656 S
C1833 C1834 1.362 . S
C1834 H1826 0.930 . S
C1834 C1833 1.362 . S
C1834 C1837 1.409 1_655 S
C1835 H1827 0.930 . S
C1835 C1836 1.355 1_655 S
C1835 C1837 1.415 1_655 S
C1836 C1835 1.355 1_455 S
C1836 C1838 1.419 . S
C1837 C1832 1.425 . S
C1837 C1834 1.409 1_455 S
C1837 C1835 1.415 1_455 S
C1838 H1828 0.930 . S
C1838 C1836 1.419 . S
C1838 C1839 1.386 . S
C1839 H1829 0.898 1_556 S
C1839 C1832 1.418 . S
C1839 C1838 1.386 . S
H1840 C1846 0.930 . S
H1841 C1849 0.930 . S
H1842 C1850 0.930 . S
H1843 C1851 0.930 . S
H1844 C1854 0.930 . S
H1845 C1855 0.930 . S
C1846 H1840 0.930 . S
C1846 C1847 1.355 . S
C1846 C1848 1.415 . S
C1847 C1846 1.355 . S
C1847 C1849 1.419 . S
C1848 C1846 1.415 . S
C1848 C1853 1.425 . S
C1848 C1855 1.409 . S
C1849 H1841 0.930 . S
C1849 C1847 1.419 . S
C1849 C1850 1.362 . S
C1850 H1842 0.930 . S
C1850 C1849 1.362 . S
C1850 C1853 1.409 . S
C1851 H1843 0.930 . S
C1851 C1852 1.355 . S
C1851 C1853 1.415 . S
C1852 C1851 1.355 . S
C1852 C1854 1.419 . S
C1853 C1848 1.425 . S
C1853 C1850 1.409 . S
C1853 C1851 1.415 . S
C1854 H1844 0.930 . S
C1854 C1852 1.419 . S
C1854 C1855 1.362 . S
C1855 H1845 0.930 . S
C1855 C1848 1.409 . S
C1855 C1854 1.362 . S
H1856 C1862 0.907 1_556 S
H1857 C1865 0.930 . S
H1858 C1866 0.930 . S
H1859 C1867 0.930 . S
H1860 C1870 0.930 . S
H1861 C1871 0.930 . S
C1862 H1856 0.907 1_554 S
C1862 C1863 1.355 . S
C1862 C1864 1.415 . S
C1863 C1862 1.355 . S
C1863 C1865 1.419 . S
C1864 C1862 1.415 . S
C1864 C1869 1.425 . S
C1864 C1871 1.409 . S
C1865 H1857 0.930 . S
C1865 C1863 1.419 . S
C1865 C1866 1.362 . S
C1866 H1858 0.930 . S
C1866 C1865 1.362 . S
C1866 C1869 1.409 . S
C1867 H1859 0.930 . S
C1867 C1868 1.355 . S
C1867 C1869 1.415 . S
C1868 C1867 1.355 . S
C1868 C1870 1.419 . S
C1869 C1864 1.425 . S
C1869 C1866 1.409 . S
C1869 C1867 1.415 . S
C1870 H1860 0.930 . S
C1870 C1868 1.419 . S
C1870 C1871 1.362 . S
C1871 H1861 0.930 . S
C1871 C1864 1.409 . S
C1871 C1870 1.362 . S
H1872 C1878 0.930 . S
H1873 C1881 0.930 . S
H1874 C1882 0.930 . S
H1875 C1883 0.930 . S
H1876 C1886 0.930 . S
H1877 C1887 0.930 . S
C1878 H1872 0.930 . S
C1878 C1879 1.355 . S
C1878 C1880 1.415 . S
C1879 C1878 1.355 . S
C1879 C1881 1.419 . S
C1880 C1878 1.415 . S
C1880 C1885 1.425 . S
C1880 C1887 1.409 . S
C1881 H1873 0.930 . S
C1881 C1879 1.419 . S
C1881 C1882 1.362 . S
C1882 H1874 0.930 . S
C1882 C1881 1.362 . S
C1882 C1885 1.409 . S
C1883 H1875 0.930 . S
C1883 C1884 1.355 . S
C1883 C1885 1.415 . S
C1884 C1883 1.355 . S
C1884 C1886 1.419 . S
C1885 C1880 1.425 . S
C1885 C1882 1.409 . S
C1885 C1883 1.415 . S
C1886 H1876 0.930 . S
C1886 C1884 1.419 . S
C1886 C1887 1.362 . S
C1887 H1877 0.930 . S
C1887 C1880 1.409 . S
C1887 C1886 1.362 . S
H1888 C1894 0.930 . S
H1889 C1897 0.930 . S
H1890 C1898 0.930 . S
H1891 C1899 0.930 . S
H1892 C1902 0.930 . S
H1893 C1903 0.930 . S
C1894 H1888 0.930 . S
C1894 C1895 1.355 . S
C1894 C1896 1.415 . S
C1895 C1894 1.355 . S
C1895 C1897 1.419 . S
C1896 C1894 1.415 . S
C1896 C1901 1.425 . S
C1896 C1903 1.409 . S
C1897 H1889 0.930 . S
C1897 C1895 1.419 . S
C1897 C1898 1.362 . S
C1898 H1890 0.930 . S
C1898 C1897 1.362 . S
C1898 C1901 1.409 . S
C1899 H1891 0.930 . S
C1899 C1900 1.355 . S
C1899 C1901 1.415 . S
C1900 C1899 1.355 . S
C1900 C1902 1.419 . S
C1901 C1896 1.425 . S
C1901 C1898 1.409 . S
C1901 C1899 1.415 . S
C1902 H1892 0.930 . S
C1902 C1900 1.419 . S
C1902 C1903 1.362 . S
C1903 H1893 0.930 . S
C1903 C1896 1.409 . S
C1903 C1902 1.362 . S
H1904 C1910 0.930 . S
H1905 C1913 0.930 . S
H1906 C1914 0.930 . S
H1907 C1915 0.930 . S
H1908 C1918 0.930 . S
H1909 C1919 0.930 . S
C1910 H1904 0.930 . S
C1910 C1911 1.355 . S
C1910 C1912 1.415 . S
C1911 C1910 1.355 . S
C1911 C1913 1.419 . S
C1912 C1910 1.415 . S
C1912 C1917 1.425 . S
C1912 C1919 1.409 . S
C1913 H1905 0.930 . S
C1913 C1911 1.419 . S
C1913 C1914 1.362 . S
C1914 H1906 0.930 . S
C1914 C1913 1.362 . S
C1914 C1917 1.409 . S
C1915 H1907 0.930 . S
C1915 C1916 1.355 . S
C1915 C1917 1.415 . S
C1916 C1915 1.355 . S
C1916 C1918 1.419 . S
C1917 C1912 1.425 . S
C1917 C1914 1.409 . S
C1917 C1915 1.415 . S
C1918 H1908 0.930 . S
C1918 C1916 1.419 . S
C1918 C1919 1.362 . S
C1919 H1909 0.930 . S
C1919 C1912 1.409 . S
C1919 C1918 1.362 . S
H1920 C1926 0.930 . S
H1921 C1929 0.930 . S
H1922 C1930 0.930 . S
H1923 C1931 0.930 . S
H1924 C1934 0.930 . S
H1925 C1935 0.930 . S
C1926 H1920 0.930 . S
C1926 C1927 1.355 . S
C1926 C1928 1.415 . S
C1927 C1926 1.355 . S
C1927 C1929 1.419 . S
C1928 C1926 1.415 . S
C1928 C1933 1.425 . S
C1928 C1935 1.409 . S
C1929 H1921 0.930 . S
C1929 C1927 1.419 . S
C1929 C1930 1.362 . S
C1930 H1922 0.930 . S
C1930 C1929 1.362 . S
C1930 C1933 1.409 . S
C1931 H1923 0.930 . S
C1931 C1932 1.355 . S
C1931 C1933 1.415 . S
C1932 C1931 1.355 . S
C1932 C1934 1.419 . S
C1933 C1928 1.425 . S
C1933 C1930 1.409 . S
C1933 C1931 1.415 . S
C1934 H1924 0.930 . S
C1934 C1932 1.419 . S
C1934 C1935 1.362 . S
C1935 H1925 0.930 . S
C1935 C1928 1.409 . S
C1935 C1934 1.362 . S
H1936 C1942 0.930 . S
H1937 C1945 0.930 . S
H1938 C1946 0.930 . S
H1939 C1947 0.930 . S
H1940 C1950 0.930 . S
H1941 C1951 0.930 . S
C1942 H1936 0.930 . S
C1942 C1943 1.355 . S
C1942 C1944 1.415 . S
C1943 C1942 1.355 . S
C1943 C1945 1.419 . S
C1944 C1942 1.415 . S
C1944 C1949 1.425 . S
C1944 C1951 1.409 . S
C1945 H1937 0.930 . S
C1945 C1943 1.419 . S
C1945 C1946 1.362 . S
C1946 H1938 0.930 . S
C1946 C1945 1.362 . S
C1946 C1949 1.409 . S
C1947 H1939 0.930 . S
C1947 C1948 1.355 . S
C1947 C1949 1.415 . S
C1948 C1947 1.355 . S
C1948 C1950 1.419 . S
C1949 C1944 1.425 . S
C1949 C1946 1.409 . S
C1949 C1947 1.415 . S
C1950 H1940 0.930 . S
C1950 C1948 1.419 . S
C1950 C1951 1.362 . S
C1951 H1941 0.930 . S
C1951 C1944 1.409 . S
C1951 C1950 1.362 . S
H1952 C1958 0.930 . S
H1953 C1961 0.930 . S
H1954 C1962 0.930 . S
H1955 C1963 0.930 . S
H1956 C1966 0.930 . S
H1957 C1967 0.930 . S
C1958 H1952 0.930 . S
C1958 C1959 1.355 . S
C1958 C1960 1.415 . S
C1959 C1958 1.355 . S
C1959 C1961 1.419 . S
C1960 C1958 1.415 . S
C1960 C1965 1.425 . S
C1960 C1967 1.409 . S
C1961 H1953 0.930 . S
C1961 C1959 1.419 . S
C1961 C1962 1.362 . S
C1962 H1954 0.930 . S
C1962 C1961 1.362 . S
C1962 C1965 1.409 . S
C1963 H1955 0.930 . S
C1963 C1964 1.355 . S
C1963 C1965 1.415 . S
C1964 C1963 1.355 . S
C1964 C1966 1.419 . S
C1965 C1960 1.425 . S
C1965 C1962 1.409 . S
C1965 C1963 1.415 . S
C1966 H1956 0.930 . S
C1966 C1964 1.419 . S
C1966 C1967 1.362 . S
C1967 H1957 0.930 . S
C1967 C1960 1.409 . S
C1967 C1966 1.362 . S
H1968 C1974 0.930 . S
H1969 C1977 0.930 . S
H1970 C1978 0.930 . S
H1971 C1979 0.930 . S
H1972 C1982 0.934 . S
H1973 C1983 0.930 . S
C1974 H1968 0.930 . S
C1974 C1975 1.355 . S
C1974 C1976 1.434 . S
C1975 C1974 1.355 . S
C1975 C1977 1.419 1_556 S
C1976 C1974 1.434 . S
C1976 C1981 1.401 1_556 S
C1976 C1983 1.415 . S
C1977 H1969 0.930 . S
C1977 C1975 1.419 1_554 S
C1977 C1978 1.362 . S
C1978 H1970 0.930 . S
C1978 C1977 1.362 . S
C1978 C1981 1.409 . S
C1979 H1971 0.930 . S
C1979 C1980 1.355 . S
C1979 C1981 1.415 . S
C1980 C1979 1.355 . S
C1980 C1982 1.419 . S
C1981 C1976 1.401 1_554 S
C1981 C1978 1.409 . S
C1981 C1979 1.415 . S
C1982 H1972 0.934 . S
C1982 C1980 1.419 . S
C1982 C1983 1.362 1_554 S
C1983 H1973 0.930 . S
C1983 C1976 1.415 . S
C1983 C1982 1.362 1_556 S
H1984 C1990 0.930 . S
H1985 C1993 0.930 . S
H1986 C1994 0.930 . S
H1987 C1995 0.930 . S
H1988 C1998 0.930 . S
H1989 C1999 0.930 . S
C1990 H1984 0.930 . S
C1990 C1991 1.355 . S
C1990 C1992 1.415 . S
C1991 C1990 1.355 . S
C1991 C1993 1.419 . S
C1992 C1990 1.415 . S
C1992 C1997 1.425 . S
C1992 C1999 1.409 . S
C1993 H1985 0.930 . S
C1993 C1991 1.419 . S
C1993 C1994 1.362 . S
C1994 H1986 0.930 . S
C1994 C1993 1.362 . S
C1994 C1997 1.409 . S
C1995 H1987 0.930 . S
C1995 C1996 1.355 . S
C1995 C1997 1.415 . S
C1996 C1995 1.355 . S
C1996 C1998 1.419 . S
C1997 C1992 1.425 . S
C1997 C1994 1.409 . S
C1997 C1995 1.415 . S
C1998 H1988 0.930 . S
C1998 C1996 1.419 . S
C1998 C1999 1.362 . S
C1999 H1989 0.930 . S
C1999 C1992 1.409 . S
C1999 C1998 1.362 . S
H2000 C2006 0.930 . S
H2001 C2009 0.930 . S
H2002 C2010 0.930 . S
H2003 C2011 0.930 . S
H2004 C2014 0.930 . S
H2005 C2015 0.930 . S
C2006 H2000 0.930 . S
C2006 C2007 1.355 . S
C2006 C2008 1.415 . S
C2007 C2006 1.355 . S
C2007 C2009 1.419 . S
C2008 C2006 1.415 . S
C2008 C2013 1.425 . S
C2008 C2015 1.409 . S
C2009 H2001 0.930 . S
C2009 C2007 1.419 . S
C2009 C2010 1.362 . S
C2010 H2002 0.930 . S
C2010 C2009 1.362 . S
C2010 C2013 1.409 . S
C2011 H2003 0.930 . S
C2011 C2012 1.355 . S
C2011 C2013 1.415 . S
C2012 C2011 1.355 . S
C2012 C2014 1.419 . S
C2013 C2008 1.425 . S
C2013 C2010 1.409 . S
C2013 C2011 1.415 . S
C2014 H2004 0.930 . S
C2014 C2012 1.419 . S
C2014 C2015 1.362 . S
C2015 H2005 0.930 . S
C2015 C2008 1.409 . S
C2015 C2014 1.362 . S
H2016 C2022 0.930 . S
H2017 C2025 0.930 . S
H2018 C2026 0.930 . S
H2019 C2027 0.930 . S
H2020 C2030 0.930 . S
H2021 C2031 0.930 . S
C2022 H2016 0.930 . S
C2022 C2023 1.355 . S
C2022 C2024 1.415 . S
C2023 C2022 1.355 . S
C2023 C2025 1.419 1_565 S
C2024 C2022 1.415 . S
C2024 C2029 1.425 . S
C2024 C2031 1.409 . S
C2025 H2017 0.930 . S
C2025 C2023 1.419 1_545 S
C2025 C2026 1.362 . S
C2026 H2018 0.930 . S
C2026 C2025 1.362 . S
C2026 C2029 1.409 1_545 S
C2027 H2019 0.930 . S
C2027 C2028 1.355 . S
C2027 C2029 1.415 . S
C2028 C2027 1.355 . S
C2028 C2030 1.419 . S
C2029 C2024 1.425 . S
C2029 C2026 1.409 1_565 S
C2029 C2027 1.415 . S
C2030 H2020 0.930 . S
C2030 C2028 1.419 . S
C2030 C2031 1.362 . S
C2031 H2021 0.930 . S
C2031 C2024 1.409 . S
C2031 C2030 1.362 . S
C1276 C257 1.816 . S
C1271 C73 1.816 . S
C1292 C316 1.264 . S
C1287 C82 1.251 . S
C1303 C100 1.855 . S
C1308 C433 1.840 . S
C1324 C501 1.320 . S
C1319 C56 1.285 1_655 S
C1340 C580 1.371 . S
C1335 C134 1.396 . S
C1356 C705 1.792 . S
C1351 C165 1.772 . S
C1367 C147 1.179 . S
C1372 C765 1.205 . S
C1388 C873 1.823 . S
C1383 C125 1.828 . S
C1399 C151 1.402 . S
C1404 C969 1.409 . S
C1420 C1029 1.451 . S
C1415 C121 1.394 . S
C1431 C139 1.795 . S
C1436 C932 1.801 . S
C1452 C1049 1.286 . S
C1447 C164 1.274 . S
C1463 C95 1.308 . S
C1468 C1117 1.338 . S
C1479 C61 1.484 . S
C1484 C1108 1.506 . S
C1495 C74 1.438 . S
C1500 C1137 1.441 . S
C1511 C86 1.782 . S
C1516 C1145 1.778 . S
C1527 C47 1.390 . S
C1532 C529 1.392 . S
C1543 C186 1.342 . S
C1548 C492 1.368 . S
C1564 C228 1.529 . S
C1559 C204 1.533 . S
C1580 C325 1.872 . S
C1575 C112 1.882 . S
C1591 C60 1.373 1_545 S
C1596 C589 1.366 . S
C1612 C881 1.426 . S
C1607 C152 1.417 . S
C1628 C609 1.937 . S
C1623 C126 1.929 . S
C1644 C793 1.316 . S
C1639 C160 1.313 . S
C1660 C785 1.816 . S
C1655 C190 1.816 . S
C1671 C199 1.257 . S
C1676 C853 1.266 . S
C1687 C113 1.855 . S
C1692 C617 1.853 . S
C1708 C668 1.328 . S
C1703 C173 1.268 . S
C1719 C43 1.359 . S
C1724 C413 1.388 . S
C1740 C521 1.789 . S
C1735 C9 1.765 1_655 S
C1756 C237 1.206 . S
C1751 C17 1.191 . S
C1772 C353 1.830 . S
C1767 C34 1.829 1_455 S
C1783 C21 1.403 . S
C1788 C1057 1.401 . S
C1799 C30 1.383 . S
C1804 C941 1.451 . S
C1815 C48 1.798 . S
C1820 C1020 1.810 . S
C1831 C8 1.293 . S
C1836 C961 1.282 . S
C1852 C1205 1.336 . S
C1847 C108 1.300 . S
C1868 C1196 1.506 . S
C1863 C178 1.504 1_554 S
C1884 C1225 1.442 . S
C1879 C191 1.443 . S
C1895 C203 1.788 . S
C1900 C1233 1.781 . S
C1911 C138 1.391 . S
C1916 C697 1.392 . S
C1932 C677 1.344 . S
C1927 C69 1.257 . S
C1948 C756 1.560 . S
C1943 C87 1.562 . S
C1964 C844 1.871 . S
C1959 C99 1.882 . S
C1975 C177 1.367 . S
C1980 C404 1.359 . S
C1996 C345 1.438 . S
C1991 C22 1.425 . S
C2007 C35 1.936 . S
C2012 C441 1.936 . S
C2028 C265 1.306 . S
C2023 C4 1.322 . S
