# Generated by pormake.
# Topology dag, (6,3)-cn, num edge types: 1
# Building blocks:
#     Node 0, Type 0, BuildingBlock: OJICUG_clean_sbu_0, # of connection points: 6
#     Node 1, Type 0, BuildingBlock: OJICUG_clean_sbu_0, # of connection points: 6
#     Node 2, Type 0, BuildingBlock: OJICUG_clean_sbu_0, # of connection points: 6
#     Node 3, Type 0, BuildingBlock: OJICUG_clean_sbu_0, # of connection points: 6
#     Node 4, Type 1, BuildingBlock: BELTOD_clean_linker_0, # of connection points: 3
#     Node 5, Type 1, BuildingBlock: BELTOD_clean_linker_0, # of connection points: 3
#     Node 6, Type 1, BuildingBlock: BELTOD_clean_linker_0, # of connection points: 3
#     Node 7, Type 1, BuildingBlock: BELTOD_clean_linker_0, # of connection points: 3
#     Node 8, Type 1, BuildingBlock: BELTOD_clean_linker_0, # of connection points: 3
#     Node 9, Type 1, BuildingBlock: BELTOD_clean_linker_0, # of connection points: 3
#     Node 10, Type 1, BuildingBlock: BELTOD_clean_linker_0, # of connection points: 3
#     Node 11, Type 1, BuildingBlock: BELTOD_clean_linker_0, # of connection points: 3
#     Edge 12, Type (0, 1), BuildingBlock: ZUJKAS_clean_linker_0, # of connection points: 2
#     Edge 13, Type (0, 1), BuildingBlock: ZUJKAS_clean_linker_0, # of connection points: 2
#     Edge 14, Type (0, 1), BuildingBlock: ZUJKAS_clean_linker_0, # of connection points: 2
#     Edge 15, Type (0, 1), BuildingBlock: ZUJKAS_clean_linker_0, # of connection points: 2
#     Edge 16, Type (0, 1), BuildingBlock: ZUJKAS_clean_linker_0, # of connection points: 2
#     Edge 17, Type (0, 1), BuildingBlock: ZUJKAS_clean_linker_0, # of connection points: 2
#     Edge 18, Type (0, 1), BuildingBlock: ZUJKAS_clean_linker_0, # of connection points: 2
#     Edge 19, Type (0, 1), BuildingBlock: ZUJKAS_clean_linker_0, # of connection points: 2
#     Edge 20, Type (0, 1), BuildingBlock: ZUJKAS_clean_linker_0, # of connection points: 2
#     Edge 21, Type (0, 1), BuildingBlock: ZUJKAS_clean_linker_0, # of connection points: 2
#     Edge 22, Type (0, 1), BuildingBlock: ZUJKAS_clean_linker_0, # of connection points: 2
#     Edge 23, Type (0, 1), BuildingBlock: ZUJKAS_clean_linker_0, # of connection points: 2
#     Edge 24, Type (0, 1), BuildingBlock: ZUJKAS_clean_linker_0, # of connection points: 2
#     Edge 25, Type (0, 1), BuildingBlock: ZUJKAS_clean_linker_0, # of connection points: 2
#     Edge 26, Type (0, 1), BuildingBlock: ZUJKAS_clean_linker_0, # of connection points: 2
#     Edge 27, Type (0, 1), BuildingBlock: ZUJKAS_clean_linker_0, # of connection points: 2
#     Edge 28, Type (0, 1), BuildingBlock: ZUJKAS_clean_linker_0, # of connection points: 2
#     Edge 29, Type (0, 1), BuildingBlock: ZUJKAS_clean_linker_0, # of connection points: 2
#     Edge 30, Type (0, 1), BuildingBlock: ZUJKAS_clean_linker_0, # of connection points: 2
#     Edge 31, Type (0, 1), BuildingBlock: ZUJKAS_clean_linker_0, # of connection points: 2
#     Edge 32, Type (0, 1), BuildingBlock: ZUJKAS_clean_linker_0, # of connection points: 2
#     Edge 33, Type (0, 1), BuildingBlock: ZUJKAS_clean_linker_0, # of connection points: 2
#     Edge 34, Type (0, 1), BuildingBlock: ZUJKAS_clean_linker_0, # of connection points: 2
#     Edge 35, Type (0, 1), BuildingBlock: ZUJKAS_clean_linker_0, # of connection points: 2
# Relax obj value: 0.238
# Max RMSD: 0.191
# Mean RMSD: 0.159
data_MOF--net-dag--node1-OJICUG_clean_sbu_0--node2-BELTOD_clean_linker_0--edge1-ZUJKAS_clean_linker_0
_symmetry_space_group_name_H-M    P1
_symmetry_Int_Tables_number       1
_symmetry_cell_setting            triclinic
loop_
_symmetry_equiv_pos_as_xyz
'x, y, z'
_cell_length_a     50.676011
_cell_length_b     54.106766
_cell_length_c     52.650918
_cell_angle_alpha  94.921166
_cell_angle_beta   90.280827
_cell_angle_gamma 90.18226
loop_
_atom_site_label
_atom_site_type_symbol
_atom_site_fract_x
_atom_site_fract_y
_atom_site_fract_z
_atom_type_partial_charge
Sc0 Sc 0.13248 0.86084 0.03481 0.0
Sc1 Sc 0.14311 0.79649 0.03412 0.0
Sc2 Sc 0.18645 0.83875 0.06839 0.0
O3 O 0.15407 0.83201 0.04573 0.0
C4 C 0.19118 0.88171 0.03066 0.0
C5 C 0.13332 0.82401 0.98382 0.0
C6 C 0.20609 0.79356 0.03026 0.0
C7 C 0.08725 0.82206 0.04563 0.0
C8 C 0.14598 0.87917 0.09273 0.0
C9 C 0.15955 0.79237 0.09212 0.0
O10 O 0.16683 0.88107 0.02473 0.0
O11 O 0.13813 0.80458 0.995 0.0
O12 O 0.21043 0.81273 0.04544 0.0
O13 O 0.09574 0.84397 0.04401 0.0
O14 O 0.16616 0.86542 0.09402 0.0
O15 O 0.14675 0.78488 0.07208 0.0
O16 O 0.13209 0.87958 0.0726 0.0
O17 O 0.1018 0.80301 0.04196 0.0
O18 O 0.17497 0.81104 0.09326 0.0
O19 O 0.13047 0.84527 0.99579 0.0
O20 O 0.20125 0.86761 0.04622 0.0
O21 O 0.18298 0.78551 0.02482 0.0
Sc22 Sc 0.67053 0.65775 0.47112 0.0
Sc23 Sc 0.62773 0.70127 0.50344 0.0
Sc24 Sc 0.6179 0.63713 0.50714 0.0
O25 O 0.63877 0.66543 0.49396 0.0
C26 C 0.62942 0.61608 0.44978 0.0
C27 C 0.64365 0.70259 0.44495 0.0
C28 C 0.57191 0.67456 0.49443 0.0
C29 C 0.69072 0.70495 0.50654 0.0
C30 C 0.67694 0.61717 0.51116 0.0
C31 C 0.61905 0.67653 0.55585 0.0
O32 O 0.64972 0.62955 0.44745 0.0
O33 O 0.6314 0.71124 0.46476 0.0
O34 O 0.58056 0.65324 0.49856 0.0
O35 O 0.69467 0.68528 0.49208 0.0
O36 O 0.65272 0.61759 0.51732 0.0
O37 O 0.62239 0.69537 0.54328 0.0
O38 O 0.68638 0.6307 0.49481 0.0
O39 O 0.66774 0.71294 0.51236 0.0
O40 O 0.61752 0.65452 0.54534 0.0
O41 O 0.65844 0.68365 0.44467 0.0
O42 O 0.61598 0.61682 0.47017 0.0
O43 O 0.5866 0.6937 0.49526 0.0
Sc44 Sc 0.86654 0.22261 0.01149 0.0
Sc45 Sc 0.82096 0.18019 0.98062 0.0
Sc46 Sc 0.87861 0.15821 0.00814 0.0
O47 O 0.85538 0.18704 0.0001 0.0
C48 C 0.92198 0.19821 0.99523 0.0
C49 C 0.84345 0.22786 0.9557 0.0
C50 C 0.86 0.14134 0.95133 0.0
C51 C 0.80428 0.2241 0.02165 0.0
C52 C 0.88182 0.19357 0.05991 0.0
C53 C 0.82106 0.13599 0.01676 0.0
O54 O 0.907 0.21691 -0.00051 0.0
O55 O 0.82879 0.20876 0.95577 0.0
O56 O 0.87624 0.14112 0.96979 0.0
O57 O 0.82749 0.23283 0.02502 0.0
O58 O 0.88334 0.17256 0.04719 0.0
O59 O 0.80911 0.15081 0.00325 0.0
O60 O 0.87602 0.21343 0.04978 0.0
O61 O 0.79912 0.20513 0.0065 0.0
O62 O 0.84593 0.13648 0.01997 0.0
O63 O 0.85844 0.23521 0.97433 0.0
O64 O 0.91424 0.17616 0.99751 0.0
O65 O 0.83902 0.15423 0.95255 0.0
Sc66 Sc 0.37982 0.3486 0.55184 0.0
Sc67 Sc 0.32368 0.32834 0.58337 0.0
Sc68 Sc 0.36761 0.28456 0.55322 0.0
O69 O 0.35704 0.32048 0.56281 0.0
C70 C 0.38095 0.31016 0.50225 0.0
C71 C 0.32178 0.36976 0.54384 0.0
C72 C 0.30492 0.28235 0.54543 0.0
C73 C 0.36404 0.36903 0.60844 0.0
C74 C 0.42364 0.30985 0.56653 0.0
C75 C 0.34703 0.28222 0.61019 0.0
O76 O 0.38328 0.33179 0.51353 0.0
O77 O 0.31085 0.35626 0.55937 0.0
O78 O 0.32807 0.27386 0.54158 0.0
O79 O 0.37891 0.36836 0.58902 0.0
O80 O 0.40847 0.29104 0.56363 0.0
O81 O 0.33255 0.3013 0.60967 0.0
O82 O 0.41594 0.33166 0.56309 0.0
O83 O 0.34335 0.35573 0.60927 0.0
O84 O 0.36114 0.27399 0.59141 0.0
O85 O 0.34638 0.36892 0.53919 0.0
O86 O 0.37525 0.29122 0.51395 0.0
O87 O 0.3003 0.30192 0.55986 0.0
P88 P 0.02927 0.10905 0.3594 0.0
H89 H 0.01232 0.05827 0.3435 0.0
H90 H 0.02992 0.02645 0.31236 0.0
H91 H 0.09541 0.07473 0.29833 0.0
H92 H 0.07744 0.10652 0.32915 0.0
H93 H 0.03504 0.16153 0.37807 0.0
H94 H 0.06925 0.18423 0.40334 0.0
H95 H 0.11139 0.11567 0.4097 0.0
H96 H 0.07743 0.09324 0.38386 0.0
H97 H 0.97357 0.11441 0.34595 0.0
H98 H 0.04836 0.14531 0.32582 0.0
O99 O 0.00774 0.09726 0.37902 0.0
H100 H 0.95157 0.13671 0.31343 0.0
H101 H 0.02649 0.16799 0.29352 0.0
C102 C 0.04386 0.08453 0.33897 0.0
C103 C 0.03069 0.06181 0.33402 0.0
C104 C 0.0408 0.04363 0.31624 0.0
C105 C 0.0641 0.04804 0.30288 0.0
C106 C 0.07731 0.07082 0.30811 0.0
C107 C 0.0672 0.08894 0.32589 0.0
C108 C 0.05418 0.12584 0.37837 0.0
C109 C 0.05179 0.15143 0.38467 0.0
C110 C 0.07124 0.16435 0.39936 0.0
C111 C 0.09323 0.15181 0.40834 0.0
C112 C 0.09505 0.12599 0.40261 0.0
C113 C 0.07561 0.11313 0.38789 0.0
C114 C 0.01252 0.12852 0.33853 0.0
C115 C 0.98517 0.12647 0.33495 0.0
C116 C 0.9726 0.13928 0.31638 0.0
C117 C 0.98728 0.15413 0.30088 0.0
C118 C 0.01465 0.15655 0.30499 0.0
C119 C 0.02716 0.14375 0.32357 0.0
P120 P 0.48407 0.60928 0.86492 0.0
H121 H 0.54037 0.61454 0.85425 0.0
H122 H 0.56402 0.63414 0.82088 0.0
H123 H 0.48999 0.6603 0.79236 0.0
H124 H 0.46655 0.6409 0.826 0.0
H125 H 0.43693 0.59574 0.89205 0.0
H126 H 0.40286 0.62013 0.91524 0.0
H127 H 0.44316 0.6876 0.89941 0.0
H128 H 0.47745 0.66304 0.87677 0.0
H129 H 0.50281 0.55924 0.84979 0.0
H130 H 0.43397 0.60326 0.83713 0.0
O131 O 0.50491 0.59887 0.88616 0.0
H132 H 0.4848 0.52535 0.82096 0.0
H133 H 0.41585 0.56951 0.80835 0.0
C134 C 0.50177 0.62664 0.84281 0.0
C135 C 0.52929 0.62492 0.84114 0.0
C136 C 0.54276 0.63597 0.82194 0.0
C137 C 0.52888 0.64879 0.80398 0.0
C138 C 0.50131 0.65092 0.80612 0.0
C139 C 0.48787 0.63979 0.82528 0.0
C140 C 0.45923 0.6276 0.882 0.0
C141 C 0.43832 0.61579 0.89345 0.0
C142 C 0.41883 0.62976 0.90664 0.0
C143 C 0.42011 0.65583 0.9089 0.0
C144 C 0.44162 0.66756 0.89807 0.0
C145 C 0.4611 0.65354 0.88487 0.0
C146 C 0.46938 0.58345 0.84613 0.0
C147 C 0.4836 0.56142 0.84118 0.0
C148 C 0.47339 0.54217 0.82455 0.0
C149 C 0.44883 0.54472 0.81252 0.0
C150 C 0.43458 0.56681 0.8177 0.0
C151 C 0.44491 0.58611 0.83416 0.0
P152 P 0.76368 0.87667 0.19086 0.0
H153 H 0.75083 0.9287 0.20404 0.0
H154 H 0.73568 0.96115 0.17825 0.0
H155 H 0.72153 0.90634 0.11498 0.0
H156 H 0.73686 0.87377 0.1411 0.0
H157 H 0.77229 0.84831 0.23424 0.0
H158 H 0.74356 0.82288 0.25841 0.0
H159 H 0.67838 0.83698 0.20855 0.0
H160 H 0.70753 0.86225 0.18398 0.0
H161 H 0.79082 0.8884 0.14446 0.0
H162 H 0.78735 0.82704 0.19166 0.0
O163 O 0.78271 0.89224 0.21276 0.0
H164 H 0.82536 0.86737 0.119 0.0
H165 H 0.8229 0.80651 0.16678 0.0
C166 C 0.74577 0.89901 0.17416 0.0
C167 C 0.7439 0.92354 0.18483 0.0
C168 C 0.73498 0.94209 0.1701 0.0
C169 C 0.72778 0.93635 0.14444 0.0
C170 C 0.72732 0.91134 0.13458 0.0
C171 C 0.73604 0.89275 0.14946 0.0
C172 C 0.74204 0.85721 0.2074 0.0
C173 C 0.7519 0.84576 0.22831 0.0
C174 C 0.73549 0.83113 0.24203 0.0
C175 C 0.70879 0.82789 0.23525 0.0
C176 C 0.6989 0.83926 0.21417 0.0
C177 C 0.71553 0.85366 0.20014 0.0
C178 C 0.78573 0.85902 0.16957 0.0
C179 C 0.79677 0.87007 0.14891 0.0
C180 C 0.81665 0.85809 0.13438 0.0
C181 C 0.82653 0.83524 0.14082 0.0
C182 C 0.81538 0.82403 0.16133 0.0
C183 C 0.79503 0.83579 0.17553 0.0
P184 P 0.78762 0.32085 0.62826 0.0
H185 H 0.82348 0.35286 0.60203 0.0
H186 H 0.81855 0.39491 0.58854 0.0
H187 H 0.74235 0.4006 0.625 0.0
H188 H 0.74724 0.35875 0.63809 0.0
H189 H 0.82025 0.2843 0.65112 0.0
H190 H 0.83528 0.28043 0.69479 0.0
H191 H 0.79716 0.3497 0.71918 0.0
H192 H 0.78206 0.35335 0.67552 0.0
H193 H 0.7557 0.3058 0.58371 0.0
H194 H 0.74706 0.30881 0.66536 0.0
O195 O 0.80751 0.30522 0.60748 0.0
H196 H 0.70897 0.29544 0.57831 0.0
H197 H 0.70046 0.298 0.66014 0.0
C198 C 0.78546 0.35252 0.62051 0.0
C199 C 0.80579 0.36325 0.60718 0.0
C200 C 0.80303 0.3873 0.59963 0.0
C201 C 0.77989 0.40088 0.60539 0.0
C202 C 0.76015 0.39039 0.61979 0.0
C203 C 0.76295 0.36647 0.62733 0.0
C204 C 0.80042 0.31929 0.66 0.0
C205 C 0.81547 0.29883 0.66579 0.0
C206 C 0.82412 0.29669 0.69074 0.0
C207 C 0.81753 0.31485 0.71039 0.0
C208 C 0.80248 0.33538 0.70446 0.0
C209 C 0.79399 0.33757 0.67946 0.0
C210 C 0.75495 0.30779 0.62487 0.0
C211 C 0.74391 0.30349 0.60045 0.0
C212 C 0.71717 0.29754 0.59741 0.0
C213 C 0.70092 0.29596 0.61881 0.0
C214 C 0.71235 0.29934 0.64328 0.0
C215 C 0.73912 0.30531 0.64628 0.0
P216 P 0.50924 0.3736 0.1947 0.0
H217 H 0.52249 0.42529 0.18787 0.0
H218 H 0.53834 0.4597 0.21747 0.0
H219 H 0.53889 0.41108 0.27844 0.0
H220 H 0.523 0.3771 0.24903 0.0
H221 H 0.51876 0.35581 0.14145 0.0
H222 H 0.5572 0.33698 0.11957 0.0
H223 H 0.59947 0.33995 0.19121 0.0
H224 H 0.56106 0.35895 0.21296 0.0
H225 H 0.45563 0.3757 0.21377 0.0
H226 H 0.52238 0.32678 0.21679 0.0
O227 O 0.4893 0.38489 0.17321 0.0
H228 H 0.43308 0.35328 0.2457 0.0
H229 H 0.49996 0.3043 0.24873 0.0
C230 C 0.5209 0.39884 0.21638 0.0
C231 C 0.52588 0.42215 0.20766 0.0
C232 C 0.5351 0.44172 0.22453 0.0
C233 C 0.53954 0.43816 0.25036 0.0
C234 C 0.53508 0.41457 0.2588 0.0
C235 C 0.526 0.39508 0.24195 0.0
C236 C 0.53714 0.35892 0.17878 0.0
C237 C 0.53629 0.35244 0.15245 0.0
C238 C 0.55828 0.34178 0.13995 0.0
C239 C 0.58133 0.3371 0.15369 0.0
C240 C 0.58192 0.34322 0.18017 0.0
C241 C 0.56003 0.35415 0.19259 0.0
C242 C 0.49057 0.35282 0.21269 0.0
C243 C 0.46508 0.35963 0.22068 0.0
C244 C 0.4522 0.34678 0.23894 0.0
C245 C 0.46481 0.32708 0.2498 0.0
C246 C 0.48985 0.31952 0.24082 0.0
C247 C 0.50263 0.33229 0.22241 0.0
P248 P 0.28827 0.19054 0.93779 0.0
H249 H 0.30346 0.16426 0.98195 0.0
H250 H 0.30129 0.12055 0.99022 0.0
H251 H 0.2733 0.10199 0.9132 0.0
H252 H 0.27472 0.14582 0.90546 0.0
H253 H 0.27873 0.22967 0.90399 0.0
H254 H 0.29491 0.23667 0.86157 0.0
H255 H 0.34419 0.17169 0.86229 0.0
H256 H 0.32772 0.16468 0.90465 0.0
H257 H 0.25642 0.21155 0.98037 0.0
H258 H 0.24447 0.18623 0.90127 0.0
O259 O 0.30582 0.20717 0.96011 0.0
H260 H 0.20909 0.21885 0.98515 0.0
H261 H 0.19726 0.1943 0.90555 0.0
C262 C 0.28972 0.15817 0.94295 0.0
C263 C 0.29723 0.15072 0.96676 0.0
C264 C 0.29608 0.12569 0.97141 0.0
C265 C 0.2872 0.10771 0.95235 0.0
C266 C 0.27999 0.11534 0.92839 0.0
C267 C 0.28102 0.14036 0.92384 0.0
C268 C 0.30127 0.19616 0.90705 0.0
C269 C 0.29293 0.21687 0.89497 0.0
C270 C 0.30239 0.22098 0.87082 0.0
C271 C 0.32066 0.20458 0.85846 0.0
C272 C 0.32974 0.18435 0.8711 0.0
C273 C 0.32031 0.18033 0.89531 0.0
C274 C 0.25401 0.19894 0.94033 0.0
C275 C 0.24366 0.20814 0.96387 0.0
C276 C 0.21657 0.21238 0.96653 0.0
C277 C 0.1993 0.20729 0.9457 0.0
C278 C 0.2099 0.19824 0.92206 0.0
C279 C 0.23695 0.19388 0.91949 0.0
P280 P 0.24354 0.60685 0.34485 0.0
H281 H 0.22839 0.55454 0.33978 0.0
H282 H 0.21767 0.52598 0.37147 0.0
H283 H 0.21458 0.58737 0.42958 0.0
H284 H 0.22561 0.61597 0.39756 0.0
H285 H 0.25487 0.65339 0.32387 0.0
H286 H 0.22763 0.6818 0.30212 0.0
H287 H 0.15804 0.64 0.31932 0.0
H288 H 0.18585 0.61122 0.34098 0.0
H289 H 0.2977 0.58955 0.34693 0.0
H290 H 0.25272 0.65225 0.37854 0.0
O291 O 0.25298 0.58955 0.31872 0.0
H292 H 0.33692 0.60588 0.36976 0.0
H293 H 0.29193 0.66867 0.40172 0.0
C294 C 0.22823 0.58729 0.36644 0.0
C295 C 0.22473 0.56199 0.35918 0.0
C296 C 0.2184 0.54565 0.37735 0.0
C297 C 0.21557 0.55437 0.40313 0.0
C298 C 0.217 0.58006 0.40993 0.0
C299 C 0.22322 0.59642 0.39166 0.0
C300 C 0.22232 0.63054 0.33451 0.0
C301 C 0.23367 0.65079 0.32376 0.0
C302 C 0.21797 0.66711 0.31135 0.0
C303 C 0.19056 0.6633 0.30908 0.0
C304 C 0.17909 0.64342 0.3207 0.0
C305 C 0.19491 0.62706 0.33323 0.0
C306 C 0.27254 0.62 0.36057 0.0
C307 C 0.29635 0.60697 0.3586 0.0
C308 C 0.31868 0.61622 0.37185 0.0
C309 C 0.3175 0.63858 0.38752 0.0
C310 C 0.29352 0.65158 0.38951 0.0
C311 C 0.27113 0.64223 0.37629 0.0
P312 P 0.91591 0.86513 0.73194 0.0
H313 H 0.86939 0.89199 0.75163 0.0
H314 H 0.86271 0.93523 0.76723 0.0
H315 H 0.94067 0.95334 0.74131 0.0
H316 H 0.94734 0.90975 0.72608 0.0
H317 H 0.91713 0.81596 0.70547 0.0
H318 H 0.90026 0.79954 0.66393 0.0
H319 H 0.88355 0.87408 0.64505 0.0
H320 H 0.9005 0.89041 0.68671 0.0
H321 H 0.94071 0.87916 0.78023 0.0
H322 H 0.96288 0.83863 0.70945 0.0
O323 O 0.89529 0.84946 0.74931 0.0
H324 H 0.98338 0.87028 0.79859 0.0
H325 H 0.00591 0.82936 0.72798 0.0
C326 C 0.90909 0.89766 0.73833 0.0
C327 C 0.88488 0.90533 0.74894 0.0
C328 C 0.88101 0.93014 0.75766 0.0
C329 C 0.9013 0.94769 0.75579 0.0
C330 C 0.92485 0.94018 0.7434 0.0
C331 C 0.92866 0.91533 0.73464 0.0
C332 C 0.9101 0.85435 0.69917 0.0
C333 C 0.91064 0.82882 0.69207 0.0
C334 C 0.90105 0.81947 0.66826 0.0
C335 C 0.89044 0.83553 0.65128 0.0
C336 C 0.89141 0.86127 0.65786 0.0
C337 C 0.90119 0.87061 0.68165 0.0
C338 C 0.94862 0.85962 0.74351 0.0
C339 C 0.95494 0.86859 0.76852 0.0
C340 C 0.97943 0.86361 0.77895 0.0
C341 C 0.99811 0.8493 0.76463 0.0
C342 C 0.99186 0.84043 0.73942 0.0
C343 C 0.96727 0.84569 0.72885 0.0
H344 H 0.16899 0.88252 0.14021 0.0
H345 H 0.1557 0.90887 0.178 0.0
H346 H 0.09245 0.93887 0.13516 0.0
H347 H 0.10525 0.91242 0.09739 0.0
H348 H 0.15308 0.95989 0.18478 0.0
H349 H 0.05463 0.91822 0.19823 0.0
H350 H 0.07931 0.90333 0.17763 0.0
H351 H 0.05934 0.92778 0.16675 0.0
C352 C 0.15218 0.89464 0.13879 0.0
C353 C 0.13815 0.89525 0.11571 0.0
C354 C 0.14462 0.90968 0.16044 0.0
C355 C 0.12284 0.92551 0.15949 0.0
C356 C 0.10896 0.92637 0.13647 0.0
H357 H 0.08336 0.05631 0.25597 0.0
H358 H 0.09892 0.02571 0.22266 0.0
C359 C 0.11644 0.91133 0.11483 0.0
C360 C 0.11513 0.94179 0.18231 0.0
H361 H 0.06332 0.95721 0.22168 0.0
C362 C 0.13353 0.95918 0.19299 0.0
C363 C 0.08976 0.94056 0.19324 0.0
C364 C 0.0697 0.9213 0.18355 0.0
C365 C 0.12694 0.97597 0.21379 0.0
C366 C 0.10112 0.9756 0.22385 0.0
C367 C 0.08302 0.95764 0.21375 0.0
C368 C 0.09227 0.99411 0.2444 0.0
C369 C 0.14772 0.99387 0.22484 0.0
C370 C 0.08278 0.98646 0.26748 0.0
C371 C 0.07379 0.00394 0.28658 0.0
C372 C 0.07405 0.02938 0.28288 0.0
C373 C 0.08343 0.03692 0.25965 0.0
C374 C 0.09234 0.01945 0.24058 0.0
H375 H 0.16795 0.98708 0.22019 0.0
H376 H 0.14523 0.01195 0.21665 0.0
H377 H 0.14591 0.997 0.24588 0.0
H378 H 0.08243 0.96696 0.27075 0.0
H379 H 0.06684 0.99755 0.30432 0.0
H380 H 0.62352 0.64174 0.59013 0.0
H381 H 0.61272 0.64621 0.63539 0.0
H382 H 0.59529 0.72358 0.6305 0.0
H383 H 0.60616 0.71936 0.58494 0.0
H384 H 0.63298 0.68328 0.67787 0.0
H385 H 0.52558 0.68829 0.65517 0.0
H386 H 0.54908 0.67558 0.63196 0.0
H387 H 0.54811 0.70838 0.6403 0.0
C388 C 0.61766 0.65981 0.59865 0.0
C389 C 0.61544 0.68015 0.58383 0.0
C390 C 0.61162 0.66233 0.62456 0.0
C391 C 0.60304 0.68514 0.63614 0.0
C392 C 0.60178 0.70578 0.62177 0.0
H393 H 0.52172 0.69322 0.78338 0.0
H394 H 0.54207 0.70689 0.7448 0.0
C395 C 0.60806 0.70334 0.5958 0.0
C396 C 0.59372 0.68651 0.66278 0.0
H397 H 0.53736 0.68453 0.6977 0.0
C398 C 0.61211 0.68397 0.68236 0.0
C399 C 0.56651 0.68755 0.66849 0.0
C400 C 0.54602 0.69001 0.64797 0.0
C401 C 0.60391 0.6816 0.70747 0.0
C402 C 0.57659 0.68107 0.71291 0.0
C403 C 0.55829 0.68488 0.69352 0.0
C404 C 0.56641 0.67424 0.73776 0.0
C405 C 0.62461 0.6794 0.72784 0.0
C406 C 0.57332 0.65138 0.74662 0.0
C407 C 0.56177 0.64357 0.76859 0.0
C408 C 0.5428 0.65831 0.78202 0.0
C409 C 0.53616 0.68139 0.77335 0.0
C410 C 0.54785 0.68926 0.7514 0.0
H411 H 0.64317 0.68896 0.72313 0.0
H412 H 0.61766 0.68735 0.74677 0.0
H413 H 0.62928 0.65952 0.72911 0.0
H414 H 0.58692 0.63909 0.736 0.0
H415 H 0.56691 0.62547 0.77443 0.0
H416 H 0.83964 0.09857 0.04358 0.0
H417 H 0.81424 0.06719 0.0634 0.0
H418 H 0.74182 0.09929 0.03843 0.0
H419 H 0.76712 0.13069 0.01804 0.0
H420 H 0.77693 0.07408 0.10146 0.0
H421 H 0.7337 0.02573 0.01329 0.0
H422 H 0.7609 0.04727 0.01256 0.0
H423 H 0.72798 0.05856 0.01816 0.0
C424 C 0.81832 0.09902 0.04219 0.0
C425 C 0.80546 0.11714 0.02909 0.0
C426 C 0.80382 0.08104 0.05357 0.0
C427 C 0.77618 0.08075 0.05213 0.0
C428 C 0.76317 0.09891 0.03935 0.0
H429 H 0.7009 0.98027 0.15299 0.0
H430 H 0.70579 0.01702 0.12916 0.0
C431 C 0.77769 0.11691 0.02783 0.0
C432 C 0.76132 0.06151 0.06453 0.0
H433 H 0.72345 0.00951 0.05214 0.0
C434 C 0.76494 0.06012 0.09078 0.0
C435 C 0.74581 0.04332 0.05043 0.0
C436 C 0.74193 0.04355 0.02202 0.0
C437 C 0.75444 0.04044 0.10321 0.0
C438 C 0.7393 0.02195 0.08905 0.0
C439 C 0.7348 0.02386 0.06296 0.0
C440 C 0.73116 0.99897 0.10033 0.0
C441 C 0.76104 0.03885 0.13103 0.0
C442 C 0.74225 0.97629 0.09099 0.0
C443 C 0.73926 0.95529 0.10434 0.0
C444 C 0.72515 0.95662 0.12735 0.0
C445 C 0.71218 0.97882 0.13551 0.0
C446 C 0.71502 -0.00019 0.12198 0.0
H447 H 0.77703 0.05197 0.13772 0.0
H448 H 0.74328 0.04348 0.14269 0.0
H449 H 0.7673 0.01978 0.13454 0.0
H450 H 0.75474 0.97522 0.07428 0.0
H451 H 0.7497 0.93857 0.09766 0.0
H452 H 0.44866 0.26628 0.57495 0.0
H453 H 0.49527 0.26049 0.58511 0.0
H454 H 0.50867 0.33917 0.58456 0.0
H455 H 0.4623 0.34521 0.57419 0.0
H456 H 0.545 0.30977 0.55555 0.0
H457 H 0.53422 0.27916 0.65312 0.0
H458 H 0.51491 0.2622 0.62871 0.0
H459 H 0.50801 0.29437 0.63718 0.0
C460 C 0.46145 0.28241 0.57714 0.0
C461 C 0.45165 0.30623 0.57372 0.0
C462 C 0.48807 0.27905 0.58308 0.0
C463 C 0.50534 0.29943 0.58584 0.0
C464 C 0.49563 0.3232 0.58258 0.0
H465 H 0.66201 0.32013 0.64672 0.0
H466 H 0.61449 0.3183 0.63882 0.0
C467 C 0.46907 0.3266 0.57666 0.0
C468 C 0.53377 0.29605 0.59114 0.0
H469 H 0.5773 0.27853 0.63592 0.0
C470 C 0.55209 0.30285 0.57307 0.0
C471 C 0.54289 0.28719 0.6141 0.0
C472 C 0.52406 0.28048 0.63454 0.0
C473 C 0.57934 0.30118 0.57739 0.0
C474 C 0.58848 0.29211 0.60025 0.0
C475 C 0.57018 0.28522 0.6183 0.0
C476 C 0.61701 0.29113 0.60632 0.0
C477 C 0.59811 0.30987 0.55781 0.0
C478 C 0.63409 0.27591 0.59109 0.0
C479 C 0.66131 0.27681 0.59562 0.0
C480 C 0.6719 0.29288 0.61556 0.0
C481 C 0.65454 0.30732 0.63141 0.0
C482 C 0.62737 0.3064 0.62686 0.0
H483 H 0.58798 0.32111 0.54403 0.0
H484 H 0.61437 0.32111 0.56716 0.0
H485 H 0.60697 0.2935 0.54694 0.0
H486 H 0.62641 0.26365 0.57542 0.0
H487 H 0.6741 0.26517 0.58332 0.0
H488 H 0.65149 0.60995 0.40217 0.0
H489 H 0.63648 0.58248 0.36562 0.0
H490 H 0.57316 0.55609 0.41068 0.0
H491 H 0.58769 0.58363 0.44721 0.0
H492 H 0.6314 0.53103 0.36149 0.0
H493 H 0.53487 0.57575 0.34699 0.0
H494 H 0.56076 0.5906 0.36649 0.0
H495 H 0.53987 0.56765 0.37901 0.0
C496 C 0.63432 0.59837 0.40434 0.0
C497 C 0.62075 0.59911 0.42767 0.0
C498 C 0.62578 0.5827 0.3834 0.0
C499 C 0.60345 0.56761 0.38533 0.0
C500 C 0.59008 0.56803 0.40862 0.0
H501 H 0.52176 0.45042 0.29859 0.0
H502 H 0.53831 0.48307 0.32962 0.0
C503 C 0.59856 0.58368 0.42956 0.0
C504 C 0.59455 0.55078 0.36327 0.0
H505 H 0.5411 0.53554 0.32536 0.0
C506 C 0.61179 0.53217 0.35335 0.0
C507 C 0.56898 0.55242 0.35268 0.0
C508 C 0.55013 0.57283 0.36166 0.0
C509 C 0.60371 0.51446 0.33379 0.0
C510 C 0.57787 0.51568 0.32373 0.0
C511 C 0.56088 0.53467 0.3332 0.0
C512 C 0.56759 0.49657 0.30439 0.0
C513 C 0.6225 0.49403 0.32471 0.0
C514 C 0.57833 0.49366 0.27981 0.0
C515 C 0.56897 0.47494 0.26203 0.0
C516 C 0.54874 0.45885 0.26861 0.0
C517 C 0.53766 0.46226 0.29309 0.0
C518 C 0.54695 0.48098 0.31078 0.0
H519 H 0.63976 0.49305 0.33768 0.0
H520 H 0.61227 0.47578 0.32312 0.0
H521 H 0.6299 0.49747 0.30553 0.0
H522 H 0.59404 0.50576 0.27444 0.0
H523 H 0.57795 0.4727 0.24335 0.0
H524 H 0.94662 0.24179 0.98541 0.0
H525 H 0.99336 0.24782 0.97561 0.0
H526 H 0.00726 0.16969 0.97949 0.0
H527 H 0.96089 0.16337 0.98921 0.0
H528 H 0.04263 0.20453 0.00994 0.0
H529 H 0.03345 0.22252 0.90763 0.0
H530 H 0.012 0.23924 0.9302 0.0
H531 H 0.0082 0.20633 0.92386 0.0
C532 C 0.95957 0.22585 0.98402 0.0
C533 C 0.94992 0.20209 0.98814 0.0
C534 C 0.98624 0.22934 0.97835 0.0
C535 C 0.00364 0.20916 0.97674 0.0
C536 C 0.99408 0.18547 0.98063 0.0
H537 H 0.16004 0.17685 0.92503 0.0
H538 H 0.11257 0.18041 0.93218 0.0
C539 C 0.96751 0.18193 0.98614 0.0
C540 C 0.03209 0.21259 0.97189 0.0
H541 H 0.07637 0.22251 0.92511 0.0
C542 C 0.05006 0.20873 0.99149 0.0
C543 C 0.04156 0.21787 0.94774 0.0
C544 C 0.02292 0.22163 0.926 0.0
C545 C 0.07738 0.20964 0.98747 0.0
C546 C 0.08689 0.21466 0.96324 0.0
C547 C 0.06893 0.21884 0.9437 0.0
C548 C 0.11544 0.21397 0.95747 0.0
C549 C 0.0959 0.20436 0.00886 0.0
C550 C 0.13268 0.23196 0.96899 0.0
C551 C 0.15986 0.23014 0.96476 0.0
C552 C 0.17028 0.21024 0.94897 0.0
C553 C 0.15275 0.19261 0.937 0.0
C554 C 0.1256 0.19453 0.94115 0.0
H555 H 0.08535 0.19704 0.02509 0.0
H556 H 0.11114 0.19074 0.00191 0.0
H557 H 0.10619 0.22175 0.01597 0.0
H558 H 0.12512 0.24725 0.98145 0.0
H559 H 0.17272 0.24426 0.97394 0.0
H560 H 0.26866 0.37828 0.54941 0.0
H561 H 0.24152 0.40737 0.52767 0.0
H562 H 0.30996 0.43026 0.48726 0.0
H563 H 0.33723 0.40118 0.50858 0.0
H564 H 0.24687 0.45907 0.5279 0.0
H565 H 0.25577 0.41306 0.4303 0.0
H566 H 0.26417 0.39774 0.45839 0.0
H567 H 0.28722 0.4187 0.44556 0.0
C568 C 0.27797 0.38941 0.53581 0.0
C569 C 0.30517 0.38727 0.53068 0.0
C570 C 0.26239 0.40603 0.52344 0.0
C571 C 0.27367 0.42065 0.5056 0.0
C572 C 0.30078 0.41875 0.5006 0.0
H573 H 0.24374 0.55693 0.44743 0.0
H574 H 0.25097 0.5238 0.47508 0.0
C575 C 0.31637 0.40219 0.51293 0.0
C576 C 0.25742 0.43847 0.49259 0.0
H577 H 0.24205 0.45563 0.43354 0.0
C578 C 0.24541 0.45815 0.50728 0.0
C579 C 0.25503 0.43691 0.46575 0.0
C580 C 0.26599 0.41531 0.44908 0.0
C581 C 0.23251 0.47722 0.49569 0.0
C582 C 0.23203 0.47669 0.46879 0.0
C583 C 0.24258 0.45616 0.45419 0.0
C584 C 0.22338 0.49821 0.45526 0.0
C585 C 0.21996 0.49794 0.51239 0.0
C586 C 0.20515 0.49504 0.43506 0.0
C587 C 0.20104 0.51401 0.41906 0.0
C588 C 0.21519 0.53644 0.42294 0.0
C589 C 0.23216 0.54009 0.44416 0.0
C590 C 0.23631 0.52111 0.46006 0.0
H591 H 0.21351 0.49141 0.53082 0.0
H592 H 0.23468 0.51297 0.51669 0.0
H593 H 0.20268 0.50577 0.50286 0.0
H594 H 0.19503 0.47747 0.43097 0.0
H595 H 0.1877 0.51074 0.40298 0.0
H596 H 0.13094 0.78147 0.95142 0.0
H597 H 0.12044 0.77803 0.90583 0.0
H598 H 0.11668 0.85776 0.9073 0.0
H599 H 0.1274 0.86144 0.95256 0.0
H600 H 0.07401 0.79453 0.88755 0.0
H601 H 0.15619 0.84021 0.84135 0.0
H602 H 0.15909 0.82942 0.8728 0.0
H603 H 0.14443 0.8591 0.86858 0.0
C604 C 0.1284 0.7983 0.94194 0.0
C605 C 0.12979 0.82174 0.95575 0.0
C606 C 0.12248 0.79628 0.91587 0.0
C607 C 0.1182 0.81763 0.90308 0.0
C608 C 0.12057 0.84103 0.9166 0.0
H609 H 0.03086 0.87966 0.79439 0.0
H610 H 0.0654 0.86698 0.82292 0.0
C611 C 0.12639 0.84309 0.94262 0.0
C612 C 0.10751 0.81573 0.87675 0.0
H613 H 0.11346 0.84108 0.8199 0.0
C614 C 0.08296 0.80406 0.87243 0.0
C615 C 0.11928 0.82812 0.8571 0.0
C616 C 0.14635 0.83969 0.86011 0.0
C617 C 0.06871 0.80638 0.84987 0.0
C618 C 0.07965 0.82035 0.83092 0.0
C619 C 0.1051 0.83043 0.83446 0.0
C620 C 0.06323 0.82804 0.80966 0.0
C621 C 0.04117 0.79563 0.84749 0.0
C622 C 0.05156 0.81053 0.79178 0.0
C623 C 0.03151 0.81772 0.7756 0.0
C624 C 0.02306 0.84253 0.77705 0.0
C625 C 0.03662 0.86033 0.79323 0.0
C626 C 0.0565 0.85313 0.80941 0.0
H627 H 0.03428 0.7886 0.86554 0.0
H628 H 0.02696 0.80979 0.84187 0.0
H629 H 0.04088 0.77992 0.8325 0.0
H630 H 0.05685 0.79112 0.79137 0.0
H631 H 0.02145 0.80361 0.76328 0.0
H632 H 0.82661 0.12917 0.91095 0.0
H633 H 0.83478 0.09978 0.87386 0.0
H634 H 0.91389 0.08828 0.90084 0.0
H635 H 0.90586 0.11717 0.93815 0.0
H636 H 0.87299 0.09743 0.83489 0.0
H637 H 0.8818 0.01863 0.89526 0.0
H638 H 0.86891 0.04841 0.90718 0.0
H639 H 0.90395 0.04382 0.90437 0.0
C640 C 0.84581 0.12051 0.90894 0.0
C641 C 0.86544 0.12524 0.92775 0.0
C642 C 0.85044 0.10377 0.88769 0.0
C643 C 0.87475 0.09154 0.8849 0.0
C644 C 0.89479 0.09713 0.90297 0.0
H645 H 0.93883 0.97303 0.78481 0.0
H646 H 0.93298 0.01067 0.81317 0.0
C647 C 0.89015 0.11369 0.92426 0.0
C648 C 0.87885 0.07208 0.86379 0.0
H649 H 0.89318 0.01065 0.85176 0.0
C650 C 0.87732 0.07842 0.8385 0.0
C651 C 0.88425 0.04728 0.86863 0.0
C652 C 0.88458 0.03901 0.89531 0.0
C653 C 0.88176 0.06065 0.81791 0.0
C654 C 0.88768 0.03602 0.82286 0.0
C655 C 0.88892 0.02967 0.8481 0.0
C656 C 0.89235 0.01616 0.80232 0.0
C657 C 0.88059 0.06833 0.79107 0.0
C658 C 0.87158 0.00716 0.78638 0.0
C659 C 0.87487 0.98564 0.77002 0.0
C660 C 0.89898 0.97276 0.76944 0.0
C661 C 0.92013 0.98265 0.78449 0.0
C662 C 0.9168 0.00409 0.80084 0.0
H663 H 0.88101 0.08882 0.79066 0.0
H664 H 0.89733 0.06024 0.77967 0.0
H665 H 0.86201 0.06124 0.78182 0.0
H666 H 0.85244 0.01604 0.78751 0.0
H667 H 0.85828 0.97857 0.75852 0.0
H668 H 0.39901 0.34498 0.47194 0.0
H669 H 0.40713 0.34026 0.42634 0.0
H670 H 0.38105 0.2641 0.42306 0.0
H671 H 0.3733 0.26846 0.46917 0.0
H672 H 0.42632 0.26892 0.39668 0.0
H673 H 0.35451 0.33811 0.36856 0.0
H674 H 0.37603 0.35146 0.39318 0.0
H675 H 0.3542 0.32642 0.39966 0.0
C676 C 0.39478 0.32721 0.46162 0.0
C677 C 0.38536 0.30712 0.47431 0.0
C678 C 0.39926 0.32462 0.43543 0.0
C679 C 0.39411 0.30201 0.42116 0.0
C680 C 0.3849 0.2818 0.43368 0.0
H681 H 0.41344 0.31317 0.25701 0.0
H682 H 0.39365 0.30116 0.29657 0.0
C683 C 0.38051 0.28433 0.46003 0.0
C684 C 0.39971 0.29949 0.39343 0.0
H685 H 0.39076 0.32912 0.33945 0.0
C686 C 0.41817 0.28176 0.38401 0.0
C687 C 0.3886 0.31578 0.3767 0.0
C688 C 0.36701 0.3338 0.385 0.0
C689 C 0.42723 0.2811 0.35879 0.0
C690 C 0.41805 0.29906 0.34283 0.0
C691 C 0.39817 0.31558 0.35173 0.0
C692 C 0.43036 0.30267 0.31786 0.0
C693 C 0.44683 0.26141 0.34968 0.0
C694 C 0.45759 0.30725 0.31656 0.0
C695 C 0.46891 0.3139 0.294 0.0
C696 C 0.45318 0.31653 0.27235 0.0
C697 C 0.42602 0.31134 0.27343 0.0
C698 C 0.41472 0.30444 0.29598 0.0
H699 H 0.44399 0.24432 0.35966 0.0
H700 H 0.44513 0.25653 0.32882 0.0
H701 H 0.46711 0.26834 0.35408 0.0
H702 H 0.46997 0.30685 0.33334 0.0
H703 H 0.48978 0.3183 0.29396 0.0
H704 H 0.24278 0.89403 0.04255 0.0
H705 H 0.26853 0.92821 0.02741 0.0
H706 H 0.2033 0.94662 0.97973 0.0
H707 H 0.17764 0.91252 0.9943 0.0
H708 H 0.25318 0.94852 0.95591 0.0
H709 H 0.25176 0.0009 0.05178 0.0
H710 H 0.26509 0.97006 0.04999 0.0
H711 H 0.23064 0.97444 0.04377 0.0
C712 C 0.23401 0.90518 0.02863 0.0
C713 C 0.20798 0.90068 0.0199 0.0
C714 C 0.24873 0.92476 0.02011 0.0
C715 C 0.23763 0.94015 0.00278 0.0
C716 C 0.21218 0.93501 0.99319 0.0
H717 H 0.24677 0.07609 0.93757 0.0
H718 H 0.24009 0.03367 0.94847 0.0
C719 C 0.19749 0.91552 0.00165 0.0
C720 C 0.25163 0.96247 0.99542 0.0
H721 H 0.26951 0.02115 0.01816 0.0
C722 C 0.25714 0.96429 0.96955 0.0
C723 C 0.25682 0.98297 0.01331 0.0
C724 C 0.25067 0.98223 0.04126 0.0
C725 C 0.26679 0.9864 0.96094 0.0
C726 C 0.27063 0.00729 0.97863 0.0
C727 C 0.2665 0.00507 0.00467 0.0
C728 C 0.27624 0.03222 0.97033 0.0
C729 C 0.27228 0.98737 0.93291 0.0
C730 C 0.29863 0.04562 0.9793 0.0
C731 C 0.30259 0.06996 0.97302 0.0
C732 C 0.28405 0.08138 0.95786 0.0
C733 C 0.26175 0.06774 0.94879 0.0
C734 C 0.25788 0.04345 0.955 0.0
H735 H 0.27652 0.96863 0.92355 0.0
H736 H 0.25461 0.99462 0.92349 0.0
H737 H 0.28922 -0.00018 0.9298 0.0
H738 H 0.31291 0.03732 0.99134 0.0
H739 H 0.32008 0.07987 0.98013 0.0
H740 H 0.54617 0.71508 0.47827 0.0
H741 H 0.49994 0.71749 0.46485 0.0
H742 H 0.48783 0.6416 0.48132 0.0
H743 H 0.53359 0.63901 0.49495 0.0
H744 H 0.47645 0.68792 0.4251 0.0
H745 H 0.42451 0.67666 0.51549 0.0
H746 H 0.45895 0.68525 0.51442 0.0
H747 H 0.44909 0.65324 0.50885 0.0
C748 C 0.53357 0.69901 0.47938 0.0
C749 C 0.54364 0.67684 0.48771 0.0
C750 C 0.50718 0.70044 0.4717 0.0
C751 C 0.49038 0.67987 0.47252 0.0
C752 C 0.50028 0.65789 0.48112 0.0
H753 H 0.35192 0.61205 0.41428 0.0
H754 H 0.39242 0.62675 0.43603 0.0
C755 C 0.52658 0.65639 0.48871 0.0
C756 C 0.46311 0.68034 0.46241 0.0
H757 H 0.39968 0.66573 0.47679 0.0
C758 C 0.45951 0.68366 0.43649 0.0
C759 C 0.44111 0.67486 0.47738 0.0
C760 C 0.44354 0.67256 0.50565 0.0
C761 C 0.43476 0.67986 0.4247 0.0
C762 C 0.41311 0.67287 0.43937 0.0
C763 C 0.4164 0.67096 0.4656 0.0
C764 C 0.38773 0.66485 0.42734 0.0
C765 C 0.43229 0.68182 0.39637 0.0
C766 C 0.37152 0.68155 0.41562 0.0
C767 C 0.34837 0.67316 0.40303 0.0
C768 C 0.3412 0.64795 0.40197 0.0
C769 C 0.35717 0.63148 0.41437 0.0
C770 C 0.38018 0.63988 0.42698 0.0
H771 H 0.45177 0.68399 0.3872 0.0
H772 H 0.42233 0.6651 0.38703 0.0
H773 H 0.42004 0.69817 0.3929 0.0
H774 H 0.37692 0.70096 0.41596 0.0
H775 H 0.33647 0.68625 0.39359 0.0
H776 H 0.33472 0.3816 0.65141 0.0
H777 H 0.34647 0.41128 0.68752 0.0
H778 H 0.42147 0.4245 0.65271 0.0
H779 H 0.40984 0.3954 0.61649 0.0
H780 H 0.38814 0.41192 0.72173 0.0
H781 H 0.39259 0.49421 0.66614 0.0
H782 H 0.37796 0.46521 0.65362 0.0
H783 H 0.4132 0.46943 0.65313 0.0
C784 C 0.3537 0.39085 0.65142 0.0
C785 C 0.3712 0.38629 0.63087 0.0
C786 C 0.36038 0.40779 0.67207 0.0
C787 C 0.3846 0.42048 0.67252 0.0
C788 C 0.40238 0.41543 0.65243 0.0
H789 H 0.47614 0.51917 0.77427 0.0
H790 H 0.45902 0.4882 0.74164 0.0
C791 C 0.39571 0.39866 0.63176 0.0
C792 C 0.39162 0.43883 0.69405 0.0
H793 H 0.41201 0.49873 0.70779 0.0
C794 C 0.39306 0.43098 0.71877 0.0
C795 C 0.39786 0.46374 0.69014 0.0
C796 C 0.39507 0.47374 0.66437 0.0
C797 C 0.40159 0.44717 0.7395 0.0
C798 C 0.40875 0.47173 0.73533 0.0
C799 C 0.4067 0.47976 0.7108 0.0
C800 C 0.41912 0.48931 0.75605 0.0
C801 C 0.4037 0.43781 0.7656 0.0
C802 C 0.40227 0.50009 0.77489 0.0
C803 C 0.41197 0.51784 0.79353 0.0
C804 C 0.4387 0.52498 0.79363 0.0
C805 C 0.45556 0.51381 0.7749 0.0
C806 C 0.4458 0.49623 0.75619 0.0
H807 H 0.40029 0.41748 0.76511 0.0
H808 H 0.42351 0.4422 0.77395 0.0
H809 H 0.38886 0.44734 0.77837 0.0
H810 H 0.38156 0.49508 0.77491 0.0
H811 H 0.39857 0.52604 0.80781 0.0
H812 H 0.0556 0.85608 0.07121 0.0
H813 H 0.00975 0.85116 0.08352 0.0
H814 H 0.00933 0.77637 0.04766 0.0
H815 H 0.05582 0.78086 0.03617 0.0
H816 H 0.96743 0.84339 0.05516 0.0
H817 H 0.97886 0.76489 0.1157 0.0
H818 H 0.00675 0.78145 0.10434 0.0
H819 H 0.9899 0.75843 0.08349 0.0
C820 C 0.04581 0.83853 0.06599 0.0
C821 C 0.05934 0.81883 0.05276 0.0
C822 C 0.01957 0.83574 0.07305 0.0
C823 C 0.00612 0.8133 0.0668 0.0
C824 C 0.01945 0.79364 0.05327 0.0
H825 H 0.83451 0.82457 0.08977 0.0
H826 H 0.87654 0.81395 0.06868 0.0
C827 C 0.04596 0.79628 0.04657 0.0
C828 C 0.97801 0.81112 0.07413 0.0
H829 H 0.93564 0.77957 0.11002 0.0
C830 C 0.96043 0.82935 0.06706 0.0
C831 C 0.96895 0.79283 0.08972 0.0
C832 C 0.98711 0.77341 0.09898 0.0
C833 C 0.93443 0.83054 0.07601 0.0
C834 C 0.92531 0.81226 0.09162 0.0
C835 C 0.94258 0.79342 0.09788 0.0
C836 C 0.89895 0.814 0.10383 0.0
C837 C 0.91762 0.85227 0.06985 0.0
C838 C 0.89719 0.81567 0.13054 0.0
C839 C 0.87311 0.82096 0.14254 0.0
C840 C 0.85046 0.82493 0.12803 0.0
C841 C 0.85183 0.8218 0.10131 0.0
C842 C 0.87584 0.81595 0.0893 0.0
H843 H 0.92969 0.86764 0.06324 0.0
H844 H 0.90355 0.84617 0.05434 0.0
H845 H 0.90616 0.85966 0.08673 0.0
H846 H 0.91471 0.81414 0.14217 0.0
H847 H 0.87256 0.82344 0.16317 0.0
H848 H 0.7285 0.60578 0.49924 0.0
H849 H 0.75551 0.57317 0.5157 0.0
H850 H 0.69203 0.55526 0.56524 0.0
H851 H 0.66505 0.5878 0.54927 0.0
H852 H 0.74346 0.55563 0.58825 0.0
H853 H 0.73805 0.49926 0.49462 0.0
H854 H 0.7507 0.53036 0.49468 0.0
H855 H 0.71672 0.52545 0.5023 0.0
C856 C 0.72038 0.5951 0.51385 0.0
C857 C 0.69444 0.59922 0.52268 0.0
C858 C 0.73583 0.57644 0.52316 0.0
C859 C 0.72559 0.56164 0.54141 0.0
C860 C 0.70025 0.56647 0.5511 0.0
H861 H 0.73528 0.41694 0.58326 0.0
H862 H 0.72714 0.45735 0.56752 0.0
C863 C 0.6848 0.58503 0.54183 0.0
C864 C 0.74023 0.53998 0.54937 0.0
H865 H 0.75718 0.48065 0.52877 0.0
C866 C 0.74698 0.53937 0.5752 0.0
C867 C 0.74455 0.51879 0.53225 0.0
C868 C 0.73703 0.51825 0.50443 0.0
C869 C 0.75692 0.51771 0.58459 0.0
C870 C 0.76027 0.49628 0.56763 0.0
C871 C 0.75467 0.49723 0.54162 0.0
C872 C 0.76612 0.47187 0.57694 0.0
C873 C 0.76228 0.51739 0.61277 0.0
C874 C 0.79085 0.46665 0.58728 0.0
C875 C 0.79556 0.44349 0.59641 0.0
C876 C 0.77552 0.42537 0.59543 0.0
C877 C 0.75094 0.43067 0.58472 0.0
C878 C 0.74632 0.45366 0.57554 0.0
H879 H 0.75612 0.53487 0.62372 0.0
H880 H 0.75173 0.50161 0.62039 0.0
H881 H 0.78372 0.51477 0.61594 0.0
H882 H 0.80643 0.48046 0.5883 0.0
H883 H 0.81467 0.4399 0.6046 0.0
H884 H 0.8931 0.15489 0.08814 0.0
H885 H 0.90531 0.1564 0.13289 0.0
H886 H 0.89629 0.23591 0.1399 0.0
H887 H 0.88435 0.23471 0.09459 0.0
H888 H 0.94274 0.22123 0.16049 0.0
H889 H 0.86074 0.16686 0.19638 0.0
H890 H 0.87565 0.15053 0.16909 0.0
H891 H 0.85938 0.17967 0.16583 0.0
C892 C 0.89343 0.17276 0.09911 0.0
C893 C 0.88772 0.1947 0.08764 0.0
C894 C 0.90021 0.17354 0.12484 0.0
C895 C 0.9012 0.1962 0.13987 0.0
C896 C 0.89537 0.21819 0.12867 0.0
H897 H 0.93949 0.17789 0.3003 0.0
H898 H 0.91718 0.19359 0.26353 0.0
C899 C 0.88855 0.21745 0.10278 0.0
C900 C 0.91028 0.19669 0.16672 0.0
H901 H 0.90153 0.16718 0.22078 0.0
C902 C 0.93343 0.20984 0.1739 0.0
C903 C 0.89785 0.18227 0.18443 0.0
C904 C 0.87186 0.16927 0.17862 0.0
C905 C 0.94555 0.20744 0.19759 0.0
C906 C 0.9345 0.19105 0.21424 0.0
C907 C 0.91027 0.17942 0.20786 0.0
C908 C 0.94883 0.18389 0.23711 0.0
C909 C 0.97038 0.22207 0.20427 0.0
C910 C 0.97395 0.17316 0.23446 0.0
C911 C 0.98668 0.16421 0.25535 0.0
C912 C 0.97444 0.16553 0.27933 0.0
C913 C 0.94937 0.1765 0.28205 0.0
C914 C 0.93666 0.18557 0.2611 0.0
H915 H 0.97076 0.23961 0.19474 0.0
H916 H 0.9723 0.2266 0.22517 0.0
H917 H 0.98775 0.21096 0.19755 0.0
H918 H 0.98338 0.1709 0.216 0.0
H919 H 0.0057 0.15537 0.25246 0.0
H920 H 0.13213 0.74924 0.09696 0.0
H921 H 0.12641 0.72761 0.13552 0.0
H922 H 0.17271 0.78387 0.17837 0.0
H923 H 0.17848 0.80572 0.14013 0.0
H924 H 0.16817 0.70953 0.16398 0.0
H925 H 0.1074 0.77655 0.22363 0.0
H926 H 0.11025 0.77735 0.18951 0.0
H927 H 0.13598 0.79019 0.21032 0.0
C928 C 0.14096 0.75714 0.11461 0.0
C929 C 0.15586 0.7792 0.11539 0.0
C930 C 0.13757 0.74478 0.13662 0.0
C931 C 0.14871 0.75441 0.15983 0.0
C932 C 0.16343 0.77646 0.16075 0.0
H933 H 0.19409 0.71318 0.30397 0.0
H934 H 0.17768 0.7347 0.2682 0.0
C935 C 0.16695 0.78876 0.13877 0.0
C936 C 0.14711 0.74035 0.18264 0.0
H937 H 0.12969 0.74539 0.24541 0.0
C938 C 0.15932 0.71709 0.18169 0.0
C939 C 0.13561 0.75041 0.20564 0.0
C940 C 0.12134 0.77491 0.20736 0.0
C941 C 0.16172 0.70419 0.20354 0.0
C942 C 0.15094 0.71459 0.22682 0.0
C943 C 0.1378 0.73743 0.22753 0.0
C944 C 0.15573 0.70318 0.25097 0.0
C945 C 0.17719 0.68029 0.20179 0.0
C946 C 0.14753 0.67881 0.25392 0.0
C947 C 0.15726 0.6663 0.27412 0.0
C948 C 0.17508 0.67812 0.29183 0.0
C949 C 0.18091 0.70338 0.29029 0.0
C950 C 0.17139 0.71577 0.26997 0.0
H951 H 0.18872 0.67763 0.18387 0.0
H952 H 0.19103 0.67985 0.21816 0.0
H953 H 0.16335 0.6644 0.20221 0.0
H954 H 0.13494 0.66896 0.23974 0.0
H955 H 0.15234 0.64686 0.2747 0.0
H956 H 0.69141 0.75048 0.53375 0.0
H957 H 0.72982 0.77345 0.55145 0.0
H958 H 0.781 0.71492 0.52076 0.0
H959 H 0.74279 0.69167 0.50302 0.0
H960 H 0.78855 0.73001 0.57337 0.0
H961 H 0.78824 0.81024 0.51443 0.0
H962 H 0.75691 0.80376 0.52832 0.0
H963 H 0.7711 0.78154 0.50502 0.0
C964 C 0.71082 0.7425 0.53061 0.0
C965 C 0.71396 0.71919 0.51695 0.0
C966 C 0.73276 0.75578 0.54055 0.0
C967 C 0.75822 0.74604 0.53702 0.0
C968 C 0.76149 0.72283 0.52344 0.0
H969 H 0.90373 0.79688 0.61659 0.0
H970 H 0.87458 0.77528 0.58457 0.0
C971 C 0.7396 0.70957 0.51337 0.0
C972 C 0.78119 0.75929 0.54911 0.0
H973 H 0.81498 0.81414 0.55206 0.0
C974 C 0.79465 0.74825 0.5685 0.0
C975 C 0.78895 0.78306 0.54265 0.0
C976 C 0.77573 0.79531 0.52131 0.0
C977 C 0.81489 0.76086 0.58253 0.0
C978 C 0.82228 0.78493 0.57651 0.0
C979 C 0.80935 0.79565 0.55655 0.0
C980 C 0.84159 0.80005 0.59233 0.0
C981 C 0.82717 0.74881 0.60455 0.0
C982 C 0.83321 0.82193 0.6061 0.0
C983 C 0.84985 0.8344 0.62412 0.0
C984 C 0.87518 0.82517 0.62872 0.0
C985 C 0.88418 0.80419 0.61366 0.0
C986 C 0.86755 0.79182 0.59546 0.0
H987 H 0.81536 0.73277 0.60997 0.0
H988 H 0.84713 0.74196 0.59903 0.0
H989 H 0.82927 0.76235 0.62152 0.0
H990 H 0.81327 0.82861 0.60391 0.0
H991 H 0.84223 0.85035 0.63558 0.0
H992 H 0.80305 0.27074 0.04662 0.0
H993 H 0.76589 0.2908 0.06954 0.0
H994 H 0.71869 0.22486 0.05282 0.0
H995 H 0.75531 0.20501 0.02927 0.0
H996 H 0.69163 0.26507 0.04387 0.0
H997 H 0.73864 0.27978 0.13929 0.0
H998 H 0.75672 0.29366 0.11496 0.0
H999 H 0.75316 0.26047 0.11347 0.0
C1000 C 0.78479 0.26047 0.04794 0.0
C1001 C 0.78217 0.23627 0.0361 0.0
C1002 C 0.76362 0.27191 0.0612 0.0
C1003 C 0.73962 0.25919 0.06327 0.0
C1004 C 0.73702 0.23503 0.05152 0.0
H1005 H 0.61164 0.2988 0.1676 0.0
H1006 H 0.64996 0.28017 0.14529 0.0
C1007 C 0.75801 0.22371 0.03804 0.0
C1008 C 0.71683 0.27118 0.07689 0.0
H1009 H 0.6971 0.29912 0.13425 0.0
C1010 C 0.69281 0.27246 0.06366 0.0
C1011 C 0.71828 0.28052 0.10281 0.0
C1012 C 0.743 0.27834 0.11856 0.0
C1013 C 0.67024 0.28286 0.07556 0.0
C1014 C 0.67193 0.29298 0.10121 0.0
C1015 C 0.6959 0.29159 0.11451 0.0
C1016 C 0.6489 0.30457 0.11478 0.0
C1017 C 0.64466 0.28225 0.06069 0.0
C1018 C 0.6358 0.32467 0.10524 0.0
C1019 C 0.61376 0.33514 0.11781 0.0
C1020 C 0.60473 0.326 0.14041 0.0
C1021 C 0.61825 0.30627 0.15027 0.0
C1022 C 0.6401 0.29562 0.13754 0.0
H1023 H 0.64485 0.26768 0.04448 0.0
H1024 H 0.62758 0.2788 0.07305 0.0
H1025 H 0.64176 0.30039 0.05274 0.0
H1026 H 0.64267 0.33235 0.08813 0.0
H1027 H 0.60399 0.35063 0.11004 0.0
H1028 H 0.38068 0.24551 0.62338 0.0
H1029 H 0.38111 0.22519 0.66334 0.0
H1030 H 0.31478 0.2695 0.69037 0.0
H1031 H 0.31406 0.28976 0.65087 0.0
H1032 H 0.38636 0.24948 0.71444 0.0
H1033 H 0.29253 0.19715 0.70049 0.0
H1034 H 0.31027 0.20913 0.67447 0.0
H1035 H 0.28956 0.22924 0.69465 0.0
C1036 C 0.36607 0.25079 0.63776 0.0
C1037 C 0.3473 0.26925 0.63387 0.0
C1038 C 0.36639 0.23919 0.66055 0.0
C1039 C 0.34774 0.24564 0.67957 0.0
C1040 C 0.32904 0.26397 0.67572 0.0
H1041 H 0.33466 0.24805 0.83912 0.0
H1042 H 0.3452 0.25449 0.79493 0.0
C1043 C 0.32879 0.27564 0.65314 0.0
C1044 C 0.34814 0.23416 0.70406 0.0
H1045 H 0.30839 0.20415 0.74358 0.0
C1046 C 0.36957 0.23915 0.7207 0.0
C1047 C 0.32638 0.22042 0.71199 0.0
C1048 C 0.30348 0.21343 0.69437 0.0
C1049 C 0.36901 0.23208 0.74574 0.0
C1050 C 0.34631 0.22003 0.75429 0.0
C1051 C 0.32567 0.21364 0.73708 0.0
C1052 C 0.34254 0.21563 0.78141 0.0
C1053 C 0.39246 0.23802 0.76295 0.0
C1054 C 0.33726 0.19168 0.78842 0.0
C1055 C 0.33094 0.18798 0.81363 0.0
C1056 C 0.32953 0.20822 0.83221 0.0
C1057 C 0.33537 0.23212 0.8252 0.0
C1058 C 0.34174 0.23578 0.80003 0.0
H1059 H 0.41083 0.23969 0.75177 0.0
H1060 H 0.38914 0.25605 0.77415 0.0
H1061 H 0.39536 0.22358 0.77647 0.0
H1062 H 0.33749 0.17592 0.77426 0.0
H1063 H 0.32622 0.16939 0.81837 0.0
H1064 H 0.61409 0.74372 0.43666 0.0
H1065 H 0.61166 0.76518 0.3976 0.0
H1066 H 0.6651 0.71175 0.3607 0.0
H1067 H 0.66732 0.69003 0.39917 0.0
H1068 H 0.65242 0.78697 0.37542 0.0
H1069 H 0.60972 0.71557 0.30599 0.0
H1070 H 0.60813 0.71332 0.33999 0.0
H1071 H 0.63718 0.70334 0.32238 0.0
C1072 C 0.62506 0.73635 0.42012 0.0
C1073 C 0.64096 0.71516 0.42113 0.0
C1074 C 0.62356 0.7486 0.3978 0.0
C1075 C 0.63775 0.73976 0.37607 0.0
C1076 C 0.65334 0.71849 0.37696 0.0
H1077 H 0.71813 0.78231 0.2514 0.0
H1078 H 0.69364 0.76185 0.28362 0.0
C1079 C 0.65482 0.70623 0.39915 0.0
C1080 C 0.63878 0.75404 0.35331 0.0
H1081 H 0.63759 0.74664 0.28827 0.0
C1082 C 0.64845 0.77844 0.35637 0.0
C1083 C 0.63346 0.74291 0.3285 0.0
C1084 C 0.62127 0.71743 0.32405 0.0
C1085 C 0.65506 0.79125 0.33523 0.0
C1086 C 0.65163 0.77937 0.31044 0.0
C1087 C 0.64029 0.75562 0.30733 0.0
C1088 C 0.66327 0.78987 0.28804 0.0
C1089 C 0.66745 0.81669 0.33955 0.0
C1090 C 0.65368 0.81192 0.27925 0.0
C1091 C 0.66767 0.82365 0.2608 0.0
C1092 C 0.69145 0.81351 0.2511 0.0
C1093 C 0.70002 0.79064 0.25881 0.0
C1094 C 0.68599 0.77889 0.27708 0.0
H1095 H 0.67124 0.82218 0.36006 0.0
H1096 H 0.6864 0.81726 0.32911 0.0
H1097 H 0.6541 0.8306 0.33207 0.0
H1098 H 0.63605 0.82054 0.28743 0.0
H1099 H 0.6607 0.84131 0.25521 0.0
H1100 H 0.81078 0.22041 0.91439 0.0
H1101 H 0.8128 0.23999 0.87455 0.0
H1102 H 0.87834 0.28519 0.90343 0.0
H1103 H 0.87645 0.26572 0.94383 0.0
H1104 H 0.8386 0.31106 0.87676 0.0
H1105 H 0.87175 0.22511 0.82157 0.0
H1106 H 0.8428 0.22051 0.84012 0.0
H1107 H 0.8734 0.22924 0.85594 0.0
C1108 C 0.82564 0.23456 0.91245 0.0
C1109 C 0.84365 0.24129 0.9323 0.0
C1110 C 0.82679 0.24566 0.88958 0.0
C1111 C 0.84604 0.26363 0.8859 0.0
C1112 C 0.86347 0.27117 0.90589 0.0
H1113 H 0.86524 0.30005 0.72828 0.0
H1114 H 0.87637 0.29127 0.77193 0.0
C1115 C 0.86234 0.26004 0.92893 0.0
C1116 C 0.84784 0.27411 0.86093 0.0
H1117 H 0.85361 0.25665 0.79744 0.0
C1118 C 0.84229 0.29932 0.8594 0.0
C1119 C 0.85318 0.25883 0.83841 0.0
C1120 C 0.86089 0.23197 0.83904 0.0
C1121 C 0.84039 0.30933 0.83571 0.0
C1122 C 0.8437 0.29356 0.81307 0.0
C1123 C 0.85079 0.2687 0.81476 0.0
C1124 C 0.83814 0.30179 0.78744 0.0
C1125 C 0.8346 0.3366 0.83517 0.0
C1126 C 0.81302 0.3107 0.78169 0.0
C1127 C 0.80664 0.31574 0.75682 0.0
C1128 C 0.82517 0.31164 0.73714 0.0
C1129 C 0.8505 0.30318 0.74302 0.0
C1130 C 0.85691 0.29829 0.76795 0.0
H1131 H 0.84164 0.3473 0.85288 0.0
H1132 H 0.84396 0.34433 0.81853 0.0
H1133 H 0.81294 0.33925 0.83386 0.0
H1134 H 0.79794 0.31283 0.79621 0.0
H1135 H 0.78683 0.32183 0.75281 0.0
H1136 H 0.25209 0.29266 0.55028 0.0
H1137 H 0.2152 0.27035 0.52863 0.0
H1138 H 0.2697 0.21979 0.48901 0.0
H1139 H 0.30667 0.24163 0.51075 0.0
H1140 H 0.20483 0.26256 0.47682 0.0
H1141 H 0.21759 0.17289 0.51905 0.0
H1142 H 0.23373 0.20108 0.53185 0.0
H1143 H 0.24691 0.18347 0.50429 0.0
C1144 C 0.25628 0.27672 0.53707 0.0
C1145 C 0.28241 0.26888 0.53242 0.0
C1146 C 0.23514 0.264 0.52471 0.0
C1147 C 0.23969 0.24317 0.50756 0.0
C1148 C 0.26571 0.23546 0.50263 0.0
H1149 H 0.14664 0.14512 0.40481 0.0
H1150 H 0.18131 0.16779 0.42955 0.0
C1151 C 0.28685 0.2481 0.51501 0.0
C1152 C 0.21731 0.22991 0.4942 0.0
H1153 H 0.18802 0.173 0.48373 0.0
C1154 C 0.20099 0.24303 0.47849 0.0
C1155 C 0.21236 0.20444 0.49645 0.0
C1156 C 0.2284 0.18967 0.51401 0.0
C1157 C 0.18028 0.23118 0.46437 0.0
C1158 C 0.17563 0.20563 0.46631 0.0
C1159 C 0.19174 0.19257 0.48224 0.0
C1160 C 0.15443 0.19196 0.45158 0.0
C1161 C 0.16403 0.24589 0.44693 0.0
C1162 C 0.12782 0.19787 0.45602 0.0
C1163 C 0.10793 0.18484 0.44204 0.0
C1164 C 0.1143 0.16559 0.42342 0.0
C1165 C 0.14102 0.15962 0.41921 0.0
C1166 C 0.16087 0.17263 0.43323 0.0
H1167 H 0.1737 0.26372 0.4434 0.0
H1168 H 0.16048 0.23505 0.42834 0.0
H1169 H 0.14458 0.25014 0.45584 0.0
H1170 H 0.12245 0.21243 0.47046 0.0
H1171 H 0.08755 0.18963 0.44606 0.0
H1172 H 0.25879 0.80481 0.03599 0.0
H1173 H 0.29611 0.78269 0.0155 0.0
H1174 H 0.24259 0.72955 0.97721 0.0
H1175 H 0.20516 0.75157 0.99726 0.0
H1176 H 0.31129 0.73291 0.01804 0.0
H1177 H 0.28722 0.75252 0.91885 0.0
H1178 H 0.27247 0.76932 0.94627 0.0
H1179 H 0.26048 0.73897 0.93515 0.0
C1180 C 0.2549 0.78846 0.02316 0.0
C1181 C 0.22889 0.78008 0.0182 0.0
C1182 C 0.27628 0.77584 0.01149 0.0
C1183 C 0.27206 0.75474 0.99454 0.0
C1184 C 0.24623 0.74612 0.98982 0.0
H1185 H 0.36688 0.64769 0.90589 0.0
H1186 H 0.33191 0.67204 0.92774 0.0
C1187 C 0.22485 0.75868 0.00144 0.0
C1188 C 0.29467 0.7414 0.98212 0.0
H1189 H 0.32044 0.72235 0.92396 0.0
C1190 C 0.31346 0.73075 0.99749 0.0
C1191 C 0.29739 0.73866 0.9553 0.0
C1192 C 0.27847 0.75066 0.9379 0.0
C1193 C 0.33451 0.71675 0.98669 0.0
C1194 C 0.337 0.71371 0.95986 0.0
C1195 C 0.3184 0.72466 0.94452 0.0
C1196 C 0.35844 0.69882 0.94723 0.0
C1197 C 0.35345 0.70472 0.00404 0.0
C1198 C 0.38494 0.70593 0.95082 0.0
C1199 C 0.40501 0.69195 0.93849 0.0
C1200 C 0.3989 0.67067 0.92224 0.0
C1201 C 0.37229 0.66373 0.91859 0.0
C1202 C 0.35227 0.67772 0.93091 0.0
H1203 H 0.34533 0.70398 0.02353 0.0
H1204 H 0.3583 0.68557 0.99622 0.0
H1205 H 0.37206 0.71562 0.00563 0.0
H1206 H 0.39009 0.72241 0.96301 0.0
H1207 H 0.42531 0.6977 0.94183 0.0
loop_
_geom_bond_atom_site_label_1
_geom_bond_atom_site_label_2
_geom_bond_distance
_geom_bond_site_symmetry_2
_ccdc_geom_bond_type
Sc0 O3 2.025 . S
Sc0 O10 2.105 . S
Sc0 O13 2.105 . S
Sc0 O16 2.105 . S
Sc0 O19 2.105 . S
Sc1 O3 2.025 . S
Sc1 O11 2.105 . S
Sc1 O15 2.105 . S
Sc1 O17 2.105 . S
Sc1 O21 2.105 . S
Sc2 O3 2.025 . S
Sc2 O12 2.105 . S
Sc2 O14 2.105 . S
Sc2 O18 2.105 . S
Sc2 O20 2.105 . S
O3 Sc0 2.025 . S
O3 Sc1 2.025 . S
O3 Sc2 2.025 . S
C4 O10 1.268 . S
C4 O20 1.268 . S
C5 O11 1.268 1_556 S
C5 O19 1.268 1_556 S
C6 O12 1.268 . S
C6 O21 1.268 . S
C7 O13 1.268 . S
C7 O17 1.268 . S
C8 O14 1.268 . S
C8 O16 1.268 . S
C9 O15 1.268 . S
C9 O18 1.268 . S
O10 Sc0 2.105 . S
O10 C4 1.268 . S
O11 Sc1 2.105 . S
O11 C5 1.268 1_554 S
O12 Sc2 2.105 . S
O12 C6 1.268 . S
O13 Sc0 2.105 . S
O13 C7 1.268 . S
O14 Sc2 2.105 . S
O14 C8 1.268 . S
O15 Sc1 2.105 . S
O15 C9 1.268 . S
O16 Sc0 2.105 . S
O16 C8 1.268 . S
O17 Sc1 2.105 . S
O17 C7 1.268 . S
O18 Sc2 2.105 . S
O18 C9 1.268 . S
O19 Sc0 2.105 . S
O19 C5 1.268 1_554 S
O20 Sc2 2.105 . S
O20 C4 1.268 . S
O21 Sc1 2.105 . S
O21 C6 1.268 . S
Sc22 O25 2.025 . S
Sc22 O32 2.105 . S
Sc22 O35 2.105 . S
Sc22 O38 2.105 . S
Sc22 O41 2.105 . S
Sc23 O25 2.025 . S
Sc23 O33 2.105 . S
Sc23 O37 2.105 . S
Sc23 O39 2.105 . S
Sc23 O43 2.105 . S
Sc24 O25 2.025 . S
Sc24 O34 2.105 . S
Sc24 O36 2.105 . S
Sc24 O40 2.105 . S
Sc24 O42 2.105 . S
O25 Sc22 2.025 . S
O25 Sc23 2.025 . S
O25 Sc24 2.025 . S
C26 O32 1.268 . S
C26 O42 1.268 . S
C27 O33 1.268 . S
C27 O41 1.268 . S
C28 O34 1.268 . S
C28 O43 1.268 . S
C29 O35 1.268 . S
C29 O39 1.268 . S
C30 O36 1.268 . S
C30 O38 1.268 . S
C31 O37 1.268 . S
C31 O40 1.268 . S
O32 Sc22 2.105 . S
O32 C26 1.268 . S
O33 Sc23 2.105 . S
O33 C27 1.268 . S
O34 Sc24 2.105 . S
O34 C28 1.268 . S
O35 Sc22 2.105 . S
O35 C29 1.268 . S
O36 Sc24 2.105 . S
O36 C30 1.268 . S
O37 Sc23 2.105 . S
O37 C31 1.268 . S
O38 Sc22 2.105 . S
O38 C30 1.268 . S
O39 Sc23 2.105 . S
O39 C29 1.268 . S
O40 Sc24 2.105 . S
O40 C31 1.268 . S
O41 Sc22 2.105 . S
O41 C27 1.268 . S
O42 Sc24 2.105 . S
O42 C26 1.268 . S
O43 Sc23 2.105 . S
O43 C28 1.268 . S
Sc44 O47 2.025 . S
Sc44 O54 2.105 1_554 S
Sc44 O57 2.105 . S
Sc44 O60 2.105 . S
Sc44 O63 2.105 1_554 S
Sc45 O47 2.025 1_556 S
Sc45 O55 2.105 . S
Sc45 O59 2.105 1_556 S
Sc45 O61 2.105 1_556 S
Sc45 O65 2.105 . S
Sc46 O47 2.025 . S
Sc46 O56 2.105 1_554 S
Sc46 O58 2.105 . S
Sc46 O62 2.105 . S
Sc46 O64 2.105 1_554 S
O47 Sc44 2.025 . S
O47 Sc45 2.025 1_554 S
O47 Sc46 2.025 . S
C48 O54 1.268 . S
C48 O64 1.268 . S
C49 O55 1.268 . S
C49 O63 1.268 . S
C50 O56 1.268 . S
C50 O65 1.268 . S
C51 O57 1.268 . S
C51 O61 1.268 . S
C52 O58 1.268 . S
C52 O60 1.268 . S
C53 O59 1.268 . S
C53 O62 1.268 . S
O54 Sc44 2.105 1_556 S
O54 C48 1.268 . S
O55 Sc45 2.105 . S
O55 C49 1.268 . S
O56 Sc46 2.105 1_556 S
O56 C50 1.268 . S
O57 Sc44 2.105 . S
O57 C51 1.268 . S
O58 Sc46 2.105 . S
O58 C52 1.268 . S
O59 Sc45 2.105 1_554 S
O59 C53 1.268 . S
O60 Sc44 2.105 . S
O60 C52 1.268 . S
O61 Sc45 2.105 1_554 S
O61 C51 1.268 . S
O62 Sc46 2.105 . S
O62 C53 1.268 . S
O63 Sc44 2.105 1_556 S
O63 C49 1.268 . S
O64 Sc46 2.105 1_556 S
O64 C48 1.268 . S
O65 Sc45 2.105 . S
O65 C50 1.268 . S
Sc66 O69 2.025 . S
Sc66 O76 2.105 . S
Sc66 O79 2.105 . S
Sc66 O82 2.105 . S
Sc66 O85 2.105 . S
Sc67 O69 2.025 . S
Sc67 O77 2.105 . S
Sc67 O81 2.105 . S
Sc67 O83 2.105 . S
Sc67 O87 2.105 . S
Sc68 O69 2.025 . S
Sc68 O78 2.105 . S
Sc68 O80 2.105 . S
Sc68 O84 2.105 . S
Sc68 O86 2.105 . S
O69 Sc66 2.025 . S
O69 Sc67 2.025 . S
O69 Sc68 2.025 . S
C70 O76 1.268 . S
C70 O86 1.268 . S
C71 O77 1.268 . S
C71 O85 1.268 . S
C72 O78 1.268 . S
C72 O87 1.268 . S
C73 O79 1.268 . S
C73 O83 1.268 . S
C74 O80 1.268 . S
C74 O82 1.268 . S
C75 O81 1.268 . S
C75 O84 1.268 . S
O76 Sc66 2.105 . S
O76 C70 1.268 . S
O77 Sc67 2.105 . S
O77 C71 1.268 . S
O78 Sc68 2.105 . S
O78 C72 1.268 . S
O79 Sc66 2.105 . S
O79 C73 1.268 . S
O80 Sc68 2.105 . S
O80 C74 1.268 . S
O81 Sc67 2.105 . S
O81 C75 1.268 . S
O82 Sc66 2.105 . S
O82 C74 1.268 . S
O83 Sc67 2.105 . S
O83 C73 1.268 . S
O84 Sc68 2.105 . S
O84 C75 1.268 . S
O85 Sc66 2.105 . S
O85 C71 1.268 . S
O86 Sc68 2.105 . S
O86 C70 1.268 . S
O87 Sc67 2.105 . S
O87 C72 1.268 . S
P88 O99 1.490 . S
P88 C102 1.812 . S
P88 C108 1.803 . S
P88 C114 1.819 . S
H89 C103 0.941 . S
H90 C104 0.939 . S
H91 C106 0.940 . S
H92 C107 0.940 . S
H93 C109 0.939 . S
H94 C110 0.942 . S
H95 C112 0.940 . S
H96 C113 0.939 . S
H97 C115 0.941 1_655 S
H98 C119 0.939 . S
O99 P88 1.490 . S
H100 C116 0.939 . S
H101 C118 0.940 . S
C102 P88 1.812 . S
C102 C103 1.389 . S
C102 C107 1.391 . S
C103 H89 0.941 . S
C103 C102 1.389 . S
C103 C104 1.397 . S
C104 H90 0.939 . S
C104 C103 1.397 . S
C104 C105 1.378 . S
C105 C104 1.378 . S
C105 C106 1.378 . S
C106 H91 0.940 . S
C106 C105 1.378 . S
C106 C107 1.396 . S
C107 H92 0.940 . S
C107 C102 1.391 . S
C107 C106 1.396 . S
C108 P88 1.803 . S
C108 C109 1.378 . S
C108 C113 1.400 . S
C109 H93 0.939 . S
C109 C108 1.378 . S
C109 C110 1.361 . S
C110 H94 0.942 . S
C110 C109 1.361 . S
C110 C111 1.369 . S
C111 C110 1.369 . S
C111 C112 1.404 . S
C112 H95 0.940 . S
C112 C111 1.404 . S
C112 C113 1.389 . S
C113 H96 0.939 . S
C113 C108 1.400 . S
C113 C112 1.389 . S
C114 P88 1.819 . S
C114 C115 1.391 . S
C114 C119 1.391 . S
C115 H97 0.941 1_455 S
C115 C114 1.391 . S
C115 C116 1.396 1_455 S
C116 H100 0.939 . S
C116 C115 1.396 1_655 S
C116 C117 1.397 . S
C117 C116 1.397 . S
C117 C118 1.385 1_655 S
C118 H101 0.940 . S
C118 C117 1.385 1_455 S
C118 C119 1.388 . S
C119 H98 0.939 . S
C119 C114 1.391 . S
C119 C118 1.388 . S
P120 O131 1.490 . S
P120 C134 1.812 . S
P120 C140 1.803 . S
P120 C146 1.819 . S
H121 C135 0.941 . S
H122 C136 0.939 . S
H123 C138 0.940 . S
H124 C139 0.940 . S
H125 C141 0.939 . S
H126 C142 0.942 . S
H127 C144 0.940 . S
H128 C145 0.939 . S
H129 C147 0.941 . S
H130 C151 0.939 . S
O131 P120 1.490 . S
H132 C148 0.939 . S
H133 C150 0.940 . S
C134 P120 1.812 . S
C134 C135 1.389 . S
C134 C139 1.391 . S
C135 H121 0.941 . S
C135 C134 1.389 . S
C135 C136 1.397 . S
C136 H122 0.939 . S
C136 C135 1.397 . S
C136 C137 1.378 . S
C137 C136 1.378 . S
C137 C138 1.378 . S
C138 H123 0.940 . S
C138 C137 1.378 . S
C138 C139 1.396 . S
C139 H124 0.940 . S
C139 C134 1.391 . S
C139 C138 1.396 . S
C140 P120 1.803 . S
C140 C141 1.378 . S
C140 C145 1.400 . S
C141 H125 0.939 . S
C141 C140 1.378 . S
C141 C142 1.361 . S
C142 H126 0.942 . S
C142 C141 1.361 . S
C142 C143 1.369 . S
C143 C142 1.369 . S
C143 C144 1.404 . S
C144 H127 0.940 . S
C144 C143 1.404 . S
C144 C145 1.389 . S
C145 H128 0.939 . S
C145 C140 1.400 . S
C145 C144 1.389 . S
C146 P120 1.819 . S
C146 C147 1.391 . S
C146 C151 1.391 . S
C147 H129 0.941 . S
C147 C146 1.391 . S
C147 C148 1.396 . S
C148 H132 0.939 . S
C148 C147 1.396 . S
C148 C149 1.397 . S
C149 C148 1.397 . S
C149 C150 1.385 . S
C150 H133 0.940 . S
C150 C149 1.385 . S
C150 C151 1.388 . S
C151 H130 0.939 . S
C151 C146 1.391 . S
C151 C150 1.388 . S
P152 O163 1.490 . S
P152 C166 1.812 . S
P152 C172 1.803 . S
P152 C178 1.819 . S
H153 C167 0.941 . S
H154 C168 0.939 . S
H155 C170 0.940 . S
H156 C171 0.940 . S
H157 C173 0.939 . S
H158 C174 0.942 . S
H159 C176 0.940 . S
H160 C177 0.939 . S
H161 C179 0.941 . S
H162 C183 0.939 . S
O163 P152 1.490 . S
H164 C180 0.939 . S
H165 C182 0.940 . S
C166 P152 1.812 . S
C166 C167 1.389 . S
C166 C171 1.391 . S
C167 H153 0.941 . S
C167 C166 1.389 . S
C167 C168 1.397 . S
C168 H154 0.939 . S
C168 C167 1.397 . S
C168 C169 1.378 . S
C169 C168 1.378 . S
C169 C170 1.378 . S
C170 H155 0.940 . S
C170 C169 1.378 . S
C170 C171 1.396 . S
C171 H156 0.940 . S
C171 C166 1.391 . S
C171 C170 1.396 . S
C172 P152 1.803 . S
C172 C173 1.378 . S
C172 C177 1.400 . S
C173 H157 0.939 . S
C173 C172 1.378 . S
C173 C174 1.361 . S
C174 H158 0.942 . S
C174 C173 1.361 . S
C174 C175 1.369 . S
C175 C174 1.369 . S
C175 C176 1.404 . S
C176 H159 0.940 . S
C176 C175 1.404 . S
C176 C177 1.389 . S
C177 H160 0.939 . S
C177 C172 1.400 . S
C177 C176 1.389 . S
C178 P152 1.819 . S
C178 C179 1.391 . S
C178 C183 1.391 . S
C179 H161 0.941 . S
C179 C178 1.391 . S
C179 C180 1.396 . S
C180 H164 0.939 . S
C180 C179 1.396 . S
C180 C181 1.397 . S
C181 C180 1.397 . S
C181 C182 1.385 . S
C182 H165 0.940 . S
C182 C181 1.385 . S
C182 C183 1.388 . S
C183 H162 0.939 . S
C183 C178 1.391 . S
C183 C182 1.388 . S
P184 O195 1.490 . S
P184 C198 1.812 . S
P184 C204 1.803 . S
P184 C210 1.819 . S
H185 C199 0.941 . S
H186 C200 0.939 . S
H187 C202 0.940 . S
H188 C203 0.940 . S
H189 C205 0.939 . S
H190 C206 0.942 . S
H191 C208 0.940 . S
H192 C209 0.939 . S
H193 C211 0.941 . S
H194 C215 0.939 . S
O195 P184 1.490 . S
H196 C212 0.939 . S
H197 C214 0.940 . S
C198 P184 1.812 . S
C198 C199 1.389 . S
C198 C203 1.391 . S
C199 H185 0.941 . S
C199 C198 1.389 . S
C199 C200 1.397 . S
C200 H186 0.939 . S
C200 C199 1.397 . S
C200 C201 1.378 . S
C201 C200 1.378 . S
C201 C202 1.378 . S
C202 H187 0.940 . S
C202 C201 1.378 . S
C202 C203 1.396 . S
C203 H188 0.940 . S
C203 C198 1.391 . S
C203 C202 1.396 . S
C204 P184 1.803 . S
C204 C205 1.378 . S
C204 C209 1.400 . S
C205 H189 0.939 . S
C205 C204 1.378 . S
C205 C206 1.361 . S
C206 H190 0.942 . S
C206 C205 1.361 . S
C206 C207 1.369 . S
C207 C206 1.369 . S
C207 C208 1.404 . S
C208 H191 0.940 . S
C208 C207 1.404 . S
C208 C209 1.389 . S
C209 H192 0.939 . S
C209 C204 1.400 . S
C209 C208 1.389 . S
C210 P184 1.819 . S
C210 C211 1.391 . S
C210 C215 1.391 . S
C211 H193 0.941 . S
C211 C210 1.391 . S
C211 C212 1.396 . S
C212 H196 0.939 . S
C212 C211 1.396 . S
C212 C213 1.397 . S
C213 C212 1.397 . S
C213 C214 1.385 . S
C214 H197 0.940 . S
C214 C213 1.385 . S
C214 C215 1.388 . S
C215 H194 0.939 . S
C215 C210 1.391 . S
C215 C214 1.388 . S
P216 O227 1.490 . S
P216 C230 1.812 . S
P216 C236 1.803 . S
P216 C242 1.819 . S
H217 C231 0.941 . S
H218 C232 0.939 . S
H219 C234 0.940 . S
H220 C235 0.940 . S
H221 C237 0.939 . S
H222 C238 0.942 . S
H223 C240 0.940 . S
H224 C241 0.939 . S
H225 C243 0.941 . S
H226 C247 0.939 . S
O227 P216 1.490 . S
H228 C244 0.939 . S
H229 C246 0.940 . S
C230 P216 1.812 . S
C230 C231 1.389 . S
C230 C235 1.391 . S
C231 H217 0.941 . S
C231 C230 1.389 . S
C231 C232 1.397 . S
C232 H218 0.939 . S
C232 C231 1.397 . S
C232 C233 1.378 . S
C233 C232 1.378 . S
C233 C234 1.378 . S
C234 H219 0.940 . S
C234 C233 1.378 . S
C234 C235 1.396 . S
C235 H220 0.940 . S
C235 C230 1.391 . S
C235 C234 1.396 . S
C236 P216 1.803 . S
C236 C237 1.378 . S
C236 C241 1.400 . S
C237 H221 0.939 . S
C237 C236 1.378 . S
C237 C238 1.361 . S
C238 H222 0.942 . S
C238 C237 1.361 . S
C238 C239 1.369 . S
C239 C238 1.369 . S
C239 C240 1.404 . S
C240 H223 0.940 . S
C240 C239 1.404 . S
C240 C241 1.389 . S
C241 H224 0.939 . S
C241 C236 1.400 . S
C241 C240 1.389 . S
C242 P216 1.819 . S
C242 C243 1.391 . S
C242 C247 1.391 . S
C243 H225 0.941 . S
C243 C242 1.391 . S
C243 C244 1.396 . S
C244 H228 0.939 . S
C244 C243 1.396 . S
C244 C245 1.397 . S
C245 C244 1.397 . S
C245 C246 1.385 . S
C246 H229 0.940 . S
C246 C245 1.385 . S
C246 C247 1.388 . S
C247 H226 0.939 . S
C247 C242 1.391 . S
C247 C246 1.388 . S
P248 O259 1.490 . S
P248 C262 1.812 . S
P248 C268 1.803 . S
P248 C274 1.819 . S
H249 C263 0.941 . S
H250 C264 0.939 . S
H251 C266 0.940 . S
H252 C267 0.940 . S
H253 C269 0.939 . S
H254 C270 0.942 . S
H255 C272 0.940 . S
H256 C273 0.939 . S
H257 C275 0.941 . S
H258 C279 0.939 . S
O259 P248 1.490 . S
H260 C276 0.939 . S
H261 C278 0.940 . S
C262 P248 1.812 . S
C262 C263 1.389 . S
C262 C267 1.391 . S
C263 H249 0.941 . S
C263 C262 1.389 . S
C263 C264 1.397 . S
C264 H250 0.939 . S
C264 C263 1.397 . S
C264 C265 1.378 . S
C265 C264 1.378 . S
C265 C266 1.378 . S
C266 H251 0.940 . S
C266 C265 1.378 . S
C266 C267 1.396 . S
C267 H252 0.940 . S
C267 C262 1.391 . S
C267 C266 1.396 . S
C268 P248 1.803 . S
C268 C269 1.378 . S
C268 C273 1.400 . S
C269 H253 0.939 . S
C269 C268 1.378 . S
C269 C270 1.361 . S
C270 H254 0.942 . S
C270 C269 1.361 . S
C270 C271 1.369 . S
C271 C270 1.369 . S
C271 C272 1.404 . S
C272 H255 0.940 . S
C272 C271 1.404 . S
C272 C273 1.389 . S
C273 H256 0.939 . S
C273 C268 1.400 . S
C273 C272 1.389 . S
C274 P248 1.819 . S
C274 C275 1.391 . S
C274 C279 1.391 . S
C275 H257 0.941 . S
C275 C274 1.391 . S
C275 C276 1.396 . S
C276 H260 0.939 . S
C276 C275 1.396 . S
C276 C277 1.397 . S
C277 C276 1.397 . S
C277 C278 1.385 . S
C278 H261 0.940 . S
C278 C277 1.385 . S
C278 C279 1.388 . S
C279 H258 0.939 . S
C279 C274 1.391 . S
C279 C278 1.388 . S
P280 O291 1.490 . S
P280 C294 1.812 . S
P280 C300 1.803 . S
P280 C306 1.819 . S
H281 C295 0.941 . S
H282 C296 0.939 . S
H283 C298 0.940 . S
H284 C299 0.940 . S
H285 C301 0.939 . S
H286 C302 0.942 . S
H287 C304 0.940 . S
H288 C305 0.939 . S
H289 C307 0.941 . S
H290 C311 0.939 . S
O291 P280 1.490 . S
H292 C308 0.939 . S
H293 C310 0.940 . S
C294 P280 1.812 . S
C294 C295 1.389 . S
C294 C299 1.391 . S
C295 H281 0.941 . S
C295 C294 1.389 . S
C295 C296 1.397 . S
C296 H282 0.939 . S
C296 C295 1.397 . S
C296 C297 1.378 . S
C297 C296 1.378 . S
C297 C298 1.378 . S
C298 H283 0.940 . S
C298 C297 1.378 . S
C298 C299 1.396 . S
C299 H284 0.940 . S
C299 C294 1.391 . S
C299 C298 1.396 . S
C300 P280 1.803 . S
C300 C301 1.378 . S
C300 C305 1.400 . S
C301 H285 0.939 . S
C301 C300 1.378 . S
C301 C302 1.361 . S
C302 H286 0.942 . S
C302 C301 1.361 . S
C302 C303 1.369 . S
C303 C302 1.369 . S
C303 C304 1.404 . S
C304 H287 0.940 . S
C304 C303 1.404 . S
C304 C305 1.389 . S
C305 H288 0.939 . S
C305 C300 1.400 . S
C305 C304 1.389 . S
C306 P280 1.819 . S
C306 C307 1.391 . S
C306 C311 1.391 . S
C307 H289 0.941 . S
C307 C306 1.391 . S
C307 C308 1.396 . S
C308 H292 0.939 . S
C308 C307 1.396 . S
C308 C309 1.397 . S
C309 C308 1.397 . S
C309 C310 1.385 . S
C310 H293 0.940 . S
C310 C309 1.385 . S
C310 C311 1.388 . S
C311 H290 0.939 . S
C311 C306 1.391 . S
C311 C310 1.388 . S
P312 O323 1.490 . S
P312 C326 1.812 . S
P312 C332 1.803 . S
P312 C338 1.819 . S
H313 C327 0.941 . S
H314 C328 0.939 . S
H315 C330 0.940 . S
H316 C331 0.940 . S
H317 C333 0.939 . S
H318 C334 0.942 . S
H319 C336 0.940 . S
H320 C337 0.939 . S
H321 C339 0.941 . S
H322 C343 0.939 . S
O323 P312 1.490 . S
H324 C340 0.939 . S
H325 C342 0.940 . S
C326 P312 1.812 . S
C326 C327 1.389 . S
C326 C331 1.391 . S
C327 H313 0.941 . S
C327 C326 1.389 . S
C327 C328 1.397 . S
C328 H314 0.939 . S
C328 C327 1.397 . S
C328 C329 1.378 . S
C329 C328 1.378 . S
C329 C330 1.378 . S
C330 H315 0.940 . S
C330 C329 1.378 . S
C330 C331 1.396 . S
C331 H316 0.940 . S
C331 C326 1.391 . S
C331 C330 1.396 . S
C332 P312 1.803 . S
C332 C333 1.378 . S
C332 C337 1.400 . S
C333 H317 0.939 . S
C333 C332 1.378 . S
C333 C334 1.361 . S
C334 H318 0.942 . S
C334 C333 1.361 . S
C334 C335 1.369 . S
C335 C334 1.369 . S
C335 C336 1.404 . S
C336 H319 0.940 . S
C336 C335 1.404 . S
C336 C337 1.389 . S
C337 H320 0.939 . S
C337 C332 1.400 . S
C337 C336 1.389 . S
C338 P312 1.819 . S
C338 C339 1.391 . S
C338 C343 1.391 . S
C339 H321 0.941 . S
C339 C338 1.391 . S
C339 C340 1.396 . S
C340 H324 0.939 . S
C340 C339 1.396 . S
C340 C341 1.397 . S
C341 C340 1.397 . S
C341 C342 1.385 . S
C342 H325 0.940 . S
C342 C341 1.385 . S
C342 C343 1.388 . S
C343 H322 0.939 . S
C343 C338 1.391 . S
C343 C342 1.388 . S
H344 C352 0.929 . S
H345 C354 0.930 . S
H346 C356 0.930 . S
H347 C359 0.929 . S
H348 C362 0.930 . S
H349 C364 0.960 . S
H350 C364 0.960 . S
H351 C364 0.960 . S
C352 H344 0.929 . S
C352 C353 1.377 . S
C352 C354 1.384 . S
C353 C352 1.377 . S
C353 C359 1.390 . S
C354 H345 0.930 . S
C354 C352 1.384 . S
C354 C355 1.372 . S
C355 C354 1.372 . S
C355 C356 1.400 . S
C355 C360 1.490 . S
C356 H346 0.930 . S
C356 C355 1.400 . S
C356 C359 1.386 . S
H357 C373 0.930 . S
H358 C374 0.931 . S
C359 H347 0.929 . S
C359 C353 1.390 . S
C359 C356 1.386 . S
C360 C355 1.490 . S
C360 C362 1.395 . S
C360 C363 1.403 . S
H361 C367 0.930 . S
C362 H348 0.930 . S
C362 C360 1.395 . S
C362 C365 1.403 . S
C363 C360 1.403 . S
C363 C364 1.524 . S
C363 C367 1.400 . S
C364 H349 0.960 . S
C364 H350 0.960 . S
C364 H351 0.960 . S
C364 C363 1.524 . S
C365 C362 1.403 . S
C365 C366 1.392 . S
C365 C369 1.495 . S
C366 C365 1.392 . S
C366 C367 1.385 . S
C366 C368 1.478 . S
C367 H361 0.930 . S
C367 C363 1.400 . S
C367 C366 1.385 . S
C368 C366 1.478 . S
C368 C370 1.381 . S
C368 C374 1.383 1_565 S
C369 C365 1.495 . S
C369 H375 0.959 . S
C369 H376 0.961 . S
C369 H377 0.960 . S
C370 C368 1.381 . S
C370 C371 1.403 . S
C370 H378 0.930 . S
C371 C370 1.403 . S
C371 C372 1.369 1_565 S
C371 H379 0.934 . S
C372 C371 1.369 1_545 S
C372 C373 1.377 . S
C373 H357 0.930 . S
C373 C372 1.377 . S
C373 C374 1.379 . S
C374 H358 0.931 . S
C374 C368 1.383 1_545 S
C374 C373 1.379 . S
H375 C369 0.959 . S
H376 C369 0.961 . S
H377 C369 0.960 . S
H378 C370 0.930 . S
H379 C371 0.934 . S
H380 C388 0.929 . S
H381 C390 0.930 . S
H382 C392 0.930 . S
H383 C395 0.929 . S
H384 C398 0.930 . S
H385 C400 0.960 . S
H386 C400 0.960 . S
H387 C400 0.960 . S
C388 H380 0.929 . S
C388 C389 1.377 . S
C388 C390 1.384 . S
C389 C388 1.377 . S
C389 C395 1.390 . S
C390 H381 0.930 . S
C390 C388 1.384 . S
C390 C391 1.372 . S
C391 C390 1.372 . S
C391 C392 1.400 . S
C391 C396 1.490 . S
C392 H382 0.930 . S
C392 C391 1.400 . S
C392 C395 1.386 . S
H393 C409 0.930 . S
H394 C410 0.931 . S
C395 H383 0.929 . S
C395 C389 1.390 . S
C395 C392 1.386 . S
C396 C391 1.490 . S
C396 C398 1.395 . S
C396 C399 1.403 . S
H397 C403 0.930 . S
C398 H384 0.930 . S
C398 C396 1.395 . S
C398 C401 1.403 . S
C399 C396 1.403 . S
C399 C400 1.524 . S
C399 C403 1.400 . S
C400 H385 0.960 . S
C400 H386 0.960 . S
C400 H387 0.960 . S
C400 C399 1.524 . S
C401 C398 1.403 . S
C401 C402 1.392 . S
C401 C405 1.495 . S
C402 C401 1.392 . S
C402 C403 1.385 . S
C402 C404 1.478 . S
C403 H397 0.930 . S
C403 C399 1.400 . S
C403 C402 1.385 . S
C404 C402 1.478 . S
C404 C406 1.381 . S
C404 C410 1.383 . S
C405 C401 1.495 . S
C405 H411 0.959 . S
C405 H412 0.961 . S
C405 H413 0.960 . S
C406 C404 1.381 . S
C406 C407 1.394 . S
C406 H414 0.930 . S
C407 C406 1.394 . S
C407 C408 1.383 . S
C407 H415 0.929 . S
C408 C407 1.383 . S
C408 C409 1.377 . S
C409 H393 0.930 . S
C409 C408 1.377 . S
C409 C410 1.379 . S
C410 H394 0.931 . S
C410 C404 1.383 . S
C410 C409 1.379 . S
H411 C405 0.959 . S
H412 C405 0.961 . S
H413 C405 0.960 . S
H414 C406 0.930 . S
H415 C407 0.929 . S
H416 C424 0.929 . S
H417 C426 0.930 . S
H418 C428 0.930 . S
H419 C431 0.929 . S
H420 C434 0.930 . S
H421 C436 0.960 . S
H422 C436 0.960 . S
H423 C436 0.960 . S
C424 H416 0.929 . S
C424 C425 1.377 . S
C424 C426 1.384 . S
C425 C424 1.377 . S
C425 C431 1.390 . S
C426 H417 0.930 . S
C426 C424 1.384 . S
C426 C427 1.372 . S
C427 C426 1.372 . S
C427 C428 1.400 . S
C427 C432 1.490 . S
C428 H418 0.930 . S
C428 C427 1.400 . S
C428 C431 1.386 . S
H429 C445 0.930 . S
H430 C446 0.931 . S
C431 H419 0.929 . S
C431 C425 1.390 . S
C431 C428 1.386 . S
C432 C427 1.490 . S
C432 C434 1.395 . S
C432 C435 1.403 . S
H433 C439 0.930 . S
C434 H420 0.930 . S
C434 C432 1.395 . S
C434 C437 1.403 . S
C435 C432 1.403 . S
C435 C436 1.524 . S
C435 C439 1.400 . S
C436 H421 0.960 . S
C436 H422 0.960 . S
C436 H423 0.960 . S
C436 C435 1.524 . S
C437 C434 1.403 . S
C437 C438 1.392 1_545 S
C437 C441 1.495 1_545 S
C438 C437 1.392 1_565 S
C438 C439 1.385 1_565 S
C438 C440 1.478 . S
C439 H433 0.930 . S
C439 C435 1.400 . S
C439 C438 1.385 1_545 S
C440 C438 1.478 . S
C440 C442 1.381 . S
C440 C446 1.383 . S
C441 C437 1.495 1_565 S
C441 H447 0.946 1_565 S
C441 H448 0.961 . S
C441 H449 0.960 . S
C442 C440 1.381 . S
C442 C443 1.394 . S
C442 H450 0.930 . S
C443 C442 1.394 . S
C443 C444 1.383 . S
C443 H451 0.929 . S
C444 C443 1.383 . S
C444 C445 1.377 . S
C445 H429 0.930 . S
C445 C444 1.377 . S
C445 C446 1.379 . S
C446 H430 0.931 . S
C446 C440 1.383 . S
C446 C445 1.379 . S
H447 C441 0.946 1_545 S
H448 C441 0.961 . S
H449 C441 0.960 . S
H450 C442 0.930 . S
H451 C443 0.929 . S
H452 C460 0.929 . S
H453 C462 0.930 . S
H454 C464 0.930 . S
H455 C467 0.929 . S
H456 C470 0.930 . S
H457 C472 0.960 . S
H458 C472 0.960 . S
H459 C472 0.960 . S
C460 H452 0.929 . S
C460 C461 1.377 . S
C460 C462 1.384 . S
C461 C460 1.377 . S
C461 C467 1.390 . S
C462 H453 0.930 . S
C462 C460 1.384 . S
C462 C463 1.372 . S
C463 C462 1.372 . S
C463 C464 1.400 . S
C463 C468 1.490 . S
C464 H454 0.930 . S
C464 C463 1.400 . S
C464 C467 1.386 . S
H465 C481 0.930 . S
H466 C482 0.931 . S
C467 H455 0.929 . S
C467 C461 1.390 . S
C467 C464 1.386 . S
C468 C463 1.490 . S
C468 C470 1.395 . S
C468 C471 1.403 . S
H469 C475 0.930 . S
C470 H456 0.930 . S
C470 C468 1.395 . S
C470 C473 1.403 . S
C471 C468 1.403 . S
C471 C472 1.524 . S
C471 C475 1.400 . S
C472 H457 0.960 . S
C472 H458 0.960 . S
C472 H459 0.960 . S
C472 C471 1.524 . S
C473 C470 1.403 . S
C473 C474 1.392 . S
C473 C477 1.495 . S
C474 C473 1.392 . S
C474 C475 1.385 . S
C474 C476 1.478 . S
C475 H469 0.930 . S
C475 C471 1.400 . S
C475 C474 1.385 . S
C476 C474 1.478 . S
C476 C478 1.381 . S
C476 C482 1.383 . S
C477 C473 1.495 . S
C477 H483 0.959 . S
C477 H484 0.961 . S
C477 H485 0.960 . S
C478 C476 1.381 . S
C478 C479 1.394 . S
C478 H486 0.930 . S
C479 C478 1.394 . S
C479 C480 1.383 . S
C479 H487 0.929 . S
C480 C479 1.383 . S
C480 C481 1.377 . S
C481 H465 0.930 . S
C481 C480 1.377 . S
C481 C482 1.379 . S
C482 H466 0.931 . S
C482 C476 1.383 . S
C482 C481 1.379 . S
H483 C477 0.959 . S
H484 C477 0.961 . S
H485 C477 0.960 . S
H486 C478 0.930 . S
H487 C479 0.929 . S
H488 C496 0.929 . S
H489 C498 0.930 . S
H490 C500 0.930 . S
H491 C503 0.929 . S
H492 C506 0.930 . S
H493 C508 0.960 . S
H494 C508 0.960 . S
H495 C508 0.960 . S
C496 H488 0.929 . S
C496 C497 1.377 . S
C496 C498 1.384 . S
C497 C496 1.377 . S
C497 C503 1.390 . S
C498 H489 0.930 . S
C498 C496 1.384 . S
C498 C499 1.372 . S
C499 C498 1.372 . S
C499 C500 1.400 . S
C499 C504 1.490 . S
C500 H490 0.930 . S
C500 C499 1.400 . S
C500 C503 1.386 . S
H501 C517 0.930 . S
H502 C518 0.931 . S
C503 H491 0.929 . S
C503 C497 1.390 . S
C503 C500 1.386 . S
C504 C499 1.490 . S
C504 C506 1.395 . S
C504 C507 1.403 . S
H505 C511 0.930 . S
C506 H492 0.930 . S
C506 C504 1.395 . S
C506 C509 1.403 . S
C507 C504 1.403 . S
C507 C508 1.524 . S
C507 C511 1.400 . S
C508 H493 0.960 . S
C508 H494 0.960 . S
C508 H495 0.960 . S
C508 C507 1.524 . S
C509 C506 1.403 . S
C509 C510 1.392 . S
C509 C513 1.495 . S
C510 C509 1.392 . S
C510 C511 1.385 . S
C510 C512 1.478 . S
C511 H505 0.930 . S
C511 C507 1.400 . S
C511 C510 1.385 . S
C512 C510 1.478 . S
C512 C514 1.381 . S
C512 C518 1.383 . S
C513 C509 1.495 . S
C513 H519 0.959 . S
C513 H520 0.961 . S
C513 H521 0.960 . S
C514 C512 1.381 . S
C514 C515 1.394 . S
C514 H522 0.930 . S
C515 C514 1.394 . S
C515 C516 1.383 . S
C515 H523 0.929 . S
C516 C515 1.383 . S
C516 C517 1.377 . S
C517 H501 0.930 . S
C517 C516 1.377 . S
C517 C518 1.379 . S
C518 H502 0.931 . S
C518 C512 1.383 . S
C518 C517 1.379 . S
H519 C513 0.959 . S
H520 C513 0.961 . S
H521 C513 0.960 . S
H522 C514 0.930 . S
H523 C515 0.929 . S
H524 C532 0.929 1_554 S
H525 C534 0.930 1_554 S
H526 C536 0.930 . S
H527 C539 0.929 . S
H528 C542 0.930 . S
H529 C544 0.960 . S
H530 C544 0.960 . S
H531 C544 0.959 1_655 S
C532 H524 0.929 1_556 S
C532 C533 1.377 . S
C532 C534 1.384 . S
C533 C532 1.377 . S
C533 C539 1.390 . S
C534 H525 0.930 1_556 S
C534 C532 1.384 . S
C534 C535 1.372 . S
C535 C534 1.372 . S
C535 C536 1.400 . S
C535 C540 1.490 1_655 S
C536 H526 0.930 . S
C536 C535 1.400 . S
C536 C539 1.386 . S
H537 C553 0.930 . S
H538 C554 0.931 . S
C539 H527 0.929 . S
C539 C533 1.390 . S
C539 C536 1.386 . S
C540 C535 1.490 1_455 S
C540 C542 1.395 . S
C540 C543 1.403 . S
H541 C547 0.930 . S
C542 H528 0.930 . S
C542 C540 1.395 . S
C542 C545 1.403 . S
C543 C540 1.403 . S
C543 C544 1.524 . S
C543 C547 1.400 . S
C544 H529 0.960 . S
C544 H530 0.960 . S
C544 H531 0.959 1_455 S
C544 C543 1.524 . S
C545 C542 1.403 . S
C545 C546 1.392 . S
C545 C549 1.495 . S
C546 C545 1.392 . S
C546 C547 1.385 . S
C546 C548 1.478 . S
C547 H541 0.930 . S
C547 C543 1.400 . S
C547 C546 1.385 . S
C548 C546 1.478 . S
C548 C550 1.381 . S
C548 C554 1.383 . S
C549 C545 1.495 . S
C549 H555 0.959 . S
C549 H556 0.961 . S
C549 H557 0.960 . S
C550 C548 1.381 . S
C550 C551 1.394 . S
C550 H558 0.930 . S
C551 C550 1.394 . S
C551 C552 1.383 . S
C551 H559 0.929 . S
C552 C551 1.383 . S
C552 C553 1.377 . S
C553 H537 0.930 . S
C553 C552 1.377 . S
C553 C554 1.379 . S
C554 H538 0.931 . S
C554 C548 1.383 . S
C554 C553 1.379 . S
H555 C549 0.959 . S
H556 C549 0.961 . S
H557 C549 0.960 . S
H558 C550 0.930 . S
H559 C551 0.929 . S
H560 C568 0.929 . S
H561 C570 0.930 . S
H562 C572 0.930 . S
H563 C575 0.929 . S
H564 C578 0.930 . S
H565 C580 0.960 . S
H566 C580 0.960 . S
H567 C580 0.960 . S
C568 H560 0.929 . S
C568 C569 1.377 . S
C568 C570 1.384 . S
C569 C568 1.377 . S
C569 C575 1.390 . S
C570 H561 0.930 . S
C570 C568 1.384 . S
C570 C571 1.372 . S
C571 C570 1.372 . S
C571 C572 1.400 . S
C571 C576 1.490 . S
C572 H562 0.930 . S
C572 C571 1.400 . S
C572 C575 1.386 . S
H573 C589 0.930 . S
H574 C590 0.931 . S
C575 H563 0.929 . S
C575 C569 1.390 . S
C575 C572 1.386 . S
C576 C571 1.490 . S
C576 C578 1.395 . S
C576 C579 1.403 . S
H577 C583 0.930 . S
C578 H564 0.930 . S
C578 C576 1.395 . S
C578 C581 1.403 . S
C579 C576 1.403 . S
C579 C580 1.524 . S
C579 C583 1.400 . S
C580 H565 0.960 . S
C580 H566 0.960 . S
C580 H567 0.960 . S
C580 C579 1.524 . S
C581 C578 1.403 . S
C581 C582 1.392 . S
C581 C585 1.495 . S
C582 C581 1.392 . S
C582 C583 1.385 . S
C582 C584 1.478 . S
C583 H577 0.930 . S
C583 C579 1.400 . S
C583 C582 1.385 . S
C584 C582 1.478 . S
C584 C586 1.381 . S
C584 C590 1.383 . S
C585 C581 1.495 . S
C585 H591 0.959 . S
C585 H592 0.961 . S
C585 H593 0.960 . S
C586 C584 1.381 . S
C586 C587 1.394 . S
C586 H594 0.930 . S
C587 C586 1.394 . S
C587 C588 1.383 . S
C587 H595 0.929 . S
C588 C587 1.383 . S
C588 C589 1.377 . S
C589 H573 0.930 . S
C589 C588 1.377 . S
C589 C590 1.379 . S
C590 H574 0.931 . S
C590 C584 1.383 . S
C590 C589 1.379 . S
H591 C585 0.959 . S
H592 C585 0.961 . S
H593 C585 0.960 . S
H594 C586 0.930 . S
H595 C587 0.929 . S
H596 C604 0.929 . S
H597 C606 0.930 . S
H598 C608 0.930 . S
H599 C611 0.929 . S
H600 C614 0.930 . S
H601 C616 0.960 . S
H602 C616 0.960 . S
H603 C616 0.960 . S
C604 H596 0.929 . S
C604 C605 1.377 . S
C604 C606 1.384 . S
C605 C604 1.377 . S
C605 C611 1.390 . S
C606 H597 0.930 . S
C606 C604 1.384 . S
C606 C607 1.372 . S
C607 C606 1.372 . S
C607 C608 1.400 . S
C607 C612 1.490 . S
C608 H598 0.930 . S
C608 C607 1.400 . S
C608 C611 1.386 . S
H609 C625 0.930 . S
H610 C626 0.931 . S
C611 H599 0.929 . S
C611 C605 1.390 . S
C611 C608 1.386 . S
C612 C607 1.490 . S
C612 C614 1.395 . S
C612 C615 1.403 . S
H613 C619 0.930 . S
C614 H600 0.930 . S
C614 C612 1.395 . S
C614 C617 1.403 . S
C615 C612 1.403 . S
C615 C616 1.524 . S
C615 C619 1.400 . S
C616 H601 0.960 . S
C616 H602 0.960 . S
C616 H603 0.960 . S
C616 C615 1.524 . S
C617 C614 1.403 . S
C617 C618 1.392 . S
C617 C621 1.495 . S
C618 C617 1.392 . S
C618 C619 1.385 . S
C618 C620 1.478 . S
C619 H613 0.930 . S
C619 C615 1.400 . S
C619 C618 1.385 . S
C620 C618 1.478 . S
C620 C622 1.381 . S
C620 C626 1.383 . S
C621 C617 1.495 . S
C621 H627 0.970 . S
C621 H628 0.961 1_455 S
C621 H629 0.960 . S
C622 C620 1.381 . S
C622 C623 1.394 . S
C622 H630 0.930 . S
C623 C622 1.394 . S
C623 C624 1.383 . S
C623 H631 0.929 . S
C624 C623 1.383 . S
C624 C625 1.377 . S
C625 H609 0.930 . S
C625 C624 1.377 . S
C625 C626 1.379 . S
C626 H610 0.931 . S
C626 C620 1.383 . S
C626 C625 1.379 . S
H627 C621 0.970 . S
H628 C621 0.961 1_655 S
H629 C621 0.960 . S
H630 C622 0.930 . S
H631 C623 0.929 . S
H632 C640 0.929 . S
H633 C642 0.930 . S
H634 C644 0.930 . S
H635 C647 0.929 . S
H636 C650 0.930 . S
H637 C652 0.960 . S
H638 C652 0.960 . S
H639 C652 0.960 . S
C640 H632 0.929 . S
C640 C641 1.377 . S
C640 C642 1.384 . S
C641 C640 1.377 . S
C641 C647 1.390 . S
C642 H633 0.930 . S
C642 C640 1.384 . S
C642 C643 1.372 . S
C643 C642 1.372 . S
C643 C644 1.400 . S
C643 C648 1.490 . S
C644 H634 0.930 . S
C644 C643 1.400 . S
C644 C647 1.386 . S
H645 C661 0.930 . S
H646 C662 0.931 . S
C647 H635 0.929 . S
C647 C641 1.390 . S
C647 C644 1.386 . S
C648 C643 1.490 . S
C648 C650 1.395 . S
C648 C651 1.403 . S
H649 C655 0.930 . S
C650 H636 0.930 . S
C650 C648 1.395 . S
C650 C653 1.403 . S
C651 C648 1.403 . S
C651 C652 1.524 . S
C651 C655 1.400 . S
C652 H637 0.960 . S
C652 H638 0.960 . S
C652 H639 0.960 . S
C652 C651 1.524 . S
C653 C650 1.403 . S
C653 C654 1.392 . S
C653 C657 1.495 . S
C654 C653 1.392 . S
C654 C655 1.385 . S
C654 C656 1.478 . S
C655 H649 0.930 . S
C655 C651 1.400 . S
C655 C654 1.385 . S
C656 C654 1.478 . S
C656 C658 1.381 1_545 S
C656 C662 1.383 . S
C657 C653 1.495 . S
C657 H663 0.959 . S
C657 H664 0.961 . S
C657 H665 0.960 . S
C658 C656 1.381 1_565 S
C658 C659 1.394 . S
C658 H666 0.930 . S
C659 C658 1.394 . S
C659 C660 1.383 . S
C659 H667 0.929 . S
C660 C659 1.383 . S
C660 C661 1.377 . S
C661 H645 0.930 . S
C661 C660 1.377 . S
C661 C662 1.379 1_565 S
C662 H646 0.931 . S
C662 C656 1.383 . S
C662 C661 1.379 1_545 S
H663 C657 0.959 . S
H664 C657 0.961 . S
H665 C657 0.960 . S
H666 C658 0.930 . S
H667 C659 0.929 . S
H668 C676 0.929 . S
H669 C678 0.930 . S
H670 C680 0.930 . S
H671 C683 0.929 . S
H672 C686 0.930 . S
H673 C688 0.960 . S
H674 C688 0.960 . S
H675 C688 0.960 . S
C676 H668 0.929 . S
C676 C677 1.377 . S
C676 C678 1.384 . S
C677 C676 1.377 . S
C677 C683 1.390 . S
C678 H669 0.930 . S
C678 C676 1.384 . S
C678 C679 1.372 . S
C679 C678 1.372 . S
C679 C680 1.400 . S
C679 C684 1.490 . S
C680 H670 0.930 . S
C680 C679 1.400 . S
C680 C683 1.386 . S
H681 C697 0.930 . S
H682 C698 0.931 . S
C683 H671 0.929 . S
C683 C677 1.390 . S
C683 C680 1.386 . S
C684 C679 1.490 . S
C684 C686 1.395 . S
C684 C687 1.403 . S
H685 C691 0.930 . S
C686 H672 0.930 . S
C686 C684 1.395 . S
C686 C689 1.403 . S
C687 C684 1.403 . S
C687 C688 1.524 . S
C687 C691 1.400 . S
C688 H673 0.960 . S
C688 H674 0.960 . S
C688 H675 0.960 . S
C688 C687 1.524 . S
C689 C686 1.403 . S
C689 C690 1.392 . S
C689 C693 1.495 . S
C690 C689 1.392 . S
C690 C691 1.385 . S
C690 C692 1.478 . S
C691 H685 0.930 . S
C691 C687 1.400 . S
C691 C690 1.385 . S
C692 C690 1.478 . S
C692 C694 1.381 . S
C692 C698 1.383 . S
C693 C689 1.495 . S
C693 H699 0.959 . S
C693 H700 0.961 . S
C693 H701 0.960 . S
C694 C692 1.381 . S
C694 C695 1.394 . S
C694 H702 0.930 . S
C695 C694 1.394 . S
C695 C696 1.383 . S
C695 H703 0.929 . S
C696 C695 1.383 . S
C696 C697 1.377 . S
C697 H681 0.930 . S
C697 C696 1.377 . S
C697 C698 1.379 . S
C698 H682 0.931 . S
C698 C692 1.383 . S
C698 C697 1.379 . S
H699 C693 0.959 . S
H700 C693 0.961 . S
H701 C693 0.960 . S
H702 C694 0.930 . S
H703 C695 0.929 . S
H704 C712 0.929 . S
H705 C714 0.930 . S
H706 C716 0.930 . S
H707 C719 0.929 . S
H708 C722 0.930 . S
H709 C724 0.960 1_545 S
H710 C724 0.960 . S
H711 C724 0.960 . S
C712 H704 0.929 . S
C712 C713 1.377 . S
C712 C714 1.384 1_554 S
C713 C712 1.377 . S
C713 C719 1.390 . S
C714 H705 0.930 . S
C714 C712 1.384 1_556 S
C714 C715 1.372 . S
C715 C714 1.372 . S
C715 C716 1.400 . S
C715 C720 1.490 . S
C716 H706 0.930 . S
C716 C715 1.400 . S
C716 C719 1.386 1_556 S
H717 C733 0.930 . S
H718 C734 0.931 . S
C719 H707 0.929 . S
C719 C713 1.390 . S
C719 C716 1.386 1_554 S
C720 C715 1.490 . S
C720 C722 1.395 . S
C720 C723 1.403 . S
H721 C727 0.909 1_545 S
C722 H708 0.930 . S
C722 C720 1.395 . S
C722 C725 1.403 . S
C723 C720 1.403 . S
C723 C724 1.524 1_556 S
C723 C727 1.419 . S
C724 H709 0.960 1_565 S
C724 H710 0.960 . S
C724 H711 0.960 . S
C724 C723 1.524 1_554 S
C725 C722 1.403 . S
C725 C726 1.392 . S
C725 C729 1.495 . S
C726 C725 1.392 . S
C726 C727 1.386 . S
C726 C728 1.478 1_565 S
C727 H721 0.909 1_565 S
C727 C723 1.419 . S
C727 C726 1.386 . S
C728 C726 1.478 1_545 S
C728 C730 1.381 . S
C728 C734 1.383 . S
C729 C725 1.495 . S
C729 H735 0.959 . S
C729 H736 0.961 . S
C729 H737 0.960 . S
C730 C728 1.381 . S
C730 C731 1.394 . S
C730 H738 0.930 . S
C731 C730 1.394 . S
C731 C732 1.383 . S
C731 H739 0.929 . S
C732 C731 1.383 . S
C732 C733 1.377 . S
C733 H717 0.930 . S
C733 C732 1.377 . S
C733 C734 1.379 . S
C734 H718 0.931 . S
C734 C728 1.383 . S
C734 C733 1.379 . S
H735 C729 0.959 . S
H736 C729 0.961 . S
H737 C729 0.960 . S
H738 C730 0.930 . S
H739 C731 0.929 . S
H740 C748 0.929 . S
H741 C750 0.930 . S
H742 C752 0.930 . S
H743 C755 0.929 . S
H744 C758 0.930 . S
H745 C760 0.960 . S
H746 C760 0.960 . S
H747 C760 0.960 . S
C748 H740 0.929 . S
C748 C749 1.377 . S
C748 C750 1.384 . S
C749 C748 1.377 . S
C749 C755 1.390 . S
C750 H741 0.930 . S
C750 C748 1.384 . S
C750 C751 1.372 . S
C751 C750 1.372 . S
C751 C752 1.400 . S
C751 C756 1.490 . S
C752 H742 0.930 . S
C752 C751 1.400 . S
C752 C755 1.386 . S
H753 C769 0.930 . S
H754 C770 0.931 . S
C755 H743 0.929 . S
C755 C749 1.390 . S
C755 C752 1.386 . S
C756 C751 1.490 . S
C756 C758 1.395 . S
C756 C759 1.403 . S
H757 C763 0.930 . S
C758 H744 0.930 . S
C758 C756 1.395 . S
C758 C761 1.403 . S
C759 C756 1.403 . S
C759 C760 1.524 . S
C759 C763 1.400 . S
C760 H745 0.960 . S
C760 H746 0.960 . S
C760 H747 0.960 . S
C760 C759 1.524 . S
C761 C758 1.403 . S
C761 C762 1.392 . S
C761 C765 1.495 . S
C762 C761 1.392 . S
C762 C763 1.385 . S
C762 C764 1.478 . S
C763 H757 0.930 . S
C763 C759 1.400 . S
C763 C762 1.385 . S
C764 C762 1.478 . S
C764 C766 1.381 . S
C764 C770 1.383 . S
C765 C761 1.495 . S
C765 H771 0.959 . S
C765 H772 0.961 . S
C765 H773 0.960 . S
C766 C764 1.381 . S
C766 C767 1.394 . S
C766 H774 0.930 . S
C767 C766 1.394 . S
C767 C768 1.383 . S
C767 H775 0.929 . S
C768 C767 1.383 . S
C768 C769 1.377 . S
C769 H753 0.930 . S
C769 C768 1.377 . S
C769 C770 1.379 . S
C770 H754 0.931 . S
C770 C764 1.383 . S
C770 C769 1.379 . S
H771 C765 0.959 . S
H772 C765 0.961 . S
H773 C765 0.960 . S
H774 C766 0.930 . S
H775 C767 0.929 . S
H776 C784 0.929 . S
H777 C786 0.930 . S
H778 C788 0.930 . S
H779 C791 0.929 . S
H780 C794 0.930 . S
H781 C796 0.960 . S
H782 C796 0.960 . S
H783 C796 0.960 . S
C784 H776 0.929 . S
C784 C785 1.377 . S
C784 C786 1.384 . S
C785 C784 1.377 . S
C785 C791 1.390 . S
C786 H777 0.930 . S
C786 C784 1.384 . S
C786 C787 1.372 . S
C787 C786 1.372 . S
C787 C788 1.400 . S
C787 C792 1.490 . S
C788 H778 0.930 . S
C788 C787 1.400 . S
C788 C791 1.386 . S
H789 C805 0.930 . S
H790 C806 0.931 . S
C791 H779 0.929 . S
C791 C785 1.390 . S
C791 C788 1.386 . S
C792 C787 1.490 . S
C792 C794 1.395 . S
C792 C795 1.403 . S
H793 C799 0.930 . S
C794 H780 0.930 . S
C794 C792 1.395 . S
C794 C797 1.403 . S
C795 C792 1.403 . S
C795 C796 1.524 . S
C795 C799 1.400 . S
C796 H781 0.960 . S
C796 H782 0.960 . S
C796 H783 0.960 . S
C796 C795 1.524 . S
C797 C794 1.403 . S
C797 C798 1.392 . S
C797 C801 1.495 . S
C798 C797 1.392 . S
C798 C799 1.385 . S
C798 C800 1.478 . S
C799 H793 0.930 . S
C799 C795 1.400 . S
C799 C798 1.385 . S
C800 C798 1.478 . S
C800 C802 1.381 . S
C800 C806 1.383 . S
C801 C797 1.495 . S
C801 H807 0.959 . S
C801 H808 0.961 . S
C801 H809 0.960 . S
C802 C800 1.381 . S
C802 C803 1.394 . S
C802 H810 0.930 . S
C803 C802 1.394 . S
C803 C804 1.383 . S
C803 H811 0.929 . S
C804 C803 1.383 . S
C804 C805 1.377 . S
C805 H789 0.930 . S
C805 C804 1.377 . S
C805 C806 1.379 . S
C806 H790 0.931 . S
C806 C800 1.383 . S
C806 C805 1.379 . S
H807 C801 0.959 . S
H808 C801 0.961 . S
H809 C801 0.960 . S
H810 C802 0.930 . S
H811 C803 0.929 . S
H812 C820 0.929 . S
H813 C822 0.930 . S
H814 C824 0.930 . S
H815 C827 0.929 . S
H816 C830 0.930 . S
H817 C832 0.960 . S
H818 C832 0.960 . S
H819 C832 0.960 . S
C820 H812 0.929 . S
C820 C821 1.377 . S
C820 C822 1.384 . S
C821 C820 1.377 . S
C821 C827 1.390 . S
C822 H813 0.930 . S
C822 C820 1.384 . S
C822 C823 1.372 . S
C823 C822 1.372 . S
C823 C824 1.400 . S
C823 C828 1.490 1_455 S
C824 H814 0.930 . S
C824 C823 1.400 . S
C824 C827 1.386 . S
H825 C841 0.930 . S
H826 C842 0.931 . S
C827 H815 0.929 . S
C827 C821 1.390 . S
C827 C824 1.386 . S
C828 C823 1.490 1_655 S
C828 C830 1.395 . S
C828 C831 1.403 . S
H829 C835 0.930 . S
C830 H816 0.930 . S
C830 C828 1.395 . S
C830 C833 1.403 . S
C831 C828 1.403 . S
C831 C832 1.524 . S
C831 C835 1.400 . S
C832 H817 0.960 . S
C832 H818 0.960 . S
C832 H819 0.960 . S
C832 C831 1.524 . S
C833 C830 1.403 . S
C833 C834 1.392 . S
C833 C837 1.495 . S
C834 C833 1.392 . S
C834 C835 1.385 . S
C834 C836 1.478 . S
C835 H829 0.930 . S
C835 C831 1.400 . S
C835 C834 1.385 . S
C836 C834 1.478 . S
C836 C838 1.381 . S
C836 C842 1.383 . S
C837 C833 1.495 . S
C837 H843 0.959 . S
C837 H844 0.961 . S
C837 H845 0.960 . S
C838 C836 1.381 . S
C838 C839 1.394 . S
C838 H846 0.930 . S
C839 C838 1.394 . S
C839 C840 1.383 . S
C839 H847 0.929 . S
C840 C839 1.383 . S
C840 C841 1.377 . S
C841 H825 0.930 . S
C841 C840 1.377 . S
C841 C842 1.379 . S
C842 H826 0.931 . S
C842 C836 1.383 . S
C842 C841 1.379 . S
H843 C837 0.959 . S
H844 C837 0.961 . S
H845 C837 0.960 . S
H846 C838 0.930 . S
H847 C839 0.929 . S
H848 C856 0.929 . S
H849 C858 0.930 . S
H850 C860 0.930 . S
H851 C863 0.929 . S
H852 C866 0.930 . S
H853 C868 0.960 . S
H854 C868 0.960 . S
H855 C868 0.960 . S
C856 H848 0.929 . S
C856 C857 1.377 . S
C856 C858 1.384 . S
C857 C856 1.377 . S
C857 C863 1.390 . S
C858 H849 0.930 . S
C858 C856 1.384 . S
C858 C859 1.372 . S
C859 C858 1.372 . S
C859 C860 1.400 . S
C859 C864 1.490 . S
C860 H850 0.930 . S
C860 C859 1.400 . S
C860 C863 1.386 . S
H861 C877 0.930 . S
H862 C878 0.931 . S
C863 H851 0.929 . S
C863 C857 1.390 . S
C863 C860 1.386 . S
C864 C859 1.490 . S
C864 C866 1.395 . S
C864 C867 1.403 . S
H865 C871 0.930 . S
C866 H852 0.930 . S
C866 C864 1.395 . S
C866 C869 1.403 . S
C867 C864 1.403 . S
C867 C868 1.524 . S
C867 C871 1.400 . S
C868 H853 0.960 . S
C868 H854 0.960 . S
C868 H855 0.960 . S
C868 C867 1.524 . S
C869 C866 1.403 . S
C869 C870 1.392 . S
C869 C873 1.495 . S
C870 C869 1.392 . S
C870 C871 1.385 . S
C870 C872 1.478 . S
C871 H865 0.930 . S
C871 C867 1.400 . S
C871 C870 1.385 . S
C872 C870 1.478 . S
C872 C874 1.381 . S
C872 C878 1.383 . S
C873 C869 1.495 . S
C873 H879 0.959 . S
C873 H880 0.961 . S
C873 H881 0.960 . S
C874 C872 1.381 . S
C874 C875 1.394 . S
C874 H882 0.930 . S
C875 C874 1.394 . S
C875 C876 1.383 . S
C875 H883 0.929 . S
C876 C875 1.383 . S
C876 C877 1.377 . S
C877 H861 0.930 . S
C877 C876 1.377 . S
C877 C878 1.379 . S
C878 H862 0.931 . S
C878 C872 1.383 . S
C878 C877 1.379 . S
H879 C873 0.959 . S
H880 C873 0.961 . S
H881 C873 0.960 . S
H882 C874 0.930 . S
H883 C875 0.929 . S
H884 C892 0.929 . S
H885 C894 0.930 . S
H886 C896 0.930 . S
H887 C899 0.929 . S
H888 C902 0.930 . S
H889 C904 0.960 . S
H890 C904 0.960 . S
H891 C904 0.960 . S
C892 H884 0.929 . S
C892 C893 1.377 . S
C892 C894 1.384 . S
C893 C892 1.377 . S
C893 C899 1.390 . S
C894 H885 0.930 . S
C894 C892 1.384 . S
C894 C895 1.372 . S
C895 C894 1.372 . S
C895 C896 1.400 . S
C895 C900 1.490 . S
C896 H886 0.930 . S
C896 C895 1.400 . S
C896 C899 1.386 . S
H897 C913 0.930 . S
H898 C914 0.931 . S
C899 H887 0.929 . S
C899 C893 1.390 . S
C899 C896 1.386 . S
C900 C895 1.490 . S
C900 C902 1.395 . S
C900 C903 1.403 . S
H901 C907 0.930 . S
C902 H888 0.930 . S
C902 C900 1.395 . S
C902 C905 1.403 . S
C903 C900 1.403 . S
C903 C904 1.524 . S
C903 C907 1.400 . S
C904 H889 0.960 . S
C904 H890 0.960 . S
C904 H891 0.960 . S
C904 C903 1.524 . S
C905 C902 1.403 . S
C905 C906 1.392 . S
C905 C909 1.495 . S
C906 C905 1.392 . S
C906 C907 1.385 . S
C906 C908 1.478 . S
C907 H901 0.930 . S
C907 C903 1.400 . S
C907 C906 1.385 . S
C908 C906 1.478 . S
C908 C910 1.381 . S
C908 C914 1.383 . S
C909 C905 1.495 . S
C909 H915 0.959 . S
C909 H916 0.961 . S
C909 H917 0.960 . S
C910 C908 1.381 . S
C910 C911 1.394 1_655 S
C910 H918 0.930 1_655 S
C911 C910 1.394 1_455 S
C911 C912 1.383 1_455 S
C911 H919 0.929 . S
C912 C911 1.383 1_655 S
C912 C913 1.377 . S
C913 H897 0.930 . S
C913 C912 1.377 . S
C913 C914 1.379 . S
C914 H898 0.931 . S
C914 C908 1.383 . S
C914 C913 1.379 . S
H915 C909 0.959 . S
H916 C909 0.961 . S
H917 C909 0.960 . S
H918 C910 0.930 1_455 S
H919 C911 0.929 . S
H920 C928 0.929 . S
H921 C930 0.930 . S
H922 C932 0.930 . S
H923 C935 0.929 . S
H924 C938 0.930 . S
H925 C940 0.960 . S
H926 C940 0.960 . S
H927 C940 0.960 . S
C928 H920 0.929 . S
C928 C929 1.377 . S
C928 C930 1.384 . S
C929 C928 1.377 . S
C929 C935 1.390 . S
C930 H921 0.930 . S
C930 C928 1.384 . S
C930 C931 1.372 . S
C931 C930 1.372 . S
C931 C932 1.400 . S
C931 C936 1.490 . S
C932 H922 0.930 . S
C932 C931 1.400 . S
C932 C935 1.386 . S
H933 C949 0.930 . S
H934 C950 0.931 . S
C935 H923 0.929 . S
C935 C929 1.390 . S
C935 C932 1.386 . S
C936 C931 1.490 . S
C936 C938 1.395 . S
C936 C939 1.403 . S
H937 C943 0.930 . S
C938 H924 0.930 . S
C938 C936 1.395 . S
C938 C941 1.403 . S
C939 C936 1.403 . S
C939 C940 1.524 . S
C939 C943 1.400 . S
C940 H925 0.960 . S
C940 H926 0.960 . S
C940 H927 0.960 . S
C940 C939 1.524 . S
C941 C938 1.403 . S
C941 C942 1.392 . S
C941 C945 1.495 . S
C942 C941 1.392 . S
C942 C943 1.385 . S
C942 C944 1.478 . S
C943 H937 0.930 . S
C943 C939 1.400 . S
C943 C942 1.385 . S
C944 C942 1.478 . S
C944 C946 1.381 . S
C944 C950 1.383 . S
C945 C941 1.495 . S
C945 H951 0.959 . S
C945 H952 0.961 . S
C945 H953 0.960 . S
C946 C944 1.381 . S
C946 C947 1.394 . S
C946 H954 0.930 . S
C947 C946 1.394 . S
C947 C948 1.383 . S
C947 H955 0.929 . S
C948 C947 1.383 . S
C948 C949 1.377 . S
C949 H933 0.930 . S
C949 C948 1.377 . S
C949 C950 1.379 . S
C950 H934 0.931 . S
C950 C944 1.383 . S
C950 C949 1.379 . S
H951 C945 0.959 . S
H952 C945 0.961 . S
H953 C945 0.960 . S
H954 C946 0.930 . S
H955 C947 0.929 . S
H956 C964 0.929 . S
H957 C966 0.930 . S
H958 C968 0.930 . S
H959 C971 0.929 . S
H960 C974 0.930 . S
H961 C976 0.960 . S
H962 C976 0.960 . S
H963 C976 0.960 . S
C964 H956 0.929 . S
C964 C965 1.377 . S
C964 C966 1.384 . S
C965 C964 1.377 . S
C965 C971 1.390 . S
C966 H957 0.930 . S
C966 C964 1.384 . S
C966 C967 1.372 . S
C967 C966 1.372 . S
C967 C968 1.400 . S
C967 C972 1.490 . S
C968 H958 0.930 . S
C968 C967 1.400 . S
C968 C971 1.386 . S
H969 C985 0.930 . S
H970 C986 0.931 . S
C971 H959 0.929 . S
C971 C965 1.390 . S
C971 C968 1.386 . S
C972 C967 1.490 . S
C972 C974 1.395 . S
C972 C975 1.403 . S
H973 C979 0.930 . S
C974 H960 0.930 . S
C974 C972 1.395 . S
C974 C977 1.403 . S
C975 C972 1.403 . S
C975 C976 1.524 . S
C975 C979 1.400 . S
C976 H961 0.960 . S
C976 H962 0.960 . S
C976 H963 0.960 . S
C976 C975 1.524 . S
C977 C974 1.403 . S
C977 C978 1.392 . S
C977 C981 1.495 . S
C978 C977 1.392 . S
C978 C979 1.385 . S
C978 C980 1.478 . S
C979 H973 0.930 . S
C979 C975 1.400 . S
C979 C978 1.385 . S
C980 C978 1.478 . S
C980 C982 1.381 . S
C980 C986 1.383 . S
C981 C977 1.495 . S
C981 H987 0.959 . S
C981 H988 0.961 . S
C981 H989 0.960 . S
C982 C980 1.381 . S
C982 C983 1.394 . S
C982 H990 0.930 . S
C983 C982 1.394 . S
C983 C984 1.383 . S
C983 H991 0.929 . S
C984 C983 1.383 . S
C984 C985 1.377 . S
C985 H969 0.930 . S
C985 C984 1.377 . S
C985 C986 1.379 . S
C986 H970 0.931 . S
C986 C980 1.383 . S
C986 C985 1.379 . S
H987 C981 0.959 . S
H988 C981 0.961 . S
H989 C981 0.960 . S
H990 C982 0.930 . S
H991 C983 0.929 . S
H992 C1000 0.929 . S
H993 C1002 0.930 . S
H994 C1004 0.930 . S
H995 C1007 0.929 . S
H996 C1010 0.930 . S
H997 C1012 0.960 . S
H998 C1012 0.960 . S
H999 C1012 0.960 . S
C1000 H992 0.929 . S
C1000 C1001 1.377 . S
C1000 C1002 1.384 . S
C1001 C1000 1.377 . S
C1001 C1007 1.390 . S
C1002 H993 0.930 . S
C1002 C1000 1.384 . S
C1002 C1003 1.372 . S
C1003 C1002 1.372 . S
C1003 C1004 1.400 . S
C1003 C1008 1.490 . S
C1004 H994 0.930 . S
C1004 C1003 1.400 . S
C1004 C1007 1.386 . S
H1005 C1021 0.930 . S
H1006 C1022 0.931 . S
C1007 H995 0.929 . S
C1007 C1001 1.390 . S
C1007 C1004 1.386 . S
C1008 C1003 1.490 . S
C1008 C1010 1.395 . S
C1008 C1011 1.403 . S
H1009 C1015 0.930 . S
C1010 H996 0.930 . S
C1010 C1008 1.395 . S
C1010 C1013 1.403 . S
C1011 C1008 1.403 . S
C1011 C1012 1.524 . S
C1011 C1015 1.400 . S
C1012 H997 0.960 . S
C1012 H998 0.960 . S
C1012 H999 0.960 . S
C1012 C1011 1.524 . S
C1013 C1010 1.403 . S
C1013 C1014 1.392 . S
C1013 C1017 1.495 . S
C1014 C1013 1.392 . S
C1014 C1015 1.385 . S
C1014 C1016 1.478 . S
C1015 H1009 0.930 . S
C1015 C1011 1.400 . S
C1015 C1014 1.385 . S
C1016 C1014 1.478 . S
C1016 C1018 1.381 . S
C1016 C1022 1.383 . S
C1017 C1013 1.495 . S
C1017 H1023 0.959 . S
C1017 H1024 0.961 . S
C1017 H1025 0.960 . S
C1018 C1016 1.381 . S
C1018 C1019 1.394 . S
C1018 H1026 0.930 . S
C1019 C1018 1.394 . S
C1019 C1020 1.383 . S
C1019 H1027 0.929 . S
C1020 C1019 1.383 . S
C1020 C1021 1.377 . S
C1021 H1005 0.930 . S
C1021 C1020 1.377 . S
C1021 C1022 1.379 . S
C1022 H1006 0.931 . S
C1022 C1016 1.383 . S
C1022 C1021 1.379 . S
H1023 C1017 0.959 . S
H1024 C1017 0.961 . S
H1025 C1017 0.960 . S
H1026 C1018 0.930 . S
H1027 C1019 0.929 . S
H1028 C1036 0.929 . S
H1029 C1038 0.930 . S
H1030 C1040 0.930 . S
H1031 C1043 0.929 . S
H1032 C1046 0.930 . S
H1033 C1048 0.960 . S
H1034 C1048 0.960 . S
H1035 C1048 0.960 . S
C1036 H1028 0.929 . S
C1036 C1037 1.377 . S
C1036 C1038 1.384 . S
C1037 C1036 1.377 . S
C1037 C1043 1.390 . S
C1038 H1029 0.930 . S
C1038 C1036 1.384 . S
C1038 C1039 1.372 . S
C1039 C1038 1.372 . S
C1039 C1040 1.400 . S
C1039 C1044 1.490 . S
C1040 H1030 0.930 . S
C1040 C1039 1.400 . S
C1040 C1043 1.386 . S
H1041 C1057 0.930 . S
H1042 C1058 0.931 . S
C1043 H1031 0.929 . S
C1043 C1037 1.390 . S
C1043 C1040 1.386 . S
C1044 C1039 1.490 . S
C1044 C1046 1.395 . S
C1044 C1047 1.403 . S
H1045 C1051 0.930 . S
C1046 H1032 0.930 . S
C1046 C1044 1.395 . S
C1046 C1049 1.403 . S
C1047 C1044 1.403 . S
C1047 C1048 1.524 . S
C1047 C1051 1.400 . S
C1048 H1033 0.960 . S
C1048 H1034 0.960 . S
C1048 H1035 0.960 . S
C1048 C1047 1.524 . S
C1049 C1046 1.403 . S
C1049 C1050 1.392 . S
C1049 C1053 1.495 . S
C1050 C1049 1.392 . S
C1050 C1051 1.385 . S
C1050 C1052 1.478 . S
C1051 H1045 0.930 . S
C1051 C1047 1.400 . S
C1051 C1050 1.385 . S
C1052 C1050 1.478 . S
C1052 C1054 1.381 . S
C1052 C1058 1.383 . S
C1053 C1049 1.495 . S
C1053 H1059 0.959 . S
C1053 H1060 0.961 . S
C1053 H1061 0.960 . S
C1054 C1052 1.381 . S
C1054 C1055 1.394 . S
C1054 H1062 0.930 . S
C1055 C1054 1.394 . S
C1055 C1056 1.383 . S
C1055 H1063 0.929 . S
C1056 C1055 1.383 . S
C1056 C1057 1.377 . S
C1057 H1041 0.930 . S
C1057 C1056 1.377 . S
C1057 C1058 1.379 . S
C1058 H1042 0.931 . S
C1058 C1052 1.383 . S
C1058 C1057 1.379 . S
H1059 C1053 0.959 . S
H1060 C1053 0.961 . S
H1061 C1053 0.960 . S
H1062 C1054 0.930 . S
H1063 C1055 0.929 . S
H1064 C1072 0.929 . S
H1065 C1074 0.930 . S
H1066 C1076 0.930 . S
H1067 C1079 0.929 . S
H1068 C1082 0.930 . S
H1069 C1084 0.960 . S
H1070 C1084 0.960 . S
H1071 C1084 0.960 . S
C1072 H1064 0.929 . S
C1072 C1073 1.377 . S
C1072 C1074 1.384 . S
C1073 C1072 1.377 . S
C1073 C1079 1.390 . S
C1074 H1065 0.930 . S
C1074 C1072 1.384 . S
C1074 C1075 1.372 . S
C1075 C1074 1.372 . S
C1075 C1076 1.400 . S
C1075 C1080 1.490 . S
C1076 H1066 0.930 . S
C1076 C1075 1.400 . S
C1076 C1079 1.386 . S
H1077 C1093 0.930 . S
H1078 C1094 0.931 . S
C1079 H1067 0.929 . S
C1079 C1073 1.390 . S
C1079 C1076 1.386 . S
C1080 C1075 1.490 . S
C1080 C1082 1.395 . S
C1080 C1083 1.403 . S
H1081 C1087 0.930 . S
C1082 H1068 0.930 . S
C1082 C1080 1.395 . S
C1082 C1085 1.403 . S
C1083 C1080 1.403 . S
C1083 C1084 1.524 . S
C1083 C1087 1.400 . S
C1084 H1069 0.960 . S
C1084 H1070 0.960 . S
C1084 H1071 0.960 . S
C1084 C1083 1.524 . S
C1085 C1082 1.403 . S
C1085 C1086 1.392 . S
C1085 C1089 1.495 . S
C1086 C1085 1.392 . S
C1086 C1087 1.385 . S
C1086 C1088 1.478 . S
C1087 H1081 0.930 . S
C1087 C1083 1.400 . S
C1087 C1086 1.385 . S
C1088 C1086 1.478 . S
C1088 C1090 1.381 . S
C1088 C1094 1.383 . S
C1089 C1085 1.495 . S
C1089 H1095 0.959 . S
C1089 H1096 0.961 . S
C1089 H1097 0.960 . S
C1090 C1088 1.381 . S
C1090 C1091 1.394 . S
C1090 H1098 0.930 . S
C1091 C1090 1.394 . S
C1091 C1092 1.383 . S
C1091 H1099 0.929 . S
C1092 C1091 1.383 . S
C1092 C1093 1.377 . S
C1093 H1077 0.930 . S
C1093 C1092 1.377 . S
C1093 C1094 1.379 . S
C1094 H1078 0.931 . S
C1094 C1088 1.383 . S
C1094 C1093 1.379 . S
H1095 C1089 0.959 . S
H1096 C1089 0.961 . S
H1097 C1089 0.960 . S
H1098 C1090 0.930 . S
H1099 C1091 0.929 . S
H1100 C1108 0.929 . S
H1101 C1110 0.930 . S
H1102 C1112 0.930 . S
H1103 C1115 0.929 . S
H1104 C1118 0.930 . S
H1105 C1120 0.960 . S
H1106 C1120 0.960 . S
H1107 C1120 0.960 . S
C1108 H1100 0.929 . S
C1108 C1109 1.377 . S
C1108 C1110 1.384 . S
C1109 C1108 1.377 . S
C1109 C1115 1.390 . S
C1110 H1101 0.930 . S
C1110 C1108 1.384 . S
C1110 C1111 1.372 . S
C1111 C1110 1.372 . S
C1111 C1112 1.400 . S
C1111 C1116 1.490 . S
C1112 H1102 0.930 . S
C1112 C1111 1.400 . S
C1112 C1115 1.386 . S
H1113 C1129 0.930 . S
H1114 C1130 0.931 . S
C1115 H1103 0.929 . S
C1115 C1109 1.390 . S
C1115 C1112 1.386 . S
C1116 C1111 1.490 . S
C1116 C1118 1.395 . S
C1116 C1119 1.403 . S
H1117 C1123 0.930 . S
C1118 H1104 0.930 . S
C1118 C1116 1.395 . S
C1118 C1121 1.403 . S
C1119 C1116 1.403 . S
C1119 C1120 1.524 . S
C1119 C1123 1.400 . S
C1120 H1105 0.960 . S
C1120 H1106 0.960 . S
C1120 H1107 0.960 . S
C1120 C1119 1.524 . S
C1121 C1118 1.403 . S
C1121 C1122 1.392 . S
C1121 C1125 1.495 . S
C1122 C1121 1.392 . S
C1122 C1123 1.385 . S
C1122 C1124 1.478 . S
C1123 H1117 0.930 . S
C1123 C1119 1.400 . S
C1123 C1122 1.385 . S
C1124 C1122 1.478 . S
C1124 C1126 1.381 . S
C1124 C1130 1.383 . S
C1125 C1121 1.495 . S
C1125 H1131 0.959 . S
C1125 H1132 0.961 . S
C1125 H1133 0.960 . S
C1126 C1124 1.381 . S
C1126 C1127 1.394 . S
C1126 H1134 0.930 . S
C1127 C1126 1.394 . S
C1127 C1128 1.383 . S
C1127 H1135 0.929 . S
C1128 C1127 1.383 . S
C1128 C1129 1.377 . S
C1129 H1113 0.930 . S
C1129 C1128 1.377 . S
C1129 C1130 1.379 . S
C1130 H1114 0.931 . S
C1130 C1124 1.383 . S
C1130 C1129 1.379 . S
H1131 C1125 0.959 . S
H1132 C1125 0.961 . S
H1133 C1125 0.960 . S
H1134 C1126 0.930 . S
H1135 C1127 0.929 . S
H1136 C1144 0.929 . S
H1137 C1146 0.930 . S
H1138 C1148 0.930 . S
H1139 C1151 0.929 . S
H1140 C1154 0.930 . S
H1141 C1156 0.960 . S
H1142 C1156 0.960 . S
H1143 C1156 0.960 . S
C1144 H1136 0.929 . S
C1144 C1145 1.377 . S
C1144 C1146 1.384 . S
C1145 C1144 1.377 . S
C1145 C1151 1.390 . S
C1146 H1137 0.930 . S
C1146 C1144 1.384 . S
C1146 C1147 1.372 . S
C1147 C1146 1.372 . S
C1147 C1148 1.400 . S
C1147 C1152 1.490 . S
C1148 H1138 0.930 . S
C1148 C1147 1.400 . S
C1148 C1151 1.386 . S
H1149 C1165 0.930 . S
H1150 C1166 0.931 . S
C1151 H1139 0.929 . S
C1151 C1145 1.390 . S
C1151 C1148 1.386 . S
C1152 C1147 1.490 . S
C1152 C1154 1.395 . S
C1152 C1155 1.403 . S
H1153 C1159 0.930 . S
C1154 H1140 0.930 . S
C1154 C1152 1.395 . S
C1154 C1157 1.403 . S
C1155 C1152 1.403 . S
C1155 C1156 1.524 . S
C1155 C1159 1.400 . S
C1156 H1141 0.960 . S
C1156 H1142 0.960 . S
C1156 H1143 0.960 . S
C1156 C1155 1.524 . S
C1157 C1154 1.403 . S
C1157 C1158 1.392 . S
C1157 C1161 1.495 . S
C1158 C1157 1.392 . S
C1158 C1159 1.385 . S
C1158 C1160 1.478 . S
C1159 H1153 0.930 . S
C1159 C1155 1.400 . S
C1159 C1158 1.385 . S
C1160 C1158 1.478 . S
C1160 C1162 1.381 . S
C1160 C1166 1.383 . S
C1161 C1157 1.495 . S
C1161 H1167 0.959 . S
C1161 H1168 0.961 . S
C1161 H1169 0.960 . S
C1162 C1160 1.381 . S
C1162 C1163 1.394 . S
C1162 H1170 0.930 . S
C1163 C1162 1.394 . S
C1163 C1164 1.383 . S
C1163 H1171 0.929 . S
C1164 C1163 1.383 . S
C1164 C1165 1.377 . S
C1165 H1149 0.930 . S
C1165 C1164 1.377 . S
C1165 C1166 1.379 . S
C1166 H1150 0.931 . S
C1166 C1160 1.383 . S
C1166 C1165 1.379 . S
H1167 C1161 0.959 . S
H1168 C1161 0.961 . S
H1169 C1161 0.960 . S
H1170 C1162 0.930 . S
H1171 C1163 0.929 . S
H1172 C1180 0.929 . S
H1173 C1182 0.930 . S
H1174 C1184 0.934 . S
H1175 C1187 0.929 . S
H1176 C1190 0.930 . S
H1177 C1192 0.960 . S
H1178 C1192 0.960 . S
H1179 C1192 0.960 . S
C1180 H1172 0.929 . S
C1180 C1181 1.377 1_556 S
C1180 C1182 1.384 . S
C1181 C1180 1.377 1_554 S
C1181 C1187 1.390 . S
C1182 H1173 0.930 . S
C1182 C1180 1.384 . S
C1182 C1183 1.372 . S
C1183 C1182 1.372 . S
C1183 C1184 1.390 1_556 S
C1183 C1188 1.490 . S
C1184 H1174 0.934 . S
C1184 C1183 1.390 1_554 S
C1184 C1187 1.391 . S
H1185 C1201 0.930 . S
H1186 C1202 0.931 . S
C1187 H1175 0.929 . S
C1187 C1181 1.390 . S
C1187 C1184 1.391 . S
C1188 C1183 1.490 . S
C1188 C1190 1.395 . S
C1188 C1191 1.403 . S
H1189 C1195 0.930 . S
C1190 H1176 0.930 . S
C1190 C1188 1.395 . S
C1190 C1193 1.403 . S
C1191 C1188 1.403 . S
C1191 C1192 1.524 . S
C1191 C1195 1.400 . S
C1192 H1177 0.960 . S
C1192 H1178 0.960 . S
C1192 H1179 0.960 . S
C1192 C1191 1.524 . S
C1193 C1190 1.403 . S
C1193 C1194 1.392 . S
C1193 C1197 1.495 . S
C1194 C1193 1.392 . S
C1194 C1195 1.385 . S
C1194 C1196 1.478 . S
C1195 H1189 0.930 . S
C1195 C1191 1.400 . S
C1195 C1194 1.385 . S
C1196 C1194 1.478 . S
C1196 C1198 1.381 . S
C1196 C1202 1.383 . S
C1197 C1193 1.495 . S
C1197 H1203 0.959 . S
C1197 H1204 0.961 . S
C1197 H1205 0.960 . S
C1198 C1196 1.381 . S
C1198 C1199 1.394 . S
C1198 H1206 0.930 . S
C1199 C1198 1.394 . S
C1199 C1200 1.383 . S
C1199 H1207 0.929 . S
C1200 C1199 1.383 . S
C1200 C1201 1.377 . S
C1201 H1185 0.930 . S
C1201 C1200 1.377 . S
C1201 C1202 1.379 . S
C1202 H1186 0.931 . S
C1202 C1196 1.383 . S
C1202 C1201 1.379 . S
H1203 C1197 0.959 . S
H1204 C1197 0.961 . S
H1205 C1197 0.960 . S
H1206 C1198 0.930 . S
H1207 C1199 0.929 . S
C353 C8 1.421 . S
C372 C105 1.434 . S
C389 C31 1.186 . S
C408 C137 1.201 . S
C425 C53 1.520 . S
C444 C169 1.382 . S
C480 C213 1.327 . S
C461 C74 1.314 . S
C516 C233 1.376 . S
C497 C26 1.368 . S
C533 C48 1.322 . S
C552 C277 1.340 . S
C569 C71 1.496 . S
C588 C297 1.411 . S
C605 C5 1.225 . S
C624 C341 1.075 1_455 S
C641 C50 1.404 . S
C660 C329 1.338 . S
C696 C245 1.257 . S
C677 C70 1.251 . S
C732 C265 1.545 . S
C713 C4 1.533 . S
C749 C28 1.315 . S
C768 C309 1.244 . S
C804 C149 1.448 . S
C785 C73 1.432 . S
C821 C7 1.320 . S
C840 C181 1.228 . S
C876 C201 1.508 . S
C857 C30 1.501 . S
C912 C117 1.239 . S
C893 C52 1.222 . S
C948 C303 1.247 . S
C929 C9 1.388 . S
C984 C335 1.188 . S
C965 C29 1.276 . S
C1001 C51 1.274 . S
C1020 C239 1.289 . S
C1056 C271 1.428 . S
C1037 C75 1.424 . S
C1092 C175 1.260 . S
C1073 C27 1.410 . S
C1109 C49 1.391 . S
C1128 C207 1.390 . S
C1164 C111 1.315 . S
C1145 C72 1.291 . S
C1200 C143 1.283 . S
C1181 C6 1.270 . S
