# Generated by pormake.
# Topology eea, (3,6)-cn, num edge types: 1
# Building blocks:
#     Node 0, Type 0, BuildingBlock: BELTOD_clean_linker_0, # of connection points: 3
#     Node 1, Type 0, BuildingBlock: BELTOD_clean_linker_0, # of connection points: 3
#     Node 2, Type 0, BuildingBlock: BELTOD_clean_linker_0, # of connection points: 3
#     Node 3, Type 0, BuildingBlock: BELTOD_clean_linker_0, # of connection points: 3
#     Node 4, Type 0, BuildingBlock: BELTOD_clean_linker_0, # of connection points: 3
#     Node 5, Type 0, BuildingBlock: BELTOD_clean_linker_0, # of connection points: 3
#     Node 6, Type 0, BuildingBlock: BELTOD_clean_linker_0, # of connection points: 3
#     Node 7, Type 0, BuildingBlock: BELTOD_clean_linker_0, # of connection points: 3
#     Node 8, Type 0, BuildingBlock: BELTOD_clean_linker_0, # of connection points: 3
#     Node 9, Type 0, BuildingBlock: BELTOD_clean_linker_0, # of connection points: 3
#     Node 10, Type 0, BuildingBlock: BELTOD_clean_linker_0, # of connection points: 3
#     Node 11, Type 0, BuildingBlock: BELTOD_clean_linker_0, # of connection points: 3
#     Node 12, Type 0, BuildingBlock: BELTOD_clean_linker_0, # of connection points: 3
#     Node 13, Type 0, BuildingBlock: BELTOD_clean_linker_0, # of connection points: 3
#     Node 14, Type 0, BuildingBlock: BELTOD_clean_linker_0, # of connection points: 3
#     Node 15, Type 0, BuildingBlock: BELTOD_clean_linker_0, # of connection points: 3
#     Node 16, Type 0, BuildingBlock: BELTOD_clean_linker_0, # of connection points: 3
#     Node 17, Type 0, BuildingBlock: BELTOD_clean_linker_0, # of connection points: 3
#     Node 18, Type 1, BuildingBlock: HISSIN_clean_sbu_0, # of connection points: 6
#     Node 19, Type 1, BuildingBlock: HISSIN_clean_sbu_0, # of connection points: 6
#     Node 20, Type 1, BuildingBlock: HISSIN_clean_sbu_0, # of connection points: 6
#     Node 21, Type 1, BuildingBlock: HISSIN_clean_sbu_0, # of connection points: 6
#     Node 22, Type 1, BuildingBlock: HISSIN_clean_sbu_0, # of connection points: 6
#     Node 23, Type 1, BuildingBlock: HISSIN_clean_sbu_0, # of connection points: 6
#     Node 24, Type 1, BuildingBlock: HISSIN_clean_sbu_0, # of connection points: 6
#     Node 25, Type 1, BuildingBlock: HISSIN_clean_sbu_0, # of connection points: 6
#     Node 26, Type 1, BuildingBlock: HISSIN_clean_sbu_0, # of connection points: 6
#     Edge 27, Type (0, 1), None
#     Edge 28, Type (0, 1), None
#     Edge 29, Type (0, 1), None
#     Edge 30, Type (0, 1), None
#     Edge 31, Type (0, 1), None
#     Edge 32, Type (0, 1), None
#     Edge 33, Type (0, 1), None
#     Edge 34, Type (0, 1), None
#     Edge 35, Type (0, 1), None
#     Edge 36, Type (0, 1), None
#     Edge 37, Type (0, 1), None
#     Edge 38, Type (0, 1), None
#     Edge 39, Type (0, 1), None
#     Edge 40, Type (0, 1), None
#     Edge 41, Type (0, 1), None
#     Edge 42, Type (0, 1), None
#     Edge 43, Type (0, 1), None
#     Edge 44, Type (0, 1), None
#     Edge 45, Type (0, 1), None
#     Edge 46, Type (0, 1), None
#     Edge 47, Type (0, 1), None
#     Edge 48, Type (0, 1), None
#     Edge 49, Type (0, 1), None
#     Edge 50, Type (0, 1), None
#     Edge 51, Type (0, 1), None
#     Edge 52, Type (0, 1), None
#     Edge 53, Type (0, 1), None
#     Edge 54, Type (0, 1), None
#     Edge 55, Type (0, 1), None
#     Edge 56, Type (0, 1), None
#     Edge 57, Type (0, 1), None
#     Edge 58, Type (0, 1), None
#     Edge 59, Type (0, 1), None
#     Edge 60, Type (0, 1), None
#     Edge 61, Type (0, 1), None
#     Edge 62, Type (0, 1), None
#     Edge 63, Type (0, 1), None
#     Edge 64, Type (0, 1), None
#     Edge 65, Type (0, 1), None
#     Edge 66, Type (0, 1), None
#     Edge 67, Type (0, 1), None
#     Edge 68, Type (0, 1), None
#     Edge 69, Type (0, 1), None
#     Edge 70, Type (0, 1), None
#     Edge 71, Type (0, 1), None
#     Edge 72, Type (0, 1), None
#     Edge 73, Type (0, 1), None
#     Edge 74, Type (0, 1), None
#     Edge 75, Type (0, 1), None
#     Edge 76, Type (0, 1), None
#     Edge 77, Type (0, 1), None
#     Edge 78, Type (0, 1), None
#     Edge 79, Type (0, 1), None
#     Edge 80, Type (0, 1), None
# Relax obj value: 0.031
# Max RMSD: 0.154
# Mean RMSD: 0.126
data_MOF--net-eea--node1-HISSIN_clean_sbu_0--node2-BELTOD_clean_linker_0--edge1-none
_symmetry_space_group_name_H-M    P1
_symmetry_Int_Tables_number       1
_symmetry_cell_setting            triclinic
loop_
_symmetry_equiv_pos_as_xyz
'x, y, z'
_cell_length_a     29.462116
_cell_length_b     29.459693
_cell_length_c     50.557423
_cell_angle_alpha  93.682194
_cell_angle_beta   92.769399
_cell_angle_gamma 119.85913
loop_
_atom_site_label
_atom_site_type_symbol
_atom_site_fract_x
_atom_site_fract_y
_atom_site_fract_z
_atom_type_partial_charge
P0 P 0.31804 0.16424 0.40091 0.0
H1 H 0.31474 0.10374 0.35237 0.0
H2 H 0.26369 0.01027 0.33682 0.0
H3 H 0.19168 0.97866 0.41101 0.0
H4 H 0.24152 0.07243 0.42608 0.0
H5 H 0.29954 0.24669 0.42492 0.0
H6 H 0.24588 0.28302 0.40943 0.0
H7 H 0.19987 0.18176 0.33575 0.0
H8 H 0.25171 0.14377 0.35183 0.0
H9 H 0.41154 0.18308 0.43298 0.0
H10 H 0.25933 0.16245 0.44662 0.0
O11 O 0.37338 0.19288 0.38582 0.0
H12 H 0.43178 0.18756 0.48073 0.0
H13 H 0.28003 0.16912 0.49453 0.0
C14 C 0.2829 0.09494 0.39059 0.0
C15 C 0.28809 0.07671 0.36532 0.0
C16 C 0.25841 0.02338 0.35635 0.0
C17 C 0.22357 0.98734 0.37272 0.0
C18 C 0.21831 0.00567 0.39803 0.0
C19 C 0.24722 0.05927 0.40674 0.0
C20 C 0.27791 0.19083 0.39007 0.0
C21 C 0.27661 0.23094 0.40584 0.0
C22 C 0.24602 0.25185 0.3969 0.0
C23 C 0.21802 0.23444 0.37157 0.0
C24 C 0.22052 0.19532 0.35549 0.0
C25 C 0.25011 0.17356 0.36474 0.0
C26 C 0.33458 0.17397 0.43631 0.0
C27 C 0.38298 0.18085 0.44632 0.0
C28 C 0.39454 0.18353 0.47366 0.0
C29 C 0.35766 0.17904 0.4915 0.0
C30 C 0.30919 0.17237 0.48135 0.0
C31 C 0.2976 0.16937 0.45398 0.0
P32 P 0.92266 0.09642 0.43313 0.0
H33 H 0.91509 0.00569 0.402 0.0
H34 H 0.84384 0.93354 0.37265 0.0
H35 H 0.74145 -0.00536 0.3913 0.0
H36 H 0.81331 0.06738 0.4201 0.0
H37 H 0.99567 0.21024 0.44375 0.0
H38 H 0.05256 0.27577 0.41528 0.0
H39 H 0.98464 0.15909 0.34713 0.0
H40 H 0.92675 0.0947 0.3752 0.0
H41 H 0.88507 0.04167 0.47952 0.0
H42 H 0.89983 0.18148 0.44933 0.0
O43 O 0.96562 0.07892 0.44391 0.0
H44 H 0.84639 0.05629 0.51823 0.0
H45 H 0.86349 0.19829 0.48897 0.0
C46 C 0.86893 0.04099 0.41364 0.0
C47 C 0.87716 0.00325 0.39991 0.0
C48 C 0.83669 0.96252 0.38288 0.0
C49 C 0.78729 0.95877 0.37962 0.0
C50 C 0.77919 -0.00335 0.39347 0.0
C51 C 0.82 0.03789 0.41011 0.0
C52 C 0.95583 0.14772 0.4117 0.0
C53 C 0.99148 0.19931 0.42253 0.0
C54 C 0.02419 0.23666 0.4062 0.0
C55 C 0.02299 0.22245 0.37891 0.0
C56 C 0.98634 0.17121 0.36802 0.0
C57 C 0.95299 0.13431 0.38422 0.0
C58 C 0.89704 0.11143 0.46201 0.0
C59 C 0.88096 0.07625 0.48154 0.0
C60 C 0.85891 0.08481 0.50376 0.0
C61 C 0.85263 0.1291 0.50712 0.0
C62 C 0.86767 0.16377 0.48709 0.0
C63 C 0.88926 0.1547 0.46458 0.0
P64 P 0.85333 0.69162 0.40785 0.0
H65 H 0.80573 0.68436 0.35502 0.0
H66 H 0.75351 0.72024 0.337 0.0
H67 H 0.76453 0.79645 0.415 0.0
H68 H 0.81759 0.76039 0.43288 0.0
H69 H 0.94611 0.68293 0.42088 0.0
H70 H 0.03254 0.72233 0.40403 0.0
H71 H 0.99483 0.82095 0.35901 0.0
H72 H 0.90895 0.78221 0.37644 0.0
H73 H 0.75817 0.6254 0.43176 0.0
H74 H 0.92139 0.72893 0.45929 0.0
O75 O 0.83 0.63285 0.39072 0.0
H76 H 0.73882 0.6006 0.47667 0.0
H77 H 0.90262 0.70312 0.50449 0.0
C78 C 0.81475 0.71897 0.39533 0.0
C79 C 0.79673 0.70858 0.36829 0.0
C80 C 0.76699 0.72936 0.358 0.0
C81 C 0.75454 0.76105 0.37458 0.0
C82 C 0.77308 0.77186 0.40173 0.0
C83 C 0.80337 0.75128 0.41198 0.0
C84 C 0.92109 0.73005 0.40045 0.0
C85 C 0.95697 0.71414 0.40804 0.0
C86 C 0.00631 0.73641 0.39807 0.0
C87 C 0.02059 0.77451 0.37982 0.0
C88 C 0.98511 0.79147 0.37282 0.0
C89 C 0.9359 0.76947 0.38302 0.0
C90 C 0.84128 0.6785 0.44205 0.0
C91 C 0.78994 0.64282 0.44755 0.0
C92 C 0.77898 0.62834 0.47326 0.0
C93 C 0.81923 0.64913 0.49425 0.0
C94 C 0.8706 0.68635 0.48886 0.0
C95 C 0.88152 0.70094 0.46296 0.0
P96 P 0.14378 0.29276 0.61489 0.0
H97 H 0.11345 0.29866 0.66822 0.0
H98 H 0.02885 0.26251 0.68693 0.0
H99 H 0.94951 0.1897 0.60877 0.0
H100 H 0.03477 0.22606 0.59027 0.0
H101 H 0.24491 0.3051 0.60358 0.0
H102 H 0.29392 0.2636 0.61884 0.0
H103 H 0.16221 0.15819 0.66018 0.0
H104 H 0.11303 0.19925 0.64434 0.0
H105 H 0.12437 0.36573 0.5872 0.0
H106 H 0.15861 0.24272 0.56571 0.0
O107 O 0.18171 0.35231 0.63127 0.0
H108 H 0.13309 0.3896 0.54155 0.0
H109 H 0.16893 0.26727 0.52012 0.0
C110 C 0.08033 0.26584 0.62779 0.0
C111 C 0.07779 0.27515 0.65509 0.0
C112 C 0.02932 0.25421 0.6658 0.0
C113 C 0.98223 0.22338 0.64939 0.0
C114 C 0.98496 0.21357 0.622 0.0
C115 C 0.03367 0.23438 0.61133 0.0
C116 C 0.17515 0.2552 0.62256 0.0
C117 C 0.22613 0.27229 0.61543 0.0
C118 C 0.25422 0.2486 0.62433 0.0
C119 C 0.23221 0.20775 0.64098 0.0
C120 C 0.18049 0.18971 0.64753 0.0
C121 C 0.1522 0.21318 0.63837 0.0
C122 C 0.1417 0.30308 0.58003 0.0
C123 C 0.1334 0.34357 0.57257 0.0
C124 C 0.13888 0.35749 0.54648 0.0
C125 C 0.15274 0.3311 0.52716 0.0
C126 C 0.1582 0.28851 0.53439 0.0
C127 C 0.1526 0.27456 0.56057 0.0
P128 P 0.83982 0.90794 0.59049 0.0
H129 H 0.91919 0.0008 0.62413 0.0
H130 H 0.91323 0.06537 0.65437 0.0
H131 H 0.7461 0.98835 0.63182 0.0
H132 H 0.75217 0.92321 0.60214 0.0
H133 H 0.79858 0.79493 0.57723 0.0
H134 H 0.78394 0.72435 0.60465 0.0
H135 H 0.83931 0.83498 0.67523 0.0
H136 H 0.85211 0.90474 0.64803 0.0
H137 H 0.85139 0.95967 0.54255 0.0
H138 H 0.73056 0.82312 0.57444 0.0
O139 O 0.90088 0.93097 0.58188 0.0
H140 H 0.79261 0.94186 0.50285 0.0
H141 H 0.67258 0.80254 0.53392 0.0
C142 C 0.83639 0.9583 0.61044 0.0
C143 C 0.88141 -0.00185 0.62557 0.0
C144 C 0.87778 0.03441 0.64313 0.0
C145 C 0.82908 0.03142 0.64553 0.0
C146 C 0.78405 0.99137 0.63034 0.0
C147 C 0.7876 0.95459 0.61316 0.0
C148 C 0.82461 0.85479 0.61055 0.0
C149 C 0.80588 0.80365 0.59865 0.0
C150 C 0.79752 0.76338 0.61437 0.0
C151 C 0.80972 0.77421 0.64213 0.0
C152 C 0.82892 0.8255 0.65395 0.0
C153 C 0.8362 0.86541 0.63829 0.0
C154 C 0.79626 0.89131 0.56083 0.0
C155 C 0.81256 0.92502 0.54067 0.0
C156 C 0.77883 0.91469 0.51795 0.0
C157 C 0.72808 0.87004 0.51484 0.0
C158 C 0.71129 0.83726 0.53558 0.0
C159 C 0.74488 0.8483 0.55856 0.0
P160 P 0.13794 0.81867 0.61959 0.0
H161 H 0.19892 0.87951 0.66878 0.0
H162 H 0.24506 0.97306 0.68362 0.0
H163 H 0.20263 0.00542 0.60697 0.0
H164 H 0.15453 0.91102 0.5925 0.0
H165 H 0.03235 0.74115 0.59367 0.0
H166 H 0.94529 0.70198 0.60973 0.0
H167 H 0.01316 0.79495 0.68564 0.0
H168 H 0.09977 0.83516 0.66917 0.0
H169 H 0.21116 0.79799 0.59246 0.0
H170 H 0.08098 0.82017 0.5701 0.0
O171 O 0.16582 0.79071 0.63657 0.0
H172 H 0.22885 0.79509 0.54615 0.0
H173 H 0.0973 0.81544 0.52324 0.0
C174 C 0.17396 0.88825 0.62943 0.0
C175 C 0.19939 0.90658 0.65514 0.0
C176 C 0.22541 0.96011 0.66365 0.0
C177 C 0.22717 -0.00353 0.64644 0.0
C178 C 0.20187 0.97818 0.62059 0.0
C179 C 0.17469 0.92424 0.61228 0.0
C180 C 0.07255 0.79259 0.62982 0.0
C181 C 0.02845 0.75442 0.61343 0.0
C182 C 0.97862 0.73177 0.62276 0.0
C183 C 0.97233 0.74569 0.64896 0.0
C184 C 0.01665 0.78361 0.66536 0.0
C185 C 0.06623 0.80687 0.65583 0.0
C186 C 0.14379 0.80774 0.58472 0.0
C187 C 0.18531 0.80066 0.57747 0.0
C188 C 0.1954 0.79895 0.55087 0.0
C189 C 0.16431 0.80465 0.53084 0.0
C190 C 0.12221 0.81119 0.53814 0.0
C191 C 0.11228 0.81307 0.56489 0.0
P192 P 0.98471 0.49759 0.73424 0.0
H193 H 0.98142 0.43709 0.68571 0.0
H194 H 0.93037 0.34362 0.67016 0.0
H195 H 0.85836 0.31201 0.74434 0.0
H196 H 0.90819 0.40577 0.75942 0.0
H197 H 0.96621 0.58004 0.75826 0.0
H198 H 0.91255 0.61636 0.74277 0.0
H199 H 0.86654 0.51511 0.66909 0.0
H200 H 0.91838 0.47712 0.68516 0.0
H201 H 0.07822 0.51642 0.76632 0.0
H202 H 0.92601 0.4958 0.77996 0.0
O203 O 0.04005 0.52623 0.71916 0.0
H204 H 0.09845 0.5209 0.81407 0.0
H205 H 0.9467 0.50246 0.82786 0.0
C206 C 0.94957 0.42829 0.72393 0.0
C207 C 0.95477 0.41006 0.69865 0.0
C208 C 0.92509 0.35673 0.68969 0.0
C209 C 0.89025 0.32069 0.70606 0.0
C210 C 0.88499 0.33901 0.73137 0.0
C211 C 0.9139 0.39261 0.74008 0.0
C212 C 0.94458 0.52418 0.72341 0.0
C213 C 0.94328 0.56429 0.73918 0.0
C214 C 0.91269 0.58519 0.73023 0.0
C215 C 0.88469 0.56778 0.7049 0.0
C216 C 0.88719 0.52867 0.68883 0.0
C217 C 0.91679 0.50691 0.69807 0.0
C218 C 0.00126 0.50732 0.76965 0.0
C219 C 0.04966 0.5142 0.77965 0.0
C220 C 0.06121 0.51687 0.807 0.0
C221 C 0.02433 0.51238 0.82484 0.0
C222 C 0.97586 0.50571 0.81469 0.0
C223 C 0.96428 0.50272 0.78731 0.0
P224 P 0.58933 0.42975 0.76647 0.0
H225 H 0.58176 0.33902 0.73533 0.0
H226 H 0.51052 0.26688 0.70598 0.0
H227 H 0.40813 0.32797 0.72464 0.0
H228 H 0.47998 0.40071 0.75344 0.0
H229 H 0.66234 0.54357 0.77708 0.0
H230 H 0.71923 0.6091 0.74862 0.0
H231 H 0.65131 0.49242 0.68047 0.0
H232 H 0.59342 0.42803 0.70854 0.0
H233 H 0.55174 0.375 0.81286 0.0
H234 H 0.5665 0.51481 0.78267 0.0
O235 O 0.63229 0.41225 0.77725 0.0
H236 H 0.51306 0.38962 0.85156 0.0
H237 H 0.53016 0.53162 0.82231 0.0
C238 C 0.5356 0.37433 0.74697 0.0
C239 C 0.54384 0.33658 0.73324 0.0
C240 C 0.50337 0.29586 0.71622 0.0
C241 C 0.45397 0.2921 0.71295 0.0
C242 C 0.44587 0.32999 0.72681 0.0
C243 C 0.48668 0.37123 0.74344 0.0
C244 C 0.6225 0.48105 0.74504 0.0
C245 C 0.65815 0.53265 0.75587 0.0
C246 C 0.69086 0.57 0.73954 0.0
C247 C 0.68966 0.55578 0.71225 0.0
C248 C 0.65301 0.50454 0.70135 0.0
C249 C 0.61967 0.46764 0.71756 0.0
C250 C 0.56371 0.44476 0.79535 0.0
C251 C 0.54763 0.40959 0.81488 0.0
C252 C 0.52558 0.41814 0.8371 0.0
C253 C 0.5193 0.46243 0.84045 0.0
C254 C 0.53434 0.4971 0.82043 0.0
C255 C 0.55593 0.48803 0.79792 0.0
P256 P 0.52001 0.02497 0.74118 0.0
H257 H 0.4724 0.0177 0.68835 0.0
H258 H 0.42018 0.05357 0.67034 0.0
H259 H 0.43121 0.12979 0.74833 0.0
H260 H 0.48427 0.09373 0.76621 0.0
H261 H 0.6128 0.01629 0.75422 0.0
H262 H 0.69923 0.05569 0.73737 0.0
H263 H 0.66151 0.15429 0.69234 0.0
H264 H 0.57563 0.11555 0.70977 0.0
H265 H 0.42485 0.95873 0.76508 0.0
H266 H 0.58807 0.06228 0.79263 0.0
O267 O 0.49669 0.9662 0.72405 0.0
H268 H 0.40549 0.93393 0.81 0.0
H269 H 0.56929 0.03646 0.83782 0.0
C270 C 0.48143 0.05232 0.72866 0.0
C271 C 0.46341 0.04192 0.70162 0.0
C272 C 0.43366 0.0627 0.69133 0.0
C273 C 0.42122 0.09438 0.70792 0.0
C274 C 0.43976 0.1052 0.73507 0.0
C275 C 0.47005 0.08462 0.74532 0.0
C276 C 0.58777 0.0634 0.73379 0.0
C277 C 0.62366 0.04749 0.74137 0.0
C278 C 0.673 0.06976 0.73141 0.0
C279 C 0.68728 0.10786 0.71316 0.0
C280 C 0.65179 0.12482 0.70615 0.0
C281 C 0.60257 0.10281 0.71635 0.0
C282 C 0.50795 0.01183 0.77538 0.0
C283 C 0.45662 0.97616 0.78088 0.0
C284 C 0.44566 0.96167 0.80659 0.0
C285 C 0.4859 0.98247 0.82757 0.0
C286 C 0.53726 0.01969 0.82219 0.0
C287 C 0.54819 0.03428 0.79629 0.0
P288 P 0.81046 0.62609 0.94822 0.0
H289 H 0.78013 0.632 1.00155 0.0
H290 H 0.69553 0.59585 0.02027 0.0
H291 H 0.61618 0.52304 0.94211 0.0
H292 H 0.70145 0.55939 0.92361 0.0
H293 H 0.91158 0.63842 0.93691 0.0
H294 H 0.96059 0.59691 0.95217 0.0
H295 H 0.82887 0.49151 0.99351 0.0
H296 H 0.7797 0.53258 0.97768 0.0
H297 H 0.79105 0.69907 0.92053 0.0
H298 H 0.82528 0.57605 0.89904 0.0
O299 O 0.84839 0.68564 0.9646 0.0
H300 H 0.79976 0.72294 0.87489 0.0
H301 H 0.8356 0.60061 0.85346 0.0
C302 C 0.747 0.59917 0.96113 0.0
C303 C 0.74447 0.60849 0.98842 0.0
C304 C 0.696 0.58755 0.99913 0.0
C305 C 0.64891 0.55672 0.98272 0.0
C306 C 0.65164 0.54691 0.95533 0.0
C307 C 0.70034 0.56772 0.94467 0.0
C308 C 0.84182 0.58852 0.95589 0.0
C309 C 0.8928 0.60561 0.94876 0.0
C310 C 0.92089 0.58191 0.95766 0.0
C311 C 0.89887 0.54106 0.97431 0.0
C312 C 0.84716 0.52303 0.98086 0.0
C313 C 0.81887 0.54651 0.9717 0.0
C314 C 0.80838 0.63641 0.91336 0.0
C315 C 0.80008 0.6769 0.90591 0.0
C316 C 0.80555 0.69083 0.87981 0.0
C317 C 0.81942 0.66444 0.86049 0.0
C318 C 0.82487 0.62184 0.86772 0.0
C319 C 0.81928 0.6079 0.8939 0.0
P320 P 0.5065 0.24129 0.92382 0.0
H321 H 0.58588 0.33414 0.95747 0.0
H322 H 0.57992 0.39871 0.98771 0.0
H323 H 0.41278 0.32169 0.96516 0.0
H324 H 0.41885 0.25656 0.93547 0.0
H325 H 0.46526 0.12828 0.91056 0.0
H326 H 0.4506 0.05769 0.93798 0.0
H327 H 0.50598 0.16832 0.00856 0.0
H328 H 0.51879 0.23808 0.98136 0.0
H329 H 0.51807 0.29302 0.87588 0.0
H330 H 0.39724 0.15647 0.90777 0.0
O331 O 0.56756 0.26432 0.91521 0.0
H332 H 0.4593 0.27521 0.83619 0.0
H333 H 0.33926 0.1359 0.86726 0.0
C334 C 0.50307 0.29164 0.94377 0.0
C335 C 0.54809 0.33149 0.9589 0.0
C336 C 0.54446 0.36775 0.97646 0.0
C337 C 0.49576 0.36476 0.97886 0.0
C338 C 0.45073 0.32472 0.96367 0.0
C339 C 0.45428 0.28794 0.94649 0.0
C340 C 0.49129 0.18814 0.94388 0.0
C341 C 0.47256 0.137 0.93198 0.0
C342 C 0.46419 0.09672 0.9477 0.0
C343 C 0.47639 0.10755 0.97546 0.0
C344 C 0.49559 0.15884 0.98728 0.0
C345 C 0.50287 0.19876 0.97162 0.0
C346 C 0.46294 0.22466 0.89416 0.0
C347 C 0.47924 0.25837 0.87401 0.0
C348 C 0.44551 0.24804 0.85128 0.0
C349 C 0.39476 0.2034 0.84817 0.0
C350 C 0.37797 0.17061 0.86891 0.0
C351 C 0.41156 0.18165 0.89189 0.0
P352 P 0.80459 0.15198 0.95292 0.0
H353 H 0.86557 0.21282 1.00211 0.0
H354 H 0.91172 0.30637 0.01695 0.0
H355 H 0.86929 0.33874 0.9403 0.0
H356 H 0.82119 0.24434 0.92583 0.0
H357 H 0.699 0.07447 0.927 0.0
H358 H 0.61193 0.03531 0.94306 0.0
H359 H 0.67981 0.12827 0.01897 0.0
H360 H 0.76642 0.16848 1.0025 0.0
H361 H 0.87781 0.1313 0.92579 0.0
H362 H 0.74763 0.15349 0.90343 0.0
O363 O 0.83246 0.12403 0.9699 0.0
H364 H 0.89551 0.1284 0.87948 0.0
H365 H 0.76396 0.14877 0.85657 0.0
C366 C 0.84061 0.22157 0.96276 0.0
C367 C 0.86604 0.2399 0.98847 0.0
C368 C 0.89207 0.29342 0.99698 0.0
C369 C 0.89383 0.32978 0.97977 0.0
C370 C 0.86854 0.3115 0.95392 0.0
C371 C 0.84134 0.25756 0.94562 0.0
C372 C 0.7392 0.1259 0.96315 0.0
C373 C 0.6951 0.08775 0.94676 0.0
C374 C 0.64527 0.06509 0.95609 0.0
C375 C 0.63898 0.07902 0.98229 0.0
C376 C 0.6833 0.11693 0.99869 0.0
C377 C 0.73288 0.14019 0.98916 0.0
C378 C 0.81044 0.14106 0.91805 0.0
C379 C 0.85196 0.13398 0.9108 0.0
C380 C 0.86205 0.13227 0.8842 0.0
C381 C 0.83097 0.13797 0.86417 0.0
C382 C 0.78887 0.14451 0.87147 0.0
C383 C 0.77893 0.14639 0.89822 0.0
P384 P 0.65136 0.83094 0.06757 0.0
H385 H 0.64808 0.77043 0.01904 0.0
H386 H 0.59704 0.67697 1.00349 0.0
H387 H 0.52503 0.64535 0.07768 0.0
H388 H 0.57486 0.73911 0.09275 0.0
H389 H 0.63285 0.91337 0.09159 0.0
H390 H 0.57918 0.94969 0.0761 0.0
H391 H 0.53319 0.84844 1.00242 0.0
H392 H 0.58504 0.81046 0.01849 0.0
H393 H 0.74487 0.84978 0.09965 0.0
H394 H 0.59265 0.82914 0.11329 0.0
O395 O 0.70671 0.85958 0.05249 0.0
H396 H 0.76511 0.85426 0.1474 0.0
H397 H 0.61335 0.8358 0.1612 0.0
C398 C 0.61623 0.76163 0.05726 0.0
C399 C 0.62143 0.7434 0.03199 0.0
C400 C 0.59176 0.69007 0.02302 0.0
C401 C 0.55692 0.65403 0.03939 0.0
C402 C 0.55165 0.67235 0.0647 0.0
C403 C 0.58056 0.72595 0.07341 0.0
C404 C 0.61123 0.85751 0.05674 0.0
C405 C 0.60992 0.89762 0.07251 0.0
C406 C 0.57933 0.91852 0.06356 0.0
C407 C 0.55133 0.90111 0.03823 0.0
C408 C 0.55384 0.862 0.02216 0.0
C409 C 0.58344 0.84024 0.0314 0.0
C410 C 0.66791 0.84067 0.10298 0.0
C411 C 0.71631 0.84755 0.11299 0.0
C412 C 0.72787 0.85023 0.14033 0.0
C413 C 0.69098 0.84573 0.15817 0.0
C414 C 0.64251 0.83906 0.14802 0.0
C415 C 0.63093 0.83606 0.12065 0.0
P416 P 0.25598 0.76309 0.0998 0.0
H417 H 0.24843 0.67237 0.06866 0.0
H418 H 0.17718 0.60021 0.03931 0.0
H419 H 0.07478 0.66129 0.05797 0.0
H420 H 0.14663 0.73403 0.08677 0.0
H421 H 0.32899 0.87691 0.11041 0.0
H422 H 0.38588 0.94244 0.08195 0.0
H423 H 0.31795 0.82576 0.01379 0.0
H424 H 0.26006 0.76137 0.04187 0.0
H425 H 0.2184 0.70833 0.14618 0.0
H426 H 0.23315 0.84814 0.116 0.0
O427 O 0.29895 0.7456 0.11058 0.0
H428 H 0.17971 0.72295 0.18489 0.0
H429 H 0.1968 0.86495 0.15563 0.0
C430 C 0.20226 0.70766 0.0803 0.0
C431 C 0.2105 0.66992 0.06657 0.0
C432 C 0.17003 0.62919 0.04955 0.0
C433 C 0.12063 0.62542 0.04628 0.0
C434 C 0.11252 0.6633 0.06014 0.0
C435 C 0.15333 0.70455 0.07677 0.0
C436 C 0.28915 0.81439 0.07836 0.0
C437 C 0.3248 0.86598 0.0892 0.0
C438 C 0.3575 0.90334 0.07286 0.0
C439 C 0.35631 0.88912 0.04557 0.0
C440 C 0.31965 0.83788 0.03468 0.0
C441 C 0.28631 0.80098 0.05089 0.0
C442 C 0.23036 0.7781 0.12868 0.0
C443 C 0.21428 0.74292 0.1482 0.0
C444 C 0.19223 0.75147 0.17043 0.0
C445 C 0.18594 0.79576 0.17378 0.0
C446 C 0.20099 0.83043 0.15376 0.0
C447 C 0.22258 0.82136 0.13125 0.0
P448 P 0.18668 0.3583 0.07451 0.0
H449 H 0.13908 0.35103 0.02169 0.0
H450 H 0.08686 0.3869 1.00367 0.0
H451 H 0.09788 0.46311 0.08167 0.0
H452 H 0.15094 0.42706 0.09954 0.0
H453 H 0.27948 0.34962 0.08756 0.0
H454 H 0.36591 0.38902 0.0707 0.0
H455 H 0.32819 0.48763 0.02567 0.0
H456 H 0.2423 0.44889 0.04311 0.0
H457 H 0.09153 0.29206 0.09842 0.0
H458 H 0.25475 0.39561 0.12596 0.0
O459 O 0.16337 0.29953 0.05739 0.0
H460 H 0.07217 0.26726 0.14333 0.0
H461 H 0.23597 0.36979 0.17116 0.0
C462 C 0.14811 0.38564 0.062 0.0
C463 C 0.13009 0.37525 0.03495 0.0
C464 C 0.10034 0.39603 0.02467 0.0
C465 C 0.08788 0.42771 0.04125 0.0
C466 C 0.10643 0.43852 0.0684 0.0
C467 C 0.13673 0.41795 0.07865 0.0
C468 C 0.25445 0.39673 0.06712 0.0
C469 C 0.29034 0.38083 0.07471 0.0
C470 C 0.33968 0.4031 0.06474 0.0
C471 C 0.35396 0.4412 0.04649 0.0
C472 C 0.31847 0.45816 0.03949 0.0
C473 C 0.26925 0.43615 0.04969 0.0
C474 C 0.17463 0.34517 0.10872 0.0
C475 C 0.1233 0.30949 0.11421 0.0
C476 C 0.11234 0.295 0.13993 0.0
C477 C 0.15258 0.3158 0.16091 0.0
C478 C 0.20394 0.35302 0.15553 0.0
C479 C 0.21487 0.36761 0.12963 0.0
P480 P 0.4771 0.95941 0.28155 0.0
H481 H 0.44677 0.96532 0.33488 0.0
H482 H 0.36217 0.92917 0.35359 0.0
H483 H 0.28282 0.85635 0.27544 0.0
H484 H 0.36809 0.89271 0.25694 0.0
H485 H 0.57822 0.97175 0.27024 0.0
H486 H 0.62724 0.93025 0.2855 0.0
H487 H 0.49553 0.82485 0.32685 0.0
H488 H 0.44635 0.86591 0.31101 0.0
H489 H 0.45769 0.03239 0.25386 0.0
H490 H 0.49192 0.90938 0.23237 0.0
O491 O 0.51503 0.01897 0.29793 0.0
H492 H 0.46641 0.05626 0.20822 0.0
H493 H 0.50224 0.93393 0.18679 0.0
C494 C 0.41364 0.93249 0.29446 0.0
C495 C 0.41111 0.94181 0.32175 0.0
C496 C 0.36264 0.92086 0.33246 0.0
C497 C 0.31555 0.89003 0.31605 0.0
C498 C 0.31828 0.88022 0.28866 0.0
C499 C 0.36698 0.90104 0.278 0.0
C500 C 0.50846 0.92185 0.28922 0.0
C501 C 0.55944 0.93894 0.28209 0.0
C502 C 0.58754 0.91525 0.291 0.0
C503 C 0.56553 0.8744 0.30765 0.0
C504 C 0.51381 0.85636 0.31419 0.0
C505 C 0.48552 0.87984 0.30504 0.0
C506 C 0.47502 0.96973 0.24669 0.0
C507 C 0.46672 0.01023 0.23924 0.0
C508 C 0.47219 0.02415 0.21314 0.0
C509 C 0.48606 -0.00224 0.19382 0.0
C510 C 0.49151 0.95516 0.20105 0.0
C511 C 0.48592 0.94122 0.22723 0.0
P512 P 0.17316 0.57461 0.25716 0.0
H513 H 0.25253 0.66746 0.2908 0.0
H514 H 0.24656 0.73203 0.32104 0.0
H515 H 0.07943 0.655 0.29849 0.0
H516 H 0.0855 0.58986 0.2688 0.0
H517 H 0.13193 0.46159 0.24389 0.0
H518 H 0.11728 0.39101 0.27132 0.0
H519 H 0.17265 0.50164 0.3419 0.0
H520 H 0.18546 0.5714 0.31469 0.0
H521 H 0.18472 0.62633 0.20922 0.0
H522 H 0.0639 0.48978 0.2411 0.0
O523 O 0.23422 0.59764 0.24855 0.0
H524 H 0.12595 0.60852 0.16952 0.0
H525 H 0.00592 0.4692 0.20059 0.0
C526 C 0.16972 0.62496 0.27711 0.0
C527 C 0.21474 0.66481 0.29224 0.0
C528 C 0.2111 0.70106 0.3098 0.0
C529 C 0.16241 0.69807 0.3122 0.0
C530 C 0.11738 0.65802 0.297 0.0
C531 C 0.12094 0.62125 0.27982 0.0
C532 C 0.15796 0.52146 0.27721 0.0
C533 C 0.13922 0.47032 0.26532 0.0
C534 C 0.13087 0.43004 0.28104 0.0
C535 C 0.14306 0.44087 0.3088 0.0
C536 C 0.16227 0.49216 0.32061 0.0
C537 C 0.16954 0.53208 0.30496 0.0
C538 C 0.1296 0.55798 0.22749 0.0
C539 C 0.1459 0.59168 0.20734 0.0
C540 C 0.11217 0.58135 0.18462 0.0
C541 C 0.06142 0.5367 0.1815 0.0
C542 C 0.04463 0.50392 0.20224 0.0
C543 C 0.07822 0.51496 0.22523 0.0
P544 P 0.47128 0.48533 0.28625 0.0
H545 H 0.53226 0.54617 0.33545 0.0
H546 H 0.57839 0.63972 0.35029 0.0
H547 H 0.53595 0.67208 0.27364 0.0
H548 H 0.48787 0.57768 0.25916 0.0
H549 H 0.3657 0.4078 0.26034 0.0
H550 H 0.27863 0.36864 0.2764 0.0
H551 H 0.3465 0.4616 0.3523 0.0
H552 H 0.43311 0.50182 0.33583 0.0
H553 H 0.54451 0.46466 0.25913 0.0
H554 H 0.41432 0.48682 0.23677 0.0
O555 O 0.49916 0.45738 0.30324 0.0
H556 H 0.56221 0.46176 0.21282 0.0
H557 H 0.43064 0.4821 0.1899 0.0
C558 C 0.50729 0.55491 0.2961 0.0
C559 C 0.53272 0.57324 0.32181 0.0
C560 C 0.55874 0.62677 0.33032 0.0
C561 C 0.56049 0.66313 0.3131 0.0
C562 C 0.5352 0.64484 0.28726 0.0
C563 C 0.50802 0.5909 0.27895 0.0
C564 C 0.40589 0.45924 0.29648 0.0
C565 C 0.36179 0.42108 0.28009 0.0
C566 C 0.31196 0.39842 0.28943 0.0
C567 C 0.30566 0.41235 0.31562 0.0
C568 C 0.34999 0.45027 0.33203 0.0
C569 C 0.39957 0.47353 0.3225 0.0
C570 C 0.47713 0.47441 0.25139 0.0
C571 C 0.51866 0.46733 0.24414 0.0
C572 C 0.52875 0.46562 0.21754 0.0
C573 C 0.49766 0.47132 0.19751 0.0
C574 C 0.45555 0.47785 0.20481 0.0
C575 C 0.44562 0.47973 0.23156 0.0
Eu576 Eu 0.46834 0.95586 0.98068 0.0
Eu577 Eu 0.51099 0.02678 0.04082 0.0
C578 C 0.47504 0.06693 0.99137 0.0
C579 C 0.45043 0.92823 0.90561 0.0
C580 C 0.48551 0.98159 0.90308 0.0
C581 C 0.43894 0.91063 0.8574 0.0
C582 C 0.49728 -0.00066 0.87785 0.0
C583 C 0.4273 0.89297 0.88261 0.0
C584 C 0.47406 0.96407 0.85463 0.0
C585 C 0.43915 0.90893 0.93212 0.0
O586 O 0.42314 0.97583 0.03801 0.0
O587 O 0.4117 0.90674 0.00942 0.0
C588 C 0.39725 0.92562 0.02955 0.0
O589 O 0.51869 0.9298 1.00231 0.0
O590 O 0.4991 0.07024 0.07391 0.0
O591 O 0.5646 0.05629 0.07708 0.0
O592 O 0.50775 0.95023 0.04523 0.0
C593 C 0.52333 0.92693 0.02803 0.0
O594 O 0.54538 0.02692 0.97529 0.0
O595 O 0.58344 0.0517 0.01858 0.0
O596 O 0.50923 0.08118 0.01224 0.0
O597 O 0.47916 0.91365 0.94679 0.0
O598 O 0.41059 0.92255 0.94579 0.0
O599 O 0.44455 0.01742 0.98216 0.0
C600 C 0.52227 0.05281 0.11597 0.0
C601 C 0.49444 -0.00139 0.11866 0.0
C602 C 0.52486 0.07069 0.16382 0.0
C603 C 0.48213 0.98057 0.1438 0.0
C604 C 0.53714 0.08862 0.1387 0.0
C605 C 0.49734 0.0164 0.16677 0.0
C606 C 0.5366 0.07218 0.08968 0.0
C607 C 0.58681 0.05186 0.99265 0.0
H608 H 0.50391 0.0095 0.92064 0.0
H609 H 0.42094 0.88212 0.84005 0.0
H610 H 0.52405 0.04076 0.87654 0.0
H611 H 0.40048 0.85161 0.88412 0.0
H612 H 0.48249 0.97024 0.10132 0.0
H613 H 0.53801 0.09951 0.18102 0.0
H614 H 0.46046 0.93857 0.14521 0.0
H615 H 0.55877 0.13057 0.13707 0.0
Eu616 Eu 0.02501 0.49448 0.98042 0.0
Eu617 Eu 0.96696 0.48116 0.0355 0.0
C618 C 0.92404 0.38635 0.9889 0.0
C619 C 0.05863 0.51086 0.90827 0.0
C620 C 0.00766 0.47747 0.89601 0.0
C621 C 0.08654 0.54688 0.86637 0.0
C622 C 0.99639 0.47827 0.86895 0.0
C623 C 0.09783 0.54577 0.89337 0.0
C624 C 0.03579 0.51283 0.85379 0.0
C625 C 0.07159 0.51011 0.93654 0.0
O626 O 0.03772 0.47228 0.04575 0.0
O627 O 0.04735 0.4452 1.00392 0.0
C628 C 0.05599 0.44917 0.02991 0.0
O629 O 0.08607 0.5519 0.01246 0.0
O630 O 0.93071 0.4373 0.06901 0.0
O631 O 0.94093 0.51479 0.06695 0.0
O632 O 0.02876 0.56587 0.03507 0.0
C633 C 0.07684 0.58038 0.0299 0.0
O634 O 0.97792 0.53563 0.97775 0.0
O635 O 0.91344 0.48751 1.00434 0.0
O636 O 0.93291 0.40018 0.01461 0.0
O637 O 0.0743 0.54794 0.95266 0.0
O638 O 0.04762 0.46457 0.94607 0.0
O639 O 0.94587 0.42082 0.97161 0.0
C640 C 0.96371 0.49503 0.10782 0.0
C641 C 0.01849 0.51921 0.10801 0.0
C642 C 0.97224 0.50013 0.15603 0.0
C643 C 0.04989 0.53291 0.13189 0.0
C644 C 0.94062 0.48577 0.13191 0.0
C645 C 0.0273 0.52346 0.15626 0.0
C646 C 0.93192 0.47752 0.0821 0.0
C647 C 0.93087 0.5195 0.98561 0.0
H648 H 0.97671 0.45046 0.90726 0.0
H649 H 0.11752 0.57455 0.85538 0.0
H650 H 0.95709 0.45107 0.85983 0.0
H651 H 0.13726 0.57215 0.90263 0.0
H652 H 0.03703 0.52667 0.08956 0.0
H653 H 0.95357 0.49293 0.17443 0.0
H654 H 0.09184 0.54972 0.1311 0.0
H655 H 0.89834 0.46709 0.13206 0.0
Eu656 Eu 0.52656 0.49305 0.04345 0.0
Eu657 Eu 0.47439 0.50006 0.98552 0.0
C658 C 0.52927 0.59743 0.03057 0.0
C659 C 0.5429 0.47989 0.11735 0.0
C660 C 0.5236 0.51191 0.12742 0.0
C661 C 0.52913 0.43988 0.15891 0.0
C662 C 0.50797 0.5085 0.15326 0.0
C663 C 0.54507 0.44359 0.13318 0.0
C664 C 0.51096 0.47271 0.16942 0.0
C665 C 0.55974 0.48273 0.09025 0.0
O666 O 0.5541 0.51138 0.9778 0.0
O667 O 0.59608 0.54029 0.0201 0.0
C668 C 0.5974 0.53546 0.99407 0.0
O669 O 0.53098 0.43597 0.01371 0.0
O670 O 0.47483 0.54313 0.9518 0.0
O671 O 0.41644 0.461 0.95102 0.0
O672 O 0.45654 0.41719 0.98861 0.0
C673 C 0.49292 0.40593 0.99534 0.0
O674 O 0.43833 0.44766 0.04357 0.0
O675 O 0.41567 0.49179 0.01493 0.0
O676 O 0.52396 0.58242 1.00511 0.0
O677 O 0.52854 0.44299 0.07293 0.0
O678 O 0.57787 0.52785 0.08034 0.0
O679 O 0.51645 0.56369 0.04841 0.0
C680 C 0.45809 0.48978 0.91199 0.0
C681 C 0.4916 0.46876 0.91279 0.0
C682 C 0.4643 0.4934 0.86428 0.0
C683 C 0.51159 0.46047 0.88968 0.0
C684 C 0.44457 0.50216 0.88761 0.0
C685 C 0.49811 0.4724 0.86503 0.0
C686 C 0.44007 0.50079 0.93702 0.0
C687 C 0.40508 0.46182 0.03463 0.0
H688 H 0.52097 0.53984 0.11543 0.0
H689 H 0.53108 0.41122 0.17058 0.0
H690 H 0.49476 0.53479 0.16077 0.0
H691 H 0.55918 0.41805 0.12562 0.0
H692 H 0.50275 0.45911 0.93141 0.0
H693 H 0.45264 0.50258 0.84565 0.0
H694 H 0.53829 0.44532 0.89129 0.0
H695 H 0.41897 0.51868 0.88664 0.0
Eu696 Eu 0.13503 0.28918 0.31402 0.0
Eu697 Eu 0.17768 0.36011 0.37416 0.0
C698 C 0.14172 0.40025 0.3247 0.0
C699 C 0.11712 0.26156 0.23895 0.0
C700 C 0.15219 0.31492 0.23642 0.0
C701 C 0.10562 0.24396 0.19074 0.0
C702 C 0.16397 0.33267 0.21119 0.0
C703 C 0.09398 0.22629 0.21594 0.0
C704 C 0.14075 0.2974 0.18797 0.0
C705 C 0.10583 0.24225 0.26545 0.0
O706 O 0.08983 0.30916 0.37135 0.0
O707 O 0.07839 0.24007 0.34276 0.0
C708 C 0.06394 0.25895 0.36288 0.0
O709 O 0.18538 0.26313 0.33564 0.0
O710 O 0.16579 0.40357 0.40724 0.0
O711 O 0.23129 0.38962 0.41041 0.0
O712 O 0.17444 0.28356 0.37856 0.0
C713 C 0.19002 0.26025 0.36136 0.0
O714 O 0.21206 0.36025 0.30862 0.0
O715 O 0.25013 0.38503 0.35192 0.0
O716 O 0.17591 0.4145 0.34558 0.0
O717 O 0.14584 0.24697 0.28012 0.0
O718 O 0.07728 0.25588 0.27913 0.0
O719 O 0.11123 0.35074 0.31549 0.0
C720 C 0.18896 0.38614 0.44931 0.0
C721 C 0.16113 0.33194 0.452 0.0
C722 C 0.19155 0.40403 0.49715 0.0
C723 C 0.14882 0.31391 0.47714 0.0
C724 C 0.20383 0.42196 0.47203 0.0
C725 C 0.16403 0.34974 0.50011 0.0
C726 C 0.20328 0.40551 0.42301 0.0
C727 C 0.25349 0.38519 0.32598 0.0
H728 H 0.17059 0.34282 0.25398 0.0
H729 H 0.08762 0.21545 0.17339 0.0
H730 H 0.19073 0.37409 0.20987 0.0
H731 H 0.06716 0.18494 0.21746 0.0
H732 H 0.14918 0.30358 0.43466 0.0
H733 H 0.20469 0.43285 0.51435 0.0
H734 H 0.12715 0.27191 0.47855 0.0
H735 H 0.22546 0.46391 0.4704 0.0
Eu736 Eu 0.69166 0.82783 0.31375 0.0
Eu737 Eu 0.63362 0.81451 0.36884 0.0
C738 C 0.5907 0.71969 0.32223 0.0
C739 C 0.72528 0.84421 0.2416 0.0
C740 C 0.67431 0.81081 0.22934 0.0
C741 C 0.75319 0.88023 0.1997 0.0
C742 C 0.66304 0.81162 0.20229 0.0
C743 C 0.76449 0.87912 0.2267 0.0
C744 C 0.70244 0.84618 0.18712 0.0
C745 C 0.73825 0.84346 0.26988 0.0
O746 O 0.70438 0.80562 0.37908 0.0
O747 O 0.714 0.77854 0.33725 0.0
C748 C 0.72265 0.78251 0.36325 0.0
O749 O 0.75273 0.88525 0.34579 0.0
O750 O 0.59737 0.77064 0.40234 0.0
O751 O 0.60759 0.84814 0.40028 0.0
O752 O 0.69542 0.89922 0.36841 0.0
C753 C 0.7435 0.91373 0.36324 0.0
O754 O 0.64457 0.86897 0.31108 0.0
O755 O 0.5801 0.82086 0.33768 0.0
O756 O 0.59957 0.73352 0.34795 0.0
O757 O 0.74096 0.88129 0.28599 0.0
O758 O 0.71428 0.79791 0.2794 0.0
O759 O 0.61252 0.75417 0.30495 0.0
C760 C 0.63037 0.82838 0.44115 0.0
C761 C 0.68515 0.85256 0.44135 0.0
C762 C 0.6389 0.83348 0.48936 0.0
C763 C 0.71655 0.86625 0.46522 0.0
C764 C 0.60728 0.81912 0.46525 0.0
C765 C 0.69396 0.8568 0.48959 0.0
C766 C 0.59858 0.81087 0.41543 0.0
C767 C 0.59753 0.85284 0.31894 0.0
H768 H 0.64337 0.7838 0.2406 0.0
H769 H 0.78417 0.90791 0.18871 0.0
H770 H 0.62374 0.78441 0.19317 0.0
H771 H 0.80391 0.9055 0.23596 0.0
H772 H 0.70369 0.86001 0.4229 0.0
H773 H 0.62023 0.82627 0.50777 0.0
H774 H 0.75851 0.88306 0.46443 0.0
H775 H 0.565 0.80043 0.4654 0.0
Eu776 Eu 0.1932 0.82636 0.37678 0.0
Eu777 Eu 0.14102 0.83337 0.31885 0.0
C778 C 0.19591 0.93074 0.3639 0.0
C779 C 0.20954 0.8132 0.45068 0.0
C780 C 0.19024 0.84523 0.46075 0.0
C781 C 0.19577 0.7732 0.49224 0.0
C782 C 0.17462 0.84182 0.48659 0.0
C783 C 0.21171 0.7769 0.46651 0.0
C784 C 0.17761 0.80604 0.50275 0.0
C785 C 0.22638 0.81605 0.42358 0.0
O786 O 0.22074 0.84469 0.31113 0.0
O787 O 0.26272 0.8736 0.35343 0.0
C788 C 0.26403 0.86877 0.3274 0.0
O789 O 0.19762 0.76928 0.34704 0.0
O790 O 0.14146 0.87643 0.28513 0.0
O791 O 0.08308 0.79431 0.28435 0.0
O792 O 0.12318 0.7505 0.32193 0.0
C793 C 0.15957 0.73924 0.32867 0.0
O794 O 0.10497 0.78097 0.3769 0.0
O795 O 0.08231 0.8251 0.34826 0.0
O796 O 0.19061 0.91573 0.33844 0.0
O797 O 0.19518 0.7763 0.40626 0.0
O798 O 0.24451 0.86117 0.41367 0.0
O799 O 0.18309 0.897 0.38173 0.0
C800 C 0.12473 0.82309 0.24532 0.0
C801 C 0.15824 0.80208 0.24611 0.0
C802 C 0.13094 0.82672 0.19761 0.0
C803 C 0.17824 0.79379 0.22301 0.0
C804 C 0.11121 0.83547 0.22094 0.0
C805 C 0.16475 0.80572 0.19836 0.0
C806 C 0.10671 0.8341 0.27035 0.0
C807 C 0.07172 0.79513 0.36796 0.0
H808 H 0.18762 0.87317 0.44876 0.0
H809 H 0.19771 0.74454 0.50391 0.0
H810 H 0.16141 0.86812 0.4941 0.0
H811 H 0.22581 0.75136 0.45895 0.0
H812 H 0.1694 0.79243 0.26474 0.0
H813 H 0.11928 0.8359 0.17898 0.0
H814 H 0.20494 0.77864 0.22462 0.0
H815 H 0.08561 0.85199 0.21997 0.0
Eu816 Eu 0.8017 0.62253 0.64735 0.0
Eu817 Eu 0.84434 0.69345 0.70749 0.0
C818 C 0.80838 0.73359 0.65804 0.0
C819 C 0.78378 0.5949 0.57228 0.0
C820 C 0.81885 0.64826 0.56975 0.0
C821 C 0.77227 0.57729 0.52407 0.0
C822 C 0.83063 0.666 0.54452 0.0
C823 C 0.76063 0.55963 0.54928 0.0
C824 C 0.8074 0.63074 0.5213 0.0
C825 C 0.7725 0.5756 0.59879 0.0
O826 O 0.7565 0.6425 0.70469 0.0
O827 O 0.74506 0.57341 0.67609 0.0
C828 C 0.73061 0.59229 0.69622 0.0
O829 O 0.85205 0.59647 0.66898 0.0
O830 O 0.83245 0.73691 0.74058 0.0
O831 O 0.89796 0.72297 0.74375 0.0
O832 O 0.84111 0.6169 0.7119 0.0
C833 C 0.85669 0.5936 0.6947 0.0
O834 O 0.87873 0.69359 0.64196 0.0
O835 O 0.91679 0.71838 0.68525 0.0
O836 O 0.84257 0.74785 0.67891 0.0
O837 O 0.81251 0.58032 0.61346 0.0
O838 O 0.74394 0.58922 0.61247 0.0
O839 O 0.77789 0.68408 0.64883 0.0
C840 C 0.85563 0.71948 0.78264 0.0
C841 C 0.8278 0.66528 0.78533 0.0
C842 C 0.85822 0.73737 0.83049 0.0
C843 C 0.81549 0.64725 0.81047 0.0
C844 C 0.8705 0.7553 0.80537 0.0
C845 C 0.8307 0.68308 0.83344 0.0
C846 C 0.86995 0.73886 0.75635 0.0
C847 C 0.92016 0.71853 0.65932 0.0
H848 H 0.83726 0.67616 0.58731 0.0
H849 H 0.75427 0.54879 0.50673 0.0
H850 H 0.85739 0.70743 0.54321 0.0
H851 H 0.73382 0.51828 0.5508 0.0
H852 H 0.81585 0.63692 0.76799 0.0
H853 H 0.87136 0.76619 0.84769 0.0
H854 H 0.79382 0.60525 0.81188 0.0
H855 H 0.89213 0.79725 0.80374 0.0
Eu856 Eu 0.35834 0.16117 0.64709 0.0
Eu857 Eu 0.3003 0.14785 0.70217 0.0
C858 C 0.25737 0.05303 0.65556 0.0
C859 C 0.39196 0.17754 0.57493 0.0
C860 C 0.34099 0.14414 0.56267 0.0
C861 C 0.41987 0.21354 0.53303 0.0
C862 C 0.32972 0.14494 0.53562 0.0
C863 C 0.43116 0.21244 0.56003 0.0
C864 C 0.36911 0.1795 0.52045 0.0
C865 C 0.40493 0.1768 0.60321 0.0
O866 O 0.37106 0.13896 0.71241 0.0
O867 O 0.38068 0.11188 0.67059 0.0
C868 C 0.38932 0.11585 0.69658 0.0
O869 O 0.41941 0.21859 0.67912 0.0
O870 O 0.26405 0.10399 0.73568 0.0
O871 O 0.27427 0.18149 0.73361 0.0
O872 O 0.3621 0.23256 0.70174 0.0
C873 C 0.41018 0.24707 0.69657 0.0
O874 O 0.31125 0.20231 0.64441 0.0
O875 O 0.24678 0.1542 0.67101 0.0
O876 O 0.26624 0.06686 0.68128 0.0
O877 O 0.40763 0.21462 0.61932 0.0
O878 O 0.38096 0.13125 0.61274 0.0
O879 O 0.2792 0.08751 0.63828 0.0
C880 C 0.29705 0.16173 0.77448 0.0
C881 C 0.35183 0.1859 0.77468 0.0
C882 C 0.30558 0.16683 0.8227 0.0
C883 C 0.38323 0.1996 0.79856 0.0
C884 C 0.27396 0.15247 0.79858 0.0
C885 C 0.36064 0.19015 0.82292 0.0
C886 C 0.26526 0.14421 0.74877 0.0
C887 C 0.26421 0.18618 0.65227 0.0
H888 H 0.31005 0.11714 0.57393 0.0
H889 H 0.45085 0.24122 0.52204 0.0
H890 H 0.29042 0.11773 0.5265 0.0
H891 H 0.47059 0.23883 0.56929 0.0
H892 H 0.37037 0.19336 0.75623 0.0
H893 H 0.28691 0.15963 0.8411 0.0
H894 H 0.42519 0.21641 0.79776 0.0
H895 H 0.23168 0.13379 0.79873 0.0
Eu896 Eu 0.85988 0.15971 0.71011 0.0
Eu897 Eu 0.80771 0.16672 0.65218 0.0
C898 C 0.86259 0.26409 0.69723 0.0
C899 C 0.87622 0.14654 0.78401 0.0
C900 C 0.85692 0.17857 0.79409 0.0
C901 C 0.86244 0.10653 0.82557 0.0
C902 C 0.84129 0.17516 0.81993 0.0
C903 C 0.87838 0.11023 0.79984 0.0
C904 C 0.84427 0.13937 0.83608 0.0
C905 C 0.89306 0.14939 0.75691 0.0
O906 O 0.88743 0.17804 0.64446 0.0
O907 O 0.9294 0.20695 0.68676 0.0
C908 C 0.93072 0.20212 0.66074 0.0
O909 O 0.8643 0.10263 0.68038 0.0
O910 O 0.80815 0.20979 0.61846 0.0
O911 O 0.74977 0.12766 0.61768 0.0
O912 O 0.78986 0.08385 0.65527 0.0
C913 C 0.82624 0.07259 0.662 0.0
O914 O 0.77165 0.11432 0.71024 0.0
O915 O 0.74899 0.15845 0.6816 0.0
O916 O 0.85729 0.24908 0.67177 0.0
O917 O 0.86186 0.10964 0.73959 0.0
O918 O 0.91119 0.19451 0.74701 0.0
O919 O 0.84977 0.23035 0.71507 0.0
C920 C 0.79142 0.15644 0.57865 0.0
C921 C 0.82493 0.13543 0.57945 0.0
C922 C 0.79763 0.16007 0.53094 0.0
C923 C 0.84492 0.12713 0.55635 0.0
C924 C 0.7779 0.16883 0.55428 0.0
C925 C 0.83144 0.13906 0.5317 0.0
C926 C 0.77339 0.16746 0.60368 0.0
C927 C 0.73841 0.12848 0.70129 0.0
H928 H 0.8543 0.20651 0.7821 0.0
H929 H 0.86437 0.07787 0.83724 0.0
H930 H 0.82808 0.20146 0.82744 0.0
H931 H 0.89248 0.08469 0.79228 0.0
H932 H 0.83608 0.12578 0.59807 0.0
H933 H 0.78596 0.16925 0.51231 0.0
H934 H 0.87162 0.11198 0.55795 0.0
H935 H 0.7523 0.18535 0.5533 0.0
loop_
_geom_bond_atom_site_label_1
_geom_bond_atom_site_label_2
_geom_bond_distance
_geom_bond_site_symmetry_2
_ccdc_geom_bond_type
P0 O11 1.490 . S
P0 C14 1.812 . S
P0 C20 1.803 . S
P0 C26 1.819 . S
H1 C15 0.941 . S
H2 C16 0.939 . S
H3 C18 0.940 . S
H4 C19 0.940 . S
H5 C21 0.939 . S
H6 C22 0.942 . S
H7 C24 0.940 . S
H8 C25 0.939 . S
H9 C27 0.941 . S
H10 C31 0.939 . S
O11 P0 1.490 . S
H12 C28 0.939 . S
H13 C30 0.940 . S
C14 P0 1.812 . S
C14 C15 1.389 . S
C14 C19 1.391 . S
C15 H1 0.941 . S
C15 C14 1.389 . S
C15 C16 1.397 . S
C16 H2 0.939 . S
C16 C15 1.397 . S
C16 C17 1.378 . S
C17 C16 1.378 . S
C17 C18 1.378 . S
C18 H3 0.940 . S
C18 C17 1.378 . S
C18 C19 1.396 . S
C19 H4 0.940 . S
C19 C14 1.391 . S
C19 C18 1.396 . S
C20 P0 1.803 . S
C20 C21 1.378 . S
C20 C25 1.400 . S
C21 H5 0.939 . S
C21 C20 1.378 . S
C21 C22 1.361 . S
C22 H6 0.942 . S
C22 C21 1.361 . S
C22 C23 1.369 . S
C23 C22 1.369 . S
C23 C24 1.404 . S
C24 H7 0.940 . S
C24 C23 1.404 . S
C24 C25 1.389 . S
C25 H8 0.939 . S
C25 C20 1.400 . S
C25 C24 1.389 . S
C26 P0 1.819 . S
C26 C27 1.391 . S
C26 C31 1.391 . S
C27 H9 0.941 . S
C27 C26 1.391 . S
C27 C28 1.396 . S
C28 H12 0.939 . S
C28 C27 1.396 . S
C28 C29 1.397 . S
C29 C28 1.397 . S
C29 C30 1.385 . S
C30 H13 0.940 . S
C30 C29 1.385 . S
C30 C31 1.388 . S
C31 H10 0.939 . S
C31 C26 1.391 . S
C31 C30 1.388 . S
P32 O43 1.490 . S
P32 C46 1.812 . S
P32 C52 1.803 . S
P32 C58 1.819 . S
H33 C47 0.941 . S
H34 C48 0.939 . S
H35 C50 0.940 . S
H36 C51 0.940 . S
H37 C53 0.926 1_455 S
H38 C54 0.942 . S
H39 C56 0.940 . S
H40 C57 0.939 . S
H41 C59 0.941 . S
H42 C63 0.939 . S
O43 P32 1.490 . S
H44 C60 0.939 . S
H45 C62 0.940 . S
C46 P32 1.812 . S
C46 C47 1.389 . S
C46 C51 1.391 . S
C47 H33 0.941 . S
C47 C46 1.389 . S
C47 C48 1.397 1_545 S
C48 H34 0.939 . S
C48 C47 1.397 1_565 S
C48 C49 1.389 . S
C49 C48 1.389 . S
C49 C50 1.364 1_565 S
C50 H35 0.940 . S
C50 C49 1.364 1_545 S
C50 C51 1.396 . S
C51 H36 0.940 . S
C51 C46 1.391 . S
C51 C50 1.396 . S
C52 P32 1.803 . S
C52 C53 1.395 . S
C52 C57 1.400 . S
C53 H37 0.926 1_655 S
C53 C52 1.395 . S
C53 C54 1.356 1_655 S
C54 H38 0.942 . S
C54 C53 1.356 1_455 S
C54 C55 1.369 . S
C55 C54 1.369 . S
C55 C56 1.404 1_455 S
C56 H39 0.940 . S
C56 C55 1.404 1_655 S
C56 C57 1.389 . S
C57 H40 0.939 . S
C57 C52 1.400 . S
C57 C56 1.389 . S
C58 P32 1.819 . S
C58 C59 1.391 . S
C58 C63 1.391 . S
C59 H41 0.941 . S
C59 C58 1.391 . S
C59 C60 1.396 . S
C60 H44 0.939 . S
C60 C59 1.396 . S
C60 C61 1.397 . S
C61 C60 1.397 . S
C61 C62 1.385 . S
C62 H45 0.940 . S
C62 C61 1.385 . S
C62 C63 1.388 . S
C63 H42 0.939 . S
C63 C58 1.391 . S
C63 C62 1.388 . S
P64 O75 1.490 . S
P64 C78 1.812 . S
P64 C84 1.803 . S
P64 C90 1.819 . S
H65 C79 0.941 . S
H66 C80 0.939 . S
H67 C82 0.940 . S
H68 C83 0.940 . S
H69 C85 0.939 . S
H70 C86 0.942 1_455 S
H71 C88 0.940 1_455 S
H72 C89 0.939 . S
H73 C91 0.941 . S
H74 C95 0.939 . S
O75 P64 1.490 . S
H76 C92 0.939 . S
H77 C94 0.940 . S
C78 P64 1.812 . S
C78 C79 1.389 . S
C78 C83 1.391 . S
C79 H65 0.941 . S
C79 C78 1.389 . S
C79 C80 1.397 . S
C80 H66 0.939 . S
C80 C79 1.397 . S
C80 C81 1.378 . S
C81 C80 1.378 . S
C81 C82 1.378 . S
C82 H67 0.940 . S
C82 C81 1.378 . S
C82 C83 1.396 . S
C83 H68 0.940 . S
C83 C78 1.391 . S
C83 C82 1.396 . S
C84 P64 1.803 . S
C84 C85 1.378 . S
C84 C89 1.400 . S
C85 H69 0.939 . S
C85 C84 1.378 . S
C85 C86 1.361 . S
C86 H70 0.942 1_655 S
C86 C85 1.361 . S
C86 C87 1.369 1_655 S
C87 C86 1.369 1_455 S
C87 C88 1.404 1_455 S
C88 H71 0.940 1_655 S
C88 C87 1.404 1_655 S
C88 C89 1.389 . S
C89 H72 0.939 . S
C89 C84 1.400 . S
C89 C88 1.389 . S
C90 P64 1.819 . S
C90 C91 1.391 . S
C90 C95 1.391 . S
C91 H73 0.941 . S
C91 C90 1.391 . S
C91 C92 1.396 . S
C92 H76 0.939 . S
C92 C91 1.396 . S
C92 C93 1.397 . S
C93 C92 1.397 . S
C93 C94 1.385 . S
C94 H77 0.940 . S
C94 C93 1.385 . S
C94 C95 1.388 . S
C95 H74 0.939 . S
C95 C90 1.391 . S
C95 C94 1.388 . S
P96 O107 1.490 . S
P96 C110 1.812 . S
P96 C116 1.803 . S
P96 C122 1.819 . S
H97 C111 0.941 . S
H98 C112 0.939 . S
H99 C114 0.940 . S
H100 C115 0.940 . S
H101 C117 0.939 . S
H102 C118 0.942 . S
H103 C120 0.940 . S
H104 C121 0.939 . S
H105 C123 0.941 . S
H106 C127 0.939 . S
O107 P96 1.490 . S
H108 C124 0.939 . S
H109 C126 0.940 . S
C110 P96 1.812 . S
C110 C111 1.389 . S
C110 C115 1.391 . S
C111 H97 0.941 . S
C111 C110 1.389 . S
C111 C112 1.397 . S
C112 H98 0.939 . S
C112 C111 1.397 . S
C112 C113 1.378 1_455 S
C113 C112 1.378 1_655 S
C113 C114 1.378 . S
C114 H99 0.940 . S
C114 C113 1.378 . S
C114 C115 1.396 1_655 S
C115 H100 0.940 . S
C115 C110 1.391 . S
C115 C114 1.396 1_455 S
C116 P96 1.803 . S
C116 C117 1.378 . S
C116 C121 1.400 . S
C117 H101 0.939 . S
C117 C116 1.378 . S
C117 C118 1.361 . S
C118 H102 0.942 . S
C118 C117 1.361 . S
C118 C119 1.369 . S
C119 C118 1.369 . S
C119 C120 1.404 . S
C120 H103 0.940 . S
C120 C119 1.404 . S
C120 C121 1.389 . S
C121 H104 0.939 . S
C121 C116 1.400 . S
C121 C120 1.389 . S
C122 P96 1.819 . S
C122 C123 1.391 . S
C122 C127 1.391 . S
C123 H105 0.941 . S
C123 C122 1.391 . S
C123 C124 1.396 . S
C124 H108 0.939 . S
C124 C123 1.396 . S
C124 C125 1.397 . S
C125 C124 1.397 . S
C125 C126 1.385 . S
C126 H109 0.940 . S
C126 C125 1.385 . S
C126 C127 1.388 . S
C127 H106 0.939 . S
C127 C122 1.391 . S
C127 C126 1.388 . S
P128 O139 1.490 . S
P128 C142 1.812 . S
P128 C148 1.803 . S
P128 C154 1.819 . S
H129 C143 0.941 . S
H130 C144 0.929 1_545 S
H131 C146 0.940 . S
H132 C147 0.940 . S
H133 C149 0.939 . S
H134 C150 0.942 . S
H135 C152 0.940 . S
H136 C153 0.939 . S
H137 C155 0.941 . S
H138 C159 0.939 . S
O139 P128 1.490 . S
H140 C156 0.939 . S
H141 C158 0.940 . S
C142 P128 1.812 . S
C142 C143 1.389 . S
C142 C147 1.391 . S
C143 H129 0.941 . S
C143 C142 1.389 . S
C143 C144 1.417 . S
C144 H130 0.929 1_565 S
C144 C143 1.417 . S
C144 C145 1.369 . S
C145 C144 1.369 . S
C145 C146 1.378 . S
C146 H131 0.940 . S
C146 C145 1.378 . S
C146 C147 1.396 . S
C147 H132 0.940 . S
C147 C142 1.391 . S
C147 C146 1.396 . S
C148 P128 1.803 . S
C148 C149 1.378 . S
C148 C153 1.400 . S
C149 H133 0.939 . S
C149 C148 1.378 . S
C149 C150 1.361 . S
C150 H134 0.942 . S
C150 C149 1.361 . S
C150 C151 1.369 . S
C151 C150 1.369 . S
C151 C152 1.404 . S
C152 H135 0.940 . S
C152 C151 1.404 . S
C152 C153 1.389 . S
C153 H136 0.939 . S
C153 C148 1.400 . S
C153 C152 1.389 . S
C154 P128 1.819 . S
C154 C155 1.391 . S
C154 C159 1.391 . S
C155 H137 0.941 . S
C155 C154 1.391 . S
C155 C156 1.396 . S
C156 H140 0.939 . S
C156 C155 1.396 . S
C156 C157 1.397 . S
C157 C156 1.397 . S
C157 C158 1.385 . S
C158 H141 0.940 . S
C158 C157 1.385 . S
C158 C159 1.388 . S
C159 H138 0.939 . S
C159 C154 1.391 . S
C159 C158 1.388 . S
P160 O171 1.490 . S
P160 C174 1.812 . S
P160 C180 1.803 . S
P160 C186 1.819 . S
H161 C175 0.941 . S
H162 C176 0.939 . S
H163 C178 0.930 1_545 S
H164 C179 0.940 . S
H165 C181 0.939 . S
H166 C182 0.942 . S
H167 C184 0.940 . S
H168 C185 0.939 . S
H169 C187 0.941 . S
H170 C191 0.939 . S
O171 P160 1.490 . S
H172 C188 0.939 . S
H173 C190 0.940 . S
C174 P160 1.812 . S
C174 C175 1.389 . S
C174 C179 1.391 . S
C175 H161 0.941 . S
C175 C174 1.389 . S
C175 C176 1.397 . S
C176 H162 0.939 . S
C176 C175 1.397 . S
C176 C177 1.378 . S
C177 C176 1.378 . S
C177 C178 1.378 . S
C178 H163 0.930 1_565 S
C178 C177 1.378 . S
C178 C179 1.396 . S
C179 H164 0.940 . S
C179 C174 1.391 . S
C179 C178 1.396 . S
C180 P160 1.803 . S
C180 C181 1.378 . S
C180 C185 1.400 . S
C181 H165 0.939 . S
C181 C180 1.378 . S
C181 C182 1.361 . S
C182 H166 0.942 . S
C182 C181 1.361 . S
C182 C183 1.369 . S
C183 C182 1.369 . S
C183 C184 1.404 . S
C184 H167 0.940 . S
C184 C183 1.404 . S
C184 C185 1.389 . S
C185 H168 0.939 . S
C185 C180 1.400 . S
C185 C184 1.389 . S
C186 P160 1.819 . S
C186 C187 1.391 . S
C186 C191 1.391 . S
C187 H169 0.941 . S
C187 C186 1.391 . S
C187 C188 1.396 . S
C188 H172 0.939 . S
C188 C187 1.396 . S
C188 C189 1.397 . S
C189 C188 1.397 . S
C189 C190 1.385 . S
C190 H173 0.940 . S
C190 C189 1.385 . S
C190 C191 1.388 . S
C191 H170 0.939 . S
C191 C186 1.391 . S
C191 C190 1.388 . S
P192 O203 1.490 . S
P192 C206 1.812 1_455 S
P192 C212 1.803 1_455 S
P192 C218 1.819 . S
H193 C207 0.941 . S
H194 C208 0.942 . S
H195 C210 0.940 . S
H196 C211 0.940 . S
H197 C213 0.939 . S
H198 C214 0.940 1_455 S
H199 C216 0.940 . S
H200 C217 0.939 . S
H201 C219 0.941 . S
H202 C223 0.939 . S
O203 P192 1.490 . S
H204 C220 0.939 . S
H205 C222 0.940 . S
C206 P192 1.812 1_655 S
C206 C207 1.389 1_655 S
C206 C211 1.391 . S
C207 H193 0.941 . S
C207 C206 1.389 1_455 S
C207 C208 1.397 1_455 S
C208 H194 0.942 . S
C208 C207 1.397 1_655 S
C208 C209 1.378 . S
C209 C208 1.378 . S
C209 C210 1.378 . S
C210 H195 0.940 . S
C210 C209 1.378 . S
C210 C211 1.396 . S
C211 H196 0.940 . S
C211 C206 1.391 . S
C211 C210 1.396 . S
C212 P192 1.803 1_655 S
C212 C213 1.378 1_655 S
C212 C217 1.400 . S
C213 H197 0.939 . S
C213 C212 1.378 1_455 S
C213 C214 1.345 1_455 S
C214 H198 0.940 1_655 S
C214 C213 1.345 1_655 S
C214 C215 1.386 . S
C215 C214 1.386 . S
C215 C216 1.404 . S
C216 H199 0.940 . S
C216 C215 1.404 . S
C216 C217 1.389 . S
C217 H200 0.939 . S
C217 C212 1.400 . S
C217 C216 1.389 . S
C218 P192 1.819 . S
C218 C219 1.391 . S
C218 C223 1.391 1_455 S
C219 H201 0.941 . S
C219 C218 1.391 . S
C219 C220 1.396 . S
C220 H204 0.939 . S
C220 C219 1.396 . S
C220 C221 1.397 . S
C221 C220 1.397 . S
C221 C222 1.385 1_455 S
C222 H205 0.940 . S
C222 C221 1.385 1_655 S
C222 C223 1.388 . S
C223 H202 0.939 . S
C223 C218 1.391 1_655 S
C223 C222 1.388 . S
P224 O235 1.490 . S
P224 C238 1.812 . S
P224 C244 1.803 . S
P224 C250 1.819 . S
H225 C239 0.941 . S
H226 C240 0.939 . S
H227 C242 0.940 . S
H228 C243 0.940 . S
H229 C245 0.939 . S
H230 C246 0.942 . S
H231 C248 0.940 . S
H232 C249 0.939 . S
H233 C251 0.941 . S
H234 C255 0.939 . S
O235 P224 1.490 . S
H236 C252 0.939 . S
H237 C254 0.940 . S
C238 P224 1.812 . S
C238 C239 1.389 . S
C238 C243 1.391 . S
C239 H225 0.941 . S
C239 C238 1.389 . S
C239 C240 1.397 . S
C240 H226 0.939 . S
C240 C239 1.397 . S
C240 C241 1.378 . S
C241 C240 1.378 . S
C241 C242 1.378 . S
C242 H227 0.940 . S
C242 C241 1.378 . S
C242 C243 1.396 . S
C243 H228 0.940 . S
C243 C238 1.391 . S
C243 C242 1.396 . S
C244 P224 1.803 . S
C244 C245 1.378 . S
C244 C249 1.400 . S
C245 H229 0.939 . S
C245 C244 1.378 . S
C245 C246 1.361 . S
C246 H230 0.942 . S
C246 C245 1.361 . S
C246 C247 1.369 . S
C247 C246 1.369 . S
C247 C248 1.404 . S
C248 H231 0.940 . S
C248 C247 1.404 . S
C248 C249 1.389 . S
C249 H232 0.939 . S
C249 C244 1.400 . S
C249 C248 1.389 . S
C250 P224 1.819 . S
C250 C251 1.391 . S
C250 C255 1.391 . S
C251 H233 0.941 . S
C251 C250 1.391 . S
C251 C252 1.396 . S
C252 H236 0.939 . S
C252 C251 1.396 . S
C252 C253 1.397 . S
C253 C252 1.397 . S
C253 C254 1.385 . S
C254 H237 0.940 . S
C254 C253 1.385 . S
C254 C255 1.388 . S
C255 H234 0.939 . S
C255 C250 1.391 . S
C255 C254 1.388 . S
P256 O267 1.490 . S
P256 C270 1.812 1_565 S
P256 C276 1.803 1_565 S
P256 C282 1.819 1_565 S
H257 C271 0.941 1_565 S
H258 C272 0.939 . S
H259 C274 0.940 . S
H260 C275 0.940 . S
H261 C277 0.939 1_565 S
H262 C278 0.942 . S
H263 C280 0.940 . S
H264 C281 0.939 . S
H265 C283 0.941 . S
H266 C287 0.939 . S
O267 P256 1.490 . S
H268 C284 0.939 . S
H269 C286 0.940 . S
C270 P256 1.812 1_545 S
C270 C271 1.389 . S
C270 C275 1.391 . S
C271 H257 0.941 1_545 S
C271 C270 1.389 . S
C271 C272 1.397 . S
C272 H258 0.939 . S
C272 C271 1.397 . S
C272 C273 1.378 . S
C273 C272 1.378 . S
C273 C274 1.378 . S
C274 H259 0.940 . S
C274 C273 1.378 . S
C274 C275 1.396 . S
C275 H260 0.940 . S
C275 C270 1.391 . S
C275 C274 1.396 . S
C276 P256 1.803 1_545 S
C276 C277 1.378 . S
C276 C281 1.400 . S
C277 H261 0.939 1_545 S
C277 C276 1.378 . S
C277 C278 1.361 . S
C278 H262 0.942 . S
C278 C277 1.361 . S
C278 C279 1.369 . S
C279 C278 1.369 . S
C279 C280 1.404 . S
C280 H263 0.940 . S
C280 C279 1.404 . S
C280 C281 1.389 . S
C281 H264 0.939 . S
C281 C276 1.400 . S
C281 C280 1.389 . S
C282 P256 1.819 1_545 S
C282 C283 1.391 1_545 S
C282 C287 1.391 . S
C283 H265 0.941 . S
C283 C282 1.391 1_565 S
C283 C284 1.396 . S
C284 H268 0.939 . S
C284 C283 1.396 . S
C284 C285 1.397 1_565 S
C285 C284 1.397 1_545 S
C285 C286 1.385 . S
C286 H269 0.940 . S
C286 C285 1.385 . S
C286 C287 1.388 . S
C287 H266 0.939 . S
C287 C282 1.391 . S
C287 C286 1.388 . S
P288 O299 1.490 . S
P288 C302 1.812 . S
P288 C308 1.803 . S
P288 C314 1.819 . S
H289 C303 0.941 . S
H290 C304 0.939 1_554 S
H291 C306 0.940 . S
H292 C307 0.940 . S
H293 C309 0.939 . S
H294 C310 0.942 . S
H295 C312 0.940 . S
H296 C313 0.939 . S
H297 C315 0.941 . S
H298 C319 0.939 . S
O299 P288 1.490 . S
H300 C316 0.939 . S
H301 C318 0.940 . S
C302 P288 1.812 . S
C302 C303 1.389 . S
C302 C307 1.391 . S
C303 H289 0.941 . S
C303 C302 1.389 . S
C303 C304 1.397 . S
C304 H290 0.939 1_556 S
C304 C303 1.397 . S
C304 C305 1.378 . S
C305 C304 1.378 . S
C305 C306 1.378 . S
C306 H291 0.940 . S
C306 C305 1.378 . S
C306 C307 1.396 . S
C307 H292 0.940 . S
C307 C302 1.391 . S
C307 C306 1.396 . S
C308 P288 1.803 . S
C308 C309 1.378 . S
C308 C313 1.400 . S
C309 H293 0.939 . S
C309 C308 1.378 . S
C309 C310 1.361 . S
C310 H294 0.942 . S
C310 C309 1.361 . S
C310 C311 1.369 . S
C311 C310 1.369 . S
C311 C312 1.404 . S
C312 H295 0.940 . S
C312 C311 1.404 . S
C312 C313 1.389 . S
C313 H296 0.939 . S
C313 C308 1.400 . S
C313 C312 1.389 . S
C314 P288 1.819 . S
C314 C315 1.391 . S
C314 C319 1.391 . S
C315 H297 0.941 . S
C315 C314 1.391 . S
C315 C316 1.396 . S
C316 H300 0.939 . S
C316 C315 1.396 . S
C316 C317 1.397 . S
C317 C316 1.397 . S
C317 C318 1.385 . S
C318 H301 0.940 . S
C318 C317 1.385 . S
C318 C319 1.388 . S
C319 H298 0.939 . S
C319 C314 1.391 . S
C319 C318 1.388 . S
P320 O331 1.490 . S
P320 C334 1.812 . S
P320 C340 1.803 . S
P320 C346 1.819 . S
H321 C335 0.941 . S
H322 C336 0.920 1_554 S
H323 C338 0.940 . S
H324 C339 0.940 . S
H325 C341 0.939 . S
H326 C342 0.942 . S
H327 C344 0.940 1_554 S
H328 C345 0.939 . S
H329 C347 0.941 . S
H330 C351 0.939 . S
O331 P320 1.490 . S
H332 C348 0.939 . S
H333 C350 0.940 . S
C334 P320 1.812 . S
C334 C335 1.389 . S
C334 C339 1.391 . S
C335 H321 0.941 . S
C335 C334 1.389 . S
C335 C336 1.415 . S
C336 H322 0.920 1_556 S
C336 C335 1.415 . S
C336 C337 1.381 . S
C337 C336 1.381 . S
C337 C338 1.378 . S
C338 H323 0.940 . S
C338 C337 1.378 . S
C338 C339 1.396 . S
C339 H324 0.940 . S
C339 C334 1.391 . S
C339 C338 1.396 . S
C340 P320 1.803 . S
C340 C341 1.378 . S
C340 C345 1.400 . S
C341 H325 0.939 . S
C341 C340 1.378 . S
C341 C342 1.361 . S
C342 H326 0.942 . S
C342 C341 1.361 . S
C342 C343 1.369 . S
C343 C342 1.369 . S
C343 C344 1.404 . S
C344 H327 0.940 1_556 S
C344 C343 1.404 . S
C344 C345 1.389 . S
C345 H328 0.939 . S
C345 C340 1.400 . S
C345 C344 1.389 . S
C346 P320 1.819 . S
C346 C347 1.391 . S
C346 C351 1.391 . S
C347 H329 0.941 . S
C347 C346 1.391 . S
C347 C348 1.396 . S
C348 H332 0.939 . S
C348 C347 1.396 . S
C348 C349 1.397 . S
C349 C348 1.397 . S
C349 C350 1.385 . S
C350 H333 0.940 . S
C350 C349 1.385 . S
C350 C351 1.388 . S
C351 H330 0.939 . S
C351 C346 1.391 . S
C351 C350 1.388 . S
P352 O363 1.490 . S
P352 C366 1.812 . S
P352 C372 1.803 . S
P352 C378 1.819 . S
H353 C367 0.941 1_554 S
H354 C368 0.939 . S
H355 C370 0.940 . S
H356 C371 0.940 . S
H357 C373 0.939 . S
H358 C374 0.942 1_565 S
H359 C376 0.940 . S
H360 C377 0.939 . S
H361 C379 0.941 . S
H362 C383 0.939 . S
O363 P352 1.490 . S
H364 C380 0.939 . S
H365 C382 0.940 . S
C366 P352 1.812 . S
C366 C367 1.389 . S
C366 C371 1.391 . S
C367 H353 0.941 1_556 S
C367 C366 1.389 . S
C367 C368 1.397 1_556 S
C368 H354 0.939 . S
C368 C367 1.397 1_554 S
C368 C369 1.378 1_554 S
C369 C368 1.378 1_556 S
C369 C370 1.378 . S
C370 H355 0.940 . S
C370 C369 1.378 . S
C370 C371 1.396 . S
C371 H356 0.940 . S
C371 C366 1.391 . S
C371 C370 1.396 . S
C372 P352 1.803 . S
C372 C373 1.378 . S
C372 C377 1.400 . S
C373 H357 0.939 . S
C373 C372 1.378 . S
C373 C374 1.361 . S
C374 H358 0.942 1_545 S
C374 C373 1.361 . S
C374 C375 1.369 . S
C375 C374 1.369 . S
C375 C376 1.404 . S
C376 H359 0.940 . S
C376 C375 1.404 . S
C376 C377 1.389 . S
C377 H360 0.939 . S
C377 C372 1.400 . S
C377 C376 1.389 . S
C378 P352 1.819 . S
C378 C379 1.391 . S
C378 C383 1.391 . S
C379 H361 0.941 . S
C379 C378 1.391 . S
C379 C380 1.396 . S
C380 H364 0.939 . S
C380 C379 1.396 . S
C380 C381 1.397 . S
C381 C380 1.397 . S
C381 C382 1.385 . S
C382 H365 0.940 . S
C382 C381 1.385 . S
C382 C383 1.388 . S
C383 H362 0.939 . S
C383 C378 1.391 . S
C383 C382 1.388 . S
P384 O395 1.490 . S
P384 C398 1.812 . S
P384 C404 1.803 . S
P384 C410 1.819 . S
H385 C399 0.941 . S
H386 C400 0.920 1_556 S
H387 C402 0.940 . S
H388 C403 0.940 . S
H389 C405 0.939 . S
H390 C406 0.942 1_545 S
H391 C408 0.940 . S
H392 C409 0.939 . S
H393 C411 0.941 . S
H394 C415 0.939 . S
O395 P384 1.490 . S
H396 C412 0.939 . S
H397 C414 0.940 . S
C398 P384 1.812 . S
C398 C399 1.389 . S
C398 C403 1.391 . S
C399 H385 0.941 . S
C399 C398 1.389 . S
C399 C400 1.404 . S
C400 H386 0.920 1_554 S
C400 C399 1.404 . S
C400 C401 1.390 . S
C401 C400 1.390 . S
C401 C402 1.378 . S
C402 H387 0.940 . S
C402 C401 1.378 . S
C402 C403 1.396 . S
C403 H388 0.940 . S
C403 C398 1.391 . S
C403 C402 1.396 . S
C404 P384 1.803 . S
C404 C405 1.378 . S
C404 C409 1.400 . S
C405 H389 0.939 . S
C405 C404 1.378 . S
C405 C406 1.361 . S
C406 H390 0.942 1_565 S
C406 C405 1.361 . S
C406 C407 1.369 . S
C407 C406 1.369 . S
C407 C408 1.404 . S
C408 H391 0.940 . S
C408 C407 1.404 . S
C408 C409 1.389 . S
C409 H392 0.939 . S
C409 C404 1.400 . S
C409 C408 1.389 . S
C410 P384 1.819 . S
C410 C411 1.391 . S
C410 C415 1.391 . S
C411 H393 0.941 . S
C411 C410 1.391 . S
C411 C412 1.396 . S
C412 H396 0.939 . S
C412 C411 1.396 . S
C412 C413 1.397 . S
C413 C412 1.397 . S
C413 C414 1.385 . S
C414 H397 0.940 . S
C414 C413 1.385 . S
C414 C415 1.388 . S
C415 H394 0.939 . S
C415 C410 1.391 . S
C415 C414 1.388 . S
P416 O427 1.490 . S
P416 C430 1.812 . S
P416 C436 1.803 . S
P416 C442 1.819 . S
H417 C431 0.941 . S
H418 C432 0.939 . S
H419 C434 0.940 . S
H420 C435 0.940 . S
H421 C437 0.939 . S
H422 C438 0.942 . S
H423 C440 0.940 . S
H424 C441 0.939 . S
H425 C443 0.941 . S
H426 C447 0.939 . S
O427 P416 1.490 . S
H428 C444 0.939 . S
H429 C446 0.940 . S
C430 P416 1.812 . S
C430 C431 1.389 . S
C430 C435 1.391 . S
C431 H417 0.941 . S
C431 C430 1.389 . S
C431 C432 1.397 . S
C432 H418 0.939 . S
C432 C431 1.397 . S
C432 C433 1.378 . S
C433 C432 1.378 . S
C433 C434 1.378 . S
C434 H419 0.940 . S
C434 C433 1.378 . S
C434 C435 1.396 . S
C435 H420 0.940 . S
C435 C430 1.391 . S
C435 C434 1.396 . S
C436 P416 1.803 . S
C436 C437 1.378 . S
C436 C441 1.400 . S
C437 H421 0.939 . S
C437 C436 1.378 . S
C437 C438 1.361 . S
C438 H422 0.942 . S
C438 C437 1.361 . S
C438 C439 1.369 . S
C439 C438 1.369 . S
C439 C440 1.404 . S
C440 H423 0.940 . S
C440 C439 1.404 . S
C440 C441 1.389 . S
C441 H424 0.939 . S
C441 C436 1.400 . S
C441 C440 1.389 . S
C442 P416 1.819 . S
C442 C443 1.391 . S
C442 C447 1.391 . S
C443 H425 0.941 . S
C443 C442 1.391 . S
C443 C444 1.396 . S
C444 H428 0.939 . S
C444 C443 1.396 . S
C444 C445 1.397 . S
C445 C444 1.397 . S
C445 C446 1.385 . S
C446 H429 0.940 . S
C446 C445 1.385 . S
C446 C447 1.388 . S
C447 H426 0.939 . S
C447 C442 1.391 . S
C447 C446 1.388 . S
P448 O459 1.490 . S
P448 C462 1.812 . S
P448 C468 1.803 . S
P448 C474 1.819 . S
H449 C463 0.941 . S
H450 C464 0.939 1_556 S
H451 C466 0.940 . S
H452 C467 0.940 . S
H453 C469 0.939 . S
H454 C470 0.942 . S
H455 C472 0.940 . S
H456 C473 0.939 . S
H457 C475 0.941 . S
H458 C479 0.939 . S
O459 P448 1.490 . S
H460 C476 0.939 . S
H461 C478 0.940 . S
C462 P448 1.812 . S
C462 C463 1.389 . S
C462 C467 1.391 . S
C463 H449 0.941 . S
C463 C462 1.389 . S
C463 C464 1.397 . S
C464 H450 0.939 1_554 S
C464 C463 1.397 . S
C464 C465 1.378 . S
C465 C464 1.378 . S
C465 C466 1.378 . S
C466 H451 0.940 . S
C466 C465 1.378 . S
C466 C467 1.396 . S
C467 H452 0.940 . S
C467 C462 1.391 . S
C467 C466 1.396 . S
C468 P448 1.803 . S
C468 C469 1.378 . S
C468 C473 1.400 . S
C469 H453 0.939 . S
C469 C468 1.378 . S
C469 C470 1.361 . S
C470 H454 0.942 . S
C470 C469 1.361 . S
C470 C471 1.369 . S
C471 C470 1.369 . S
C471 C472 1.404 . S
C472 H455 0.940 . S
C472 C471 1.404 . S
C472 C473 1.389 . S
C473 H456 0.939 . S
C473 C468 1.400 . S
C473 C472 1.389 . S
C474 P448 1.819 . S
C474 C475 1.391 . S
C474 C479 1.391 . S
C475 H457 0.941 . S
C475 C474 1.391 . S
C475 C476 1.396 . S
C476 H460 0.939 . S
C476 C475 1.396 . S
C476 C477 1.397 . S
C477 C476 1.397 . S
C477 C478 1.385 . S
C478 H461 0.940 . S
C478 C477 1.385 . S
C478 C479 1.388 . S
C479 H458 0.939 . S
C479 C474 1.391 . S
C479 C478 1.388 . S
P480 O491 1.490 . S
P480 C494 1.812 1_545 S
P480 C500 1.803 1_545 S
P480 C506 1.819 1_545 S
H481 C495 0.941 1_545 S
H482 C496 0.939 . S
H483 C498 0.940 . S
H484 C499 0.940 . S
H485 C501 0.939 1_545 S
H486 C502 0.942 . S
H487 C504 0.940 . S
H488 C505 0.939 . S
H489 C507 0.941 . S
H490 C511 0.939 . S
O491 P480 1.490 . S
H492 C508 0.939 . S
H493 C510 0.940 . S
C494 P480 1.812 1_565 S
C494 C495 1.389 . S
C494 C499 1.391 . S
C495 H481 0.941 1_565 S
C495 C494 1.389 . S
C495 C496 1.397 . S
C496 H482 0.939 . S
C496 C495 1.397 . S
C496 C497 1.378 . S
C497 C496 1.378 . S
C497 C498 1.378 . S
C498 H483 0.940 . S
C498 C497 1.378 . S
C498 C499 1.396 . S
C499 H484 0.940 . S
C499 C494 1.391 . S
C499 C498 1.396 . S
C500 P480 1.803 1_565 S
C500 C501 1.378 . S
C500 C505 1.400 . S
C501 H485 0.939 1_565 S
C501 C500 1.378 . S
C501 C502 1.361 . S
C502 H486 0.942 . S
C502 C501 1.361 . S
C502 C503 1.369 . S
C503 C502 1.369 . S
C503 C504 1.404 . S
C504 H487 0.940 . S
C504 C503 1.404 . S
C504 C505 1.389 . S
C505 H488 0.939 . S
C505 C500 1.400 . S
C505 C504 1.389 . S
C506 P480 1.819 1_565 S
C506 C507 1.391 1_565 S
C506 C511 1.391 . S
C507 H489 0.941 . S
C507 C506 1.391 1_545 S
C507 C508 1.396 . S
C508 H492 0.939 . S
C508 C507 1.396 . S
C508 C509 1.397 1_545 S
C509 C508 1.397 1_565 S
C509 C510 1.385 . S
C510 H493 0.940 . S
C510 C509 1.385 . S
C510 C511 1.388 . S
C511 H490 0.939 . S
C511 C506 1.391 . S
C511 C510 1.388 . S
P512 O523 1.490 . S
P512 C526 1.812 . S
P512 C532 1.803 . S
P512 C538 1.819 . S
H513 C527 0.941 . S
H514 C528 0.939 . S
H515 C530 0.940 . S
H516 C531 0.940 . S
H517 C533 0.939 . S
H518 C534 0.942 . S
H519 C536 0.940 . S
H520 C537 0.939 . S
H521 C539 0.941 . S
H522 C543 0.939 . S
O523 P512 1.490 . S
H524 C540 0.939 . S
H525 C542 0.940 1_655 S
C526 P512 1.812 . S
C526 C527 1.389 . S
C526 C531 1.391 . S
C527 H513 0.941 . S
C527 C526 1.389 . S
C527 C528 1.397 . S
C528 H514 0.939 . S
C528 C527 1.397 . S
C528 C529 1.378 . S
C529 C528 1.378 . S
C529 C530 1.378 . S
C530 H515 0.940 . S
C530 C529 1.378 . S
C530 C531 1.396 . S
C531 H516 0.940 . S
C531 C526 1.391 . S
C531 C530 1.396 . S
C532 P512 1.803 . S
C532 C533 1.378 . S
C532 C537 1.400 . S
C533 H517 0.939 . S
C533 C532 1.378 . S
C533 C534 1.361 . S
C534 H518 0.942 . S
C534 C533 1.361 . S
C534 C535 1.369 . S
C535 C534 1.369 . S
C535 C536 1.404 . S
C536 H519 0.940 . S
C536 C535 1.404 . S
C536 C537 1.389 . S
C537 H520 0.939 . S
C537 C532 1.400 . S
C537 C536 1.389 . S
C538 P512 1.819 . S
C538 C539 1.391 . S
C538 C543 1.391 . S
C539 H521 0.941 . S
C539 C538 1.391 . S
C539 C540 1.396 . S
C540 H524 0.939 . S
C540 C539 1.396 . S
C540 C541 1.397 . S
C541 C540 1.397 . S
C541 C542 1.385 . S
C542 H525 0.940 1_455 S
C542 C541 1.385 . S
C542 C543 1.388 . S
C543 H522 0.939 . S
C543 C538 1.391 . S
C543 C542 1.388 . S
P544 O555 1.490 . S
P544 C558 1.812 . S
P544 C564 1.803 . S
P544 C570 1.819 . S
H545 C559 0.941 . S
H546 C560 0.939 . S
H547 C562 0.940 . S
H548 C563 0.940 . S
H549 C565 0.939 . S
H550 C566 0.942 . S
H551 C568 0.940 . S
H552 C569 0.939 . S
H553 C571 0.941 . S
H554 C575 0.939 . S
O555 P544 1.490 . S
H556 C572 0.939 . S
H557 C574 0.940 . S
C558 P544 1.812 . S
C558 C559 1.389 . S
C558 C563 1.391 . S
C559 H545 0.941 . S
C559 C558 1.389 . S
C559 C560 1.397 . S
C560 H546 0.939 . S
C560 C559 1.397 . S
C560 C561 1.378 . S
C561 C560 1.378 . S
C561 C562 1.378 . S
C562 H547 0.940 . S
C562 C561 1.378 . S
C562 C563 1.396 . S
C563 H548 0.940 . S
C563 C558 1.391 . S
C563 C562 1.396 . S
C564 P544 1.803 . S
C564 C565 1.378 . S
C564 C569 1.400 . S
C565 H549 0.939 . S
C565 C564 1.378 . S
C565 C566 1.361 . S
C566 H550 0.942 . S
C566 C565 1.361 . S
C566 C567 1.369 . S
C567 C566 1.369 . S
C567 C568 1.404 . S
C568 H551 0.940 . S
C568 C567 1.404 . S
C568 C569 1.389 . S
C569 H552 0.939 . S
C569 C564 1.400 . S
C569 C568 1.389 . S
C570 P544 1.819 . S
C570 C571 1.391 . S
C570 C575 1.391 . S
C571 H553 0.941 . S
C571 C570 1.391 . S
C571 C572 1.396 . S
C572 H556 0.939 . S
C572 C571 1.396 . S
C572 C573 1.397 . S
C573 C572 1.397 . S
C573 C574 1.385 . S
C574 H557 0.940 . S
C574 C573 1.385 . S
C574 C575 1.388 . S
C575 H554 0.939 . S
C575 C570 1.391 . S
C575 C574 1.388 . S
Eu576 C585 2.828 . S
Eu576 O587 2.391 . S
Eu576 O589 2.418 . S
Eu576 O594 2.373 1_565 S
Eu576 O597 2.488 . S
Eu576 O598 2.471 . S
Eu576 O599 2.349 1_565 S
Eu577 O586 2.373 1_545 S
Eu577 O590 2.488 . S
Eu577 O591 2.471 . S
Eu577 O592 2.349 1_545 S
Eu577 O595 2.392 . S
Eu577 O596 2.418 . S
Eu577 C606 2.828 . S
C578 O596 1.244 1_556 S
C578 O599 1.265 . S
C579 C580 1.379 1_565 S
C579 C583 1.373 . S
C579 C585 1.505 . S
C580 C579 1.379 1_545 S
C580 C582 1.369 . S
C580 H608 0.930 . S
C581 C583 1.383 . S
C581 C584 1.382 1_565 S
C581 H609 0.930 . S
C582 C580 1.369 . S
C582 C584 1.392 . S
C582 H610 0.930 . S
C583 C579 1.373 . S
C583 C581 1.383 . S
C583 H611 0.931 . S
C584 C581 1.382 1_545 S
C584 C582 1.392 . S
C585 Eu576 2.828 . S
C585 C579 1.505 . S
C585 O597 1.249 . S
C585 O598 1.244 . S
O586 Eu577 2.373 1_565 S
O586 C588 1.258 . S
O587 Eu576 2.391 . S
O587 C588 1.244 1_556 S
C588 O586 1.258 . S
C588 O587 1.244 1_554 S
O589 Eu576 2.418 . S
O589 C593 1.244 1_556 S
O590 Eu577 2.488 . S
O590 C606 1.249 . S
O591 Eu577 2.471 . S
O591 C606 1.244 . S
O592 Eu577 2.349 1_565 S
O592 C593 1.265 . S
C593 O589 1.244 1_554 S
C593 O592 1.265 . S
O594 Eu576 2.373 1_545 S
O594 C607 1.258 . S
O595 Eu577 2.392 . S
O595 C607 1.242 1_554 S
O596 Eu577 2.418 . S
O596 C578 1.244 1_554 S
O597 Eu576 2.488 . S
O597 C585 1.249 . S
O598 Eu576 2.471 . S
O598 C585 1.244 . S
O599 Eu576 2.349 1_545 S
O599 C578 1.265 . S
C600 C601 1.379 1_545 S
C600 C604 1.373 . S
C600 C606 1.505 . S
C601 C600 1.379 1_565 S
C601 C603 1.369 . S
C601 H612 0.930 . S
C602 C604 1.383 . S
C602 C605 1.375 1_545 S
C602 H613 0.930 . S
C603 C601 1.369 . S
C603 C605 1.398 . S
C603 H614 0.930 . S
C604 C600 1.373 . S
C604 C602 1.383 . S
C604 H615 0.931 . S
C605 C602 1.375 1_565 S
C605 C603 1.398 . S
C606 Eu577 2.828 . S
C606 O590 1.249 . S
C606 O591 1.244 . S
C606 C600 1.505 . S
C607 O594 1.258 . S
C607 O595 1.242 1_556 S
H608 C580 0.930 . S
H609 C581 0.930 . S
H610 C582 0.930 . S
H611 C583 0.931 . S
H612 C601 0.930 . S
H613 C602 0.930 . S
H614 C603 0.930 . S
H615 C604 0.931 . S
Eu616 C625 2.828 . S
Eu616 O627 2.392 1_556 S
Eu616 O629 2.418 . S
Eu616 O634 2.373 1_455 S
Eu616 O637 2.488 . S
Eu616 O638 2.471 1_455 S
Eu616 O639 2.349 1_455 S
Eu617 O626 2.373 1_655 S
Eu617 O630 2.488 . S
Eu617 O631 2.471 1_655 S
Eu617 O632 2.349 1_655 S
Eu617 O635 2.396 . S
Eu617 O636 2.418 . S
Eu617 C646 2.828 . S
C618 O636 1.244 1_556 S
C618 O639 1.265 . S
C619 C620 1.379 1_455 S
C619 C623 1.373 . S
C619 C625 1.505 . S
C620 C619 1.379 1_655 S
C620 C622 1.369 . S
C620 H648 0.930 . S
C621 C623 1.383 . S
C621 C624 1.382 1_455 S
C621 H649 0.930 . S
C622 C620 1.369 . S
C622 C624 1.392 . S
C622 H650 0.930 . S
C623 C619 1.373 . S
C623 C621 1.383 . S
C623 H651 0.931 . S
C624 C621 1.382 1_655 S
C624 C622 1.392 . S
C625 Eu616 2.828 . S
C625 C619 1.505 . S
C625 O637 1.249 . S
C625 O638 1.244 1_455 S
O626 Eu617 2.373 1_455 S
O626 C628 1.258 . S
O627 Eu616 2.392 1_554 S
O627 C628 1.242 . S
C628 O626 1.258 . S
C628 O627 1.242 . S
O629 Eu616 2.418 . S
O629 C633 1.244 1_556 S
O630 Eu617 2.488 . S
O630 C646 1.249 . S
O631 Eu617 2.471 1_455 S
O631 C646 1.244 1_455 S
O632 Eu617 2.349 1_455 S
O632 C633 1.265 . S
C633 O629 1.244 1_554 S
C633 O632 1.265 . S
O634 Eu616 2.373 1_655 S
O634 C647 1.258 . S
O635 Eu617 2.396 . S
O635 C647 1.238 1_554 S
O636 Eu617 2.418 . S
O636 C618 1.244 1_554 S
O637 Eu616 2.488 . S
O637 C625 1.249 . S
O638 Eu616 2.471 1_655 S
O638 C625 1.244 1_655 S
O639 Eu616 2.349 1_655 S
O639 C618 1.265 . S
C640 C641 1.379 1_655 S
C640 C644 1.373 . S
C640 C646 1.505 . S
C641 C640 1.379 1_455 S
C641 C643 1.369 . S
C641 H652 0.930 . S
C642 C644 1.383 . S
C642 C645 1.382 1_655 S
C642 H653 0.930 . S
C643 C641 1.369 . S
C643 C645 1.392 . S
C643 H654 0.930 . S
C644 C640 1.373 . S
C644 C642 1.383 . S
C644 H655 0.931 . S
C645 C642 1.382 1_455 S
C645 C643 1.392 . S
C646 Eu617 2.828 . S
C646 O630 1.249 . S
C646 O631 1.244 1_655 S
C646 C640 1.505 . S
C647 O634 1.258 . S
C647 O635 1.238 1_556 S
H648 C620 0.930 . S
H649 C621 0.930 . S
H650 C622 0.930 . S
H651 C623 0.931 . S
H652 C641 0.930 . S
H653 C642 0.930 . S
H654 C643 0.930 . S
H655 C644 0.931 . S
Eu656 C665 2.828 . S
Eu656 O667 2.392 . S
Eu656 O669 2.418 . S
Eu656 O674 2.373 . S
Eu656 O677 2.488 . S
Eu656 O678 2.471 . S
Eu656 O679 2.349 . S
Eu657 O666 2.373 . S
Eu657 O670 2.488 . S
Eu657 O671 2.471 . S
Eu657 O672 2.349 . S
Eu657 O675 2.392 1_556 S
Eu657 O676 2.418 . S
Eu657 C686 2.828 . S
C658 O676 1.244 1_554 S
C658 O679 1.265 . S
C659 C660 1.379 . S
C659 C663 1.373 . S
C659 C665 1.505 . S
C660 C659 1.379 . S
C660 C662 1.369 . S
C660 H688 0.930 . S
C661 C663 1.383 . S
C661 C664 1.382 . S
C661 H689 0.930 . S
C662 C660 1.369 . S
C662 C664 1.392 . S
C662 H690 0.930 . S
C663 C659 1.373 . S
C663 C661 1.383 . S
C663 H691 0.931 . S
C664 C661 1.382 . S
C664 C662 1.392 . S
C665 Eu656 2.828 . S
C665 C659 1.505 . S
C665 O677 1.249 . S
C665 O678 1.244 . S
O666 Eu657 2.373 . S
O666 C668 1.258 . S
O667 Eu656 2.392 . S
O667 C668 1.242 1_554 S
C668 O666 1.258 . S
C668 O667 1.242 1_556 S
O669 Eu656 2.418 . S
O669 C673 1.244 1_554 S
O670 Eu657 2.488 . S
O670 C686 1.249 . S
O671 Eu657 2.471 . S
O671 C686 1.244 . S
O672 Eu657 2.349 . S
O672 C673 1.265 . S
C673 O669 1.244 1_556 S
C673 O672 1.265 . S
O674 Eu656 2.373 . S
O674 C687 1.258 . S
O675 Eu657 2.392 1_554 S
O675 C687 1.242 . S
O676 Eu657 2.418 . S
O676 C658 1.244 1_556 S
O677 Eu656 2.488 . S
O677 C665 1.249 . S
O678 Eu656 2.471 . S
O678 C665 1.244 . S
O679 Eu656 2.349 . S
O679 C658 1.265 . S
C680 C681 1.379 . S
C680 C684 1.373 . S
C680 C686 1.505 . S
C681 C680 1.379 . S
C681 C683 1.369 . S
C681 H692 0.930 . S
C682 C684 1.383 . S
C682 C685 1.382 . S
C682 H693 0.930 . S
C683 C681 1.369 . S
C683 C685 1.392 . S
C683 H694 0.930 . S
C684 C680 1.373 . S
C684 C682 1.383 . S
C684 H695 0.931 . S
C685 C682 1.382 . S
C685 C683 1.392 . S
C686 Eu657 2.828 . S
C686 O670 1.249 . S
C686 O671 1.244 . S
C686 C680 1.505 . S
C687 O674 1.258 . S
C687 O675 1.242 . S
H688 C660 0.930 . S
H689 C661 0.930 . S
H690 C662 0.930 . S
H691 C663 0.931 . S
H692 C681 0.930 . S
H693 C682 0.930 . S
H694 C683 0.930 . S
H695 C684 0.931 . S
Eu696 C705 2.828 . S
Eu696 O707 2.392 . S
Eu696 O709 2.418 . S
Eu696 O714 2.373 . S
Eu696 O717 2.488 . S
Eu696 O718 2.471 . S
Eu696 O719 2.349 . S
Eu697 O706 2.373 . S
Eu697 O710 2.488 . S
Eu697 O711 2.471 . S
Eu697 O712 2.349 . S
Eu697 O715 2.392 . S
Eu697 O716 2.418 . S
Eu697 C726 2.828 . S
C698 O716 1.244 . S
C698 O719 1.265 . S
C699 C700 1.379 . S
C699 C703 1.373 . S
C699 C705 1.505 . S
C700 C699 1.379 . S
C700 C702 1.369 . S
C700 H728 0.930 . S
C701 C703 1.383 . S
C701 C704 1.382 . S
C701 H729 0.930 . S
C702 C700 1.369 . S
C702 C704 1.392 . S
C702 H730 0.930 . S
C703 C699 1.373 . S
C703 C701 1.383 . S
C703 H731 0.931 . S
C704 C701 1.382 . S
C704 C702 1.392 . S
C705 Eu696 2.828 . S
C705 C699 1.505 . S
C705 O717 1.249 . S
C705 O718 1.244 . S
O706 Eu697 2.373 . S
O706 C708 1.258 . S
O707 Eu696 2.392 . S
O707 C708 1.242 . S
C708 O706 1.258 . S
C708 O707 1.242 . S
O709 Eu696 2.418 . S
O709 C713 1.244 . S
O710 Eu697 2.488 . S
O710 C726 1.249 . S
O711 Eu697 2.471 . S
O711 C726 1.244 . S
O712 Eu697 2.349 . S
O712 C713 1.265 . S
C713 O709 1.244 . S
C713 O712 1.265 . S
O714 Eu696 2.373 . S
O714 C727 1.258 . S
O715 Eu697 2.392 . S
O715 C727 1.242 . S
O716 Eu697 2.418 . S
O716 C698 1.244 . S
O717 Eu696 2.488 . S
O717 C705 1.249 . S
O718 Eu696 2.471 . S
O718 C705 1.244 . S
O719 Eu696 2.349 . S
O719 C698 1.265 . S
C720 C721 1.379 . S
C720 C724 1.373 . S
C720 C726 1.505 . S
C721 C720 1.379 . S
C721 C723 1.369 . S
C721 H732 0.930 . S
C722 C724 1.383 . S
C722 C725 1.382 . S
C722 H733 0.930 . S
C723 C721 1.369 . S
C723 C725 1.392 . S
C723 H734 0.930 . S
C724 C720 1.373 . S
C724 C722 1.383 . S
C724 H735 0.931 . S
C725 C722 1.382 . S
C725 C723 1.392 . S
C726 Eu697 2.828 . S
C726 O710 1.249 . S
C726 O711 1.244 . S
C726 C720 1.505 . S
C727 O714 1.258 . S
C727 O715 1.242 . S
H728 C700 0.930 . S
H729 C701 0.930 . S
H730 C702 0.930 . S
H731 C703 0.931 . S
H732 C721 0.930 . S
H733 C722 0.930 . S
H734 C723 0.930 . S
H735 C724 0.931 . S
Eu736 C745 2.828 . S
Eu736 O747 2.392 . S
Eu736 O749 2.418 . S
Eu736 O754 2.373 . S
Eu736 O757 2.488 . S
Eu736 O758 2.471 . S
Eu736 O759 2.349 . S
Eu737 O746 2.373 . S
Eu737 O750 2.488 . S
Eu737 O751 2.471 . S
Eu737 O752 2.349 . S
Eu737 O755 2.392 . S
Eu737 O756 2.418 . S
Eu737 C766 2.828 . S
C738 O756 1.244 . S
C738 O759 1.265 . S
C739 C740 1.379 . S
C739 C743 1.373 . S
C739 C745 1.505 . S
C740 C739 1.379 . S
C740 C742 1.369 . S
C740 H768 0.930 . S
C741 C743 1.383 . S
C741 C744 1.382 . S
C741 H769 0.930 . S
C742 C740 1.369 . S
C742 C744 1.392 . S
C742 H770 0.930 . S
C743 C739 1.373 . S
C743 C741 1.383 . S
C743 H771 0.931 . S
C744 C741 1.382 . S
C744 C742 1.392 . S
C745 Eu736 2.828 . S
C745 C739 1.505 . S
C745 O757 1.249 . S
C745 O758 1.244 . S
O746 Eu737 2.373 . S
O746 C748 1.258 . S
O747 Eu736 2.392 . S
O747 C748 1.242 . S
C748 O746 1.258 . S
C748 O747 1.242 . S
O749 Eu736 2.418 . S
O749 C753 1.244 . S
O750 Eu737 2.488 . S
O750 C766 1.249 . S
O751 Eu737 2.471 . S
O751 C766 1.244 . S
O752 Eu737 2.349 . S
O752 C753 1.265 . S
C753 O749 1.244 . S
C753 O752 1.265 . S
O754 Eu736 2.373 . S
O754 C767 1.258 . S
O755 Eu737 2.392 . S
O755 C767 1.242 . S
O756 Eu737 2.418 . S
O756 C738 1.244 . S
O757 Eu736 2.488 . S
O757 C745 1.249 . S
O758 Eu736 2.471 . S
O758 C745 1.244 . S
O759 Eu736 2.349 . S
O759 C738 1.265 . S
C760 C761 1.379 . S
C760 C764 1.373 . S
C760 C766 1.505 . S
C761 C760 1.379 . S
C761 C763 1.369 . S
C761 H772 0.930 . S
C762 C764 1.383 . S
C762 C765 1.382 . S
C762 H773 0.930 . S
C763 C761 1.369 . S
C763 C765 1.392 . S
C763 H774 0.930 . S
C764 C760 1.373 . S
C764 C762 1.383 . S
C764 H775 0.931 . S
C765 C762 1.382 . S
C765 C763 1.392 . S
C766 Eu737 2.828 . S
C766 O750 1.249 . S
C766 O751 1.244 . S
C766 C760 1.505 . S
C767 O754 1.258 . S
C767 O755 1.242 . S
H768 C740 0.930 . S
H769 C741 0.930 . S
H770 C742 0.930 . S
H771 C743 0.931 . S
H772 C761 0.930 . S
H773 C762 0.930 . S
H774 C763 0.930 . S
H775 C764 0.931 . S
Eu776 C785 2.828 . S
Eu776 O787 2.392 . S
Eu776 O789 2.418 . S
Eu776 O794 2.373 . S
Eu776 O797 2.488 . S
Eu776 O798 2.471 . S
Eu776 O799 2.349 . S
Eu777 O786 2.373 . S
Eu777 O790 2.488 . S
Eu777 O791 2.471 . S
Eu777 O792 2.349 . S
Eu777 O795 2.392 . S
Eu777 O796 2.418 . S
Eu777 C806 2.828 . S
C778 O796 1.244 . S
C778 O799 1.265 . S
C779 C780 1.379 . S
C779 C783 1.373 . S
C779 C785 1.505 . S
C780 C779 1.379 . S
C780 C782 1.369 . S
C780 H808 0.930 . S
C781 C783 1.383 . S
C781 C784 1.382 . S
C781 H809 0.930 . S
C782 C780 1.369 . S
C782 C784 1.392 . S
C782 H810 0.930 . S
C783 C779 1.373 . S
C783 C781 1.383 . S
C783 H811 0.931 . S
C784 C781 1.382 . S
C784 C782 1.392 . S
C785 Eu776 2.828 . S
C785 C779 1.505 . S
C785 O797 1.249 . S
C785 O798 1.244 . S
O786 Eu777 2.373 . S
O786 C788 1.258 . S
O787 Eu776 2.392 . S
O787 C788 1.242 . S
C788 O786 1.258 . S
C788 O787 1.242 . S
O789 Eu776 2.418 . S
O789 C793 1.244 . S
O790 Eu777 2.488 . S
O790 C806 1.249 . S
O791 Eu777 2.471 . S
O791 C806 1.244 . S
O792 Eu777 2.349 . S
O792 C793 1.265 . S
C793 O789 1.244 . S
C793 O792 1.265 . S
O794 Eu776 2.373 . S
O794 C807 1.258 . S
O795 Eu777 2.392 . S
O795 C807 1.242 . S
O796 Eu777 2.418 . S
O796 C778 1.244 . S
O797 Eu776 2.488 . S
O797 C785 1.249 . S
O798 Eu776 2.471 . S
O798 C785 1.244 . S
O799 Eu776 2.349 . S
O799 C778 1.265 . S
C800 C801 1.379 . S
C800 C804 1.373 . S
C800 C806 1.505 . S
C801 C800 1.379 . S
C801 C803 1.369 . S
C801 H812 0.930 . S
C802 C804 1.383 . S
C802 C805 1.382 . S
C802 H813 0.930 . S
C803 C801 1.369 . S
C803 C805 1.392 . S
C803 H814 0.930 . S
C804 C800 1.373 . S
C804 C802 1.383 . S
C804 H815 0.931 . S
C805 C802 1.382 . S
C805 C803 1.392 . S
C806 Eu777 2.828 . S
C806 O790 1.249 . S
C806 O791 1.244 . S
C806 C800 1.505 . S
C807 O794 1.258 . S
C807 O795 1.242 . S
H808 C780 0.930 . S
H809 C781 0.930 . S
H810 C782 0.930 . S
H811 C783 0.931 . S
H812 C801 0.930 . S
H813 C802 0.930 . S
H814 C803 0.930 . S
H815 C804 0.931 . S
Eu816 C825 2.828 . S
Eu816 O827 2.392 . S
Eu816 O829 2.418 . S
Eu816 O834 2.373 . S
Eu816 O837 2.488 . S
Eu816 O838 2.471 . S
Eu816 O839 2.349 . S
Eu817 O826 2.373 . S
Eu817 O830 2.488 . S
Eu817 O831 2.471 . S
Eu817 O832 2.349 . S
Eu817 O835 2.392 . S
Eu817 O836 2.418 . S
Eu817 C846 2.828 . S
C818 O836 1.244 . S
C818 O839 1.265 . S
C819 C820 1.379 . S
C819 C823 1.373 . S
C819 C825 1.505 . S
C820 C819 1.379 . S
C820 C822 1.369 . S
C820 H848 0.930 . S
C821 C823 1.383 . S
C821 C824 1.382 . S
C821 H849 0.930 . S
C822 C820 1.369 . S
C822 C824 1.392 . S
C822 H850 0.930 . S
C823 C819 1.373 . S
C823 C821 1.383 . S
C823 H851 0.931 . S
C824 C821 1.382 . S
C824 C822 1.392 . S
C825 Eu816 2.828 . S
C825 C819 1.505 . S
C825 O837 1.249 . S
C825 O838 1.244 . S
O826 Eu817 2.373 . S
O826 C828 1.258 . S
O827 Eu816 2.392 . S
O827 C828 1.242 . S
C828 O826 1.258 . S
C828 O827 1.242 . S
O829 Eu816 2.418 . S
O829 C833 1.244 . S
O830 Eu817 2.488 . S
O830 C846 1.249 . S
O831 Eu817 2.471 . S
O831 C846 1.244 . S
O832 Eu817 2.349 . S
O832 C833 1.265 . S
C833 O829 1.244 . S
C833 O832 1.265 . S
O834 Eu816 2.373 . S
O834 C847 1.258 . S
O835 Eu817 2.392 . S
O835 C847 1.242 . S
O836 Eu817 2.418 . S
O836 C818 1.244 . S
O837 Eu816 2.488 . S
O837 C825 1.249 . S
O838 Eu816 2.471 . S
O838 C825 1.244 . S
O839 Eu816 2.349 . S
O839 C818 1.265 . S
C840 C841 1.379 . S
C840 C844 1.373 . S
C840 C846 1.505 . S
C841 C840 1.379 . S
C841 C843 1.369 . S
C841 H852 0.930 . S
C842 C844 1.383 . S
C842 C845 1.382 . S
C842 H853 0.930 . S
C843 C841 1.369 . S
C843 C845 1.392 . S
C843 H854 0.930 . S
C844 C840 1.373 . S
C844 C842 1.383 . S
C844 H855 0.931 . S
C845 C842 1.382 . S
C845 C843 1.392 . S
C846 Eu817 2.828 . S
C846 O830 1.249 . S
C846 O831 1.244 . S
C846 C840 1.505 . S
C847 O834 1.258 . S
C847 O835 1.242 . S
H848 C820 0.930 . S
H849 C821 0.930 . S
H850 C822 0.930 . S
H851 C823 0.931 . S
H852 C841 0.930 . S
H853 C842 0.930 . S
H854 C843 0.930 . S
H855 C844 0.931 . S
Eu856 C865 2.828 . S
Eu856 O867 2.392 . S
Eu856 O869 2.418 . S
Eu856 O874 2.373 . S
Eu856 O877 2.488 . S
Eu856 O878 2.471 . S
Eu856 O879 2.349 . S
Eu857 O866 2.373 . S
Eu857 O870 2.488 . S
Eu857 O871 2.471 . S
Eu857 O872 2.349 . S
Eu857 O875 2.392 . S
Eu857 O876 2.418 . S
Eu857 C886 2.828 . S
C858 O876 1.244 . S
C858 O879 1.265 . S
C859 C860 1.379 . S
C859 C863 1.373 . S
C859 C865 1.505 . S
C860 C859 1.379 . S
C860 C862 1.369 . S
C860 H888 0.930 . S
C861 C863 1.383 . S
C861 C864 1.382 . S
C861 H889 0.930 . S
C862 C860 1.369 . S
C862 C864 1.392 . S
C862 H890 0.930 . S
C863 C859 1.373 . S
C863 C861 1.383 . S
C863 H891 0.931 . S
C864 C861 1.382 . S
C864 C862 1.392 . S
C865 Eu856 2.828 . S
C865 C859 1.505 . S
C865 O877 1.249 . S
C865 O878 1.244 . S
O866 Eu857 2.373 . S
O866 C868 1.258 . S
O867 Eu856 2.392 . S
O867 C868 1.242 . S
C868 O866 1.258 . S
C868 O867 1.242 . S
O869 Eu856 2.418 . S
O869 C873 1.244 . S
O870 Eu857 2.488 . S
O870 C886 1.249 . S
O871 Eu857 2.471 . S
O871 C886 1.244 . S
O872 Eu857 2.349 . S
O872 C873 1.265 . S
C873 O869 1.244 . S
C873 O872 1.265 . S
O874 Eu856 2.373 . S
O874 C887 1.258 . S
O875 Eu857 2.392 . S
O875 C887 1.242 . S
O876 Eu857 2.418 . S
O876 C858 1.244 . S
O877 Eu856 2.488 . S
O877 C865 1.249 . S
O878 Eu856 2.471 . S
O878 C865 1.244 . S
O879 Eu856 2.349 . S
O879 C858 1.265 . S
C880 C881 1.379 . S
C880 C884 1.373 . S
C880 C886 1.505 . S
C881 C880 1.379 . S
C881 C883 1.369 . S
C881 H892 0.930 . S
C882 C884 1.383 . S
C882 C885 1.382 . S
C882 H893 0.930 . S
C883 C881 1.369 . S
C883 C885 1.392 . S
C883 H894 0.930 . S
C884 C880 1.373 . S
C884 C882 1.383 . S
C884 H895 0.931 . S
C885 C882 1.382 . S
C885 C883 1.392 . S
C886 Eu857 2.828 . S
C886 O870 1.249 . S
C886 O871 1.244 . S
C886 C880 1.505 . S
C887 O874 1.258 . S
C887 O875 1.242 . S
H888 C860 0.930 . S
H889 C861 0.930 . S
H890 C862 0.930 . S
H891 C863 0.931 . S
H892 C881 0.930 . S
H893 C882 0.930 . S
H894 C883 0.930 . S
H895 C884 0.931 . S
Eu896 C905 2.828 . S
Eu896 O907 2.392 . S
Eu896 O909 2.418 . S
Eu896 O914 2.373 . S
Eu896 O917 2.488 . S
Eu896 O918 2.471 . S
Eu896 O919 2.349 . S
Eu897 O906 2.373 . S
Eu897 O910 2.488 . S
Eu897 O911 2.471 . S
Eu897 O912 2.349 . S
Eu897 O915 2.392 . S
Eu897 O916 2.418 . S
Eu897 C926 2.828 . S
C898 O916 1.244 . S
C898 O919 1.265 . S
C899 C900 1.379 . S
C899 C903 1.373 . S
C899 C905 1.505 . S
C900 C899 1.379 . S
C900 C902 1.369 . S
C900 H928 0.930 . S
C901 C903 1.383 . S
C901 C904 1.382 . S
C901 H929 0.930 . S
C902 C900 1.369 . S
C902 C904 1.392 . S
C902 H930 0.930 . S
C903 C899 1.373 . S
C903 C901 1.383 . S
C903 H931 0.931 . S
C904 C901 1.382 . S
C904 C902 1.392 . S
C905 Eu896 2.828 . S
C905 C899 1.505 . S
C905 O917 1.249 . S
C905 O918 1.244 . S
O906 Eu897 2.373 . S
O906 C908 1.258 . S
O907 Eu896 2.392 . S
O907 C908 1.242 . S
C908 O906 1.258 . S
C908 O907 1.242 . S
O909 Eu896 2.418 . S
O909 C913 1.244 . S
O910 Eu897 2.488 . S
O910 C926 1.249 . S
O911 Eu897 2.471 . S
O911 C926 1.244 . S
O912 Eu897 2.349 . S
O912 C913 1.265 . S
C913 O909 1.244 . S
C913 O912 1.265 . S
O914 Eu896 2.373 . S
O914 C927 1.258 . S
O915 Eu897 2.392 . S
O915 C927 1.242 . S
O916 Eu897 2.418 . S
O916 C898 1.244 . S
O917 Eu896 2.488 . S
O917 C905 1.249 . S
O918 Eu896 2.471 . S
O918 C905 1.244 . S
O919 Eu896 2.349 . S
O919 C898 1.265 . S
C920 C921 1.379 . S
C920 C924 1.373 . S
C920 C926 1.505 . S
C921 C920 1.379 . S
C921 C923 1.369 . S
C921 H932 0.930 . S
C922 C924 1.383 . S
C922 C925 1.382 . S
C922 H933 0.930 . S
C923 C921 1.369 . S
C923 C925 1.392 . S
C923 H934 0.930 . S
C924 C920 1.373 . S
C924 C922 1.383 . S
C924 H935 0.931 . S
C925 C922 1.382 . S
C925 C923 1.392 . S
C926 Eu897 2.828 . S
C926 O910 1.249 . S
C926 O911 1.244 . S
C926 C920 1.505 . S
C927 O914 1.258 . S
C927 O915 1.242 . S
H928 C900 0.930 . S
H929 C901 0.930 . S
H930 C902 0.930 . S
H931 C903 0.931 . S
H932 C921 0.930 . S
H933 C922 0.930 . S
H934 C923 0.930 . S
H935 C924 0.931 . S
C439 C588 1.862 . S
C465 C628 2.188 . S
C401 C658 2.390 . S
C369 C618 2.071 . S
C668 C305 1.908 . S
C343 C578 1.681 . S
C607 C375 2.349 . S
C647 C311 2.157 . S
C337 C673 1.988 . S
C433 C633 1.685 . S
C471 C687 1.884 . S
C593 C407 2.224 . S
C708 C55 1.863 . S
C81 C748 2.187 . S
C17 C778 2.389 1_545 S
C561 C738 2.071 . S
C497 C788 1.907 . S
C535 C698 1.682 . S
C567 C727 2.349 . S
C503 C767 2.156 . S
C793 C529 1.988 . S
C49 C753 1.702 . S
C807 C87 1.884 . S
C23 C713 2.225 . S
C828 C247 1.862 . S
C273 C868 2.187 . S
C898 C209 2.390 . S
C858 C177 2.071 1_545 S
C908 C113 1.908 . S
C151 C818 1.682 . S
C183 C847 2.350 1_455 S
C119 C887 2.157 . S
C913 C145 1.988 1_545 S
C241 C873 1.685 . S
C279 C927 1.883 . S
C215 C833 2.225 . S
C509 C605 1.558 . S
C645 C541 1.831 . S
C573 C664 1.609 . S
C221 C624 2.128 1_455 S
C253 C685 1.457 . S
C584 C285 1.526 . S
C125 C725 1.554 . S
C157 C765 1.831 . S
C189 C784 1.609 . S
C413 C744 2.128 . S
C805 C445 1.457 . S
C477 C704 1.526 . S
C317 C845 1.554 . S
C349 C885 1.831 . S
C904 C381 1.609 . S
C29 C864 2.128 . S
C61 C925 1.457 . S
C93 C824 1.527 . S
