# Generated by pormake.
# Topology rtl, (3,6)-cn, num edge types: 1
# Building blocks:
#     Node 0, Type 0, BuildingBlock: KAKCAD_clean_linker_0, # of connection points: 3
#     Node 1, Type 0, BuildingBlock: KAKCAD_clean_linker_0, # of connection points: 3
#     Node 2, Type 0, BuildingBlock: KAKCAD_clean_linker_0, # of connection points: 3
#     Node 3, Type 0, BuildingBlock: KAKCAD_clean_linker_0, # of connection points: 3
#     Node 4, Type 1, BuildingBlock: KUMBUR_clean_sbu_1, # of connection points: 6
#     Node 5, Type 1, BuildingBlock: KUMBUR_clean_sbu_1, # of connection points: 6
#     Edge 6, Type (0, 1), BuildingBlock: AJUNOK_clean_linker_0, # of connection points: 2
#     Edge 7, Type (0, 1), BuildingBlock: AJUNOK_clean_linker_0, # of connection points: 2
#     Edge 8, Type (0, 1), BuildingBlock: AJUNOK_clean_linker_0, # of connection points: 2
#     Edge 9, Type (0, 1), BuildingBlock: AJUNOK_clean_linker_0, # of connection points: 2
#     Edge 10, Type (0, 1), BuildingBlock: AJUNOK_clean_linker_0, # of connection points: 2
#     Edge 11, Type (0, 1), BuildingBlock: AJUNOK_clean_linker_0, # of connection points: 2
#     Edge 12, Type (0, 1), BuildingBlock: AJUNOK_clean_linker_0, # of connection points: 2
#     Edge 13, Type (0, 1), BuildingBlock: AJUNOK_clean_linker_0, # of connection points: 2
#     Edge 14, Type (0, 1), BuildingBlock: AJUNOK_clean_linker_0, # of connection points: 2
#     Edge 15, Type (0, 1), BuildingBlock: AJUNOK_clean_linker_0, # of connection points: 2
#     Edge 16, Type (0, 1), BuildingBlock: AJUNOK_clean_linker_0, # of connection points: 2
#     Edge 17, Type (0, 1), BuildingBlock: AJUNOK_clean_linker_0, # of connection points: 2
# Relax obj value: 0.018
# Max RMSD: 0.113
# Mean RMSD: 0.067
data_MOF--net-rtl--node1-KUMBUR_clean_sbu_1--node2-KAKCAD_clean_linker_0--edge1-AJUNOK_clean_linker_0
_symmetry_space_group_name_H-M    P1
_symmetry_Int_Tables_number       1
_symmetry_cell_setting            triclinic
loop_
_symmetry_equiv_pos_as_xyz
'x, y, z'
_cell_length_a     31.39974
_cell_length_b     32.142721
_cell_length_c     28.331513
_cell_angle_alpha  77.269023
_cell_angle_beta   99.11492
_cell_angle_gamma 90.965484
loop_
_atom_site_label
_atom_site_type_symbol
_atom_site_fract_x
_atom_site_fract_y
_atom_site_fract_z
_atom_type_partial_charge
C0 C 0.14197 0.86482 0.84975 0.0
C1 C 0.13161 0.9086 0.83669 0.0
C2 C 0.16261 0.84621 0.8969 0.0
C3 C 0.17376 0.87099 0.93208 0.0
C4 C 0.16388 0.91497 0.91877 0.0
C5 C 0.14314 0.93361 0.87148 0.0
C6 C 0.19528 0.85066 0.98245 0.0
C7 C 0.22705 0.81872 0.98934 0.0
C8 C 0.24567 0.79695 0.03657 0.0
C9 C 0.23267 0.80806 0.0775 0.0
C10 C 0.2014 0.84046 0.07139 0.0
C11 C 0.18304 0.86171 0.02378 0.0
C12 C 0.18614 0.8508 0.11454 0.0
C13 C 0.17323 0.81821 0.15104 0.0
C14 C 0.18245 0.8934 0.11833 0.0
C15 C 0.16572 0.90323 0.15758 0.0
C16 C 0.15187 0.87071 0.19363 0.0
C17 C 0.27805 0.76219 0.04244 0.0
C18 C 0.27173 0.73284 0.0119 0.0
C19 C 0.31598 0.75883 0.07707 0.0
C20 C 0.34759 0.72776 0.07973 0.0
C21 C 0.34184 0.69967 0.04771 0.0
C22 C 0.30322 0.70195 0.01454 0.0
C23 C 0.15591 0.82806 0.18989 0.0
H24 H 0.1342 0.84493 0.82338 0.0
H25 H 0.16928 0.81218 0.90597 0.0
H26 H 0.17246 0.93505 0.94477 0.0
H27 H 0.1356 0.96748 0.86228 0.0
H28 H 0.23765 0.81096 0.95766 0.0
H29 H 0.15784 0.88559 0.01902 0.0
H30 H 0.24646 0.7912 0.11411 0.0
H31 H 0.17506 0.78515 0.14859 0.0
H32 H 0.19238 0.91912 0.0908 0.0
H33 H 0.16323 0.93637 0.15946 0.0
H34 H 0.24243 0.73387 0.98567 0.0
H35 H 0.32183 0.78104 0.10101 0.0
H36 H 0.14433 0.80228 0.21604 0.0
H37 H 0.29749 0.67993 0.99034 0.0
H38 H 0.37706 0.72651 0.10575 0.0
C39 C 0.63669 0.67252 0.80178 0.0
C40 C 0.63374 0.62806 0.81769 0.0
C41 C 0.65399 0.69001 0.75919 0.0
C42 C 0.66859 0.66342 0.73148 0.0
C43 C 0.66692 0.61893 0.74842 0.0
C44 C 0.64985 0.60148 0.79107 0.0
C45 C 0.68349 0.68181 0.68387 0.0
C46 C 0.71073 0.7174 0.67871 0.0
C47 C 0.72385 0.73504 0.63328 0.0
C48 C 0.70945 0.71666 0.59314 0.0
C49 C 0.68232 0.68139 0.5974 0.0
C50 C 0.66964 0.66401 0.64291 0.0
C51 C 0.66851 0.66249 0.55411 0.0
C52 C 0.65537 0.6891 0.50765 0.0
C53 C 0.67147 0.61822 0.55808 0.0
C54 C 0.66388 0.60125 0.51608 0.0
C55 C 0.65305 0.62823 0.46941 0.0
C56 C 0.7536 0.7718 0.62692 0.0
C57 C 0.79107 0.77294 0.66116 0.0
C58 C 0.74652 0.8043 0.584 0.0
C59 C 0.77715 0.83574 0.57423 0.0
C60 C 0.81561 0.83558 0.60715 0.0
C61 C 0.82176 0.80461 0.65138 0.0
C62 C 0.64764 0.67215 0.4658 0.0
H63 H 0.62518 0.69378 0.82201 0.0
H64 H 0.65466 0.72438 0.74713 0.0
H65 H 0.67846 0.59752 0.72838 0.0
H66 H 0.64807 0.56712 0.80247 0.0
H67 H 0.72177 0.73126 0.70996 0.0
H68 H 0.64808 0.6372 0.64606 0.0
H69 H 0.72061 0.72907 0.55852 0.0
H70 H 0.65218 0.72328 0.50352 0.0
H71 H 0.68154 0.59692 0.59336 0.0
H72 H 0.66761 0.56717 0.51995 0.0
H73 H 0.79761 0.74829 0.69442 0.0
H74 H 0.71758 0.8049 0.55734 0.0
H75 H 0.63932 0.69369 0.43033 0.0
H76 H 0.85109 0.8039 0.6775 0.0
H77 H 0.77104 0.85989 0.54047 0.0
C78 C 0.84981 0.09804 0.25836 0.0
C79 C 0.89504 0.09657 0.26751 0.0
C80 C 0.82791 0.11658 0.21172 0.0
C81 C 0.85088 0.13332 0.17324 0.0
C82 C 0.89617 0.13075 0.18211 0.0
C83 C 0.91809 0.11283 0.22902 0.0
C84 C 0.82742 0.1542 0.12431 0.0
C85 C 0.7959 0.18575 0.12025 0.0
C86 C 0.77151 0.20475 0.07458 0.0
C87 C 0.78031 0.19178 0.03258 0.0
C88 C 0.81301 0.16134 0.03567 0.0
C89 C 0.8362 0.14253 0.08193 0.0
C90 C 0.82314 0.14954 0.99052 0.0
C91 C 0.79007 0.14616 0.95183 0.0
C92 C 0.86609 0.14235 0.98531 0.0
C93 C 0.87571 0.13257 0.94237 0.0
C94 C 0.84268 0.13031 0.90329 0.0
C95 C 0.73736 0.2381 0.07091 0.0
C96 C 0.71678 0.23963 0.11131 0.0
C97 C 0.7252 0.26918 0.02731 0.0
C98 C 0.69325 0.29994 0.02403 0.0
C99 C 0.6735 0.30189 0.06475 0.0
C100 C 0.68639 0.27165 0.10868 0.0
C101 C 0.79974 0.13687 0.90874 0.0
H102 H 0.83146 0.08577 0.28762 0.0
H103 H 0.79297 0.11788 0.20569 0.0
H104 H 0.91459 0.14355 0.15308 0.0
H105 H 0.95304 0.11185 0.23538 0.0
H106 H 0.79139 0.19589 0.15311 0.0
H107 H 0.8604 0.11797 0.08525 0.0
H108 H 0.76197 0.20548 0.99708 0.0
H109 H 0.75656 0.1506 0.95477 0.0
H110 H 0.89248 0.14495 0.0141 0.0
H111 H 0.90904 0.12669 0.93987 0.0
H112 H 0.72389 0.2162 0.14543 0.0
H113 H 0.74058 0.27053 0.99548 0.0
H114 H 0.77351 0.13536 0.87934 0.0
H115 H 0.67364 0.27283 0.14167 0.0
H116 H 0.68426 0.3224 0.98936 0.0
C117 C 0.35308 0.38512 0.28657 0.0
C118 C 0.39783 0.39155 0.28971 0.0
C119 C 0.33527 0.36529 0.32806 0.0
C120 C 0.36177 0.35178 0.37369 0.0
C121 C 0.4065 0.35755 0.37666 0.0
C122 C 0.42434 0.37679 0.33514 0.0
C123 C 0.34309 0.33237 0.41845 0.0
C124 C 0.31309 0.2992 0.4182 0.0
C125 C 0.29735 0.27969 0.46139 0.0
C126 C 0.31065 0.29455 0.50425 0.0
C127 C 0.33899 0.32873 0.50484 0.0
C128 C 0.3557 0.34698 0.46192 0.0
C129 C 0.34989 0.34537 0.55035 0.0
C130 C 0.3178 0.34782 0.57916 0.0
C131 C 0.3921 0.35755 0.56636 0.0
C132 C 0.40211 0.37044 0.61102 0.0
C133 C 0.37018 0.37088 0.64045 0.0
C134 C 0.26666 0.24391 0.46314 0.0
C135 C 0.22691 0.24831 0.43157 0.0
C136 C 0.27495 0.20699 0.50068 0.0
C137 C 0.24349 0.17606 0.50807 0.0
C138 C 0.20285 0.18131 0.47824 0.0
C139 C 0.19516 0.21735 0.43921 0.0
C140 C 0.32789 0.36013 0.62373 0.0
H141 H 0.33172 0.39607 0.25218 0.0
H142 H 0.30067 0.3614 0.32472 0.0
H143 H 0.42782 0.34675 0.41114 0.0
H144 H 0.45903 0.37974 0.33863 0.0
H145 H 0.30316 0.28765 0.38504 0.0
H146 H 0.37756 0.37344 0.46182 0.0
H147 H 0.29837 0.27946 0.53744 0.0
H148 H 0.2847 0.33997 0.5674 0.0
H149 H 0.41761 0.35596 0.54515 0.0
H150 H 0.43492 0.37889 0.62319 0.0
H151 H 0.21955 0.27671 0.40273 0.0
H152 H 0.30543 0.2027 0.52536 0.0
H153 H 0.30254 0.36114 0.64537 0.0
H154 H 0.16398 0.22263 0.41599 0.0
H155 H 0.25063 0.14839 0.538 0.0
Tb156 Tb 0.04627 0.95889 0.53453 0.0
C157 C 0.9614 0.14347 0.51427 0.0
N158 N 0.99413 0.12332 0.54844 0.0
C159 C 0.03219 0.189 0.54431 0.0
C160 C 0.96295 0.1874 0.49333 0.0
C161 C 0.02911 0.14538 0.56412 0.0
C162 C 0.99904 0.2101 0.50865 0.0
C163 C 0.89196 0.1393 0.4641 0.0
C164 C 0.92639 0.11977 0.49984 0.0
C165 C 0.89327 0.1831 0.44313 0.0
C166 C 0.92868 0.20709 0.4577 0.0
Tb167 Tb 0.98665 0.05189 0.57608 0.0
N168 N 0.92705 0.07711 0.51962 0.0
C169 C 0.85745 0.11414 0.45025 0.0
C170 C 0.89272 0.05268 0.50741 0.0
C171 C 0.85771 0.07074 0.47227 0.0
H172 H 0.05426 0.12942 0.59257 0.0
H173 H 0.8309 0.05115 0.46223 0.0
H174 H 0.99634 0.87117 0.57938 0.0
H175 H 0.21109 0.00983 0.57766 0.0
H176 H 0.89206 0.01934 0.5244 0.0
H177 H 0.83037 0.12793 0.42285 0.0
H178 H 0.14069 0.01037 0.52598 0.0
H179 H 0.06004 0.20635 0.55671 0.0
H180 H 0.86717 0.19869 0.41548 0.0
H181 H 0.92932 0.2408 0.44107 0.0
H182 H 0.01161 0.80819 0.64816 0.0
H183 H 1.00152 0.24389 0.49336 0.0
H184 H 0.22885 0.95457 0.65414 0.0
N185 N 0.05739 0.89886 0.59565 0.0
C186 C 0.09658 0.89486 0.62474 0.0
C187 C 0.03573 0.83239 0.64201 0.0
C188 C 0.10636 0.85996 0.66486 0.0
C189 C 0.02714 0.86805 0.6032 0.0
C190 C 0.07539 0.82846 0.67319 0.0
N191 N 0.11516 0.9604 0.57624 0.0
C192 C 0.14627 0.9881 0.56089 0.0
C193 C 0.16691 0.92427 0.64498 0.0
C194 C 0.1261 0.92703 0.61522 0.0
C195 C 0.19711 0.95552 0.6323 0.0
C196 C 0.18708 0.98697 0.58939 0.0
H197 H 0.08168 0.80112 0.70366 0.0
H198 H 0.15434 0.83161 0.72699 0.0
H199 H 0.20756 0.88767 0.70928 0.0
O200 O 0.08256 0.95551 0.47871 0.0
O201 O 0.03459 0.95508 0.60999 0.0
O202 O 0.04603 0.0226 0.62053 0.0
O203 O 0.04341 0.90359 0.50616 0.0
O204 O 0.0651 0.02545 0.50922 0.0
O205 O 0.05577 0.05627 0.57291 0.0
O206 O 0.95319 0.02856 0.63486 0.0
O207 O 0.98162 0.05699 0.49691 0.0
O208 O 0.99186 0.99017 0.48096 0.0
O209 O 0.97725 0.09235 0.62305 0.0
O210 O 0.95593 0.98895 0.58458 0.0
O211 O 0.97686 0.95005 0.53114 0.0
C212 C 0.04896 0.9814 0.63788 0.0
C213 C 0.04752 0.91738 0.42204 0.0
C214 C 0.0562 0.90791 0.34074 0.0
C215 C 0.01123 0.91286 0.3263 0.0
C216 C 1.00275 0.92214 0.40669 0.0
C217 C 0.98483 0.92008 0.35903 0.0
C218 C 0.07418 0.91069 0.38882 0.0
C219 C 0.07196 0.05666 0.53273 0.0
C220 C 0.06647 0.91925 0.47257 0.0
C221 C 0.14636 0.85793 0.69561 0.0
C222 C 0.17658 0.88999 0.68566 0.0
C223 C 0.97915 0.03044 0.46731 0.0
C224 C 0.91373 0.08023 0.65838 0.0
C225 C 0.87099 0.0996 0.71544 0.0
C226 C 0.835 0.10686 0.67808 0.0
C227 C 0.87748 0.08805 0.62151 0.0
C228 C 0.91045 0.08633 0.70532 0.0
C229 C 0.83838 0.10131 0.63134 0.0
C230 C 0.95121 0.95731 0.56127 0.0
C231 C 0.95467 0.06464 0.64884 0.0
H232 H 0.99635 0.91056 0.28978 0.0
H233 H 0.98157 0.92718 0.43164 0.0
H234 H 0.95028 0.92374 0.34753 0.0
H235 H 0.10879 0.90798 0.4004 0.0
H236 H 0.80436 0.11721 0.68498 0.0
H237 H 0.87918 0.08364 0.58529 0.0
H238 H 0.93826 0.08007 0.7341 0.0
H239 H 0.81055 0.10716 0.60267 0.0
Tb240 Tb 0.46598 0.49034 0.99809 0.0
C241 C 0.64598 0.55608 0.06249 0.0
N242 N 0.62893 0.51906 0.08456 0.0
C243 C 0.6949 0.48146 0.08755 0.0
C244 C 0.68809 0.55703 0.05113 0.0
C245 C 0.65282 0.48208 0.09785 0.0
C246 C 0.71257 0.51904 0.0639 0.0
C247 C 0.63649 0.63173 0.02647 0.0
C248 C 0.62033 0.59288 0.05018 0.0
C249 C 0.67842 0.63286 0.01476 0.0
C250 C 0.70415 0.59562 0.02709 0.0
Tb251 Tb 0.55988 0.52351 0.09864 0.0
N252 N 0.57938 0.59026 0.06089 0.0
C253 C 0.61013 0.66832 0.01549 0.0
C254 C 0.55481 0.6265 0.05326 0.0
C255 C 0.56938 0.66578 0.02959 0.0
H256 H 0.63955 0.45309 0.11676 0.0
H257 H 0.54939 0.69422 0.02292 0.0
H258 H 0.38434 0.55388 0.99861 0.0
H259 H 0.47871 0.3187 0.02231 0.0
H260 H 0.52457 0.62603 0.06649 0.0
H261 H 0.62132 0.69882 0.99726 0.0
H262 H 0.5028 0.39218 0.99967 0.0
H263 H 0.71367 0.452 0.09785 0.0
H264 H 0.6913 0.66241 0.99633 0.0
H265 H 0.73641 0.597 0.01784 0.0
H266 H 0.31046 0.54625 0.01839 0.0
H267 H 0.7451 0.5184 0.05579 0.0
H268 H 0.40732 0.30424 0.04811 0.0
N269 N 0.39758 0.48724 0.01572 0.0
C270 C 0.38143 0.44746 0.0276 0.0
C271 C 0.33024 0.51819 0.02164 0.0
C272 C 0.3391 0.44149 0.03815 0.0
C273 C 0.37238 0.52249 0.01128 0.0
C274 C 0.3136 0.47751 0.03547 0.0
N275 N 0.44858 0.41987 0.01915 0.0
C276 C 0.47296 0.38675 0.01407 0.0
C277 C 0.39187 0.37098 0.04074 0.0
C278 C 0.40779 0.41271 0.0294 0.0
C279 C 0.41834 0.33677 0.03967 0.0
C280 C 0.45876 0.34478 0.02545 0.0
H281 H 0.28087 0.47428 0.04327 0.0
H282 H 0.29114 0.39466 0.059 0.0
H283 H 0.33719 0.33295 0.06092 0.0
O284 O 0.46941 0.46793 0.93399 0.0
O285 O 0.4518 0.47962 0.07393 0.0
O286 O 0.5181 0.47105 0.12471 0.0
O287 O 0.42245 0.51551 0.93419 0.0
O288 O 0.52989 0.45849 0.01381 0.0
O289 O 0.55654 0.45602 0.09572 0.0
O290 O 0.55816 0.55638 0.15507 0.0
O291 O 0.57193 0.52675 0.02322 0.0
O292 O 0.50615 0.54529 0.97608 0.0
O293 O 0.60199 0.5036 0.16532 0.0
O294 O 0.49605 0.55464 0.08744 0.0
O295 O 0.46762 0.55623 1.00664 0.0
C296 C 0.47577 0.46881 0.11755 0.0
C297 C 0.40122 0.46572 0.88509 0.0
C298 C 0.37695 0.42568 0.82206 0.0
C299 C 0.33678 0.42032 0.83838 0.0
C300 C 0.36051 0.46038 0.90014 0.0
C301 C 0.32873 0.43753 0.87717 0.0
C302 C 0.40915 0.44857 0.84556 0.0
C303 C 0.55342 0.44047 0.05602 0.0
C304 C 0.43518 0.48958 0.90977 0.0
C305 C 0.32357 0.39994 0.05066 0.0
C306 C 0.34984 0.36479 0.05185 0.0
C307 C 0.54837 0.54538 0.98166 0.0
C308 C 0.62346 0.55691 0.20942 0.0
C309 C 0.65339 0.58377 0.28171 0.0
C310 C 0.68891 0.59921 0.25891 0.0
C311 C 0.65943 0.57224 0.18763 0.0
C312 C 0.62037 0.56306 0.25643 0.0
C313 C 0.69181 0.59346 0.21216 0.0
C314 C 0.46802 0.56926 0.04757 0.0
C315 C 0.58948 0.53359 0.18437 0.0
H316 H 0.31116 0.4036 0.82031 0.0
H317 H 0.35281 0.47427 0.9292 0.0
H318 H 0.29751 0.43366 0.88907 0.0
H319 H 0.4402 0.45299 0.83318 0.0
H320 H 0.71433 0.61596 0.27723 0.0
H321 H 0.6628 0.5676 0.15197 0.0
H322 H 0.59281 0.55107 0.27367 0.0
H323 H 0.71935 0.60533 0.19494 0.0
C324 C 0.16065 0.13798 0.53918 0.0
C325 C 0.16814 0.15044 0.49035 0.0
C326 C 0.12913 0.10818 0.55238 0.0
C327 C 0.10371 0.08958 0.51732 0.0
H328 H 0.17937 0.1514 0.56758 0.0
H329 H 0.12534 0.09902 0.59061 0.0
S330 S 0.11012 0.11122 0.38446 0.0
N331 N 0.14737 0.14173 0.40676 0.0
N332 N 0.08783 0.08593 0.43151 0.0
C333 C 0.11057 0.10188 0.46829 0.0
C334 C 0.14267 0.13238 0.45479 0.0
C335 C 0.39414 0.64014 0.09148 0.0
C336 C 0.37622 0.66851 0.04781 0.0
C337 C 0.42465 0.60871 0.09135 0.0
C338 C 0.43827 0.60463 0.04753 0.0
H339 H 0.3836 0.64148 0.12573 0.0
H340 H 0.4367 0.58671 0.12557 0.0
S341 S 0.40508 0.67477 0.92448 0.0
N342 N 0.37712 0.69308 0.96051 0.0
N343 N 0.43421 0.6342 0.96011 0.0
C344 C 0.42185 0.63402 1.00401 0.0
C345 C 0.39087 0.66587 1.00418 0.0
C346 C 0.86744 0.89184 0.62742 0.0
C347 C 0.84977 0.86683 0.59449 0.0
C348 C 0.89956 0.9216 0.61591 0.0
C349 C 0.91572 0.92706 0.5713 0.0
H350 H 0.85612 0.88861 0.66222 0.0
H351 H 0.91234 0.9399 0.64267 0.0
S352 S 0.88069 0.86853 0.47295 0.0
N353 N 0.85113 0.84895 0.51572 0.0
N354 N 0.91136 0.90472 0.49405 0.0
C355 C 0.89837 0.90206 0.53814 0.0
C356 C 0.86544 0.87205 0.54971 0.0
C357 C 0.64591 0.37773 0.03345 0.0
C358 C 0.64099 0.33636 0.06172 0.0
C359 C 0.61661 0.41095 0.0306 0.0
C360 C 0.58231 0.4046 0.05743 0.0
H361 H 0.67306 0.38495 0.01396 0.0
H362 H 0.62165 0.44222 0.00853 0.0
S363 S 0.55212 0.3031 0.13393 0.0
N364 N 0.59548 0.29079 0.11323 0.0
N365 N 0.54354 0.35474 0.11174 0.0
C366 C 0.57665 0.36396 0.08575 0.0
C367 C 0.60525 0.32951 0.08703 0.0
C368 C 0.09901 0.91431 0.22105 0.0
C369 C 0.13059 0.88149 0.233 0.0
C370 C 0.07611 0.92327 0.25637 0.0
C371 C 0.08364 0.89975 0.3052 0.0
H372 H 0.09097 0.93252 0.1837 0.0
H373 H 0.05188 0.94862 0.24513 0.0
S374 S 0.16457 0.81199 0.35625 0.0
N375 N 0.17011 0.8271 0.29798 0.0
N376 N 0.1258 0.84274 0.36393 0.0
C377 C 0.11588 0.86752 0.31802 0.0
C378 C 0.1395 0.8586 0.28205 0.0
C379 C 0.6328 0.57576 0.8979 0.0
C380 C 0.61243 0.60915 0.86071 0.0
C381 C 0.61215 0.55579 0.93724 0.0
C382 C 0.57012 0.5681 0.94066 0.0
H383 H 0.66493 0.56484 0.89646 0.0
H384 H 0.62895 0.52987 0.96458 0.0
S385 S 0.50299 0.65438 0.85325 0.0
N386 N 0.54803 0.65395 0.83017 0.0
N387 N 0.50937 0.61669 0.904 0.0
C388 C 0.54963 0.60181 0.90404 0.0
C389 C 0.57076 0.62232 0.8642 0.0
C390 C 0.91236 0.03714 0.34175 0.0
C391 C 0.91799 0.0796 0.31772 0.0
C392 C 0.933 0.02101 0.38993 0.0
C393 C 0.95927 0.04709 0.41584 0.0
H394 H 0.89185 0.01632 0.32314 0.0
H395 H 0.92744 0.98829 0.40738 0.0
S396 S 0.98397 0.16065 0.36911 0.0
N397 N 0.9516 0.14733 0.32308 0.0
N398 N 0.99005 0.11735 0.41365 0.0
C399 C 0.96506 0.08962 0.39208 0.0
C400 C 0.94455 0.10579 0.34297 0.0
C401 C 0.39362 0.42324 0.69283 0.0
C402 C 0.38005 0.38205 0.68896 0.0
C403 C 0.39534 0.43652 0.73719 0.0
C404 C 0.3836 0.40893 0.7789 0.0
H405 H 0.40054 0.44603 0.66075 0.0
H406 H 0.40345 0.46927 0.73803 0.0
S407 S 0.35307 0.29569 0.78947 0.0
N408 N 0.35979 0.31233 0.73171 0.0
N409 N 0.36344 0.337 0.81502 0.0
C410 C 0.37316 0.36673 0.77623 0.0
C411 C 0.37126 0.35336 0.73125 0.0
C412 C 0.61587 0.6229 0.38568 0.0
C413 C 0.65089 0.61167 0.42408 0.0
C414 C 0.61584 0.61193 0.34033 0.0
C415 C 0.65112 0.58994 0.33164 0.0
H416 H 0.58875 0.64113 0.39039 0.0
H417 H 0.58889 0.62229 0.31124 0.0
S418 S 0.74959 0.55122 0.42068 0.0
N419 N 0.72093 0.57578 0.45082 0.0
N420 N 0.72069 0.55509 0.36582 0.0
C421 C 0.68555 0.57721 0.37023 0.0
C422 C 0.68547 0.58805 0.4164 0.0
C423 C 0.82735 0.09202 0.83442 0.0
C424 C 0.85255 0.12118 0.85679 0.0
C425 C 0.83416 0.0846 0.78924 0.0
C426 C 0.86671 0.1057 0.76485 0.0
H427 H 0.80193 0.07493 0.85185 0.0
H428 H 0.81361 0.06232 0.77308 0.0
S429 S 0.94094 0.18581 0.80659 0.0
N430 N 0.91087 0.17199 0.85018 0.0
N431 N 0.92417 0.15711 0.76576 0.0
C432 C 0.89266 0.13433 0.78699 0.0
C433 C 0.88549 0.14226 0.83282 0.0
C434 C 0.4035 0.402 0.20015 0.0
C435 C 0.41688 0.41297 0.24564 0.0
C436 C 0.42207 0.42058 0.15867 0.0
C437 C 0.45482 0.45075 0.16089 0.0
H438 H 0.37919 0.37805 0.19678 0.0
H439 H 0.41161 0.41004 0.12528 0.0
S440 S 0.49879 0.4937 0.26956 0.0
N441 N 0.46291 0.45863 0.28916 0.0
N442 N 0.49821 0.49258 0.2115 0.0
C443 C 0.46794 0.46263 0.20577 0.0
C444 C 0.44888 0.44405 0.24796 0.0
C445 C 0.12479 0.96502 0.75884 0.0
C446 C 0.10884 0.92802 0.78679 0.0
C447 C 0.10456 0.9829 0.71095 0.0
C448 C 0.06788 0.96422 0.68943 0.0
H449 H 0.15366 0.97969 0.7737 0.0
H450 H 0.11845 0.01073 0.69014 0.0
S451 S 0.01042 0.87038 0.74889 0.0
N452 N 0.05207 0.87553 0.79067 0.0
N453 N 0.01431 0.90906 0.70068 0.0
C454 C 0.05086 0.92809 0.71738 0.0
C455 C 0.07131 0.90997 0.76605 0.0
loop_
_geom_bond_atom_site_label_1
_geom_bond_atom_site_label_2
_geom_bond_distance
_geom_bond_site_symmetry_2
_ccdc_geom_bond_type
C0 C1 1.386 . S
C0 C2 1.397 . S
C0 H24 0.931 . S
C1 C0 1.386 . S
C1 C5 1.397 . S
C2 C0 1.397 . S
C2 C3 1.384 . S
C2 H25 0.930 . S
C3 C2 1.384 . S
C3 C4 1.377 . S
C3 C6 1.481 . S
C4 C3 1.377 . S
C4 C5 1.389 . S
C4 H26 0.929 . S
C5 C1 1.397 . S
C5 C4 1.389 . S
C5 H27 0.931 1_565 S
C6 C3 1.481 . S
C6 C7 1.387 . S
C6 C11 1.390 1_556 S
C7 C6 1.387 . S
C7 C8 1.401 1_556 S
C7 H28 0.930 . S
C8 C7 1.401 1_554 S
C8 C9 1.376 . S
C8 C17 1.511 . S
C9 C8 1.376 . S
C9 C10 1.392 . S
C9 H30 0.931 . S
C10 C9 1.392 . S
C10 C11 1.361 . S
C10 C12 1.500 . S
C11 C6 1.390 1_554 S
C11 C10 1.361 . S
C11 H29 0.931 . S
C12 C10 1.500 . S
C12 C13 1.371 . S
C12 C14 1.365 . S
C13 C12 1.371 . S
C13 C23 1.386 . S
C13 H31 0.931 . S
C14 C12 1.365 . S
C14 C15 1.409 . S
C14 H32 0.929 . S
C15 C14 1.409 . S
C15 C16 1.380 . S
C15 H33 0.930 . S
C16 C15 1.380 . S
C16 C23 1.357 . S
C17 C8 1.511 . S
C17 C18 1.341 1_554 S
C17 C19 1.371 . S
C18 C17 1.341 1_556 S
C18 C22 1.394 1_556 S
C18 H34 0.930 . S
C19 C17 1.371 . S
C19 C20 1.392 . S
C19 H35 0.931 . S
C20 C19 1.392 . S
C20 C21 1.331 . S
C20 H38 0.932 . S
C21 C20 1.331 . S
C21 C22 1.336 . S
C22 C18 1.394 1_554 S
C22 C21 1.336 . S
C22 H37 0.929 1_554 S
C23 C13 1.386 . S
C23 C16 1.357 . S
C23 H36 0.928 . S
H24 C0 0.931 . S
H25 C2 0.930 . S
H26 C4 0.929 . S
H27 C5 0.931 1_545 S
H28 C7 0.930 . S
H29 C11 0.931 . S
H30 C9 0.931 . S
H31 C13 0.931 . S
H32 C14 0.929 . S
H33 C15 0.930 . S
H34 C18 0.930 . S
H35 C19 0.931 . S
H36 C23 0.928 . S
H37 C22 0.929 1_556 S
H38 C20 0.932 . S
C39 C40 1.386 . S
C39 C41 1.397 . S
C39 H63 0.931 . S
C40 C39 1.386 . S
C40 C44 1.397 . S
C41 C39 1.397 . S
C41 C42 1.384 . S
C41 H64 0.930 . S
C42 C41 1.384 . S
C42 C43 1.377 . S
C42 C45 1.481 . S
C43 C42 1.377 . S
C43 C44 1.389 . S
C43 H65 0.929 . S
C44 C40 1.397 . S
C44 C43 1.389 . S
C44 H66 0.931 . S
C45 C42 1.481 . S
C45 C46 1.387 . S
C45 C50 1.390 . S
C46 C45 1.387 . S
C46 C47 1.401 . S
C46 H67 0.930 . S
C47 C46 1.401 . S
C47 C48 1.376 . S
C47 C56 1.511 . S
C48 C47 1.376 . S
C48 C49 1.392 . S
C48 H69 0.931 . S
C49 C48 1.392 . S
C49 C50 1.361 . S
C49 C51 1.500 . S
C50 C45 1.390 . S
C50 C49 1.361 . S
C50 H68 0.931 . S
C51 C49 1.500 . S
C51 C52 1.371 . S
C51 C53 1.365 . S
C52 C51 1.371 . S
C52 C62 1.386 . S
C52 H70 0.931 . S
C53 C51 1.365 . S
C53 C54 1.409 . S
C53 H71 0.929 . S
C54 C53 1.409 . S
C54 C55 1.380 . S
C54 H72 0.930 . S
C55 C54 1.380 . S
C55 C62 1.357 . S
C56 C47 1.511 . S
C56 C57 1.341 . S
C56 C58 1.371 . S
C57 C56 1.341 . S
C57 C61 1.394 . S
C57 H73 0.930 . S
C58 C56 1.371 . S
C58 C59 1.392 . S
C58 H74 0.931 . S
C59 C58 1.392 . S
C59 C60 1.331 . S
C59 H77 0.932 . S
C60 C59 1.331 . S
C60 C61 1.336 . S
C61 C57 1.394 . S
C61 C60 1.336 . S
C61 H76 0.929 . S
C62 C52 1.386 . S
C62 C55 1.357 . S
C62 H75 0.928 . S
H63 C39 0.931 . S
H64 C41 0.930 . S
H65 C43 0.929 . S
H66 C44 0.931 . S
H67 C46 0.930 . S
H68 C50 0.931 . S
H69 C48 0.931 . S
H70 C52 0.931 . S
H71 C53 0.929 . S
H72 C54 0.930 . S
H73 C57 0.930 . S
H74 C58 0.931 . S
H75 C62 0.928 . S
H76 C61 0.929 . S
H77 C59 0.932 . S
C78 C79 1.386 . S
C78 C80 1.397 . S
C78 H102 0.931 . S
C79 C78 1.386 . S
C79 C83 1.397 . S
C80 C78 1.397 . S
C80 C81 1.384 . S
C80 H103 0.930 . S
C81 C80 1.384 . S
C81 C82 1.377 . S
C81 C84 1.481 . S
C82 C81 1.377 . S
C82 C83 1.389 . S
C82 H104 0.929 . S
C83 C79 1.397 . S
C83 C82 1.389 . S
C83 H105 0.931 . S
C84 C81 1.481 . S
C84 C85 1.387 . S
C84 C89 1.390 . S
C85 C84 1.387 . S
C85 C86 1.401 . S
C85 H106 0.930 . S
C86 C85 1.401 . S
C86 C87 1.376 . S
C86 C95 1.511 . S
C87 C86 1.376 . S
C87 C88 1.392 . S
C87 H108 0.931 1_554 S
C88 C87 1.392 . S
C88 C89 1.361 . S
C88 C90 1.500 1_554 S
C89 C84 1.390 . S
C89 C88 1.361 . S
C89 H107 0.931 . S
C90 C88 1.500 1_556 S
C90 C91 1.371 . S
C90 C92 1.365 . S
C91 C90 1.371 . S
C91 C101 1.386 . S
C91 H109 0.931 . S
C92 C90 1.365 . S
C92 C93 1.409 . S
C92 H110 0.929 1_556 S
C93 C92 1.409 . S
C93 C94 1.380 . S
C93 H111 0.930 . S
C94 C93 1.380 . S
C94 C101 1.357 . S
C95 C86 1.511 . S
C95 C96 1.341 . S
C95 C97 1.371 . S
C96 C95 1.341 . S
C96 C100 1.394 . S
C96 H112 0.930 . S
C97 C95 1.371 . S
C97 C98 1.392 . S
C97 H113 0.931 1_554 S
C98 C97 1.392 . S
C98 C99 1.331 . S
C98 H116 0.932 1_554 S
C99 C98 1.331 . S
C99 C100 1.336 . S
C100 C96 1.394 . S
C100 C99 1.336 . S
C100 H115 0.929 . S
C101 C91 1.386 . S
C101 C94 1.357 . S
C101 H114 0.928 . S
H102 C78 0.931 . S
H103 C80 0.930 . S
H104 C82 0.929 . S
H105 C83 0.931 . S
H106 C85 0.930 . S
H107 C89 0.931 . S
H108 C87 0.931 1_556 S
H109 C91 0.931 . S
H110 C92 0.929 1_554 S
H111 C93 0.930 . S
H112 C96 0.930 . S
H113 C97 0.931 1_556 S
H114 C101 0.928 . S
H115 C100 0.929 . S
H116 C98 0.932 1_556 S
C117 C118 1.386 . S
C117 C119 1.397 . S
C117 H141 0.931 . S
C118 C117 1.386 . S
C118 C122 1.397 . S
C119 C117 1.397 . S
C119 C120 1.384 . S
C119 H142 0.930 . S
C120 C119 1.384 . S
C120 C121 1.377 . S
C120 C123 1.481 . S
C121 C120 1.377 . S
C121 C122 1.389 . S
C121 H143 0.929 . S
C122 C118 1.397 . S
C122 C121 1.389 . S
C122 H144 0.931 . S
C123 C120 1.481 . S
C123 C124 1.387 . S
C123 C128 1.390 . S
C124 C123 1.387 . S
C124 C125 1.401 . S
C124 H145 0.930 . S
C125 C124 1.401 . S
C125 C126 1.376 . S
C125 C134 1.511 . S
C126 C125 1.376 . S
C126 C127 1.392 . S
C126 H147 0.931 . S
C127 C126 1.392 . S
C127 C128 1.361 . S
C127 C129 1.500 . S
C128 C123 1.390 . S
C128 C127 1.361 . S
C128 H146 0.931 . S
C129 C127 1.500 . S
C129 C130 1.371 . S
C129 C131 1.365 . S
C130 C129 1.371 . S
C130 C140 1.386 . S
C130 H148 0.931 . S
C131 C129 1.365 . S
C131 C132 1.409 . S
C131 H149 0.929 . S
C132 C131 1.409 . S
C132 C133 1.380 . S
C132 H150 0.930 . S
C133 C132 1.380 . S
C133 C140 1.357 . S
C134 C125 1.511 . S
C134 C135 1.341 . S
C134 C136 1.371 . S
C135 C134 1.341 . S
C135 C139 1.394 . S
C135 H151 0.930 . S
C136 C134 1.371 . S
C136 C137 1.392 . S
C136 H152 0.931 . S
C137 C136 1.392 . S
C137 C138 1.331 . S
C137 H155 0.932 . S
C138 C137 1.331 . S
C138 C139 1.336 . S
C139 C135 1.394 . S
C139 C138 1.336 . S
C139 H154 0.929 . S
C140 C130 1.386 . S
C140 C133 1.357 . S
C140 H153 0.928 . S
H141 C117 0.931 . S
H142 C119 0.930 . S
H143 C121 0.929 . S
H144 C122 0.931 . S
H145 C124 0.930 . S
H146 C128 0.931 . S
H147 C126 0.931 . S
H148 C130 0.931 . S
H149 C131 0.929 . S
H150 C132 0.930 . S
H151 C135 0.930 . S
H152 C136 0.931 . S
H153 C140 0.928 . S
H154 C139 0.929 . S
H155 C137 0.932 . S
Tb156 N185 2.617 . S
Tb156 N191 2.572 . S
Tb156 O200 2.465 . S
Tb156 O201 2.387 . S
Tb156 O203 2.428 . S
Tb156 O204 2.308 1_565 S
Tb156 O208 2.345 1_465 S
Tb156 O211 2.393 1_455 S
Tb156 C220 2.802 . S
C157 N158 1.379 . S
C157 C160 1.416 . S
C157 C164 1.424 . S
N158 C157 1.379 . S
N158 C161 1.354 . S
N158 Tb167 2.617 . S
C159 C161 1.390 . S
C159 C162 1.339 . S
C159 H179 0.930 1_655 S
C160 C157 1.416 . S
C160 C162 1.416 . S
C160 C166 1.448 . S
C161 N158 1.354 . S
C161 C159 1.390 . S
C161 H172 0.910 1_655 S
C162 C159 1.339 . S
C162 C160 1.416 . S
C162 H183 0.930 . S
C163 C164 1.413 . S
C163 C165 1.427 . S
C163 C169 1.416 . S
C164 C157 1.424 . S
C164 C163 1.413 . S
C164 N168 1.361 . S
C165 C163 1.427 . S
C165 C166 1.328 . S
C165 H180 0.929 . S
C166 C160 1.448 . S
C166 C165 1.328 . S
C166 H181 0.930 . S
Tb167 N158 2.617 . S
Tb167 N168 2.572 . S
Tb167 O202 2.349 1_655 S
Tb167 O205 2.393 1_655 S
Tb167 O206 2.465 . S
Tb167 O207 2.387 . S
Tb167 O209 2.428 . S
Tb167 O210 2.308 1_545 S
Tb167 C231 2.802 . S
N168 C164 1.361 . S
N168 Tb167 2.572 . S
N168 C170 1.340 . S
C169 C163 1.416 . S
C169 C171 1.332 . S
C169 H177 0.931 . S
C170 N168 1.340 . S
C170 C171 1.407 . S
C170 H176 0.930 . S
C171 C169 1.332 . S
C171 C170 1.407 . S
C171 H173 0.929 . S
H172 C161 0.910 1_455 S
H173 C171 0.929 . S
H174 C189 0.930 1_655 S
H175 C196 0.929 . S
H176 C170 0.930 . S
H177 C169 0.931 . S
H178 C192 0.930 . S
H179 C159 0.930 1_455 S
H180 C165 0.929 . S
H181 C166 0.930 . S
H182 C187 0.930 1_655 S
H183 C162 0.930 . S
H184 C195 0.931 . S
N185 Tb156 2.617 . S
N185 C186 1.379 . S
N185 C189 1.334 . S
C186 N185 1.379 . S
C186 C188 1.416 . S
C186 C194 1.424 . S
C187 H182 0.930 1_455 S
C187 C189 1.390 . S
C187 C190 1.339 . S
C188 C186 1.416 . S
C188 C190 1.416 . S
C188 C221 1.448 . S
C189 H174 0.930 1_455 S
C189 N185 1.334 . S
C189 C187 1.390 . S
C190 C187 1.339 . S
C190 C188 1.416 . S
C190 H197 0.930 . S
N191 Tb156 2.572 . S
N191 C192 1.340 . S
N191 C194 1.361 . S
C192 H178 0.930 . S
C192 N191 1.340 . S
C192 C196 1.407 . S
C193 C194 1.413 . S
C193 C195 1.416 . S
C193 C222 1.427 . S
C194 C186 1.424 . S
C194 N191 1.361 . S
C194 C193 1.413 . S
C195 H184 0.931 . S
C195 C193 1.416 . S
C195 C196 1.332 . S
C196 H175 0.929 . S
C196 C192 1.407 . S
C196 C195 1.332 . S
H197 C190 0.930 . S
H198 C221 0.930 . S
H199 C222 0.929 . S
O200 Tb156 2.465 . S
O200 C220 1.264 . S
O201 Tb156 2.387 . S
O201 C212 1.264 . S
O202 Tb167 2.349 1_455 S
O202 C212 1.243 1_545 S
O203 Tb156 2.428 . S
O203 C220 1.256 . S
O204 Tb156 2.308 1_545 S
O204 C219 1.266 . S
O205 Tb167 2.393 1_455 S
O205 C219 1.248 . S
O206 Tb167 2.465 . S
O206 C231 1.264 . S
O207 Tb167 2.387 . S
O207 C223 1.264 . S
O208 Tb156 2.345 1_645 S
O208 C223 1.250 . S
O209 Tb167 2.428 . S
O209 C231 1.256 . S
O210 Tb167 2.308 1_565 S
O210 C230 1.266 . S
O211 Tb156 2.393 1_655 S
O211 C230 1.248 . S
C212 O201 1.264 . S
C212 O202 1.243 1_565 S
C213 C216 1.399 . S
C213 C218 1.383 . S
C213 C220 1.496 . S
C214 C215 1.399 . S
C214 C218 1.389 . S
C215 C214 1.399 . S
C215 C217 1.380 . S
C215 H232 0.929 . S
C216 C213 1.399 . S
C216 C217 1.392 . S
C216 H233 0.929 . S
C217 C215 1.380 . S
C217 C216 1.392 . S
C217 H234 0.929 . S
C218 C213 1.383 . S
C218 C214 1.389 . S
C218 H235 0.931 . S
C219 O204 1.266 . S
C219 O205 1.248 . S
C220 Tb156 2.802 . S
C220 O200 1.264 . S
C220 O203 1.256 . S
C220 C213 1.496 . S
C221 C188 1.448 . S
C221 H198 0.930 . S
C221 C222 1.328 . S
C222 C193 1.427 . S
C222 H199 0.929 . S
C222 C221 1.328 . S
C223 O207 1.264 . S
C223 O208 1.250 . S
C224 C227 1.399 . S
C224 C228 1.383 . S
C224 C231 1.496 . S
C225 C226 1.399 . S
C225 C228 1.389 . S
C226 C225 1.399 . S
C226 C229 1.380 . S
C226 H236 0.929 . S
C227 C224 1.399 . S
C227 C229 1.392 . S
C227 H237 0.929 . S
C228 C224 1.383 . S
C228 C225 1.389 . S
C228 H238 0.931 . S
C229 C226 1.380 . S
C229 C227 1.392 . S
C229 H239 0.929 . S
C230 O210 1.266 . S
C230 O211 1.248 . S
C231 Tb167 2.802 . S
C231 O206 1.264 . S
C231 O209 1.256 . S
C231 C224 1.496 . S
H232 C215 0.929 . S
H233 C216 0.929 . S
H234 C217 0.929 . S
H235 C218 0.931 . S
H236 C226 0.929 . S
H237 C227 0.929 . S
H238 C228 0.931 . S
H239 C229 0.929 . S
Tb240 N269 2.618 . S
Tb240 N275 2.572 1_556 S
Tb240 O284 2.465 . S
Tb240 O285 2.387 1_556 S
Tb240 O287 2.428 . S
Tb240 O288 2.308 1_556 S
Tb240 O292 2.349 . S
Tb240 O295 2.393 1_556 S
Tb240 C304 2.802 . S
C241 N242 1.379 . S
C241 C244 1.416 . S
C241 C248 1.424 . S
N242 C241 1.379 . S
N242 C245 1.334 . S
N242 Tb251 2.617 . S
C243 C245 1.390 . S
C243 C246 1.339 . S
C243 H263 0.930 . S
C244 C241 1.416 . S
C244 C246 1.416 . S
C244 C250 1.448 . S
C245 N242 1.334 . S
C245 C243 1.390 . S
C245 H256 0.930 . S
C246 C243 1.339 . S
C246 C244 1.416 . S
C246 H267 0.930 . S
C247 C248 1.413 . S
C247 C249 1.427 . S
C247 C253 1.416 . S
C248 C241 1.424 . S
C248 C247 1.413 . S
C248 N252 1.361 . S
C249 C247 1.427 . S
C249 C250 1.328 . S
C249 H264 0.929 . S
C250 C244 1.448 . S
C250 C249 1.328 . S
C250 H265 0.930 . S
Tb251 N242 2.617 . S
Tb251 N252 2.572 . S
Tb251 O286 2.349 . S
Tb251 O289 2.393 . S
Tb251 O290 2.465 . S
Tb251 O291 2.387 . S
Tb251 O293 2.428 . S
Tb251 O294 2.308 . S
Tb251 C315 2.802 . S
N252 C248 1.361 . S
N252 Tb251 2.572 . S
N252 C254 1.340 . S
C253 C247 1.416 . S
C253 C255 1.332 . S
C253 H261 0.931 . S
C254 N252 1.340 . S
C254 C255 1.407 . S
C254 H260 0.930 . S
C255 C253 1.332 . S
C255 C254 1.407 . S
C255 H257 0.929 . S
H256 C245 0.930 . S
H257 C255 0.929 . S
H258 C273 0.930 . S
H259 C280 0.929 . S
H260 C254 0.930 . S
H261 C253 0.931 . S
H262 C276 0.930 . S
H263 C243 0.930 . S
H264 C249 0.929 . S
H265 C250 0.930 . S
H266 C271 0.930 . S
H267 C246 0.930 . S
H268 C279 0.931 . S
N269 Tb240 2.618 . S
N269 C270 1.379 1_556 S
N269 C273 1.334 . S
C270 N269 1.379 1_554 S
C270 C272 1.416 . S
C270 C278 1.424 . S
C271 H266 0.930 . S
C271 C273 1.390 . S
C271 C274 1.339 1_556 S
C272 C270 1.416 . S
C272 C274 1.416 . S
C272 C305 1.448 . S
C273 H258 0.930 . S
C273 N269 1.334 . S
C273 C271 1.390 . S
C274 C271 1.339 1_554 S
C274 C272 1.416 . S
C274 H281 0.930 . S
N275 Tb240 2.572 1_554 S
N275 C276 1.340 . S
N275 C278 1.361 . S
C276 H262 0.930 . S
C276 N275 1.340 . S
C276 C280 1.407 . S
C277 C278 1.413 . S
C277 C279 1.416 . S
C277 C306 1.427 . S
C278 C270 1.424 . S
C278 N275 1.361 . S
C278 C277 1.413 . S
C279 H268 0.931 . S
C279 C277 1.416 . S
C279 C280 1.332 . S
C280 H259 0.929 . S
C280 C276 1.407 . S
C280 C279 1.332 . S
H281 C274 0.930 . S
H282 C305 0.930 . S
H283 C306 0.929 . S
O284 Tb240 2.465 . S
O284 C304 1.264 . S
O285 Tb240 2.387 1_554 S
O285 C296 1.264 . S
O286 Tb251 2.349 . S
O286 C296 1.243 . S
O287 Tb240 2.428 . S
O287 C304 1.256 . S
O288 Tb240 2.308 1_554 S
O288 C303 1.266 . S
O289 Tb251 2.393 . S
O289 C303 1.248 . S
O290 Tb251 2.465 . S
O290 C315 1.264 . S
O291 Tb251 2.387 . S
O291 C307 1.264 1_554 S
O292 Tb240 2.349 . S
O292 C307 1.243 . S
O293 Tb251 2.428 . S
O293 C315 1.256 . S
O294 Tb251 2.308 . S
O294 C314 1.266 . S
O295 Tb240 2.393 1_554 S
O295 C314 1.248 . S
C296 O285 1.264 . S
C296 O286 1.243 . S
C297 C300 1.399 . S
C297 C302 1.383 . S
C297 C304 1.496 . S
C298 C299 1.399 . S
C298 C302 1.389 . S
C299 C298 1.399 . S
C299 C301 1.380 . S
C299 H316 0.929 . S
C300 C297 1.399 . S
C300 C301 1.392 . S
C300 H317 0.929 . S
C301 C299 1.380 . S
C301 C300 1.392 . S
C301 H318 0.929 . S
C302 C297 1.383 . S
C302 C298 1.389 . S
C302 H319 0.931 . S
C303 O288 1.266 . S
C303 O289 1.248 . S
C304 Tb240 2.802 . S
C304 O284 1.264 . S
C304 O287 1.256 . S
C304 C297 1.496 . S
C305 C272 1.448 . S
C305 H282 0.930 . S
C305 C306 1.328 . S
C306 C277 1.427 . S
C306 H283 0.929 . S
C306 C305 1.328 . S
C307 O291 1.264 1_556 S
C307 O292 1.243 . S
C308 C311 1.399 . S
C308 C312 1.383 . S
C308 C315 1.496 . S
C309 C310 1.399 . S
C309 C312 1.389 . S
C310 C309 1.399 . S
C310 C313 1.380 . S
C310 H320 0.929 . S
C311 C308 1.399 . S
C311 C313 1.392 . S
C311 H321 0.929 . S
C312 C308 1.383 . S
C312 C309 1.389 . S
C312 H322 0.931 . S
C313 C310 1.380 . S
C313 C311 1.392 . S
C313 H323 0.929 . S
C314 O294 1.266 . S
C314 O295 1.248 . S
C315 Tb251 2.802 . S
C315 O290 1.264 . S
C315 O293 1.256 . S
C315 C308 1.496 . S
H316 C299 0.929 . S
H317 C300 0.929 . S
H318 C301 0.929 . S
H319 C302 0.931 . S
H320 C310 0.929 . S
H321 C311 0.929 . S
H322 C312 0.931 . S
H323 C313 0.929 . S
C324 C325 1.369 . S
C324 C326 1.419 . S
C324 H328 0.930 . S
C325 C324 1.369 . S
C325 C334 1.429 . S
C326 C324 1.419 . S
C326 C327 1.363 . S
C326 H329 0.929 . S
C327 C326 1.363 . S
C327 C333 1.428 . S
H328 C324 0.930 . S
H329 C326 0.929 . S
S330 N331 1.613 . S
S330 N332 1.610 . S
N331 S330 1.613 . S
N331 C334 1.350 . S
N332 S330 1.610 . S
N332 C333 1.351 . S
C333 C327 1.428 . S
C333 N332 1.351 . S
C333 C334 1.434 . S
C334 C325 1.429 . S
C334 N331 1.350 . S
C334 C333 1.434 . S
C335 C336 1.369 . S
C335 C337 1.419 . S
C335 H339 0.930 . S
C336 C335 1.369 . S
C336 C345 1.429 . S
C337 C335 1.419 . S
C337 C338 1.363 . S
C337 H340 0.929 . S
C338 C337 1.363 . S
C338 C344 1.428 . S
H339 C335 0.930 . S
H340 C337 0.929 . S
S341 N342 1.613 . S
S341 N343 1.610 . S
N342 S341 1.613 . S
N342 C345 1.350 1_556 S
N343 S341 1.610 . S
N343 C344 1.351 1_556 S
C344 C338 1.428 . S
C344 N343 1.351 1_554 S
C344 C345 1.434 . S
C345 C336 1.429 . S
C345 N342 1.350 1_554 S
C345 C344 1.434 . S
C346 C347 1.369 . S
C346 C348 1.419 . S
C346 H350 0.930 . S
C347 C346 1.369 . S
C347 C356 1.429 . S
C348 C346 1.419 . S
C348 C349 1.363 . S
C348 H351 0.929 . S
C349 C348 1.363 . S
C349 C355 1.428 . S
H350 C346 0.930 . S
H351 C348 0.929 . S
S352 N353 1.613 . S
S352 N354 1.610 . S
N353 S352 1.613 . S
N353 C356 1.350 . S
N354 S352 1.610 . S
N354 C355 1.351 . S
C355 C349 1.428 . S
C355 N354 1.351 . S
C355 C356 1.434 . S
C356 C347 1.429 . S
C356 N353 1.350 . S
C356 C355 1.434 . S
C357 C358 1.369 . S
C357 C359 1.419 . S
C357 H361 0.930 1_554 S
C358 C357 1.369 . S
C358 C367 1.429 . S
C359 C357 1.419 . S
C359 C360 1.363 . S
C359 H362 0.929 1_554 S
C360 C359 1.363 . S
C360 C366 1.428 . S
H361 C357 0.930 1_556 S
H362 C359 0.929 1_556 S
S363 N364 1.613 . S
S363 N365 1.610 . S
N364 S363 1.613 . S
N364 C367 1.350 . S
N365 S363 1.610 . S
N365 C366 1.351 . S
C366 C360 1.428 . S
C366 N365 1.351 . S
C366 C367 1.434 . S
C367 C358 1.429 . S
C367 N364 1.350 . S
C367 C366 1.434 . S
C368 C369 1.369 . S
C368 C370 1.419 . S
C368 H372 0.930 . S
C369 C368 1.369 . S
C369 C378 1.429 . S
C370 C368 1.419 . S
C370 C371 1.363 . S
C370 H373 0.929 . S
C371 C370 1.363 . S
C371 C377 1.428 . S
H372 C368 0.930 . S
H373 C370 0.929 . S
S374 N375 1.613 . S
S374 N376 1.610 . S
N375 S374 1.613 . S
N375 C378 1.350 . S
N376 S374 1.610 . S
N376 C377 1.351 . S
C377 C371 1.428 . S
C377 N376 1.351 . S
C377 C378 1.434 . S
C378 C369 1.429 . S
C378 N375 1.350 . S
C378 C377 1.434 . S
C379 C380 1.369 . S
C379 C381 1.419 . S
C379 H383 0.930 . S
C380 C379 1.369 . S
C380 C389 1.429 . S
C381 C379 1.419 . S
C381 C382 1.363 . S
C381 H384 0.929 . S
C382 C381 1.363 . S
C382 C388 1.428 . S
H383 C379 0.930 . S
H384 C381 0.929 . S
S385 N386 1.613 . S
S385 N387 1.610 . S
N386 S385 1.613 . S
N386 C389 1.350 . S
N387 S385 1.610 . S
N387 C388 1.351 . S
C388 C382 1.428 . S
C388 N387 1.351 . S
C388 C389 1.434 . S
C389 C380 1.429 . S
C389 N386 1.350 . S
C389 C388 1.434 . S
C390 C391 1.369 . S
C390 C392 1.419 . S
C390 H394 0.930 1_545 S
C391 C390 1.369 . S
C391 C400 1.429 . S
C392 C390 1.419 . S
C392 C393 1.363 . S
C392 H395 0.929 1_545 S
C393 C392 1.363 . S
C393 C399 1.428 . S
H394 C390 0.930 1_565 S
H395 C392 0.929 1_565 S
S396 N397 1.613 . S
S396 N398 1.610 . S
N397 S396 1.613 . S
N397 C400 1.350 . S
N398 S396 1.610 . S
N398 C399 1.351 . S
C399 C393 1.428 . S
C399 N398 1.351 . S
C399 C400 1.434 . S
C400 C391 1.429 . S
C400 N397 1.350 . S
C400 C399 1.434 . S
C401 C402 1.369 . S
C401 C403 1.419 . S
C401 H405 0.930 . S
C402 C401 1.369 . S
C402 C411 1.429 . S
C403 C401 1.419 . S
C403 C404 1.363 . S
C403 H406 0.929 . S
C404 C403 1.363 . S
C404 C410 1.428 . S
H405 C401 0.930 . S
H406 C403 0.929 . S
S407 N408 1.613 . S
S407 N409 1.610 . S
N408 S407 1.613 . S
N408 C411 1.350 . S
N409 S407 1.610 . S
N409 C410 1.351 . S
C410 C404 1.428 . S
C410 N409 1.351 . S
C410 C411 1.434 . S
C411 C402 1.429 . S
C411 N408 1.350 . S
C411 C410 1.434 . S
C412 C413 1.369 . S
C412 C414 1.419 . S
C412 H416 0.930 . S
C413 C412 1.369 . S
C413 C422 1.429 . S
C414 C412 1.419 . S
C414 C415 1.363 . S
C414 H417 0.929 . S
C415 C414 1.363 . S
C415 C421 1.428 . S
H416 C412 0.930 . S
H417 C414 0.929 . S
S418 N419 1.613 . S
S418 N420 1.610 . S
N419 S418 1.613 . S
N419 C422 1.350 . S
N420 S418 1.610 . S
N420 C421 1.351 . S
C421 C415 1.428 . S
C421 N420 1.351 . S
C421 C422 1.434 . S
C422 C413 1.429 . S
C422 N419 1.350 . S
C422 C421 1.434 . S
C423 C424 1.369 . S
C423 C425 1.419 . S
C423 H427 0.930 . S
C424 C423 1.369 . S
C424 C433 1.429 . S
C425 C423 1.419 . S
C425 C426 1.363 . S
C425 H428 0.929 . S
C426 C425 1.363 . S
C426 C432 1.428 . S
H427 C423 0.930 . S
H428 C425 0.929 . S
S429 N430 1.613 . S
S429 N431 1.610 . S
N430 S429 1.613 . S
N430 C433 1.350 . S
N431 S429 1.610 . S
N431 C432 1.351 . S
C432 C426 1.428 . S
C432 N431 1.351 . S
C432 C433 1.434 . S
C433 C424 1.429 . S
C433 N430 1.350 . S
C433 C432 1.434 . S
C434 C435 1.369 . S
C434 C436 1.419 . S
C434 H438 0.930 . S
C435 C434 1.369 . S
C435 C444 1.429 . S
C436 C434 1.419 . S
C436 C437 1.363 . S
C436 H439 0.929 . S
C437 C436 1.363 . S
C437 C443 1.428 . S
H438 C434 0.930 . S
H439 C436 0.929 . S
S440 N441 1.613 . S
S440 N442 1.610 . S
N441 S440 1.613 . S
N441 C444 1.350 . S
N442 S440 1.610 . S
N442 C443 1.351 . S
C443 C437 1.428 . S
C443 N442 1.351 . S
C443 C444 1.434 . S
C444 C435 1.429 . S
C444 N441 1.350 . S
C444 C443 1.434 . S
C445 C446 1.369 . S
C445 C447 1.419 . S
C445 H449 0.930 1_565 S
C446 C445 1.369 . S
C446 C455 1.429 . S
C447 C445 1.419 . S
C447 C448 1.363 . S
C447 H450 0.929 1_565 S
C448 C447 1.363 . S
C448 C454 1.428 . S
H449 C445 0.930 1_545 S
H450 C447 0.929 1_545 S
S451 N452 1.613 . S
S451 N453 1.610 . S
N452 S451 1.613 . S
N452 C455 1.350 . S
N453 S451 1.610 . S
N453 C454 1.351 . S
C454 C448 1.428 . S
C454 N453 1.351 . S
C454 C455 1.434 . S
C455 C446 1.429 . S
C455 N452 1.350 . S
C455 C454 1.434 . S
C327 C219 1.680 . S
C325 C138 1.645 . S
C336 C21 1.635 . S
C338 C314 1.665 . S
C347 C60 1.647 . S
C349 C230 1.678 . S
C358 C99 1.653 . S
C360 C303 1.665 . S
C371 C214 1.430 . S
C369 C16 1.552 . S
C382 C307 1.634 . S
C380 C40 1.617 . S
C391 C79 1.631 . S
C393 C223 1.670 . S
C402 C133 1.537 . S
C404 C298 1.418 . S
C415 C309 1.409 . S
C413 C55 1.535 . S
C426 C225 1.425 . S
C424 C94 1.547 . S
C437 C296 1.635 . S
C435 C118 1.609 . S
C446 C1 1.622 . S
C448 C212 1.670 . S
