# Generated by pormake.
# Topology pth, (4,4)-cn, num edge types: 1
# Building blocks:
#     Node 0, Type 0, BuildingBlock: NAHDIM_clean_sbu_0, # of connection points: 4
#     Node 1, Type 0, BuildingBlock: NAHDIM_clean_sbu_0, # of connection points: 4
#     Node 2, Type 0, BuildingBlock: NAHDIM_clean_sbu_0, # of connection points: 4
#     Node 3, Type 1, BuildingBlock: MIFKUJ_clean_linker_1, # of connection points: 4
#     Node 4, Type 1, BuildingBlock: MIFKUJ_clean_linker_1, # of connection points: 4
#     Node 5, Type 1, BuildingBlock: MIFKUJ_clean_linker_1, # of connection points: 4
#     Edge 6, Type (0, 1), BuildingBlock: OJICUG_clean_linker_0, # of connection points: 2
#     Edge 7, Type (0, 1), BuildingBlock: OJICUG_clean_linker_0, # of connection points: 2
#     Edge 8, Type (0, 1), BuildingBlock: OJICUG_clean_linker_0, # of connection points: 2
#     Edge 9, Type (0, 1), BuildingBlock: OJICUG_clean_linker_0, # of connection points: 2
#     Edge 10, Type (0, 1), BuildingBlock: OJICUG_clean_linker_0, # of connection points: 2
#     Edge 11, Type (0, 1), BuildingBlock: OJICUG_clean_linker_0, # of connection points: 2
#     Edge 12, Type (0, 1), BuildingBlock: OJICUG_clean_linker_0, # of connection points: 2
#     Edge 13, Type (0, 1), BuildingBlock: OJICUG_clean_linker_0, # of connection points: 2
#     Edge 14, Type (0, 1), BuildingBlock: OJICUG_clean_linker_0, # of connection points: 2
#     Edge 15, Type (0, 1), BuildingBlock: OJICUG_clean_linker_0, # of connection points: 2
#     Edge 16, Type (0, 1), BuildingBlock: OJICUG_clean_linker_0, # of connection points: 2
#     Edge 17, Type (0, 1), BuildingBlock: OJICUG_clean_linker_0, # of connection points: 2
# Relax obj value: 0.043
# Max RMSD: 0.165
# Mean RMSD: 0.093
data_MOF--net-pth--node1-NAHDIM_clean_sbu_0--node2-MIFKUJ_clean_linker_1--edge1-OJICUG_clean_linker_0
_symmetry_space_group_name_H-M    P1
_symmetry_Int_Tables_number       1
_symmetry_cell_setting            triclinic
loop_
_symmetry_equiv_pos_as_xyz
'x, y, z'
_cell_length_a     23.285194
_cell_length_b     23.351332
_cell_length_c     48.387832
_cell_angle_alpha  91.803015
_cell_angle_beta   90.170852
_cell_angle_gamma 120.47922
loop_
_atom_site_label
_atom_site_type_symbol
_atom_site_fract_x
_atom_site_fract_y
_atom_site_fract_z
_atom_type_partial_charge
C0 C 0.01446 0.95279 0.07902 0.0
O1 O 0.9709 0.97064 0.08555 0.0
O2 O 0.01241 0.09381 0.05802 0.0
Zn3 Zn 0.02367 0.02908 0.03329 0.0
O4 O 0.94099 0.96297 0.01147 0.0
C5 C 0.09212 0.13072 0.99592 0.0
O6 O 0.04195 0.13883 0.00249 0.0
O7 O 0.04734 0.97407 0.05701 0.0
C8 C 0.90149 0.97214 0.99659 0.0
O9 O 0.91075 0.03223 0.9948 0.0
C10 C 0.9592 0.09242 0.06504 0.0
O11 O 0.90127 0.04297 0.0561 0.0
O12 O 0.0966 0.08418 0.00678 0.0
C13 C -0.00571 0.11739 0.32523 0.0
O14 O 0.939 0.05962 0.32674 0.0
O15 O 0.00084 0.97249 0.33457 0.0
Zn16 Zn 0.02529 0.04898 0.36196 0.0
O17 O 0.95082 0.03643 0.38693 0.0
C18 C 0.10416 0.01135 0.39247 0.0
O19 O 0.05476 0.9529 0.38398 0.0
O20 O 0.04507 0.12768 0.33935 0.0
C21 C 0.92246 -0.00493 0.4058 0.0
O22 O 0.9394 0.95048 0.41055 0.0
C23 C 0.95229 0.91313 0.33522 0.0
O24 O 0.90948 0.89605 0.3553 0.0
O25 O 0.10402 0.06334 0.38541 0.0
C26 C 0.10872 0.03778 0.659 0.0
O27 O 0.11126 0.09471 0.66386 0.0
O28 O 0.9398 0.0127 0.67215 0.0
Zn29 Zn 0.00438 0.00191 0.69581 0.0
O30 O 0.06348 0.08315 0.72005 0.0
C31 C 0.92763 0.93639 0.74203 0.0
O32 O 0.94422 -0.00195 0.74846 0.0
O33 O 0.06424 0.98631 0.67063 0.0
C34 C 0.10687 0.07897 0.73446 0.0
O35 O 0.10844 0.02349 0.73286 0.0
C36 C 0.94288 0.06645 0.66565 0.0
O37 O -0.00725 0.12364 0.67509 0.0
O38 O 0.94948 0.92426 0.71989 0.0
H39 H 0.08042 0.47716 0.14456 0.0
H40 H 0.07085 0.38476 0.11572 0.0
H41 H 0.88881 0.24956 0.15647 0.0
H42 H 0.8971 0.34248 0.18431 0.0
H43 H 0.00633 0.53074 0.14786 0.0
H44 H 0.08285 0.43589 0.21248 0.0
H45 H 0.08627 0.35036 0.23924 0.0
H46 H 0.89993 0.30407 0.27656 0.0
H47 H 0.89608 0.38858 0.24937 0.0
H48 H 0.87407 0.55532 0.23957 0.0
H49 H 0.86025 0.63726 0.26679 0.0
H50 H 0.06526 0.78573 0.25173 0.0
H51 H 0.07733 0.70397 0.22356 0.0
H52 H 0.9746 0.5178 0.24931 0.0
H53 H 0.90138 0.61308 0.17819 0.0
H54 H 0.91036 0.70652 0.15332 0.0
H55 H 0.11242 0.76462 0.13181 0.0
H56 H 0.10225 0.66983 0.1563 0.0
C57 C -0.01001 0.41673 0.16686 0.0
C58 C 0.03842 0.42762 0.14724 0.0
C59 C 0.03312 0.37462 0.13092 0.0
C60 C 0.97915 0.30964 0.13385 0.0
C61 C 0.93064 0.29898 0.15348 0.0
C62 C 0.93584 0.352 0.16969 0.0
C63 C -0.00576 0.47309 0.18367 0.0
C64 C 0.00059 0.52828 0.1701 0.0
C65 C -0.01287 0.47045 0.21273 0.0
C66 C -0.01115 0.41815 0.22873 0.0
C67 C 0.04247 0.4069 0.22626 0.0
C68 C 0.04473 0.35851 0.24175 0.0
C69 C -0.00667 0.32044 0.25996 0.0
C70 C 0.93988 0.33206 0.26246 0.0
C71 C 0.9378 0.38061 0.24708 0.0
C72 C 0.97662 0.6238 0.22957 0.0
C73 C 0.91582 0.6057 0.2421 0.0
C74 C 0.90818 0.65256 0.25777 0.0
C75 C 0.96164 0.71827 0.26158 0.0
C76 C 0.02257 0.73607 0.24887 0.0
C77 C 0.02984 0.68932 0.23292 0.0
C78 C 0.98439 0.57358 0.21333 0.0
C79 C 0.98082 0.52002 0.22709 0.0
C80 C -0.00388 0.57875 0.18464 0.0
C81 C 0.00133 0.63495 0.16926 0.0
C82 C 0.94765 0.64614 0.1682 0.0
C83 C 0.95307 0.69984 0.15408 0.0
C84 C 0.01238 0.74355 0.14073 0.0
C85 C 0.06586 0.73168 0.14162 0.0
C86 C 0.06024 0.67769 0.15567 0.0
H87 H 0.6409 0.10024 0.47186 0.0
H88 H 0.72322 0.08944 0.44512 0.0
H89 H 0.70657 0.93831 0.49952 0.0
H90 H 0.61933 0.94484 0.52441 0.0
H91 H 0.51915 0.02463 0.4784 0.0
H92 H 0.70404 0.12652 0.5428 0.0
H93 H 0.79555 0.13597 0.57146 0.0
H94 H 0.65452 0.96555 0.61641 0.0
H95 H 0.56387 0.95507 0.58716 0.0
H96 H 0.38989 0.94425 0.58269 0.0
H97 H 0.30239 0.94511 0.60994 0.0
H98 H 0.32648 0.11338 0.56539 0.0
H99 H 0.41673 0.11462 0.53941 0.0
H100 H 0.51744 0.03516 0.58085 0.0
H101 H 0.33272 0.93731 0.51386 0.0
H102 H 0.245 0.93554 0.48534 0.0
H103 H 0.39265 0.11215 0.44556 0.0
H104 H 0.47974 0.115 0.47491 0.0
C105 C 0.62436 0.02417 0.5005 0.0
C106 C 0.65454 0.06436 0.47791 0.0
C107 C 0.70253 0.0587 0.46282 0.0
C108 C 0.7226 0.01349 0.47023 0.0
C109 C 0.6922 0.97321 0.49289 0.0
C110 C 0.64298 0.97781 0.50757 0.0
C111 C 0.57179 0.02921 0.51592 0.0
C112 C 0.51951 0.02799 0.50082 0.0
C113 C 0.57149 0.033 0.54519 0.0
C114 C 0.62721 0.03958 0.56262 0.0
C115 C 0.69301 0.09091 0.55869 0.0
C116 C 0.74515 0.09666 0.57525 0.0
C117 C 0.73233 0.05134 0.59613 0.0
C118 C 0.66623 0.00062 0.60023 0.0
C119 C 0.61426 -0.00513 0.58368 0.0
C120 C 0.40958 0.02901 0.55884 0.0
C121 C 0.37639 0.98143 0.57885 0.0
C122 C 0.32579 0.98154 0.59422 0.0
C123 C 0.30707 0.02917 0.58984 0.0
C124 C 0.34007 0.07645 0.56957 0.0
C125 C 0.39119 0.07674 0.55442 0.0
C126 C 0.46469 0.0295 0.54331 0.0
C127 C 0.51752 0.03209 0.55842 0.0
C128 C 0.46624 0.02849 0.51407 0.0
C129 C 0.41269 0.02665 0.4967 0.0
C130 C 0.34606 0.97601 0.4992 0.0
C131 C 0.29607 0.97475 0.48269 0.0
C132 C 0.31181 0.02374 0.46314 0.0
C133 C 0.37867 0.07425 0.46065 0.0
C134 C 0.42859 0.07557 0.47723 0.0
H135 H 0.47291 0.38264 0.81569 0.0
H136 H 0.38704 0.28883 0.78774 0.0
H137 H 0.23861 0.33172 0.81898 0.0
H138 H 0.32509 0.42659 0.8463 0.0
H139 H 0.51752 0.51276 0.8144 0.0
H140 H 0.41562 0.34448 0.88041 0.0
H141 H 0.32656 0.25776 0.90703 0.0
H142 H 0.27989 0.40232 0.9412 0.0
H143 H 0.36691 0.4879 0.91367 0.0
H144 H 0.53569 0.67151 0.91064 0.0
H145 H 0.61841 0.76677 0.93917 0.0
H146 H 0.77001 0.7223 0.91414 0.0
H147 H 0.68699 0.62667 0.8861 0.0
H148 H 0.49596 0.53893 0.91534 0.0
H149 H 0.59292 0.70368 0.84539 0.0
H150 H 0.6845 0.78981 0.81976 0.0
H151 H 0.74781 0.65043 0.79621 0.0
H152 H 0.6547 0.56398 0.82139 0.0
C153 C 0.40532 0.41118 0.83327 0.0
C154 C 0.42191 0.37191 0.81644 0.0
C155 C 0.37269 0.31805 0.80066 0.0
C156 C 0.30596 0.30266 0.80127 0.0
C157 C 0.28961 0.34256 0.81791 0.0
C158 C 0.33886 0.39638 0.83373 0.0
C159 C 0.45768 0.46831 0.85002 0.0
C160 C 0.51316 0.51793 0.83654 0.0
C161 C 0.45176 0.47554 0.87885 0.0
C162 C 0.39739 0.42255 0.89476 0.0
C163 C 0.38552 0.35722 0.89334 0.0
C164 C 0.33511 0.30785 0.90881 0.0
C165 C 0.29592 0.323 0.92618 0.0
C166 C 0.30832 0.38862 0.92768 0.0
C167 C 0.35849 0.43781 0.91214 0.0
C168 C 0.60533 0.64231 0.89617 0.0
C169 C 0.58681 0.68245 0.91131 0.0
C170 C 0.63413 0.73704 0.92742 0.0
C171 C 0.70062 0.75189 0.92891 0.0
C172 C 0.719 0.71168 0.91362 0.0
C173 C 0.67179 0.65738 0.89742 0.0
C174 C 0.55477 0.58357 0.87963 0.0
C175 C 0.49999 0.53352 0.89319 0.0
C176 C 0.56166 0.57551 0.85098 0.0
C177 C 0.61738 0.62767 0.83543 0.0
C178 C 0.62675 0.69184 0.83479 0.0
C179 C 0.67941 0.74111 0.82024 0.0
C180 C 0.72397 0.72727 0.80605 0.0
C181 C 0.71412 0.66267 0.80664 0.0
C182 C 0.6611 0.61326 0.82109 0.0
C183 C 0.02553 0.19691 0.09404 0.0
C184 C 0.9635 0.147 0.08301 0.0
H185 H 0.0789 0.28637 0.11903 0.0
C186 C 0.90636 0.1505 0.08906 0.0
H187 H 0.07056 0.1956 0.08993 0.0
C188 C 0.91132 0.20314 0.10559 0.0
C189 C 0.97349 0.25326 0.11649 0.0
H190 H 0.85789 0.113 0.0808 0.0
H191 H 0.86656 0.20512 0.10944 0.0
C192 C 0.03044 0.24929 0.11061 0.0
C193 C 0.87439 0.06024 0.42643 0.0
C194 C 0.87209 -0.00075 0.42278 0.0
H195 H 0.83163 0.11336 0.44518 0.0
C196 C 0.82134 0.94296 0.43526 0.0
H197 H 0.91357 0.10471 0.41734 0.0
C198 C 0.77271 0.94731 0.45058 0.0
C199 C 0.77475 0.00846 0.45427 0.0
H200 H 0.81828 0.89524 0.43262 0.0
H201 H 0.7329 0.90236 0.45905 0.0
C202 C 0.82691 0.065 0.44225 0.0
C203 C 0.84743 0.81548 0.74922 0.0
C204 C 0.87977 0.88191 0.75924 0.0
H205 H 0.77196 0.71475 0.75581 0.0
C206 C 0.86317 0.89653 0.78536 0.0
H207 H 0.85896 0.80266 0.72911 0.0
C208 C 0.81399 0.84615 0.80081 0.0
C209 C 0.7797 0.77995 0.79041 0.0
H210 H 0.88766 0.94715 0.7938 0.0
H211 H 0.80257 0.85926 0.82088 0.0
C212 C 0.79772 0.76505 0.76459 0.0
C213 C 0.05139 0.86993 0.08548 0.0
C214 C 0.01982 0.90369 0.09575 0.0
H215 H 0.0727 0.79201 0.0913 0.0
C216 C -0.01066 0.88708 0.12159 0.0
H217 H 0.07509 0.88142 0.06557 0.0
C218 C -0.01143 0.83644 0.13645 0.0
C219 C 0.01776 0.80072 0.12575 0.0
H220 H 0.96513 0.91259 0.13022 0.0
H221 H 0.96457 0.82498 0.15629 0.0
C222 C 0.05017 0.81879 0.10028 0.0
C223 C 0.20899 0.07685 0.42146 0.0
C224 C 0.15801 0.01552 0.41031 0.0
H225 H 0.29702 0.12754 0.44726 0.0
C226 C 0.15819 0.95724 0.4166 0.0
H227 H 0.21012 0.12261 0.41709 0.0
C228 C 0.20801 0.96007 0.43368 0.0
C229 C 0.25887 0.02123 0.445 0.0
H230 H 0.11986 0.90915 0.40826 0.0
H231 H 0.20709 0.91426 0.43773 0.0
C232 C 0.25891 0.07967 0.43865 0.0
C233 C 0.15624 0.19601 0.75371 0.0
C234 C 0.15631 0.13585 0.75209 0.0
H235 H 0.20384 0.29615 0.77035 0.0
C236 C 0.20509 0.13066 0.76714 0.0
H237 H 0.11937 0.20162 0.74233 0.0
C238 C 0.25323 0.18461 0.7832 0.0
C239 C 0.25371 0.24503 0.78462 0.0
H240 H 0.20644 0.08496 0.76645 0.0
H241 H 0.28989 0.17884 0.79466 0.0
C242 C 0.20442 0.25004 0.76986 0.0
C243 C 0.89029 0.12173 0.64064 0.0
C244 C 0.89009 0.0636 0.64751 0.0
H245 H 0.84025 0.16352 0.61919 0.0
C246 C 0.83845 0.00187 0.63693 0.0
H247 H 0.92935 0.17004 0.64845 0.0
C248 C 0.78788 -0.00179 0.62011 0.0
C249 C 0.78747 0.05611 0.61346 0.0
H250 H 0.83691 0.95607 0.64163 0.0
H251 H 0.74925 0.94985 0.61213 0.0
C252 C 0.83947 0.11803 0.62375 0.0
C253 C 0.80304 0.9236 0.96359 0.0
C254 C 0.84799 0.91549 0.98012 0.0
H255 H 0.72126 0.87822 0.9343 0.0
C256 C 0.84286 0.85283 0.98014 0.0
H257 H 0.80566 0.97121 0.9631 0.0
C258 C 0.79484 0.7999 0.96365 0.0
C259 C 0.75052 0.80815 0.94683 0.0
H260 H 0.87649 0.84468 0.99268 0.0
H261 H 0.79221 0.75228 0.96416 0.0
C262 C 0.7546 0.87035 0.94717 0.0
C263 C 0.91403 0.79486 0.32122 0.0
C264 C 0.94918 0.86253 0.31519 0.0
H265 H 0.8919 0.69662 0.30957 0.0
C266 C 0.98522 0.88201 0.29066 0.0
H267 H 0.88621 0.77842 0.34008 0.0
C268 C -0.01245 0.83502 0.27286 0.0
C269 C 0.95471 0.76753 0.27939 0.0
H270 H 0.01231 0.9338 0.28533 0.0
H271 H 0.01562 0.85182 0.25408 0.0
C272 C 0.91714 0.74793 0.30362 0.0
C273 C 0.15099 0.97362 0.632 0.0
C274 C 0.15828 0.03483 0.6409 0.0
H275 H 0.19112 0.92364 0.60829 0.0
C276 C 0.21404 0.09392 0.63255 0.0
H277 H 0.10833 0.92722 0.63796 0.0
C278 C 0.26192 0.09197 0.61592 0.0
C279 C 0.25494 0.03084 0.60698 0.0
H280 H 0.2214 0.14196 0.6392 0.0
H281 H 0.30514 0.13856 0.61056 0.0
C282 C 0.19865 0.97163 0.61511 0.0
C283 C 0.2031 0.17723 0.97313 0.0
C284 C 0.14319 0.17698 0.97697 0.0
H285 H 0.29886 0.22419 0.95439 0.0
C286 C 0.13287 0.22309 0.96308 0.0
H287 H 0.21254 0.14237 0.98358 0.0
C288 C 0.18183 0.26936 0.94622 0.0
C289 C 0.24258 0.27103 0.94292 0.0
H290 H 0.08699 0.22384 0.96535 0.0
H291 H 0.17203 0.30397 0.93577 0.0
C292 C 0.25239 0.2239 0.9563 0.0
C293 C 0.05411 0.2312 0.30545 0.0
C294 C -0.00442 0.16931 0.30802 0.0
H295 H 0.09928 0.3278 0.28827 0.0
C296 C 0.93704 0.15726 0.29422 0.0
H297 H 0.1 0.24199 0.31582 0.0
C298 C 0.93665 0.20615 0.27853 0.0
C299 C -0.00518 0.26827 0.27615 0.0
H300 H 0.89109 0.11007 0.29565 0.0
H301 H 0.89073 0.19512 0.2681 0.0
C302 C 0.05377 0.28017 0.28958 0.0
loop_
_geom_bond_atom_site_label_1
_geom_bond_atom_site_label_2
_geom_bond_distance
_geom_bond_site_symmetry_2
_ccdc_geom_bond_type
C0 O1 1.160 . S
C0 O7 1.185 . S
O1 C0 1.160 . S
O2 Zn3 1.899 . S
O2 C10 1.284 1_455 S
Zn3 O2 1.899 . S
Zn3 O4 2.032 1_445 S
Zn3 O7 2.086 1_545 S
Zn3 O12 1.977 . S
O4 Zn3 2.032 1_665 S
O4 C8 1.278 1_554 S
C5 O6 1.203 1_556 S
C5 O12 1.267 1_556 S
O6 C5 1.203 1_554 S
O7 C0 1.185 . S
O7 Zn3 2.086 1_565 S
C8 O4 1.278 1_556 S
C8 O9 1.211 1_565 S
O9 C8 1.211 1_545 S
C10 O2 1.284 1_655 S
C10 O11 1.273 . S
O11 C10 1.273 . S
O12 Zn3 1.977 . S
O12 C5 1.267 1_554 S
C13 O14 1.160 . S
C13 O20 1.185 . S
O14 C13 1.160 . S
O15 Zn16 1.899 1_565 S
O15 C23 1.284 . S
Zn16 O15 1.899 1_545 S
Zn16 O17 2.032 1_455 S
Zn16 O20 2.086 . S
Zn16 O25 1.977 . S
O17 Zn16 2.032 1_655 S
O17 C21 1.278 . S
C18 O19 1.203 1_545 S
C18 O25 1.267 . S
O19 C18 1.203 1_565 S
O20 C13 1.185 . S
O20 Zn16 2.086 . S
C21 O17 1.278 . S
C21 O22 1.211 1_545 S
O22 C21 1.211 1_565 S
C23 O15 1.284 . S
C23 O24 1.273 1_455 S
O24 C23 1.273 1_655 S
O25 Zn16 1.977 . S
O25 C18 1.267 . S
C26 O27 1.160 1_565 S
C26 O33 1.185 . S
O27 C26 1.160 1_545 S
O28 Zn29 1.899 1_655 S
O28 C36 1.284 . S
Zn29 O28 1.899 1_455 S
Zn29 O30 2.032 . S
Zn29 O33 2.086 1_545 S
Zn29 O38 1.977 1_445 S
O30 Zn29 2.032 . S
O30 C34 1.278 . S
C31 O32 1.203 . S
C31 O38 1.267 . S
O32 C31 1.203 . S
O33 C26 1.185 . S
O33 Zn29 2.086 1_565 S
C34 O30 1.278 . S
C34 O35 1.211 . S
O35 C34 1.211 . S
C36 O28 1.284 . S
C36 O37 1.273 . S
O37 C36 1.273 . S
O38 Zn29 1.977 1_665 S
O38 C31 1.267 . S
H39 C58 0.949 . S
H40 C59 0.950 . S
H41 C61 0.950 . S
H42 C62 0.950 . S
H43 C64 0.950 . S
H44 C67 0.950 . S
H45 C68 0.950 . S
H46 C70 0.951 . S
H47 C71 0.949 . S
H48 C73 0.949 . S
H49 C74 0.950 . S
H50 C76 0.950 . S
H51 C77 0.950 . S
H52 C79 0.952 . S
H53 C82 0.950 . S
H54 C83 0.950 . S
H55 C85 0.951 . S
H56 C86 0.949 . S
C57 C58 1.376 . S
C57 C62 1.386 1_455 S
C57 C63 1.483 . S
C58 H39 0.949 . S
C58 C57 1.376 . S
C58 C59 1.397 . S
C59 H40 0.950 . S
C59 C58 1.397 . S
C59 C60 1.391 . S
C60 C59 1.391 . S
C60 C61 1.405 1_455 S
C61 H41 0.950 . S
C61 C60 1.405 1_655 S
C61 C62 1.367 . S
C62 H42 0.950 . S
C62 C57 1.386 1_655 S
C62 C61 1.367 . S
C63 C57 1.483 . S
C63 C64 1.382 . S
C63 C65 1.403 . S
C64 H43 0.950 . S
C64 C63 1.382 . S
C64 C80 1.411 . S
C65 C63 1.403 . S
C65 C66 1.489 . S
C65 C79 1.406 1_455 S
C66 C65 1.489 . S
C66 C67 1.383 . S
C66 C71 1.382 1_455 S
C67 H44 0.950 . S
C67 C66 1.383 . S
C67 C68 1.395 . S
C68 H45 0.950 . S
C68 C67 1.395 . S
C68 C69 1.288 . S
C69 C68 1.288 . S
C69 C70 1.392 1_455 S
C70 H46 0.951 . S
C70 C69 1.392 1_655 S
C70 C71 1.392 . S
C71 H47 0.949 . S
C71 C66 1.382 1_655 S
C71 C70 1.392 . S
C72 C73 1.376 1_455 S
C72 C77 1.386 . S
C72 C78 1.483 . S
C73 H48 0.949 . S
C73 C72 1.376 1_655 S
C73 C74 1.397 . S
C74 H49 0.950 . S
C74 C73 1.397 . S
C74 C75 1.391 1_655 S
C75 C74 1.391 1_455 S
C75 C76 1.405 . S
C76 H50 0.950 . S
C76 C75 1.405 . S
C76 C77 1.367 . S
C77 H51 0.950 . S
C77 C72 1.386 . S
C77 C76 1.367 . S
C78 C72 1.483 . S
C78 C79 1.385 1_455 S
C78 C80 1.403 . S
C79 H52 0.952 . S
C79 C65 1.406 1_655 S
C79 C78 1.385 1_655 S
C80 C64 1.411 . S
C80 C78 1.403 . S
C80 C81 1.489 . S
C81 C80 1.489 . S
C81 C82 1.383 1_455 S
C81 C86 1.382 . S
C82 H53 0.950 . S
C82 C81 1.383 1_655 S
C82 C83 1.395 . S
C83 H54 0.950 . S
C83 C82 1.395 . S
C83 C84 1.288 1_655 S
C84 C83 1.288 1_455 S
C84 C85 1.392 . S
C85 H55 0.951 . S
C85 C84 1.392 . S
C85 C86 1.392 . S
C86 H56 0.949 . S
C86 C81 1.382 . S
C86 C85 1.392 . S
H87 C106 0.949 . S
H88 C107 0.950 . S
H89 C109 0.950 . S
H90 C110 0.950 . S
H91 C112 0.950 . S
H92 C115 0.950 . S
H93 C116 0.950 . S
H94 C118 0.951 . S
H95 C119 0.949 . S
H96 C121 0.949 . S
H97 C122 0.950 . S
H98 C124 0.950 . S
H99 C125 0.950 . S
H100 C127 0.949 1_565 S
H101 C130 0.950 . S
H102 C131 0.950 . S
H103 C133 0.951 . S
H104 C134 0.949 . S
C105 C106 1.376 . S
C105 C110 1.386 1_545 S
C105 C111 1.483 . S
C106 H87 0.949 . S
C106 C105 1.376 . S
C106 C107 1.397 . S
C107 H88 0.950 . S
C107 C106 1.397 . S
C107 C108 1.391 . S
C108 C107 1.391 . S
C108 C109 1.405 1_545 S
C109 H89 0.950 . S
C109 C108 1.405 1_565 S
C109 C110 1.367 . S
C110 H90 0.950 . S
C110 C105 1.386 1_565 S
C110 C109 1.367 . S
C111 C105 1.483 . S
C111 C112 1.382 . S
C111 C113 1.403 . S
C112 H91 0.950 . S
C112 C111 1.382 . S
C112 C128 1.411 . S
C113 C111 1.403 . S
C113 C114 1.489 . S
C113 C127 1.411 . S
C114 C113 1.489 . S
C114 C115 1.383 . S
C114 C119 1.382 1_545 S
C115 H92 0.950 . S
C115 C114 1.383 . S
C115 C116 1.395 . S
C116 H93 0.950 . S
C116 C115 1.395 . S
C116 C117 1.288 . S
C117 C116 1.288 . S
C117 C118 1.392 1_545 S
C118 H94 0.951 . S
C118 C117 1.392 1_565 S
C118 C119 1.392 . S
C119 H95 0.949 . S
C119 C114 1.382 1_565 S
C119 C118 1.392 . S
C120 C121 1.376 1_545 S
C120 C125 1.386 . S
C120 C126 1.483 . S
C121 H96 0.949 . S
C121 C120 1.376 1_565 S
C121 C122 1.397 . S
C122 H97 0.950 . S
C122 C121 1.397 . S
C122 C123 1.391 1_565 S
C123 C122 1.391 1_545 S
C123 C124 1.405 . S
C124 H98 0.950 . S
C124 C123 1.405 . S
C124 C125 1.367 . S
C125 H99 0.950 . S
C125 C120 1.386 . S
C125 C124 1.367 . S
C126 C120 1.483 . S
C126 C127 1.382 . S
C126 C128 1.403 . S
C127 H100 0.949 1_545 S
C127 C113 1.411 . S
C127 C126 1.382 . S
C128 C112 1.411 . S
C128 C126 1.403 . S
C128 C129 1.489 . S
C129 C128 1.489 . S
C129 C130 1.383 1_545 S
C129 C134 1.382 . S
C130 H101 0.950 . S
C130 C129 1.383 1_565 S
C130 C131 1.395 . S
C131 H102 0.950 . S
C131 C130 1.395 . S
C131 C132 1.288 1_565 S
C132 C131 1.288 1_545 S
C132 C133 1.392 . S
C133 H103 0.951 . S
C133 C132 1.392 . S
C133 C134 1.392 . S
C134 H104 0.949 . S
C134 C129 1.382 . S
C134 C133 1.392 . S
H135 C154 0.949 . S
H136 C155 0.950 . S
H137 C157 0.950 . S
H138 C158 0.950 . S
H139 C160 0.950 . S
H140 C163 0.950 . S
H141 C164 0.950 . S
H142 C166 0.951 . S
H143 C167 0.949 . S
H144 C169 0.949 . S
H145 C170 0.950 . S
H146 C172 0.950 . S
H147 C173 0.950 . S
H148 C175 0.950 . S
H149 C178 0.950 . S
H150 C179 0.950 . S
H151 C181 0.951 . S
H152 C182 0.949 . S
C153 C154 1.376 . S
C153 C158 1.386 . S
C153 C159 1.483 . S
C154 H135 0.949 . S
C154 C153 1.376 . S
C154 C155 1.397 . S
C155 H136 0.950 . S
C155 C154 1.397 . S
C155 C156 1.391 . S
C156 C155 1.391 . S
C156 C157 1.405 . S
C157 H137 0.950 . S
C157 C156 1.405 . S
C157 C158 1.367 . S
C158 H138 0.950 . S
C158 C153 1.386 . S
C158 C157 1.367 . S
C159 C153 1.483 . S
C159 C160 1.382 . S
C159 C161 1.403 . S
C160 H139 0.950 . S
C160 C159 1.382 . S
C160 C176 1.411 . S
C161 C159 1.403 . S
C161 C162 1.489 . S
C161 C175 1.411 . S
C162 C161 1.489 . S
C162 C163 1.383 . S
C162 C167 1.382 . S
C163 H140 0.950 . S
C163 C162 1.383 . S
C163 C164 1.395 . S
C164 H141 0.950 . S
C164 C163 1.395 . S
C164 C165 1.288 . S
C165 C164 1.288 . S
C165 C166 1.392 . S
C166 H142 0.951 . S
C166 C165 1.392 . S
C166 C167 1.392 . S
C167 H143 0.949 . S
C167 C162 1.382 . S
C167 C166 1.392 . S
C168 C169 1.376 . S
C168 C173 1.386 . S
C168 C174 1.483 . S
C169 H144 0.949 . S
C169 C168 1.376 . S
C169 C170 1.397 . S
C170 H145 0.950 . S
C170 C169 1.397 . S
C170 C171 1.391 . S
C171 C170 1.391 . S
C171 C172 1.405 . S
C172 H146 0.950 . S
C172 C171 1.405 . S
C172 C173 1.367 . S
C173 H147 0.950 . S
C173 C168 1.386 . S
C173 C172 1.367 . S
C174 C168 1.483 . S
C174 C175 1.382 . S
C174 C176 1.403 . S
C175 H148 0.950 . S
C175 C161 1.411 . S
C175 C174 1.382 . S
C176 C160 1.411 . S
C176 C174 1.403 . S
C176 C177 1.489 . S
C177 C176 1.489 . S
C177 C178 1.383 . S
C177 C182 1.382 . S
C178 H149 0.950 . S
C178 C177 1.383 . S
C178 C179 1.395 . S
C179 H150 0.950 . S
C179 C178 1.395 . S
C179 C180 1.288 . S
C180 C179 1.288 . S
C180 C181 1.392 . S
C181 H151 0.951 . S
C181 C180 1.392 . S
C181 C182 1.392 . S
C182 H152 0.949 . S
C182 C177 1.382 . S
C182 C181 1.392 . S
C183 C184 1.387 1_455 S
C183 H187 0.950 . S
C183 C192 1.390 . S
C184 C183 1.387 1_655 S
C184 C186 1.387 . S
H185 C192 0.950 . S
C186 C184 1.387 . S
C186 C188 1.390 . S
C186 H190 0.950 . S
H187 C183 0.950 . S
C188 C186 1.390 . S
C188 C189 1.387 1_655 S
C188 H191 0.950 . S
C189 C188 1.387 1_455 S
C189 C192 1.387 . S
H190 C186 0.950 . S
H191 C188 0.950 . S
C192 C183 1.390 . S
C192 H185 0.950 . S
C192 C189 1.387 . S
C193 C194 1.387 . S
C193 H197 0.950 . S
C193 C202 1.390 . S
C194 C193 1.387 . S
C194 C196 1.387 1_545 S
H195 C202 0.950 . S
C196 C194 1.387 1_565 S
C196 C198 1.390 . S
C196 H200 0.950 . S
H197 C193 0.950 . S
C198 C196 1.390 . S
C198 C199 1.387 1_565 S
C198 H201 0.950 . S
C199 C198 1.387 1_545 S
C199 C202 1.387 . S
H200 C196 0.950 . S
H201 C198 0.950 . S
C202 C193 1.390 . S
C202 H195 0.950 . S
C202 C199 1.387 . S
C203 C204 1.387 . S
C203 H207 0.950 . S
C203 C212 1.390 . S
C204 C203 1.387 . S
C204 C206 1.387 . S
H205 C212 0.950 . S
C206 C204 1.387 . S
C206 C208 1.390 . S
C206 H210 0.950 . S
H207 C203 0.950 . S
C208 C206 1.390 . S
C208 C209 1.387 . S
C208 H211 0.950 . S
C209 C208 1.387 . S
C209 C212 1.387 . S
H210 C206 0.950 . S
H211 C208 0.950 . S
C212 C203 1.390 . S
C212 H205 0.950 . S
C212 C209 1.387 . S
C213 C214 1.387 . S
C213 H217 0.950 . S
C213 C222 1.390 . S
C214 C213 1.387 . S
C214 C216 1.387 . S
H215 C222 0.950 . S
C216 C214 1.387 . S
C216 C218 1.390 . S
C216 H220 0.950 . S
H217 C213 0.950 . S
C218 C216 1.390 . S
C218 C219 1.387 . S
C218 H221 0.950 . S
C219 C218 1.387 . S
C219 C222 1.387 . S
H220 C216 0.950 . S
H221 C218 0.950 . S
C222 C213 1.390 . S
C222 H215 0.950 . S
C222 C219 1.387 . S
C223 C224 1.387 . S
C223 H227 0.950 . S
C223 C232 1.390 . S
C224 C223 1.387 . S
C224 C226 1.387 . S
H225 C232 0.950 . S
C226 C224 1.387 . S
C226 C228 1.390 1_545 S
C226 H230 0.950 1_545 S
H227 C223 0.950 . S
C228 C226 1.390 1_565 S
C228 C229 1.387 1_565 S
C228 H231 0.950 . S
C229 C228 1.387 1_545 S
C229 C232 1.387 . S
H230 C226 0.950 1_565 S
H231 C228 0.950 . S
C232 C223 1.390 . S
C232 H225 0.950 . S
C232 C229 1.387 . S
C233 C234 1.387 . S
C233 H237 0.950 . S
C233 C242 1.390 . S
C234 C233 1.387 . S
C234 C236 1.387 . S
H235 C242 0.950 . S
C236 C234 1.387 . S
C236 C238 1.390 . S
C236 H240 0.950 . S
H237 C233 0.950 . S
C238 C236 1.390 . S
C238 C239 1.387 . S
C238 H241 0.950 . S
C239 C238 1.387 . S
C239 C242 1.387 . S
H240 C236 0.950 . S
H241 C238 0.950 . S
C242 C233 1.390 . S
C242 H235 0.950 . S
C242 C239 1.387 . S
C243 C244 1.387 . S
C243 H247 0.950 . S
C243 C252 1.390 . S
C244 C243 1.387 . S
C244 C246 1.387 1_545 S
H245 C252 0.950 . S
C246 C244 1.387 1_565 S
C246 C248 1.390 . S
C246 H250 0.950 . S
H247 C243 0.950 . S
C248 C246 1.390 . S
C248 C249 1.387 1_565 S
C248 H251 0.950 . S
C249 C248 1.387 1_545 S
C249 C252 1.387 . S
H250 C246 0.950 . S
H251 C248 0.950 . S
C252 C243 1.390 . S
C252 H245 0.950 . S
C252 C249 1.387 . S
C253 C254 1.387 . S
C253 H257 0.950 . S
C253 C262 1.390 . S
C254 C253 1.387 . S
C254 C256 1.387 . S
H255 C262 0.950 . S
C256 C254 1.387 . S
C256 C258 1.390 . S
C256 H260 0.929 1_556 S
H257 C253 0.950 . S
C258 C256 1.390 . S
C258 C259 1.387 . S
C258 H261 0.950 . S
C259 C258 1.387 . S
C259 C262 1.387 . S
H260 C256 0.929 1_554 S
H261 C258 0.950 . S
C262 C253 1.390 . S
C262 H255 0.950 . S
C262 C259 1.387 . S
C263 C264 1.387 1_655 S
C263 H267 0.950 . S
C263 C272 1.390 . S
C264 C263 1.387 1_455 S
C264 C266 1.387 . S
H265 C272 0.950 . S
C266 C264 1.387 . S
C266 C268 1.390 . S
C266 H270 0.950 . S
H267 C263 0.950 . S
C268 C266 1.390 . S
C268 C269 1.387 . S
C268 H271 0.950 . S
C269 C268 1.387 . S
C269 C272 1.387 1_455 S
H270 C266 0.950 . S
H271 C268 0.950 . S
C272 C263 1.390 . S
C272 H265 0.950 . S
C272 C269 1.387 1_655 S
C273 C274 1.387 . S
C273 H277 0.950 . S
C273 C282 1.390 . S
C274 C273 1.387 . S
C274 C276 1.387 1_565 S
H275 C282 0.950 . S
C276 C274 1.387 1_545 S
C276 C278 1.390 . S
C276 H280 0.950 . S
H277 C273 0.950 . S
C278 C276 1.390 . S
C278 C279 1.387 . S
C278 H281 0.950 . S
C279 C278 1.387 . S
C279 C282 1.387 1_545 S
H280 C276 0.950 . S
H281 C278 0.950 . S
C282 C273 1.390 . S
C282 H275 0.950 . S
C282 C279 1.387 1_565 S
C283 C284 1.387 . S
C283 H287 0.950 1_556 S
C283 C292 1.390 . S
C284 C283 1.387 . S
C284 C286 1.387 . S
H285 C292 0.950 . S
C286 C284 1.387 . S
C286 C288 1.390 . S
C286 H290 0.950 . S
H287 C283 0.950 1_554 S
C288 C286 1.390 . S
C288 C289 1.387 . S
C288 H291 0.950 . S
C289 C288 1.387 . S
C289 C292 1.387 . S
H290 C286 0.950 . S
H291 C288 0.950 . S
C292 C283 1.390 . S
C292 H285 0.950 . S
C292 C289 1.387 . S
C293 C294 1.387 . S
C293 H297 0.950 . S
C293 C302 1.390 . S
C294 C293 1.387 . S
C294 C296 1.387 . S
H295 C302 0.950 . S
C296 C294 1.387 . S
C296 C298 1.390 1_455 S
C296 H300 0.950 1_455 S
H297 C293 0.950 . S
C298 C296 1.390 1_655 S
C298 C299 1.387 1_655 S
C298 H301 0.950 . S
C299 C298 1.387 1_455 S
C299 C302 1.387 . S
H300 C296 0.950 1_655 S
H301 C298 0.950 . S
C302 C293 1.390 . S
C302 H295 0.950 . S
C302 C299 1.387 . S
C189 C60 1.443 . S
C184 C10 1.442 . S
C194 C21 1.459 . S
C199 C108 1.496 . S
C204 C31 1.407 . S
C209 C180 1.475 . S
C214 C0 1.419 . S
C219 C84 1.453 . S
C229 C132 1.476 . S
C224 C18 1.407 . S
C234 C34 1.428 . S
C239 C156 1.457 . S
C249 C117 1.441 . S
C244 C36 1.441 . S
C254 C8 1.430 . S
C259 C171 1.460 . S
C269 C75 1.444 . S
C264 C23 1.445 . S
C279 C123 1.417 . S
C274 C26 1.372 . S
C289 C165 1.514 . S
C284 C5 1.408 . S
C294 C13 1.423 . S
C299 C69 1.484 . S
