# Generated by pormake.
# Topology anh, (6,3)-cn, num edge types: 1
# Building blocks:
#     Node 0, Type 0, BuildingBlock: MIFKUJ_clean_sbu_0, # of connection points: 6
#     Node 1, Type 0, BuildingBlock: MIFKUJ_clean_sbu_0, # of connection points: 6
#     Node 2, Type 0, BuildingBlock: MIFKUJ_clean_sbu_0, # of connection points: 6
#     Node 3, Type 1, BuildingBlock: QEWDON_clean_linker_0, # of connection points: 3
#     Node 4, Type 1, BuildingBlock: QEWDON_clean_linker_0, # of connection points: 3
#     Node 5, Type 1, BuildingBlock: QEWDON_clean_linker_0, # of connection points: 3
#     Node 6, Type 1, BuildingBlock: QEWDON_clean_linker_0, # of connection points: 3
#     Node 7, Type 1, BuildingBlock: QEWDON_clean_linker_0, # of connection points: 3
#     Node 8, Type 1, BuildingBlock: QEWDON_clean_linker_0, # of connection points: 3
#     Edge 9, Type (0, 1), BuildingBlock: KIFKEQ_clean_linker_1, # of connection points: 2
#     Edge 10, Type (0, 1), BuildingBlock: KIFKEQ_clean_linker_1, # of connection points: 2
#     Edge 11, Type (0, 1), BuildingBlock: KIFKEQ_clean_linker_1, # of connection points: 2
#     Edge 12, Type (0, 1), BuildingBlock: KIFKEQ_clean_linker_1, # of connection points: 2
#     Edge 13, Type (0, 1), BuildingBlock: KIFKEQ_clean_linker_1, # of connection points: 2
#     Edge 14, Type (0, 1), BuildingBlock: KIFKEQ_clean_linker_1, # of connection points: 2
#     Edge 15, Type (0, 1), BuildingBlock: KIFKEQ_clean_linker_1, # of connection points: 2
#     Edge 16, Type (0, 1), BuildingBlock: KIFKEQ_clean_linker_1, # of connection points: 2
#     Edge 17, Type (0, 1), BuildingBlock: KIFKEQ_clean_linker_1, # of connection points: 2
#     Edge 18, Type (0, 1), BuildingBlock: KIFKEQ_clean_linker_1, # of connection points: 2
#     Edge 19, Type (0, 1), BuildingBlock: KIFKEQ_clean_linker_1, # of connection points: 2
#     Edge 20, Type (0, 1), BuildingBlock: KIFKEQ_clean_linker_1, # of connection points: 2
#     Edge 21, Type (0, 1), BuildingBlock: KIFKEQ_clean_linker_1, # of connection points: 2
#     Edge 22, Type (0, 1), BuildingBlock: KIFKEQ_clean_linker_1, # of connection points: 2
#     Edge 23, Type (0, 1), BuildingBlock: KIFKEQ_clean_linker_1, # of connection points: 2
#     Edge 24, Type (0, 1), BuildingBlock: KIFKEQ_clean_linker_1, # of connection points: 2
#     Edge 25, Type (0, 1), BuildingBlock: KIFKEQ_clean_linker_1, # of connection points: 2
#     Edge 26, Type (0, 1), BuildingBlock: KIFKEQ_clean_linker_1, # of connection points: 2
# Relax obj value: 0.064
# Max RMSD: 0.126
# Mean RMSD: 0.114
data_MOF--net-anh--node1-MIFKUJ_clean_sbu_0--node2-QEWDON_clean_linker_0--edge1-KIFKEQ_clean_linker_1
_symmetry_space_group_name_H-M    P1
_symmetry_Int_Tables_number       1
_symmetry_cell_setting            triclinic
loop_
_symmetry_equiv_pos_as_xyz
'x, y, z'
_cell_length_a     34.492977
_cell_length_b     33.859361
_cell_length_c     46.576654
_cell_angle_alpha  97.38522
_cell_angle_beta   94.570074
_cell_angle_gamma 120.28667
loop_
_atom_site_label
_atom_site_type_symbol
_atom_site_fract_x
_atom_site_fract_y
_atom_site_fract_z
_atom_type_partial_charge
Zn0 Zn 0.08148 0.60708 0.16618 0.0
Zn1 Zn 0.93732 0.52829 0.15863 0.0
C2 C 0.15877 0.60345 0.1795 0.0
O3 O 0.16052 0.63177 0.20239 0.0
C4 C 0.87618 0.55707 0.13956 0.0
O5 O 0.87958 0.53929 0.11379 0.0
O6 O 0.11214 0.674 0.16224 0.0
O7 O 0.02192 0.56873 0.14098 0.0
O8 O 0.95339 0.52827 0.11727 0.0
C9 C 0.13101 0.68527 0.1399 0.0
O10 O 0.12603 0.65219 0.11908 0.0
O11 O 0.12469 0.58488 0.15897 0.0
C12 C 0.8723 0.45767 0.18322 0.0
O13 O 0.8786 0.49505 0.20045 0.0
O14 O 0.89597 0.46262 0.16294 0.0
O15 O 0.99249 0.56017 0.1922 0.0
O16 O 0.06703 0.60213 0.207 0.0
O17 O 0.89996 0.55868 0.16247 0.0
C18 C -0.00437 0.55082 0.11658 0.0
C19 C 0.02681 0.58 0.21289 0.0
Zn20 Zn 0.5473 0.11627 0.50621 0.0
Zn21 Zn 0.49821 0.98287 0.49583 0.0
C22 C 0.63195 0.2036 0.52481 0.0
O23 O 0.60535 0.214 0.53838 0.0
C24 C 0.40606 0.91679 0.48236 0.0
O25 O 0.42192 0.9141 0.45791 0.0
O26 O 0.52049 0.1555 0.50158 0.0
O27 O 0.52974 0.07501 0.4665 0.0
O28 O 0.49961 0.99879 0.4559 0.0
C29 C 0.53293 0.17716 0.48059 0.0
O30 O 0.55686 0.16801 0.46333 0.0
O31 O 0.61574 0.16178 0.51156 0.0
C32 C 0.54222 0.93213 0.50988 0.0
O33 O 0.56612 0.96585 0.53283 0.0
O34 O 0.51369 0.93405 0.49211 0.0
O35 O 0.54574 0.03515 0.52783 0.0
O36 O 0.52867 0.08761 0.54209 0.0
O37 O 0.4332 0.94849 0.50428 0.0
C38 C 0.51429 0.03754 0.44786 0.0
C39 C 0.53336 0.05423 0.54714 0.0
Zn40 Zn 0.60721 0.51175 0.83325 0.0
Zn41 Zn 0.51341 0.54162 0.82568 0.0
C42 C 0.58804 0.42422 0.84837 0.0
O43 O 0.60993 0.4518 0.874 0.0
C44 C 0.54787 0.63541 0.8179 0.0
O45 O 0.53516 0.61244 0.79062 0.0
O46 O 0.67368 0.53346 0.83998 0.0
O47 O 0.59456 0.52827 0.79454 0.0
O48 O 0.53041 0.52938 0.78712 0.0
C49 C 0.69063 0.52419 0.81873 0.0
O50 O 0.66549 0.50513 0.79249 0.0
O51 O 0.57899 0.44116 0.82772 0.0
C52 C 0.42844 0.52017 0.8413 0.0
O53 O 0.45292 0.53252 0.86749 0.0
O54 O 0.44689 0.51983 0.81879 0.0
O55 O 0.52128 0.50734 0.85578 0.0
O56 O 0.59454 0.53832 0.87056 0.0
O57 O 0.54431 0.61295 0.83859 0.0
C58 C 0.56477 0.53068 0.77814 0.0
C59 C 0.55546 0.52806 0.8762 0.0
H60 H 0.52493 0.10891 0.22881 0.0
C61 C 0.49524 0.07624 0.21744 0.0
C62 C 0.47467 0.03905 0.23241 0.0
C63 C 0.47706 0.07142 0.18808 0.0
H64 H 0.4182 0.96888 0.22964 0.0
C65 C 0.43541 0.99723 0.21801 0.0
C66 C 0.41647 0.99259 0.18924 0.0
C67 C 0.43752 0.02916 0.17423 0.0
C68 C 0.49854 0.11029 0.17184 0.0
H69 H 0.42285 0.02431 0.15167 0.0
C70 C 0.54621 0.13986 0.17609 0.0
C71 C 0.56639 0.17572 0.16013 0.0
C72 C 0.47142 0.1176 0.15151 0.0
H73 H 0.43461 0.09651 0.14821 0.0
C74 C 0.49143 0.15269 0.13532 0.0
H75 H 0.5678 0.13461 0.19135 0.0
C76 C 0.53863 0.18156 0.13949 0.0
H77 H 0.55338 0.20927 0.12715 0.0
H78 H 0.47022 0.15787 0.11971 0.0
H79 H 0.55683 0.5918 0.5572 0.0
C80 C 0.56293 0.56486 0.54787 0.0
C81 C 0.58082 0.54626 0.5666 0.0
C82 C 0.55013 0.54655 0.51742 0.0
H83 H 0.59578 0.49172 0.5686 0.0
C84 C 0.58584 0.50924 0.55442 0.0
C85 C 0.57289 0.49088 0.5243 0.0
C86 C 0.55712 0.51086 0.50585 0.0
C87 C 0.52482 0.56048 0.498 0.0
H88 H 0.54755 0.49624 0.4825 0.0
C89 C 0.53518 0.60675 0.50225 0.0
C90 C 0.50961 0.61914 0.48474 0.0
C91 C 0.48877 0.52685 0.47559 0.0
H92 H 0.47873 0.49049 0.4722 0.0
C93 C 0.4643 0.53945 0.4576 0.0
H94 H 0.56248 0.63298 0.51951 0.0
C95 C 0.47452 0.58534 0.46214 0.0
H96 H 0.4548 0.5944 0.44812 0.0
H97 H 0.43686 0.5134 0.44039 0.0
H98 H 0.11134 0.57607 0.90253 0.0
C99 C 0.07738 0.56654 0.89293 0.0
C100 C 0.04566 0.56209 0.91133 0.0
C101 C 0.06577 0.56102 0.86233 0.0
H102 H 0.97819 0.54873 0.91357 0.0
C103 C 0.00217 0.55117 0.89913 0.0
C104 C 0.9898 0.54491 0.86879 0.0
C105 C 0.02168 0.54969 0.85053 0.0
C106 C 0.09961 0.5685 0.84252 0.0
H107 H 0.01196 0.54434 0.82701 0.0
C108 C 0.12919 0.55157 0.8461 0.0
C109 C 0.15922 0.55669 0.82615 0.0
C110 C 0.1017 0.59197 0.81929 0.0
H111 H 0.08029 0.60649 0.81634 0.0
C112 C 0.13162 0.59726 0.79961 0.0
H113 H 0.12801 0.53327 0.86378 0.0
C114 C 0.16 0.57944 0.80285 0.0
H115 H 0.18322 0.58419 0.78744 0.0
H116 H 0.13285 0.6153 0.78182 0.0
H117 H 0.97112 0.53827 0.43888 0.0
C118 C 0.0067 0.56367 0.44735 0.0
C119 C 0.03515 0.58816 0.42798 0.0
C120 C 0.02371 0.57412 0.47774 0.0
H121 H 0.10262 0.64149 0.42393 0.0
C122 C 0.08082 0.62232 0.43887 0.0
C123 C 0.09852 0.63322 0.46875 0.0
C124 C 0.0701 0.60892 0.48806 0.0
C125 C -0.00689 0.55099 0.49907 0.0
H126 H 0.08453 0.61719 0.51107 0.0
C127 C 0.95588 0.50431 0.49142 0.0
C128 C 0.92825 0.48361 0.51223 0.0
C129 C 0.00091 0.57627 0.52762 0.0
H130 H 0.02763 0.6126 0.53415 0.0
C131 C 0.97384 0.55545 0.5482 0.0
H132 H 0.94858 0.48388 0.46965 0.0
C133 C 0.93788 0.50937 0.54064 0.0
H134 H 0.91678 0.49404 0.55684 0.0
H135 H 0.98045 0.57534 0.57003 0.0
H136 H 0.55577 0.99447 0.77134 0.0
C137 C 0.56338 0.02912 0.7806 0.0
C138 C 0.56962 0.0603 0.76176 0.0
C139 C 0.56597 0.04235 0.81102 0.0
H140 H 0.5795 0.12702 0.75788 0.0
C141 C 0.57712 0.10439 0.77302 0.0
C142 C 0.57899 0.11852 0.80298 0.0
C143 C 0.57429 0.08761 0.82193 0.0
C144 C 0.55773 0.00846 0.83115 0.0
H145 H 0.57735 0.09915 0.84521 0.0
C146 C 0.56939 0.97371 0.82601 0.0
C147 C 0.56106 0.94232 0.8454 0.0
C148 C 0.53681 0.01015 0.85568 0.0
H149 H 0.5255 0.03457 0.85993 0.0
C150 C 0.52901 0.97961 0.8749 0.0
H151 H 0.58558 0.97141 0.80741 0.0
C152 C 0.54109 0.94613 0.86992 0.0
H153 H 0.53361 0.92227 0.88495 0.0
H154 H 0.51286 0.98148 0.8936 0.0
H155 H 0.49309 0.58756 0.10242 0.0
C156 C 0.5208 0.58304 0.11009 0.0
C157 C 0.54205 0.57084 0.08923 0.0
C158 C 0.53677 0.59127 0.14048 0.0
H159 H 0.59798 0.56156 0.08215 0.0
C160 C 0.58034 0.56876 0.09842 0.0
C161 C 0.59761 0.57811 0.12821 0.0
C162 C 0.57463 0.58705 0.14916 0.0
C163 C 0.517 0.60826 0.16299 0.0
H164 H 0.58783 0.59269 0.17213 0.0
C165 C 0.47131 0.5973 0.15769 0.0
C166 C 0.45471 0.61686 0.17819 0.0
C167 C 0.54486 0.63806 0.18966 0.0
H168 H 0.5805 0.64929 0.19442 0.0
C169 C 0.52772 0.65545 0.21052 0.0
H170 H 0.4489 0.57471 0.13748 0.0
C171 C 0.48309 0.64512 0.20486 0.0
H172 H 0.47086 0.65982 0.22125 0.0
H173 H 0.54951 0.67801 0.23092 0.0
H174 H 0.17379 0.55826 0.13208 0.0
H175 H 0.23256 0.63498 0.22131 0.0
H176 H 0.24353 0.55665 0.12728 0.0
H177 H 0.30132 0.63342 0.21633 0.0
H178 H 0.43438 0.68453 0.18383 0.0
H179 H 0.35946 0.6754 0.18094 0.0
H180 H 0.29603 0.52628 0.15474 0.0
H181 H 0.37191 0.53538 0.15791 0.0
C182 C 0.2012 0.57416 0.15073 0.0
C183 C 0.19792 0.59725 0.17697 0.0
C184 C 0.24092 0.57313 0.14796 0.0
C185 C 0.27782 0.59547 0.17132 0.0
C186 C 0.27355 0.61657 0.19785 0.0
C187 C 0.2341 0.61739 0.20068 0.0
C188 C 0.40452 0.64977 0.17725 0.0
C189 C 0.40891 0.61057 0.17176 0.0
C190 C 0.36171 0.6446 0.17552 0.0
C191 C 0.32218 0.60012 0.16815 0.0
C192 C 0.32616 0.56093 0.16055 0.0
C193 C 0.3694 0.56613 0.16237 0.0
H194 H 0.66474 0.29684 0.53608 0.0
H195 H 0.70093 0.19629 0.50383 0.0
H196 H 0.73641 0.35948 0.5268 0.0
H197 H 0.77352 0.25977 0.49484 0.0
H198 H 0.91833 0.40482 0.52798 0.0
H199 H 0.84614 0.33247 0.52741 0.0
H200 H 0.77357 0.38533 0.48178 0.0
H201 H 0.84586 0.45726 0.48209 0.0
C202 C 0.68815 0.28807 0.52723 0.0
C203 C 0.67718 0.24151 0.52088 0.0
C204 C 0.72903 0.32399 0.52158 0.0
C205 C 0.76033 0.31446 0.50977 0.0
C206 C 0.74993 0.26806 0.50388 0.0
C207 C 0.7085 0.23183 0.50911 0.0
C208 C 0.88701 0.40001 0.51687 0.0
C209 C 0.88743 0.43614 0.50481 0.0
C210 C 0.84576 0.35879 0.51662 0.0
C211 C 0.80425 0.35356 0.50487 0.0
C212 C 0.80506 0.38864 0.49121 0.0
C213 C 0.84633 0.42951 0.49109 0.0
H214 H 0.5744 0.69491 0.77952 0.0
H215 H 0.54969 0.68847 0.86867 0.0
H216 H 0.58601 0.77278 0.78572 0.0
H217 H 0.55989 0.76608 0.87472 0.0
H218 H 0.60404 0.91749 0.88477 0.0
H219 H 0.60878 0.84751 0.87882 0.0
H220 H 0.54253 0.80868 0.78845 0.0
H221 H 0.53896 0.87943 0.7944 0.0
C222 C 0.57172 0.71027 0.80059 0.0
C223 C 0.56084 0.68521 0.82357 0.0
C224 C 0.57804 0.75495 0.80406 0.0
C225 C 0.57332 0.77591 0.83059 0.0
C226 C 0.56428 0.75154 0.85402 0.0
C227 C 0.55831 0.70685 0.85059 0.0
C228 C 0.59107 0.89427 0.8635 0.0
C229 C 0.57083 0.90394 0.8401 0.0
C230 C 0.59344 0.85386 0.86014 0.0
C231 C 0.5754 0.82167 0.83329 0.0
C232 C 0.55721 0.83261 0.80944 0.0
C233 C 0.55514 0.8733 0.81278 0.0
H234 H 0.84096 0.56897 0.18842 0.0
H235 H 0.83096 0.5717 0.09571 0.0
H236 H 0.77656 0.58059 0.19048 0.0
H237 H 0.76695 0.58302 0.09776 0.0
H238 H 0.67645 0.63828 0.11202 0.0
H239 H 0.7486 0.64099 0.11904 0.0
H240 H 0.69199 0.53228 0.16978 0.0
H241 H 0.61953 0.53027 0.16302 0.0
C242 C 0.8255 0.57276 0.16862 0.0
C243 C 0.84097 0.5694 0.14188 0.0
C244 C 0.78846 0.57903 0.16977 0.0
C245 C 0.76676 0.58271 0.14431 0.0
C246 C 0.78331 0.58088 0.11785 0.0
C247 C 0.81987 0.57416 0.11663 0.0
C248 C 0.67974 0.61546 0.12503 0.0
C249 C 0.6425 0.58358 0.13664 0.0
C250 C 0.7209 0.61692 0.12898 0.0
C251 C 0.72568 0.58633 0.14453 0.0
C252 C 0.68929 0.55639 0.15778 0.0
C253 C 0.64789 0.55508 0.15389 0.0
H254 H 0.33983 0.85392 0.43741 0.0
H255 H 0.36679 0.8943 0.53203 0.0
H256 H 0.26782 0.78533 0.43976 0.0
H257 H 0.2935 0.82448 0.53431 0.0
H258 H 0.12972 0.71283 0.50984 0.0
H259 H 0.20534 0.7843 0.51743 0.0
H260 H 0.24961 0.7123 0.45796 0.0
H261 H 0.1744 0.64173 0.45018 0.0
C262 C 0.33026 0.84837 0.45879 0.0
C263 C 0.35945 0.87938 0.48456 0.0
C264 C 0.28901 0.80875 0.46012 0.0
C265 C 0.27553 0.79882 0.48725 0.0
C266 C 0.30326 0.83108 0.5131 0.0
C267 C 0.34505 0.87105 0.51177 0.0
C268 C 0.15619 0.71211 0.49915 0.0
C269 C 0.14626 0.67205 0.47918 0.0
C270 C 0.19934 0.75297 0.50342 0.0
C271 C 0.23301 0.75417 0.48774 0.0
C272 C 0.22401 0.71277 0.4698 0.0
C273 C 0.18111 0.67228 0.46548 0.0
H274 H 0.57319 0.36912 0.79521 0.0
H275 H 0.58839 0.372 0.88851 0.0
H276 H 0.57163 0.29553 0.78629 0.0
H277 H 0.5864 0.29813 0.8795 0.0
H278 H 0.53477 0.13958 0.8435 0.0
H279 H 0.5343 0.21196 0.85536 0.0
H280 H 0.63054 0.27321 0.79715 0.0
H281 H 0.6322 0.20185 0.78596 0.0
C282 C 0.57542 0.3537 0.81379 0.0
C283 C 0.58094 0.37655 0.84258 0.0
C284 C 0.57498 0.31174 0.8087 0.0
C285 C 0.57934 0.29117 0.83221 0.0
C286 C 0.58288 0.31297 0.86091 0.0
C287 C 0.58407 0.35534 0.86605 0.0
C288 C 0.55661 0.1688 0.83372 0.0
C289 C 0.58312 0.16445 0.81348 0.0
C290 C 0.55607 0.21019 0.84037 0.0
C291 C 0.5817 0.24804 0.82675 0.0
C292 C 0.60953 0.24433 0.80746 0.0
C293 C 0.61049 0.20334 0.8011 0.0
H294 H 0.59605 0.91219 0.54425 0.0
H295 H 0.49166 0.85509 0.46711 0.0
H296 H 0.59159 0.83697 0.54014 0.0
H297 H 0.48751 0.78105 0.46325 0.0
H298 H 0.44663 0.64378 0.48928 0.0
H299 H 0.45916 0.72213 0.4971 0.0
H300 H 0.60408 0.78043 0.50278 0.0
H301 H 0.59153 0.70151 0.49477 0.0
C302 C 0.57263 0.8839 0.52632 0.0
C303 C 0.54391 0.88933 0.50618 0.0
C304 C 0.57018 0.8411 0.52399 0.0
C305 C 0.53872 0.8034 0.50167 0.0
C306 C 0.51145 0.8095 0.48095 0.0
C307 C 0.51407 0.85202 0.48312 0.0
C308 C 0.48112 0.6733 0.49205 0.0
C309 C 0.51804 0.66679 0.49087 0.0
C310 C 0.48829 0.71798 0.49666 0.0
C311 C 0.53249 0.75693 0.50013 0.0
C312 C 0.56974 0.75073 0.50021 0.0
C313 C 0.56254 0.7058 0.49556 0.0
H314 H 0.73827 0.53391 0.87133 0.0
H315 H 0.74388 0.5233 0.77847 0.0
H316 H 0.80928 0.53479 0.88016 0.0
H317 H 0.81538 0.52437 0.78744 0.0
H318 H 0.96997 0.58665 0.82827 0.0
H319 H 0.89692 0.58012 0.81378 0.0
H320 H 0.83456 0.47764 0.86804 0.0
H321 H 0.90738 0.4839 0.88237 0.0
C322 C 0.75492 0.53225 0.85283 0.0
C323 C 0.73558 0.52867 0.82421 0.0
C324 C 0.79531 0.53223 0.85786 0.0
C325 C 0.81756 0.52915 0.83444 0.0
C326 C 0.79891 0.52678 0.80588 0.0
C327 C 0.75805 0.52615 0.80078 0.0
C328 C 0.94041 0.56198 0.83657 0.0
C329 C 0.94446 0.5362 0.85674 0.0
C330 C 0.89866 0.55833 0.82832 0.0
C331 C 0.86033 0.52896 0.84018 0.0
C332 C 0.86385 0.50134 0.85908 0.0
C333 C 0.90545 0.50487 0.86725 0.0
H334 H 0.1904 0.71937 0.10156 0.0
H335 H 0.15053 0.76232 0.17969 0.0
H336 H 0.25765 0.79747 0.10842 0.0
H337 H 0.21771 0.8404 0.1863 0.0
H338 H 0.33441 0.98494 0.18053 0.0
H339 H 0.25989 0.91322 0.16298 0.0
H340 H 0.32652 0.83467 0.15064 0.0
H341 H 0.4007 0.90629 0.16866 0.0
C342 C 0.19536 0.74569 0.1198 0.0
C343 C 0.16561 0.73447 0.1404 0.0
C344 C 0.23393 0.79029 0.12373 0.0
C345 C 0.24302 0.82457 0.14806 0.0
C346 C 0.21135 0.81454 0.1673 0.0
C347 C 0.17301 0.7698 0.16356 0.0
C348 C 0.33282 0.95229 0.17358 0.0
C349 C 0.37269 0.95055 0.17575 0.0
C350 C 0.29046 0.91148 0.16366 0.0
C351 C 0.28764 0.86864 0.15535 0.0
C352 C 0.32788 0.86741 0.15653 0.0
C353 C 0.37013 0.90808 0.16692 0.0
H354 H 0.58128 0.2468 0.45158 0.0
H355 H 0.48156 0.20355 0.50969 0.0
H356 H 0.58975 0.32352 0.45874 0.0
H357 H 0.48973 0.28035 0.51633 0.0
H358 H 0.49369 0.4134 0.49866 0.0
H359 H 0.47945 0.33478 0.48333 0.0
H360 H 0.62237 0.38661 0.50982 0.0
H361 H 0.63653 0.46554 0.52573 0.0
C362 C 0.56036 0.25325 0.4653 0.0
C363 C 0.53099 0.21941 0.48031 0.0
C364 C 0.56552 0.29719 0.46949 0.0
C365 C 0.54072 0.3075 0.48824 0.0
C366 C 0.50912 0.27283 0.50172 0.0
C367 C 0.50447 0.22907 0.49793 0.0
C368 C 0.5221 0.40796 0.50075 0.0
C369 C 0.56624 0.44507 0.51303 0.0
C370 C 0.5139 0.36321 0.49216 0.0
C371 C 0.54988 0.35518 0.49534 0.0
C372 C 0.5943 0.39246 0.50694 0.0
C373 C 0.60239 0.43724 0.51608 0.0
H374 H 0.37486 0.50591 0.88356 0.0
H375 H 0.37778 0.51825 0.79249 0.0
H376 H 0.30284 0.50359 0.88042 0.0
H377 H 0.30709 0.51803 0.78961 0.0
H378 H 0.16995 0.49921 0.78549 0.0
H379 H 0.22832 0.47865 0.78932 0.0
H380 H 0.27968 0.55793 0.87838 0.0
H381 H 0.21987 0.57634 0.87474 0.0
C382 C 0.35993 0.50782 0.86281 0.0
C383 C 0.38218 0.51275 0.83835 0.0
C384 C 0.31878 0.50678 0.86105 0.0
C385 C 0.29928 0.51124 0.83488 0.0
C386 C 0.32061 0.51392 0.81004 0.0
C387 C 0.36142 0.51436 0.81171 0.0
C388 C 0.19338 0.51148 0.80599 0.0
C389 C 0.19079 0.53956 0.82977 0.0
C390 C 0.22698 0.49999 0.80818 0.0
C391 C 0.25926 0.51713 0.83402 0.0
C392 C 0.25518 0.54354 0.85825 0.0
C393 C 0.22107 0.55435 0.85619 0.0
H394 H 0.80584 0.43787 0.21654 0.0
H395 H 0.85153 0.37274 0.15295 0.0
H396 H 0.73628 0.36339 0.21351 0.0
H397 H 0.78197 0.29756 0.15045 0.0
H398 H 0.62336 0.20483 0.12001 0.0
H399 H 0.70282 0.26817 0.12917 0.0
H400 H 0.70126 0.28406 0.22257 0.0
H401 H 0.62133 0.22131 0.21326 0.0
C402 C 0.80154 0.40741 0.20243 0.0
C403 C 0.83389 0.41125 0.18471 0.0
C404 C 0.76173 0.36459 0.20084 0.0
C405 C 0.75355 0.32463 0.18163 0.0
C406 C 0.78713 0.32793 0.16516 0.0
C407 C 0.82695 0.3709 0.16666 0.0
C408 C 0.64026 0.22154 0.14249 0.0
C409 C 0.61619 0.20871 0.1659 0.0
C410 C 0.68587 0.25744 0.14778 0.0
C411 C 0.70817 0.28133 0.1766 0.0
C412 C 0.68478 0.2666 0.20012 0.0
C413 C 0.6392 0.23051 0.19482 0.0
H414 H 0.95943 0.56956 0.0706 0.0
H415 H 0.06918 0.54954 0.09948 0.0
H416 H 0.98445 0.58034 0.02321 0.0
H417 H 0.09407 0.55954 0.05143 0.0
H418 H 0.05918 0.50817 0.94475 0.0
H419 H 0.05665 0.5117 0.99755 0.0
H420 H 0.05277 0.63786 0.00263 0.0
H421 H 0.05489 0.63393 0.95006 0.0
C422 C 0.98905 0.56763 0.06674 0.0
C423 C 0.01246 0.55881 0.08855 0.0
C424 C 0.00363 0.57418 0.03975 0.0
C425 C 0.04143 0.57112 0.03374 0.0
C426 C 0.06493 0.5622 0.05557 0.0
C427 C 0.05083 0.55661 0.08296 0.0
C428 C 0.05956 0.5375 0.95751 0.0
C429 C 0.05718 0.57077 0.94359 0.0
C430 C 0.05803 0.53952 0.98763 0.0
C431 C 0.05387 0.57472 0.00403 0.0
C432 C 0.05538 0.61006 0.99042 0.0
C433 C 0.0569 0.60802 0.96047 0.0
H434 H 0.56446 0.11306 0.42319 0.0
H435 H 0.4632 0.96584 0.40106 0.0
H436 H 0.56206 0.11661 0.37122 0.0
H437 H 0.46053 0.96937 0.34906 0.0
H438 H 0.48996 0.97884 0.25764 0.0
H439 H 0.50502 0.98035 0.30997 0.0
H440 H 0.5104 0.1114 0.33023 0.0
H441 H 0.49608 0.11011 0.27782 0.0
C442 C 0.54131 0.08156 0.40725 0.0
C443 C 0.51354 0.03932 0.41627 0.0
C444 C 0.54008 0.08357 0.37744 0.0
C445 C 0.51113 0.04331 0.35597 0.0
C446 C 0.48379 1.00091 0.36501 0.0
C447 C 0.4851 0.9989 0.39482 0.0
C448 C 0.49502 0.00826 0.27334 0.0
C449 C 0.49147 0.04415 0.26374 0.0
C450 C 0.50336 0.009 0.30327 0.0
C451 C 0.50809 0.04555 0.32428 0.0
C452 C 0.50715 0.08284 0.31463 0.0
C453 C 0.49902 0.08218 0.28462 0.0
H454 H 0.49863 0.50123 0.73105 0.0
H455 H 0.64469 0.57636 0.75726 0.0
H456 H 0.5079 0.51473 0.68146 0.0
H457 H 0.65437 0.59248 0.70786 0.0
H458 H 0.64798 0.55569 0.60754 0.0
H459 H 0.64706 0.55677 0.6597 0.0
H460 H 0.52875 0.57038 0.65183 0.0
H461 H 0.52746 0.56532 0.59932 0.0
C462 C 0.53279 0.52101 0.72617 0.0
C463 C 0.57093 0.53744 0.74786 0.0
C464 C 0.5382 0.52938 0.69782 0.0
C465 C 0.58194 0.55531 0.6906 0.0
C466 C 0.62018 0.57194 0.71247 0.0
C467 C 0.6147 0.5627 0.74075 0.0
C468 C 0.62196 0.55926 0.61702 0.0
C469 C 0.58722 0.55933 0.59908 0.0
C470 C 0.6217 0.56038 0.64706 0.0
C471 C 0.5871 0.56244 0.65995 0.0
C472 C 0.55504 0.56721 0.64249 0.0
C473 C 0.55483 0.56525 0.61236 0.0
H474 H 0.59617 0.04088 0.57606 0.0
H475 H 0.47842 0.05154 0.58666 0.0
H476 H 0.60427 0.03248 0.6272 0.0
H477 H 0.48621 0.04262 0.63789 0.0
H478 H 0.49514 0.99168 0.72298 0.0
H479 H 0.48429 0.98249 0.66921 0.0
H480 H 0.62448 0.09197 0.67517 0.0
H481 H 0.63491 0.10146 0.72868 0.0
C482 C 0.57149 0.04046 0.5892 0.0
C483 C 0.53653 0.04664 0.57749 0.0
C484 C 0.57627 0.03589 0.61845 0.0
C485 C 0.5457 0.03661 0.63638 0.0
C486 C 0.50989 0.04138 0.6244 0.0
C487 C 0.50566 0.04688 0.59527 0.0
C488 C 0.52383 0.0127 0.71261 0.0
C489 C 0.56587 0.04711 0.72974 0.0
C490 C 0.51756 0.0078 0.68199 0.0
C491 C 0.55348 0.03674 0.66814 0.0
C492 C 0.59633 0.069 0.68526 0.0
C493 C 0.60234 0.0744 0.7158 0.0
H494 H 0.61871 0.5893 0.92381 0.0
H495 H 0.47671 0.48135 0.89815 0.0
H496 H 0.60685 0.60051 0.97456 0.0
H497 H 0.46486 0.49287 0.94879 0.0
H498 H 0.49301 0.48935 0.04993 0.0
H499 H 0.4916 0.47946 0.99678 0.0
H500 H 0.5642 0.62906 0.00434 0.0
H501 H 0.56525 0.6386 0.05751 0.0
C502 C 0.58499 0.56813 0.92899 0.0
C503 C 0.54861 0.53474 0.90697 0.0
C504 C 0.57807 0.57485 0.95795 0.0
C505 C 0.53477 0.54793 0.96551 0.0
C506 C 0.49852 0.5142 0.94356 0.0
C507 C 0.50532 0.50782 0.91457 0.0
C508 C 0.50684 0.51986 0.03992 0.0
C509 C 0.52854 0.56465 0.05746 0.0
C510 C 0.50636 0.51431 0.00962 0.0
C511 C 0.52831 0.55355 0.99654 0.0
C512 C 0.54748 0.59827 0.01394 0.0
C513 C 0.54749 0.60376 0.04419 0.0
H514 H 0.95418 0.51502 0.23464 0.0
H515 H 0.08651 0.64075 0.26136 0.0
H516 H 0.946 0.51285 0.28645 0.0
H517 H 0.07851 0.63848 0.31261 0.0
H518 H 0.03734 0.65298 0.39879 0.0
H519 H 0.02791 0.64807 0.34578 0.0
H520 H 0.9874 0.50293 0.33249 0.0
H521 H -0.00313 0.508 0.38604 0.0
C522 C 0.98116 0.54242 0.25151 0.0
C523 C 0.0207 0.57835 0.24392 0.0
C524 C 0.97666 0.54093 0.28111 0.0
C525 C 0.01138 0.57579 0.30352 0.0
C526 C 0.05083 0.61156 0.29581 0.0
C527 C 0.05553 0.6127 0.26643 0.0
C528 C 0.02527 0.61971 0.38451 0.0
C529 C 0.01819 0.58097 0.39639 0.0
C530 C 0.02013 0.61696 0.35421 0.0
C531 C 0.00776 0.57538 0.33506 0.0
C532 C -0.00304 0.53542 0.34679 0.0
C533 C 0.00222 0.53823 0.37734 0.0
loop_
_geom_bond_atom_site_label_1
_geom_bond_atom_site_label_2
_geom_bond_distance
_geom_bond_site_symmetry_2
_ccdc_geom_bond_type
Zn0 O6 1.969 . S
Zn0 O7 1.965 . S
Zn0 O11 2.024 . S
Zn0 O16 1.969 . S
Zn1 O8 1.969 . S
Zn1 O14 1.969 . S
Zn1 O15 1.951 1_655 S
Zn1 O17 2.024 . S
C2 O3 1.229 . S
C2 O11 1.058 . S
O3 C2 1.229 . S
C4 O5 1.229 . S
C4 O17 1.058 . S
O5 C4 1.229 . S
O6 Zn0 1.969 . S
O6 C9 1.267 . S
O7 Zn0 1.965 . S
O7 C18 1.260 . S
O8 Zn1 1.969 . S
O8 C18 1.258 1_655 S
C9 O6 1.267 . S
C9 O10 1.228 . S
O10 C9 1.228 . S
O11 Zn0 2.024 . S
O11 C2 1.058 . S
C12 O13 1.228 . S
C12 O14 1.267 . S
O13 C12 1.228 . S
O14 Zn1 1.969 . S
O14 C12 1.267 . S
O15 Zn1 1.951 1_455 S
O15 C19 1.266 . S
O16 Zn0 1.969 . S
O16 C19 1.258 . S
O17 Zn1 2.024 . S
O17 C4 1.058 . S
C18 O7 1.260 . S
C18 O8 1.258 1_455 S
C19 O15 1.266 . S
C19 O16 1.258 . S
Zn20 O26 1.969 . S
Zn20 O27 1.965 . S
Zn20 O31 2.024 . S
Zn20 O36 1.969 . S
Zn21 O28 1.969 . S
Zn21 O34 1.969 . S
Zn21 O35 1.965 1_565 S
Zn21 O37 2.024 . S
C22 O23 1.229 . S
C22 O31 1.058 . S
O23 C22 1.229 . S
C24 O25 1.229 . S
C24 O37 1.058 . S
O25 C24 1.229 . S
O26 Zn20 1.969 . S
O26 C29 1.267 . S
O27 Zn20 1.965 . S
O27 C38 1.260 . S
O28 Zn21 1.969 . S
O28 C38 1.258 1_565 S
C29 O26 1.267 . S
C29 O30 1.228 . S
O30 C29 1.228 . S
O31 Zn20 2.024 . S
O31 C22 1.058 . S
C32 O33 1.228 . S
C32 O34 1.267 . S
O33 C32 1.228 . S
O34 Zn21 1.969 . S
O34 C32 1.267 . S
O35 Zn21 1.965 1_545 S
O35 C39 1.260 . S
O36 Zn20 1.969 . S
O36 C39 1.258 . S
O37 Zn21 2.024 . S
O37 C24 1.058 . S
C38 O27 1.260 . S
C38 O28 1.258 1_545 S
C39 O35 1.260 . S
C39 O36 1.258 . S
Zn40 O46 1.969 . S
Zn40 O47 1.965 . S
Zn40 O51 2.024 . S
Zn40 O56 1.969 . S
Zn41 O48 1.969 . S
Zn41 O54 1.969 . S
Zn41 O55 1.965 . S
Zn41 O57 2.024 . S
C42 O43 1.229 . S
C42 O51 1.058 . S
O43 C42 1.229 . S
C44 O45 1.229 . S
C44 O57 1.058 . S
O45 C44 1.229 . S
O46 Zn40 1.969 . S
O46 C49 1.267 . S
O47 Zn40 1.965 . S
O47 C58 1.260 . S
O48 Zn41 1.969 . S
O48 C58 1.258 . S
C49 O46 1.267 . S
C49 O50 1.228 . S
O50 C49 1.228 . S
O51 Zn40 2.024 . S
O51 C42 1.058 . S
C52 O53 1.228 . S
C52 O54 1.267 . S
O53 C52 1.228 . S
O54 Zn41 1.969 . S
O54 C52 1.267 . S
O55 Zn41 1.965 . S
O55 C59 1.260 . S
O56 Zn40 1.969 . S
O56 C59 1.258 . S
O57 Zn41 2.024 . S
O57 C44 1.058 . S
C58 O47 1.260 . S
C58 O48 1.258 . S
C59 O55 1.260 . S
C59 O56 1.258 . S
H60 C61 0.949 . S
C61 H60 0.949 . S
C61 C62 1.395 . S
C61 C63 1.391 . S
C62 C61 1.395 . S
C62 C65 1.390 . S
C63 C61 1.391 . S
C63 C67 1.387 . S
C63 C68 1.491 . S
H64 C65 0.950 1_565 S
C65 C62 1.390 . S
C65 H64 0.950 1_545 S
C65 C66 1.381 1_545 S
C66 C65 1.381 1_565 S
C66 C67 1.396 1_565 S
C67 C63 1.387 . S
C67 C66 1.396 1_545 S
C67 H69 0.951 . S
C68 C63 1.491 . S
C68 C70 1.382 . S
C68 C72 1.404 . S
H69 C67 0.951 . S
C70 C68 1.382 . S
C70 C71 1.390 . S
C70 H75 0.949 . S
C71 C70 1.390 . S
C71 C76 1.399 . S
C72 C68 1.404 . S
C72 H73 0.950 . S
C72 C74 1.375 . S
H73 C72 0.950 . S
C74 C72 1.375 . S
C74 C76 1.382 . S
C74 H78 0.950 . S
H75 C70 0.949 . S
C76 C71 1.399 . S
C76 C74 1.382 . S
C76 H77 0.952 . S
H77 C76 0.952 . S
H78 C74 0.950 . S
H79 C80 0.949 . S
C80 H79 0.949 . S
C80 C81 1.395 . S
C80 C82 1.391 . S
C81 C80 1.395 . S
C81 C84 1.390 . S
C82 C80 1.391 . S
C82 C86 1.387 . S
C82 C87 1.491 . S
H83 C84 0.950 . S
C84 C81 1.390 . S
C84 H83 0.950 . S
C84 C85 1.378 . S
C85 C84 1.378 . S
C85 C86 1.409 . S
C86 C82 1.387 . S
C86 C85 1.409 . S
C86 H88 0.951 . S
C87 C82 1.491 . S
C87 C89 1.382 . S
C87 C91 1.404 . S
H88 C86 0.951 . S
C89 C87 1.382 . S
C89 C90 1.390 . S
C89 H94 0.949 . S
C90 C89 1.390 . S
C90 C95 1.399 . S
C91 C87 1.404 . S
C91 H92 0.950 . S
C91 C93 1.375 . S
H92 C91 0.950 . S
C93 C91 1.375 . S
C93 C95 1.382 . S
C93 H97 0.950 . S
H94 C89 0.949 . S
C95 C90 1.399 . S
C95 C93 1.382 . S
C95 H96 0.952 . S
H96 C95 0.952 . S
H97 C93 0.950 . S
H98 C99 0.949 . S
C99 H98 0.949 . S
C99 C100 1.395 . S
C99 C101 1.391 . S
C100 C99 1.395 . S
C100 C103 1.390 1_455 S
C101 C99 1.391 . S
C101 C105 1.387 . S
C101 C106 1.491 . S
H102 C103 0.950 . S
C103 C100 1.390 1_655 S
C103 H102 0.950 . S
C103 C104 1.378 . S
C104 C103 1.378 . S
C104 C105 1.409 1_655 S
C105 C101 1.387 . S
C105 C104 1.409 1_455 S
C105 H107 0.951 . S
C106 C101 1.491 . S
C106 C108 1.382 . S
C106 C110 1.404 . S
H107 C105 0.951 . S
C108 C106 1.382 . S
C108 C109 1.390 . S
C108 H113 0.949 . S
C109 C108 1.390 . S
C109 C114 1.399 . S
C110 C106 1.404 . S
C110 H111 0.950 . S
C110 C112 1.375 . S
H111 C110 0.950 . S
C112 C110 1.375 . S
C112 C114 1.382 . S
C112 H116 0.950 . S
H113 C108 0.949 . S
C114 C109 1.399 . S
C114 C112 1.382 . S
C114 H115 0.952 . S
H115 C114 0.952 . S
H116 C112 0.950 . S
H117 C118 0.949 1_655 S
C118 H117 0.949 1_455 S
C118 C119 1.395 . S
C118 C120 1.391 . S
C119 C118 1.395 . S
C119 C122 1.390 . S
C120 C118 1.391 . S
C120 C124 1.387 . S
C120 C125 1.491 1_455 S
H121 C122 0.950 . S
C122 C119 1.390 . S
C122 H121 0.950 . S
C122 C123 1.378 . S
C123 C122 1.378 . S
C123 C124 1.409 . S
C124 C120 1.387 . S
C124 C123 1.409 . S
C124 H126 0.951 . S
C125 C120 1.491 1_655 S
C125 C127 1.382 . S
C125 C129 1.404 . S
H126 C124 0.951 . S
C127 C125 1.382 . S
C127 C128 1.390 . S
C127 H132 0.949 . S
C128 C127 1.390 . S
C128 C133 1.399 . S
C129 C125 1.404 . S
C129 H130 0.950 1_655 S
C129 C131 1.375 . S
H130 C129 0.950 1_455 S
C131 C129 1.375 . S
C131 C133 1.382 . S
C131 H135 0.950 . S
H132 C127 0.949 . S
C133 C128 1.399 . S
C133 C131 1.382 . S
C133 H134 0.952 . S
H134 C133 0.952 . S
H135 C131 0.950 . S
H136 C137 0.949 . S
C137 H136 0.949 . S
C137 C138 1.395 . S
C137 C139 1.391 . S
C138 C137 1.395 . S
C138 C141 1.390 . S
C139 C137 1.391 . S
C139 C143 1.387 . S
C139 C144 1.491 . S
H140 C141 0.950 . S
C141 C138 1.390 . S
C141 H140 0.950 . S
C141 C142 1.378 . S
C142 C141 1.378 . S
C142 C143 1.409 . S
C143 C139 1.387 . S
C143 C142 1.409 . S
C143 H145 0.951 . S
C144 C139 1.491 . S
C144 C146 1.382 1_545 S
C144 C148 1.404 1_545 S
H145 C143 0.951 . S
C146 C144 1.382 1_565 S
C146 C147 1.390 . S
C146 H151 0.949 . S
C147 C146 1.390 . S
C147 C152 1.399 . S
C148 C144 1.404 1_565 S
C148 H149 0.950 1_565 S
C148 C150 1.375 . S
H149 C148 0.950 1_545 S
C150 C148 1.375 . S
C150 C152 1.382 . S
C150 H154 0.950 . S
H151 C146 0.949 . S
C152 C147 1.399 . S
C152 C150 1.382 . S
C152 H153 0.952 . S
H153 C152 0.952 . S
H154 C150 0.950 . S
H155 C156 0.949 . S
C156 H155 0.949 . S
C156 C157 1.395 . S
C156 C158 1.391 . S
C157 C156 1.395 . S
C157 C160 1.390 . S
C158 C156 1.391 . S
C158 C162 1.387 . S
C158 C163 1.491 . S
H159 C160 0.950 . S
C160 C157 1.390 . S
C160 H159 0.950 . S
C160 C161 1.378 . S
C161 C160 1.378 . S
C161 C162 1.409 . S
C162 C158 1.387 . S
C162 C161 1.409 . S
C162 H164 0.951 . S
C163 C158 1.491 . S
C163 C165 1.382 . S
C163 C167 1.404 . S
H164 C162 0.951 . S
C165 C163 1.382 . S
C165 C166 1.390 . S
C165 H170 0.949 . S
C166 C165 1.390 . S
C166 C171 1.399 . S
C167 C163 1.404 . S
C167 H168 0.950 . S
C167 C169 1.375 . S
H168 C167 0.950 . S
C169 C167 1.375 . S
C169 C171 1.382 . S
C169 H173 0.950 . S
H170 C165 0.949 . S
C171 C166 1.399 . S
C171 C169 1.382 . S
C171 H172 0.952 . S
H172 C171 0.952 . S
H173 C169 0.950 . S
H174 C182 0.950 . S
H175 C187 0.950 . S
H176 C184 0.950 . S
H177 C186 0.950 . S
H178 C188 0.950 . S
H179 C190 0.950 . S
H180 C192 0.950 . S
H181 C193 0.950 . S
C182 H174 0.950 . S
C182 C183 1.386 . S
C182 C184 1.391 . S
C183 C182 1.386 . S
C183 C187 1.393 . S
C184 H176 0.950 . S
C184 C182 1.391 . S
C184 C185 1.400 . S
C185 C184 1.400 . S
C185 C186 1.398 . S
C185 C191 1.491 . S
C186 H177 0.950 . S
C186 C185 1.398 . S
C186 C187 1.391 . S
C187 H175 0.950 . S
C187 C183 1.393 . S
C187 C186 1.391 . S
C188 H178 0.950 . S
C188 C189 1.386 . S
C188 C190 1.391 . S
C189 C188 1.386 . S
C189 C193 1.393 . S
C190 H179 0.950 . S
C190 C188 1.391 . S
C190 C191 1.400 . S
C191 C185 1.491 . S
C191 C190 1.400 . S
C191 C192 1.398 . S
C192 H180 0.950 . S
C192 C191 1.398 . S
C192 C193 1.391 . S
C193 H181 0.950 . S
C193 C189 1.393 . S
C193 C192 1.391 . S
H194 C202 0.950 . S
H195 C207 0.950 . S
H196 C204 0.950 . S
H197 C206 0.950 . S
H198 C208 0.950 . S
H199 C210 0.950 . S
H200 C212 0.950 . S
H201 C213 0.950 . S
C202 H194 0.950 . S
C202 C203 1.386 . S
C202 C204 1.391 . S
C203 C202 1.386 . S
C203 C207 1.393 . S
C204 H196 0.950 . S
C204 C202 1.391 . S
C204 C205 1.400 . S
C205 C204 1.400 . S
C205 C206 1.398 . S
C205 C211 1.491 . S
C206 H197 0.950 . S
C206 C205 1.398 . S
C206 C207 1.391 . S
C207 H195 0.950 . S
C207 C203 1.393 . S
C207 C206 1.391 . S
C208 H198 0.950 . S
C208 C209 1.386 . S
C208 C210 1.391 . S
C209 C208 1.386 . S
C209 C213 1.393 . S
C210 H199 0.950 . S
C210 C208 1.391 . S
C210 C211 1.400 . S
C211 C205 1.491 . S
C211 C210 1.400 . S
C211 C212 1.398 . S
C212 H200 0.950 . S
C212 C211 1.398 . S
C212 C213 1.391 . S
C213 H201 0.950 . S
C213 C209 1.393 . S
C213 C212 1.391 . S
H214 C222 0.950 . S
H215 C227 0.950 . S
H216 C224 0.950 . S
H217 C226 0.950 . S
H218 C228 0.950 . S
H219 C230 0.950 . S
H220 C232 0.950 . S
H221 C233 0.950 . S
C222 H214 0.950 . S
C222 C223 1.386 . S
C222 C224 1.391 . S
C223 C222 1.386 . S
C223 C227 1.393 . S
C224 H216 0.950 . S
C224 C222 1.391 . S
C224 C225 1.400 . S
C225 C224 1.400 . S
C225 C226 1.398 . S
C225 C231 1.491 . S
C226 H217 0.950 . S
C226 C225 1.398 . S
C226 C227 1.391 . S
C227 H215 0.950 . S
C227 C223 1.393 . S
C227 C226 1.391 . S
C228 H218 0.950 . S
C228 C229 1.386 . S
C228 C230 1.391 . S
C229 C228 1.386 . S
C229 C233 1.393 . S
C230 H219 0.950 . S
C230 C228 1.391 . S
C230 C231 1.400 . S
C231 C225 1.491 . S
C231 C230 1.400 . S
C231 C232 1.398 . S
C232 H220 0.950 . S
C232 C231 1.398 . S
C232 C233 1.391 . S
C233 H221 0.950 . S
C233 C229 1.393 . S
C233 C232 1.391 . S
H234 C242 0.950 . S
H235 C247 0.950 . S
H236 C244 0.950 . S
H237 C246 0.950 . S
H238 C248 0.950 . S
H239 C250 0.950 . S
H240 C252 0.950 . S
H241 C253 0.950 . S
C242 H234 0.950 . S
C242 C243 1.386 . S
C242 C244 1.391 . S
C243 C242 1.386 . S
C243 C247 1.393 . S
C244 H236 0.950 . S
C244 C242 1.391 . S
C244 C245 1.400 . S
C245 C244 1.400 . S
C245 C246 1.398 . S
C245 C251 1.491 . S
C246 H237 0.950 . S
C246 C245 1.398 . S
C246 C247 1.391 . S
C247 H235 0.950 . S
C247 C243 1.393 . S
C247 C246 1.391 . S
C248 H238 0.950 . S
C248 C249 1.386 . S
C248 C250 1.391 . S
C249 C248 1.386 . S
C249 C253 1.393 . S
C250 H239 0.950 . S
C250 C248 1.391 . S
C250 C251 1.400 . S
C251 C245 1.491 . S
C251 C250 1.400 . S
C251 C252 1.398 . S
C252 H240 0.950 . S
C252 C251 1.398 . S
C252 C253 1.391 . S
C253 H241 0.950 . S
C253 C249 1.393 . S
C253 C252 1.391 . S
H254 C262 0.950 . S
H255 C267 0.950 . S
H256 C264 0.950 . S
H257 C266 0.950 . S
H258 C268 0.950 . S
H259 C270 0.950 . S
H260 C272 0.950 . S
H261 C273 0.950 . S
C262 H254 0.950 . S
C262 C263 1.386 . S
C262 C264 1.391 . S
C263 C262 1.386 . S
C263 C267 1.393 . S
C264 H256 0.950 . S
C264 C262 1.391 . S
C264 C265 1.400 . S
C265 C264 1.400 . S
C265 C266 1.398 . S
C265 C271 1.491 . S
C266 H257 0.950 . S
C266 C265 1.398 . S
C266 C267 1.391 . S
C267 H255 0.950 . S
C267 C263 1.393 . S
C267 C266 1.391 . S
C268 H258 0.950 . S
C268 C269 1.386 . S
C268 C270 1.391 . S
C269 C268 1.386 . S
C269 C273 1.393 . S
C270 H259 0.950 . S
C270 C268 1.391 . S
C270 C271 1.400 . S
C271 C265 1.491 . S
C271 C270 1.400 . S
C271 C272 1.398 . S
C272 H260 0.950 . S
C272 C271 1.398 . S
C272 C273 1.391 . S
C273 H261 0.950 . S
C273 C269 1.393 . S
C273 C272 1.391 . S
H274 C282 0.950 . S
H275 C287 0.950 . S
H276 C284 0.950 . S
H277 C286 0.950 . S
H278 C288 0.950 . S
H279 C290 0.950 . S
H280 C292 0.950 . S
H281 C293 0.950 . S
C282 H274 0.950 . S
C282 C283 1.386 . S
C282 C284 1.391 . S
C283 C282 1.386 . S
C283 C287 1.393 . S
C284 H276 0.950 . S
C284 C282 1.391 . S
C284 C285 1.400 . S
C285 C284 1.400 . S
C285 C286 1.398 . S
C285 C291 1.491 . S
C286 H277 0.950 . S
C286 C285 1.398 . S
C286 C287 1.391 . S
C287 H275 0.950 . S
C287 C283 1.393 . S
C287 C286 1.391 . S
C288 H278 0.950 . S
C288 C289 1.386 . S
C288 C290 1.391 . S
C289 C288 1.386 . S
C289 C293 1.393 . S
C290 H279 0.950 . S
C290 C288 1.391 . S
C290 C291 1.400 . S
C291 C285 1.491 . S
C291 C290 1.400 . S
C291 C292 1.398 . S
C292 H280 0.950 . S
C292 C291 1.398 . S
C292 C293 1.391 . S
C293 H281 0.950 . S
C293 C289 1.393 . S
C293 C292 1.391 . S
H294 C302 0.950 . S
H295 C307 0.950 . S
H296 C304 0.950 . S
H297 C306 0.950 . S
H298 C308 0.950 . S
H299 C310 0.950 . S
H300 C312 0.950 . S
H301 C313 0.950 . S
C302 H294 0.950 . S
C302 C303 1.386 . S
C302 C304 1.391 . S
C303 C302 1.386 . S
C303 C307 1.393 . S
C304 H296 0.950 . S
C304 C302 1.391 . S
C304 C305 1.400 . S
C305 C304 1.400 . S
C305 C306 1.398 . S
C305 C311 1.491 . S
C306 H297 0.950 . S
C306 C305 1.398 . S
C306 C307 1.391 . S
C307 H295 0.950 . S
C307 C303 1.393 . S
C307 C306 1.391 . S
C308 H298 0.950 . S
C308 C309 1.386 . S
C308 C310 1.391 . S
C309 C308 1.386 . S
C309 C313 1.393 . S
C310 H299 0.950 . S
C310 C308 1.391 . S
C310 C311 1.400 . S
C311 C305 1.491 . S
C311 C310 1.400 . S
C311 C312 1.398 . S
C312 H300 0.950 . S
C312 C311 1.398 . S
C312 C313 1.391 . S
C313 H301 0.950 . S
C313 C309 1.393 . S
C313 C312 1.391 . S
H314 C322 0.950 . S
H315 C327 0.950 . S
H316 C324 0.950 . S
H317 C326 0.950 . S
H318 C328 0.950 . S
H319 C330 0.950 . S
H320 C332 0.950 . S
H321 C333 0.950 . S
C322 H314 0.950 . S
C322 C323 1.386 . S
C322 C324 1.391 . S
C323 C322 1.386 . S
C323 C327 1.393 . S
C324 H316 0.950 . S
C324 C322 1.391 . S
C324 C325 1.400 . S
C325 C324 1.400 . S
C325 C326 1.398 . S
C325 C331 1.491 . S
C326 H317 0.950 . S
C326 C325 1.398 . S
C326 C327 1.391 . S
C327 H315 0.950 . S
C327 C323 1.393 . S
C327 C326 1.391 . S
C328 H318 0.950 . S
C328 C329 1.386 . S
C328 C330 1.391 . S
C329 C328 1.386 . S
C329 C333 1.393 . S
C330 H319 0.950 . S
C330 C328 1.391 . S
C330 C331 1.400 . S
C331 C325 1.491 . S
C331 C330 1.400 . S
C331 C332 1.398 . S
C332 H320 0.950 . S
C332 C331 1.398 . S
C332 C333 1.391 . S
C333 H321 0.950 . S
C333 C329 1.393 . S
C333 C332 1.391 . S
H334 C342 0.950 . S
H335 C347 0.950 . S
H336 C344 0.950 . S
H337 C346 0.950 . S
H338 C348 0.950 . S
H339 C350 0.950 . S
H340 C352 0.950 . S
H341 C353 0.950 . S
C342 H334 0.950 . S
C342 C343 1.386 . S
C342 C344 1.391 . S
C343 C342 1.386 . S
C343 C347 1.393 . S
C344 H336 0.950 . S
C344 C342 1.391 . S
C344 C345 1.400 . S
C345 C344 1.400 . S
C345 C346 1.398 . S
C345 C351 1.491 . S
C346 H337 0.950 . S
C346 C345 1.398 . S
C346 C347 1.391 . S
C347 H335 0.950 . S
C347 C343 1.393 . S
C347 C346 1.391 . S
C348 H338 0.950 . S
C348 C349 1.386 . S
C348 C350 1.391 . S
C349 C348 1.386 . S
C349 C353 1.393 . S
C350 H339 0.950 . S
C350 C348 1.391 . S
C350 C351 1.400 . S
C351 C345 1.491 . S
C351 C350 1.400 . S
C351 C352 1.398 . S
C352 H340 0.950 . S
C352 C351 1.398 . S
C352 C353 1.391 . S
C353 H341 0.950 . S
C353 C349 1.393 . S
C353 C352 1.391 . S
H354 C362 0.950 . S
H355 C367 0.950 . S
H356 C364 0.950 . S
H357 C366 0.950 . S
H358 C368 0.950 . S
H359 C370 0.950 . S
H360 C372 0.950 . S
H361 C373 0.950 . S
C362 H354 0.950 . S
C362 C363 1.386 . S
C362 C364 1.391 . S
C363 C362 1.386 . S
C363 C367 1.393 . S
C364 H356 0.950 . S
C364 C362 1.391 . S
C364 C365 1.400 . S
C365 C364 1.400 . S
C365 C366 1.398 . S
C365 C371 1.491 . S
C366 H357 0.950 . S
C366 C365 1.398 . S
C366 C367 1.391 . S
C367 H355 0.950 . S
C367 C363 1.393 . S
C367 C366 1.391 . S
C368 H358 0.950 . S
C368 C369 1.386 . S
C368 C370 1.391 . S
C369 C368 1.386 . S
C369 C373 1.393 . S
C370 H359 0.950 . S
C370 C368 1.391 . S
C370 C371 1.400 . S
C371 C365 1.491 . S
C371 C370 1.400 . S
C371 C372 1.398 . S
C372 H360 0.950 . S
C372 C371 1.398 . S
C372 C373 1.391 . S
C373 H361 0.950 . S
C373 C369 1.393 . S
C373 C372 1.391 . S
H374 C382 0.950 . S
H375 C387 0.950 . S
H376 C384 0.950 . S
H377 C386 0.950 . S
H378 C388 0.950 . S
H379 C390 0.950 . S
H380 C392 0.950 . S
H381 C393 0.950 . S
C382 H374 0.950 . S
C382 C383 1.386 . S
C382 C384 1.391 . S
C383 C382 1.386 . S
C383 C387 1.393 . S
C384 H376 0.950 . S
C384 C382 1.391 . S
C384 C385 1.400 . S
C385 C384 1.400 . S
C385 C386 1.398 . S
C385 C391 1.491 . S
C386 H377 0.950 . S
C386 C385 1.398 . S
C386 C387 1.391 . S
C387 H375 0.950 . S
C387 C383 1.393 . S
C387 C386 1.391 . S
C388 H378 0.950 . S
C388 C389 1.386 . S
C388 C390 1.391 . S
C389 C388 1.386 . S
C389 C393 1.393 . S
C390 H379 0.950 . S
C390 C388 1.391 . S
C390 C391 1.400 . S
C391 C385 1.491 . S
C391 C390 1.400 . S
C391 C392 1.398 . S
C392 H380 0.950 . S
C392 C391 1.398 . S
C392 C393 1.391 . S
C393 H381 0.950 . S
C393 C389 1.393 . S
C393 C392 1.391 . S
H394 C402 0.950 . S
H395 C407 0.950 . S
H396 C404 0.950 . S
H397 C406 0.950 . S
H398 C408 0.950 . S
H399 C410 0.950 . S
H400 C412 0.950 . S
H401 C413 0.950 . S
C402 H394 0.950 . S
C402 C403 1.386 . S
C402 C404 1.391 . S
C403 C402 1.386 . S
C403 C407 1.393 . S
C404 H396 0.950 . S
C404 C402 1.391 . S
C404 C405 1.400 . S
C405 C404 1.400 . S
C405 C406 1.398 . S
C405 C411 1.491 . S
C406 H397 0.950 . S
C406 C405 1.398 . S
C406 C407 1.391 . S
C407 H395 0.950 . S
C407 C403 1.393 . S
C407 C406 1.391 . S
C408 H398 0.950 . S
C408 C409 1.386 . S
C408 C410 1.391 . S
C409 C408 1.386 . S
C409 C413 1.393 . S
C410 H399 0.950 . S
C410 C408 1.391 . S
C410 C411 1.400 . S
C411 C405 1.491 . S
C411 C410 1.400 . S
C411 C412 1.398 . S
C412 H400 0.950 . S
C412 C411 1.398 . S
C412 C413 1.391 . S
C413 H401 0.950 . S
C413 C409 1.393 . S
C413 C412 1.391 . S
H414 C422 0.950 1_655 S
H415 C427 0.950 . S
H416 C424 0.950 1_655 S
H417 C426 0.950 . S
H418 C428 0.950 . S
H419 C430 0.950 1_554 S
H420 C432 0.950 1_655 S
H421 C433 0.957 . S
C422 H414 0.950 1_455 S
C422 C423 1.386 . S
C422 C424 1.391 . S
C423 C422 1.386 . S
C423 C427 1.393 . S
C424 H416 0.950 1_455 S
C424 C422 1.391 . S
C424 C425 1.400 . S
C425 C424 1.400 . S
C425 C426 1.398 . S
C425 C431 1.491 1_554 S
C426 H417 0.950 . S
C426 C425 1.398 . S
C426 C427 1.391 . S
C427 H415 0.950 . S
C427 C423 1.393 . S
C427 C426 1.391 . S
C428 H418 0.950 . S
C428 C429 1.386 . S
C428 C430 1.391 . S
C429 C428 1.386 . S
C429 C433 1.393 . S
C430 H419 0.950 1_556 S
C430 C428 1.391 . S
C430 C431 1.400 . S
C431 C425 1.491 1_556 S
C431 C430 1.400 . S
C431 C432 1.398 . S
C432 H420 0.950 1_455 S
C432 C431 1.398 . S
C432 C433 1.391 . S
C433 H421 0.957 . S
C433 C429 1.393 . S
C433 C432 1.391 . S
H434 C442 0.950 . S
H435 C447 0.950 1_565 S
H436 C444 0.950 . S
H437 C446 0.950 1_565 S
H438 C448 0.950 1_565 S
H439 C450 0.950 1_565 S
H440 C452 0.950 . S
H441 C453 0.950 . S
C442 H434 0.950 . S
C442 C443 1.386 . S
C442 C444 1.391 . S
C443 C442 1.386 . S
C443 C447 1.393 . S
C444 H436 0.950 . S
C444 C442 1.391 . S
C444 C445 1.400 . S
C445 C444 1.400 . S
C445 C446 1.398 . S
C445 C451 1.491 . S
C446 H437 0.950 1_545 S
C446 C445 1.398 . S
C446 C447 1.391 . S
C447 H435 0.950 1_545 S
C447 C443 1.393 . S
C447 C446 1.391 . S
C448 H438 0.950 1_545 S
C448 C449 1.386 . S
C448 C450 1.391 . S
C449 C448 1.386 . S
C449 C453 1.393 . S
C450 H439 0.950 1_545 S
C450 C448 1.391 . S
C450 C451 1.400 . S
C451 C445 1.491 . S
C451 C450 1.400 . S
C451 C452 1.398 . S
C452 H440 0.950 . S
C452 C451 1.398 . S
C452 C453 1.391 . S
C453 H441 0.950 . S
C453 C449 1.393 . S
C453 C452 1.391 . S
H454 C462 0.950 . S
H455 C467 0.950 . S
H456 C464 0.950 . S
H457 C466 0.950 . S
H458 C468 0.950 . S
H459 C470 0.950 . S
H460 C472 0.950 . S
H461 C473 0.950 . S
C462 H454 0.950 . S
C462 C463 1.386 . S
C462 C464 1.391 . S
C463 C462 1.386 . S
C463 C467 1.393 . S
C464 H456 0.950 . S
C464 C462 1.391 . S
C464 C465 1.400 . S
C465 C464 1.400 . S
C465 C466 1.398 . S
C465 C471 1.491 . S
C466 H457 0.950 . S
C466 C465 1.398 . S
C466 C467 1.391 . S
C467 H455 0.950 . S
C467 C463 1.393 . S
C467 C466 1.391 . S
C468 H458 0.950 . S
C468 C469 1.386 . S
C468 C470 1.391 . S
C469 C468 1.386 . S
C469 C473 1.393 . S
C470 H459 0.950 . S
C470 C468 1.391 . S
C470 C471 1.400 . S
C471 C465 1.491 . S
C471 C470 1.400 . S
C471 C472 1.398 . S
C472 H460 0.950 . S
C472 C471 1.398 . S
C472 C473 1.391 . S
C473 H461 0.950 . S
C473 C469 1.393 . S
C473 C472 1.391 . S
H474 C482 0.950 . S
H475 C487 0.950 . S
H476 C484 0.950 . S
H477 C486 0.950 . S
H478 C488 0.950 . S
H479 C490 0.950 . S
H480 C492 0.950 . S
H481 C493 0.950 . S
C482 H474 0.950 . S
C482 C483 1.386 . S
C482 C484 1.391 . S
C483 C482 1.386 . S
C483 C487 1.393 . S
C484 H476 0.950 . S
C484 C482 1.391 . S
C484 C485 1.400 . S
C485 C484 1.400 . S
C485 C486 1.398 . S
C485 C491 1.491 . S
C486 H477 0.950 . S
C486 C485 1.398 . S
C486 C487 1.391 . S
C487 H475 0.950 . S
C487 C483 1.393 . S
C487 C486 1.391 . S
C488 H478 0.950 . S
C488 C489 1.386 . S
C488 C490 1.391 . S
C489 C488 1.386 . S
C489 C493 1.393 . S
C490 H479 0.950 . S
C490 C488 1.391 . S
C490 C491 1.400 . S
C491 C485 1.491 . S
C491 C490 1.400 . S
C491 C492 1.398 . S
C492 H480 0.950 . S
C492 C491 1.398 . S
C492 C493 1.391 . S
C493 H481 0.950 . S
C493 C489 1.393 . S
C493 C492 1.391 . S
H494 C502 0.950 . S
H495 C507 0.950 . S
H496 C504 0.950 . S
H497 C506 0.950 . S
H498 C508 0.950 . S
H499 C510 0.950 1_556 S
H500 C512 0.950 . S
H501 C513 0.950 . S
C502 H494 0.950 . S
C502 C503 1.386 . S
C502 C504 1.391 . S
C503 C502 1.386 . S
C503 C507 1.393 . S
C504 H496 0.950 . S
C504 C502 1.391 . S
C504 C505 1.400 . S
C505 C504 1.400 . S
C505 C506 1.398 . S
C505 C511 1.477 1_556 S
C506 H497 0.950 . S
C506 C505 1.398 . S
C506 C507 1.391 . S
C507 H495 0.950 . S
C507 C503 1.393 . S
C507 C506 1.391 . S
C508 H498 0.950 . S
C508 C509 1.386 . S
C508 C510 1.391 . S
C509 C508 1.386 . S
C509 C513 1.393 . S
C510 H499 0.950 1_554 S
C510 C508 1.391 . S
C510 C511 1.408 . S
C511 C505 1.477 1_554 S
C511 C510 1.408 . S
C511 C512 1.405 . S
C512 H500 0.950 . S
C512 C511 1.405 . S
C512 C513 1.391 . S
C513 H501 0.950 . S
C513 C509 1.393 . S
C513 C512 1.391 . S
H514 C522 0.950 . S
H515 C527 0.950 . S
H516 C524 0.950 . S
H517 C526 0.950 . S
H518 C528 0.950 . S
H519 C530 0.950 . S
H520 C532 0.950 . S
H521 C533 0.950 . S
C522 H514 0.950 . S
C522 C523 1.386 1_655 S
C522 C524 1.391 . S
C523 C522 1.386 1_455 S
C523 C527 1.393 . S
C524 H516 0.950 . S
C524 C522 1.391 . S
C524 C525 1.400 1_655 S
C525 C524 1.400 1_455 S
C525 C526 1.398 . S
C525 C531 1.491 . S
C526 H517 0.950 . S
C526 C525 1.398 . S
C526 C527 1.391 . S
C527 H515 0.950 . S
C527 C523 1.393 . S
C527 C526 1.391 . S
C528 H518 0.950 . S
C528 C529 1.386 . S
C528 C530 1.391 . S
C529 C528 1.386 . S
C529 C533 1.393 1_455 S
C530 H519 0.950 . S
C530 C528 1.391 . S
C530 C531 1.400 . S
C531 C525 1.491 . S
C531 C530 1.400 . S
C531 C532 1.398 1_455 S
C532 H520 0.950 . S
C532 C531 1.398 1_655 S
C532 C533 1.391 . S
C533 H521 0.950 . S
C533 C529 1.393 1_655 S
C533 C532 1.391 . S
C183 C2 1.488 . S
C189 C166 1.521 . S
C203 C22 1.499 . S
C209 C128 1.520 . S
C223 C44 1.500 . S
C229 C147 1.547 . S
C243 C4 1.443 . S
C249 C161 1.513 . S
C269 C123 1.509 . S
C263 C24 1.423 . S
C289 C142 1.479 . S
C283 C42 1.377 . S
C303 C32 1.478 . S
C309 C90 1.421 . S
C323 C49 1.133 . S
C329 C104 1.146 . S
C343 C9 1.142 . S
C349 C66 1.159 . S
C369 C85 1.169 . S
C363 C29 1.143 . S
C389 C109 1.379 . S
C383 C52 1.350 . S
C403 C12 1.381 . S
C409 C71 1.366 . S
C429 C100 1.538 . S
C423 C18 1.561 . S
C443 C38 1.518 . S
C449 C62 1.502 . S
C463 C58 1.492 . S
C469 C81 1.531 . S
C489 C138 1.551 . S
C483 C39 1.540 . S
C509 C157 1.550 . S
C503 C59 1.563 . S
C523 C19 1.539 . S
C529 C119 1.568 . S
