# Generated by pormake.
# Topology pts, (4,4)-cn, num edge types: 1
# Building blocks:
#     Node 0, Type 0, BuildingBlock: NAWXER_clean_linker_0, # of connection points: 4
#     Node 1, Type 0, BuildingBlock: NAWXER_clean_linker_0, # of connection points: 4
#     Node 2, Type 1, BuildingBlock: UXUYUI_clean_sbu_0, # of connection points: 4
#     Node 3, Type 1, BuildingBlock: UXUYUI_clean_sbu_0, # of connection points: 4
#     Edge 4, Type (0, 1), BuildingBlock: XUDNAN_clean_linker_2, # of connection points: 2
#     Edge 5, Type (0, 1), BuildingBlock: XUDNAN_clean_linker_2, # of connection points: 2
#     Edge 6, Type (0, 1), BuildingBlock: XUDNAN_clean_linker_2, # of connection points: 2
#     Edge 7, Type (0, 1), BuildingBlock: XUDNAN_clean_linker_2, # of connection points: 2
#     Edge 8, Type (0, 1), BuildingBlock: XUDNAN_clean_linker_2, # of connection points: 2
#     Edge 9, Type (0, 1), BuildingBlock: XUDNAN_clean_linker_2, # of connection points: 2
#     Edge 10, Type (0, 1), BuildingBlock: XUDNAN_clean_linker_2, # of connection points: 2
#     Edge 11, Type (0, 1), BuildingBlock: XUDNAN_clean_linker_2, # of connection points: 2
# Relax obj value: 0.000
# Max RMSD: 0.009
# Mean RMSD: 0.008
data_MOF--net-pts--node1-UXUYUI_clean_sbu_0--node2-NAWXER_clean_linker_0--edge1-XUDNAN_clean_linker_2
_symmetry_space_group_name_H-M    P1
_symmetry_Int_Tables_number       1
_symmetry_cell_setting            triclinic
loop_
_symmetry_equiv_pos_as_xyz
'x, y, z'
_cell_length_a     35.077151
_cell_length_b     35.163533
_cell_length_c     50.492299
_cell_angle_alpha  89.919353
_cell_angle_beta   89.950655
_cell_angle_gamma 89.801413
loop_
_atom_site_label
_atom_site_type_symbol
_atom_site_fract_x
_atom_site_fract_y
_atom_site_fract_z
_atom_type_partial_charge
C0 C 0.63512 0.04684 0.97167 0.0
C1 C 0.64348 0.02372 0.94966 0.0
C2 C 0.60235 0.04064 0.98683 0.0
C3 C 0.57757 0.01057 0.98076 0.0
C4 C 0.61859 0.99366 0.94362 0.0
C5 C 0.58602 0.98724 0.95896 0.0
C6 C 0.54127 1.00517 0.99543 0.0
C7 C 0.63134 0.98831 0.0589 0.0
C8 C 0.62999 0.01535 0.07943 0.0
C9 C 0.60211 0.98652 0.04006 0.0
C10 C 0.57108 0.01182 0.04133 0.0
C11 C 0.59931 0.04125 0.08012 0.0
C12 C 0.57004 0.03923 0.06145 0.0
C13 C 0.53804 0.00797 0.0233 0.0
C14 C 0.37861 0.95502 0.045 0.0
C15 C 0.36827 0.9802 0.06544 0.0
C16 C 0.41144 0.96133 0.02992 0.0
C17 C 0.43442 0.99323 0.03472 0.0
C18 C 0.39125 0.01219 0.07012 0.0
C19 C 0.42409 0.01849 0.05502 0.0
C20 C 0.4707 0.99887 0.02012 0.0
C21 C 0.37745 0.00904 0.9595 0.0
C22 C 0.3775 0.97912 0.94106 0.0
C23 C 0.40876 0.01468 0.97617 0.0
C24 C 0.44069 0.99053 0.97465 0.0
C25 C 0.40979 0.95546 0.93927 0.0
C26 C 0.44121 0.96135 0.95575 0.0
C27 C 0.47391 0.99589 0.9923 0.0
H28 H 0.65374 0.07004 0.97712 0.0
H29 H 0.59601 0.06002 1.00288 0.0
H30 H 0.62363 0.97568 0.92658 0.0
H31 H 0.56712 0.96421 0.95357 0.0
H32 H 0.6542 0.96759 0.05794 0.0
H33 H 0.60314 0.96457 0.02505 0.0
H34 H 0.59765 0.06294 0.09528 0.0
H35 H 0.54636 0.059 0.06283 0.0
H36 H 0.36144 0.93023 0.04074 0.0
H37 H 0.41927 0.94076 0.01492 0.0
H38 H 0.38447 0.03183 0.08596 0.0
H39 H 0.44164 0.043 0.05934 0.0
H40 H 0.35292 0.02765 0.96136 0.0
H41 H 0.40803 0.03788 0.99025 0.0
H42 H 0.41083 0.93249 0.92502 0.0
H43 H 0.46571 0.94265 0.95405 0.0
N44 N 0.50903 0.999 0.9811 0.0
N45 N 0.50287 1.00495 0.03446 0.0
C46 C 0.01927 0.62452 0.56588 0.0
C47 C 0.98608 0.62719 0.58154 0.0
C48 C 0.02336 0.59546 0.54717 0.0
C49 C 0.9945 0.56836 0.54386 0.0
C50 C 0.95715 0.6 0.57787 0.0
C51 C 0.96158 0.57065 0.5595 0.0
C52 C 0.99902 0.53665 0.52494 0.0
C53 C 0.98169 0.64414 0.47831 0.0
C54 C 0.00906 0.65108 0.45863 0.0
C55 C 0.97973 0.60857 0.49065 0.0
C56 C 1.00618 0.57977 0.48431 0.0
C57 C 0.03435 0.62194 0.45137 0.0
C58 C 0.03305 0.58668 0.46418 0.0
C59 C 1.0054 0.5419 0.4975 0.0
C60 C 0.99366 0.38283 0.45439 0.0
C61 C 0.02103 0.38537 0.43408 0.0
C62 C 0.9909 0.41119 0.47372 0.0
C63 C 0.01568 0.44251 0.47328 0.0
C64 C 0.04615 0.41648 0.43397 0.0
C65 C 0.04333 0.44481 0.45324 0.0
C66 C 0.01104 0.47449 0.49215 0.0
C67 C 0.0492 0.3781 0.5453 0.0
C68 C 0.02231 0.36681 0.56438 0.0
C69 C 0.04291 0.41052 0.52983 0.0
C70 C 0.00964 0.43234 0.53321 0.0
C71 C 0.98846 0.38795 0.56714 0.0
C72 C 0.9824 0.42067 0.55189 0.0
C73 C 1.00531 0.46944 0.51962 0.0
H74 H 0.04251 0.64435 0.5684 0.0
H75 H 0.0493 0.59377 0.53556 0.0
H76 H 0.93085 0.60143 0.58905 0.0
H77 H 0.93901 0.54995 0.55724 0.0
H78 H 0.96151 0.66612 0.48387 0.0
H79 H 0.95728 0.60367 0.50493 0.0
H80 H 0.05563 0.62673 0.43617 0.0
H81 H 0.05342 0.56491 0.45855 0.0
H82 H 0.97345 0.35962 0.45483 0.0
H83 H 0.96856 0.40922 0.48847 0.0
H84 H 0.06793 0.41907 0.41887 0.0
H85 H 0.06268 0.46874 0.45241 0.0
H86 H 0.07548 0.36226 0.54272 0.0
H87 H 0.06476 0.41937 0.51599 0.0
H88 H 0.96744 0.38012 0.58188 0.0
H89 H 0.95676 0.43732 0.55504 0.0
N90 N 0.99916 0.5007 0.53486 0.0
N91 N 0.01114 0.5105 0.48226 0.0
Li92 Li 0.01003 0.04438 0.27268 0.0
Li93 Li 1.00632 0.97459 0.27984 0.0
Li94 Li 0.03922 1.00153 0.2389 0.0
Li95 Li 0.97037 1.00335 0.24384 0.0
C96 C 0.08454 0.01405 0.29145 0.0
N97 N 0.15009 0.02649 0.32057 0.0
C98 C 0.0853 0.00605 0.31857 0.0
C99 C 0.11741 0.02791 0.2791 0.0
C100 C 0.11861 0.01269 0.33297 0.0
C101 C 0.15018 0.03414 0.29416 0.0
C102 C 0.94221 0.00668 0.30351 0.0
C103 C 0.90033 0.96545 0.3282 0.0
N104 N 0.89688 0.99262 0.34721 0.0
C105 C 0.93826 0.03418 0.3233 0.0
C106 C 0.92309 0.97202 0.30596 0.0
C107 C 0.9152 0.02653 0.34523 0.0
C108 C 0.99603 0.12303 0.27923 0.0
N109 N 0.01295 0.09225 0.29062 0.0
C110 C 0.03262 0.12986 0.32758 0.0
C111 C 0.0306 0.09495 0.3145 0.0
C112 C 0.01608 0.16235 0.31605 0.0
C113 C 0.99742 0.15852 0.29158 0.0
H114 H 0.98137 0.12 0.26052 0.0
H115 H 0.04287 0.06998 0.32355 0.0
C116 C 0.0193 0.89982 0.29932 0.0
N117 N 0.00903 0.93567 0.30647 0.0
C118 C 0.02211 0.871 0.31838 0.0
C119 C 1.00308 0.91643 0.35173 0.0
C120 C 1.00142 0.9444 0.33216 0.0
C121 C 0.01384 0.87904 0.34511 0.0
H122 H 0.02569 0.89368 0.27879 0.0
H123 H 0.99408 0.97322 0.33757 0.0
C124 C 0.02412 0.07592 0.22192 0.0
N125 N 0.06367 0.13608 0.19992 0.0
C126 C 0.01082 0.09345 0.19882 0.0
C127 C 0.05734 0.08926 0.23392 0.0
C128 C 0.03127 0.12374 0.18796 0.0
C129 C 0.07698 0.11963 0.2225 0.0
C130 C 0.98279 0.93624 0.22519 0.0
C131 C 0.98705 0.94126 0.19789 0.0
C132 C 0.95583 0.91055 0.23485 0.0
C133 C 0.9639 0.92063 0.18064 0.0
C134 C 0.93324 0.89046 0.21695 0.0
N135 N 0.93768 0.8959 0.19044 0.0
C136 C 0.10899 0.96927 0.22369 0.0
C137 C 0.08297 0.01064 0.19128 0.0
C138 C 0.14058 0.96189 0.20762 0.0
N139 N 0.08118 0.99352 0.21542 0.0
C140 C 0.11417 1.00422 0.1746 0.0
C141 C 0.14352 0.97951 0.1827 0.0
H142 H 0.10666 0.95578 0.24289 0.0
H143 H 0.06006 0.02902 0.18481 0.0
C144 C 0.89171 0.98685 0.23584 0.0
N145 N 0.92342 1.00154 0.22431 0.0
C146 C 0.8569 0.98723 0.2225 0.0
C147 C 0.88794 0.01719 0.18525 0.0
C148 C 0.92229 0.01598 0.19932 0.0
C149 C 0.85443 1.00324 0.19703 0.0
H150 H 0.89325 0.97508 0.25551 0.0
H151 H 0.94802 0.02699 0.19043 0.0
O152 O 0.05229 0.00708 0.27695 0.0
O153 O 0.96494 0.0137 0.28203 0.0
O154 O 1.0045 0.04605 0.2327 0.0
O155 O 1.00429 0.95709 0.24237 0.0
H156 H 0.06031 0.99534 0.32852 0.0
H157 H 0.11781 0.0337 0.25807 0.0
H158 H 0.11942 0.00687 0.354 0.0
H159 H 0.17572 0.04495 0.28483 0.0
H160 H 0.88561 0.93866 0.33044 0.0
H161 H 0.95279 0.06117 0.32173 0.0
H162 H 0.92656 0.95004 0.29119 0.0
H163 H 0.91189 0.04756 0.36069 0.0
H164 H 0.0474 0.13145 0.34636 0.0
H165 H 0.98359 0.18259 0.2822 0.0
H166 H 0.03123 0.84295 0.31222 0.0
H167 H 0.99566 0.92419 0.37182 0.0
H168 H 0.98501 0.08376 0.18932 0.0
H169 H 0.06754 0.07668 0.25206 0.0
H170 H 0.02136 0.13745 0.17005 0.0
H171 H 0.10272 0.13021 0.23164 0.0
H172 H 0.00769 0.96123 0.19015 0.0
H173 H 0.95222 0.90643 0.25595 0.0
H174 H 0.96668 0.92438 0.15946 0.0
H175 H 0.9121 0.87062 0.22412 0.0
H176 H 0.16267 0.9429 0.21476 0.0
H177 H 0.11496 0.01788 0.15537 0.0
H178 H 0.83211 0.97528 0.23217 0.0
H179 H 0.88748 0.02993 0.16572 0.0
Li180 Li 0.97091 0.01014 0.77416 0.0
Li181 Li 0.04399 1.00133 0.77251 0.0
Li182 Li 0.00968 0.03763 0.73898 0.0
Li183 Li 1.00271 0.97049 0.74003 0.0
C184 C 0.01802 0.08675 0.77699 0.0
N185 N 0.02876 0.16432 0.77294 0.0
C186 C 0.05483 0.10153 0.77495 0.0
C187 C 0.98667 0.11139 0.77717 0.0
C188 C 0.05966 0.14084 0.77286 0.0
C189 C 0.9927 0.15053 0.77507 0.0
C190 C 1.00176 0.92474 0.78085 0.0
C191 C 0.03325 0.86385 0.77776 0.0
N192 N 0.99914 0.84625 0.78124 0.0
C193 C 0.96704 0.9061 0.78453 0.0
C194 C 0.03519 0.90352 0.77753 0.0
C195 C 0.9663 0.86637 0.78463 0.0
C196 C 0.89599 0.99572 0.79339 0.0
N197 N 0.92855 0.01578 0.79739 0.0
C198 C 0.90111 0.04701 0.83487 0.0
C199 C 0.93176 0.04079 0.81775 0.0
C200 C 0.86695 0.02698 0.83115 0.0
C201 C 0.8647 1.00076 0.81023 0.0
H202 H 0.89421 0.97615 0.77693 0.0
H203 H 0.95811 0.05612 0.82059 0.0
C204 C 0.12209 0.01031 0.78708 0.0
N205 N 0.08785 0.9954 0.79418 0.0
C206 C 0.15414 1.00454 0.80311 0.0
C207 C 0.11502 0.96792 0.83316 0.0
C208 C 0.08371 0.97485 0.8168 0.0
C209 C 0.15083 0.98272 0.82633 0.0
H210 H 0.12457 0.02634 0.76886 0.0
H211 H 0.0561 0.96346 0.822 0.0
C212 C 0.93139 0.02276 0.72232 0.0
N213 N 0.86896 0.0511 0.69528 0.0
C214 C 0.92355 0.01034 0.69661 0.0
C215 C 0.90703 0.04904 0.73445 0.0
C216 C 0.89198 0.02517 0.68322 0.0
C217 C 0.87575 0.06319 0.7204 0.0
C218 C 0.06251 0.9955 0.70813 0.0
C219 C 0.03635 0.99981 0.68749 0.0
C220 C 0.10072 0.98778 0.70236 0.0
C221 C 0.04885 0.99624 0.66134 0.0
C222 C 0.11212 0.98439 0.67595 0.0
N223 N 0.08616 0.98865 0.65615 0.0
C224 C 0.05116 0.08997 0.70758 0.0
C225 C 0.98562 0.10533 0.71065 0.0
C226 C 0.05768 0.12163 0.69151 0.0
N227 N 0.01547 0.082 0.7165 0.0
C228 C 0.99092 0.13763 0.69492 0.0
C229 C 0.02735 0.14614 0.68496 0.0
H230 H 0.07482 0.07192 0.71313 0.0
H231 H 0.95781 0.09961 0.71869 0.0
C232 C 0.96049 0.91084 0.71703 0.0
N233 N 0.99633 0.92475 0.72006 0.0
C234 C 0.95468 0.87637 0.70394 0.0
C235 C 0.02265 0.87178 0.6966 0.0
C236 C 0.02722 0.90594 0.71028 0.0
C237 C 0.98605 0.85646 0.69353 0.0
H238 H 0.93649 0.92623 0.72526 0.0
H239 H 0.05552 0.91701 0.71354 0.0
O240 O 0.01267 0.04828 0.77816 0.0
O241 O 1.00291 0.96356 0.77971 0.0
O242 O 0.96159 0.00773 0.73597 0.0
O243 O 0.05099 0.99879 0.73392 0.0
H244 H 0.07935 0.0828 0.77463 0.0
H245 H 0.95798 0.1004 0.77858 0.0
H246 H 0.08798 0.15267 0.77107 0.0
H247 H 0.9687 0.16993 0.77501 0.0
H248 H 0.05885 0.84705 0.77502 0.0
H249 H 0.94091 0.92213 0.78699 0.0
H250 H 0.06223 0.91757 0.77438 0.0
H251 H 0.93961 0.85153 0.7873 0.0
H252 H 0.90417 0.06712 0.85095 0.0
H253 H 0.83876 0.985 0.80658 0.0
H254 H 0.18137 0.01619 0.79711 0.0
H255 H 0.11124 0.95129 0.85103 0.0
H256 H 0.94145 0.98924 0.68714 0.0
H257 H 0.91248 0.05885 0.75436 0.0
H258 H 0.88567 0.01592 0.66327 0.0
H259 H 0.85688 0.0838 0.72948 0.0
H260 H 0.00682 0.00608 0.69163 0.0
H261 H 0.12132 0.98439 0.71816 0.0
H262 H 0.02889 0.99955 0.64517 0.0
H263 H 0.1416 0.97838 0.67118 0.0
H264 H 0.08626 0.12663 0.68423 0.0
H265 H 0.96679 0.15611 0.6911 0.0
H266 H 0.92601 0.8654 0.70192 0.0
H267 H 0.04756 0.85691 0.68918 0.0
H268 H 0.31479 0.03106 0.08428 0.0
H269 H 0.3458 0.91143 0.08557 0.0
H270 H 0.29091 0.8981 0.11467 0.0
H271 H 0.28633 0.03699 0.15232 0.0
H272 H 0.24731 0.06927 0.14608 0.0
H273 H 0.28829 0.06925 0.12457 0.0
H274 H 0.24448 0.0578 0.08409 0.0
H275 H 0.20335 0.05774 0.10548 0.0
H276 H 0.21259 0.0177 0.08413 0.0
H277 H 0.23389 0.89795 0.14473 0.0
H278 H 0.17794 0.91087 0.17305 0.0
H279 H 0.18441 0.0307 0.15284 0.0
C280 C 0.3101 1.00207 0.09072 0.0
C281 C 0.33457 0.97226 0.08249 0.0
C282 C 0.32715 0.93466 0.09121 0.0
C283 C 0.29616 0.92682 0.10789 0.0
C284 C 0.27274 0.95686 0.11568 0.0
C285 C 0.27925 0.99372 0.10735 0.0
C286 C 0.24996 0.02086 0.11887 0.0
C287 C 0.26913 0.05086 0.13651 0.0
C288 C 0.22619 0.03962 0.09682 0.0
C289 C 0.22615 0.99353 0.13511 0.0
C290 C 0.2398 0.95676 0.13299 0.0
C291 C 0.22293 0.92663 0.14652 0.0
C292 C 0.1913 0.93429 0.16269 0.0
C293 C 0.17679 0.97179 0.16521 0.0
C294 C 0.19451 1.00168 0.15109 0.0
H295 H 0.9756 0.30724 0.57816 0.0
H296 H 0.08787 0.3545 0.59209 0.0
H297 H 0.10151 0.30312 0.62416 0.0
H298 H 0.95642 0.27848 0.64471 0.0
H299 H 0.93288 0.23492 0.63564 0.0
H300 H 0.93205 0.27499 0.61339 0.0
H301 H 0.961 0.2333 0.57612 0.0
H302 H 0.96172 0.19303 0.59822 0.0
H303 H 1.00498 0.20801 0.58205 0.0
H304 H 0.10169 0.24878 0.65632 0.0
H305 H 0.09019 0.19274 0.68444 0.0
H306 H 0.97909 0.17829 0.64783 0.0
C307 C 1.00305 0.30665 0.58795 0.0
C308 C 0.03075 0.33476 0.58263 0.0
C309 C 0.06645 0.33298 0.59567 0.0
C310 C 0.07436 0.30405 0.61401 0.0
C311 C 0.04641 0.2769 0.61892 0.0
C312 C 0.01162 0.27767 0.60609 0.0
C313 C 0.98675 0.24476 0.61481 0.0
C314 C 0.94985 0.25916 0.62792 0.0
C315 C 0.97812 0.2182 0.59141 0.0
C316 C 0.0128 0.22572 0.6348 0.0
C317 C 0.047 0.24482 0.63692 0.0
C318 C 0.07523 0.23325 0.65457 0.0
C319 C 0.06849 0.20113 0.67035 0.0
C320 C 0.03388 0.18057 0.66827 0.0
C321 C 1.00575 0.19332 0.65018 0.0
H322 H 0.70771 1.00271 0.07515 0.0
H323 H 0.61853 0.02748 0.13241 0.0
H324 H 0.66624 0.02804 0.16809 0.0
H325 H 0.76083 0.93869 0.1174 0.0
H326 H 0.80672 0.95414 0.10552 0.0
H327 H 0.76573 0.95668 0.08412 0.0
H328 H 0.77778 0.02857 0.07672 0.0
H329 H 0.81876 0.02626 0.09815 0.0
H330 H 0.78099 0.05976 0.10493 0.0
H331 H 0.72302 0.02614 0.19763 0.0
H332 H 0.78551 0.02085 0.21946 0.0
H333 H 0.83812 0.99406 0.14378 0.0
C334 C 0.69814 0.00805 0.0952 0.0
C335 C 0.65926 0.0155 0.10082 0.0
C336 C 0.64815 0.02259 0.12739 0.0
C337 C 0.67502 0.02268 0.14788 0.0
C338 C 0.71299 0.01539 0.14163 0.0
C339 C 0.72462 0.00806 0.11599 0.0
C340 C 0.76723 1.00062 0.11483 0.0
C341 C 0.77561 0.96012 0.10488 0.0
C342 C 0.78737 0.0306 0.09764 0.0
C343 C 0.77763 1.00494 0.14382 0.0
C344 C 0.74586 0.01353 0.15887 0.0
C345 C 0.7481 0.01914 0.1861 0.0
C346 C 0.78376 0.01577 0.19835 0.0
C347 C 0.81685 0.00663 0.18346 0.0
C348 C 0.81354 1.0013 0.15576 0.0
H349 H 0.01217 0.70134 0.57949 0.0
H350 H 0.95081 0.62239 0.63017 0.0
H351 H 0.94233 0.67291 0.66332 0.0
H352 H 0.06366 0.74646 0.63268 0.0
H353 H 0.06209 0.79291 0.61756 0.0
H354 H 0.06183 0.75097 0.59713 0.0
H355 H 0.99942 0.77404 0.57476 0.0
H356 H 0.99939 0.81597 0.59521 0.0
H357 H 0.9585 0.78507 0.59501 0.0
H358 H 0.93954 0.73226 0.69088 0.0
H359 H 0.94671 0.79522 0.71213 0.0
H360 H 0.0138 0.83401 0.64523 0.0
C361 C 0.99726 0.69438 0.59762 0.0
C362 C 0.98177 0.65772 0.60188 0.0
C363 C 0.96212 0.65034 0.62593 0.0
C364 C 0.95738 0.67882 0.64506 0.0
C365 C 0.97284 0.71453 0.64012 0.0
C366 C 0.99274 0.72231 0.61714 0.0
C367 C 0.00756 0.76275 0.61708 0.0
C368 C 0.05138 0.76329 0.61606 0.0
C369 C 0.99017 0.78581 0.59415 0.0
C370 C 0.99284 0.77647 0.64363 0.0
C371 C 0.97254 0.74832 0.65648 0.0
C372 C 0.9555 0.75448 0.68106 0.0
C373 C 0.95955 0.7903 0.69291 0.0
C374 C 0.98084 0.81928 0.68031 0.0
C375 C 0.99765 0.81218 0.65536 0.0
H376 H 0.33569 0.03126 0.91255 0.0
H377 H 0.34307 0.91102 0.93136 0.0
H378 H 0.28658 0.89881 0.90349 0.0
H379 H 0.23349 0.03816 0.91285 0.0
H380 H 0.23137 0.07094 0.8854 0.0
H381 H 0.27255 0.07019 0.90669 0.0
H382 H 0.31617 0.05909 0.86596 0.0
H383 H 0.27511 0.05972 0.84455 0.0
H384 H 0.30701 0.01942 0.84432 0.0
H385 H 0.22827 0.89991 0.87489 0.0
H386 H 0.17312 0.9139 0.84601 0.0
H387 H 0.20428 0.03317 0.84473 0.0
C388 C 0.32529 1.0024 0.91085 0.0
C389 C 0.34374 0.97204 0.92409 0.0
C390 C 0.32958 0.93461 0.92117 0.0
C391 C 0.29744 0.92743 0.90549 0.0
C392 C 0.27994 0.95796 0.89269 0.0
C393 C 0.29344 0.99468 0.89506 0.0
C394 C 0.26947 0.02231 0.87903 0.0
C395 C 0.2506 0.05216 0.89707 0.0
C396 C 0.29337 0.04124 0.85717 0.0
C397 C 0.24024 0.99543 0.86746 0.0
C398 C 0.24674 0.95847 0.87569 0.0
C399 C 0.22298 0.92871 0.86821 0.0
C400 C 0.19168 0.93693 0.85192 0.0
C401 C 0.18454 0.97456 0.84314 0.0
C402 C 0.20934 1.00408 0.85091 0.0
H403 H 0.01247 0.30761 0.438 0.0
H404 H 0.03207 0.39817 0.38109 0.0
H405 H 0.03382 0.35104 0.345 0.0
H406 H 0.07263 0.23742 0.40702 0.0
H407 H 0.04115 0.19834 0.4142 0.0
H408 H 0.04212 0.2391 0.43575 0.0
H409 H 0.96932 0.24813 0.42958 0.0
H410 H 0.96811 0.20736 0.40806 0.0
H411 H 0.95004 0.25253 0.39662 0.0
H412 H 0.03269 0.29435 0.31496 0.0
H413 H 0.02916 0.23176 0.29307 0.0
H414 H 0.00837 0.17817 0.36923 0.0
C415 C 0.01695 0.31758 0.41794 0.0
C416 C 0.02239 0.35666 0.41246 0.0
C417 C 0.02853 0.36838 0.38591 0.0
C418 C 0.02932 0.34184 0.36522 0.0
C419 C 0.02385 0.30363 0.37133 0.0
C420 C 0.01778 0.29146 0.39702 0.0
C421 C 0.01244 0.24873 0.39815 0.0
C422 C 0.04397 0.22979 0.41476 0.0
C423 C 0.97261 0.23861 0.40872 0.0
C424 C 0.01639 0.23883 0.36908 0.0
C425 C 0.02296 0.27092 0.35396 0.0
C426 C 0.02745 0.26901 0.32658 0.0
C427 C 0.02515 0.23335 0.3143 0.0
C428 C 0.01839 0.19999 0.32937 0.0
C429 C 0.014 0.203 0.35716 0.0
H430 H 0.69131 0.97238 0.92478 0.0
H431 H 0.6717 0.09351 0.93521 0.0
H432 H 0.72698 0.10722 0.90669 0.0
H433 H 0.79365 0.9754 0.92378 0.0
H434 H 0.79832 0.93957 0.89848 0.0
H435 H 0.75781 0.9391 0.92042 0.0
H436 H 0.71229 0.94067 0.88004 0.0
H437 H 0.75265 0.94117 0.85797 0.0
H438 H 0.71698 0.97806 0.8558 0.0
H439 H 0.78427 0.10803 0.877 0.0
H440 H 0.839 0.09572 0.84737 0.0
H441 H 0.82 0.97428 0.85468 0.0
C442 C 0.6984 1.00182 0.92097 0.0
C443 C 0.67715 0.03183 0.93253 0.0
C444 C 0.68787 0.06993 0.92715 0.0
C445 C 0.7191 0.07806 0.91077 0.0
C446 C 0.73928 0.04784 0.89971 0.0
C447 C 0.72932 0.01048 0.90449 0.0
C448 C 0.75547 0.98329 0.88981 0.0
C449 C 0.77762 0.95785 0.90929 0.0
C450 C 0.733 0.95939 0.86971 0.0
C451 C 0.78163 0.01123 0.87602 0.0
C452 C 0.77189 0.04831 0.88212 0.0
C453 C 0.79217 0.07912 0.87207 0.0
C454 C 0.8233 0.07185 0.85537 0.0
C455 C 0.83375 0.03408 0.84875 0.0
C456 C 0.81244 1.00346 0.85918 0.0
H457 H 0.99893 0.66879 0.40634 0.0
H458 H 0.02484 0.71819 0.48277 0.0
H459 H 0.03082 0.78169 0.46186 0.0
H460 H 0.06101 0.72716 0.36668 0.0
H461 H 0.02789 0.73165 0.33957 0.0
H462 H 0.02697 0.68997 0.36035 0.0
H463 H 0.95547 0.7018 0.3705 0.0
H464 H 0.95613 0.74337 0.34964 0.0
H465 H 0.94061 0.74718 0.38358 0.0
H466 H 0.03633 0.83891 0.43233 0.0
H467 H 0.03516 0.88749 0.3973 0.0
H468 H 0.99932 0.80188 0.34054 0.0
C469 C 1.00597 0.69307 0.41854 0.0
C470 C 0.01173 0.68891 0.44606 0.0
C471 C 0.02038 0.72111 0.46164 0.0
C472 C 0.02395 0.75712 0.44993 0.0
C473 C 0.01819 0.76038 0.4227 0.0
C474 C 0.00887 0.72935 0.40724 0.0
C475 C 1.00246 0.74097 0.37866 0.0
C476 C 0.03131 0.72126 0.36023 0.0
C477 C 0.96121 0.73285 0.3701 0.0
C478 C 0.00992 0.78332 0.38042 0.0
C479 C 0.01934 0.7938 0.40593 0.0
C480 C 0.02839 0.83115 0.41235 0.0
C481 C 0.02728 0.85867 0.39225 0.0
C482 C 0.01651 0.84899 0.36601 0.0
C483 C 0.00797 0.81054 0.36018 0.0
loop_
_geom_bond_atom_site_label_1
_geom_bond_atom_site_label_2
_geom_bond_distance
_geom_bond_site_symmetry_2
_ccdc_geom_bond_type
C0 C1 1.366 1_545 S
C0 C2 1.384 . S
C0 H28 0.931 . S
C1 C0 1.366 1_565 S
C1 C4 1.402 . S
C2 C0 1.384 . S
C2 C3 1.381 1_545 S
C2 H29 0.930 . S
C3 C2 1.381 1_565 S
C3 C5 1.381 . S
C3 C6 1.487 . S
C4 C1 1.402 . S
C4 C5 1.387 . S
C4 H30 0.930 . S
C5 C3 1.381 . S
C5 C4 1.387 . S
C5 H31 0.931 . S
C6 C3 1.487 . S
C6 C13 1.399 1_566 S
C6 N44 1.343 . S
C7 C8 1.384 1_565 S
C7 C9 1.384 . S
C7 H32 0.931 . S
C8 C7 1.384 1_545 S
C8 C11 1.382 . S
C9 C7 1.384 . S
C9 C10 1.381 1_565 S
C9 H33 0.930 . S
C10 C9 1.381 1_545 S
C10 C12 1.381 . S
C10 C13 1.487 . S
C11 C8 1.382 . S
C11 C12 1.387 . S
C11 H34 0.930 . S
C12 C10 1.381 . S
C12 C11 1.387 . S
C12 H35 0.931 . S
C13 C6 1.399 1_544 S
C13 C10 1.487 . S
C13 N45 1.343 . S
C14 C15 1.384 1_565 S
C14 C16 1.384 . S
C14 H36 0.931 . S
C15 C14 1.384 1_545 S
C15 C18 1.382 . S
C16 C14 1.384 . S
C16 C17 1.381 1_565 S
C16 H37 0.930 . S
C17 C16 1.381 1_545 S
C17 C19 1.381 . S
C17 C20 1.487 . S
C18 C15 1.382 . S
C18 C19 1.387 . S
C18 H38 0.930 . S
C19 C17 1.381 . S
C19 C18 1.387 . S
C19 H39 0.931 . S
C20 C17 1.487 . S
C20 C27 1.399 1_544 S
C20 N45 1.343 . S
C21 C22 1.366 1_545 S
C21 C23 1.384 . S
C21 H40 0.931 . S
C22 C21 1.366 1_565 S
C22 C25 1.402 . S
C23 C21 1.384 . S
C23 C24 1.381 1_545 S
C23 H41 0.930 . S
C24 C23 1.381 1_565 S
C24 C26 1.381 . S
C24 C27 1.487 . S
C25 C22 1.402 . S
C25 C26 1.387 . S
C25 H42 0.930 . S
C26 C24 1.381 . S
C26 C25 1.387 . S
C26 H43 0.931 . S
C27 C20 1.399 1_566 S
C27 C24 1.487 . S
C27 N44 1.343 . S
H28 C0 0.931 . S
H29 C2 0.930 . S
H30 C4 0.930 . S
H31 C5 0.931 . S
H32 C7 0.931 . S
H33 C9 0.930 . S
H34 C11 0.930 . S
H35 C12 0.931 . S
H36 C14 0.931 . S
H37 C16 0.930 . S
H38 C18 0.930 . S
H39 C19 0.931 . S
H40 C21 0.931 . S
H41 C23 0.930 . S
H42 C25 0.930 . S
H43 C26 0.931 . S
N44 C6 1.343 . S
N44 C27 1.343 . S
N45 C13 1.343 . S
N45 C20 1.343 . S
C46 C47 1.366 1_455 S
C46 C48 1.384 . S
C46 H74 0.931 . S
C47 C46 1.366 1_655 S
C47 C50 1.402 . S
C48 C46 1.384 . S
C48 C49 1.381 1_455 S
C48 H75 0.930 . S
C49 C48 1.381 1_655 S
C49 C51 1.381 . S
C49 C52 1.487 . S
C50 C47 1.402 . S
C50 C51 1.387 . S
C50 H76 0.930 . S
C51 C49 1.381 . S
C51 C50 1.387 . S
C51 H77 0.931 . S
C52 C49 1.487 . S
C52 C59 1.399 1_655 S
C52 N90 1.343 . S
C53 C54 1.384 1_655 S
C53 C55 1.384 . S
C53 H78 0.931 . S
C54 C53 1.384 1_455 S
C54 C57 1.382 . S
C55 C53 1.384 . S
C55 C56 1.381 1_655 S
C55 H79 0.930 . S
C56 C55 1.381 1_455 S
C56 C58 1.381 . S
C56 C59 1.487 . S
C57 C54 1.382 . S
C57 C58 1.387 . S
C57 H80 0.930 . S
C58 C56 1.381 . S
C58 C57 1.387 . S
C58 H81 0.931 . S
C59 C52 1.399 1_455 S
C59 C56 1.487 . S
C59 N91 1.343 . S
C60 C61 1.384 1_655 S
C60 C62 1.384 . S
C60 H82 0.931 . S
C61 C60 1.384 1_455 S
C61 C64 1.382 . S
C62 C60 1.384 . S
C62 C63 1.381 1_655 S
C62 H83 0.930 . S
C63 C62 1.381 1_455 S
C63 C65 1.381 . S
C63 C66 1.487 . S
C64 C61 1.382 . S
C64 C65 1.387 . S
C64 H84 0.930 . S
C65 C63 1.381 . S
C65 C64 1.387 . S
C65 H85 0.931 . S
C66 C63 1.487 . S
C66 C73 1.399 1_455 S
C66 N91 1.343 . S
C67 C68 1.366 1_455 S
C67 C69 1.384 . S
C67 H86 0.931 . S
C68 C67 1.366 1_655 S
C68 C71 1.402 . S
C69 C67 1.384 . S
C69 C70 1.381 1_455 S
C69 H87 0.930 . S
C70 C69 1.381 1_655 S
C70 C72 1.381 . S
C70 C73 1.487 . S
C71 C68 1.402 . S
C71 C72 1.387 . S
C71 H88 0.930 . S
C72 C70 1.381 . S
C72 C71 1.387 . S
C72 H89 0.931 . S
C73 C66 1.399 1_655 S
C73 C70 1.487 . S
C73 N90 1.343 . S
H74 C46 0.931 . S
H75 C48 0.930 . S
H76 C50 0.930 . S
H77 C51 0.931 . S
H78 C53 0.931 . S
H79 C55 0.930 . S
H80 C57 0.930 . S
H81 C58 0.931 . S
H82 C60 0.931 . S
H83 C62 0.930 . S
H84 C64 0.930 . S
H85 C65 0.931 . S
H86 C67 0.931 . S
H87 C69 0.930 . S
H88 C71 0.930 . S
H89 C72 0.931 . S
N90 C52 1.343 . S
N90 C73 1.343 . S
N91 C59 1.343 . S
N91 C66 1.343 . S
Li92 N109 1.990 . S
Li92 O152 1.956 1_545 S
Li92 O153 1.970 1_455 S
Li92 O154 1.961 1_455 S
Li93 N117 1.990 . S
Li93 O152 1.970 1_655 S
Li93 O153 1.956 1_565 S
Li93 O155 1.961 1_655 S
Li94 N139 1.990 . S
Li94 O152 1.961 1_545 S
Li94 O154 1.956 1_455 S
Li94 O155 1.970 1_545 S
Li95 N145 1.990 . S
Li95 O153 1.961 1_565 S
Li95 O154 1.970 1_565 S
Li95 O155 1.956 1_655 S
C96 C98 1.348 1_545 S
C96 C99 1.356 . S
C96 O152 1.325 1_545 S
N97 C100 1.314 1_545 S
N97 C101 1.279 . S
C98 C96 1.348 1_565 S
C98 C100 1.353 . S
C98 H156 0.929 . S
C99 C96 1.356 . S
C99 C101 1.358 . S
C99 H157 0.930 . S
C100 N97 1.314 1_565 S
C100 C98 1.353 . S
C100 H158 0.930 . S
C101 N97 1.279 . S
C101 C99 1.358 . S
C101 H159 0.930 . S
C102 C105 1.348 . S
C102 C106 1.356 1_545 S
C102 O153 1.325 . S
C103 N104 1.279 . S
C103 C106 1.358 . S
C103 H160 0.930 . S
N104 C103 1.279 . S
N104 C107 1.314 1_565 S
C105 C102 1.348 . S
C105 C107 1.353 . S
C105 H161 0.929 . S
C106 C102 1.356 1_565 S
C106 C103 1.358 . S
C106 H162 0.930 . S
C107 N104 1.314 1_545 S
C107 C105 1.353 . S
C107 H163 0.930 . S
C108 N109 1.314 1_655 S
C108 C113 1.353 . S
C108 H114 0.930 . S
N109 Li92 1.990 . S
N109 C108 1.314 1_455 S
N109 C111 1.279 . S
C110 C111 1.358 . S
C110 C112 1.356 . S
C110 H164 0.930 . S
C111 N109 1.279 . S
C111 C110 1.358 . S
C111 H115 0.930 . S
C112 C110 1.356 . S
C112 C113 1.348 1_455 S
C113 C108 1.353 . S
C113 C112 1.348 1_655 S
C113 H165 0.929 . S
H114 C108 0.930 . S
H115 C111 0.930 . S
C116 N117 1.314 1_455 S
C116 C118 1.353 . S
C116 H122 0.930 . S
N117 Li93 1.990 . S
N117 C116 1.314 1_655 S
N117 C120 1.279 . S
C118 C116 1.353 . S
C118 C121 1.348 . S
C118 H166 0.929 . S
C119 C120 1.358 . S
C119 C121 1.356 1_655 S
C119 H167 0.930 . S
C120 N117 1.279 . S
C120 C119 1.358 . S
C120 H123 0.930 . S
C121 C118 1.348 . S
C121 C119 1.356 1_455 S
H122 C116 0.930 . S
H123 C120 0.930 . S
C124 C126 1.348 1_455 S
C124 C127 1.356 . S
C124 O154 1.325 1_455 S
N125 C128 1.314 1_455 S
N125 C129 1.279 . S
C126 C124 1.348 1_655 S
C126 C128 1.353 . S
C126 H168 0.929 . S
C127 C124 1.356 . S
C127 C129 1.358 . S
C127 H169 0.930 . S
C128 N125 1.314 1_655 S
C128 C126 1.353 . S
C128 H170 0.930 . S
C129 N125 1.279 . S
C129 C127 1.358 . S
C129 H171 0.930 . S
C130 C131 1.348 . S
C130 C132 1.356 1_455 S
C130 O155 1.325 . S
C131 C130 1.348 . S
C131 C133 1.353 . S
C131 H172 0.929 . S
C132 C130 1.356 1_655 S
C132 C134 1.358 . S
C132 H173 0.930 . S
C133 C131 1.353 . S
C133 N135 1.314 1_455 S
C133 H174 0.930 . S
C134 C132 1.358 . S
C134 N135 1.279 . S
C134 H175 0.930 . S
N135 C133 1.314 1_655 S
N135 C134 1.279 . S
C136 C138 1.353 . S
C136 N139 1.314 1_565 S
C136 H142 0.930 . S
C137 N139 1.279 . S
C137 C140 1.358 . S
C137 H143 0.930 . S
C138 C136 1.353 . S
C138 C141 1.348 1_565 S
C138 H176 0.929 . S
N139 Li94 1.990 . S
N139 C136 1.314 1_545 S
N139 C137 1.279 . S
C140 C137 1.358 . S
C140 C141 1.356 . S
C140 H177 0.930 . S
C141 C138 1.348 1_545 S
C141 C140 1.356 . S
H142 C136 0.930 . S
H143 C137 0.930 . S
C144 N145 1.314 1_545 S
C144 C146 1.353 . S
C144 H150 0.930 . S
N145 Li95 1.990 . S
N145 C144 1.314 1_565 S
N145 C148 1.279 . S
C146 C144 1.353 . S
C146 C149 1.348 . S
C146 H178 0.929 . S
C147 C148 1.358 . S
C147 C149 1.356 1_565 S
C147 H179 0.930 . S
C148 N145 1.279 . S
C148 C147 1.358 . S
C148 H151 0.930 . S
C149 C146 1.348 . S
C149 C147 1.356 1_545 S
H150 C144 0.930 . S
H151 C148 0.930 . S
O152 Li92 1.956 1_565 S
O152 Li93 1.970 1_455 S
O152 Li94 1.961 1_565 S
O152 C96 1.325 1_565 S
O153 Li92 1.970 1_655 S
O153 Li93 1.956 1_545 S
O153 Li95 1.961 1_545 S
O153 C102 1.325 . S
O154 Li92 1.961 1_655 S
O154 Li94 1.956 1_655 S
O154 Li95 1.970 1_545 S
O154 C124 1.325 1_655 S
O155 Li93 1.961 1_455 S
O155 Li94 1.970 1_565 S
O155 Li95 1.956 1_455 S
O155 C130 1.325 . S
H156 C98 0.929 . S
H157 C99 0.930 . S
H158 C100 0.930 . S
H159 C101 0.930 . S
H160 C103 0.930 . S
H161 C105 0.929 . S
H162 C106 0.930 . S
H163 C107 0.930 . S
H164 C110 0.930 . S
H165 C113 0.929 . S
H166 C118 0.929 . S
H167 C119 0.930 . S
H168 C126 0.929 . S
H169 C127 0.930 . S
H170 C128 0.930 . S
H171 C129 0.930 . S
H172 C131 0.929 . S
H173 C132 0.930 . S
H174 C133 0.930 . S
H175 C134 0.930 . S
H176 C138 0.929 . S
H177 C140 0.930 . S
H178 C146 0.929 . S
H179 C147 0.930 . S
Li180 N197 1.990 . S
Li180 O240 1.956 1_655 S
Li180 O241 1.970 1_545 S
Li180 O242 1.961 1_545 S
Li181 N205 1.990 . S
Li181 O240 1.970 1_565 S
Li181 O241 1.956 1_455 S
Li181 O243 1.961 1_565 S
Li182 N227 1.990 . S
Li182 O240 1.961 1_655 S
Li182 O242 1.956 1_545 S
Li182 O243 1.970 1_655 S
Li183 N233 1.990 . S
Li183 O241 1.961 1_455 S
Li183 O242 1.970 1_455 S
Li183 O243 1.956 1_565 S
C184 C186 1.348 . S
C184 C187 1.356 1_455 S
C184 O240 1.325 . S
N185 C188 1.314 1_655 S
N185 C189 1.279 . S
C186 C184 1.348 . S
C186 C188 1.353 . S
C186 H244 0.929 . S
C187 C184 1.356 1_655 S
C187 C189 1.358 . S
C187 H245 0.930 . S
C188 N185 1.314 1_455 S
C188 C186 1.353 . S
C188 H246 0.930 . S
C189 N185 1.279 . S
C189 C187 1.358 . S
C189 H247 0.930 . S
C190 C193 1.348 1_455 S
C190 C194 1.356 . S
C190 O241 1.325 1_455 S
C191 N192 1.279 . S
C191 C194 1.358 . S
C191 H248 0.930 . S
N192 C191 1.279 . S
N192 C195 1.314 1_455 S
C193 C190 1.348 1_655 S
C193 C195 1.353 . S
C193 H249 0.929 . S
C194 C190 1.356 . S
C194 C191 1.358 . S
C194 H250 0.930 . S
C195 N192 1.314 1_655 S
C195 C193 1.353 . S
C195 H251 0.930 . S
C196 N197 1.314 1_565 S
C196 C201 1.353 . S
C196 H202 0.930 . S
N197 Li180 1.990 . S
N197 C196 1.314 1_545 S
N197 C199 1.279 . S
C198 C199 1.358 . S
C198 C200 1.356 . S
C198 H252 0.930 . S
C199 N197 1.279 . S
C199 C198 1.358 . S
C199 H203 0.930 . S
C200 C198 1.356 . S
C200 C201 1.348 1_545 S
C201 C196 1.353 . S
C201 C200 1.348 1_565 S
C201 H253 0.929 . S
H202 C196 0.930 . S
H203 C199 0.930 . S
C204 N205 1.314 1_545 S
C204 C206 1.353 . S
C204 H210 0.930 . S
N205 Li181 1.990 . S
N205 C204 1.314 1_565 S
N205 C208 1.279 . S
C206 C204 1.353 . S
C206 C209 1.348 . S
C206 H254 0.929 . S
C207 C208 1.358 . S
C207 C209 1.356 1_565 S
C207 H255 0.930 . S
C208 N205 1.279 . S
C208 C207 1.358 . S
C208 H211 0.930 . S
C209 C206 1.348 . S
C209 C207 1.356 1_545 S
H210 C204 0.930 . S
H211 C208 0.930 . S
C212 C214 1.348 1_545 S
C212 C215 1.356 . S
C212 O242 1.325 1_545 S
N213 C216 1.314 1_545 S
N213 C217 1.279 . S
C214 C212 1.348 1_565 S
C214 C216 1.353 . S
C214 H256 0.929 . S
C215 C212 1.356 . S
C215 C217 1.358 . S
C215 H257 0.930 . S
C216 N213 1.314 1_565 S
C216 C214 1.353 . S
C216 H258 0.930 . S
C217 N213 1.279 . S
C217 C215 1.358 . S
C217 H259 0.930 . S
C218 C219 1.348 . S
C218 C220 1.356 1_545 S
C218 O243 1.325 . S
C219 C218 1.348 . S
C219 C221 1.353 . S
C219 H260 0.929 . S
C220 C218 1.356 1_565 S
C220 C222 1.358 . S
C220 H261 0.930 . S
C221 C219 1.353 . S
C221 N223 1.314 1_545 S
C221 H262 0.930 . S
C222 C220 1.358 . S
C222 N223 1.279 . S
C222 H263 0.930 . S
N223 C221 1.314 1_565 S
N223 C222 1.279 . S
C224 C226 1.353 . S
C224 N227 1.314 1_455 S
C224 H230 0.930 . S
C225 N227 1.279 . S
C225 C228 1.358 . S
C225 H231 0.930 . S
C226 C224 1.353 . S
C226 C229 1.348 . S
C226 H264 0.929 . S
N227 Li182 1.990 . S
N227 C224 1.314 1_655 S
N227 C225 1.279 . S
C228 C225 1.358 . S
C228 C229 1.356 1_655 S
C228 H265 0.930 . S
C229 C226 1.348 . S
C229 C228 1.356 1_455 S
H230 C224 0.930 . S
H231 C225 0.930 . S
C232 N233 1.314 1_655 S
C232 C234 1.353 . S
C232 H238 0.930 . S
N233 Li183 1.990 . S
N233 C232 1.314 1_455 S
N233 C236 1.279 . S
C234 C232 1.353 . S
C234 C237 1.348 1_655 S
C234 H266 0.929 . S
C235 C236 1.358 . S
C235 C237 1.356 . S
C235 H267 0.930 . S
C236 N233 1.279 . S
C236 C235 1.358 . S
C236 H239 0.930 . S
C237 C234 1.348 1_455 S
C237 C235 1.356 . S
H238 C232 0.930 . S
H239 C236 0.930 . S
O240 Li180 1.956 1_455 S
O240 Li181 1.970 1_545 S
O240 Li182 1.961 1_455 S
O240 C184 1.325 . S
O241 Li180 1.970 1_565 S
O241 Li181 1.956 1_655 S
O241 Li183 1.961 1_655 S
O241 C190 1.325 1_655 S
O242 Li180 1.961 1_565 S
O242 Li182 1.956 1_565 S
O242 Li183 1.970 1_655 S
O242 C212 1.325 1_565 S
O243 Li181 1.961 1_545 S
O243 Li182 1.970 1_455 S
O243 Li183 1.956 1_545 S
O243 C218 1.325 . S
H244 C186 0.929 . S
H245 C187 0.930 . S
H246 C188 0.930 . S
H247 C189 0.930 . S
H248 C191 0.930 . S
H249 C193 0.929 . S
H250 C194 0.930 . S
H251 C195 0.930 . S
H252 C198 0.930 . S
H253 C201 0.929 . S
H254 C206 0.929 . S
H255 C207 0.930 . S
H256 C214 0.929 . S
H257 C215 0.930 . S
H258 C216 0.930 . S
H259 C217 0.930 . S
H260 C219 0.929 . S
H261 C220 0.930 . S
H262 C221 0.930 . S
H263 C222 0.930 . S
H264 C226 0.929 . S
H265 C228 0.930 . S
H266 C234 0.929 . S
H267 C235 0.930 . S
H268 C280 0.930 . S
H269 C282 0.930 . S
H270 C283 0.930 . S
H271 C287 0.959 . S
H272 C287 0.959 . S
H273 C287 0.961 . S
H274 C288 0.960 . S
H275 C288 0.961 . S
H276 C288 0.959 . S
H277 C291 0.929 . S
H278 C292 0.931 . S
H279 C294 0.930 . S
C280 H268 0.930 . S
C280 C281 1.399 1_545 S
C280 C285 1.399 . S
C281 C280 1.399 1_565 S
C281 C282 1.376 . S
C282 H269 0.930 . S
C282 C281 1.376 . S
C282 C283 1.388 . S
C283 H270 0.930 . S
C283 C282 1.388 . S
C283 C284 1.390 . S
C284 C283 1.390 . S
C284 C285 1.394 1_565 S
C284 C290 1.465 . S
C285 C280 1.399 . S
C285 C284 1.394 1_545 S
C285 C286 1.516 . S
C286 C285 1.516 . S
C286 C287 1.502 . S
C286 C288 1.561 . S
C286 C289 1.526 . S
C287 H271 0.959 . S
C287 H272 0.959 . S
C287 H273 0.961 . S
C287 C286 1.502 . S
C288 H274 0.960 . S
C288 H275 0.961 . S
C288 H276 0.959 . S
C288 C286 1.561 . S
C289 C286 1.526 . S
C289 C290 1.396 1_545 S
C289 C294 1.390 . S
C290 C284 1.465 . S
C290 C289 1.396 1_565 S
C290 C291 1.399 . S
C291 H277 0.929 . S
C291 C290 1.399 . S
C291 C292 1.385 . S
C292 H278 0.931 . S
C292 C291 1.385 . S
C292 C293 1.389 . S
C293 C292 1.389 . S
C293 C294 1.387 1_565 S
C294 H279 0.930 . S
C294 C289 1.390 . S
C294 C293 1.387 1_545 S
H295 C307 0.930 . S
H296 C309 0.930 . S
H297 C310 0.930 . S
H298 C314 0.959 . S
H299 C314 0.959 . S
H300 C314 0.961 . S
H301 C315 0.960 . S
H302 C315 0.968 . S
H303 C315 0.959 . S
H304 C318 0.929 . S
H305 C319 0.931 . S
H306 C321 0.930 . S
C307 H295 0.930 . S
C307 C308 1.399 1_655 S
C307 C312 1.399 . S
C308 C307 1.399 1_455 S
C308 C309 1.376 . S
C309 H296 0.930 . S
C309 C308 1.376 . S
C309 C310 1.388 . S
C310 H297 0.930 . S
C310 C309 1.388 . S
C310 C311 1.390 . S
C311 C310 1.390 . S
C311 C312 1.394 1_455 S
C311 C317 1.465 . S
C312 C307 1.399 . S
C312 C311 1.394 1_655 S
C312 C313 1.516 . S
C313 C312 1.516 . S
C313 C314 1.502 . S
C313 C315 1.561 1_655 S
C313 C316 1.526 . S
C314 H298 0.959 . S
C314 H299 0.959 . S
C314 H300 0.961 . S
C314 C313 1.502 . S
C315 H301 0.960 . S
C315 H302 0.968 . S
C315 H303 0.959 . S
C315 C313 1.561 1_455 S
C316 C313 1.526 . S
C316 C317 1.396 1_655 S
C316 C321 1.390 . S
C317 C311 1.465 . S
C317 C316 1.396 1_455 S
C317 C318 1.399 . S
C318 H304 0.929 . S
C318 C317 1.399 . S
C318 C319 1.385 . S
C319 H305 0.931 . S
C319 C318 1.385 . S
C319 C320 1.389 . S
C320 C319 1.389 . S
C320 C321 1.387 1_455 S
C321 H306 0.930 . S
C321 C316 1.390 . S
C321 C320 1.387 1_655 S
H322 C334 0.930 . S
H323 C336 0.930 . S
H324 C337 0.930 . S
H325 C341 0.959 . S
H326 C341 0.959 . S
H327 C341 0.961 . S
H328 C342 0.960 . S
H329 C342 0.961 . S
H330 C342 0.959 1_545 S
H331 C345 0.929 . S
H332 C346 0.931 . S
H333 C348 0.930 . S
C334 H322 0.930 . S
C334 C335 1.399 1_565 S
C334 C339 1.399 . S
C335 C334 1.399 1_545 S
C335 C336 1.376 . S
C336 H323 0.930 . S
C336 C335 1.376 . S
C336 C337 1.388 . S
C337 H324 0.930 . S
C337 C336 1.388 . S
C337 C338 1.390 . S
C338 C337 1.390 . S
C338 C339 1.394 1_545 S
C338 C344 1.465 . S
C339 C334 1.399 . S
C339 C338 1.394 1_565 S
C339 C340 1.516 . S
C340 C339 1.516 . S
C340 C341 1.502 . S
C340 C342 1.561 . S
C340 C343 1.526 . S
C341 H325 0.959 . S
C341 H326 0.959 . S
C341 H327 0.961 . S
C341 C340 1.502 . S
C342 H328 0.960 . S
C342 H329 0.961 . S
C342 H330 0.959 1_565 S
C342 C340 1.561 . S
C343 C340 1.526 . S
C343 C344 1.396 1_565 S
C343 C348 1.390 . S
C344 C338 1.465 . S
C344 C343 1.396 1_545 S
C344 C345 1.399 . S
C345 H331 0.929 . S
C345 C344 1.399 . S
C345 C346 1.385 . S
C346 H332 0.931 . S
C346 C345 1.385 . S
C346 C347 1.389 . S
C347 C346 1.389 . S
C347 C348 1.387 1_545 S
C348 H333 0.930 . S
C348 C343 1.390 . S
C348 C347 1.387 1_565 S
H349 C361 0.929 1_455 S
H350 C363 0.930 . S
H351 C364 0.930 . S
H352 C368 0.959 . S
H353 C368 0.959 . S
H354 C368 0.961 . S
H355 C369 0.960 . S
H356 C369 0.961 . S
H357 C369 0.959 . S
H358 C372 0.929 . S
H359 C373 0.931 . S
H360 C375 0.930 . S
C361 H349 0.929 1_655 S
C361 C362 1.399 . S
C361 C366 1.399 . S
C362 C361 1.399 . S
C362 C363 1.376 . S
C363 H350 0.930 . S
C363 C362 1.376 . S
C363 C364 1.388 . S
C364 H351 0.930 . S
C364 C363 1.388 . S
C364 C365 1.390 . S
C365 C364 1.390 . S
C365 C366 1.394 . S
C365 C371 1.465 . S
C366 C361 1.399 . S
C366 C365 1.394 . S
C366 C367 1.516 . S
C367 C366 1.516 . S
C367 C368 1.502 1_655 S
C367 C369 1.561 . S
C367 C370 1.526 . S
C368 H352 0.959 . S
C368 H353 0.959 . S
C368 H354 0.961 . S
C368 C367 1.502 1_455 S
C369 H355 0.960 . S
C369 H356 0.961 . S
C369 H357 0.959 . S
C369 C367 1.561 . S
C370 C367 1.526 . S
C370 C371 1.396 . S
C370 C375 1.390 . S
C371 C365 1.465 . S
C371 C370 1.396 . S
C371 C372 1.399 . S
C372 H358 0.929 . S
C372 C371 1.399 . S
C372 C373 1.385 . S
C373 H359 0.931 . S
C373 C372 1.385 . S
C373 C374 1.389 . S
C374 C373 1.389 . S
C374 C375 1.387 . S
C375 H360 0.930 . S
C375 C370 1.390 . S
C375 C374 1.387 . S
H376 C388 0.930 . S
H377 C390 0.930 . S
H378 C391 0.930 . S
H379 C395 0.959 . S
H380 C395 0.959 . S
H381 C395 0.961 . S
H382 C396 0.960 . S
H383 C396 0.961 . S
H384 C396 0.959 . S
H385 C399 0.929 . S
H386 C400 0.931 . S
H387 C402 0.930 . S
C388 H376 0.930 . S
C388 C389 1.399 1_545 S
C388 C393 1.399 . S
C389 C388 1.399 1_565 S
C389 C390 1.376 . S
C390 H377 0.930 . S
C390 C389 1.376 . S
C390 C391 1.388 . S
C391 H378 0.930 . S
C391 C390 1.388 . S
C391 C392 1.390 . S
C392 C391 1.390 . S
C392 C393 1.394 1_565 S
C392 C398 1.465 . S
C393 C388 1.399 . S
C393 C392 1.394 1_545 S
C393 C394 1.516 . S
C394 C393 1.516 . S
C394 C395 1.502 . S
C394 C396 1.561 . S
C394 C397 1.526 . S
C395 H379 0.959 . S
C395 H380 0.959 . S
C395 H381 0.961 . S
C395 C394 1.502 . S
C396 H382 0.960 . S
C396 H383 0.961 . S
C396 H384 0.959 . S
C396 C394 1.561 . S
C397 C394 1.526 . S
C397 C398 1.396 1_545 S
C397 C402 1.390 . S
C398 C392 1.465 . S
C398 C397 1.396 1_565 S
C398 C399 1.399 . S
C399 H385 0.929 . S
C399 C398 1.399 . S
C399 C400 1.385 . S
C400 H386 0.931 . S
C400 C399 1.385 . S
C400 C401 1.389 . S
C401 C400 1.389 . S
C401 C402 1.387 1_565 S
C402 H387 0.930 . S
C402 C397 1.390 . S
C402 C401 1.387 1_545 S
H403 C415 0.930 . S
H404 C417 0.930 . S
H405 C418 0.930 . S
H406 C422 0.959 . S
H407 C422 0.959 . S
H408 C422 0.961 . S
H409 C423 0.960 . S
H410 C423 0.961 . S
H411 C423 0.959 1_655 S
H412 C426 0.929 . S
H413 C427 0.931 . S
H414 C429 0.930 . S
C415 H403 0.930 . S
C415 C416 1.399 1_455 S
C415 C420 1.399 . S
C416 C415 1.399 1_655 S
C416 C417 1.376 . S
C417 H404 0.930 . S
C417 C416 1.376 . S
C417 C418 1.388 . S
C418 H405 0.930 . S
C418 C417 1.388 . S
C418 C419 1.390 . S
C419 C418 1.390 . S
C419 C420 1.394 1_655 S
C419 C425 1.465 . S
C420 C415 1.399 . S
C420 C419 1.394 1_455 S
C420 C421 1.516 . S
C421 C420 1.516 . S
C421 C422 1.502 . S
C421 C423 1.561 . S
C421 C424 1.526 . S
C422 H406 0.959 . S
C422 H407 0.959 . S
C422 H408 0.961 . S
C422 C421 1.502 . S
C423 H409 0.960 . S
C423 H410 0.961 . S
C423 H411 0.959 1_455 S
C423 C421 1.561 . S
C424 C421 1.526 . S
C424 C425 1.396 1_455 S
C424 C429 1.390 . S
C425 C419 1.465 . S
C425 C424 1.396 1_655 S
C425 C426 1.399 . S
C426 H412 0.929 . S
C426 C425 1.399 . S
C426 C427 1.385 . S
C427 H413 0.931 . S
C427 C426 1.385 . S
C427 C428 1.389 . S
C428 C427 1.389 . S
C428 C429 1.387 1_655 S
C429 H414 0.930 . S
C429 C424 1.390 . S
C429 C428 1.387 1_455 S
H430 C442 0.930 . S
H431 C444 0.930 . S
H432 C445 0.930 . S
H433 C449 0.959 . S
H434 C449 0.959 . S
H435 C449 0.961 . S
H436 C450 0.960 . S
H437 C450 0.961 . S
H438 C450 0.959 . S
H439 C453 0.929 . S
H440 C454 0.931 . S
H441 C456 0.930 . S
C442 H430 0.930 . S
C442 C443 1.399 1_565 S
C442 C447 1.399 . S
C443 C442 1.399 1_545 S
C443 C444 1.376 . S
C444 H431 0.930 . S
C444 C443 1.376 . S
C444 C445 1.388 . S
C445 H432 0.930 . S
C445 C444 1.388 . S
C445 C446 1.390 . S
C446 C445 1.390 . S
C446 C447 1.394 1_545 S
C446 C452 1.465 . S
C447 C442 1.399 . S
C447 C446 1.394 1_565 S
C447 C448 1.516 . S
C448 C447 1.516 . S
C448 C449 1.502 . S
C448 C450 1.561 . S
C448 C451 1.526 . S
C449 H433 0.959 . S
C449 H434 0.959 . S
C449 H435 0.961 . S
C449 C448 1.502 . S
C450 H436 0.960 . S
C450 H437 0.961 . S
C450 H438 0.959 . S
C450 C448 1.561 . S
C451 C448 1.526 . S
C451 C452 1.396 1_565 S
C451 C456 1.390 . S
C452 C446 1.465 . S
C452 C451 1.396 1_545 S
C452 C453 1.399 . S
C453 H439 0.929 . S
C453 C452 1.399 . S
C453 C454 1.385 . S
C454 H440 0.931 . S
C454 C453 1.385 . S
C454 C455 1.389 . S
C455 C454 1.389 . S
C455 C456 1.387 1_545 S
C456 H441 0.930 . S
C456 C451 1.390 . S
C456 C455 1.387 1_565 S
H457 C469 0.930 . S
H458 C471 0.930 . S
H459 C472 0.930 . S
H460 C476 0.959 . S
H461 C476 0.959 . S
H462 C476 0.961 . S
H463 C477 0.957 1_455 S
H464 C477 0.961 1_455 S
H465 C477 0.959 . S
H466 C480 0.929 . S
H467 C481 0.931 . S
H468 C483 0.930 . S
C469 H457 0.930 . S
C469 C470 1.399 1_455 S
C469 C474 1.399 . S
C470 C469 1.399 1_655 S
C470 C471 1.376 . S
C471 H458 0.930 . S
C471 C470 1.376 . S
C471 C472 1.388 . S
C472 H459 0.930 . S
C472 C471 1.388 . S
C472 C473 1.390 . S
C473 C472 1.390 . S
C473 C474 1.394 1_655 S
C473 C479 1.465 . S
C474 C469 1.399 . S
C474 C473 1.394 1_455 S
C474 C475 1.516 . S
C475 C474 1.516 . S
C475 C476 1.502 . S
C475 C477 1.561 1_455 S
C475 C478 1.526 . S
C476 H460 0.959 . S
C476 H461 0.959 . S
C476 H462 0.961 . S
C476 C475 1.502 . S
C477 H463 0.957 1_655 S
C477 H464 0.961 1_655 S
C477 H465 0.959 . S
C477 C475 1.561 1_655 S
C478 C475 1.526 . S
C478 C479 1.396 1_455 S
C478 C483 1.390 . S
C479 C473 1.465 . S
C479 C478 1.396 1_655 S
C479 C480 1.399 . S
C480 H466 0.929 . S
C480 C479 1.399 . S
C480 C481 1.385 . S
C481 H467 0.931 . S
C481 C480 1.385 . S
C481 C482 1.389 . S
C482 C481 1.389 . S
C482 C483 1.387 1_655 S
C483 H468 0.930 . S
C483 C478 1.390 . S
C483 C482 1.387 1_455 S
C293 C141 1.487 1_565 S
C281 C15 1.476 1_565 S
C320 C229 1.487 . S
C308 C68 1.485 1_455 S
C347 C149 1.488 . S
C335 C8 1.480 . S
C374 C237 1.486 1_655 S
C362 C47 1.489 . S
C401 C209 1.482 1_565 S
C389 C22 1.489 . S
C428 C112 1.488 1_655 S
C416 C61 1.487 1_655 S
C455 C200 1.482 . S
C443 C1 1.491 1_545 S
C470 C54 1.484 1_655 S
C482 C121 1.485 1_655 S
