# Generated by pormake.
# Topology pyr, (3,6)-cn, num edge types: 1
# Building blocks:
#     Node 0, Type 0, BuildingBlock: PAMTOO_clean_linker_0, # of connection points: 3
#     Node 1, Type 0, BuildingBlock: PAMTOO_clean_linker_0, # of connection points: 3
#     Node 2, Type 0, BuildingBlock: PAMTOO_clean_linker_0, # of connection points: 3
#     Node 3, Type 0, BuildingBlock: PAMTOO_clean_linker_0, # of connection points: 3
#     Node 4, Type 0, BuildingBlock: PAMTOO_clean_linker_0, # of connection points: 3
#     Node 5, Type 0, BuildingBlock: PAMTOO_clean_linker_0, # of connection points: 3
#     Node 6, Type 0, BuildingBlock: PAMTOO_clean_linker_0, # of connection points: 3
#     Node 7, Type 0, BuildingBlock: PAMTOO_clean_linker_0, # of connection points: 3
#     Node 8, Type 1, BuildingBlock: VOLQOD_clean_sbu_1, # of connection points: 6
#     Node 9, Type 1, BuildingBlock: VOLQOD_clean_sbu_1, # of connection points: 6
#     Node 10, Type 1, BuildingBlock: VOLQOD_clean_sbu_1, # of connection points: 6
#     Node 11, Type 1, BuildingBlock: VOLQOD_clean_sbu_1, # of connection points: 6
#     Edge 12, Type (0, 1), BuildingBlock: XIVTED_clean_linker_0, # of connection points: 2
#     Edge 13, Type (0, 1), BuildingBlock: XIVTED_clean_linker_0, # of connection points: 2
#     Edge 14, Type (0, 1), BuildingBlock: XIVTED_clean_linker_0, # of connection points: 2
#     Edge 15, Type (0, 1), BuildingBlock: XIVTED_clean_linker_0, # of connection points: 2
#     Edge 16, Type (0, 1), BuildingBlock: XIVTED_clean_linker_0, # of connection points: 2
#     Edge 17, Type (0, 1), BuildingBlock: XIVTED_clean_linker_0, # of connection points: 2
#     Edge 18, Type (0, 1), BuildingBlock: XIVTED_clean_linker_0, # of connection points: 2
#     Edge 19, Type (0, 1), BuildingBlock: XIVTED_clean_linker_0, # of connection points: 2
#     Edge 20, Type (0, 1), BuildingBlock: XIVTED_clean_linker_0, # of connection points: 2
#     Edge 21, Type (0, 1), BuildingBlock: XIVTED_clean_linker_0, # of connection points: 2
#     Edge 22, Type (0, 1), BuildingBlock: XIVTED_clean_linker_0, # of connection points: 2
#     Edge 23, Type (0, 1), BuildingBlock: XIVTED_clean_linker_0, # of connection points: 2
#     Edge 24, Type (0, 1), BuildingBlock: XIVTED_clean_linker_0, # of connection points: 2
#     Edge 25, Type (0, 1), BuildingBlock: XIVTED_clean_linker_0, # of connection points: 2
#     Edge 26, Type (0, 1), BuildingBlock: XIVTED_clean_linker_0, # of connection points: 2
#     Edge 27, Type (0, 1), BuildingBlock: XIVTED_clean_linker_0, # of connection points: 2
#     Edge 28, Type (0, 1), BuildingBlock: XIVTED_clean_linker_0, # of connection points: 2
#     Edge 29, Type (0, 1), BuildingBlock: XIVTED_clean_linker_0, # of connection points: 2
#     Edge 30, Type (0, 1), BuildingBlock: XIVTED_clean_linker_0, # of connection points: 2
#     Edge 31, Type (0, 1), BuildingBlock: XIVTED_clean_linker_0, # of connection points: 2
#     Edge 32, Type (0, 1), BuildingBlock: XIVTED_clean_linker_0, # of connection points: 2
#     Edge 33, Type (0, 1), BuildingBlock: XIVTED_clean_linker_0, # of connection points: 2
#     Edge 34, Type (0, 1), BuildingBlock: XIVTED_clean_linker_0, # of connection points: 2
#     Edge 35, Type (0, 1), BuildingBlock: XIVTED_clean_linker_0, # of connection points: 2
# Relax obj value: 0.120
# Max RMSD: 0.196
# Mean RMSD: 0.161
data_MOF--net-pry--node1-VOLQOD_clean_sbu_1--node2-PAMTOO_clean_linker_0--edge1-XIVTED_clean_linker_0
_symmetry_space_group_name_H-M    P1
_symmetry_Int_Tables_number       1
_symmetry_cell_setting            triclinic
loop_
_symmetry_equiv_pos_as_xyz
'x, y, z'
_cell_length_a     36.401256
_cell_length_b     37.594671
_cell_length_c     37.356574
_cell_angle_alpha  90.038433
_cell_angle_beta   91.157608
_cell_angle_gamma 95.445042
loop_
_atom_site_label
_atom_site_type_symbol
_atom_site_fract_x
_atom_site_fract_y
_atom_site_fract_z
_atom_type_partial_charge
H0 H 0.10179 0.17109 0.18755 0.0
H1 H 0.18303 0.09531 0.18177 0.0
H2 H 0.17294 0.16946 0.09644 0.0
H3 H 0.18486 0.09508 0.07248 0.0
C4 C 0.20018 0.0871 0.09681 0.0
O5 O 0.20715 0.11607 0.1194 0.0
H6 H 0.18282 0.06532 0.11033 0.0
C7 C 0.12368 0.15997 0.1733 0.0
C8 C 0.13479 0.17415 0.13983 0.0
C9 C 0.14127 0.13187 0.18894 0.0
C10 C 0.16941 0.11722 0.1704 0.0
C11 C 0.17996 0.13036 0.13685 0.0
C12 C 0.16312 0.15888 0.12182 0.0
H13 H 0.38065 0.94243 0.67452 0.0
H14 H 0.38079 0.87061 0.58468 0.0
H15 H 0.46508 0.86981 0.66596 0.0
H16 H 0.48997 0.86064 0.59281 0.0
C17 C 0.46526 0.84428 0.58168 0.0
O18 O 0.4383 0.83993 0.60707 0.0
H19 H 0.45481 0.85844 0.55795 0.0
C20 C 0.39366 0.92232 0.65986 0.0
C21 C 0.42519 0.90822 0.67443 0.0
C22 C 0.37734 0.90895 0.6275 0.0
C23 C 0.39311 0.88154 0.60947 0.0
C24 C 0.42466 0.8677 0.62344 0.0
C25 C 0.44069 0.88105 0.65561 0.0
H26 H 0.67209 0.35384 0.96727 0.0
H27 H 0.57442 0.36428 0.90251 0.0
H28 H 0.6636 0.44695 0.90186 0.0
H29 H 0.58901 0.47217 0.89227 0.0
C30 C 0.57577 0.44888 0.87684 0.0
O31 O 0.60039 0.42365 0.87271 0.0
H32 H 0.55126 0.43725 0.89162 0.0
C33 C 0.65588 0.3696 0.94986 0.0
C34 C 0.67167 0.40269 0.93736 0.0
C35 C 0.62076 0.35528 0.93763 0.0
C36 C 0.60123 0.3749 0.91293 0.0
C37 C 0.61685 0.40774 0.90017 0.0
C38 C 0.6517 0.42177 0.91258 0.0
H39 H 0.87949 0.66479 0.46902 0.0
H40 H 0.88295 0.58138 0.39028 0.0
H41 H 0.95809 0.67492 0.38373 0.0
H42 H 0.92308 0.65278 0.31763 0.0
C43 C 0.92021 0.62325 0.32119 0.0
O44 O 0.9354 0.6146 0.35378 0.0
H45 H 0.89021 0.61407 0.32023 0.0
C46 C 0.89177 0.6541 0.44572 0.0
C47 C 0.92168 0.67397 0.42922 0.0
C48 C 0.87677 0.62095 0.43153 0.0
C49 C 0.89327 0.60705 0.40151 0.0
C50 C 0.92237 0.62668 0.38463 0.0
C51 C 0.93647 0.65983 0.39833 0.0
H52 H 0.89392 0.96275 0.87142 0.0
H53 H 0.8948 0.87972 0.95075 0.0
H54 H 0.97923 0.89049 0.87285 0.0
H55 H 0.94659 0.8218 0.87613 0.0
C56 C 0.93614 0.82008 0.90392 0.0
O57 O 0.94961 0.85027 0.92291 0.0
H58 H 0.90541 0.81861 0.90251 0.0
C59 C 0.90758 0.94154 0.88412 0.0
C60 C 0.93897 0.92934 0.86844 0.0
C61 C 0.89158 0.92406 0.91414 0.0
C62 C 0.90753 0.8945 0.92862 0.0
C63 C 0.93872 0.88236 0.91332 0.0
C64 C 0.95524 0.90063 0.88442 0.0
H65 H 0.70429 0.06767 0.3642 0.0
H66 H 0.60973 0.12822 0.36565 0.0
H67 H 0.68412 0.13232 0.45597 0.0
H68 H 0.60366 0.13598 0.47359 0.0
C69 C 0.59557 0.14998 0.44883 0.0
O70 O 0.62607 0.15757 0.4279 0.0
H71 H 0.57418 0.13239 0.43393 0.0
C72 C 0.68743 0.08529 0.37807 0.0
C73 C 0.6984 0.09835 0.41241 0.0
C74 C 0.65519 0.0954 0.36108 0.0
C75 C 0.63396 0.11906 0.3787 0.0
C76 C 0.64462 0.13227 0.41272 0.0
C77 C 0.67642 0.12171 0.42963 0.0
H78 H 0.40895 0.64997 0.05112 0.0
H79 H 0.40425 0.55425 0.11495 0.0
H80 H 0.48936 0.63871 0.1354 0.0
H81 H 0.51423 0.57062 0.1435 0.0
C82 C 0.48994 0.55578 0.15612 0.0
O83 O 0.46039 0.57611 0.15579 0.0
H84 H 0.4824 0.53058 0.14095 0.0
C85 C 0.42062 0.63391 0.07175 0.0
C86 C 0.45187 0.64809 0.09148 0.0
C87 C 0.40285 0.60019 0.08014 0.0
C88 C 0.41806 0.57979 0.10716 0.0
C89 C 0.44923 0.59371 0.12677 0.0
C90 C 0.4659 0.62784 0.1192 0.0
H91 H 0.10646 0.35753 0.66671 0.0
H92 H 0.11379 0.46895 0.64046 0.0
H93 H 0.14165 0.39354 0.56193 0.0
H94 H 0.16477 0.49799 0.60476 0.0
C95 C 0.16126 0.48795 0.57674 0.0
O96 O 0.13325 0.46053 0.57425 0.0
H97 H 0.15283 0.51084 0.56075 0.0
C98 C 0.11383 0.3787 0.64781 0.0
C99 C 0.12435 0.37045 0.6129 0.0
C100 C 0.11089 0.41412 0.65837 0.0
C101 C 0.11683 0.44152 0.63312 0.0
C102 C 0.12836 0.434 0.59862 0.0
C103 C 0.13279 0.39873 0.58877 0.0
O104 O 0.03955 0.0981 0.56088 0.0
Zn105 Zn 0.01242 0.049 0.55464 0.0
O106 O 0.04163 0.01862 0.5256 0.0
Zn107 Zn 0.01449 0.00284 0.4819 0.0
Zn108 Zn 0.08864 0.04482 0.51265 0.0
Zn109 Zn 0.0511 0.97642 0.55295 0.0
O110 O 0.00768 0.94903 0.4774 0.0
O111 O 0.02625 0.93143 0.53097 0.0
O112 O 0.96237 0.05371 0.53077 0.0
O113 O 0.96391 0.01963 0.48225 0.0
O114 O 0.03956 0.02315 0.43788 0.0
O115 O 0.09261 0.04971 0.45908 0.0
O116 O 0.13234 0.0203 0.53163 0.0
O117 O 0.00395 0.02877 0.60461 0.0
O118 O 0.10537 0.97132 0.55677 0.0
O119 O 0.03246 0.97925 0.60257 0.0
C120 C 0.07067 0.11234 0.55046 0.0
C121 C 0.0118 0.9245 0.50019 0.0
C122 C 0.0707 0.04069 0.43293 0.0
C123 C 0.94704 0.0397 0.50243 0.0
C124 C 0.13431 0.99076 0.54797 0.0
C125 C 0.01418 0.00077 0.61953 0.0
O126 O 0.09207 0.09504 0.53201 0.0
O127 O 0.53771 0.07865 0.98139 0.0
Zn128 Zn 0.51602 0.0279 0.98583 0.0
O129 O 0.54743 0.00061 0.0163 0.0
Zn130 Zn 0.56126 0.96039 0.98852 0.0
Zn131 Zn 0.59214 0.0307 0.0312 0.0
Zn132 Zn 0.52038 0.98316 0.0588 0.0
O133 O 0.54446 0.91412 0.01182 0.0
O134 O 0.51607 0.92908 0.06089 0.0
O135 O 0.5082 0.00711 0.93609 0.0
O136 O 0.53886 0.95898 0.93888 0.0
O137 O 0.61603 0.96254 0.98363 0.0
O138 O 0.63832 0.01258 0.01114 0.0
O139 O 0.59752 0.03248 0.08506 0.0
O140 O 0.46622 0.02944 0.00741 0.0
O141 O 0.54651 0.00192 0.10425 0.0
O142 O 0.46883 0.99923 0.05831 0.0
C143 C 0.56635 0.09622 0.99473 0.0
C144 C 0.52701 0.90548 0.04015 0.0
C145 C 0.64313 0.98459 0.99322 0.0
C146 C 0.51877 0.97926 0.92163 0.0
C147 C 0.57706 0.02057 0.11049 0.0
C148 C 0.45132 0.01735 0.03602 0.0
O149 O 0.58928 0.08132 0.01454 0.0
O150 O 0.55568 0.51054 0.5986 0.0
Zn151 Zn 0.55829 0.52733 0.54742 0.0
O152 O 0.52638 0.495 0.5162 0.0
Zn153 Zn 0.55615 0.47474 0.48009 0.0
Zn154 Zn 0.50163 0.45598 0.54433 0.0
Zn155 Zn 0.48968 0.52189 0.49212 0.0
O156 O 0.54036 0.48727 0.43037 0.0
O157 O 0.49602 0.52287 0.43872 0.0
O158 O 0.61151 0.53108 0.53176 0.0
O159 O 0.60931 0.49382 0.48549 0.0
O160 O 0.55239 0.42146 0.48281 0.0
O161 O 0.51552 0.4074 0.52833 0.0
O162 O 0.44615 0.45583 0.53987 0.0
O163 O 0.54178 0.57716 0.54678 0.0
O164 O 0.43824 0.50043 0.50237 0.0
O165 O 0.49376 0.57295 0.50897 0.0
C166 C 0.53701 0.48485 0.61415 0.0
C167 C 0.51683 0.50725 0.41808 0.0
C168 C 0.53566 0.39828 0.503 0.0
C169 C 0.62737 0.51603 0.50653 0.0
C170 C 0.4251 0.47481 0.52201 0.0
C171 C 0.51572 0.59119 0.53041 0.0
O172 O 0.51531 0.46233 0.59656 0.0
O173 O 0.00429 0.49073 0.08809 0.0
Zn174 Zn 0.00755 0.4649 0.04123 0.0
O175 O 0.03962 0.49341 0.00824 0.0
Zn176 Zn 0.01135 0.50541 0.966 0.0
Zn177 Zn 0.05959 0.53795 0.03162 0.0
Zn178 Zn 0.07967 0.46581 0.99327 0.0
O179 O 0.03288 0.4887 0.92074 0.0
O180 O 0.07889 0.45838 0.93968 0.0
O181 O 0.95548 0.45562 0.02081 0.0
O182 O 0.95972 0.48306 0.96827 0.0
O183 O 0.00771 0.55803 0.96222 0.0
O184 O 0.04248 0.58163 0.00719 0.0
O185 O 0.11488 0.54219 0.03166 0.0
O186 O 0.02754 0.41761 0.05203 0.0
O187 O 0.12912 0.49179 0.00655 0.0
O188 O 0.07629 0.41755 0.01714 0.0
C189 C 0.02003 0.51982 0.10089 0.0
C190 C 0.05916 0.46974 0.91437 0.0
C191 C 0.02135 0.58508 0.98011 0.0
C192 C 0.94098 0.46468 0.99125 0.0
C193 C 0.13871 0.52198 0.02114 0.0
C194 C 0.05466 0.4024 0.04011 0.0
O195 O 0.04257 0.53992 0.08249 0.0
H196 H 0.18744 0.11868 0.24482 0.0
H197 H 0.02663 0.03842 0.37239 0.0
H198 H 0.07199 0.11404 0.21491 0.0
H199 H 0.13806 0.06955 0.4099 0.0
H200 H 0.04354 0.06025 0.31274 0.0
H201 H 0.17051 0.09517 0.30382 0.0
C202 C 0.1585 0.11257 0.25068 0.0
C203 C 0.13105 0.11824 0.22496 0.0
C204 C 0.06426 0.06226 0.33405 0.0
C205 C 0.11147 0.09136 0.29242 0.0
C206 C 0.05471 0.04963 0.36808 0.0
C207 C 0.08096 0.05219 0.39627 0.0
C208 C 0.10041 0.07723 0.32804 0.0
C209 C 0.11687 0.06713 0.38906 0.0
C210 C 0.14886 0.09933 0.2844 0.0
C211 C 0.09397 0.1103 0.2341 0.0
N212 N 0.12554 0.07902 0.35566 0.0
N213 N 0.08525 0.09709 0.26705 0.0
H214 H 0.43195 0.9762 0.70308 0.0
H215 H 0.52813 0.91765 0.88532 0.0
H216 H 0.45326 0.86769 0.72758 0.0
H217 H 0.4823 0.01888 0.87299 0.0
H218 H 0.50691 0.90136 0.82469 0.0
H219 H 0.45567 0.99452 0.76274 0.0
C220 C 0.44153 0.9562 0.72093 0.0
C221 C 0.44062 0.9203 0.7101 0.0
C222 C 0.5015 0.92715 0.83522 0.0
C223 C 0.46829 0.94126 0.77822 0.0
C224 C 0.51371 0.93655 0.86985 0.0
C225 C 0.50689 0.96968 0.88441 0.0
C226 C 0.4825 0.95108 0.81474 0.0
C227 C 0.48804 0.99301 0.86296 0.0
C228 C 0.4552 0.96673 0.75493 0.0
C229 C 0.45399 0.89575 0.73431 0.0
N230 N 0.47651 0.98327 0.82918 0.0
N231 N 0.46725 0.90669 0.76712 0.0
H232 H 0.60704 0.50416 0.83656 0.0
H233 H 0.49888 0.43595 0.65728 0.0
H234 H 0.52101 0.41717 0.8332 0.0
H235 H 0.58166 0.52623 0.66105 0.0
H236 H 0.50426 0.43077 0.72219 0.0
H237 H 0.59518 0.51554 0.773 0.0
C238 C 0.58503 0.48807 0.82253 0.0
C239 C 0.5644 0.46021 0.8401 0.0
C240 C 0.52117 0.4518 0.70885 0.0
C241 C 0.55147 0.47213 0.76734 0.0
C242 C 0.51822 0.4547 0.67171 0.0
C243 C 0.54002 0.48145 0.65356 0.0
C244 C 0.54621 0.47571 0.72809 0.0
C245 C 0.5644 0.5051 0.67382 0.0
C246 C 0.57844 0.49433 0.78625 0.0
C247 C 0.53695 0.43935 0.82063 0.0
N248 N 0.56693 0.50157 0.70996 0.0
N249 N 0.53139 0.44561 0.78523 0.0
H250 H 0.98084 0.6502 0.28417 0.0
H251 H 0.97146 0.48542 0.14748 0.0
H252 H 0.90343 0.55662 0.29215 0.0
H253 H 0.04552 0.5814 0.13647 0.0
H254 H 0.95092 0.50819 0.20412 0.0
H255 H 0.00954 0.62267 0.23363 0.0
C256 C 0.97001 0.6238 0.27519 0.0
C257 C 0.93928 0.6059 0.29153 0.0
C258 C 0.97186 0.52416 0.18945 0.0
C259 C 0.97194 0.57411 0.23423 0.0
C260 C 0.98367 0.51115 0.15708 0.0
C261 C 0.01003 0.53167 0.13693 0.0
C262 C 0.98643 0.55798 0.2018 0.0
C263 C 0.02496 0.56474 0.15091 0.0
C264 C 0.98635 0.60807 0.24646 0.0
C265 C 0.92667 0.57146 0.27963 0.0
N266 N 0.01274 0.57697 0.18233 0.0
N267 N 0.94283 0.55678 0.25144 0.0
H268 H 0.24158 0.04261 0.13491 0.0
H269 H 0.4059 0.05526 0.99474 0.0
H270 H 0.24097 0.10308 0.03701 0.0
H271 H 0.40978 0.99819 0.09487 0.0
H272 H 0.3442 0.07042 0.00859 0.0
H273 H 0.30202 0.02361 0.1197 0.0
C274 C 0.25414 0.05151 0.11002 0.0
C275 C 0.23621 0.07382 0.0868 0.0
C276 C 0.35847 0.05452 0.02753 0.0
C277 C 0.30528 0.05284 0.06946 0.0
C278 C 0.39378 0.04579 0.01963 0.0
C279 C 0.41323 0.02548 0.04373 0.0
C280 C 0.34231 0.04292 0.0598 0.0
C281 C 0.39592 0.01396 0.07551 0.0
C282 C 0.28858 0.04082 0.1014 0.0
C283 C 0.25376 0.08537 0.05527 0.0
N284 N 0.36148 0.02292 0.08266 0.0
N285 N 0.28731 0.07469 0.04748 0.0
H286 H 0.36056 0.97828 0.62063 0.0
H287 H 0.14967 0.92367 0.56727 0.0
H288 H 0.31501 0.86931 0.60344 0.0
H289 H 0.20199 0.03015 0.55059 0.0
H290 H 0.20937 0.90414 0.58492 0.0
H291 H 0.30192 0.99883 0.59936 0.0
C292 C 0.33822 0.95874 0.61234 0.0
C293 C 0.34261 0.92206 0.6137 0.0
C294 C 0.20786 0.93175 0.57725 0.0
C295 C 0.27566 0.94527 0.58962 0.0
C296 C 0.17374 0.94298 0.56728 0.0
C297 C 0.17078 0.97865 0.55747 0.0
C298 C 0.23933 0.95641 0.57793 0.0
C299 C 0.20302 0.00238 0.55784 0.0
C300 C 0.30491 0.97045 0.60006 0.0
C301 C 0.31292 0.89783 0.60246 0.0
N302 N 0.23595 0.9909 0.56818 0.0
N303 N 0.28066 0.90985 0.59113 0.0
H304 H 0.70626 0.40019 0.00324 0.0
H305 H 0.90307 0.47502 0.929 0.0
H306 H 0.72573 0.43244 0.89382 0.0
H307 H 0.88815 0.43322 0.03596 0.0
H308 H 0.83734 0.46215 0.91703 0.0
H309 H 0.77188 0.41528 0.01724 0.0
C310 C 0.72429 0.41062 0.98222 0.0
C311 C 0.71045 0.41505 0.94729 0.0
C312 C 0.84836 0.4557 0.94313 0.0
C313 C 0.78541 0.43237 0.96313 0.0
C314 C 0.886 0.46301 0.95001 0.0
C315 C 0.90125 0.45518 0.98358 0.0
C316 C 0.82554 0.44048 0.96998 0.0
C317 C 0.87762 0.4396 0.00967 0.0
C318 C 0.76169 0.41923 0.99024 0.0
C319 C 0.73496 0.42906 0.92122 0.0
N320 N 0.84086 0.43281 0.00233 0.0
N321 N 0.77122 0.43706 0.92965 0.0
H322 H 0.85351 0.61605 0.50177 0.0
H323 H 0.66761 0.49508 0.45069 0.0
H324 H 0.82024 0.58355 0.39399 0.0
H325 H 0.67715 0.56118 0.54568 0.0
H326 H 0.7302 0.51741 0.43521 0.0
H327 H 0.79456 0.58755 0.52311 0.0
C328 C 0.83405 0.60295 0.48257 0.0
C329 C 0.84221 0.60221 0.44593 0.0
C330 C 0.71868 0.52687 0.45957 0.0
C331 C 0.77523 0.56891 0.47043 0.0
C332 C 0.68294 0.51403 0.46855 0.0
C333 C 0.66682 0.52655 0.49938 0.0
C334 C 0.73876 0.5523 0.4816 0.0
C335 C 0.68833 0.55101 0.5215 0.0
C336 C 0.80052 0.58655 0.49486 0.0
C337 C 0.81593 0.58424 0.42254 0.0
N338 N 0.72321 0.56326 0.51209 0.0
N339 N 0.78381 0.56834 0.43519 0.0
H340 H 0.12087 0.18884 0.06881 0.0
H341 H 0.03305 0.3717 0.10372 0.0
H342 H 0.11054 0.23172 0.17514 0.0
H343 H 0.0933 0.3524 0.00839 0.0
H344 H 0.04891 0.31429 0.12774 0.0
H345 H 0.09863 0.24304 0.04385 0.0
C346 C 0.11401 0.20953 0.087 0.0
C347 C 0.11812 0.20562 0.12427 0.0
C348 C 0.05845 0.32264 0.1015 0.0
C349 C 0.09156 0.26735 0.09563 0.0
C350 C 0.04929 0.35525 0.0877 0.0
C351 C 0.06205 0.36691 0.05408 0.0
C352 C 0.07987 0.30126 0.08123 0.0
C353 C 0.08314 0.34457 0.03455 0.0
C354 C 0.1011 0.24037 0.07264 0.0
C355 C 0.10755 0.2331 0.14632 0.0
N356 N 0.0913 0.31275 0.04836 0.0
N357 N 0.09479 0.26278 0.13167 0.0
H358 H 0.58342 0.30349 0.89532 0.0
H359 H 0.61277 0.14613 0.03076 0.0
H360 H 0.62687 0.32237 0.00286 0.0
H361 H 0.53382 0.13446 0.94269 0.0
H362 H 0.62201 0.21025 0.01878 0.0
H363 H 0.56711 0.24105 0.91059 0.0
C364 C 0.58894 0.29477 0.92235 0.0
C365 C 0.60675 0.31834 0.94779 0.0
C366 C 0.60254 0.19364 0.00222 0.0
C367 C 0.58915 0.2465 0.965 0.0
C368 C 0.59745 0.15703 0.00886 0.0
C369 C 0.57258 0.13491 0.98761 0.0
C370 C 0.58303 0.20812 0.97382 0.0
C371 C 0.55325 0.15053 0.95976 0.0
C372 C 0.57987 0.25898 0.93093 0.0
C373 C 0.61385 0.30507 0.98215 0.0
N374 N 0.55909 0.18616 0.95349 0.0
N375 N 0.60541 0.26995 0.98963 0.0
H376 H 0.99271 0.70675 0.42576 0.0
H377 H 0.97483 0.87525 0.54289 0.0
H378 H 0.88436 0.72469 0.46358 0.0
H379 H 0.01931 0.88946 0.43717 0.0
H380 H 0.95253 0.81323 0.52711 0.0
H381 H 0.01446 0.76797 0.44265 0.0
C382 C 0.97333 0.72328 0.43746 0.0
C383 C 0.93627 0.71018 0.44262 0.0
C384 C 0.96727 0.83006 0.50755 0.0
C385 C 0.96196 0.77975 0.46359 0.0
C386 C 0.98006 0.86517 0.51648 0.0
C387 C 0.99877 0.88727 0.49117 0.0
C388 C 0.97446 0.81682 0.47361 0.0
C389 C 0.00478 0.87319 0.45726 0.0
C390 C 0.98601 0.75814 0.4473 0.0
C391 C 0.91321 0.73295 0.45939 0.0
N392 N 0.99305 0.83857 0.44955 0.0
N393 N 0.9265 0.76657 0.46946 0.0
H394 H 0.43278 0.79972 0.52977 0.0
H395 H 0.5549 0.63858 0.57618 0.0
H396 H 0.51914 0.8062 0.61073 0.0
H397 H 0.46456 0.63085 0.49894 0.0
H398 H 0.5446 0.70095 0.58694 0.0
H399 H 0.44639 0.73872 0.51568 0.0
C400 C 0.45496 0.78833 0.54418 0.0
C401 C 0.47541 0.80805 0.57088 0.0
C402 C 0.52709 0.68561 0.56759 0.0
C403 C 0.49071 0.73823 0.5556 0.0
C404 C 0.53296 0.64997 0.5614 0.0
C405 C 0.51049 0.6293 0.53669 0.0
C406 C 0.49857 0.70079 0.54892 0.0
C407 C 0.48252 0.64562 0.51833 0.0
C408 C 0.46263 0.75353 0.53631 0.0
C409 C 0.50325 0.79196 0.5895 0.0
N410 N 0.47734 0.68033 0.52487 0.0
N411 N 0.51013 0.75797 0.58149 0.0
H412 H 0.9437 0.99842 0.8419 0.0
H413 H 0.02626 0.94042 0.65646 0.0
H414 H 0.96158 0.89026 0.81282 0.0
H415 H 0.98015 0.0414 0.66842 0.0
H416 H 0.00955 0.92525 0.71741 0.0
H417 H 0.96262 0.01793 0.78159 0.0
C418 C 0.95172 0.97884 0.82303 0.0
C419 C 0.95161 0.9427 0.83281 0.0
C420 C 0.00299 0.95076 0.70681 0.0
C421 C 0.97339 0.96485 0.76418 0.0
C422 C 0.01263 0.95953 0.6719 0.0
C423 C 0.00444 0.99222 0.65708 0.0
C424 C 0.98506 0.97478 0.72746 0.0
C425 C 0.98681 0.01582 0.67868 0.0
C426 C 0.96253 0.99001 0.78871 0.0
C427 C 0.96228 0.91854 0.80718 0.0
N428 N 0.97766 0.00664 0.71288 0.0
N429 N 0.97277 0.93007 0.77428 0.0
H430 H 0.69953 0.09137 0.30308 0.0
H431 H 0.53675 0.00933 0.17147 0.0
H432 H 0.58647 0.07028 0.33549 0.0
H433 H 0.64388 0.05197 0.13516 0.0
H434 H 0.55598 0.02591 0.23281 0.0
H435 H 0.6811 0.07128 0.24251 0.0
C436 C 0.67086 0.08223 0.29752 0.0
C437 C 0.64449 0.08248 0.32439 0.0
C438 C 0.57527 0.03158 0.2114 0.0
C439 C 0.62314 0.05965 0.25503 0.0
C440 C 0.56437 0.02202 0.17636 0.0
C441 C 0.58868 0.02935 0.14801 0.0
C442 C 0.61087 0.04834 0.21827 0.0
C443 C 0.62412 0.04592 0.15607 0.0
C444 C 0.66032 0.07099 0.26288 0.0
C445 C 0.60764 0.07083 0.3155 0.0
N446 N 0.63412 0.05481 0.19041 0.0
N447 N 0.59806 0.05982 0.28161 0.0
H448 H 0.50569 0.60421 0.20978 0.0
H449 H 0.53756 0.46435 0.36434 0.0
H450 H 0.49599 0.49081 0.18915 0.0
H451 H 0.49137 0.56412 0.38331 0.0
H452 H 0.53471 0.47588 0.29975 0.0
H453 H 0.51425 0.59232 0.27375 0.0
C454 C 0.50577 0.57683 0.21881 0.0
C455 C 0.49962 0.54839 0.19447 0.0
C456 C 0.52522 0.49514 0.31816 0.0
C457 C 0.50967 0.53467 0.26712 0.0
C458 C 0.52687 0.48867 0.35491 0.0
C459 C 0.51452 0.51329 0.37913 0.0
C460 C 0.51192 0.52678 0.30573 0.0
C461 C 0.50088 0.54433 0.36554 0.0
C462 C 0.51043 0.57008 0.25517 0.0
C463 C 0.50031 0.51339 0.20724 0.0
N464 N 0.50019 0.55032 0.32971 0.0
N465 N 0.50516 0.50744 0.24286 0.0
H466 H 0.06309 0.46063 0.68275 0.0
H467 H 0.10993 0.42662 0.88964 0.0
H468 H 0.13905 0.38643 0.71947 0.0
H469 H 0.02602 0.49289 0.85331 0.0
H470 H 0.12215 0.41283 0.82736 0.0
H471 H 0.05039 0.47426 0.7451 0.0
C472 C 0.07715 0.44729 0.70393 0.0
C473 C 0.10211 0.42232 0.69592 0.0
C474 C 0.10103 0.43036 0.83303 0.0
C475 C 0.08765 0.43764 0.76727 0.0
C476 C 0.09406 0.43828 0.86861 0.0
C477 C 0.06689 0.46096 0.87679 0.0
C478 C 0.08081 0.4453 0.80536 0.0
C479 C 0.0472 0.47525 0.84834 0.0
C480 C 0.06977 0.45493 0.7395 0.0
C481 C 0.11925 0.40552 0.72443 0.0
N482 N 0.0546 0.46723 0.81393 0.0
N483 N 0.11177 0.41354 0.75881 0.0
H484 H 0.83093 0.87885 0.9291 0.0
H485 H 0.70742 0.02971 0.9961 0.0
H486 H 0.87033 0.99077 0.92891 0.0
H487 H 0.66462 0.92218 0.96736 0.0
H488 H 0.76899 0.01588 0.97793 0.0
H489 H 0.77152 0.89416 0.95002 0.0
C490 C 0.82717 0.90669 0.93384 0.0
C491 C 0.8557 0.93358 0.92754 0.0
C492 C 0.74602 0.99542 0.97564 0.0
C493 C 0.78737 0.95141 0.9511 0.0
C494 C 0.71095 0.00322 0.98611 0.0
C495 C 0.68077 0.97709 0.98317 0.0
C496 C 0.7509 0.96116 0.96261 0.0
C497 C 0.68694 0.94326 0.96995 0.0
C498 C 0.79311 0.91545 0.94551 0.0
C499 C 0.84897 0.96927 0.93339 0.0
N500 N 0.72124 0.93629 0.96029 0.0
N501 N 0.81545 0.9772 0.94498 0.0
H502 H 0.74896 0.14121 0.45277 0.0
H503 H 0.90002 0.00187 0.45549 0.0
H504 H 0.72838 0.03392 0.4108 0.0
H505 H 0.90716 0.09356 0.52581 0.0
H506 H 0.83828 0.0149 0.43651 0.0
H507 H 0.80775 0.1258 0.47804 0.0
C508 C 0.75648 0.11428 0.44919 0.0
C509 C 0.73353 0.08887 0.42943 0.0
C510 C 0.85322 0.03207 0.45625 0.0
C511 C 0.80139 0.0714 0.4577 0.0
C512 C 0.88858 0.02476 0.46702 0.0
C513 C 0.90891 0.04678 0.49219 0.0
C514 C 0.8381 0.06193 0.47033 0.0
C515 C 0.89247 0.07587 0.50637 0.0
C516 C 0.79022 0.1056 0.4635 0.0
C517 C 0.74534 0.05464 0.42517 0.0
N518 N 0.85812 0.08282 0.49499 0.0
N519 N 0.77852 0.04701 0.43895 0.0
H520 H 0.3753 0.5331 0.05725 0.0
H521 H 0.16944 0.5884 0.04066 0.0
H522 H 0.34561 0.64092 0.06897 0.0
H523 H 0.19831 0.48329 0.01242 0.0
H524 H 0.23458 0.60785 0.04993 0.0
H525 H 0.31136 0.514 0.03903 0.0
C526 C 0.35545 0.55278 0.0556 0.0
C527 C 0.36582 0.58865 0.06461 0.0
C528 C 0.22676 0.58056 0.04154 0.0
C529 C 0.29283 0.56704 0.0441 0.0
C530 C 0.18949 0.56937 0.03638 0.0
C531 C 0.17834 0.53407 0.02596 0.0
C532 C 0.25324 0.55626 0.03657 0.0
C533 C 0.20566 0.51074 0.02053 0.0
C534 C 0.31904 0.54191 0.04515 0.0
C535 C 0.33908 0.6131 0.06181 0.0
N536 N 0.24189 0.52218 0.02616 0.0
N537 N 0.30382 0.60178 0.05211 0.0
H538 H 0.19223 0.4998 0.51091 0.0
H539 H 0.38636 0.43298 0.57134 0.0
H540 H 0.21166 0.45094 0.613 0.0
H541 H 0.37132 0.50249 0.48131 0.0
H542 H 0.31975 0.42843 0.58078 0.0
H543 H 0.25486 0.48948 0.49341 0.0
C544 C 0.20963 0.48645 0.5294 0.0
C545 C 0.19728 0.47679 0.56364 0.0
C546 C 0.33105 0.44438 0.55876 0.0
C547 C 0.26871 0.46494 0.544 0.0
C548 C 0.36906 0.44694 0.55328 0.0
C549 C 0.38456 0.46853 0.52575 0.0
C550 C 0.30835 0.46335 0.53642 0.0
C551 C 0.3607 0.4859 0.50315 0.0
C552 C 0.24534 0.48066 0.5195 0.0
C553 C 0.22054 0.45915 0.58652 0.0
N554 N 0.32386 0.4831 0.50913 0.0
N555 N 0.25536 0.45413 0.57645 0.0
H556 H 0.89765 0.75464 0.90428 0.0
H557 H 0.05216 0.65113 0.00317 0.0
H558 H 0.00225 0.80874 0.93844 0.0
H559 H 0.96547 0.60042 0.93473 0.0
H560 H 0.03142 0.70955 0.98742 0.0
H561 H 0.91865 0.69806 0.92423 0.0
C562 C 0.92484 0.75462 0.91664 0.0
C563 C 0.94792 0.78644 0.92051 0.0
C564 C 0.01713 0.68555 0.97586 0.0
C565 C 0.97257 0.72168 0.94263 0.0
C566 C 0.02888 0.65225 0.98482 0.0
C567 C 0.01058 0.62081 0.97018 0.0
C568 C 0.98656 0.68725 0.9526 0.0
C569 C 0.98057 0.62386 0.94656 0.0
C570 C 0.93694 0.72232 0.92773 0.0
C571 C 0.98332 0.78485 0.93575 0.0
N572 N 0.96942 0.65641 0.9387 0.0
N573 N 0.99459 0.75292 0.94641 0.0
H574 H 0.46861 0.7009 0.14104 0.0
H575 H 0.5346 0.84848 0.99644 0.0
H576 H 0.46975 0.67983 0.02756 0.0
H577 H 0.5009 0.87499 0.10264 0.0
H578 H 0.51976 0.78534 0.00969 0.0
H579 H 0.48972 0.76359 0.12958 0.0
C580 C 0.47381 0.70942 0.11376 0.0
C581 C 0.46747 0.68526 0.08515 0.0
C582 C 0.51566 0.80497 0.0301 0.0
C583 C 0.49126 0.75674 0.0719 0.0
C584 C 0.52421 0.84106 0.02263 0.0
C585 C 0.51883 0.86714 0.04844 0.0
C586 C 0.50193 0.79476 0.06374 0.0
C587 C 0.50526 0.85583 0.08187 0.0
C588 C 0.48552 0.74519 0.10724 0.0
C589 C 0.47409 0.69772 0.0503 0.0
N590 N 0.4973 0.82042 0.08859 0.0
N591 N 0.48565 0.73263 0.04463 0.0
H592 H 0.10676 0.34114 0.54618 0.0
H593 H 0.05831 0.14723 0.61241 0.0
H594 H 0.14014 0.31197 0.65317 0.0
H595 H 0.10884 0.16265 0.50941 0.0
H596 H 0.07718 0.21012 0.62701 0.0
H597 H 0.09844 0.27779 0.53029 0.0
C598 C 0.11296 0.32172 0.56626 0.0
C599 C 0.12371 0.33232 0.60137 0.0
C600 C 0.08422 0.19955 0.60132 0.0
C601 C 0.11263 0.25976 0.58343 0.0
C602 C 0.07331 0.16391 0.59291 0.0
C603 C 0.08213 0.14991 0.55972 0.0
C604 C 0.10299 0.22149 0.57591 0.0
C605 C 0.10174 0.17251 0.53537 0.0
C606 C 0.10788 0.28554 0.55712 0.0
C607 C 0.13059 0.3054 0.62615 0.0
N608 N 0.11108 0.20746 0.54373 0.0
N609 N 0.12421 0.27038 0.61691 0.0
H610 H 0.5693 0.19768 0.4023 0.0
H611 H 0.5261 0.34165 0.54965 0.0
H612 H 0.58715 0.18056 0.51514 0.0
H613 H 0.55405 0.36806 0.44048 0.0
H614 H 0.5358 0.27899 0.53717 0.0
H615 H 0.55005 0.25688 0.41574 0.0
C616 C 0.56873 0.20636 0.42993 0.0
C617 C 0.58006 0.18454 0.45764 0.0
C618 C 0.53961 0.2986 0.51603 0.0
C619 C 0.55809 0.2519 0.47326 0.0
C620 C 0.53399 0.33424 0.52306 0.0
C621 C 0.53958 0.36011 0.49614 0.0
C622 C 0.55014 0.28884 0.48168 0.0
C623 C 0.54983 0.34909 0.46215 0.0
C624 C 0.55792 0.24007 0.43759 0.0
C625 C 0.57876 0.19678 0.49305 0.0
N626 N 0.55469 0.31433 0.45589 0.0
N627 N 0.56808 0.22979 0.49991 0.0
loop_
_geom_bond_atom_site_label_1
_geom_bond_atom_site_label_2
_geom_bond_distance
_geom_bond_site_symmetry_2
_ccdc_geom_bond_type
H0 C7 0.929 . S
H1 C10 0.930 . S
H2 C12 0.929 . S
H3 C4 0.969 . S
C4 H3 0.969 . S
C4 O5 1.550 . S
C4 H6 0.973 . S
O5 C4 1.550 . S
O5 C11 1.412 . S
H6 C4 0.973 . S
C7 H0 0.929 . S
C7 C8 1.400 . S
C7 C9 1.364 . S
C8 C7 1.400 . S
C8 C12 1.377 . S
C9 C7 1.364 . S
C9 C10 1.374 . S
C10 H1 0.930 . S
C10 C9 1.374 . S
C10 C11 1.383 . S
C11 O5 1.412 . S
C11 C10 1.383 . S
C11 C12 1.394 . S
C12 H2 0.929 . S
C12 C8 1.377 . S
C12 C11 1.394 . S
H13 C20 0.929 . S
H14 C23 0.930 . S
H15 C25 0.929 . S
H16 C17 0.969 . S
C17 H16 0.969 . S
C17 O18 1.550 . S
C17 H19 0.973 . S
O18 C17 1.550 . S
O18 C24 1.412 . S
H19 C17 0.973 . S
C20 H13 0.929 . S
C20 C21 1.400 . S
C20 C22 1.364 . S
C21 C20 1.400 . S
C21 C25 1.377 . S
C22 C20 1.364 . S
C22 C23 1.374 . S
C23 H14 0.930 . S
C23 C22 1.374 . S
C23 C24 1.383 . S
C24 O18 1.412 . S
C24 C23 1.383 . S
C24 C25 1.394 . S
C25 H15 0.929 . S
C25 C21 1.377 . S
C25 C24 1.394 . S
H26 C33 0.929 . S
H27 C36 0.930 . S
H28 C38 0.929 . S
H29 C30 0.969 . S
C30 H29 0.969 . S
C30 O31 1.550 . S
C30 H32 0.973 . S
O31 C30 1.550 . S
O31 C37 1.412 . S
H32 C30 0.973 . S
C33 H26 0.929 . S
C33 C34 1.400 . S
C33 C35 1.364 . S
C34 C33 1.400 . S
C34 C38 1.377 . S
C35 C33 1.364 . S
C35 C36 1.374 . S
C36 H27 0.930 . S
C36 C35 1.374 . S
C36 C37 1.383 . S
C37 O31 1.412 . S
C37 C36 1.383 . S
C37 C38 1.394 . S
C38 H28 0.929 . S
C38 C34 1.377 . S
C38 C37 1.394 . S
H39 C46 0.929 . S
H40 C49 0.930 . S
H41 C51 0.929 . S
H42 C43 0.969 . S
C43 H42 0.969 . S
C43 O44 1.550 . S
C43 H45 0.973 . S
O44 C43 1.550 . S
O44 C50 1.412 . S
H45 C43 0.973 . S
C46 H39 0.929 . S
C46 C47 1.400 . S
C46 C48 1.364 . S
C47 C46 1.400 . S
C47 C51 1.377 . S
C48 C46 1.364 . S
C48 C49 1.374 . S
C49 H40 0.930 . S
C49 C48 1.374 . S
C49 C50 1.383 . S
C50 O44 1.412 . S
C50 C49 1.383 . S
C50 C51 1.394 . S
C51 H41 0.929 . S
C51 C47 1.377 . S
C51 C50 1.394 . S
H52 C59 0.929 . S
H53 C62 0.930 . S
H54 C64 0.929 . S
H55 C56 0.969 . S
C56 H55 0.969 . S
C56 O57 1.550 . S
C56 H58 0.973 . S
O57 C56 1.550 . S
O57 C63 1.412 . S
H58 C56 0.973 . S
C59 H52 0.929 . S
C59 C60 1.400 . S
C59 C61 1.364 . S
C60 C59 1.400 . S
C60 C64 1.377 . S
C61 C59 1.364 . S
C61 C62 1.374 . S
C62 H53 0.930 . S
C62 C61 1.374 . S
C62 C63 1.383 . S
C63 O57 1.412 . S
C63 C62 1.383 . S
C63 C64 1.394 . S
C64 H54 0.929 . S
C64 C60 1.377 . S
C64 C63 1.394 . S
H65 C72 0.929 . S
H66 C75 0.930 . S
H67 C77 0.929 . S
H68 C69 0.969 . S
C69 H68 0.969 . S
C69 O70 1.550 . S
C69 H71 0.973 . S
O70 C69 1.550 . S
O70 C76 1.412 . S
H71 C69 0.973 . S
C72 H65 0.929 . S
C72 C73 1.400 . S
C72 C74 1.364 . S
C73 C72 1.400 . S
C73 C77 1.377 . S
C74 C72 1.364 . S
C74 C75 1.374 . S
C75 H66 0.930 . S
C75 C74 1.374 . S
C75 C76 1.383 . S
C76 O70 1.412 . S
C76 C75 1.383 . S
C76 C77 1.394 . S
C77 H67 0.929 . S
C77 C73 1.377 . S
C77 C76 1.394 . S
H78 C85 0.929 . S
H79 C88 0.930 . S
H80 C90 0.929 . S
H81 C82 0.969 . S
C82 H81 0.969 . S
C82 O83 1.550 . S
C82 H84 0.973 . S
O83 C82 1.550 . S
O83 C89 1.412 . S
H84 C82 0.973 . S
C85 H78 0.929 . S
C85 C86 1.400 . S
C85 C87 1.364 . S
C86 C85 1.400 . S
C86 C90 1.377 . S
C87 C85 1.364 . S
C87 C88 1.374 . S
C88 H79 0.930 . S
C88 C87 1.374 . S
C88 C89 1.383 . S
C89 O83 1.412 . S
C89 C88 1.383 . S
C89 C90 1.394 . S
C90 H80 0.929 . S
C90 C86 1.377 . S
C90 C89 1.394 . S
H91 C98 0.929 . S
H92 C101 0.930 . S
H93 C103 0.929 . S
H94 C95 0.969 . S
C95 H94 0.969 . S
C95 O96 1.550 . S
C95 H97 0.973 . S
O96 C95 1.550 . S
O96 C102 1.412 . S
H97 C95 0.973 . S
C98 H91 0.929 . S
C98 C99 1.400 . S
C98 C100 1.364 . S
C99 C98 1.400 . S
C99 C103 1.377 . S
C100 C98 1.364 . S
C100 C101 1.374 . S
C101 H92 0.930 . S
C101 C100 1.374 . S
C101 C102 1.383 . S
C102 O96 1.412 . S
C102 C101 1.383 . S
C102 C103 1.394 . S
C103 H93 0.929 . S
C103 C99 1.377 . S
C103 C102 1.394 . S
O104 Zn105 1.953 1_455 S
O104 C120 1.225 . S
Zn105 O104 1.953 1_655 S
Zn105 O106 1.949 1_655 S
Zn105 O112 1.919 . S
Zn105 O117 1.924 . S
O106 Zn105 1.949 1_455 S
O106 Zn107 1.924 1_455 S
O106 Zn108 1.950 . S
O106 Zn109 1.945 1_545 S
Zn107 O106 1.924 1_655 S
Zn107 O110 1.929 1_545 S
Zn107 O113 1.944 . S
Zn107 O114 1.967 1_655 S
Zn108 O106 1.950 . S
Zn108 O115 1.938 . S
Zn108 O116 1.906 . S
Zn108 O126 1.953 . S
Zn109 O106 1.945 1_565 S
Zn109 O111 1.932 1_455 S
Zn109 O118 1.977 . S
Zn109 O119 1.911 1_455 S
O110 Zn107 1.929 1_565 S
O110 C121 1.226 . S
O111 Zn109 1.932 1_655 S
O111 C121 1.307 . S
O112 Zn105 1.919 . S
O112 C123 1.253 . S
O113 Zn107 1.944 . S
O113 C123 1.283 . S
O114 Zn107 1.967 1_455 S
O114 C122 1.303 . S
O115 Zn108 1.938 . S
O115 C122 1.247 . S
O116 Zn108 1.906 . S
O116 C124 1.304 1_545 S
O117 Zn105 1.924 . S
O117 C125 1.311 . S
O118 Zn109 1.977 . S
O118 C124 1.272 . S
O119 Zn109 1.911 1_655 S
O119 C125 1.230 1_565 S
C120 O104 1.225 . S
C120 O126 1.298 . S
C121 O110 1.226 . S
C121 O111 1.307 . S
C122 O114 1.303 . S
C122 O115 1.247 . S
C123 O112 1.253 . S
C123 O113 1.283 . S
C124 O116 1.304 1_565 S
C124 O118 1.272 . S
C125 O117 1.311 . S
C125 O119 1.230 1_545 S
O126 Zn108 1.953 . S
O126 C120 1.298 . S
O127 Zn128 1.953 . S
O127 C143 1.225 . S
Zn128 O127 1.953 . S
Zn128 O129 1.949 1_556 S
Zn128 O135 1.919 . S
Zn128 O140 1.924 . S
O129 Zn128 1.949 1_554 S
O129 Zn130 1.923 1_544 S
O129 Zn131 1.950 . S
O129 Zn132 1.945 1_545 S
Zn130 O129 1.923 1_566 S
Zn130 O133 1.933 1_556 S
Zn130 O136 1.941 . S
Zn130 O137 1.965 . S
Zn131 O129 1.950 . S
Zn131 O138 1.938 . S
Zn131 O139 1.906 . S
Zn131 O149 1.953 . S
Zn132 O129 1.945 1_565 S
Zn132 O134 1.932 . S
Zn132 O141 1.977 1_565 S
Zn132 O142 1.910 1_565 S
O133 Zn130 1.933 1_554 S
O133 C144 1.226 . S
O134 Zn132 1.932 . S
O134 C144 1.307 . S
O135 Zn128 1.919 . S
O135 C146 1.253 1_545 S
O136 Zn130 1.941 . S
O136 C146 1.283 . S
O137 Zn130 1.965 . S
O137 C145 1.303 . S
O138 Zn131 1.938 . S
O138 C145 1.247 1_544 S
O139 Zn131 1.906 . S
O139 C147 1.304 . S
O140 Zn128 1.924 . S
O140 C148 1.311 1_556 S
O141 Zn132 1.977 1_545 S
O141 C147 1.272 . S
O142 Zn132 1.910 1_545 S
O142 C148 1.231 . S
C143 O127 1.225 . S
C143 O149 1.298 1_556 S
C144 O133 1.226 . S
C144 O134 1.307 . S
C145 O137 1.303 . S
C145 O138 1.247 1_566 S
C146 O135 1.253 1_565 S
C146 O136 1.283 . S
C147 O139 1.304 . S
C147 O141 1.272 . S
C148 O140 1.311 1_554 S
C148 O142 1.231 . S
O149 Zn131 1.953 . S
O149 C143 1.298 1_554 S
O150 Zn151 1.953 . S
O150 C166 1.225 . S
Zn151 O150 1.953 . S
Zn151 O152 1.949 . S
Zn151 O158 1.919 . S
Zn151 O163 1.924 . S
O152 Zn151 1.949 . S
O152 Zn153 1.923 . S
O152 Zn154 1.950 . S
O152 Zn155 1.945 . S
Zn153 O152 1.923 . S
Zn153 O156 1.933 . S
Zn153 O159 1.941 . S
Zn153 O160 1.965 . S
Zn154 O152 1.950 . S
Zn154 O161 1.938 . S
Zn154 O162 1.906 . S
Zn154 O172 1.953 . S
Zn155 O152 1.945 . S
Zn155 O157 1.932 . S
Zn155 O164 1.977 . S
Zn155 O165 1.910 . S
O156 Zn153 1.933 . S
O156 C167 1.226 . S
O157 Zn155 1.932 . S
O157 C167 1.307 . S
O158 Zn151 1.919 . S
O158 C169 1.253 . S
O159 Zn153 1.941 . S
O159 C169 1.283 . S
O160 Zn153 1.965 . S
O160 C168 1.303 . S
O161 Zn154 1.938 . S
O161 C168 1.247 . S
O162 Zn154 1.906 . S
O162 C170 1.304 . S
O163 Zn151 1.924 . S
O163 C171 1.311 . S
O164 Zn155 1.977 . S
O164 C170 1.272 . S
O165 Zn155 1.910 . S
O165 C171 1.231 . S
C166 O150 1.225 . S
C166 O172 1.298 . S
C167 O156 1.226 . S
C167 O157 1.307 . S
C168 O160 1.303 . S
C168 O161 1.247 . S
C169 O158 1.253 . S
C169 O159 1.283 . S
C170 O162 1.304 . S
C170 O164 1.272 . S
C171 O163 1.311 . S
C171 O165 1.231 . S
O172 Zn154 1.953 . S
O172 C166 1.298 . S
O173 Zn174 1.953 1_655 S
O173 C189 1.225 1_655 S
Zn174 O173 1.953 1_455 S
Zn174 O175 1.949 . S
Zn174 O181 1.919 1_455 S
Zn174 O186 1.924 . S
O175 Zn174 1.949 . S
O175 Zn176 1.923 1_554 S
O175 Zn177 1.950 . S
O175 Zn178 1.945 . S
Zn176 O175 1.923 1_556 S
Zn176 O179 1.933 . S
Zn176 O182 1.941 1_455 S
Zn176 O183 1.965 . S
Zn177 O175 1.950 . S
Zn177 O184 1.938 . S
Zn177 O185 1.906 . S
Zn177 O195 1.953 . S
Zn178 O175 1.945 . S
Zn178 O180 1.932 1_554 S
Zn178 O187 1.977 . S
Zn178 O188 1.910 . S
O179 Zn176 1.933 . S
O179 C190 1.226 . S
O180 Zn178 1.932 1_556 S
O180 C190 1.307 . S
O181 Zn174 1.919 1_655 S
O181 C192 1.253 1_554 S
O182 Zn176 1.941 1_655 S
O182 C192 1.283 . S
O183 Zn176 1.965 . S
O183 C191 1.303 . S
O184 Zn177 1.938 . S
O184 C191 1.247 1_554 S
O185 Zn177 1.906 . S
O185 C193 1.304 . S
O186 Zn174 1.924 . S
O186 C194 1.311 . S
O187 Zn178 1.977 . S
O187 C193 1.272 . S
O188 Zn178 1.910 . S
O188 C194 1.231 . S
C189 O173 1.225 1_455 S
C189 O195 1.298 . S
C190 O179 1.226 . S
C190 O180 1.307 . S
C191 O183 1.303 . S
C191 O184 1.247 1_556 S
C192 O181 1.253 1_556 S
C192 O182 1.283 . S
C193 O185 1.304 . S
C193 O187 1.272 . S
C194 O186 1.311 . S
C194 O188 1.231 . S
O195 Zn177 1.953 . S
O195 C189 1.298 . S
H196 C202 0.930 . S
H197 C206 0.930 . S
H198 C211 0.929 . S
H199 C209 0.929 . S
H200 C204 0.929 . S
H201 C210 0.929 . S
C202 H196 0.930 . S
C202 C203 1.367 . S
C202 C210 1.378 . S
C203 C202 1.367 . S
C203 C211 1.433 . S
C204 H200 0.929 . S
C204 C206 1.378 . S
C204 C208 1.350 . S
C205 C208 1.463 . S
C205 C210 1.350 . S
C205 N213 1.427 . S
C206 H197 0.930 . S
C206 C204 1.378 . S
C206 C207 1.367 . S
C207 C206 1.367 . S
C207 C209 1.433 . S
C208 C204 1.350 . S
C208 C205 1.463 . S
C208 N212 1.427 . S
C209 H199 0.929 . S
C209 C207 1.433 . S
C209 N212 1.384 . S
C210 H201 0.929 . S
C210 C202 1.378 . S
C210 C205 1.350 . S
C211 H198 0.929 . S
C211 C203 1.433 . S
C211 N213 1.384 . S
N212 C208 1.427 . S
N212 C209 1.384 . S
N213 C205 1.427 . S
N213 C211 1.384 . S
H214 C220 0.930 . S
H215 C224 0.930 . S
H216 C229 0.929 . S
H217 C227 0.929 . S
H218 C222 0.929 . S
H219 C228 0.929 . S
C220 H214 0.930 . S
C220 C221 1.367 . S
C220 C228 1.378 . S
C221 C220 1.367 . S
C221 C229 1.433 . S
C222 H218 0.929 . S
C222 C224 1.378 . S
C222 C226 1.350 . S
C223 C226 1.463 . S
C223 C228 1.350 . S
C223 N231 1.427 . S
C224 H215 0.930 . S
C224 C222 1.378 . S
C224 C225 1.367 . S
C225 C224 1.367 . S
C225 C227 1.433 . S
C226 C222 1.350 . S
C226 C223 1.463 . S
C226 N230 1.427 . S
C227 H217 0.929 . S
C227 C225 1.433 . S
C227 N230 1.384 . S
C228 H219 0.929 . S
C228 C220 1.378 . S
C228 C223 1.350 . S
C229 H216 0.929 . S
C229 C221 1.433 . S
C229 N231 1.384 . S
N230 C226 1.427 . S
N230 C227 1.384 . S
N231 C223 1.427 . S
N231 C229 1.384 . S
H232 C238 0.930 . S
H233 C242 0.930 . S
H234 C247 0.929 . S
H235 C245 0.929 . S
H236 C240 0.929 . S
H237 C246 0.929 . S
C238 H232 0.930 . S
C238 C239 1.367 . S
C238 C246 1.378 . S
C239 C238 1.367 . S
C239 C247 1.433 . S
C240 H236 0.929 . S
C240 C242 1.378 . S
C240 C244 1.350 . S
C241 C244 1.463 . S
C241 C246 1.350 . S
C241 N249 1.427 . S
C242 H233 0.930 . S
C242 C240 1.378 . S
C242 C243 1.367 . S
C243 C242 1.367 . S
C243 C245 1.433 . S
C244 C240 1.350 . S
C244 C241 1.463 . S
C244 N248 1.427 . S
C245 H235 0.929 . S
C245 C243 1.433 . S
C245 N248 1.384 . S
C246 H237 0.929 . S
C246 C238 1.378 . S
C246 C241 1.350 . S
C247 H234 0.929 . S
C247 C239 1.433 . S
C247 N249 1.384 . S
N248 C244 1.427 . S
N248 C245 1.384 . S
N249 C241 1.427 . S
N249 C247 1.384 . S
H250 C256 0.930 . S
H251 C260 0.930 . S
H252 C265 0.929 . S
H253 C263 0.929 . S
H254 C258 0.929 . S
H255 C264 0.945 . S
C256 H250 0.930 . S
C256 C257 1.367 . S
C256 C264 1.378 . S
C257 C256 1.367 . S
C257 C265 1.433 . S
C258 H254 0.929 . S
C258 C260 1.378 . S
C258 C262 1.350 . S
C259 C262 1.463 . S
C259 C264 1.350 . S
C259 N267 1.427 . S
C260 H251 0.930 . S
C260 C258 1.378 . S
C260 C261 1.367 1_655 S
C261 C260 1.367 1_455 S
C261 C263 1.433 . S
C262 C258 1.350 . S
C262 C259 1.463 . S
C262 N266 1.427 1_655 S
C263 H253 0.929 . S
C263 C261 1.433 . S
C263 N266 1.384 . S
C264 H255 0.945 . S
C264 C256 1.378 . S
C264 C259 1.350 . S
C265 H252 0.929 . S
C265 C257 1.433 . S
C265 N267 1.384 . S
N266 C262 1.427 1_455 S
N266 C263 1.384 . S
N267 C259 1.427 . S
N267 C265 1.384 . S
H268 C274 0.930 . S
H269 C278 0.930 . S
H270 C283 0.929 . S
H271 C281 0.929 . S
H272 C276 0.929 . S
H273 C282 0.929 . S
C274 H268 0.930 . S
C274 C275 1.367 . S
C274 C282 1.378 . S
C275 C274 1.367 . S
C275 C283 1.433 . S
C276 H272 0.929 . S
C276 C278 1.378 . S
C276 C280 1.350 . S
C277 C280 1.463 . S
C277 C282 1.350 . S
C277 N285 1.427 . S
C278 H269 0.930 . S
C278 C276 1.378 . S
C278 C279 1.367 . S
C279 C278 1.367 . S
C279 C281 1.433 . S
C280 C276 1.350 . S
C280 C277 1.463 . S
C280 N284 1.427 . S
C281 H271 0.929 . S
C281 C279 1.433 . S
C281 N284 1.384 . S
C282 H273 0.929 . S
C282 C274 1.378 . S
C282 C277 1.350 . S
C283 H270 0.929 . S
C283 C275 1.433 . S
C283 N285 1.384 . S
N284 C280 1.427 . S
N284 C281 1.384 . S
N285 C277 1.427 . S
N285 C283 1.384 . S
H286 C292 0.930 . S
H287 C296 0.930 . S
H288 C301 0.929 . S
H289 C299 0.929 1_545 S
H290 C294 0.929 . S
H291 C300 0.929 . S
C292 H286 0.930 . S
C292 C293 1.367 . S
C292 C300 1.378 . S
C293 C292 1.367 . S
C293 C301 1.433 . S
C294 H290 0.929 . S
C294 C296 1.378 . S
C294 C298 1.350 . S
C295 C298 1.463 . S
C295 C300 1.350 . S
C295 N303 1.427 . S
C296 H287 0.930 . S
C296 C294 1.378 . S
C296 C297 1.367 . S
C297 C296 1.367 . S
C297 C299 1.433 . S
C298 C294 1.350 . S
C298 C295 1.463 . S
C298 N302 1.427 . S
C299 H289 0.929 1_565 S
C299 C297 1.433 . S
C299 N302 1.384 . S
C300 H291 0.929 . S
C300 C292 1.378 . S
C300 C295 1.350 . S
C301 H288 0.929 . S
C301 C293 1.433 . S
C301 N303 1.384 . S
N302 C298 1.427 . S
N302 C299 1.384 . S
N303 C295 1.427 . S
N303 C301 1.384 . S
H304 C310 0.930 . S
H305 C314 0.930 . S
H306 C319 0.929 . S
H307 C317 0.929 1_554 S
H308 C312 0.929 . S
H309 C318 0.929 . S
C310 H304 0.930 . S
C310 C311 1.367 . S
C310 C318 1.378 . S
C311 C310 1.367 . S
C311 C319 1.433 . S
C312 H308 0.929 . S
C312 C314 1.378 . S
C312 C316 1.350 . S
C313 C316 1.463 . S
C313 C318 1.350 . S
C313 N321 1.427 . S
C314 H305 0.930 . S
C314 C312 1.378 . S
C314 C315 1.367 . S
C315 C314 1.367 . S
C315 C317 1.433 . S
C316 C312 1.350 . S
C316 C313 1.463 . S
C316 N320 1.427 . S
C317 H307 0.929 1_556 S
C317 C315 1.433 . S
C317 N320 1.384 . S
C318 H309 0.929 . S
C318 C310 1.378 . S
C318 C313 1.350 . S
C319 H306 0.929 . S
C319 C311 1.433 . S
C319 N321 1.384 . S
N320 C316 1.427 . S
N320 C317 1.384 . S
N321 C313 1.427 . S
N321 C319 1.384 . S
H322 C328 0.930 . S
H323 C332 0.930 . S
H324 C337 0.929 . S
H325 C335 0.929 . S
H326 C330 0.929 . S
H327 C336 0.929 . S
C328 H322 0.930 . S
C328 C329 1.367 . S
C328 C336 1.378 . S
C329 C328 1.367 . S
C329 C337 1.433 . S
C330 H326 0.929 . S
C330 C332 1.378 . S
C330 C334 1.350 . S
C331 C334 1.463 . S
C331 C336 1.350 . S
C331 N339 1.427 . S
C332 H323 0.930 . S
C332 C330 1.378 . S
C332 C333 1.367 . S
C333 C332 1.367 . S
C333 C335 1.433 . S
C334 C330 1.350 . S
C334 C331 1.463 . S
C334 N338 1.427 . S
C335 H325 0.929 . S
C335 C333 1.433 . S
C335 N338 1.384 . S
C336 H327 0.929 . S
C336 C328 1.378 . S
C336 C331 1.350 . S
C337 H324 0.929 . S
C337 C329 1.433 . S
C337 N339 1.384 . S
N338 C334 1.427 . S
N338 C335 1.384 . S
N339 C331 1.427 . S
N339 C337 1.384 . S
H340 C346 0.930 . S
H341 C350 0.930 . S
H342 C355 0.929 . S
H343 C353 0.929 . S
H344 C348 0.929 . S
H345 C354 0.929 . S
C346 H340 0.930 . S
C346 C347 1.367 . S
C346 C354 1.378 . S
C347 C346 1.367 . S
C347 C355 1.433 . S
C348 H344 0.929 . S
C348 C350 1.378 . S
C348 C352 1.350 . S
C349 C352 1.463 . S
C349 C354 1.350 . S
C349 N357 1.427 . S
C350 H341 0.930 . S
C350 C348 1.378 . S
C350 C351 1.367 . S
C351 C350 1.367 . S
C351 C353 1.433 . S
C352 C348 1.350 . S
C352 C349 1.463 . S
C352 N356 1.427 . S
C353 H343 0.929 . S
C353 C351 1.433 . S
C353 N356 1.384 . S
C354 H345 0.929 . S
C354 C346 1.378 . S
C354 C349 1.350 . S
C355 H342 0.929 . S
C355 C347 1.433 . S
C355 N357 1.384 . S
N356 C352 1.427 . S
N356 C353 1.384 . S
N357 C349 1.427 . S
N357 C355 1.384 . S
H358 C364 0.930 . S
H359 C368 0.930 1_554 S
H360 C373 0.929 . S
H361 C371 0.929 . S
H362 C366 0.929 1_554 S
H363 C372 0.929 . S
C364 H358 0.930 . S
C364 C365 1.367 . S
C364 C372 1.378 . S
C365 C364 1.367 . S
C365 C373 1.433 . S
C366 H362 0.929 1_556 S
C366 C368 1.378 . S
C366 C370 1.350 . S
C367 C370 1.463 . S
C367 C372 1.350 . S
C367 N375 1.427 . S
C368 H359 0.930 1_556 S
C368 C366 1.378 . S
C368 C369 1.367 . S
C369 C368 1.367 . S
C369 C371 1.433 . S
C370 C366 1.350 . S
C370 C367 1.463 . S
C370 N374 1.427 . S
C371 H361 0.929 . S
C371 C369 1.433 . S
C371 N374 1.384 . S
C372 H363 0.929 . S
C372 C364 1.378 . S
C372 C367 1.350 . S
C373 H360 0.929 . S
C373 C365 1.433 . S
C373 N375 1.384 . S
N374 C370 1.427 . S
N374 C371 1.384 . S
N375 C367 1.427 . S
N375 C373 1.384 . S
H376 C382 0.930 . S
H377 C386 0.930 . S
H378 C391 0.929 . S
H379 C389 0.952 . S
H380 C384 0.929 . S
H381 C390 0.954 . S
C382 H376 0.930 . S
C382 C383 1.367 . S
C382 C390 1.378 . S
C383 C382 1.367 . S
C383 C391 1.433 . S
C384 H380 0.929 . S
C384 C386 1.378 . S
C384 C388 1.350 . S
C385 C388 1.463 . S
C385 C390 1.350 . S
C385 N393 1.427 . S
C386 H377 0.930 . S
C386 C384 1.378 . S
C386 C387 1.367 . S
C387 C386 1.367 . S
C387 C389 1.413 1_655 S
C388 C384 1.350 . S
C388 C385 1.463 . S
C388 N392 1.427 . S
C389 H379 0.952 . S
C389 C387 1.413 1_455 S
C389 N392 1.381 1_455 S
C390 H381 0.954 . S
C390 C382 1.378 . S
C390 C385 1.350 . S
C391 H378 0.929 . S
C391 C383 1.433 . S
C391 N393 1.384 . S
N392 C388 1.427 . S
N392 C389 1.381 1_655 S
N393 C385 1.427 . S
N393 C391 1.384 . S
H394 C400 0.930 . S
H395 C404 0.930 . S
H396 C409 0.929 . S
H397 C407 0.929 . S
H398 C402 0.929 . S
H399 C408 0.929 . S
C400 H394 0.930 . S
C400 C401 1.367 . S
C400 C408 1.378 . S
C401 C400 1.367 . S
C401 C409 1.433 . S
C402 H398 0.929 . S
C402 C404 1.378 . S
C402 C406 1.350 . S
C403 C406 1.463 . S
C403 C408 1.350 . S
C403 N411 1.427 . S
C404 H395 0.930 . S
C404 C402 1.378 . S
C404 C405 1.367 . S
C405 C404 1.367 . S
C405 C407 1.433 . S
C406 C402 1.350 . S
C406 C403 1.463 . S
C406 N410 1.427 . S
C407 H397 0.929 . S
C407 C405 1.433 . S
C407 N410 1.384 . S
C408 H399 0.929 . S
C408 C400 1.378 . S
C408 C403 1.350 . S
C409 H396 0.929 . S
C409 C401 1.433 . S
C409 N411 1.384 . S
N410 C406 1.427 . S
N410 C407 1.384 . S
N411 C403 1.427 . S
N411 C409 1.384 . S
H412 C418 0.930 1_545 S
H413 C422 0.930 . S
H414 C427 0.929 . S
H415 C425 0.929 1_455 S
H416 C420 0.929 . S
H417 C426 0.929 . S
C418 H412 0.930 1_565 S
C418 C419 1.367 . S
C418 C426 1.378 1_565 S
C419 C418 1.367 . S
C419 C427 1.433 . S
C420 H416 0.929 . S
C420 C422 1.378 . S
C420 C424 1.350 . S
C421 C424 1.463 . S
C421 C426 1.350 1_565 S
C421 N429 1.427 . S
C422 H413 0.930 . S
C422 C420 1.378 . S
C422 C423 1.365 1_565 S
C423 C422 1.365 1_545 S
C423 C425 1.435 . S
C424 C420 1.350 . S
C424 C421 1.463 . S
C424 N428 1.427 1_565 S
C425 H415 0.929 1_655 S
C425 C423 1.435 . S
C425 N428 1.384 . S
C426 H417 0.929 . S
C426 C418 1.378 1_545 S
C426 C421 1.350 1_545 S
C427 H414 0.929 . S
C427 C419 1.433 . S
C427 N429 1.384 . S
N428 C424 1.427 1_545 S
N428 C425 1.384 . S
N429 C421 1.427 . S
N429 C427 1.384 . S
H430 C436 0.930 . S
H431 C440 0.930 . S
H432 C445 0.929 . S
H433 C443 0.929 1_565 S
H434 C438 0.929 . S
H435 C444 0.929 . S
C436 H430 0.930 . S
C436 C437 1.367 . S
C436 C444 1.378 . S
C437 C436 1.367 . S
C437 C445 1.433 . S
C438 H434 0.929 . S
C438 C440 1.378 . S
C438 C442 1.350 . S
C439 C442 1.463 . S
C439 C444 1.350 . S
C439 N447 1.427 . S
C440 H431 0.930 . S
C440 C438 1.378 . S
C440 C441 1.367 . S
C441 C440 1.367 . S
C441 C443 1.433 . S
C442 C438 1.350 . S
C442 C439 1.463 . S
C442 N446 1.427 . S
C443 H433 0.929 1_545 S
C443 C441 1.433 . S
C443 N446 1.384 . S
C444 H435 0.929 . S
C444 C436 1.378 . S
C444 C439 1.350 . S
C445 H432 0.929 . S
C445 C437 1.433 . S
C445 N447 1.384 . S
N446 C442 1.427 . S
N446 C443 1.384 . S
N447 C439 1.427 . S
N447 C445 1.384 . S
H448 C454 0.930 . S
H449 C458 0.930 . S
H450 C463 0.929 . S
H451 C461 0.929 . S
H452 C456 0.929 . S
H453 C462 0.929 . S
C454 H448 0.930 . S
C454 C455 1.367 . S
C454 C462 1.378 . S
C455 C454 1.367 . S
C455 C463 1.433 . S
C456 H452 0.929 . S
C456 C458 1.378 . S
C456 C460 1.350 . S
C457 C460 1.463 . S
C457 C462 1.350 . S
C457 N465 1.427 . S
C458 H449 0.930 . S
C458 C456 1.378 . S
C458 C459 1.367 . S
C459 C458 1.367 . S
C459 C461 1.433 . S
C460 C456 1.350 . S
C460 C457 1.463 . S
C460 N464 1.427 . S
C461 H451 0.929 . S
C461 C459 1.433 . S
C461 N464 1.384 . S
C462 H453 0.929 . S
C462 C454 1.378 . S
C462 C457 1.350 . S
C463 H450 0.929 . S
C463 C455 1.433 . S
C463 N465 1.384 . S
N464 C460 1.427 . S
N464 C461 1.384 . S
N465 C457 1.427 . S
N465 C463 1.384 . S
H466 C472 0.930 . S
H467 C476 0.930 . S
H468 C481 0.929 . S
H469 C479 0.929 . S
H470 C474 0.929 . S
H471 C480 0.929 . S
C472 H466 0.930 . S
C472 C473 1.367 . S
C472 C480 1.378 . S
C473 C472 1.367 . S
C473 C481 1.433 . S
C474 H470 0.929 . S
C474 C476 1.378 . S
C474 C478 1.350 . S
C475 C478 1.463 . S
C475 C480 1.350 . S
C475 N483 1.427 . S
C476 H467 0.930 . S
C476 C474 1.378 . S
C476 C477 1.367 . S
C477 C476 1.367 . S
C477 C479 1.433 . S
C478 C474 1.350 . S
C478 C475 1.463 . S
C478 N482 1.427 . S
C479 H469 0.929 . S
C479 C477 1.433 . S
C479 N482 1.384 . S
C480 H471 0.929 . S
C480 C472 1.378 . S
C480 C475 1.350 . S
C481 H468 0.929 . S
C481 C473 1.433 . S
C481 N483 1.384 . S
N482 C478 1.427 . S
N482 C479 1.384 . S
N483 C475 1.427 . S
N483 C481 1.384 . S
H484 C490 0.930 . S
H485 C494 0.930 . S
H486 C499 0.929 . S
H487 C497 0.929 1_554 S
H488 C492 0.929 . S
H489 C498 0.929 . S
C490 H484 0.930 . S
C490 C491 1.367 . S
C490 C498 1.378 . S
C491 C490 1.367 . S
C491 C499 1.433 . S
C492 H488 0.929 . S
C492 C494 1.378 . S
C492 C496 1.350 1_545 S
C493 C496 1.463 . S
C493 C498 1.350 . S
C493 N501 1.427 . S
C494 H485 0.930 . S
C494 C492 1.378 . S
C494 C495 1.367 1_545 S
C495 C494 1.367 1_565 S
C495 C497 1.433 . S
C496 C492 1.350 1_565 S
C496 C493 1.463 . S
C496 N500 1.427 . S
C497 H487 0.929 1_556 S
C497 C495 1.433 . S
C497 N500 1.384 . S
C498 H489 0.929 . S
C498 C490 1.378 . S
C498 C493 1.350 . S
C499 H486 0.929 . S
C499 C491 1.433 . S
C499 N501 1.384 . S
N500 C496 1.427 . S
N500 C497 1.384 . S
N501 C493 1.427 . S
N501 C499 1.384 . S
H502 C508 0.930 . S
H503 C512 0.930 1_565 S
H504 C517 0.929 . S
H505 C515 0.929 . S
H506 C510 0.929 1_565 S
H507 C516 0.929 . S
C508 H502 0.930 . S
C508 C509 1.367 . S
C508 C516 1.378 . S
C509 C508 1.367 . S
C509 C517 1.433 . S
C510 H506 0.929 1_545 S
C510 C512 1.378 . S
C510 C514 1.350 . S
C511 C514 1.463 . S
C511 C516 1.350 . S
C511 N519 1.427 . S
C512 H503 0.930 1_545 S
C512 C510 1.378 . S
C512 C513 1.367 . S
C513 C512 1.367 . S
C513 C515 1.433 . S
C514 C510 1.350 . S
C514 C511 1.463 . S
C514 N518 1.427 . S
C515 H505 0.929 . S
C515 C513 1.433 . S
C515 N518 1.384 . S
C516 H507 0.929 . S
C516 C508 1.378 . S
C516 C511 1.350 . S
C517 H504 0.929 . S
C517 C509 1.433 . S
C517 N519 1.384 . S
N518 C514 1.427 . S
N518 C515 1.384 . S
N519 C511 1.427 . S
N519 C517 1.384 . S
H520 C526 0.930 . S
H521 C530 0.930 . S
H522 C535 0.929 . S
H523 C533 0.929 . S
H524 C528 0.929 . S
H525 C534 0.929 . S
C526 H520 0.930 . S
C526 C527 1.367 . S
C526 C534 1.378 . S
C527 C526 1.367 . S
C527 C535 1.433 . S
C528 H524 0.929 . S
C528 C530 1.378 . S
C528 C532 1.350 . S
C529 C532 1.463 . S
C529 C534 1.350 . S
C529 N537 1.427 . S
C530 H521 0.930 . S
C530 C528 1.378 . S
C530 C531 1.367 . S
C531 C530 1.367 . S
C531 C533 1.433 . S
C532 C528 1.350 . S
C532 C529 1.463 . S
C532 N536 1.427 . S
C533 H523 0.929 . S
C533 C531 1.433 . S
C533 N536 1.384 . S
C534 H525 0.929 . S
C534 C526 1.378 . S
C534 C529 1.350 . S
C535 H522 0.929 . S
C535 C527 1.433 . S
C535 N537 1.384 . S
N536 C532 1.427 . S
N536 C533 1.384 . S
N537 C529 1.427 . S
N537 C535 1.384 . S
H538 C544 0.930 . S
H539 C548 0.930 . S
H540 C553 0.929 . S
H541 C551 0.929 . S
H542 C546 0.929 . S
H543 C552 0.929 . S
C544 H538 0.930 . S
C544 C545 1.367 . S
C544 C552 1.378 . S
C545 C544 1.367 . S
C545 C553 1.433 . S
C546 H542 0.929 . S
C546 C548 1.378 . S
C546 C550 1.350 . S
C547 C550 1.463 . S
C547 C552 1.350 . S
C547 N555 1.427 . S
C548 H539 0.930 . S
C548 C546 1.378 . S
C548 C549 1.367 . S
C549 C548 1.367 . S
C549 C551 1.433 . S
C550 C546 1.350 . S
C550 C547 1.463 . S
C550 N554 1.427 . S
C551 H541 0.929 . S
C551 C549 1.433 . S
C551 N554 1.384 . S
C552 H543 0.929 . S
C552 C544 1.378 . S
C552 C547 1.350 . S
C553 H540 0.929 . S
C553 C545 1.433 . S
C553 N555 1.384 . S
N554 C550 1.427 . S
N554 C551 1.384 . S
N555 C547 1.427 . S
N555 C553 1.384 . S
H556 C562 0.930 . S
H557 C566 0.930 . S
H558 C571 0.929 . S
H559 C569 0.929 . S
H560 C564 0.929 . S
H561 C570 0.929 1_554 S
C562 H556 0.930 . S
C562 C563 1.367 . S
C562 C570 1.378 . S
C563 C562 1.367 . S
C563 C571 1.433 1_655 S
C564 H560 0.929 . S
C564 C566 1.378 . S
C564 C568 1.350 1_455 S
C565 C568 1.463 . S
C565 C570 1.350 . S
C565 N573 1.427 1_655 S
C566 H557 0.930 . S
C566 C564 1.378 . S
C566 C567 1.367 . S
C567 C566 1.367 . S
C567 C569 1.433 1_456 S
C568 C564 1.350 1_655 S
C568 C565 1.463 . S
C568 N572 1.427 1_556 S
C569 H559 0.929 . S
C569 C567 1.433 1_654 S
C569 N572 1.384 . S
C570 H561 0.929 1_556 S
C570 C562 1.378 . S
C570 C565 1.350 . S
C571 H558 0.929 . S
C571 C563 1.433 1_455 S
C571 N573 1.384 . S
N572 C568 1.427 1_554 S
N572 C569 1.384 . S
N573 C565 1.427 1_455 S
N573 C571 1.384 . S
H574 C580 0.930 . S
H575 C584 0.930 1_556 S
H576 C589 0.929 . S
H577 C587 0.929 . S
H578 C582 0.929 . S
H579 C588 0.929 . S
C580 H574 0.930 . S
C580 C581 1.367 . S
C580 C588 1.378 . S
C581 C580 1.367 . S
C581 C589 1.433 . S
C582 H578 0.929 . S
C582 C584 1.378 . S
C582 C586 1.350 . S
C583 C586 1.463 . S
C583 C588 1.350 . S
C583 N591 1.427 . S
C584 H575 0.930 1_554 S
C584 C582 1.378 . S
C584 C585 1.367 . S
C585 C584 1.367 . S
C585 C587 1.433 . S
C586 C582 1.350 . S
C586 C583 1.463 . S
C586 N590 1.427 . S
C587 H577 0.929 . S
C587 C585 1.433 . S
C587 N590 1.384 . S
C588 H579 0.929 . S
C588 C580 1.378 . S
C588 C583 1.350 . S
C589 H576 0.929 . S
C589 C581 1.433 . S
C589 N591 1.384 . S
N590 C586 1.427 . S
N590 C587 1.384 . S
N591 C583 1.427 . S
N591 C589 1.384 . S
H592 C598 0.930 . S
H593 C602 0.930 . S
H594 C607 0.929 . S
H595 C605 0.929 . S
H596 C600 0.929 . S
H597 C606 0.929 . S
C598 H592 0.930 . S
C598 C599 1.367 . S
C598 C606 1.378 . S
C599 C598 1.367 . S
C599 C607 1.433 . S
C600 H596 0.929 . S
C600 C602 1.378 . S
C600 C604 1.350 . S
C601 C604 1.463 . S
C601 C606 1.350 . S
C601 N609 1.427 . S
C602 H593 0.930 . S
C602 C600 1.378 . S
C602 C603 1.367 . S
C603 C602 1.367 . S
C603 C605 1.433 . S
C604 C600 1.350 . S
C604 C601 1.463 . S
C604 N608 1.427 . S
C605 H595 0.929 . S
C605 C603 1.433 . S
C605 N608 1.384 . S
C606 H597 0.929 . S
C606 C598 1.378 . S
C606 C601 1.350 . S
C607 H594 0.929 . S
C607 C599 1.433 . S
C607 N609 1.384 . S
N608 C604 1.427 . S
N608 C605 1.384 . S
N609 C601 1.427 . S
N609 C607 1.384 . S
H610 C616 0.930 . S
H611 C620 0.930 . S
H612 C625 0.929 . S
H613 C623 0.929 . S
H614 C618 0.929 . S
H615 C624 0.929 . S
C616 H610 0.930 . S
C616 C617 1.367 . S
C616 C624 1.378 . S
C617 C616 1.367 . S
C617 C625 1.433 . S
C618 H614 0.929 . S
C618 C620 1.378 . S
C618 C622 1.350 . S
C619 C622 1.463 . S
C619 C624 1.350 . S
C619 N627 1.427 . S
C620 H611 0.930 . S
C620 C618 1.378 . S
C620 C621 1.367 . S
C621 C620 1.367 . S
C621 C623 1.433 . S
C622 C618 1.350 . S
C622 C619 1.463 . S
C622 N626 1.427 . S
C623 H613 0.929 . S
C623 C621 1.433 . S
C623 N626 1.384 . S
C624 H615 0.929 . S
C624 C616 1.378 . S
C624 C619 1.350 . S
C625 H612 0.929 . S
C625 C617 1.433 . S
C625 N627 1.384 . S
N626 C622 1.427 . S
N626 C623 1.384 . S
N627 C619 1.427 . S
N627 C625 1.384 . S
C203 C9 1.996 . S
C207 C122 1.953 . S
C221 C21 1.589 . S
C225 C146 1.560 . S
C243 C166 1.162 . S
C239 C30 1.154 . S
C257 C43 1.149 . S
C261 C189 1.213 . S
C279 C148 1.571 . S
C275 C4 1.593 . S
C297 C124 2.126 . S
C293 C22 2.166 . S
C315 C192 1.267 . S
C311 C34 1.301 . S
C333 C169 1.393 . S
C329 C48 1.421 . S
C347 C8 1.537 . S
C351 C194 1.508 . S
C369 C143 1.636 . S
C365 C35 1.621 . S
C383 C47 1.667 . S
C387 C121 1.679 . S
C401 C17 1.313 . S
C405 C171 1.282 . S
C423 C125 1.644 . S
C419 C60 1.648 . S
C437 C74 1.839 . S
C441 C147 1.819 . S
C455 C82 1.245 . S
C459 C167 1.263 . S
C473 C100 1.954 . S
C477 C190 1.977 . S
C491 C61 1.825 . S
C495 C145 1.801 . S
C513 C123 1.559 . S
C509 C73 1.552 . S
C531 C193 1.516 . S
C527 C87 1.533 . S
C549 C170 1.111 . S
C545 C95 1.088 . S
C563 C56 1.745 . S
C567 C191 1.825 . S
C585 C144 1.620 . S
C581 C86 1.596 . S
C603 C120 1.477 . S
C599 C99 1.452 . S
C617 C69 1.672 . S
C621 C168 1.647 . S
