# Generated by pormake.
# Topology anh, (6,3)-cn, num edge types: 1
# Building blocks:
#     Node 0, Type 0, BuildingBlock: PAMTUU_clean_sbu_0, # of connection points: 6
#     Node 1, Type 0, BuildingBlock: PAMTUU_clean_sbu_0, # of connection points: 6
#     Node 2, Type 0, BuildingBlock: PAMTUU_clean_sbu_0, # of connection points: 6
#     Node 3, Type 1, BuildingBlock: BELTOD_clean_linker_0, # of connection points: 3
#     Node 4, Type 1, BuildingBlock: BELTOD_clean_linker_0, # of connection points: 3
#     Node 5, Type 1, BuildingBlock: BELTOD_clean_linker_0, # of connection points: 3
#     Node 6, Type 1, BuildingBlock: BELTOD_clean_linker_0, # of connection points: 3
#     Node 7, Type 1, BuildingBlock: BELTOD_clean_linker_0, # of connection points: 3
#     Node 8, Type 1, BuildingBlock: BELTOD_clean_linker_0, # of connection points: 3
#     Edge 9, Type (0, 1), BuildingBlock: AJUNOK_clean_linker_0, # of connection points: 2
#     Edge 10, Type (0, 1), BuildingBlock: AJUNOK_clean_linker_0, # of connection points: 2
#     Edge 11, Type (0, 1), BuildingBlock: AJUNOK_clean_linker_0, # of connection points: 2
#     Edge 12, Type (0, 1), BuildingBlock: AJUNOK_clean_linker_0, # of connection points: 2
#     Edge 13, Type (0, 1), BuildingBlock: AJUNOK_clean_linker_0, # of connection points: 2
#     Edge 14, Type (0, 1), BuildingBlock: AJUNOK_clean_linker_0, # of connection points: 2
#     Edge 15, Type (0, 1), BuildingBlock: AJUNOK_clean_linker_0, # of connection points: 2
#     Edge 16, Type (0, 1), BuildingBlock: AJUNOK_clean_linker_0, # of connection points: 2
#     Edge 17, Type (0, 1), BuildingBlock: AJUNOK_clean_linker_0, # of connection points: 2
#     Edge 18, Type (0, 1), BuildingBlock: AJUNOK_clean_linker_0, # of connection points: 2
#     Edge 19, Type (0, 1), BuildingBlock: AJUNOK_clean_linker_0, # of connection points: 2
#     Edge 20, Type (0, 1), BuildingBlock: AJUNOK_clean_linker_0, # of connection points: 2
#     Edge 21, Type (0, 1), BuildingBlock: AJUNOK_clean_linker_0, # of connection points: 2
#     Edge 22, Type (0, 1), BuildingBlock: AJUNOK_clean_linker_0, # of connection points: 2
#     Edge 23, Type (0, 1), BuildingBlock: AJUNOK_clean_linker_0, # of connection points: 2
#     Edge 24, Type (0, 1), BuildingBlock: AJUNOK_clean_linker_0, # of connection points: 2
#     Edge 25, Type (0, 1), BuildingBlock: AJUNOK_clean_linker_0, # of connection points: 2
#     Edge 26, Type (0, 1), BuildingBlock: AJUNOK_clean_linker_0, # of connection points: 2
# Relax obj value: 0.327
# Max RMSD: 0.196
# Mean RMSD: 0.158
data_MOF--net-anh--node1-PAMTUU_clean_sbu_0--node2-BELTOD_clean_linker_0--edge1-AJUNOK_clean_linker_0
_symmetry_space_group_name_H-M    P1
_symmetry_Int_Tables_number       1
_symmetry_cell_setting            triclinic
loop_
_symmetry_equiv_pos_as_xyz
'x, y, z'
_cell_length_a     26.753117
_cell_length_b     26.935482
_cell_length_c     46.794135
_cell_angle_alpha  92.4292
_cell_angle_beta   91.169913
_cell_angle_gamma 120.11344
loop_
_atom_site_label
_atom_site_type_symbol
_atom_site_fract_x
_atom_site_fract_y
_atom_site_fract_z
_atom_type_partial_charge
Tb0 Tb 1.08639 0.65443 0.17226 0.0
Tb1 Tb 0.15122 0.58459 0.16464 0.0
C2 C 1.10327 0.61465 0.11183 0.0
C3 C 0.96964 0.67773 0.19257 0.0
C4 C 0.85482 0.59334 0.20096 0.0
C5 C 0.86755 0.63219 0.1793 0.0
C6 C 0.92456 0.67439 0.17531 0.0
C7 C 0.95627 0.64479 0.21675 0.0
C8 C 0.89906 0.60327 0.22109 0.0
C9 C 1.02742 0.70228 0.18088 0.0
O10 O 1.0144 0.56251 0.16759 0.0
O11 O 1.06634 0.52058 0.181 0.0
O12 O 0.17942 0.6275 0.2064 0.0
O13 O 1.09421 0.62363 0.21387 0.0
O14 O 0.19605 0.55938 0.13719 0.0
O15 O 0.17094 0.52321 0.17871 0.0
O16 O 0.22391 0.67556 0.163 0.0
O17 O 0.17819 0.72494 0.177 0.0
O18 O 1.10894 0.65946 0.12702 0.0
O19 O 1.10087 0.57222 0.12535 0.0
C20 C 1.01562 0.51673 0.17609 0.0
O21 O 1.06945 0.70941 0.19832 0.0
O22 O 1.02803 0.67806 0.15625 0.0
C23 C 0.14247 0.62789 0.22391 0.0
C24 C 0.25148 0.52284 0.15854 0.0
C25 C 0.33656 0.49224 0.15241 0.0
C26 C 0.29411 0.46601 0.17246 0.0
C27 C 0.25171 0.48116 0.17545 0.0
C28 C 0.29736 0.55309 0.14058 0.0
C29 C 0.33963 0.53773 0.13751 0.0
C30 C 0.19796 0.52503 0.15552 0.0
C31 C 0.22642 0.72482 0.17115 0.0
H32 H 0.83499 0.62572 0.16313 0.0
H33 H 0.93391 0.69944 0.15659 0.0
H34 H 0.99018 0.64667 0.23061 0.0
H35 H 0.89043 0.57461 0.23823 0.0
H36 H 0.29064 0.43037 0.18393 0.0
H37 H 0.21649 0.45696 0.18926 0.0
H38 H 0.29835 0.58552 0.1273 0.0
H39 H 0.37233 0.55856 0.122 0.0
Tb40 Tb 0.57307 0.12354 0.51054 0.0
Tb41 Tb 0.70841 0.19315 0.50619 0.0
C42 C 0.62913 0.14783 0.44992 0.0
C43 C 0.44369 1.00101 0.5293 0.0
C44 C 0.42031 0.88733 0.53074 0.0
C45 C 0.38049 0.89928 0.51711 0.0
C46 C 0.39231 0.95599 0.51628 0.0
C47 C 0.47976 0.98809 0.54585 0.0
C48 C 0.46833 0.93166 0.54641 0.0
C49 C 0.46799 1.05914 0.51907 0.0
O50 O 0.59407 1.05345 0.50416 0.0
O51 O 0.68921 0.10588 0.51872 0.0
O52 O 0.68706 0.21694 0.54634 0.0
O53 O 0.61679 0.12725 0.55152 0.0
O54 O 0.78586 0.2505 0.4878 0.0
O55 O 0.78561 0.20625 0.52552 0.0
O56 O 0.68682 0.2635 0.50496 0.0
O57 O 0.59066 0.21423 0.51531 0.0
O58 O 0.58584 0.14267 0.46504 0.0
O59 O 0.6774 0.15716 0.46272 0.0
C60 C 0.64217 1.05508 0.51299 0.0
O61 O 0.50318 0.1014 0.53708 0.0
O62 O 0.48943 1.06423 0.49388 0.0
C63 C 0.65787 0.1763 0.56318 0.0
C64 C 0.86338 0.2991 0.5222 0.0
C65 C 0.95844 0.40476 0.54219 0.0
C66 C 0.90325 0.39878 0.53911 0.0
C67 C 0.85578 0.34596 0.52928 0.0
C68 C 0.91693 0.30349 0.52773 0.0
C69 C 0.96408 0.35578 0.53769 0.0
C70 C 0.81694 0.24574 0.50824 0.0
C71 C 0.6385 0.26373 0.51117 0.0
H72 H 0.34358 0.86579 0.50451 0.0
H73 H 0.36446 0.96508 0.50307 0.0
H74 H 0.52004 1.02205 0.55588 0.0
H75 H 0.49976 0.92342 0.55685 0.0
H76 H 0.89772 0.43578 0.54231 0.0
H77 H 0.81398 0.34244 0.52583 0.0
H78 H 0.92308 0.26727 0.52281 0.0
H79 H 1.006 0.35884 0.53917 0.0
Tb80 Tb 0.53773 0.49236 0.82324 0.0
Tb81 Tb 0.60373 0.62037 0.85137 0.0
C82 C 0.58459 0.59677 0.78369 0.0
C83 C 0.52377 0.35816 0.80264 0.0
C84 C 0.62102 0.34466 0.80141 0.0
C85 C 0.58932 0.33865 0.77594 0.0
C86 C 0.54055 0.34471 0.77658 0.0
C87 C 0.55127 0.35677 0.82837 0.0
C88 C 0.59963 0.34995 0.82773 0.0
C89 C 0.4939 0.39156 0.80214 0.0
O90 O 0.63137 0.51614 0.82342 0.0
O91 O 0.67196 0.59723 0.85368 0.0
O92 O 0.57519 0.56362 0.88721 0.0
O93 O 0.57021 0.48512 0.86417 0.0
O94 O 0.68026 0.69751 0.8623 0.0
O95 O 0.59853 0.68471 0.87601 0.0
O96 O 0.51563 0.60362 0.83979 0.0
O97 O 0.46739 0.50593 0.84008 0.0
O98 O 0.54285 0.54482 0.78822 0.0
O99 O 0.6179 0.632 0.8052 0.0
C100 C 0.6767 0.55692 0.83909 0.0
O101 O 0.47942 0.40403 0.82678 0.0
O102 O 0.51945 0.4366 0.78699 0.0
C103 C 0.57454 0.51456 0.8878 0.0
C104 C 0.67112 0.77863 0.86693 0.0
C105 C 0.72061 0.89015 0.84793 0.0
C106 C 0.73664 0.88097 0.8751 0.0
C107 C 0.71189 0.82551 0.88454 0.0
C108 C 0.65327 0.78757 0.84023 0.0
C109 C 0.67782 0.84314 0.8308 0.0
C110 C 0.65374 0.72075 0.87513 0.0
C111 C 0.46642 0.55475 0.84149 0.0
H112 H 0.60486 0.33366 0.75542 0.0
H113 H 0.52024 0.34569 0.7565 0.0
H114 H 0.53946 0.36698 0.84887 0.0
H115 H 0.6234 0.35439 0.84761 0.0
H116 H 0.77043 0.9162 0.88843 0.0
H117 H 0.72659 0.81895 0.90504 0.0
H118 H 0.6222 0.75149 0.82629 0.0
H119 H 0.66477 0.84921 0.80977 0.0
P120 P 0.63828 0.10995 0.22463 0.0
H121 H 0.59813 1.02211 0.17502 0.0
H122 H 0.5057 0.9357 0.16105 0.0
H123 H 0.42201 0.9852 0.22462 0.0
H124 H 0.51417 1.07292 0.23746 0.0
H125 H 0.76454 0.16988 0.23443 0.0
H126 H 0.84708 0.25955 0.22188 0.0
H127 H 0.7325 0.30004 0.17535 0.0
H128 H 0.64914 0.20815 0.18779 0.0
H129 H 0.57672 1.02859 0.26841 0.0
H130 H 0.68188 0.21271 0.26602 0.0
O131 O 0.66965 1.06979 0.22505 0.0
H132 H 0.57029 1.03853 0.32023 0.0
H133 H 0.67674 0.22258 0.31812 0.0
C134 C 0.56517 1.05627 0.20739 0.0
C135 C 0.55983 1.01573 0.18552 0.0
C136 C 0.50616 0.96454 0.17798 0.0
C137 C 0.45458 0.95031 0.19216 0.0
C138 C 0.45943 0.99272 0.21293 0.0
C139 C 0.51308 1.04411 0.22031 0.0
C140 C 0.6989 0.17954 0.21181 0.0
C141 C 0.75642 0.19723 0.22112 0.0
C142 C 0.80467 0.25011 0.21409 0.0
C143 C 0.79903 0.28976 0.19736 0.0
C144 C 0.74099 0.27212 0.18791 0.0
C145 C 0.69214 0.21859 0.19513 0.0
C146 C 0.62902 0.11981 0.26282 0.0
C147 C 0.59763 1.07133 0.27886 0.0
C148 C 0.59394 0.07702 0.30864 0.0
C149 C 0.62253 0.1314 0.32347 0.0
C150 C 0.65401 0.18004 0.30743 0.0
C151 C 0.65687 0.17437 0.27749 0.0
P152 P 0.66326 0.67277 0.56441 0.0
H153 H 0.70927 0.63263 0.51588 0.0
H154 H 0.70294 0.54095 0.50211 0.0
H155 H 0.57177 0.4572 0.5631 0.0
H156 H 0.57635 0.54868 0.57567 0.0
H157 H 0.72761 0.79738 0.57876 0.0
H158 H 0.7222 0.88112 0.56605 0.0
H159 H 0.57066 0.77226 0.51145 0.0
H160 H 0.57775 0.6875 0.52386 0.0
H161 H 0.68827 0.61186 0.60764 0.0
H162 H 0.60365 0.71216 0.60577 0.0
O163 O 0.73526 0.70406 0.5658 0.0
H164 H 0.67012 0.59819 0.6585 0.0
H165 H 0.58711 0.7 0.65725 0.0
C166 C 0.6431 0.59985 0.54691 0.0
C167 C 0.67767 0.59453 0.52584 0.0
C168 C 0.67506 0.54117 0.51845 0.0
C169 C 0.63829 0.48966 0.532 0.0
C170 C 0.60129 0.49446 0.55191 0.0
C171 C 0.60363 0.54781 0.55913 0.0
C172 C 0.65408 0.7343 0.55213 0.0
C173 C 0.69325 0.7907 0.56368 0.0
C174 C 0.68971 0.83966 0.55648 0.0
C175 C 0.64628 0.83599 0.53723 0.0
C176 C 0.60611 0.77908 0.52575 0.0
C177 C 0.60979 0.7295 0.53307 0.0
C178 C 0.64662 0.66226 0.60234 0.0
C179 C 0.66549 0.63082 0.61805 0.0
C180 C 0.6554 0.62326 0.64731 0.0
C181 C 0.62742 0.64821 0.66214 0.0
C182 C 0.6093 0.68064 0.64662 0.0
C183 C 0.61846 0.68729 0.61702 0.0
P184 P 1.09082 0.59274 0.88473 0.0
H185 H 0.16011 0.61109 0.83279 0.0
H186 H 0.24412 0.60128 0.82181 0.0
H187 H 0.22515 0.51441 0.89943 0.0
H188 H 0.14123 0.5243 0.91033 0.0
H189 H 1.04603 0.6369 0.83923 0.0
H190 H 0.95186 0.62689 0.82751 0.0
H191 H 0.87222 0.49146 0.88559 0.0
H192 H 0.96714 0.50194 0.89764 0.0
H193 H 0.13859 0.68782 0.92971 0.0
H194 H 1.04096 0.50257 0.92707 0.0
O195 O 0.12801 0.66194 0.87739 0.0
H196 H 0.1395 0.69179 0.98179 0.0
H197 H 1.03958 0.50649 0.97945 0.0
C198 C 0.14184 0.56794 0.87237 0.0
C199 C 0.17262 0.58847 0.84726 0.0
C200 C 0.22216 0.58375 0.8412 0.0
C201 C 0.24379 0.55804 0.8599 0.0
C202 C 0.2111 0.53471 0.88426 0.0
C203 C 0.16189 0.54005 0.89049 0.0
C204 C 1.01604 0.57063 0.86969 0.0
C205 C 1.00867 0.60409 0.84931 0.0
C206 C 0.95398 0.59878 0.84274 0.0
C207 C 0.90312 0.5592 0.85594 0.0
C208 C 0.90957 0.52289 0.87491 0.0
C209 C 0.96472 0.52879 0.88181 0.0
C210 C 1.08972 0.5947 0.92396 0.0
C211 C 0.11687 0.64771 0.94014 0.0
C212 C 0.1171 0.65012 0.9702 0.0
C213 C 1.0902 0.59958 0.98516 0.0
C214 C 1.06201 0.54646 0.9689 0.0
C215 C 1.0621 0.5441 0.93876 0.0
P216 P 0.26568 0.53836 0.41763 0.0
H217 H 0.34072 0.54563 0.46484 0.0
H218 H 0.39529 0.6283 0.49896 0.0
H219 H 0.39472 0.74046 0.43607 0.0
H220 H 0.33793 0.65807 0.40264 0.0
H221 H 0.20382 0.45138 0.45895 0.0
H222 H 0.14807 0.44988 0.49991 0.0
H223 H 0.17892 0.61904 0.48268 0.0
H224 H 0.23569 0.62076 0.44191 0.0
H225 H 0.3118 0.56388 0.36082 0.0
H226 H 0.16065 0.54364 0.40235 0.0
O227 O 0.26726 0.47744 0.41288 0.0
H228 H 0.27847 0.5868 0.31686 0.0
H229 H 0.12996 0.57105 0.35967 0.0
C230 C 0.33466 0.59559 0.43132 0.0
C231 C 0.35547 0.58836 0.45771 0.0
C232 C 0.38608 0.63539 0.47734 0.0
C233 C 0.39804 0.69004 0.47008 0.0
C234 C 0.38576 0.69839 0.44199 0.0
C235 C 0.35371 0.65123 0.42271 0.0
C236 C 0.22189 0.53517 0.44685 0.0
C237 C 0.19872 0.48814 0.46399 0.0
C238 C 0.16805 0.48798 0.48775 0.0
C239 C 0.16031 0.53498 0.49472 0.0
C240 C 0.18501 0.58276 0.47795 0.0
C241 C 0.21643 0.58321 0.45446 0.0
C242 C 0.23963 0.55328 0.38511 0.0
C243 C 0.27179 0.56484 0.36057 0.0
C244 C 0.25287 0.57837 0.33558 0.0
C245 C 0.20152 0.58091 0.33475 0.0
C246 C 0.16909 0.56856 0.35933 0.0
C247 C 0.18743 0.55389 0.38408 0.0
P248 P 0.92217 0.26651 0.74324 0.0
H249 H 0.93568 0.3225 0.80046 0.0
H250 H 0.87837 0.36178 0.8212 0.0
H251 H 0.81722 0.36885 0.73616 0.0
H252 H 0.87453 0.3312 0.71579 0.0
H253 H 0.96241 0.18705 0.75737 0.0
H254 H 0.92034 0.10179 0.7857 0.0
H255 H 0.78545 0.13657 0.80999 0.0
H256 H 0.82756 0.22107 0.78241 0.0
H257 H 0.94495 0.29106 0.68302 0.0
H258 H 0.80228 0.1723 0.73141 0.0
O259 O 0.99258 0.29558 0.73783 0.0
H260 H 0.87893 0.26412 0.64072 0.0
H261 H 0.73712 0.1459 0.68957 0.0
C262 C 0.90647 0.32059 0.75673 0.0
C263 C 0.91172 0.33473 0.78628 0.0
C264 C 0.87869 0.35674 0.79813 0.0
C265 C 0.8414 0.36574 0.78032 0.0
C266 C 0.84467 0.36123 0.75049 0.0
C267 C 0.87728 0.33905 0.73876 0.0
C268 C 0.89928 0.21144 0.76845 0.0
C269 C 0.92497 0.17729 0.76961 0.0
C270 C 0.90072 0.12852 0.7856 0.0
C271 C 0.85015 0.11314 0.80036 0.0
C272 C 0.82549 0.14835 0.79969 0.0
C273 C 0.84984 0.197 0.78391 0.0
C274 C 0.87903 0.23364 0.71047 0.0
C275 C 0.90015 0.25787 0.68437 0.0
C276 C 0.86233 0.24293 0.66035 0.0
C277 C 0.80291 0.20364 0.6622 0.0
C278 C 0.78272 0.17624 0.68766 0.0
C279 C 0.82036 0.19146 0.71166 0.0
P280 P 0.56206 0.30427 0.07069 0.0
H281 H 0.56056 0.26713 0.12794 0.0
H282 H 0.62316 0.3242 0.16966 0.0
H283 H 0.75107 0.43804 0.11337 0.0
H284 H 0.6889 0.38115 0.07175 0.0
H285 H 0.43689 0.26155 0.07018 0.0
H286 H 0.38121 0.30222 0.09195 0.0
H287 H 0.53933 0.44473 0.13016 0.0
H288 H 0.59413 0.40504 0.10857 0.0
H289 H 0.53014 0.26777 0.01011 0.0
H290 H 0.63133 0.42731 0.06073 0.0
O291 O 0.52358 0.23339 0.06323 0.0
H292 H 0.53716 0.32153 0.96814 0.0
H293 H 0.63939 0.48112 0.01873 0.0
C294 C 0.61941 0.32109 0.0968 0.0
C295 C 0.6035 0.30242 0.12452 0.0
C296 C 0.63875 0.3353 0.14837 0.0
C297 C 0.69078 0.3858 0.14441 0.0
C298 C 0.71055 0.39926 0.11668 0.0
C299 C 0.67513 0.36671 0.0929 0.0
C300 C 0.51933 0.32928 0.08844 0.0
C301 C 0.4592 0.30086 0.08371 0.0
C302 C 0.42764 0.32408 0.09605 0.0
C303 C 0.45618 0.37578 0.11317 0.0
C304 C 0.51627 0.40394 0.11779 0.0
C305 C 0.54756 0.38114 0.10534 0.0
C306 C 0.58121 0.34327 0.03852 0.0
C307 C 0.55539 0.31427 0.01206 0.0
C308 C 0.55909 0.34509 0.98811 0.0
C309 C 0.58811 0.40557 0.99027 0.0
C310 C 0.61579 0.43458 0.01654 0.0
C311 C 0.61205 0.4037 0.04046 0.0
C312 C 0.36486 0.44593 0.11429 0.0
C313 C 0.36993 0.46509 0.14319 0.0
C314 C 0.39161 0.4155 0.10495 0.0
C315 C 0.42459 0.40359 0.12418 0.0
H316 H 0.3391 0.45362 0.09887 0.0
H317 H 0.38728 0.40205 0.08244 0.0
S318 S 0.45112 0.44433 0.20201 0.0
N319 N 0.40997 0.47005 0.19099 0.0
N320 N 0.4609 0.41279 0.17335 0.0
C321 C 0.43015 0.42255 0.15314 0.0
C322 C 0.40251 0.45324 0.16269 0.0
C323 C 1.015 0.4957 0.51881 0.0
C324 C 1.01132 0.46189 0.54169 0.0
C325 C 1.06753 0.52838 0.50591 0.0
C326 C 0.1174 0.52823 0.51577 0.0
H327 H 0.97615 0.4899 0.5079 0.0
H328 H 1.06698 0.54672 0.48581 0.0
S329 S 0.13447 0.46762 0.58229 0.0
N330 N 1.06474 0.44604 0.57936 0.0
N331 N 0.16383 0.50714 0.55474 0.0
C332 C 0.1165 0.50487 0.5421 0.0
C333 C 1.06311 0.472 0.55537 0.0
C334 C 0.77547 0.9531 0.80915 0.0
C335 C 0.75256 0.94764 0.83636 0.0
C336 C 0.80829 1.007 0.79806 0.0
C337 C 0.81941 1.05743 0.81378 0.0
H338 H 0.76852 0.91542 0.79642 0.0
H339 H 0.82413 1.00907 0.77676 0.0
S340 S 0.76926 1.06644 0.88613 0.0
N341 N 0.74259 0.99696 0.87869 0.0
N342 N 0.80576 0.09878 0.8581 0.0
C343 C 0.79703 1.05267 0.8411 0.0
C344 C 0.76335 0.99767 0.85236 0.0
C345 C 0.80946 0.48693 0.19672 0.0
C346 C 0.80234 0.53545 0.19703 0.0
C347 C 0.76872 0.435 0.18244 0.0
C348 C 0.72017 0.43003 0.1679 0.0
H349 H 0.84941 0.49042 0.2048 0.0
H350 H 0.7776 0.40027 0.18077 0.0
S351 S 0.67291 0.53778 0.16909 0.0
N352 N 0.73599 0.57036 0.18724 0.0
N353 N 0.66054 0.47276 0.15937 0.0
C354 C 0.70846 0.47511 0.1713 0.0
C355 C 0.7494 0.5279 0.18619 0.0
C356 C 0.46577 0.83688 0.50714 0.0
C357 C 0.41949 0.83344 0.52245 0.0
C358 C 0.46082 0.7885 0.49211 0.0
C359 C 0.41002 0.73512 0.49245 0.0
H360 H 0.50402 0.87817 0.50473 0.0
H361 H 0.495 0.79338 0.47852 0.0
S362 S 0.27941 0.70181 0.53222 0.0
N363 N 0.32343 0.7715 0.53919 0.0
N364 N 0.31462 0.6799 0.5114 0.0
C365 C 0.36537 0.73 0.50964 0.0
C366 C 0.36996 0.77945 0.52453 0.0
C367 C 0.72096 0.39926 0.78465 0.0
C368 C 0.68006 0.35386 0.80005 0.0
C369 C 0.77581 0.40647 0.78066 0.0
C370 C 0.79141 0.36817 0.79172 0.0
H371 H 0.70988 0.42855 0.77499 0.0
H372 H 0.80512 0.4404 0.76756 0.0
S373 S 0.70069 0.24476 0.83541 0.0
N374 N 0.65972 0.2729 0.82826 0.0
N375 N 0.76239 0.285 0.82015 0.0
C376 C 0.75194 0.3246 0.80864 0.0
C377 C 0.69623 0.31771 0.8129 0.0
C378 C 0.66138 0.98977 0.54523 0.0
C379 C 0.64256 0.99879 0.51842 0.0
C380 C 0.66136 0.93792 0.55099 0.0
C381 C 0.64366 0.89116 0.53023 0.0
H382 H 0.67565 1.02306 0.56231 0.0
H383 H 0.67524 0.93459 0.57235 0.0
S384 S 0.59705 0.89502 0.45505 0.0
N385 N 0.60839 0.9565 0.47028 0.0
N386 N 0.61141 0.86212 0.48023 0.0
C387 C 0.62621 0.90055 0.50299 0.0
C388 C 0.62502 0.95302 0.49736 0.0
C389 C 0.73818 0.50643 0.83995 0.0
C390 C 0.73461 0.5573 0.84189 0.0
C391 C 0.79156 0.50684 0.84469 0.0
C392 C 0.84519 0.55835 0.85097 0.0
H393 H 0.69903 0.46555 0.83539 0.0
H394 H 0.79076 0.46622 0.84317 0.0
S395 S 0.86117 0.70382 0.85861 0.0
N396 N 0.79135 0.66092 0.85095 0.0
N397 N 0.88957 0.66178 0.85908 0.0
C398 C 0.84209 0.60937 0.85267 0.0
C399 C 0.78786 0.60883 0.84839 0.0
C400 C 0.28845 0.83529 0.18208 0.0
C401 C 0.28536 0.78188 0.17526 0.0
C402 C 0.342 0.88824 0.18717 0.0
C403 C 0.39688 0.89214 0.18585 0.0
H404 H 0.24875 0.83649 0.18365 0.0
H405 H 0.34002 0.92685 0.19203 0.0
S406 S 0.41493 0.76504 0.17053 0.0
N407 N 0.3441 0.73735 0.16836 0.0
N408 N 0.44281 0.8346 0.17823 0.0
C409 C 0.39439 0.83885 0.17921 0.0
C410 C 0.33975 0.7849 0.17393 0.0
C411 C 0.58837 0.3242 0.5216 0.0
C412 C 0.63899 0.32182 0.51544 0.0
C413 C 0.5884 0.3772 0.52666 0.0
C414 C 0.63905 0.43229 0.52595 0.0
H415 H 0.54772 0.28438 0.52267 0.0
H416 H 0.5476 0.37461 0.53098 0.0
S417 S 0.78495 0.4522 0.51263 0.0
N418 N 0.7422 0.38173 0.50983 0.0
N419 N 0.74269 0.47897 0.51981 0.0
C420 C 0.69012 0.43044 0.52006 0.0
C421 C 0.68998 0.37647 0.51478 0.0
C422 C 0.35804 0.50697 0.85394 0.0
C423 C 0.40932 0.55548 0.84538 0.0
C424 C 0.30577 0.50802 0.85865 0.0
C425 C 0.30059 0.55727 0.85459 0.0
H426 H 0.35831 0.46764 0.85747 0.0
H427 H 0.26866 0.46929 0.86532 0.0
S428 S 0.42142 0.69678 0.83284 0.0
N429 N 0.45021 0.65509 0.83357 0.0
N430 N 0.35387 0.6567 0.84193 0.0
C431 C 0.35148 0.60592 0.84593 0.0
C432 C 0.40482 0.60513 0.84152 0.0
C433 C 0.95293 0.42982 0.206 0.0
C434 C 0.95925 0.45989 0.181 0.0
C435 C 0.90178 0.37689 0.21107 0.0
C436 C 0.85343 0.34852 0.19108 0.0
H437 H 0.98789 0.44781 0.22222 0.0
H438 H 0.90042 0.35827 0.23128 0.0
S439 S 0.84983 0.40523 0.12016 0.0
N440 N 0.91241 0.45528 0.13531 0.0
N441 N 0.81982 0.35497 0.14339 0.0
C442 C 0.86028 0.37741 0.1654 0.0
C443 C 0.91168 0.43268 0.16079 0.0
C444 C 1.08778 0.64723 0.0638 0.0
C445 C 1.09992 0.61074 0.07957 0.0
C446 C 1.08429 0.64319 0.0335 0.0
C447 C 1.09295 0.60261 0.01751 0.0
H448 H 1.0804 0.6789 0.07493 0.0
H449 H 1.07418 0.67188 0.0225 0.0
S450 S 0.13145 0.50056 0.04821 0.0
N451 N 0.12368 0.53448 0.07643 0.0
N452 N 0.11823 0.52797 0.02013 0.0
C453 C 1.10619 0.5667 0.03304 0.0
C454 C 1.10944 0.57052 0.06378 0.0
C455 C 0.67621 0.17069 0.4023 0.0
C456 C 0.62515 0.14447 0.41767 0.0
C457 C 0.67477 0.16748 0.3721 0.0
C458 C 0.62227 0.13695 0.35566 0.0
H459 H 0.71802 0.1942 0.4137 0.0
H460 H 0.71538 0.18804 0.36153 0.0
S461 S 0.47596 1.06114 0.38489 0.0
N462 N 0.52017 0.0878 0.41368 0.0
N463 N 0.51758 0.08085 0.35716 0.0
C464 C 0.57081 0.11074 0.37065 0.0
C465 C 0.57221 0.11483 0.40148 0.0
C466 C 0.57594 0.56882 0.73099 0.0
C467 C 0.5952 0.61288 0.75302 0.0
C468 C 0.58622 0.58087 0.70202 0.0
C469 C 0.61536 0.63763 0.69331 0.0
H470 H 0.55352 0.52413 0.73615 0.0
H471 H 0.57106 0.54516 0.68619 0.0
S472 S 0.67405 0.76933 0.7419 0.0
N473 N 0.64498 0.71623 0.76371 0.0
N474 N 0.66304 0.73878 0.70922 0.0
C475 C 0.63411 0.68233 0.71492 0.0
C476 C 0.62453 0.67004 0.74467 0.0
C477 C 0.68358 0.13361 0.60344 0.0
C478 C 0.68503 0.18155 0.59174 0.0
C479 C 0.72111 0.14069 0.62671 0.0
C480 C 0.76125 0.19586 0.63875 0.0
H481 H 0.65578 0.09085 0.59362 0.0
H482 H 0.72032 0.10308 0.6346 0.0
S483 S 0.77526 0.33392 0.6189 0.0
N484 N 0.7248 0.2851 0.59617 0.0
N485 N 0.79508 0.29817 0.63969 0.0
C486 C 0.76027 0.24353 0.62844 0.0
C487 C 0.72207 0.23639 0.60503 0.0
C488 C 0.59812 0.44955 0.91382 0.0
C489 C 0.58117 0.49145 0.91498 0.0
C490 C 0.60149 0.42324 0.93832 0.0
C491 C 0.58824 0.43766 0.96516 0.0
H492 H 0.60861 0.43638 0.89369 0.0
H493 H 0.61425 0.39097 0.93617 0.0
S494 S 0.54241 0.54506 0.98024 0.0
N495 N 0.55214 0.54697 0.94547 0.0
N496 N 0.55796 0.49696 0.9917 0.0
C497 C 0.57257 0.48044 0.96692 0.0
C498 C 0.5692 0.50747 0.94181 0.0
C499 C 0.20946 0.65457 0.26633 0.0
C500 C 0.15263 0.62316 0.25442 0.0
C501 C 0.22412 0.64219 0.29287 0.0
C502 C 0.18273 0.59708 0.30829 0.0
H503 H 0.2434 0.68764 0.2545 0.0
H504 H 0.2687 0.66713 0.30098 0.0
S505 S 1.02712 0.50309 0.28648 0.0
N506 N 1.05399 0.54728 0.26037 0.0
N507 N 1.08165 0.52197 0.30988 0.0
C508 C 0.12501 0.56684 0.2971 0.0
C509 C 1.10994 0.58039 0.27023 0.0
loop_
_geom_bond_atom_site_label_1
_geom_bond_atom_site_label_2
_geom_bond_distance
_geom_bond_site_symmetry_2
_ccdc_geom_bond_type
Tb0 C9 2.764 1_455 S
Tb0 O10 2.325 1_455 S
Tb0 O13 2.303 . S
Tb0 O17 2.322 . S
Tb0 O18 2.349 . S
Tb0 O21 2.415 1_455 S
Tb0 O22 2.399 1_455 S
Tb1 O11 2.322 1_455 S
Tb1 O12 2.349 . S
Tb1 O14 2.415 . S
Tb1 O15 2.399 . S
Tb1 O16 2.325 . S
Tb1 O19 2.303 . S
Tb1 C30 2.764 . S
C2 O18 1.261 . S
C2 O19 1.257 . S
C3 C6 1.358 . S
C3 C7 1.332 . S
C3 C9 1.504 . S
C4 C5 1.373 . S
C4 C8 1.308 . S
C5 C4 1.373 . S
C5 C6 1.429 . S
C5 H32 0.932 . S
C6 C3 1.358 . S
C6 C5 1.429 . S
C6 H33 0.930 . S
C7 C3 1.332 . S
C7 C8 1.394 . S
C7 H34 0.932 . S
C8 C4 1.308 . S
C8 C7 1.394 . S
C8 H35 0.929 . S
C9 Tb0 2.764 1_655 S
C9 C3 1.504 . S
C9 O21 1.239 . S
C9 O22 1.263 . S
O10 Tb0 2.325 1_655 S
O10 C20 1.236 . S
O11 Tb1 2.322 1_655 S
O11 C20 1.257 . S
O12 Tb1 2.349 . S
O12 C23 1.261 . S
O13 Tb0 2.303 . S
O13 C23 1.257 . S
O14 Tb1 2.415 . S
O14 C30 1.239 . S
O15 Tb1 2.399 . S
O15 C30 1.263 . S
O16 Tb1 2.325 . S
O16 C31 1.236 . S
O17 Tb0 2.322 . S
O17 C31 1.257 . S
O18 Tb0 2.349 . S
O18 C2 1.261 . S
O19 Tb1 2.303 . S
O19 C2 1.257 . S
C20 O10 1.236 . S
C20 O11 1.257 . S
O21 Tb0 2.415 1_655 S
O21 C9 1.239 . S
O22 Tb0 2.399 1_655 S
O22 C9 1.263 . S
C23 O12 1.261 . S
C23 O13 1.257 . S
C24 C27 1.358 . S
C24 C28 1.332 . S
C24 C30 1.504 . S
C25 C26 1.373 . S
C25 C29 1.308 . S
C26 C25 1.373 . S
C26 C27 1.429 . S
C26 H36 0.932 . S
C27 C24 1.358 . S
C27 C26 1.429 . S
C27 H37 0.930 . S
C28 C24 1.332 . S
C28 C29 1.394 . S
C28 H38 0.932 . S
C29 C25 1.308 . S
C29 C28 1.394 . S
C29 H39 0.929 . S
C30 Tb1 2.764 . S
C30 O14 1.239 . S
C30 O15 1.263 . S
C30 C24 1.504 . S
C31 O16 1.236 . S
C31 O17 1.257 . S
H32 C5 0.932 . S
H33 C6 0.930 . S
H34 C7 0.932 . S
H35 C8 0.929 . S
H36 C26 0.932 . S
H37 C27 0.930 . S
H38 C28 0.932 . S
H39 C29 0.929 . S
Tb40 C49 2.764 . S
Tb40 O50 2.325 . S
Tb40 O53 2.303 1_565 S
Tb40 O57 2.322 1_565 S
Tb40 O58 2.349 1_565 S
Tb40 O61 2.415 . S
Tb40 O62 2.399 . S
Tb41 O51 2.322 1_545 S
Tb41 O52 2.349 . S
Tb41 O54 2.415 . S
Tb41 O55 2.399 . S
Tb41 O56 2.325 . S
Tb41 O59 2.303 . S
Tb41 C70 2.764 . S
C42 O58 1.261 . S
C42 O59 1.257 . S
C43 C46 1.358 . S
C43 C47 1.332 . S
C43 C49 1.504 . S
C44 C45 1.373 . S
C44 C48 1.308 . S
C45 C44 1.373 . S
C45 C46 1.429 . S
C45 H72 0.932 . S
C46 C43 1.358 . S
C46 C45 1.429 . S
C46 H73 0.930 . S
C47 C43 1.332 . S
C47 C48 1.394 . S
C47 H74 0.932 . S
C48 C44 1.308 . S
C48 C47 1.394 . S
C48 H75 0.929 . S
C49 Tb40 2.764 . S
C49 C43 1.504 . S
C49 O61 1.239 . S
C49 O62 1.263 . S
O50 Tb40 2.325 . S
O50 C60 1.236 . S
O51 Tb41 2.322 1_565 S
O51 C60 1.257 . S
O52 Tb41 2.349 . S
O52 C63 1.261 . S
O53 Tb40 2.303 1_545 S
O53 C63 1.257 . S
O54 Tb41 2.415 . S
O54 C70 1.239 . S
O55 Tb41 2.399 . S
O55 C70 1.263 . S
O56 Tb41 2.325 . S
O56 C71 1.236 . S
O57 Tb40 2.322 1_545 S
O57 C71 1.257 . S
O58 Tb40 2.349 1_545 S
O58 C42 1.261 . S
O59 Tb41 2.303 . S
O59 C42 1.257 . S
C60 O50 1.236 . S
C60 O51 1.257 . S
O61 Tb40 2.415 . S
O61 C49 1.239 . S
O62 Tb40 2.399 . S
O62 C49 1.263 . S
C63 O52 1.261 . S
C63 O53 1.257 . S
C64 C67 1.358 . S
C64 C68 1.332 . S
C64 C70 1.504 . S
C65 C66 1.373 . S
C65 C69 1.308 . S
C66 C65 1.373 . S
C66 C67 1.429 . S
C66 H76 0.932 . S
C67 C64 1.358 . S
C67 C66 1.429 . S
C67 H77 0.930 . S
C68 C64 1.332 . S
C68 C69 1.394 . S
C68 H78 0.932 . S
C69 C65 1.308 . S
C69 C68 1.394 . S
C69 H79 0.929 . S
C70 Tb41 2.764 . S
C70 O54 1.239 . S
C70 O55 1.263 . S
C70 C64 1.504 . S
C71 O56 1.236 . S
C71 O57 1.257 . S
H72 C45 0.932 . S
H73 C46 0.930 . S
H74 C47 0.932 . S
H75 C48 0.929 . S
H76 C66 0.932 . S
H77 C67 0.930 . S
H78 C68 0.932 . S
H79 C69 0.929 . S
Tb80 C89 2.764 . S
Tb80 O90 2.325 . S
Tb80 O93 2.303 . S
Tb80 O97 2.322 . S
Tb80 O98 2.349 . S
Tb80 O101 2.415 . S
Tb80 O102 2.399 . S
Tb81 O91 2.322 . S
Tb81 O92 2.349 . S
Tb81 O94 2.415 . S
Tb81 O95 2.399 . S
Tb81 O96 2.325 . S
Tb81 O99 2.303 . S
Tb81 C110 2.764 . S
C82 O98 1.261 . S
C82 O99 1.257 . S
C83 C86 1.358 . S
C83 C87 1.332 . S
C83 C89 1.504 . S
C84 C85 1.373 . S
C84 C88 1.308 . S
C85 C84 1.373 . S
C85 C86 1.429 . S
C85 H112 0.932 . S
C86 C83 1.358 . S
C86 C85 1.429 . S
C86 H113 0.930 . S
C87 C83 1.332 . S
C87 C88 1.394 . S
C87 H114 0.932 . S
C88 C84 1.308 . S
C88 C87 1.394 . S
C88 H115 0.929 . S
C89 Tb80 2.764 . S
C89 C83 1.504 . S
C89 O101 1.239 . S
C89 O102 1.263 . S
O90 Tb80 2.325 . S
O90 C100 1.236 . S
O91 Tb81 2.322 . S
O91 C100 1.257 . S
O92 Tb81 2.349 . S
O92 C103 1.261 . S
O93 Tb80 2.303 . S
O93 C103 1.257 . S
O94 Tb81 2.415 . S
O94 C110 1.239 . S
O95 Tb81 2.399 . S
O95 C110 1.263 . S
O96 Tb81 2.325 . S
O96 C111 1.236 . S
O97 Tb80 2.322 . S
O97 C111 1.257 . S
O98 Tb80 2.349 . S
O98 C82 1.261 . S
O99 Tb81 2.303 . S
O99 C82 1.257 . S
C100 O90 1.236 . S
C100 O91 1.257 . S
O101 Tb80 2.415 . S
O101 C89 1.239 . S
O102 Tb80 2.399 . S
O102 C89 1.263 . S
C103 O92 1.261 . S
C103 O93 1.257 . S
C104 C107 1.358 . S
C104 C108 1.332 . S
C104 C110 1.504 . S
C105 C106 1.373 . S
C105 C109 1.308 . S
C106 C105 1.373 . S
C106 C107 1.429 . S
C106 H116 0.932 . S
C107 C104 1.358 . S
C107 C106 1.429 . S
C107 H117 0.930 . S
C108 C104 1.332 . S
C108 C109 1.394 . S
C108 H118 0.932 . S
C109 C105 1.308 . S
C109 C108 1.394 . S
C109 H119 0.929 . S
C110 Tb81 2.764 . S
C110 O94 1.239 . S
C110 O95 1.263 . S
C110 C104 1.504 . S
C111 O96 1.236 . S
C111 O97 1.257 . S
H112 C85 0.932 . S
H113 C86 0.930 . S
H114 C87 0.932 . S
H115 C88 0.929 . S
H116 C106 0.932 . S
H117 C107 0.930 . S
H118 C108 0.932 . S
H119 C109 0.929 . S
P120 O131 1.498 . S
P120 C134 1.812 . S
P120 C140 1.796 1_565 S
P120 C146 1.816 1_565 S
H121 C135 0.941 . S
H122 C136 0.939 . S
H123 C138 0.940 . S
H124 C139 0.940 . S
H125 C141 0.939 . S
H126 C142 0.942 . S
H127 C144 0.940 . S
H128 C145 0.939 . S
H129 C147 0.941 . S
H130 C151 0.939 . S
O131 P120 1.498 . S
H132 C148 0.939 . S
H133 C150 0.940 . S
C134 P120 1.812 . S
C134 C135 1.389 . S
C134 C139 1.391 . S
C135 H121 0.941 . S
C135 C134 1.389 . S
C135 C136 1.397 . S
C136 H122 0.939 . S
C136 C135 1.397 . S
C136 C137 1.378 . S
C137 C136 1.378 . S
C137 C138 1.378 . S
C138 H123 0.940 . S
C138 C137 1.378 . S
C138 C139 1.396 . S
C139 H124 0.940 . S
C139 C134 1.391 . S
C139 C138 1.396 . S
C140 P120 1.796 1_545 S
C140 C141 1.378 . S
C140 C145 1.400 . S
C141 H125 0.939 . S
C141 C140 1.378 . S
C141 C142 1.361 . S
C142 H126 0.942 . S
C142 C141 1.361 . S
C142 C143 1.369 . S
C143 C142 1.369 . S
C143 C144 1.404 . S
C144 H127 0.940 . S
C144 C143 1.404 . S
C144 C145 1.389 . S
C145 H128 0.939 . S
C145 C140 1.400 . S
C145 C144 1.389 . S
C146 P120 1.816 1_545 S
C146 C147 1.391 1_545 S
C146 C151 1.391 . S
C147 H129 0.941 . S
C147 C146 1.391 1_565 S
C147 C148 1.396 . S
C148 H132 0.939 . S
C148 C147 1.396 . S
C148 C149 1.397 1_565 S
C149 C148 1.397 1_545 S
C149 C150 1.385 . S
C150 H133 0.940 . S
C150 C149 1.385 . S
C150 C151 1.388 . S
C151 H130 0.939 . S
C151 C146 1.391 . S
C151 C150 1.388 . S
P152 O163 1.490 . S
P152 C166 1.812 . S
P152 C172 1.803 . S
P152 C178 1.819 . S
H153 C167 0.941 . S
H154 C168 0.939 . S
H155 C170 0.940 . S
H156 C171 0.940 . S
H157 C173 0.939 . S
H158 C174 0.942 . S
H159 C176 0.940 . S
H160 C177 0.939 . S
H161 C179 0.941 . S
H162 C183 0.939 . S
O163 P152 1.490 . S
H164 C180 0.939 . S
H165 C182 0.940 . S
C166 P152 1.812 . S
C166 C167 1.389 . S
C166 C171 1.391 . S
C167 H153 0.941 . S
C167 C166 1.389 . S
C167 C168 1.397 . S
C168 H154 0.939 . S
C168 C167 1.397 . S
C168 C169 1.378 . S
C169 C168 1.378 . S
C169 C170 1.378 . S
C170 H155 0.940 . S
C170 C169 1.378 . S
C170 C171 1.396 . S
C171 H156 0.940 . S
C171 C166 1.391 . S
C171 C170 1.396 . S
C172 P152 1.803 . S
C172 C173 1.378 . S
C172 C177 1.400 . S
C173 H157 0.939 . S
C173 C172 1.378 . S
C173 C174 1.361 . S
C174 H158 0.942 . S
C174 C173 1.361 . S
C174 C175 1.369 . S
C175 C174 1.369 . S
C175 C176 1.404 . S
C176 H159 0.940 . S
C176 C175 1.404 . S
C176 C177 1.389 . S
C177 H160 0.939 . S
C177 C172 1.400 . S
C177 C176 1.389 . S
C178 P152 1.819 . S
C178 C179 1.391 . S
C178 C183 1.391 . S
C179 H161 0.941 . S
C179 C178 1.391 . S
C179 C180 1.396 . S
C180 H164 0.939 . S
C180 C179 1.396 . S
C180 C181 1.397 . S
C181 C180 1.397 . S
C181 C182 1.385 . S
C182 H165 0.940 . S
C182 C181 1.385 . S
C182 C183 1.388 . S
C183 H162 0.939 . S
C183 C178 1.391 . S
C183 C182 1.388 . S
P184 O195 1.490 . S
P184 C198 1.812 . S
P184 C204 1.803 . S
P184 C210 1.819 . S
H185 C199 0.941 . S
H186 C200 0.939 . S
H187 C202 0.940 . S
H188 C203 0.940 . S
H189 C205 0.939 . S
H190 C206 0.942 . S
H191 C208 0.940 . S
H192 C209 0.939 . S
H193 C211 0.941 . S
H194 C215 0.939 . S
O195 P184 1.490 . S
H196 C212 0.939 . S
H197 C214 0.940 1_655 S
C198 P184 1.812 . S
C198 C199 1.389 . S
C198 C203 1.391 . S
C199 H185 0.941 . S
C199 C198 1.389 . S
C199 C200 1.397 . S
C200 H186 0.939 . S
C200 C199 1.397 . S
C200 C201 1.378 . S
C201 C200 1.378 . S
C201 C202 1.378 . S
C202 H187 0.940 . S
C202 C201 1.378 . S
C202 C203 1.396 . S
C203 H188 0.940 . S
C203 C198 1.391 . S
C203 C202 1.396 . S
C204 P184 1.803 . S
C204 C205 1.378 . S
C204 C209 1.400 . S
C205 H189 0.939 . S
C205 C204 1.378 . S
C205 C206 1.361 1_455 S
C206 H190 0.942 . S
C206 C205 1.361 1_655 S
C206 C207 1.369 . S
C207 C206 1.369 . S
C207 C208 1.404 . S
C208 H191 0.940 . S
C208 C207 1.404 . S
C208 C209 1.389 1_655 S
C209 H192 0.939 . S
C209 C204 1.400 . S
C209 C208 1.389 1_455 S
C210 P184 1.819 . S
C210 C211 1.391 . S
C210 C215 1.391 . S
C211 H193 0.941 . S
C211 C210 1.391 . S
C211 C212 1.396 . S
C212 H196 0.939 . S
C212 C211 1.396 . S
C212 C213 1.397 . S
C213 C212 1.397 . S
C213 C214 1.385 . S
C214 H197 0.940 1_455 S
C214 C213 1.385 . S
C214 C215 1.388 . S
C215 H194 0.939 . S
C215 C210 1.391 . S
C215 C214 1.388 . S
P216 O227 1.490 . S
P216 C230 1.812 . S
P216 C236 1.803 1_455 S
P216 C242 1.819 . S
H217 C231 0.941 . S
H218 C232 0.939 . S
H219 C234 0.940 . S
H220 C235 0.940 . S
H221 C237 0.939 . S
H222 C238 0.942 . S
H223 C240 0.940 . S
H224 C241 0.939 . S
H225 C243 0.941 . S
H226 C247 0.939 . S
O227 P216 1.490 . S
H228 C244 0.939 . S
H229 C246 0.940 . S
C230 P216 1.812 . S
C230 C231 1.389 . S
C230 C235 1.391 . S
C231 H217 0.941 . S
C231 C230 1.389 . S
C231 C232 1.397 . S
C232 H218 0.939 . S
C232 C231 1.397 . S
C232 C233 1.378 . S
C233 C232 1.378 . S
C233 C234 1.378 . S
C234 H219 0.940 . S
C234 C233 1.378 . S
C234 C235 1.396 . S
C235 H220 0.940 . S
C235 C230 1.391 . S
C235 C234 1.396 . S
C236 P216 1.803 1_655 S
C236 C237 1.378 . S
C236 C241 1.400 . S
C237 H221 0.939 . S
C237 C236 1.378 . S
C237 C238 1.361 . S
C238 H222 0.942 . S
C238 C237 1.361 . S
C238 C239 1.369 . S
C239 C238 1.369 . S
C239 C240 1.404 . S
C240 H223 0.940 . S
C240 C239 1.404 . S
C240 C241 1.389 . S
C241 H224 0.939 . S
C241 C236 1.400 . S
C241 C240 1.389 . S
C242 P216 1.819 . S
C242 C243 1.391 . S
C242 C247 1.391 1_455 S
C243 H225 0.941 . S
C243 C242 1.391 . S
C243 C244 1.396 . S
C244 H228 0.939 . S
C244 C243 1.396 . S
C244 C245 1.397 . S
C245 C244 1.397 . S
C245 C246 1.385 1_455 S
C246 H229 0.940 . S
C246 C245 1.385 1_655 S
C246 C247 1.388 . S
C247 H226 0.939 . S
C247 C242 1.391 1_655 S
C247 C246 1.388 . S
P248 O259 1.490 . S
P248 C262 1.812 . S
P248 C268 1.803 1_545 S
P248 C274 1.819 . S
H249 C263 0.941 . S
H250 C264 0.939 . S
H251 C266 0.940 . S
H252 C267 0.940 . S
H253 C269 0.939 . S
H254 C270 0.942 . S
H255 C272 0.940 . S
H256 C273 0.939 . S
H257 C275 0.941 . S
H258 C279 0.939 . S
O259 P248 1.490 . S
H260 C276 0.939 . S
H261 C278 0.940 . S
C262 P248 1.812 . S
C262 C263 1.389 . S
C262 C267 1.391 . S
C263 H249 0.941 . S
C263 C262 1.389 . S
C263 C264 1.397 . S
C264 H250 0.939 . S
C264 C263 1.397 . S
C264 C265 1.378 . S
C265 C264 1.378 . S
C265 C266 1.378 . S
C266 H251 0.940 . S
C266 C265 1.378 . S
C266 C267 1.396 . S
C267 H252 0.940 . S
C267 C262 1.391 . S
C267 C266 1.396 . S
C268 P248 1.803 1_565 S
C268 C269 1.378 . S
C268 C273 1.400 . S
C269 H253 0.939 . S
C269 C268 1.378 . S
C269 C270 1.361 . S
C270 H254 0.942 . S
C270 C269 1.361 . S
C270 C271 1.369 . S
C271 C270 1.369 . S
C271 C272 1.404 . S
C272 H255 0.940 . S
C272 C271 1.404 . S
C272 C273 1.389 . S
C273 H256 0.939 . S
C273 C268 1.400 . S
C273 C272 1.389 . S
C274 P248 1.819 . S
C274 C275 1.391 . S
C274 C279 1.391 1_545 S
C275 H257 0.941 . S
C275 C274 1.391 . S
C275 C276 1.396 . S
C276 H260 0.939 . S
C276 C275 1.396 . S
C276 C277 1.393 1_545 S
C277 C276 1.393 1_565 S
C277 C278 1.389 . S
C278 H261 0.940 . S
C278 C277 1.389 . S
C278 C279 1.388 . S
C279 H258 0.939 . S
C279 C274 1.391 1_565 S
C279 C278 1.388 . S
P280 O291 1.490 . S
P280 C294 1.812 . S
P280 C300 1.803 . S
P280 C306 1.819 . S
H281 C295 0.941 . S
H282 C296 0.939 . S
H283 C298 0.940 . S
H284 C299 0.940 . S
H285 C301 0.939 . S
H286 C302 0.942 . S
H287 C304 0.940 . S
H288 C305 0.939 . S
H289 C307 0.941 . S
H290 C311 0.939 . S
O291 P280 1.490 . S
H292 C308 0.939 . S
H293 C310 0.940 . S
C294 P280 1.812 . S
C294 C295 1.389 . S
C294 C299 1.391 . S
C295 H281 0.941 . S
C295 C294 1.389 . S
C295 C296 1.397 . S
C296 H282 0.939 . S
C296 C295 1.397 . S
C296 C297 1.378 . S
C297 C296 1.378 . S
C297 C298 1.378 . S
C298 H283 0.940 . S
C298 C297 1.378 . S
C298 C299 1.396 . S
C299 H284 0.940 . S
C299 C294 1.391 . S
C299 C298 1.396 . S
C300 P280 1.803 . S
C300 C301 1.378 . S
C300 C305 1.400 . S
C301 H285 0.939 . S
C301 C300 1.378 . S
C301 C302 1.361 . S
C302 H286 0.942 . S
C302 C301 1.361 . S
C302 C303 1.369 . S
C303 C302 1.369 . S
C303 C304 1.404 . S
C304 H287 0.940 . S
C304 C303 1.404 . S
C304 C305 1.389 . S
C305 H288 0.939 . S
C305 C300 1.400 . S
C305 C304 1.389 . S
C306 P280 1.819 . S
C306 C307 1.391 . S
C306 C311 1.391 . S
C307 H289 0.941 . S
C307 C306 1.391 . S
C307 C308 1.396 1_554 S
C308 H292 0.939 . S
C308 C307 1.396 1_556 S
C308 C309 1.397 . S
C309 C308 1.397 . S
C309 C310 1.385 1_556 S
C310 H293 0.940 . S
C310 C309 1.385 1_554 S
C310 C311 1.388 . S
C311 H290 0.939 . S
C311 C306 1.391 . S
C311 C310 1.388 . S
C312 C313 1.369 . S
C312 C314 1.419 . S
C312 H316 0.930 . S
C313 C312 1.369 . S
C313 C322 1.429 . S
C314 C312 1.419 . S
C314 C315 1.363 . S
C314 H317 0.929 . S
C315 C314 1.363 . S
C315 C321 1.428 . S
H316 C312 0.930 . S
H317 C314 0.929 . S
S318 N319 1.613 . S
S318 N320 1.610 . S
N319 S318 1.613 . S
N319 C322 1.350 . S
N320 S318 1.610 . S
N320 C321 1.351 . S
C321 C315 1.428 . S
C321 N320 1.351 . S
C321 C322 1.434 . S
C322 C313 1.429 . S
C322 N319 1.350 . S
C322 C321 1.434 . S
C323 C324 1.369 . S
C323 C325 1.419 . S
C323 H327 0.930 . S
C324 C323 1.369 . S
C324 C333 1.429 . S
C325 C323 1.419 . S
C325 C326 1.363 . S
C325 H328 0.929 . S
C326 C325 1.363 . S
C326 C332 1.428 . S
H327 C323 0.930 . S
H328 C325 0.929 . S
S329 N330 1.613 . S
S329 N331 1.610 . S
N330 S329 1.613 . S
N330 C333 1.350 . S
N331 S329 1.610 . S
N331 C332 1.351 . S
C332 C326 1.428 . S
C332 N331 1.351 . S
C332 C333 1.434 . S
C333 C324 1.429 . S
C333 N330 1.350 . S
C333 C332 1.434 . S
C334 C335 1.369 . S
C334 C336 1.419 . S
C334 H338 0.930 . S
C335 C334 1.369 . S
C335 C344 1.429 . S
C336 C334 1.419 . S
C336 C337 1.363 . S
C336 H339 0.929 . S
C337 C336 1.363 . S
C337 C343 1.428 . S
H338 C334 0.930 . S
H339 C336 0.929 . S
S340 N341 1.613 . S
S340 N342 1.610 . S
N341 S340 1.613 . S
N341 C344 1.350 . S
N342 S340 1.610 . S
N342 C343 1.351 . S
C343 C337 1.428 . S
C343 N342 1.351 . S
C343 C344 1.434 . S
C344 C335 1.429 . S
C344 N341 1.350 . S
C344 C343 1.434 . S
C345 C346 1.369 . S
C345 C347 1.419 . S
C345 H349 0.930 . S
C346 C345 1.369 . S
C346 C355 1.429 . S
C347 C345 1.419 . S
C347 C348 1.363 . S
C347 H350 0.929 . S
C348 C347 1.363 . S
C348 C354 1.428 . S
H349 C345 0.930 . S
H350 C347 0.929 . S
S351 N352 1.613 . S
S351 N353 1.610 . S
N352 S351 1.613 . S
N352 C355 1.350 . S
N353 S351 1.610 . S
N353 C354 1.351 . S
C354 C348 1.428 . S
C354 N353 1.351 . S
C354 C355 1.434 . S
C355 C346 1.429 . S
C355 N352 1.350 . S
C355 C354 1.434 . S
C356 C357 1.369 . S
C356 C358 1.419 . S
C356 H360 0.930 . S
C357 C356 1.369 . S
C357 C366 1.429 . S
C358 C356 1.419 . S
C358 C359 1.363 . S
C358 H361 0.929 . S
C359 C358 1.363 . S
C359 C365 1.428 . S
H360 C356 0.930 . S
H361 C358 0.929 . S
S362 N363 1.613 . S
S362 N364 1.610 . S
N363 S362 1.613 . S
N363 C366 1.350 . S
N364 S362 1.610 . S
N364 C365 1.351 . S
C365 C359 1.428 . S
C365 N364 1.351 . S
C365 C366 1.434 . S
C366 C357 1.429 . S
C366 N363 1.350 . S
C366 C365 1.434 . S
C367 C368 1.369 . S
C367 C369 1.419 . S
C367 H371 0.930 . S
C368 C367 1.369 . S
C368 C377 1.429 . S
C369 C367 1.419 . S
C369 C370 1.363 . S
C369 H372 0.929 . S
C370 C369 1.363 . S
C370 C376 1.428 . S
H371 C367 0.930 . S
H372 C369 0.929 . S
S373 N374 1.613 . S
S373 N375 1.610 . S
N374 S373 1.613 . S
N374 C377 1.350 . S
N375 S373 1.610 . S
N375 C376 1.351 . S
C376 C370 1.428 . S
C376 N375 1.351 . S
C376 C377 1.434 . S
C377 C368 1.429 . S
C377 N374 1.350 . S
C377 C376 1.434 . S
C378 C379 1.369 . S
C378 C380 1.419 . S
C378 H382 0.930 . S
C379 C378 1.369 . S
C379 C388 1.429 . S
C380 C378 1.419 . S
C380 C381 1.363 . S
C380 H383 0.929 . S
C381 C380 1.363 . S
C381 C387 1.428 . S
H382 C378 0.930 . S
H383 C380 0.929 . S
S384 N385 1.613 . S
S384 N386 1.610 . S
N385 S384 1.613 . S
N385 C388 1.350 . S
N386 S384 1.610 . S
N386 C387 1.351 . S
C387 C381 1.428 . S
C387 N386 1.351 . S
C387 C388 1.434 . S
C388 C379 1.429 . S
C388 N385 1.350 . S
C388 C387 1.434 . S
C389 C390 1.369 . S
C389 C391 1.419 . S
C389 H393 0.930 . S
C390 C389 1.369 . S
C390 C399 1.429 . S
C391 C389 1.419 . S
C391 C392 1.363 . S
C391 H394 0.929 . S
C392 C391 1.363 . S
C392 C398 1.428 . S
H393 C389 0.930 . S
H394 C391 0.929 . S
S395 N396 1.613 . S
S395 N397 1.610 . S
N396 S395 1.613 . S
N396 C399 1.350 . S
N397 S395 1.610 . S
N397 C398 1.351 . S
C398 C392 1.428 . S
C398 N397 1.351 . S
C398 C399 1.434 . S
C399 C390 1.429 . S
C399 N396 1.350 . S
C399 C398 1.434 . S
C400 C401 1.369 . S
C400 C402 1.419 . S
C400 H404 0.930 . S
C401 C400 1.369 . S
C401 C410 1.429 . S
C402 C400 1.419 . S
C402 C403 1.363 . S
C402 H405 0.929 . S
C403 C402 1.363 . S
C403 C409 1.428 . S
H404 C400 0.930 . S
H405 C402 0.929 . S
S406 N407 1.613 . S
S406 N408 1.610 . S
N407 S406 1.613 . S
N407 C410 1.350 . S
N408 S406 1.610 . S
N408 C409 1.351 . S
C409 C403 1.428 . S
C409 N408 1.351 . S
C409 C410 1.434 . S
C410 C401 1.429 . S
C410 N407 1.350 . S
C410 C409 1.434 . S
C411 C412 1.369 . S
C411 C413 1.419 . S
C411 H415 0.930 . S
C412 C411 1.369 . S
C412 C421 1.429 . S
C413 C411 1.419 . S
C413 C414 1.363 . S
C413 H416 0.929 . S
C414 C413 1.363 . S
C414 C420 1.428 . S
H415 C411 0.930 . S
H416 C413 0.929 . S
S417 N418 1.613 . S
S417 N419 1.610 . S
N418 S417 1.613 . S
N418 C421 1.350 . S
N419 S417 1.610 . S
N419 C420 1.351 . S
C420 C414 1.428 . S
C420 N419 1.351 . S
C420 C421 1.434 . S
C421 C412 1.429 . S
C421 N418 1.350 . S
C421 C420 1.434 . S
C422 C423 1.369 . S
C422 C424 1.419 . S
C422 H426 0.930 . S
C423 C422 1.369 . S
C423 C432 1.429 . S
C424 C422 1.419 . S
C424 C425 1.363 . S
C424 H427 0.929 . S
C425 C424 1.363 . S
C425 C431 1.428 . S
H426 C422 0.930 . S
H427 C424 0.929 . S
S428 N429 1.613 . S
S428 N430 1.610 . S
N429 S428 1.613 . S
N429 C432 1.350 . S
N430 S428 1.610 . S
N430 C431 1.351 . S
C431 C425 1.428 . S
C431 N430 1.351 . S
C431 C432 1.434 . S
C432 C423 1.429 . S
C432 N429 1.350 . S
C432 C431 1.434 . S
C433 C434 1.369 . S
C433 C435 1.419 . S
C433 H437 0.930 . S
C434 C433 1.369 . S
C434 C443 1.429 . S
C435 C433 1.419 . S
C435 C436 1.363 . S
C435 H438 0.929 . S
C436 C435 1.363 . S
C436 C442 1.428 . S
H437 C433 0.930 . S
H438 C435 0.929 . S
S439 N440 1.613 . S
S439 N441 1.610 . S
N440 S439 1.613 . S
N440 C443 1.350 . S
N441 S439 1.610 . S
N441 C442 1.351 . S
C442 C436 1.428 . S
C442 N441 1.351 . S
C442 C443 1.434 . S
C443 C434 1.429 . S
C443 N440 1.350 . S
C443 C442 1.434 . S
C444 C445 1.369 . S
C444 C446 1.419 . S
C444 H448 0.930 . S
C445 C444 1.369 . S
C445 C454 1.429 . S
C446 C444 1.419 . S
C446 C447 1.363 . S
C446 H449 0.929 . S
C447 C446 1.363 . S
C447 C453 1.428 . S
H448 C444 0.930 . S
H449 C446 0.929 . S
S450 N451 1.613 1_655 S
S450 N452 1.610 1_655 S
N451 S450 1.613 1_455 S
N451 C454 1.350 . S
N452 S450 1.610 1_455 S
N452 C453 1.351 . S
C453 C447 1.428 . S
C453 N452 1.351 . S
C453 C454 1.434 . S
C454 C445 1.429 . S
C454 N451 1.350 . S
C454 C453 1.434 . S
C455 C456 1.369 . S
C455 C457 1.419 . S
C455 H459 0.930 . S
C456 C455 1.369 . S
C456 C465 1.429 1_545 S
C457 C455 1.419 . S
C457 C458 1.363 . S
C457 H460 0.929 . S
C458 C457 1.363 . S
C458 C464 1.428 1_545 S
H459 C455 0.930 . S
H460 C457 0.929 . S
S461 N462 1.613 . S
S461 N463 1.610 . S
N462 S461 1.613 . S
N462 C465 1.350 . S
N463 S461 1.610 . S
N463 C464 1.351 . S
C464 C458 1.428 1_565 S
C464 N463 1.351 . S
C464 C465 1.434 . S
C465 C456 1.429 1_565 S
C465 N462 1.350 . S
C465 C464 1.434 . S
C466 C467 1.369 . S
C466 C468 1.419 . S
C466 H470 0.930 . S
C467 C466 1.369 . S
C467 C476 1.429 . S
C468 C466 1.419 . S
C468 C469 1.363 . S
C468 H471 0.929 . S
C469 C468 1.363 . S
C469 C475 1.428 . S
H470 C466 0.930 . S
H471 C468 0.929 . S
S472 N473 1.613 . S
S472 N474 1.610 . S
N473 S472 1.613 . S
N473 C476 1.350 . S
N474 S472 1.610 . S
N474 C475 1.351 . S
C475 C469 1.428 . S
C475 N474 1.351 . S
C475 C476 1.434 . S
C476 C467 1.429 . S
C476 N473 1.350 . S
C476 C475 1.434 . S
C477 C478 1.369 1_565 S
C477 C479 1.419 . S
C477 H481 0.930 . S
C478 C477 1.369 1_545 S
C478 C487 1.429 . S
C479 C477 1.419 . S
C479 C480 1.363 . S
C479 H482 0.929 . S
C480 C479 1.363 . S
C480 C486 1.428 1_565 S
H481 C477 0.930 . S
H482 C479 0.929 . S
S483 N484 1.613 . S
S483 N485 1.610 . S
N484 S483 1.613 . S
N484 C487 1.350 . S
N485 S483 1.610 . S
N485 C486 1.351 . S
C486 C480 1.428 1_545 S
C486 N485 1.351 . S
C486 C487 1.434 . S
C487 C478 1.429 . S
C487 N484 1.350 . S
C487 C486 1.434 . S
C488 C489 1.369 . S
C488 C490 1.419 . S
C488 H492 0.930 . S
C489 C488 1.369 . S
C489 C498 1.429 . S
C490 C488 1.419 . S
C490 C491 1.363 . S
C490 H493 0.929 . S
C491 C490 1.363 . S
C491 C497 1.428 . S
H492 C488 0.930 . S
H493 C490 0.929 . S
S494 N495 1.613 . S
S494 N496 1.610 . S
N495 S494 1.613 . S
N495 C498 1.350 . S
N496 S494 1.610 . S
N496 C497 1.351 . S
C497 C491 1.428 . S
C497 N496 1.351 . S
C497 C498 1.434 . S
C498 C489 1.429 . S
C498 N495 1.350 . S
C498 C497 1.434 . S
C499 C500 1.369 . S
C499 C501 1.419 1_455 S
C499 H503 0.930 . S
C500 C499 1.369 . S
C500 C509 1.429 . S
C501 C499 1.419 1_655 S
C501 C502 1.363 1_655 S
C501 H504 0.929 . S
C502 C501 1.363 1_455 S
C502 C508 1.428 . S
H503 C499 0.930 . S
H504 C501 0.929 . S
S505 N506 1.613 . S
S505 N507 1.610 . S
N506 S505 1.613 . S
N506 C509 1.350 . S
N507 S505 1.610 . S
N507 C508 1.351 . S
C508 C502 1.428 . S
C508 N507 1.351 . S
C508 C509 1.434 . S
C509 C500 1.429 . S
C509 N506 1.350 . S
C509 C508 1.434 . S
C313 C25 0.721 . S
C315 C303 0.680 . S
C324 C65 0.705 . S
C326 C239 0.662 . S
C335 C105 0.773 . S
C337 C271 0.778 . S
C346 C4 0.808 . S
C348 C297 0.823 . S
C359 C233 0.668 . S
C357 C44 0.690 . S
C370 C265 0.727 . S
C368 C84 0.712 . S
C379 C60 2.998 . S
C381 C175 2.924 . S
C390 C100 3.111 . S
C392 C207 3.027 . S
C401 C31 3.130 . S
C403 C137 3.046 . S
C414 C169 3.060 . S
C412 C71 3.132 . S
C425 C201 2.981 . S
C423 C111 3.022 . S
C434 C20 3.008 . S
C436 C143 2.932 . S
C447 C213 1.800 1_554 S
C445 C2 1.761 . S
C456 C42 1.774 . S
C458 C149 1.783 . S
C467 C82 1.769 . S
C469 C181 1.783 . S
C480 C277 0.968 . S
C478 C63 1.021 . S
C491 C309 1.097 . S
C489 C103 1.090 . S
C500 C23 0.991 . S
C502 C245 0.956 . S
