# Generated by pormake.
# Topology pto, (3,4)-cn, num edge types: 1
# Building blocks:
#     Node 0, Type 0, BuildingBlock: PAMTOO_clean_linker_0, # of connection points: 3
#     Node 1, Type 0, BuildingBlock: PAMTOO_clean_linker_0, # of connection points: 3
#     Node 2, Type 0, BuildingBlock: PAMTOO_clean_linker_0, # of connection points: 3
#     Node 3, Type 0, BuildingBlock: PAMTOO_clean_linker_0, # of connection points: 3
#     Node 4, Type 0, BuildingBlock: PAMTOO_clean_linker_0, # of connection points: 3
#     Node 5, Type 0, BuildingBlock: PAMTOO_clean_linker_0, # of connection points: 3
#     Node 6, Type 0, BuildingBlock: PAMTOO_clean_linker_0, # of connection points: 3
#     Node 7, Type 0, BuildingBlock: PAMTOO_clean_linker_0, # of connection points: 3
#     Node 8, Type 1, BuildingBlock: KOZSID_clean_sbu_0, # of connection points: 4
#     Node 9, Type 1, BuildingBlock: KOZSID_clean_sbu_0, # of connection points: 4
#     Node 10, Type 1, BuildingBlock: KOZSID_clean_sbu_0, # of connection points: 4
#     Node 11, Type 1, BuildingBlock: KOZSID_clean_sbu_0, # of connection points: 4
#     Node 12, Type 1, BuildingBlock: KOZSID_clean_sbu_0, # of connection points: 4
#     Node 13, Type 1, BuildingBlock: KOZSID_clean_sbu_0, # of connection points: 4
#     Edge 14, Type (0, 1), BuildingBlock: ZUJKAS_clean_linker_0, # of connection points: 2
#     Edge 15, Type (0, 1), BuildingBlock: ZUJKAS_clean_linker_0, # of connection points: 2
#     Edge 16, Type (0, 1), BuildingBlock: ZUJKAS_clean_linker_0, # of connection points: 2
#     Edge 17, Type (0, 1), BuildingBlock: ZUJKAS_clean_linker_0, # of connection points: 2
#     Edge 18, Type (0, 1), BuildingBlock: ZUJKAS_clean_linker_0, # of connection points: 2
#     Edge 19, Type (0, 1), BuildingBlock: ZUJKAS_clean_linker_0, # of connection points: 2
#     Edge 20, Type (0, 1), BuildingBlock: ZUJKAS_clean_linker_0, # of connection points: 2
#     Edge 21, Type (0, 1), BuildingBlock: ZUJKAS_clean_linker_0, # of connection points: 2
#     Edge 22, Type (0, 1), BuildingBlock: ZUJKAS_clean_linker_0, # of connection points: 2
#     Edge 23, Type (0, 1), BuildingBlock: ZUJKAS_clean_linker_0, # of connection points: 2
#     Edge 24, Type (0, 1), BuildingBlock: ZUJKAS_clean_linker_0, # of connection points: 2
#     Edge 25, Type (0, 1), BuildingBlock: ZUJKAS_clean_linker_0, # of connection points: 2
#     Edge 26, Type (0, 1), BuildingBlock: ZUJKAS_clean_linker_0, # of connection points: 2
#     Edge 27, Type (0, 1), BuildingBlock: ZUJKAS_clean_linker_0, # of connection points: 2
#     Edge 28, Type (0, 1), BuildingBlock: ZUJKAS_clean_linker_0, # of connection points: 2
#     Edge 29, Type (0, 1), BuildingBlock: ZUJKAS_clean_linker_0, # of connection points: 2
#     Edge 30, Type (0, 1), BuildingBlock: ZUJKAS_clean_linker_0, # of connection points: 2
#     Edge 31, Type (0, 1), BuildingBlock: ZUJKAS_clean_linker_0, # of connection points: 2
#     Edge 32, Type (0, 1), BuildingBlock: ZUJKAS_clean_linker_0, # of connection points: 2
#     Edge 33, Type (0, 1), BuildingBlock: ZUJKAS_clean_linker_0, # of connection points: 2
#     Edge 34, Type (0, 1), BuildingBlock: ZUJKAS_clean_linker_0, # of connection points: 2
#     Edge 35, Type (0, 1), BuildingBlock: ZUJKAS_clean_linker_0, # of connection points: 2
#     Edge 36, Type (0, 1), BuildingBlock: ZUJKAS_clean_linker_0, # of connection points: 2
#     Edge 37, Type (0, 1), BuildingBlock: ZUJKAS_clean_linker_0, # of connection points: 2
# Relax obj value: 0.024
# Max RMSD: 0.170
# Mean RMSD: 0.076
data_MOF--net-pto--node1-KOZSID_clean_sbu_0--node2-PAMTOO_clean_linker_0--edge1-ZUJKAS_clean_linker_0
_symmetry_space_group_name_H-M    P1
_symmetry_Int_Tables_number       1
_symmetry_cell_setting            triclinic
loop_
_symmetry_equiv_pos_as_xyz
'x, y, z'
_cell_length_a     49.693621
_cell_length_b     63.751265
_cell_length_c     57.902541
_cell_angle_alpha  82.539266
_cell_angle_beta   81.11012
_cell_angle_gamma 102.32805
loop_
_atom_site_label
_atom_site_type_symbol
_atom_site_fract_x
_atom_site_fract_y
_atom_site_fract_z
_atom_type_partial_charge
H0 H 0.21539 0.29172 0.37398 0.0
H1 H 0.26884 0.26588 0.32492 0.0
H2 H 0.24945 0.3267 0.30299 0.0
H3 H 0.25127 0.30013 0.26633 0.0
C4 C 0.26605 0.29046 0.27192 0.0
O5 O 0.27715 0.29839 0.29034 0.0
H6 H 0.25404 0.27321 0.27778 0.0
C7 C 0.2278 0.29293 0.35653 0.0
C8 C 0.23043 0.31124 0.33915 0.0
C9 C 0.24158 0.2764 0.35173 0.0
C10 C 0.25836 0.27851 0.32926 0.0
C11 C 0.26121 0.29668 0.31192 0.0
C12 C 0.24739 0.31298 0.31684 0.0
H13 H 0.23589 0.80482 0.74424 0.0
H14 H 0.27567 0.77303 0.79475 0.0
H15 H 0.29055 0.84262 0.78266 0.0
H16 H 0.34058 0.82527 0.78456 0.0
C17 C 0.3312 0.81025 0.79795 0.0
O18 O 0.30311 0.80909 0.8055 0.0
H19 H 0.3337 0.79589 0.78951 0.0
C20 C 0.24938 0.80575 0.75728 0.0
C21 C 0.26233 0.82619 0.76207 0.0
C22 C 0.25389 0.78645 0.76904 0.0
C23 C 0.2716 0.7877 0.78574 0.0
C24 C 0.28506 0.80797 0.79026 0.0
C25 C 0.28025 0.8271 0.77867 0.0
H26 H 0.72827 0.7953 0.31166 0.0
H27 H 0.75643 0.73779 0.29843 0.0
H28 H 0.77729 0.76796 0.35729 0.0
H29 H 0.82313 0.75469 0.32977 0.0
C30 C 0.81114 0.73998 0.32417 0.0
O31 O 0.78307 0.73644 0.33382 0.0
H32 H 0.81423 0.74296 0.30446 0.0
C33 C 0.73926 0.7829 0.31645 0.0
C34 C 0.75227 0.78359 0.33633 0.0
C35 C 0.74059 0.76649 0.30256 0.0
C36 C 0.75513 0.75063 0.30881 0.0
C37 C 0.76828 0.75127 0.32848 0.0
C38 C 0.76666 0.76755 0.3423 0.0
H39 H 0.77749 0.31035 0.76097 0.0
H40 H 0.73467 0.24581 0.75422 0.0
H41 H 0.8021 0.28324 0.69901 0.0
H42 H 0.75209 0.26058 0.68349 0.0
C43 C 0.7461 0.24534 0.69683 0.0
O44 O 0.76432 0.24631 0.71259 0.0
H45 H 0.72442 0.24391 0.70646 0.0
C46 C 0.77461 0.29709 0.75092 0.0
C47 C 0.79209 0.29925 0.72883 0.0
C48 C 0.75382 0.27793 0.76038 0.0
C49 C 0.75087 0.26061 0.7475 0.0
C50 C 0.76818 0.26263 0.72537 0.0
C51 C 0.78898 0.2818 0.7162 0.0
H52 H 0.75099 0.80694 0.76371 0.0
H53 H 0.78839 0.75371 0.78282 0.0
H54 H 0.81138 0.79009 0.71208 0.0
H55 H 0.80284 0.74288 0.71481 0.0
C56 C 0.80913 0.73853 0.73211 0.0
O57 O 0.81883 0.75738 0.74072 0.0
H58 H 0.79042 0.72808 0.74467 0.0
C59 C 0.76492 0.79658 0.75892 0.0
C60 C 0.7807 0.80057 0.73582 0.0
C61 C 0.76758 0.77983 0.7761 0.0
C62 C 0.78629 0.7669 0.76992 0.0
C63 C 0.80181 0.7705 0.74681 0.0
C64 C 0.7993 0.78747 0.7299 0.0
H65 H 0.78719 0.26664 0.33844 0.0
H66 H 0.72978 0.2387 0.29574 0.0
H67 H 0.77401 0.30582 0.27672 0.0
H68 H 0.71571 0.2973 0.27221 0.0
C69 C 0.71284 0.28081 0.26716 0.0
O70 O 0.73786 0.27451 0.26529 0.0
H71 H 0.69678 0.26932 0.28135 0.0
C72 C 0.77665 0.26831 0.32349 0.0
C73 C 0.78279 0.28851 0.30837 0.0
C74 C 0.75761 0.25014 0.31921 0.0
C75 C 0.74485 0.25235 0.29927 0.0
C76 C 0.75084 0.27239 0.28404 0.0
C77 C 0.7699 0.29035 0.28848 0.0
H78 H 0.2256 0.29191 0.69983 0.0
H79 H 0.25576 0.31981 0.75769 0.0
H80 H 0.26981 0.25813 0.74493 0.0
H81 H 0.25323 0.26066 0.79512 0.0
C82 C 0.26224 0.27831 0.79458 0.0
O83 O 0.27697 0.28762 0.7721 0.0
H84 H 0.24451 0.28605 0.79929 0.0
C85 C 0.2365 0.2911 0.71462 0.0
C86 C 0.24717 0.27276 0.72068 0.0
C87 C 0.23963 0.30834 0.7277 0.0
C88 C 0.25358 0.30701 0.74701 0.0
C89 C 0.2641 0.28885 0.75323 0.0
C90 C 0.26112 0.27191 0.74003 0.0
H91 H 0.22271 0.78163 0.38851 0.0
H92 H 0.27285 0.76509 0.32895 0.0
H93 H 0.29055 0.83026 0.34299 0.0
H94 H 0.29597 0.82955 0.29251 0.0
C95 C 0.29763 0.81241 0.29257 0.0
O96 O 0.30355 0.80442 0.31405 0.0
H97 H 0.27717 0.80276 0.28993 0.0
C98 C 0.24017 0.78612 0.37365 0.0
C99 C 0.25604 0.80785 0.36778 0.0
C100 C 0.24586 0.77042 0.35975 0.0
C101 C 0.26784 0.77677 0.33992 0.0
C102 C 0.28351 0.79832 0.33385 0.0
C103 C 0.27789 0.8137 0.34786 0.0
C104 C 0.04771 0.54343 0.40675 0.0
C105 C 0.0493 0.54529 0.43017 0.0
C106 C 0.02483 0.53262 0.44383 0.0
C107 C 0.00979 0.52358 0.42811 0.0
N108 N 0.02345 0.52949 0.40542 0.0
Co109 Co 0.00929 0.51981 0.37732 0.0
N110 N 0.97955 0.49566 0.39748 0.0
C111 C 0.97021 0.49378 0.42092 0.0
C112 C 0.94991 0.47502 0.43009 0.0
C113 C 0.94619 0.46449 0.41122 0.0
C114 C 0.96439 0.47755 0.3915 0.0
N115 N 0.99512 0.51007 0.34932 0.0
C116 C 0.97869 0.49076 0.34739 0.0
C117 C 0.97332 0.49084 0.32455 0.0
C118 C 0.98692 0.51097 0.31181 0.0
C119 C 0.99972 0.52201 0.32754 0.0
N120 N 0.03877 0.54406 0.357 0.0
C121 C 0.03893 0.55226 0.33429 0.0
C122 C 0.06115 0.56961 0.32486 0.0
C123 C 0.0757 0.5728 0.34282 0.0
C124 C 0.06149 0.5571 0.36236 0.0
N125 N 0.03495 0.50055 0.3752 0.0
C126 C 0.06993 0.47161 0.37159 0.0
C127 C 0.06829 0.48587 0.35159 0.0
C128 C 0.05065 0.50014 0.35376 0.0
C129 C 0.05399 0.47238 0.3935 0.0
C130 C 0.03676 0.48701 0.39494 0.0
N131 N 0.98358 0.53912 0.37931 0.0
C132 C 0.93915 0.54666 0.37449 0.0
C133 C 0.94889 0.56834 0.37724 0.0
C134 C 0.97585 0.57471 0.38224 0.0
C135 C 0.9928 0.55993 0.38316 0.0
C136 C 0.95677 0.5323 0.37569 0.0
H137 H 0.01364 0.56561 0.38638 0.0
H138 H 0.94894 0.51586 0.37297 0.0
H139 H 0.04943 0.51064 0.338 0.0
H140 H 0.02469 0.4872 0.41201 0.0
C141 C 0.98468 0.50751 0.4342 0.0
C142 C 0.06789 0.55722 0.38633 0.0
C143 C 0.96593 0.47289 0.36723 0.0
C144 C 0.01976 0.54182 0.32168 0.0
H145 H 0.06608 0.55523 0.43666 0.0
H146 H 0.01897 0.52998 0.46296 0.0
H147 H 0.94004 0.46913 0.44848 0.0
H148 H 0.93188 0.44892 0.41199 0.0
H149 H 0.96069 0.4778 0.31784 0.0
H150 H 0.98815 0.51657 0.29312 0.0
H151 H 0.06632 0.57874 0.307 0.0
H152 H 0.09412 0.58574 0.34175 0.0
H153 H 0.08001 0.48566 0.33426 0.0
H154 H 0.05489 0.46181 0.40946 0.0
H155 H 0.91849 0.541 0.37054 0.0
H156 H 0.98405 0.59114 0.38506 0.0
C157 C 0.08677 0.56744 0.7406 0.0
C158 C 0.09019 0.56898 0.76372 0.0
C159 C 0.06991 0.55267 0.7781 0.0
C160 C 0.05544 0.54208 0.76301 0.0
N161 N 0.06554 0.55039 0.73979 0.0
Co162 Co 0.0505 0.54033 0.71184 0.0
N163 N 0.01916 0.51751 0.73309 0.0
C164 C 0.01409 0.51324 0.75709 0.0
C165 C 0.99151 0.49622 0.7667 0.0
C166 C 0.9817 0.48899 0.74772 0.0
C167 C 0.99893 0.50212 0.72755 0.0
N168 N 0.03531 0.53036 0.68389 0.0
C169 C 0.01356 0.51371 0.68307 0.0
C170 C 0.0103 0.51207 0.65995 0.0
C171 C 0.03099 0.52811 0.64558 0.0
C172 C 0.04557 0.53859 0.66069 0.0
N173 N 0.08195 0.56309 0.69063 0.0
C174 C 0.08743 0.56697 0.66663 0.0
C175 C 0.10964 0.58427 0.65701 0.0
C176 C 0.11871 0.59214 0.67597 0.0
C177 C 0.10151 0.57904 0.69617 0.0
N178 N 0.07421 0.51882 0.71088 0.0
C179 C 0.10437 0.486 0.70944 0.0
C180 C 0.10346 0.49954 0.6887 0.0
C181 C 0.08845 0.51574 0.68982 0.0
C182 C 0.09064 0.48966 0.73094 0.0
C183 C 0.07588 0.50597 0.73125 0.0
N184 N 0.02672 0.56173 0.71282 0.0
C185 C 0.00956 0.59073 0.69321 0.0
C186 C 0.99392 0.59282 0.71468 0.0
C187 C 0.99487 0.57892 0.73514 0.0
C188 C 0.01124 0.56369 0.73383 0.0
C189 C 0.02564 0.57521 0.69269 0.0
H190 H 0.01106 0.55371 0.75008 0.0
H191 H 0.03719 0.57453 0.67582 0.0
H192 H 0.08835 0.52532 0.67338 0.0
H193 H 0.06577 0.50766 0.74821 0.0
C194 C 0.0315 0.52499 0.77012 0.0
C195 C 0.10336 0.58316 0.72015 0.0
C196 C 0.99596 0.4987 0.70358 0.0
C197 C 0.06984 0.55535 0.65364 0.0
H198 H 0.1054 0.58098 0.76958 0.0
H199 H 0.06578 0.54927 0.79729 0.0
H200 H 0.98349 0.48957 0.78527 0.0
H201 H 0.96416 0.47532 0.74864 0.0
H202 H 0.99483 0.50027 0.6541 0.0
H203 H 0.03527 0.53143 0.62639 0.0
H204 H 0.11758 0.59092 0.63843 0.0
H205 H 0.13554 0.60634 0.67492 0.0
H206 H 0.1137 0.49735 0.67156 0.0
H207 H 0.09126 0.47999 0.74759 0.0
H208 H 0.00979 0.60125 0.67688 0.0
H209 H 0.98278 0.57958 0.75217 0.0
C210 C 0.24772 0.01268 0.58697 0.0
C211 C 0.27336 0.00837 0.59 0.0
C212 C 0.29172 0.01668 0.56899 0.0
C213 C 0.27643 0.02557 0.55432 0.0
N214 N 0.24967 0.02364 0.56489 0.0
Co215 Co 0.22045 0.03348 0.54959 0.0
N216 N 0.24902 0.05296 0.5236 0.0
C217 C 0.27575 0.05171 0.5172 0.0
C218 C 0.29061 0.06791 0.49887 0.0
C219 C 0.272 0.08003 0.49343 0.0
C220 C 0.2467 0.0704 0.50874 0.0
N221 N 0.19144 0.04333 0.5341 0.0
C222 C 0.19399 0.06157 0.51835 0.0
C223 C 0.16847 0.06255 0.51192 0.0
C224 C 0.14929 0.04418 0.52429 0.0
C225 C 0.16418 0.03307 0.53746 0.0
N226 N 0.19169 0.01395 0.57545 0.0
C227 C 0.16421 0.0071 0.57495 0.0
C228 C 0.14933 0.99363 0.59541 0.0
C229 C 0.16871 0.99163 0.60951 0.0
C230 C 0.1945 0.00391 0.59673 0.0
N231 N 0.22203 0.05719 0.56795 0.0
C232 C 0.22447 0.09202 0.59309 0.0
C233 C 0.19862 0.07903 0.59113 0.0
C234 C 0.19786 0.06169 0.57857 0.0
C235 C 0.24906 0.08706 0.58229 0.0
C236 C 0.24739 0.06965 0.56982 0.0
N237 N 0.21896 0.00973 0.53117 0.0
C238 C 0.21966 0.97243 0.52894 0.0
C239 C 0.22006 0.97617 0.50451 0.0
C240 C 0.21913 0.99697 0.49381 0.0
C241 C 0.21862 0.01351 0.50743 0.0
C242 C 0.21904 0.98933 0.5419 0.0
H243 H 0.21844 0.02946 0.49866 0.0
H244 H 0.21901 0.98589 0.5606 0.0
H245 H 0.17769 0.05199 0.57734 0.0
H246 H 0.26666 0.06639 0.5615 0.0
C247 C 0.28727 0.03819 0.5318 0.0
C248 C 0.2214 0.0035 0.60416 0.0
C249 C 0.22054 0.07744 0.50835 0.0
C250 C 0.15266 0.01589 0.55644 0.0
H251 H 0.27817 0.99959 0.60551 0.0
H252 H 0.31369 0.01655 0.56506 0.0
H253 H 0.3127 0.07126 0.49125 0.0
H254 H 0.27666 0.09438 0.47993 0.0
H255 H 0.16418 0.07522 0.49968 0.0
H256 H 0.12695 0.04005 0.52455 0.0
H257 H 0.12699 0.9865 0.5998 0.0
H258 H 0.16445 0.98183 0.62698 0.0
H259 H 0.17907 0.08207 0.59943 0.0
H260 H 0.26951 0.0968 0.58309 0.0
H261 H 0.21985 0.95652 0.53804 0.0
H262 H 0.21958 1.00063 0.47494 0.0
C263 C 0.51693 0.81556 0.07675 0.0
C264 C 0.51822 0.83649 0.08158 0.0
C265 C 0.53999 0.84998 0.06553 0.0
C266 C 0.55081 0.83659 0.05195 0.0
N267 N 0.53717 0.81533 0.05823 0.0
Co268 Co 0.54674 0.7902 0.04383 0.0
N269 N 0.57953 0.81002 0.02089 0.0
C270 C 0.58817 0.83191 0.01887 0.0
C271 C 0.611 0.8411 0.00123 0.0
C272 C 0.61728 0.8241 0.99122 0.0
C273 C 0.59783 0.80545 0.00344 0.0
N274 N 0.55639 0.76505 0.02956 0.0
C275 C 0.57696 0.76477 0.01134 0.0
C276 C 0.57634 0.74378 0.007 0.0
C277 C 0.55441 0.73029 0.0229 0.0
C278 C 0.54301 0.74374 0.03601 0.0
N279 N 0.51388 0.77038 0.0667 0.0
C280 C 0.50485 0.74855 0.06832 0.0
C281 C 0.48174 0.7394 0.08571 0.0
C282 C 0.47572 0.75634 0.09596 0.0
C283 C 0.4957 0.77491 0.08426 0.0
N284 N 0.52216 0.79415 0.02042 0.0
C285 C 0.48803 0.79953 0.98648 0.0
C286 C 0.48742 0.77887 0.99836 0.0
C287 C 0.50443 0.77658 0.01511 0.0
C288 C 0.50591 0.81749 0.99203 0.0
C289 C 0.52264 0.81445 0.00889 0.0
N290 N 0.57125 0.78625 0.06725 0.0
C291 C 0.58564 0.763 0.097 0.0
C292 C 0.60405 0.78084 0.10217 0.0
C293 C 0.60622 0.80138 0.08919 0.0
C294 C 0.58981 0.80369 0.07193 0.0
C295 C 0.56961 0.76604 0.07963 0.0
H296 H 0.59227 0.81978 0.06284 0.0
H297 H 0.55589 0.7518 0.07669 0.0
H298 H 0.50298 0.76039 0.02337 0.0
H299 H 0.53584 0.82878 0.01222 0.0
C300 C 0.57421 0.84342 0.03364 0.0
C301 C 0.49669 0.79638 0.09074 0.0
C302 C 0.59718 0.7839 0.99736 0.0
C303 C 0.51915 0.73696 0.0539 0.0
H304 H 0.50507 0.8415 0.09548 0.0
H305 H 0.54735 0.86743 0.06417 0.0
H306 H 0.62165 0.85815 0.99611 0.0
H307 H 0.6341 0.82531 0.97643 0.0
H308 H 0.59015 0.73878 0.99356 0.0
H309 H 0.54739 0.71279 0.02451 0.0
H310 H 0.47082 0.72239 0.09056 0.0
H311 H 0.45868 0.75512 0.11057 0.0
H312 H 0.47426 0.76438 0.99446 0.0
H313 H 0.5069 0.83388 0.98355 0.0
H314 H 0.58357 0.74668 0.10628 0.0
H315 H 0.62 0.81577 0.09267 0.0
C316 C 0.76874 0.98928 0.55613 0.0
C317 C 0.79516 0.98587 0.55777 0.0
C318 C 0.81247 0.99549 0.5366 0.0
C319 C 0.79583 0.00423 0.52321 0.0
N320 N 0.76917 0.00101 0.53475 0.0
Co321 Co 0.73826 0.0101 0.52119 0.0
N322 N 0.76513 0.03081 0.49495 0.0
C323 C 0.79206 0.03062 0.48745 0.0
C324 C 0.80537 0.04706 0.46885 0.0
C325 C 0.78549 0.05821 0.46435 0.0
C326 C 0.76113 0.04789 0.48055 0.0
N327 N 0.70754 0.01918 0.50739 0.0
C328 C 0.70846 0.03721 0.49183 0.0
C329 C 0.68211 0.03741 0.48678 0.0
C330 C 0.66413 0.01872 0.49965 0.0
C331 C 0.68046 0.00823 0.51179 0.0
N332 N 0.71123 0.98935 0.54738 0.0
C333 C 0.68356 0.982 0.54799 0.0
C334 C 0.67005 0.96787 0.56842 0.0
C335 C 0.69055 0.96591 0.58131 0.0
C336 C 0.71559 0.97886 0.56786 0.0
N337 N 0.73948 0.03309 0.54049 0.0
C338 C 0.74124 0.0666 0.56748 0.0
C339 C 0.71561 0.05295 0.56604 0.0
C340 C 0.71519 0.03634 0.55249 0.0
C341 C 0.76598 0.063 0.55517 0.0
C342 C 0.76464 0.04619 0.54183 0.0
N343 N 0.73711 0.98707 0.50185 0.0
C344 C 0.73889 0.95026 0.49812 0.0
C345 C 0.73798 0.95443 0.47395 0.0
C346 C 0.73598 0.9752 0.46414 0.0
C347 C 0.73558 0.99128 0.47838 0.0
C348 C 0.73843 0.96672 0.51169 0.0
H349 H 0.73439 0.0072 0.4703 0.0
H350 H 0.7394 0.96292 0.53014 0.0
H351 H 0.69516 0.02623 0.55158 0.0
H352 H 0.784 0.04384 0.53253 0.0
C353 C 0.80514 0.0175 0.50094 0.0
C354 C 0.74326 0.97847 0.57372 0.0
C355 C 0.73415 0.0537 0.48079 0.0
C356 C 0.67052 0.99073 0.53056 0.0
H357 H 0.80118 0.97675 0.5724 0.0
H358 H 0.8346 0.9962 0.53167 0.0
H359 H 0.8272 0.05104 0.46025 0.0
H360 H 0.78855 0.07227 0.45071 0.0
H361 H 0.67646 0.04979 0.47513 0.0
H362 H 0.64164 0.01393 0.50087 0.0
H363 H 0.64788 0.96022 0.57356 0.0
H364 H 0.68754 0.95564 0.59837 0.0
H365 H 0.69592 0.05529 0.575 0.0
H366 H 0.78629 0.07294 0.55599 0.0
H367 H 0.7399 0.93433 0.50657 0.0
H368 H 0.73537 0.97918 0.44549 0.0
C369 C 0.48992 0.31596 0.05166 0.0
C370 C 0.48991 0.33668 0.05662 0.0
C371 C 0.50646 0.35105 0.03763 0.0
C372 C 0.51568 0.33835 0.02224 0.0
N373 N 0.50603 0.31671 0.03029 0.0
Co374 Co 0.51453 0.29245 0.01379 0.0
N375 N 0.54005 0.31354 0.98647 0.0
C376 C 0.54383 0.33542 0.98256 0.0
C377 C 0.55729 0.345 0.96001 0.0
C378 C 0.56335 0.32827 0.94927 0.0
C379 C 0.55477 0.3096 0.96641 0.0
N380 N 0.52282 0.26833 0.9971 0.0
C381 C 0.53912 0.26944 0.97574 0.0
C382 C 0.53318 0.24974 0.96756 0.0
C383 C 0.5152 0.2351 0.98564 0.0
C384 C 0.50996 0.24696 0.00321 0.0
N385 N 0.48942 0.2712 0.04122 0.0
C386 C 0.48326 0.24919 0.04371 0.0
C387 C 0.46593 0.23893 0.0647 0.0
C388 C 0.46075 0.25533 0.07637 0.0
C389 C 0.47527 0.27476 0.06173 0.0
N390 N 0.48205 0.29297 0.99729 0.0
C391 C 0.44172 0.29266 0.96777 0.0
C392 C 0.44316 0.27356 0.98181 0.0
C393 C 0.463 0.27413 0.99652 0.0
C394 C 0.45922 0.31217 0.97027 0.0
C395 C 0.47874 0.31197 0.98523 0.0
N396 N 0.54654 0.29192 0.03013 0.0
C397 C 0.56959 0.27203 0.05605 0.0
C398 C 0.58563 0.29148 0.06041 0.0
C399 C 0.58336 0.31107 0.04774 0.0
C400 C 0.56398 0.3109 0.03263 0.0
C401 C 0.55048 0.27261 0.04075 0.0
H402 H 0.56283 0.32632 0.02361 0.0
H403 H 0.5384 0.25732 0.03832 0.0
H404 H 0.46247 0.25904 0.00691 0.0
H405 H 0.49099 0.32742 0.98645 0.0
C406 C 0.5329 0.34622 0.99997 0.0
C407 C 0.47417 0.29612 0.06775 0.0
C408 C 0.56152 0.28852 0.96384 0.0
C409 C 0.49281 0.23869 0.02544 0.0
H410 H 0.47897 0.34096 0.07233 0.0
H411 H 0.5111 0.36866 0.03526 0.0
H412 H 0.56149 0.36199 0.9521 0.0
H413 H 0.57279 0.32974 0.93083 0.0
H414 H 0.54157 0.24612 0.95054 0.0
H415 H 0.50683 0.21793 0.98587 0.0
H416 H 0.45768 0.22159 0.07065 0.0
H417 H 0.44745 0.25322 0.09358 0.0
H418 H 0.42914 0.25812 0.98139 0.0
H419 H 0.45857 0.32755 0.96019 0.0
H420 H 0.57075 0.2564 0.0652 0.0
H421 H 0.59606 0.32653 0.04983 0.0
H422 H 0.24903 0.35555 0.32581 0.0
H423 H 0.22282 0.38331 0.33259 0.0
H424 H 0.15103 0.33342 0.3705 0.0
H425 H 0.17677 0.30549 0.36339 0.0
H426 H 0.16979 0.38487 0.31823 0.0
H427 H 0.16352 0.37908 0.41562 0.0
H428 H 0.18891 0.36896 0.39712 0.0
H429 H 0.15307 0.35368 0.40534 0.0
C430 C 0.22763 0.35045 0.33552 0.0
C431 C 0.21502 0.32827 0.34408 0.0
C432 C 0.21277 0.36635 0.33949 0.0
C433 C 0.18516 0.3604 0.35228 0.0
C434 C 0.17253 0.33835 0.36097 0.0
H435 H 0.05653 0.42858 0.39167 0.0
H436 H 0.08513 0.40203 0.38686 0.0
C437 C 0.18731 0.32242 0.35693 0.0
C438 C 0.16911 0.37719 0.35564 0.0
H439 H 0.13672 0.40094 0.39787 0.0
C440 C 0.16268 0.38852 0.3356 0.0
C441 C 0.15978 0.38173 0.37836 0.0
C442 C 0.1668 0.37038 0.40037 0.0
C443 C 0.1466 0.40403 0.3377 0.0
C444 C 0.13733 0.40868 0.36043 0.0
C445 C 0.14389 0.39737 0.38047 0.0
C446 C 0.12048 0.42501 0.3638 0.0
C447 C 0.139 0.41479 0.31563 0.0
C448 C 0.13109 0.44682 0.3528 0.0
C449 C 0.11477 0.462 0.35546 0.0
C450 C 0.08767 0.4557 0.36944 0.0
C451 C 0.0774 0.43397 0.38095 0.0
C452 C 0.09367 0.41877 0.37815 0.0
H453 H 0.14102 0.40525 0.30097 0.0
H454 H 0.1172 0.41687 0.3192 0.0
H455 H 0.1534 0.43114 0.30952 0.0
H456 H 0.15201 0.45212 0.34215 0.0
H457 H 0.12343 0.47871 0.34671 0.0
H458 H 0.22507 0.74972 0.80016 0.0
H459 H 0.20159 0.71484 0.79081 0.0
H460 H 0.22952 0.74007 0.71607 0.0
H461 H 0.25236 0.77512 0.72536 0.0
H462 H 0.17592 0.71987 0.72504 0.0
H463 H 0.23415 0.66673 0.76926 0.0
H464 H 0.21808 0.6817 0.78925 0.0
H465 H 0.24528 0.69605 0.76456 0.0
C466 C 0.2264 0.7477 0.78176 0.0
C467 C 0.2405 0.76508 0.76348 0.0
C468 C 0.21313 0.72775 0.77643 0.0
C469 C 0.21422 0.72468 0.75273 0.0
C470 C 0.22846 0.74202 0.73448 0.0
H471 H 0.1604 0.59754 0.71134 0.0
H472 H 0.18804 0.63239 0.71789 0.0
C473 C 0.24143 0.76204 0.73979 0.0
C474 C 0.19939 0.7038 0.74691 0.0
H475 H 0.19212 0.64875 0.75779 0.0
C476 C 0.17963 0.70433 0.73206 0.0
C477 C 0.20455 0.68355 0.75574 0.0
C478 C 0.22688 0.68195 0.77037 0.0
C479 C 0.16446 0.68517 0.72622 0.0
C480 C 0.16852 0.66484 0.73609 0.0
C481 C 0.18875 0.66432 0.75048 0.0
C482 C 0.15187 0.64392 0.73184 0.0
C483 C 0.14457 0.68699 0.70922 0.0
C484 C 0.12245 0.63873 0.73779 0.0
C485 C 0.10678 0.61908 0.7337 0.0
C486 C 0.12027 0.60418 0.72394 0.0
C487 C 0.14966 0.60904 0.71855 0.0
C488 C 0.16536 0.62882 0.72239 0.0
H489 H 0.15042 0.70326 0.69773 0.0
H490 H 0.14416 0.67433 0.69771 0.0
H491 H 0.12309 0.68484 0.71947 0.0
H492 H 0.1116 0.64981 0.74575 0.0
H493 H 0.0841 0.61543 0.73827 0.0
H494 H 0.8504 0.73666 0.35213 0.0
H495 H 0.86937 0.705 0.36269 0.0
H496 H 0.81392 0.66729 0.32474 0.0
H497 H 0.79531 0.69915 0.31373 0.0
H498 H 0.84387 0.66297 0.38711 0.0
H499 H 0.89153 0.66224 0.29389 0.0
H500 H 0.87837 0.68484 0.30268 0.0
H501 H 0.85449 0.66054 0.29904 0.0
C502 C 0.84226 0.72158 0.34611 0.0
C503 C 0.82166 0.7203 0.33192 0.0
C504 C 0.85301 0.70352 0.3522 0.0
C505 C 0.84334 0.68392 0.3442 0.0
C506 C 0.82204 0.68239 0.33071 0.0
H507 H 0.89206 0.56296 0.39158 0.0
H508 H 0.86428 0.58977 0.38413 0.0
C509 C 0.81136 0.70049 0.32453 0.0
C510 C 0.85631 0.6654 0.34937 0.0
H511 H 0.89584 0.6343 0.323 0.0
C512 C 0.85512 0.65659 0.37313 0.0
C513 C 0.87118 0.6573 0.33105 0.0
C514 C 0.87426 0.6668 0.30523 0.0
C515 C 0.8687 0.64001 0.37907 0.0
C516 C 0.88347 0.63188 0.36073 0.0
C517 C 0.88432 0.64049 0.33699 0.0
C518 C 0.89986 0.61551 0.36565 0.0
C519 C 0.86799 0.6319 0.40488 0.0
C520 C 0.92892 0.62098 0.35734 0.0
C521 C 0.94473 0.6057 0.36128 0.0
C522 C 0.93181 0.58457 0.37366 0.0
C523 C 0.90262 0.57907 0.38193 0.0
C524 C 0.88677 0.59442 0.37791 0.0
H525 H 0.8609 0.64299 0.41652 0.0
H526 H 0.8532 0.61565 0.41034 0.0
H527 H 0.88903 0.63014 0.40778 0.0
H528 H 0.9394 0.63713 0.3477 0.0
H529 H 0.96704 0.61036 0.35422 0.0
H530 H 0.78412 0.34029 0.72614 0.0
H531 H 0.81986 0.3746 0.71568 0.0
H532 H 0.88372 0.33938 0.70009 0.0
H533 H 0.84783 0.30488 0.71039 0.0
H534 H 0.863 0.38346 0.74053 0.0
H535 H 0.90517 0.39054 0.64445 0.0
H536 H 0.87194 0.37249 0.65894 0.0
H537 H 0.90417 0.36505 0.66235 0.0
C538 C 0.80574 0.33989 0.72015 0.0
C539 C 0.81329 0.31995 0.71927 0.0
C540 C 0.82609 0.35948 0.7141 0.0
C541 C 0.8544 0.35954 0.70701 0.0
C542 C 0.86192 0.33972 0.70511 0.0
H543 H 0.00692 0.46037 0.69451 0.0
H544 H 0.97267 0.42652 0.69339 0.0
C545 C 0.84146 0.32004 0.71105 0.0
C546 C 0.87607 0.38011 0.70423 0.0
H547 H 0.92939 0.41627 0.66497 0.0
C548 C 0.87741 0.39069 0.72396 0.0
C549 C 0.89499 0.38936 0.68267 0.0
C550 C 0.89396 0.37891 0.6608 0.0
C551 C 0.89721 0.41025 0.72279 0.0
C552 C 0.91588 0.41968 0.70116 0.0
C553 C 0.91486 0.40902 0.68146 0.0
C554 C 0.93669 0.44057 0.69899 0.0
C555 C 0.89829 0.42048 0.74484 0.0
C556 C 0.92777 0.4597 0.70184 0.0
C557 C 0.9472 0.47888 0.70253 0.0
C558 C 0.97576 0.47915 0.70022 0.0
C559 C 0.98488 0.46034 0.6963 0.0
C560 C 0.96543 0.44113 0.69563 0.0
H561 H 0.88723 0.40871 0.76113 0.0
H562 H 0.92032 0.42691 0.74668 0.0
H563 H 0.88797 0.43429 0.74356 0.0
H564 H 0.90569 0.45961 0.70419 0.0
H565 H 0.93993 0.49333 0.70553 0.0
H566 H 0.19362 0.25336 0.38241 0.0
H567 H 0.18784 0.22084 0.41194 0.0
H568 H 0.27531 0.22185 0.39098 0.0
H569 H 0.28158 0.25489 0.36217 0.0
H570 H 0.19534 0.1812 0.40483 0.0
H571 H 0.26682 0.21518 0.46236 0.0
H572 H 0.25528 0.2322 0.44039 0.0
H573 H 0.28371 0.21972 0.43183 0.0
C574 C 0.21177 0.24692 0.38439 0.0
C575 C 0.23811 0.25682 0.36998 0.0
C576 C 0.20837 0.22824 0.40117 0.0
C577 C 0.23123 0.21911 0.40393 0.0
C578 C 0.25751 0.22888 0.38953 0.0
H579 H 0.2307 0.08726 0.46022 0.0
H580 H 0.23139 0.12188 0.43579 0.0
C581 C 0.26096 0.24761 0.37283 0.0
C582 C 0.22734 0.19879 0.42106 0.0
H583 H 0.25273 0.17628 0.46734 0.0
C584 C 0.2077 0.18017 0.41865 0.0
C585 C 0.24312 0.19755 0.43933 0.0
C586 C 0.2632 0.21729 0.44383 0.0
C587 C 0.20412 0.16016 0.43349 0.0
C588 C 0.22108 0.15863 0.45085 0.0
C589 C 0.23999 0.17742 0.45383 0.0
C590 C 0.22013 0.13759 0.46564 0.0
C591 C 0.18211 0.14088 0.43048 0.0
C592 C 0.21422 0.1351 0.49051 0.0
C593 C 0.21424 0.11546 0.50441 0.0
C594 C 0.22047 0.09818 0.49362 0.0
C595 C 0.22612 0.10055 0.46881 0.0
C596 C 0.22622 0.12019 0.45492 0.0
H597 H 0.16549 0.14614 0.42203 0.0
H598 H 0.1921 0.13107 0.41882 0.0
H599 H 0.17215 0.13029 0.44778 0.0
H600 H 0.20955 0.14835 0.49913 0.0
H601 H 0.20962 0.11377 0.52357 0.0
H602 H 0.38029 0.83777 0.80182 0.0
H603 H 0.40577 0.83641 0.8348 0.0
H604 H 0.34106 0.78131 0.87357 0.0
H605 H 0.31592 0.78228 0.84032 0.0
H606 H 0.39011 0.84012 0.88154 0.0
H607 H 0.41146 0.75896 0.87468 0.0
H608 H 0.39871 0.77403 0.85188 0.0
H609 H 0.37492 0.75892 0.87829 0.0
C610 C 0.37149 0.82544 0.81744 0.0
C611 C 0.34603 0.81025 0.81871 0.0
C612 C 0.38603 0.82467 0.83623 0.0
C613 C 0.37548 0.80859 0.8565 0.0
C614 C 0.34984 0.7936 0.85792 0.0
H615 H 0.43402 0.77746 0.98741 0.0
H616 H 0.40623 0.7805 0.9563 0.0
C617 C 0.33538 0.79428 0.83907 0.0
C618 C 0.39138 0.80754 0.87609 0.0
H619 H 0.423 0.7744 0.90806 0.0
C620 C 0.39738 0.82579 0.8873 0.0
C621 C 0.40092 0.78882 0.8835 0.0
C622 C 0.39644 0.76915 0.87133 0.0
C623 C 0.41233 0.8257 0.90599 0.0
C624 C 0.42166 0.80695 0.91346 0.0
C625 C 0.41564 0.7887 0.90231 0.0
C626 C 0.43809 0.80597 0.93264 0.0
C627 C 0.41768 0.84552 0.91784 0.0
C628 C 0.46523 0.81925 0.92953 0.0
C629 C 0.4813 0.81742 0.94715 0.0
C630 C 0.47051 0.80221 0.96819 0.0
C631 C 0.44313 0.78912 0.9713 0.0
C632 C 0.42714 0.79091 0.95363 0.0
H633 H 0.40395 0.85658 0.91361 0.0
H634 H 0.41428 0.84069 0.9374 0.0
H635 H 0.43982 0.85472 0.9116 0.0
H636 H 0.47423 0.83069 0.91324 0.0
H637 H 0.50245 0.8275 0.944 0.0
H638 H 0.75961 0.827 0.31992 0.0
H639 H 0.75714 0.85613 0.3432 0.0
H640 H 0.74094 0.80965 0.40782 0.0
H641 H 0.74263 0.78025 0.38464 0.0
H642 H 0.70466 0.83841 0.40736 0.0
H643 H 0.8167 0.88258 0.38025 0.0
H644 H 0.79899 0.87731 0.35605 0.0
H645 H 0.80399 0.85493 0.37587 0.0
C646 C 0.75534 0.82294 0.33909 0.0
C647 C 0.75129 0.80132 0.35047 0.0
C648 C 0.75423 0.83964 0.35235 0.0
C649 C 0.74921 0.83505 0.37719 0.0
C650 C 0.745 0.8135 0.38863 0.0
H651 H 0.772 0.92602 0.47486 0.0
H652 H 0.77376 0.89692 0.45148 0.0
C653 C 0.74615 0.79678 0.37539 0.0
C654 C 0.74786 0.85271 0.39124 0.0
H655 H 0.78648 0.90022 0.40215 0.0
C656 C 0.72253 0.85192 0.40629 0.0
C657 C 0.77133 0.87015 0.38992 0.0
C658 C 0.79939 0.87128 0.37483 0.0
C659 C 0.71993 0.86831 0.41989 0.0
C660 C 0.74319 0.88605 0.41809 0.0
C661 C 0.76862 0.88669 0.40326 0.0
C662 C 0.74189 0.90377 0.43208 0.0
C663 C 0.69251 0.86632 0.43638 0.0
C664 C 0.72362 0.91742 0.42867 0.0
C665 C 0.72242 0.93401 0.44212 0.0
C666 C 0.73956 0.93723 0.45916 0.0
C667 C 0.75817 0.92372 0.46219 0.0
C668 C 0.75935 0.90719 0.44874 0.0
H669 H 0.67913 0.84947 0.43978 0.0
H670 H 0.69619 0.87111 0.4536 0.0
H671 H 0.6808 0.87737 0.42823 0.0
H672 H 0.7103 0.91526 0.41559 0.0
H673 H 0.7078 0.94408 0.43945 0.0
H674 H 0.73627 0.24369 0.79759 0.0
H675 H 0.70609 0.24239 0.83588 0.0
H676 H 0.69956 0.30801 0.8134 0.0
H677 H 0.72881 0.30922 0.77513 0.0
H678 H 0.71452 0.27061 0.87029 0.0
H679 H 0.61772 0.2736 0.83482 0.0
H680 H 0.64758 0.26691 0.81803 0.0
H681 H 0.64741 0.29487 0.81969 0.0
C682 C 0.72808 0.25771 0.80075 0.0
C683 C 0.73493 0.27656 0.78335 0.0
C684 C 0.71107 0.25701 0.82266 0.0
C685 C 0.70043 0.27504 0.82735 0.0
C686 C 0.70726 0.29382 0.81002 0.0
H687 H 0.61039 0.32089 0.93942 0.0
H688 H 0.64493 0.31602 0.90775 0.0
C689 C 0.72419 0.29454 0.78823 0.0
C690 C 0.68223 0.27453 0.85032 0.0
H691 H 0.61814 0.28155 0.87399 0.0
C692 C 0.69331 0.27271 0.87121 0.0
C693 C 0.65454 0.27716 0.85143 0.0
C694 C 0.64098 0.27803 0.82983 0.0
C695 C 0.67769 0.27436 0.89305 0.0
C696 C 0.65053 0.27791 0.89384 0.0
C697 C 0.63917 0.27906 0.87315 0.0
C698 C 0.63332 0.28091 0.91577 0.0
C699 C 0.69037 0.27295 0.91504 0.0
C700 C 0.61677 0.26295 0.93197 0.0
C701 C 0.59569 0.26574 0.9495 0.0
C702 C 0.5893 0.28631 0.95003 0.0
C703 C 0.60997 0.30447 0.93678 0.0
C704 C 0.63102 0.30179 0.91919 0.0
H705 H 0.7121 0.2707 0.91138 0.0
H706 H 0.69063 0.28802 0.92279 0.0
H707 H 0.67723 0.25908 0.9285 0.0
H708 H 0.61936 0.2467 0.9305 0.0
H709 H 0.58433 0.25147 0.96212 0.0
H710 H 0.21299 0.83379 0.75172 0.0
H711 H 0.20609 0.86614 0.72789 0.0
H712 H 0.29378 0.89709 0.72039 0.0
H713 H 0.30112 0.86451 0.74347 0.0
H714 H 0.2163 0.91041 0.73336 0.0
H715 H 0.28179 0.89782 0.65175 0.0
H716 H 0.26968 0.87712 0.67789 0.0
H717 H 0.29894 0.89959 0.6768 0.0
C718 C 0.23085 0.84744 0.74491 0.0
C719 C 0.25768 0.84647 0.74925 0.0
C720 C 0.22681 0.86598 0.7315 0.0
C721 C 0.2495 0.88386 0.72214 0.0
C722 C 0.27608 0.88331 0.72719 0.0
H723 H 0.23822 0.00935 0.64616 0.0
H724 H 0.24446 0.98103 0.67674 0.0
C725 C 0.28017 0.86476 0.74056 0.0
C726 C 0.24549 0.90259 0.70619 0.0
H727 H 0.26394 0.92927 0.64898 0.0
C728 C 0.22677 0.91464 0.71493 0.0
C729 C 0.25897 0.90785 0.6821 0.0
C730 C 0.27829 0.89484 0.67144 0.0
C731 C 0.22109 0.93181 0.70014 0.0
C732 C 0.23475 0.93714 0.67611 0.0
C733 C 0.25362 0.92519 0.66746 0.0
C734 C 0.22881 0.95424 0.65913 0.0
C735 C 0.19993 0.94368 0.71009 0.0
C736 C 0.21806 0.94854 0.63918 0.0
C737 C 0.21469 0.96458 0.62183 0.0
C738 C 0.22186 0.98661 0.6242 0.0
C739 C 0.23211 0.99238 0.64432 0.0
C740 C 0.2356 0.97626 0.66172 0.0
H741 H 0.18707 0.9347 0.72737 0.0
H742 H 0.21112 0.9599 0.7129 0.0
H743 H 0.18573 0.94625 0.6975 0.0
H744 H 0.21287 0.93167 0.63679 0.0
H745 H 0.20725 0.95987 0.60619 0.0
H746 H 0.76201 0.75875 0.25883 0.0
H747 H 0.74106 0.76039 0.22322 0.0
H748 H 0.66877 0.77586 0.26235 0.0
H749 H 0.68931 0.77396 0.29809 0.0
H750 H 0.688 0.73663 0.21592 0.0
H751 H 0.69722 0.82587 0.20455 0.0
H752 H 0.71637 0.81231 0.22333 0.0
H753 H 0.68001 0.8113 0.23357 0.0
C754 C 0.7415 0.76224 0.25993 0.0
C755 C 0.72739 0.76638 0.28124 0.0
C756 C 0.72966 0.76328 0.23956 0.0
C757 C 0.70363 0.7686 0.24012 0.0
C758 C 0.68916 0.77218 0.26147 0.0
H759 H 0.58608 0.75479 0.14563 0.0
H760 H 0.61224 0.7511 0.17774 0.0
C761 C 0.70094 0.77111 0.28184 0.0
C762 C 0.69152 0.77048 0.2184 0.0
H763 H 0.66965 0.80622 0.18068 0.0
C764 C 0.68413 0.75185 0.20808 0.0
C765 C 0.68694 0.79046 0.20808 0.0
C766 C 0.69576 0.8112 0.21778 0.0
C767 C 0.67136 0.75252 0.18809 0.0
C768 C 0.66564 0.77228 0.17842 0.0
C769 C 0.67387 0.79106 0.18828 0.0
C770 C 0.6504 0.77372 0.15848 0.0
C771 C 0.66416 0.73212 0.17746 0.0
C772 C 0.66309 0.78792 0.13715 0.0
C773 C 0.64821 0.79004 0.11872 0.0
C774 C 0.6203 0.77811 0.12138 0.0
C775 C 0.60771 0.76388 0.14281 0.0
C776 C 0.62261 0.76175 0.1612 0.0
H777 H 0.67649 0.72029 0.18277 0.0
H778 H 0.64159 0.72416 0.1838 0.0
H779 H 0.66801 0.736 0.1578 0.0
H780 H 0.6845 0.79736 0.13479 0.0
H781 H 0.65861 0.80097 0.10236 0.0
H782 H 0.71394 0.20366 0.71064 0.0
H783 H 0.71436 0.17243 0.68993 0.0
H784 H 0.78062 0.21258 0.6348 0.0
H785 H 0.78044 0.24371 0.65565 0.0
H786 H 0.70404 0.16972 0.64424 0.0
H787 H 0.81037 0.15861 0.65143 0.0
H788 H 0.79301 0.17475 0.66937 0.0
H789 H 0.8098 0.18583 0.63915 0.0
C790 C 0.72863 0.20571 0.69415 0.0
C791 C 0.74688 0.22606 0.68449 0.0
C792 C 0.72888 0.18792 0.68236 0.0
C793 C 0.74767 0.19015 0.66093 0.0
C794 C 0.76626 0.21041 0.65149 0.0
H795 H 0.77465 0.10803 0.55586 0.0
H796 H 0.77583 0.13761 0.57899 0.0
C797 C 0.76602 0.22819 0.66328 0.0
C798 C 0.74691 0.17155 0.6479 0.0
H799 H 0.78677 0.13879 0.62536 0.0
C800 C 0.72205 0.16283 0.64026 0.0
C801 C 0.77048 0.16268 0.64266 0.0
C802 C 0.79736 0.17079 0.65125 0.0
C803 C 0.72029 0.14576 0.62707 0.0
C804 C 0.7439 0.13696 0.62174 0.0
C805 C 0.76872 0.14561 0.62946 0.0
C806 C 0.7433 0.11886 0.608 0.0
C807 C 0.69342 0.13768 0.61843 0.0
C808 C 0.72489 0.09843 0.61683 0.0
C809 C 0.72424 0.08146 0.60372 0.0
C810 C 0.74213 0.08456 0.58157 0.0
C811 C 0.76081 0.105 0.57295 0.0
C812 C 0.76143 0.12196 0.58608 0.0
H813 H 0.67997 0.14953 0.61896 0.0
H814 H 0.69786 0.13443 0.60001 0.0
H815 H 0.68142 0.1222 0.63 0.0
H816 H 0.71114 0.09556 0.63395 0.0
H817 H 0.70997 0.06581 0.61106 0.0
H818 H 0.29647 0.26027 0.26371 0.0
H819 H 0.3344 0.26236 0.2302 0.0
H820 H 0.32626 0.32605 0.20118 0.0
H821 H 0.28854 0.32405 0.2348 0.0
H822 H 0.33061 0.26701 0.18231 0.0
H823 H 0.41084 0.33527 0.19966 0.0
H824 H 0.38065 0.32064 0.2218 0.0
H825 H 0.37724 0.34124 0.19886 0.0
C826 C 0.30288 0.27468 0.25014 0.0
C827 C 0.28939 0.29184 0.25149 0.0
C828 C 0.32451 0.2759 0.2311 0.0
C829 C 0.33327 0.29443 0.21332 0.0
C830 C 0.32011 0.31175 0.21488 0.0
H831 H 0.42265 0.30442 0.07007 0.0
H832 H 0.38884 0.30445 0.10585 0.0
C833 C 0.29846 0.31053 0.23393 0.0
C834 C 0.35524 0.29517 0.19257 0.0
H835 H 0.41983 0.32396 0.16216 0.0
C836 C 0.35017 0.2794 0.17796 0.0
C837 C 0.38085 0.31122 0.18709 0.0
C838 C 0.38793 0.32795 0.20278 0.0
C839 C 0.36979 0.27951 0.15771 0.0
C840 C 0.39496 0.296 0.15178 0.0
C841 C 0.40035 0.31149 0.16665 0.0
C842 C 0.41592 0.29729 0.13019 0.0
C843 C 0.36356 0.26186 0.14292 0.0
C844 C 0.44255 0.29388 0.13207 0.0
C845 C 0.4618 0.29393 0.1117 0.0
C846 C 0.45467 0.29754 0.08926 0.0
C847 C 0.4284 0.30157 0.08731 0.0
C848 C 0.40914 0.30148 0.10765 0.0
H849 H 0.34675 0.24772 0.15278 0.0
H850 H 0.35648 0.26852 0.12686 0.0
H851 H 0.38265 0.25607 0.13707 0.0
H852 H 0.44816 0.29069 0.14932 0.0
H853 H 0.48204 0.29078 0.11343 0.0
H854 H 0.84032 0.72701 0.7646 0.0
H855 H 0.8744 0.70429 0.76093 0.0
H856 H 0.86012 0.69723 0.69042 0.0
H857 H 0.82664 0.72032 0.69384 0.0
H858 H 0.86496 0.66215 0.75431 0.0
H859 H 0.9449 0.71355 0.67949 0.0
H860 H 0.91773 0.72376 0.69558 0.0
H861 H 0.91023 0.7078 0.67288 0.0
C862 C 0.84495 0.72093 0.74817 0.0
C863 C 0.8314 0.72581 0.72929 0.0
C864 C 0.86428 0.70791 0.74612 0.0
C865 C 0.87026 0.69942 0.72521 0.0
C866 C 0.85649 0.70411 0.70644 0.0
H867 H 0.96202 0.60494 0.68295 0.0
H868 H 0.93276 0.63127 0.68563 0.0
C869 C 0.83728 0.71721 0.70844 0.0
C870 C 0.88962 0.68463 0.72357 0.0
H871 H 0.94867 0.677 0.6902 0.0
C872 C 0.8834 0.6655 0.74042 0.0
C873 C 0.91363 0.68898 0.70537 0.0
C874 C 0.92222 0.70974 0.68743 0.0
C875 C 0.90018 0.65039 0.73929 0.0
C876 C 0.92399 0.65464 0.72097 0.0
C877 C 0.93033 0.67378 0.70417 0.0
C878 C 0.94254 0.63933 0.719 0.0
C879 C 0.89196 0.62974 0.75739 0.0
C880 C 0.95812 0.63548 0.73666 0.0
C881 C 0.97501 0.62059 0.73512 0.0
C882 C 0.97669 0.60924 0.71584 0.0
C883 C 0.96144 0.61351 0.69792 0.0
C884 C 0.94461 0.62847 0.69946 0.0
H885 H 0.86997 0.6267 0.76699 0.0
H886 H 0.89437 0.61547 0.74881 0.0
H887 H 0.90593 0.63112 0.77061 0.0
H888 H 0.95722 0.64403 0.75166 0.0
H889 H 0.98691 0.61808 0.74898 0.0
H890 H 0.78493 0.30123 0.35144 0.0
H891 H 0.81731 0.33232 0.36059 0.0
H892 H 0.85709 0.35014 0.28686 0.0
H893 H 0.82468 0.319 0.27753 0.0
H894 H 0.87519 0.34174 0.35408 0.0
H895 H 0.83908 0.40678 0.30281 0.0
H896 H 0.81939 0.37875 0.30954 0.0
H897 H 0.84945 0.38718 0.28587 0.0
C898 C 0.80065 0.31171 0.33717 0.0
C899 C 0.80224 0.30766 0.31374 0.0
C900 C 0.81907 0.3295 0.34242 0.0
C901 C 0.8394 0.34367 0.32438 0.0
C902 C 0.84119 0.33965 0.30098 0.0
H903 H 0.98256 0.43965 0.34862 0.0
H904 H 0.95269 0.40769 0.33797 0.0
C905 C 0.82268 0.32187 0.29568 0.0
C906 C 0.85886 0.36246 0.33026 0.0
H907 H 0.87903 0.41802 0.31981 0.0
C908 C 0.87608 0.35843 0.34658 0.0
C909 C 0.85972 0.38421 0.32064 0.0
C910 C 0.84077 0.38959 0.30391 0.0
C911 C 0.89418 0.37557 0.35354 0.0
C912 C 0.89541 0.3973 0.34359 0.0
C913 C 0.87819 0.40132 0.32728 0.0
C914 C 0.91367 0.41617 0.35047 0.0
C915 C 0.91125 0.37028 0.37195 0.0
C916 C 0.90168 0.4317 0.36057 0.0
C917 C 0.91867 0.44989 0.36647 0.0
C918 C 0.9479 0.45278 0.36251 0.0
C919 C 0.95998 0.43739 0.35226 0.0
C920 C 0.94297 0.41919 0.34627 0.0
H921 H 0.90283 0.35345 0.38198 0.0
H922 H 0.93312 0.37161 0.36303 0.0
H923 H 0.91176 0.38187 0.38472 0.0
H924 H 0.87916 0.42978 0.36377 0.0
H925 H 0.90905 0.46189 0.37385 0.0
H926 H 0.18848 0.30861 0.71561 0.0
H927 H 0.16776 0.33988 0.70879 0.0
H928 H 0.24276 0.38245 0.72017 0.0
H929 H 0.26375 0.35133 0.72678 0.0
H930 H 0.19371 0.38717 0.74727 0.0
H931 H 0.18469 0.39033 0.65259 0.0
H932 H 0.16994 0.36403 0.67069 0.0
H933 H 0.20706 0.3755 0.66607 0.0
C934 C 0.2008 0.32469 0.71617 0.0
C935 C 0.22776 0.32746 0.72179 0.0
C936 C 0.18893 0.34255 0.71226 0.0
C937 C 0.20384 0.36352 0.71374 0.0
C938 C 0.23092 0.3664 0.7189 0.0
H939 H 0.15468 0.48623 0.68178 0.0
H940 H 0.17937 0.45679 0.68196 0.0
C941 C 0.24281 0.34859 0.7228 0.0
C942 C 0.19048 0.38219 0.71163 0.0
H943 H 0.16043 0.41217 0.67439 0.0
C944 C 0.18659 0.39272 0.73129 0.0
C945 C 0.18144 0.38952 0.69068 0.0
C946 C 0.18619 0.37942 0.6687 0.0
C947 C 0.17331 0.41006 0.73077 0.0
C948 C 0.16337 0.41688 0.71014 0.0
C949 C 0.16787 0.40675 0.69025 0.0
C950 C 0.14788 0.43431 0.70916 0.0
C951 C 0.17011 0.42102 0.75229 0.0
C952 C 0.12177 0.43121 0.72403 0.0
C953 C 0.10756 0.44789 0.72388 0.0
C954 C 0.11917 0.46805 0.70882 0.0
C955 C 0.14506 0.47089 0.69349 0.0
C956 C 0.15925 0.45413 0.69362 0.0
H957 H 0.18463 0.41747 0.76425 0.0
H958 H 0.17407 0.43895 0.747 0.0
H959 H 0.14834 0.41497 0.76244 0.0
H960 H 0.1124 0.41587 0.73583 0.0
H961 H 0.08738 0.44495 0.73552 0.0
H962 H 0.22753 0.74445 0.32847 0.0
H963 H 0.1987 0.7073 0.33728 0.0
H964 H 0.1941 0.70784 0.41217 0.0
H965 H 0.22424 0.74482 0.40348 0.0
H966 H 0.20291 0.66912 0.39957 0.0
H967 H 0.11491 0.69142 0.36203 0.0
H968 H 0.14744 0.69966 0.34117 0.0
H969 H 0.14357 0.71153 0.3677 0.0
C970 C 0.22077 0.73663 0.34684 0.0
C971 C 0.22823 0.7477 0.36527 0.0
C972 C 0.20396 0.71545 0.35184 0.0
C973 C 0.19382 0.70494 0.37539 0.0
C974 C 0.20154 0.71572 0.39387 0.0
H975 H 0.05471 0.59088 0.40607 0.0
H976 H 0.08604 0.62576 0.40739 0.0
C977 C 0.21855 0.73692 0.38887 0.0
C978 C 0.17497 0.68278 0.38055 0.0
H979 H 0.11367 0.65355 0.36965 0.0
C980 C 0.18326 0.66569 0.39323 0.0
C981 C 0.14912 0.67842 0.37263 0.0
C982 C 0.13806 0.69627 0.36035 0.0
C983 C 0.16674 0.64421 0.39758 0.0
C984 C 0.1416 0.6397 0.38856 0.0
C985 C 0.13304 0.65693 0.37643 0.0
C986 C 0.1237 0.61733 0.3912 0.0
C987 C 0.17624 0.62667 0.41199 0.0
C988 C 0.1345 0.60073 0.3822 0.0
C989 C 0.11664 0.58057 0.38194 0.0
C990 C 0.0877 0.57688 0.39034 0.0
C991 C 0.07705 0.59324 0.3999 0.0
C992 C 0.0949 0.6132 0.40048 0.0
H993 H 0.1904 0.63361 0.42362 0.0
H994 H 0.15811 0.61437 0.42319 0.0
H995 H 0.18806 0.6183 0.39981 0.0
H996 H 0.15649 0.60367 0.37435 0.0
H997 H 0.12514 0.56827 0.37412 0.0
H998 H 0.73205 0.80949 0.72595 0.0
H999 H 0.7265 0.84004 0.69835 0.0
H1000 H 0.81646 0.86299 0.6788 0.0
H1001 H 0.82209 0.83213 0.70608 0.0
H1002 H 0.74273 0.88294 0.69865 0.0
H1003 H 0.79438 0.86377 0.61465 0.0
H1004 H 0.78505 0.84458 0.64204 0.0
H1005 H 0.81637 0.86619 0.63647 0.0
C1006 C 0.75064 0.821 0.71565 0.0
C1007 C 0.77751 0.81844 0.7181 0.0
C1008 C 0.74745 0.83843 0.6999 0.0
C1009 C 0.77104 0.85369 0.68631 0.0
C1010 C 0.79794 0.85116 0.68868 0.0
H1011 H 0.76371 0.98187 0.61467 0.0
H1012 H 0.77088 0.95213 0.64288 0.0
C1013 C 0.80115 0.83356 0.70429 0.0
C1014 C 0.7673 0.87255 0.67024 0.0
H1015 H 0.78268 0.89805 0.61258 0.0
C1016 C 0.75142 0.88623 0.67981 0.0
C1017 C 0.77841 0.8767 0.64564 0.0
C1018 C 0.79427 0.86193 0.63402 0.0
C1019 C 0.74629 0.90392 0.66545 0.0
C1020 C 0.75798 0.90838 0.64095 0.0
C1021 C 0.77392 0.89473 0.63141 0.0
C1022 C 0.753 0.92651 0.6246 0.0
C1023 C 0.72771 0.91722 0.67655 0.0
C1024 C 0.74112 0.92205 0.60478 0.0
C1025 C 0.73743 0.93895 0.58863 0.0
C1026 C 0.7453 0.96063 0.59212 0.0
C1027 C 0.75704 0.96519 0.61197 0.0
C1028 C 0.76101 0.94824 0.62806 0.0
H1029 H 0.71449 0.90825 0.6937 0.0
H1030 H 0.741 0.93237 0.68008 0.0
H1031 H 0.71377 0.92184 0.66454 0.0
H1032 H 0.73492 0.90545 0.60167 0.0
H1033 H 0.72883 0.93514 0.57317 0.0
H1034 H 0.72591 0.31435 0.22952 0.0
H1035 H 0.70727 0.31573 0.19258 0.0
H1036 H 0.65969 0.24923 0.21527 0.0
H1037 H 0.67812 0.2479 0.25228 0.0
H1038 H 0.70839 0.28937 0.15627 0.0
H1039 H 0.6001 0.28368 0.2033 0.0
H1040 H 0.63031 0.28991 0.21718 0.0
H1041 H 0.61578 0.26232 0.21403 0.0
C1042 C 0.7115 0.30006 0.22652 0.0
C1043 C 0.70284 0.2812 0.24389 0.0
C1044 C 0.70097 0.30082 0.20545 0.0
C1045 C 0.68169 0.28272 0.20141 0.0
C1046 C 0.67409 0.26352 0.21827 0.0
H1047 H 0.61858 0.26329 0.07123 0.0
H1048 H 0.64342 0.26145 0.10456 0.0
C1049 C 0.68463 0.26275 0.23933 0.0
C1050 C 0.6688 0.28419 0.17998 0.0
H1051 H 0.60614 0.2827 0.16219 0.0
C1052 C 0.68604 0.2879 0.15751 0.0
C1053 C 0.6397 0.28256 0.18169 0.0
C1054 C 0.62035 0.27959 0.20531 0.0
C1055 C 0.67485 0.28977 0.13667 0.0
C1056 C 0.64565 0.28767 0.13842 0.0
C1057 C 0.6285 0.28416 0.1609 0.0
C1058 C 0.63234 0.28953 0.11724 0.0
C1059 C 0.69439 0.2944 0.11296 0.0
C1060 C 0.6177 0.30581 0.11339 0.0
C1061 C 0.6033 0.30678 0.09454 0.0
C1062 C 0.60308 0.2914 0.07915 0.0
C1063 C 0.61817 0.27531 0.08281 0.0
C1064 C 0.63262 0.27436 0.10171 0.0
H1065 H 0.71657 0.30063 0.11454 0.0
H1066 H 0.69288 0.27913 0.10546 0.0
H1067 H 0.68851 0.30649 0.10029 0.0
H1068 H 0.61705 0.31758 0.12526 0.0
H1069 H 0.59152 0.31916 0.09255 0.0
H1070 H 0.23363 0.22904 0.738 0.0
H1071 H 0.22952 0.19893 0.71559 0.0
H1072 H 0.24723 0.24462 0.65023 0.0
H1073 H 0.25242 0.27493 0.67247 0.0
H1074 H 0.19348 0.18684 0.6852 0.0
H1075 H 0.30439 0.20788 0.63823 0.0
H1076 H 0.29273 0.21995 0.66331 0.0
H1077 H 0.28667 0.22951 0.63441 0.0
C1078 C 0.23699 0.23273 0.71884 0.0
C1079 C 0.24364 0.25444 0.70702 0.0
C1080 C 0.23441 0.21548 0.70607 0.0
C1081 C 0.23849 0.21954 0.68123 0.0
C1082 C 0.24452 0.24114 0.66937 0.0
H1083 H 0.19245 0.12207 0.59231 0.0
H1084 H 0.19513 0.15294 0.61367 0.0
C1085 C 0.24715 0.25843 0.68213 0.0
C1086 C 0.23628 0.2011 0.66786 0.0
H1087 H 0.2734 0.17913 0.62666 0.0
C1088 C 0.21094 0.18515 0.67238 0.0
C1089 C 0.25921 0.19878 0.65138 0.0
C1090 C 0.28739 0.21481 0.64665 0.0
C1091 C 0.20783 0.167 0.66077 0.0
C1092 C 0.23055 0.16495 0.64388 0.0
C1093 C 0.25594 0.18083 0.63947 0.0
C1094 C 0.22867 0.14618 0.63101 0.0
C1095 C 0.18048 0.14992 0.6671 0.0
C1096 C 0.24702 0.1324 0.63327 0.0
C1097 C 0.24559 0.1148 0.62105 0.0
C1098 C 0.22582 0.11065 0.60624 0.0
C1099 C 0.20756 0.12458 0.6039 0.0
C1100 C 0.20906 0.14222 0.6161 0.0
H1101 H 0.16806 0.15103 0.68439 0.0
H1102 H 0.16774 0.15231 0.65327 0.0
H1103 H 0.18418 0.13328 0.66796 0.0
H1104 H 0.26233 0.13518 0.64467 0.0
H1105 H 0.25976 0.10427 0.62343 0.0
H1106 H 0.33403 0.84578 0.26045 0.0
H1107 H 0.36868 0.843 0.22661 0.0
H1108 H 0.34661 0.77301 0.24637 0.0
H1109 H 0.31152 0.77576 0.28 0.0
H1110 H 0.41504 0.82521 0.22449 0.0
H1111 H 0.33687 0.78197 0.17731 0.0
H1112 H 0.32709 0.79505 0.20208 0.0
H1113 H 0.33489 0.76873 0.20706 0.0
C1114 C 0.33666 0.82983 0.25755 0.0
C1115 C 0.32009 0.81095 0.27265 0.0
C1116 C 0.35643 0.82825 0.23828 0.0
C1117 C 0.35987 0.80778 0.23377 0.0
C1118 C 0.34387 0.78894 0.24925 0.0
H1119 H 0.49777 0.783 0.13701 0.0
H1120 H 0.46492 0.786 0.17209 0.0
C1121 C 0.32403 0.7905 0.26849 0.0
C1122 C 0.38005 0.80621 0.21273 0.0
H1123 H 0.38478 0.78535 0.16125 0.0
C1124 C 0.40846 0.81652 0.21063 0.0
C1125 C 0.3713 0.79514 0.19452 0.0
C1126 C 0.34085 0.78476 0.19516 0.0
C1127 C 0.42845 0.81583 0.19093 0.0
C1128 C 0.41982 0.80419 0.17309 0.0
C1129 C 0.39136 0.79411 0.17506 0.0
C1130 C 0.43989 0.8025 0.15203 0.0
C1131 C 0.45851 0.82792 0.18917 0.0
C1132 C 0.43628 0.81028 0.12916 0.0
C1133 C 0.45481 0.80837 0.10921 0.0
C1134 C 0.47717 0.79864 0.11189 0.0
C1135 C 0.48071 0.79071 0.1347 0.0
C1136 C 0.46212 0.79255 0.15465 0.0
H1137 H 0.46024 0.84058 0.20073 0.0
H1138 H 0.47078 0.81623 0.19494 0.0
H1139 H 0.46812 0.83584 0.17063 0.0
H1140 H 0.41915 0.81788 0.12676 0.0
H1141 H 0.45171 0.81444 0.0917 0.0
H1142 H 0.75128 0.20903 0.30808 0.0
H1143 H 0.74268 0.17454 0.33534 0.0
H1144 H 0.74218 0.20909 0.39462 0.0
H1145 H 0.74959 0.24343 0.36769 0.0
H1146 H 0.7765 0.1629 0.36513 0.0
H1147 H 0.67223 0.16042 0.41731 0.0
H1148 H 0.68688 0.17878 0.38961 0.0
H1149 H 0.69758 0.18529 0.41666 0.0
C1150 C 0.74877 0.20923 0.32696 0.0
C1151 C 0.75116 0.22901 0.33569 0.0
C1152 C 0.74403 0.18953 0.34249 0.0
C1153 C 0.7414 0.1892 0.36704 0.0
C1154 C 0.74355 0.20888 0.37581 0.0
H1155 H 0.73958 0.09506 0.48961 0.0
H1156 H 0.74024 0.12778 0.46153 0.0
C1157 C 0.74819 0.22855 0.36033 0.0
C1158 C 0.73817 0.1685 0.38339 0.0
H1159 H 0.69737 0.13576 0.43347 0.0
C1160 C 0.75904 0.15684 0.37991 0.0
C1161 C 0.7154 0.16064 0.40272 0.0
C1162 C 0.69161 0.17182 0.4067 0.0
C1163 C 0.75815 0.13787 0.3956 0.0
C1164 C 0.73566 0.13026 0.41512 0.0
C1165 C 0.71463 0.14174 0.41851 0.0
C1166 C 0.73383 0.11045 0.43231 0.0
C1167 C 0.78165 0.1264 0.39155 0.0
C1168 C 0.72953 0.08996 0.42521 0.0
C1169 C 0.72905 0.07141 0.44118 0.0
C1170 C 0.73274 0.07313 0.46445 0.0
C1171 C 0.73655 0.09351 0.47172 0.0
C1172 C 0.73693 0.11208 0.45576 0.0
H1173 H 0.80011 0.1367 0.37865 0.0
H1174 H 0.78842 0.12166 0.40848 0.0
H1175 H 0.77411 0.11131 0.38444 0.0
H1176 H 0.72682 0.08837 0.40726 0.0
H1177 H 0.72621 0.05575 0.43532 0.0
H1178 H 0.29561 0.25178 0.80812 0.0
H1179 H 0.32648 0.25612 0.83732 0.0
H1180 H 0.30406 0.31623 0.84867 0.0
H1181 H 0.27299 0.31179 0.81963 0.0
H1182 H 0.37253 0.29086 0.83784 0.0
H1183 H 0.28735 0.28034 0.91598 0.0
H1184 H 0.28068 0.27282 0.88803 0.0
H1185 H 0.28745 0.30092 0.8916 0.0
C1186 C 0.29722 0.26582 0.817 0.0
C1187 C 0.28149 0.28118 0.81216 0.0
C1188 C 0.31485 0.26833 0.83357 0.0
C1189 C 0.31709 0.28626 0.8455 0.0
C1190 C 0.3021 0.30201 0.84008 0.0
H1191 H 0.40992 0.3216 0.95669 0.0
H1192 H 0.38057 0.32121 0.92634 0.0
C1193 C 0.28447 0.29951 0.82349 0.0
C1194 C 0.33525 0.28847 0.86351 0.0
H1195 H 0.33389 0.2892 0.92255 0.0
C1196 C 0.36411 0.2905 0.85637 0.0
C1197 C 0.32418 0.28809 0.88763 0.0
C1198 C 0.2932 0.28525 0.89641 0.0
C1199 C 0.38227 0.29222 0.87272 0.0
C1200 C 0.37114 0.29146 0.89691 0.0
C1201 C 0.34234 0.28976 0.90399 0.0
C1202 C 0.38891 0.29173 0.91526 0.0
C1203 C 0.41325 0.29511 0.86388 0.0
C1204 C 0.40292 0.27508 0.91935 0.0
C1205 C 0.41977 0.27531 0.93655 0.0
C1206 C 0.42281 0.29212 0.95017 0.0
C1207 C 0.40834 0.30858 0.94631 0.0
C1208 C 0.39145 0.30833 0.92907 0.0
H1209 H 0.41927 0.3015 0.84455 0.0
H1210 H 0.42589 0.30639 0.87341 0.0
H1211 H 0.41863 0.27909 0.86704 0.0
H1212 H 0.40081 0.26188 0.90921 0.0
H1213 H 0.43083 0.2625 0.93887 0.0
H1214 H 0.24237 0.80382 0.41619 0.0
H1215 H 0.23348 0.83203 0.43931 0.0
H1216 H 0.24648 0.87795 0.37469 0.0
H1217 H 0.25498 0.84986 0.35145 0.0
H1218 H 0.27749 0.89324 0.40859 0.0
H1219 H 0.16468 0.85916 0.44773 0.0
H1220 H 0.18695 0.84066 0.45166 0.0
H1221 H 0.18214 0.85025 0.42237 0.0
C1222 C 0.2429 0.81983 0.40689 0.0
C1223 C 0.24952 0.8246 0.38197 0.0
C1224 C 0.23782 0.83592 0.42013 0.0
C1225 C 0.2391 0.85701 0.40869 0.0
C1226 C 0.2454 0.86176 0.38385 0.0
H1227 H 0.19164 0.96517 0.46913 0.0
H1228 H 0.19609 0.93641 0.44545 0.0
C1229 C 0.25042 0.84571 0.37062 0.0
C1230 C 0.23528 0.87449 0.42254 0.0
H1231 H 0.18801 0.88986 0.46227 0.0
C1232 C 0.25791 0.89254 0.42028 0.0
C1233 C 0.20962 0.8736 0.43757 0.0
C1234 C 0.18433 0.85499 0.43991 0.0
C1235 C 0.25573 0.90959 0.43299 0.0
C1236 C 0.23033 0.90844 0.44851 0.0
C1237 C 0.20751 0.89059 0.45046 0.0
C1238 C 0.22727 0.92556 0.46304 0.0
C1239 C 0.28053 0.92882 0.42956 0.0
C1240 C 0.24312 0.92877 0.48087 0.0
C1241 C 0.24067 0.94514 0.49434 0.0
C1242 C 0.22226 0.95862 0.49027 0.0
C1243 C 0.20621 0.95522 0.4725 0.0
C1244 C 0.2086 0.93874 0.45909 0.0
H1245 H 0.29595 0.92962 0.41319 0.0
H1246 H 0.27364 0.94432 0.42863 0.0
H1247 H 0.29132 0.92736 0.4449 0.0
H1248 H 0.25744 0.9186 0.48433 0.0
H1249 H 0.25353 0.94746 0.50773 0.0
H1250 H 0.78538 0.77372 0.81838 0.0
H1251 H 0.75799 0.77061 0.85832 0.0
H1252 H 0.68478 0.77507 0.82834 0.0
H1253 H 0.71183 0.77791 0.78856 0.0
H1254 H 0.72981 0.80284 0.87323 0.0
H1255 H 0.65614 0.72217 0.88264 0.0
H1256 H 0.6886 0.73045 0.86124 0.0
H1257 H 0.65843 0.74001 0.85535 0.0
C1258 C 0.76332 0.77363 0.82039 0.0
C1259 C 0.75073 0.77611 0.80039 0.0
C1260 C 0.74777 0.77195 0.84316 0.0
C1261 C 0.71932 0.77239 0.84625 0.0
C1262 C 0.70659 0.77436 0.82635 0.0
H1263 H 0.58475 0.7811 0.95378 0.0
H1264 H 0.61601 0.77768 0.91791 0.0
C1265 C 0.72212 0.77618 0.80364 0.0
C1266 C 0.70326 0.77233 0.87003 0.0
H1267 H 0.6442 0.74523 0.90996 0.0
C1268 C 0.71131 0.79011 0.88148 0.0
C1269 C 0.67911 0.75574 0.8806 0.0
C1270 C 0.67013 0.7359 0.86946 0.0
C1271 C 0.69513 0.79222 0.9028 0.0
C1272 C 0.67059 0.77585 0.91313 0.0
C1273 C 0.66298 0.75778 0.90197 0.0
C1274 C 0.65185 0.77762 0.93496 0.0
C1275 C 0.70376 0.8124 0.91352 0.0
C1276 C 0.66158 0.77847 0.95643 0.0
C1277 C 0.64379 0.78053 0.97679 0.0
C1278 C 0.61606 0.78158 0.97592 0.0
C1279 C 0.60617 0.78038 0.95463 0.0
C1280 C 0.62394 0.77839 0.93428 0.0
H1281 H 0.71909 0.82561 0.90061 0.0
H1282 H 0.68526 0.81863 0.92004 0.0
H1283 H 0.71377 0.80835 0.92882 0.0
H1284 H 0.68286 0.77748 0.95744 0.0
H1285 H 0.6516 0.78129 0.99319 0.0
loop_
_geom_bond_atom_site_label_1
_geom_bond_atom_site_label_2
_geom_bond_distance
_geom_bond_site_symmetry_2
_ccdc_geom_bond_type
H0 C7 0.929 . S
H1 C10 0.930 . S
H2 C12 0.929 . S
H3 C4 0.969 . S
C4 H3 0.969 . S
C4 O5 1.550 . S
C4 H6 0.973 . S
O5 C4 1.550 . S
O5 C11 1.412 . S
H6 C4 0.973 . S
C7 H0 0.929 . S
C7 C8 1.400 . S
C7 C9 1.364 . S
C8 C7 1.400 . S
C8 C12 1.377 . S
C9 C7 1.364 . S
C9 C10 1.374 . S
C10 H1 0.930 . S
C10 C9 1.374 . S
C10 C11 1.383 . S
C11 O5 1.412 . S
C11 C10 1.383 . S
C11 C12 1.394 . S
C12 H2 0.929 . S
C12 C8 1.377 . S
C12 C11 1.394 . S
H13 C20 0.929 . S
H14 C23 0.930 . S
H15 C25 0.929 . S
H16 C17 0.969 . S
C17 H16 0.969 . S
C17 O18 1.550 . S
C17 H19 0.973 . S
O18 C17 1.550 . S
O18 C24 1.412 . S
H19 C17 0.973 . S
C20 H13 0.929 . S
C20 C21 1.400 . S
C20 C22 1.364 . S
C21 C20 1.400 . S
C21 C25 1.377 . S
C22 C20 1.364 . S
C22 C23 1.374 . S
C23 H14 0.930 . S
C23 C22 1.374 . S
C23 C24 1.383 . S
C24 O18 1.412 . S
C24 C23 1.383 . S
C24 C25 1.394 . S
C25 H15 0.929 . S
C25 C21 1.377 . S
C25 C24 1.394 . S
H26 C33 0.929 . S
H27 C36 0.930 . S
H28 C38 0.929 . S
H29 C30 0.969 . S
C30 H29 0.969 . S
C30 O31 1.550 . S
C30 H32 0.973 . S
O31 C30 1.550 . S
O31 C37 1.412 . S
H32 C30 0.973 . S
C33 H26 0.929 . S
C33 C34 1.400 . S
C33 C35 1.364 . S
C34 C33 1.400 . S
C34 C38 1.377 . S
C35 C33 1.364 . S
C35 C36 1.374 . S
C36 H27 0.930 . S
C36 C35 1.374 . S
C36 C37 1.383 . S
C37 O31 1.412 . S
C37 C36 1.383 . S
C37 C38 1.394 . S
C38 H28 0.929 . S
C38 C34 1.377 . S
C38 C37 1.394 . S
H39 C46 0.929 . S
H40 C49 0.930 . S
H41 C51 0.929 . S
H42 C43 0.969 . S
C43 H42 0.969 . S
C43 O44 1.550 . S
C43 H45 0.973 . S
O44 C43 1.550 . S
O44 C50 1.412 . S
H45 C43 0.973 . S
C46 H39 0.929 . S
C46 C47 1.400 . S
C46 C48 1.364 . S
C47 C46 1.400 . S
C47 C51 1.377 . S
C48 C46 1.364 . S
C48 C49 1.374 . S
C49 H40 0.930 . S
C49 C48 1.374 . S
C49 C50 1.383 . S
C50 O44 1.412 . S
C50 C49 1.383 . S
C50 C51 1.394 . S
C51 H41 0.929 . S
C51 C47 1.377 . S
C51 C50 1.394 . S
H52 C59 0.929 . S
H53 C62 0.930 . S
H54 C64 0.929 . S
H55 C56 0.969 . S
C56 H55 0.969 . S
C56 O57 1.550 . S
C56 H58 0.973 . S
O57 C56 1.550 . S
O57 C63 1.412 . S
H58 C56 0.973 . S
C59 H52 0.929 . S
C59 C60 1.400 . S
C59 C61 1.364 . S
C60 C59 1.400 . S
C60 C64 1.377 . S
C61 C59 1.364 . S
C61 C62 1.374 . S
C62 H53 0.930 . S
C62 C61 1.374 . S
C62 C63 1.383 . S
C63 O57 1.412 . S
C63 C62 1.383 . S
C63 C64 1.394 . S
C64 H54 0.929 . S
C64 C60 1.377 . S
C64 C63 1.394 . S
H65 C72 0.929 . S
H66 C75 0.930 . S
H67 C77 0.929 . S
H68 C69 0.969 . S
C69 H68 0.969 . S
C69 O70 1.550 . S
C69 H71 0.973 . S
O70 C69 1.550 . S
O70 C76 1.412 . S
H71 C69 0.973 . S
C72 H65 0.929 . S
C72 C73 1.400 . S
C72 C74 1.364 . S
C73 C72 1.400 . S
C73 C77 1.377 . S
C74 C72 1.364 . S
C74 C75 1.374 . S
C75 H66 0.930 . S
C75 C74 1.374 . S
C75 C76 1.383 . S
C76 O70 1.412 . S
C76 C75 1.383 . S
C76 C77 1.394 . S
C77 H67 0.929 . S
C77 C73 1.377 . S
C77 C76 1.394 . S
H78 C85 0.929 . S
H79 C88 0.930 . S
H80 C90 0.929 . S
H81 C82 0.969 . S
C82 H81 0.969 . S
C82 O83 1.550 . S
C82 H84 0.973 . S
O83 C82 1.550 . S
O83 C89 1.412 . S
H84 C82 0.973 . S
C85 H78 0.929 . S
C85 C86 1.400 . S
C85 C87 1.364 . S
C86 C85 1.400 . S
C86 C90 1.377 . S
C87 C85 1.364 . S
C87 C88 1.374 . S
C88 H79 0.930 . S
C88 C87 1.374 . S
C88 C89 1.383 . S
C89 O83 1.412 . S
C89 C88 1.383 . S
C89 C90 1.394 . S
C90 H80 0.929 . S
C90 C86 1.377 . S
C90 C89 1.394 . S
H91 C98 0.929 . S
H92 C101 0.930 . S
H93 C103 0.929 . S
H94 C95 0.969 . S
C95 H94 0.969 . S
C95 O96 1.550 . S
C95 H97 0.973 . S
O96 C95 1.550 . S
O96 C102 1.412 . S
H97 C95 0.973 . S
C98 H91 0.929 . S
C98 C99 1.400 . S
C98 C100 1.364 . S
C99 C98 1.400 . S
C99 C103 1.377 . S
C100 C98 1.364 . S
C100 C101 1.374 . S
C101 H92 0.930 . S
C101 C100 1.374 . S
C101 C102 1.383 . S
C102 O96 1.412 . S
C102 C101 1.383 . S
C102 C103 1.394 . S
C103 H93 0.929 . S
C103 C99 1.377 . S
C103 C102 1.394 . S
C104 C105 1.443 . S
C104 N108 1.376 . S
C104 C142 1.389 . S
C105 C104 1.443 . S
C105 C106 1.340 . S
C105 H145 0.951 . S
C106 C105 1.340 . S
C106 C107 1.439 1_455 S
C106 H146 0.950 . S
C107 C106 1.439 1_655 S
C107 N108 1.374 1_655 S
C107 C141 1.395 . S
N108 C104 1.376 . S
N108 C107 1.374 1_455 S
N108 Co109 2.008 . S
Co109 N108 2.008 . S
Co109 N110 1.995 1_455 S
Co109 N115 2.008 1_455 S
Co109 N120 1.995 . S
Co109 N125 2.282 . S
Co109 N131 2.282 1_455 S
N110 Co109 1.995 1_655 S
N110 C111 1.376 . S
N110 C114 1.383 . S
C111 N110 1.376 . S
C111 C112 1.446 . S
C111 C141 1.391 . S
C112 C111 1.446 . S
C112 C113 1.339 . S
C112 H147 0.949 . S
C113 C112 1.339 . S
C113 C114 1.439 . S
C113 H148 0.950 . S
C114 N110 1.383 . S
C114 C113 1.439 . S
C114 C143 1.392 . S
N115 Co109 2.008 1_655 S
N115 C116 1.376 . S
N115 C119 1.374 1_655 S
C116 N115 1.376 . S
C116 C117 1.443 . S
C116 C143 1.389 . S
C117 C116 1.443 . S
C117 C118 1.340 . S
C117 H149 0.951 . S
C118 C117 1.340 . S
C118 C119 1.439 1_655 S
C118 H150 0.950 . S
C119 N115 1.374 1_455 S
C119 C118 1.439 1_455 S
C119 C144 1.395 . S
N120 Co109 1.995 . S
N120 C121 1.376 . S
N120 C124 1.383 . S
C121 N120 1.376 . S
C121 C122 1.446 . S
C121 C144 1.391 . S
C122 C121 1.446 . S
C122 C123 1.339 . S
C122 H151 0.949 . S
C123 C122 1.339 . S
C123 C124 1.439 . S
C123 H152 0.950 . S
C124 N120 1.383 . S
C124 C123 1.439 . S
C124 C142 1.392 . S
N125 Co109 2.282 . S
N125 C128 1.332 . S
N125 C130 1.332 . S
C126 C127 1.386 . S
C126 C129 1.388 . S
C127 C126 1.386 . S
C127 C128 1.382 . S
C127 H153 0.950 . S
C128 N125 1.332 . S
C128 C127 1.382 . S
C128 H139 0.952 . S
C129 C126 1.388 . S
C129 C130 1.382 . S
C129 H154 0.950 . S
C130 N125 1.332 . S
C130 C129 1.382 . S
C130 H140 0.948 . S
N131 Co109 2.282 1_655 S
N131 C135 1.332 . S
N131 C136 1.332 . S
C132 C133 1.388 . S
C132 C136 1.382 . S
C132 H155 0.950 . S
C133 C132 1.388 . S
C133 C134 1.386 . S
C134 C133 1.386 . S
C134 C135 1.382 . S
C134 H156 0.950 . S
C135 N131 1.332 . S
C135 C134 1.382 . S
C135 H137 0.952 . S
C136 N131 1.332 . S
C136 C132 1.382 . S
C136 H138 0.948 . S
H137 C135 0.952 . S
H138 C136 0.948 . S
H139 C128 0.952 . S
H140 C130 0.948 . S
C141 C107 1.395 . S
C141 C111 1.391 . S
C142 C104 1.389 . S
C142 C124 1.392 . S
C143 C114 1.392 . S
C143 C116 1.389 . S
C144 C119 1.395 . S
C144 C121 1.391 . S
H145 C105 0.951 . S
H146 C106 0.950 . S
H147 C112 0.949 . S
H148 C113 0.950 . S
H149 C117 0.951 . S
H150 C118 0.950 . S
H151 C122 0.949 . S
H152 C123 0.950 . S
H153 C127 0.950 . S
H154 C129 0.950 . S
H155 C132 0.950 . S
H156 C134 0.950 . S
C157 C158 1.443 . S
C157 N161 1.376 . S
C157 C195 1.389 . S
C158 C157 1.443 . S
C158 C159 1.340 . S
C158 H198 0.951 . S
C159 C158 1.340 . S
C159 C160 1.439 . S
C159 H199 0.950 . S
C160 C159 1.439 . S
C160 N161 1.374 . S
C160 C194 1.395 . S
N161 C157 1.376 . S
N161 C160 1.374 . S
N161 Co162 2.008 . S
Co162 N161 2.008 . S
Co162 N163 1.995 . S
Co162 N168 2.008 . S
Co162 N173 1.995 . S
Co162 N178 2.282 . S
Co162 N184 2.282 . S
N163 Co162 1.995 . S
N163 C164 1.376 . S
N163 C167 1.383 . S
C164 N163 1.376 . S
C164 C165 1.446 1_455 S
C164 C194 1.391 . S
C165 C164 1.446 1_655 S
C165 C166 1.339 . S
C165 H200 0.949 . S
C166 C165 1.339 . S
C166 C167 1.439 1_655 S
C166 H201 0.950 . S
C167 N163 1.383 . S
C167 C166 1.439 1_455 S
C167 C196 1.392 . S
N168 Co162 2.008 . S
N168 C169 1.376 . S
N168 C172 1.374 . S
C169 N168 1.376 . S
C169 C170 1.443 . S
C169 C196 1.389 . S
C170 C169 1.443 . S
C170 C171 1.340 . S
C170 H202 0.951 . S
C171 C170 1.340 . S
C171 C172 1.439 . S
C171 H203 0.950 . S
C172 N168 1.374 . S
C172 C171 1.439 . S
C172 C197 1.395 . S
N173 Co162 1.995 . S
N173 C174 1.376 . S
N173 C177 1.383 . S
C174 N173 1.376 . S
C174 C175 1.446 . S
C174 C197 1.391 . S
C175 C174 1.446 . S
C175 C176 1.339 . S
C175 H204 0.949 . S
C176 C175 1.339 . S
C176 C177 1.439 . S
C176 H205 0.950 . S
C177 N173 1.383 . S
C177 C176 1.439 . S
C177 C195 1.392 . S
N178 Co162 2.282 . S
N178 C181 1.332 . S
N178 C183 1.332 . S
C179 C180 1.386 . S
C179 C182 1.388 . S
C180 C179 1.386 . S
C180 C181 1.382 . S
C180 H206 0.950 . S
C181 N178 1.332 . S
C181 C180 1.382 . S
C181 H192 0.952 . S
C182 C179 1.388 . S
C182 C183 1.382 . S
C182 H207 0.950 . S
C183 N178 1.332 . S
C183 C182 1.382 . S
C183 H193 0.948 . S
N184 Co162 2.282 . S
N184 C188 1.332 . S
N184 C189 1.332 . S
C185 C186 1.388 1_455 S
C185 C189 1.382 . S
C185 H208 0.950 . S
C186 C185 1.388 1_655 S
C186 C187 1.386 . S
C187 C186 1.386 . S
C187 C188 1.382 1_655 S
C187 H209 0.950 . S
C188 N184 1.332 . S
C188 C187 1.382 1_455 S
C188 H190 0.952 . S
C189 N184 1.332 . S
C189 C185 1.382 . S
C189 H191 0.948 . S
H190 C188 0.952 . S
H191 C189 0.948 . S
H192 C181 0.952 . S
H193 C183 0.948 . S
C194 C160 1.395 . S
C194 C164 1.391 . S
C195 C157 1.389 . S
C195 C177 1.392 . S
C196 C167 1.392 . S
C196 C169 1.389 . S
C197 C172 1.395 . S
C197 C174 1.391 . S
H198 C158 0.951 . S
H199 C159 0.950 . S
H200 C165 0.949 . S
H201 C166 0.950 . S
H202 C170 0.951 . S
H203 C171 0.950 . S
H204 C175 0.949 . S
H205 C176 0.950 . S
H206 C180 0.950 . S
H207 C182 0.950 . S
H208 C185 0.950 . S
H209 C187 0.950 . S
C210 C211 1.443 . S
C210 N214 1.376 1_565 S
C210 C248 1.389 . S
C211 C210 1.443 . S
C211 C212 1.340 . S
C211 H251 0.951 . S
C212 C211 1.340 . S
C212 C213 1.439 1_565 S
C212 H252 0.943 . S
C213 C212 1.439 1_545 S
C213 N214 1.374 . S
C213 C247 1.395 . S
N214 C210 1.376 1_545 S
N214 C213 1.374 . S
N214 Co215 2.008 . S
Co215 N214 2.008 . S
Co215 N216 1.995 . S
Co215 N221 2.008 . S
Co215 N226 1.995 1_545 S
Co215 N231 2.282 . S
Co215 N237 2.282 1_545 S
N216 Co215 1.995 . S
N216 C217 1.376 . S
N216 C220 1.383 . S
C217 N216 1.376 . S
C217 C218 1.446 . S
C217 C247 1.391 . S
C218 C217 1.446 . S
C218 C219 1.339 . S
C218 H253 0.949 . S
C219 C218 1.339 . S
C219 C220 1.439 . S
C219 H254 0.950 . S
C220 N216 1.383 . S
C220 C219 1.439 . S
C220 C249 1.392 . S
N221 Co215 2.008 . S
N221 C222 1.376 . S
N221 C225 1.374 . S
C222 N221 1.376 . S
C222 C223 1.443 . S
C222 C249 1.389 . S
C223 C222 1.443 . S
C223 C224 1.340 . S
C223 H255 0.951 . S
C224 C223 1.340 . S
C224 C225 1.439 . S
C224 H256 0.950 . S
C225 N221 1.374 . S
C225 C224 1.439 . S
C225 C250 1.395 . S
N226 Co215 1.995 1_565 S
N226 C227 1.376 . S
N226 C230 1.383 . S
C227 N226 1.376 . S
C227 C228 1.446 . S
C227 C250 1.391 1_565 S
C228 C227 1.446 . S
C228 C229 1.339 . S
C228 H257 0.949 . S
C229 C228 1.339 . S
C229 C230 1.439 . S
C229 H258 0.950 . S
C230 N226 1.383 . S
C230 C229 1.439 . S
C230 C248 1.392 . S
N231 Co215 2.282 . S
N231 C234 1.332 . S
N231 C236 1.332 . S
C232 C233 1.386 . S
C232 C235 1.388 . S
C233 C232 1.386 . S
C233 C234 1.382 . S
C233 H259 0.950 . S
C234 N231 1.332 . S
C234 C233 1.382 . S
C234 H245 0.952 . S
C235 C232 1.388 . S
C235 C236 1.382 . S
C235 H260 0.950 . S
C236 N231 1.332 . S
C236 C235 1.382 . S
C236 H246 0.948 . S
N237 Co215 2.282 1_565 S
N237 C241 1.332 . S
N237 C242 1.332 . S
C238 C239 1.388 . S
C238 C242 1.382 . S
C238 H261 0.950 . S
C239 C238 1.388 . S
C239 C240 1.386 . S
C240 C239 1.386 . S
C240 C241 1.382 . S
C240 H262 0.950 . S
C241 N237 1.332 . S
C241 C240 1.382 . S
C241 H243 0.952 1_565 S
C242 N237 1.332 . S
C242 C238 1.382 . S
C242 H244 0.948 . S
H243 C241 0.952 1_545 S
H244 C242 0.948 . S
H245 C234 0.952 . S
H246 C236 0.948 . S
C247 C213 1.395 . S
C247 C217 1.391 . S
C248 C210 1.389 . S
C248 C230 1.392 . S
C249 C220 1.392 . S
C249 C222 1.389 . S
C250 C225 1.395 . S
C250 C227 1.391 1_545 S
H251 C211 0.951 . S
H252 C212 0.943 . S
H253 C218 0.949 . S
H254 C219 0.950 . S
H255 C223 0.951 . S
H256 C224 0.950 . S
H257 C228 0.949 . S
H258 C229 0.950 . S
H259 C233 0.950 . S
H260 C235 0.950 . S
H261 C238 0.950 . S
H262 C240 0.950 . S
C263 C264 1.443 . S
C263 N267 1.376 . S
C263 C301 1.389 . S
C264 C263 1.443 . S
C264 C265 1.340 . S
C264 H304 0.951 . S
C265 C264 1.340 . S
C265 C266 1.439 . S
C265 H305 0.950 . S
C266 C265 1.439 . S
C266 N267 1.374 . S
C266 C300 1.395 . S
N267 C263 1.376 . S
N267 C266 1.374 . S
N267 Co268 2.008 . S
Co268 N267 2.008 . S
Co268 N269 1.995 . S
Co268 N274 2.008 . S
Co268 N279 1.995 . S
Co268 N284 2.282 . S
Co268 N290 2.282 . S
N269 Co268 1.995 . S
N269 C270 1.376 . S
N269 C273 1.383 1_554 S
C270 N269 1.376 . S
C270 C271 1.446 1_554 S
C270 C300 1.391 . S
C271 C270 1.446 1_556 S
C271 C272 1.339 . S
C271 H306 0.949 . S
C272 C271 1.339 . S
C272 C273 1.439 . S
C272 H307 0.950 . S
C273 N269 1.383 1_556 S
C273 C272 1.439 . S
C273 C302 1.392 . S
N274 Co268 2.008 . S
N274 C275 1.376 1_554 S
N274 C278 1.374 . S
C275 N274 1.376 1_556 S
C275 C276 1.443 . S
C275 C302 1.389 . S
C276 C275 1.443 . S
C276 C277 1.340 1_556 S
C276 H308 0.951 . S
C277 C276 1.340 1_554 S
C277 C278 1.439 . S
C277 H309 0.950 . S
C278 N274 1.374 . S
C278 C277 1.439 . S
C278 C303 1.395 . S
N279 Co268 1.995 . S
N279 C280 1.376 . S
N279 C283 1.383 . S
C280 N279 1.376 . S
C280 C281 1.446 . S
C280 C303 1.391 . S
C281 C280 1.446 . S
C281 C282 1.339 . S
C281 H310 0.949 . S
C282 C281 1.339 . S
C282 C283 1.439 . S
C282 H311 0.950 . S
C283 N279 1.383 . S
C283 C282 1.439 . S
C283 C301 1.392 . S
N284 Co268 2.282 . S
N284 C287 1.332 . S
N284 C289 1.332 1_554 S
C285 C286 1.386 . S
C285 C288 1.388 . S
C286 C285 1.386 . S
C286 C287 1.382 1_556 S
C286 H312 0.950 . S
C287 N284 1.332 . S
C287 C286 1.382 1_554 S
C287 H298 0.952 . S
C288 C285 1.388 . S
C288 C289 1.382 . S
C288 H313 0.950 . S
C289 N284 1.332 1_556 S
C289 C288 1.382 . S
C289 H299 0.948 . S
N290 Co268 2.282 . S
N290 C294 1.332 . S
N290 C295 1.332 . S
C291 C292 1.388 . S
C291 C295 1.382 . S
C291 H314 0.950 . S
C292 C291 1.388 . S
C292 C293 1.386 . S
C293 C292 1.386 . S
C293 C294 1.382 . S
C293 H315 0.950 . S
C294 N290 1.332 . S
C294 C293 1.382 . S
C294 H296 0.952 . S
C295 N290 1.332 . S
C295 C291 1.382 . S
C295 H297 0.948 . S
H296 C294 0.952 . S
H297 C295 0.948 . S
H298 C287 0.952 . S
H299 C289 0.948 . S
C300 C266 1.395 . S
C300 C270 1.391 . S
C301 C263 1.389 . S
C301 C283 1.392 . S
C302 C273 1.392 . S
C302 C275 1.389 . S
C303 C278 1.395 . S
C303 C280 1.391 . S
H304 C264 0.951 . S
H305 C265 0.950 . S
H306 C271 0.949 . S
H307 C272 0.950 . S
H308 C276 0.951 . S
H309 C277 0.950 . S
H310 C281 0.949 . S
H311 C282 0.950 . S
H312 C286 0.950 . S
H313 C288 0.950 . S
H314 C291 0.950 . S
H315 C293 0.950 . S
C316 C317 1.443 . S
C316 N320 1.376 . S
C316 C354 1.389 . S
C317 C316 1.443 . S
C317 C318 1.340 . S
C317 H357 0.951 . S
C318 C317 1.340 . S
C318 C319 1.439 . S
C318 H358 0.950 . S
C319 C318 1.439 . S
C319 N320 1.374 . S
C319 C353 1.395 1_565 S
N320 C316 1.376 . S
N320 C319 1.374 . S
N320 Co321 2.008 1_565 S
Co321 N320 2.008 1_545 S
Co321 N322 1.995 . S
Co321 N327 2.008 . S
Co321 N332 1.995 1_545 S
Co321 N337 2.282 . S
Co321 N343 2.282 1_545 S
N322 Co321 1.995 . S
N322 C323 1.376 . S
N322 C326 1.383 . S
C323 N322 1.376 . S
C323 C324 1.446 . S
C323 C353 1.391 . S
C324 C323 1.446 . S
C324 C325 1.339 . S
C324 H359 0.949 . S
C325 C324 1.339 . S
C325 C326 1.439 . S
C325 H360 0.950 . S
C326 N322 1.383 . S
C326 C325 1.439 . S
C326 C355 1.392 . S
N327 Co321 2.008 . S
N327 C328 1.376 . S
N327 C331 1.374 . S
C328 N327 1.376 . S
C328 C329 1.443 . S
C328 C355 1.389 . S
C329 C328 1.443 . S
C329 C330 1.340 . S
C329 H361 0.951 . S
C330 C329 1.340 . S
C330 C331 1.439 . S
C330 H362 0.950 . S
C331 N327 1.374 . S
C331 C330 1.439 . S
C331 C356 1.395 1_545 S
N332 Co321 1.995 1_565 S
N332 C333 1.376 . S
N332 C336 1.383 . S
C333 N332 1.376 . S
C333 C334 1.446 . S
C333 C356 1.391 . S
C334 C333 1.446 . S
C334 C335 1.339 . S
C334 H363 0.949 . S
C335 C334 1.339 . S
C335 C336 1.439 . S
C335 H364 0.950 . S
C336 N332 1.383 . S
C336 C335 1.439 . S
C336 C354 1.392 . S
N337 Co321 2.282 . S
N337 C340 1.332 . S
N337 C342 1.332 . S
C338 C339 1.386 . S
C338 C341 1.388 . S
C339 C338 1.386 . S
C339 C340 1.382 . S
C339 H365 0.950 . S
C340 N337 1.332 . S
C340 C339 1.382 . S
C340 H351 0.952 . S
C341 C338 1.388 . S
C341 C342 1.382 . S
C341 H366 0.950 . S
C342 N337 1.332 . S
C342 C341 1.382 . S
C342 H352 0.948 . S
N343 Co321 2.282 1_565 S
N343 C347 1.332 . S
N343 C348 1.332 . S
C344 C345 1.388 . S
C344 C348 1.382 . S
C344 H367 0.950 . S
C345 C344 1.388 . S
C345 C346 1.386 . S
C346 C345 1.386 . S
C346 C347 1.382 . S
C346 H368 0.950 . S
C347 N343 1.332 . S
C347 C346 1.382 . S
C347 H349 0.952 . S
C348 N343 1.332 . S
C348 C344 1.382 . S
C348 H350 0.948 . S
H349 C347 0.952 . S
H350 C348 0.948 . S
H351 C340 0.952 . S
H352 C342 0.948 . S
C353 C319 1.395 1_545 S
C353 C323 1.391 . S
C354 C316 1.389 . S
C354 C336 1.392 . S
C355 C326 1.392 . S
C355 C328 1.389 . S
C356 C331 1.395 1_565 S
C356 C333 1.391 . S
H357 C317 0.951 . S
H358 C318 0.950 . S
H359 C324 0.949 . S
H360 C325 0.950 . S
H361 C329 0.951 . S
H362 C330 0.950 . S
H363 C334 0.949 . S
H364 C335 0.950 . S
H365 C339 0.950 . S
H366 C341 0.950 . S
H367 C344 0.950 . S
H368 C346 0.950 . S
C369 C370 1.443 . S
C369 N373 1.376 . S
C369 C407 1.389 . S
C370 C369 1.443 . S
C370 C371 1.340 . S
C370 H410 0.951 . S
C371 C370 1.340 . S
C371 C372 1.439 . S
C371 H411 0.950 . S
C372 C371 1.439 . S
C372 N373 1.374 . S
C372 C406 1.395 1_554 S
N373 C369 1.376 . S
N373 C372 1.374 . S
N373 Co374 2.008 . S
Co374 N373 2.008 . S
Co374 N375 1.995 1_554 S
Co374 N380 2.008 1_554 S
Co374 N385 1.995 . S
Co374 N390 2.282 1_554 S
Co374 N396 2.282 . S
N375 Co374 1.995 1_556 S
N375 C376 1.376 . S
N375 C379 1.383 . S
C376 N375 1.376 . S
C376 C377 1.446 . S
C376 C406 1.391 . S
C377 C376 1.446 . S
C377 C378 1.339 . S
C377 H412 0.949 . S
C378 C377 1.339 . S
C378 C379 1.439 . S
C378 H413 0.950 . S
C379 N375 1.383 . S
C379 C378 1.439 . S
C379 C408 1.392 . S
N380 Co374 2.008 1_556 S
N380 C381 1.376 . S
N380 C384 1.374 . S
C381 N380 1.376 . S
C381 C382 1.443 . S
C381 C408 1.389 . S
C382 C381 1.443 . S
C382 C383 1.340 . S
C382 H414 0.951 . S
C383 C382 1.340 . S
C383 C384 1.439 . S
C383 H415 0.950 . S
C384 N380 1.374 . S
C384 C383 1.439 . S
C384 C409 1.395 1_556 S
N385 Co374 1.995 . S
N385 C386 1.376 . S
N385 C389 1.383 . S
C386 N385 1.376 . S
C386 C387 1.446 . S
C386 C409 1.391 . S
C387 C386 1.446 . S
C387 C388 1.339 . S
C387 H416 0.949 . S
C388 C387 1.339 . S
C388 C389 1.439 . S
C388 H417 0.950 . S
C389 N385 1.383 . S
C389 C388 1.439 . S
C389 C407 1.392 . S
N390 Co374 2.282 1_556 S
N390 C393 1.332 . S
N390 C395 1.332 . S
C391 C392 1.386 . S
C391 C394 1.388 . S
C392 C391 1.386 . S
C392 C393 1.382 . S
C392 H418 0.950 . S
C393 N390 1.332 . S
C393 C392 1.382 . S
C393 H404 0.952 . S
C394 C391 1.388 . S
C394 C395 1.382 . S
C394 H419 0.950 . S
C395 N390 1.332 . S
C395 C394 1.382 . S
C395 H405 0.948 . S
N396 Co374 2.282 . S
N396 C400 1.332 . S
N396 C401 1.332 . S
C397 C398 1.388 . S
C397 C401 1.382 . S
C397 H420 0.950 . S
C398 C397 1.388 . S
C398 C399 1.386 . S
C399 C398 1.386 . S
C399 C400 1.382 . S
C399 H421 0.950 . S
C400 N396 1.332 . S
C400 C399 1.382 . S
C400 H402 0.952 . S
C401 N396 1.332 . S
C401 C397 1.382 . S
C401 H403 0.948 . S
H402 C400 0.952 . S
H403 C401 0.948 . S
H404 C393 0.952 . S
H405 C395 0.948 . S
C406 C372 1.395 1_556 S
C406 C376 1.391 . S
C407 C369 1.389 . S
C407 C389 1.392 . S
C408 C379 1.392 . S
C408 C381 1.389 . S
C409 C384 1.395 1_554 S
C409 C386 1.391 . S
H410 C370 0.951 . S
H411 C371 0.950 . S
H412 C377 0.949 . S
H413 C378 0.950 . S
H414 C382 0.951 . S
H415 C383 0.950 . S
H416 C387 0.949 . S
H417 C388 0.950 . S
H418 C392 0.950 . S
H419 C394 0.950 . S
H420 C397 0.950 . S
H421 C399 0.950 . S
H422 C430 0.929 . S
H423 C432 0.930 . S
H424 C434 0.930 . S
H425 C437 0.929 . S
H426 C440 0.930 . S
H427 C442 0.960 . S
H428 C442 0.960 . S
H429 C442 0.960 . S
C430 H422 0.929 . S
C430 C431 1.377 . S
C430 C432 1.384 . S
C431 C430 1.377 . S
C431 C437 1.390 . S
C432 H423 0.930 . S
C432 C430 1.384 . S
C432 C433 1.372 . S
C433 C432 1.372 . S
C433 C434 1.400 . S
C433 C438 1.490 . S
C434 H424 0.930 . S
C434 C433 1.400 . S
C434 C437 1.386 . S
H435 C451 0.930 . S
H436 C452 0.931 . S
C437 H425 0.929 . S
C437 C431 1.390 . S
C437 C434 1.386 . S
C438 C433 1.490 . S
C438 C440 1.395 . S
C438 C441 1.403 . S
H439 C445 0.930 . S
C440 H426 0.930 . S
C440 C438 1.395 . S
C440 C443 1.403 . S
C441 C438 1.403 . S
C441 C442 1.524 . S
C441 C445 1.400 . S
C442 H427 0.960 . S
C442 H428 0.960 . S
C442 H429 0.960 . S
C442 C441 1.524 . S
C443 C440 1.403 . S
C443 C444 1.392 . S
C443 C447 1.495 . S
C444 C443 1.392 . S
C444 C445 1.385 . S
C444 C446 1.478 . S
C445 H439 0.930 . S
C445 C441 1.400 . S
C445 C444 1.385 . S
C446 C444 1.478 . S
C446 C448 1.381 . S
C446 C452 1.383 . S
C447 C443 1.495 . S
C447 H453 0.959 . S
C447 H454 0.961 . S
C447 H455 0.960 . S
C448 C446 1.381 . S
C448 C449 1.394 . S
C448 H456 0.930 . S
C449 C448 1.394 . S
C449 C450 1.383 . S
C449 H457 0.929 . S
C450 C449 1.383 . S
C450 C451 1.377 . S
C451 H435 0.930 . S
C451 C450 1.377 . S
C451 C452 1.379 . S
C452 H436 0.931 . S
C452 C446 1.383 . S
C452 C451 1.379 . S
H453 C447 0.959 . S
H454 C447 0.961 . S
H455 C447 0.960 . S
H456 C448 0.930 . S
H457 C449 0.929 . S
H458 C466 0.929 . S
H459 C468 0.930 . S
H460 C470 0.930 . S
H461 C473 0.929 . S
H462 C476 0.930 . S
H463 C478 0.960 . S
H464 C478 0.960 . S
H465 C478 0.960 . S
C466 H458 0.929 . S
C466 C467 1.377 . S
C466 C468 1.384 . S
C467 C466 1.377 . S
C467 C473 1.390 . S
C468 H459 0.930 . S
C468 C466 1.384 . S
C468 C469 1.372 . S
C469 C468 1.372 . S
C469 C470 1.400 . S
C469 C474 1.490 . S
C470 H460 0.930 . S
C470 C469 1.400 . S
C470 C473 1.386 . S
H471 C487 0.930 . S
H472 C488 0.931 . S
C473 H461 0.929 . S
C473 C467 1.390 . S
C473 C470 1.386 . S
C474 C469 1.490 . S
C474 C476 1.395 . S
C474 C477 1.403 . S
H475 C481 0.930 . S
C476 H462 0.930 . S
C476 C474 1.395 . S
C476 C479 1.403 . S
C477 C474 1.403 . S
C477 C478 1.524 . S
C477 C481 1.400 . S
C478 H463 0.960 . S
C478 H464 0.960 . S
C478 H465 0.960 . S
C478 C477 1.524 . S
C479 C476 1.403 . S
C479 C480 1.392 . S
C479 C483 1.495 . S
C480 C479 1.392 . S
C480 C481 1.385 . S
C480 C482 1.478 . S
C481 H475 0.930 . S
C481 C477 1.400 . S
C481 C480 1.385 . S
C482 C480 1.478 . S
C482 C484 1.381 . S
C482 C488 1.383 . S
C483 C479 1.495 . S
C483 H489 0.959 . S
C483 H490 0.961 . S
C483 H491 0.960 . S
C484 C482 1.381 . S
C484 C485 1.394 . S
C484 H492 0.930 . S
C485 C484 1.394 . S
C485 C486 1.383 . S
C485 H493 0.929 . S
C486 C485 1.383 . S
C486 C487 1.377 . S
C487 H471 0.930 . S
C487 C486 1.377 . S
C487 C488 1.379 . S
C488 H472 0.931 . S
C488 C482 1.383 . S
C488 C487 1.379 . S
H489 C483 0.959 . S
H490 C483 0.961 . S
H491 C483 0.960 . S
H492 C484 0.930 . S
H493 C485 0.929 . S
H494 C502 0.929 . S
H495 C504 0.930 . S
H496 C506 0.930 . S
H497 C509 0.929 . S
H498 C512 0.930 . S
H499 C514 0.960 . S
H500 C514 0.960 . S
H501 C514 0.960 . S
C502 H494 0.929 . S
C502 C503 1.377 . S
C502 C504 1.384 . S
C503 C502 1.377 . S
C503 C509 1.390 . S
C504 H495 0.930 . S
C504 C502 1.384 . S
C504 C505 1.372 . S
C505 C504 1.372 . S
C505 C506 1.400 . S
C505 C510 1.490 . S
C506 H496 0.930 . S
C506 C505 1.400 . S
C506 C509 1.386 . S
H507 C523 0.930 . S
H508 C524 0.931 . S
C509 H497 0.929 . S
C509 C503 1.390 . S
C509 C506 1.386 . S
C510 C505 1.490 . S
C510 C512 1.395 . S
C510 C513 1.403 . S
H511 C517 0.930 . S
C512 H498 0.930 . S
C512 C510 1.395 . S
C512 C515 1.403 . S
C513 C510 1.403 . S
C513 C514 1.524 . S
C513 C517 1.400 . S
C514 H499 0.960 . S
C514 H500 0.960 . S
C514 H501 0.960 . S
C514 C513 1.524 . S
C515 C512 1.403 . S
C515 C516 1.392 . S
C515 C519 1.495 . S
C516 C515 1.392 . S
C516 C517 1.385 . S
C516 C518 1.478 . S
C517 H511 0.930 . S
C517 C513 1.400 . S
C517 C516 1.385 . S
C518 C516 1.478 . S
C518 C520 1.381 . S
C518 C524 1.383 . S
C519 C515 1.495 . S
C519 H525 0.959 . S
C519 H526 0.961 . S
C519 H527 0.960 . S
C520 C518 1.381 . S
C520 C521 1.394 . S
C520 H528 0.930 . S
C521 C520 1.394 . S
C521 C522 1.383 . S
C521 H529 0.929 . S
C522 C521 1.383 . S
C522 C523 1.377 . S
C523 H507 0.930 . S
C523 C522 1.377 . S
C523 C524 1.379 . S
C524 H508 0.931 . S
C524 C518 1.383 . S
C524 C523 1.379 . S
H525 C519 0.959 . S
H526 C519 0.961 . S
H527 C519 0.960 . S
H528 C520 0.930 . S
H529 C521 0.929 . S
H530 C538 0.929 . S
H531 C540 0.930 . S
H532 C542 0.930 . S
H533 C545 0.929 . S
H534 C548 0.930 . S
H535 C550 0.960 . S
H536 C550 0.960 . S
H537 C550 0.960 . S
C538 H530 0.929 . S
C538 C539 1.377 . S
C538 C540 1.384 . S
C539 C538 1.377 . S
C539 C545 1.390 . S
C540 H531 0.930 . S
C540 C538 1.384 . S
C540 C541 1.372 . S
C541 C540 1.372 . S
C541 C542 1.400 . S
C541 C546 1.490 . S
C542 H532 0.930 . S
C542 C541 1.400 . S
C542 C545 1.386 . S
H543 C559 0.930 1_455 S
H544 C560 0.931 . S
C545 H533 0.929 . S
C545 C539 1.390 . S
C545 C542 1.386 . S
C546 C541 1.490 . S
C546 C548 1.395 . S
C546 C549 1.403 . S
H547 C553 0.930 . S
C548 H534 0.930 . S
C548 C546 1.395 . S
C548 C551 1.403 . S
C549 C546 1.403 . S
C549 C550 1.524 . S
C549 C553 1.400 . S
C550 H535 0.960 . S
C550 H536 0.960 . S
C550 H537 0.960 . S
C550 C549 1.524 . S
C551 C548 1.403 . S
C551 C552 1.392 . S
C551 C555 1.495 . S
C552 C551 1.392 . S
C552 C553 1.385 . S
C552 C554 1.478 . S
C553 H547 0.930 . S
C553 C549 1.400 . S
C553 C552 1.385 . S
C554 C552 1.478 . S
C554 C556 1.381 . S
C554 C560 1.383 . S
C555 C551 1.495 . S
C555 H561 0.959 . S
C555 H562 0.961 . S
C555 H563 0.960 . S
C556 C554 1.381 . S
C556 C557 1.394 . S
C556 H564 0.930 . S
C557 C556 1.394 . S
C557 C558 1.383 . S
C557 H565 0.929 . S
C558 C557 1.383 . S
C558 C559 1.377 . S
C559 H543 0.930 1_655 S
C559 C558 1.377 . S
C559 C560 1.379 . S
C560 H544 0.931 . S
C560 C554 1.383 . S
C560 C559 1.379 . S
H561 C555 0.959 . S
H562 C555 0.961 . S
H563 C555 0.960 . S
H564 C556 0.930 . S
H565 C557 0.929 . S
H566 C574 0.929 . S
H567 C576 0.930 . S
H568 C578 0.930 . S
H569 C581 0.929 . S
H570 C584 0.930 . S
H571 C586 0.960 . S
H572 C586 0.960 . S
H573 C586 0.960 . S
C574 H566 0.929 . S
C574 C575 1.377 . S
C574 C576 1.384 . S
C575 C574 1.377 . S
C575 C581 1.390 . S
C576 H567 0.930 . S
C576 C574 1.384 . S
C576 C577 1.372 . S
C577 C576 1.372 . S
C577 C578 1.400 . S
C577 C582 1.490 . S
C578 H568 0.930 . S
C578 C577 1.400 . S
C578 C581 1.386 . S
H579 C595 0.930 . S
H580 C596 0.931 . S
C581 H569 0.929 . S
C581 C575 1.390 . S
C581 C578 1.386 . S
C582 C577 1.490 . S
C582 C584 1.395 . S
C582 C585 1.403 . S
H583 C589 0.930 . S
C584 H570 0.930 . S
C584 C582 1.395 . S
C584 C587 1.403 . S
C585 C582 1.403 . S
C585 C586 1.524 . S
C585 C589 1.400 . S
C586 H571 0.960 . S
C586 H572 0.960 . S
C586 H573 0.960 . S
C586 C585 1.524 . S
C587 C584 1.403 . S
C587 C588 1.392 . S
C587 C591 1.495 . S
C588 C587 1.392 . S
C588 C589 1.385 . S
C588 C590 1.478 . S
C589 H583 0.930 . S
C589 C585 1.400 . S
C589 C588 1.385 . S
C590 C588 1.478 . S
C590 C592 1.381 . S
C590 C596 1.383 . S
C591 C587 1.495 . S
C591 H597 0.959 . S
C591 H598 0.961 . S
C591 H599 0.960 . S
C592 C590 1.381 . S
C592 C593 1.394 . S
C592 H600 0.930 . S
C593 C592 1.394 . S
C593 C594 1.383 . S
C593 H601 0.929 . S
C594 C593 1.383 . S
C594 C595 1.377 . S
C595 H579 0.930 . S
C595 C594 1.377 . S
C595 C596 1.379 . S
C596 H580 0.931 . S
C596 C590 1.383 . S
C596 C595 1.379 . S
H597 C591 0.959 . S
H598 C591 0.961 . S
H599 C591 0.960 . S
H600 C592 0.930 . S
H601 C593 0.929 . S
H602 C610 0.929 . S
H603 C612 0.930 . S
H604 C614 0.930 . S
H605 C617 0.929 . S
H606 C620 0.930 . S
H607 C622 0.960 . S
H608 C622 0.960 . S
H609 C622 0.960 . S
C610 H602 0.929 . S
C610 C611 1.377 . S
C610 C612 1.384 . S
C611 C610 1.377 . S
C611 C617 1.390 . S
C612 H603 0.930 . S
C612 C610 1.384 . S
C612 C613 1.372 . S
C613 C612 1.372 . S
C613 C614 1.400 . S
C613 C618 1.490 . S
C614 H604 0.930 . S
C614 C613 1.400 . S
C614 C617 1.386 . S
H615 C631 0.930 . S
H616 C632 0.931 . S
C617 H605 0.929 . S
C617 C611 1.390 . S
C617 C614 1.386 . S
C618 C613 1.490 . S
C618 C620 1.395 . S
C618 C621 1.403 . S
H619 C625 0.930 . S
C620 H606 0.930 . S
C620 C618 1.395 . S
C620 C623 1.403 . S
C621 C618 1.403 . S
C621 C622 1.524 . S
C621 C625 1.400 . S
C622 H607 0.960 . S
C622 H608 0.960 . S
C622 H609 0.960 . S
C622 C621 1.524 . S
C623 C620 1.403 . S
C623 C624 1.392 . S
C623 C627 1.495 . S
C624 C623 1.392 . S
C624 C625 1.385 . S
C624 C626 1.478 . S
C625 H619 0.930 . S
C625 C621 1.400 . S
C625 C624 1.385 . S
C626 C624 1.478 . S
C626 C628 1.381 . S
C626 C632 1.383 . S
C627 C623 1.495 . S
C627 H633 0.959 . S
C627 H634 0.961 . S
C627 H635 0.960 . S
C628 C626 1.381 . S
C628 C629 1.394 . S
C628 H636 0.930 . S
C629 C628 1.394 . S
C629 C630 1.383 . S
C629 H637 0.929 . S
C630 C629 1.383 . S
C630 C631 1.377 . S
C631 H615 0.930 . S
C631 C630 1.377 . S
C631 C632 1.379 . S
C632 H616 0.931 . S
C632 C626 1.383 . S
C632 C631 1.379 . S
H633 C627 0.959 . S
H634 C627 0.961 . S
H635 C627 0.960 . S
H636 C628 0.930 . S
H637 C629 0.929 . S
H638 C646 0.929 . S
H639 C648 0.930 . S
H640 C650 0.930 . S
H641 C653 0.929 . S
H642 C656 0.930 . S
H643 C658 0.960 . S
H644 C658 0.960 . S
H645 C658 0.960 . S
C646 H638 0.929 . S
C646 C647 1.377 . S
C646 C648 1.384 . S
C647 C646 1.377 . S
C647 C653 1.390 . S
C648 H639 0.930 . S
C648 C646 1.384 . S
C648 C649 1.372 . S
C649 C648 1.372 . S
C649 C650 1.400 . S
C649 C654 1.490 . S
C650 H640 0.930 . S
C650 C649 1.400 . S
C650 C653 1.386 . S
H651 C667 0.930 . S
H652 C668 0.931 . S
C653 H641 0.929 . S
C653 C647 1.390 . S
C653 C650 1.386 . S
C654 C649 1.490 . S
C654 C656 1.395 . S
C654 C657 1.403 . S
H655 C661 0.930 . S
C656 H642 0.930 . S
C656 C654 1.395 . S
C656 C659 1.403 . S
C657 C654 1.403 . S
C657 C658 1.524 . S
C657 C661 1.400 . S
C658 H643 0.960 . S
C658 H644 0.960 . S
C658 H645 0.960 . S
C658 C657 1.524 . S
C659 C656 1.403 . S
C659 C660 1.392 . S
C659 C663 1.495 . S
C660 C659 1.392 . S
C660 C661 1.385 . S
C660 C662 1.478 . S
C661 H655 0.930 . S
C661 C657 1.400 . S
C661 C660 1.385 . S
C662 C660 1.478 . S
C662 C664 1.381 . S
C662 C668 1.383 . S
C663 C659 1.495 . S
C663 H669 0.959 . S
C663 H670 0.961 . S
C663 H671 0.960 . S
C664 C662 1.381 . S
C664 C665 1.394 . S
C664 H672 0.930 . S
C665 C664 1.394 . S
C665 C666 1.383 . S
C665 H673 0.929 . S
C666 C665 1.383 . S
C666 C667 1.377 . S
C667 H651 0.930 . S
C667 C666 1.377 . S
C667 C668 1.379 . S
C668 H652 0.931 . S
C668 C662 1.383 . S
C668 C667 1.379 . S
H669 C663 0.959 . S
H670 C663 0.961 . S
H671 C663 0.960 . S
H672 C664 0.930 . S
H673 C665 0.929 . S
H674 C682 0.929 . S
H675 C684 0.930 . S
H676 C686 0.930 . S
H677 C689 0.929 . S
H678 C692 0.930 . S
H679 C694 0.960 . S
H680 C694 0.960 . S
H681 C694 0.960 . S
C682 H674 0.929 . S
C682 C683 1.377 . S
C682 C684 1.384 . S
C683 C682 1.377 . S
C683 C689 1.390 . S
C684 H675 0.930 . S
C684 C682 1.384 . S
C684 C685 1.372 . S
C685 C684 1.372 . S
C685 C686 1.400 . S
C685 C690 1.490 . S
C686 H676 0.930 . S
C686 C685 1.400 . S
C686 C689 1.386 . S
H687 C703 0.930 . S
H688 C704 0.931 . S
C689 H677 0.929 . S
C689 C683 1.390 . S
C689 C686 1.386 . S
C690 C685 1.490 . S
C690 C692 1.395 . S
C690 C693 1.403 . S
H691 C697 0.930 . S
C692 H678 0.930 . S
C692 C690 1.395 . S
C692 C695 1.403 . S
C693 C690 1.403 . S
C693 C694 1.524 . S
C693 C697 1.400 . S
C694 H679 0.960 . S
C694 H680 0.960 . S
C694 H681 0.960 . S
C694 C693 1.524 . S
C695 C692 1.403 . S
C695 C696 1.392 . S
C695 C699 1.495 . S
C696 C695 1.392 . S
C696 C697 1.385 . S
C696 C698 1.478 . S
C697 H691 0.930 . S
C697 C693 1.400 . S
C697 C696 1.385 . S
C698 C696 1.478 . S
C698 C700 1.381 . S
C698 C704 1.383 . S
C699 C695 1.495 . S
C699 H705 0.959 . S
C699 H706 0.961 . S
C699 H707 0.960 . S
C700 C698 1.381 . S
C700 C701 1.394 . S
C700 H708 0.930 . S
C701 C700 1.394 . S
C701 C702 1.383 . S
C701 H709 0.929 . S
C702 C701 1.383 . S
C702 C703 1.377 . S
C703 H687 0.930 . S
C703 C702 1.377 . S
C703 C704 1.379 . S
C704 H688 0.931 . S
C704 C698 1.383 . S
C704 C703 1.379 . S
H705 C699 0.959 . S
H706 C699 0.961 . S
H707 C699 0.960 . S
H708 C700 0.930 . S
H709 C701 0.929 . S
H710 C718 0.929 . S
H711 C720 0.930 . S
H712 C722 0.930 . S
H713 C725 0.929 . S
H714 C728 0.930 . S
H715 C730 0.960 . S
H716 C730 0.960 . S
H717 C730 0.960 . S
C718 H710 0.929 . S
C718 C719 1.377 . S
C718 C720 1.384 . S
C719 C718 1.377 . S
C719 C725 1.390 . S
C720 H711 0.930 . S
C720 C718 1.384 . S
C720 C721 1.372 . S
C721 C720 1.372 . S
C721 C722 1.400 . S
C721 C726 1.490 . S
C722 H712 0.930 . S
C722 C721 1.400 . S
C722 C725 1.386 . S
H723 C739 0.930 . S
H724 C740 0.931 . S
C725 H713 0.929 . S
C725 C719 1.390 . S
C725 C722 1.386 . S
C726 C721 1.490 . S
C726 C728 1.395 . S
C726 C729 1.403 . S
H727 C733 0.930 . S
C728 H714 0.930 . S
C728 C726 1.395 . S
C728 C731 1.403 . S
C729 C726 1.403 . S
C729 C730 1.524 . S
C729 C733 1.400 . S
C730 H715 0.960 . S
C730 H716 0.960 . S
C730 H717 0.960 . S
C730 C729 1.524 . S
C731 C728 1.403 . S
C731 C732 1.392 . S
C731 C735 1.495 . S
C732 C731 1.392 . S
C732 C733 1.385 . S
C732 C734 1.478 . S
C733 H727 0.930 . S
C733 C729 1.400 . S
C733 C732 1.385 . S
C734 C732 1.478 . S
C734 C736 1.381 . S
C734 C740 1.383 . S
C735 C731 1.495 . S
C735 H741 0.959 . S
C735 H742 0.961 . S
C735 H743 0.960 . S
C736 C734 1.381 . S
C736 C737 1.394 . S
C736 H744 0.930 . S
C737 C736 1.394 . S
C737 C738 1.383 . S
C737 H745 0.929 . S
C738 C737 1.383 . S
C738 C739 1.377 . S
C739 H723 0.930 . S
C739 C738 1.377 . S
C739 C740 1.379 . S
C740 H724 0.931 . S
C740 C734 1.383 . S
C740 C739 1.379 . S
H741 C735 0.959 . S
H742 C735 0.961 . S
H743 C735 0.960 . S
H744 C736 0.930 . S
H745 C737 0.929 . S
H746 C754 0.929 . S
H747 C756 0.930 . S
H748 C758 0.930 . S
H749 C761 0.929 . S
H750 C764 0.930 . S
H751 C766 0.960 . S
H752 C766 0.960 . S
H753 C766 0.960 . S
C754 H746 0.929 . S
C754 C755 1.377 . S
C754 C756 1.384 . S
C755 C754 1.377 . S
C755 C761 1.390 . S
C756 H747 0.930 . S
C756 C754 1.384 . S
C756 C757 1.372 . S
C757 C756 1.372 . S
C757 C758 1.400 . S
C757 C762 1.490 . S
C758 H748 0.930 . S
C758 C757 1.400 . S
C758 C761 1.386 . S
H759 C775 0.930 . S
H760 C776 0.931 . S
C761 H749 0.929 . S
C761 C755 1.390 . S
C761 C758 1.386 . S
C762 C757 1.490 . S
C762 C764 1.395 . S
C762 C765 1.403 . S
H763 C769 0.930 . S
C764 H750 0.930 . S
C764 C762 1.395 . S
C764 C767 1.403 . S
C765 C762 1.403 . S
C765 C766 1.524 . S
C765 C769 1.400 . S
C766 H751 0.960 . S
C766 H752 0.960 . S
C766 H753 0.960 . S
C766 C765 1.524 . S
C767 C764 1.403 . S
C767 C768 1.392 . S
C767 C771 1.495 . S
C768 C767 1.392 . S
C768 C769 1.385 . S
C768 C770 1.478 . S
C769 H763 0.930 . S
C769 C765 1.400 . S
C769 C768 1.385 . S
C770 C768 1.478 . S
C770 C772 1.381 . S
C770 C776 1.383 . S
C771 C767 1.495 . S
C771 H777 0.959 . S
C771 H778 0.961 . S
C771 H779 0.960 . S
C772 C770 1.381 . S
C772 C773 1.394 . S
C772 H780 0.930 . S
C773 C772 1.394 . S
C773 C774 1.383 . S
C773 H781 0.929 . S
C774 C773 1.383 . S
C774 C775 1.377 . S
C775 H759 0.930 . S
C775 C774 1.377 . S
C775 C776 1.379 . S
C776 H760 0.931 . S
C776 C770 1.383 . S
C776 C775 1.379 . S
H777 C771 0.959 . S
H778 C771 0.961 . S
H779 C771 0.960 . S
H780 C772 0.930 . S
H781 C773 0.929 . S
H782 C790 0.929 . S
H783 C792 0.930 . S
H784 C794 0.930 . S
H785 C797 0.929 . S
H786 C800 0.930 . S
H787 C802 0.960 . S
H788 C802 0.960 . S
H789 C802 0.960 . S
C790 H782 0.929 . S
C790 C791 1.377 . S
C790 C792 1.384 . S
C791 C790 1.377 . S
C791 C797 1.390 . S
C792 H783 0.930 . S
C792 C790 1.384 . S
C792 C793 1.372 . S
C793 C792 1.372 . S
C793 C794 1.400 . S
C793 C798 1.490 . S
C794 H784 0.930 . S
C794 C793 1.400 . S
C794 C797 1.386 . S
H795 C811 0.930 . S
H796 C812 0.931 . S
C797 H785 0.929 . S
C797 C791 1.390 . S
C797 C794 1.386 . S
C798 C793 1.490 . S
C798 C800 1.395 . S
C798 C801 1.403 . S
H799 C805 0.930 . S
C800 H786 0.930 . S
C800 C798 1.395 . S
C800 C803 1.403 . S
C801 C798 1.403 . S
C801 C802 1.524 . S
C801 C805 1.400 . S
C802 H787 0.960 . S
C802 H788 0.960 . S
C802 H789 0.960 . S
C802 C801 1.524 . S
C803 C800 1.403 . S
C803 C804 1.392 . S
C803 C807 1.495 . S
C804 C803 1.392 . S
C804 C805 1.385 . S
C804 C806 1.478 . S
C805 H799 0.930 . S
C805 C801 1.400 . S
C805 C804 1.385 . S
C806 C804 1.478 . S
C806 C808 1.381 . S
C806 C812 1.383 . S
C807 C803 1.495 . S
C807 H813 0.959 . S
C807 H814 0.961 . S
C807 H815 0.960 . S
C808 C806 1.381 . S
C808 C809 1.394 . S
C808 H816 0.930 . S
C809 C808 1.394 . S
C809 C810 1.383 . S
C809 H817 0.929 . S
C810 C809 1.383 . S
C810 C811 1.377 . S
C811 H795 0.930 . S
C811 C810 1.377 . S
C811 C812 1.379 . S
C812 H796 0.931 . S
C812 C806 1.383 . S
C812 C811 1.379 . S
H813 C807 0.959 . S
H814 C807 0.961 . S
H815 C807 0.960 . S
H816 C808 0.930 . S
H817 C809 0.929 . S
H818 C826 0.929 . S
H819 C828 0.930 . S
H820 C830 0.930 . S
H821 C833 0.929 . S
H822 C836 0.930 . S
H823 C838 0.960 . S
H824 C838 0.960 . S
H825 C838 0.960 . S
C826 H818 0.929 . S
C826 C827 1.377 . S
C826 C828 1.384 . S
C827 C826 1.377 . S
C827 C833 1.390 . S
C828 H819 0.930 . S
C828 C826 1.384 . S
C828 C829 1.372 . S
C829 C828 1.372 . S
C829 C830 1.400 . S
C829 C834 1.490 . S
C830 H820 0.930 . S
C830 C829 1.400 . S
C830 C833 1.386 . S
H831 C847 0.930 . S
H832 C848 0.931 . S
C833 H821 0.929 . S
C833 C827 1.390 . S
C833 C830 1.386 . S
C834 C829 1.490 . S
C834 C836 1.395 . S
C834 C837 1.403 . S
H835 C841 0.930 . S
C836 H822 0.930 . S
C836 C834 1.395 . S
C836 C839 1.403 . S
C837 C834 1.403 . S
C837 C838 1.524 . S
C837 C841 1.400 . S
C838 H823 0.960 . S
C838 H824 0.960 . S
C838 H825 0.960 . S
C838 C837 1.524 . S
C839 C836 1.403 . S
C839 C840 1.392 . S
C839 C843 1.495 . S
C840 C839 1.392 . S
C840 C841 1.385 . S
C840 C842 1.478 . S
C841 H835 0.930 . S
C841 C837 1.400 . S
C841 C840 1.385 . S
C842 C840 1.478 . S
C842 C844 1.381 . S
C842 C848 1.383 . S
C843 C839 1.495 . S
C843 H849 0.959 . S
C843 H850 0.961 . S
C843 H851 0.960 . S
C844 C842 1.381 . S
C844 C845 1.394 . S
C844 H852 0.930 . S
C845 C844 1.394 . S
C845 C846 1.383 . S
C845 H853 0.929 . S
C846 C845 1.383 . S
C846 C847 1.377 . S
C847 H831 0.930 . S
C847 C846 1.377 . S
C847 C848 1.379 . S
C848 H832 0.931 . S
C848 C842 1.383 . S
C848 C847 1.379 . S
H849 C843 0.959 . S
H850 C843 0.961 . S
H851 C843 0.960 . S
H852 C844 0.930 . S
H853 C845 0.929 . S
H854 C862 0.929 . S
H855 C864 0.930 . S
H856 C866 0.930 . S
H857 C869 0.929 . S
H858 C872 0.930 . S
H859 C874 0.960 . S
H860 C874 0.960 . S
H861 C874 0.960 . S
C862 H854 0.929 . S
C862 C863 1.377 . S
C862 C864 1.384 . S
C863 C862 1.377 . S
C863 C869 1.390 . S
C864 H855 0.930 . S
C864 C862 1.384 . S
C864 C865 1.372 . S
C865 C864 1.372 . S
C865 C866 1.400 . S
C865 C870 1.490 . S
C866 H856 0.930 . S
C866 C865 1.400 . S
C866 C869 1.386 . S
H867 C883 0.930 . S
H868 C884 0.931 . S
C869 H857 0.929 . S
C869 C863 1.390 . S
C869 C866 1.386 . S
C870 C865 1.490 . S
C870 C872 1.395 . S
C870 C873 1.403 . S
H871 C877 0.930 . S
C872 H858 0.930 . S
C872 C870 1.395 . S
C872 C875 1.403 . S
C873 C870 1.403 . S
C873 C874 1.524 . S
C873 C877 1.400 . S
C874 H859 0.960 . S
C874 H860 0.960 . S
C874 H861 0.960 . S
C874 C873 1.524 . S
C875 C872 1.403 . S
C875 C876 1.392 . S
C875 C879 1.495 . S
C876 C875 1.392 . S
C876 C877 1.385 . S
C876 C878 1.478 . S
C877 H871 0.930 . S
C877 C873 1.400 . S
C877 C876 1.385 . S
C878 C876 1.478 . S
C878 C880 1.381 . S
C878 C884 1.383 . S
C879 C875 1.495 . S
C879 H885 0.959 . S
C879 H886 0.961 . S
C879 H887 0.960 . S
C880 C878 1.381 . S
C880 C881 1.394 . S
C880 H888 0.930 . S
C881 C880 1.394 . S
C881 C882 1.383 . S
C881 H889 0.931 . S
C882 C881 1.383 . S
C882 C883 1.377 . S
C883 H867 0.930 . S
C883 C882 1.377 . S
C883 C884 1.379 . S
C884 H868 0.931 . S
C884 C878 1.383 . S
C884 C883 1.379 . S
H885 C879 0.959 . S
H886 C879 0.961 . S
H887 C879 0.960 . S
H888 C880 0.930 . S
H889 C881 0.931 . S
H890 C898 0.929 . S
H891 C900 0.930 . S
H892 C902 0.930 . S
H893 C905 0.929 . S
H894 C908 0.930 . S
H895 C910 0.960 . S
H896 C910 0.960 . S
H897 C910 0.960 . S
C898 H890 0.929 . S
C898 C899 1.377 . S
C898 C900 1.384 . S
C899 C898 1.377 . S
C899 C905 1.390 . S
C900 H891 0.930 . S
C900 C898 1.384 . S
C900 C901 1.372 . S
C901 C900 1.372 . S
C901 C902 1.400 . S
C901 C906 1.490 . S
C902 H892 0.930 . S
C902 C901 1.400 . S
C902 C905 1.386 . S
H903 C919 0.930 . S
H904 C920 0.931 . S
C905 H893 0.929 . S
C905 C899 1.390 . S
C905 C902 1.386 . S
C906 C901 1.490 . S
C906 C908 1.395 . S
C906 C909 1.403 . S
H907 C913 0.930 . S
C908 H894 0.930 . S
C908 C906 1.395 . S
C908 C911 1.403 . S
C909 C906 1.403 . S
C909 C910 1.524 . S
C909 C913 1.400 . S
C910 H895 0.960 . S
C910 H896 0.960 . S
C910 H897 0.960 . S
C910 C909 1.524 . S
C911 C908 1.403 . S
C911 C912 1.392 . S
C911 C915 1.495 . S
C912 C911 1.392 . S
C912 C913 1.385 . S
C912 C914 1.478 . S
C913 H907 0.930 . S
C913 C909 1.400 . S
C913 C912 1.385 . S
C914 C912 1.478 . S
C914 C916 1.381 . S
C914 C920 1.383 . S
C915 C911 1.495 . S
C915 H921 0.959 . S
C915 H922 0.961 . S
C915 H923 0.960 . S
C916 C914 1.381 . S
C916 C917 1.394 . S
C916 H924 0.930 . S
C917 C916 1.394 . S
C917 C918 1.383 . S
C917 H925 0.929 . S
C918 C917 1.383 . S
C918 C919 1.377 . S
C919 H903 0.930 . S
C919 C918 1.377 . S
C919 C920 1.379 . S
C920 H904 0.931 . S
C920 C914 1.383 . S
C920 C919 1.379 . S
H921 C915 0.959 . S
H922 C915 0.961 . S
H923 C915 0.960 . S
H924 C916 0.930 . S
H925 C917 0.929 . S
H926 C934 0.929 . S
H927 C936 0.930 . S
H928 C938 0.930 . S
H929 C941 0.929 . S
H930 C944 0.930 . S
H931 C946 0.960 . S
H932 C946 0.960 . S
H933 C946 0.960 . S
C934 H926 0.929 . S
C934 C935 1.377 . S
C934 C936 1.384 . S
C935 C934 1.377 . S
C935 C941 1.390 . S
C936 H927 0.930 . S
C936 C934 1.384 . S
C936 C937 1.372 . S
C937 C936 1.372 . S
C937 C938 1.400 . S
C937 C942 1.490 . S
C938 H928 0.930 . S
C938 C937 1.400 . S
C938 C941 1.386 . S
H939 C955 0.930 . S
H940 C956 0.931 . S
C941 H929 0.929 . S
C941 C935 1.390 . S
C941 C938 1.386 . S
C942 C937 1.490 . S
C942 C944 1.395 . S
C942 C945 1.403 . S
H943 C949 0.930 . S
C944 H930 0.930 . S
C944 C942 1.395 . S
C944 C947 1.403 . S
C945 C942 1.403 . S
C945 C946 1.524 . S
C945 C949 1.400 . S
C946 H931 0.960 . S
C946 H932 0.960 . S
C946 H933 0.960 . S
C946 C945 1.524 . S
C947 C944 1.403 . S
C947 C948 1.392 . S
C947 C951 1.495 . S
C948 C947 1.392 . S
C948 C949 1.385 . S
C948 C950 1.478 . S
C949 H943 0.930 . S
C949 C945 1.400 . S
C949 C948 1.385 . S
C950 C948 1.478 . S
C950 C952 1.381 . S
C950 C956 1.383 . S
C951 C947 1.495 . S
C951 H957 0.959 . S
C951 H958 0.961 . S
C951 H959 0.960 . S
C952 C950 1.381 . S
C952 C953 1.394 . S
C952 H960 0.930 . S
C953 C952 1.394 . S
C953 C954 1.383 . S
C953 H961 0.929 . S
C954 C953 1.383 . S
C954 C955 1.377 . S
C955 H939 0.930 . S
C955 C954 1.377 . S
C955 C956 1.379 . S
C956 H940 0.931 . S
C956 C950 1.383 . S
C956 C955 1.379 . S
H957 C951 0.959 . S
H958 C951 0.961 . S
H959 C951 0.960 . S
H960 C952 0.930 . S
H961 C953 0.929 . S
H962 C970 0.929 . S
H963 C972 0.930 . S
H964 C974 0.930 . S
H965 C977 0.929 . S
H966 C980 0.930 . S
H967 C982 0.960 . S
H968 C982 0.960 . S
H969 C982 0.960 . S
C970 H962 0.929 . S
C970 C971 1.377 . S
C970 C972 1.384 . S
C971 C970 1.377 . S
C971 C977 1.390 . S
C972 H963 0.930 . S
C972 C970 1.384 . S
C972 C973 1.372 . S
C973 C972 1.372 . S
C973 C974 1.400 . S
C973 C978 1.490 . S
C974 H964 0.930 . S
C974 C973 1.400 . S
C974 C977 1.386 . S
H975 C991 0.930 . S
H976 C992 0.931 . S
C977 H965 0.929 . S
C977 C971 1.390 . S
C977 C974 1.386 . S
C978 C973 1.490 . S
C978 C980 1.395 . S
C978 C981 1.403 . S
H979 C985 0.930 . S
C980 H966 0.930 . S
C980 C978 1.395 . S
C980 C983 1.403 . S
C981 C978 1.403 . S
C981 C982 1.524 . S
C981 C985 1.400 . S
C982 H967 0.960 . S
C982 H968 0.960 . S
C982 H969 0.960 . S
C982 C981 1.524 . S
C983 C980 1.403 . S
C983 C984 1.392 . S
C983 C987 1.495 . S
C984 C983 1.392 . S
C984 C985 1.385 . S
C984 C986 1.478 . S
C985 H979 0.930 . S
C985 C981 1.400 . S
C985 C984 1.385 . S
C986 C984 1.478 . S
C986 C988 1.381 . S
C986 C992 1.383 . S
C987 C983 1.495 . S
C987 H993 0.959 . S
C987 H994 0.961 . S
C987 H995 0.960 . S
C988 C986 1.381 . S
C988 C989 1.394 . S
C988 H996 0.930 . S
C989 C988 1.394 . S
C989 C990 1.383 . S
C989 H997 0.929 . S
C990 C989 1.383 . S
C990 C991 1.377 . S
C991 H975 0.930 . S
C991 C990 1.377 . S
C991 C992 1.379 . S
C992 H976 0.931 . S
C992 C986 1.383 . S
C992 C991 1.379 . S
H993 C987 0.959 . S
H994 C987 0.961 . S
H995 C987 0.960 . S
H996 C988 0.930 . S
H997 C989 0.929 . S
H998 C1006 0.929 . S
H999 C1008 0.930 . S
H1000 C1010 0.930 . S
H1001 C1013 0.929 . S
H1002 C1016 0.930 . S
H1003 C1018 0.960 . S
H1004 C1018 0.960 . S
H1005 C1018 0.960 . S
C1006 H998 0.929 . S
C1006 C1007 1.377 . S
C1006 C1008 1.384 . S
C1007 C1006 1.377 . S
C1007 C1013 1.390 . S
C1008 H999 0.930 . S
C1008 C1006 1.384 . S
C1008 C1009 1.372 . S
C1009 C1008 1.372 . S
C1009 C1010 1.400 . S
C1009 C1014 1.490 . S
C1010 H1000 0.930 . S
C1010 C1009 1.400 . S
C1010 C1013 1.386 . S
H1011 C1027 0.930 . S
H1012 C1028 0.931 . S
C1013 H1001 0.929 . S
C1013 C1007 1.390 . S
C1013 C1010 1.386 . S
C1014 C1009 1.490 . S
C1014 C1016 1.395 . S
C1014 C1017 1.403 . S
H1015 C1021 0.930 . S
C1016 H1002 0.930 . S
C1016 C1014 1.395 . S
C1016 C1019 1.403 . S
C1017 C1014 1.403 . S
C1017 C1018 1.524 . S
C1017 C1021 1.400 . S
C1018 H1003 0.960 . S
C1018 H1004 0.960 . S
C1018 H1005 0.960 . S
C1018 C1017 1.524 . S
C1019 C1016 1.403 . S
C1019 C1020 1.392 . S
C1019 C1023 1.495 . S
C1020 C1019 1.392 . S
C1020 C1021 1.385 . S
C1020 C1022 1.478 . S
C1021 H1015 0.930 . S
C1021 C1017 1.400 . S
C1021 C1020 1.385 . S
C1022 C1020 1.478 . S
C1022 C1024 1.381 . S
C1022 C1028 1.383 . S
C1023 C1019 1.495 . S
C1023 H1029 0.959 . S
C1023 H1030 0.961 . S
C1023 H1031 0.960 . S
C1024 C1022 1.381 . S
C1024 C1025 1.394 . S
C1024 H1032 0.930 . S
C1025 C1024 1.394 . S
C1025 C1026 1.383 . S
C1025 H1033 0.929 . S
C1026 C1025 1.383 . S
C1026 C1027 1.377 . S
C1027 H1011 0.930 . S
C1027 C1026 1.377 . S
C1027 C1028 1.379 . S
C1028 H1012 0.931 . S
C1028 C1022 1.383 . S
C1028 C1027 1.379 . S
H1029 C1023 0.959 . S
H1030 C1023 0.961 . S
H1031 C1023 0.960 . S
H1032 C1024 0.930 . S
H1033 C1025 0.929 . S
H1034 C1042 0.929 . S
H1035 C1044 0.930 . S
H1036 C1046 0.930 . S
H1037 C1049 0.929 . S
H1038 C1052 0.930 . S
H1039 C1054 0.960 . S
H1040 C1054 0.960 . S
H1041 C1054 0.960 . S
C1042 H1034 0.929 . S
C1042 C1043 1.377 . S
C1042 C1044 1.384 . S
C1043 C1042 1.377 . S
C1043 C1049 1.390 . S
C1044 H1035 0.930 . S
C1044 C1042 1.384 . S
C1044 C1045 1.372 . S
C1045 C1044 1.372 . S
C1045 C1046 1.400 . S
C1045 C1050 1.490 . S
C1046 H1036 0.930 . S
C1046 C1045 1.400 . S
C1046 C1049 1.386 . S
H1047 C1063 0.930 . S
H1048 C1064 0.931 . S
C1049 H1037 0.929 . S
C1049 C1043 1.390 . S
C1049 C1046 1.386 . S
C1050 C1045 1.490 . S
C1050 C1052 1.395 . S
C1050 C1053 1.403 . S
H1051 C1057 0.930 . S
C1052 H1038 0.930 . S
C1052 C1050 1.395 . S
C1052 C1055 1.403 . S
C1053 C1050 1.403 . S
C1053 C1054 1.524 . S
C1053 C1057 1.400 . S
C1054 H1039 0.960 . S
C1054 H1040 0.960 . S
C1054 H1041 0.960 . S
C1054 C1053 1.524 . S
C1055 C1052 1.403 . S
C1055 C1056 1.392 . S
C1055 C1059 1.495 . S
C1056 C1055 1.392 . S
C1056 C1057 1.385 . S
C1056 C1058 1.478 . S
C1057 H1051 0.930 . S
C1057 C1053 1.400 . S
C1057 C1056 1.385 . S
C1058 C1056 1.478 . S
C1058 C1060 1.381 . S
C1058 C1064 1.383 . S
C1059 C1055 1.495 . S
C1059 H1065 0.959 . S
C1059 H1066 0.961 . S
C1059 H1067 0.960 . S
C1060 C1058 1.381 . S
C1060 C1061 1.394 . S
C1060 H1068 0.930 . S
C1061 C1060 1.394 . S
C1061 C1062 1.383 . S
C1061 H1069 0.929 . S
C1062 C1061 1.383 . S
C1062 C1063 1.377 . S
C1063 H1047 0.930 . S
C1063 C1062 1.377 . S
C1063 C1064 1.379 . S
C1064 H1048 0.931 . S
C1064 C1058 1.383 . S
C1064 C1063 1.379 . S
H1065 C1059 0.959 . S
H1066 C1059 0.961 . S
H1067 C1059 0.960 . S
H1068 C1060 0.930 . S
H1069 C1061 0.929 . S
H1070 C1078 0.929 . S
H1071 C1080 0.930 . S
H1072 C1082 0.930 . S
H1073 C1085 0.929 . S
H1074 C1088 0.930 . S
H1075 C1090 0.960 . S
H1076 C1090 0.960 . S
H1077 C1090 0.960 . S
C1078 H1070 0.929 . S
C1078 C1079 1.377 . S
C1078 C1080 1.384 . S
C1079 C1078 1.377 . S
C1079 C1085 1.390 . S
C1080 H1071 0.930 . S
C1080 C1078 1.384 . S
C1080 C1081 1.372 . S
C1081 C1080 1.372 . S
C1081 C1082 1.400 . S
C1081 C1086 1.490 . S
C1082 H1072 0.930 . S
C1082 C1081 1.400 . S
C1082 C1085 1.386 . S
H1083 C1099 0.930 . S
H1084 C1100 0.931 . S
C1085 H1073 0.929 . S
C1085 C1079 1.390 . S
C1085 C1082 1.386 . S
C1086 C1081 1.490 . S
C1086 C1088 1.395 . S
C1086 C1089 1.403 . S
H1087 C1093 0.930 . S
C1088 H1074 0.930 . S
C1088 C1086 1.395 . S
C1088 C1091 1.403 . S
C1089 C1086 1.403 . S
C1089 C1090 1.524 . S
C1089 C1093 1.400 . S
C1090 H1075 0.960 . S
C1090 H1076 0.960 . S
C1090 H1077 0.960 . S
C1090 C1089 1.524 . S
C1091 C1088 1.403 . S
C1091 C1092 1.392 . S
C1091 C1095 1.495 . S
C1092 C1091 1.392 . S
C1092 C1093 1.385 . S
C1092 C1094 1.478 . S
C1093 H1087 0.930 . S
C1093 C1089 1.400 . S
C1093 C1092 1.385 . S
C1094 C1092 1.478 . S
C1094 C1096 1.381 . S
C1094 C1100 1.383 . S
C1095 C1091 1.495 . S
C1095 H1101 0.959 . S
C1095 H1102 0.961 . S
C1095 H1103 0.960 . S
C1096 C1094 1.381 . S
C1096 C1097 1.394 . S
C1096 H1104 0.930 . S
C1097 C1096 1.394 . S
C1097 C1098 1.383 . S
C1097 H1105 0.929 . S
C1098 C1097 1.383 . S
C1098 C1099 1.377 . S
C1099 H1083 0.930 . S
C1099 C1098 1.377 . S
C1099 C1100 1.379 . S
C1100 H1084 0.931 . S
C1100 C1094 1.383 . S
C1100 C1099 1.379 . S
H1101 C1095 0.959 . S
H1102 C1095 0.961 . S
H1103 C1095 0.960 . S
H1104 C1096 0.930 . S
H1105 C1097 0.929 . S
H1106 C1114 0.929 . S
H1107 C1116 0.930 . S
H1108 C1118 0.930 . S
H1109 C1121 0.929 . S
H1110 C1124 0.930 . S
H1111 C1126 0.960 . S
H1112 C1126 0.960 . S
H1113 C1126 0.960 . S
C1114 H1106 0.929 . S
C1114 C1115 1.377 . S
C1114 C1116 1.384 . S
C1115 C1114 1.377 . S
C1115 C1121 1.390 . S
C1116 H1107 0.930 . S
C1116 C1114 1.384 . S
C1116 C1117 1.372 . S
C1117 C1116 1.372 . S
C1117 C1118 1.400 . S
C1117 C1122 1.490 . S
C1118 H1108 0.930 . S
C1118 C1117 1.400 . S
C1118 C1121 1.386 . S
H1119 C1135 0.930 . S
H1120 C1136 0.931 . S
C1121 H1109 0.929 . S
C1121 C1115 1.390 . S
C1121 C1118 1.386 . S
C1122 C1117 1.490 . S
C1122 C1124 1.395 . S
C1122 C1125 1.403 . S
H1123 C1129 0.930 . S
C1124 H1110 0.930 . S
C1124 C1122 1.395 . S
C1124 C1127 1.403 . S
C1125 C1122 1.403 . S
C1125 C1126 1.524 . S
C1125 C1129 1.400 . S
C1126 H1111 0.960 . S
C1126 H1112 0.960 . S
C1126 H1113 0.960 . S
C1126 C1125 1.524 . S
C1127 C1124 1.403 . S
C1127 C1128 1.392 . S
C1127 C1131 1.495 . S
C1128 C1127 1.392 . S
C1128 C1129 1.385 . S
C1128 C1130 1.478 . S
C1129 H1123 0.930 . S
C1129 C1125 1.400 . S
C1129 C1128 1.385 . S
C1130 C1128 1.478 . S
C1130 C1132 1.381 . S
C1130 C1136 1.383 . S
C1131 C1127 1.495 . S
C1131 H1137 0.959 . S
C1131 H1138 0.961 . S
C1131 H1139 0.960 . S
C1132 C1130 1.381 . S
C1132 C1133 1.394 . S
C1132 H1140 0.930 . S
C1133 C1132 1.394 . S
C1133 C1134 1.383 . S
C1133 H1141 0.929 . S
C1134 C1133 1.383 . S
C1134 C1135 1.377 . S
C1135 H1119 0.930 . S
C1135 C1134 1.377 . S
C1135 C1136 1.379 . S
C1136 H1120 0.931 . S
C1136 C1130 1.383 . S
C1136 C1135 1.379 . S
H1137 C1131 0.959 . S
H1138 C1131 0.961 . S
H1139 C1131 0.960 . S
H1140 C1132 0.930 . S
H1141 C1133 0.929 . S
H1142 C1150 0.929 . S
H1143 C1152 0.930 . S
H1144 C1154 0.930 . S
H1145 C1157 0.929 . S
H1146 C1160 0.930 . S
H1147 C1162 0.960 . S
H1148 C1162 0.960 . S
H1149 C1162 0.960 . S
C1150 H1142 0.929 . S
C1150 C1151 1.377 . S
C1150 C1152 1.384 . S
C1151 C1150 1.377 . S
C1151 C1157 1.390 . S
C1152 H1143 0.930 . S
C1152 C1150 1.384 . S
C1152 C1153 1.372 . S
C1153 C1152 1.372 . S
C1153 C1154 1.400 . S
C1153 C1158 1.490 . S
C1154 H1144 0.930 . S
C1154 C1153 1.400 . S
C1154 C1157 1.386 . S
H1155 C1171 0.930 . S
H1156 C1172 0.931 . S
C1157 H1145 0.929 . S
C1157 C1151 1.390 . S
C1157 C1154 1.386 . S
C1158 C1153 1.490 . S
C1158 C1160 1.395 . S
C1158 C1161 1.403 . S
H1159 C1165 0.930 . S
C1160 H1146 0.930 . S
C1160 C1158 1.395 . S
C1160 C1163 1.403 . S
C1161 C1158 1.403 . S
C1161 C1162 1.524 . S
C1161 C1165 1.400 . S
C1162 H1147 0.960 . S
C1162 H1148 0.960 . S
C1162 H1149 0.960 . S
C1162 C1161 1.524 . S
C1163 C1160 1.403 . S
C1163 C1164 1.392 . S
C1163 C1167 1.495 . S
C1164 C1163 1.392 . S
C1164 C1165 1.385 . S
C1164 C1166 1.478 . S
C1165 H1159 0.930 . S
C1165 C1161 1.400 . S
C1165 C1164 1.385 . S
C1166 C1164 1.478 . S
C1166 C1168 1.381 . S
C1166 C1172 1.383 . S
C1167 C1163 1.495 . S
C1167 H1173 0.959 . S
C1167 H1174 0.961 . S
C1167 H1175 0.960 . S
C1168 C1166 1.381 . S
C1168 C1169 1.394 . S
C1168 H1176 0.930 . S
C1169 C1168 1.394 . S
C1169 C1170 1.383 . S
C1169 H1177 0.929 . S
C1170 C1169 1.383 . S
C1170 C1171 1.377 . S
C1171 H1155 0.930 . S
C1171 C1170 1.377 . S
C1171 C1172 1.379 . S
C1172 H1156 0.931 . S
C1172 C1166 1.383 . S
C1172 C1171 1.379 . S
H1173 C1167 0.959 . S
H1174 C1167 0.961 . S
H1175 C1167 0.960 . S
H1176 C1168 0.930 . S
H1177 C1169 0.929 . S
H1178 C1186 0.929 . S
H1179 C1188 0.930 . S
H1180 C1190 0.930 . S
H1181 C1193 0.929 . S
H1182 C1196 0.930 . S
H1183 C1198 0.960 . S
H1184 C1198 0.960 . S
H1185 C1198 0.960 . S
C1186 H1178 0.929 . S
C1186 C1187 1.377 . S
C1186 C1188 1.384 . S
C1187 C1186 1.377 . S
C1187 C1193 1.390 . S
C1188 H1179 0.930 . S
C1188 C1186 1.384 . S
C1188 C1189 1.372 . S
C1189 C1188 1.372 . S
C1189 C1190 1.400 . S
C1189 C1194 1.490 . S
C1190 H1180 0.930 . S
C1190 C1189 1.400 . S
C1190 C1193 1.386 . S
H1191 C1207 0.930 . S
H1192 C1208 0.931 . S
C1193 H1181 0.929 . S
C1193 C1187 1.390 . S
C1193 C1190 1.386 . S
C1194 C1189 1.490 . S
C1194 C1196 1.395 . S
C1194 C1197 1.403 . S
H1195 C1201 0.930 . S
C1196 H1182 0.930 . S
C1196 C1194 1.395 . S
C1196 C1199 1.403 . S
C1197 C1194 1.403 . S
C1197 C1198 1.524 . S
C1197 C1201 1.400 . S
C1198 H1183 0.960 . S
C1198 H1184 0.960 . S
C1198 H1185 0.960 . S
C1198 C1197 1.524 . S
C1199 C1196 1.403 . S
C1199 C1200 1.392 . S
C1199 C1203 1.495 . S
C1200 C1199 1.392 . S
C1200 C1201 1.385 . S
C1200 C1202 1.478 . S
C1201 H1195 0.930 . S
C1201 C1197 1.400 . S
C1201 C1200 1.385 . S
C1202 C1200 1.478 . S
C1202 C1204 1.381 . S
C1202 C1208 1.383 . S
C1203 C1199 1.495 . S
C1203 H1209 0.959 . S
C1203 H1210 0.961 . S
C1203 H1211 0.960 . S
C1204 C1202 1.381 . S
C1204 C1205 1.394 . S
C1204 H1212 0.930 . S
C1205 C1204 1.394 . S
C1205 C1206 1.383 . S
C1205 H1213 0.929 . S
C1206 C1205 1.383 . S
C1206 C1207 1.377 . S
C1207 H1191 0.930 . S
C1207 C1206 1.377 . S
C1207 C1208 1.379 . S
C1208 H1192 0.931 . S
C1208 C1202 1.383 . S
C1208 C1207 1.379 . S
H1209 C1203 0.959 . S
H1210 C1203 0.961 . S
H1211 C1203 0.960 . S
H1212 C1204 0.930 . S
H1213 C1205 0.929 . S
H1214 C1222 0.929 . S
H1215 C1224 0.930 . S
H1216 C1226 0.930 . S
H1217 C1229 0.929 . S
H1218 C1232 0.930 . S
H1219 C1234 0.960 . S
H1220 C1234 0.960 . S
H1221 C1234 0.960 . S
C1222 H1214 0.929 . S
C1222 C1223 1.377 . S
C1222 C1224 1.384 . S
C1223 C1222 1.377 . S
C1223 C1229 1.390 . S
C1224 H1215 0.930 . S
C1224 C1222 1.384 . S
C1224 C1225 1.372 . S
C1225 C1224 1.372 . S
C1225 C1226 1.400 . S
C1225 C1230 1.490 . S
C1226 H1216 0.930 . S
C1226 C1225 1.400 . S
C1226 C1229 1.386 . S
H1227 C1243 0.930 . S
H1228 C1244 0.931 . S
C1229 H1217 0.929 . S
C1229 C1223 1.390 . S
C1229 C1226 1.386 . S
C1230 C1225 1.490 . S
C1230 C1232 1.395 . S
C1230 C1233 1.403 . S
H1231 C1237 0.930 . S
C1232 H1218 0.930 . S
C1232 C1230 1.395 . S
C1232 C1235 1.403 . S
C1233 C1230 1.403 . S
C1233 C1234 1.524 . S
C1233 C1237 1.400 . S
C1234 H1219 0.960 . S
C1234 H1220 0.960 . S
C1234 H1221 0.960 . S
C1234 C1233 1.524 . S
C1235 C1232 1.403 . S
C1235 C1236 1.392 . S
C1235 C1239 1.495 . S
C1236 C1235 1.392 . S
C1236 C1237 1.385 . S
C1236 C1238 1.478 . S
C1237 H1231 0.930 . S
C1237 C1233 1.400 . S
C1237 C1236 1.385 . S
C1238 C1236 1.478 . S
C1238 C1240 1.381 . S
C1238 C1244 1.383 . S
C1239 C1235 1.495 . S
C1239 H1245 0.959 . S
C1239 H1246 0.961 . S
C1239 H1247 0.960 . S
C1240 C1238 1.381 . S
C1240 C1241 1.394 . S
C1240 H1248 0.930 . S
C1241 C1240 1.394 . S
C1241 C1242 1.383 . S
C1241 H1249 0.929 . S
C1242 C1241 1.383 . S
C1242 C1243 1.377 . S
C1243 H1227 0.930 . S
C1243 C1242 1.377 . S
C1243 C1244 1.379 . S
C1244 H1228 0.931 . S
C1244 C1238 1.383 . S
C1244 C1243 1.379 . S
H1245 C1239 0.959 . S
H1246 C1239 0.961 . S
H1247 C1239 0.960 . S
H1248 C1240 0.930 . S
H1249 C1241 0.929 . S
H1250 C1258 0.929 . S
H1251 C1260 0.930 . S
H1252 C1262 0.930 . S
H1253 C1265 0.929 . S
H1254 C1268 0.930 . S
H1255 C1270 0.960 . S
H1256 C1270 0.960 . S
H1257 C1270 0.960 . S
C1258 H1250 0.929 . S
C1258 C1259 1.377 . S
C1258 C1260 1.384 . S
C1259 C1258 1.377 . S
C1259 C1265 1.390 . S
C1260 H1251 0.930 . S
C1260 C1258 1.384 . S
C1260 C1261 1.372 . S
C1261 C1260 1.372 . S
C1261 C1262 1.400 . S
C1261 C1266 1.490 . S
C1262 H1252 0.930 . S
C1262 C1261 1.400 . S
C1262 C1265 1.386 . S
H1263 C1279 0.930 . S
H1264 C1280 0.931 . S
C1265 H1253 0.929 . S
C1265 C1259 1.390 . S
C1265 C1262 1.386 . S
C1266 C1261 1.490 . S
C1266 C1268 1.395 . S
C1266 C1269 1.403 . S
H1267 C1273 0.930 . S
C1268 H1254 0.930 . S
C1268 C1266 1.395 . S
C1268 C1271 1.403 . S
C1269 C1266 1.403 . S
C1269 C1270 1.524 . S
C1269 C1273 1.400 . S
C1270 H1255 0.960 . S
C1270 H1256 0.960 . S
C1270 H1257 0.960 . S
C1270 C1269 1.524 . S
C1271 C1268 1.403 . S
C1271 C1272 1.392 . S
C1271 C1275 1.495 . S
C1272 C1271 1.392 . S
C1272 C1273 1.385 . S
C1272 C1274 1.478 . S
C1273 H1267 0.930 . S
C1273 C1269 1.400 . S
C1273 C1272 1.385 . S
C1274 C1272 1.478 . S
C1274 C1276 1.381 . S
C1274 C1280 1.383 . S
C1275 C1271 1.495 . S
C1275 H1281 0.959 . S
C1275 H1282 0.961 . S
C1275 H1283 0.960 . S
C1276 C1274 1.381 . S
C1276 C1277 1.394 . S
C1276 H1284 0.930 . S
C1277 C1276 1.394 . S
C1277 C1278 1.383 . S
C1277 H1285 0.929 . S
C1278 C1277 1.383 . S
C1278 C1279 1.377 . S
C1279 H1263 0.930 . S
C1279 C1278 1.377 . S
C1279 C1280 1.379 . S
C1280 H1264 0.931 . S
C1280 C1274 1.383 . S
C1280 C1279 1.379 . S
H1281 C1275 0.959 . S
H1282 C1275 0.961 . S
H1283 C1275 0.960 . S
H1284 C1276 0.930 . S
H1285 C1277 0.929 . S
C450 C126 1.875 . S
C431 C8 1.920 . S
C486 C195 1.736 . S
C467 C22 1.732 . S
C522 C133 1.766 . S
C503 C30 1.771 . S
C558 C196 1.307 1_655 S
C539 C47 1.331 . S
C594 C249 1.848 . S
C575 C9 1.856 . S
C630 C285 1.808 . S
C611 C17 1.761 . S
C647 C34 1.591 . S
C666 C345 1.588 . S
C702 C408 1.479 . S
C683 C48 1.477 . S
C738 C248 1.940 . S
C719 C21 1.966 . S
C755 C35 1.890 . S
C774 C292 1.894 . S
C810 C338 1.265 . S
C791 C43 1.206 . S
C846 C407 1.576 . S
C827 C4 1.532 . S
C863 C56 1.499 . S
C882 C186 1.509 . S
C918 C143 1.774 . S
C899 C73 1.793 . S
C935 C87 1.751 . S
C954 C179 1.733 . S
C971 C100 2.046 . S
C990 C142 2.017 . S
C1026 C354 1.642 . S
C1007 C60 1.656 . S
C1062 C398 1.365 . S
C1043 C69 1.322 . S
C1098 C232 1.949 . S
C1079 C86 1.980 . S
C1115 C95 1.503 . S
C1134 C301 1.581 . S
C1170 C355 1.595 . S
C1151 C74 1.619 . S
C1206 C391 1.369 . S
C1187 C82 1.314 . S
C1242 C239 2.050 . S
C1223 C99 2.089 . S
C1259 C61 1.701 . S
C1278 C302 1.714 . S
