# Generated by pormake.
# Topology anh, (6,3)-cn, num edge types: 1
# Building blocks:
#     Node 0, Type 0, BuildingBlock: INOVEN_clean_sbu_0, # of connection points: 6
#     Node 1, Type 0, BuildingBlock: INOVEN_clean_sbu_0, # of connection points: 6
#     Node 2, Type 0, BuildingBlock: INOVEN_clean_sbu_0, # of connection points: 6
#     Node 3, Type 1, BuildingBlock: MIDCAF_clean_linker_0, # of connection points: 3
#     Node 4, Type 1, BuildingBlock: MIDCAF_clean_linker_0, # of connection points: 3
#     Node 5, Type 1, BuildingBlock: MIDCAF_clean_linker_0, # of connection points: 3
#     Node 6, Type 1, BuildingBlock: MIDCAF_clean_linker_0, # of connection points: 3
#     Node 7, Type 1, BuildingBlock: MIDCAF_clean_linker_0, # of connection points: 3
#     Node 8, Type 1, BuildingBlock: MIDCAF_clean_linker_0, # of connection points: 3
#     Edge 9, Type (0, 1), BuildingBlock: UVAHIK_clean_linker_0, # of connection points: 2
#     Edge 10, Type (0, 1), BuildingBlock: UVAHIK_clean_linker_0, # of connection points: 2
#     Edge 11, Type (0, 1), BuildingBlock: UVAHIK_clean_linker_0, # of connection points: 2
#     Edge 12, Type (0, 1), BuildingBlock: UVAHIK_clean_linker_0, # of connection points: 2
#     Edge 13, Type (0, 1), BuildingBlock: UVAHIK_clean_linker_0, # of connection points: 2
#     Edge 14, Type (0, 1), BuildingBlock: UVAHIK_clean_linker_0, # of connection points: 2
#     Edge 15, Type (0, 1), BuildingBlock: UVAHIK_clean_linker_0, # of connection points: 2
#     Edge 16, Type (0, 1), BuildingBlock: UVAHIK_clean_linker_0, # of connection points: 2
#     Edge 17, Type (0, 1), BuildingBlock: UVAHIK_clean_linker_0, # of connection points: 2
#     Edge 18, Type (0, 1), BuildingBlock: UVAHIK_clean_linker_0, # of connection points: 2
#     Edge 19, Type (0, 1), BuildingBlock: UVAHIK_clean_linker_0, # of connection points: 2
#     Edge 20, Type (0, 1), BuildingBlock: UVAHIK_clean_linker_0, # of connection points: 2
#     Edge 21, Type (0, 1), BuildingBlock: UVAHIK_clean_linker_0, # of connection points: 2
#     Edge 22, Type (0, 1), BuildingBlock: UVAHIK_clean_linker_0, # of connection points: 2
#     Edge 23, Type (0, 1), BuildingBlock: UVAHIK_clean_linker_0, # of connection points: 2
#     Edge 24, Type (0, 1), BuildingBlock: UVAHIK_clean_linker_0, # of connection points: 2
#     Edge 25, Type (0, 1), BuildingBlock: UVAHIK_clean_linker_0, # of connection points: 2
#     Edge 26, Type (0, 1), BuildingBlock: UVAHIK_clean_linker_0, # of connection points: 2
# Relax obj value: 0.163
# Max RMSD: 0.203
# Mean RMSD: 0.152
data_MOF--net-anh--node1-INOVEN_clean_sbu_0--node2-MIDCAF_clean_linker_0--edge1-UVAHIK_clean_linker_0
_symmetry_space_group_name_H-M    P1
_symmetry_Int_Tables_number       1
_symmetry_cell_setting            triclinic
loop_
_symmetry_equiv_pos_as_xyz
'x, y, z'
_cell_length_a     45.568566
_cell_length_b     52.628045
_cell_length_c     82.691239
_cell_angle_alpha  93.369313
_cell_angle_beta   89.232699
_cell_angle_gamma 127.03182
loop_
_atom_site_label
_atom_site_type_symbol
_atom_site_fract_x
_atom_site_fract_y
_atom_site_fract_z
_atom_type_partial_charge
Gd0 Gd 0.08134 0.5079 0.14401 0.0
Gd1 Gd 0.04068 0.5327 0.15677 0.0
C2 C 0.12548 0.58517 0.15221 0.0
C3 C 0.12555 0.4997 0.12944 0.0
C4 C 0.16404 0.51294 0.13353 0.0
C5 C 0.17147 0.4988 0.14507 0.0
C6 C 0.19365 0.54094 0.12682 0.0
C7 C 0.237 0.54104 0.14371 0.0
C8 C 0.22985 0.55481 0.13183 0.0
C9 C 0.20748 0.51278 0.15016 0.0
C10 C 0.07583 0.50841 0.17651 0.0
C11 C 0.99745 0.45629 0.14908 0.0
C12 C 0.99642 0.53931 0.17277 0.0
C13 C 0.95816 0.51529 0.17723 0.0
C14 C 0.93559 0.48691 0.1675 0.0
C15 C 0.94461 0.51952 0.19165 0.0
C16 C 0.88619 0.46707 0.18649 0.0
C17 C 0.90868 0.49563 0.1962 0.0
C18 C 0.90006 0.463 0.17211 0.0
C19 C 0.04772 0.53267 0.12427 0.0
O20 O 0.12484 0.56189 0.14466 0.0
O21 O 0.09642 0.5794 0.15967 0.0
O22 O 0.10079 0.47963 0.13942 0.0
O23 O 0.11991 0.51986 0.12482 0.0
O24 O 0.07531 0.48684 0.16788 0.0
O25 O 0.08207 0.52986 0.16777 0.0
O26 O 1.00073 0.47909 0.15851 0.0
O27 O 1.02401 0.46302 0.13925 0.0
O28 O 1.00188 0.54365 0.15728 0.0
O29 O 1.02056 0.53747 0.17979 0.0
O30 O 0.04984 0.55512 0.13295 0.0
O31 O 0.04015 0.51072 0.13298 0.0
H32 H 0.14945 0.47707 0.1504 0.0
H33 H 0.18882 0.55237 0.11787 0.0
H34 H 0.2522 0.57648 0.12659 0.0
H35 H 0.21227 0.50115 0.159 0.0
H36 H 0.94543 0.48311 0.15631 0.0
H37 H 0.96181 0.54118 0.19937 0.0
H38 H 0.8985 0.49939 0.20729 0.0
H39 H 0.8831 0.44157 0.1642 0.0
Gd40 Gd 0.58255 0.00588 0.48248 0.0
Gd41 Gd 0.53447 0.02591 0.47546 0.0
C42 C 0.49382 0.95181 0.4758 0.0
C43 C 0.61047 0.98015 0.4945 0.0
C44 C 0.60067 0.94806 0.49642 0.0
C45 C 0.59805 0.92892 0.48304 0.0
C46 C 0.59564 0.93699 0.512 0.0
C47 C 0.58639 0.88864 0.5009 0.0
C48 C 0.58844 0.90759 0.51422 0.0
C49 C 0.59104 0.89956 0.48527 0.0
C50 C 0.57745 0.01356 0.451 0.0
C51 C 0.62381 0.08009 0.48041 0.0
C52 C 0.50645 0.05279 0.46513 0.0
C53 C 0.51449 0.08424 0.46835 0.0
C54 C 0.5401 0.10569 0.48057 0.0
C55 C 0.49595 0.09271 0.45947 0.0
C56 C 0.52777 0.14363 0.47531 0.0
C57 C 0.50253 0.12214 0.46289 0.0
C58 C 0.54664 0.13507 0.48404 0.0
C59 C 0.54164 0.0196 0.50703 0.0
O60 O 0.52438 0.9595 0.48285 0.0
O61 O 0.49271 0.9736 0.46934 0.0
O62 O 0.61682 0.99024 0.47986 0.0
O63 O 0.59231 0.98793 0.50309 0.0
O64 O 0.60705 0.02054 0.45794 0.0
O65 O 0.55123 0.00085 0.46068 0.0
O66 O 0.59214 0.07209 0.4746 0.0
O67 O 0.62641 0.05874 0.48638 0.0
O68 O 0.49363 0.03446 0.47733 0.0
O69 O 0.53145 0.05253 0.45733 0.0
O70 O 0.51141 0.01176 0.50043 0.0
O71 O 0.56687 0.03199 0.49695 0.0
H72 H 0.6018 0.9367 0.47085 0.0
H73 H 0.59787 0.95136 0.52254 0.0
H74 H 0.58548 0.90011 0.52644 0.0
H75 H 0.58925 0.88539 0.47474 0.0
H76 H 0.55465 0.0995 0.48758 0.0
H77 H 0.47618 0.07647 0.44995 0.0
H78 H 0.48792 0.1281 0.45575 0.0
H79 H 0.56588 0.15073 0.49382 0.0
Gd80 Gd 0.60885 0.55691 0.83805 0.0
Gd81 Gd 0.55895 0.48592 0.84155 0.0
C82 C 0.51975 0.51957 0.84114 0.0
C83 C 0.63979 0.61436 0.82956 0.0
C84 C 0.62972 0.63567 0.82642 0.0
C85 C 0.64674 0.66466 0.8357 0.0
C86 C 0.60448 0.6282 0.81396 0.0
C87 C 0.61439 0.67884 0.81989 0.0
C88 C 0.597 0.64962 0.8107 0.0
C89 C 0.63905 0.68594 0.83254 0.0
C90 C 0.60015 0.53873 0.8686 0.0
C91 C 0.649 0.52395 0.83944 0.0
C92 C 0.52902 0.42875 0.85014 0.0
C93 C 0.53625 0.40524 0.84679 0.0
C94 C 0.56028 0.4096 0.83457 0.0
C95 C 0.51882 0.37806 0.85572 0.0
C96 C 0.54855 0.35915 0.83991 0.0
C97 C 0.52492 0.35523 0.85233 0.0
C98 C 0.5663 0.38676 0.83113 0.0
C99 C 0.56735 0.50276 0.81069 0.0
O100 O 0.55113 0.54381 0.83525 0.0
O101 O 0.51751 0.49552 0.84693 0.0
O102 O 0.63863 0.60743 0.84459 0.0
O103 O 0.62771 0.59001 0.81918 0.0
O104 O 0.63128 0.56264 0.86333 0.0
O105 O 0.57527 0.52674 0.85781 0.0
O106 O 0.6163 0.49797 0.84312 0.0
O107 O 0.65285 0.54972 0.83528 0.0
O108 O 0.51726 0.43496 0.83774 0.0
O109 O 0.55407 0.45441 0.859 0.0
O110 O 0.53708 0.47828 0.81616 0.0
O111 O 0.59254 0.51585 0.82147 0.0
H112 H 0.66645 0.67107 0.84531 0.0
H113 H 0.59075 0.60599 0.80661 0.0
H114 H 0.57756 0.64331 0.80099 0.0
H115 H 0.65319 0.70838 0.83972 0.0
H116 H 0.57406 0.43052 0.82756 0.0
H117 H 0.50036 0.37443 0.86527 0.0
H118 H 0.51126 0.3346 0.85953 0.0
H119 H 0.58429 0.39046 0.82135 0.0
C120 C 0.4435 0.92111 0.19189 0.0
C121 C 0.44706 0.91015 0.17664 0.0
C122 C 0.48074 0.92946 0.16873 0.0
C123 C 0.51026 0.95894 0.17608 0.0
H124 H 0.60745 0.06251 0.16928 0.0
H125 H 0.65677 0.11298 0.15777 0.0
H126 H 0.69883 0.15576 0.20603 0.0
H127 H 0.65063 0.10646 0.21743 0.0
H128 H 0.61611 0.07372 0.24778 0.0
H129 H 0.61507 0.07456 0.27724 0.0
H130 H 0.51377 0.97869 0.27459 0.0
H131 H 0.51428 0.97794 0.24515 0.0
H132 H 0.469 0.9573 0.21114 0.0
H133 H 0.41824 0.90677 0.19845 0.0
H134 H 0.48427 0.92171 0.15693 0.0
H135 H 0.53607 0.97308 0.1699 0.0
N136 N 0.56638 0.02422 0.19296 0.0
N137 N 0.59341 0.05072 0.21838 0.0
N138 N 0.53834 -0.00074 0.21704 0.0
C139 C 0.59415 0.0507 0.20192 0.0
C140 C 0.56579 0.02519 0.22604 0.0
C141 C 0.53823 -0.00162 0.20059 0.0
C142 C 0.62461 0.08024 0.19432 0.0
C143 C 0.62733 0.08268 0.1774 0.0
C144 C 0.6556 0.11153 0.1708 0.0
C145 C 0.68136 0.13851 0.18101 0.0
C146 C 0.67903 0.1357 0.19783 0.0
C147 C 0.65126 0.10712 0.20436 0.0
C148 C 0.5653 0.02575 0.24402 0.0
C149 C 0.59355 0.05279 0.25344 0.0
C150 C 0.59308 0.05324 0.27036 0.0
C151 C 0.56436 0.02668 0.27828 0.0
C152 C 0.53604 -0.0003 0.26888 0.0
C153 C 0.5365 -0.00077 0.25196 0.0
C154 C 0.50675 0.96925 0.19157 0.0
C155 C 0.47285 0.9501 0.19924 0.0
C156 C 0.59315 0.44207 0.54845 0.0
C157 C 0.5766 0.43122 0.53289 0.0
C158 C 0.56243 0.44584 0.52611 0.0
C159 C 0.56468 0.47072 0.5348 0.0
H160 H 0.57723 0.55943 0.53058 0.0
H161 H 0.57157 0.59829 0.51921 0.0
H162 H 0.56434 0.62979 0.5675 0.0
H163 H 0.56947 0.59117 0.57881 0.0
H164 H 0.60013 0.57687 0.60866 0.0
H165 H 0.6033 0.57724 0.63816 0.0
H166 H 0.58141 0.48507 0.63394 0.0
H167 H 0.57828 0.48454 0.60453 0.0
H168 H 0.60755 0.47387 0.56922 0.0
H169 H 0.60395 0.43108 0.55408 0.0
H170 H 0.54966 0.43805 0.51411 0.0
H171 H 0.55324 0.48133 0.52936 0.0
N172 N 0.57732 0.52658 0.55348 0.0
N173 N 0.5819 0.55029 0.57924 0.0
N174 N 0.58506 0.50753 0.5768 0.0
C175 C 0.57781 0.54903 0.56288 0.0
C176 C 0.58547 0.52964 0.5863 0.0
C177 C 0.5811 0.50579 0.56043 0.0
C178 C 0.57382 0.57205 0.55563 0.0
C179 C 0.57425 0.57455 0.53876 0.0
C180 C 0.57119 0.59692 0.53224 0.0
C181 C 0.56729 0.61703 0.54244 0.0
C182 C 0.56668 0.61435 0.55926 0.0
C183 C 0.56993 0.59225 0.56576 0.0
C184 C 0.5888 0.53061 0.60419 0.0
C185 C 0.5961 0.55671 0.614 0.0
C186 C 0.59814 0.55705 0.63089 0.0
C187 C 0.59244 0.53113 0.63832 0.0
C188 C 0.58555 0.50523 0.62853 0.0
C189 C 0.58395 0.50504 0.61167 0.0
C190 C 0.58056 0.48102 0.55053 0.0
C191 C 0.59496 0.4665 0.55717 0.0
C192 C 1.00408 0.55495 0.86163 0.0
C193 C 0.97206 0.52745 0.85407 0.0
C194 C 0.97203 0.50085 0.85036 0.0
C195 C 1.00223 0.50132 0.85473 0.0
H196 H 0.12377 0.5089 0.84364 0.0
H197 H 0.17653 0.50955 0.83546 0.0
H198 H 0.22604 0.54896 0.88323 0.0
H199 H 0.17504 0.54903 0.89108 0.0
H200 H 0.12215 0.52183 0.92002 0.0
H201 H 0.1173 0.52152 0.94932 0.0
H202 H 1.02639 0.52645 0.94575 0.0
H203 H 1.03063 0.5261 0.91634 0.0
H204 H 0.057 0.57616 0.87283 0.0
H205 H 1.00536 0.5758 0.86498 0.0
H206 H 0.94822 0.47928 0.84442 0.0
H207 H 1.0003 0.47985 0.85257 0.0
N208 N 0.08763 0.52672 0.86489 0.0
N209 N 0.10761 0.52536 0.89072 0.0
N210 N 0.05669 0.52538 0.88838 0.0
C211 C 0.11201 0.52649 0.87443 0.0
C212 C 0.08022 0.52467 0.89781 0.0
C213 C 0.05979 0.52622 0.87202 0.0
C214 C 0.1447 0.52882 0.86807 0.0
C215 C 0.14623 0.51811 0.85227 0.0
C216 C 0.17641 0.51822 0.84765 0.0
C217 C 0.20606 0.52945 0.85863 0.0
C218 C 0.20449 0.54063 0.87423 0.0
C219 C 0.17465 0.54036 0.87882 0.0
C220 C 0.07682 0.52404 0.91573 0.0
C221 C 0.10103 0.52279 0.92542 0.0
C222 C 0.09841 0.5228 0.94228 0.0
C223 C 0.07156 0.52409 0.94993 0.0
C224 C 0.04714 0.52507 0.94026 0.0
C225 C 0.04972 0.52505 0.92337 0.0
C226 C 1.03337 0.5284 0.86291 0.0
C227 C 1.03399 0.55529 0.86607 0.0
C228 C 0.14984 0.62784 0.43545 0.0
C229 C 0.16427 0.63021 0.45083 0.0
C230 C 0.14853 0.60214 0.45905 0.0
C231 C 0.11911 0.57236 0.45192 0.0
H232 H 1.02304 0.46747 0.45804 0.0
H233 H 0.97314 0.41799 0.47016 0.0
H234 H 0.90804 0.38822 0.42597 0.0
H235 H 0.957 0.43675 0.41399 0.0
H236 H 1.00076 0.45993 0.38114 0.0
H237 H 1.00015 0.4588 0.35163 0.0
H238 H 0.09628 0.55731 0.35365 0.0
H239 H 0.09665 0.55875 0.38306 0.0
H240 H 0.11115 0.59772 0.41635 0.0
H241 H 0.16153 0.6488 0.42865 0.0
H242 H 0.15899 0.60322 0.47096 0.0
H243 H 0.1078 0.55108 0.45838 0.0
N244 N 0.05094 0.51261 0.43563 0.0
N245 N 1.02371 0.48437 0.41051 0.0
N246 N 0.07552 0.53753 0.41122 0.0
C247 C 1.02408 0.48511 0.42699 0.0
C248 C 0.04939 0.51037 0.40253 0.0
C249 C 0.07668 0.53909 0.42767 0.0
C250 C 0.99416 0.45613 0.43503 0.0
C251 C 0.99796 0.45039 0.451 0.0
C252 C 0.96952 0.42203 0.45789 0.0
C253 C 0.93656 0.39929 0.44904 0.0
C254 C 0.93281 0.40537 0.4332 0.0
C255 C 0.96116 0.43322 0.42628 0.0
C256 C 0.04876 0.50943 0.38455 0.0
C257 C 1.02175 0.48139 0.37532 0.0
C258 C 1.02148 0.48068 0.35838 0.0
C259 C 0.04813 0.50798 0.35028 0.0
C260 C 0.07502 0.536 0.3595 0.0
C261 C 0.07535 0.53672 0.37641 0.0
C262 C 0.10546 0.57015 0.43633 0.0
C263 C 0.12102 0.59835 0.42832 0.0
C264 C 0.60169 0.12078 0.76874 0.0
C265 C 0.58797 0.11647 0.78445 0.0
C266 C 0.57446 0.08781 0.79161 0.0
C267 C 0.5742 0.06381 0.78311 0.0
H268 H 0.59922 0.99246 0.78565 0.0
H269 H 0.60128 0.95104 0.79618 0.0
H270 H 0.54881 0.89263 0.75182 0.0
H271 H 0.54786 0.9341 0.7412 0.0
H272 H 0.55064 0.96666 0.70943 0.0
H273 H 0.54789 0.96646 0.68007 0.0
H274 H 0.60302 0.06822 0.68377 0.0
H275 H 0.60417 0.06805 0.71315 0.0
H276 H 0.61115 0.10075 0.74798 0.0
H277 H 0.61195 0.14242 0.76281 0.0
H278 H 0.5639 0.08391 0.80375 0.0
H279 H 0.56304 0.04179 0.78882 0.0
N280 N 0.58023 0.01727 0.76448 0.0
N281 N 0.57496 0.99317 0.73875 0.0
N282 N 0.58291 0.04148 0.74094 0.0
C283 C 0.57603 0.99297 0.75516 0.0
C284 C 0.5785 0.01734 0.73155 0.0
C285 C 0.58356 0.0416 0.75738 0.0
C286 C 0.57382 0.9668 0.7625 0.0
C287 C 0.58785 0.97063 0.77824 0.0
C288 C 0.58895 0.94684 0.78428 0.0
C289 C 0.57577 0.91864 0.77475 0.0
C290 C 0.56021 0.91435 0.75934 0.0
C291 C 0.55944 0.93813 0.75327 0.0
C292 C 0.57752 0.01735 0.71365 0.0
C293 C 0.56219 0.989 0.70397 0.0
C294 C 0.56083 0.98894 0.68709 0.0
C295 C 0.57525 0.01733 0.67944 0.0
C296 C 0.59096 0.04575 0.68917 0.0
C297 C 0.59183 0.04572 0.70606 0.0
C298 C 0.58687 0.06781 0.76718 0.0
C299 C 0.60099 0.09674 0.7602 0.0
C300 C 0.56192 0.34932 0.11262 0.0
C301 C 0.56558 0.35255 0.12964 0.0
C302 C 0.55356 0.36832 0.13835 0.0
C303 C 0.53973 0.3817 0.13026 0.0
H304 H 0.5235 0.45161 0.13776 0.0
H305 H 0.50438 0.4801 0.15357 0.0
H306 H 0.43935 0.46922 0.11257 0.0
H307 H 0.45888 0.44151 0.09661 0.0
H308 H 0.48115 0.42749 0.06151 0.0
H309 H 0.49124 0.43918 0.03315 0.0
H310 H 0.57239 0.42148 0.03189 0.0
H311 H 0.56136 0.40871 0.06031 0.0
H312 H 0.54667 0.36069 0.09137 0.0
H313 H 0.57049 0.33695 0.10555 0.0
H314 H 0.55651 0.37181 0.15143 0.0
H315 H 0.53179 0.39444 0.13745 0.0
N316 N 0.5146 0.41164 0.11364 0.0
N317 N 0.50542 0.42843 0.08993 0.0
N318 N 0.52768 0.39815 0.08841 0.0
C319 C 0.50421 0.4275 0.10628 0.0
C320 C 0.51727 0.414 0.08091 0.0
C321 C 0.52599 0.3966 0.10482 0.0
C322 C 0.49256 0.44428 0.11597 0.0
C323 C 0.50511 0.45531 0.13214 0.0
C324 C 0.49444 0.47171 0.14115 0.0
C325 C 0.47048 0.47662 0.1342 0.0
C326 C 0.45783 0.46553 0.11811 0.0
C327 C 0.46905 0.44978 0.10902 0.0
C328 C 0.52074 0.41749 0.06322 0.0
C329 C 0.50094 0.42581 0.05517 0.0
C330 C 0.50691 0.43273 0.03892 0.0
C331 C 0.53316 0.4319 0.03031 0.0
C332 C 0.55187 0.42224 0.03814 0.0
C333 C 0.5456 0.41497 0.05444 0.0
C334 C 0.53777 0.37989 0.11323 0.0
C335 C 0.54825 0.36292 0.10449 0.0
C336 C 0.30118 0.5617 0.13707 0.0
C337 C 0.27506 0.55452 0.14878 0.0
C338 C 0.33422 0.56744 0.14155 0.0
C339 C 0.36294 0.53887 0.17176 0.0
H340 H 0.44934 0.57977 0.14533 0.0
C341 C 0.41995 0.47615 0.14603 0.0
C342 C 0.45765 0.49262 0.14364 0.0
C343 C 0.40668 0.49204 0.15294 0.0
C344 C 0.42597 0.5688 0.15318 0.0
H345 H 0.26464 0.55157 0.1745 0.0
H346 H 0.32261 0.56198 0.18237 0.0
H347 H 0.41132 0.59815 0.14566 0.0
H348 H 0.51146 0.53801 0.14709 0.0
H349 H 0.488 0.56639 0.15896 0.0
H350 H 0.37647 0.5084 0.17856 0.0
C351 C 0.31725 0.56237 0.1697 0.0
C352 C 0.40397 0.57911 0.15323 0.0
C353 C 0.28409 0.55639 0.1652 0.0
C354 C 0.48222 0.52494 0.14893 0.0
C355 C 0.46886 0.54109 0.15565 0.0
C356 C 0.38494 0.52866 0.17173 0.0
C357 C 0.34181 0.56628 0.15783 0.0
C358 C 0.371 0.56292 0.16173 0.0
C359 C 0.43085 0.52487 0.1574 0.0
C360 C 0.41532 0.5422 0.16165 0.0
H361 H 0.29488 0.56036 0.12433 0.0
H362 H 0.35225 0.57006 0.13203 0.0
H363 H 0.33779 0.52577 0.17846 0.0
H364 H 0.40062 0.45119 0.142 0.0
H365 H 0.3772 0.479 0.15386 0.0
C366 C 0.69224 0.12329 0.48387 0.0
C367 C 0.65691 0.11386 0.47986 0.0
C368 C 0.72342 0.15481 0.48219 0.0
C369 C 0.75408 0.22525 0.45959 0.0
H370 H 0.83635 0.27185 0.49047 0.0
C371 C 0.86945 0.3581 0.45372 0.0
C372 C 0.90593 0.36892 0.45589 0.0
C373 C 0.84005 0.32784 0.45815 0.0
C374 C 0.81375 0.25906 0.48165 0.0
H375 H 0.62674 0.13071 0.47153 0.0
H376 H 0.68065 0.18525 0.46877 0.0
H377 H 0.78333 0.21724 0.49531 0.0
H378 H 0.94015 0.35689 0.4651 0.0
H379 H 0.88859 0.30367 0.47278 0.0
H380 H 0.78423 0.26659 0.44584 0.0
C381 C 0.68449 0.16826 0.47291 0.0
C382 C 0.78335 0.22775 0.48443 0.0
C383 C 0.65346 0.1369 0.47458 0.0
C384 C 0.91235 0.34928 0.46335 0.0
C385 C 0.88278 0.31878 0.46773 0.0
C386 C 0.78433 0.25637 0.45681 0.0
C387 C 0.71995 0.17755 0.47642 0.0
C388 C 0.75296 0.21057 0.47349 0.0
C389 C 0.8462 0.30738 0.4648 0.0
C390 C 0.81445 0.27389 0.46787 0.0
H391 H 0.69594 0.10619 0.48797 0.0
H392 H 0.7503 0.16108 0.48493 0.0
H393 H 0.73164 0.21254 0.45068 0.0
H394 H 0.8636 0.37289 0.44827 0.0
H395 H 0.81235 0.32029 0.45612 0.0
C396 C 0.60735 0.70893 0.79981 0.0
C397 C 0.60778 0.70229 0.81597 0.0
C398 C 0.60241 0.73173 0.79609 0.0
C399 C 0.60867 0.80124 0.81426 0.0
H400 H 0.55392 0.78804 0.77515 0.0
C401 C 0.57382 0.88624 0.79676 0.0
C402 C 0.5792 0.89412 0.78046 0.0
C403 C 0.57638 0.86266 0.80183 0.0
C404 C 0.56947 0.79217 0.78607 0.0
H405 H 0.6026 0.71395 0.84091 0.0
H406 H 0.59328 0.75334 0.83443 0.0
H407 H 0.55913 0.74682 0.78262 0.0
H408 H 0.59313 0.88413 0.75692 0.0
H409 H 0.59688 0.84287 0.76568 0.0
H410 H 0.61866 0.84661 0.81769 0.0
C411 C 0.59758 0.74144 0.82461 0.0
C412 C 0.57258 0.76856 0.79034 0.0
C413 C 0.6028 0.71878 0.82834 0.0
C414 C 0.58779 0.87817 0.76947 0.0
C415 C 0.59006 0.85452 0.77449 0.0
C416 C 0.6053 0.82478 0.81004 0.0
C417 C 0.59746 0.74833 0.80843 0.0
C418 C 0.59263 0.77291 0.80438 0.0
C419 C 0.58416 0.84631 0.79069 0.0
C420 C 0.58607 0.82068 0.79578 0.0
H421 H 0.61173 0.69704 0.79002 0.0
H422 H 0.60325 0.73678 0.78351 0.0
H423 H 0.6247 0.80565 0.82505 0.0
H424 H 0.56688 0.89782 0.80554 0.0
H425 H 0.57151 0.85674 0.81438 0.0
C426 C 0.83198 0.40995 0.18837 0.0
C427 C 0.84728 0.44248 0.1903 0.0
C428 C 0.79387 0.38674 0.18803 0.0
C429 C 0.72106 0.35258 0.17022 0.0
H430 H 0.65263 0.36679 0.18803 0.0
C431 C 0.61815 0.34964 0.13175 0.0
C432 C 0.58585 0.34322 0.13827 0.0
C433 C 0.64166 0.34747 0.14111 0.0
C434 C 0.67086 0.36168 0.18315 0.0
H435 H 0.83513 0.47614 0.19494 0.0
H436 H 0.76891 0.43602 0.19401 0.0
H437 H 0.71106 0.39059 0.20216 0.0
H438 H 0.55101 0.32618 0.15919 0.0
H439 H 0.59263 0.32293 0.17569 0.0
H440 H 0.6815 0.32476 0.15089 0.0
C441 C 0.78598 0.42808 0.19301 0.0
C442 C 0.7046 0.37567 0.19117 0.0
C443 C 0.82406 0.45123 0.19348 0.0
C444 C 0.57613 0.33199 0.15393 0.0
C445 C 0.59984 0.33 0.16337 0.0
C446 C 0.68726 0.33842 0.16228 0.0
C447 C 0.7704 0.3957 0.18945 0.0
C448 C 0.73102 0.37298 0.18423 0.0
C449 C 0.63354 0.33892 0.15725 0.0
C450 C 0.66286 0.34455 0.16811 0.0
H451 H 0.84943 0.40259 0.18618 0.0
H452 H 0.7828 0.36198 0.18564 0.0
H453 H 0.74058 0.34985 0.16448 0.0
H454 H 0.62682 0.35872 0.11983 0.0
H455 H 0.66763 0.35499 0.13607 0.0
C456 C 0.42663 0.90996 0.46912 0.0
C457 C 0.46034 0.91805 0.47492 0.0
C458 C 0.39487 0.87835 0.46856 0.0
C459 C 0.36281 0.795 0.46719 0.0
H460 H 0.27012 0.77738 0.47962 0.0
C461 C 0.22715 0.66594 0.4645 0.0
C462 C 0.19643 0.662 0.45768 0.0
C463 C 0.25925 0.69655 0.46883 0.0
C464 C 0.29569 0.78184 0.47598 0.0
H465 H 0.48694 0.89894 0.4846 0.0
H466 H 0.43145 0.8437 0.48352 0.0
H467 H 0.32645 0.83188 0.48233 0.0
H468 H 0.17467 0.68703 0.45097 0.0
H469 H 0.23038 0.74004 0.45823 0.0
H470 H 0.33194 0.74508 0.46045 0.0
C471 C 0.42969 0.8619 0.47937 0.0
C472 C 0.32803 0.81315 0.47754 0.0
C473 C 0.46148 0.89362 0.48005 0.0
C474 C 0.19797 0.68922 0.45602 0.0
C475 C 0.2299 0.71969 0.46035 0.0
C476 C 0.33039 0.76366 0.46554 0.0
C477 C 0.39594 0.85389 0.47369 0.0
C478 C 0.36193 0.82022 0.47295 0.0
C479 C 0.26128 0.72388 0.46652 0.0
C480 C 0.29628 0.75671 0.46969 0.0
H481 H 0.42465 0.92809 0.46507 0.0
H482 H 0.36948 0.87299 0.4639 0.0
H483 H 0.38838 0.79963 0.46341 0.0
H484 H 0.22694 0.64549 0.46586 0.0
H485 H 0.28267 0.69881 0.47376 0.0
C486 C 0.52469 0.30171 0.83626 0.0
C487 C 0.55417 0.33435 0.83591 0.0
C488 C 0.52969 0.27843 0.83205 0.0
C489 C 0.58933 0.26591 0.80832 0.0
H490 H 0.54538 0.19075 0.83277 0.0
C491 C 0.61643 0.17381 0.79249 0.0
C492 C 0.58646 0.1414 0.79288 0.0
C493 C 0.61386 0.1975 0.79903 0.0
C494 C 0.55753 0.21142 0.8257 0.0
H495 H 0.61236 0.36792 0.83126 0.0
H496 H 0.62087 0.32731 0.82369 0.0
H497 H 0.53801 0.23167 0.84158 0.0
H498 H 0.5305 0.10842 0.80072 0.0
H499 H 0.52572 0.14971 0.81194 0.0
H500 H 0.60819 0.24555 0.79223 0.0
C501 C 0.59379 0.31977 0.82708 0.0
C502 C 0.55335 0.2349 0.83077 0.0
C503 C 0.58886 0.34306 0.83139 0.0
C504 C 0.55421 0.13318 0.8004 0.0
C505 C 0.55151 0.1569 0.80684 0.0
C506 C 0.59331 0.24238 0.80319 0.0
C507 C 0.56422 0.28718 0.82727 0.0
C508 C 0.56917 0.26242 0.82213 0.0
C509 C 0.58112 0.18941 0.806 0.0
C510 C 0.57747 0.21478 0.81179 0.0
H511 H 0.49745 0.29405 0.83942 0.0
H512 H 0.50624 0.25353 0.83212 0.0
H513 H 0.60135 0.28655 0.80123 0.0
H514 H 0.64184 0.18089 0.78698 0.0
H515 H 0.63754 0.22221 0.7985 0.0
C516 C 0.60124 0.85012 0.49496 0.0
C517 C 0.58054 0.8581 0.5034 0.0
C518 C 0.59722 0.82229 0.49799 0.0
C519 C 0.56556 0.76451 0.52957 0.0
H520 H 0.57056 0.71355 0.49543 0.0
C521 C 0.53994 0.64657 0.54243 0.0
C522 C 0.56455 0.64127 0.53582 0.0
C523 C 0.53958 0.67125 0.53738 0.0
C524 C 0.56939 0.72767 0.50511 0.0
H525 H 0.53829 0.84236 0.52117 0.0
H526 H 0.53102 0.79375 0.52636 0.0
H527 H 0.57394 0.75982 0.48867 0.0
H528 H 0.60731 0.65721 0.51829 0.0
H529 H 0.6067 0.70042 0.50944 0.0
H530 H 0.56123 0.7326 0.54601 0.0
C531 C 0.55099 0.80934 0.51765 0.0
C532 C 0.57135 0.75422 0.50125 0.0
C533 C 0.5551 0.8372 0.51466 0.0
C534 C 0.58782 0.6605 0.52354 0.0
C535 C 0.58747 0.68527 0.51848 0.0
C536 C 0.56353 0.73799 0.53341 0.0
C537 C 0.57233 0.80171 0.50951 0.0
C538 C 0.56949 0.77301 0.51344 0.0
C539 C 0.56383 0.69132 0.52557 0.0
C540 C 0.56542 0.71922 0.52125 0.0
H541 H 0.6214 0.86588 0.48635 0.0
H542 H 0.61446 0.81744 0.49165 0.0
H543 H 0.56483 0.77875 0.53933 0.0
H544 H 0.52111 0.63177 0.55167 0.0
H545 H 0.52043 0.67476 0.54284 0.0
C546 C 0.71754 0.55134 0.83694 0.0
C547 C 0.68203 0.52393 0.84005 0.0
C548 C 0.74849 0.55147 0.83791 0.0
C549 C 0.77643 0.49713 0.83857 0.0
H550 H 0.86911 0.57361 0.85544 0.0
C551 C 0.90265 0.49828 0.85323 0.0
C552 C 0.93847 0.52619 0.85102 0.0
C553 C 0.87154 0.49774 0.85142 0.0
C554 C 0.84369 0.55208 0.85047 0.0
H555 H 0.65186 0.47493 0.84659 0.0
H556 H 0.70542 0.4752 0.84838 0.0
H557 H 0.81563 0.57325 0.85323 0.0
H558 H 0.96869 0.5752 0.84453 0.0
H559 H 0.91495 0.57421 0.84128 0.0
H560 H 0.80449 0.47595 0.83583 0.0
C561 C 0.70949 0.49666 0.84499 0.0
C562 C 0.81274 0.55187 0.8492 0.0
C563 C 0.67856 0.49656 0.84405 0.0
C564 C 0.94187 0.55334 0.84663 0.0
C565 C 0.91079 0.55279 0.8448 0.0
C566 C 0.8074 0.49734 0.83982 0.0
C567 C 0.74512 0.52415 0.842 0.0
C568 C 0.77845 0.52439 0.84324 0.0
C569 C 0.875 0.52507 0.8473 0.0
C570 C 0.84168 0.52483 0.84581 0.0
H571 H 0.72157 0.57291 0.83379 0.0
H572 H 0.77512 0.57303 0.83526 0.0
H573 H 0.75094 0.47558 0.83366 0.0
H574 H 0.89857 0.47695 0.85687 0.0
H575 H 0.84478 0.47597 0.8537 0.0
C576 C 0.1596 0.64406 0.1582 0.0
C577 C 0.15981 0.61845 0.15252 0.0
C578 C 0.19173 0.67545 0.15845 0.0
C579 C 0.29272 0.72349 0.15969 0.0
H580 H 0.28774 0.79047 0.14677 0.0
C581 C 0.42143 0.85614 0.16302 0.0
C582 C 0.41579 0.87809 0.16962 0.0
C583 C 0.39141 0.8246 0.15851 0.0
C584 C 0.28964 0.77214 0.15054 0.0
H585 H 0.19431 0.60594 0.14271 0.0
H586 H 0.25053 0.66084 0.14331 0.0
H587 H 0.23313 0.7351 0.14402 0.0
H588 H 0.37417 0.88454 0.17575 0.0
H589 H 0.32218 0.82987 0.16822 0.0
H590 H 0.34894 0.76058 0.16666 0.0
C591 C 0.22538 0.65652 0.14756 0.0
C592 C 0.25828 0.74035 0.14895 0.0
C593 C 0.19309 0.62507 0.14715 0.0
C594 C 0.37952 0.86817 0.17088 0.0
C595 C 0.34963 0.83679 0.16639 0.0
C596 C 0.32409 0.75536 0.16138 0.0
C597 C 0.22505 0.68211 0.15316 0.0
C598 C 0.25924 0.71566 0.15374 0.0
C599 C 0.35506 0.81435 0.16043 0.0
C600 C 0.32282 0.78019 0.15709 0.0
H601 H 0.13453 0.63992 0.16241 0.0
H602 H 0.19058 0.69453 0.16305 0.0
H603 H 0.29434 0.70508 0.16361 0.0
H604 H 0.449 0.86295 0.16196 0.0
H605 H 0.39669 0.80813 0.15376 0.0
C606 C 0.50428 0.17633 0.47924 0.0
C607 C 0.53385 0.17451 0.47941 0.0
C608 C 0.50976 0.20503 0.48364 0.0
C609 C 0.57279 0.28108 0.50755 0.0
H610 H 0.52493 0.30903 0.48397 0.0
C611 C 0.60319 0.4027 0.52404 0.0
C612 C 0.5733 0.40403 0.52417 0.0
C613 C 0.59928 0.37581 0.51728 0.0
C614 C 0.53821 0.30143 0.49079 0.0
H615 H 0.59269 0.20198 0.48386 0.0
H616 H 0.60211 0.25185 0.49171 0.0
H617 H 0.5162 0.25987 0.47476 0.0
H618 H 0.51606 0.37846 0.51693 0.0
H619 H 0.50897 0.33123 0.5053 0.0
H620 H 0.59424 0.32208 0.52377 0.0
C621 C 0.57457 0.23092 0.48836 0.0
C622 C 0.53324 0.27326 0.48549 0.0
C623 C 0.56913 0.20229 0.48388 0.0
C624 C 0.53969 0.37826 0.51688 0.0
C625 C 0.53567 0.35119 0.5102 0.0
C626 C 0.5776 0.3091 0.5129 0.0
C627 C 0.54492 0.2326 0.4884 0.0
C628 C 0.5505 0.26277 0.49381 0.0
C629 C 0.56526 0.34938 0.51057 0.0
C630 C 0.56043 0.31971 0.50459 0.0
H631 H 0.47663 0.15537 0.47611 0.0
H632 H 0.48625 0.2054 0.48374 0.0
H633 H 0.58596 0.2734 0.51441 0.0
H634 H 0.62961 0.4224 0.52934 0.0
H635 H 0.62293 0.37566 0.51743 0.0
C636 C 0.45501 0.49709 0.84984 0.0
C637 C 0.48705 0.52008 0.84174 0.0
C638 C 0.42467 0.49791 0.85062 0.0
C639 C 0.39773 0.55212 0.84485 0.0
H640 H 0.29882 0.47387 0.84693 0.0
C641 C 0.274 0.55385 0.86063 0.0
C642 C 0.23838 0.52928 0.85435 0.0
C643 C 0.30372 0.55266 0.85808 0.0
C644 C 0.32612 0.49605 0.84618 0.0
H645 H 0.5115 0.56185 0.82788 0.0
H646 H 0.45876 0.56288 0.82887 0.0
H647 H 0.35052 0.47164 0.84422 0.0
H648 H 0.20714 0.4844 0.83991 0.0
H649 H 0.25906 0.48272 0.83506 0.0
H650 H 0.37335 0.57649 0.84632 0.0
C651 C 0.45714 0.54448 0.83501 0.0
C652 C 0.35613 0.4948 0.84486 0.0
C653 C 0.48755 0.54378 0.83433 0.0
C654 C 0.23397 0.50391 0.84492 0.0
C655 C 0.26386 0.50274 0.84233 0.0
C656 C 0.36775 0.55336 0.84608 0.0
C657 C 0.42508 0.52165 0.84324 0.0
C658 C 0.39262 0.52284 0.84428 0.0
C659 C 0.29929 0.52696 0.84902 0.0
C660 C 0.33132 0.52538 0.84691 0.0
H661 H 0.45344 0.47852 0.85579 0.0
H662 H 0.4011 0.48013 0.85733 0.0
H663 H 0.42509 0.57442 0.84464 0.0
H664 H 0.27905 0.57415 0.86772 0.0
H665 H 0.33009 0.57172 0.86366 0.0
C666 C 0.93736 0.41598 0.16168 0.0
C667 C 0.96386 0.42287 0.15017 0.0
C668 C 0.90634 0.38469 0.16342 0.0
C669 C 0.84868 0.30283 0.14359 0.0
H670 H 0.81851 0.27968 0.18767 0.0
C671 C 0.73311 0.17273 0.16195 0.0
C672 C 0.71052 0.16997 0.17458 0.0
C673 C 0.76336 0.20295 0.15752 0.0
C674 C 0.82623 0.28577 0.17526 0.0
H675 H 0.97809 0.40192 0.13131 0.0
H676 H 0.92396 0.34691 0.13455 0.0
H677 H 0.87252 0.33304 0.18279 0.0
H678 H 0.70031 0.19666 0.19155 0.0
H679 H 0.75241 0.2489 0.18379 0.0
H680 H 0.8021 0.2551 0.13617 0.0
C681 C 0.92707 0.36598 0.14208 0.0
C682 C 0.8573 0.31648 0.17245 0.0
C683 C 0.95822 0.39751 0.14028 0.0
C684 C 0.71764 0.19795 0.18203 0.0
C685 C 0.74763 0.22794 0.17761 0.0
C686 C 0.81745 0.27189 0.14642 0.0
C687 C 0.90096 0.35915 0.15384 0.0
C688 C 0.86871 0.32566 0.15658 0.0
C689 C 0.77152 0.23092 0.16562 0.0
C690 C 0.80553 0.26316 0.1623 0.0
H691 H 0.94076 0.43472 0.16962 0.0
H692 H 0.88656 0.38054 0.17239 0.0
H693 H 0.85655 0.30909 0.13121 0.0
H694 H 0.72837 0.15162 0.15601 0.0
H695 H 0.7812 0.20437 0.14823 0.0
C696 C 0.04756 0.5061 0.09813 0.0
C697 C 0.05102 0.53183 0.10649 0.0
C698 C 0.05029 0.50516 0.08126 0.0
C699 C 0.08519 0.55661 0.04647 0.0
H700 H 1.01847 0.4766 0.02127 0.0
C701 C 0.10151 0.54277 0.97777 0.0
C702 C 0.06932 0.5247 0.96793 0.0
C703 C 0.09951 0.54343 -0.00533 0.0
C704 C 1.03714 0.49919 0.02811 0.0
H705 H 0.06029 0.57684 0.10384 0.0
H706 H 0.06466 0.57512 0.07439 0.0
H707 H 1.01442 0.47836 0.0507 0.0
H708 H 1.00973 0.49287 0.96824 0.0
H709 H 1.00623 0.49452 -0.0023 0.0
H710 H 0.10739 0.57759 0.02388 0.0
C711 C 0.06026 0.5558 0.08084 0.0
C712 C 1.03512 0.50012 0.04501 0.0
C713 C 0.05753 0.55672 0.0977 0.0
C714 C 1.03507 0.50729 0.97543 0.0
C715 C 1.03307 0.50794 -0.00766 0.0
C716 C 0.08723 0.55567 0.02958 0.0
C717 C 0.05658 0.52997 0.07239 0.0
C718 C 0.05906 0.52886 0.05441 0.0
C719 C 0.06527 0.52605 0.00217 0.0
C720 C 0.0632 0.52696 0.02018 0.0
H721 H 0.04275 0.48666 0.10462 0.0
H722 H 0.04785 0.48515 0.07518 0.0
H723 H 0.10433 0.57909 0.05333 0.0
H724 H 0.12835 0.55675 0.97243 0.0
H725 H 0.12487 0.55736 0.00185 0.0
C726 C 0.54031 0.00559 0.42649 0.0
C727 C 0.57424 0.01686 0.43365 0.0
C728 C 0.53756 0.00812 0.4099 0.0
C729 C 0.59372 0.05159 0.37481 0.0
H730 H 0.5132 0.97827 0.3492 0.0
C731 C 0.59688 0.04016 0.30525 0.0
C732 C 0.56417 0.02697 0.29628 0.0
C733 C 0.59673 0.0401 0.32214 0.0
C734 C 0.53558 -0.00087 0.3562 0.0
H735 H 0.63193 0.04002 0.42925 0.0
H736 H 0.62717 0.04426 0.40039 0.0
H737 H 0.51514 0.97638 0.37856 0.0
H738 H 0.50572 0.00385 0.29812 0.0
H739 H 0.50547 0.0037 0.32763 0.0
H740 H 0.61441 0.07423 0.35248 0.0
C741 C 0.60272 0.03374 0.40752 0.0
C742 C 0.53667 -0.00196 0.37303 0.0
C743 C 0.60541 0.03111 0.42404 0.0
C744 C 0.53131 0.0138 0.30464 0.0
C745 C 0.53116 0.01373 0.32155 0.0
C746 C 0.59262 0.05268 0.35801 0.0
C747 C 0.56876 0.02215 0.40022 0.0
C748 C 0.56604 0.02411 0.3825 0.0
C749 C 0.56387 0.02684 0.3305 0.0
C750 C 0.56381 0.02631 0.34847 0.0
H751 H 0.51587 0.99462 0.43366 0.0
H752 H 0.51108 -0.00075 0.40466 0.0
H753 H 0.61637 0.07229 0.3818 0.0
H754 H 0.62256 0.05001 0.29919 0.0
H755 H 0.62231 0.04987 0.32863 0.0
C756 C 0.60705 0.53475 0.78776 0.0
C757 C 0.573 0.50906 0.79334 0.0
C758 C 0.61207 0.53954 0.77115 0.0
C759 C 0.57782 0.49557 0.7318 0.0
H760 H 0.61425 0.576 0.71405 0.0
C761 C 0.56441 0.50314 0.66376 0.0
C762 C 0.59261 0.53053 0.65623 0.0
C763 C 0.5644 0.50216 0.68059 0.0
C764 C 0.60462 0.55352 0.7188 0.0
H765 H 0.51747 0.46859 0.78604 0.0
H766 H 0.52648 0.47657 0.75715 0.0
H767 H 0.61091 0.57185 0.74344 0.0
H768 H 0.64298 0.57843 0.6604 0.0
H769 H 0.64359 0.57653 0.68986 0.0
H770 H 0.57197 0.47713 0.70741 0.0
C771 C 0.54923 0.493 0.76556 0.0
C772 C 0.60264 0.55117 0.73563 0.0
C773 C 0.54406 0.48851 0.78209 0.0
C774 C 0.62076 0.55707 0.66591 0.0
C775 C 0.62101 0.55598 0.68279 0.0
C776 C 0.58024 0.49798 0.71505 0.0
C777 C 0.5833 0.51838 0.7599 0.0
C778 C 0.58854 0.52199 0.74224 0.0
C779 C 0.59288 0.52842 0.69034 0.0
C780 C 0.59294 0.52678 0.70828 0.0
H781 H 0.62985 0.55086 0.79619 0.0
H782 H 0.63863 0.55925 0.76706 0.0
H783 H 0.56741 0.47292 0.73662 0.0
H784 H 0.542 0.48254 0.65662 0.0
H785 H 0.54174 0.48083 0.68594 0.0
C786 C 0.51604 -0.00017 0.53416 0.0
C787 C 0.54672 0.01768 0.52436 0.0
C788 C 0.52069 -0.00133 0.5507 0.0
C789 C 0.58475 0.04477 0.58469 0.0
H790 H 0.52831 0.96504 0.60594 0.0
C791 C 0.56789 0.03742 0.65404 0.0
C792 C 0.57365 0.01727 0.66143 0.0
C793 C 0.56636 0.03738 0.63717 0.0
C794 C 0.54437 0.98744 0.60014 0.0
H795 H 0.60626 0.048 0.52402 0.0
H796 H 0.61442 0.04651 0.55309 0.0
H797 H 0.52241 0.96452 0.5765 0.0
H798 H 0.58282 0.98154 0.65663 0.0
H799 H 0.57884 0.98079 0.62719 0.0
H800 H 0.6061 0.06776 0.60836 0.0
C801 C 0.58682 0.03335 0.54794 0.0
C802 C 0.54084 0.98715 0.58335 0.0
C803 C 0.58215 0.03411 0.53134 0.0
C804 C 0.57766 0.99696 0.65144 0.0
C805 C 0.57558 0.99661 0.63456 0.0
C806 C 0.58783 0.0451 0.60151 0.0
C807 C 0.55612 0.01571 0.55778 0.0
C808 C 0.56091 0.01583 0.57548 0.0
C809 C 0.57002 0.01688 0.62728 0.0
C810 C 0.56759 0.01645 0.6094 0.0
H811 H 0.48842 0.98687 0.52904 0.0
H812 H 0.49657 0.98507 0.55803 0.0
H813 H 0.60033 0.06722 0.57893 0.0
H814 H 0.56391 0.05291 0.66126 0.0
H815 H 0.56156 0.05295 0.63185 0.0
C816 C 0.55867 0.5024 0.88963 0.0
C817 C 0.59431 0.52679 0.88489 0.0
C818 C 0.55275 0.49115 0.90509 0.0
C819 C 0.59806 0.48615 0.93992 0.0
H820 H 0.51816 0.47591 0.96389 0.0
C821 C 0.54879 0.42667 0.00151 0.0
C822 C 0.54185 0.44245 0.01348 0.0
C823 C 0.55623 0.43657 0.98566 0.0
C824 C 0.54063 0.47874 0.95737 0.0
H825 H 0.65183 0.55821 0.89241 0.0
H826 H 0.64148 0.53851 0.91958 0.0
H827 H 0.52939 0.494 0.93648 0.0
H828 H 0.53902 0.48193 0.01827 0.0
H829 H 0.55126 0.49865 0.99066 0.0
H830 H 0.6094 0.47108 0.96096 0.0
C831 C 0.61816 0.52803 0.91128 0.0
C832 C 0.54686 0.48882 0.94163 0.0
C833 C 0.62406 0.53945 0.8958 0.0
C834 C 0.54322 0.46866 0.00928 0.0
C835 C 0.55038 0.47836 -0.00653 0.0
C836 C 0.59161 0.47577 0.95566 0.0
C837 C 0.58239 0.50395 0.91612 0.0
C838 C 0.57571 0.49277 0.93276 0.0
C839 C 0.55667 0.46229 0.98146 0.0
C840 C 0.56299 0.4722 0.96457 0.0
H841 H 0.53525 0.4921 0.8814 0.0
H842 H 0.52494 0.47231 0.90841 0.0
H843 H 0.62033 0.48877 0.93331 0.0
H844 H 0.54771 0.40629 0.0043 0.0
H845 H 0.56077 0.42363 0.97659 0.0
C846 C 0.06306 0.48235 0.20252 0.0
C847 C 0.07203 0.50861 0.19424 0.0
C848 C 0.05946 0.48221 0.21931 0.0
C849 C 0.04388 0.51977 0.25407 0.0
H850 H 0.08472 0.48711 0.27901 0.0
C851 C 0.05599 0.53325 0.32413 0.0
C852 C 0.04836 0.50724 0.33228 0.0
C853 C 0.05765 0.5331 0.30724 0.0
C854 C 0.07275 0.49594 0.27221 0.0
H855 H 0.08434 0.55535 0.19693 0.0
H856 H 0.07827 0.55526 0.22638 0.0
H857 H 0.09041 0.48789 0.24969 0.0
H858 H 1.03622 0.46055 0.32901 0.0
H859 H 1.03846 0.46005 0.29953 0.0
H860 H 1.02632 0.52788 0.27665 0.0
C861 C 0.07358 0.53459 0.21987 0.0
C862 C 0.07604 0.49641 0.2554 0.0
C863 C 0.0772 0.53473 0.20303 0.0
C864 C 0.04187 0.48086 0.32311 0.0
C865 C 0.04358 0.48074 0.30622 0.0
C866 C 0.04059 0.51929 0.27091 0.0
C867 C 0.06482 0.50836 0.2282 0.0
C868 C 0.06158 0.50826 0.24612 0.0
C869 C 0.05177 0.50696 0.29809 0.0
C870 C 0.05494 0.50731 0.28018 0.0
H871 H 0.05868 0.4618 0.19601 0.0
H872 H 0.05212 0.46142 0.22531 0.0
H873 H 1.03202 0.52866 0.24725 0.0
H874 H 0.0607 0.55378 0.33081 0.0
H875 H 0.06429 0.55379 0.30137 0.0
loop_
_geom_bond_atom_site_label_1
_geom_bond_atom_site_label_2
_geom_bond_distance
_geom_bond_site_symmetry_2
_ccdc_geom_bond_type
Gd0 C3 2.818 . S
Gd0 O20 2.377 . S
Gd0 O22 2.448 . S
Gd0 O23 2.506 . S
Gd0 O24 2.435 . S
Gd0 O25 2.717 . S
Gd0 O27 2.395 1_455 S
Gd0 O31 2.327 . S
Gd1 C12 2.818 1_455 S
Gd1 O21 2.395 . S
Gd1 O25 2.327 . S
Gd1 O26 2.377 1_455 S
Gd1 O28 2.448 1_455 S
Gd1 O29 2.506 1_455 S
Gd1 O30 2.435 . S
Gd1 O31 2.717 . S
C2 O20 1.240 . S
C2 O21 1.240 . S
C3 Gd0 2.818 . S
C3 C4 1.510 . S
C3 O22 1.249 . S
C3 O23 1.252 . S
C4 C3 1.510 . S
C4 C5 1.404 . S
C4 C6 1.352 . S
C5 C4 1.404 . S
C5 C9 1.389 . S
C5 H32 0.930 . S
C6 C4 1.352 . S
C6 C8 1.374 . S
C6 H33 0.931 . S
C7 C8 1.359 . S
C7 C9 1.364 . S
C8 C6 1.374 . S
C8 C7 1.359 . S
C8 H34 0.931 . S
C9 C5 1.389 . S
C9 C7 1.364 . S
C9 H35 0.931 . S
C10 O24 1.256 . S
C10 O25 1.257 . S
C11 O26 1.240 . S
C11 O27 1.240 . S
C12 Gd1 2.818 1_655 S
C12 C13 1.510 . S
C12 O28 1.249 . S
C12 O29 1.252 . S
C13 C12 1.510 . S
C13 C14 1.404 . S
C13 C15 1.352 . S
C14 C13 1.404 . S
C14 C18 1.389 . S
C14 H36 0.930 . S
C15 C13 1.352 . S
C15 C17 1.374 . S
C15 H37 0.931 . S
C16 C17 1.359 . S
C16 C18 1.364 . S
C17 C15 1.374 . S
C17 C16 1.359 . S
C17 H38 0.931 . S
C18 C14 1.389 . S
C18 C16 1.364 . S
C18 H39 0.931 . S
C19 O30 1.256 . S
C19 O31 1.257 . S
O20 Gd0 2.377 . S
O20 C2 1.240 . S
O21 Gd1 2.395 . S
O21 C2 1.240 . S
O22 Gd0 2.448 . S
O22 C3 1.249 . S
O23 Gd0 2.506 . S
O23 C3 1.252 . S
O24 Gd0 2.435 . S
O24 C10 1.256 . S
O25 Gd0 2.717 . S
O25 Gd1 2.327 . S
O25 C10 1.257 . S
O26 Gd1 2.377 1_655 S
O26 C11 1.240 . S
O27 Gd0 2.395 1_655 S
O27 C11 1.240 . S
O28 Gd1 2.448 1_655 S
O28 C12 1.249 . S
O29 Gd1 2.506 1_655 S
O29 C12 1.252 . S
O30 Gd1 2.435 . S
O30 C19 1.256 . S
O31 Gd0 2.327 . S
O31 Gd1 2.717 . S
O31 C19 1.257 . S
H32 C5 0.930 . S
H33 C6 0.931 . S
H34 C8 0.931 . S
H35 C9 0.931 . S
H36 C14 0.930 . S
H37 C15 0.931 . S
H38 C17 0.931 . S
H39 C18 0.931 . S
Gd40 C43 2.818 . S
Gd40 O60 2.377 . S
Gd40 O62 2.448 . S
Gd40 O63 2.506 . S
Gd40 O64 2.435 . S
Gd40 O65 2.717 1_565 S
Gd40 O67 2.395 1_565 S
Gd40 O71 2.327 1_565 S
Gd41 C52 2.818 . S
Gd41 O61 2.395 1_545 S
Gd41 O65 2.327 . S
Gd41 O66 2.377 . S
Gd41 O68 2.448 . S
Gd41 O69 2.506 . S
Gd41 O70 2.435 . S
Gd41 O71 2.717 . S
C42 O60 1.240 . S
C42 O61 1.240 . S
C43 Gd40 2.818 . S
C43 C44 1.510 . S
C43 O62 1.249 . S
C43 O63 1.252 . S
C44 C43 1.510 . S
C44 C45 1.404 . S
C44 C46 1.352 . S
C45 C44 1.404 . S
C45 C49 1.389 . S
C45 H72 0.930 . S
C46 C44 1.352 . S
C46 C48 1.374 . S
C46 H73 0.931 . S
C47 C48 1.359 . S
C47 C49 1.364 . S
C48 C46 1.374 . S
C48 C47 1.359 . S
C48 H74 0.931 . S
C49 C45 1.389 . S
C49 C47 1.364 . S
C49 H75 0.931 . S
C50 O64 1.256 1_545 S
C50 O65 1.257 . S
C51 O66 1.240 . S
C51 O67 1.240 . S
C52 Gd41 2.818 . S
C52 C53 1.510 . S
C52 O68 1.249 . S
C52 O69 1.252 . S
C53 C52 1.510 . S
C53 C54 1.404 . S
C53 C55 1.352 . S
C54 C53 1.404 . S
C54 C58 1.389 . S
C54 H76 0.930 . S
C55 C53 1.352 . S
C55 C57 1.374 . S
C55 H77 0.931 . S
C56 C57 1.359 . S
C56 C58 1.364 . S
C57 C55 1.374 . S
C57 C56 1.359 . S
C57 H78 0.931 . S
C58 C54 1.389 . S
C58 C56 1.364 . S
C58 H79 0.931 . S
C59 O70 1.256 . S
C59 O71 1.257 . S
O60 Gd40 2.377 . S
O60 C42 1.240 . S
O61 Gd41 2.395 1_565 S
O61 C42 1.240 . S
O62 Gd40 2.448 . S
O62 C43 1.249 . S
O63 Gd40 2.506 . S
O63 C43 1.252 . S
O64 Gd40 2.435 . S
O64 C50 1.256 1_565 S
O65 Gd40 2.717 1_545 S
O65 Gd41 2.327 . S
O65 C50 1.257 . S
O66 Gd41 2.377 . S
O66 C51 1.240 . S
O67 Gd40 2.395 1_545 S
O67 C51 1.240 . S
O68 Gd41 2.448 . S
O68 C52 1.249 . S
O69 Gd41 2.506 . S
O69 C52 1.252 . S
O70 Gd41 2.435 . S
O70 C59 1.256 . S
O71 Gd40 2.327 1_545 S
O71 Gd41 2.717 . S
O71 C59 1.257 . S
H72 C45 0.930 . S
H73 C46 0.931 . S
H74 C48 0.931 . S
H75 C49 0.931 . S
H76 C54 0.930 . S
H77 C55 0.931 . S
H78 C57 0.931 . S
H79 C58 0.931 . S
Gd80 C83 2.818 . S
Gd80 O100 2.377 . S
Gd80 O102 2.448 . S
Gd80 O103 2.506 . S
Gd80 O104 2.435 . S
Gd80 O105 2.717 . S
Gd80 O107 2.395 . S
Gd80 O111 2.327 . S
Gd81 C92 2.818 . S
Gd81 O101 2.395 . S
Gd81 O105 2.327 . S
Gd81 O106 2.377 . S
Gd81 O108 2.448 . S
Gd81 O109 2.506 . S
Gd81 O110 2.435 . S
Gd81 O111 2.717 . S
C82 O100 1.240 . S
C82 O101 1.240 . S
C83 Gd80 2.818 . S
C83 C84 1.510 . S
C83 O102 1.249 . S
C83 O103 1.252 . S
C84 C83 1.510 . S
C84 C85 1.404 . S
C84 C86 1.352 . S
C85 C84 1.404 . S
C85 C89 1.389 . S
C85 H112 0.930 . S
C86 C84 1.352 . S
C86 C88 1.374 . S
C86 H113 0.931 . S
C87 C88 1.359 . S
C87 C89 1.364 . S
C88 C86 1.374 . S
C88 C87 1.359 . S
C88 H114 0.931 . S
C89 C85 1.389 . S
C89 C87 1.364 . S
C89 H115 0.931 . S
C90 O104 1.256 . S
C90 O105 1.257 . S
C91 O106 1.240 . S
C91 O107 1.240 . S
C92 Gd81 2.818 . S
C92 C93 1.510 . S
C92 O108 1.249 . S
C92 O109 1.252 . S
C93 C92 1.510 . S
C93 C94 1.404 . S
C93 C95 1.352 . S
C94 C93 1.404 . S
C94 C98 1.389 . S
C94 H116 0.930 . S
C95 C93 1.352 . S
C95 C97 1.374 . S
C95 H117 0.931 . S
C96 C97 1.359 . S
C96 C98 1.364 . S
C97 C95 1.374 . S
C97 C96 1.359 . S
C97 H118 0.931 . S
C98 C94 1.389 . S
C98 C96 1.364 . S
C98 H119 0.931 . S
C99 O110 1.256 . S
C99 O111 1.257 . S
O100 Gd80 2.377 . S
O100 C82 1.240 . S
O101 Gd81 2.395 . S
O101 C82 1.240 . S
O102 Gd80 2.448 . S
O102 C83 1.249 . S
O103 Gd80 2.506 . S
O103 C83 1.252 . S
O104 Gd80 2.435 . S
O104 C90 1.256 . S
O105 Gd80 2.717 . S
O105 Gd81 2.327 . S
O105 C90 1.257 . S
O106 Gd81 2.377 . S
O106 C91 1.240 . S
O107 Gd80 2.395 . S
O107 C91 1.240 . S
O108 Gd81 2.448 . S
O108 C92 1.249 . S
O109 Gd81 2.506 . S
O109 C92 1.252 . S
O110 Gd81 2.435 . S
O110 C99 1.256 . S
O111 Gd80 2.327 . S
O111 Gd81 2.717 . S
O111 C99 1.257 . S
H112 C85 0.930 . S
H113 C86 0.931 . S
H114 C88 0.931 . S
H115 C89 0.931 . S
H116 C94 0.930 . S
H117 C95 0.931 . S
H118 C97 0.931 . S
H119 C98 0.931 . S
C120 C121 1.384 . S
C120 H133 0.947 . S
C120 C155 1.382 . S
C121 C120 1.384 . S
C121 C122 1.378 . S
C122 C121 1.378 . S
C122 C123 1.378 . S
C122 H134 0.952 . S
C123 C122 1.378 . S
C123 H135 0.950 . S
C123 C154 1.383 . S
H124 C143 0.947 . S
H125 C144 0.946 . S
H126 C146 0.953 . S
H127 C147 0.945 . S
H128 C149 0.952 . S
H129 C150 0.949 . S
H130 C152 0.950 . S
H131 C153 0.948 . S
H132 C155 0.951 . S
H133 C120 0.947 . S
H134 C122 0.952 . S
H135 C123 0.950 . S
N136 C139 1.382 . S
N136 C141 1.363 1_545 S
N137 C139 1.371 . S
N137 C140 1.372 . S
N138 C140 1.361 1_565 S
N138 C141 1.377 . S
C139 N136 1.382 . S
C139 N137 1.371 . S
C139 C142 1.480 . S
C140 N137 1.372 . S
C140 N138 1.361 1_545 S
C140 C148 1.457 . S
C141 N136 1.363 1_565 S
C141 N138 1.377 . S
C141 C154 1.479 . S
C142 C139 1.480 . S
C142 C143 1.383 . S
C142 C147 1.385 . S
C143 H124 0.947 . S
C143 C142 1.383 . S
C143 C144 1.388 . S
C144 H125 0.946 . S
C144 C143 1.388 . S
C144 C145 1.384 . S
C145 C144 1.384 . S
C145 C146 1.377 . S
C146 H126 0.953 . S
C146 C145 1.377 . S
C146 C147 1.369 . S
C147 H127 0.945 . S
C147 C142 1.385 . S
C147 C146 1.369 . S
C148 C140 1.457 . S
C148 C149 1.372 . S
C148 C153 1.364 1_545 S
C149 H128 0.952 . S
C149 C148 1.372 . S
C149 C150 1.389 . S
C150 H129 0.949 . S
C150 C149 1.389 . S
C150 C151 1.387 . S
C151 C150 1.387 . S
C151 C152 1.372 1_545 S
C152 H130 0.950 . S
C152 C151 1.372 1_565 S
C152 C153 1.379 . S
C153 H131 0.948 . S
C153 C148 1.364 1_565 S
C153 C152 1.379 . S
C154 C123 1.383 . S
C154 C141 1.479 . S
C154 C155 1.398 . S
C155 C120 1.382 . S
C155 H132 0.951 . S
C155 C154 1.398 . S
C156 C157 1.384 . S
C156 H169 0.947 . S
C156 C191 1.382 . S
C157 C156 1.384 . S
C157 C158 1.378 . S
C158 C157 1.378 . S
C158 C159 1.378 . S
C158 H170 0.952 . S
C159 C158 1.378 . S
C159 H171 0.950 . S
C159 C190 1.383 . S
H160 C179 0.947 . S
H161 C180 0.946 . S
H162 C182 0.953 . S
H163 C183 0.945 . S
H164 C185 0.952 . S
H165 C186 0.949 . S
H166 C188 0.950 . S
H167 C189 0.948 . S
H168 C191 0.951 . S
H169 C156 0.947 . S
H170 C158 0.952 . S
H171 C159 0.950 . S
N172 C175 1.382 . S
N172 C177 1.363 . S
N173 C175 1.371 . S
N173 C176 1.372 . S
N174 C176 1.361 . S
N174 C177 1.377 . S
C175 N172 1.382 . S
C175 N173 1.371 . S
C175 C178 1.480 . S
C176 N173 1.372 . S
C176 N174 1.361 . S
C176 C184 1.457 . S
C177 N172 1.363 . S
C177 N174 1.377 . S
C177 C190 1.479 . S
C178 C175 1.480 . S
C178 C179 1.383 . S
C178 C183 1.385 . S
C179 H160 0.947 . S
C179 C178 1.383 . S
C179 C180 1.388 . S
C180 H161 0.946 . S
C180 C179 1.388 . S
C180 C181 1.384 . S
C181 C180 1.384 . S
C181 C182 1.377 . S
C182 H162 0.953 . S
C182 C181 1.377 . S
C182 C183 1.369 . S
C183 H163 0.945 . S
C183 C178 1.385 . S
C183 C182 1.369 . S
C184 C176 1.457 . S
C184 C185 1.372 . S
C184 C189 1.364 . S
C185 H164 0.952 . S
C185 C184 1.372 . S
C185 C186 1.389 . S
C186 H165 0.949 . S
C186 C185 1.389 . S
C186 C187 1.387 . S
C187 C186 1.387 . S
C187 C188 1.372 . S
C188 H166 0.950 . S
C188 C187 1.372 . S
C188 C189 1.379 . S
C189 H167 0.948 . S
C189 C184 1.364 . S
C189 C188 1.379 . S
C190 C159 1.383 . S
C190 C177 1.479 . S
C190 C191 1.398 . S
C191 C156 1.382 . S
C191 H168 0.951 . S
C191 C190 1.398 . S
C192 C193 1.384 . S
C192 H205 0.947 . S
C192 C227 1.382 . S
C193 C192 1.384 . S
C193 C194 1.378 . S
C194 C193 1.378 . S
C194 C195 1.378 1_655 S
C194 H206 0.952 . S
C195 C194 1.378 1_455 S
C195 H207 0.950 . S
C195 C226 1.383 . S
H196 C215 0.947 . S
H197 C216 0.946 . S
H198 C218 0.953 . S
H199 C219 0.945 . S
H200 C221 0.952 . S
H201 C222 0.949 . S
H202 C224 0.950 . S
H203 C225 0.948 . S
H204 C227 0.951 . S
H205 C192 0.947 . S
H206 C194 0.952 . S
H207 C195 0.950 . S
N208 C211 1.382 . S
N208 C213 1.363 . S
N209 C211 1.371 . S
N209 C212 1.372 . S
N210 C212 1.361 . S
N210 C213 1.377 . S
C211 N208 1.382 . S
C211 N209 1.371 . S
C211 C214 1.480 . S
C212 N209 1.372 . S
C212 N210 1.361 . S
C212 C220 1.457 . S
C213 N208 1.363 . S
C213 N210 1.377 . S
C213 C226 1.479 . S
C214 C211 1.480 . S
C214 C215 1.383 . S
C214 C219 1.385 . S
C215 H196 0.947 . S
C215 C214 1.383 . S
C215 C216 1.388 . S
C216 H197 0.946 . S
C216 C215 1.388 . S
C216 C217 1.384 . S
C217 C216 1.384 . S
C217 C218 1.377 . S
C218 H198 0.953 . S
C218 C217 1.377 . S
C218 C219 1.369 . S
C219 H199 0.945 . S
C219 C214 1.385 . S
C219 C218 1.369 . S
C220 C212 1.457 . S
C220 C221 1.372 . S
C220 C225 1.364 . S
C221 H200 0.952 . S
C221 C220 1.372 . S
C221 C222 1.389 . S
C222 H201 0.949 . S
C222 C221 1.389 . S
C222 C223 1.387 . S
C223 C222 1.387 . S
C223 C224 1.372 . S
C224 H202 0.950 . S
C224 C223 1.372 . S
C224 C225 1.379 . S
C225 H203 0.948 . S
C225 C220 1.364 . S
C225 C224 1.379 . S
C226 C195 1.383 . S
C226 C213 1.479 . S
C226 C227 1.398 1_455 S
C227 C192 1.382 . S
C227 H204 0.951 . S
C227 C226 1.398 1_655 S
C228 C229 1.384 . S
C228 H241 0.947 . S
C228 C263 1.382 . S
C229 C228 1.384 . S
C229 C230 1.378 . S
C230 C229 1.378 . S
C230 C231 1.378 . S
C230 H242 0.952 . S
C231 C230 1.378 . S
C231 H243 0.950 . S
C231 C262 1.383 . S
H232 C251 0.947 . S
H233 C252 0.946 . S
H234 C254 0.953 . S
H235 C255 0.945 . S
H236 C257 0.952 . S
H237 C258 0.949 . S
H238 C260 0.950 . S
H239 C261 0.948 . S
H240 C263 0.951 . S
H241 C228 0.947 . S
H242 C230 0.952 . S
H243 C231 0.950 . S
N244 C247 1.382 1_455 S
N244 C249 1.363 . S
N245 C247 1.371 . S
N245 C248 1.372 1_655 S
N246 C248 1.361 . S
N246 C249 1.377 . S
C247 N244 1.382 1_655 S
C247 N245 1.371 . S
C247 C250 1.480 . S
C248 N245 1.372 1_455 S
C248 N246 1.361 . S
C248 C256 1.457 . S
C249 N244 1.363 . S
C249 N246 1.377 . S
C249 C262 1.479 . S
C250 C247 1.480 . S
C250 C251 1.383 . S
C250 C255 1.385 . S
C251 H232 0.947 . S
C251 C250 1.383 . S
C251 C252 1.388 . S
C252 H233 0.946 . S
C252 C251 1.388 . S
C252 C253 1.384 . S
C253 C252 1.384 . S
C253 C254 1.377 . S
C254 H234 0.953 . S
C254 C253 1.377 . S
C254 C255 1.369 . S
C255 H235 0.945 . S
C255 C250 1.385 . S
C255 C254 1.369 . S
C256 C248 1.457 . S
C256 C257 1.372 1_455 S
C256 C261 1.364 . S
C257 H236 0.952 . S
C257 C256 1.372 1_655 S
C257 C258 1.389 . S
C258 H237 0.949 . S
C258 C257 1.389 . S
C258 C259 1.376 1_655 S
C259 C258 1.376 1_455 S
C259 C260 1.384 . S
C260 H238 0.950 . S
C260 C259 1.384 . S
C260 C261 1.379 . S
C261 H239 0.948 . S
C261 C256 1.364 . S
C261 C260 1.379 . S
C262 C231 1.383 . S
C262 C249 1.479 . S
C262 C263 1.398 . S
C263 C228 1.382 . S
C263 H240 0.951 . S
C263 C262 1.398 . S
C264 C265 1.384 . S
C264 H277 0.947 . S
C264 C299 1.382 . S
C265 C264 1.384 . S
C265 C266 1.378 . S
C266 C265 1.378 . S
C266 C267 1.378 . S
C266 H278 0.952 . S
C267 C266 1.378 . S
C267 H279 0.950 . S
C267 C298 1.383 . S
H268 C287 0.947 . S
H269 C288 0.946 . S
H270 C290 0.953 . S
H271 C291 0.945 . S
H272 C293 0.952 . S
H273 C294 0.949 . S
H274 C296 0.950 . S
H275 C297 0.948 . S
H276 C299 0.951 . S
H277 C264 0.947 . S
H278 C266 0.952 . S
H279 C267 0.950 . S
N280 C283 1.382 1_545 S
N280 C285 1.363 . S
N281 C283 1.371 . S
N281 C284 1.372 1_565 S
N282 C284 1.361 . S
N282 C285 1.377 . S
C283 N280 1.382 1_565 S
C283 N281 1.371 . S
C283 C286 1.480 . S
C284 N281 1.372 1_545 S
C284 N282 1.361 . S
C284 C292 1.457 . S
C285 N280 1.363 . S
C285 N282 1.377 . S
C285 C298 1.479 . S
C286 C283 1.480 . S
C286 C287 1.383 . S
C286 C291 1.385 . S
C287 H268 0.947 . S
C287 C286 1.383 . S
C287 C288 1.388 . S
C288 H269 0.946 . S
C288 C287 1.388 . S
C288 C289 1.384 . S
C289 C288 1.384 . S
C289 C290 1.377 . S
C290 H270 0.953 . S
C290 C289 1.377 . S
C290 C291 1.369 . S
C291 H271 0.945 . S
C291 C286 1.385 . S
C291 C290 1.369 . S
C292 C284 1.457 . S
C292 C293 1.372 1_545 S
C292 C297 1.364 . S
C293 H272 0.952 . S
C293 C292 1.372 1_565 S
C293 C294 1.389 . S
C294 H273 0.949 . S
C294 C293 1.389 . S
C294 C295 1.391 1_565 S
C295 C294 1.391 1_545 S
C295 C296 1.368 . S
C296 H274 0.950 . S
C296 C295 1.368 . S
C296 C297 1.379 . S
C297 H275 0.948 . S
C297 C292 1.364 . S
C297 C296 1.379 . S
C298 C267 1.383 . S
C298 C285 1.479 . S
C298 C299 1.398 . S
C299 C264 1.382 . S
C299 H276 0.951 . S
C299 C298 1.398 . S
C300 C301 1.384 . S
C300 H313 0.947 . S
C300 C335 1.382 . S
C301 C300 1.384 . S
C301 C302 1.378 . S
C302 C301 1.378 . S
C302 C303 1.378 . S
C302 H314 0.952 . S
C303 C302 1.378 . S
C303 H315 0.950 . S
C303 C334 1.383 . S
H304 C323 0.947 . S
H305 C324 0.946 . S
H306 C326 0.953 . S
H307 C327 0.945 . S
H308 C329 0.952 . S
H309 C330 0.949 . S
H310 C332 0.950 . S
H311 C333 0.948 . S
H312 C335 0.951 . S
H313 C300 0.947 . S
H314 C302 0.952 . S
H315 C303 0.950 . S
N316 C319 1.382 . S
N316 C321 1.363 . S
N317 C319 1.371 . S
N317 C320 1.372 . S
N318 C320 1.361 . S
N318 C321 1.377 . S
C319 N316 1.382 . S
C319 N317 1.371 . S
C319 C322 1.480 . S
C320 N317 1.372 . S
C320 N318 1.361 . S
C320 C328 1.457 . S
C321 N316 1.363 . S
C321 N318 1.377 . S
C321 C334 1.479 . S
C322 C319 1.480 . S
C322 C323 1.383 . S
C322 C327 1.385 . S
C323 H304 0.947 . S
C323 C322 1.383 . S
C323 C324 1.388 . S
C324 H305 0.946 . S
C324 C323 1.388 . S
C324 C325 1.384 . S
C325 C324 1.384 . S
C325 C326 1.377 . S
C326 H306 0.953 . S
C326 C325 1.377 . S
C326 C327 1.369 . S
C327 H307 0.945 . S
C327 C322 1.385 . S
C327 C326 1.369 . S
C328 C320 1.457 . S
C328 C329 1.372 . S
C328 C333 1.364 . S
C329 H308 0.952 . S
C329 C328 1.372 . S
C329 C330 1.389 . S
C330 H309 0.949 . S
C330 C329 1.389 . S
C330 C331 1.387 . S
C331 C330 1.387 . S
C331 C332 1.372 . S
C332 H310 0.950 . S
C332 C331 1.372 . S
C332 C333 1.379 . S
C333 H311 0.948 . S
C333 C328 1.364 . S
C333 C332 1.379 . S
C334 C303 1.383 . S
C334 C321 1.479 . S
C334 C335 1.398 . S
C335 C300 1.382 . S
C335 H312 0.951 . S
C335 C334 1.398 . S
C336 C337 1.349 . S
C336 C338 1.327 . S
C336 H361 0.950 . S
C337 C336 1.349 . S
C337 C353 1.349 . S
C338 C336 1.327 . S
C338 C357 1.429 . S
C338 H362 0.950 . S
C339 C356 1.574 . S
C339 C358 1.368 . S
C339 H363 0.949 . S
H340 C344 0.949 . S
C341 C342 1.349 . S
C341 C343 1.327 . S
C341 H364 0.950 . S
C342 C341 1.349 . S
C342 C354 1.349 . S
C343 C341 1.327 . S
C343 C359 1.429 . S
C343 H365 0.950 . S
C344 H340 0.949 . S
C344 C352 1.574 . S
C344 C360 1.368 . S
H345 C353 0.950 . S
H346 C351 0.950 . S
H347 C352 0.949 . S
H348 C354 0.950 . S
H349 C355 0.950 . S
H350 C356 0.949 . S
C351 H346 0.950 . S
C351 C353 1.327 . S
C351 C357 1.429 . S
C352 C344 1.574 . S
C352 H347 0.949 . S
C352 C358 1.368 . S
C353 C337 1.349 . S
C353 H345 0.950 . S
C353 C351 1.327 . S
C354 C342 1.349 . S
C354 H348 0.950 . S
C354 C355 1.327 . S
C355 H349 0.950 . S
C355 C354 1.327 . S
C355 C359 1.429 . S
C356 C339 1.574 . S
C356 H350 0.949 . S
C356 C360 1.368 . S
C357 C338 1.429 . S
C357 C351 1.429 . S
C357 C358 1.523 . S
C358 C339 1.368 . S
C358 C352 1.368 . S
C358 C357 1.523 . S
C359 C343 1.429 . S
C359 C355 1.429 . S
C359 C360 1.523 . S
C360 C344 1.368 . S
C360 C356 1.368 . S
C360 C359 1.523 . S
H361 C336 0.950 . S
H362 C338 0.950 . S
H363 C339 0.949 . S
H364 C341 0.950 . S
H365 C343 0.950 . S
C366 C367 1.349 . S
C366 C368 1.327 . S
C366 H391 0.950 . S
C367 C366 1.349 . S
C367 C383 1.349 . S
C368 C366 1.327 . S
C368 C387 1.429 . S
C368 H392 0.950 . S
C369 C386 1.574 . S
C369 C388 1.368 . S
C369 H393 0.949 . S
H370 C374 0.949 . S
C371 C372 1.349 . S
C371 C373 1.327 . S
C371 H394 0.950 . S
C372 C371 1.349 . S
C372 C384 1.349 . S
C373 C371 1.327 . S
C373 C389 1.429 . S
C373 H395 0.950 . S
C374 H370 0.949 . S
C374 C382 1.574 . S
C374 C390 1.368 . S
H375 C383 0.950 . S
H376 C381 0.950 . S
H377 C382 0.949 . S
H378 C384 0.950 . S
H379 C385 0.950 . S
H380 C386 0.949 . S
C381 H376 0.950 . S
C381 C383 1.327 . S
C381 C387 1.429 . S
C382 C374 1.574 . S
C382 H377 0.949 . S
C382 C388 1.368 . S
C383 C367 1.349 . S
C383 H375 0.950 . S
C383 C381 1.327 . S
C384 C372 1.349 . S
C384 H378 0.950 . S
C384 C385 1.327 . S
C385 H379 0.950 . S
C385 C384 1.327 . S
C385 C389 1.429 . S
C386 C369 1.574 . S
C386 H380 0.949 . S
C386 C390 1.368 . S
C387 C368 1.429 . S
C387 C381 1.429 . S
C387 C388 1.523 . S
C388 C369 1.368 . S
C388 C382 1.368 . S
C388 C387 1.523 . S
C389 C373 1.429 . S
C389 C385 1.429 . S
C389 C390 1.523 . S
C390 C374 1.368 . S
C390 C386 1.368 . S
C390 C389 1.523 . S
H391 C366 0.950 . S
H392 C368 0.950 . S
H393 C369 0.949 . S
H394 C371 0.950 . S
H395 C373 0.950 . S
C396 C397 1.349 . S
C396 C398 1.327 . S
C396 H421 0.950 . S
C397 C396 1.349 . S
C397 C413 1.349 . S
C398 C396 1.327 . S
C398 C417 1.429 . S
C398 H422 0.950 . S
C399 C416 1.574 . S
C399 C418 1.368 . S
C399 H423 0.949 . S
H400 C404 0.949 . S
C401 C402 1.349 . S
C401 C403 1.327 . S
C401 H424 0.950 . S
C402 C401 1.349 . S
C402 C414 1.349 . S
C403 C401 1.327 . S
C403 C419 1.429 . S
C403 H425 0.950 . S
C404 H400 0.949 . S
C404 C412 1.574 . S
C404 C420 1.368 . S
H405 C413 0.950 . S
H406 C411 0.950 . S
H407 C412 0.949 . S
H408 C414 0.950 . S
H409 C415 0.950 . S
H410 C416 0.949 . S
C411 H406 0.950 . S
C411 C413 1.327 . S
C411 C417 1.429 . S
C412 C404 1.574 . S
C412 H407 0.949 . S
C412 C418 1.368 . S
C413 C397 1.349 . S
C413 H405 0.950 . S
C413 C411 1.327 . S
C414 C402 1.349 . S
C414 H408 0.950 . S
C414 C415 1.327 . S
C415 H409 0.950 . S
C415 C414 1.327 . S
C415 C419 1.429 . S
C416 C399 1.574 . S
C416 H410 0.949 . S
C416 C420 1.368 . S
C417 C398 1.429 . S
C417 C411 1.429 . S
C417 C418 1.523 . S
C418 C399 1.368 . S
C418 C412 1.368 . S
C418 C417 1.523 . S
C419 C403 1.429 . S
C419 C415 1.429 . S
C419 C420 1.523 . S
C420 C404 1.368 . S
C420 C416 1.368 . S
C420 C419 1.523 . S
H421 C396 0.950 . S
H422 C398 0.950 . S
H423 C399 0.949 . S
H424 C401 0.950 . S
H425 C403 0.950 . S
C426 C427 1.349 . S
C426 C428 1.327 . S
C426 H451 0.950 . S
C427 C426 1.349 . S
C427 C443 1.349 . S
C428 C426 1.327 . S
C428 C447 1.429 . S
C428 H452 0.950 . S
C429 C446 1.574 . S
C429 C448 1.368 . S
C429 H453 0.949 . S
H430 C434 0.949 . S
C431 C432 1.349 . S
C431 C433 1.327 . S
C431 H454 0.950 . S
C432 C431 1.349 . S
C432 C444 1.349 . S
C433 C431 1.327 . S
C433 C449 1.429 . S
C433 H455 0.950 . S
C434 H430 0.949 . S
C434 C442 1.574 . S
C434 C450 1.368 . S
H435 C443 0.950 . S
H436 C441 0.950 . S
H437 C442 0.949 . S
H438 C444 0.950 . S
H439 C445 0.950 . S
H440 C446 0.949 . S
C441 H436 0.950 . S
C441 C443 1.327 . S
C441 C447 1.429 . S
C442 C434 1.574 . S
C442 H437 0.949 . S
C442 C448 1.368 . S
C443 C427 1.349 . S
C443 H435 0.950 . S
C443 C441 1.327 . S
C444 C432 1.349 . S
C444 H438 0.950 . S
C444 C445 1.327 . S
C445 H439 0.950 . S
C445 C444 1.327 . S
C445 C449 1.429 . S
C446 C429 1.574 . S
C446 H440 0.949 . S
C446 C450 1.368 . S
C447 C428 1.429 . S
C447 C441 1.429 . S
C447 C448 1.523 . S
C448 C429 1.368 . S
C448 C442 1.368 . S
C448 C447 1.523 . S
C449 C433 1.429 . S
C449 C445 1.429 . S
C449 C450 1.523 . S
C450 C434 1.368 . S
C450 C446 1.368 . S
C450 C449 1.523 . S
H451 C426 0.950 . S
H452 C428 0.950 . S
H453 C429 0.949 . S
H454 C431 0.950 . S
H455 C433 0.950 . S
C456 C457 1.349 . S
C456 C458 1.327 . S
C456 H481 0.950 . S
C457 C456 1.349 . S
C457 C473 1.349 . S
C458 C456 1.327 . S
C458 C477 1.429 . S
C458 H482 0.950 . S
C459 C476 1.574 . S
C459 C478 1.368 . S
C459 H483 0.949 . S
H460 C464 0.949 . S
C461 C462 1.349 . S
C461 C463 1.327 . S
C461 H484 0.950 . S
C462 C461 1.349 . S
C462 C474 1.349 . S
C463 C461 1.327 . S
C463 C479 1.429 . S
C463 H485 0.950 . S
C464 H460 0.949 . S
C464 C472 1.574 . S
C464 C480 1.368 . S
H465 C473 0.950 . S
H466 C471 0.950 . S
H467 C472 0.949 . S
H468 C474 0.950 . S
H469 C475 0.950 . S
H470 C476 0.949 . S
C471 H466 0.950 . S
C471 C473 1.327 . S
C471 C477 1.429 . S
C472 C464 1.574 . S
C472 H467 0.949 . S
C472 C478 1.368 . S
C473 C457 1.349 . S
C473 H465 0.950 . S
C473 C471 1.327 . S
C474 C462 1.349 . S
C474 H468 0.950 . S
C474 C475 1.327 . S
C475 H469 0.950 . S
C475 C474 1.327 . S
C475 C479 1.429 . S
C476 C459 1.574 . S
C476 H470 0.949 . S
C476 C480 1.368 . S
C477 C458 1.429 . S
C477 C471 1.429 . S
C477 C478 1.523 . S
C478 C459 1.368 . S
C478 C472 1.368 . S
C478 C477 1.523 . S
C479 C463 1.429 . S
C479 C475 1.429 . S
C479 C480 1.523 . S
C480 C464 1.368 . S
C480 C476 1.368 . S
C480 C479 1.523 . S
H481 C456 0.950 . S
H482 C458 0.950 . S
H483 C459 0.949 . S
H484 C461 0.950 . S
H485 C463 0.950 . S
C486 C487 1.349 . S
C486 C488 1.327 . S
C486 H511 0.950 . S
C487 C486 1.349 . S
C487 C503 1.349 . S
C488 C486 1.327 . S
C488 C507 1.429 . S
C488 H512 0.950 . S
C489 C506 1.574 . S
C489 C508 1.368 . S
C489 H513 0.949 . S
H490 C494 0.949 . S
C491 C492 1.349 . S
C491 C493 1.327 . S
C491 H514 0.950 . S
C492 C491 1.349 . S
C492 C504 1.349 . S
C493 C491 1.327 . S
C493 C509 1.429 . S
C493 H515 0.950 . S
C494 H490 0.949 . S
C494 C502 1.574 . S
C494 C510 1.368 . S
H495 C503 0.950 . S
H496 C501 0.950 . S
H497 C502 0.949 . S
H498 C504 0.950 . S
H499 C505 0.950 . S
H500 C506 0.949 . S
C501 H496 0.950 . S
C501 C503 1.327 . S
C501 C507 1.429 . S
C502 C494 1.574 . S
C502 H497 0.949 . S
C502 C508 1.368 . S
C503 C487 1.349 . S
C503 H495 0.950 . S
C503 C501 1.327 . S
C504 C492 1.349 . S
C504 H498 0.950 . S
C504 C505 1.327 . S
C505 H499 0.950 . S
C505 C504 1.327 . S
C505 C509 1.429 . S
C506 C489 1.574 . S
C506 H500 0.949 . S
C506 C510 1.368 . S
C507 C488 1.429 . S
C507 C501 1.429 . S
C507 C508 1.523 . S
C508 C489 1.368 . S
C508 C502 1.368 . S
C508 C507 1.523 . S
C509 C493 1.429 . S
C509 C505 1.429 . S
C509 C510 1.523 . S
C510 C494 1.368 . S
C510 C506 1.368 . S
C510 C509 1.523 . S
H511 C486 0.950 . S
H512 C488 0.950 . S
H513 C489 0.949 . S
H514 C491 0.950 . S
H515 C493 0.950 . S
C516 C517 1.349 . S
C516 C518 1.327 . S
C516 H541 0.950 . S
C517 C516 1.349 . S
C517 C533 1.349 . S
C518 C516 1.327 . S
C518 C537 1.429 . S
C518 H542 0.950 . S
C519 C536 1.574 . S
C519 C538 1.368 . S
C519 H543 0.949 . S
H520 C524 0.949 . S
C521 C522 1.349 . S
C521 C523 1.327 . S
C521 H544 0.950 . S
C522 C521 1.349 . S
C522 C534 1.349 . S
C523 C521 1.327 . S
C523 C539 1.429 . S
C523 H545 0.950 . S
C524 H520 0.949 . S
C524 C532 1.574 . S
C524 C540 1.368 . S
H525 C533 0.950 . S
H526 C531 0.950 . S
H527 C532 0.949 . S
H528 C534 0.950 . S
H529 C535 0.950 . S
H530 C536 0.949 . S
C531 H526 0.950 . S
C531 C533 1.327 . S
C531 C537 1.429 . S
C532 C524 1.574 . S
C532 H527 0.949 . S
C532 C538 1.368 . S
C533 C517 1.349 . S
C533 H525 0.950 . S
C533 C531 1.327 . S
C534 C522 1.349 . S
C534 H528 0.950 . S
C534 C535 1.327 . S
C535 H529 0.950 . S
C535 C534 1.327 . S
C535 C539 1.429 . S
C536 C519 1.574 . S
C536 H530 0.949 . S
C536 C540 1.368 . S
C537 C518 1.429 . S
C537 C531 1.429 . S
C537 C538 1.523 . S
C538 C519 1.368 . S
C538 C532 1.368 . S
C538 C537 1.523 . S
C539 C523 1.429 . S
C539 C535 1.429 . S
C539 C540 1.523 . S
C540 C524 1.368 . S
C540 C536 1.368 . S
C540 C539 1.523 . S
H541 C516 0.950 . S
H542 C518 0.950 . S
H543 C519 0.949 . S
H544 C521 0.950 . S
H545 C523 0.950 . S
C546 C547 1.349 . S
C546 C548 1.327 . S
C546 H571 0.950 . S
C547 C546 1.349 . S
C547 C563 1.349 . S
C548 C546 1.327 . S
C548 C567 1.429 . S
C548 H572 0.950 . S
C549 C566 1.574 . S
C549 C568 1.368 . S
C549 H573 0.949 . S
H550 C554 0.949 . S
C551 C552 1.349 . S
C551 C553 1.327 . S
C551 H574 0.950 . S
C552 C551 1.349 . S
C552 C564 1.349 . S
C553 C551 1.327 . S
C553 C569 1.429 . S
C553 H575 0.950 . S
C554 H550 0.949 . S
C554 C562 1.574 . S
C554 C570 1.368 . S
H555 C563 0.950 . S
H556 C561 0.950 . S
H557 C562 0.949 . S
H558 C564 0.950 . S
H559 C565 0.950 . S
H560 C566 0.949 . S
C561 H556 0.950 . S
C561 C563 1.327 . S
C561 C567 1.429 . S
C562 C554 1.574 . S
C562 H557 0.949 . S
C562 C568 1.368 . S
C563 C547 1.349 . S
C563 H555 0.950 . S
C563 C561 1.327 . S
C564 C552 1.349 . S
C564 H558 0.950 . S
C564 C565 1.327 . S
C565 H559 0.950 . S
C565 C564 1.327 . S
C565 C569 1.429 . S
C566 C549 1.574 . S
C566 H560 0.949 . S
C566 C570 1.368 . S
C567 C548 1.429 . S
C567 C561 1.429 . S
C567 C568 1.523 . S
C568 C549 1.368 . S
C568 C562 1.368 . S
C568 C567 1.523 . S
C569 C553 1.429 . S
C569 C565 1.429 . S
C569 C570 1.523 . S
C570 C554 1.368 . S
C570 C566 1.368 . S
C570 C569 1.523 . S
H571 C546 0.950 . S
H572 C548 0.950 . S
H573 C549 0.949 . S
H574 C551 0.950 . S
H575 C553 0.950 . S
C576 C577 1.349 . S
C576 C578 1.327 . S
C576 H601 0.950 . S
C577 C576 1.349 . S
C577 C593 1.349 . S
C578 C576 1.327 . S
C578 C597 1.429 . S
C578 H602 0.950 . S
C579 C596 1.574 . S
C579 C598 1.368 . S
C579 H603 0.949 . S
H580 C584 0.949 . S
C581 C582 1.349 . S
C581 C583 1.327 . S
C581 H604 0.950 . S
C582 C581 1.349 . S
C582 C594 1.349 . S
C583 C581 1.327 . S
C583 C599 1.429 . S
C583 H605 0.950 . S
C584 H580 0.949 . S
C584 C592 1.574 . S
C584 C600 1.368 . S
H585 C593 0.950 . S
H586 C591 0.950 . S
H587 C592 0.949 . S
H588 C594 0.950 . S
H589 C595 0.950 . S
H590 C596 0.949 . S
C591 H586 0.950 . S
C591 C593 1.327 . S
C591 C597 1.429 . S
C592 C584 1.574 . S
C592 H587 0.949 . S
C592 C598 1.368 . S
C593 C577 1.349 . S
C593 H585 0.950 . S
C593 C591 1.327 . S
C594 C582 1.349 . S
C594 H588 0.950 . S
C594 C595 1.327 . S
C595 H589 0.950 . S
C595 C594 1.327 . S
C595 C599 1.429 . S
C596 C579 1.574 . S
C596 H590 0.949 . S
C596 C600 1.368 . S
C597 C578 1.429 . S
C597 C591 1.429 . S
C597 C598 1.523 . S
C598 C579 1.368 . S
C598 C592 1.368 . S
C598 C597 1.523 . S
C599 C583 1.429 . S
C599 C595 1.429 . S
C599 C600 1.523 . S
C600 C584 1.368 . S
C600 C596 1.368 . S
C600 C599 1.523 . S
H601 C576 0.950 . S
H602 C578 0.950 . S
H603 C579 0.949 . S
H604 C581 0.950 . S
H605 C583 0.950 . S
C606 C607 1.349 . S
C606 C608 1.327 . S
C606 H631 0.950 . S
C607 C606 1.349 . S
C607 C623 1.349 . S
C608 C606 1.327 . S
C608 C627 1.429 . S
C608 H632 0.950 . S
C609 C626 1.574 . S
C609 C628 1.368 . S
C609 H633 0.949 . S
H610 C614 0.949 . S
C611 C612 1.349 . S
C611 C613 1.327 . S
C611 H634 0.950 . S
C612 C611 1.349 . S
C612 C624 1.349 . S
C613 C611 1.327 . S
C613 C629 1.429 . S
C613 H635 0.950 . S
C614 H610 0.949 . S
C614 C622 1.574 . S
C614 C630 1.368 . S
H615 C623 0.950 . S
H616 C621 0.950 . S
H617 C622 0.949 . S
H618 C624 0.950 . S
H619 C625 0.950 . S
H620 C626 0.949 . S
C621 H616 0.950 . S
C621 C623 1.327 . S
C621 C627 1.429 . S
C622 C614 1.574 . S
C622 H617 0.949 . S
C622 C628 1.368 . S
C623 C607 1.349 . S
C623 H615 0.950 . S
C623 C621 1.327 . S
C624 C612 1.349 . S
C624 H618 0.950 . S
C624 C625 1.327 . S
C625 H619 0.950 . S
C625 C624 1.327 . S
C625 C629 1.429 . S
C626 C609 1.574 . S
C626 H620 0.949 . S
C626 C630 1.368 . S
C627 C608 1.429 . S
C627 C621 1.429 . S
C627 C628 1.523 . S
C628 C609 1.368 . S
C628 C622 1.368 . S
C628 C627 1.523 . S
C629 C613 1.429 . S
C629 C625 1.429 . S
C629 C630 1.523 . S
C630 C614 1.368 . S
C630 C626 1.368 . S
C630 C629 1.523 . S
H631 C606 0.950 . S
H632 C608 0.950 . S
H633 C609 0.949 . S
H634 C611 0.950 . S
H635 C613 0.950 . S
C636 C637 1.349 . S
C636 C638 1.327 . S
C636 H661 0.950 . S
C637 C636 1.349 . S
C637 C653 1.349 . S
C638 C636 1.327 . S
C638 C657 1.429 . S
C638 H662 0.950 . S
C639 C656 1.574 . S
C639 C658 1.368 . S
C639 H663 0.949 . S
H640 C644 0.949 . S
C641 C642 1.349 . S
C641 C643 1.327 . S
C641 H664 0.950 . S
C642 C641 1.349 . S
C642 C654 1.349 . S
C643 C641 1.327 . S
C643 C659 1.429 . S
C643 H665 0.950 . S
C644 H640 0.949 . S
C644 C652 1.574 . S
C644 C660 1.368 . S
H645 C653 0.950 . S
H646 C651 0.950 . S
H647 C652 0.949 . S
H648 C654 0.950 . S
H649 C655 0.950 . S
H650 C656 0.949 . S
C651 H646 0.950 . S
C651 C653 1.327 . S
C651 C657 1.429 . S
C652 C644 1.574 . S
C652 H647 0.949 . S
C652 C658 1.368 . S
C653 C637 1.349 . S
C653 H645 0.950 . S
C653 C651 1.327 . S
C654 C642 1.349 . S
C654 H648 0.950 . S
C654 C655 1.327 . S
C655 H649 0.950 . S
C655 C654 1.327 . S
C655 C659 1.429 . S
C656 C639 1.574 . S
C656 H650 0.949 . S
C656 C660 1.368 . S
C657 C638 1.429 . S
C657 C651 1.429 . S
C657 C658 1.523 . S
C658 C639 1.368 . S
C658 C652 1.368 . S
C658 C657 1.523 . S
C659 C643 1.429 . S
C659 C655 1.429 . S
C659 C660 1.523 . S
C660 C644 1.368 . S
C660 C656 1.368 . S
C660 C659 1.523 . S
H661 C636 0.950 . S
H662 C638 0.950 . S
H663 C639 0.949 . S
H664 C641 0.950 . S
H665 C643 0.950 . S
C666 C667 1.349 . S
C666 C668 1.327 . S
C666 H691 0.950 . S
C667 C666 1.349 . S
C667 C683 1.349 . S
C668 C666 1.327 . S
C668 C687 1.429 . S
C668 H692 0.950 . S
C669 C686 1.574 . S
C669 C688 1.368 . S
C669 H693 0.949 . S
H670 C674 0.949 . S
C671 C672 1.349 . S
C671 C673 1.327 . S
C671 H694 0.950 . S
C672 C671 1.349 . S
C672 C684 1.349 . S
C673 C671 1.327 . S
C673 C689 1.429 . S
C673 H695 0.950 . S
C674 H670 0.949 . S
C674 C682 1.574 . S
C674 C690 1.368 . S
H675 C683 0.950 . S
H676 C681 0.950 . S
H677 C682 0.949 . S
H678 C684 0.950 . S
H679 C685 0.950 . S
H680 C686 0.949 . S
C681 H676 0.950 . S
C681 C683 1.327 . S
C681 C687 1.429 . S
C682 C674 1.574 . S
C682 H677 0.949 . S
C682 C688 1.368 . S
C683 C667 1.349 . S
C683 H675 0.950 . S
C683 C681 1.327 . S
C684 C672 1.349 . S
C684 H678 0.950 . S
C684 C685 1.327 . S
C685 H679 0.950 . S
C685 C684 1.327 . S
C685 C689 1.429 . S
C686 C669 1.574 . S
C686 H680 0.949 . S
C686 C690 1.368 . S
C687 C668 1.429 . S
C687 C681 1.429 . S
C687 C688 1.523 . S
C688 C669 1.368 . S
C688 C682 1.368 . S
C688 C687 1.523 . S
C689 C673 1.429 . S
C689 C685 1.429 . S
C689 C690 1.523 . S
C690 C674 1.368 . S
C690 C686 1.368 . S
C690 C689 1.523 . S
H691 C666 0.950 . S
H692 C668 0.950 . S
H693 C669 0.949 . S
H694 C671 0.950 . S
H695 C673 0.950 . S
C696 C697 1.349 . S
C696 C698 1.327 . S
C696 H721 0.950 1_455 S
C697 C696 1.349 . S
C697 C713 1.349 . S
C698 C696 1.327 . S
C698 C717 1.429 . S
C698 H722 0.950 1_455 S
C699 C716 1.574 . S
C699 C718 1.368 . S
C699 H723 0.949 . S
H700 C704 0.949 1_655 S
C701 C702 1.349 . S
C701 C703 1.327 1_556 S
C701 H724 0.950 . S
C702 C701 1.349 . S
C702 C714 1.349 . S
C703 C701 1.327 1_554 S
C703 C719 1.429 . S
C703 H725 0.950 . S
C704 H700 0.949 1_455 S
C704 C712 1.574 . S
C704 C720 1.368 . S
H705 C713 0.950 . S
H706 C711 0.950 . S
H707 C712 0.949 1_655 S
H708 C714 0.956 . S
H709 C715 0.950 1_655 S
H710 C716 0.949 . S
C711 H706 0.950 . S
C711 C713 1.327 . S
C711 C717 1.429 . S
C712 C704 1.574 . S
C712 H707 0.949 1_455 S
C712 C718 1.368 . S
C713 C697 1.349 . S
C713 H705 0.950 . S
C713 C711 1.327 . S
C714 C702 1.349 . S
C714 H708 0.956 . S
C714 C715 1.327 1_556 S
C715 H709 0.950 1_455 S
C715 C714 1.327 1_554 S
C715 C719 1.429 . S
C716 C699 1.574 . S
C716 H710 0.949 . S
C716 C720 1.368 . S
C717 C698 1.429 . S
C717 C711 1.429 . S
C717 C718 1.523 . S
C718 C699 1.368 . S
C718 C712 1.368 . S
C718 C717 1.523 . S
C719 C703 1.429 . S
C719 C715 1.429 . S
C719 C720 1.523 . S
C720 C704 1.368 . S
C720 C716 1.368 . S
C720 C719 1.523 . S
H721 C696 0.950 1_655 S
H722 C698 0.950 1_655 S
H723 C699 0.949 . S
H724 C701 0.950 . S
H725 C703 0.950 . S
C726 C727 1.349 1_565 S
C726 C728 1.327 . S
C726 H751 0.950 . S
C727 C726 1.349 1_545 S
C727 C743 1.349 . S
C728 C726 1.327 . S
C728 C747 1.429 1_565 S
C728 H752 0.950 . S
C729 C746 1.574 . S
C729 C748 1.368 . S
C729 H753 0.949 . S
H730 C734 0.949 . S
C731 C732 1.349 . S
C731 C733 1.327 . S
C731 H754 0.950 . S
C732 C731 1.349 . S
C732 C744 1.350 . S
C733 C731 1.327 . S
C733 C749 1.429 . S
C733 H755 0.950 . S
C734 H730 0.949 . S
C734 C742 1.574 . S
C734 C750 1.368 1_565 S
H735 C743 0.950 . S
H736 C741 0.950 . S
H737 C742 0.949 . S
H738 C744 0.949 1_565 S
H739 C745 0.950 . S
H740 C746 0.949 . S
C741 H736 0.950 . S
C741 C743 1.327 . S
C741 C747 1.429 . S
C742 C734 1.574 . S
C742 H737 0.949 . S
C742 C748 1.368 1_565 S
C743 C727 1.349 . S
C743 H735 0.950 . S
C743 C741 1.327 . S
C744 C732 1.350 . S
C744 H738 0.949 1_545 S
C744 C745 1.327 1_545 S
C745 H739 0.950 . S
C745 C744 1.327 1_565 S
C745 C749 1.429 1_565 S
C746 C729 1.574 . S
C746 H740 0.949 . S
C746 C750 1.368 . S
C747 C728 1.429 1_545 S
C747 C741 1.429 . S
C747 C748 1.523 . S
C748 C729 1.368 . S
C748 C742 1.368 1_545 S
C748 C747 1.523 . S
C749 C733 1.429 . S
C749 C745 1.429 1_545 S
C749 C750 1.523 . S
C750 C734 1.368 1_545 S
C750 C746 1.368 . S
C750 C749 1.523 . S
H751 C726 0.950 . S
H752 C728 0.950 . S
H753 C729 0.949 . S
H754 C731 0.950 . S
H755 C733 0.950 . S
C756 C757 1.349 . S
C756 C758 1.327 . S
C756 H781 0.950 . S
C757 C756 1.349 . S
C757 C773 1.349 . S
C758 C756 1.327 . S
C758 C777 1.429 . S
C758 H782 0.950 . S
C759 C776 1.574 . S
C759 C778 1.368 . S
C759 H783 0.949 . S
H760 C764 0.949 . S
C761 C762 1.349 . S
C761 C763 1.327 . S
C761 H784 0.950 . S
C762 C761 1.349 . S
C762 C774 1.349 . S
C763 C761 1.327 . S
C763 C779 1.429 . S
C763 H785 0.950 . S
C764 H760 0.949 . S
C764 C772 1.574 . S
C764 C780 1.368 . S
H765 C773 0.950 . S
H766 C771 0.950 . S
H767 C772 0.949 . S
H768 C774 0.950 . S
H769 C775 0.950 . S
H770 C776 0.949 . S
C771 H766 0.950 . S
C771 C773 1.327 . S
C771 C777 1.429 . S
C772 C764 1.574 . S
C772 H767 0.949 . S
C772 C778 1.368 . S
C773 C757 1.349 . S
C773 H765 0.950 . S
C773 C771 1.327 . S
C774 C762 1.349 . S
C774 H768 0.950 . S
C774 C775 1.327 . S
C775 H769 0.950 . S
C775 C774 1.327 . S
C775 C779 1.429 . S
C776 C759 1.574 . S
C776 H770 0.949 . S
C776 C780 1.368 . S
C777 C758 1.429 . S
C777 C771 1.429 . S
C777 C778 1.523 . S
C778 C759 1.368 . S
C778 C772 1.368 . S
C778 C777 1.523 . S
C779 C763 1.429 . S
C779 C775 1.429 . S
C779 C780 1.523 . S
C780 C764 1.368 . S
C780 C776 1.368 . S
C780 C779 1.523 . S
H781 C756 0.950 . S
H782 C758 0.950 . S
H783 C759 0.949 . S
H784 C761 0.950 . S
H785 C763 0.950 . S
C786 C787 1.349 1_565 S
C786 C788 1.327 . S
C786 H811 0.950 . S
C787 C786 1.349 1_545 S
C787 C803 1.349 . S
C788 C786 1.327 . S
C788 C807 1.429 1_565 S
C788 H812 0.950 . S
C789 C806 1.574 . S
C789 C808 1.368 . S
C789 H813 0.949 . S
H790 C794 0.949 . S
C791 C792 1.349 1_545 S
C791 C793 1.327 . S
C791 H814 0.950 . S
C792 C791 1.349 1_565 S
C792 C804 1.349 . S
C793 C791 1.327 . S
C793 C809 1.432 . S
C793 H815 0.950 . S
C794 H790 0.949 . S
C794 C802 1.574 . S
C794 C810 1.368 1_565 S
H795 C803 0.950 . S
H796 C801 0.950 . S
H797 C802 0.949 . S
H798 C804 0.950 . S
H799 C805 0.950 . S
H800 C806 0.949 . S
C801 H796 0.950 . S
C801 C803 1.327 . S
C801 C807 1.429 . S
C802 C794 1.574 . S
C802 H797 0.949 . S
C802 C808 1.368 1_565 S
C803 C787 1.349 . S
C803 H795 0.950 . S
C803 C801 1.327 . S
C804 C792 1.349 . S
C804 H798 0.950 . S
C804 C805 1.327 . S
C805 H799 0.950 . S
C805 C804 1.327 . S
C805 C809 1.425 1_565 S
C806 C789 1.574 . S
C806 H800 0.949 . S
C806 C810 1.368 . S
C807 C788 1.429 1_545 S
C807 C801 1.429 . S
C807 C808 1.523 . S
C808 C789 1.368 . S
C808 C802 1.368 1_545 S
C808 C807 1.523 . S
C809 C793 1.432 . S
C809 C805 1.425 1_545 S
C809 C810 1.523 . S
C810 C794 1.368 1_545 S
C810 C806 1.368 . S
C810 C809 1.523 . S
H811 C786 0.950 . S
H812 C788 0.950 . S
H813 C789 0.949 . S
H814 C791 0.950 . S
H815 C793 0.950 . S
C816 C817 1.349 . S
C816 C818 1.327 . S
C816 H841 0.950 . S
C817 C816 1.349 . S
C817 C833 1.349 . S
C818 C816 1.327 . S
C818 C837 1.429 . S
C818 H842 0.950 . S
C819 C836 1.574 . S
C819 C838 1.368 . S
C819 H843 0.949 . S
H820 C824 0.949 . S
C821 C822 1.349 . S
C821 C823 1.327 1_554 S
C821 H844 0.950 . S
C822 C821 1.349 . S
C822 C834 1.349 . S
C823 C821 1.327 1_556 S
C823 C839 1.429 . S
C823 H845 0.950 . S
C824 H820 0.949 . S
C824 C832 1.574 . S
C824 C840 1.368 . S
H825 C833 0.950 . S
H826 C831 0.950 . S
H827 C832 0.949 . S
H828 C834 0.950 . S
H829 C835 0.950 . S
H830 C836 0.949 . S
C831 H826 0.950 . S
C831 C833 1.327 . S
C831 C837 1.429 . S
C832 C824 1.574 . S
C832 H827 0.949 . S
C832 C838 1.368 . S
C833 C817 1.349 . S
C833 H825 0.950 . S
C833 C831 1.327 . S
C834 C822 1.349 . S
C834 H828 0.950 . S
C834 C835 1.327 1_554 S
C835 H829 0.950 . S
C835 C834 1.327 1_556 S
C835 C839 1.429 . S
C836 C819 1.574 . S
C836 H830 0.949 . S
C836 C840 1.368 . S
C837 C818 1.429 . S
C837 C831 1.429 . S
C837 C838 1.523 . S
C838 C819 1.368 . S
C838 C832 1.368 . S
C838 C837 1.523 . S
C839 C823 1.429 . S
C839 C835 1.429 . S
C839 C840 1.523 . S
C840 C824 1.368 . S
C840 C836 1.368 . S
C840 C839 1.523 . S
H841 C816 0.950 . S
H842 C818 0.950 . S
H843 C819 0.949 . S
H844 C821 0.950 . S
H845 C823 0.950 . S
C846 C847 1.349 . S
C846 C848 1.327 . S
C846 H871 0.950 . S
C847 C846 1.349 . S
C847 C863 1.349 . S
C848 C846 1.327 . S
C848 C867 1.429 . S
C848 H872 0.950 . S
C849 C866 1.574 . S
C849 C868 1.368 . S
C849 H873 0.949 . S
H850 C854 0.949 . S
C851 C852 1.355 . S
C851 C853 1.326 1_655 S
C851 H874 0.960 . S
C852 C851 1.355 . S
C852 C864 1.332 1_655 S
C853 C851 1.326 1_455 S
C853 C869 1.429 . S
C853 H875 0.950 . S
C854 H850 0.949 . S
C854 C862 1.574 . S
C854 C870 1.368 . S
H855 C863 0.950 . S
H856 C861 0.950 . S
H857 C862 0.949 . S
H858 C864 0.950 . S
H859 C865 0.950 . S
H860 C866 0.949 . S
C861 H856 0.950 . S
C861 C863 1.327 . S
C861 C867 1.429 . S
C862 C854 1.574 . S
C862 H857 0.949 . S
C862 C868 1.368 . S
C863 C847 1.349 . S
C863 H855 0.950 . S
C863 C861 1.327 . S
C864 C852 1.332 1_455 S
C864 H858 0.950 . S
C864 C865 1.327 . S
C865 H859 0.950 . S
C865 C864 1.327 . S
C865 C869 1.429 . S
C866 C849 1.574 . S
C866 H860 0.949 . S
C866 C870 1.368 . S
C867 C848 1.429 . S
C867 C861 1.429 . S
C867 C868 1.523 . S
C868 C849 1.368 . S
C868 C862 1.368 . S
C868 C867 1.523 . S
C869 C853 1.429 . S
C869 C865 1.429 . S
C869 C870 1.523 . S
C870 C854 1.368 . S
C870 C866 1.368 . S
C870 C869 1.523 . S
H871 C846 0.950 . S
H872 C848 0.950 . S
H873 C849 0.949 . S
H874 C851 0.960 . S
H875 C853 0.950 . S
C337 C7 0.508 . S
C342 C325 0.492 . S
C367 C51 1.846 . S
C372 C253 1.788 . S
C397 C87 1.141 . S
C402 C289 1.135 . S
C427 C16 0.312 . S
C432 C301 0.225 . S
C462 C229 1.958 . S
C457 C42 1.988 . S
C492 C265 1.298 . S
C487 C96 1.301 . S
C517 C47 1.138 . S
C522 C181 1.136 . S
C547 C91 3.066 . S
C552 C193 3.026 . S
C577 C2 2.022 . S
C582 C121 1.998 . S
C612 C157 1.273 . S
C607 C56 1.270 . S
C642 C217 2.854 . S
C637 C82 2.909 . S
C667 C11 1.834 . S
C672 C145 1.781 . S
C702 C223 1.755 . S
C697 C19 1.696 . S
C727 C50 1.343 . S
C732 C151 1.378 . S
C757 C99 1.463 . S
C762 C187 1.510 . S
C792 C295 1.483 1_565 S
C787 C59 1.452 . S
C822 C331 1.135 . S
C817 C90 1.117 . S
C847 C10 1.342 . S
C852 C259 1.370 1_655 S
