# Generated by pormake.
# Topology zzz, (3,6)-cn, num edge types: 1
# Building blocks:
#     Node 0, Type 0, BuildingBlock: MIDCAF_clean_linker_0, # of connection points: 3
#     Node 1, Type 0, BuildingBlock: MIDCAF_clean_linker_0, # of connection points: 3
#     Node 2, Type 0, BuildingBlock: MIDCAF_clean_linker_0, # of connection points: 3
#     Node 3, Type 0, BuildingBlock: MIDCAF_clean_linker_0, # of connection points: 3
#     Node 4, Type 0, BuildingBlock: MIDCAF_clean_linker_0, # of connection points: 3
#     Node 5, Type 0, BuildingBlock: MIDCAF_clean_linker_0, # of connection points: 3
#     Node 6, Type 0, BuildingBlock: MIDCAF_clean_linker_0, # of connection points: 3
#     Node 7, Type 0, BuildingBlock: MIDCAF_clean_linker_0, # of connection points: 3
#     Node 8, Type 1, BuildingBlock: KUMBOL_clean_sbu_1, # of connection points: 6
#     Node 9, Type 1, BuildingBlock: KUMBOL_clean_sbu_1, # of connection points: 6
#     Node 10, Type 1, BuildingBlock: KUMBOL_clean_sbu_1, # of connection points: 6
#     Node 11, Type 1, BuildingBlock: KUMBOL_clean_sbu_1, # of connection points: 6
#     Edge 12, Type (0, 1), BuildingBlock: AJUNOK_clean_linker_0, # of connection points: 2
#     Edge 13, Type (0, 1), BuildingBlock: AJUNOK_clean_linker_0, # of connection points: 2
#     Edge 14, Type (0, 1), BuildingBlock: AJUNOK_clean_linker_0, # of connection points: 2
#     Edge 15, Type (0, 1), BuildingBlock: AJUNOK_clean_linker_0, # of connection points: 2
#     Edge 16, Type (0, 1), BuildingBlock: AJUNOK_clean_linker_0, # of connection points: 2
#     Edge 17, Type (0, 1), BuildingBlock: AJUNOK_clean_linker_0, # of connection points: 2
#     Edge 18, Type (0, 1), BuildingBlock: AJUNOK_clean_linker_0, # of connection points: 2
#     Edge 19, Type (0, 1), BuildingBlock: AJUNOK_clean_linker_0, # of connection points: 2
#     Edge 20, Type (0, 1), BuildingBlock: AJUNOK_clean_linker_0, # of connection points: 2
#     Edge 21, Type (0, 1), BuildingBlock: AJUNOK_clean_linker_0, # of connection points: 2
#     Edge 22, Type (0, 1), BuildingBlock: AJUNOK_clean_linker_0, # of connection points: 2
#     Edge 23, Type (0, 1), BuildingBlock: AJUNOK_clean_linker_0, # of connection points: 2
#     Edge 24, Type (0, 1), BuildingBlock: AJUNOK_clean_linker_0, # of connection points: 2
#     Edge 25, Type (0, 1), BuildingBlock: AJUNOK_clean_linker_0, # of connection points: 2
#     Edge 26, Type (0, 1), BuildingBlock: AJUNOK_clean_linker_0, # of connection points: 2
#     Edge 27, Type (0, 1), BuildingBlock: AJUNOK_clean_linker_0, # of connection points: 2
#     Edge 28, Type (0, 1), BuildingBlock: AJUNOK_clean_linker_0, # of connection points: 2
#     Edge 29, Type (0, 1), BuildingBlock: AJUNOK_clean_linker_0, # of connection points: 2
#     Edge 30, Type (0, 1), BuildingBlock: AJUNOK_clean_linker_0, # of connection points: 2
#     Edge 31, Type (0, 1), BuildingBlock: AJUNOK_clean_linker_0, # of connection points: 2
#     Edge 32, Type (0, 1), BuildingBlock: AJUNOK_clean_linker_0, # of connection points: 2
#     Edge 33, Type (0, 1), BuildingBlock: AJUNOK_clean_linker_0, # of connection points: 2
#     Edge 34, Type (0, 1), BuildingBlock: AJUNOK_clean_linker_0, # of connection points: 2
#     Edge 35, Type (0, 1), BuildingBlock: AJUNOK_clean_linker_0, # of connection points: 2
# Relax obj value: 0.356
# Max RMSD: 0.207
# Mean RMSD: 0.186
data_MOF--net-zzz--node1-KUMBOL_clean_sbu_1--node2-MIDCAF_clean_linker_0--edge1-AJUNOK_clean_linker_0
_symmetry_space_group_name_H-M    P1
_symmetry_Int_Tables_number       1
_symmetry_cell_setting            triclinic
loop_
_symmetry_equiv_pos_as_xyz
'x, y, z'
_cell_length_a     44.18527
_cell_length_b     44.113399
_cell_length_c     16.447791
_cell_angle_alpha  89.888478
_cell_angle_beta   89.886044
_cell_angle_gamma 90.509013
loop_
_atom_site_label
_atom_site_type_symbol
_atom_site_fract_x
_atom_site_fract_y
_atom_site_fract_z
_atom_type_partial_charge
C0 C 0.81713 0.55488 0.48793 0.0
C1 C 0.83479 0.52841 0.48404 0.0
C2 C 0.82507 0.50548 0.42979 0.0
C3 C 0.79982 0.50971 0.37823 0.0
H4 H 0.70765 0.49496 0.13593 0.0
H5 H 0.66551 0.48931 0.04029 0.0
H6 H 0.62958 0.57475 0.12093 0.0
H7 H 0.67216 0.58053 0.21477 0.0
H8 H 0.75318 0.59024 0.02466 0.0
H9 H 0.78559 0.5825 0.90675 0.0
H10 H 0.86151 0.56838 0.06804 0.0
H11 H 0.83034 0.57928 0.18261 0.0
H12 H 0.78069 0.58074 0.43708 0.0
H13 H 0.8235 0.57308 0.52871 0.0
H14 H 0.83817 0.48504 0.42292 0.0
H15 H 0.79478 0.49267 0.33277 0.0
N16 N 0.73666 0.53727 0.28705 0.0
N17 N 0.74013 0.56418 0.16313 0.0
N18 N 0.78133 0.56377 0.25134 0.0
C19 C 0.7236 0.54699 0.2154 0.0
C20 C 0.76892 0.57255 0.17998 0.0
C21 C 0.76579 0.5465 0.30561 0.0
C22 C 0.69292 0.53771 0.18553 0.0
C23 C 0.68997 0.51182 0.13607 0.0
C24 C 0.66594 0.50886 0.08001 0.0
C25 C 0.64423 0.53191 0.07063 0.0
C26 C 0.64612 0.55684 0.12412 0.0
C27 C 0.67018 0.5598 0.17989 0.0
C28 C 0.78883 0.58309 0.11317 0.0
C29 C 0.77716 0.58683 0.03428 0.0
C30 C 0.79564 0.58173 0.96663 0.0
C31 C 0.82552 0.57182 0.97772 0.0
C32 C 0.83837 0.57473 0.05582 0.0
C33 C 0.82024 0.58084 0.12279 0.0
C34 C 0.78325 0.53687 0.37938 0.0
C35 C 0.79203 0.55907 0.43633 0.0
C36 C 0.97931 0.8177 0.50841 0.0
C37 C 1.00243 0.83942 0.49421 0.0
C38 C 0.02392 0.83251 0.43348 0.0
C39 C 0.02077 0.80637 0.38418 0.0
H40 H 0.03406 0.70916 0.14945 0.0
H41 H 0.03823 0.66667 0.054 0.0
H42 H 0.95161 0.63241 0.13524 0.0
H43 H 0.94745 0.6751 0.22942 0.0
H44 H 0.93761 0.75727 0.04574 0.0
H45 H 0.94413 0.79177 0.93127 0.0
H46 H 0.96105 0.86477 0.10197 0.0
H47 H 0.94955 0.83221 0.2115 0.0
H48 H 0.95649 0.77718 0.46759 0.0
H49 H 0.96264 0.82151 0.55554 0.0
H50 H 0.04204 0.84844 0.42006 0.0
H51 H 0.03605 0.80362 0.33318 0.0
N52 N 0.99386 0.73893 0.30201 0.0
N53 N 0.96468 0.74259 0.18209 0.0
N54 N 0.96692 0.78336 0.27175 0.0
C55 C 0.98272 0.72599 0.23134 0.0
C56 C 0.95675 0.77122 0.20139 0.0
C57 C 0.98516 0.76797 0.32273 0.0
C58 C 0.99088 0.69521 0.19969 0.0
C59 C 0.01658 0.69178 0.14975 0.0
C60 C 0.01871 0.66755 0.09379 0.0
C61 C 0.99494 0.64617 0.08474 0.0
C62 C 0.9701 0.64864 0.13831 0.0
C63 C 0.96803 0.6728 0.19414 0.0
C64 C 0.94516 0.79171 0.13767 0.0
C65 C 0.94077 0.78121 0.05789 0.0
C66 C 0.94501 0.801 0.99217 0.0
C67 C 0.95504 0.83099 1.00574 0.0
C68 C 0.9535 0.84228 0.08587 0.0
C69 C 0.94742 0.82302 0.15071 0.0
C70 C 0.99636 0.78585 0.39459 0.0
C71 C 0.9762 0.79163 0.45915 0.0
C72 C 0.71663 0.98834 0.50604 0.0
C73 C 0.69509 1.00964 0.48001 0.0
C74 C 0.70255 0.02756 0.41149 0.0
C75 C 0.72938 0.02243 0.36659 0.0
H76 H 0.82704 0.03578 0.16259 0.0
H77 H 0.86852 0.04333 0.0642 0.0
H78 H 0.90604 0.95724 0.13372 0.0
H79 H 0.86492 0.9499 0.23153 0.0
H80 H 0.78725 0.93123 0.07111 0.0
H81 H 0.74796 0.93848 0.97041 0.0
H82 H 0.67987 0.92542 0.15547 0.0
H83 H 0.71893 0.91763 0.2559 0.0
H84 H 0.75793 0.96488 0.47966 0.0
H85 H 0.7122 0.97449 0.55925 0.0
H86 H 0.68664 0.04415 0.38925 0.0
H87 H 0.73287 0.03463 0.31008 0.0
N88 N 0.79747 0.99705 0.3018 0.0
N89 N 0.80086 0.9573 0.20636 0.0
N90 N 0.7585 0.96049 0.29018 0.0
C91 C 0.81338 0.9821 0.24194 0.0
C92 C 0.77343 0.94644 0.22921 0.0
C93 C 0.76996 0.9854 0.32735 0.0
C94 C 0.84293 0.99256 0.20667 0.0
C95 C 0.84498 0.01924 0.15979 0.0
C96 C 0.86861 0.02334 0.10248 0.0
C97 C 0.89058 1.0007 0.09007 0.0
C98 C 0.88946 0.97499 0.14069 0.0
C99 C 0.8661 0.97103 0.19791 0.0
C100 C 0.75589 0.92712 0.17256 0.0
C101 C 0.76394 0.92777 0.08969 0.0
C102 C 0.74136 0.93192 0.0315 0.0
C103 C 0.71124 0.93505 0.05718 0.0
C104 C 0.70316 0.92456 0.13494 0.0
C105 C 0.7257 0.92019 0.19288 0.0
C106 C 0.74981 0.99961 0.38964 0.0
C107 C 0.74333 0.98327 0.46132 0.0
C108 C 0.6012 0.70648 0.14603 0.0
C109 C 0.59127 0.71377 0.06706 0.0
C110 C 0.59805 0.74302 0.03718 0.0
C111 C 0.60474 0.7663 0.09202 0.0
H112 H 0.58044 0.86603 0.20535 0.0
H113 H 0.57082 0.90814 0.11232 0.0
H114 H 0.48097 0.87345 0.06883 0.0
H115 H 0.49063 0.83074 0.16266 0.0
H116 H 0.50579 0.72416 0.27287 0.0
H117 H 0.4988 0.67712 0.34984 0.0
H118 H 0.53841 0.71983 0.56047 0.0
H119 H 0.54642 0.76641 0.48171 0.0
H120 H 0.61244 0.72387 0.26271 0.0
H121 H 0.5977 0.68426 0.17221 0.0
H122 H 0.59293 0.749 0.97482 0.0
H123 H 0.60347 0.78949 0.07052 0.0
N124 N 0.57261 0.80411 0.2012 0.0
N125 N 0.52994 0.79882 0.28724 0.0
N126 N 0.56804 0.76187 0.28552 0.0
C127 C 0.54634 0.81557 0.2308 0.0
C128 C 0.54161 0.77189 0.31616 0.0
C129 C 0.58355 0.77726 0.22749 0.0
C130 C 0.53619 0.84498 0.19311 0.0
C131 C 0.55818 0.86778 0.17829 0.0
C132 C 0.55279 0.89194 0.12441 0.0
C133 C 0.52516 0.8943 0.08299 0.0
C134 C 0.50244 0.87247 0.10032 0.0
C135 C 0.50784 0.84813 0.15487 0.0
C136 C 0.52563 0.74981 0.37147 0.0
C137 C 0.51168 0.72402 0.33679 0.0
C138 C 0.50814 0.69667 0.38095 0.0
C139 C 0.51873 0.69384 0.46157 0.0
C140 C 0.53081 0.72033 0.49799 0.0
C141 C 0.53454 0.74761 0.45348 0.0
C142 C 0.60459 0.75978 0.17569 0.0
C143 C 0.60975 0.72962 0.19904 0.0
C144 C 0.19217 0.52299 0.9914 0.0
C145 C 0.18784 0.51056 0.91308 0.0
C146 C 0.21201 0.49371 0.88026 0.0
C147 C 0.23866 0.48831 0.92539 0.0
H148 H 0.32901 0.53579 0.19573 0.0
H149 H 0.37256 0.54494 0.28613 0.0
H150 H 0.39412 0.44975 0.27515 0.0
H151 H 0.35289 0.44151 0.18178 0.0
H152 H 0.28329 0.42278 0.31045 0.0
H153 H 0.2495 0.4319 0.42428 0.0
H154 H 0.17385 0.43485 0.25904 0.0
H155 H 0.20713 0.4243 0.14665 0.0
H156 H 0.22011 0.52578 0.09818 0.0
H157 H 0.1741 0.53517 0.02099 0.0
H158 H 0.20995 0.4837 0.82046 0.0
H159 H 0.25551 0.47325 0.90037 0.0
N160 N 0.29131 0.49478 0.0868 0.0
N161 N 0.2938 0.4546 0.18138 0.0
N162 N 0.25096 0.45975 0.10084 0.0
C163 C 0.30712 0.47903 0.14558 0.0
C164 C 0.2658 0.44491 0.16051 0.0
C165 C 0.26313 0.48423 0.06289 0.0
C166 C 0.33754 0.48798 0.17966 0.0
C167 C 0.34406 0.51723 0.20943 0.0
C168 C 0.3688 0.52228 0.26293 0.0
C169 C 0.38761 0.4982 0.28873 0.0
C170 C 0.38148 0.46935 0.25575 0.0
C171 C 0.35735 0.46449 0.2019 0.0
C172 C 0.24805 0.42639 0.21907 0.0
C173 C 0.25917 0.4234 0.29884 0.0
C174 C 0.23982 0.42888 0.36434 0.0
C175 C 0.20976 0.43715 0.34895 0.0
C176 C 0.19737 0.43027 0.2724 0.0
C177 C 0.21662 0.42424 0.20735 0.0
C178 C 0.24244 0.49994 1.00451 0.0
C179 C 0.21891 0.51781 0.03598 0.0
C180 C 1.00767 0.19825 0.98484 0.0
C181 C 0.02365 0.19342 0.91138 0.0
C182 C 0.0408 0.21826 0.88118 0.0
C183 C 0.04443 0.24524 0.92651 0.0
H184 H 0.98936 0.32996 0.20932 0.0
H185 H 0.97857 0.37233 0.30241 0.0
H186 H 0.07092 0.40362 0.27627 0.0
H187 H 0.08067 0.36325 0.18107 0.0
H188 H 0.0988 0.29077 0.31709 0.0
H189 H 0.08682 0.25244 0.41719 0.0
H190 H 0.10295 0.18264 0.23973 0.0
H191 H 0.11299 0.22123 0.13737 0.0
H192 H 0.99992 0.2274 0.0879 0.0
H193 H 0.99402 0.1802 1.01094 0.0
H194 H 0.05234 0.21671 0.82334 0.0
H195 H 0.06009 0.26241 0.90442 0.0
N196 N 0.03168 0.29732 0.08969 0.0
N197 N 0.07176 0.30241 0.18335 0.0
N198 N 0.06938 0.2599 0.10002 0.0
C199 C 0.04641 0.31391 0.14928 0.0
C200 C 0.08327 0.27547 0.16036 0.0
C201 C 0.04405 0.27031 0.06347 0.0
C202 C 0.03572 0.34337 0.18541 0.0
C203 C 1.0068 0.34685 0.22032 0.0
C204 C 1.00086 0.37093 0.27531 0.0
C205 C 0.02368 0.39219 0.29741 0.0
C206 C 0.05215 0.38898 0.2598 0.0
C207 C 0.05788 0.36541 0.20474 0.0
C208 C 0.10292 0.25877 0.21757 0.0
C209 C 0.10154 0.26725 0.29995 0.0
C210 C 0.09474 0.24514 0.35805 0.0
C211 C 0.09113 0.21491 0.33325 0.0
C212 C 0.10367 0.20619 0.25838 0.0
C213 C 0.10961 0.22839 0.19969 0.0
C214 C 0.03009 0.24915 1.0023 0.0
C215 C 0.0108 0.22559 0.02914 0.0
C216 C 0.32759 1.01037 0.97476 0.0
C217 C 0.3337 0.02691 0.90291 0.0
C218 C 0.31097 0.04649 0.87452 0.0
C219 C 0.28441 0.05143 0.91993 0.0
H220 H 0.19495 0.99919 0.18186 0.0
H221 H 0.15237 0.9869 0.27324 0.0
H222 H 0.13365 0.08237 0.29815 0.0
H223 H 0.1741 0.09411 0.20407 0.0
H224 H 0.24589 0.11401 0.30241 0.0
H225 H 0.2867 0.11389 0.40055 0.0
H226 H 0.35175 0.12097 0.20559 0.0
H227 H 0.31118 0.12188 0.10772 0.0
H228 H 0.29853 1.00458 0.07925 0.0
H229 H 0.34444 0.99512 0.99885 0.0
H230 H 0.31438 0.05921 0.81884 0.0
H231 H 0.2689 0.06873 0.89949 0.0
N232 N 0.23279 0.04108 0.08684 0.0
N233 N 0.23075 0.08298 0.17564 0.0
N234 N 0.2717 0.07804 0.08778 0.0
C235 C 0.21769 0.05731 0.14589 0.0
C236 C 0.25764 0.09349 0.14762 0.0
C237 C 0.25987 0.0522 0.05648 0.0
C238 C 0.18836 0.04769 0.18558 0.0
C239 C 0.18111 0.01739 0.20501 0.0
C240 C 0.15699 1.01046 0.25924 0.0
C241 C 0.13973 0.03366 0.29631 0.0
C242 C 0.146 0.06366 0.27203 0.0
C243 C 0.16958 0.07046 0.21774 0.0
C244 C 0.27571 0.11493 0.19728 0.0
C245 C 0.26876 0.11769 0.28044 0.0
C246 C 0.29224 0.11782 0.33716 0.0
C247 C 0.32224 0.11487 0.30996 0.0
C248 C 0.32875 0.12183 0.22836 0.0
C249 C 0.30531 0.12204 0.17172 0.0
C250 C 0.27931 0.03672 0.99487 0.0
C251 C 0.30093 0.01541 0.02039 0.0
C252 C 0.44934 0.33939 0.30306 0.0
C253 C 0.45476 0.32704 0.38069 0.0
C254 C 0.44551 0.29688 0.39514 0.0
C255 C 0.44006 0.27756 0.32937 0.0
H256 H 0.46846 0.16839 0.1197 0.0
H257 H 0.47538 0.12427 0.20954 0.0
H258 H 0.53418 0.17772 0.36241 0.0
H259 H 0.5275 0.22134 0.27249 0.0
H260 H 0.44907 0.2878 0.93653 0.0
H261 H 0.4565 0.33277 0.85267 0.0
H262 H 0.54641 0.34397 0.95042 0.0
H263 H 0.53824 0.29906 0.03678 0.0
H264 H 0.44259 0.33019 0.17762 0.0
H265 H 0.45465 0.36281 0.28902 0.0
H266 H 0.44634 0.28725 0.45564 0.0
H267 H 0.43807 0.25343 0.34078 0.0
N268 N 0.46618 0.24196 0.20353 0.0
N269 N 0.49549 0.24162 0.08328 0.0
N270 N 0.4639 0.28283 0.11394 0.0
C271 C 0.48572 0.22737 0.15373 0.0
C272 C 0.48373 0.26955 0.0627 0.0
C273 C 0.45519 0.26962 0.18456 0.0
C274 C 0.49831 0.19833 0.18673 0.0
C275 C 0.48415 0.17023 0.17001 0.0
C276 C 0.48784 0.14495 0.22237 0.0
C277 C 0.50528 0.14724 0.29407 0.0
C278 C 0.52053 0.17492 0.30824 0.0
C279 C 0.51713 0.1999 0.25567 0.0
C280 C 0.49346 0.28871 0.99138 0.0
C281 C 0.47104 0.2989 0.93721 0.0
C282 C 0.47533 0.32508 0.88902 0.0
C283 C 0.5023 0.34239 0.89294 0.0
C284 C 0.52531 0.33149 0.9449 0.0
C285 C 0.52094 0.30518 0.99334 0.0
C286 C 0.44245 0.28885 0.24958 0.0
C287 C 0.44253 0.3204 0.23809 0.0
C288 C 0.09119 0.05154 0.84915 0.0
C289 C 0.07422 0.05722 0.98872 0.0
C290 C 0.07069 0.04426 0.91082 0.0
C291 C 0.09814 0.07768 1.0033 0.0
C292 C 0.11593 0.07112 0.8647 0.0
C293 C 0.11906 0.08441 0.9417 0.0
N294 N 0.08729 0.03905 0.7743 0.0
C295 C 0.10804 0.04377 0.71395 0.0
C296 C 0.13697 0.07659 0.80244 0.0
C297 C 0.133 0.06283 0.72679 0.0
Gd298 Gd 0.98182 0.03271 0.62862 0.0
Gd299 Gd 0.0485 1.00304 0.76347 0.0
N300 N 0.04842 0.02337 0.89605 0.0
C301 C 0.05429 0.04843 0.05072 0.0
C302 C 0.03054 0.01306 0.95834 0.0
C303 C 0.0326 0.026 0.03567 0.0
H304 H 0.01522 0.99422 0.95028 0.0
H305 H 0.01793 0.0181 0.0842 0.0
H306 H 1.00797 0.01761 0.44318 0.0
H307 H 0.10571 0.03242 0.6564 0.0
H308 H 0.991 0.9919 0.318 0.0
H309 H 0.0562 0.05795 0.1112 0.0
H310 H 0.10114 0.08781 0.06276 0.0
H311 H 0.92 0.0353 0.75173 0.0
H312 H 0.15636 0.09133 0.81222 0.0
H313 H 0.14933 0.06663 0.67863 0.0
H314 H 0.8902 0.95789 0.38093 0.0
H315 H 0.13776 0.09972 0.95447 0.0
H316 H 0.84932 0.98341 0.64145 0.0
H317 H 0.86871 0.01377 0.75654 0.0
N318 N 0.93166 0.01412 0.63939 0.0
C319 C 0.92095 0.9985 0.57411 0.0
C320 C 0.91283 0.02056 0.70306 0.0
C321 C 0.8724 0.99191 0.64013 0.0
C322 C 0.88329 1.00897 0.70528 0.0
C323 C 0.891 0.98709 0.57259 0.0
H324 H 0.85732 0.96321 0.50078 0.0
N325 N 0.96787 1.00718 0.5093 0.0
C326 C 0.93948 0.99528 0.50669 0.0
C327 C 0.94757 0.97922 0.36787 0.0
C328 C 0.92857 0.98085 0.4359 0.0
C329 C 0.98601 1.00685 0.44199 0.0
C330 C 0.97636 0.99246 0.3708 0.0
O331 O 0.04357 0.05456 0.73867 0.0
O332 O 0.9927 0.05858 0.74374 0.0
O333 O 0.99599 0.0744 0.57357 0.0
O334 O 0.94728 0.06468 0.58661 0.0
O335 O 1.00159 0.98951 0.81284 0.0
O336 O 0.97239 0.02843 0.76418 0.0
O337 O 0.99693 0.98444 0.59894 0.0
O338 O 0.01509 0.96669 0.72075 0.0
O339 O 0.07401 0.97735 0.85174 0.0
O340 O 0.08387 0.97229 0.72424 0.0
O341 O 0.02931 0.03874 0.57423 0.0
O342 O 0.05813 1.00073 0.62867 0.0
C343 C 0.01943 0.07067 0.75698 0.0
C344 C 0.97689 1.00616 0.81589 0.0
C345 C 0.96253 0.11329 0.52657 0.0
C346 C 0.98309 0.15927 0.46648 0.0
C347 C 0.92873 0.15274 0.48018 0.0
C348 C 0.93308 0.12424 0.51567 0.0
C349 C 0.95365 0.17018 0.45492 0.0
C350 C 0.9873 0.13113 0.50282 0.0
C351 C 0.96833 0.08376 0.56385 0.0
C352 C 0.89895 0.9691 0.43464 0.0
C353 C 0.88025 0.97209 0.50295 0.0
H354 H 0.94001 0.96835 0.31237 0.0
C355 C 1.00535 0.96183 0.64611 0.0
C356 C 0.05257 0.0202 0.57028 0.0
C357 C 0.08793 0.9294 0.80774 0.0
C358 C 0.05739 0.88536 0.84455 0.0
C359 C 0.11239 0.88218 0.84154 0.0
C360 C 0.11439 0.91277 0.81946 0.0
C361 C 0.08407 0.86863 0.85564 0.0
C362 C 0.05977 0.9151 0.81544 0.0
C363 C 0.08902 0.96231 0.79726 0.0
H364 H 0.90603 0.16114 0.47139 0.0
H365 H 0.91359 0.11087 0.53438 0.0
H366 H 0.95003 0.19188 0.42575 0.0
H367 H 0.01016 0.12276 0.51002 0.0
H368 H 0.13282 0.86933 0.8513 0.0
H369 H 0.1364 0.92356 0.81352 0.0
H370 H 0.08318 0.84557 0.87823 0.0
H371 H 0.03957 0.9279 0.80369 0.0
C372 C 0.52579 0.91905 0.5772 0.0
C373 C 0.50487 0.88411 0.67694 0.0
C374 C 0.50812 0.91377 0.64558 0.0
C375 C 0.52024 0.86009 0.63968 0.0
C376 C 0.54033 0.89483 0.53772 0.0
C377 C 0.53788 0.86542 0.57013 0.0
N378 N 0.52742 0.94762 0.54671 0.0
C379 C 0.54212 0.95347 0.4752 0.0
C380 C 0.55624 0.90078 0.46563 0.0
C381 C 0.55688 0.93018 0.43381 0.0
Gd382 Gd 0.52485 0.05456 0.75465 0.0
Gd383 Gd 0.50275 0.98544 0.62076 0.0
N384 N 0.49319 0.93742 0.67952 0.0
C385 C 0.48579 0.87934 0.74382 0.0
C386 C 0.4738 0.93262 0.74322 0.0
C387 C 0.47001 0.90367 0.77664 0.0
H388 H 0.46204 0.95112 0.77101 0.0
H389 H 0.45511 0.90023 0.82822 0.0
H390 H 0.56779 0.0858 0.60402 0.0
H391 H 0.5425 0.97622 0.45053 0.0
H392 H 0.5779 0.13598 0.54559 0.0
H393 H 0.48279 0.85693 0.76986 0.0
H394 H 0.51814 0.8372 0.66322 0.0
H395 H 0.48184 0.0667 0.91821 0.0
H396 H 0.56765 0.88277 0.43337 0.0
H397 H 0.56877 0.93491 0.37756 0.0
H398 H 0.51535 0.20282 0.70054 0.0
H399 H 0.54905 0.84655 0.54099 0.0
H400 H 0.45993 0.16114 0.92576 0.0
H401 H 0.45574 0.1096 0.98452 0.0
N402 N 0.49975 0.09379 0.82226 0.0
C403 C 0.503 0.12202 0.79015 0.0
C404 C 0.48346 0.08916 0.89193 0.0
C405 C 0.4712 0.14242 0.89621 0.0
C406 C 0.46882 0.11336 0.92968 0.0
C407 C 0.4887 0.14712 0.82615 0.0
H408 H 0.48197 0.19568 0.81901 0.0
N409 N 0.53644 0.10153 0.69255 0.0
C410 C 0.52204 0.12604 0.72372 0.0
C411 C 0.54718 0.1588 0.62614 0.0
C412 C 0.52696 0.15532 0.69112 0.0
C413 C 0.55671 0.10501 0.63023 0.0
C414 C 0.56226 0.13355 0.59596 0.0
O415 O 0.52443 0.9747 0.74269 0.0
O416 O 0.5087 0.01282 0.82617 0.0
O417 O 0.56371 0.0346 0.8129 0.0
O418 O 0.54611 0.07875 0.85461 0.0
O419 O 0.46364 0.99893 0.70529 0.0
O420 O 0.47509 0.04353 0.77385 0.0
O421 O 0.50352 0.06577 0.63269 0.0
O422 O 0.51889 0.02735 0.54962 0.0
O423 O 0.46422 1.00717 0.56644 0.0
O424 O 0.47916 0.96223 0.52262 0.0
O425 O 0.56462 0.03916 0.67465 0.0
O426 O 0.55228 0.99632 0.59953 0.0
C427 C 0.51742 0.98457 0.81567 0.0
C428 C 0.45579 0.02212 0.75155 0.0
C429 C 0.58931 0.05855 0.92688 0.0
C430 C 0.63196 0.03495 0.99394 0.0
C431 C 0.61199 0.08239 0.0451 0.0
C432 C 0.5903 0.08236 0.98345 0.0
C433 C 0.63268 0.05873 0.05075 0.0
C434 C 0.61027 0.03507 0.93227 0.0
C435 C 0.5658 0.05721 0.8643 0.0
C436 C 0.51196 0.18022 0.72509 0.0
C437 C 0.49291 0.17615 0.79248 0.0
H438 H 0.55148 0.18087 0.59927 0.0
C439 C 0.50973 0.05551 0.55957 0.0
C440 C 0.57203 0.01669 0.62538 0.0
C441 C 0.43638 0.9852 0.45391 0.0
C442 C 0.39677 0.01284 0.38474 0.0
C443 C 0.40922 0.96175 0.34209 0.0
C444 C 0.43153 0.96039 0.402 0.0
C445 C 0.39182 0.98784 0.33344 0.0
C446 C 0.41888 1.01127 0.44505 0.0
C447 C 0.46064 0.98494 0.51441 0.0
H448 H 0.61253 0.10061 0.08911 0.0
H449 H 0.57417 0.10068 0.98068 0.0
H450 H 0.64888 0.05877 0.10009 0.0
H451 H 0.60972 0.01669 0.8886 0.0
H452 H 0.40553 0.94263 0.30205 0.0
H453 H 0.44504 0.94011 0.40729 0.0
H454 H 0.37474 0.98865 0.28634 0.0
H455 H 0.4224 0.03048 0.48508 0.0
C456 C 0.43138 0.4865 0.81878 0.0
C457 C 0.44773 0.46567 0.94787 0.0
C458 C 0.45264 0.48474 0.88017 0.0
C459 C 0.42176 0.44711 0.95064 0.0
C460 C 0.40446 0.46915 0.82347 0.0
C461 C 0.40018 0.44881 0.88845 0.0
N462 N 0.43589 0.50704 0.75817 0.0
C463 C 0.41306 0.51351 0.70543 0.0
C464 C 0.3821 0.47379 0.76473 0.0
C465 C 0.38618 0.49652 0.70643 0.0
Gd466 Gd 0.5491 0.50716 0.61327 0.0
Gd467 Gd 0.4832 0.53216 0.75665 0.0
N468 N 0.47745 0.50301 0.87563 0.0
C469 C 0.46854 0.46666 1.01197 0.0
C470 C 0.49659 0.50576 0.94041 0.0
C471 C 0.49278 0.48721 1.00882 0.0
H472 H 0.51504 0.52193 0.93869 0.0
H473 H 0.50844 0.48887 0.05917 0.0
H474 H 0.51263 0.52426 0.43602 0.0
H475 H 0.41526 0.53227 0.6639 0.0
H476 H 0.51811 0.55998 0.32326 0.0
H477 H 0.46554 0.45244 0.06521 0.0
H478 H 0.4177 0.43207 1.00176 0.0
H479 H 0.61132 0.51813 0.72941 0.0
H480 H 0.36109 0.46094 0.76614 0.0
H481 H 0.36841 0.50136 0.66321 0.0
H482 H 0.60983 0.61415 0.38099 0.0
H483 H 0.37977 0.43508 0.89266 0.0
H484 H 0.66396 0.58934 0.62314 0.0
H485 H 0.65568 0.55178 0.73277 0.0
N486 N 0.59211 0.53863 0.62415 0.0
C487 C 0.59711 0.55791 0.56064 0.0
C488 C 0.61342 0.5355 0.68362 0.0
C489 C 0.64387 0.57509 0.62239 0.0
C490 C 0.63918 0.55407 0.68464 0.0
C491 C 0.623 0.57692 0.55875 0.0
H492 H 0.64707 0.61187 0.49141 0.0
N493 N 0.55157 0.53993 0.49965 0.0
C494 C 0.57623 0.55877 0.49718 0.0
C495 C 0.55921 0.57987 0.36949 0.0
C496 C 0.58061 0.57923 0.43194 0.0
C497 C 0.53123 0.53991 0.43725 0.0
C498 C 0.53452 0.56003 0.37205 0.0
O499 O 0.50437 0.48644 0.78314 0.0
O500 O 0.51726 0.46885 0.65762 0.0
O501 O 0.56856 0.48544 0.50775 0.0
O502 O 0.58563 0.47497 0.62746 0.0
O503 O 0.53196 0.54249 0.79684 0.0
O504 O 0.55958 0.50283 0.74786 0.0
O505 O 0.54073 0.5577 0.64064 0.0
O506 O 0.48959 0.56023 0.64223 0.0
O507 O 0.49502 0.57378 0.81283 0.0
O508 O 0.44721 0.55982 0.81353 0.0
O509 O 0.50317 0.49558 0.55663 0.0
O510 O 0.4681 0.52558 0.62389 0.0
C511 C 0.50908 0.46369 0.73374 0.0
C512 C 0.55484 0.52366 0.80329 0.0
C513 C 0.58728 0.43672 0.52904 0.0
C514 C 0.55984 0.38992 0.49979 0.0
C515 C 0.61419 0.3936 0.4755 0.0
C516 C 0.61428 0.42346 0.5032 0.0
C517 C 0.58711 0.37707 0.47232 0.0
C518 C 0.56037 0.41974 0.52948 0.0
C519 C 0.5869 0.46883 0.55025 0.0
C520 C 0.60617 0.59836 0.43068 0.0
C521 C 0.62737 0.59707 0.49358 0.0
H522 H 0.56174 0.59532 0.31857 0.0
C523 C 0.51578 0.57259 0.62336 0.0
C524 C 0.47621 0.50846 0.56126 0.0
C525 C 0.46179 0.60767 0.88132 0.0
C526 C 0.4834 0.64963 0.9581 0.0
C527 C 0.42887 0.64227 0.95317 0.0
C528 C 0.43262 0.61654 0.90442 0.0
C529 C 0.45416 0.65876 0.98035 0.0
C530 C 0.48679 0.62483 0.90668 0.0
C531 C 0.46748 0.57988 0.83501 0.0
H532 H 0.63498 0.38356 0.45398 0.0
H533 H 0.63524 0.43641 0.50271 0.0
H534 H 0.58748 0.35469 0.4455 0.0
H535 H 0.53968 0.43021 0.55022 0.0
H536 H 0.40637 0.64916 0.971 0.0
H537 H 0.41293 0.60358 0.88552 0.0
H538 H 0.45095 0.67817 0.01953 0.0
H539 H 0.50939 0.61862 0.88745 0.0
C540 C 0.05838 0.44615 0.83849 0.0
C541 C 0.07201 0.46754 0.96951 0.0
C542 C 0.0538 0.46773 0.89903 0.0
C543 C 0.09494 0.44591 0.9777 0.0
C544 C 0.08114 0.42413 0.84728 0.0
C545 C 0.09941 0.42422 0.91697 0.0
N546 N 0.04115 0.44719 0.76999 0.0
C547 C 0.04445 0.42603 0.71027 0.0
C548 C 0.08513 0.40287 0.7852 0.0
C549 C 0.06661 0.40375 0.71663 0.0
Gd550 Gd 0.02506 0.55356 0.63024 0.0
Gd551 Gd 1.00302 0.48376 0.76901 0.0
N552 N 0.03136 0.48851 0.88974 0.0
C553 C 0.06627 0.48872 0.03064 0.0
C554 C 0.02421 0.50746 0.95229 0.0
C555 C 0.04198 0.50845 0.02248 0.0
H556 H 1.0041 0.52095 0.95042 0.0
H557 H 0.03646 0.52394 0.07114 0.0
H558 H 0.9965 0.52953 0.45271 0.0
H559 H 0.0298 0.4259 0.65809 0.0
H560 H 0.96329 0.54846 0.34394 0.0
H561 H 0.07976 0.48931 0.08557 0.0
H562 H 0.10916 0.44556 0.0313 0.0
H563 H 0.04026 0.61368 0.74964 0.0
H564 H 0.10234 0.38561 0.78978 0.0
H565 H 0.06924 0.38714 0.66886 0.0
H566 H 0.93869 0.64943 0.42829 0.0
H567 H 0.11711 0.4076 0.92446 0.0
H568 H 0.98544 0.68754 0.67067 0.0
H569 H 0.0225 0.66608 0.76703 0.0
N570 N 0.01171 0.60461 0.64819 0.0
C571 C 0.99212 0.61629 0.59309 0.0
C572 C 0.02331 0.62237 0.70872 0.0
C573 C 0.99269 0.66428 0.66365 0.0
C574 C 0.0136 0.65225 0.71818 0.0
C575 C 0.98208 0.64647 0.59924 0.0
H576 H 0.95434 0.68116 0.54399 0.0
N577 N 0.99357 0.56964 0.52374 0.0
C578 C 0.98313 0.59842 0.52824 0.0
C579 C 0.95662 0.59184 0.40093 0.0
C580 C 0.96409 0.61022 0.46736 0.0
C581 C 0.98744 0.55205 0.45732 0.0
C582 C 0.96857 0.56271 0.3956 0.0
O583 O 0.05247 0.49328 0.73025 0.0
O584 O 0.05421 0.54416 0.74015 0.0
O585 O 0.06378 0.5372 0.56743 0.0
O586 O 0.05636 0.58655 0.57339 0.0
O587 O 0.98603 0.53033 0.81408 0.0
O588 O 0.02364 0.56162 0.76627 0.0
O589 O 0.97495 0.54248 0.61952 0.0
O590 O 0.9621 0.50048 0.69774 0.0
O591 O 0.98006 0.46563 0.87508 0.0
O592 O 0.97832 0.44089 0.76253 0.0
O593 O 0.02593 0.5073 0.56655 0.0
O594 O 0.99865 0.47059 0.63672 0.0
C595 C 0.06752 0.51804 0.75079 0.0
C596 C 1.00109 0.55642 0.8165 0.0
C597 C 0.10198 0.56814 0.50455 0.0
C598 C 0.14702 0.5442 0.45024 0.0
C599 C 0.13531 0.59639 0.41459 0.0
C600 C 0.10919 0.59494 0.46265 0.0
C601 C 0.15391 0.57101 0.40715 0.0
C602 C 0.1215 0.54343 0.50036 0.0
C603 C 0.07349 0.56438 0.54907 0.0
C604 C 0.95346 0.64001 0.4742 0.0
C605 C 0.96237 0.65807 0.54011 0.0
H606 H 0.94205 0.60006 0.35294 0.0
C607 C 0.95518 0.52213 0.64555 0.0
C608 C 0.0127 0.4803 0.57084 0.0
C609 C 0.93441 0.44207 0.84217 0.0
C610 C 0.88693 0.46968 0.85096 0.0
C611 C 0.88809 0.41502 0.87415 0.0
C612 C 0.91932 0.41494 0.86066 0.0
C613 C 0.87206 0.44223 0.87114 0.0
C614 C 0.91803 0.46891 0.83445 0.0
C615 C 0.96743 0.44342 0.83553 0.0
H616 H 0.14065 0.61689 0.38107 0.0
H617 H 0.09438 0.61435 0.46547 0.0
H618 H 0.17303 0.57212 0.36596 0.0
H619 H 0.11634 0.52296 0.53452 0.0
H620 H 0.87646 0.39414 0.89008 0.0
H621 H 0.93171 0.39396 0.8664 0.0
H622 H 0.84842 0.44174 0.8883 0.0
H623 H 0.92998 0.4896 0.81898 0.0
C624 C 0.09001 0.04547 0.36872 0.0
C625 C 0.11642 0.02763 0.36281 0.0
C626 C 0.0696 0.04279 0.43474 0.0
C627 C 0.07411 0.02182 0.49837 0.0
H628 H 0.08506 0.06204 0.32207 0.0
H629 H 0.05021 0.05763 0.43601 0.0
S630 S 0.13902 0.96876 0.51252 0.0
N631 N 0.14559 0.988 0.4281 0.0
N632 N 0.10687 0.98186 0.54875 0.0
C633 C 0.0999 1.00311 0.49203 0.0
C634 C 0.12096 1.0062 0.42539 0.0
C635 C 0.49892 0.12986 0.44002 0.0
C636 C 0.50538 0.1225 0.35848 0.0
C637 C 0.49929 0.10794 0.50257 0.0
C638 C 0.50729 0.07742 0.48835 0.0
H639 H 0.49317 0.15293 0.45586 0.0
H640 H 0.49363 0.11537 0.56331 0.0
S641 S 0.52393 0.04533 0.28435 0.0
N642 N 0.51784 0.08161 0.26589 0.0
N643 N 0.5198 0.04077 0.38352 0.0
C644 C 0.51299 0.06945 0.40652 0.0
C645 C 0.51182 0.09179 0.34201 0.0
C646 C 0.40716 0.52157 0.42101 0.0
C647 C 0.41182 0.50218 0.35404 0.0
C648 C 0.42808 0.52368 0.48585 0.0
C649 C 0.45452 0.50584 0.48948 0.0
H650 H 0.38685 0.53504 0.42443 0.0
H651 H 0.4234 0.5399 0.53311 0.0
S652 S 0.48041 0.45511 0.32319 0.0
N653 N 0.44777 0.46814 0.29028 0.0
N654 N 0.48542 0.47019 0.41399 0.0
C655 C 0.46005 0.48714 0.42136 0.0
C656 C 0.4392 0.48572 0.3539 0.0
C657 C 1.00226 0.40944 0.43444 0.0
C658 C 0.01894 0.41616 0.36311 0.0
C659 C 0.99994 0.43029 0.49962 0.0
C660 C 0.01434 0.45909 0.49792 0.0
H661 H 0.99153 0.38743 0.44137 0.0
H662 H 0.98703 0.42338 0.55263 0.0
S663 S 0.05861 0.48954 0.32257 0.0
N664 N 0.04789 0.45542 0.29265 0.0
N665 N 0.04489 0.49349 0.41527 0.0
C666 C 0.03045 0.46645 0.42602 0.0
C667 C 0.03242 0.44539 0.35912 0.0
C668 C 0.91649 0.97795 0.96668 0.0
C669 C 0.91321 1.00249 0.02118 0.0
C670 C 0.93724 0.97902 0.90108 0.0
C671 C 0.95617 1.00435 0.88808 0.0
H672 H 0.90248 0.95785 0.97397 0.0
H673 H 0.93832 0.95993 0.85987 0.0
S674 S 0.95737 0.0744 1.01277 0.0
N675 N 0.93118 0.05293 0.05661 0.0
N676 N 0.97016 0.05466 0.9349 0.0
C677 C 0.9531 0.02903 0.94167 0.0
C678 C 0.9318 0.02813 1.00785 0.0
C679 C 0.53275 0.91151 0.93769 0.0
C680 C 0.52173 0.91761 1.01628 0.0
C681 C 0.53155 0.9333 0.87468 0.0
C682 C 0.51912 0.96245 0.88646 0.0
H683 H 0.54264 0.88965 0.9248 0.0
H684 H 0.54049 0.92701 0.81579 0.0
S685 S 0.48821 0.9903 0.08285 0.0
N686 N 0.49886 0.9553 0.10351 0.0
N687 N 0.49618 0.99606 0.98578 0.0
C688 C 0.50828 0.96891 0.96548 0.0
C689 C 0.50964 0.94662 0.02987 0.0
C690 C 0.60549 0.50313 0.98459 0.0
C691 C 0.62076 0.53054 1.00324 0.0
C692 C 0.58422 0.50115 0.92052 0.0
C693 C 0.57669 0.52657 0.87285 0.0
H694 H 0.60997 0.48293 0.0199 0.0
H695 H 0.57341 0.4795 0.90856 0.0
S696 S 0.61258 0.60259 0.88732 0.0
N697 N 0.62868 0.58297 0.96094 0.0
N698 N 0.58776 0.57941 0.84466 0.0
C699 C 0.5918 0.55399 0.88996 0.0
C700 C 0.61399 0.55592 0.95387 0.0
C701 C 0.02209 0.60603 1.00048 0.0
C702 C 0.9955 0.62236 1.01777 0.0
C703 C 0.02333 0.5845 0.93685 0.0
C704 C 0.99796 0.57768 0.88781 0.0
H705 H 0.04226 0.60991 0.03641 0.0
H706 H 0.04447 0.57297 0.92605 0.0
S707 S 0.92436 0.61703 0.89789 0.0
N708 N 0.94404 0.63212 0.97312 0.0
N709 N 0.94634 0.59123 0.85618 0.0
C710 C 0.97142 0.59405 0.90323 0.0
C711 C 0.9702 0.61634 0.96736 0.0
C712 C 0.06136 0.19427 0.45118 0.0
C713 C 0.06498 0.19776 0.36674 0.0
C714 C 0.0343 0.18267 0.48381 0.0
C715 C 0.00983 0.17493 0.43306 0.0
H716 H 0.07942 0.20088 0.49211 0.0
H717 H 0.03243 0.17969 0.54905 0.0
S718 S 1.00762 0.17903 0.20879 0.0
N719 N 0.04142 0.1923 0.23323 0.0
N720 N 0.99099 0.17023 0.29557 0.0
C721 C 0.01312 0.17811 0.34903 0.0
C722 C 0.0406 0.18956 0.31558 0.0
C723 C 0.32877 0.06313 0.36497 0.0
C724 C 0.34163 0.09198 0.34955 0.0
C725 C 0.34685 0.03784 0.37792 0.0
C726 C 0.37844 0.04041 0.37671 0.0
H727 H 0.30455 0.05945 0.36104 0.0
H728 H 0.33602 0.01593 0.38662 0.0
S729 S 0.42344 0.111 0.34776 0.0
N730 N 0.38789 0.12195 0.34026 0.0
N731 N 0.42215 0.07412 0.36537 0.0
C732 C 0.39173 0.06929 0.3666 0.0
C733 C 0.37324 0.09514 0.35283 0.0
C734 C 0.47904 0.37455 0.4338 0.0
C735 C 0.4771 0.34267 0.43473 0.0
C736 C 0.50537 0.38968 0.45845 0.0
C737 C 0.53047 0.37378 0.48837 0.0
H738 H 0.46087 0.38793 0.40871 0.0
H739 H 0.50654 0.41394 0.44999 0.0
S740 S 0.53448 0.29094 0.52426 0.0
N741 N 0.50149 0.29599 0.47977 0.0
N742 N 0.54949 0.32512 0.53354 0.0
C743 C 0.52749 0.34234 0.49954 0.0
C744 C 0.50109 0.32666 0.47168 0.0
C745 C 0.16387 0.4617 0.40663 0.0
C746 C 0.19543 0.46173 0.3965 0.0
C747 C 0.14858 0.48829 0.42635 0.0
C748 C 0.16429 0.51591 0.43803 0.0
H749 H 0.15069 0.44144 0.39374 0.0
H750 H 0.12408 0.48744 0.42821 0.0
S751 S 0.24736 0.52749 0.42997 0.0
N752 N 0.24218 0.4915 0.40613 0.0
N753 N 0.21327 0.54093 0.44795 0.0
C754 C 0.19597 0.5158 0.43454 0.0
C755 C 0.2116 0.48882 0.41325 0.0
C756 C 0.99428 0.82965 0.89537 0.0
C757 C 0.9745 0.84694 0.94413 0.0
C758 C 0.01997 0.84263 0.85904 0.0
C759 C 0.02749 0.87323 0.87156 0.0
H760 H 0.99161 0.80533 0.89016 0.0
H761 H 0.03492 0.82814 0.82459 0.0
S762 S 0.98133 0.92938 0.98432 0.0
N763 N 0.96117 0.89782 0.98783 0.0
N764 N 0.01211 0.92099 0.93279 0.0
C765 C 1.00688 0.89129 0.91521 0.0
C766 C 0.9797 0.87846 0.94765 0.0
C767 C 0.66141 0.95475 1.01009 0.0
C768 C 0.69255 0.95942 0.02214 0.0
C769 C 0.64203 0.97933 0.99849 0.0
C770 C 0.65314 1.00936 0.99966 0.0
H771 H 0.65182 0.9321 1.01377 0.0
H772 H 0.61799 0.97487 0.99229 0.0
S773 S 0.73296 0.03379 0.02461 0.0
N774 N 0.73374 0.99649 0.0316 0.0
N775 N 0.69722 0.04239 1.00812 0.0
C776 C 0.68432 0.01428 1.00796 0.0
C777 C 0.70408 0.98937 0.01939 0.0
C778 C 0.54081 0.71179 0.99848 0.0
C779 C 0.56597 0.69597 0.02991 0.0
C780 C 0.51398 0.69682 0.97713 0.0
C781 C 0.51096 0.66545 0.98713 0.0
H782 H 0.54115 0.73625 0.99313 0.0
H783 H 0.4955 0.70991 0.95245 0.0
S784 S 0.56879 0.61303 0.06855 0.0
N785 N 0.5858 0.6465 0.06742 0.0
N786 N 0.53443 0.61883 0.03311 0.0
C787 C 0.53559 0.64918 1.01865 0.0
C788 C 0.56327 0.66428 0.03843 0.0
C789 C 0.87265 0.55031 0.91829 0.0
C790 C 0.84092 0.55202 0.91701 0.0
C791 C 0.88758 0.52441 0.89204 0.0
C792 C 0.87158 0.49955 0.8589 0.0
H793 H 0.88594 0.56767 0.94815 0.0
H794 H 0.91155 0.52324 0.90477 0.0
S795 S 0.78957 0.49739 0.81182 0.0
N796 N 0.79459 0.52931 0.86237 0.0
N797 N 0.82343 0.48219 0.80413 0.0
C798 C 0.84054 0.50322 0.8437 0.0
C799 C 0.82502 0.52917 0.87402 0.0
C800 C 0.99663 0.14431 0.86806 0.0
C801 C 0.02315 0.1625 0.86894 0.0
C802 C 0.99575 0.11532 0.8311 0.0
C803 C 0.02141 0.10233 0.79363 0.0
H804 H 0.97603 0.15264 0.89547 0.0
H805 H 0.97451 0.10293 0.83225 0.0
S806 S 0.09604 0.14092 0.77184 0.0
N807 N 0.07581 0.16499 0.82541 0.0
N808 N 0.0735 0.11169 0.75354 0.0
C809 C 0.04782 0.12051 0.7918 0.0
C810 C 0.04884 0.15007 0.82983 0.0
C811 C 0.37833 0.99796 0.84246 0.0
C812 C 0.36441 0.02576 0.86165 0.0
C813 C 0.40724 0.9968 0.80493 0.0
C814 C 0.42409 0.02336 0.78664 0.0
H815 H 0.36667 0.97685 0.85605 0.0
H816 H 0.41659 0.97481 0.7917 0.0
S817 S 0.39784 0.10206 0.82269 0.0
N818 N 0.36998 0.08059 0.85804 0.0
N819 N 0.42359 0.07843 0.78817 0.0
C820 C 0.41023 0.05126 0.80491 0.0
C821 C 0.38075 0.05245 0.8421 0.0
C822 C 0.51788 0.39832 0.88762 0.0
C823 C 0.50541 0.37265 0.84825 0.0
C824 C 0.51919 0.42717 0.84974 0.0
C825 C 0.50873 0.43203 0.76963 0.0
H826 H 0.52591 0.39641 0.94954 0.0
H827 H 0.52845 0.44598 0.88407 0.0
S828 S 0.47255 0.37334 0.64047 0.0
N829 N 0.48169 0.35475 0.72386 0.0
N830 N 0.48428 0.40864 0.65365 0.0
C831 C 0.49639 0.40669 0.72921 0.0
C832 C 0.49467 0.37729 0.76815 0.0
C833 C 0.14509 0.48876 0.825 0.0
C834 C 0.15774 0.51348 0.86844 0.0
C835 C 0.11657 0.49053 0.78597 0.0
C836 C 0.09871 0.51687 0.78938 0.0
H837 H 0.15709 0.4675 0.82204 0.0
H838 H 0.10849 0.47098 0.75262 0.0
S839 S 0.12232 0.58936 0.88688 0.0
N840 N 0.15076 0.56632 0.905 0.0
N841 N 0.09731 0.56921 0.83523 0.0
C842 C 0.11148 0.54207 0.8303 0.0
C843 C 0.14067 0.54042 0.86916 0.0
C844 C 0.02964 0.88292 0.56917 0.0
C845 C 1.00269 0.87003 0.53744 0.0
C846 C 0.03018 0.91194 0.6067 0.0
C847 C 1.00393 0.92986 0.61302 0.0
H848 H 0.05059 0.87046 0.56499 0.0
H849 H 0.05156 0.92079 0.6289 0.0
S850 S 0.92739 0.90698 0.54257 0.0
N851 N 0.94889 0.87811 0.51699 0.0
N852 N 0.95008 0.93182 0.58698 0.0
C853 C 0.97691 0.91718 0.58254 0.0
C854 C 0.97623 0.88761 0.54522 0.0
C855 C 0.65133 0.03925 0.543 0.0
C856 C 0.66414 1.0113 0.52 0.0
C857 C 0.62222 0.04092 0.57927 0.0
C858 C 0.60401 0.01481 0.59222 0.0
H859 H 0.66404 0.06006 0.53346 0.0
H860 H 0.61384 0.06299 0.59584 0.0
S861 S 0.62721 0.93585 0.54593 0.0
N862 N 0.6562 0.95677 0.51515 0.0
N863 N 0.60222 0.95986 0.58253 0.0
C864 C 0.61682 0.98673 0.57048 0.0
C865 C 0.64652 0.985 0.53467 0.0
C866 C 0.49334 0.64305 0.49782 0.0
C867 C 0.51828 0.6632 0.50526 0.0
C868 C 0.49264 0.61427 0.53646 0.0
C869 C 0.51699 0.60374 0.58403 0.0
H870 H 0.47388 0.64966 0.46222 0.0
H871 H 0.47286 0.59995 0.52802 0.0
S872 S 0.5878 0.64707 0.62483 0.0
N873 N 0.56834 0.66964 0.56463 0.0
N874 N 0.56652 0.61651 0.63815 0.0
C875 C 0.542 0.62358 0.59243 0.0
C876 C 0.54275 0.6529 0.55316 0.0
C877 C 0.88454 0.55142 0.53345 0.0
C878 C 0.86454 0.52626 0.53036 0.0
C879 C 0.91302 0.54997 0.5722 0.0
C880 C 0.92344 0.52329 0.61019 0.0
H881 H 0.87847 0.57246 0.5039 0.0
H882 H 0.92706 0.57016 0.57196 0.0
S883 S 0.87942 0.45119 0.62472 0.0
N884 N 0.85688 0.47405 0.5738 0.0
N885 N 0.91043 0.47107 0.64387 0.0
C886 C 0.90343 0.49808 0.60928 0.0
C887 C 0.87423 0.49958 0.56997 0.0
loop_
_geom_bond_atom_site_label_1
_geom_bond_atom_site_label_2
_geom_bond_distance
_geom_bond_site_symmetry_2
_ccdc_geom_bond_type
C0 C1 1.384 . S
C0 H13 0.947 . S
C0 C35 1.382 . S
C1 C0 1.384 . S
C1 C2 1.378 . S
C2 C1 1.378 . S
C2 C3 1.378 . S
C2 H14 0.952 . S
C3 C2 1.378 . S
C3 H15 0.950 . S
C3 C34 1.383 . S
H4 C23 0.947 . S
H5 C24 0.946 . S
H6 C26 0.953 . S
H7 C27 0.945 . S
H8 C29 0.952 . S
H9 C30 0.949 1_556 S
H10 C32 0.950 . S
H11 C33 0.948 . S
H12 C35 0.951 . S
H13 C0 0.947 . S
H14 C2 0.952 . S
H15 C3 0.950 . S
N16 C19 1.382 . S
N16 C21 1.363 . S
N17 C19 1.371 . S
N17 C20 1.372 . S
N18 C20 1.361 . S
N18 C21 1.377 . S
C19 N16 1.382 . S
C19 N17 1.371 . S
C19 C22 1.480 . S
C20 N17 1.372 . S
C20 N18 1.361 . S
C20 C28 1.457 . S
C21 N16 1.363 . S
C21 N18 1.377 . S
C21 C34 1.479 . S
C22 C19 1.480 . S
C22 C23 1.383 . S
C22 C27 1.385 . S
C23 H4 0.947 . S
C23 C22 1.383 . S
C23 C24 1.388 . S
C24 H5 0.946 . S
C24 C23 1.388 . S
C24 C25 1.384 . S
C25 C24 1.384 . S
C25 C26 1.377 . S
C26 H6 0.953 . S
C26 C25 1.377 . S
C26 C27 1.369 . S
C27 H7 0.945 . S
C27 C22 1.385 . S
C27 C26 1.369 . S
C28 C20 1.457 . S
C28 C29 1.372 . S
C28 C33 1.364 . S
C29 H8 0.952 . S
C29 C28 1.372 . S
C29 C30 1.389 . S
C30 H9 0.949 1_554 S
C30 C29 1.389 . S
C30 C31 1.387 . S
C31 C30 1.387 . S
C31 C32 1.372 . S
C32 H10 0.950 . S
C32 C31 1.372 . S
C32 C33 1.379 . S
C33 H11 0.948 . S
C33 C28 1.364 . S
C33 C32 1.379 . S
C34 C3 1.383 . S
C34 C21 1.479 . S
C34 C35 1.398 . S
C35 C0 1.382 . S
C35 H12 0.951 . S
C35 C34 1.398 . S
C36 C37 1.384 . S
C36 H49 0.947 . S
C36 C71 1.382 . S
C37 C36 1.384 . S
C37 C38 1.378 . S
C38 C37 1.378 . S
C38 C39 1.378 . S
C38 H50 0.952 . S
C39 C38 1.378 . S
C39 H51 0.950 . S
C39 C70 1.383 . S
H40 C59 0.947 . S
H41 C60 0.946 . S
H42 C62 0.953 . S
H43 C63 0.945 . S
H44 C65 0.952 . S
H45 C66 0.949 1_556 S
H46 C68 0.950 . S
H47 C69 0.948 . S
H48 C71 0.951 . S
H49 C36 0.947 . S
H50 C38 0.952 . S
H51 C39 0.950 . S
N52 C55 1.382 . S
N52 C57 1.363 . S
N53 C55 1.371 . S
N53 C56 1.372 . S
N54 C56 1.361 . S
N54 C57 1.377 . S
C55 N52 1.382 . S
C55 N53 1.371 . S
C55 C58 1.480 . S
C56 N53 1.372 . S
C56 N54 1.361 . S
C56 C64 1.457 . S
C57 N52 1.363 . S
C57 N54 1.377 . S
C57 C70 1.479 . S
C58 C55 1.480 . S
C58 C59 1.383 . S
C58 C63 1.385 . S
C59 H40 0.947 . S
C59 C58 1.383 . S
C59 C60 1.388 . S
C60 H41 0.946 . S
C60 C59 1.388 . S
C60 C61 1.384 . S
C61 C60 1.384 . S
C61 C62 1.377 . S
C62 H42 0.953 . S
C62 C61 1.377 . S
C62 C63 1.369 . S
C63 H43 0.945 . S
C63 C58 1.385 . S
C63 C62 1.369 . S
C64 C56 1.457 . S
C64 C65 1.372 . S
C64 C69 1.364 . S
C65 H44 0.952 . S
C65 C64 1.372 . S
C65 C66 1.389 . S
C66 H45 0.949 1_554 S
C66 C65 1.389 . S
C66 C67 1.387 . S
C67 C66 1.387 . S
C67 C68 1.372 . S
C68 H46 0.950 . S
C68 C67 1.372 . S
C68 C69 1.379 . S
C69 H47 0.948 . S
C69 C64 1.364 . S
C69 C68 1.379 . S
C70 C39 1.383 . S
C70 C57 1.479 . S
C70 C71 1.398 . S
C71 C36 1.382 . S
C71 H48 0.951 . S
C71 C70 1.398 . S
C72 C73 1.384 . S
C72 H85 0.947 . S
C72 C107 1.382 . S
C73 C72 1.384 . S
C73 C74 1.378 . S
C74 C73 1.378 . S
C74 C75 1.378 . S
C74 H86 0.952 . S
C75 C74 1.378 . S
C75 H87 0.950 . S
C75 C106 1.383 . S
H76 C95 0.947 . S
H77 C96 0.946 . S
H78 C98 0.953 . S
H79 C99 0.945 . S
H80 C101 0.952 . S
H81 C102 0.949 1_556 S
H82 C104 0.950 . S
H83 C105 0.948 . S
H84 C107 0.951 . S
H85 C72 0.947 . S
H86 C74 0.952 . S
H87 C75 0.950 . S
N88 C91 1.382 . S
N88 C93 1.363 . S
N89 C91 1.371 . S
N89 C92 1.372 . S
N90 C92 1.361 . S
N90 C93 1.377 . S
C91 N88 1.382 . S
C91 N89 1.371 . S
C91 C94 1.480 . S
C92 N89 1.372 . S
C92 N90 1.361 . S
C92 C100 1.457 . S
C93 N88 1.363 . S
C93 N90 1.377 . S
C93 C106 1.479 . S
C94 C91 1.480 . S
C94 C95 1.383 . S
C94 C99 1.385 . S
C95 H76 0.947 . S
C95 C94 1.383 . S
C95 C96 1.388 . S
C96 H77 0.946 . S
C96 C95 1.388 . S
C96 C97 1.384 . S
C97 C96 1.384 . S
C97 C98 1.377 . S
C98 H78 0.953 . S
C98 C97 1.377 . S
C98 C99 1.369 . S
C99 H79 0.945 . S
C99 C94 1.385 . S
C99 C98 1.369 . S
C100 C92 1.457 . S
C100 C101 1.372 . S
C100 C105 1.364 . S
C101 H80 0.952 . S
C101 C100 1.372 . S
C101 C102 1.389 . S
C102 H81 0.949 1_554 S
C102 C101 1.389 . S
C102 C103 1.387 . S
C103 C102 1.387 . S
C103 C104 1.372 . S
C104 H82 0.950 . S
C104 C103 1.372 . S
C104 C105 1.379 . S
C105 H83 0.948 . S
C105 C100 1.364 . S
C105 C104 1.379 . S
C106 C75 1.383 . S
C106 C93 1.479 . S
C106 C107 1.398 . S
C107 C72 1.382 . S
C107 H84 0.951 . S
C107 C106 1.398 . S
C108 C109 1.384 . S
C108 H121 0.947 . S
C108 C143 1.382 . S
C109 C108 1.384 . S
C109 C110 1.378 . S
C110 C109 1.378 . S
C110 C111 1.378 . S
C110 H122 0.952 1_554 S
C111 C110 1.378 . S
C111 H123 0.950 . S
C111 C142 1.383 . S
H112 C131 0.947 . S
H113 C132 0.946 . S
H114 C134 0.953 . S
H115 C135 0.945 . S
H116 C137 0.952 . S
H117 C138 0.949 . S
H118 C140 0.950 . S
H119 C141 0.948 . S
H120 C143 0.951 . S
H121 C108 0.947 . S
H122 C110 0.952 1_556 S
H123 C111 0.950 . S
N124 C127 1.382 . S
N124 C129 1.363 . S
N125 C127 1.371 . S
N125 C128 1.372 . S
N126 C128 1.361 . S
N126 C129 1.377 . S
C127 N124 1.382 . S
C127 N125 1.371 . S
C127 C130 1.480 . S
C128 N125 1.372 . S
C128 N126 1.361 . S
C128 C136 1.457 . S
C129 N124 1.363 . S
C129 N126 1.377 . S
C129 C142 1.479 . S
C130 C127 1.480 . S
C130 C131 1.383 . S
C130 C135 1.385 . S
C131 H112 0.947 . S
C131 C130 1.383 . S
C131 C132 1.388 . S
C132 H113 0.946 . S
C132 C131 1.388 . S
C132 C133 1.384 . S
C133 C132 1.384 . S
C133 C134 1.377 . S
C134 H114 0.953 . S
C134 C133 1.377 . S
C134 C135 1.369 . S
C135 H115 0.945 . S
C135 C130 1.385 . S
C135 C134 1.369 . S
C136 C128 1.457 . S
C136 C137 1.372 . S
C136 C141 1.364 . S
C137 H116 0.952 . S
C137 C136 1.372 . S
C137 C138 1.389 . S
C138 H117 0.949 . S
C138 C137 1.389 . S
C138 C139 1.387 . S
C139 C138 1.387 . S
C139 C140 1.372 . S
C140 H118 0.950 . S
C140 C139 1.372 . S
C140 C141 1.379 . S
C141 H119 0.948 . S
C141 C136 1.364 . S
C141 C140 1.379 . S
C142 C111 1.383 . S
C142 C129 1.479 . S
C142 C143 1.398 . S
C143 C108 1.382 . S
C143 H120 0.951 . S
C143 C142 1.398 . S
C144 C145 1.384 . S
C144 H157 0.947 . S
C144 C179 1.382 . S
C145 C144 1.384 . S
C145 C146 1.378 . S
C146 C145 1.378 . S
C146 C147 1.378 . S
C146 H158 0.952 . S
C147 C146 1.378 . S
C147 H159 0.950 . S
C147 C178 1.383 . S
H148 C167 0.947 1_556 S
H149 C168 0.946 . S
H150 C170 0.953 . S
H151 C171 0.945 . S
H152 C173 0.952 . S
H153 C174 0.949 . S
H154 C176 0.950 . S
H155 C177 0.948 . S
H156 C179 0.951 . S
H157 C144 0.947 . S
H158 C146 0.952 . S
H159 C147 0.950 . S
N160 C163 1.382 1_556 S
N160 C165 1.363 . S
N161 C163 1.371 . S
N161 C164 1.372 . S
N162 C164 1.361 . S
N162 C165 1.377 1_554 S
C163 N160 1.382 1_554 S
C163 N161 1.371 . S
C163 C166 1.480 . S
C164 N161 1.372 . S
C164 N162 1.361 . S
C164 C172 1.457 . S
C165 N160 1.363 . S
C165 N162 1.377 1_556 S
C165 C178 1.479 . S
C166 C163 1.480 . S
C166 C167 1.383 . S
C166 C171 1.385 . S
C167 H148 0.947 1_554 S
C167 C166 1.383 . S
C167 C168 1.388 . S
C168 H149 0.946 . S
C168 C167 1.388 . S
C168 C169 1.384 . S
C169 C168 1.384 . S
C169 C170 1.377 . S
C170 H150 0.953 . S
C170 C169 1.377 . S
C170 C171 1.369 . S
C171 H151 0.945 . S
C171 C166 1.385 . S
C171 C170 1.369 . S
C172 C164 1.457 . S
C172 C173 1.372 . S
C172 C177 1.364 . S
C173 H152 0.952 . S
C173 C172 1.372 . S
C173 C174 1.389 . S
C174 H153 0.949 . S
C174 C173 1.389 . S
C174 C175 1.387 . S
C175 C174 1.387 . S
C175 C176 1.372 . S
C176 H154 0.950 . S
C176 C175 1.372 . S
C176 C177 1.379 . S
C177 H155 0.948 . S
C177 C172 1.364 . S
C177 C176 1.379 . S
C178 C147 1.383 . S
C178 C165 1.479 . S
C178 C179 1.398 . S
C179 C144 1.382 . S
C179 H156 0.951 . S
C179 C178 1.398 . S
C180 C181 1.384 . S
C180 H193 0.947 . S
C180 C215 1.382 . S
C181 C180 1.384 . S
C181 C182 1.378 . S
C182 C181 1.378 . S
C182 C183 1.378 . S
C182 H194 0.952 . S
C183 C182 1.378 . S
C183 H195 0.950 . S
C183 C214 1.383 . S
H184 C203 0.947 1_556 S
H185 C204 0.946 . S
H186 C206 0.953 . S
H187 C207 0.945 . S
H188 C209 0.952 . S
H189 C210 0.949 . S
H190 C212 0.950 . S
H191 C213 0.948 . S
H192 C215 0.951 . S
H193 C180 0.947 . S
H194 C182 0.952 . S
H195 C183 0.950 . S
N196 C199 1.382 1_556 S
N196 C201 1.363 . S
N197 C199 1.371 . S
N197 C200 1.372 . S
N198 C200 1.361 . S
N198 C201 1.377 1_554 S
C199 N196 1.382 1_554 S
C199 N197 1.371 . S
C199 C202 1.480 . S
C200 N197 1.372 . S
C200 N198 1.361 . S
C200 C208 1.457 . S
C201 N196 1.363 . S
C201 N198 1.377 1_556 S
C201 C214 1.479 . S
C202 C199 1.480 . S
C202 C203 1.383 . S
C202 C207 1.385 . S
C203 H184 0.947 1_554 S
C203 C202 1.383 . S
C203 C204 1.388 . S
C204 H185 0.946 . S
C204 C203 1.388 . S
C204 C205 1.384 . S
C205 C204 1.384 . S
C205 C206 1.377 . S
C206 H186 0.953 . S
C206 C205 1.377 . S
C206 C207 1.369 . S
C207 H187 0.945 . S
C207 C202 1.385 . S
C207 C206 1.369 . S
C208 C200 1.457 . S
C208 C209 1.372 . S
C208 C213 1.364 . S
C209 H188 0.952 . S
C209 C208 1.372 . S
C209 C210 1.389 . S
C210 H189 0.949 . S
C210 C209 1.389 . S
C210 C211 1.387 . S
C211 C210 1.387 . S
C211 C212 1.372 . S
C212 H190 0.950 . S
C212 C211 1.372 . S
C212 C213 1.379 . S
C213 H191 0.948 . S
C213 C208 1.364 . S
C213 C212 1.379 . S
C214 C183 1.383 . S
C214 C201 1.479 . S
C214 C215 1.398 . S
C215 C180 1.382 . S
C215 H192 0.951 . S
C215 C214 1.398 . S
C216 C217 1.384 . S
C216 H229 0.947 . S
C216 C251 1.382 . S
C217 C216 1.384 . S
C217 C218 1.378 . S
C218 C217 1.378 . S
C218 C219 1.378 . S
C218 H230 0.952 . S
C219 C218 1.378 . S
C219 H231 0.950 . S
C219 C250 1.383 . S
H220 C239 0.947 1_556 S
H221 C240 0.946 . S
H222 C242 0.953 . S
H223 C243 0.945 . S
H224 C245 0.952 . S
H225 C246 0.949 . S
H226 C248 0.950 . S
H227 C249 0.948 . S
H228 C251 0.951 . S
H229 C216 0.947 . S
H230 C218 0.952 . S
H231 C219 0.950 . S
N232 C235 1.382 1_556 S
N232 C237 1.363 . S
N233 C235 1.371 . S
N233 C236 1.372 . S
N234 C236 1.361 . S
N234 C237 1.377 1_554 S
C235 N232 1.382 1_554 S
C235 N233 1.371 . S
C235 C238 1.480 . S
C236 N233 1.372 . S
C236 N234 1.361 . S
C236 C244 1.457 . S
C237 N232 1.363 . S
C237 N234 1.377 1_556 S
C237 C250 1.479 . S
C238 C235 1.480 . S
C238 C239 1.383 . S
C238 C243 1.385 . S
C239 H220 0.947 1_554 S
C239 C238 1.383 . S
C239 C240 1.388 . S
C240 H221 0.946 . S
C240 C239 1.388 . S
C240 C241 1.384 . S
C241 C240 1.384 . S
C241 C242 1.377 . S
C242 H222 0.953 . S
C242 C241 1.377 . S
C242 C243 1.369 . S
C243 H223 0.945 . S
C243 C238 1.385 . S
C243 C242 1.369 . S
C244 C236 1.457 . S
C244 C245 1.372 . S
C244 C249 1.364 . S
C245 H224 0.952 . S
C245 C244 1.372 . S
C245 C246 1.389 . S
C246 H225 0.949 . S
C246 C245 1.389 . S
C246 C247 1.387 . S
C247 C246 1.387 . S
C247 C248 1.372 . S
C248 H226 0.950 . S
C248 C247 1.372 . S
C248 C249 1.379 . S
C249 H227 0.948 . S
C249 C244 1.364 . S
C249 C248 1.379 . S
C250 C219 1.383 . S
C250 C237 1.479 . S
C250 C251 1.398 . S
C251 C216 1.382 . S
C251 H228 0.951 . S
C251 C250 1.398 . S
C252 C253 1.384 . S
C252 H265 0.947 . S
C252 C287 1.382 . S
C253 C252 1.384 . S
C253 C254 1.378 . S
C254 C253 1.378 . S
C254 C255 1.378 . S
C254 H266 0.952 . S
C255 C254 1.378 . S
C255 H267 0.950 . S
C255 C286 1.383 . S
H256 C275 0.947 . S
H257 C276 0.946 . S
H258 C278 0.953 1_556 S
H259 C279 0.945 1_556 S
H260 C281 0.952 . S
H261 C282 0.949 . S
H262 C284 0.950 . S
H263 C285 0.948 . S
H264 C287 0.951 . S
H265 C252 0.947 . S
H266 C254 0.952 . S
H267 C255 0.950 . S
N268 C271 1.382 . S
N268 C273 1.363 . S
N269 C271 1.371 1_556 S
N269 C272 1.372 . S
N270 C272 1.361 1_554 S
N270 C273 1.377 . S
C271 N268 1.382 . S
C271 N269 1.371 1_554 S
C271 C274 1.480 . S
C272 N269 1.372 . S
C272 N270 1.361 1_556 S
C272 C280 1.457 . S
C273 N268 1.363 . S
C273 N270 1.377 . S
C273 C286 1.479 . S
C274 C271 1.480 . S
C274 C275 1.383 . S
C274 C279 1.385 . S
C275 H256 0.947 . S
C275 C274 1.383 . S
C275 C276 1.388 . S
C276 H257 0.946 . S
C276 C275 1.388 . S
C276 C277 1.384 . S
C277 C276 1.384 . S
C277 C278 1.377 . S
C278 H258 0.953 1_554 S
C278 C277 1.377 . S
C278 C279 1.369 . S
C279 H259 0.945 1_554 S
C279 C274 1.385 . S
C279 C278 1.369 . S
C280 C272 1.457 . S
C280 C281 1.372 . S
C280 C285 1.364 . S
C281 H260 0.952 . S
C281 C280 1.372 . S
C281 C282 1.389 . S
C282 H261 0.949 . S
C282 C281 1.389 . S
C282 C283 1.387 . S
C283 C282 1.387 . S
C283 C284 1.372 . S
C284 H262 0.950 . S
C284 C283 1.372 . S
C284 C285 1.379 . S
C285 H263 0.948 . S
C285 C280 1.364 . S
C285 C284 1.379 . S
C286 C255 1.383 . S
C286 C273 1.479 . S
C286 C287 1.398 . S
C287 C252 1.382 . S
C287 H264 0.951 . S
C287 C286 1.398 . S
C288 C290 1.422 . S
C288 C292 1.415 . S
C288 N294 1.369 . S
C289 C290 1.421 . S
C289 C291 1.417 1_556 S
C289 C301 1.422 1_556 S
C290 C288 1.422 . S
C290 C289 1.421 . S
C290 N300 1.359 . S
C291 C289 1.417 1_554 S
C291 C293 1.329 1_554 S
C291 H310 0.930 . S
C292 C288 1.415 . S
C292 C293 1.437 . S
C292 C296 1.413 . S
C293 C291 1.329 1_556 S
C293 C292 1.437 . S
C293 H315 0.929 . S
N294 C288 1.369 . S
N294 C295 1.338 1_545 S
N294 Gd299 2.622 1_545 S
C295 N294 1.338 1_565 S
C295 C297 1.378 1_565 S
C295 H307 0.929 . S
C296 C292 1.413 . S
C296 C297 1.348 . S
C296 H312 0.931 . S
C297 C295 1.378 1_545 S
C297 C296 1.348 . S
C297 H313 0.930 . S
Gd298 N318 2.622 . S
Gd298 N325 2.570 . S
Gd298 O332 2.353 1_655 S
Gd298 O333 2.468 . S
Gd298 O334 2.427 . S
Gd298 O336 2.388 . S
Gd298 O337 2.386 1_545 S
Gd298 O341 2.307 1_655 S
Gd298 C351 2.805 . S
Gd299 N294 2.622 1_565 S
Gd299 N300 2.570 1_565 S
Gd299 O331 2.386 1_565 S
Gd299 O335 2.307 1_465 S
Gd299 O338 2.353 . S
Gd299 O339 2.468 . S
Gd299 O340 2.427 . S
Gd299 O342 2.388 . S
Gd299 C363 2.805 . S
N300 C290 1.359 . S
N300 Gd299 2.570 1_545 S
N300 C302 1.343 . S
C301 C289 1.422 1_554 S
C301 C303 1.321 . S
C301 H309 0.931 . S
C302 N300 1.343 . S
C302 C303 1.390 1_556 S
C302 H304 0.931 . S
C303 C301 1.321 . S
C303 C302 1.390 1_554 S
C303 H305 0.930 . S
H304 C302 0.931 . S
H305 C303 0.930 . S
H306 C329 0.931 1_455 S
H307 C295 0.929 . S
H308 C330 0.930 1_455 S
H309 C301 0.931 . S
H310 C291 0.930 . S
H311 C320 0.929 . S
H312 C296 0.931 . S
H313 C297 0.930 . S
H314 C352 0.930 . S
H315 C293 0.929 . S
H316 C321 0.931 . S
H317 C322 0.930 . S
N318 Gd298 2.622 . S
N318 C319 1.357 1_545 S
N318 C320 1.338 . S
C319 N318 1.357 1_565 S
C319 C323 1.425 . S
C319 C326 1.425 . S
C320 H311 0.929 . S
C320 N318 1.338 . S
C320 C322 1.378 . S
C321 H316 0.931 . S
C321 C322 1.348 1_565 S
C321 C323 1.413 . S
C322 H317 0.930 . S
C322 C320 1.378 . S
C322 C321 1.348 1_545 S
C323 C319 1.425 . S
C323 C321 1.413 . S
C323 C353 1.437 . S
H324 C353 0.929 . S
N325 Gd298 2.570 . S
N325 C326 1.359 1_545 S
N325 C329 1.343 . S
C326 C319 1.425 . S
C326 N325 1.359 1_565 S
C326 C328 1.421 . S
C327 C328 1.422 . S
C327 C330 1.321 . S
C327 H354 0.931 . S
C328 C326 1.421 . S
C328 C327 1.422 . S
C328 C352 1.417 . S
C329 H306 0.931 1_655 S
C329 N325 1.343 . S
C329 C330 1.390 1_545 S
C330 H308 0.930 1_655 S
C330 C327 1.321 . S
C330 C329 1.390 1_565 S
O331 Gd299 2.386 1_545 S
O331 C343 1.265 . S
O332 Gd298 2.353 1_455 S
O332 C343 1.242 . S
O333 Gd298 2.468 . S
O333 C351 1.263 . S
O334 Gd298 2.427 . S
O334 C351 1.252 . S
O335 Gd299 2.307 1_645 S
O335 C344 1.261 . S
O336 Gd298 2.388 . S
O336 C344 1.252 . S
O337 Gd298 2.386 1_565 S
O337 C355 1.265 . S
O338 Gd299 2.353 . S
O338 C355 1.242 1_455 S
O339 Gd299 2.468 . S
O339 C363 1.263 . S
O340 Gd299 2.427 . S
O340 C363 1.252 . S
O341 Gd298 2.307 1_455 S
O341 C356 1.261 . S
O342 Gd299 2.388 . S
O342 C356 1.252 1_565 S
C343 O331 1.265 . S
C343 O332 1.242 . S
C344 O335 1.261 . S
C344 O336 1.252 . S
C345 C348 1.394 . S
C345 C350 1.370 . S
C345 C351 1.500 . S
C346 C349 1.383 . S
C346 C350 1.395 . S
C347 C348 1.396 . S
C347 C349 1.365 . S
C347 H364 0.929 . S
C348 C345 1.394 . S
C348 C347 1.396 . S
C348 H365 0.930 . S
C349 C346 1.383 . S
C349 C347 1.365 . S
C349 H366 0.931 . S
C350 C345 1.370 . S
C350 C346 1.395 . S
C350 H367 0.930 1_655 S
C351 Gd298 2.805 . S
C351 O333 1.263 . S
C351 O334 1.252 . S
C351 C345 1.500 . S
C352 H314 0.930 . S
C352 C328 1.417 . S
C352 C353 1.329 . S
C353 C323 1.437 . S
C353 H324 0.929 . S
C353 C352 1.329 . S
H354 C327 0.931 . S
C355 O337 1.265 . S
C355 O338 1.242 1_655 S
C356 O341 1.261 . S
C356 O342 1.252 1_545 S
C357 C360 1.394 . S
C357 C362 1.370 . S
C357 C363 1.500 . S
C358 C361 1.383 . S
C358 C362 1.395 . S
C359 C360 1.396 . S
C359 C361 1.365 . S
C359 H368 0.929 . S
C360 C357 1.394 . S
C360 C359 1.396 . S
C360 H369 0.930 . S
C361 C358 1.383 . S
C361 C359 1.365 . S
C361 H370 0.931 . S
C362 C357 1.370 . S
C362 C358 1.395 . S
C362 H371 0.930 . S
C363 Gd299 2.805 . S
C363 O339 1.263 . S
C363 O340 1.252 . S
C363 C357 1.500 . S
H364 C347 0.929 . S
H365 C348 0.930 . S
H366 C349 0.931 . S
H367 C350 0.930 1_455 S
H368 C359 0.929 . S
H369 C360 0.930 . S
H370 C361 0.931 . S
H371 C362 0.930 . S
C372 C374 1.422 . S
C372 C376 1.415 . S
C372 N378 1.369 . S
C373 C374 1.421 . S
C373 C375 1.417 . S
C373 C385 1.422 . S
C374 C372 1.422 . S
C374 C373 1.421 . S
C374 N384 1.359 . S
C375 C373 1.417 . S
C375 C377 1.329 . S
C375 H394 0.930 . S
C376 C372 1.415 . S
C376 C377 1.437 . S
C376 C380 1.413 . S
C377 C375 1.329 . S
C377 C376 1.437 . S
C377 H399 0.929 . S
N378 C372 1.369 . S
N378 C379 1.338 . S
N378 Gd383 2.622 . S
C379 N378 1.338 . S
C379 C381 1.378 . S
C379 H391 0.929 . S
C380 C376 1.413 . S
C380 C381 1.348 . S
C380 H396 0.931 . S
C381 C379 1.378 . S
C381 C380 1.348 . S
C381 H397 0.930 . S
Gd382 N402 2.622 . S
Gd382 N409 2.570 . S
Gd382 O416 2.353 1_545 S
Gd382 O417 2.468 . S
Gd382 O418 2.427 . S
Gd382 O420 2.388 . S
Gd382 O421 2.386 . S
Gd382 O425 2.307 . S
Gd382 C435 2.805 . S
Gd383 N378 2.622 . S
Gd383 N384 2.570 . S
Gd383 O415 2.386 . S
Gd383 O419 2.307 1_565 S
Gd383 O422 2.353 1_565 S
Gd383 O423 2.468 . S
Gd383 O424 2.427 . S
Gd383 O426 2.388 . S
Gd383 C447 2.805 . S
N384 C374 1.359 . S
N384 Gd383 2.570 . S
N384 C386 1.343 . S
C385 C373 1.422 . S
C385 C387 1.321 . S
C385 H393 0.931 . S
C386 N384 1.343 . S
C386 C387 1.390 . S
C386 H388 0.931 . S
C387 C385 1.321 . S
C387 C386 1.390 . S
C387 H389 0.930 . S
H388 C386 0.931 . S
H389 C387 0.930 . S
H390 C413 0.931 . S
H391 C379 0.929 . S
H392 C414 0.930 . S
H393 C385 0.931 . S
H394 C375 0.930 . S
H395 C404 0.929 . S
H396 C380 0.931 . S
H397 C381 0.930 . S
H398 C436 0.930 . S
H399 C377 0.929 . S
H400 C405 0.931 . S
H401 C406 0.930 . S
N402 Gd382 2.622 . S
N402 C403 1.369 . S
N402 C404 1.338 . S
C403 N402 1.369 . S
C403 C407 1.415 . S
C403 C410 1.422 . S
C404 H395 0.929 . S
C404 N402 1.338 . S
C404 C406 1.378 . S
C405 H400 0.931 . S
C405 C406 1.348 . S
C405 C407 1.413 . S
C406 H401 0.930 . S
C406 C404 1.378 . S
C406 C405 1.348 . S
C407 C403 1.415 . S
C407 C405 1.413 . S
C407 C437 1.437 . S
H408 C437 0.929 . S
N409 Gd382 2.570 . S
N409 C410 1.359 . S
N409 C413 1.343 . S
C410 C403 1.422 . S
C410 N409 1.359 . S
C410 C412 1.421 . S
C411 C412 1.422 . S
C411 C414 1.321 . S
C411 H438 0.931 . S
C412 C410 1.421 . S
C412 C411 1.422 . S
C412 C436 1.417 . S
C413 H390 0.931 . S
C413 N409 1.343 . S
C413 C414 1.390 . S
C414 H392 0.930 . S
C414 C411 1.321 . S
C414 C413 1.390 . S
O415 Gd383 2.386 . S
O415 C427 1.265 . S
O416 Gd382 2.353 1_565 S
O416 C427 1.242 . S
O417 Gd382 2.468 . S
O417 C435 1.263 . S
O418 Gd382 2.427 . S
O418 C435 1.252 . S
O419 Gd383 2.307 1_545 S
O419 C428 1.261 . S
O420 Gd382 2.388 . S
O420 C428 1.252 . S
O421 Gd382 2.386 . S
O421 C439 1.265 . S
O422 Gd383 2.353 1_545 S
O422 C439 1.242 . S
O423 Gd383 2.468 . S
O423 C447 1.263 . S
O424 Gd383 2.427 . S
O424 C447 1.252 . S
O425 Gd382 2.307 . S
O425 C440 1.261 1_545 S
O426 Gd383 2.388 . S
O426 C440 1.252 . S
C427 O415 1.265 . S
C427 O416 1.242 . S
C428 O419 1.261 . S
C428 O420 1.252 . S
C429 C432 1.394 1_556 S
C429 C434 1.370 . S
C429 C435 1.500 . S
C430 C433 1.383 1_556 S
C430 C434 1.395 . S
C431 C432 1.396 . S
C431 C433 1.365 . S
C431 H448 0.929 . S
C432 C429 1.394 1_554 S
C432 C431 1.396 . S
C432 H449 0.930 . S
C433 C430 1.383 1_554 S
C433 C431 1.365 . S
C433 H450 0.931 . S
C434 C429 1.370 . S
C434 C430 1.395 . S
C434 H451 0.930 . S
C435 Gd382 2.805 . S
C435 O417 1.263 . S
C435 O418 1.252 . S
C435 C429 1.500 . S
C436 H398 0.930 . S
C436 C412 1.417 . S
C436 C437 1.329 . S
C437 C407 1.437 . S
C437 H408 0.929 . S
C437 C436 1.329 . S
H438 C411 0.931 . S
C439 O421 1.265 . S
C439 O422 1.242 . S
C440 O425 1.261 1_565 S
C440 O426 1.252 . S
C441 C444 1.394 . S
C441 C446 1.370 . S
C441 C447 1.500 . S
C442 C445 1.383 . S
C442 C446 1.395 . S
C443 C444 1.396 . S
C443 C445 1.365 . S
C443 H452 0.929 . S
C444 C441 1.394 . S
C444 C443 1.396 . S
C444 H453 0.930 . S
C445 C442 1.383 . S
C445 C443 1.365 . S
C445 H454 0.931 . S
C446 C441 1.370 . S
C446 C442 1.395 . S
C446 H455 0.930 . S
C447 Gd383 2.805 . S
C447 O423 1.263 . S
C447 O424 1.252 . S
C447 C441 1.500 . S
H448 C431 0.929 . S
H449 C432 0.930 . S
H450 C433 0.931 . S
H451 C434 0.930 . S
H452 C443 0.929 . S
H453 C444 0.930 . S
H454 C445 0.931 . S
H455 C446 0.930 . S
C456 C458 1.422 . S
C456 C460 1.415 . S
C456 N462 1.369 . S
C457 C458 1.421 . S
C457 C459 1.417 1_556 S
C457 C469 1.422 1_556 S
C458 C456 1.422 . S
C458 C457 1.421 . S
C458 N468 1.359 . S
C459 C457 1.417 1_554 S
C459 C461 1.329 1_554 S
C459 H478 0.930 . S
C460 C456 1.415 . S
C460 C461 1.437 . S
C460 C464 1.413 . S
C461 C459 1.329 1_556 S
C461 C460 1.437 . S
C461 H483 0.929 . S
N462 C456 1.369 . S
N462 C463 1.338 . S
N462 Gd467 2.622 . S
C463 N462 1.338 . S
C463 C465 1.378 . S
C463 H475 0.929 . S
C464 C460 1.413 . S
C464 C465 1.348 . S
C464 H480 0.931 . S
C465 C463 1.378 . S
C465 C464 1.348 . S
C465 H481 0.930 . S
Gd466 N486 2.622 . S
Gd466 N493 2.570 . S
Gd466 O500 2.353 . S
Gd466 O501 2.468 . S
Gd466 O502 2.427 . S
Gd466 O504 2.388 . S
Gd466 O505 2.386 . S
Gd466 O509 2.307 . S
Gd466 C519 2.805 . S
Gd467 N462 2.622 . S
Gd467 N468 2.570 . S
Gd467 O499 2.386 . S
Gd467 O503 2.307 . S
Gd467 O506 2.353 . S
Gd467 O507 2.468 . S
Gd467 O508 2.427 . S
Gd467 O510 2.388 . S
Gd467 C531 2.805 . S
N468 C458 1.359 . S
N468 Gd467 2.570 . S
N468 C470 1.343 . S
C469 C457 1.422 1_554 S
C469 C471 1.321 . S
C469 H477 0.931 . S
C470 N468 1.343 . S
C470 C471 1.390 1_556 S
C470 H472 0.931 . S
C471 C469 1.321 . S
C471 C470 1.390 1_554 S
C471 H473 0.930 . S
H472 C470 0.931 . S
H473 C471 0.930 . S
H474 C497 0.931 . S
H475 C463 0.929 . S
H476 C498 0.930 . S
H477 C469 0.931 . S
H478 C459 0.930 . S
H479 C488 0.929 . S
H480 C464 0.931 . S
H481 C465 0.930 . S
H482 C520 0.930 . S
H483 C461 0.929 . S
H484 C489 0.931 . S
H485 C490 0.930 . S
N486 Gd466 2.622 . S
N486 C487 1.369 . S
N486 C488 1.338 . S
C487 N486 1.369 . S
C487 C491 1.415 . S
C487 C494 1.422 . S
C488 H479 0.929 . S
C488 N486 1.338 . S
C488 C490 1.378 . S
C489 H484 0.931 . S
C489 C490 1.348 . S
C489 C491 1.413 . S
C490 H485 0.930 . S
C490 C488 1.378 . S
C490 C489 1.348 . S
C491 C487 1.415 . S
C491 C489 1.413 . S
C491 C521 1.437 . S
H492 C521 0.929 . S
N493 Gd466 2.570 . S
N493 C494 1.359 . S
N493 C497 1.343 . S
C494 C487 1.422 . S
C494 N493 1.359 . S
C494 C496 1.421 . S
C495 C496 1.422 . S
C495 C498 1.321 . S
C495 H522 0.931 . S
C496 C494 1.421 . S
C496 C495 1.422 . S
C496 C520 1.417 . S
C497 H474 0.931 . S
C497 N493 1.343 . S
C497 C498 1.390 . S
C498 H476 0.930 . S
C498 C495 1.321 . S
C498 C497 1.390 . S
O499 Gd467 2.386 . S
O499 C511 1.265 . S
O500 Gd466 2.353 . S
O500 C511 1.242 . S
O501 Gd466 2.468 . S
O501 C519 1.263 . S
O502 Gd466 2.427 . S
O502 C519 1.252 . S
O503 Gd467 2.307 . S
O503 C512 1.261 . S
O504 Gd466 2.388 . S
O504 C512 1.252 . S
O505 Gd466 2.386 . S
O505 C523 1.265 . S
O506 Gd467 2.353 . S
O506 C523 1.242 . S
O507 Gd467 2.468 . S
O507 C531 1.263 . S
O508 Gd467 2.427 . S
O508 C531 1.252 . S
O509 Gd466 2.307 . S
O509 C524 1.261 . S
O510 Gd467 2.388 . S
O510 C524 1.252 . S
C511 O499 1.265 . S
C511 O500 1.242 . S
C512 O503 1.261 . S
C512 O504 1.252 . S
C513 C516 1.394 . S
C513 C518 1.370 . S
C513 C519 1.500 . S
C514 C517 1.383 . S
C514 C518 1.395 . S
C515 C516 1.396 . S
C515 C517 1.365 . S
C515 H532 0.929 . S
C516 C513 1.394 . S
C516 C515 1.396 . S
C516 H533 0.930 . S
C517 C514 1.383 . S
C517 C515 1.365 . S
C517 H534 0.931 . S
C518 C513 1.370 . S
C518 C514 1.395 . S
C518 H535 0.930 . S
C519 Gd466 2.805 . S
C519 O501 1.263 . S
C519 O502 1.252 . S
C519 C513 1.500 . S
C520 H482 0.930 . S
C520 C496 1.417 . S
C520 C521 1.329 . S
C521 C491 1.437 . S
C521 H492 0.929 . S
C521 C520 1.329 . S
H522 C495 0.931 . S
C523 O505 1.265 . S
C523 O506 1.242 . S
C524 O509 1.261 . S
C524 O510 1.252 . S
C525 C528 1.394 . S
C525 C530 1.370 . S
C525 C531 1.500 . S
C526 C529 1.383 . S
C526 C530 1.395 . S
C527 C528 1.396 . S
C527 C529 1.365 . S
C527 H536 0.929 . S
C528 C525 1.394 . S
C528 C527 1.396 . S
C528 H537 0.930 . S
C529 C526 1.383 . S
C529 C527 1.365 . S
C529 H538 0.931 . S
C530 C525 1.370 . S
C530 C526 1.395 . S
C530 H539 0.930 . S
C531 Gd467 2.805 . S
C531 O507 1.263 . S
C531 O508 1.252 . S
C531 C525 1.500 . S
H532 C515 0.929 . S
H533 C516 0.930 . S
H534 C517 0.931 . S
H535 C518 0.930 . S
H536 C527 0.929 . S
H537 C528 0.930 . S
H538 C529 0.931 . S
H539 C530 0.930 . S
C540 C542 1.422 . S
C540 C544 1.415 . S
C540 N546 1.369 1_455 S
C541 C542 1.421 . S
C541 C543 1.417 1_556 S
C541 C553 1.422 1_556 S
C542 C540 1.422 . S
C542 C541 1.421 . S
C542 N552 1.359 . S
C543 C541 1.417 1_554 S
C543 C545 1.329 1_554 S
C543 H562 0.930 . S
C544 C540 1.415 . S
C544 C545 1.437 . S
C544 C548 1.413 . S
C545 C543 1.329 1_556 S
C545 C544 1.437 . S
C545 H567 0.929 . S
N546 C540 1.369 1_655 S
N546 C547 1.338 . S
N546 Gd551 2.622 . S
C547 N546 1.338 . S
C547 C549 1.378 1_655 S
C547 H559 0.929 . S
C548 C544 1.413 . S
C548 C549 1.348 . S
C548 H564 0.931 . S
C549 C547 1.378 1_455 S
C549 C548 1.348 . S
C549 H565 0.930 . S
Gd550 N570 2.622 . S
Gd550 N577 2.570 . S
Gd550 O584 2.353 . S
Gd550 O585 2.468 . S
Gd550 O586 2.427 . S
Gd550 O588 2.388 . S
Gd550 O589 2.386 1_455 S
Gd550 O593 2.307 . S
Gd550 C603 2.805 . S
Gd551 N546 2.622 . S
Gd551 N552 2.570 1_655 S
Gd551 O583 2.386 1_655 S
Gd551 O587 2.307 . S
Gd551 O590 2.353 . S
Gd551 O591 2.468 . S
Gd551 O592 2.427 . S
Gd551 O594 2.388 . S
Gd551 C615 2.805 . S
N552 C542 1.359 . S
N552 Gd551 2.570 1_455 S
N552 C554 1.343 . S
C553 C541 1.422 1_554 S
C553 C555 1.321 . S
C553 H561 0.931 . S
C554 N552 1.343 . S
C554 C555 1.390 1_556 S
C554 H556 0.923 1_455 S
C555 C553 1.321 . S
C555 C554 1.390 1_554 S
C555 H557 0.930 . S
H556 C554 0.923 1_655 S
H557 C555 0.930 . S
H558 C581 0.931 . S
H559 C547 0.929 . S
H560 C582 0.930 . S
H561 C553 0.931 . S
H562 C543 0.930 . S
H563 C572 0.929 . S
H564 C548 0.931 . S
H565 C549 0.930 . S
H566 C604 0.930 . S
H567 C545 0.929 . S
H568 C573 0.931 . S
H569 C574 0.930 . S
N570 Gd550 2.622 . S
N570 C571 1.358 1_455 S
N570 C572 1.338 . S
C571 N570 1.358 1_655 S
C571 C575 1.425 . S
C571 C578 1.425 . S
C572 H563 0.929 . S
C572 N570 1.338 . S
C572 C574 1.378 . S
C573 H568 0.931 . S
C573 C574 1.348 1_655 S
C573 C575 1.413 . S
C574 H569 0.930 . S
C574 C572 1.378 . S
C574 C573 1.348 1_455 S
C575 C571 1.425 . S
C575 C573 1.413 . S
C575 C605 1.437 . S
H576 C605 0.929 . S
N577 Gd550 2.570 . S
N577 C578 1.359 1_455 S
N577 C581 1.343 . S
C578 C571 1.425 . S
C578 N577 1.359 1_655 S
C578 C580 1.421 . S
C579 C580 1.422 . S
C579 C582 1.321 . S
C579 H606 0.931 . S
C580 C578 1.421 . S
C580 C579 1.422 . S
C580 C604 1.417 . S
C581 H558 0.931 . S
C581 N577 1.343 . S
C581 C582 1.390 1_455 S
C582 H560 0.930 . S
C582 C579 1.321 . S
C582 C581 1.390 1_655 S
O583 Gd551 2.386 1_455 S
O583 C595 1.265 . S
O584 Gd550 2.353 . S
O584 C595 1.242 . S
O585 Gd550 2.468 . S
O585 C603 1.263 . S
O586 Gd550 2.427 . S
O586 C603 1.252 . S
O587 Gd551 2.307 . S
O587 C596 1.261 1_655 S
O588 Gd550 2.388 . S
O588 C596 1.252 . S
O589 Gd550 2.386 1_655 S
O589 C607 1.265 . S
O590 Gd551 2.353 . S
O590 C607 1.242 . S
O591 Gd551 2.468 . S
O591 C615 1.263 . S
O592 Gd551 2.427 . S
O592 C615 1.252 . S
O593 Gd550 2.307 . S
O593 C608 1.261 . S
O594 Gd551 2.388 . S
O594 C608 1.252 1_655 S
C595 O583 1.265 . S
C595 O584 1.242 . S
C596 O587 1.261 1_455 S
C596 O588 1.252 . S
C597 C600 1.394 . S
C597 C602 1.370 . S
C597 C603 1.500 . S
C598 C601 1.383 . S
C598 C602 1.395 . S
C599 C600 1.396 . S
C599 C601 1.365 . S
C599 H616 0.929 . S
C600 C597 1.394 . S
C600 C599 1.396 . S
C600 H617 0.930 . S
C601 C598 1.383 . S
C601 C599 1.365 . S
C601 H618 0.931 . S
C602 C597 1.370 . S
C602 C598 1.395 . S
C602 H619 0.930 . S
C603 Gd550 2.805 . S
C603 O585 1.263 . S
C603 O586 1.252 . S
C603 C597 1.500 . S
C604 H566 0.930 . S
C604 C580 1.417 . S
C604 C605 1.329 . S
C605 C575 1.437 . S
C605 H576 0.929 . S
C605 C604 1.329 . S
H606 C579 0.931 . S
C607 O589 1.265 . S
C607 O590 1.242 . S
C608 O593 1.261 . S
C608 O594 1.252 1_455 S
C609 C612 1.394 . S
C609 C614 1.370 . S
C609 C615 1.500 . S
C610 C613 1.383 . S
C610 C614 1.395 . S
C611 C612 1.396 . S
C611 C613 1.365 . S
C611 H620 0.929 . S
C612 C609 1.394 . S
C612 C611 1.396 . S
C612 H621 0.930 . S
C613 C610 1.383 . S
C613 C611 1.365 . S
C613 H622 0.931 . S
C614 C609 1.370 . S
C614 C610 1.395 . S
C614 H623 0.930 . S
C615 Gd551 2.805 . S
C615 O591 1.263 . S
C615 O592 1.252 . S
C615 C609 1.500 . S
H616 C599 0.929 . S
H617 C600 0.930 . S
H618 C601 0.931 . S
H619 C602 0.930 . S
H620 C611 0.929 . S
H621 C612 0.930 . S
H622 C613 0.931 . S
H623 C614 0.930 . S
C624 C625 1.369 . S
C624 C626 1.419 . S
C624 H628 0.930 . S
C625 C624 1.369 . S
C625 C634 1.429 . S
C626 C624 1.419 . S
C626 C627 1.363 . S
C626 H629 0.929 . S
C627 C626 1.363 . S
C627 C633 1.428 . S
H628 C624 0.930 . S
H629 C626 0.929 . S
S630 N631 1.613 . S
S630 N632 1.610 . S
N631 S630 1.613 . S
N631 C634 1.350 1_565 S
N632 S630 1.610 . S
N632 C633 1.351 1_565 S
C633 C627 1.428 . S
C633 N632 1.351 1_545 S
C633 C634 1.434 . S
C634 C625 1.429 . S
C634 N631 1.350 1_545 S
C634 C633 1.434 . S
C635 C636 1.369 . S
C635 C637 1.419 . S
C635 H639 0.930 . S
C636 C635 1.369 . S
C636 C645 1.429 . S
C637 C635 1.419 . S
C637 C638 1.363 . S
C637 H640 0.929 . S
C638 C637 1.363 . S
C638 C644 1.428 . S
H639 C635 0.930 . S
H640 C637 0.929 . S
S641 N642 1.613 . S
S641 N643 1.610 . S
N642 S641 1.613 . S
N642 C645 1.350 . S
N643 S641 1.610 . S
N643 C644 1.351 . S
C644 C638 1.428 . S
C644 N643 1.351 . S
C644 C645 1.434 . S
C645 C636 1.429 . S
C645 N642 1.350 . S
C645 C644 1.434 . S
C646 C647 1.369 . S
C646 C648 1.419 . S
C646 H650 0.930 . S
C647 C646 1.369 . S
C647 C656 1.429 . S
C648 C646 1.419 . S
C648 C649 1.363 . S
C648 H651 0.929 . S
C649 C648 1.363 . S
C649 C655 1.428 . S
H650 C646 0.930 . S
H651 C648 0.929 . S
S652 N653 1.613 . S
S652 N654 1.610 . S
N653 S652 1.613 . S
N653 C656 1.350 . S
N654 S652 1.610 . S
N654 C655 1.351 . S
C655 C649 1.428 . S
C655 N654 1.351 . S
C655 C656 1.434 . S
C656 C647 1.429 . S
C656 N653 1.350 . S
C656 C655 1.434 . S
C657 C658 1.369 . S
C657 C659 1.419 . S
C657 H661 0.930 . S
C658 C657 1.369 . S
C658 C667 1.429 . S
C659 C657 1.419 . S
C659 C660 1.363 . S
C659 H662 0.929 1_455 S
C660 C659 1.363 . S
C660 C666 1.428 . S
H661 C657 0.930 . S
H662 C659 0.929 1_655 S
S663 N664 1.613 . S
S663 N665 1.610 . S
N664 S663 1.613 . S
N664 C667 1.350 . S
N665 S663 1.610 . S
N665 C666 1.351 . S
C666 C660 1.428 . S
C666 N665 1.351 . S
C666 C667 1.434 . S
C667 C658 1.429 . S
C667 N664 1.350 . S
C667 C666 1.434 . S
C668 C669 1.369 . S
C668 C670 1.419 1_554 S
C668 H672 0.930 . S
C669 C668 1.369 . S
C669 C678 1.429 1_565 S
C670 C668 1.419 1_556 S
C670 C671 1.363 . S
C670 H673 0.929 . S
C671 C670 1.363 . S
C671 C677 1.428 1_565 S
H672 C668 0.930 . S
H673 C670 0.929 . S
S674 N675 1.613 . S
S674 N676 1.610 1_554 S
N675 S674 1.613 . S
N675 C678 1.350 . S
N676 S674 1.610 1_556 S
N676 C677 1.351 . S
C677 C671 1.428 1_545 S
C677 N676 1.351 . S
C677 C678 1.434 1_556 S
C678 C669 1.429 1_545 S
C678 N675 1.350 . S
C678 C677 1.434 1_554 S
C679 C680 1.369 . S
C679 C681 1.419 1_554 S
C679 H683 0.930 . S
C680 C679 1.369 . S
C680 C689 1.429 . S
C681 C679 1.419 1_556 S
C681 C682 1.363 . S
C681 H684 0.929 . S
C682 C681 1.363 . S
C682 C688 1.428 . S
H683 C679 0.930 . S
H684 C681 0.929 . S
S685 N686 1.613 1_545 S
S685 N687 1.610 1_544 S
N686 S685 1.613 1_565 S
N686 C689 1.350 . S
N687 S685 1.610 1_566 S
N687 C688 1.351 . S
C688 C682 1.428 . S
C688 N687 1.351 . S
C688 C689 1.434 1_556 S
C689 C680 1.429 . S
C689 N686 1.350 . S
C689 C688 1.434 1_554 S
C690 C691 1.369 . S
C690 C692 1.419 1_554 S
C690 H694 0.930 . S
C691 C690 1.369 . S
C691 C700 1.429 . S
C692 C690 1.419 1_556 S
C692 C693 1.363 . S
C692 H695 0.929 . S
C693 C692 1.363 . S
C693 C699 1.428 . S
H694 C690 0.930 . S
H695 C692 0.929 . S
S696 N697 1.613 1_556 S
S696 N698 1.610 . S
N697 S696 1.613 1_554 S
N697 C700 1.350 . S
N698 S696 1.610 . S
N698 C699 1.351 . S
C699 C693 1.428 . S
C699 N698 1.351 . S
C699 C700 1.434 1_556 S
C700 C691 1.429 . S
C700 N697 1.350 . S
C700 C699 1.434 1_554 S
C701 C702 1.369 1_455 S
C701 C703 1.419 1_554 S
C701 H705 0.930 . S
C702 C701 1.369 1_655 S
C702 C711 1.429 . S
C703 C701 1.419 1_556 S
C703 C704 1.363 1_455 S
C703 H706 0.929 . S
C704 C703 1.363 1_655 S
C704 C710 1.428 . S
H705 C701 0.930 . S
H706 C703 0.929 . S
S707 N708 1.613 1_556 S
S707 N709 1.610 . S
N708 S707 1.613 1_554 S
N708 C711 1.350 . S
N709 S707 1.610 . S
N709 C710 1.351 . S
C710 C704 1.428 . S
C710 N709 1.351 . S
C710 C711 1.434 1_556 S
C711 C702 1.429 . S
C711 N708 1.350 . S
C711 C710 1.434 1_554 S
C712 C713 1.369 . S
C712 C714 1.419 . S
C712 H716 0.930 . S
C713 C712 1.369 . S
C713 C722 1.429 . S
C714 C712 1.419 . S
C714 C715 1.363 1_455 S
C714 H717 0.929 . S
C715 C714 1.363 1_655 S
C715 C721 1.428 . S
H716 C712 0.930 . S
H717 C714 0.929 . S
S718 N719 1.613 . S
S718 N720 1.610 . S
N719 S718 1.613 . S
N719 C722 1.350 1_655 S
N720 S718 1.610 . S
N720 C721 1.351 . S
C721 C715 1.428 . S
C721 N720 1.351 . S
C721 C722 1.434 1_655 S
C722 C713 1.429 . S
C722 N719 1.350 1_455 S
C722 C721 1.434 1_455 S
C723 C724 1.369 . S
C723 C725 1.419 1_545 S
C723 H727 0.930 . S
C724 C723 1.369 . S
C724 C733 1.429 . S
C725 C723 1.419 1_565 S
C725 C726 1.363 . S
C725 H728 0.929 . S
C726 C725 1.363 . S
C726 C732 1.428 1_565 S
H727 C723 0.930 . S
H728 C725 0.929 . S
S729 N730 1.613 . S
S729 N731 1.610 . S
N730 S729 1.613 . S
N730 C733 1.350 . S
N731 S729 1.610 . S
N731 C732 1.351 . S
C732 C726 1.428 1_545 S
C732 N731 1.351 . S
C732 C733 1.434 . S
C733 C724 1.429 . S
C733 N730 1.350 . S
C733 C732 1.434 . S
C734 C735 1.369 . S
C734 C736 1.419 . S
C734 H738 0.930 . S
C735 C734 1.369 . S
C735 C744 1.429 . S
C736 C734 1.419 . S
C736 C737 1.363 . S
C736 H739 0.929 . S
C737 C736 1.363 . S
C737 C743 1.428 . S
H738 C734 0.930 . S
H739 C736 0.929 . S
S740 N741 1.613 . S
S740 N742 1.610 . S
N741 S740 1.613 . S
N741 C744 1.350 . S
N742 S740 1.610 . S
N742 C743 1.351 . S
C743 C737 1.428 . S
C743 N742 1.351 . S
C743 C744 1.434 . S
C744 C735 1.429 . S
C744 N741 1.350 . S
C744 C743 1.434 . S
C745 C746 1.369 . S
C745 C747 1.419 . S
C745 H749 0.930 . S
C746 C745 1.369 . S
C746 C755 1.429 . S
C747 C745 1.419 . S
C747 C748 1.363 . S
C747 H750 0.929 . S
C748 C747 1.363 . S
C748 C754 1.428 . S
H749 C745 0.930 . S
H750 C747 0.929 . S
S751 N752 1.613 . S
S751 N753 1.610 . S
N752 S751 1.613 . S
N752 C755 1.350 . S
N753 S751 1.610 . S
N753 C754 1.351 . S
C754 C748 1.428 . S
C754 N753 1.351 . S
C754 C755 1.434 . S
C755 C746 1.429 . S
C755 N752 1.350 . S
C755 C754 1.434 . S
C756 C757 1.396 1_556 S
C756 C758 1.397 1_655 S
C756 H760 0.925 1_655 S
C757 C756 1.396 1_554 S
C757 C766 1.429 . S
C758 C756 1.397 1_455 S
C758 C759 1.363 . S
C758 H761 0.929 . S
C759 C758 1.363 . S
C759 C765 1.428 1_456 S
H760 C756 0.925 1_455 S
H761 C758 0.929 . S
S762 N763 1.613 . S
S762 N764 1.610 . S
N763 S762 1.613 . S
N763 C766 1.350 . S
N764 S762 1.610 . S
N764 C765 1.351 . S
C765 C759 1.428 1_654 S
C765 N764 1.351 . S
C765 C766 1.434 . S
C766 C757 1.429 . S
C766 N763 1.350 . S
C766 C765 1.434 . S
C767 C768 1.369 1_556 S
C767 C769 1.419 . S
C767 H771 0.930 . S
C768 C767 1.369 1_554 S
C768 C777 1.429 1_565 S
C769 C767 1.419 . S
C769 C770 1.363 1_565 S
C769 H772 0.929 . S
C770 C769 1.363 1_545 S
C770 C776 1.428 1_556 S
H771 C767 0.930 . S
H772 C769 0.929 . S
S773 N774 1.613 . S
S773 N775 1.610 . S
N774 S773 1.613 . S
N774 C777 1.350 . S
N775 S773 1.610 . S
N775 C776 1.351 . S
C776 C770 1.428 1_554 S
C776 N775 1.351 . S
C776 C777 1.434 . S
C777 C768 1.429 1_545 S
C777 N774 1.350 . S
C777 C776 1.434 . S
C778 C779 1.369 . S
C778 C780 1.419 1_554 S
C778 H782 0.930 . S
C779 C778 1.369 . S
C779 C788 1.429 . S
C780 C778 1.419 1_556 S
C780 C781 1.363 . S
C780 H783 0.929 . S
C781 C780 1.363 . S
C781 C787 1.428 1_556 S
H782 C778 0.930 . S
H783 C780 0.929 . S
S784 N785 1.613 . S
S784 N786 1.610 1_554 S
N785 S784 1.613 . S
N785 C788 1.350 . S
N786 S784 1.610 1_556 S
N786 C787 1.351 1_556 S
C787 C781 1.428 1_554 S
C787 N786 1.351 1_554 S
C787 C788 1.434 . S
C788 C779 1.429 . S
C788 N785 1.350 . S
C788 C787 1.434 . S
C789 C790 1.369 . S
C789 C791 1.419 . S
C789 H793 0.930 . S
C790 C789 1.369 . S
C790 C799 1.429 1_554 S
C791 C789 1.419 . S
C791 C792 1.363 1_554 S
C791 H794 0.929 . S
C792 C791 1.363 1_556 S
C792 C798 1.428 . S
H793 C789 0.930 . S
H794 C791 0.929 . S
S795 N796 1.613 . S
S795 N797 1.610 . S
N796 S795 1.613 . S
N796 C799 1.350 . S
N797 S795 1.610 . S
N797 C798 1.351 . S
C798 C792 1.428 . S
C798 N797 1.351 . S
C798 C799 1.434 . S
C799 C790 1.429 1_556 S
C799 N796 1.350 . S
C799 C798 1.434 . S
C800 C801 1.369 . S
C800 C802 1.419 . S
C800 H804 0.930 . S
C801 C800 1.369 . S
C801 C810 1.429 . S
C802 C800 1.419 . S
C802 C803 1.363 . S
C802 H805 0.929 . S
C803 C802 1.363 . S
C803 C809 1.428 . S
H804 C800 0.930 . S
H805 C802 0.929 . S
S806 N807 1.613 . S
S806 N808 1.610 . S
N807 S806 1.613 . S
N807 C810 1.350 . S
N808 S806 1.610 . S
N808 C809 1.351 . S
C809 C803 1.428 . S
C809 N808 1.351 . S
C809 C810 1.434 . S
C810 C801 1.429 . S
C810 N807 1.350 . S
C810 C809 1.434 . S
C811 C812 1.369 . S
C811 C813 1.419 . S
C811 H815 0.930 1_545 S
C812 C811 1.369 . S
C812 C821 1.429 . S
C813 C811 1.419 . S
C813 C814 1.363 . S
C813 H816 0.929 1_545 S
C814 C813 1.363 . S
C814 C820 1.428 . S
H815 C811 0.930 1_565 S
H816 C813 0.929 1_565 S
S817 N818 1.613 . S
S817 N819 1.610 . S
N818 S817 1.613 . S
N818 C821 1.350 . S
N819 S817 1.610 . S
N819 C820 1.351 . S
C820 C814 1.428 . S
C820 N819 1.351 . S
C820 C821 1.434 . S
C821 C812 1.429 . S
C821 N818 1.350 . S
C821 C820 1.434 . S
C822 C823 1.369 . S
C822 C824 1.419 . S
C822 H826 0.930 . S
C823 C822 1.369 . S
C823 C832 1.429 . S
C824 C822 1.419 . S
C824 C825 1.363 . S
C824 H827 0.929 . S
C825 C824 1.363 . S
C825 C831 1.428 . S
H826 C822 0.930 . S
H827 C824 0.929 . S
S828 N829 1.613 . S
S828 N830 1.610 . S
N829 S828 1.613 . S
N829 C832 1.350 . S
N830 S828 1.610 . S
N830 C831 1.351 . S
C831 C825 1.428 . S
C831 N830 1.351 . S
C831 C832 1.434 . S
C832 C823 1.429 . S
C832 N829 1.350 . S
C832 C831 1.434 . S
C833 C834 1.369 . S
C833 C835 1.419 . S
C833 H837 0.930 . S
C834 C833 1.369 . S
C834 C843 1.429 . S
C835 C833 1.419 . S
C835 C836 1.363 . S
C835 H838 0.929 . S
C836 C835 1.363 . S
C836 C842 1.428 . S
H837 C833 0.930 . S
H838 C835 0.929 . S
S839 N840 1.613 . S
S839 N841 1.610 . S
N840 S839 1.613 . S
N840 C843 1.350 . S
N841 S839 1.610 . S
N841 C842 1.351 . S
C842 C836 1.428 . S
C842 N841 1.351 . S
C842 C843 1.434 . S
C843 C834 1.429 . S
C843 N840 1.350 . S
C843 C842 1.434 . S
C844 C845 1.369 . S
C844 C846 1.419 . S
C844 H848 0.930 . S
C845 C844 1.369 . S
C845 C854 1.429 . S
C846 C844 1.419 . S
C846 C847 1.363 . S
C846 H849 0.929 1_655 S
C847 C846 1.363 . S
C847 C853 1.428 . S
H848 C844 0.930 . S
H849 C846 0.929 1_455 S
S850 N851 1.613 . S
S850 N852 1.610 . S
N851 S850 1.613 . S
N851 C854 1.350 . S
N852 S850 1.610 . S
N852 C853 1.351 . S
C853 C847 1.428 . S
C853 N852 1.351 . S
C853 C854 1.434 . S
C854 C845 1.429 . S
C854 N851 1.350 . S
C854 C853 1.434 . S
C855 C856 1.369 1_545 S
C855 C857 1.419 . S
C855 H859 0.930 . S
C856 C855 1.369 1_565 S
C856 C865 1.429 . S
C857 C855 1.419 . S
C857 C858 1.363 1_545 S
C857 H860 0.929 . S
C858 C857 1.363 1_565 S
C858 C864 1.428 . S
H859 C855 0.930 . S
H860 C857 0.929 . S
S861 N862 1.613 . S
S861 N863 1.610 . S
N862 S861 1.613 . S
N862 C865 1.350 . S
N863 S861 1.610 . S
N863 C864 1.351 . S
C864 C858 1.428 . S
C864 N863 1.351 . S
C864 C865 1.434 . S
C865 C856 1.429 . S
C865 N862 1.350 . S
C865 C864 1.434 . S
C866 C867 1.369 . S
C866 C868 1.419 . S
C866 H870 0.930 . S
C867 C866 1.369 . S
C867 C876 1.429 . S
C868 C866 1.419 . S
C868 C869 1.363 . S
C868 H871 0.929 . S
C869 C868 1.363 . S
C869 C875 1.428 . S
H870 C866 0.930 . S
H871 C868 0.929 . S
S872 N873 1.613 . S
S872 N874 1.610 . S
N873 S872 1.613 . S
N873 C876 1.350 . S
N874 S872 1.610 . S
N874 C875 1.351 . S
C875 C869 1.428 . S
C875 N874 1.351 . S
C875 C876 1.434 . S
C876 C867 1.429 . S
C876 N873 1.350 . S
C876 C875 1.434 . S
C877 C878 1.369 . S
C877 C879 1.419 . S
C877 H881 0.930 . S
C878 C877 1.369 . S
C878 C887 1.429 . S
C879 C877 1.419 . S
C879 C880 1.363 . S
C879 H882 0.929 . S
C880 C879 1.363 . S
C880 C886 1.428 . S
H881 C877 0.930 . S
H882 C879 0.929 . S
S883 N884 1.613 . S
S883 N885 1.610 . S
N884 S883 1.613 . S
N884 C887 1.350 . S
N885 S883 1.610 . S
N885 C886 1.351 . S
C886 C880 1.428 . S
C886 N885 1.351 . S
C886 C887 1.434 . S
C887 C878 1.429 . S
C887 N884 1.350 . S
C887 C886 1.434 . S
C625 C241 2.514 . S
C627 C356 2.807 . S
C638 C439 2.825 . S
C636 C277 2.600 . S
C649 C524 2.814 . S
C647 C169 2.520 . S
C660 C608 2.797 . S
C658 C205 2.509 . S
C671 C344 2.806 1_565 S
C669 C97 2.485 . S
C680 C133 2.629 . S
C682 C427 2.824 . S
C691 C25 2.490 . S
C693 C512 2.815 . S
C702 C61 2.479 . S
C704 C596 2.798 1_655 S
C715 C346 0.761 . S
C713 C211 0.750 . S
C726 C442 0.749 . S
C724 C247 0.759 . S
C737 C514 0.772 . S
C735 C253 0.768 . S
C746 C175 0.758 . S
C748 C598 0.752 . S
C757 C67 0.767 . S
C759 C358 0.764 . S
C770 C430 0.758 . S
C768 C103 0.739 . S
C781 C526 0.778 . S
C779 C109 0.782 . S
C790 C31 0.745 . S
C792 C610 0.754 . S
C801 C181 2.916 . S
C803 C343 3.279 . S
C812 C217 2.914 . S
C814 C428 3.368 . S
C825 C511 3.300 . S
C823 C283 2.849 . S
C836 C595 3.295 . S
C834 C145 2.930 . S
C845 C37 2.903 . S
C847 C355 3.279 . S
C858 C440 3.369 . S
C856 C73 2.898 . S
C869 C523 3.303 . S
C867 C139 2.859 . S
C878 C1 2.922 . S
C880 C607 3.293 . S
