# Generated by pormake.
# Topology pyr, (3,6)-cn, num edge types: 1
# Building blocks:
#     Node 0, Type 0, BuildingBlock: CUQRIR_clean_linker_1, # of connection points: 3
#     Node 1, Type 0, BuildingBlock: CUQRIR_clean_linker_1, # of connection points: 3
#     Node 2, Type 0, BuildingBlock: CUQRIR_clean_linker_1, # of connection points: 3
#     Node 3, Type 0, BuildingBlock: CUQRIR_clean_linker_1, # of connection points: 3
#     Node 4, Type 0, BuildingBlock: CUQRIR_clean_linker_1, # of connection points: 3
#     Node 5, Type 0, BuildingBlock: CUQRIR_clean_linker_1, # of connection points: 3
#     Node 6, Type 0, BuildingBlock: CUQRIR_clean_linker_1, # of connection points: 3
#     Node 7, Type 0, BuildingBlock: CUQRIR_clean_linker_1, # of connection points: 3
#     Node 8, Type 1, BuildingBlock: MIDCAF_clean_sbu_0, # of connection points: 6
#     Node 9, Type 1, BuildingBlock: MIDCAF_clean_sbu_0, # of connection points: 6
#     Node 10, Type 1, BuildingBlock: MIDCAF_clean_sbu_0, # of connection points: 6
#     Node 11, Type 1, BuildingBlock: MIDCAF_clean_sbu_0, # of connection points: 6
#     Edge 12, Type (0, 1), BuildingBlock: TEMPAE_clean_linker_10, # of connection points: 2
#     Edge 13, Type (0, 1), BuildingBlock: TEMPAE_clean_linker_10, # of connection points: 2
#     Edge 14, Type (0, 1), BuildingBlock: TEMPAE_clean_linker_10, # of connection points: 2
#     Edge 15, Type (0, 1), BuildingBlock: TEMPAE_clean_linker_10, # of connection points: 2
#     Edge 16, Type (0, 1), BuildingBlock: TEMPAE_clean_linker_10, # of connection points: 2
#     Edge 17, Type (0, 1), BuildingBlock: TEMPAE_clean_linker_10, # of connection points: 2
#     Edge 18, Type (0, 1), BuildingBlock: TEMPAE_clean_linker_10, # of connection points: 2
#     Edge 19, Type (0, 1), BuildingBlock: TEMPAE_clean_linker_10, # of connection points: 2
#     Edge 20, Type (0, 1), BuildingBlock: TEMPAE_clean_linker_10, # of connection points: 2
#     Edge 21, Type (0, 1), BuildingBlock: TEMPAE_clean_linker_10, # of connection points: 2
#     Edge 22, Type (0, 1), BuildingBlock: TEMPAE_clean_linker_10, # of connection points: 2
#     Edge 23, Type (0, 1), BuildingBlock: TEMPAE_clean_linker_10, # of connection points: 2
#     Edge 24, Type (0, 1), BuildingBlock: TEMPAE_clean_linker_10, # of connection points: 2
#     Edge 25, Type (0, 1), BuildingBlock: TEMPAE_clean_linker_10, # of connection points: 2
#     Edge 26, Type (0, 1), BuildingBlock: TEMPAE_clean_linker_10, # of connection points: 2
#     Edge 27, Type (0, 1), BuildingBlock: TEMPAE_clean_linker_10, # of connection points: 2
#     Edge 28, Type (0, 1), BuildingBlock: TEMPAE_clean_linker_10, # of connection points: 2
#     Edge 29, Type (0, 1), BuildingBlock: TEMPAE_clean_linker_10, # of connection points: 2
#     Edge 30, Type (0, 1), BuildingBlock: TEMPAE_clean_linker_10, # of connection points: 2
#     Edge 31, Type (0, 1), BuildingBlock: TEMPAE_clean_linker_10, # of connection points: 2
#     Edge 32, Type (0, 1), BuildingBlock: TEMPAE_clean_linker_10, # of connection points: 2
#     Edge 33, Type (0, 1), BuildingBlock: TEMPAE_clean_linker_10, # of connection points: 2
#     Edge 34, Type (0, 1), BuildingBlock: TEMPAE_clean_linker_10, # of connection points: 2
#     Edge 35, Type (0, 1), BuildingBlock: TEMPAE_clean_linker_10, # of connection points: 2
# Relax obj value: 0.103
# Max RMSD: 0.208
# Mean RMSD: 0.152
data_MOF--net-pry--node1-MIDCAF_clean_sbu_0--node2-CUQRIR_clean_linker_1--edge1-TEMPAE_clean_linker_10
_symmetry_space_group_name_H-M    P1
_symmetry_Int_Tables_number       1
_symmetry_cell_setting            triclinic
loop_
_symmetry_equiv_pos_as_xyz
'x, y, z'
_cell_length_a     33.215656
_cell_length_b     33.163227
_cell_length_c     32.560965
_cell_angle_alpha  88.209683
_cell_angle_beta   91.913027
_cell_angle_gamma 93.727402
loop_
_atom_site_label
_atom_site_type_symbol
_atom_site_fract_x
_atom_site_fract_y
_atom_site_fract_z
_atom_type_partial_charge
C0 C 0.20827 0.2785 0.26629 0.0
N1 N 0.23177 0.24689 0.27302 0.0
N2 N 0.21393 0.2955 0.22841 0.0
C3 C 0.17732 0.29062 0.29553 0.0
C4 C 0.24159 0.27285 0.21212 0.0
N5 N 0.25214 0.24295 0.23903 0.0
C6 C 0.25681 0.27879 0.16925 0.0
H7 H 0.15314 0.26603 0.2981 0.0
H8 H 0.16377 0.31908 0.28532 0.0
H9 H 0.19145 0.29478 0.32657 0.0
H10 H 0.2548 0.31054 0.15806 0.0
H11 H 0.23798 0.259 0.14836 0.0
H12 H 0.28854 0.27036 0.16808 0.0
C13 C 0.2731 0.78416 0.7347 0.0
N14 N 0.27151 0.81515 0.76066 0.0
N15 N 0.30417 0.76113 0.74536 0.0
C16 C 0.24663 0.77889 0.69659 0.0
C17 C 0.32167 0.77946 0.77871 0.0
N18 N 0.30178 0.81223 0.7882 0.0
C19 C 0.35969 0.76698 0.80055 0.0
H20 H 0.21458 0.78138 0.70415 0.0
H21 H 0.24997 0.74938 0.68241 0.0
H22 H 0.2548 0.80352 0.67396 0.0
H23 H 0.38285 0.79265 0.79976 0.0
H24 H 0.37167 0.74029 0.78664 0.0
H25 H 0.35349 0.75961 0.83329 0.0
C26 C 0.69681 0.27841 0.78833 0.0
N27 N 0.71844 0.27681 0.82419 0.0
N28 N 0.71139 0.30915 0.76369 0.0
C29 C 0.65784 0.25395 0.77993 0.0
C30 C 0.74268 0.3263 0.78607 0.0
N31 N 0.74704 0.30666 0.82283 0.0
C32 C 0.76435 0.36619 0.77497 0.0
H33 H 0.65008 0.25388 0.74651 0.0
H34 H 0.63328 0.2674 0.7961 0.0
H35 H 0.65996 0.22242 0.79184 0.0
H36 H 0.74991 0.39062 0.79043 0.0
H37 H 0.76275 0.37229 0.74127 0.0
H38 H 0.79641 0.36662 0.78575 0.0
C39 C 0.76119 0.75458 0.2682 0.0
N40 N 0.79814 0.77448 0.26597 0.0
N41 N 0.74288 0.76321 0.30329 0.0
C42 C 0.74405 0.72494 0.2371 0.0
C43 C 0.7702 0.78903 0.32237 0.0
N44 N 0.80367 0.79567 0.29992 0.0
C45 C 0.76541 0.80529 0.36457 0.0
H46 H 0.71147 0.71715 0.24149 0.0
H47 H 0.76081 0.69706 0.23987 0.0
H48 H 0.74786 0.73774 0.20552 0.0
H49 H 0.75254 0.78114 0.38555 0.0
H50 H 0.74417 0.82978 0.36224 0.0
H51 H 0.79433 0.8179 0.37827 0.0
C52 C 0.86555 0.93137 0.94659 0.0
N53 N 0.8941 0.91454 0.92502 0.0
N54 N 0.84811 0.96081 0.92385 0.0
C55 C 0.85338 0.91763 0.98929 0.0
C56 C 0.86696 0.96132 0.88761 0.0
N57 N 0.89457 0.93281 0.88802 0.0
C58 C 0.85739 0.98877 0.85134 0.0
H59 H 0.84644 0.88442 0.99032 0.0
H60 H 0.82718 0.93296 0.99992 0.0
H61 H 0.8788 0.92451 0.01139 0.0
H62 H 0.84367 0.01642 0.86079 0.0
H63 H 0.83553 0.97245 0.83025 0.0
H64 H 0.88508 0.9977 0.8343 0.0
C65 C 0.69704 0.17784 0.44275 0.0
N66 N 0.69312 0.14474 0.41883 0.0
N67 N 0.66293 0.19793 0.44074 0.0
C68 C 0.73348 0.19018 0.46925 0.0
C69 C 0.63772 0.17597 0.41547 0.0
N70 N 0.6556 0.14314 0.40271 0.0
C71 C 0.59604 0.18765 0.40187 0.0
H72 H 0.72487 0.2077 0.49569 0.0
H73 H 0.75482 0.20976 0.45077 0.0
H74 H 0.74901 0.16331 0.48096 0.0
H75 H 0.59022 0.18142 0.36883 0.0
H76 H 0.59163 0.21991 0.40687 0.0
H77 H 0.5733 0.1694 0.41991 0.0
C78 C 0.3957 0.59252 0.13518 0.0
N79 N 0.42363 0.62404 0.14047 0.0
N80 N 0.36552 0.60324 0.10893 0.0
C81 C 0.39734 0.55139 0.15611 0.0
C82 C 0.37551 0.64228 0.09868 0.0
N83 N 0.41052 0.65496 0.11774 0.0
C84 C 0.34988 0.66893 0.07172 0.0
H85 H 0.42334 0.53603 0.14496 0.0
H86 H 0.37005 0.53143 0.1495 0.0
H87 H 0.40138 0.55456 0.18979 0.0
H88 H 0.3173 0.66127 0.07636 0.0
H89 H 0.35622 0.66414 0.03905 0.0
H90 H 0.35661 0.70138 0.07804 0.0
C91 C 0.09146 0.37416 0.67724 0.0
N92 N 0.1254 0.37386 0.65526 0.0
N93 N 0.09567 0.40212 0.70686 0.0
C94 C 0.05325 0.34889 0.66737 0.0
C95 C 0.13361 0.41908 0.70167 0.0
N96 N 0.15142 0.40235 0.67004 0.0
C97 C 0.1554 0.44857 0.73032 0.0
H98 H 0.02626 0.36465 0.67542 0.0
H99 H 0.05351 0.31977 0.68507 0.0
H100 H 0.05119 0.34208 0.63418 0.0
H101 H 0.14491 0.44362 0.76218 0.0
H102 H 0.14959 0.47988 0.71989 0.0
H103 H 0.18847 0.44546 0.73033 0.0
Zn104 Zn 0.99101 0.07178 0.57452 0.0
Zn105 Zn 0.07944 0.98014 0.50099 0.0
Zn106 Zn 0.03228 0.02706 0.53668 0.0
C107 C 0.11046 0.05815 0.4832 0.0
C108 C 1.0027 0.96671 0.46344 0.0
O109 O 0.03043 0.00549 0.60372 0.0
O110 O 0.99478 0.05095 0.63105 0.0
C111 C 0.04791 0.12519 0.5421 0.0
O112 O 0.08008 0.06596 0.50478 0.0
O113 O 0.11801 0.02196 0.47763 0.0
O114 O 0.03827 0.95555 0.4625 0.0
O115 O 0.99391 0.9933 0.48935 0.0
O116 O 0.0169 0.12514 0.56332 0.0
O117 O 0.05925 0.09142 0.52911 0.0
O118 O 0.96901 0.02087 0.50734 0.0
O119 O 0.93871 0.06144 0.54691 0.0
C120 C 0.93689 0.03794 0.51716 0.0
O121 O 0.0613 0.98647 0.58469 0.0
O122 O 0.09857 0.94818 0.54903 0.0
C123 C 0.01365 0.01927 0.63526 0.0
C124 C 0.08657 0.95848 0.58331 0.0
Zn125 Zn 0.45972 0.07703 0.01662 0.0
Zn126 Zn 0.55648 0.99421 0.09425 0.0
Zn127 Zn 0.50733 0.03066 0.06028 0.0
C128 C 0.60595 0.0397 0.05195 0.0
C129 C 0.51427 0.93584 0.05338 0.0
O130 O 0.47617 0.06537 0.10668 0.0
O131 O 0.43949 0.1035 0.0651 0.0
C132 C 0.53613 0.1002 0.99165 0.0
O133 O 0.57017 0.04471 0.03655 0.0
O134 O 0.6096 0.02226 0.08663 0.0
O135 O 0.54997 0.94315 0.06651 0.0
O136 O 0.49054 0.96515 0.04951 0.0
O137 O 0.50028 0.10837 0.98254 0.0
O138 O 0.54322 0.07236 0.01897 0.0
O139 O 0.46384 0.98936 0.02415 0.0
O140 O 0.42564 0.0326 0.99074 0.0
C141 C 0.43448 0.99661 0.99847 0.0
O142 O 0.50662 0.04295 0.1283 0.0
O143 O 0.53885 0.9904 0.15053 0.0
C144 C 0.45056 0.09288 0.10113 0.0
C145 C 0.52059 0.02115 0.15846 0.0
Zn146 Zn 0.53926 0.57262 0.56719 0.0
Zn147 Zn 0.45533 0.4809 0.46741 0.0
Zn148 Zn 0.49646 0.52889 0.5145 0.0
C149 C 0.51713 0.43626 0.49577 0.0
C150 C 0.48362 0.54466 0.41681 0.0
O151 O 0.45355 0.55326 0.55805 0.0
O152 O 0.49449 0.58986 0.59937 0.0
C153 C 0.56737 0.4975 0.5781 0.0
O154 O 0.52454 0.46923 0.51554 0.0
O155 O 0.48689 0.43283 0.4714 0.0
O156 O 0.4597 0.51355 0.41667 0.0
O157 O 0.50203 0.55577 0.45054 0.0
O158 O 0.57352 0.53213 0.59285 0.0
O159 O 0.54085 0.49147 0.54865 0.0
O160 O 0.52657 0.58001 0.4781 0.0
O161 O 0.56439 0.6107 0.52648 0.0
C162 C 0.55333 0.60792 0.48916 0.0
O163 O 0.43246 0.52209 0.53603 0.0
O164 O 0.40332 0.47743 0.49373 0.0
C165 C 0.45922 0.57693 0.58879 0.0
C166 C 0.40125 0.49951 0.52428 0.0
Zn167 Zn 0.02574 0.57728 0.96864 0.0
Zn168 Zn 0.94545 0.51047 0.09319 0.0
Zn169 Zn 0.98632 0.54735 0.03042 0.0
C170 C 0.0265 0.4958 0.10782 0.0
C171 C 0.91661 0.47463 0.01977 0.0
O172 O 0.97449 0.61361 0.0246 0.0
O173 O 0.01201 0.63301 0.97185 0.0
C174 C 0.08275 0.54952 0.02406 0.0
O175 O 0.02908 0.51714 0.07404 0.0
O176 O 0.99284 0.48932 0.12458 0.0
O177 O 0.91157 0.47197 0.05809 0.0
O178 O 0.94303 0.50077 0.0048 0.0
O179 O 0.08062 0.56542 0.98847 0.0
O180 O 0.05068 0.54094 0.04453 0.0
O181 O 0.97012 0.51309 0.97334 0.0
O182 O 1.00203 0.54614 0.92285 0.0
C183 C 0.97895 0.51691 0.93506 0.0
O184 O 0.95452 0.59605 0.05955 0.0
O185 O 0.92286 0.56161 0.10963 0.0
C186 C 0.98836 0.64155 0.99929 0.0
C187 C 0.93133 0.59481 0.0907 0.0
C188 C 0.20443 0.18072 0.29807 0.0
C189 C 0.22642 0.21718 0.30583 0.0
C190 C 0.18938 0.15585 0.3305 0.0
C191 C 0.1968 0.16776 0.37168 0.0
C192 C 0.22125 0.20343 0.37965 0.0
C193 C 0.23567 0.22781 0.34651 0.0
C194 C 0.16353 0.11806 0.32056 0.0
C195 C 0.23032 0.21695 0.42301 0.0
C196 C 0.11735 0.12523 0.44561 0.0
C197 C 0.13494 0.09048 0.46133 0.0
C198 C 0.1381 0.152 0.41807 0.0
C199 C 0.17728 0.14369 0.40593 0.0
C200 C 0.19612 0.11008 0.42387 0.0
C201 C 0.17466 0.0838 0.45115 0.0
C202 C 0.11702 0.18772 0.39996 0.0
C203 C 0.23809 0.10056 0.41248 0.0
H204 H 0.19681 0.17313 0.2665 0.0
H205 H 0.2524 0.25635 0.35219 0.0
H206 H 0.17525 0.09153 0.3375 0.0
H207 H 0.13231 0.12116 0.33063 0.0
H208 H 0.16235 0.11201 0.28716 0.0
H209 H 0.25336 0.24275 0.42416 0.0
H210 H 0.20231 0.22636 0.43655 0.0
H211 H 0.24117 0.19164 0.44258 0.0
H212 H 0.08652 0.13027 0.4529 0.0
H213 H 0.18849 0.05705 0.46339 0.0
H214 H 0.1097 0.18282 0.36691 0.0
H215 H 0.13706 0.21572 0.40195 0.0
H216 H 0.08861 0.19241 0.41572 0.0
H217 H 0.23749 0.09041 0.38031 0.0
H218 H 0.25031 0.07642 0.43279 0.0
H219 H 0.25899 0.12799 0.41418 0.0
C220 C 0.31149 0.82644 0.86167 0.0
C221 C 0.31351 0.83982 0.82051 0.0
C222 C 0.32941 0.84978 0.89359 0.0
C223 C 0.35031 0.88736 0.88405 0.0
C224 C 0.35147 0.90142 0.84242 0.0
C225 C 0.33309 0.87743 0.81118 0.0
C226 C 0.32733 0.83332 0.93725 0.0
C227 C 0.37331 0.94124 0.83073 0.0
C228 C 0.37098 0.96776 0.96458 0.0
C229 C 0.41205 0.96427 0.97472 0.0
C230 C 0.35023 0.942 0.9364 0.0
C231 C 0.37104 0.91206 0.91735 0.0
C232 C 0.41215 0.90731 0.92868 0.0
C233 C 0.43225 0.93367 0.95697 0.0
C234 C 0.30631 0.94775 0.92595 0.0
C235 C 0.43539 0.87544 0.90967 0.0
H236 H 0.29694 0.79693 0.86863 0.0
H237 H 0.33556 0.88717 0.77926 0.0
H238 H 0.35717 0.8226 0.94717 0.0
H239 H 0.32012 0.85716 0.95849 0.0
H240 H 0.30443 0.80755 0.94031 0.0
H241 H 0.3706 0.94836 0.79722 0.0
H242 H 0.36111 0.96607 0.84761 0.0
H243 H 0.40579 0.94043 0.83966 0.0
H244 H 0.35525 0.99156 0.97797 0.0
H245 H 0.46418 0.9314 0.96391 0.0
H246 H 0.28817 0.91869 0.93007 0.0
H247 H 0.30279 0.95751 0.89319 0.0
H248 H 0.29379 0.97067 0.94526 0.0
H249 H 0.41908 0.84534 0.91333 0.0
H250 H 0.46625 0.87385 0.92364 0.0
H251 H 0.43789 0.8821 0.87621 0.0
C252 C 0.65852 0.35429 0.74371 0.0
C253 C 0.68853 0.32962 0.73233 0.0
C254 C 0.63791 0.37738 0.71419 0.0
C255 C 0.6476 0.37548 0.67229 0.0
C256 C 0.67679 0.34907 0.66053 0.0
C257 C 0.69728 0.32659 0.69094 0.0
C258 C 0.60693 0.40499 0.72805 0.0
C259 C 0.68723 0.34552 0.61616 0.0
C260 C 0.57156 0.42511 0.60099 0.0
C261 C 0.58991 0.46416 0.59645 0.0
C262 C 0.5913 0.39468 0.62302 0.0
C263 C 0.62971 0.40404 0.64185 0.0
C264 C 0.64901 0.44298 0.63575 0.0
C265 C 0.62887 0.47252 0.61307 0.0
C266 C 0.56963 0.35352 0.62813 0.0
C267 C 0.68986 0.4543 0.6554 0.0
H268 H 0.65217 0.35624 0.776 0.0
H269 H 0.72058 0.30722 0.68262 0.0
H270 H 0.61691 0.43691 0.72066 0.0
H271 H 0.5777 0.39839 0.71137 0.0
H272 H 0.602 0.4018 0.76161 0.0
H273 H 0.70386 0.31816 0.61122 0.0
H274 H 0.65948 0.34442 0.59629 0.0
H275 H 0.70639 0.37251 0.60634 0.0
H276 H 0.54117 0.4187 0.58871 0.0
H277 H 0.64314 0.50272 0.60947 0.0
H278 H 0.5501 0.35346 0.65513 0.0
H279 H 0.59092 0.3293 0.63325 0.0
H280 H 0.54993 0.34637 0.60071 0.0
H281 H 0.68746 0.45387 0.68933 0.0
H282 H 0.70199 0.48484 0.64514 0.0
H283 H 0.71181 0.43197 0.64804 0.0
C284 C 0.82356 0.77411 0.19577 0.0
C285 C 0.8288 0.76537 0.23792 0.0
C286 C 0.8454 0.75474 0.16663 0.0
C287 C 0.87305 0.72595 0.18011 0.0
C288 C 0.88153 0.72058 0.22286 0.0
C289 C 0.8591 0.7402 0.25124 0.0
C290 C 0.83618 0.76226 0.12148 0.0
C291 C 0.91133 0.69093 0.23876 0.0
C292 C 0.87646 0.62776 0.1241 0.0
C293 C 0.91451 0.63153 0.10651 0.0
C294 C 0.86199 0.65915 0.14616 0.0
C295 C 0.88618 0.69558 0.15104 0.0
C296 C 0.92362 0.70069 0.13108 0.0
C297 C 0.93755 0.66839 0.10932 0.0
C298 C 0.82157 0.65234 0.16611 0.0
C299 C 0.95014 0.73915 0.13454 0.0
H300 H 0.80011 0.79372 0.18561 0.0
H301 H 0.86281 0.73316 0.2838 0.0
H302 H 0.86455 0.76642 0.10437 0.0
H303 H 0.81856 0.73561 0.10887 0.0
H304 H 0.81849 0.78931 0.11586 0.0
H305 H 0.91911 0.69478 0.27192 0.0
H306 H 0.89815 0.65965 0.23459 0.0
H307 H 0.93945 0.69449 0.22118 0.0
H308 H 0.85842 0.59941 0.12185 0.0
H309 H 0.96721 0.67136 0.09623 0.0
H310 H 0.80215 0.67748 0.15767 0.0
H311 H 0.82597 0.65173 0.20006 0.0
H312 H 0.80532 0.62347 0.15706 0.0
H313 H 0.93201 0.76603 0.13529 0.0
H314 H 0.97105 0.74312 0.10856 0.0
H315 H 0.96852 0.73779 0.16357 0.0
C316 C 0.27324 0.18676 0.19881 0.0
C317 C 0.28007 0.21245 0.23195 0.0
C318 C 0.3036 0.16284 0.18588 0.0
C319 C 0.34198 0.16479 0.20648 0.0
C320 C 0.34785 0.18834 0.24209 0.0
C321 C 0.31673 0.21189 0.25444 0.0
C322 C 0.29552 0.13789 0.14815 0.0
C323 C 0.38795 0.19114 0.26529 0.0
C324 C 0.41413 0.08974 0.16798 0.0
C325 C 0.43183 0.11246 0.13549 0.0
C326 C 0.38664 0.10697 0.19356 0.0
C327 C 0.37701 0.14779 0.1865 0.0
C328 C 0.3978 0.17156 0.15607 0.0
C329 C 0.42465 0.15359 0.13096 0.0
C330 C 0.36569 0.08061 0.22593 0.0
C331 C 0.38932 0.21532 0.14769 0.0
H332 H 0.24467 0.18701 0.18176 0.0
H333 H 0.3219 0.23185 0.28007 0.0
H334 H 0.31281 0.15192 0.12223 0.0
H335 H 0.30575 0.10696 0.15372 0.0
H336 H 0.263 0.13562 0.13879 0.0
H337 H 0.38541 0.20391 0.29617 0.0
H338 H 0.40048 0.16099 0.2689 0.0
H339 H 0.40977 0.21103 0.24768 0.0
H340 H 0.41934 0.05786 0.17147 0.0
H341 H 0.43845 0.17133 0.10599 0.0
H342 H 0.33485 0.07099 0.21438 0.0
H343 H 0.36258 0.09747 0.25443 0.0
H344 H 0.38213 0.05309 0.23354 0.0
H345 H 0.35831 0.21713 0.13425 0.0
H346 H 0.41088 0.23067 0.12599 0.0
H347 H 0.39092 0.23208 0.1767 0.0
C348 C 0.25612 0.87956 0.72721 0.0
C349 C 0.24516 0.84778 0.75466 0.0
C350 C 0.22679 0.90294 0.70779 0.0
C351 C 0.1854 0.89405 0.71586 0.0
C352 C 0.17476 0.86497 0.74712 0.0
C353 C 0.20482 0.84192 0.76593 0.0
C354 C 0.23977 0.93389 0.67511 0.0
C355 C 0.13124 0.85519 0.75759 0.0
C356 C 0.11267 0.96154 0.65697 0.0
C357 C 0.10479 0.93972 0.62102 0.0
C358 C 0.1367 0.94607 0.68965 0.0
C359 C 0.15394 0.90838 0.68578 0.0
C360 C 0.14403 0.88537 0.65048 0.0
C361 C 0.11959 0.90123 0.6188 0.0
C362 C 0.14538 0.97119 0.72709 0.0
C363 C 0.16119 0.84485 0.64493 0.0
H364 H 0.28718 0.88339 0.71786 0.0
H365 H 0.19634 0.81683 0.78667 0.0
H366 H 0.23179 0.92172 0.64431 0.0
H367 H 0.2238 0.96196 0.67797 0.0
H368 H 0.27283 0.94158 0.67686 0.0
H369 H 0.12862 0.83896 0.78785 0.0
H370 H 0.11455 0.88309 0.75809 0.0
H371 H 0.11645 0.83559 0.73375 0.0
H372 H 0.10178 0.99151 0.65881 0.0
H373 H 0.11343 0.88404 0.59125 0.0
H374 H 0.17516 0.98804 0.72416 0.0
H375 H 0.14669 0.95188 0.75549 0.0
H376 H 0.12219 0.99346 0.73038 0.0
H377 H 0.19451 0.84889 0.64289 0.0
H378 H 0.14888 0.82986 0.61673 0.0
H379 H 0.15454 0.82442 0.6718 0.0
C380 C 0.75329 0.34742 0.88435 0.0
C381 C 0.77064 0.32225 0.85721 0.0
C382 C 0.7772 0.36945 0.9132 0.0
C383 C 0.81963 0.36682 0.91416 0.0
C384 C 0.83718 0.34047 0.88744 0.0
C385 C 0.81232 0.3184 0.85923 0.0
C386 C 0.7573 0.39738 0.94089 0.0
C387 C 0.88229 0.3372 0.88719 0.0
C388 C 0.88262 0.45882 0.95193 0.0
C389 C 0.89255 0.44683 0.99243 0.0
C390 C 0.85923 0.43288 0.92601 0.0
C391 C 0.84565 0.39393 0.94094 0.0
C392 C 0.85578 0.38159 0.98177 0.0
C393 C 0.87891 0.4083 0.00712 0.0
C394 C 0.84875 0.44727 0.88273 0.0
C395 C 0.84189 0.34031 0.99872 0.0
H396 H 0.72126 0.35157 0.88136 0.0
H397 H 0.82551 0.29961 0.8373 0.0
H398 H 0.76745 0.39227 0.97333 0.0
H399 H 0.76629 0.42924 0.93221 0.0
H400 H 0.72384 0.39319 0.93885 0.0
H401 H 0.89081 0.31281 0.86716 0.0
H402 H 0.89706 0.36626 0.87596 0.0
H403 H 0.89439 0.33128 0.91882 0.0
H404 H 0.8923 0.48889 0.94079 0.0
H405 H 0.8866 0.39888 0.03843 0.0
H406 H 0.81568 0.44363 0.87662 0.0
H407 H 0.86323 0.42858 0.86047 0.0
H408 H 0.85878 0.47947 0.87693 0.0
H409 H 0.80842 0.33704 0.99816 0.0
H410 H 0.85325 0.33491 0.03077 0.0
H411 H 0.85235 0.31653 0.97914 0.0
C412 C 0.67906 0.76509 0.33973 0.0
C413 C 0.70772 0.74287 0.32143 0.0
C414 C 0.64945 0.74603 0.36485 0.0
C415 C 0.64706 0.70327 0.36993 0.0
C416 C 0.67406 0.68052 0.34854 0.0
C417 C 0.70443 0.70067 0.32533 0.0
C418 C 0.62248 0.77251 0.38704 0.0
C419 C 0.67334 0.63491 0.35147 0.0
C420 C 0.61617 0.64575 0.46725 0.0
C421 C 0.57537 0.63444 0.45887 0.0
C422 C 0.63898 0.66994 0.43948 0.0
C423 C 0.62093 0.6826 0.40167 0.0
C424 C 0.57904 0.67344 0.39407 0.0
C425 C 0.5567 0.64933 0.42285 0.0
C426 C 0.68268 0.6814 0.45059 0.0
C427 C 0.55745 0.68985 0.35635 0.0
H428 H 0.68116 0.79774 0.33611 0.0
H429 H 0.72684 0.68331 0.31178 0.0
H430 H 0.59807 0.78188 0.36541 0.0
H431 H 0.60856 0.75728 0.41436 0.0
H432 H 0.6397 0.80054 0.39707 0.0
H433 H 0.67141 0.62269 0.32004 0.0
H434 H 0.70219 0.62563 0.36592 0.0
H435 H 0.64808 0.62064 0.36924 0.0
H436 H 0.6307 0.63504 0.49548 0.0
H437 H 0.52468 0.64242 0.41739 0.0
H438 H 0.69073 0.71341 0.44157 0.0
H439 H 0.70234 0.66212 0.43391 0.0
H440 H 0.68936 0.67715 0.48406 0.0
H441 H 0.55139 0.72182 0.36111 0.0
H442 H 0.52793 0.67304 0.35059 0.0
H443 H 0.57604 0.68902 0.32874 0.0
C444 C 0.14949 0.31715 0.19876 0.0
C445 C 0.19054 0.32573 0.20796 0.0
C446 C 0.12539 0.34701 0.18151 0.0
C447 C 0.14284 0.38648 0.17324 0.0
C448 C 0.18462 0.39495 0.18186 0.0
C449 C 0.20796 0.36446 0.19929 0.0
C450 C 0.08108 0.33648 0.17283 0.0
C451 C 0.20449 0.43646 0.17389 0.0
C452 C 0.08317 0.4517 0.09777 0.0
C453 C 0.06111 0.47362 0.1243 0.0
C454 C 0.1109 0.42422 0.11322 0.0
C455 C 0.11699 0.41879 0.15627 0.0
C456 C 0.09608 0.44231 0.18313 0.0
C457 C 0.06801 0.46903 0.16684 0.0
C458 C 0.13197 0.39931 0.08354 0.0
C459 C 0.10203 0.43793 0.22917 0.0
H460 H 0.13627 0.28708 0.20573 0.0
H461 H 0.23968 0.37096 0.20691 0.0
H462 H 0.0627 0.35535 0.19147 0.0
H463 H 0.0733 0.34315 0.14003 0.0
H464 H 0.07248 0.30414 0.17992 0.0
H465 H 0.19641 0.45679 0.19833 0.0
H466 H 0.23791 0.43607 0.17378 0.0
H467 H 0.1936 0.44941 0.1441 0.0
H468 H 0.07685 0.45413 0.06495 0.0
H469 H 0.05062 0.48562 0.18742 0.0
H470 H 0.12085 0.36714 0.08694 0.0
H471 H 0.16493 0.40085 0.09063 0.0
H472 H 0.12666 0.40939 0.05107 0.0
H473 H 0.091 0.40714 0.23964 0.0
H474 H 0.08575 0.46038 0.24573 0.0
H475 H 0.13462 0.44162 0.23783 0.0
C476 C 0.71468 0.21275 0.86347 0.0
C477 C 0.70607 0.25341 0.85991 0.0
C478 C 0.693 0.18593 0.89009 0.0
C479 C 0.66206 0.20042 0.91352 0.0
C480 C 0.65597 0.24232 0.91264 0.0
C481 C 0.6777 0.26823 0.88532 0.0
C482 C 0.70054 0.14163 0.88983 0.0
C483 C 0.62379 0.25925 0.93752 0.0
C484 C 0.56556 0.13525 0.92984 0.0
C485 C 0.56971 0.12338 0.97129 0.0
C486 C 0.59621 0.159 0.91038 0.0
C487 C 0.63169 0.17163 0.93313 0.0
C488 C 0.63645 0.15892 0.97481 0.0
C489 C 0.60517 0.13519 0.99353 0.0
C490 C 0.59018 0.17135 0.86565 0.0
C491 C 0.67401 0.17124 0.99986 0.0
H492 H 0.73609 0.20141 0.84296 0.0
H493 H 0.67017 0.29941 0.88136 0.0
H494 H 0.69649 0.12715 0.92068 0.0
H495 H 0.67849 0.12633 0.86816 0.0
H496 H 0.73139 0.13678 0.87962 0.0
H497 H 0.62721 0.29276 0.93842 0.0
H498 H 0.59361 0.25048 0.92371 0.0
H499 H 0.62472 0.24667 0.96949 0.0
H500 H 0.53816 0.12605 0.91264 0.0
H501 H 0.60806 0.12669 0.02584 0.0
H502 H 0.61597 0.16269 0.84777 0.0
H503 H 0.58914 0.20469 0.86255 0.0
H504 H 0.56187 0.15724 0.85182 0.0
H505 H 0.70131 0.16382 0.98363 0.0
H506 H 0.67446 0.15608 0.03078 0.0
H507 H 0.67587 0.20445 1.00368 0.0
C508 C 0.8391 0.86252 0.30285 0.0
C509 C 0.83863 0.82097 0.31171 0.0
C510 C 0.86601 0.88982 0.3238 0.0
C511 C 0.89262 0.87506 0.35488 0.0
C512 C 0.89358 0.83274 0.36231 0.0
C513 C 0.86652 0.80623 0.3406 0.0
C514 C 0.86362 0.93442 0.31434 0.0
C515 C 0.92155 0.81556 0.3949 0.0
C516 C 0.98494 0.93655 0.39566 0.0
C517 C 0.97233 0.94828 0.43401 0.0
C518 C 0.95874 0.91442 0.36879 0.0
C519 C 0.91885 0.90338 0.38054 0.0
C520 C 0.90523 0.9169 0.41831 0.0
C521 C 0.93227 0.93894 0.44481 0.0
C522 C 0.9741 0.90178 0.32832 0.0
C523 C 0.86247 0.90695 0.43129 0.0
H524 H 0.81659 0.87377 0.2813 0.0
H525 H 0.86507 0.77414 0.34822 0.0
H526 H 0.84131 0.94642 0.33462 0.0
H527 H 0.89307 0.95152 0.31959 0.0
H528 H 0.85315 0.93999 0.28202 0.0
H529 H 0.91992 0.78198 0.39553 0.0
H530 H 0.95317 0.82684 0.38956 0.0
H531 H 0.91357 0.82579 0.42555 0.0
H532 H 0.01583 0.944 0.38695 0.0
H533 H 0.92249 0.94757 0.47454 0.0
H534 H 0.95351 0.9111 0.30271 0.0
H535 H 0.97456 0.86836 0.32812 0.0
H536 H 0.005 0.91511 0.32245 0.0
H537 H 0.84095 0.91708 0.4069 0.0
H538 H 0.85595 0.92147 0.46042 0.0
H539 H 0.85705 0.87371 0.43544 0.0
C540 C 0.35421 0.73987 0.69806 0.0
C541 C 0.32011 0.73046 0.72133 0.0
C542 C 0.3707 0.71042 0.67479 0.0
C543 C 0.35272 0.6704 0.67504 0.0
C544 C 0.31753 0.66104 0.69785 0.0
C545 C 0.30155 0.69133 0.72071 0.0
C546 C 0.40805 0.72192 0.6508 0.0
C547 C 0.29754 0.61885 0.69908 0.0
C548 C 0.39179 0.60667 0.59132 0.0
C549 C 0.4255 0.59129 0.6118 0.0
C550 C 0.36565 0.63029 0.6122 0.0
C551 C 0.37335 0.6381 0.65447 0.0
C552 C 0.40502 0.61905 0.67592 0.0
C553 C 0.43084 0.59622 0.65427 0.0
C554 C 0.33204 0.64965 0.58821 0.0
C555 C 0.41386 0.62557 0.72112 0.0
H556 H 0.36807 0.77037 0.69847 0.0
H557 H 0.27494 0.68445 0.73864 0.0
H558 H 0.43372 0.70531 0.66378 0.0
H559 H 0.40318 0.71321 0.6183 0.0
H560 H 0.41661 0.75485 0.65149 0.0
H561 H 0.26841 0.61737 0.71502 0.0
H562 H 0.29205 0.60775 0.66746 0.0
H563 H 0.31787 0.59794 0.71534 0.0
H564 H 0.38765 0.60294 0.55845 0.0
H565 H 0.45672 0.58396 0.67024 0.0
H566 H 0.34103 0.68203 0.58197 0.0
H567 H 0.30412 0.64829 0.60609 0.0
H568 H 0.32528 0.63496 0.55834 0.0
H569 H 0.42673 0.65694 0.72543 0.0
H570 H 0.43573 0.60437 0.73437 0.0
H571 H 0.38572 0.62174 0.73861 0.0
C572 C 0.96256 0.93018 0.85996 0.0
C573 C 0.92051 0.92514 0.85476 0.0
C574 C 0.98736 0.93465 0.82557 0.0
C575 C 0.96934 0.93559 0.78547 0.0
C576 C 0.92743 0.9252 0.78044 0.0
C577 C 0.90371 0.91932 0.81523 0.0
C578 C 0.03233 0.94199 0.83223 0.0
C579 C 0.90674 0.92493 0.73845 0.0
C580 C 1.00173 0.01931 0.7101 0.0
C581 C 0.01263 0.99786 0.67613 0.0
C582 C 0.99012 0.99945 0.74678 0.0
C583 C 0.99101 0.95684 0.75063 0.0
C584 C 0.00663 0.93542 0.71825 0.0
C585 C 0.01625 0.95604 0.68088 0.0
C586 C 0.97333 0.02398 0.77987 0.0
C587 C 0.01118 0.89051 0.72176 0.0
H588 H 0.97572 0.93368 0.89065 0.0
H589 H 0.87131 0.9138 0.8115 0.0
H590 H 0.04884 0.9288 0.80732 0.0
H591 H 0.04038 0.97497 0.83207 0.0
H592 H 0.04258 0.92889 0.86231 0.0
H593 H 0.87458 0.91356 0.73966 0.0
H594 H 0.90804 0.9561 0.72486 0.0
H595 H 0.92244 0.90575 0.71768 0.0
H596 H 0.99955 0.05176 0.70711 0.0
H597 H 0.02454 0.93902 0.65494 0.0
H598 H 0.98943 0.01864 0.80969 0.0
H599 H 0.941 0.01452 0.78385 0.0
H600 H 0.97579 0.05696 0.77246 0.0
H601 H 0.01363 0.87958 0.75425 0.0
H602 H 0.0384 0.88255 0.70559 0.0
H603 H 0.98462 0.8744 0.7067 0.0
C604 C 0.59856 0.09722 0.38133 0.0
C605 C 0.63732 0.11472 0.37396 0.0
C606 C 0.57385 0.08102 0.34936 0.0
C607 C 0.58926 0.07997 0.30948 0.0
C608 C 0.62997 0.09382 0.30287 0.0
C609 C 0.65334 0.11175 0.3351 0.0
C610 C 0.53042 0.06788 0.35769 0.0
C611 C 0.64828 0.09131 0.26131 0.0
C612 C 0.54031 0.00828 0.23156 0.0
C613 C 0.52528 0.03516 0.20135 0.0
C614 C 0.56015 0.02231 0.26745 0.0
C615 C 0.56307 0.06418 0.27468 0.0
C616 C 0.54328 0.09096 0.24701 0.0
C617 C 0.52509 0.07622 0.2102 0.0
C618 C 0.58132 0.99265 0.29547 0.0
C619 C 0.54366 0.13555 0.2549 0.0
H620 H 0.58647 0.09934 0.41163 0.0
H621 H 0.68318 0.12553 0.32937 0.0
H622 H 0.51033 0.08861 0.34081 0.0
H623 H 0.52263 0.03709 0.34637 0.0
H624 H 0.52393 0.06815 0.39093 0.0
H625 H 0.68125 0.09954 0.26231 0.0
H626 H 0.64308 0.06024 0.24966 0.0
H627 H 0.63352 0.11206 0.239 0.0
H628 H 0.54 0.97631 0.22538 0.0
H629 H 0.51344 0.09722 0.18729 0.0
H630 H 0.57389 0.9965 0.32798 0.0
H631 H 0.61447 0.99852 0.2932 0.0
H632 H 0.57333 0.96077 0.28738 0.0
H633 H 0.5371 0.14057 0.28749 0.0
H634 H 0.52128 0.15083 0.23477 0.0
H635 H 0.57409 0.14993 0.24899 0.0
C636 C 0.45385 0.65526 0.20298 0.0
C637 C 0.45457 0.62613 0.17287 0.0
C638 C 0.47352 0.65012 0.24136 0.0
C639 C 0.49016 0.61277 0.25157 0.0
C640 C 0.49545 0.58552 0.21973 0.0
C641 C 0.47948 0.59393 0.18005 0.0
C642 C 0.47321 0.68307 0.27228 0.0
C643 C 0.51483 0.54597 0.2277 0.0
C644 C 0.52457 0.57828 0.36001 0.0
C645 C 0.48723 0.56791 0.37759 0.0
C646 C 0.52654 0.59391 0.3192 0.0
C647 C 0.49033 0.59819 0.29546 0.0
C648 C 0.4527 0.58699 0.31339 0.0
C649 C 0.45174 0.57302 0.35425 0.0
C650 C 0.5674 0.60411 0.30151 0.0
C651 C 0.41307 0.58808 0.28917 0.0
H652 H 0.43482 0.68006 0.19855 0.0
H653 H 0.48254 0.57278 0.15587 0.0
H654 H 0.45721 0.67221 0.30026 0.0
H655 H 0.5048 0.69209 0.2818 0.0
H656 H 0.45881 0.71025 0.25946 0.0
H657 H 0.54807 0.55157 0.22681 0.0
H658 H 0.50729 0.53223 0.2582 0.0
H659 H 0.50555 0.5237 0.20383 0.0
H660 H 0.55214 0.57295 0.37754 0.0
H661 H 0.42287 0.56424 0.36762 0.0
H662 H 0.56637 0.62736 0.2763 0.0
H663 H 0.57896 0.57634 0.28942 0.0
H664 H 0.58925 0.61504 0.32574 0.0
H665 H 0.40467 0.61977 0.28479 0.0
H666 H 0.38801 0.57081 0.30501 0.0
H667 H 0.41568 0.5753 0.2584 0.0
C668 C 0.04429 0.3803 0.75817 0.0
C669 C 0.06718 0.41123 0.73747 0.0
C670 C 0.01799 0.38901 0.78923 0.0
C671 C 0.01704 0.42928 0.80229 0.0
C672 C 0.04012 0.4606 0.78136 0.0
C673 C 0.06313 0.4513 0.74803 0.0
C674 C 0.99225 0.35453 0.80804 0.0
C675 C 0.04234 0.50389 0.79504 0.0
C676 C 0.9523 0.48516 0.87076 0.0
C677 C 0.97435 0.48231 0.90798 0.0
C678 C 0.96156 0.46206 0.83728 0.0
C679 C 0.99602 0.43894 0.84021 0.0
C680 C 0.01547 0.4328 0.87913 0.0
C681 C 1.00334 0.45365 0.91293 0.0
C682 C 0.93667 0.46533 0.79789 0.0
C683 C 0.05201 0.40806 0.88427 0.0
H684 H 0.04732 0.3491 0.75075 0.0
H685 H 0.07926 0.47548 0.73109 0.0
H686 H 0.01189 0.33385 0.82561 0.0
H687 H 0.96914 0.36463 0.82858 0.0
H688 H 0.97668 0.33661 0.78326 0.0
H689 H 0.06818 0.52209 0.78155 0.0
H690 H 0.01433 0.51829 0.7851 0.0
H691 H 0.04546 0.50532 0.82902 0.0
H692 H 0.92987 0.50741 0.86689 0.0
H693 H 0.02041 0.45174 0.94185 0.0
H694 H 0.93803 0.43797 0.7793 0.0
H695 H 0.94802 0.49202 0.77935 0.0
H696 H 0.90466 0.46963 0.80448 0.0
H697 H 0.0432 0.37598 0.87806 0.0
H698 H 0.06582 0.40952 0.91578 0.0
H699 H 0.07527 0.41875 0.86202 0.0
C700 C 0.81388 0.02292 0.93669 0.0
C701 C 0.81253 0.98089 0.93322 0.0
C702 C 0.78011 0.04214 0.94946 0.0
C703 C 0.7449 0.01837 0.96067 0.0
C704 C 0.7433 0.97587 0.95604 0.0
C705 C 0.77674 0.95793 0.94124 0.0
C706 C 0.78348 0.08757 0.95217 0.0
C707 C 0.70734 0.94886 0.96925 0.0
C708 C 0.68058 0.0467 0.04711 0.0
C709 C 0.64248 0.04711 0.02729 0.0
C710 C 0.71512 0.04073 0.02512 0.0
C711 C 0.71162 0.03622 0.98203 0.0
C712 C 0.67419 0.04205 0.96125 0.0
C713 C 0.6398 0.04664 0.98422 0.0
C714 C 0.75453 0.03547 0.04857 0.0
C715 C 0.66946 0.04031 0.91511 0.0
H716 H 0.84167 0.04065 0.93036 0.0
H717 H 0.77591 0.92545 0.93801 0.0
H718 H 0.75484 0.10048 0.95994 0.0
H719 H 0.80705 0.0965 0.97572 0.0
H720 H 0.79353 0.10128 0.92237 0.0
H721 H 0.7123 0.91627 0.9664 0.0
H722 H 0.70068 0.9543 1.00173 0.0
H723 H 0.6803 0.95584 0.95017 0.0
H724 H 0.68295 0.04782 0.08036 0.0
H725 H 0.61053 0.04703 0.96853 0.0
H726 H 0.77805 0.05786 0.03706 0.0
H727 H 0.7649 0.00487 0.04365 0.0
H728 H 0.75197 0.03935 0.08213 0.0
H729 H 0.69818 0.04934 0.89982 0.0
H730 H 0.64579 0.06029 0.90339 0.0
H731 H 0.65973 0.00904 0.90636 0.0
C732 C 0.71818 0.07574 0.42083 0.0
C733 C 0.72438 0.11733 0.4124 0.0
C734 C 0.7513 0.05126 0.42643 0.0
C735 C 0.79127 0.06939 0.42603 0.0
C736 C 0.79714 0.1104 0.41262 0.0
C737 C 0.76353 0.13325 0.40446 0.0
C738 C 0.74314 0.00674 0.43575 0.0
C739 C 0.83873 0.13164 0.41112 0.0
C740 C 0.8628 0.04293 0.51411 0.0
C741 C 0.8976 0.03404 0.49373 0.0
C742 C 0.82728 0.05216 0.49249 0.0
C743 C 0.82518 0.04995 0.44905 0.0
C744 C 0.85851 0.03573 0.42868 0.0
C745 C 0.89485 0.02923 0.45109 0.0
C746 C 0.79342 0.06773 0.51627 0.0
C747 C 0.85698 0.02901 0.38312 0.0
H748 H 0.68786 0.06284 0.42577 0.0
H749 H 0.76803 0.165 0.39584 0.0
H750 H 0.77023 0.98942 0.43199 0.0
H751 H 0.73281 1.00212 0.46769 0.0
H752 H 0.71838 0.99433 0.4151 0.0
H753 H 0.8377 0.16446 0.40354 0.0
H754 H 0.85513 0.12809 0.44115 0.0
H755 H 0.85636 0.11805 0.38746 0.0
H756 H 0.86432 0.0459 0.54721 0.0
H757 H 0.92148 0.02261 0.43485 0.0
H758 H 0.76658 0.04616 0.51445 0.0
H759 H 0.78463 0.09724 0.503 0.0
H760 H 0.80178 0.07176 0.54928 0.0
H761 H 0.82556 0.02561 0.3704 0.0
H762 H 0.87277 1.00154 0.37658 0.0
H763 H 0.87332 0.05476 0.36703 0.0
C764 C 0.3021 0.56751 0.12975 0.0
C765 C 0.3281 0.58127 0.09866 0.0
C766 C 0.26237 0.55338 0.12028 0.0
C767 C 0.24795 0.5552 0.07889 0.0
C768 C 0.27475 0.56742 0.04721 0.0
C769 C 0.3149 0.57923 0.05755 0.0
C770 C 0.23548 0.54009 0.15528 0.0
C771 C 0.26019 0.57263 1.003 0.0
C772 C 0.14516 0.51381 0.03995 0.0
C773 C 0.12256 0.54752 0.0439 0.0
C774 C 0.1858 0.51493 0.05338 0.0
C775 C 0.20407 0.55118 0.06929 0.0
C776 C 0.18089 0.58505 0.07373 0.0
C777 C 0.14014 0.58252 0.06143 0.0
C778 C 0.20953 0.47801 0.0495 0.0
C779 C 0.19949 0.62462 0.08954 0.0
H780 H 0.31218 0.56986 0.16164 0.0
H781 H 0.33532 0.59001 0.03376 0.0
H782 H 0.22744 0.56706 0.1718 0.0
H783 H 0.20725 0.52322 0.14491 0.0
H784 H 0.25196 0.52079 0.17775 0.0
H785 H 0.28559 0.57812 0.98176 0.0
H786 H 0.24135 0.54579 0.99283 0.0
H787 H 0.24106 0.59889 1.00029 0.0
H788 H 0.13144 0.48719 0.0253 0.0
H789 H 0.12241 0.60869 0.06357 0.0
H790 H 0.22245 0.46907 0.08003 0.0
H791 H 0.23531 0.48481 0.02912 0.0
H792 H 0.19078 0.45211 0.03685 0.0
H793 H 0.2099 0.62046 0.12201 0.0
H794 H 0.17791 0.64889 0.08791 0.0
H795 H 0.22625 0.63482 0.0715 0.0
C796 C 0.19115 0.45996 0.63941 0.0
C797 C 0.18753 0.41872 0.65057 0.0
C798 C 0.2263 0.47755 0.62189 0.0
C799 C 0.2585 0.4531 0.61461 0.0
C800 C 0.25506 0.41133 0.62591 0.0
C801 C 0.21955 0.39462 0.64391 0.0
C802 C 0.22861 0.52209 0.61036 0.0
C803 C 0.28866 0.38422 0.6184 0.0
C804 C 0.32765 0.48163 0.52676 0.0
C805 C 0.36343 0.49556 0.54737 0.0
C806 C 0.29311 0.46884 0.54827 0.0
C807 C 0.29404 0.47032 0.59165 0.0
C808 C 0.32915 0.48692 0.61257 0.0
C809 C 0.36365 0.49911 0.59015 0.0
C810 C 0.2562 0.45194 0.5246 0.0
C811 C 0.33101 0.48994 0.65873 0.0
H812 H 0.16609 0.47842 0.64428 0.0
H813 H 0.21688 0.3629 0.65305 0.0
H814 H 0.25664 0.53721 0.62364 0.0
H815 H 0.22976 0.5262 0.57646 0.0
H816 H 0.20232 0.53748 0.62108 0.0
H817 H 0.28215 0.35295 0.63074 0.0
H818 H 0.29334 0.38293 0.58489 0.0
H819 H 0.31732 0.39676 0.63285 0.0
H820 H 0.32718 0.47907 0.49362 0.0
H821 H 0.39133 0.50913 0.60634 0.0
H822 H 0.22929 0.4679 0.53249 0.0
H823 H 0.25015 0.41953 0.53325 0.0
H824 H 0.25978 0.45462 0.49081 0.0
H825 H 0.35821 0.50832 0.66969 0.0
H826 H 0.33167 0.45917 0.67303 0.0
H827 H 0.30376 0.50355 0.66953 0.0
C828 C 0.90625 0.84353 0.91319 0.0
C829 C 0.91307 0.87788 0.93692 0.0
C830 C 0.91874 0.80583 0.92761 0.0
C831 C 0.93758 0.8023 0.96718 0.0
C832 C 0.94501 0.83711 0.99101 0.0
C833 C 0.93353 0.87465 0.97511 0.0
C834 C 0.91138 0.7697 0.90068 0.0
C835 C 0.9642 0.83451 0.03364 0.0
C836 C 0.93833 0.69399 0.01 0.0
C837 C 0.97689 0.68396 0.99949 0.0
C838 C 0.92583 0.73341 1.00226 0.0
C839 C 0.95203 0.7627 0.98217 0.0
C840 C 0.99159 0.7531 0.9734 0.0
C841 C 1.00364 0.71416 0.98273 0.0
C842 C 0.8839 0.74293 0.01357 0.0
C843 C 0.02043 0.78306 0.95159 0.0
H844 H 0.88994 0.84599 0.88394 0.0
H845 H 0.93946 0.90144 0.99306 0.0
H846 H 0.94032 0.75597 0.89552 0.0
H847 H 0.89133 0.74637 0.91626 0.0
H848 H 0.89729 0.77774 0.87034 0.0
H849 H 0.96621 0.8641 0.04892 0.0
H850 H 0.94642 0.81219 0.05298 0.0
H851 H 0.99503 0.82375 0.03218 0.0
H852 H 0.91728 0.67069 0.02224 0.0
H853 H 0.03368 0.7067 0.97481 0.0
H854 H 0.86393 0.74255 0.98558 0.0
H855 H 0.88404 0.77354 0.02643 0.0
H856 H 0.87091 0.72049 0.03636 0.0
H857 H 0.00817 0.78996 0.92021 0.0
H858 H 0.05084 0.77148 0.9489 0.0
H859 H 0.02371 0.81189 0.96807 0.0
C860 C 0.42612 0.72688 0.13028 0.0
C861 C 0.4322 0.69266 0.10783 0.0
C862 C 0.44064 0.76538 0.11666 0.0
C863 C 0.45747 0.77032 0.07727 0.0
C864 C 0.46147 0.73609 0.05321 0.0
C865 C 0.44993 0.69751 0.06942 0.0
C866 C 0.43707 0.80069 0.14424 0.0
C867 C 0.47561 0.74042 0.00961 0.0
C868 C 0.45923 0.8807 0.0429 0.0
C869 C 0.5 0.89273 0.04999 0.0
C870 C 0.44553 0.83981 0.04727 0.0
C871 C 0.47261 0.81112 0.06252 0.0
C872 C 0.51394 0.82291 0.06856 0.0
C873 C 0.52728 0.8631 0.06061 0.0
C874 C 0.40173 0.82792 0.03749 0.0
C875 C 0.54352 0.79412 0.08714 0.0
H876 H 0.40839 0.72394 0.15758 0.0
H877 H 0.45193 0.67115 0.05091 0.0
H878 H 0.46521 0.82067 0.14446 0.0
H879 H 0.41202 0.81889 0.13272 0.0
H880 H 0.43079 0.79056 0.17638 0.0
H881 H 0.47718 0.71071 0.99509 0.0
H882 H 0.45448 0.75872 0.99098 0.0
H883 H 0.50576 0.75675 0.00856 0.0
H884 H 0.43771 0.9032 0.03574 0.0
H885 H 0.55899 0.87177 0.06609 0.0
H886 H 0.38443 0.82701 0.06606 0.0
H887 H 0.39822 0.79748 0.02407 0.0
H888 H 0.38826 0.85009 0.01566 0.0
H889 H 0.53401 0.78415 0.11843 0.0
H890 H 0.57478 0.80812 0.08958 0.0
H891 H 0.54386 0.76669 0.06863 0.0
C892 C 0.13263 0.30189 0.64718 0.0
C893 C 0.13476 0.34105 0.62992 0.0
C894 C 0.12944 0.26802 0.62243 0.0
C895 C 0.12977 0.27344 0.57906 0.0
C896 C 0.13786 0.31291 0.56182 0.0
C897 C 0.13942 0.34655 0.5875 0.0
C898 C 0.12113 0.22686 0.64277 0.0
C899 C 0.14198 0.32015 0.5162 0.0
C900 C 0.11344 0.16803 0.53808 0.0
C901 C 0.07112 0.16454 0.536 0.0
C902 C 0.13422 0.20568 0.54578 0.0
C903 C 0.11198 0.23966 0.55347 0.0
C904 C 0.06965 0.23707 0.54599 0.0
C905 C 0.04997 0.19974 0.53668 0.0
C906 C 0.17965 0.20798 0.54907 0.0
C907 C 0.04428 0.2723 0.55299 0.0
H908 H 0.12981 0.29802 0.68017 0.0
H909 H 0.14186 0.37695 0.57423 0.0
H910 H 0.09053 0.21436 0.63329 0.0
H911 H 0.14318 0.20568 0.63301 0.0
H912 H 0.12284 0.22792 0.67686 0.0
H913 H 0.16565 0.34463 0.51013 0.0
H914 H 0.14972 0.29251 0.50059 0.0
H915 H 0.11318 0.33031 0.50255 0.0
H916 H 0.13017 0.14112 0.53695 0.0
H917 H 0.01727 0.19736 0.53386 0.0
H918 H 0.19197 0.18832 0.52615 0.0
H919 H 0.1895 0.19682 0.58003 0.0
H920 H 0.19264 0.2394 0.54419 0.0
H921 H 0.04607 0.27978 0.58602 0.0
H922 H 0.01203 0.26577 0.54392 0.0
H923 H 0.05578 0.29939 0.53518 0.0
C924 C 0.65478 0.27036 0.43144 0.0
C925 C 0.65586 0.23622 0.45755 0.0
C926 C 0.63821 0.30553 0.44416 0.0
C927 C 0.62319 0.30663 0.48434 0.0
C928 C 0.62812 0.27337 0.51215 0.0
C929 C 0.64406 0.23827 0.49817 0.0
C930 C 0.6333 0.33993 0.4133 0.0
C931 C 0.61401 0.27298 0.5557 0.0
C932 C 0.58578 0.40945 0.50722 0.0
C933 C 0.54421 0.40255 0.49933 0.0
C934 C 0.6119 0.37787 0.5056 0.0
C935 C 0.59617 0.33896 0.49395 0.0
C936 C 0.55401 0.33169 0.48719 0.0
C937 C 0.52861 0.36341 0.49044 0.0
C938 C 0.65629 0.38724 0.51463 0.0
C939 C 0.53576 0.29085 0.47446 0.0
H940 H 0.66405 0.26823 0.40002 0.0
H941 H 0.64517 0.21163 0.51823 0.0
H942 H 0.60072 0.34418 0.40735 0.0
H943 H 0.64728 0.36844 0.42575 0.0
H944 H 0.64727 0.33454 0.38359 0.0
H945 H 0.6383 0.26289 0.57716 0.0
H946 H 0.60518 0.30287 0.56511 0.0
H947 H 0.58778 0.25073 0.55894 0.0
H948 H 0.59819 0.43978 0.51331 0.0
H949 H 0.49644 0.35786 0.4845 0.0
H950 H 0.66975 0.40413 0.48796 0.0
H951 H 0.67296 0.35969 0.52094 0.0
H952 H 0.66055 0.40711 0.5415 0.0
H953 H 0.55013 0.28136 0.44632 0.0
H954 H 0.50267 0.29087 0.46826 0.0
H955 H 0.54138 0.26788 0.49911 0.0
loop_
_geom_bond_atom_site_label_1
_geom_bond_atom_site_label_2
_geom_bond_distance
_geom_bond_site_symmetry_2
_ccdc_geom_bond_type
C0 N1 1.317 . S
C0 N2 1.348 . S
C0 C3 1.485 . S
N1 C0 1.317 . S
N1 N5 1.370 . S
N2 C0 1.348 . S
N2 C4 1.346 . S
C3 C0 1.485 . S
C3 H7 0.960 . S
C3 H8 0.961 . S
C3 H9 0.960 . S
C4 N2 1.346 . S
C4 N5 1.307 . S
C4 C6 1.486 . S
N5 N1 1.370 . S
N5 C4 1.307 . S
C6 C4 1.486 . S
C6 H10 0.960 . S
C6 H11 0.960 . S
C6 H12 0.959 . S
H7 C3 0.960 . S
H8 C3 0.961 . S
H9 C3 0.960 . S
H10 C6 0.960 . S
H11 C6 0.960 . S
H12 C6 0.959 . S
C13 N14 1.317 . S
C13 N15 1.348 . S
C13 C16 1.485 . S
N14 C13 1.317 . S
N14 N18 1.370 . S
N15 C13 1.348 . S
N15 C17 1.346 . S
C16 C13 1.485 . S
C16 H20 0.960 . S
C16 H21 0.961 . S
C16 H22 0.960 . S
C17 N15 1.346 . S
C17 N18 1.307 . S
C17 C19 1.486 . S
N18 N14 1.370 . S
N18 C17 1.307 . S
C19 C17 1.486 . S
C19 H23 0.960 . S
C19 H24 0.960 . S
C19 H25 0.959 . S
H20 C16 0.960 . S
H21 C16 0.961 . S
H22 C16 0.960 . S
H23 C19 0.960 . S
H24 C19 0.960 . S
H25 C19 0.959 . S
C26 N27 1.317 . S
C26 N28 1.348 . S
C26 C29 1.485 . S
N27 C26 1.317 . S
N27 N31 1.370 . S
N28 C26 1.348 . S
N28 C30 1.346 . S
C29 C26 1.485 . S
C29 H33 0.960 . S
C29 H34 0.961 . S
C29 H35 0.960 . S
C30 N28 1.346 . S
C30 N31 1.307 . S
C30 C32 1.486 . S
N31 N27 1.370 . S
N31 C30 1.307 . S
C32 C30 1.486 . S
C32 H36 0.960 . S
C32 H37 0.960 . S
C32 H38 0.959 . S
H33 C29 0.960 . S
H34 C29 0.961 . S
H35 C29 0.960 . S
H36 C32 0.960 . S
H37 C32 0.960 . S
H38 C32 0.959 . S
C39 N40 1.317 . S
C39 N41 1.348 . S
C39 C42 1.485 . S
N40 C39 1.317 . S
N40 N44 1.370 . S
N41 C39 1.348 . S
N41 C43 1.346 . S
C42 C39 1.485 . S
C42 H46 0.960 . S
C42 H47 0.961 . S
C42 H48 0.960 . S
C43 N41 1.346 . S
C43 N44 1.307 . S
C43 C45 1.486 . S
N44 N40 1.370 . S
N44 C43 1.307 . S
C45 C43 1.486 . S
C45 H49 0.960 . S
C45 H50 0.960 . S
C45 H51 0.959 . S
H46 C42 0.960 . S
H47 C42 0.961 . S
H48 C42 0.960 . S
H49 C45 0.960 . S
H50 C45 0.960 . S
H51 C45 0.959 . S
C52 N53 1.317 . S
C52 N54 1.348 . S
C52 C55 1.485 1_556 S
N53 C52 1.317 . S
N53 N57 1.370 . S
N54 C52 1.348 . S
N54 C56 1.346 . S
C55 C52 1.485 1_554 S
C55 H59 0.960 . S
C55 H60 0.961 . S
C55 H61 0.960 . S
C56 N54 1.346 . S
C56 N57 1.307 . S
C56 C58 1.486 1_565 S
N57 N53 1.370 . S
N57 C56 1.307 . S
C58 C56 1.486 1_545 S
C58 H62 0.960 . S
C58 H63 0.960 . S
C58 H64 0.959 . S
H59 C55 0.960 . S
H60 C55 0.961 . S
H61 C55 0.960 . S
H62 C58 0.960 . S
H63 C58 0.960 . S
H64 C58 0.959 . S
C65 N66 1.317 . S
C65 N67 1.348 . S
C65 C68 1.485 . S
N66 C65 1.317 . S
N66 N70 1.370 . S
N67 C65 1.348 . S
N67 C69 1.346 . S
C68 C65 1.485 . S
C68 H72 0.960 . S
C68 H73 0.961 . S
C68 H74 0.960 . S
C69 N67 1.346 . S
C69 N70 1.307 . S
C69 C71 1.486 . S
N70 N66 1.370 . S
N70 C69 1.307 . S
C71 C69 1.486 . S
C71 H75 0.960 . S
C71 H76 0.960 . S
C71 H77 0.959 . S
H72 C68 0.960 . S
H73 C68 0.961 . S
H74 C68 0.960 . S
H75 C71 0.960 . S
H76 C71 0.960 . S
H77 C71 0.959 . S
C78 N79 1.317 . S
C78 N80 1.348 . S
C78 C81 1.485 . S
N79 C78 1.317 . S
N79 N83 1.370 . S
N80 C78 1.348 . S
N80 C82 1.346 . S
C81 C78 1.485 . S
C81 H85 0.960 . S
C81 H86 0.961 . S
C81 H87 0.960 . S
C82 N80 1.346 . S
C82 N83 1.307 . S
C82 C84 1.486 . S
N83 N79 1.370 . S
N83 C82 1.307 . S
C84 C82 1.486 . S
C84 H88 0.960 . S
C84 H89 0.960 . S
C84 H90 0.959 . S
H85 C81 0.960 . S
H86 C81 0.961 . S
H87 C81 0.960 . S
H88 C84 0.960 . S
H89 C84 0.960 . S
H90 C84 0.959 . S
C91 N92 1.317 . S
C91 N93 1.348 . S
C91 C94 1.485 . S
N92 C91 1.317 . S
N92 N96 1.370 . S
N93 C91 1.348 . S
N93 C95 1.346 . S
C94 C91 1.485 . S
C94 H98 0.949 1_455 S
C94 H99 0.961 . S
C94 H100 0.960 . S
C95 N93 1.346 . S
C95 N96 1.307 . S
C95 C97 1.486 . S
N96 N92 1.370 . S
N96 C95 1.307 . S
C97 C95 1.486 . S
C97 H101 0.960 . S
C97 H102 0.960 . S
C97 H103 0.959 . S
H98 C94 0.949 1_655 S
H99 C94 0.961 . S
H100 C94 0.960 . S
H101 C97 0.960 . S
H102 C97 0.960 . S
H103 C97 0.959 . S
Zn104 O110 1.920 . S
Zn104 O116 1.898 1_655 S
Zn104 O119 1.905 . S
Zn105 O113 1.905 1_565 S
Zn105 O114 1.898 . S
Zn105 O122 1.920 . S
Zn106 O109 2.080 . S
Zn106 O112 2.114 . S
Zn106 O115 2.120 1_545 S
Zn106 O117 2.120 . S
Zn106 O118 2.114 1_455 S
Zn106 O121 2.080 . S
C107 O112 1.166 . S
C107 O113 1.182 . S
C108 O114 1.167 . S
C108 O115 1.299 . S
O109 Zn106 2.080 . S
O109 C123 1.305 . S
O110 Zn104 1.920 . S
O110 C123 1.234 1_655 S
C111 O116 1.167 . S
C111 O117 1.299 . S
O112 Zn106 2.114 . S
O112 C107 1.166 . S
O113 Zn105 1.905 1_545 S
O113 C107 1.182 . S
O114 Zn105 1.898 . S
O114 C108 1.167 . S
O115 Zn106 2.120 1_565 S
O115 C108 1.299 . S
O116 Zn104 1.898 1_455 S
O116 C111 1.167 . S
O117 Zn106 2.120 . S
O117 C111 1.299 . S
O118 Zn106 2.114 1_655 S
O118 C120 1.166 . S
O119 Zn104 1.905 . S
O119 C120 1.182 . S
C120 O118 1.166 . S
C120 O119 1.182 . S
O121 Zn106 2.080 . S
O121 C124 1.305 1_545 S
O122 Zn105 1.920 . S
O122 C124 1.234 . S
C123 O109 1.305 . S
C123 O110 1.234 1_455 S
C124 O121 1.305 1_565 S
C124 O122 1.234 . S
Zn125 O131 1.920 . S
Zn125 O137 1.898 1_554 S
Zn125 O140 1.905 1_554 S
Zn126 O134 1.905 . S
Zn126 O135 1.898 . S
Zn126 O143 1.920 . S
Zn127 O130 2.080 . S
Zn127 O133 2.114 1_545 S
Zn127 O136 2.120 1_545 S
Zn127 O138 2.120 . S
Zn127 O139 2.114 . S
Zn127 O142 2.080 . S
C128 O133 1.166 . S
C128 O134 1.182 . S
C129 O135 1.167 . S
C129 O136 1.299 . S
O130 Zn127 2.080 . S
O130 C144 1.305 . S
O131 Zn125 1.920 . S
O131 C144 1.234 . S
C132 O137 1.167 1_554 S
C132 O138 1.299 . S
O133 Zn127 2.114 1_565 S
O133 C128 1.166 . S
O134 Zn126 1.905 . S
O134 C128 1.182 . S
O135 Zn126 1.898 . S
O135 C129 1.167 . S
O136 Zn127 2.120 1_565 S
O136 C129 1.299 . S
O137 Zn125 1.898 1_556 S
O137 C132 1.167 1_556 S
O138 Zn127 2.120 . S
O138 C132 1.299 . S
O139 Zn127 2.114 . S
O139 C141 1.166 1_554 S
O140 Zn125 1.905 1_556 S
O140 C141 1.182 . S
C141 O139 1.166 1_556 S
C141 O140 1.182 . S
O142 Zn127 2.080 . S
O142 C145 1.305 . S
O143 Zn126 1.920 . S
O143 C145 1.234 1_565 S
C144 O130 1.305 . S
C144 O131 1.234 . S
C145 O142 1.305 . S
C145 O143 1.234 1_545 S
Zn146 O152 1.920 . S
Zn146 O158 1.898 . S
Zn146 O161 1.905 . S
Zn147 O155 1.905 . S
Zn147 O156 1.898 . S
Zn147 O164 1.920 . S
Zn148 O151 2.080 . S
Zn148 O154 2.114 . S
Zn148 O157 2.120 . S
Zn148 O159 2.120 . S
Zn148 O160 2.114 . S
Zn148 O163 2.080 . S
C149 O154 1.166 . S
C149 O155 1.182 . S
C150 O156 1.167 . S
C150 O157 1.299 . S
O151 Zn148 2.080 . S
O151 C165 1.305 . S
O152 Zn146 1.920 . S
O152 C165 1.234 . S
C153 O158 1.167 . S
C153 O159 1.299 . S
O154 Zn148 2.114 . S
O154 C149 1.166 . S
O155 Zn147 1.905 . S
O155 C149 1.182 . S
O156 Zn147 1.898 . S
O156 C150 1.167 . S
O157 Zn148 2.120 . S
O157 C150 1.299 . S
O158 Zn146 1.898 . S
O158 C153 1.167 . S
O159 Zn148 2.120 . S
O159 C153 1.299 . S
O160 Zn148 2.114 . S
O160 C162 1.166 . S
O161 Zn146 1.905 . S
O161 C162 1.182 . S
C162 O160 1.166 . S
C162 O161 1.182 . S
O163 Zn148 2.080 . S
O163 C166 1.305 . S
O164 Zn147 1.920 . S
O164 C166 1.234 . S
C165 O151 1.305 . S
C165 O152 1.234 . S
C166 O163 1.305 . S
C166 O164 1.234 . S
Zn167 O173 1.920 . S
Zn167 O179 1.898 . S
Zn167 O182 1.905 . S
Zn168 O176 1.905 . S
Zn168 O177 1.898 . S
Zn168 O185 1.920 . S
Zn169 O172 2.080 1_454 S
Zn169 O175 2.114 . S
Zn169 O178 2.120 1_454 S
Zn169 O180 2.120 . S
Zn169 O181 2.114 1_554 S
Zn169 O184 2.080 1_455 S
C170 O175 1.166 . S
C170 O176 1.182 1_455 S
C171 O177 1.167 1_556 S
C171 O178 1.299 . S
O172 Zn169 2.080 1_656 S
O172 C186 1.305 1_655 S
O173 Zn167 1.920 . S
O173 C186 1.234 . S
C174 O179 1.167 1_554 S
C174 O180 1.299 . S
O175 Zn169 2.114 . S
O175 C170 1.166 . S
O176 Zn168 1.905 . S
O176 C170 1.182 1_655 S
O177 Zn168 1.898 . S
O177 C171 1.167 1_554 S
O178 Zn169 2.120 1_656 S
O178 C171 1.299 . S
O179 Zn167 1.898 . S
O179 C174 1.167 1_556 S
O180 Zn169 2.120 . S
O180 C174 1.299 . S
O181 Zn169 2.114 1_556 S
O181 C183 1.166 . S
O182 Zn167 1.905 . S
O182 C183 1.182 . S
C183 O181 1.166 . S
C183 O182 1.182 . S
O184 Zn169 2.080 1_655 S
O184 C187 1.305 . S
O185 Zn168 1.920 . S
O185 C187 1.234 . S
C186 O172 1.305 1_455 S
C186 O173 1.234 . S
C187 O184 1.305 . S
C187 O185 1.234 . S
C188 C189 1.391 . S
C188 C190 1.394 . S
C188 H204 0.931 . S
C189 C188 1.391 . S
C189 C193 1.376 . S
C190 C188 1.394 . S
C190 C191 1.369 . S
C190 C194 1.531 . S
C191 C190 1.369 . S
C191 C192 1.410 . S
C191 C199 1.503 . S
C192 C191 1.410 . S
C192 C193 1.392 . S
C192 C195 1.511 . S
C193 C189 1.376 . S
C193 C192 1.392 . S
C193 H205 0.929 . S
C194 C190 1.531 . S
C194 H206 0.960 . S
C194 H207 0.962 . S
C194 H208 0.960 . S
C195 C192 1.511 . S
C195 H209 0.961 . S
C195 H210 0.961 . S
C195 H211 0.961 . S
C196 C197 1.370 . S
C196 C198 1.363 . S
C196 H212 0.931 . S
C197 C196 1.370 . S
C197 C201 1.408 . S
C198 C196 1.363 . S
C198 C199 1.370 . S
C198 C202 1.524 . S
C199 C191 1.503 . S
C199 C198 1.370 . S
C199 C200 1.403 . S
C200 C199 1.403 . S
C200 C201 1.404 . S
C200 C203 1.539 . S
C201 C197 1.408 . S
C201 C200 1.404 . S
C201 H213 0.930 . S
C202 C198 1.524 . S
C202 H214 0.956 . S
C202 H215 0.961 . S
C202 H216 0.961 . S
C203 C200 1.539 . S
C203 H217 0.958 . S
C203 H218 0.961 . S
C203 H219 0.960 . S
H204 C188 0.931 . S
H205 C193 0.929 . S
H206 C194 0.960 . S
H207 C194 0.962 . S
H208 C194 0.960 . S
H209 C195 0.961 . S
H210 C195 0.961 . S
H211 C195 0.961 . S
H212 C196 0.931 . S
H213 C201 0.930 . S
H214 C202 0.956 . S
H215 C202 0.961 . S
H216 C202 0.961 . S
H217 C203 0.958 . S
H218 C203 0.961 . S
H219 C203 0.960 . S
C220 C221 1.391 . S
C220 C222 1.394 . S
C220 H236 0.931 . S
C221 C220 1.391 . S
C221 C225 1.376 . S
C222 C220 1.394 . S
C222 C223 1.369 . S
C222 C226 1.531 . S
C223 C222 1.369 . S
C223 C224 1.410 . S
C223 C231 1.503 . S
C224 C223 1.410 . S
C224 C225 1.392 . S
C224 C227 1.511 . S
C225 C221 1.376 . S
C225 C224 1.392 . S
C225 H237 0.929 . S
C226 C222 1.531 . S
C226 H238 0.960 . S
C226 H239 0.962 . S
C226 H240 0.960 . S
C227 C224 1.511 . S
C227 H241 0.961 . S
C227 H242 0.961 . S
C227 H243 0.961 . S
C228 C229 1.370 . S
C228 C230 1.363 . S
C228 H244 0.931 1_565 S
C229 C228 1.370 . S
C229 C233 1.408 . S
C230 C228 1.363 . S
C230 C231 1.370 . S
C230 C234 1.524 . S
C231 C223 1.503 . S
C231 C230 1.370 . S
C231 C232 1.403 . S
C232 C231 1.403 . S
C232 C233 1.404 . S
C232 C235 1.539 . S
C233 C229 1.408 . S
C233 C232 1.404 . S
C233 H245 0.930 . S
C234 C230 1.524 . S
C234 H246 0.956 . S
C234 H247 0.961 . S
C234 H248 0.961 1_565 S
C235 C232 1.539 . S
C235 H249 0.958 . S
C235 H250 0.961 . S
C235 H251 0.960 . S
H236 C220 0.931 . S
H237 C225 0.929 . S
H238 C226 0.960 . S
H239 C226 0.962 . S
H240 C226 0.960 . S
H241 C227 0.961 . S
H242 C227 0.961 . S
H243 C227 0.961 . S
H244 C228 0.931 1_545 S
H245 C233 0.930 . S
H246 C234 0.956 . S
H247 C234 0.961 . S
H248 C234 0.961 1_545 S
H249 C235 0.958 . S
H250 C235 0.961 . S
H251 C235 0.960 . S
C252 C253 1.391 . S
C252 C254 1.394 . S
C252 H268 0.931 . S
C253 C252 1.391 . S
C253 C257 1.376 . S
C254 C252 1.394 . S
C254 C255 1.369 . S
C254 C258 1.531 . S
C255 C254 1.369 . S
C255 C256 1.410 . S
C255 C263 1.503 . S
C256 C255 1.410 . S
C256 C257 1.392 . S
C256 C259 1.511 . S
C257 C253 1.376 . S
C257 C256 1.392 . S
C257 H269 0.929 . S
C258 C254 1.531 . S
C258 H270 0.960 . S
C258 H271 0.962 . S
C258 H272 0.960 . S
C259 C256 1.511 . S
C259 H273 0.961 . S
C259 H274 0.961 . S
C259 H275 0.961 . S
C260 C261 1.370 . S
C260 C262 1.363 . S
C260 H276 0.931 . S
C261 C260 1.370 . S
C261 C265 1.408 . S
C262 C260 1.363 . S
C262 C263 1.370 . S
C262 C266 1.524 . S
C263 C255 1.503 . S
C263 C262 1.370 . S
C263 C264 1.403 . S
C264 C263 1.403 . S
C264 C265 1.404 . S
C264 C267 1.539 . S
C265 C261 1.408 . S
C265 C264 1.404 . S
C265 H277 0.930 . S
C266 C262 1.524 . S
C266 H278 0.956 . S
C266 H279 0.961 . S
C266 H280 0.961 . S
C267 C264 1.539 . S
C267 H281 0.958 . S
C267 H282 0.961 . S
C267 H283 0.960 . S
H268 C252 0.931 . S
H269 C257 0.929 . S
H270 C258 0.960 . S
H271 C258 0.962 . S
H272 C258 0.960 . S
H273 C259 0.961 . S
H274 C259 0.961 . S
H275 C259 0.961 . S
H276 C260 0.931 . S
H277 C265 0.930 . S
H278 C266 0.956 . S
H279 C266 0.961 . S
H280 C266 0.961 . S
H281 C267 0.958 . S
H282 C267 0.961 . S
H283 C267 0.960 . S
C284 C285 1.391 . S
C284 C286 1.394 . S
C284 H300 0.931 . S
C285 C284 1.391 . S
C285 C289 1.376 . S
C286 C284 1.394 . S
C286 C287 1.369 . S
C286 C290 1.531 . S
C287 C286 1.369 . S
C287 C288 1.410 . S
C287 C295 1.503 . S
C288 C287 1.410 . S
C288 C289 1.392 . S
C288 C291 1.511 . S
C289 C285 1.376 . S
C289 C288 1.392 . S
C289 H301 0.929 . S
C290 C286 1.531 . S
C290 H302 0.960 . S
C290 H303 0.962 . S
C290 H304 0.960 . S
C291 C288 1.511 . S
C291 H305 0.961 . S
C291 H306 0.961 . S
C291 H307 0.961 . S
C292 C293 1.370 . S
C292 C294 1.363 . S
C292 H308 0.931 . S
C293 C292 1.370 . S
C293 C297 1.408 . S
C294 C292 1.363 . S
C294 C295 1.370 . S
C294 C298 1.524 . S
C295 C287 1.503 . S
C295 C294 1.370 . S
C295 C296 1.403 . S
C296 C295 1.403 . S
C296 C297 1.404 . S
C296 C299 1.539 . S
C297 C293 1.408 . S
C297 C296 1.404 . S
C297 H309 0.930 . S
C298 C294 1.524 . S
C298 H310 0.956 . S
C298 H311 0.961 . S
C298 H312 0.961 . S
C299 C296 1.539 . S
C299 H313 0.958 . S
C299 H314 0.961 1_655 S
C299 H315 0.960 . S
H300 C284 0.931 . S
H301 C289 0.929 . S
H302 C290 0.960 . S
H303 C290 0.962 . S
H304 C290 0.960 . S
H305 C291 0.961 . S
H306 C291 0.961 . S
H307 C291 0.961 . S
H308 C292 0.931 . S
H309 C297 0.930 . S
H310 C298 0.956 . S
H311 C298 0.961 . S
H312 C298 0.961 . S
H313 C299 0.958 . S
H314 C299 0.961 1_455 S
H315 C299 0.960 . S
C316 C317 1.391 . S
C316 C318 1.394 . S
C316 H332 0.931 . S
C317 C316 1.391 . S
C317 C321 1.376 . S
C318 C316 1.394 . S
C318 C319 1.369 . S
C318 C322 1.531 . S
C319 C318 1.369 . S
C319 C320 1.410 . S
C319 C327 1.503 . S
C320 C319 1.410 . S
C320 C321 1.392 . S
C320 C323 1.511 . S
C321 C317 1.376 . S
C321 C320 1.392 . S
C321 H333 0.929 . S
C322 C318 1.531 . S
C322 H334 0.960 . S
C322 H335 0.962 . S
C322 H336 0.960 . S
C323 C320 1.511 . S
C323 H337 0.961 . S
C323 H338 0.961 . S
C323 H339 0.961 . S
C324 C325 1.370 . S
C324 C326 1.363 . S
C324 H340 0.931 . S
C325 C324 1.370 . S
C325 C329 1.408 . S
C326 C324 1.363 . S
C326 C327 1.370 . S
C326 C330 1.524 . S
C327 C319 1.503 . S
C327 C326 1.370 . S
C327 C328 1.403 . S
C328 C327 1.403 . S
C328 C329 1.404 . S
C328 C331 1.539 . S
C329 C325 1.408 . S
C329 C328 1.404 . S
C329 H341 0.930 . S
C330 C326 1.524 . S
C330 H342 0.956 . S
C330 H343 0.961 . S
C330 H344 0.961 . S
C331 C328 1.539 . S
C331 H345 0.958 . S
C331 H346 0.961 . S
C331 H347 0.960 . S
H332 C316 0.931 . S
H333 C321 0.929 . S
H334 C322 0.960 . S
H335 C322 0.962 . S
H336 C322 0.960 . S
H337 C323 0.961 . S
H338 C323 0.961 . S
H339 C323 0.961 . S
H340 C324 0.931 . S
H341 C329 0.930 . S
H342 C330 0.956 . S
H343 C330 0.961 . S
H344 C330 0.961 . S
H345 C331 0.958 . S
H346 C331 0.961 . S
H347 C331 0.960 . S
C348 C349 1.391 . S
C348 C350 1.394 . S
C348 H364 0.931 . S
C349 C348 1.391 . S
C349 C353 1.376 . S
C350 C348 1.394 . S
C350 C351 1.369 . S
C350 C354 1.531 . S
C351 C350 1.369 . S
C351 C352 1.410 . S
C351 C359 1.503 . S
C352 C351 1.410 . S
C352 C353 1.392 . S
C352 C355 1.511 . S
C353 C349 1.376 . S
C353 C352 1.392 . S
C353 H365 0.929 . S
C354 C350 1.531 . S
C354 H366 0.960 . S
C354 H367 0.962 . S
C354 H368 0.960 . S
C355 C352 1.511 . S
C355 H369 0.961 . S
C355 H370 0.961 . S
C355 H371 0.961 . S
C356 C357 1.370 . S
C356 C358 1.363 . S
C356 H372 0.931 . S
C357 C356 1.370 . S
C357 C361 1.408 . S
C358 C356 1.363 . S
C358 C359 1.370 . S
C358 C362 1.524 . S
C359 C351 1.503 . S
C359 C358 1.370 . S
C359 C360 1.403 . S
C360 C359 1.403 . S
C360 C361 1.404 . S
C360 C363 1.539 . S
C361 C357 1.408 . S
C361 C360 1.404 . S
C361 H373 0.930 . S
C362 C358 1.524 . S
C362 H374 0.956 . S
C362 H375 0.961 . S
C362 H376 0.961 . S
C363 C360 1.539 . S
C363 H377 0.958 . S
C363 H378 0.961 . S
C363 H379 0.960 . S
H364 C348 0.931 . S
H365 C353 0.929 . S
H366 C354 0.960 . S
H367 C354 0.962 . S
H368 C354 0.960 . S
H369 C355 0.961 . S
H370 C355 0.961 . S
H371 C355 0.961 . S
H372 C356 0.931 . S
H373 C361 0.930 . S
H374 C362 0.956 . S
H375 C362 0.961 . S
H376 C362 0.961 . S
H377 C363 0.958 . S
H378 C363 0.961 . S
H379 C363 0.960 . S
C380 C381 1.391 . S
C380 C382 1.394 . S
C380 H396 0.931 . S
C381 C380 1.391 . S
C381 C385 1.376 . S
C382 C380 1.394 . S
C382 C383 1.369 . S
C382 C386 1.531 . S
C383 C382 1.369 . S
C383 C384 1.410 . S
C383 C391 1.503 . S
C384 C383 1.410 . S
C384 C385 1.392 . S
C384 C387 1.511 . S
C385 C381 1.376 . S
C385 C384 1.392 . S
C385 H397 0.929 . S
C386 C382 1.531 . S
C386 H398 0.960 . S
C386 H399 0.962 . S
C386 H400 0.960 . S
C387 C384 1.511 . S
C387 H401 0.961 . S
C387 H402 0.961 . S
C387 H403 0.961 . S
C388 C389 1.370 . S
C388 C390 1.363 . S
C388 H404 0.931 . S
C389 C388 1.370 . S
C389 C393 1.408 . S
C390 C388 1.363 . S
C390 C391 1.370 . S
C390 C394 1.524 . S
C391 C383 1.503 . S
C391 C390 1.370 . S
C391 C392 1.403 . S
C392 C391 1.403 . S
C392 C393 1.404 . S
C392 C395 1.539 1_556 S
C393 C389 1.408 . S
C393 C392 1.404 . S
C393 H405 0.930 1_556 S
C394 C390 1.524 . S
C394 H406 0.956 . S
C394 H407 0.961 . S
C394 H408 0.961 . S
C395 C392 1.539 1_554 S
C395 H409 0.958 . S
C395 H410 0.961 . S
C395 H411 0.960 1_554 S
H396 C380 0.931 . S
H397 C385 0.929 . S
H398 C386 0.960 . S
H399 C386 0.962 . S
H400 C386 0.960 . S
H401 C387 0.961 . S
H402 C387 0.961 . S
H403 C387 0.961 . S
H404 C388 0.931 . S
H405 C393 0.930 1_554 S
H406 C394 0.956 . S
H407 C394 0.961 . S
H408 C394 0.961 . S
H409 C395 0.958 . S
H410 C395 0.961 . S
H411 C395 0.960 1_556 S
C412 C413 1.391 . S
C412 C414 1.394 . S
C412 H428 0.931 . S
C413 C412 1.391 . S
C413 C417 1.376 . S
C414 C412 1.394 . S
C414 C415 1.369 . S
C414 C418 1.531 . S
C415 C414 1.369 . S
C415 C416 1.410 . S
C415 C423 1.503 . S
C416 C415 1.410 . S
C416 C417 1.392 . S
C416 C419 1.511 . S
C417 C413 1.376 . S
C417 C416 1.392 . S
C417 H429 0.929 . S
C418 C414 1.531 . S
C418 H430 0.960 . S
C418 H431 0.962 . S
C418 H432 0.960 . S
C419 C416 1.511 . S
C419 H433 0.961 . S
C419 H434 0.961 . S
C419 H435 0.961 . S
C420 C421 1.370 . S
C420 C422 1.363 . S
C420 H436 0.931 . S
C421 C420 1.370 . S
C421 C425 1.408 . S
C422 C420 1.363 . S
C422 C423 1.370 . S
C422 C426 1.524 . S
C423 C415 1.503 . S
C423 C422 1.370 . S
C423 C424 1.403 . S
C424 C423 1.403 . S
C424 C425 1.404 . S
C424 C427 1.539 . S
C425 C421 1.408 . S
C425 C424 1.404 . S
C425 H437 0.930 . S
C426 C422 1.524 . S
C426 H438 0.956 . S
C426 H439 0.961 . S
C426 H440 0.961 . S
C427 C424 1.539 . S
C427 H441 0.958 . S
C427 H442 0.961 . S
C427 H443 0.960 . S
H428 C412 0.931 . S
H429 C417 0.929 . S
H430 C418 0.960 . S
H431 C418 0.962 . S
H432 C418 0.960 . S
H433 C419 0.961 . S
H434 C419 0.961 . S
H435 C419 0.961 . S
H436 C420 0.931 . S
H437 C425 0.930 . S
H438 C426 0.956 . S
H439 C426 0.961 . S
H440 C426 0.961 . S
H441 C427 0.958 . S
H442 C427 0.961 . S
H443 C427 0.960 . S
C444 C445 1.391 . S
C444 C446 1.394 . S
C444 H460 0.931 . S
C445 C444 1.391 . S
C445 C449 1.376 . S
C446 C444 1.394 . S
C446 C447 1.369 . S
C446 C450 1.531 . S
C447 C446 1.369 . S
C447 C448 1.410 . S
C447 C455 1.503 . S
C448 C447 1.410 . S
C448 C449 1.392 . S
C448 C451 1.511 . S
C449 C445 1.376 . S
C449 C448 1.392 . S
C449 H461 0.929 . S
C450 C446 1.531 . S
C450 H462 0.960 . S
C450 H463 0.962 . S
C450 H464 0.960 . S
C451 C448 1.511 . S
C451 H465 0.961 . S
C451 H466 0.961 . S
C451 H467 0.961 . S
C452 C453 1.370 . S
C452 C454 1.363 . S
C452 H468 0.931 . S
C453 C452 1.370 . S
C453 C457 1.408 . S
C454 C452 1.363 . S
C454 C455 1.370 . S
C454 C458 1.524 . S
C455 C447 1.503 . S
C455 C454 1.370 . S
C455 C456 1.403 . S
C456 C455 1.403 . S
C456 C457 1.404 . S
C456 C459 1.539 . S
C457 C453 1.408 . S
C457 C456 1.404 . S
C457 H469 0.930 . S
C458 C454 1.524 . S
C458 H470 0.956 . S
C458 H471 0.961 . S
C458 H472 0.961 . S
C459 C456 1.539 . S
C459 H473 0.958 . S
C459 H474 0.961 . S
C459 H475 0.960 . S
H460 C444 0.931 . S
H461 C449 0.929 . S
H462 C450 0.960 . S
H463 C450 0.962 . S
H464 C450 0.960 . S
H465 C451 0.961 . S
H466 C451 0.961 . S
H467 C451 0.961 . S
H468 C452 0.931 . S
H469 C457 0.930 . S
H470 C458 0.956 . S
H471 C458 0.961 . S
H472 C458 0.961 . S
H473 C459 0.958 . S
H474 C459 0.961 . S
H475 C459 0.960 . S
C476 C477 1.391 . S
C476 C478 1.394 . S
C476 H492 0.931 . S
C477 C476 1.391 . S
C477 C481 1.376 . S
C478 C476 1.394 . S
C478 C479 1.369 . S
C478 C482 1.531 . S
C479 C478 1.369 . S
C479 C480 1.410 . S
C479 C487 1.503 . S
C480 C479 1.410 . S
C480 C481 1.392 . S
C480 C483 1.511 . S
C481 C477 1.376 . S
C481 C480 1.392 . S
C481 H493 0.929 . S
C482 C478 1.531 . S
C482 H494 0.960 . S
C482 H495 0.962 . S
C482 H496 0.960 . S
C483 C480 1.511 . S
C483 H497 0.961 . S
C483 H498 0.961 . S
C483 H499 0.961 . S
C484 C485 1.389 . S
C484 C486 1.363 . S
C484 H500 0.931 . S
C485 C484 1.389 . S
C485 C489 1.398 1_556 S
C486 C484 1.363 . S
C486 C487 1.370 . S
C486 C490 1.524 . S
C487 C479 1.503 . S
C487 C486 1.370 . S
C487 C488 1.403 1_556 S
C488 C487 1.403 1_554 S
C488 C489 1.404 . S
C488 C491 1.539 . S
C489 C485 1.398 1_554 S
C489 C488 1.404 . S
C489 H501 0.930 . S
C490 C486 1.524 . S
C490 H502 0.956 . S
C490 H503 0.961 . S
C490 H504 0.961 . S
C491 C488 1.539 . S
C491 H505 0.958 . S
C491 H506 0.961 . S
C491 H507 0.960 . S
H492 C476 0.931 . S
H493 C481 0.929 . S
H494 C482 0.960 . S
H495 C482 0.962 . S
H496 C482 0.960 . S
H497 C483 0.961 . S
H498 C483 0.961 . S
H499 C483 0.961 . S
H500 C484 0.931 . S
H501 C489 0.930 . S
H502 C490 0.956 . S
H503 C490 0.961 . S
H504 C490 0.961 . S
H505 C491 0.958 . S
H506 C491 0.961 . S
H507 C491 0.960 . S
C508 C509 1.391 . S
C508 C510 1.394 . S
C508 H524 0.931 . S
C509 C508 1.391 . S
C509 C513 1.376 . S
C510 C508 1.394 . S
C510 C511 1.369 . S
C510 C514 1.531 . S
C511 C510 1.369 . S
C511 C512 1.410 . S
C511 C519 1.503 . S
C512 C511 1.410 . S
C512 C513 1.392 . S
C512 C515 1.511 . S
C513 C509 1.376 . S
C513 C512 1.392 . S
C513 H525 0.929 . S
C514 C510 1.531 . S
C514 H526 0.960 . S
C514 H527 0.962 . S
C514 H528 0.960 . S
C515 C512 1.511 . S
C515 H529 0.961 . S
C515 H530 0.961 . S
C515 H531 0.961 . S
C516 C517 1.370 . S
C516 C518 1.363 . S
C516 H532 0.931 . S
C517 C516 1.370 . S
C517 C521 1.408 . S
C518 C516 1.363 . S
C518 C519 1.370 . S
C518 C522 1.524 . S
C519 C511 1.503 . S
C519 C518 1.370 . S
C519 C520 1.403 . S
C520 C519 1.403 . S
C520 C521 1.404 . S
C520 C523 1.539 . S
C521 C517 1.408 . S
C521 C520 1.404 . S
C521 H533 0.930 . S
C522 C518 1.524 . S
C522 H534 0.956 . S
C522 H535 0.961 . S
C522 H536 0.961 . S
C523 C520 1.539 . S
C523 H537 0.958 . S
C523 H538 0.961 . S
C523 H539 0.960 . S
H524 C508 0.931 . S
H525 C513 0.929 . S
H526 C514 0.960 . S
H527 C514 0.962 . S
H528 C514 0.960 . S
H529 C515 0.961 . S
H530 C515 0.961 . S
H531 C515 0.961 . S
H532 C516 0.931 . S
H533 C521 0.930 . S
H534 C522 0.956 . S
H535 C522 0.961 . S
H536 C522 0.961 . S
H537 C523 0.958 . S
H538 C523 0.961 . S
H539 C523 0.960 . S
C540 C541 1.391 . S
C540 C542 1.394 . S
C540 H556 0.931 . S
C541 C540 1.391 . S
C541 C545 1.376 . S
C542 C540 1.394 . S
C542 C543 1.369 . S
C542 C546 1.531 . S
C543 C542 1.369 . S
C543 C544 1.410 . S
C543 C551 1.503 . S
C544 C543 1.410 . S
C544 C545 1.392 . S
C544 C547 1.511 . S
C545 C541 1.376 . S
C545 C544 1.392 . S
C545 H557 0.929 . S
C546 C542 1.531 . S
C546 H558 0.960 . S
C546 H559 0.962 . S
C546 H560 0.960 . S
C547 C544 1.511 . S
C547 H561 0.961 . S
C547 H562 0.961 . S
C547 H563 0.961 . S
C548 C549 1.370 . S
C548 C550 1.363 . S
C548 H564 0.931 . S
C549 C548 1.370 . S
C549 C553 1.408 . S
C550 C548 1.363 . S
C550 C551 1.370 . S
C550 C554 1.524 . S
C551 C543 1.503 . S
C551 C550 1.370 . S
C551 C552 1.403 . S
C552 C551 1.403 . S
C552 C553 1.404 . S
C552 C555 1.539 . S
C553 C549 1.408 . S
C553 C552 1.404 . S
C553 H565 0.930 . S
C554 C550 1.524 . S
C554 H566 0.956 . S
C554 H567 0.961 . S
C554 H568 0.961 . S
C555 C552 1.539 . S
C555 H569 0.958 . S
C555 H570 0.961 . S
C555 H571 0.960 . S
H556 C540 0.931 . S
H557 C545 0.929 . S
H558 C546 0.960 . S
H559 C546 0.962 . S
H560 C546 0.960 . S
H561 C547 0.961 . S
H562 C547 0.961 . S
H563 C547 0.961 . S
H564 C548 0.931 . S
H565 C553 0.930 . S
H566 C554 0.956 . S
H567 C554 0.961 . S
H568 C554 0.961 . S
H569 C555 0.958 . S
H570 C555 0.961 . S
H571 C555 0.960 . S
C572 C573 1.391 . S
C572 C574 1.394 1_655 S
C572 H588 0.931 1_655 S
C573 C572 1.391 . S
C573 C577 1.376 . S
C574 C572 1.394 1_455 S
C574 C575 1.369 1_455 S
C574 C578 1.531 . S
C575 C574 1.369 1_655 S
C575 C576 1.410 . S
C575 C583 1.503 . S
C576 C575 1.410 . S
C576 C577 1.392 . S
C576 C579 1.511 . S
C577 C573 1.376 . S
C577 C576 1.392 . S
C577 H589 0.929 . S
C578 C574 1.531 . S
C578 H590 0.960 . S
C578 H591 0.962 . S
C578 H592 0.960 . S
C579 C576 1.511 . S
C579 H593 0.961 . S
C579 H594 0.961 . S
C579 H595 0.961 . S
C580 C581 1.370 1_545 S
C580 C582 1.363 1_455 S
C580 H596 0.931 . S
C581 C580 1.370 1_565 S
C581 C585 1.408 1_455 S
C582 C580 1.363 1_655 S
C582 C583 1.370 1_545 S
C582 C586 1.524 . S
C583 C575 1.503 . S
C583 C582 1.370 1_565 S
C583 C584 1.403 . S
C584 C583 1.403 . S
C584 C585 1.404 . S
C584 C587 1.539 . S
C585 C581 1.408 1_655 S
C585 C584 1.404 . S
C585 H597 0.930 . S
C586 C582 1.524 . S
C586 H598 0.956 1_655 S
C586 H599 0.961 . S
C586 H600 0.961 1_655 S
C587 C584 1.539 . S
C587 H601 0.958 . S
C587 H602 0.961 . S
C587 H603 0.960 . S
H588 C572 0.931 1_455 S
H589 C577 0.929 . S
H590 C578 0.960 . S
H591 C578 0.962 . S
H592 C578 0.960 . S
H593 C579 0.961 . S
H594 C579 0.961 . S
H595 C579 0.961 . S
H596 C580 0.931 . S
H597 C585 0.930 . S
H598 C586 0.956 1_455 S
H599 C586 0.961 . S
H600 C586 0.961 1_455 S
H601 C587 0.958 . S
H602 C587 0.961 . S
H603 C587 0.960 . S
C604 C605 1.391 . S
C604 C606 1.394 . S
C604 H620 0.931 . S
C605 C604 1.391 . S
C605 C609 1.376 . S
C606 C604 1.394 . S
C606 C607 1.369 . S
C606 C610 1.521 1_545 S
C607 C606 1.369 . S
C607 C608 1.410 . S
C607 C615 1.503 . S
C608 C607 1.410 . S
C608 C609 1.392 . S
C608 C611 1.511 . S
C609 C605 1.376 . S
C609 C608 1.392 . S
C609 H621 0.929 . S
C610 C606 1.521 1_565 S
C610 H622 0.964 . S
C610 H623 0.960 1_565 S
C610 H624 0.969 . S
C611 C608 1.511 . S
C611 H625 0.961 . S
C611 H626 0.961 . S
C611 H627 0.961 . S
C612 C613 1.370 . S
C612 C614 1.363 . S
C612 H628 0.931 . S
C613 C612 1.370 . S
C613 C617 1.408 . S
C614 C612 1.363 . S
C614 C615 1.370 . S
C614 C618 1.524 . S
C615 C607 1.503 . S
C615 C614 1.370 . S
C615 C616 1.403 . S
C616 C615 1.403 . S
C616 C617 1.404 . S
C616 C619 1.539 . S
C617 C613 1.408 . S
C617 C616 1.404 . S
C617 H629 0.930 . S
C618 C614 1.524 . S
C618 H630 0.956 . S
C618 H631 0.961 . S
C618 H632 0.961 . S
C619 C616 1.539 . S
C619 H633 0.958 1_545 S
C619 H634 0.961 . S
C619 H635 0.960 . S
H620 C604 0.931 . S
H621 C609 0.929 . S
H622 C610 0.964 . S
H623 C610 0.960 1_545 S
H624 C610 0.969 . S
H625 C611 0.961 . S
H626 C611 0.961 . S
H627 C611 0.961 . S
H628 C612 0.931 . S
H629 C617 0.930 . S
H630 C618 0.956 . S
H631 C618 0.961 . S
H632 C618 0.961 . S
H633 C619 0.958 1_565 S
H634 C619 0.961 . S
H635 C619 0.960 . S
C636 C637 1.391 . S
C636 C638 1.394 . S
C636 H652 0.931 . S
C637 C636 1.391 . S
C637 C641 1.376 . S
C638 C636 1.394 . S
C638 C639 1.369 . S
C638 C642 1.531 . S
C639 C638 1.369 . S
C639 C640 1.410 . S
C639 C647 1.503 . S
C640 C639 1.410 . S
C640 C641 1.392 . S
C640 C643 1.511 . S
C641 C637 1.376 . S
C641 C640 1.392 . S
C641 H653 0.929 . S
C642 C638 1.531 . S
C642 H654 0.960 . S
C642 H655 0.962 . S
C642 H656 0.960 . S
C643 C640 1.511 . S
C643 H657 0.961 . S
C643 H658 0.961 . S
C643 H659 0.961 . S
C644 C645 1.370 . S
C644 C646 1.363 . S
C644 H660 0.931 . S
C645 C644 1.370 . S
C645 C649 1.408 . S
C646 C644 1.363 . S
C646 C647 1.370 . S
C646 C650 1.524 . S
C647 C639 1.503 . S
C647 C646 1.370 . S
C647 C648 1.403 . S
C648 C647 1.403 . S
C648 C649 1.404 . S
C648 C651 1.539 . S
C649 C645 1.408 . S
C649 C648 1.404 . S
C649 H661 0.930 . S
C650 C646 1.524 . S
C650 H662 0.956 . S
C650 H663 0.961 . S
C650 H664 0.961 . S
C651 C648 1.539 . S
C651 H665 0.958 . S
C651 H666 0.961 . S
C651 H667 0.960 . S
H652 C636 0.931 . S
H653 C641 0.929 . S
H654 C642 0.960 . S
H655 C642 0.962 . S
H656 C642 0.960 . S
H657 C643 0.961 . S
H658 C643 0.961 . S
H659 C643 0.961 . S
H660 C644 0.931 . S
H661 C649 0.930 . S
H662 C650 0.956 . S
H663 C650 0.961 . S
H664 C650 0.961 . S
H665 C651 0.958 . S
H666 C651 0.961 . S
H667 C651 0.960 . S
C668 C669 1.391 . S
C668 C670 1.394 . S
C668 H684 0.931 . S
C669 C668 1.391 . S
C669 C673 1.376 . S
C670 C668 1.394 . S
C670 C671 1.369 . S
C670 C674 1.531 . S
C671 C670 1.369 . S
C671 C672 1.410 . S
C671 C679 1.503 . S
C672 C671 1.410 . S
C672 C673 1.392 . S
C672 C675 1.511 . S
C673 C669 1.376 . S
C673 C672 1.392 . S
C673 H685 0.929 . S
C674 C670 1.531 . S
C674 H686 0.960 . S
C674 H687 0.962 1_455 S
C674 H688 0.960 . S
C675 C672 1.511 . S
C675 H689 0.961 . S
C675 H690 0.961 . S
C675 H691 0.961 . S
C676 C677 1.370 . S
C676 C678 1.363 . S
C676 H692 0.931 1_455 S
C677 C676 1.370 . S
C677 C681 1.408 . S
C678 C676 1.363 . S
C678 C679 1.370 . S
C678 C682 1.524 1_455 S
C679 C671 1.503 . S
C679 C678 1.370 . S
C679 C680 1.403 . S
C680 C679 1.403 . S
C680 C681 1.404 . S
C680 C683 1.539 . S
C681 C677 1.408 . S
C681 C680 1.404 . S
C681 H693 0.930 . S
C682 C678 1.524 1_655 S
C682 H694 0.956 . S
C682 H695 0.961 1_655 S
C682 H696 0.961 . S
C683 C680 1.539 . S
C683 H697 0.958 . S
C683 H698 0.961 . S
C683 H699 0.960 . S
H684 C668 0.931 . S
H685 C673 0.929 . S
H686 C674 0.960 . S
H687 C674 0.962 1_655 S
H688 C674 0.960 . S
H689 C675 0.961 . S
H690 C675 0.961 . S
H691 C675 0.961 . S
H692 C676 0.931 1_655 S
H693 C681 0.930 . S
H694 C682 0.956 . S
H695 C682 0.961 1_455 S
H696 C682 0.961 . S
H697 C683 0.958 . S
H698 C683 0.961 . S
H699 C683 0.960 . S
C700 C701 1.391 1_544 S
C700 C702 1.394 . S
C700 H716 0.931 . S
C701 C700 1.391 1_566 S
C701 C705 1.376 . S
C702 C700 1.394 . S
C702 C703 1.369 1_545 S
C702 C706 1.531 . S
C703 C702 1.369 1_565 S
C703 C704 1.410 1_554 S
C703 C711 1.503 . S
C704 C703 1.410 1_556 S
C704 C705 1.392 . S
C704 C707 1.511 . S
C705 C701 1.376 . S
C705 C704 1.392 . S
C705 H717 0.929 . S
C706 C702 1.531 . S
C706 H718 0.960 . S
C706 H719 0.962 . S
C706 H720 0.960 . S
C707 C704 1.511 . S
C707 H721 0.961 . S
C707 H722 0.961 . S
C707 H723 0.961 . S
C708 C709 1.370 1_565 S
C708 C710 1.363 . S
C708 H724 0.931 . S
C709 C708 1.370 1_545 S
C709 C713 1.408 . S
C710 C708 1.363 . S
C710 C711 1.370 . S
C710 C714 1.524 . S
C711 C703 1.503 . S
C711 C710 1.370 . S
C711 C712 1.403 1_564 S
C712 C711 1.403 1_546 S
C712 C713 1.404 1_556 S
C712 C715 1.539 . S
C713 C709 1.408 . S
C713 C712 1.404 1_554 S
C713 H725 0.930 1_554 S
C714 C710 1.524 . S
C714 H726 0.956 . S
C714 H727 0.961 . S
C714 H728 0.961 . S
C715 C712 1.539 . S
C715 H729 0.958 . S
C715 H730 0.961 . S
C715 H731 0.960 . S
H716 C700 0.931 . S
H717 C705 0.929 . S
H718 C706 0.960 . S
H719 C706 0.962 . S
H720 C706 0.960 . S
H721 C707 0.961 . S
H722 C707 0.961 . S
H723 C707 0.961 . S
H724 C708 0.931 . S
H725 C713 0.930 1_556 S
H726 C714 0.956 . S
H727 C714 0.961 . S
H728 C714 0.961 . S
H729 C715 0.958 . S
H730 C715 0.961 . S
H731 C715 0.960 . S
C732 C733 1.391 . S
C732 C734 1.394 . S
C732 H748 0.931 . S
C733 C732 1.391 . S
C733 C737 1.376 . S
C734 C732 1.394 . S
C734 C735 1.369 . S
C734 C738 1.531 . S
C735 C734 1.369 . S
C735 C736 1.410 . S
C735 C743 1.503 . S
C736 C735 1.410 . S
C736 C737 1.392 . S
C736 C739 1.511 . S
C737 C733 1.376 . S
C737 C736 1.392 . S
C737 H749 0.929 . S
C738 C734 1.531 . S
C738 H750 0.960 . S
C738 H751 0.962 1_545 S
C738 H752 0.960 . S
C739 C736 1.511 . S
C739 H753 0.961 . S
C739 H754 0.961 . S
C739 H755 0.961 . S
C740 C741 1.370 . S
C740 C742 1.363 . S
C740 H756 0.931 . S
C741 C740 1.370 . S
C741 C745 1.408 . S
C742 C740 1.363 . S
C742 C743 1.370 . S
C742 C746 1.524 . S
C743 C735 1.503 . S
C743 C742 1.370 . S
C743 C744 1.403 . S
C744 C743 1.403 . S
C744 C745 1.404 . S
C744 C747 1.539 . S
C745 C741 1.408 . S
C745 C744 1.404 . S
C745 H757 0.930 . S
C746 C742 1.524 . S
C746 H758 0.956 . S
C746 H759 0.961 . S
C746 H760 0.961 . S
C747 C744 1.539 . S
C747 H761 0.958 . S
C747 H762 0.961 . S
C747 H763 0.960 . S
H748 C732 0.931 . S
H749 C737 0.929 . S
H750 C738 0.960 . S
H751 C738 0.962 1_565 S
H752 C738 0.960 . S
H753 C739 0.961 . S
H754 C739 0.961 . S
H755 C739 0.961 . S
H756 C740 0.931 . S
H757 C745 0.930 . S
H758 C746 0.956 . S
H759 C746 0.961 . S
H760 C746 0.961 . S
H761 C747 0.958 . S
H762 C747 0.961 . S
H763 C747 0.960 . S
C764 C765 1.391 . S
C764 C766 1.394 . S
C764 H780 0.931 . S
C765 C764 1.391 . S
C765 C769 1.376 . S
C766 C764 1.394 . S
C766 C767 1.369 . S
C766 C770 1.531 . S
C767 C766 1.369 . S
C767 C768 1.410 . S
C767 C775 1.503 . S
C768 C767 1.410 . S
C768 C769 1.392 . S
C768 C771 1.511 1_554 S
C769 C765 1.376 . S
C769 C768 1.392 . S
C769 H781 0.929 . S
C770 C766 1.531 . S
C770 H782 0.960 . S
C770 H783 0.962 . S
C770 H784 0.960 . S
C771 C768 1.511 1_556 S
C771 H785 0.961 . S
C771 H786 0.961 . S
C771 H787 0.961 . S
C772 C773 1.370 . S
C772 C774 1.363 . S
C772 H788 0.931 . S
C773 C772 1.370 . S
C773 C777 1.408 . S
C774 C772 1.363 . S
C774 C775 1.370 . S
C774 C778 1.524 . S
C775 C767 1.503 . S
C775 C774 1.370 . S
C775 C776 1.403 . S
C776 C775 1.403 . S
C776 C777 1.404 . S
C776 C779 1.539 . S
C777 C773 1.408 . S
C777 C776 1.404 . S
C777 H789 0.930 . S
C778 C774 1.524 . S
C778 H790 0.956 . S
C778 H791 0.961 . S
C778 H792 0.961 . S
C779 C776 1.539 . S
C779 H793 0.958 . S
C779 H794 0.961 . S
C779 H795 0.960 . S
H780 C764 0.931 . S
H781 C769 0.929 . S
H782 C770 0.960 . S
H783 C770 0.962 . S
H784 C770 0.960 . S
H785 C771 0.961 . S
H786 C771 0.961 . S
H787 C771 0.961 . S
H788 C772 0.931 . S
H789 C777 0.930 . S
H790 C778 0.956 . S
H791 C778 0.961 . S
H792 C778 0.961 . S
H793 C779 0.958 . S
H794 C779 0.961 . S
H795 C779 0.960 . S
C796 C797 1.391 . S
C796 C798 1.394 . S
C796 H812 0.931 . S
C797 C796 1.391 . S
C797 C801 1.376 . S
C798 C796 1.394 . S
C798 C799 1.369 . S
C798 C802 1.531 . S
C799 C798 1.369 . S
C799 C800 1.410 . S
C799 C807 1.503 . S
C800 C799 1.410 . S
C800 C801 1.392 . S
C800 C803 1.511 . S
C801 C797 1.376 . S
C801 C800 1.392 . S
C801 H813 0.929 . S
C802 C798 1.531 . S
C802 H814 0.960 . S
C802 H815 0.962 . S
C802 H816 0.960 . S
C803 C800 1.511 . S
C803 H817 0.961 . S
C803 H818 0.961 . S
C803 H819 0.961 . S
C804 C805 1.370 . S
C804 C806 1.363 . S
C804 H820 0.931 . S
C805 C804 1.370 . S
C805 C809 1.408 . S
C806 C804 1.363 . S
C806 C807 1.370 . S
C806 C810 1.524 . S
C807 C799 1.503 . S
C807 C806 1.370 . S
C807 C808 1.403 . S
C808 C807 1.403 . S
C808 C809 1.404 . S
C808 C811 1.539 . S
C809 C805 1.408 . S
C809 C808 1.404 . S
C809 H821 0.930 . S
C810 C806 1.524 . S
C810 H822 0.956 . S
C810 H823 0.961 . S
C810 H824 0.961 . S
C811 C808 1.539 . S
C811 H825 0.958 . S
C811 H826 0.961 . S
C811 H827 0.960 . S
H812 C796 0.931 . S
H813 C801 0.929 . S
H814 C802 0.960 . S
H815 C802 0.962 . S
H816 C802 0.960 . S
H817 C803 0.961 . S
H818 C803 0.961 . S
H819 C803 0.961 . S
H820 C804 0.931 . S
H821 C809 0.930 . S
H822 C810 0.956 . S
H823 C810 0.961 . S
H824 C810 0.961 . S
H825 C811 0.958 . S
H826 C811 0.961 . S
H827 C811 0.960 . S
C828 C829 1.391 . S
C828 C830 1.394 . S
C828 H844 0.931 . S
C829 C828 1.391 . S
C829 C833 1.376 . S
C830 C828 1.394 . S
C830 C831 1.369 . S
C830 C834 1.531 . S
C831 C830 1.369 . S
C831 C832 1.410 . S
C831 C839 1.503 . S
C832 C831 1.410 . S
C832 C833 1.392 . S
C832 C835 1.511 1_656 S
C833 C829 1.376 . S
C833 C832 1.392 . S
C833 H845 0.929 1_656 S
C834 C830 1.531 . S
C834 H846 0.960 . S
C834 H847 0.962 . S
C834 H848 0.960 . S
C835 C832 1.511 1_454 S
C835 H849 0.961 . S
C835 H850 0.961 . S
C835 H851 0.961 . S
C836 C837 1.370 1_554 S
C836 C838 1.363 1_554 S
C836 H852 0.931 . S
C837 C836 1.370 1_556 S
C837 C841 1.408 1_655 S
C838 C836 1.363 1_556 S
C838 C839 1.374 . S
C838 C842 1.521 1_556 S
C839 C831 1.503 . S
C839 C838 1.374 . S
C839 C840 1.403 1_655 S
C840 C839 1.403 1_455 S
C840 C841 1.404 . S
C840 C843 1.539 . S
C841 C837 1.408 1_455 S
C841 C840 1.404 . S
C841 H853 0.930 . S
C842 C838 1.521 1_554 S
C842 H854 0.956 . S
C842 H855 0.961 . S
C842 H856 0.961 . S
C843 C840 1.539 . S
C843 H857 0.958 . S
C843 H858 0.961 . S
C843 H859 0.960 . S
H844 C828 0.931 . S
H845 C833 0.929 1_454 S
H846 C834 0.960 . S
H847 C834 0.962 . S
H848 C834 0.960 . S
H849 C835 0.961 . S
H850 C835 0.961 . S
H851 C835 0.961 . S
H852 C836 0.931 . S
H853 C841 0.930 . S
H854 C842 0.956 . S
H855 C842 0.961 . S
H856 C842 0.961 . S
H857 C843 0.958 . S
H858 C843 0.961 . S
H859 C843 0.960 . S
C860 C861 1.391 . S
C860 C862 1.394 . S
C860 H876 0.931 . S
C861 C860 1.391 . S
C861 C865 1.376 . S
C862 C860 1.394 . S
C862 C863 1.369 . S
C862 C866 1.531 . S
C863 C862 1.369 . S
C863 C864 1.410 . S
C863 C871 1.503 . S
C864 C863 1.410 . S
C864 C865 1.392 . S
C864 C867 1.511 . S
C865 C861 1.376 . S
C865 C864 1.392 . S
C865 H877 0.929 . S
C866 C862 1.531 . S
C866 H878 0.960 . S
C866 H879 0.962 . S
C866 H880 0.960 . S
C867 C864 1.511 . S
C867 H881 0.961 . S
C867 H882 0.961 . S
C867 H883 0.961 . S
C868 C869 1.370 . S
C868 C870 1.363 . S
C868 H884 0.931 . S
C869 C868 1.370 . S
C869 C873 1.408 . S
C870 C868 1.363 . S
C870 C871 1.370 . S
C870 C874 1.524 . S
C871 C863 1.503 . S
C871 C870 1.370 . S
C871 C872 1.403 . S
C872 C871 1.403 . S
C872 C873 1.404 . S
C872 C875 1.539 . S
C873 C869 1.408 . S
C873 C872 1.404 . S
C873 H885 0.930 . S
C874 C870 1.524 . S
C874 H886 0.956 . S
C874 H887 0.961 . S
C874 H888 0.961 . S
C875 C872 1.539 . S
C875 H889 0.958 . S
C875 H890 0.961 . S
C875 H891 0.960 . S
H876 C860 0.931 . S
H877 C865 0.929 . S
H878 C866 0.960 . S
H879 C866 0.962 . S
H880 C866 0.960 . S
H881 C867 0.961 . S
H882 C867 0.961 . S
H883 C867 0.961 . S
H884 C868 0.931 . S
H885 C873 0.930 . S
H886 C874 0.956 . S
H887 C874 0.961 . S
H888 C874 0.961 . S
H889 C875 0.958 . S
H890 C875 0.961 . S
H891 C875 0.960 . S
C892 C893 1.391 . S
C892 C894 1.394 . S
C892 H908 0.931 . S
C893 C892 1.391 . S
C893 C897 1.376 . S
C894 C892 1.394 . S
C894 C895 1.369 . S
C894 C898 1.531 . S
C895 C894 1.369 . S
C895 C896 1.410 . S
C895 C903 1.503 . S
C896 C895 1.410 . S
C896 C897 1.392 . S
C896 C899 1.511 1_455 S
C897 C893 1.376 . S
C897 C896 1.392 . S
C897 H909 0.929 . S
C898 C894 1.531 . S
C898 H910 0.960 . S
C898 H911 0.962 . S
C898 H912 0.960 . S
C899 C896 1.511 1_655 S
C899 H913 0.961 . S
C899 H914 0.961 . S
C899 H915 0.961 . S
C900 C901 1.370 . S
C900 C902 1.363 . S
C900 H916 0.931 . S
C901 C900 1.370 . S
C901 C905 1.408 . S
C902 C900 1.363 . S
C902 C903 1.370 . S
C902 C906 1.524 . S
C903 C895 1.503 . S
C903 C902 1.370 . S
C903 C904 1.403 . S
C904 C903 1.403 . S
C904 C905 1.404 . S
C904 C907 1.539 . S
C905 C901 1.408 . S
C905 C904 1.404 . S
C905 H917 0.930 . S
C906 C902 1.524 . S
C906 H918 0.956 . S
C906 H919 0.961 . S
C906 H920 0.961 . S
C907 C904 1.539 . S
C907 H921 0.958 . S
C907 H922 0.961 . S
C907 H923 0.960 . S
H908 C892 0.931 . S
H909 C897 0.929 . S
H910 C898 0.960 . S
H911 C898 0.962 . S
H912 C898 0.960 . S
H913 C899 0.961 . S
H914 C899 0.961 . S
H915 C899 0.961 . S
H916 C900 0.931 . S
H917 C905 0.930 . S
H918 C906 0.956 . S
H919 C906 0.961 . S
H920 C906 0.961 . S
H921 C907 0.958 . S
H922 C907 0.961 . S
H923 C907 0.960 . S
C924 C925 1.391 . S
C924 C926 1.394 . S
C924 H940 0.931 . S
C925 C924 1.391 . S
C925 C929 1.376 . S
C926 C924 1.394 . S
C926 C927 1.369 . S
C926 C930 1.531 . S
C927 C926 1.369 . S
C927 C928 1.410 . S
C927 C935 1.503 . S
C928 C927 1.410 . S
C928 C929 1.392 . S
C928 C931 1.511 . S
C929 C925 1.376 . S
C929 C928 1.392 . S
C929 H941 0.929 . S
C930 C926 1.531 . S
C930 H942 0.960 . S
C930 H943 0.962 . S
C930 H944 0.960 . S
C931 C928 1.511 . S
C931 H945 0.961 . S
C931 H946 0.961 . S
C931 H947 0.961 . S
C932 C933 1.370 . S
C932 C934 1.363 . S
C932 H948 0.931 . S
C933 C932 1.370 . S
C933 C937 1.408 . S
C934 C932 1.363 . S
C934 C935 1.370 . S
C934 C938 1.524 . S
C935 C927 1.503 . S
C935 C934 1.370 . S
C935 C936 1.403 . S
C936 C935 1.403 . S
C936 C937 1.404 . S
C936 C939 1.539 . S
C937 C933 1.408 . S
C937 C936 1.404 . S
C937 H949 0.930 . S
C938 C934 1.524 . S
C938 H950 0.956 . S
C938 H951 0.961 . S
C938 H952 0.961 . S
C939 C936 1.539 . S
C939 H953 0.958 . S
C939 H954 0.961 . S
C939 H955 0.960 . S
H940 C924 0.931 . S
H941 C929 0.929 . S
H942 C930 0.960 . S
H943 C930 0.962 . S
H944 C930 0.960 . S
H945 C931 0.961 . S
H946 C931 0.961 . S
H947 C931 0.961 . S
H948 C932 0.931 . S
H949 C937 0.930 . S
H950 C938 0.956 . S
H951 C938 0.961 . S
H952 C938 0.961 . S
H953 C939 0.958 . S
H954 C939 0.961 . S
H955 C939 0.960 . S
C189 N1 1.487 . S
C197 C107 1.409 . S
C221 N18 1.809 . S
C229 C141 1.742 1_565 S
C261 C153 1.002 . S
C253 N28 1.089 . S
C285 N40 1.644 . S
C293 C187 1.564 . S
C325 C144 1.724 . S
C317 N5 1.840 . S
C357 C124 1.479 . S
C349 N14 1.508 . S
C389 C171 1.360 . S
C381 N31 1.491 . S
C421 C162 1.133 . S
C413 N41 1.191 . S
C445 N2 1.439 . S
C453 C170 1.380 . S
C485 C132 1.463 1_556 S
C477 N27 1.587 . S
C509 N44 1.606 . S
C517 C108 1.552 1_655 S
C541 N15 1.382 . S
C549 C165 1.276 . S
C581 C123 1.680 1_565 S
C573 N57 1.811 . S
C605 N70 1.364 . S
C613 C145 1.290 . S
C637 N79 1.398 . S
C645 C150 1.406 . S
C669 N93 1.384 . S
C677 C183 1.342 . S
C701 N54 1.524 . S
C709 C128 1.468 1_545 S
C741 C120 1.872 . S
C733 N66 1.960 . S
C773 C174 1.062 . S
C765 N80 1.096 . S
C805 C166 1.459 . S
C797 N96 1.478 . S
C829 N53 1.566 . S
C837 C186 1.444 1_655 S
C869 C129 1.465 . S
C861 N83 1.545 . S
C901 C111 1.545 . S
C893 N92 1.654 . S
C925 N67 1.498 . S
C933 C149 1.453 . S
