# Generated by pormake.
# Topology tsx, (6,3)-cn, num edge types: 1
# Building blocks:
#     Node 0, Type 0, BuildingBlock: MIDCAF_clean_sbu_0, # of connection points: 6
#     Node 1, Type 0, BuildingBlock: MIDCAF_clean_sbu_0, # of connection points: 6
#     Node 2, Type 1, BuildingBlock: KAKCAD_clean_linker_0, # of connection points: 3
#     Node 3, Type 1, BuildingBlock: KAKCAD_clean_linker_0, # of connection points: 3
#     Node 4, Type 1, BuildingBlock: KAKCAD_clean_linker_0, # of connection points: 3
#     Node 5, Type 1, BuildingBlock: KAKCAD_clean_linker_0, # of connection points: 3
#     Edge 6, Type (0, 1), BuildingBlock: MIFKUJ_clean_linker_0, # of connection points: 2
#     Edge 7, Type (0, 1), BuildingBlock: MIFKUJ_clean_linker_0, # of connection points: 2
#     Edge 8, Type (0, 1), BuildingBlock: MIFKUJ_clean_linker_0, # of connection points: 2
#     Edge 9, Type (0, 1), BuildingBlock: MIFKUJ_clean_linker_0, # of connection points: 2
#     Edge 10, Type (0, 1), BuildingBlock: MIFKUJ_clean_linker_0, # of connection points: 2
#     Edge 11, Type (0, 1), BuildingBlock: MIFKUJ_clean_linker_0, # of connection points: 2
#     Edge 12, Type (0, 1), BuildingBlock: MIFKUJ_clean_linker_0, # of connection points: 2
#     Edge 13, Type (0, 1), BuildingBlock: MIFKUJ_clean_linker_0, # of connection points: 2
#     Edge 14, Type (0, 1), BuildingBlock: MIFKUJ_clean_linker_0, # of connection points: 2
#     Edge 15, Type (0, 1), BuildingBlock: MIFKUJ_clean_linker_0, # of connection points: 2
#     Edge 16, Type (0, 1), BuildingBlock: MIFKUJ_clean_linker_0, # of connection points: 2
#     Edge 17, Type (0, 1), BuildingBlock: MIFKUJ_clean_linker_0, # of connection points: 2
# Relax obj value: 0.118
# Max RMSD: 0.182
# Mean RMSD: 0.113
data_MOF--net-tsx--node1-MIDCAF_clean_sbu_0--node2-KAKCAD_clean_linker_0--edge1-MIFKUJ_clean_linker_0
_symmetry_space_group_name_H-M    P1
_symmetry_Int_Tables_number       1
_symmetry_cell_setting            triclinic
loop_
_symmetry_equiv_pos_as_xyz
'x, y, z'
_cell_length_a     29.857169
_cell_length_b     30.777863
_cell_length_c     58.301631
_cell_angle_alpha  90.758966
_cell_angle_beta   93.927582
_cell_angle_gamma 89.950996
loop_
_atom_site_label
_atom_site_type_symbol
_atom_site_fract_x
_atom_site_fract_y
_atom_site_fract_z
_atom_type_partial_charge
Zn0 Zn 0.95798 0.01231 0.98314 0.0
Zn1 Zn 0.11191 0.01109 0.03342 0.0
Zn2 Zn 0.03458 0.01355 0.00924 0.0
C3 C 0.08845 0.0986 0.02924 0.0
C4 C 0.12767 0.97002 0.99299 0.0
O5 O 0.98375 0.97718 0.0274 0.0
O6 O 0.92066 0.98403 0.00546 0.0
C7 C 0.98202 0.09953 0.99123 0.0
O8 O 0.05526 0.08196 0.01681 0.0
O9 O 0.11756 0.07428 0.03918 0.0
O10 O 0.14976 0.98373 0.01083 0.0
O11 O 0.08521 0.97777 0.99 0.0
O12 O 0.95394 0.07614 0.97955 0.0
O13 O 0.01399 0.082 0.00389 0.0
O14 O 0.04559 0.9826 0.97559 0.0
O15 O 0.97862 0.97763 0.95699 0.0
C16 C 0.02041 0.97099 0.9577 0.0
O17 O 0.02354 0.98065 0.04192 0.0
O18 O 0.09194 0.97538 0.05873 0.0
C19 C 0.94138 0.96991 0.02343 0.0
C20 C 0.0503 0.96838 0.0589 0.0
Zn21 Zn 0.61278 0.5094 0.53823 0.0
Zn22 Zn 0.45448 0.51839 0.48818 0.0
Zn23 Zn 0.53469 0.51502 0.51333 0.0
C24 C 0.51956 0.48344 0.46027 0.0
C25 C 0.47963 0.60369 0.50174 0.0
O26 O 0.52337 0.47992 0.54537 0.0
O27 O 0.59094 0.47352 0.56308 0.0
C28 C 0.62573 0.46972 0.49625 0.0
O29 O 0.54483 0.48849 0.47892 0.0
O30 O 0.47846 0.49355 0.45967 0.0
O31 O 0.44774 0.58236 0.49171 0.0
O32 O 0.51511 0.58431 0.51025 0.0
O33 O 0.64785 0.48099 0.51459 0.0
O34 O 0.58381 0.47965 0.49309 0.0
O35 O 0.55704 0.58188 0.52224 0.0
O36 O 0.61959 0.57267 0.54435 0.0
C37 C 0.59056 0.59755 0.53477 0.0
O38 O 0.48433 0.47635 0.53039 0.0
O39 O 0.42119 0.48042 0.50821 0.0
C40 C 0.54917 0.46675 0.56253 0.0
C41 C 0.44277 0.46606 0.52589 0.0
C42 C 0.03643 0.96475 0.31317 0.0
C43 C 0.03262 0.99892 0.29741 0.0
C44 C 0.04317 0.97349 0.33674 0.0
C45 C 0.0459 0.01658 0.34501 0.0
C46 C 0.04205 0.05072 0.32923 0.0
C47 C 0.03557 0.04198 0.30569 0.0
C48 C 0.05169 0.026 0.37005 0.0
C49 C 0.08287 0.00277 0.38416 0.0
C50 C 0.08781 0.0109 0.40803 0.0
C51 C 0.06084 0.04296 0.41772 0.0
C52 C 0.02984 0.06677 0.40363 0.0
C53 C 0.0256 0.05811 0.37991 0.0
C54 C 1.00037 0.10011 0.41318 0.0
C55 C 0.97017 0.08906 0.42958 0.0
C56 C 0.99841 0.14181 0.40369 0.0
C57 C 0.96572 0.17142 0.40978 0.0
C58 C 0.93395 0.15976 0.4253 0.0
C59 C 0.12155 0.98579 0.4224 0.0
C60 C 0.12705 0.94112 0.41818 0.0
C61 C 0.15029 0.00637 0.43932 0.0
C62 C 0.18477 0.98299 0.45115 0.0
C63 C 0.19106 0.93853 0.44637 0.0
C64 C 0.16139 0.9179 0.42989 0.0
C65 C 0.93697 0.11857 0.43548 0.0
H66 H 0.0347 0.93124 0.30725 0.0
H67 H 0.0456 0.94655 0.34853 0.0
H68 H 0.04434 0.08424 0.33509 0.0
H69 H 0.0324 0.069 0.29397 0.0
H70 H 0.10407 0.97888 0.37641 0.0
H71 H 1.00081 0.07567 0.36918 0.0
H72 H 0.06382 0.04935 0.43608 0.0
H73 H 0.97084 0.05692 0.43696 0.0
H74 H 0.0213 0.15094 0.39094 0.0
H75 H 0.96405 0.20277 0.40153 0.0
H76 H 0.10514 0.92411 0.40549 0.0
H77 H 0.14708 0.04081 0.44288 0.0
H78 H 0.91312 0.10891 0.44764 0.0
H79 H 0.16543 0.88392 0.42544 0.0
H80 H 0.20667 -0.00018 0.46391 0.0
C81 C 0.05592 0.01788 0.71623 0.0
C82 C 0.0547 0.97396 0.72238 0.0
C83 C 0.04582 0.03017 0.69353 0.0
C84 C 0.03464 0.99882 0.67633 0.0
C85 C 0.03278 0.95486 0.68253 0.0
C86 C 0.04255 0.94257 0.70536 0.0
C87 C 0.02619 0.01221 0.65199 0.0
C88 C 0.05259 0.04484 0.6431 0.0
C89 C 0.04504 0.05843 0.62032 0.0
C90 C 0.01057 0.03914 0.60612 0.0
C91 C 0.98381 0.00636 0.61468 0.0
C92 C 0.99195 0.99289 0.63757 0.0
C93 C 0.94708 0.98611 0.59991 0.0
C94 C 0.91349 0.01176 0.58874 0.0
C95 C 0.94448 0.94071 0.5977 0.0
C96 C 0.90868 0.92123 0.5848 0.0
C97 C 0.87439 0.94672 0.57413 0.0
C98 C 0.07435 0.09226 0.61163 0.0
C99 C 0.08036 0.1318 0.62372 0.0
C100 C 0.09961 0.08373 0.59264 0.0
C101 C 0.13186 0.11358 0.58647 0.0
C102 C 0.13868 0.15268 0.59896 0.0
C103 C 0.11199 0.16188 0.61734 0.0
C104 C 0.8771 0.99218 0.57615 0.0
H105 H 0.06413 0.0429 0.72908 0.0
H106 H 0.04655 0.0644 0.6895 0.0
H107 H 0.02471 0.92985 0.66967 0.0
H108 H 0.04143 0.90847 0.70964 0.0
H109 H 0.08003 0.05914 0.65378 0.0
H110 H 0.97076 0.96817 0.64428 0.0
H111 H 0.00468 0.04951 0.58847 0.0
H112 H 0.9147 0.04685 0.59034 0.0
H113 H 0.97003 0.92029 0.60612 0.0
H114 H 0.90704 0.88607 0.58378 0.0
H115 H 0.06123 0.13897 0.63845 0.0
H116 H 0.09572 0.05326 0.58321 0.0
H117 H 0.85095 0.01245 0.56814 0.0
H118 H 0.11678 0.19165 0.62734 0.0
H119 H 0.15184 0.10592 0.57213 0.0
C120 C 0.54065 0.45302 0.81624 0.0
C121 C 0.53958 0.48539 0.79943 0.0
C122 C 0.54731 0.46417 0.83959 0.0
C123 C 0.55246 0.50791 0.8465 0.0
C124 C 0.55147 0.54016 0.82966 0.0
C125 C 0.54519 0.52903 0.80641 0.0
C126 C 0.55769 0.52037 0.8712 0.0
C127 C 0.58776 0.49826 0.88648 0.0
C128 C 0.59347 0.51118 0.90972 0.0
C129 C 0.56799 0.54591 0.91778 0.0
C130 C 0.53726 0.56779 0.90269 0.0
C131 C 0.53261 0.55502 0.87947 0.0
C132 C 0.5083 0.60292 0.91094 0.0
C133 C 0.48158 0.59593 0.92944 0.0
C134 C 0.50385 0.64203 0.89884 0.0
C135 C 0.47208 0.67292 0.90457 0.0
C136 C 0.44378 0.66506 0.92234 0.0
C137 C 0.62664 0.4885 0.92533 0.0
C138 C 0.62533 0.44309 0.927 0.0
C139 C 0.6612 0.51173 0.9376 0.0
C140 C 0.69488 0.48967 0.95068 0.0
C141 C 0.69388 0.44414 0.95207 0.0
C142 C 0.65841 0.42116 0.9404 0.0
C143 C 0.44936 0.62663 0.935 0.0
H144 H 0.53673 0.4191 0.81133 0.0
H145 H 0.54764 0.43869 0.85224 0.0
H146 H 0.5557 0.5741 0.83448 0.0
H147 H 0.5441 0.55474 0.79386 0.0
H148 H 0.60778 0.47184 0.88016 0.0
H149 H 0.50834 0.57138 0.86789 0.0
H150 H 0.57192 0.55572 0.93573 0.0
H151 H 0.48419 0.56589 0.93892 0.0
H152 H 0.5242 0.64819 0.88454 0.0
H153 H 0.46838 0.70215 0.89446 0.0
H154 H 0.59895 0.42454 0.91771 0.0
H155 H 0.66298 0.54678 0.93643 0.0
H156 H 0.42825 0.62 0.94893 0.0
H157 H 0.65713 0.38601 0.94098 0.0
H158 H 0.7219 0.50807 0.95952 0.0
C159 C 0.54029 0.5294 0.21701 0.0
C160 C 0.5442 0.48624 0.22448 0.0
C161 C 0.53333 0.53852 0.19366 0.0
C162 C 0.52992 0.50471 0.17722 0.0
C163 C 0.53354 0.46148 0.18465 0.0
C164 C 0.54089 0.45234 0.20806 0.0
C165 C 0.52346 0.51478 0.1524 0.0
C166 C 0.54895 0.54759 0.14311 0.0
C167 C 0.54333 0.55762 0.1197 0.0
C168 C 0.5116 0.53461 0.10539 0.0
C169 C 0.48513 0.50201 0.11447 0.0
C170 C 0.4916 0.49219 0.138 0.0
C171 C 0.44989 0.4788 0.09975 0.0
C172 C 0.42136 0.50142 0.08383 0.0
C173 C 0.44314 0.43402 0.10237 0.0
C174 C 0.40798 0.41261 0.08992 0.0
C175 C 0.37872 0.4353 0.07437 0.0
C176 C 0.57124 0.59219 0.11057 0.0
C177 C 0.5731 0.63334 0.12122 0.0
C178 C 0.59874 0.58341 0.0925 0.0
C179 C 0.62912 0.61474 0.08588 0.0
C180 C 0.63211 0.65563 0.09704 0.0
C181 C 0.60286 0.66483 0.11441 0.0
C182 C 0.38611 0.47991 0.0713 0.0
H183 H 0.54314 0.55623 0.22924 0.0
H184 H 0.53033 0.57213 0.18847 0.0
H185 H 0.53138 0.4348 0.17232 0.0
H186 H 0.5435 0.41877 0.21335 0.0
H187 H 0.57406 0.56484 0.15404 0.0
H188 H 0.47081 0.46786 0.14534 0.0
H189 H 0.5074 0.5423 0.08728 0.0
H190 H 0.42542 0.53602 0.08153 0.0
H191 H 0.4648 0.4155 0.11427 0.0
H192 H 0.40302 0.37839 0.09303 0.0
H193 H 0.55184 0.64095 0.13507 0.0
H194 H 0.59809 0.55171 0.08418 0.0
H195 H 0.36449 0.4983 0.05932 0.0
H196 H 0.6032 0.69627 0.12296 0.0
H197 H 0.65132 0.60626 0.07259 0.0
H198 H 0.07107 0.16097 0.99648 0.0
H199 H 0.09951 0.23591 0.99808 0.0
H200 H 0.15347 0.21592 0.06775 0.0
H201 H 0.12363 0.14248 0.06649 0.0
H202 H 0.13076 0.29695 0.06354 0.0
H203 H 0.21432 0.19134 0.01881 0.0
H204 H 0.22067 0.13999 0.98631 0.0
H205 H 0.18444 0.24139 0.93864 0.0
H206 H 0.17748 0.2932 0.97093 0.0
H207 H 0.37625 0.3531 0.05586 0.0
H208 H 0.31039 0.31174 0.0417 0.0
H209 H 0.227 0.42465 0.05008 0.0
H210 H 0.29266 0.4657 0.06557 0.0
H211 H 0.24842 0.31286 0.00815 0.0
H212 H 0.12575 0.3907 0.06761 0.0
H213 H 0.12586 0.43364 0.1037 0.0
H214 H 0.25138 0.37591 0.12731 0.0
H215 H 0.2517 0.33234 0.09148 0.0
C216 C 0.08726 0.17337 0.01241 0.0
C217 C 0.09536 0.14598 0.03133 0.0
C218 C 0.10396 0.216 0.01324 0.0
C219 C 0.12949 0.23133 0.03289 0.0
C220 C 0.13401 0.20503 0.05238 0.0
C221 C 0.11718 0.16285 0.0516 0.0
C222 C 0.15714 0.27148 0.03263 0.0
C223 C 0.15583 0.30106 0.05112 0.0
C224 C 0.19018 0.27681 0.01657 0.0
C225 C 0.1949 0.24591 0.99722 0.0
C226 C 0.20757 0.20257 0.00139 0.0
C227 C 0.21126 0.17341 0.98302 0.0
C228 C 0.20282 0.18738 0.96042 0.0
C229 C 0.19085 0.23059 0.95615 0.0
C230 C 0.18703 0.25986 0.97446 0.0
C231 C 0.34394 0.36924 0.05472 0.0
C232 C 0.3397 0.41249 0.06233 0.0
C233 C 0.30629 0.34567 0.0463 0.0
C234 C 0.26351 0.36481 0.04513 0.0
C235 C 0.25953 0.40893 0.05116 0.0
C236 C 0.29723 0.43249 0.05983 0.0
C237 C 0.22334 0.337 0.03968 0.0
C238 C 0.22223 0.30997 0.02006 0.0
C239 C 0.18897 0.33308 0.05513 0.0
C240 C 0.18902 0.35883 0.07677 0.0
C241 C 0.15332 0.38721 0.08053 0.0
C242 C 0.1533 0.41162 0.10093 0.0
C243 C 0.18871 0.40765 0.11774 0.0
C244 C 0.22409 0.3791 0.11424 0.0
C245 C 0.22421 0.35456 0.09389 0.0
H246 H 0.18865 0.4266 0.13351 0.0
H247 H 0.20567 0.16476 0.94622 0.0
H248 H 0.21129 0.98124 0.97878 0.0
H249 H 0.25548 0.92833 0.95831 0.0
H250 H 0.14135 0.84215 0.95136 0.0
H251 H 0.09673 0.89549 0.97169 0.0
H252 H 0.21811 0.80721 0.97487 0.0
H253 H 0.18096 0.87502 0.90235 0.0
H254 H 0.17136 0.93513 0.87485 0.0
H255 H 0.30999 0.96985 0.88761 0.0
H256 H 0.3208 0.90954 0.9149 0.0
H257 H 0.356 0.64588 0.92755 0.0
H258 H 0.29454 0.69659 0.93326 0.0
H259 H 0.38706 0.8042 0.93267 0.0
H260 H 0.44845 0.75354 0.92641 0.0
H261 H 0.31224 0.82396 0.90867 0.0
H262 H 0.34898 0.76381 0.98329 0.0
H263 H 0.36194 0.70556 0.01162 0.0
H264 H 0.22639 0.66104 0.99778 0.0
H265 H 0.21281 0.71873 0.96913 0.0
C266 C 0.19531 0.95153 0.97228 0.0
C267 C 0.15076 0.94228 0.97677 0.0
C268 C 0.22044 0.92147 0.96048 0.0
C269 C 0.20161 0.88141 0.95327 0.0
C270 C 0.15633 0.87303 0.95667 0.0
C271 C 0.13091 0.90347 0.96821 0.0
C272 C 0.23137 0.8463 0.94573 0.0
C273 C 0.23786 0.81021 0.96002 0.0
C274 C 0.25818 0.85117 0.92688 0.0
C275 C 0.25162 0.8879 0.91078 0.0
C276 C 0.20935 0.89563 0.89941 0.0
C277 C 0.2037 0.92964 0.88381 0.0
C278 C 0.23987 0.95647 0.87964 0.0
C279 C 0.28196 0.9491 0.89089 0.0
C280 C 0.28795 0.91484 0.90632 0.0
C281 C 0.36325 0.68034 0.92885 0.0
C282 C 0.40703 0.69579 0.92675 0.0
C283 C 0.32811 0.7093 0.93205 0.0
C284 C 0.33623 0.75422 0.93364 0.0
C285 C 0.37994 0.76971 0.93142 0.0
C286 C 0.415 0.74078 0.92794 0.0
C287 C 0.29941 0.78507 0.938 0.0
C288 C 0.29183 0.82043 0.92323 0.0
C289 C 0.27197 0.77994 0.95666 0.0
C290 C 0.28006 0.74524 0.97387 0.0
C291 C 0.32206 0.74137 0.98615 0.0
C292 C 0.32949 0.7085 0.00229 0.0
C293 C 0.29506 0.67952 0.00645 0.0
C294 C 0.25307 0.68344 0.99451 0.0
C295 C 0.24547 0.71623 0.97833 0.0
H296 H 0.30087 0.65411 0.01895 0.0
H297 H 0.23531 0.98286 0.86761 0.0
H298 H 0.86015 0.98646 0.03941 0.0
H299 H 0.81168 0.93523 0.0576 0.0
H300 H 0.91633 0.83823 0.05729 0.0
H301 H 0.96581 0.89077 0.04051 0.0
H302 H 0.77762 0.86954 0.03886 0.0
H303 H 0.89927 0.75586 0.09065 0.0
H304 H 0.96738 0.75878 0.1171 0.0
H305 H 0.93481 0.88923 0.13702 0.0
H306 H 0.86715 0.8874 0.11036 0.0
H307 H 0.66273 0.67326 0.05464 0.0
H308 H 0.71939 0.72633 0.04559 0.0
H309 H 0.73436 0.76622 0.11692 0.0
H310 H 0.68025 0.7113 0.12638 0.0
H311 H 0.81244 0.76431 0.10119 0.0
H312 H 0.67089 0.82565 0.07491 0.0
H313 H 0.59701 0.8277 0.05326 0.0
H314 H 0.6607 0.81339 0.98975 0.0
H315 H 0.73495 0.81071 0.01106 0.0
C316 C 0.87318 0.95463 0.04398 0.0
C317 C 0.91652 0.94239 0.03863 0.0
C318 C 0.84542 0.92522 0.05422 0.0
C319 C 0.85997 0.88254 0.05872 0.0
C320 C 0.90432 0.87104 0.05443 0.0
C321 C 0.93261 0.901 0.04475 0.0
C322 C 0.8271 0.84925 0.06531 0.0
C323 C 0.78534 0.8468 0.05262 0.0
C324 C 0.83664 0.81933 0.08322 0.0
C325 C 0.87842 0.82158 0.09839 0.0
C326 C 0.9069 0.78527 0.10056 0.0
C327 C 0.94551 0.78679 0.11552 0.0
C328 C 0.95567 0.82428 0.1286 0.0
C329 C 0.92736 0.86043 0.12665 0.0
C330 C 0.88899 0.85927 0.11152 0.0
C331 C 0.67848 0.69285 0.06848 0.0
C332 C 0.66642 0.68814 0.09123 0.0
C333 C 0.71056 0.7236 0.06322 0.0
C334 C 0.73064 0.75089 0.0805 0.0
C335 C 0.71925 0.74575 0.10325 0.0
C336 C 0.6877 0.71465 0.10858 0.0
C337 C 0.7631 0.78517 0.07494 0.0
C338 C 0.80482 0.7874 0.08757 0.0
C339 C 0.75299 0.81585 0.05747 0.0
C340 C 0.70842 0.81755 0.0446 0.0
C341 C 0.6691 0.82264 0.05634 0.0
C342 C 0.62717 0.82396 0.04413 0.0
C343 C 0.62416 0.82056 0.02015 0.0
C344 C 0.66308 0.81595 0.00833 0.0
C345 C 0.7051 0.81457 0.02046 0.0
H346 H 0.59166 0.82159 0.01072 0.0
H347 H 0.98529 0.82506 0.14034 0.0
H348 H 0.98242 0.15502 0.0282 0.0
H349 H 0.94562 0.22656 0.02835 0.0
H350 H 0.92732 0.22093 0.95435 0.0
H351 H 0.96277 0.14945 0.95421 0.0
H352 H 0.94438 0.31239 0.00481 0.0
H353 H 0.81657 0.22403 0.94236 0.0
H354 H 0.79401 0.14887 0.9318 0.0
H355 H 0.83505 0.10699 0.0 0.0
H356 H 0.85702 0.182 0.01107 0.0
H357 H 0.7837 0.45241 0.94737 0.0
H358 H 0.8434 0.40371 0.96214 0.0
H359 H 0.74735 0.33281 -0.0008 0.0
H360 H 0.68744 0.38064 0.9838 0.0
H361 H 0.78841 0.27975 0.97453 0.0
H362 H 0.83745 0.39211 0.02679 0.0
H363 H 0.86031 0.46588 0.03971 0.0
H364 H 0.97303 0.45985 0.99783 0.0
H365 H 0.95049 0.38626 0.98437 0.0
C366 C 0.97218 0.17003 0.01198 0.0
C367 C 0.97469 0.14677 0.99121 0.0
C368 C 0.9513 0.21085 0.01207 0.0
C369 C 0.9331 0.22853 0.99138 0.0
C370 C 0.94082 0.2076 0.9705 0.0
C371 C 0.96097 0.16678 0.97043 0.0
C372 C 0.89845 0.26295 0.99151 0.0
C373 C 0.91019 0.30554 0.99829 0.0
C374 C 0.85359 0.25347 0.98369 0.0
C375 C 0.83877 0.20855 0.97746 0.0
C376 C 0.82045 0.19883 0.95514 0.0
C377 C 0.80781 0.15625 0.94906 0.0
C378 C 0.81321 0.12316 0.9652 0.0
C379 C 0.83099 0.13262 0.9875 0.0
C380 C 0.84354 0.17516 0.99368 0.0
C381 C 0.77565 0.4271 0.95915 0.0
C382 C 0.73098 0.41997 0.96432 0.0
C383 C 0.80983 0.39937 0.96769 0.0
C384 C 0.80001 0.36452 0.98186 0.0
C385 C 0.75578 0.35928 0.98821 0.0
C386 C 0.72156 0.38655 0.97942 0.0
C387 C 0.83406 0.33019 0.98732 0.0
C388 C 0.82225 0.28715 0.98144 0.0
C389 C 0.87837 0.33941 0.99644 0.0
C390 C 0.89204 0.38373 0.00443 0.0
C391 C 0.8669 0.40663 0.02018 0.0
C392 C 0.87985 0.44841 0.02763 0.0
C393 C 0.91805 0.46757 0.01956 0.0
C394 C 0.94343 0.44497 0.00405 0.0
C395 C 0.93061 0.40319 0.99653 0.0
H396 H 0.92802 0.49991 0.02536 0.0
H397 H 0.80354 0.0902 0.96044 0.0
H398 H 0.60925 0.64257 0.57422 0.0
H399 H 0.64114 0.71558 0.57793 0.0
H400 H 0.62425 0.73002 0.50429 0.0
H401 H 0.59089 0.65719 0.50072 0.0
H402 H 0.718 0.72899 0.56124 0.0
H403 H 0.63277 0.83972 0.49136 0.0
H404 H 0.55712 0.85263 0.47295 0.0
H405 H 0.49779 0.80758 0.53331 0.0
H406 H 0.57291 0.79498 0.55217 0.0
H407 H 0.87347 0.88367 0.54091 0.0
H408 H 0.81026 0.83665 0.52828 0.0
H409 H 0.72307 0.91261 0.56911 0.0
H410 H 0.78616 0.96043 0.58139 0.0
H411 H 0.67717 0.87304 0.52873 0.0
H412 H 0.77614 0.8352 0.59499 0.0
H413 H 0.85079 0.823 0.61466 0.0
H414 H 0.87705 0.72203 0.56584 0.0
H415 H 0.80283 0.73425 0.54562 0.0
C416 C 0.6108 0.66209 0.55895 0.0
C417 C 0.59774 0.64461 0.53721 0.0
C418 C 0.62913 0.70367 0.56105 0.0
C419 C 0.63557 0.72814 0.54138 0.0
C420 C 0.61921 0.712 0.51973 0.0
C421 C 0.60008 0.67047 0.51768 0.0
C422 C 0.66577 0.7665 0.54337 0.0
C423 C 0.70871 0.76046 0.5542 0.0
C424 C 0.65398 0.80759 0.5341 0.0
C425 C 0.60856 0.81607 0.5231 0.0
C426 C 0.60358 0.8328 0.50075 0.0
C427 C 0.56076 0.84002 0.49022 0.0
C428 C 0.52264 0.83086 0.50192 0.0
C429 C 0.52727 0.81456 0.5242 0.0
C430 C 0.56998 0.80731 0.53481 0.0
C431 C 0.84049 0.89112 0.54658 0.0
C432 C 0.83471 0.92515 0.56238 0.0
C433 C 0.80439 0.86445 0.53928 0.0
C434 C 0.76219 0.87078 0.54806 0.0
C435 C 0.75532 0.90726 0.56209 0.0
C436 C 0.7914 0.9344 0.56917 0.0
C437 C 0.7289 0.835 0.54652 0.0
C438 C 0.68588 0.84145 0.53575 0.0
C439 C 0.74006 0.79416 0.55617 0.0
C440 C 0.78413 0.78589 0.5687 0.0
C441 C 0.79793 0.81055 0.5884 0.0
C442 C 0.84016 0.80364 0.59964 0.0
C443 C 0.86868 0.77181 0.59148 0.0
C444 C 0.85495 0.74671 0.57212 0.0
C445 C 0.81281 0.7536 0.56077 0.0
H446 H 0.90138 0.76654 0.60019 0.0
H447 H 0.48955 0.83647 0.49372 0.0
H448 H 0.58968 0.40232 0.47007 0.0
H449 H 0.63135 0.34781 0.44894 0.0
H450 H 0.75387 0.41961 0.46477 0.0
H451 H 0.71252 0.47391 0.48573 0.0
H452 H 0.75012 0.38044 0.42091 0.0
H453 H 0.7243 0.34331 0.50082 0.0
H454 H 0.6743 0.32849 0.53179 0.0
H455 H 0.6105 0.2259 0.491 0.0
H456 H 0.65982 0.24056 0.45967 0.0
H457 H 0.93861 0.24683 0.43476 0.0
H458 H 0.87644 0.29711 0.4394 0.0
H459 H 0.78222 0.19113 0.4296 0.0
H460 H 0.8446 0.14048 0.4254 0.0
H461 H 0.75835 0.24106 0.46285 0.0
H462 H 0.79572 0.26665 0.38662 0.0
H463 H 0.84441 0.28095 0.35509 0.0
H464 H 0.8834 0.40353 0.38631 0.0
H465 H 0.83546 0.38969 0.41823 0.0
C466 C 0.62523 0.40709 0.46837 0.0
C467 C 0.64804 0.44211 0.47959 0.0
C468 C 0.64899 0.3759 0.45639 0.0
C469 C 0.69577 0.37948 0.45553 0.0
C470 C 0.71781 0.41626 0.46521 0.0
C471 C 0.69422 0.44712 0.47728 0.0
C472 C 0.72313 0.3428 0.44754 0.0
C473 C 0.75194 0.34986 0.42996 0.0
C474 C 0.72444 0.30246 0.45893 0.0
C475 C 0.69536 0.29329 0.47786 0.0
C476 C 0.69943 0.31776 0.49843 0.0
C477 C 0.67125 0.30938 0.51604 0.0
C478 C 0.63916 0.27634 0.51334 0.0
C479 C 0.63531 0.25152 0.49305 0.0
C480 C 0.66336 0.25983 0.47537 0.0
C481 C 0.90463 0.23428 0.43359 0.0
C482 C 0.89645 0.18977 0.42967 0.0
C483 C 0.86907 0.26307 0.43609 0.0
C484 C 0.82448 0.24812 0.43428 0.0
C485 C 0.81627 0.20349 0.4309 0.0
C486 C 0.85194 0.17456 0.42864 0.0
C487 C 0.78678 0.27912 0.43666 0.0
C488 C 0.75599 0.27102 0.45324 0.0
C489 C 0.78341 0.31832 0.42415 0.0
C490 C 0.81214 0.32699 0.40491 0.0
C491 C 0.81488 0.29654 0.38685 0.0
C492 C 0.84234 0.30458 0.36889 0.0
C493 C 0.86703 0.3431 0.36871 0.0
C494 C 0.86425 0.3737 0.38647 0.0
C495 C 0.83688 0.3658 0.40449 0.0
H496 H 0.88827 0.34925 0.35479 0.0
H497 H 0.61736 0.26991 0.52699 0.0
H498 H 0.47702 0.39308 0.54676 0.0
H499 H 0.43471 0.3373 0.56593 0.0
H500 H 0.31454 0.41472 0.55627 0.0
H501 H 0.35653 0.47025 0.5372 0.0
H502 H 0.32326 0.37258 0.59928 0.0
H503 H 0.33471 0.34077 0.51725 0.0
H504 H 0.378 0.32633 0.48341 0.0
H505 H 0.44172 0.21728 0.51731 0.0
H506 H 0.39918 0.23147 0.55149 0.0
H507 H 0.13253 0.24029 0.59332 0.0
H508 H 0.19294 0.29094 0.58632 0.0
H509 H 0.28717 0.18444 0.5866 0.0
H510 H 0.22632 0.13349 0.59287 0.0
H511 H 0.30341 0.2357 0.55376 0.0
H512 H 0.28364 0.25808 0.633 0.0
H513 H 0.2428 0.27145 0.66775 0.0
H514 H 0.19931 0.39561 0.64191 0.0
H515 H 0.23934 0.38274 0.60682 0.0
C516 C 0.44186 0.39856 0.54931 0.0
C517 C 0.41989 0.43581 0.54055 0.0
C518 C 0.41775 0.3667 0.56014 0.0
C519 C 0.37147 0.37185 0.56234 0.0
C520 C 0.35023 0.41023 0.55479 0.0
C521 C 0.37415 0.44176 0.5438 0.0
C522 C 0.34373 0.33584 0.57015 0.0
C523 C 0.31881 0.34258 0.5894 0.0
C524 C 0.33913 0.29626 0.55762 0.0
C525 C 0.3642 0.28747 0.53699 0.0
C526 C 0.35819 0.3139 0.51753 0.0
C527 C 0.38255 0.30574 0.49829 0.0
C528 C 0.4127 0.27099 0.49824 0.0
C529 C 0.41843 0.24424 0.5174 0.0
C530 C 0.3942 0.25231 0.5367 0.0
C531 C 0.16616 0.22777 0.59187 0.0
C532 C 0.17484 0.18307 0.59365 0.0
C533 C 0.20074 0.25672 0.58805 0.0
C534 C 0.2449 0.24167 0.58648 0.0
C535 C 0.25346 0.19687 0.58788 0.0
C536 C 0.2187 0.1678 0.59136 0.0
C537 C 0.28168 0.27271 0.58266 0.0
C538 C 0.30834 0.26511 0.56409 0.0
C539 C 0.28829 0.31124 0.59605 0.0
C540 C 0.26429 0.31929 0.61719 0.0
C541 C 0.26513 0.28812 0.63465 0.0
C542 C 0.24215 0.29563 0.65442 0.0
C543 C 0.21842 0.33432 0.65702 0.0
C544 C 0.2177 0.36564 0.63987 0.0
C545 C 0.24058 0.35828 0.62004 0.0
H546 H 0.20064 0.34007 0.67234 0.0
H547 H 0.43154 0.26473 0.48333 0.0
H548 H 0.42656 0.64376 0.53081 0.0
H549 H 0.39564 0.71695 0.52645 0.0
H550 H 0.4856 0.74211 0.47333 0.0
H551 H 0.51603 0.66822 0.47748 0.0
H552 H 0.41623 0.80507 0.52431 0.0
H553 H 0.42012 0.77857 0.42799 0.0
H554 H 0.43319 0.72001 0.39984 0.0
H555 H 0.37966 0.62631 0.44456 0.0
H556 H 0.36575 0.68442 0.47277 0.0
H557 H 0.27791 0.96595 0.45719 0.0
H558 H 0.34197 0.92172 0.47166 0.0
H559 H 0.25506 0.81049 0.47449 0.0
H560 H 0.19081 0.85446 0.46107 0.0
H561 H 0.33419 0.80065 0.44737 0.0
H562 H 0.28705 0.85187 0.52149 0.0
H563 H 0.27229 0.90844 0.55035 0.0
H564 H 0.40917 0.95136 0.55087 0.0
H565 H 0.42457 0.8954 0.52172 0.0
C566 C 0.44109 0.66569 0.51896 0.0
C567 C 0.4736 0.65074 0.50451 0.0
C568 C 0.42352 0.70753 0.51651 0.0
C569 C 0.43777 0.73471 0.49931 0.0
C570 C 0.47392 0.72148 0.48661 0.0
C571 C 0.49148 0.67945 0.48905 0.0
C572 C 0.4085 0.77148 0.49163 0.0
C573 C 0.39907 0.80474 0.50731 0.0
C574 C 0.3854 0.77069 0.46959 0.0
C575 C 0.39239 0.7357 0.45252 0.0
C576 C 0.41099 0.74548 0.43172 0.0
C577 C 0.41855 0.71239 0.41578 0.0
C578 C 0.40738 0.66945 0.42044 0.0
C579 C 0.38838 0.65955 0.44099 0.0
C580 C 0.38064 0.69254 0.45695 0.0
C581 C 0.27219 0.93235 0.46143 0.0
C582 C 0.22918 0.91365 0.45765 0.0
C583 C 0.30891 0.90712 0.46956 0.0
C584 C 0.30319 0.86283 0.4739 0.0
C585 C 0.26016 0.84456 0.47101 0.0
C586 C 0.22351 0.86974 0.4632 0.0
C587 C 0.34197 0.83426 0.48003 0.0
C588 C 0.35275 0.80218 0.46404 0.0
C589 C 0.36617 0.83632 0.50173 0.0
C590 C 0.35675 0.86994 0.51916 0.0
C591 C 0.31385 0.87373 0.52753 0.0
C592 C 0.3054 0.90559 0.544 0.0
C593 C 0.33971 0.93361 0.55236 0.0
C594 C 0.38259 0.92973 0.54432 0.0
C595 C 0.39119 0.89795 0.52783 0.0
H596 H 0.33312 0.95823 0.56512 0.0
H597 H 0.41338 0.64387 0.4081 0.0
H598 H 0.96767 0.98253 0.07543 0.0
H599 H 0.94871 0.97372 0.11519 0.0
H600 H 0.07753 0.91374 0.13134 0.0
H601 H 0.09522 0.91969 0.0914 0.0
H602 H 0.02235 0.88438 0.15919 0.0
H603 H 0.06224 0.02687 0.13345 0.0
H604 H 0.05342 0.09128 0.10878 0.0
H605 H 0.92125 0.11267 0.13148 0.0
H606 H 0.92913 0.048 0.15605 0.0
H607 H 0.07521 0.03738 0.26314 0.0
H608 H 0.06514 0.02267 0.22189 0.0
H609 H 0.96535 0.9256 0.23366 0.0
H610 H 0.97558 0.94004 0.27514 0.0
H611 H 0.99592 0.03098 0.19187 0.0
H612 H 0.97239 0.84502 0.19101 0.0
H613 H 0.99171 0.78169 0.21528 0.0
H614 H 0.10663 0.84955 0.24615 0.0
H615 H 0.08835 0.913 0.22186 0.0
C616 C 0.99087 0.96531 0.08712 0.0
C617 C 0.03309 0.95212 0.08032 0.0
C618 C 0.98034 0.96097 0.10998 0.0
C619 C 0.01242 0.94457 0.12643 0.0
C620 C 0.05242 0.92699 0.11907 0.0
C621 C 0.0626 0.93062 0.09621 0.0
C622 C 0.00783 0.95131 0.15142 0.0
C623 C 0.0155 0.9162 0.1663 0.0
C624 C 1.0006 0.9932 0.16084 0.0
C625 C 0.99607 0.03241 0.14637 0.0
C626 C 0.03124 0.04524 0.13309 0.0
C627 C 0.02641 0.08175 0.11913 0.0
C628 C 0.98675 0.10598 0.11852 0.0
C629 C 0.95191 0.09382 0.13193 0.0
C630 C 0.95653 0.05724 0.14588 0.0
C631 C 0.05088 0.01313 0.25694 0.0
C632 C 0.0262 0.98985 0.27236 0.0
C633 C 0.04514 0.00474 0.23337 0.0
C634 C 0.01461 0.97295 0.22469 0.0
C635 C 0.9895 0.9499 0.24001 0.0
C636 C 0.99545 0.95811 0.26367 0.0
C637 C 0.00997 0.96386 0.1996 0.0
C638 C 1.00095 0.99874 0.18473 0.0
C639 C 0.017 0.92193 0.19025 0.0
C640 C 0.02854 0.88398 0.20489 0.0
C641 C 0.00177 0.84639 0.20299 0.0
C642 C 0.01257 0.81047 0.21672 0.0
C643 C 0.05023 0.81169 0.23233 0.0
C644 C 0.07732 0.84874 0.23415 0.0
C645 C 0.06672 0.88471 0.22042 0.0
H646 H 0.05852 0.78386 0.24296 0.0
H647 H 0.98305 0.13423 0.10769 0.0
H648 H 0.10196 0.99132 0.94238 0.0
H649 H 0.12728 0.97681 0.90413 0.0
H650 H 0.00645 0.90343 0.88645 0.0
H651 H 0.98201 0.91618 0.92512 0.0
H652 H 0.07707 0.87141 0.86378 0.0
H653 H 0.00883 0.01305 0.87805 0.0
H654 H 0.0047 0.08278 0.89919 0.0
H655 H 0.13863 0.11417 0.88243 0.0
H656 H 0.1437 0.0443 0.86143 0.0
H657 H 0.00816 0.91854 0.74823 0.0
H658 H 0.02054 0.90526 0.78943 0.0
H659 H 0.13743 0.98809 0.79248 0.0
H660 H 0.12476 0.0019 0.75133 0.0
H661 H 0.08459 0.01214 0.82367 0.0
H662 H 0.14616 0.87696 0.80203 0.0
H663 H 0.15055 0.80716 0.78108 0.0
H664 H 0.03195 0.76259 0.81122 0.0
H665 H 0.02643 0.83238 0.83211 0.0
C666 C 0.08187 0.9703 0.93075 0.0
C667 C 0.04014 0.95465 0.93675 0.0
C668 C 0.09617 0.96236 0.90878 0.0
C669 C 0.06837 0.93965 0.8923 0.0
C670 C 0.02841 0.92106 0.89887 0.0
C671 C 0.01433 0.92863 0.92091 0.0
C672 C 0.07683 0.94105 0.86757 0.0
C673 C 0.07867 0.90207 0.85491 0.0
C674 C 0.08017 0.98111 0.85618 0.0
C675 C 0.07675 0.02344 0.86834 0.0
C676 C 0.03741 0.03481 0.87894 0.0
C677 C 0.03492 0.07431 0.8909 0.0
C678 C 0.07141 0.10285 0.89219 0.0
C679 C 0.11042 0.09201 0.88144 0.0
C680 C 0.11311 0.0525 0.86949 0.0
C681 C 0.03704 0.93312 0.7576 0.0
C682 C 0.06526 0.96154 0.74664 0.0
C683 C 0.04423 0.92539 0.78115 0.0
C684 C 0.08014 0.94545 0.79407 0.0
C685 C 0.10949 0.97232 0.78289 0.0
C686 C 0.10211 0.98031 0.75942 0.0
C687 C 0.0839 0.94239 0.81953 0.0
C688 C 0.08411 0.98125 0.83241 0.0
C689 C 0.08257 0.90219 0.83101 0.0
C690 C 0.08573 0.86008 0.81852 0.0
C691 C 0.12081 0.85242 0.80406 0.0
C692 C 0.12353 0.81282 0.79222 0.0
C693 C 0.09151 0.78049 0.79478 0.0
C694 C 0.05673 0.78767 0.80924 0.0
C695 C 0.05382 0.82723 0.82112 0.0
H696 H 0.09367 0.74986 0.78559 0.0
H697 H 0.06945 0.13339 0.90148 0.0
H698 H 0.46666 0.48241 0.57875 0.0
H699 H 0.4454 0.46937 0.61782 0.0
H700 H 0.57048 0.40193 0.63296 0.0
H701 H 0.5907 0.41282 0.59369 0.0
H702 H 0.50888 0.37195 0.65961 0.0
H703 H 0.56453 0.51343 0.63755 0.0
H704 H 0.56113 0.57999 0.61434 0.0
H705 H 0.43061 0.60911 0.63724 0.0
H706 H 0.43307 0.54235 0.66034 0.0
H707 H 0.58582 0.51631 0.76449 0.0
H708 H 0.57234 0.50145 0.72341 0.0
H709 H 0.46412 0.41468 0.73703 0.0
H710 H 0.4778 0.42932 0.77841 0.0
H711 H 0.50126 0.51834 0.69584 0.0
H712 H 0.45732 0.33626 0.69288 0.0
H713 H 0.47185 0.27017 0.71576 0.0
H714 H 0.59689 0.32389 0.74375 0.0
H715 H 0.58336 0.38999 0.72084 0.0
C716 C 0.48853 0.46285 0.59002 0.0
C717 C 0.53052 0.44893 0.58324 0.0
C718 C 0.47652 0.45575 0.61244 0.0
C719 C 0.50691 0.4357 0.62849 0.0
C720 C 0.54658 0.41768 0.62095 0.0
C721 C 0.55828 0.42424 0.59852 0.0
C722 C 0.50228 0.44063 0.65356 0.0
C723 C 0.50635 0.40385 0.66756 0.0
C724 C 0.49996 0.48233 0.66399 0.0
C725 C 0.49875 0.52276 0.65043 0.0
C726 C 0.53505 0.53398 0.63754 0.0
C727 C 0.53329 0.5717 0.62441 0.0
C728 C 0.49562 0.5987 0.62426 0.0
C729 C 0.45971 0.58811 0.63732 0.0
C730 C 0.46126 0.55034 0.65043 0.0
C731 C 0.55912 0.49409 0.75875 0.0
C732 C 0.53272 0.47415 0.77463 0.0
C733 C 0.55142 0.48562 0.73527 0.0
C734 C 0.51714 0.45706 0.72712 0.0
C735 C 0.491 0.43655 0.74294 0.0
C736 C 0.49891 0.44485 0.76655 0.0
C737 C 0.5089 0.44974 0.70198 0.0
C738 C 0.50234 0.48622 0.68797 0.0
C739 C 0.51032 0.40791 0.69165 0.0
C740 C 0.51898 0.36826 0.7054 0.0
C741 C 0.48792 0.3339 0.70391 0.0
C742 C 0.49599 0.29645 0.71687 0.0
C743 C 0.53517 0.29292 0.73128 0.0
C744 C 0.56646 0.32675 0.73268 0.0
C745 C 0.55857 0.36424 0.71973 0.0
H746 H 0.54135 0.26391 0.7413 0.0
H747 H 0.4943 0.62788 0.61408 0.0
H748 H 0.4784 0.43572 0.4255 0.0
H749 H 0.50446 0.42324 0.38721 0.0
H750 H 0.62942 0.48759 0.40788 0.0
H751 H 0.60285 0.50105 0.44617 0.0
H752 H 0.59187 0.52314 0.37088 0.0
H753 H 0.63174 0.3819 0.3911 0.0
H754 H 0.62647 0.30974 0.40849 0.0
H755 H 0.51185 0.27926 0.36258 0.0
H756 H 0.51607 0.35146 0.34504 0.0
H757 H 0.60391 0.42916 0.24562 0.0
H758 H 0.61887 0.41832 0.28712 0.0
H759 H 0.51539 0.51128 0.30066 0.0
H760 H 0.50069 0.52243 0.25951 0.0
H761 H 0.57077 0.39112 0.32154 0.0
H762 H 0.54588 0.57475 0.34473 0.0
H763 H 0.56006 0.64612 0.32793 0.0
H764 H 0.66258 0.58994 0.2887 0.0
H765 H 0.64954 0.51837 0.30553 0.0
C766 C 0.51184 0.44628 0.42203 0.0
C767 C 0.53871 0.46913 0.43879 0.0
C768 C 0.52691 0.43881 0.4002 0.0
C769 C 0.56907 0.4542 0.3947 0.0
C770 C 0.5969 0.4752 0.4118 0.0
C771 C 0.58183 0.4826 0.4337 0.0
C772 C 0.5804 0.45403 0.37033 0.0
C773 C 0.58795 0.49415 0.36015 0.0
C774 C 0.57692 0.41599 0.35643 0.0
C775 C 0.57416 0.37227 0.36676 0.0
C776 C 0.60522 0.35995 0.38477 0.0
C777 C 0.60245 0.319 0.39466 0.0
C778 C 0.56879 0.28997 0.38667 0.0
C779 C 0.53793 0.30179 0.36873 0.0
C780 C 0.54057 0.3427 0.35876 0.0
C781 C 0.58416 0.44695 0.2575 0.0
C782 C 0.55153 0.47708 0.24937 0.0
C783 C 0.59279 0.44078 0.28116 0.0
C784 C 0.56892 0.46467 0.29698 0.0
C785 C 0.53506 0.49333 0.28879 0.0
C786 C 0.52666 0.49969 0.26527 0.0
C787 C 0.5792 0.46065 0.32213 0.0
C788 C 0.5758 0.41985 0.33237 0.0
C789 C 0.58801 0.49788 0.33623 0.0
C790 C 0.59656 0.5411 0.32634 0.0
C791 C 0.57168 0.57766 0.33266 0.0
C792 C 0.57947 0.61815 0.32309 0.0
C793 C 0.61214 0.62255 0.30723 0.0
C794 C 0.6372 0.58648 0.30095 0.0
C795 C 0.62959 0.54593 0.31048 0.0
H796 H 0.61808 0.65391 0.29983 0.0
H797 H 0.56666 0.25829 0.39436 0.0
loop_
_geom_bond_atom_site_label_1
_geom_bond_atom_site_label_2
_geom_bond_distance
_geom_bond_site_symmetry_2
_ccdc_geom_bond_type
Zn0 O6 1.902 1_546 S
Zn0 O12 1.898 . S
Zn0 O15 1.905 1_545 S
Zn1 O9 1.905 . S
Zn1 O10 1.898 1_545 S
Zn1 O18 1.920 1_545 S
Zn2 O5 2.080 1_445 S
Zn2 O8 2.114 . S
Zn2 O11 2.120 1_545 S
Zn2 O13 2.120 1_455 S
Zn2 O14 2.114 1_554 S
Zn2 O17 2.080 . S
C3 O8 1.166 . S
C3 O9 1.182 . S
C4 O10 1.167 . S
C4 O11 1.299 . S
O5 Zn2 2.080 1_665 S
O5 C19 1.305 . S
O6 Zn0 1.902 1_564 S
O6 C19 1.248 . S
C7 O12 1.164 . S
C7 O13 1.302 1_556 S
O8 Zn2 2.114 . S
O8 C3 1.166 . S
O9 Zn1 1.905 . S
O9 C3 1.182 . S
O10 Zn1 1.898 1_565 S
O10 C4 1.167 . S
O11 Zn2 2.120 1_565 S
O11 C4 1.299 . S
O12 Zn0 1.898 . S
O12 C7 1.164 . S
O13 Zn2 2.120 1_655 S
O13 C7 1.302 1_554 S
O14 Zn2 2.114 1_556 S
O14 C16 1.166 1_545 S
O15 Zn0 1.905 1_565 S
O15 C16 1.182 1_655 S
C16 O14 1.166 1_565 S
C16 O15 1.182 1_455 S
O17 Zn2 2.080 . S
O17 C20 1.305 1_545 S
O18 Zn1 1.920 1_565 S
O18 C20 1.234 . S
C19 O5 1.305 . S
C19 O6 1.248 . S
C20 O17 1.305 1_565 S
C20 O18 1.234 . S
Zn21 O27 1.920 . S
Zn21 O33 1.898 . S
Zn21 O36 1.905 . S
Zn22 O30 1.905 . S
Zn22 O31 1.898 . S
Zn22 O39 1.920 . S
Zn23 O26 2.080 . S
Zn23 O29 2.114 . S
Zn23 O32 2.120 . S
Zn23 O34 2.120 . S
Zn23 O35 2.114 . S
Zn23 O38 2.080 . S
C24 O29 1.166 . S
C24 O30 1.182 . S
C25 O31 1.167 . S
C25 O32 1.299 . S
O26 Zn23 2.080 . S
O26 C40 1.305 . S
O27 Zn21 1.920 . S
O27 C40 1.234 . S
C28 O33 1.167 . S
C28 O34 1.299 . S
O29 Zn23 2.114 . S
O29 C24 1.166 . S
O30 Zn22 1.905 . S
O30 C24 1.182 . S
O31 Zn22 1.898 . S
O31 C25 1.167 . S
O32 Zn23 2.120 . S
O32 C25 1.299 . S
O33 Zn21 1.898 . S
O33 C28 1.167 . S
O34 Zn23 2.120 . S
O34 C28 1.299 . S
O35 Zn23 2.114 . S
O35 C37 1.166 . S
O36 Zn21 1.905 . S
O36 C37 1.182 . S
C37 O35 1.166 . S
C37 O36 1.182 . S
O38 Zn23 2.080 . S
O38 C41 1.305 . S
O39 Zn22 1.920 . S
O39 C41 1.234 . S
C40 O26 1.305 . S
C40 O27 1.234 . S
C41 O38 1.305 . S
C41 O39 1.234 . S
C42 C43 1.386 1_565 S
C42 C44 1.397 . S
C42 H66 0.931 . S
C43 C42 1.386 1_545 S
C43 C47 1.397 . S
C44 C42 1.397 . S
C44 C45 1.384 1_565 S
C44 H67 0.930 . S
C45 C44 1.384 1_545 S
C45 C46 1.377 . S
C45 C48 1.481 . S
C46 C45 1.377 . S
C46 C47 1.389 . S
C46 H68 0.929 . S
C47 C43 1.397 . S
C47 C46 1.389 . S
C47 H69 0.931 . S
C48 C45 1.481 . S
C48 C49 1.387 . S
C48 C53 1.390 . S
C49 C48 1.387 . S
C49 C50 1.401 . S
C49 H70 0.930 1_545 S
C50 C49 1.401 . S
C50 C51 1.376 . S
C50 C59 1.511 1_545 S
C51 C50 1.376 . S
C51 C52 1.392 . S
C51 H72 0.931 . S
C52 C51 1.392 . S
C52 C53 1.361 . S
C52 C54 1.500 . S
C53 C48 1.390 . S
C53 C52 1.361 . S
C53 H71 0.931 . S
C54 C52 1.500 . S
C54 C55 1.371 1_455 S
C54 C56 1.365 . S
C55 C54 1.371 1_655 S
C55 C65 1.386 . S
C55 H73 0.931 1_655 S
C56 C54 1.365 . S
C56 C57 1.409 1_455 S
C56 H74 0.929 . S
C57 C56 1.409 1_655 S
C57 C58 1.380 . S
C57 H75 0.930 . S
C58 C57 1.380 . S
C58 C65 1.357 . S
C59 C50 1.511 1_565 S
C59 C60 1.341 . S
C59 C61 1.371 . S
C60 C59 1.341 . S
C60 C64 1.394 . S
C60 H76 0.930 . S
C61 C59 1.371 . S
C61 C62 1.392 . S
C61 H77 0.931 1_565 S
C62 C61 1.392 . S
C62 C63 1.331 . S
C62 H80 0.932 . S
C63 C62 1.331 . S
C63 C64 1.336 . S
C64 C60 1.394 . S
C64 C63 1.336 . S
C64 H79 0.929 . S
C65 C55 1.386 . S
C65 C58 1.357 . S
C65 H78 0.928 . S
H66 C42 0.931 . S
H67 C44 0.930 . S
H68 C46 0.929 . S
H69 C47 0.931 . S
H70 C49 0.930 1_565 S
H71 C53 0.931 . S
H72 C51 0.931 . S
H73 C55 0.931 1_455 S
H74 C56 0.929 . S
H75 C57 0.930 . S
H76 C60 0.930 . S
H77 C61 0.931 1_545 S
H78 C65 0.928 . S
H79 C64 0.929 . S
H80 C62 0.932 . S
C81 C82 1.386 . S
C81 C83 1.397 . S
C81 H105 0.931 . S
C82 C81 1.386 . S
C82 C86 1.397 1_545 S
C83 C81 1.397 . S
C83 C84 1.384 . S
C83 H106 0.930 . S
C84 C83 1.384 . S
C84 C85 1.377 1_545 S
C84 C87 1.481 . S
C85 C84 1.377 1_565 S
C85 C86 1.389 . S
C85 H107 0.929 . S
C86 C82 1.397 1_565 S
C86 C85 1.389 . S
C86 H108 0.931 . S
C87 C84 1.481 . S
C87 C88 1.387 . S
C87 C92 1.390 1_455 S
C88 C87 1.387 . S
C88 C89 1.401 . S
C88 H109 0.930 . S
C89 C88 1.401 . S
C89 C90 1.364 1_455 S
C89 C98 1.511 . S
C90 C89 1.364 1_655 S
C90 C91 1.422 . S
C90 H111 0.931 . S
C91 C90 1.422 . S
C91 C92 1.362 . S
C91 C93 1.482 1_545 S
C92 C87 1.390 1_655 S
C92 C91 1.362 . S
C92 H110 0.931 1_545 S
C93 C91 1.482 1_565 S
C93 C94 1.371 . S
C93 C95 1.365 . S
C94 C93 1.371 . S
C94 C104 1.386 . S
C94 H112 0.931 1_565 S
C95 C93 1.365 . S
C95 C96 1.409 . S
C95 H113 0.929 . S
C96 C95 1.409 . S
C96 C97 1.380 . S
C96 H114 0.930 . S
C97 C96 1.380 . S
C97 C104 1.357 . S
C98 C89 1.511 . S
C98 C99 1.341 . S
C98 C100 1.371 . S
C99 C98 1.341 . S
C99 C103 1.394 . S
C99 H115 0.930 . S
C100 C98 1.371 . S
C100 C101 1.392 . S
C100 H116 0.931 . S
C101 C100 1.392 . S
C101 C102 1.331 . S
C101 H119 0.932 . S
C102 C101 1.331 . S
C102 C103 1.336 . S
C103 C99 1.394 . S
C103 C102 1.336 . S
C103 H118 0.929 . S
C104 C94 1.386 . S
C104 C97 1.357 . S
C104 H117 0.928 . S
H105 C81 0.931 . S
H106 C83 0.930 . S
H107 C85 0.929 . S
H108 C86 0.931 . S
H109 C88 0.930 . S
H110 C92 0.931 1_565 S
H111 C90 0.931 . S
H112 C94 0.931 1_545 S
H113 C95 0.929 . S
H114 C96 0.930 . S
H115 C99 0.930 . S
H116 C100 0.931 . S
H117 C104 0.928 . S
H118 C103 0.929 . S
H119 C101 0.932 . S
C120 C121 1.386 . S
C120 C122 1.397 . S
C120 H144 0.931 . S
C121 C120 1.386 . S
C121 C125 1.397 . S
C122 C120 1.397 . S
C122 C123 1.384 . S
C122 H145 0.930 . S
C123 C122 1.384 . S
C123 C124 1.377 . S
C123 C126 1.481 . S
C124 C123 1.377 . S
C124 C125 1.389 . S
C124 H146 0.929 . S
C125 C121 1.397 . S
C125 C124 1.389 . S
C125 H147 0.931 . S
C126 C123 1.481 . S
C126 C127 1.387 . S
C126 C131 1.390 . S
C127 C126 1.387 . S
C127 C128 1.401 . S
C127 H148 0.930 . S
C128 C127 1.401 . S
C128 C129 1.376 . S
C128 C137 1.511 . S
C129 C128 1.376 . S
C129 C130 1.392 . S
C129 H150 0.931 . S
C130 C129 1.392 . S
C130 C131 1.361 . S
C130 C132 1.500 . S
C131 C126 1.390 . S
C131 C130 1.361 . S
C131 H149 0.931 . S
C132 C130 1.500 . S
C132 C133 1.371 . S
C132 C134 1.365 . S
C133 C132 1.371 . S
C133 C143 1.386 . S
C133 H151 0.931 . S
C134 C132 1.365 . S
C134 C135 1.409 . S
C134 H152 0.929 . S
C135 C134 1.409 . S
C135 C136 1.380 . S
C135 H153 0.930 . S
C136 C135 1.380 . S
C136 C143 1.357 . S
C137 C128 1.511 . S
C137 C138 1.341 . S
C137 C139 1.371 . S
C138 C137 1.341 . S
C138 C142 1.394 . S
C138 H154 0.930 . S
C139 C137 1.371 . S
C139 C140 1.392 . S
C139 H155 0.931 . S
C140 C139 1.392 . S
C140 C141 1.331 . S
C140 H158 0.932 . S
C141 C140 1.331 . S
C141 C142 1.336 . S
C142 C138 1.394 . S
C142 C141 1.336 . S
C142 H157 0.929 . S
C143 C133 1.386 . S
C143 C136 1.357 . S
C143 H156 0.928 . S
H144 C120 0.931 . S
H145 C122 0.930 . S
H146 C124 0.929 . S
H147 C125 0.931 . S
H148 C127 0.930 . S
H149 C131 0.931 . S
H150 C129 0.931 . S
H151 C133 0.931 . S
H152 C134 0.929 . S
H153 C135 0.930 . S
H154 C138 0.930 . S
H155 C139 0.931 . S
H156 C143 0.928 . S
H157 C142 0.929 . S
H158 C140 0.932 . S
C159 C160 1.386 . S
C159 C161 1.397 . S
C159 H183 0.931 . S
C160 C159 1.386 . S
C160 C164 1.397 . S
C161 C159 1.397 . S
C161 C162 1.384 . S
C161 H184 0.930 . S
C162 C161 1.384 . S
C162 C163 1.377 . S
C162 C165 1.481 . S
C163 C162 1.377 . S
C163 C164 1.389 . S
C163 H185 0.929 . S
C164 C160 1.397 . S
C164 C163 1.389 . S
C164 H186 0.931 . S
C165 C162 1.481 . S
C165 C166 1.387 . S
C165 C170 1.390 . S
C166 C165 1.387 . S
C166 C167 1.401 . S
C166 H187 0.930 . S
C167 C166 1.401 . S
C167 C168 1.376 . S
C167 C176 1.511 . S
C168 C167 1.376 . S
C168 C169 1.392 . S
C168 H189 0.931 . S
C169 C168 1.392 . S
C169 C170 1.361 . S
C169 C171 1.500 . S
C170 C165 1.390 . S
C170 C169 1.361 . S
C170 H188 0.931 . S
C171 C169 1.500 . S
C171 C172 1.371 . S
C171 C173 1.365 . S
C172 C171 1.371 . S
C172 C182 1.386 . S
C172 H190 0.931 . S
C173 C171 1.365 . S
C173 C174 1.409 . S
C173 H191 0.929 . S
C174 C173 1.409 . S
C174 C175 1.380 . S
C174 H192 0.930 . S
C175 C174 1.380 . S
C175 C182 1.357 . S
C176 C167 1.511 . S
C176 C177 1.341 . S
C176 C178 1.371 . S
C177 C176 1.341 . S
C177 C181 1.394 . S
C177 H193 0.930 . S
C178 C176 1.371 . S
C178 C179 1.392 . S
C178 H194 0.931 . S
C179 C178 1.392 . S
C179 C180 1.331 . S
C179 H197 0.932 . S
C180 C179 1.331 . S
C180 C181 1.336 . S
C181 C177 1.394 . S
C181 C180 1.336 . S
C181 H196 0.929 . S
C182 C172 1.386 . S
C182 C175 1.357 . S
C182 H195 0.928 . S
H183 C159 0.931 . S
H184 C161 0.930 . S
H185 C163 0.929 . S
H186 C164 0.931 . S
H187 C166 0.930 . S
H188 C170 0.931 . S
H189 C168 0.931 . S
H190 C172 0.931 . S
H191 C173 0.929 . S
H192 C174 0.930 . S
H193 C177 0.930 . S
H194 C178 0.931 . S
H195 C182 0.928 . S
H196 C181 0.929 . S
H197 C179 0.932 . S
H198 C216 0.951 . S
H199 C218 0.951 . S
H200 C220 0.950 . S
H201 C221 0.950 . S
H202 C223 0.950 . S
H203 C226 0.950 . S
H204 C227 0.950 . S
H205 C229 0.950 . S
H206 C230 0.950 . S
H207 C231 0.951 . S
H208 C233 0.951 . S
H209 C235 0.950 . S
H210 C236 0.950 . S
H211 C238 0.950 . S
H212 C241 0.950 . S
H213 C242 0.950 . S
H214 C244 0.950 . S
H215 C245 0.950 . S
C216 H198 0.951 . S
C216 C217 1.366 . S
C216 C218 1.388 . S
C217 C216 1.366 . S
C217 C221 1.385 . S
C218 H199 0.951 . S
C218 C216 1.388 . S
C218 C219 1.366 . S
C219 C218 1.366 . S
C219 C220 1.414 . S
C219 C222 1.499 . S
C220 H200 0.950 . S
C220 C219 1.414 . S
C220 C221 1.374 . S
C221 H201 0.950 . S
C221 C217 1.385 . S
C221 C220 1.374 . S
C222 C219 1.499 . S
C222 C223 1.373 . S
C222 C224 1.389 . S
C223 H202 0.950 . S
C223 C222 1.373 . S
C223 C239 1.377 . S
C224 C222 1.389 . S
C224 C225 1.524 1_554 S
C224 C238 1.377 . S
C225 C224 1.524 1_556 S
C225 C226 1.397 . S
C225 C230 1.363 . S
C226 H203 0.950 . S
C226 C225 1.397 . S
C226 C227 1.334 . S
C227 H204 0.950 . S
C227 C226 1.334 . S
C227 C228 1.287 . S
C228 C227 1.287 . S
C228 C229 1.524 . S
C228 H247 0.913 . S
C229 H205 0.950 . S
C229 C228 1.524 . S
C229 C230 1.415 . S
C230 H206 0.950 . S
C230 C225 1.363 . S
C230 C229 1.415 . S
C231 H207 0.951 . S
C231 C232 1.366 . S
C231 C233 1.388 . S
C232 C231 1.366 . S
C232 C236 1.385 . S
C233 H208 0.951 . S
C233 C231 1.388 . S
C233 C234 1.366 . S
C234 C233 1.366 . S
C234 C235 1.414 . S
C234 C237 1.499 . S
C235 H209 0.950 . S
C235 C234 1.414 . S
C235 C236 1.374 . S
C236 H210 0.950 . S
C236 C232 1.385 . S
C236 C235 1.374 . S
C237 C234 1.499 . S
C237 C238 1.373 . S
C237 C239 1.389 . S
C238 H211 0.950 . S
C238 C224 1.377 . S
C238 C237 1.373 . S
C239 C223 1.377 . S
C239 C237 1.389 . S
C239 C240 1.524 . S
C240 C239 1.524 . S
C240 C241 1.397 . S
C240 C245 1.363 . S
C241 H212 0.950 . S
C241 C240 1.397 . S
C241 C242 1.334 . S
C242 H213 0.950 . S
C242 C241 1.334 . S
C242 C243 1.287 . S
C243 C242 1.287 . S
C243 C244 1.524 . S
C243 H246 0.999 . S
C244 H214 0.950 . S
C244 C243 1.524 . S
C244 C245 1.415 . S
C245 H215 0.950 . S
C245 C240 1.363 . S
C245 C244 1.415 . S
H246 C243 0.999 . S
H247 C228 0.913 . S
H248 C266 0.951 . S
H249 C268 0.951 . S
H250 C270 0.950 1_554 S
H251 C271 0.950 . S
H252 C273 0.906 1_554 S
H253 C276 0.950 . S
H254 C277 0.950 . S
H255 C279 0.950 . S
H256 C280 0.950 . S
H257 C281 0.951 . S
H258 C283 0.951 . S
H259 C285 0.950 . S
H260 C286 0.950 . S
H261 C288 0.950 . S
H262 C291 0.950 . S
H263 C292 0.950 . S
H264 C294 0.950 . S
H265 C295 0.950 . S
C266 H248 0.951 . S
C266 C267 1.366 . S
C266 C268 1.388 . S
C267 C266 1.366 . S
C267 C271 1.385 1_556 S
C268 H249 0.951 . S
C268 C266 1.388 . S
C268 C269 1.366 . S
C269 C268 1.366 . S
C269 C270 1.414 . S
C269 C272 1.499 . S
C270 H250 0.950 1_556 S
C270 C269 1.414 . S
C270 C271 1.374 1_556 S
C271 H251 0.950 . S
C271 C267 1.385 1_554 S
C271 C270 1.374 1_554 S
C272 C269 1.499 . S
C272 C273 1.408 . S
C272 C274 1.389 . S
C273 H252 0.906 1_556 S
C273 C272 1.408 . S
C273 C289 1.388 . S
C274 C272 1.389 . S
C274 C275 1.524 . S
C274 C288 1.377 . S
C275 C274 1.524 . S
C275 C276 1.397 . S
C275 C280 1.363 . S
C276 H253 0.950 . S
C276 C275 1.397 . S
C276 C277 1.334 . S
C277 H254 0.950 . S
C277 C276 1.334 . S
C277 C278 1.287 . S
C278 C277 1.287 . S
C278 C279 1.524 . S
C278 H297 0.913 . S
C279 H255 0.950 . S
C279 C278 1.524 . S
C279 C280 1.415 . S
C280 H256 0.950 . S
C280 C275 1.363 . S
C280 C279 1.415 . S
C281 H257 0.951 . S
C281 C282 1.366 . S
C281 C283 1.388 . S
C282 C281 1.366 . S
C282 C286 1.385 . S
C283 H258 0.951 . S
C283 C281 1.388 . S
C283 C284 1.366 . S
C284 C283 1.366 . S
C284 C285 1.414 . S
C284 C287 1.499 . S
C285 H259 0.950 . S
C285 C284 1.414 . S
C285 C286 1.374 . S
C286 H260 0.950 . S
C286 C282 1.385 . S
C286 C285 1.374 . S
C287 C284 1.499 . S
C287 C288 1.373 . S
C287 C289 1.389 . S
C288 H261 0.950 . S
C288 C274 1.377 . S
C288 C287 1.373 . S
C289 C273 1.388 . S
C289 C287 1.389 . S
C289 C290 1.524 1_556 S
C290 C289 1.524 1_554 S
C290 C291 1.397 . S
C290 C295 1.363 . S
C291 H262 0.950 . S
C291 C290 1.397 . S
C291 C292 1.334 . S
C292 H263 0.950 . S
C292 C291 1.334 . S
C292 C293 1.287 . S
C293 C292 1.287 . S
C293 C294 1.524 . S
C293 H296 0.999 . S
C294 H264 0.950 . S
C294 C293 1.524 . S
C294 C295 1.415 . S
C295 H265 0.950 . S
C295 C290 1.363 . S
C295 C294 1.415 . S
H296 C293 0.999 . S
H297 C278 0.913 . S
H298 C316 0.951 . S
H299 C318 0.951 . S
H300 C320 0.952 . S
H301 C321 0.950 1_556 S
H302 C323 0.950 . S
H303 C326 0.950 . S
H304 C327 0.950 . S
H305 C329 0.950 . S
H306 C330 0.950 . S
H307 C331 0.951 . S
H308 C333 0.951 . S
H309 C335 0.950 . S
H310 C336 0.950 . S
H311 C338 0.950 . S
H312 C341 0.950 . S
H313 C342 0.950 . S
H314 C344 0.950 . S
H315 C345 0.950 1_556 S
C316 H298 0.951 . S
C316 C317 1.366 . S
C316 C318 1.388 . S
C317 C316 1.366 . S
C317 C321 1.385 . S
C318 H299 0.951 . S
C318 C316 1.388 . S
C318 C319 1.366 . S
C319 C318 1.366 . S
C319 C320 1.414 . S
C319 C322 1.499 . S
C320 H300 0.952 . S
C320 C319 1.414 . S
C320 C321 1.374 . S
C321 H301 0.950 1_554 S
C321 C317 1.385 . S
C321 C320 1.374 . S
C322 C319 1.499 . S
C322 C323 1.373 . S
C322 C324 1.389 . S
C323 H302 0.950 . S
C323 C322 1.373 . S
C323 C339 1.377 . S
C324 C322 1.389 . S
C324 C325 1.524 . S
C324 C338 1.377 . S
C325 C324 1.524 . S
C325 C326 1.397 . S
C325 C330 1.363 . S
C326 H303 0.950 . S
C326 C325 1.397 . S
C326 C327 1.334 . S
C327 H304 0.950 . S
C327 C326 1.334 . S
C327 C328 1.287 . S
C328 C327 1.287 . S
C328 C329 1.524 . S
C328 H347 0.913 . S
C329 H305 0.950 . S
C329 C328 1.524 . S
C329 C330 1.415 . S
C330 H306 0.950 . S
C330 C325 1.363 . S
C330 C329 1.415 . S
C331 H307 0.951 . S
C331 C332 1.366 . S
C331 C333 1.388 . S
C332 C331 1.366 . S
C332 C336 1.385 . S
C333 H308 0.951 . S
C333 C331 1.388 . S
C333 C334 1.366 . S
C334 C333 1.366 . S
C334 C335 1.414 . S
C334 C337 1.499 . S
C335 H309 0.950 . S
C335 C334 1.414 . S
C335 C336 1.374 . S
C336 H310 0.950 . S
C336 C332 1.385 . S
C336 C335 1.374 . S
C337 C334 1.499 . S
C337 C338 1.373 . S
C337 C339 1.389 . S
C338 H311 0.950 . S
C338 C324 1.377 . S
C338 C337 1.373 . S
C339 C323 1.377 . S
C339 C337 1.389 . S
C339 C340 1.524 . S
C340 C339 1.524 . S
C340 C341 1.397 . S
C340 C345 1.363 . S
C341 H312 0.950 . S
C341 C340 1.397 . S
C341 C342 1.334 . S
C342 H313 0.950 . S
C342 C341 1.334 . S
C342 C343 1.287 . S
C343 C342 1.287 . S
C343 C344 1.524 1_554 S
C343 H346 0.999 . S
C344 H314 0.950 . S
C344 C343 1.524 1_556 S
C344 C345 1.415 1_556 S
C345 H315 0.950 1_554 S
C345 C340 1.363 . S
C345 C344 1.415 1_554 S
H346 C343 0.999 . S
H347 C328 0.913 . S
H348 C366 0.951 . S
H349 C368 0.951 . S
H350 C370 0.950 . S
H351 C371 0.968 . S
H352 C373 0.950 . S
H353 C376 0.950 . S
H354 C377 0.950 . S
H355 C379 0.950 . S
H356 C380 0.950 . S
H357 C381 0.951 . S
H358 C383 0.951 . S
H359 C385 0.950 . S
H360 C386 0.950 . S
H361 C388 0.950 . S
H362 C391 0.950 . S
H363 C392 0.950 . S
H364 C394 0.942 1_556 S
H365 C395 0.950 . S
C366 H348 0.951 . S
C366 C367 1.366 . S
C366 C368 1.388 . S
C367 C366 1.366 . S
C367 C371 1.385 1_554 S
C368 H349 0.951 . S
C368 C366 1.388 . S
C368 C369 1.366 1_554 S
C369 C368 1.366 1_556 S
C369 C370 1.414 . S
C369 C372 1.499 . S
C370 H350 0.950 . S
C370 C369 1.414 . S
C370 C371 1.374 . S
C371 H351 0.968 . S
C371 C367 1.385 1_556 S
C371 C370 1.374 . S
C372 C369 1.499 . S
C372 C373 1.373 . S
C372 C374 1.389 . S
C373 H352 0.950 . S
C373 C372 1.373 . S
C373 C389 1.377 . S
C374 C372 1.389 . S
C374 C375 1.524 . S
C374 C388 1.377 . S
C375 C374 1.524 . S
C375 C376 1.397 . S
C375 C380 1.363 . S
C376 H353 0.950 . S
C376 C375 1.397 . S
C376 C377 1.334 . S
C377 H354 0.950 . S
C377 C376 1.334 . S
C377 C378 1.287 . S
C378 C377 1.287 . S
C378 C379 1.524 . S
C378 H397 0.913 . S
C379 H355 0.950 . S
C379 C378 1.524 . S
C379 C380 1.415 . S
C380 H356 0.950 . S
C380 C375 1.363 . S
C380 C379 1.415 . S
C381 H357 0.951 . S
C381 C382 1.366 . S
C381 C383 1.388 . S
C382 C381 1.366 . S
C382 C386 1.385 . S
C383 H358 0.951 . S
C383 C381 1.388 . S
C383 C384 1.366 . S
C384 C383 1.366 . S
C384 C385 1.414 . S
C384 C387 1.499 . S
C385 H359 0.950 . S
C385 C384 1.414 . S
C385 C386 1.374 . S
C386 H360 0.950 . S
C386 C382 1.385 . S
C386 C385 1.374 . S
C387 C384 1.499 . S
C387 C388 1.373 . S
C387 C389 1.389 . S
C388 H361 0.950 . S
C388 C374 1.377 . S
C388 C387 1.373 . S
C389 C373 1.377 . S
C389 C387 1.389 . S
C389 C390 1.524 . S
C390 C389 1.524 . S
C390 C391 1.397 1_556 S
C390 C395 1.363 . S
C391 H362 0.950 . S
C391 C390 1.397 1_554 S
C391 C392 1.334 . S
C392 H363 0.950 . S
C392 C391 1.334 . S
C392 C393 1.287 . S
C393 C392 1.287 . S
C393 C394 1.543 . S
C393 H396 0.999 . S
C394 H364 0.942 1_554 S
C394 C393 1.543 . S
C394 C395 1.405 1_554 S
C395 H365 0.950 . S
C395 C390 1.363 . S
C395 C394 1.405 1_556 S
H396 C393 0.999 . S
H397 C378 0.913 . S
H398 C416 0.951 . S
H399 C418 0.951 . S
H400 C420 0.950 . S
H401 C421 0.950 . S
H402 C423 0.950 . S
H403 C426 0.950 . S
H404 C427 0.950 . S
H405 C429 0.950 . S
H406 C430 0.950 . S
H407 C431 0.951 . S
H408 C433 0.951 . S
H409 C435 0.950 . S
H410 C436 0.950 . S
H411 C438 0.950 . S
H412 C441 0.950 . S
H413 C442 0.950 . S
H414 C444 0.950 . S
H415 C445 0.950 . S
C416 H398 0.951 . S
C416 C417 1.366 . S
C416 C418 1.388 . S
C417 C416 1.366 . S
C417 C421 1.385 . S
C418 H399 0.951 . S
C418 C416 1.388 . S
C418 C419 1.366 . S
C419 C418 1.366 . S
C419 C420 1.414 . S
C419 C422 1.499 . S
C420 H400 0.950 . S
C420 C419 1.414 . S
C420 C421 1.374 . S
C421 H401 0.950 . S
C421 C417 1.385 . S
C421 C420 1.374 . S
C422 C419 1.499 . S
C422 C423 1.373 . S
C422 C424 1.389 . S
C423 H402 0.950 . S
C423 C422 1.373 . S
C423 C439 1.377 . S
C424 C422 1.389 . S
C424 C425 1.524 . S
C424 C438 1.377 . S
C425 C424 1.524 . S
C425 C426 1.397 . S
C425 C430 1.363 . S
C426 H403 0.950 . S
C426 C425 1.397 . S
C426 C427 1.334 . S
C427 H404 0.950 . S
C427 C426 1.334 . S
C427 C428 1.287 . S
C428 C427 1.287 . S
C428 C429 1.524 . S
C428 H447 0.913 . S
C429 H405 0.950 . S
C429 C428 1.524 . S
C429 C430 1.415 . S
C430 H406 0.950 . S
C430 C425 1.363 . S
C430 C429 1.415 . S
C431 H407 0.951 . S
C431 C432 1.366 . S
C431 C433 1.388 . S
C432 C431 1.366 . S
C432 C436 1.385 . S
C433 H408 0.951 . S
C433 C431 1.388 . S
C433 C434 1.366 . S
C434 C433 1.366 . S
C434 C435 1.414 . S
C434 C437 1.499 . S
C435 H409 0.950 . S
C435 C434 1.414 . S
C435 C436 1.374 . S
C436 H410 0.950 . S
C436 C432 1.385 . S
C436 C435 1.374 . S
C437 C434 1.499 . S
C437 C438 1.373 . S
C437 C439 1.389 . S
C438 H411 0.950 . S
C438 C424 1.377 . S
C438 C437 1.373 . S
C439 C423 1.377 . S
C439 C437 1.389 . S
C439 C440 1.524 . S
C440 C439 1.524 . S
C440 C441 1.397 . S
C440 C445 1.363 . S
C441 H412 0.950 . S
C441 C440 1.397 . S
C441 C442 1.334 . S
C442 H413 0.950 . S
C442 C441 1.334 . S
C442 C443 1.287 . S
C443 C442 1.287 . S
C443 C444 1.524 . S
C443 H446 0.999 . S
C444 H414 0.950 . S
C444 C443 1.524 . S
C444 C445 1.415 . S
C445 H415 0.950 . S
C445 C440 1.363 . S
C445 C444 1.415 . S
H446 C443 0.999 . S
H447 C428 0.913 . S
H448 C466 0.951 . S
H449 C468 0.951 . S
H450 C470 0.950 . S
H451 C471 0.950 . S
H452 C473 0.950 . S
H453 C476 0.950 . S
H454 C477 0.950 . S
H455 C479 0.950 . S
H456 C480 0.950 . S
H457 C481 0.951 . S
H458 C483 0.951 . S
H459 C485 0.950 . S
H460 C486 0.950 . S
H461 C488 0.950 . S
H462 C491 0.950 . S
H463 C492 0.950 . S
H464 C494 0.950 . S
H465 C495 0.950 . S
C466 H448 0.951 . S
C466 C467 1.366 . S
C466 C468 1.388 . S
C467 C466 1.366 . S
C467 C471 1.385 . S
C468 H449 0.951 . S
C468 C466 1.388 . S
C468 C469 1.366 . S
C469 C468 1.366 . S
C469 C470 1.414 . S
C469 C472 1.499 . S
C470 H450 0.950 . S
C470 C469 1.414 . S
C470 C471 1.374 . S
C471 H451 0.950 . S
C471 C467 1.385 . S
C471 C470 1.374 . S
C472 C469 1.499 . S
C472 C473 1.373 . S
C472 C474 1.389 . S
C473 H452 0.950 . S
C473 C472 1.373 . S
C473 C489 1.377 . S
C474 C472 1.389 . S
C474 C475 1.524 . S
C474 C488 1.377 . S
C475 C474 1.524 . S
C475 C476 1.397 . S
C475 C480 1.363 . S
C476 H453 0.950 . S
C476 C475 1.397 . S
C476 C477 1.334 . S
C477 H454 0.950 . S
C477 C476 1.334 . S
C477 C478 1.287 . S
C478 C477 1.287 . S
C478 C479 1.524 . S
C478 H497 0.913 . S
C479 H455 0.950 . S
C479 C478 1.524 . S
C479 C480 1.415 . S
C480 H456 0.950 . S
C480 C475 1.363 . S
C480 C479 1.415 . S
C481 H457 0.951 . S
C481 C482 1.366 . S
C481 C483 1.388 . S
C482 C481 1.366 . S
C482 C486 1.385 . S
C483 H458 0.951 . S
C483 C481 1.388 . S
C483 C484 1.366 . S
C484 C483 1.366 . S
C484 C485 1.414 . S
C484 C487 1.499 . S
C485 H459 0.950 . S
C485 C484 1.414 . S
C485 C486 1.374 . S
C486 H460 0.950 . S
C486 C482 1.385 . S
C486 C485 1.374 . S
C487 C484 1.499 . S
C487 C488 1.373 . S
C487 C489 1.389 . S
C488 H461 0.950 . S
C488 C474 1.377 . S
C488 C487 1.373 . S
C489 C473 1.377 . S
C489 C487 1.389 . S
C489 C490 1.524 . S
C490 C489 1.524 . S
C490 C491 1.397 . S
C490 C495 1.363 . S
C491 H462 0.950 . S
C491 C490 1.397 . S
C491 C492 1.334 . S
C492 H463 0.950 . S
C492 C491 1.334 . S
C492 C493 1.287 . S
C493 C492 1.287 . S
C493 C494 1.524 . S
C493 H496 0.999 . S
C494 H464 0.950 . S
C494 C493 1.524 . S
C494 C495 1.415 . S
C495 H465 0.950 . S
C495 C490 1.363 . S
C495 C494 1.415 . S
H496 C493 0.999 . S
H497 C478 0.913 . S
H498 C516 0.951 . S
H499 C518 0.951 . S
H500 C520 0.950 . S
H501 C521 0.950 . S
H502 C523 0.950 . S
H503 C526 0.950 . S
H504 C527 0.950 . S
H505 C529 0.950 . S
H506 C530 0.950 . S
H507 C531 0.951 . S
H508 C533 0.951 . S
H509 C535 0.950 . S
H510 C536 0.950 . S
H511 C538 0.950 . S
H512 C541 0.950 . S
H513 C542 0.950 . S
H514 C544 0.950 . S
H515 C545 0.950 . S
C516 H498 0.951 . S
C516 C517 1.366 . S
C516 C518 1.388 . S
C517 C516 1.366 . S
C517 C521 1.385 . S
C518 H499 0.951 . S
C518 C516 1.388 . S
C518 C519 1.366 . S
C519 C518 1.366 . S
C519 C520 1.414 . S
C519 C522 1.499 . S
C520 H500 0.950 . S
C520 C519 1.414 . S
C520 C521 1.374 . S
C521 H501 0.950 . S
C521 C517 1.385 . S
C521 C520 1.374 . S
C522 C519 1.499 . S
C522 C523 1.373 . S
C522 C524 1.389 . S
C523 H502 0.950 . S
C523 C522 1.373 . S
C523 C539 1.377 . S
C524 C522 1.389 . S
C524 C525 1.524 . S
C524 C538 1.377 . S
C525 C524 1.524 . S
C525 C526 1.397 . S
C525 C530 1.363 . S
C526 H503 0.950 . S
C526 C525 1.397 . S
C526 C527 1.334 . S
C527 H504 0.950 . S
C527 C526 1.334 . S
C527 C528 1.287 . S
C528 C527 1.287 . S
C528 C529 1.524 . S
C528 H547 0.913 . S
C529 H505 0.950 . S
C529 C528 1.524 . S
C529 C530 1.415 . S
C530 H506 0.950 . S
C530 C525 1.363 . S
C530 C529 1.415 . S
C531 H507 0.951 . S
C531 C532 1.366 . S
C531 C533 1.388 . S
C532 C531 1.366 . S
C532 C536 1.385 . S
C533 H508 0.951 . S
C533 C531 1.388 . S
C533 C534 1.366 . S
C534 C533 1.366 . S
C534 C535 1.414 . S
C534 C537 1.499 . S
C535 H509 0.950 . S
C535 C534 1.414 . S
C535 C536 1.374 . S
C536 H510 0.950 . S
C536 C532 1.385 . S
C536 C535 1.374 . S
C537 C534 1.499 . S
C537 C538 1.373 . S
C537 C539 1.389 . S
C538 H511 0.950 . S
C538 C524 1.377 . S
C538 C537 1.373 . S
C539 C523 1.377 . S
C539 C537 1.389 . S
C539 C540 1.524 . S
C540 C539 1.524 . S
C540 C541 1.397 . S
C540 C545 1.363 . S
C541 H512 0.950 . S
C541 C540 1.397 . S
C541 C542 1.334 . S
C542 H513 0.950 . S
C542 C541 1.334 . S
C542 C543 1.287 . S
C543 C542 1.287 . S
C543 C544 1.524 . S
C543 H546 0.999 . S
C544 H514 0.950 . S
C544 C543 1.524 . S
C544 C545 1.415 . S
C545 H515 0.950 . S
C545 C540 1.363 . S
C545 C544 1.415 . S
H546 C543 0.999 . S
H547 C528 0.913 . S
H548 C566 0.951 . S
H549 C568 0.951 . S
H550 C570 0.950 . S
H551 C571 0.950 . S
H552 C573 0.950 . S
H553 C576 0.950 . S
H554 C577 0.950 . S
H555 C579 0.950 . S
H556 C580 0.950 . S
H557 C581 0.951 . S
H558 C583 0.951 . S
H559 C585 0.950 . S
H560 C586 0.950 . S
H561 C588 0.950 . S
H562 C591 0.950 . S
H563 C592 0.950 . S
H564 C594 0.950 . S
H565 C595 0.950 . S
C566 H548 0.951 . S
C566 C567 1.366 . S
C566 C568 1.388 . S
C567 C566 1.366 . S
C567 C571 1.385 . S
C568 H549 0.951 . S
C568 C566 1.388 . S
C568 C569 1.366 . S
C569 C568 1.366 . S
C569 C570 1.414 . S
C569 C572 1.499 . S
C570 H550 0.950 . S
C570 C569 1.414 . S
C570 C571 1.374 . S
C571 H551 0.950 . S
C571 C567 1.385 . S
C571 C570 1.374 . S
C572 C569 1.499 . S
C572 C573 1.373 . S
C572 C574 1.389 . S
C573 H552 0.950 . S
C573 C572 1.373 . S
C573 C589 1.377 . S
C574 C572 1.389 . S
C574 C575 1.524 . S
C574 C588 1.377 . S
C575 C574 1.524 . S
C575 C576 1.397 . S
C575 C580 1.363 . S
C576 H553 0.950 . S
C576 C575 1.397 . S
C576 C577 1.334 . S
C577 H554 0.950 . S
C577 C576 1.334 . S
C577 C578 1.287 . S
C578 C577 1.287 . S
C578 C579 1.524 . S
C578 H597 0.913 . S
C579 H555 0.950 . S
C579 C578 1.524 . S
C579 C580 1.415 . S
C580 H556 0.950 . S
C580 C575 1.363 . S
C580 C579 1.415 . S
C581 H557 0.951 . S
C581 C582 1.366 . S
C581 C583 1.388 . S
C582 C581 1.366 . S
C582 C586 1.385 . S
C583 H558 0.951 . S
C583 C581 1.388 . S
C583 C584 1.366 . S
C584 C583 1.366 . S
C584 C585 1.414 . S
C584 C587 1.499 . S
C585 H559 0.950 . S
C585 C584 1.414 . S
C585 C586 1.374 . S
C586 H560 0.950 . S
C586 C582 1.385 . S
C586 C585 1.374 . S
C587 C584 1.499 . S
C587 C588 1.373 . S
C587 C589 1.389 . S
C588 H561 0.950 . S
C588 C574 1.377 . S
C588 C587 1.373 . S
C589 C573 1.377 . S
C589 C587 1.389 . S
C589 C590 1.524 . S
C590 C589 1.524 . S
C590 C591 1.397 . S
C590 C595 1.363 . S
C591 H562 0.950 . S
C591 C590 1.397 . S
C591 C592 1.334 . S
C592 H563 0.950 . S
C592 C591 1.334 . S
C592 C593 1.287 . S
C593 C592 1.287 . S
C593 C594 1.524 . S
C593 H596 0.999 . S
C594 H564 0.950 . S
C594 C593 1.524 . S
C594 C595 1.415 . S
C595 H565 0.950 . S
C595 C590 1.363 . S
C595 C594 1.415 . S
H596 C593 0.999 . S
H597 C578 0.913 . S
H598 C616 0.951 1_655 S
H599 C618 0.951 1_655 S
H600 C620 0.950 . S
H601 C621 0.950 . S
H602 C623 0.950 . S
H603 C626 0.950 1_455 S
H604 C627 0.950 . S
H605 C629 0.950 . S
H606 C630 0.950 . S
H607 C631 0.951 . S
H608 C633 0.951 . S
H609 C635 0.950 1_655 S
H610 C636 0.950 . S
H611 C638 0.948 . S
H612 C641 0.950 . S
H613 C642 0.950 . S
H614 C644 0.950 . S
H615 C645 0.950 . S
C616 H598 0.951 1_455 S
C616 C617 1.366 . S
C616 C618 1.388 . S
C617 C616 1.366 . S
C617 C621 1.385 1_565 S
C618 H599 0.951 1_455 S
C618 C616 1.388 . S
C618 C619 1.366 1_565 S
C619 C618 1.366 1_545 S
C619 C620 1.414 . S
C619 C622 1.499 . S
C620 H600 0.950 . S
C620 C619 1.414 . S
C620 C621 1.374 . S
C621 H601 0.950 . S
C621 C617 1.385 1_545 S
C621 C620 1.374 . S
C622 C619 1.499 . S
C622 C623 1.373 1_545 S
C622 C624 1.389 . S
C623 H602 0.950 . S
C623 C622 1.373 1_565 S
C623 C639 1.377 . S
C624 C622 1.389 . S
C624 C625 1.524 1_455 S
C624 C638 1.377 . S
C625 C624 1.524 1_655 S
C625 C626 1.397 . S
C625 C630 1.363 . S
C626 H603 0.950 1_655 S
C626 C625 1.397 . S
C626 C627 1.334 . S
C627 H604 0.950 . S
C627 C626 1.334 . S
C627 C628 1.287 . S
C628 C627 1.287 . S
C628 C629 1.524 . S
C628 H647 0.913 . S
C629 H605 0.950 . S
C629 C628 1.524 . S
C629 C630 1.415 . S
C630 H606 0.950 . S
C630 C625 1.363 . S
C630 C629 1.415 . S
C631 H607 0.951 . S
C631 C632 1.366 . S
C631 C633 1.388 . S
C632 C631 1.366 . S
C632 C636 1.385 . S
C633 H608 0.951 . S
C633 C631 1.388 . S
C633 C634 1.366 . S
C634 C633 1.366 . S
C634 C635 1.414 . S
C634 C637 1.499 . S
C635 H609 0.950 1_455 S
C635 C634 1.414 . S
C635 C636 1.374 . S
C636 H610 0.950 . S
C636 C632 1.385 . S
C636 C635 1.374 . S
C637 C634 1.499 . S
C637 C638 1.373 . S
C637 C639 1.389 1_545 S
C638 H611 0.948 . S
C638 C624 1.377 . S
C638 C637 1.373 . S
C639 C623 1.377 . S
C639 C637 1.389 1_565 S
C639 C640 1.524 . S
C640 C639 1.524 . S
C640 C641 1.397 . S
C640 C645 1.363 . S
C641 H612 0.950 . S
C641 C640 1.397 . S
C641 C642 1.334 . S
C642 H613 0.950 . S
C642 C641 1.334 . S
C642 C643 1.287 . S
C643 C642 1.287 . S
C643 C644 1.524 . S
C643 H646 0.999 . S
C644 H614 0.950 . S
C644 C643 1.524 . S
C644 C645 1.415 . S
C645 H615 0.950 . S
C645 C640 1.363 . S
C645 C644 1.415 . S
H646 C643 0.999 . S
H647 C628 0.913 . S
H648 C666 0.951 . S
H649 C668 0.951 . S
H650 C670 0.940 1_655 S
H651 C671 0.950 1_655 S
H652 C673 0.950 . S
H653 C676 0.950 . S
H654 C677 0.950 . S
H655 C679 0.950 . S
H656 C680 0.970 . S
H657 C681 0.951 . S
H658 C683 0.951 . S
H659 C685 0.950 . S
H660 C686 0.950 . S
H661 C688 0.950 1_655 S
H662 C691 0.950 . S
H663 C692 0.950 . S
H664 C694 0.950 . S
H665 C695 0.950 . S
C666 H648 0.951 . S
C666 C667 1.366 1_545 S
C666 C668 1.388 . S
C667 C666 1.366 1_565 S
C667 C671 1.385 . S
C668 H649 0.951 . S
C668 C666 1.388 . S
C668 C669 1.366 . S
C669 C668 1.366 . S
C669 C670 1.424 1_545 S
C669 C672 1.499 . S
C670 H650 0.940 1_455 S
C670 C669 1.424 1_565 S
C670 C671 1.374 . S
C671 H651 0.950 1_455 S
C671 C667 1.385 . S
C671 C670 1.374 . S
C672 C669 1.499 . S
C672 C673 1.373 1_545 S
C672 C674 1.389 . S
C673 H652 0.950 . S
C673 C672 1.373 1_565 S
C673 C689 1.377 . S
C674 C672 1.389 . S
C674 C675 1.524 1_455 S
C674 C688 1.377 . S
C675 C674 1.524 1_655 S
C675 C676 1.397 . S
C675 C680 1.354 1_655 S
C676 H653 0.950 . S
C676 C675 1.397 . S
C676 C677 1.334 . S
C677 H654 0.950 . S
C677 C676 1.334 . S
C677 C678 1.287 . S
C678 C677 1.287 . S
C678 C679 1.524 . S
C678 H697 0.913 . S
C679 H655 0.950 . S
C679 C678 1.524 . S
C679 C680 1.405 1_655 S
C680 H656 0.970 . S
C680 C675 1.354 1_455 S
C680 C679 1.405 1_455 S
C681 H657 0.951 . S
C681 C682 1.366 1_665 S
C681 C683 1.388 . S
C682 C681 1.366 1_445 S
C682 C686 1.385 . S
C683 H658 0.951 . S
C683 C681 1.388 . S
C683 C684 1.366 1_665 S
C684 C683 1.366 1_445 S
C684 C685 1.414 . S
C684 C687 1.499 . S
C685 H659 0.950 . S
C685 C684 1.414 . S
C685 C686 1.374 . S
C686 H660 0.950 . S
C686 C682 1.385 . S
C686 C685 1.374 . S
C687 C684 1.499 . S
C687 C688 1.373 . S
C687 C689 1.389 1_545 S
C688 H661 0.950 1_455 S
C688 C674 1.377 . S
C688 C687 1.373 . S
C689 C673 1.377 . S
C689 C687 1.389 1_565 S
C689 C690 1.524 . S
C690 C689 1.524 . S
C690 C691 1.397 . S
C690 C695 1.363 . S
C691 H662 0.950 . S
C691 C690 1.397 . S
C691 C692 1.334 . S
C692 H663 0.950 . S
C692 C691 1.334 . S
C692 C693 1.287 . S
C693 C692 1.287 . S
C693 C694 1.524 . S
C693 H696 0.999 . S
C694 H664 0.950 . S
C694 C693 1.524 . S
C694 C695 1.415 . S
C695 H665 0.950 . S
C695 C690 1.363 . S
C695 C694 1.415 . S
H696 C693 0.999 . S
H697 C678 0.913 . S
H698 C716 0.951 . S
H699 C718 0.951 . S
H700 C720 0.950 . S
H701 C721 0.950 . S
H702 C723 0.950 . S
H703 C726 0.950 . S
H704 C727 0.950 . S
H705 C729 0.950 . S
H706 C730 0.950 . S
H707 C731 0.951 . S
H708 C733 0.951 . S
H709 C735 0.950 . S
H710 C736 0.950 . S
H711 C738 0.950 . S
H712 C741 0.950 . S
H713 C742 0.950 . S
H714 C744 0.950 . S
H715 C745 0.950 . S
C716 H698 0.951 . S
C716 C717 1.366 . S
C716 C718 1.388 . S
C717 C716 1.366 . S
C717 C721 1.385 . S
C718 H699 0.951 . S
C718 C716 1.388 . S
C718 C719 1.366 . S
C719 C718 1.366 . S
C719 C720 1.414 . S
C719 C722 1.499 . S
C720 H700 0.950 . S
C720 C719 1.414 . S
C720 C721 1.374 . S
C721 H701 0.950 . S
C721 C717 1.385 . S
C721 C720 1.374 . S
C722 C719 1.499 . S
C722 C723 1.373 . S
C722 C724 1.389 . S
C723 H702 0.950 . S
C723 C722 1.373 . S
C723 C739 1.377 . S
C724 C722 1.389 . S
C724 C725 1.524 . S
C724 C738 1.377 . S
C725 C724 1.524 . S
C725 C726 1.397 . S
C725 C730 1.363 . S
C726 H703 0.950 . S
C726 C725 1.397 . S
C726 C727 1.334 . S
C727 H704 0.950 . S
C727 C726 1.334 . S
C727 C728 1.287 . S
C728 C727 1.287 . S
C728 C729 1.524 . S
C728 H747 0.913 . S
C729 H705 0.950 . S
C729 C728 1.524 . S
C729 C730 1.415 . S
C730 H706 0.950 . S
C730 C725 1.363 . S
C730 C729 1.415 . S
C731 H707 0.951 . S
C731 C732 1.366 . S
C731 C733 1.388 . S
C732 C731 1.366 . S
C732 C736 1.385 . S
C733 H708 0.951 . S
C733 C731 1.388 . S
C733 C734 1.366 . S
C734 C733 1.366 . S
C734 C735 1.414 . S
C734 C737 1.499 . S
C735 H709 0.950 . S
C735 C734 1.414 . S
C735 C736 1.374 . S
C736 H710 0.950 . S
C736 C732 1.385 . S
C736 C735 1.374 . S
C737 C734 1.499 . S
C737 C738 1.373 . S
C737 C739 1.389 . S
C738 H711 0.950 . S
C738 C724 1.377 . S
C738 C737 1.373 . S
C739 C723 1.377 . S
C739 C737 1.389 . S
C739 C740 1.524 . S
C740 C739 1.524 . S
C740 C741 1.397 . S
C740 C745 1.363 . S
C741 H712 0.950 . S
C741 C740 1.397 . S
C741 C742 1.334 . S
C742 H713 0.950 . S
C742 C741 1.334 . S
C742 C743 1.287 . S
C743 C742 1.287 . S
C743 C744 1.524 . S
C743 H746 0.999 . S
C744 H714 0.950 . S
C744 C743 1.524 . S
C744 C745 1.415 . S
C745 H715 0.950 . S
C745 C740 1.363 . S
C745 C744 1.415 . S
H746 C743 0.999 . S
H747 C728 0.913 . S
H748 C766 0.951 . S
H749 C768 0.951 . S
H750 C770 0.950 . S
H751 C771 0.950 . S
H752 C773 0.950 . S
H753 C776 0.950 . S
H754 C777 0.950 . S
H755 C779 0.950 . S
H756 C780 0.950 . S
H757 C781 0.951 . S
H758 C783 0.951 . S
H759 C785 0.950 . S
H760 C786 0.950 . S
H761 C788 0.950 . S
H762 C791 0.950 . S
H763 C792 0.950 . S
H764 C794 0.950 . S
H765 C795 0.950 . S
C766 H748 0.951 . S
C766 C767 1.366 . S
C766 C768 1.388 . S
C767 C766 1.366 . S
C767 C771 1.385 . S
C768 H749 0.951 . S
C768 C766 1.388 . S
C768 C769 1.366 . S
C769 C768 1.366 . S
C769 C770 1.414 . S
C769 C772 1.499 . S
C770 H750 0.950 . S
C770 C769 1.414 . S
C770 C771 1.374 . S
C771 H751 0.950 . S
C771 C767 1.385 . S
C771 C770 1.374 . S
C772 C769 1.499 . S
C772 C773 1.373 . S
C772 C774 1.389 . S
C773 H752 0.950 . S
C773 C772 1.373 . S
C773 C789 1.377 . S
C774 C772 1.389 . S
C774 C775 1.524 . S
C774 C788 1.377 . S
C775 C774 1.524 . S
C775 C776 1.397 . S
C775 C780 1.363 . S
C776 H753 0.950 . S
C776 C775 1.397 . S
C776 C777 1.334 . S
C777 H754 0.950 . S
C777 C776 1.334 . S
C777 C778 1.287 . S
C778 C777 1.287 . S
C778 C779 1.524 . S
C778 H797 0.913 . S
C779 H755 0.950 . S
C779 C778 1.524 . S
C779 C780 1.415 . S
C780 H756 0.950 . S
C780 C775 1.363 . S
C780 C779 1.415 . S
C781 H757 0.951 . S
C781 C782 1.366 . S
C781 C783 1.388 . S
C782 C781 1.366 . S
C782 C786 1.385 . S
C783 H758 0.951 . S
C783 C781 1.388 . S
C783 C784 1.366 . S
C784 C783 1.366 . S
C784 C785 1.414 . S
C784 C787 1.499 . S
C785 H759 0.950 . S
C785 C784 1.414 . S
C785 C786 1.374 . S
C786 H760 0.950 . S
C786 C782 1.385 . S
C786 C785 1.374 . S
C787 C784 1.499 . S
C787 C788 1.373 . S
C787 C789 1.389 . S
C788 H761 0.950 . S
C788 C774 1.377 . S
C788 C787 1.373 . S
C789 C773 1.377 . S
C789 C787 1.389 . S
C789 C790 1.524 . S
C790 C789 1.524 . S
C790 C791 1.397 . S
C790 C795 1.363 . S
C791 H762 0.950 . S
C791 C790 1.397 . S
C791 C792 1.334 . S
C792 H763 0.950 . S
C792 C791 1.334 . S
C792 C793 1.287 . S
C793 C792 1.287 . S
C793 C794 1.524 . S
C793 H796 0.999 . S
C794 H764 0.950 . S
C794 C793 1.524 . S
C794 C795 1.415 . S
C795 H765 0.950 . S
C795 C790 1.363 . S
C795 C794 1.415 . S
H796 C793 0.999 . S
H797 C778 0.913 . S
C232 C175 1.135 . S
C217 C3 1.035 . S
C267 C4 1.508 1_556 S
C282 C136 1.612 . S
C317 C19 1.537 . S
C332 C180 1.636 . S
C367 C7 1.040 1_554 S
C382 C141 1.143 . S
C417 C37 1.034 . S
C432 C97 1.135 . S
C467 C28 1.508 . S
C482 C58 1.613 . S
C532 C102 1.636 . S
C517 C41 1.538 . S
C582 C63 1.143 . S
C567 C25 1.039 . S
C617 C20 1.270 . S
C632 C43 1.421 . S
C667 C16 1.326 . S
C682 C82 1.479 . S
C732 C121 1.421 . S
C717 C40 1.270 . S
C767 C24 1.325 . S
C782 C160 1.479 . S
