# Generated by pormake.
# Topology zzz, (3,6)-cn, num edge types: 1
# Building blocks:
#     Node 0, Type 0, BuildingBlock: BETDIP_clean_linker_0, # of connection points: 3
#     Node 1, Type 0, BuildingBlock: BETDIP_clean_linker_0, # of connection points: 3
#     Node 2, Type 0, BuildingBlock: BETDIP_clean_linker_0, # of connection points: 3
#     Node 3, Type 0, BuildingBlock: BETDIP_clean_linker_0, # of connection points: 3
#     Node 4, Type 0, BuildingBlock: BETDIP_clean_linker_0, # of connection points: 3
#     Node 5, Type 0, BuildingBlock: BETDIP_clean_linker_0, # of connection points: 3
#     Node 6, Type 0, BuildingBlock: BETDIP_clean_linker_0, # of connection points: 3
#     Node 7, Type 0, BuildingBlock: BETDIP_clean_linker_0, # of connection points: 3
#     Node 8, Type 1, BuildingBlock: JUFBIX_clean_sbu_0, # of connection points: 6
#     Node 9, Type 1, BuildingBlock: JUFBIX_clean_sbu_0, # of connection points: 6
#     Node 10, Type 1, BuildingBlock: JUFBIX_clean_sbu_0, # of connection points: 6
#     Node 11, Type 1, BuildingBlock: JUFBIX_clean_sbu_0, # of connection points: 6
#     Edge 12, Type (0, 1), BuildingBlock: AJUNOK_clean_linker_0, # of connection points: 2
#     Edge 13, Type (0, 1), BuildingBlock: AJUNOK_clean_linker_0, # of connection points: 2
#     Edge 14, Type (0, 1), BuildingBlock: AJUNOK_clean_linker_0, # of connection points: 2
#     Edge 15, Type (0, 1), BuildingBlock: AJUNOK_clean_linker_0, # of connection points: 2
#     Edge 16, Type (0, 1), BuildingBlock: AJUNOK_clean_linker_0, # of connection points: 2
#     Edge 17, Type (0, 1), BuildingBlock: AJUNOK_clean_linker_0, # of connection points: 2
#     Edge 18, Type (0, 1), BuildingBlock: AJUNOK_clean_linker_0, # of connection points: 2
#     Edge 19, Type (0, 1), BuildingBlock: AJUNOK_clean_linker_0, # of connection points: 2
#     Edge 20, Type (0, 1), BuildingBlock: AJUNOK_clean_linker_0, # of connection points: 2
#     Edge 21, Type (0, 1), BuildingBlock: AJUNOK_clean_linker_0, # of connection points: 2
#     Edge 22, Type (0, 1), BuildingBlock: AJUNOK_clean_linker_0, # of connection points: 2
#     Edge 23, Type (0, 1), BuildingBlock: AJUNOK_clean_linker_0, # of connection points: 2
#     Edge 24, Type (0, 1), BuildingBlock: AJUNOK_clean_linker_0, # of connection points: 2
#     Edge 25, Type (0, 1), BuildingBlock: AJUNOK_clean_linker_0, # of connection points: 2
#     Edge 26, Type (0, 1), BuildingBlock: AJUNOK_clean_linker_0, # of connection points: 2
#     Edge 27, Type (0, 1), BuildingBlock: AJUNOK_clean_linker_0, # of connection points: 2
#     Edge 28, Type (0, 1), BuildingBlock: AJUNOK_clean_linker_0, # of connection points: 2
#     Edge 29, Type (0, 1), BuildingBlock: AJUNOK_clean_linker_0, # of connection points: 2
#     Edge 30, Type (0, 1), BuildingBlock: AJUNOK_clean_linker_0, # of connection points: 2
#     Edge 31, Type (0, 1), BuildingBlock: AJUNOK_clean_linker_0, # of connection points: 2
#     Edge 32, Type (0, 1), BuildingBlock: AJUNOK_clean_linker_0, # of connection points: 2
#     Edge 33, Type (0, 1), BuildingBlock: AJUNOK_clean_linker_0, # of connection points: 2
#     Edge 34, Type (0, 1), BuildingBlock: AJUNOK_clean_linker_0, # of connection points: 2
#     Edge 35, Type (0, 1), BuildingBlock: AJUNOK_clean_linker_0, # of connection points: 2
# Relax obj value: 0.113
# Max RMSD: 0.172
# Mean RMSD: 0.083
data_MOF--net-zzz--node1-JUFBIX_clean_sbu_0--node2-BETDIP_clean_linker_0--edge1-AJUNOK_clean_linker_0
_symmetry_space_group_name_H-M    P1
_symmetry_Int_Tables_number       1
_symmetry_cell_setting            triclinic
loop_
_symmetry_equiv_pos_as_xyz
'x, y, z'
_cell_length_a     38.236373
_cell_length_b     38.09136
_cell_length_c     13.381261
_cell_angle_alpha  78.752524
_cell_angle_beta   90.187337
_cell_angle_gamma 91.315865
loop_
_atom_site_label
_atom_site_type_symbol
_atom_site_fract_x
_atom_site_fract_y
_atom_site_fract_z
_atom_type_partial_charge
H0 H 0.82562 0.53524 0.44105 0.0
H1 H 0.85644 0.51632 0.14575 0.0
H2 H 0.93206 0.51032 0.38492 0.0
H3 H 0.81591 0.56871 0.11587 0.0
C4 C 0.7949 0.55137 0.15333 0.0
C5 C 0.84525 0.52815 0.39076 0.0
C6 C 0.88018 0.5233 0.42415 0.0
C7 C 0.83629 0.52524 0.28986 0.0
C8 C 0.86263 0.51758 0.22406 0.0
C9 C 0.89722 0.51282 0.25808 0.0
C10 C 0.90525 0.51427 0.35868 0.0
N11 N 0.80138 0.53137 0.25318 0.0
H12 H 0.02808 0.75587 0.45221 0.0
H13 H 0.03965 0.80551 0.13502 0.0
H14 H 0.06492 0.86508 0.36666 0.0
H15 H 0.9866 0.75832 0.15134 0.0
C16 C 1.00734 0.73941 0.1745 0.0
C17 C 0.03618 0.77854 0.39412 0.0
C18 C 0.04629 0.81116 0.42165 0.0
C19 C 0.03531 0.77588 0.29027 0.0
C20 C 0.04224 0.80669 0.21495 0.0
C21 C 0.05192 0.83915 0.24311 0.0
C22 C 0.05667 0.84004 0.34565 0.0
N23 N 0.02766 0.74239 0.262 0.0
H24 H 0.7959 1.01566 0.31357 0.0
H25 H 0.76837 0.04252 -0.00628 0.0
H26 H 0.68942 0.03573 0.223 0.0
H27 H 0.81439 1.00531 0.98468 0.0
C28 C 0.83374 1.01564 0.03183 0.0
C29 C 0.77671 0.02308 0.25393 0.0
C30 C 0.74141 0.02634 0.27942 0.0
C31 C 0.78689 0.02854 0.15035 0.0
C32 C 0.76127 0.03785 0.07351 0.0
C33 C 0.72619 0.04142 0.09993 0.0
C34 C 0.71683 0.0352 0.2023 0.0
N35 N 0.82272 0.02472 0.12521 0.0
H36 H 0.54252 0.74064 0.34765 0.0
H37 H 0.5298 0.73159 0.03181 0.0
H38 H 0.53005 0.63738 0.26599 0.0
H39 H 0.56511 0.78166 0.0129 0.0
C40 C 0.55201 0.79744 0.06028 0.0
C41 C 0.53853 0.72457 0.28994 0.0
C42 C 0.53626 0.68694 0.31831 0.0
C43 C 0.53651 0.74131 0.18603 0.0
C44 C 0.53175 0.71966 0.11188 0.0
C45 C 0.52908 0.68224 0.14122 0.0
C46 C 0.53116 0.66639 0.24384 0.0
N47 N 0.53928 0.77953 0.15755 0.0
H48 H 0.26113 0.50977 0.17559 0.0
H49 H 0.23199 0.53524 0.46447 0.0
H50 H 0.1546 0.53386 0.23272 0.0
H51 H 0.29344 0.57117 0.40331 0.0
C52 C 0.30287 0.544 0.41306 0.0
C53 C 0.24163 0.51754 0.22513 0.0
C54 C 0.20654 0.52133 0.19293 0.0
C55 C 0.25133 0.52425 0.32196 0.0
C56 C 0.22528 0.53259 0.38749 0.0
C57 C 0.19023 0.53479 0.35625 0.0
C58 C 0.18165 0.53113 0.2576 0.0
N59 N 0.2866 0.5201 0.35632 0.0
H60 H 0.04737 0.28562 0.1636 0.0
H61 H 0.02258 0.23728 0.47411 0.0
H62 H 1.00711 0.17725 0.2376 0.0
H63 H 0.98469 0.30836 0.39044 0.0
C64 C 1.01192 0.31496 0.40361 0.0
C65 C 0.03672 0.26327 0.21851 0.0
C66 C 0.02746 0.23087 0.18811 0.0
C67 C 0.03176 0.26642 0.32097 0.0
C68 C 0.02243 0.23582 0.39404 0.0
C69 C 1.0157 0.20302 0.36409 0.0
C70 C 1.0142 0.20226 0.26064 0.0
N71 N 0.03837 0.29943 0.35272 0.0
H72 H 0.2841 0.02472 0.30267 0.0
H73 H 0.3108 0.9955 0.62257 0.0
H74 H 0.38983 1.00075 0.39396 0.0
H75 H 0.2651 0.0331 0.63272 0.0
C76 C 0.24572 0.02356 0.58413 0.0
C77 C 0.30301 1.01616 0.3624 0.0
C78 C 0.33817 1.01201 0.33709 0.0
C79 C 0.29262 1.01031 0.46581 0.0
C80 C 0.318 1.00012 0.54285 0.0
C81 C 0.35299 0.99573 0.51674 0.0
C82 C 0.36245 1.00182 0.41437 0.0
N83 N 0.25685 1.01484 0.49039 0.0
H84 H 0.53997 0.29838 0.28179 0.0
H85 H 0.55162 0.30604 0.59906 0.0
H86 H 0.55283 0.40097 0.36718 0.0
H87 H 0.51948 0.25412 0.6206 0.0
C88 C 0.53142 0.2395 0.56802 0.0
C89 C 0.54351 0.31417 0.34034 0.0
C90 C 0.54602 0.35179 0.31311 0.0
C91 C 0.54502 0.29703 0.44399 0.0
C92 C 0.54977 0.31826 0.5192 0.0
C93 C 0.55301 0.35567 0.49074 0.0
C94 C 0.551 0.37195 0.38847 0.0
N95 N 0.54239 0.25877 0.47031 0.0
Co96 Co 0.04774 0.0402 0.85365 0.0
C97 C 0.97756 1.02067 0.87898 0.0
Co98 Co 0.03082 1.00259 0.75473 0.0
C99 C 0.04861 0.10789 0.91961 0.0
C100 C 0.08827 0.07369 -0.00544 0.0
N101 N 0.06203 0.07493 0.92672 0.0
N102 N 0.06521 0.12737 0.98056 0.0
C103 C 0.09019 0.10569 0.02798 0.0
H104 H 0.02737 0.11746 0.86896 0.0
H105 H 0.10489 0.05099 0.01838 0.0
C106 C 0.10111 0.02197 0.72979 0.0
N107 N 1.0166 0.96778 0.68223 0.0
C108 C 0.03074 0.93522 0.68798 0.0
C109 C 0.9892 0.96805 0.61865 0.0
N110 N 1.01337 0.91502 0.63061 0.0
C111 C 0.98723 0.9358 0.5866 0.0
C112 C 0.02265 0.07161 0.66151 0.0
O113 O 0.09401 0.04016 0.79741 0.0
O114 O 0.07685 1.00315 0.69949 0.0
O115 O 1.01854 0.03993 0.64599 0.0
O116 O 0.03524 0.07684 0.74504 0.0
O117 O 0.98467 1.00246 0.81142 0.0
H118 H 0.97166 0.99015 0.59752 0.0
H119 H 0.05294 0.92632 0.73563 0.0
O120 O 1.00173 0.03974 0.90866 0.0
O121 O 0.05968 1.00264 0.96284 0.0
O122 O 0.04325 0.96606 0.86272 0.0
C123 C 0.05531 0.97101 0.94701 0.0
H124 H 0.10809 0.11205 0.08505 0.0
H125 H 0.96835 0.92855 0.53325 0.0
Co126 Co 0.52581 0.02338 0.87719 0.0
C127 C 0.54237 0.9518 0.89559 0.0
Co128 Co 0.55336 1.01299 0.74103 0.0
C129 C 0.46538 0.0226 0.00681 0.0
C130 C 0.50485 0.05995 0.0364 0.0
N131 N 0.4986 0.03411 0.98226 0.0
N132 N 0.45033 0.04085 0.07159 0.0
C133 C 0.47541 0.06394 0.0919 0.0
H134 H 0.45182 1.00225 0.9743 0.0
H135 H 0.52876 0.0759 0.03264 0.0
C136 C 0.53723 0.08447 0.72169 0.0
N137 N 0.58069 1.00267 0.63597 0.0
C138 C 0.61303 1.01639 0.60924 0.0
C139 C 0.57614 0.97595 0.58405 0.0
N140 N 0.62915 0.99906 0.54414 0.0
C141 C 0.60583 0.97368 0.52759 0.0
C142 C 0.48288 1.00485 0.7242 0.0
O143 O 0.52432 0.07259 0.80978 0.0
O144 O 0.5516 0.0625 0.67483 0.0
O145 O 0.511 1.00284 0.6752 0.0
O146 O 0.48438 1.01376 0.81034 0.0
O147 O 0.55495 0.96428 0.80765 0.0
H148 H 0.55344 0.95816 0.59061 0.0
H149 H 0.62531 0.0374 0.64183 0.0
O150 O 0.5277 0.97331 0.94377 0.0
O151 O 0.56818 0.03349 0.94291 0.0
O152 O 0.59476 0.02261 0.80783 0.0
C153 C 0.59628 0.03154 0.89386 0.0
H154 H 0.47283 0.08244 0.14324 0.0
H155 H 0.61008 0.95448 0.47921 0.0
Co156 Co 0.57255 0.52163 0.8209 0.0
C157 C 0.54186 0.46684 0.96578 0.0
Co158 Co 0.51464 0.51704 0.80867 0.0
C159 C 0.63973 0.52892 0.92211 0.0
C160 C 0.64506 0.52733 0.76373 0.0
N161 N 0.62098 0.52564 0.83794 0.0
N162 N 0.67444 0.53309 0.90246 0.0
C163 C 0.67778 0.53186 0.80298 0.0
H164 H 0.62808 0.52933 -0.00452 0.0
H165 H 0.63913 0.5259 0.6855 0.0
C166 C 0.54582 0.5719 0.6638 0.0
N167 N 0.46616 0.5129 0.78852 0.0
C168 C 0.44869 0.52143 0.69899 0.0
C169 C 0.44134 0.49852 0.85685 0.0
N170 N 0.41428 0.51267 0.70868 0.0
C171 C 0.4095 0.49826 0.80795 0.0
C172 C 0.53548 0.56635 0.92247 0.0
O173 O 0.57435 0.56005 0.70498 0.0
O174 O 0.51728 0.55585 0.69538 0.0
O175 O 0.5083 0.55108 0.89367 0.0
O176 O 0.56561 0.55592 0.90293 0.0
O177 O 0.51323 0.47806 0.92351 0.0
H178 H 0.44606 0.48853 0.93697 0.0
H179 H 0.46102 0.53312 0.62714 0.0
O180 O 0.57026 0.48356 0.93565 0.0
O181 O 0.57858 0.48695 0.73772 0.0
O182 O 0.52146 0.48328 0.72467 0.0
C183 C 0.55149 0.4724 0.70633 0.0
H184 H 0.70222 0.53429 0.76129 0.0
H185 H 0.38468 0.48867 0.8428 0.0
Co186 Co 0.04442 0.55191 0.80446 0.0
C187 C 0.10176 0.5142 0.90324 0.0
Co188 Co 0.04272 0.49315 0.81162 0.0
C189 C 0.02743 0.61623 0.88073 0.0
C190 C 0.07478 0.62216 0.79369 0.0
N191 N 0.04695 0.59981 0.81973 0.0
N192 N 0.04251 0.64724 0.89562 0.0
C193 C 0.07221 0.6511 0.84056 0.0
H194 H 1.00417 0.60434 0.92051 0.0
H195 H 0.09706 0.61638 0.75055 0.0
C196 C 0.98528 0.53086 0.71323 0.0
N197 N 0.04159 0.44567 0.79495 0.0
C198 C 0.03205 0.43477 0.70824 0.0
C199 C 0.05358 0.41601 0.85625 0.0
N200 N 0.03769 0.3997 0.71241 0.0
C201 C 0.05138 0.38773 0.80541 0.0
C202 C 1.00865 0.50881 0.97103 0.0
O203 O 1.00082 0.55894 0.73148 0.0
O204 O 1.00001 0.50085 0.73871 0.0
O205 O 1.01642 0.48177 0.93359 0.0
O206 O 1.01926 0.53981 0.92737 0.0
O207 O 0.08587 0.48621 0.88625 0.0
H208 H 0.0643 0.41525 0.93152 0.0
H209 H 0.02267 0.45272 0.64115 0.0
O210 O 0.08744 0.54434 0.87624 0.0
O211 O 0.07 0.56294 0.6809 0.0
O212 O 0.06867 0.50485 0.69037 0.0
C213 C 0.07866 0.53585 0.64527 0.0
H214 H 0.09163 0.67235 0.83892 0.0
H215 H 0.05949 0.36058 0.83414 0.0
C216 C 0.19959 0.03869 0.69911 0.0
C217 C 0.20822 0.02324 0.61533 0.0
C218 C 0.16503 0.03848 0.73443 0.0
C219 C 0.13743 0.02241 0.68828 0.0
H220 H 0.21985 0.0511 0.73822 0.0
H221 H 0.16007 0.0507 0.79947 0.0
S222 S 0.14588 0.97797 0.46579 0.0
N223 N 0.18617 0.99144 0.48641 0.0
N224 N 0.12129 0.99067 0.55295 0.0
C225 C 0.14565 1.00684 0.60395 0.0
C226 C 0.18096 1.00735 0.56743 0.0
C227 C 0.5182 0.1837 0.69477 0.0
C228 C 0.53312 0.19971 0.60044 0.0
C229 C 0.51945 0.14668 0.73199 0.0
C230 C 0.53582 0.12366 0.67684 0.0
H231 H 0.50545 0.20004 0.74103 0.0
H232 H 0.50757 0.13615 0.80541 0.0
S233 S 0.57928 0.1519 0.42493 0.0
N234 N 0.56494 0.18957 0.45193 0.0
N235 N 0.56746 0.11993 0.52175 0.0
C236 C 0.55082 0.13924 0.58175 0.0
C237 C 0.54945 0.1772 0.54361 0.0
C238 C 0.3571 0.56087 0.49884 0.0
C239 C 0.33311 0.53397 0.48235 0.0
C240 C 0.38431 0.55344 0.57026 0.0
C241 C 0.38785 0.51907 0.63034 0.0
H242 H 0.35462 0.58803 0.45669 0.0
H243 H 0.40201 0.57497 0.58123 0.0
S244 S 0.33233 0.4391 0.61677 0.0
N245 N 0.31538 0.47127 0.53057 0.0
N246 N 0.36575 0.45769 0.66729 0.0
C247 C 0.36428 0.49186 0.61421 0.0
C248 C 0.33712 0.49918 0.53953 0.0
C249 C 0.05101 0.33561 0.53394 0.0
C250 C 1.01994 0.33888 0.47651 0.0
C251 C 0.05665 0.35546 0.61122 0.0
C252 C 0.03178 0.37979 0.63217 0.0
H253 H 0.07055 0.31677 0.52149 0.0
H254 H 0.08066 0.35187 0.65477 0.0
S255 S 0.94693 0.39921 0.50022 0.0
N256 N 0.96442 0.36873 0.44444 0.0
N257 N 0.97541 0.40653 0.58734 0.0
C258 C 1.00112 0.38395 0.57325 0.0
C259 C 0.99511 0.36333 0.49615 0.0
C260 C 0.87949 1.0023 0.91329 0.0
C261 C 0.87105 1.01703 -0.00148 0.0
C262 C 0.91386 1.0034 0.87608 0.0
C263 C 0.94143 1.01964 0.9218 0.0
H264 H 0.85924 0.98975 0.87452 0.0
H265 H 0.91869 0.99166 0.81005 0.0
S266 S 0.93347 0.06229 0.14785 0.0
N267 N 0.89327 0.04831 0.12844 0.0
N268 N 0.95781 0.05069 0.0584 0.0
C269 C 0.93341 0.03451 0.00754 0.0
C270 C 0.8983 0.03313 0.04595 0.0
C271 C 0.53401 0.86015 0.07699 0.0
C272 C 0.54952 0.83687 0.02091 0.0
C273 C 0.53176 0.89726 0.03676 0.0
C274 C 0.54491 0.91248 0.93894 0.0
H275 H 0.52349 0.84972 0.15223 0.0
H276 H 0.51959 0.91407 0.08264 0.0
S277 S 0.58777 0.86253 0.76154 0.0
N278 N 0.57802 0.83167 0.86283 0.0
N279 N 0.57396 0.90044 0.7876 0.0
C280 C 0.56046 0.88918 0.88267 0.0
C281 C 0.5627 0.85172 0.92351 0.0
C282 C 0.7355 0.52246 0.12924 0.0
C283 C 0.76192 0.54845 0.095 0.0
C284 C 0.7061 0.51831 0.0678 0.0
C285 C 0.70237 0.53977 0.97 0.0
H286 H 0.73795 0.50465 0.20246 0.0
H287 H 0.68686 0.49737 0.09518 0.0
S288 S 0.76201 0.61409 0.85021 0.0
N289 N 0.78069 0.59765 0.96026 0.0
N290 N 0.72591 0.5898 0.84637 0.0
C291 C 0.72784 0.56666 0.93728 0.0
C292 C 0.75746 0.57099 -0.00064 0.0
C293 C 0.0492 0.69988 0.10617 0.0
C294 C 1.01524 0.71302 0.10973 0.0
C295 C 0.05784 0.6782 0.03647 0.0
C296 C 0.03269 0.66827 0.96935 0.0
H297 H 0.06958 0.70737 0.15491 0.0
H298 H 0.08445 0.66918 0.0347 0.0
S299 S 0.93973 0.69388 0.95244 0.0
N300 N 0.95615 0.71369 0.04215 0.0
N301 N 0.97226 0.672 0.91372 0.0
C302 C 0.99842 0.68012 0.97481 0.0
C303 C 0.98977 0.70279 0.04419 0.0
C304 C 0.99719 0.16414 0.5303 0.0
C305 C 1.01566 0.16848 0.43795 0.0
C306 C 0.99822 0.13182 0.60127 0.0
C307 C 1.01698 0.1027 0.58069 0.0
H308 H 0.98224 0.18592 0.54827 0.0
H309 H 0.98473 0.12971 0.67338 0.0
S310 S 0.07233 0.10095 0.35583 0.0
N311 N 0.056 0.14145 0.33483 0.0
N312 N 0.05554 0.08025 0.46559 0.0
C313 C 0.03524 0.1064 0.48895 0.0
C314 C 0.03522 0.13946 0.41823 0.0
C315 C 0.38706 1.01494 0.65618 0.0
C316 C 0.38181 0.99018 0.59209 0.0
C317 C 0.4197 1.01858 0.70148 0.0
C318 C 0.44826 0.99808 0.68246 0.0
H319 H 0.36676 0.03347 0.66513 0.0
H320 H 0.42312 0.03901 0.74703 0.0
S321 S 0.446 0.92471 0.5373 0.0
N322 N 0.40608 0.94073 0.52605 0.0
N323 N 0.46788 0.94877 0.60785 0.0
C324 C 0.4426 0.97134 0.62539 0.0
C325 C 0.40917 0.96695 0.5816 0.0
C326 C 0.52569 0.38738 0.61408 0.0
C327 C 0.55602 0.37952 0.56498 0.0
C328 C 0.52471 0.41739 0.65995 0.0
C329 C 0.55409 0.44057 0.6587 0.0
H330 H 0.50195 0.37147 0.61163 0.0
H331 H 0.50043 0.42278 0.69506 0.0
S332 S 0.64053 0.43 0.54448 0.0
N333 N 0.61647 0.39601 0.52057 0.0
N334 N 0.61507 0.45211 0.60899 0.0
C335 C 0.58515 0.43189 0.61402 0.0
C336 C 0.58598 0.40146 0.56652 0.0
C337 C 0.15912 0.56391 0.48276 0.0
C338 C 0.16133 0.53601 0.42833 0.0
C339 C 0.13079 0.56529 0.54843 0.0
C340 C 0.10411 0.53865 0.56166 0.0
H341 H 0.17937 0.58463 0.47462 0.0
H342 H 0.13055 0.58641 0.59213 0.0
S343 S 0.09774 0.46042 0.43454 0.0
N344 N 0.13458 0.48131 0.39167 0.0
N345 N 0.08112 0.4845 0.51197 0.0
C346 C 0.10576 0.5112 0.5055 0.0
C347 C 0.1345 0.50964 0.43988 0.0
C348 C 0.07272 0.87634 0.07748 0.0
C349 C 0.05382 0.87341 0.16863 0.0
C350 C 0.07486 0.90895 0.00782 0.0
C351 C 0.05888 0.93967 0.02847 0.0
H352 H 0.0857 0.85333 0.05975 0.0
H353 H 0.08851 0.91003 0.93639 0.0
S354 S 1.00384 0.94553 0.25116 0.0
N355 N 1.01639 0.90356 0.27145 0.0
N356 N 0.02237 0.96508 0.14271 0.0
C357 C 0.0402 0.93727 0.1192 0.0
C358 C 0.0371 0.90401 0.18868 0.0
C359 C 0.69225 0.02222 0.9603 0.0
C360 C 0.69732 0.04684 0.02488 0.0
C361 C 0.6596 1.01839 0.91534 0.0
C362 C 0.63088 0.03853 0.93525 0.0
H363 H 0.71272 1.00395 0.95073 0.0
H364 H 0.65631 0.99806 0.86936 0.0
S365 S 0.63262 0.11141 0.08221 0.0
N366 N 0.67271 0.09582 0.09239 0.0
N367 N 0.61088 0.08736 0.01134 0.0
C368 C 0.63635 0.06515 -0.00719 0.0
C369 C 0.66979 0.06977 0.03618 0.0
C370 C 0.50001 0.63265 0.07276 0.0
C371 C 0.52759 0.6581 0.06726 0.0
C372 C 0.50226 0.60342 0.02369 0.0
C373 C 0.53254 0.59822 0.96961 0.0
H374 H 0.47723 0.63454 0.11925 0.0
H375 H 0.48077 0.58403 0.03169 0.0
S376 S 0.61078 0.65904 0.92602 0.0
N377 N 0.5849 0.67764 -0.00156 0.0
N378 N 0.58953 0.62276 0.90646 0.0
C379 C 0.55963 0.62445 0.9599 0.0
C380 C 0.55703 0.65442 0.00855 0.0
C381 C 0.92709 0.48341 0.13018 0.0
C382 C 0.92634 0.51061 0.1875 0.0
C383 C 0.95533 0.48115 0.06498 0.0
C384 C 0.98341 0.50617 0.05514 0.0
H385 H 0.9057 0.464 0.1354 0.0
H386 H 0.95439 0.46076 0.0187 0.0
S387 S 0.99402 0.58181 0.19127 0.0
N388 N 0.95605 0.56277 0.23103 0.0
N389 N 1.0094 0.55782 0.11171 0.0
C390 C 0.9833 0.53275 0.11464 0.0
C391 C 0.95463 0.53523 0.17978 0.0
C392 C 0.07338 0.21221 0.08327 0.0
C393 C 0.03823 0.22141 0.09065 0.0
C394 C 0.08244 0.18319 0.03876 0.0
C395 C 0.0567 0.16242 -0.00032 0.0
H396 H 0.09339 0.22415 0.12443 0.0
H397 H 0.10949 0.1753 0.04237 0.0
S398 S 0.96188 0.18226 0.9776 0.0
N399 N 0.97876 0.21313 0.03575 0.0
N400 N 0.99508 0.15804 0.95474 0.0
C401 C 0.02214 0.17496 -0.00696 0.0
C402 C 1.0132 0.20496 0.03672 0.0
C403 C 0.36919 0.99429 0.19425 0.0
C404 C 0.3531 0.02167 0.2333 0.0
C405 C 0.39978 1.00116 0.13528 0.0
C406 C 0.41524 0.0357 0.1128 0.0
H407 H 0.36071 0.96669 0.22036 0.0
H408 H 0.41302 0.97869 0.11519 0.0
S409 S 0.37772 0.11804 0.17375 0.0
N410 N 0.35096 0.08545 0.2294 0.0
N411 N 0.40769 0.09877 0.11542 0.0
C412 C 0.39666 0.06401 0.13962 0.0
C413 C 0.36556 0.05692 0.19982 0.0
C414 C 0.5122 0.38855 0.17359 0.0
C415 C 0.54386 0.37223 0.20753 0.0
C416 C 0.51154 0.41846 0.09327 0.0
C417 C 0.54265 0.43354 0.04537 0.0
H418 H 0.48811 0.37968 0.21414 0.0
H419 H 0.48668 0.43084 0.07205 0.0
S420 S 0.63201 0.39837 0.10135 0.0
N421 N 0.60654 0.37151 0.18349 0.0
N422 N 0.60576 0.42744 0.0327 0.0
C423 C 0.57425 0.41605 0.07522 0.0
C424 C 0.57473 0.38547 0.15616 0.0
C425 C 0.17274 0.48275 0.097 0.0
C426 C 0.19294 0.51432 0.09493 0.0
C427 C 0.14477 0.48174 0.02895 0.0
C428 C 0.1359 0.51243 0.95737 0.0
H429 H 0.17608 0.46002 0.15877 0.0
H430 H 0.12823 0.45784 0.03857 0.0
S431 S 0.18513 0.59928 0.90818 0.0
N432 N 0.20546 0.57496 0.00598 0.0
N433 N 0.1534 0.57325 0.87729 0.0
C434 C 0.15841 0.54276 0.94728 0.0
C435 C 0.18691 0.54361 0.01604 0.0
C436 C 1.00363 0.82837 0.5384 0.0
C437 C 0.03861 0.82047 0.52163 0.0
C438 C 0.99542 0.8577 0.58255 0.0
C439 C 0.02186 0.87988 0.61254 0.0
H440 H 0.98266 0.81524 0.50398 0.0
H441 H 0.96823 0.86472 0.58559 0.0
S442 S 0.11733 0.86373 0.61014 0.0
N443 N 0.09938 0.83148 0.5594 0.0
N444 N 0.08446 0.88706 0.64018 0.0
C445 C 0.05671 0.86861 0.61089 0.0
C446 C 0.06488 0.83836 0.56738 0.0
C447 C 0.714 0.98335 0.41978 0.0
C448 C 0.72681 1.01841 0.38377 0.0
C449 C 0.68319 0.97697 0.47804 0.0
C450 C 0.66417 1.0054 0.50267 0.0
H451 H 0.72532 0.96119 0.3923 0.0
H452 H 0.673 0.94977 0.49829 0.0
S453 S 0.69042 0.10165 0.4402 0.0
N454 N 0.72135 0.08123 0.38915 0.0
N455 N 0.66325 0.06965 0.49675 0.0
C456 C 0.67906 0.04016 0.47706 0.0
C457 C 0.71065 0.04648 0.41893 0.0
C458 C 0.51018 0.65074 0.47486 0.0
C459 C 0.54022 0.66676 0.4237 0.0
C460 C 0.51248 0.62069 0.55377 0.0
C461 C 0.54495 0.60525 0.58441 0.0
H462 H 0.48451 0.65988 0.44857 0.0
H463 H 0.48835 0.60873 0.58834 0.0
S464 S 0.63167 0.63915 0.47868 0.0
N465 N 0.60347 0.66654 0.41199 0.0
N466 N 0.60814 0.61037 0.56158 0.0
C467 C 0.57541 0.62244 0.53776 0.0
C468 C 0.57295 0.65309 0.45718 0.0
C469 C 0.91319 0.56175 0.52225 0.0
C470 C 0.89375 0.52978 0.52283 0.0
C471 C 0.94127 0.56301 0.58987 0.0
C472 C 0.95099 0.53221 0.6597 0.0
H473 H 0.9092 0.58474 0.46175 0.0
H474 H 0.95721 0.58729 0.5812 0.0
S475 S 0.90373 0.4442 0.7054 0.0
N476 N 0.88279 0.46851 0.60888 0.0
N477 N 0.93493 0.47066 0.73704 0.0
C478 C 0.92919 0.50135 0.66851 0.0
C479 C 0.90063 0.50024 0.60004 0.0
loop_
_geom_bond_atom_site_label_1
_geom_bond_atom_site_label_2
_geom_bond_distance
_geom_bond_site_symmetry_2
_ccdc_geom_bond_type
H0 C5 0.930 . S
H1 C8 0.930 . S
H2 C10 0.930 . S
H3 C4 1.016 . S
C4 H3 1.016 . S
C4 N11 1.286 . S
C5 H0 0.930 . S
C5 C6 1.397 . S
C5 C7 1.361 . S
C6 C5 1.397 . S
C6 C10 1.390 . S
C7 C5 1.361 . S
C7 C8 1.393 . S
C7 N11 1.413 . S
C8 H1 0.930 . S
C8 C7 1.393 . S
C8 C9 1.399 . S
C9 C8 1.399 . S
C9 C10 1.381 . S
C10 H2 0.930 . S
C10 C6 1.390 . S
C10 C9 1.381 . S
N11 C4 1.286 . S
N11 C7 1.413 . S
H12 C17 0.930 . S
H13 C20 0.930 1_556 S
H14 C22 0.930 . S
H15 C16 1.016 1_556 S
C16 H15 1.016 1_554 S
C16 N23 1.286 . S
C17 H12 0.930 . S
C17 C18 1.397 . S
C17 C19 1.361 . S
C18 C17 1.397 . S
C18 C22 1.390 . S
C19 C17 1.361 . S
C19 C20 1.393 . S
C19 N23 1.413 . S
C20 H13 0.930 1_554 S
C20 C19 1.393 . S
C20 C21 1.399 . S
C21 C20 1.399 . S
C21 C22 1.381 . S
C22 H14 0.930 . S
C22 C18 1.390 . S
C22 C21 1.381 . S
N23 C16 1.286 . S
N23 C19 1.413 . S
H24 C29 0.930 . S
H25 C32 0.930 . S
H26 C34 0.930 . S
H27 C28 1.016 . S
C28 H27 1.016 . S
C28 N35 1.286 1_566 S
C29 H24 0.930 . S
C29 C30 1.397 . S
C29 C31 1.361 . S
C30 C29 1.397 . S
C30 C34 1.390 1_545 S
C31 C29 1.361 . S
C31 C32 1.393 1_554 S
C31 N35 1.413 . S
C32 H25 0.930 . S
C32 C31 1.393 1_556 S
C32 C33 1.401 . S
C33 C32 1.401 . S
C33 C34 1.383 1_546 S
C34 H26 0.930 . S
C34 C30 1.390 1_565 S
C34 C33 1.383 1_564 S
N35 C28 1.286 1_544 S
N35 C31 1.413 . S
H36 C41 0.930 . S
H37 C44 0.921 1_556 S
H38 C46 0.930 . S
H39 C40 1.016 1_556 S
C40 H39 1.016 1_554 S
C40 N47 1.286 . S
C41 H36 0.930 . S
C41 C42 1.397 . S
C41 C43 1.361 . S
C42 C41 1.397 . S
C42 C46 1.390 . S
C43 C41 1.361 . S
C43 C44 1.393 . S
C43 N47 1.413 . S
C44 H37 0.921 1_554 S
C44 C43 1.393 . S
C44 C45 1.399 . S
C45 C44 1.399 . S
C45 C46 1.381 . S
C46 H38 0.930 . S
C46 C42 1.390 . S
C46 C45 1.381 . S
N47 C40 1.286 . S
N47 C43 1.413 . S
H48 C53 0.930 . S
H49 C56 0.930 . S
H50 C58 0.930 . S
H51 C52 1.016 . S
C52 H51 1.016 . S
C52 N59 1.286 . S
C53 H48 0.930 . S
C53 C54 1.397 . S
C53 C55 1.361 . S
C54 C53 1.397 . S
C54 C58 1.390 . S
C55 C53 1.361 . S
C55 C56 1.393 . S
C55 N59 1.413 . S
C56 H49 0.930 . S
C56 C55 1.393 . S
C56 C57 1.399 . S
C57 C56 1.399 . S
C57 C58 1.381 . S
C58 H50 0.930 . S
C58 C54 1.390 . S
C58 C57 1.381 . S
N59 C52 1.286 . S
N59 C55 1.413 . S
H60 C65 0.930 . S
H61 C68 0.930 . S
H62 C70 0.930 . S
H63 C64 1.016 . S
C64 H63 1.016 . S
C64 N71 1.286 . S
C65 H60 0.930 . S
C65 C66 1.397 . S
C65 C67 1.361 . S
C66 C65 1.397 . S
C66 C70 1.390 . S
C67 C65 1.361 . S
C67 C68 1.393 . S
C67 N71 1.413 . S
C68 H61 0.930 . S
C68 C67 1.393 . S
C68 C69 1.399 . S
C69 C68 1.399 . S
C69 C70 1.381 . S
C70 H62 0.930 . S
C70 C66 1.390 . S
C70 C69 1.381 . S
N71 C64 1.286 . S
N71 C67 1.413 . S
H72 C77 0.930 . S
H73 C80 0.930 . S
H74 C82 0.930 . S
H75 C76 1.021 . S
C76 H75 1.021 . S
C76 N83 1.277 1_565 S
C77 H72 0.930 . S
C77 C78 1.397 . S
C77 C79 1.361 . S
C78 C77 1.397 . S
C78 C82 1.390 1_545 S
C79 C77 1.361 . S
C79 C80 1.393 . S
C79 N83 1.413 . S
C80 H73 0.930 . S
C80 C79 1.393 . S
C80 C81 1.406 . S
C81 C80 1.406 . S
C81 C82 1.372 1_545 S
C82 H74 0.930 . S
C82 C78 1.390 1_565 S
C82 C81 1.372 1_565 S
N83 C76 1.277 1_545 S
N83 C79 1.413 . S
H84 C89 0.930 . S
H85 C92 0.930 . S
H86 C94 0.930 . S
H87 C88 1.016 . S
C88 H87 1.016 . S
C88 N95 1.286 . S
C89 H84 0.930 . S
C89 C90 1.397 . S
C89 C91 1.361 . S
C90 C89 1.397 . S
C90 C94 1.390 . S
C91 C89 1.361 . S
C91 C92 1.393 . S
C91 N95 1.413 . S
C92 H85 0.930 . S
C92 C91 1.393 . S
C92 C93 1.399 . S
C93 C92 1.399 . S
C93 C94 1.381 . S
C94 H86 0.930 . S
C94 C90 1.390 . S
C94 C93 1.381 . S
N95 C88 1.286 . S
N95 C91 1.413 . S
Co96 N101 2.057 1_556 S
Co96 O113 2.021 . S
Co96 O116 2.062 . S
Co96 O120 2.117 1_455 S
Co96 O121 2.020 1_545 S
C97 O117 1.259 1_545 S
C97 O120 1.258 . S
Co98 N107 2.057 . S
Co98 O114 2.117 . S
Co98 O115 2.020 1_565 S
Co98 O117 2.021 1_455 S
Co98 O122 2.062 . S
C99 N101 1.316 . S
C99 N102 1.347 . S
C99 H104 0.931 . S
C100 N101 1.375 . S
C100 C103 1.350 . S
C100 H105 0.930 1_455 S
N101 Co96 2.057 1_554 S
N101 C99 1.316 . S
N101 C100 1.375 . S
N102 C99 1.347 . S
N102 C103 1.373 . S
C103 C100 1.350 . S
C103 N102 1.373 . S
C103 H124 0.920 1_455 S
H104 C99 0.931 . S
H105 C100 0.930 1_655 S
C106 O113 1.259 1_565 S
C106 O114 1.258 . S
N107 Co98 2.057 . S
N107 C108 1.316 1_455 S
N107 C109 1.375 . S
C108 N107 1.316 1_655 S
C108 N110 1.347 . S
C108 H119 0.931 . S
C109 N107 1.375 . S
C109 C111 1.350 . S
C109 H118 0.930 . S
N110 C108 1.347 . S
N110 C111 1.373 1_655 S
C111 C109 1.350 . S
C111 N110 1.373 1_455 S
C111 H125 0.931 . S
C112 O115 1.256 . S
C112 O116 1.255 . S
O113 Co96 2.021 . S
O113 C106 1.259 1_545 S
O114 Co98 2.117 . S
O114 C106 1.258 . S
O115 Co98 2.020 1_545 S
O115 C112 1.256 . S
O116 Co96 2.062 . S
O116 C112 1.255 . S
O117 C97 1.259 1_565 S
O117 Co98 2.021 1_655 S
H118 C109 0.930 . S
H119 C108 0.931 . S
O120 Co96 2.117 1_655 S
O120 C97 1.258 . S
O121 Co96 2.020 1_565 S
O121 C123 1.256 . S
O122 Co98 2.062 . S
O122 C123 1.255 . S
C123 O121 1.256 . S
C123 O122 1.255 . S
H124 C103 0.920 1_655 S
H125 C111 0.931 . S
Co126 N131 2.057 1_546 S
Co126 O143 2.021 . S
Co126 O146 2.062 . S
Co126 O150 2.117 1_545 S
Co126 O151 2.020 . S
C127 O147 1.259 . S
C127 O150 1.258 . S
Co128 N137 2.057 1_565 S
Co128 O144 2.117 1_565 S
Co128 O145 2.020 . S
Co128 O147 2.021 . S
Co128 O152 2.062 . S
C129 N131 1.316 1_545 S
C129 N132 1.347 . S
C129 H134 0.931 . S
C130 N131 1.375 . S
C130 C133 1.350 . S
C130 H135 0.930 . S
N131 Co126 2.057 1_564 S
N131 C129 1.316 1_565 S
N131 C130 1.375 . S
N132 C129 1.347 . S
N132 C133 1.373 1_545 S
C133 C130 1.350 . S
C133 N132 1.373 1_565 S
C133 H154 0.931 . S
H134 C129 0.931 . S
H135 C130 0.930 . S
C136 O143 1.259 . S
C136 O144 1.258 . S
N137 Co128 2.057 1_545 S
N137 C138 1.316 1_545 S
N137 C139 1.375 . S
C138 N137 1.316 1_565 S
C138 N140 1.347 . S
C138 H149 0.931 . S
C139 N137 1.375 . S
C139 C141 1.350 . S
C139 H148 0.930 . S
N140 C138 1.347 . S
N140 C141 1.373 1_565 S
C141 C139 1.350 . S
C141 N140 1.373 1_545 S
C141 H155 0.931 . S
C142 O145 1.256 . S
C142 O146 1.255 1_565 S
O143 Co126 2.021 . S
O143 C136 1.259 . S
O144 Co128 2.117 1_545 S
O144 C136 1.258 . S
O145 Co128 2.020 . S
O145 C142 1.256 . S
O146 Co126 2.062 . S
O146 C142 1.255 1_545 S
O147 C127 1.259 . S
O147 Co128 2.021 . S
H148 C139 0.930 . S
H149 C138 0.931 . S
O150 Co126 2.117 1_565 S
O150 C127 1.258 . S
O151 Co126 2.020 . S
O151 C153 1.256 . S
O152 Co128 2.062 . S
O152 C153 1.255 1_565 S
C153 O151 1.256 . S
C153 O152 1.255 1_545 S
H154 C133 0.931 . S
H155 C141 0.931 . S
Co156 N161 2.057 . S
Co156 O173 2.021 . S
Co156 O176 2.062 . S
Co156 O180 2.117 . S
Co156 O181 2.020 . S
C157 O177 1.259 . S
C157 O180 1.258 . S
Co158 N167 2.057 . S
Co158 O174 2.117 . S
Co158 O175 2.020 . S
Co158 O177 2.021 . S
Co158 O182 2.062 . S
C159 N161 1.316 . S
C159 N162 1.347 . S
C159 H164 0.931 . S
C160 N161 1.375 . S
C160 C163 1.351 . S
C160 H165 0.930 1_556 S
N161 Co156 2.057 . S
N161 C159 1.316 . S
N161 C160 1.375 . S
N162 C159 1.347 . S
N162 C163 1.376 . S
C163 C160 1.351 . S
C163 N162 1.376 . S
C163 H184 0.927 1_556 S
H164 C159 0.931 . S
H165 C160 0.930 1_554 S
C166 O173 1.259 . S
C166 O174 1.258 . S
N167 Co158 2.057 . S
N167 C168 1.316 . S
N167 C169 1.375 . S
C168 N167 1.316 . S
C168 N170 1.347 . S
C168 H179 0.931 . S
C169 N167 1.375 . S
C169 C171 1.350 . S
C169 H178 0.930 . S
N170 C168 1.347 . S
N170 C171 1.373 . S
C171 C169 1.350 . S
C171 N170 1.373 . S
C171 H185 0.931 . S
C172 O175 1.256 . S
C172 O176 1.255 . S
O173 Co156 2.021 . S
O173 C166 1.259 . S
O174 Co158 2.117 . S
O174 C166 1.258 . S
O175 Co158 2.020 . S
O175 C172 1.256 . S
O176 Co156 2.062 . S
O176 C172 1.255 . S
O177 C157 1.259 . S
O177 Co158 2.021 . S
H178 C169 0.930 . S
H179 C168 0.931 . S
O180 Co156 2.117 . S
O180 C157 1.258 . S
O181 Co156 2.020 . S
O181 C183 1.256 . S
O182 Co158 2.062 . S
O182 C183 1.255 . S
C183 O181 1.256 . S
C183 O182 1.255 . S
H184 C163 0.927 1_554 S
H185 C171 0.931 . S
Co186 N191 2.057 . S
Co186 O203 2.021 1_455 S
Co186 O206 2.062 1_455 S
Co186 O210 2.117 . S
Co186 O211 2.020 . S
C187 O207 1.259 . S
C187 O210 1.258 . S
Co188 N197 2.057 . S
Co188 O204 2.117 1_455 S
Co188 O205 2.020 1_455 S
Co188 O207 2.021 . S
Co188 O212 2.062 . S
C189 N191 1.316 . S
C189 N192 1.347 . S
C189 H194 0.931 1_455 S
C190 N191 1.375 . S
C190 C193 1.350 . S
C190 H195 0.930 . S
N191 Co186 2.057 . S
N191 C189 1.316 . S
N191 C190 1.375 . S
N192 C189 1.347 . S
N192 C193 1.373 . S
C193 C190 1.350 . S
C193 N192 1.373 . S
C193 H214 0.931 . S
H194 C189 0.931 1_655 S
H195 C190 0.930 . S
C196 O203 1.259 . S
C196 O204 1.258 . S
N197 Co188 2.057 . S
N197 C198 1.316 . S
N197 C199 1.375 1_455 S
C198 N197 1.316 . S
C198 N200 1.347 . S
C198 H209 0.931 . S
C199 N197 1.375 1_655 S
C199 C201 1.350 1_655 S
C199 H208 0.930 . S
N200 C198 1.347 . S
N200 C201 1.373 . S
C201 C199 1.350 1_455 S
C201 N200 1.373 . S
C201 H215 0.931 1_455 S
C202 O205 1.256 . S
C202 O206 1.255 . S
O203 Co186 2.021 1_655 S
O203 C196 1.259 . S
O204 Co188 2.117 1_655 S
O204 C196 1.258 . S
O205 Co188 2.020 1_655 S
O205 C202 1.256 . S
O206 Co186 2.062 1_655 S
O206 C202 1.255 . S
O207 C187 1.259 . S
O207 Co188 2.021 . S
H208 C199 0.930 . S
H209 C198 0.931 . S
O210 Co186 2.117 . S
O210 C187 1.258 . S
O211 Co186 2.020 . S
O211 C213 1.256 . S
O212 Co188 2.062 . S
O212 C213 1.255 . S
C213 O211 1.256 . S
C213 O212 1.255 . S
H214 C193 0.931 . S
H215 C201 0.931 1_655 S
C216 C217 1.369 . S
C216 C218 1.419 . S
C216 H220 0.930 . S
C217 C216 1.369 . S
C217 C226 1.429 1_565 S
C218 C216 1.419 . S
C218 C219 1.363 . S
C218 H221 0.929 . S
C219 C218 1.363 . S
C219 C225 1.428 1_565 S
H220 C216 0.930 . S
H221 C218 0.929 . S
S222 N223 1.613 . S
S222 N224 1.610 . S
N223 S222 1.613 . S
N223 C226 1.350 . S
N224 S222 1.610 . S
N224 C225 1.351 . S
C225 C219 1.428 1_545 S
C225 N224 1.351 . S
C225 C226 1.434 . S
C226 C217 1.429 1_545 S
C226 N223 1.350 . S
C226 C225 1.434 . S
C227 C228 1.369 . S
C227 C229 1.419 . S
C227 H231 0.930 . S
C228 C227 1.369 . S
C228 C237 1.429 . S
C229 C227 1.419 . S
C229 C230 1.363 . S
C229 H232 0.929 . S
C230 C229 1.363 . S
C230 C236 1.428 . S
H231 C227 0.930 . S
H232 C229 0.929 . S
S233 N234 1.613 . S
S233 N235 1.610 . S
N234 S233 1.613 . S
N234 C237 1.350 . S
N235 S233 1.610 . S
N235 C236 1.351 . S
C236 C230 1.428 . S
C236 N235 1.351 . S
C236 C237 1.434 . S
C237 C228 1.429 . S
C237 N234 1.350 . S
C237 C236 1.434 . S
C238 C239 1.369 . S
C238 C240 1.419 . S
C238 H242 0.930 . S
C239 C238 1.369 . S
C239 C248 1.429 . S
C240 C238 1.419 . S
C240 C241 1.363 . S
C240 H243 0.929 . S
C241 C240 1.363 . S
C241 C247 1.428 . S
H242 C238 0.930 . S
H243 C240 0.929 . S
S244 N245 1.613 . S
S244 N246 1.610 . S
N245 S244 1.613 . S
N245 C248 1.350 . S
N246 S244 1.610 . S
N246 C247 1.351 . S
C247 C241 1.428 . S
C247 N246 1.351 . S
C247 C248 1.434 . S
C248 C239 1.429 . S
C248 N245 1.350 . S
C248 C247 1.434 . S
C249 C250 1.369 . S
C249 C251 1.419 . S
C249 H253 0.930 . S
C250 C249 1.369 . S
C250 C259 1.429 . S
C251 C249 1.419 . S
C251 C252 1.363 . S
C251 H254 0.929 . S
C252 C251 1.363 . S
C252 C258 1.428 . S
H253 C249 0.930 . S
H254 C251 0.929 . S
S255 N256 1.613 . S
S255 N257 1.610 . S
N256 S255 1.613 . S
N256 C259 1.350 . S
N257 S255 1.610 . S
N257 C258 1.351 . S
C258 C252 1.428 . S
C258 N257 1.351 . S
C258 C259 1.434 . S
C259 C250 1.429 . S
C259 N256 1.350 . S
C259 C258 1.434 . S
C260 C261 1.369 1_565 S
C260 C262 1.419 . S
C260 H264 0.930 . S
C261 C260 1.369 1_545 S
C261 C270 1.429 1_556 S
C262 C260 1.419 . S
C262 C263 1.363 1_565 S
C262 H265 0.929 . S
C263 C262 1.363 1_545 S
C263 C269 1.428 . S
H264 C260 0.930 . S
H265 C262 0.929 . S
S266 N267 1.613 . S
S266 N268 1.610 . S
N267 S266 1.613 . S
N267 C270 1.349 . S
N268 S266 1.610 . S
N268 C269 1.351 1_554 S
C269 C263 1.428 . S
C269 N268 1.351 1_556 S
C269 C270 1.434 1_556 S
C270 C261 1.429 1_554 S
C270 N267 1.349 . S
C270 C269 1.434 1_554 S
C271 C272 1.369 . S
C271 C273 1.419 . S
C271 H275 0.930 . S
C272 C271 1.369 . S
C272 C281 1.429 1_554 S
C273 C271 1.419 . S
C273 C274 1.363 1_554 S
C273 H276 0.929 . S
C274 C273 1.363 1_556 S
C274 C280 1.428 . S
H275 C271 0.930 . S
H276 C273 0.929 . S
S277 N278 1.613 . S
S277 N279 1.610 . S
N278 S277 1.613 . S
N278 C281 1.350 . S
N279 S277 1.610 . S
N279 C280 1.351 . S
C280 C274 1.428 . S
C280 N279 1.351 . S
C280 C281 1.434 . S
C281 C272 1.429 1_556 S
C281 N278 1.350 . S
C281 C280 1.434 . S
C282 C283 1.369 . S
C282 C284 1.419 . S
C282 H286 0.930 . S
C283 C282 1.369 . S
C283 C292 1.429 1_554 S
C284 C282 1.419 . S
C284 C285 1.363 1_554 S
C284 H287 0.929 . S
C285 C284 1.363 1_556 S
C285 C291 1.428 . S
H286 C282 0.930 . S
H287 C284 0.929 . S
S288 N289 1.613 . S
S288 N290 1.610 . S
N289 S288 1.613 . S
N289 C292 1.350 . S
N290 S288 1.610 . S
N290 C291 1.351 . S
C291 C285 1.428 . S
C291 N290 1.351 . S
C291 C292 1.434 . S
C292 C283 1.429 1_556 S
C292 N289 1.350 . S
C292 C291 1.434 . S
C293 C294 1.369 . S
C293 C295 1.419 1_654 S
C293 H297 0.930 . S
C294 C293 1.369 . S
C294 C303 1.429 1_554 S
C295 C293 1.419 1_456 S
C295 C296 1.363 1_455 S
C295 H298 0.929 1_556 S
C296 C295 1.363 1_655 S
C296 C302 1.428 . S
H297 C293 0.930 . S
H298 C295 0.929 1_554 S
S299 N300 1.613 . S
S299 N301 1.610 . S
N300 S299 1.613 . S
N300 C303 1.350 . S
N301 S299 1.610 . S
N301 C302 1.351 . S
C302 C296 1.428 . S
C302 N301 1.351 . S
C302 C303 1.434 . S
C303 C294 1.429 1_556 S
C303 N300 1.350 . S
C303 C302 1.434 . S
C304 C305 1.369 . S
C304 C306 1.419 . S
C304 H308 0.930 . S
C305 C304 1.369 . S
C305 C314 1.429 . S
C306 C304 1.419 . S
C306 C307 1.363 . S
C306 H309 0.933 1_455 S
C307 C306 1.363 . S
C307 C313 1.428 . S
H308 C304 0.930 . S
H309 C306 0.933 1_655 S
S310 N311 1.613 . S
S310 N312 1.610 . S
N311 S310 1.613 . S
N311 C314 1.350 . S
N312 S310 1.610 . S
N312 C313 1.351 . S
C313 C307 1.428 . S
C313 N312 1.351 . S
C313 C314 1.434 . S
C314 C305 1.429 . S
C314 N311 1.350 . S
C314 C313 1.434 . S
C315 C316 1.344 1_545 S
C315 C317 1.419 . S
C315 H319 0.930 . S
C316 C315 1.344 1_565 S
C316 C325 1.458 . S
C317 C315 1.419 . S
C317 C318 1.363 1_545 S
C317 H320 0.929 . S
C318 C317 1.363 1_565 S
C318 C324 1.428 . S
H319 C315 0.930 . S
H320 C317 0.929 . S
S321 N322 1.613 . S
S321 N323 1.610 . S
N322 S321 1.613 . S
N322 C325 1.350 . S
N323 S321 1.610 . S
N323 C324 1.351 . S
C324 C318 1.428 . S
C324 N323 1.351 . S
C324 C325 1.434 . S
C325 C316 1.458 . S
C325 N322 1.350 . S
C325 C324 1.434 . S
C326 C327 1.369 . S
C326 C328 1.419 . S
C326 H330 0.930 . S
C327 C326 1.369 . S
C327 C336 1.429 . S
C328 C326 1.419 . S
C328 C329 1.363 . S
C328 H331 0.929 . S
C329 C328 1.363 . S
C329 C335 1.428 . S
H330 C326 0.930 . S
H331 C328 0.929 . S
S332 N333 1.613 . S
S332 N334 1.610 . S
N333 S332 1.613 . S
N333 C336 1.350 . S
N334 S332 1.610 . S
N334 C335 1.351 . S
C335 C329 1.428 . S
C335 N334 1.351 . S
C335 C336 1.434 . S
C336 C327 1.429 . S
C336 N333 1.350 . S
C336 C335 1.434 . S
C337 C338 1.369 . S
C337 C339 1.419 . S
C337 H341 0.930 . S
C338 C337 1.369 . S
C338 C347 1.429 . S
C339 C337 1.419 . S
C339 C340 1.363 . S
C339 H342 0.929 . S
C340 C339 1.363 . S
C340 C346 1.428 . S
H341 C337 0.930 . S
H342 C339 0.929 . S
S343 N344 1.613 . S
S343 N345 1.610 . S
N344 S343 1.613 . S
N344 C347 1.350 . S
N345 S343 1.610 . S
N345 C346 1.351 . S
C346 C340 1.428 . S
C346 N345 1.351 . S
C346 C347 1.434 . S
C347 C338 1.429 . S
C347 N344 1.350 . S
C347 C346 1.434 . S
C348 C349 1.369 . S
C348 C350 1.419 1_655 S
C348 H352 0.930 . S
C349 C348 1.369 . S
C349 C358 1.429 1_556 S
C350 C348 1.419 1_455 S
C350 C351 1.363 . S
C350 H353 0.929 . S
C351 C350 1.363 . S
C351 C357 1.428 1_456 S
H352 C348 0.930 . S
H353 C350 0.929 . S
S354 N355 1.613 . S
S354 N356 1.610 . S
N355 S354 1.613 . S
N355 C358 1.350 . S
N356 S354 1.610 . S
N356 C357 1.351 . S
C357 C351 1.428 1_654 S
C357 N356 1.351 . S
C357 C358 1.434 . S
C358 C349 1.429 1_554 S
C358 N355 1.350 . S
C358 C357 1.434 . S
C359 C360 1.369 1_565 S
C359 C361 1.419 . S
C359 H363 0.930 . S
C360 C359 1.369 1_545 S
C360 C369 1.429 . S
C361 C359 1.419 . S
C361 C362 1.363 1_565 S
C361 H364 0.929 . S
C362 C361 1.363 1_545 S
C362 C368 1.428 . S
H363 C359 0.930 . S
H364 C361 0.929 . S
S365 N366 1.613 1_554 S
S365 N367 1.610 1_554 S
N366 S365 1.613 1_556 S
N366 C369 1.350 . S
N367 S365 1.610 1_556 S
N367 C368 1.351 . S
C368 C362 1.428 . S
C368 N367 1.351 . S
C368 C369 1.434 . S
C369 C360 1.429 . S
C369 N366 1.350 . S
C369 C368 1.434 . S
C370 C371 1.369 . S
C370 C372 1.419 . S
C370 H374 0.930 . S
C371 C370 1.369 . S
C371 C380 1.429 1_554 S
C372 C370 1.419 . S
C372 C373 1.363 1_554 S
C372 H375 0.929 . S
C373 C372 1.363 1_556 S
C373 C379 1.428 . S
H374 C370 0.930 . S
H375 C372 0.929 . S
S376 N377 1.613 . S
S376 N378 1.610 . S
N377 S376 1.613 . S
N377 C380 1.350 . S
N378 S376 1.610 . S
N378 C379 1.351 . S
C379 C373 1.428 . S
C379 N378 1.351 . S
C379 C380 1.434 . S
C380 C371 1.429 1_556 S
C380 N377 1.350 . S
C380 C379 1.434 . S
C381 C382 1.369 . S
C381 C383 1.419 . S
C381 H385 0.930 . S
C382 C381 1.369 . S
C382 C391 1.429 . S
C383 C381 1.419 . S
C383 C384 1.363 1_554 S
C383 H386 0.928 1_554 S
C384 C383 1.363 1_556 S
C384 C390 1.428 . S
H385 C381 0.930 . S
H386 C383 0.928 1_556 S
S387 N388 1.618 . S
S387 N389 1.605 1_554 S
N388 S387 1.618 . S
N388 C391 1.350 . S
N389 S387 1.605 1_556 S
N389 C390 1.351 . S
C390 C384 1.428 . S
C390 N389 1.351 . S
C390 C391 1.434 1_556 S
C391 C382 1.429 . S
C391 N388 1.350 . S
C391 C390 1.434 1_554 S
C392 C393 1.369 . S
C392 C394 1.419 . S
C392 H396 0.930 . S
C393 C392 1.369 . S
C393 C402 1.429 . S
C394 C392 1.419 . S
C394 C395 1.363 . S
C394 H397 0.929 . S
C395 C394 1.363 . S
C395 C401 1.428 . S
H396 C392 0.930 . S
H397 C394 0.929 . S
S398 N399 1.613 . S
S398 N400 1.610 . S
N399 S398 1.613 . S
N399 C402 1.350 . S
N400 S398 1.610 . S
N400 C401 1.351 . S
C401 C395 1.428 . S
C401 N400 1.351 . S
C401 C402 1.434 . S
C402 C393 1.429 . S
C402 N399 1.350 . S
C402 C401 1.434 . S
C403 C404 1.369 . S
C403 C405 1.419 . S
C403 H407 0.933 . S
C404 C403 1.369 . S
C404 C413 1.429 . S
C405 C403 1.419 . S
C405 C406 1.363 . S
C405 H408 0.929 . S
C406 C405 1.363 . S
C406 C412 1.428 . S
H407 C403 0.933 . S
H408 C405 0.929 . S
S409 N410 1.613 . S
S409 N411 1.610 . S
N410 S409 1.613 . S
N410 C413 1.350 . S
N411 S409 1.610 . S
N411 C412 1.351 . S
C412 C406 1.428 . S
C412 N411 1.351 . S
C412 C413 1.434 . S
C413 C404 1.429 . S
C413 N410 1.350 . S
C413 C412 1.434 . S
C414 C415 1.369 . S
C414 C416 1.419 . S
C414 H418 0.930 . S
C415 C414 1.369 . S
C415 C424 1.429 . S
C416 C414 1.419 . S
C416 C417 1.363 . S
C416 H419 0.929 . S
C417 C416 1.363 . S
C417 C423 1.428 . S
H418 C414 0.930 . S
H419 C416 0.929 . S
S420 N421 1.613 . S
S420 N422 1.610 . S
N421 S420 1.613 . S
N421 C424 1.350 . S
N422 S420 1.610 . S
N422 C423 1.351 . S
C423 C417 1.428 . S
C423 N422 1.351 . S
C423 C424 1.434 . S
C424 C415 1.429 . S
C424 N421 1.350 . S
C424 C423 1.434 . S
C425 C426 1.369 . S
C425 C427 1.419 . S
C425 H429 0.930 . S
C426 C425 1.369 . S
C426 C435 1.429 . S
C427 C425 1.419 . S
C427 C428 1.363 . S
C427 H430 0.929 . S
C428 C427 1.363 . S
C428 C434 1.428 . S
H429 C425 0.930 . S
H430 C427 0.929 . S
S431 N432 1.613 1_556 S
S431 N433 1.610 . S
N432 S431 1.613 1_554 S
N432 C435 1.350 . S
N433 S431 1.610 . S
N433 C434 1.351 1_556 S
C434 C428 1.428 . S
C434 N433 1.351 1_554 S
C434 C435 1.434 . S
C435 C426 1.429 . S
C435 N432 1.350 . S
C435 C434 1.434 . S
C436 C437 1.369 . S
C436 C438 1.419 . S
C436 H440 0.930 . S
C437 C436 1.369 . S
C437 C446 1.429 . S
C438 C436 1.419 . S
C438 C439 1.363 . S
C438 H441 0.929 . S
C439 C438 1.363 . S
C439 C445 1.428 1_655 S
H440 C436 0.930 . S
H441 C438 0.929 . S
S442 N443 1.613 . S
S442 N444 1.610 . S
N443 S442 1.613 . S
N443 C446 1.350 1_455 S
N444 S442 1.610 . S
N444 C445 1.351 . S
C445 C439 1.428 1_455 S
C445 N444 1.351 . S
C445 C446 1.434 1_455 S
C446 C437 1.429 . S
C446 N443 1.350 1_655 S
C446 C445 1.434 1_655 S
C447 C448 1.369 . S
C447 C449 1.419 . S
C447 H451 0.930 . S
C448 C447 1.369 . S
C448 C457 1.429 1_565 S
C449 C447 1.419 . S
C449 C450 1.363 . S
C449 H452 0.929 . S
C450 C449 1.363 . S
C450 C456 1.428 1_565 S
H451 C447 0.930 . S
H452 C449 0.929 . S
S453 N454 1.613 . S
S453 N455 1.610 . S
N454 S453 1.613 . S
N454 C457 1.350 . S
N455 S453 1.610 . S
N455 C456 1.351 . S
C456 C450 1.428 1_545 S
C456 N455 1.351 . S
C456 C457 1.434 . S
C457 C448 1.429 1_545 S
C457 N454 1.350 . S
C457 C456 1.434 . S
C458 C459 1.369 . S
C458 C460 1.419 . S
C458 H462 0.930 . S
C459 C458 1.369 . S
C459 C468 1.429 . S
C460 C458 1.419 . S
C460 C461 1.363 . S
C460 H463 0.929 . S
C461 C460 1.363 . S
C461 C467 1.428 . S
H462 C458 0.930 . S
H463 C460 0.929 . S
S464 N465 1.613 . S
S464 N466 1.610 . S
N465 S464 1.613 . S
N465 C468 1.350 . S
N466 S464 1.610 . S
N466 C467 1.351 . S
C467 C461 1.428 . S
C467 N466 1.351 . S
C467 C468 1.434 . S
C468 C459 1.429 . S
C468 N465 1.350 . S
C468 C467 1.434 . S
C469 C470 1.369 . S
C469 C471 1.419 . S
C469 H473 0.930 . S
C470 C469 1.369 . S
C470 C479 1.429 . S
C471 C469 1.419 . S
C471 C472 1.363 . S
C471 H474 0.929 . S
C472 C471 1.363 . S
C472 C478 1.428 . S
H473 C469 0.930 . S
H474 C471 0.929 . S
S475 N476 1.613 . S
S475 N477 1.610 . S
N476 S475 1.613 . S
N476 C479 1.350 . S
N477 S475 1.610 . S
N477 C478 1.351 . S
C478 C472 1.428 . S
C478 N477 1.351 . S
C478 C479 1.434 . S
C479 C470 1.429 . S
C479 N476 1.350 . S
C479 C478 1.434 . S
C217 C76 1.705 . S
C219 C106 1.718 . S
C230 C136 1.803 . S
C228 C88 1.771 . S
C241 N170 1.380 . S
C239 C52 1.383 . S
C252 N200 1.472 . S
C250 C64 1.451 . S
C263 C97 1.720 . S
C261 C28 1.709 1_545 S
C272 C40 1.780 . S
C274 C127 1.807 . S
C283 C4 1.389 . S
C285 N162 1.384 . S
C294 C16 1.462 . S
C296 N192 1.480 1_655 S
C307 C112 0.711 . S
C305 C69 0.730 . S
C318 C142 1.093 . S
C316 C81 1.038 1_565 S
C329 C183 1.351 . S
C327 C93 1.317 . S
C338 C57 0.835 . S
C340 C213 0.841 . S
C349 C21 0.735 1_556 S
C351 C123 0.716 . S
C362 C153 1.096 . S
C360 C33 1.018 . S
C373 C172 1.349 . S
C371 C45 1.312 . S
C382 C9 0.844 . S
C384 C202 0.833 . S
C393 C66 1.468 . S
C395 N102 1.489 . S
C404 C78 1.427 . S
C406 N132 1.445 . S
C417 C157 1.669 1_554 S
C415 C90 1.638 . S
C428 C187 1.597 1_554 S
C426 C54 1.567 . S
C437 C18 1.458 . S
C439 N110 1.492 . S
C450 N140 1.442 . S
C448 C30 1.442 1_565 S
C461 C166 1.669 . S
C459 C42 1.630 . S
C470 C6 1.568 . S
C472 C196 1.597 . S
