# Generated by pormake.
# Topology the, (3,8)-cn, num edge types: 1
# Building blocks:
#     Node 0, Type 0, BuildingBlock: BELTOD_clean_linker_0, # of connection points: 3
#     Node 1, Type 0, BuildingBlock: BELTOD_clean_linker_0, # of connection points: 3
#     Node 2, Type 0, BuildingBlock: BELTOD_clean_linker_0, # of connection points: 3
#     Node 3, Type 0, BuildingBlock: BELTOD_clean_linker_0, # of connection points: 3
#     Node 4, Type 0, BuildingBlock: BELTOD_clean_linker_0, # of connection points: 3
#     Node 5, Type 0, BuildingBlock: BELTOD_clean_linker_0, # of connection points: 3
#     Node 6, Type 0, BuildingBlock: BELTOD_clean_linker_0, # of connection points: 3
#     Node 7, Type 0, BuildingBlock: BELTOD_clean_linker_0, # of connection points: 3
#     Node 8, Type 1, BuildingBlock: GIZVER_clean_sbu_0, # of connection points: 8
#     Node 9, Type 1, BuildingBlock: GIZVER_clean_sbu_0, # of connection points: 8
#     Node 10, Type 1, BuildingBlock: GIZVER_clean_sbu_0, # of connection points: 8
#     Edge 11, Type (0, 1), BuildingBlock: AJUNOK_clean_linker_0, # of connection points: 2
#     Edge 12, Type (0, 1), BuildingBlock: AJUNOK_clean_linker_0, # of connection points: 2
#     Edge 13, Type (0, 1), BuildingBlock: AJUNOK_clean_linker_0, # of connection points: 2
#     Edge 14, Type (0, 1), BuildingBlock: AJUNOK_clean_linker_0, # of connection points: 2
#     Edge 15, Type (0, 1), BuildingBlock: AJUNOK_clean_linker_0, # of connection points: 2
#     Edge 16, Type (0, 1), BuildingBlock: AJUNOK_clean_linker_0, # of connection points: 2
#     Edge 17, Type (0, 1), BuildingBlock: AJUNOK_clean_linker_0, # of connection points: 2
#     Edge 18, Type (0, 1), BuildingBlock: AJUNOK_clean_linker_0, # of connection points: 2
#     Edge 19, Type (0, 1), BuildingBlock: AJUNOK_clean_linker_0, # of connection points: 2
#     Edge 20, Type (0, 1), BuildingBlock: AJUNOK_clean_linker_0, # of connection points: 2
#     Edge 21, Type (0, 1), BuildingBlock: AJUNOK_clean_linker_0, # of connection points: 2
#     Edge 22, Type (0, 1), BuildingBlock: AJUNOK_clean_linker_0, # of connection points: 2
#     Edge 23, Type (0, 1), BuildingBlock: AJUNOK_clean_linker_0, # of connection points: 2
#     Edge 24, Type (0, 1), BuildingBlock: AJUNOK_clean_linker_0, # of connection points: 2
#     Edge 25, Type (0, 1), BuildingBlock: AJUNOK_clean_linker_0, # of connection points: 2
#     Edge 26, Type (0, 1), BuildingBlock: AJUNOK_clean_linker_0, # of connection points: 2
#     Edge 27, Type (0, 1), BuildingBlock: AJUNOK_clean_linker_0, # of connection points: 2
#     Edge 28, Type (0, 1), BuildingBlock: AJUNOK_clean_linker_0, # of connection points: 2
#     Edge 29, Type (0, 1), BuildingBlock: AJUNOK_clean_linker_0, # of connection points: 2
#     Edge 30, Type (0, 1), BuildingBlock: AJUNOK_clean_linker_0, # of connection points: 2
#     Edge 31, Type (0, 1), BuildingBlock: AJUNOK_clean_linker_0, # of connection points: 2
#     Edge 32, Type (0, 1), BuildingBlock: AJUNOK_clean_linker_0, # of connection points: 2
#     Edge 33, Type (0, 1), BuildingBlock: AJUNOK_clean_linker_0, # of connection points: 2
#     Edge 34, Type (0, 1), BuildingBlock: AJUNOK_clean_linker_0, # of connection points: 2
# Relax obj value: 0.050
# Max RMSD: 0.141
# Mean RMSD: 0.078
data_MOF--net-the--node1-GIZVER_clean_sbu_0--node2-BELTOD_clean_linker_0--edge1-AJUNOK_clean_linker_0
_symmetry_space_group_name_H-M    P1
_symmetry_Int_Tables_number       1
_symmetry_cell_setting            triclinic
loop_
_symmetry_equiv_pos_as_xyz
'x, y, z'
_cell_length_a     36.588499
_cell_length_b     34.70843
_cell_length_c     31.541352
_cell_angle_alpha  85.866261
_cell_angle_beta   95.5433
_cell_angle_gamma 105.15396
loop_
_atom_site_label
_atom_site_type_symbol
_atom_site_fract_x
_atom_site_fract_y
_atom_site_fract_z
_atom_type_partial_charge
P0 P 0.35331 0.37346 0.45138 0.0
H1 H 0.30047 0.35341 0.51811 0.0
H2 H 0.23531 0.35955 0.52019 0.0
H3 H 0.23247 0.39533 0.38625 0.0
H4 H 0.29651 0.38834 0.38382 0.0
H5 H 0.41499 0.34906 0.50232 0.0
H6 H 0.43273 0.28585 0.51079 0.0
H7 H 0.33025 0.22933 0.43539 0.0
H8 H 0.31158 0.29238 0.42917 0.0
H9 H 0.37844 0.45391 0.41254 0.0
H10 H 0.36099 0.33284 0.37515 0.0
O11 O 0.37699 0.4056 0.48757 0.0
H12 H 0.39216 0.47863 0.3394 0.0
H13 H 0.37511 0.3573 0.30286 0.0
C14 C 0.30365 0.37112 0.4511 0.0
C15 C 0.28547 0.36181 0.48906 0.0
C16 C 0.24833 0.36524 0.49021 0.0
C17 C 0.22929 0.37852 0.45349 0.0
C18 C 0.24681 0.38549 0.41506 0.0
C19 C 0.2836 0.3816 0.41379 0.0
C20 C 0.36207 0.32535 0.465 0.0
C21 C 0.39586 0.32284 0.48853 0.0
C22 C 0.40622 0.28675 0.49288 0.0
C23 C 0.38348 0.25282 0.47269 0.0
C24 C 0.34845 0.2549 0.45129 0.0
C25 C 0.33775 0.29091 0.44766 0.0
C26 C 0.36941 0.39158 0.39966 0.0
C27 C 0.37827 0.43271 0.38891 0.0
C28 C 0.3858 0.44678 0.34713 0.0
C29 C 0.38402 0.4198 0.31538 0.0
C30 C 0.37579 0.3787 0.32647 0.0
C31 C 0.36828 0.36471 0.36812 0.0
P32 P 0.71508 0.312 0.28008 0.0
H33 H 0.76317 0.28978 0.3522 0.0
H34 H 0.81748 0.32835 0.39619 0.0
H35 H 0.8031 0.43726 0.33001 0.0
H36 H 0.74858 0.39866 0.28634 0.0
H37 H 0.67031 0.23665 0.24698 0.0
H38 H 0.62736 0.17774 0.27886 0.0
H39 H 0.64809 0.23323 0.40002 0.0
H40 H 0.69103 0.29239 0.36784 0.0
H41 H 0.72467 0.36056 0.20024 0.0
H42 H 0.641 0.32636 0.29258 0.0
O43 O 0.73847 0.29526 0.24559 0.0
H44 H 0.68247 0.39313 0.1545 0.0
H45 H 0.59879 0.35932 0.24712 0.0
C46 C 0.75105 0.34132 0.3167 0.0
C47 C 0.77111 0.32203 0.34777 0.0
C48 C 0.80233 0.34405 0.37269 0.0
C49 C 0.81475 0.38576 0.36625 0.0
C50 C 0.79448 0.40509 0.33528 0.0
C51 C 0.76301 0.38305 0.31065 0.0
C52 C 0.68458 0.26852 0.30524 0.0
C53 C 0.66587 0.23606 0.2805 0.0
C54 C 0.64112 0.20253 0.29864 0.0
C55 C 0.63437 0.20089 0.34191 0.0
C56 C 0.65307 0.23354 0.36669 0.0
C57 C 0.67765 0.2673 0.34836 0.0
C58 C 0.68581 0.34054 0.24956 0.0
C59 C 0.69739 0.36047 0.21093 0.0
C60 C 0.67332 0.37929 0.18488 0.0
C61 C 0.63723 0.37877 0.19713 0.0
C62 C 0.62625 0.35989 0.23661 0.0
C63 C 0.65043 0.34118 0.2627 0.0
P64 P 0.74501 0.7681 0.28581 0.0
H65 H 0.76956 0.83434 0.34264 0.0
H66 H 0.73537 0.86671 0.38629 0.0
H67 H 0.62992 0.78328 0.34558 0.0
H68 H 0.6643 0.7503 0.30348 0.0
H69 H 0.79649 0.72626 0.25767 0.0
H70 H 0.83974 0.68968 0.29536 0.0
H71 H 0.80997 0.71901 0.41591 0.0
H72 H 0.7661 0.75501 0.37815 0.0
H73 H 0.7052 0.77774 0.20198 0.0
H74 H 0.71334 0.6813 0.29349 0.0
O75 O 0.7701 0.80516 0.25556 0.0
H76 H 0.66158 0.73012 0.15472 0.0
H77 H 0.67102 0.63354 0.24595 0.0
C78 C 0.71958 0.78985 0.31988 0.0
C79 C 0.73912 0.82276 0.34358 0.0
C80 C 0.71954 0.84135 0.36833 0.0
C81 C 0.67994 0.8274 0.36979 0.0
C82 C 0.66051 0.79422 0.34608 0.0
C83 C 0.68017 0.77549 0.32161 0.0
C84 C 0.7781 0.74342 0.315 0.0
C85 C 0.79942 0.72506 0.29222 0.0
C86 C 0.82408 0.7042 0.31371 0.0
C87 C 0.82834 0.70185 0.35846 0.0
C88 C 0.80755 0.72091 0.38136 0.0
C89 C 0.7824 0.74138 0.35976 0.0
C90 C 0.71306 0.73298 0.2509 0.0
C91 C 0.69803 0.74626 0.21162 0.0
C92 C 0.6734 0.71898 0.18445 0.0
C93 C 0.66337 0.67792 0.19619 0.0
C94 C 0.67826 0.66492 0.23587 0.0
C95 C 0.70261 0.6922 0.26305 0.0
P96 P 0.28806 0.72316 0.28582 0.0
H97 H 0.36286 0.77616 0.27503 0.0
H98 H 0.4047 0.82901 0.3177 0.0
H99 H 0.32518 0.80288 0.41476 0.0
H100 H 0.28273 0.75089 0.37142 0.0
H101 H 0.29063 0.70252 0.19788 0.0
H102 H 0.32616 0.66312 0.16574 0.0
H103 H 0.3751 0.63534 0.29067 0.0
H104 H 0.34029 0.67602 0.32255 0.0
H105 H 0.20696 0.69768 0.25894 0.0
H106 H 0.28154 0.67498 0.36686 0.0
O107 O 0.2711 0.75033 0.24672 0.0
H108 H 0.15246 0.65384 0.29237 0.0
H109 H 0.22684 0.63121 0.40063 0.0
C110 C 0.32009 0.75869 0.32044 0.0
C111 C 0.35452 0.7815 0.30566 0.0
C112 C 0.37823 0.81196 0.32982 0.0
C113 C 0.36802 0.82014 0.36937 0.0
C114 C 0.33371 0.79708 0.38439 0.0
C115 C 0.30963 0.76705 0.35979 0.0
C116 C 0.3134 0.69284 0.26255 0.0
C117 C 0.30915 0.68816 0.2184 0.0
C118 C 0.32927 0.66534 0.20004 0.0
C119 C 0.35391 0.64654 0.22553 0.0
C120 C 0.35711 0.65024 0.27001 0.0
C121 C 0.33707 0.67327 0.28832 0.0
C122 C 0.24821 0.69062 0.31102 0.0
C123 C 0.21163 0.68353 0.28999 0.0
C124 C 0.18049 0.65825 0.30893 0.0
C125 C 0.18535 0.63967 0.34933 0.0
C126 C 0.22221 0.64582 0.3698 0.0
C127 C 0.25343 0.6708 0.35059 0.0
P128 P 0.34754 0.68098 0.70008 0.0
H129 H 0.30005 0.70368 0.62803 0.0
H130 H 0.23381 0.67623 0.60239 0.0
H131 H 0.21632 0.60124 0.71769 0.0
H132 H 0.28285 0.62885 0.74321 0.0
H133 H 0.42662 0.72063 0.69073 0.0
H134 H 0.46004 0.78887 0.66971 0.0
H135 H 0.35563 0.82511 0.66798 0.0
H136 H 0.32213 0.75631 0.68899 0.0
H137 H 0.35262 0.60145 0.73179 0.0
H138 H 0.37815 0.71859 0.78213 0.0
O139 O 0.36285 0.65683 0.6644 0.0
H140 H 0.38497 0.57728 0.79576 0.0
H141 H 0.41036 0.69423 0.84669 0.0
C142 C 0.29645 0.66912 0.68805 0.0
C143 C 0.28163 0.68257 0.64868 0.0
C144 C 0.24359 0.66681 0.63398 0.0
C145 C 0.21951 0.63675 0.65812 0.0
C146 C 0.23403 0.62448 0.69839 0.0
C147 C 0.2721 0.64044 0.71315 0.0
C148 C 0.37174 0.73311 0.69067 0.0
C149 C 0.41091 0.74329 0.68625 0.0
C150 C 0.43005 0.78241 0.67435 0.0
C151 C 0.41043 0.81238 0.66655 0.0
C152 C 0.3714 0.80253 0.67287 0.0
C153 C 0.35224 0.76322 0.68503 0.0
C154 C 0.36334 0.66197 0.75182 0.0
C155 C 0.36442 0.62179 0.75702 0.0
C156 C 0.38294 0.60796 0.7936 0.0
C157 C 0.4003 0.63389 0.82615 0.0
C158 C 0.39696 0.67351 0.82228 0.0
C159 C 0.37866 0.68747 0.78532 0.0
P160 P 0.34666 0.33021 0.68886 0.0
H161 H 0.42006 0.33632 0.73568 0.0
H162 H 0.44563 0.36165 0.80584 0.0
H163 H 0.33317 0.3633 0.83457 0.0
H164 H 0.30739 0.33663 0.76504 0.0
H165 H 0.34707 0.30943 0.60192 0.0
H166 H 0.3668 0.25622 0.57085 0.0
H167 H 0.38212 0.20189 0.69641 0.0
H168 H 0.36199 0.25519 0.72769 0.0
H169 H 0.31297 0.39395 0.70346 0.0
H170 H 0.277 0.28057 0.64382 0.0
O171 O 0.37508 0.36893 0.66384 0.0
H172 H 0.25416 0.41004 0.67468 0.0
H173 H 0.21841 0.29758 0.61348 0.0
C174 C 0.36197 0.33529 0.74474 0.0
C175 C 0.40066 0.34067 0.75766 0.0
C176 C 0.41525 0.35515 0.7977 0.0
C177 C 0.39135 0.36484 0.82518 0.0
C178 C 0.35213 0.3563 0.81367 0.0
C179 C 0.33747 0.34123 0.77384 0.0
C180 C 0.35364 0.28647 0.66708 0.0
C181 C 0.35385 0.28561 0.62275 0.0
C182 C 0.365 0.25527 0.605 0.0
C183 C 0.37608 0.22535 0.63138 0.0
C184 C 0.37342 0.22465 0.67557 0.0
C185 C 0.36221 0.25515 0.6934 0.0
C186 C 0.29939 0.3361 0.67593 0.0
C187 C 0.29196 0.37201 0.68522 0.0
C188 C 0.25843 0.38121 0.66875 0.0
C189 C 0.23207 0.355 0.64192 0.0
C190 C 0.23829 0.31795 0.63449 0.0
C191 C 0.27187 0.30847 0.65155 0.0
P192 P 0.73217 0.30837 0.73471 0.0
H193 H 0.74743 0.24206 0.69431 0.0
H194 H 0.70757 0.1884 0.65111 0.0
H195 H 0.61328 0.24146 0.65132 0.0
H196 H 0.65332 0.2953 0.69407 0.0
H197 H 0.81003 0.34256 0.76883 0.0
H198 H 0.86668 0.38334 0.73707 0.0
H199 H 0.80196 0.38447 0.61526 0.0
H200 H 0.74523 0.34262 0.64723 0.0
H201 H 0.66309 0.28557 0.77946 0.0
H202 H 0.74478 0.39517 0.74621 0.0
O203 O 0.74813 0.28147 0.77481 0.0
H204 H 0.62989 0.323 0.8181 0.0
H205 H 0.71168 0.43276 0.78528 0.0
C206 C 0.70329 0.27239 0.69813 0.0
C207 C 0.71825 0.24236 0.68477 0.0
C208 C 0.69546 0.21167 0.66012 0.0
C209 C 0.65706 0.21019 0.64861 0.0
C210 C 0.6425 0.2412 0.66064 0.0
C211 C 0.66546 0.27213 0.68499 0.0
C212 C 0.77346 0.33918 0.71033 0.0
C213 C 0.80796 0.3514 0.73524 0.0
C214 C 0.84034 0.37499 0.71709 0.0
C215 C 0.83882 0.38743 0.67368 0.0
C216 C 0.80412 0.37515 0.64873 0.0
C217 C 0.77165 0.35142 0.66698 0.0
C218 C 0.70585 0.33752 0.75884 0.0
C219 C 0.67351 0.31777 0.77978 0.0
C220 C 0.65462 0.33919 0.80202 0.0
C221 C 0.66796 0.3809 0.8044 0.0
C222 C 0.70071 0.40067 0.78392 0.0
C223 C 0.71944 0.37918 0.76126 0.0
P224 P 0.76099 0.72978 0.67442 0.0
H225 H 0.80083 0.76738 0.60103 0.0
H226 H 0.83765 0.74289 0.55306 0.0
H227 H 0.80091 0.62421 0.61166 0.0
H228 H 0.76314 0.6482 0.65774 0.0
H229 H 0.74898 0.80402 0.69958 0.0
H230 H 0.71137 0.84834 0.66609 0.0
H231 H 0.67088 0.76788 0.56359 0.0
H232 H 0.70848 0.72322 0.59756 0.0
H233 H 0.78622 0.67921 0.74186 0.0
H234 H 0.67932 0.69489 0.68293 0.0
O235 O 0.7976 0.75792 0.70328 0.0
H236 H 0.75245 0.62987 0.79342 0.0
H237 H 0.64554 0.64681 0.73526 0.0
C238 C 0.77996 0.70975 0.6334 0.0
C239 C 0.79991 0.73586 0.60257 0.0
C240 C 0.82092 0.72194 0.57533 0.0
C241 C 0.8227 0.68192 0.57939 0.0
C242 C 0.79998 0.65523 0.6078 0.0
C243 C 0.77872 0.66907 0.63464 0.0
C244 C 0.73197 0.76095 0.6505 0.0
C245 C 0.73207 0.79593 0.66991 0.0
C246 C 0.71071 0.82118 0.65076 0.0
C247 C 0.68866 0.81151 0.61219 0.0
C248 C 0.68769 0.77581 0.59337 0.0
C249 C 0.70923 0.75054 0.61257 0.0
C250 C 0.73529 0.69124 0.70931 0.0
C251 C 0.75547 0.67183 0.73992 0.0
C252 C 0.7362 0.64357 0.76914 0.0
C253 C 0.6964 0.63447 0.76828 0.0
C254 C 0.67616 0.65263 0.73619 0.0
C255 C 0.6955 0.68064 0.70667 0.0
Co256 Co 0.08736 0.47087 0.54108 0.0
Co257 Co 0.04694 0.45721 0.4663 0.0
Co258 Co 0.01417 0.51422 0.51386 0.0
O259 O 0.03453 0.46577 0.5214 0.0
H260 H 0.01705 0.44254 0.53338 0.0
O261 O 0.9952 0.56299 0.5051 0.0
Co262 Co 0.94547 0.5609 0.4786 0.0
Co263 Co 0.97893 0.5733 0.55561 0.0
H264 H 0.01416 0.58599 0.49519 0.0
O265 O 0.05911 0.41003 0.45377 0.0
O266 O 0.09819 0.46494 0.48213 0.0
O267 O 0.0473 0.49901 0.42154 0.0
O268 O 0.05179 0.54194 0.47132 0.0
O269 O 0.97631 0.48755 0.46729 0.0
O270 O 0.90098 0.56348 0.45246 0.0
O271 O 0.95454 0.61312 0.46043 0.0
O272 O 0.9294 0.50553 0.49255 0.0
O273 O 0.97617 0.48626 0.55685 0.0
O274 O 0.97274 0.53232 0.60048 0.0
O275 O 0.93039 0.57354 0.53321 0.0
O276 O 0.97419 0.6234 0.56513 0.0
C277 C 0.12023 0.43331 0.56374 0.0
C278 C 0.08707 0.54565 0.55938 0.0
C279 C 0.05911 0.53417 0.4346 0.0
C280 C 0.09309 0.43054 0.4657 0.0
C281 C 0.91907 0.60065 0.44561 0.0
C282 C 0.94074 0.48301 0.46969 0.0
C283 C 0.96524 0.49607 0.59103 0.0
C284 C 0.93998 0.6091 0.54811 0.0
O285 O 0.1341 0.47157 0.55891 0.0
O286 O 0.08395 0.41782 0.55423 0.0
O287 O 0.05147 0.54108 0.5609 0.0
O288 O 0.09861 0.52664 0.5328 0.0
Co289 Co 0.55569 0.93898 0.48134 0.0
Co290 Co 0.57411 0.9708 0.55583 0.0
Co291 Co 0.51708 0.01307 0.50716 0.0
O292 O 0.56091 0.99069 0.50194 0.0
H293 H 0.58237 0.01041 0.49146 0.0
O294 O 0.47387 0.0371 0.51258 0.0
Co295 Co 0.48518 0.09024 0.53389 0.0
Co296 Co 0.45892 0.05867 0.45916 0.0
H297 H 0.45256 0.01855 0.5251 0.0
O298 O 0.62196 0.96411 0.56942 0.0
O299 O 0.57096 0.91997 0.53948 0.0
O300 O 0.53932 0.96319 0.59987 0.0
O301 O 0.49338 0.9713 0.552 0.0
O302 O 0.54927 0.04838 0.55208 0.0
O303 O 0.49115 0.13739 0.55434 0.0
O304 O 0.43842 0.08649 0.55125 0.0
O305 O 0.53582 0.1016 0.52015 0.0
O306 O 0.53996 0.05432 0.46142 0.0
O307 O 0.49281 0.06271 0.41479 0.0
O308 O 0.47074 0.11054 0.47691 0.0
O309 O 0.41386 0.07682 0.44909 0.0
C310 C 0.59053 0.91068 0.45517 0.0
C311 C 0.48035 0.93855 0.46764 0.0
C312 C 0.50429 0.95681 0.58796 0.0
C313 C 0.60568 0.92838 0.5569 0.0
C314 C 0.45577 0.1229 0.56178 0.0
C315 C 0.55725 0.08625 0.54606 0.0
C316 C 0.52808 0.06839 0.42558 0.0
C317 C 0.4362 0.1098 0.46278 0.0
O318 O 0.55542 0.89227 0.46109 0.0
O319 O 0.60391 0.94757 0.46635 0.0
O320 O 0.48537 0.97654 0.46314 0.0
O321 O 0.50361 0.92375 0.49204 0.0
Co322 Co 0.47659 0.53775 0.10709 0.0
Co323 Co 0.45716 0.46293 0.08761 0.0
Co324 Co 0.51602 0.51411 0.02252 0.0
O325 O 0.47061 0.51081 0.05486 0.0
H326 H 0.44904 0.51463 0.03635 0.0
O327 O 0.56138 0.51615 0.99076 0.0
Co328 Co 0.55561 0.49111 0.9372 0.0
Co329 Co 0.57477 0.56377 0.96005 0.0
H330 H 0.58281 0.51188 1.00916 0.0
O331 O 0.40998 0.44391 0.11092 0.0
O332 O 0.46197 0.48638 0.13965 0.0
O333 O 0.49346 0.43095 0.09407 0.0
O334 O 0.53892 0.47858 0.06544 0.0
O335 O 0.48578 0.46707 0.98987 0.0
O336 O 0.55319 0.46688 0.88914 0.0
O337 O 0.60226 0.48057 0.93904 0.0
O338 O 0.50553 0.49649 0.92868 0.0
O339 O 0.49278 0.54986 0.97933 0.0
O340 O 0.53937 0.59611 0.95088 0.0
O341 O 0.57615 0.54393 0.9076 0.0
O342 O 0.62374 0.58362 0.94791 0.0
C343 C 0.44331 0.56301 0.13965 0.0
C344 C 0.55099 0.5611 0.09482 0.0
C345 C 0.52822 0.44625 0.08829 0.0
C346 C 0.42796 0.46376 0.14325 0.0
C347 C 0.58712 0.46443 0.90305 0.0
C348 C 0.48155 0.47043 0.94921 0.0
C349 C 0.50445 0.5817 0.95599 0.0
C350 C 0.61085 0.56652 0.9122 0.0
O351 O 0.47804 0.56378 0.15387 0.0
O352 O 0.42884 0.54422 0.105 0.0
O353 O 0.54701 0.56184 0.05416 0.0
O354 O 0.5273 0.53547 0.11576 0.0
C355 C 0.19135 0.42865 0.4417 0.0
C356 C 0.19337 0.38984 0.45588 0.0
C357 C 0.15851 0.4413 0.44473 0.0
C358 C 0.12625 0.4153 0.46106 0.0
H359 H 0.21574 0.44977 0.42918 0.0
H360 H 0.15837 0.47171 0.43428 0.0
S361 S 0.11697 0.31101 0.50297 0.0
N362 N 0.16061 0.32575 0.48764 0.0
N363 N 0.09807 0.34928 0.49198 0.0
C364 C 0.12753 0.37626 0.4748 0.0
C365 C 0.1614 0.36363 0.4727 0.0
C366 C 0.61884 0.14581 0.39858 0.0
C367 C 0.60751 0.16544 0.36102 0.0
C368 C 0.5936 0.11307 0.41783 0.0
C369 C 0.55574 0.0988 0.4006 0.0
H370 H 0.64743 0.15602 0.4134 0.0
H371 H 0.60364 0.09975 0.4473 0.0
S372 S 0.51225 0.14012 0.30212 0.0
N373 N 0.55626 0.16831 0.30693 0.0
N374 N 0.50874 0.10694 0.34273 0.0
C375 C 0.54438 0.11782 0.36238 0.0
C376 C 0.57022 0.15105 0.34275 0.0
C377 C 0.84583 0.63697 0.37165 0.0
C378 C 0.85271 0.67738 0.38083 0.0
C379 C 0.86786 0.61274 0.39246 0.0
C380 C 0.89822 0.62815 0.42258 0.0
H381 H 0.82275 0.62379 0.3487 0.0
H382 H 0.86103 0.5816 0.3848 0.0
S383 S 0.92837 0.73239 0.45734 0.0
N384 N 0.89187 0.73193 0.42199 0.0
N385 N 0.93429 0.68666 0.46014 0.0
C386 C 0.9059 0.66875 0.4315 0.0
C387 C 0.88281 0.69326 0.41096 0.0
C388 C 0.40822 0.84232 0.43643 0.0
C389 C 0.39375 0.85199 0.3953 0.0
C390 C 0.4353 0.87094 0.46 0.0
C391 C 0.44845 0.91061 0.44376 0.0
H392 H 0.39956 0.81202 0.44989 0.0
H393 H 0.44645 0.86167 0.49104 0.0
S394 S 0.41691 0.95183 0.3389 0.0
N395 N 0.39289 0.90435 0.34008 0.0
N396 N 0.44318 0.95842 0.38473 0.0
C397 C 0.43287 0.9211 0.40342 0.0
C398 C 0.40576 0.89171 0.37908 0.0
C399 C 0.17289 0.57231 0.63896 0.0
C400 C 0.18168 0.6143 0.63862 0.0
C401 C 0.14064 0.5503 0.61546 0.0
C402 C 0.11561 0.56914 0.59072 0.0
H403 H 0.19211 0.55632 0.65579 0.0
H404 H 0.13583 0.51821 0.61588 0.0
S405 S 0.12209 0.67765 0.58398 0.0
N406 N 0.16013 0.67357 0.61497 0.0
N407 N 0.09925 0.63177 0.57104 0.0
C408 C 0.12234 0.61073 0.59243 0.0
C409 C 0.15552 0.6334 0.61613 0.0
C410 C 0.38041 0.15754 0.61295 0.0
C411 C 0.39587 0.19907 0.61341 0.0
C412 C 0.39968 0.13289 0.59579 0.0
C413 C 0.43527 0.14901 0.57935 0.0
H414 H 0.35324 0.14417 0.62564 0.0
H415 H 0.38681 0.10102 0.59583 0.0
S416 S 0.4877 0.25645 0.57438 0.0
N417 N 0.44843 0.25536 0.59664 0.0
N418 N 0.48485 0.20963 0.56473 0.0
C419 C 0.45086 0.19071 0.57989 0.0
C420 C 0.43109 0.21557 0.59687 0.0
C421 C 0.88463 0.40485 0.61614 0.0
C422 C 0.87309 0.41388 0.65477 0.0
C423 C 0.91595 0.43027 0.59708 0.0
C424 C 0.93681 0.4661 0.61556 0.0
H425 H 0.86909 0.37806 0.6003 0.0
H426 H 0.9229 0.42247 0.56676 0.0
S427 S 0.91877 0.50283 0.71745 0.0
N428 N 0.88548 0.46071 0.71128 0.0
N429 N 0.94428 0.50814 0.67602 0.0
C430 C 0.92615 0.47478 0.65491 0.0
C431 C 0.89437 0.44884 0.6743 0.0
C432 C 0.68613 0.87983 0.58563 0.0
C433 C 0.66721 0.83936 0.59198 0.0
C434 C 0.66599 0.90816 0.57232 0.0
C435 C 0.62621 0.89699 0.56493 0.0
H436 H 0.71666 0.88982 0.59224 0.0
H437 H 0.68168 0.9392 0.56898 0.0
S438 S 0.56367 0.79418 0.57484 0.0
N439 N 0.60696 0.78893 0.58806 0.0
N440 N 0.56875 0.8423 0.56284 0.0
C441 C 0.6071 0.85624 0.56904 0.0
C442 C 0.62772 0.82734 0.58263 0.0
C443 C 0.37291 0.17811 0.47681 0.0
C444 C 0.39749 0.21646 0.47097 0.0
C445 C 0.38523 0.14352 0.47313 0.0
C446 C 0.42268 0.14615 0.46409 0.0
H447 H 0.34399 0.17479 0.4845 0.0
H448 H 0.36559 0.11459 0.47836 0.0
S449 S 0.49765 0.23897 0.44354 0.0
N450 N 0.46051 0.25462 0.45314 0.0
N451 N 0.48393 0.18975 0.44821 0.0
C452 C 0.44751 0.18415 0.45819 0.0
C453 C 0.43488 0.21927 0.46119 0.0
C454 C 0.85049 0.40517 0.43679 0.0
C455 C 0.84869 0.40894 0.39195 0.0
C456 C 0.88118 0.42828 0.46176 0.0
C457 C 0.91181 0.45505 0.44287 0.0
H458 H 0.82736 0.38517 0.45269 0.0
H459 H 0.88067 0.42566 0.49615 0.0
S460 S 0.9216 0.47532 0.32706 0.0
N461 N 0.88066 0.44129 0.32977 0.0
N462 N 0.93875 0.48385 0.37688 0.0
C463 C 0.91099 0.4583 0.3982 0.0
C464 C 0.87933 0.43548 0.37271 0.0
C465 C 0.66609 0.89031 0.39138 0.0
C466 C 0.65874 0.84829 0.39455 0.0
C467 C 0.64473 0.91044 0.41212 0.0
C468 C 0.6149 0.88931 0.43641 0.0
H469 H 0.68782 0.90776 0.37172 0.0
H470 H 0.65081 0.94268 0.4079 0.0
S471 S 0.58762 0.77963 0.45982 0.0
N472 N 0.62227 0.78676 0.42795 0.0
N473 N 0.58141 0.82432 0.46564 0.0
C474 C 0.60819 0.84746 0.44115 0.0
C475 C 0.63023 0.82704 0.42054 0.0
C476 C 0.12678 0.58225 0.34962 0.0
C477 C 0.15193 0.61451 0.37038 0.0
C478 C 0.09598 0.55728 0.3699 0.0
C479 C 0.08871 0.56401 0.41149 0.0
H480 H 0.13158 0.5756 0.3179 0.0
H481 H 0.07818 0.53205 0.35311 0.0
S482 S 0.14493 0.64698 0.47796 0.0
N483 N 0.16665 0.6533 0.43356 0.0
N484 N 0.10877 0.60731 0.4716 0.0
C485 C 0.11299 0.59735 0.4318 0.0
C486 C 0.1446 0.62227 0.41133 0.0
C487 C 0.46685 0.87216 0.66881 0.0
C488 C 0.43083 0.85296 0.64992 0.0
C489 C 0.48923 0.90734 0.65018 0.0
C490 C 0.47673 0.9249 0.61163 0.0
H491 H 0.47839 0.85915 0.6976 0.0
H492 H 0.51732 0.91982 0.66528 0.0
S493 S 0.38327 0.88764 0.55068 0.0
N494 N 0.38281 0.85514 0.59162 0.0
N495 N 0.42438 0.92133 0.55681 0.0
C496 C 0.43976 0.90716 0.59369 0.0
C497 C 0.417 0.87122 0.61272 0.0
C498 C 0.16346 0.3544 0.62309 0.0
C499 C 0.20216 0.36999 0.61662 0.0
C500 C 0.13607 0.37352 0.6038 0.0
C501 C 0.14695 0.40869 0.57789 0.0
H502 H 0.15465 0.32863 0.64471 0.0
H503 H 0.10675 0.36203 0.61103 0.0
S504 S 0.2442 0.45692 0.54591 0.0
N505 N 0.24931 0.41922 0.57883 0.0
N506 N 0.19849 0.45502 0.54264 0.0
C507 C 0.18529 0.42253 0.56894 0.0
C508 C 0.21277 0.4032 0.58834 0.0
C509 C 0.64369 0.16544 0.58643 0.0
C510 C 0.6323 0.17624 0.62437 0.0
C511 C 0.61998 0.13475 0.56211 0.0
C512 C 0.58453 0.11305 0.57546 0.0
H513 H 0.67057 0.18177 0.57471 0.0
H514 H 0.62897 0.12865 0.53211 0.0
S515 S 0.54202 0.12794 0.67294 0.0
N516 N 0.58341 0.16162 0.67452 0.0
N517 N 0.53939 0.10371 0.62909 0.0
C518 C 0.57325 0.12267 0.61376 0.0
C519 C 0.59701 0.15428 0.63817 0.0
C520 C 0.84409 0.63169 0.54244 0.0
C521 C 0.85274 0.66904 0.56072 0.0
C522 C 0.8728 0.61343 0.53616 0.0
C523 C 0.91113 0.63191 0.54806 0.0
H524 H 0.81477 0.61539 0.53548 0.0
H525 H 0.86457 0.5837 0.52409 0.0
S526 S 0.94899 0.73307 0.59011 0.0
N527 N 0.90245 0.72614 0.58574 0.0
N528 N 0.95657 0.69224 0.573 0.0
C529 C 0.92037 0.67091 0.5626 0.0
C530 C 0.8911 0.68947 0.56902 0.0
C531 C 0.42511 0.46396 0.26307 0.0
C532 C 0.39183 0.43429 0.27096 0.0
C533 C 0.43548 0.47468 0.22142 0.0
C534 C 0.41298 0.45613 0.186 0.0
H535 H 0.44415 0.47777 0.28936 0.0
H536 H 0.46217 0.49664 0.21727 0.0
S537 S 0.31982 0.38121 0.18962 0.0
N538 N 0.33403 0.38996 0.24011 0.0
N539 N 0.35353 0.4098 0.16169 0.0
C540 C 0.37832 0.42825 0.1934 0.0
C541 C 0.36781 0.41734 0.2359 0.0
C542 C 0.45619 0.60677 0.84981 0.0
C543 C 0.42575 0.62074 0.86086 0.0
C544 C 0.48145 0.59484 0.88109 0.0
C545 C 0.47701 0.59558 0.92482 0.0
H546 H 0.46081 0.60551 0.81658 0.0
H547 H 0.50449 0.58438 0.87089 0.0
S548 S 0.40153 0.62853 0.97092 0.0
N549 N 0.39252 0.63456 0.91881 0.0
N550 N 0.43947 0.61061 0.97774 0.0
C551 C 0.4464 0.60878 0.93652 0.0
C552 C 0.42102 0.62188 0.90451 0.0
C553 C 0.43225 0.37572 0.89406 0.0
C554 C 0.40832 0.38932 0.86213 0.0
C555 C 0.45363 0.40135 0.9251 0.0
C556 C 0.45224 0.44148 0.92444 0.0
H557 H 0.43556 0.34561 0.89396 0.0
H558 H 0.47322 0.39052 0.94788 0.0
S559 S 0.39359 0.49139 0.84842 0.0
N560 N 0.38347 0.44503 0.83297 0.0
N561 N 0.42448 0.4933 0.8905 0.0
C562 C 0.42752 0.45497 0.8937 0.0
C563 C 0.40529 0.42883 0.86272 0.0
C564 C 0.66677 0.42863 0.86083 0.0
C565 C 0.64753 0.4034 0.82823 0.0
C566 C 0.64725 0.4482 0.88509 0.0
C567 C 0.60781 0.44371 0.87729 0.0
H568 H 0.69703 0.43263 0.86822 0.0
H569 H 0.66321 0.46702 0.91004 0.0
S570 S 0.54476 0.38252 0.79362 0.0
N571 N 0.58724 0.37626 0.78835 0.0
N572 N 0.55056 0.41264 0.83327 0.0
C573 C 0.5885 0.41912 0.84404 0.0
C574 C 0.60831 0.39908 0.81975 0.0
C575 C 0.69082 0.62157 0.8461 0.0
C576 C 0.67671 0.61114 0.80435 0.0
C577 C 0.67013 0.60514 0.88085 0.0
C578 C 0.63428 0.57777 0.87532 0.0
H579 H 0.71718 0.64427 0.8519 0.0
H580 H 0.6818 0.61552 0.9121 0.0
S581 S 0.58777 0.53554 0.7729 0.0
N582 N 0.62725 0.56797 0.7596 0.0
N583 N 0.5877 0.53725 0.82508 0.0
C584 C 0.62099 0.56492 0.83397 0.0
C585 C 0.6423 0.58167 0.79843 0.0
C586 C 0.60582 0.62067 0.18749 0.0
C587 C 0.63562 0.64874 0.16877 0.0
C588 C 0.57917 0.5926 0.16322 0.0
C589 C 0.58078 0.5913 0.11885 0.0
H590 H 0.60272 0.62062 0.22132 0.0
H591 H 0.55684 0.57194 0.17967 0.0
S592 S 0.65423 0.65724 0.05435 0.0
N593 N 0.66613 0.67279 0.10328 0.0
N594 N 0.61544 0.62021 0.0573 0.0
C595 C 0.61054 0.61909 0.09956 0.0
C596 C 0.63798 0.64778 0.12452 0.0
C597 C 0.35985 0.59704 0.17359 0.0
C598 C 0.37685 0.62414 0.20538 0.0
C599 C 0.38133 0.57705 0.15282 0.0
C600 C 0.42071 0.58336 0.16298 0.0
H601 H 0.32964 0.5912 0.16467 0.0
H602 H 0.36691 0.5566 0.12855 0.0
S603 S 0.47921 0.65264 0.24277 0.0
N604 N 0.43565 0.65712 0.24503 0.0
N605 N 0.47589 0.6194 0.20679 0.0
C606 C 0.43801 0.61028 0.19493 0.0
C607 C 0.41614 0.63066 0.21591 0.0
C608 C 0.57267 0.3742 0.15937 0.0
C609 C 0.61045 0.3964 0.16818 0.0
C610 C 0.54671 0.39005 0.13252 0.0
C611 C 0.55738 0.42882 0.11322 0.0
H612 H 0.56306 0.34419 0.17328 0.0
H613 H 0.51789 0.37179 0.1272 0.0
S614 S 0.65271 0.50002 0.12763 0.0
N615 N 0.65703 0.45959 0.15649 0.0
N616 N 0.60859 0.48939 0.10587 0.0
C617 C 0.59526 0.45128 0.12159 0.0
C618 C 0.62165 0.4351 0.14906 0.0
loop_
_geom_bond_atom_site_label_1
_geom_bond_atom_site_label_2
_geom_bond_distance
_geom_bond_site_symmetry_2
_ccdc_geom_bond_type
P0 O11 1.490 . S
P0 C14 1.812 . S
P0 C20 1.803 . S
P0 C26 1.819 . S
H1 C15 0.941 . S
H2 C16 0.939 . S
H3 C18 0.940 . S
H4 C19 0.940 . S
H5 C21 0.939 . S
H6 C22 0.942 . S
H7 C24 0.940 . S
H8 C25 0.939 . S
H9 C27 0.941 . S
H10 C31 0.939 . S
O11 P0 1.490 . S
H12 C28 0.939 . S
H13 C30 0.940 . S
C14 P0 1.812 . S
C14 C15 1.389 . S
C14 C19 1.391 . S
C15 H1 0.941 . S
C15 C14 1.389 . S
C15 C16 1.397 . S
C16 H2 0.939 . S
C16 C15 1.397 . S
C16 C17 1.378 . S
C17 C16 1.378 . S
C17 C18 1.378 . S
C18 H3 0.940 . S
C18 C17 1.378 . S
C18 C19 1.396 . S
C19 H4 0.940 . S
C19 C14 1.391 . S
C19 C18 1.396 . S
C20 P0 1.803 . S
C20 C21 1.378 . S
C20 C25 1.400 . S
C21 H5 0.939 . S
C21 C20 1.378 . S
C21 C22 1.361 . S
C22 H6 0.942 . S
C22 C21 1.361 . S
C22 C23 1.369 . S
C23 C22 1.369 . S
C23 C24 1.404 . S
C24 H7 0.940 . S
C24 C23 1.404 . S
C24 C25 1.389 . S
C25 H8 0.939 . S
C25 C20 1.400 . S
C25 C24 1.389 . S
C26 P0 1.819 . S
C26 C27 1.391 . S
C26 C31 1.391 . S
C27 H9 0.941 . S
C27 C26 1.391 . S
C27 C28 1.396 . S
C28 H12 0.939 . S
C28 C27 1.396 . S
C28 C29 1.397 . S
C29 C28 1.397 . S
C29 C30 1.385 . S
C30 H13 0.940 . S
C30 C29 1.385 . S
C30 C31 1.388 . S
C31 H10 0.939 . S
C31 C26 1.391 . S
C31 C30 1.388 . S
P32 O43 1.490 . S
P32 C46 1.812 . S
P32 C52 1.803 . S
P32 C58 1.819 . S
H33 C47 0.941 . S
H34 C48 0.939 . S
H35 C50 0.940 . S
H36 C51 0.940 . S
H37 C53 0.939 . S
H38 C54 0.942 . S
H39 C56 0.940 . S
H40 C57 0.939 . S
H41 C59 0.941 . S
H42 C63 0.939 . S
O43 P32 1.490 . S
H44 C60 0.939 . S
H45 C62 0.940 . S
C46 P32 1.812 . S
C46 C47 1.389 . S
C46 C51 1.391 . S
C47 H33 0.941 . S
C47 C46 1.389 . S
C47 C48 1.397 . S
C48 H34 0.939 . S
C48 C47 1.397 . S
C48 C49 1.378 . S
C49 C48 1.378 . S
C49 C50 1.378 . S
C50 H35 0.940 . S
C50 C49 1.378 . S
C50 C51 1.396 . S
C51 H36 0.940 . S
C51 C46 1.391 . S
C51 C50 1.396 . S
C52 P32 1.803 . S
C52 C53 1.378 . S
C52 C57 1.400 . S
C53 H37 0.939 . S
C53 C52 1.378 . S
C53 C54 1.361 . S
C54 H38 0.942 . S
C54 C53 1.361 . S
C54 C55 1.369 . S
C55 C54 1.369 . S
C55 C56 1.404 . S
C56 H39 0.940 . S
C56 C55 1.404 . S
C56 C57 1.389 . S
C57 H40 0.939 . S
C57 C52 1.400 . S
C57 C56 1.389 . S
C58 P32 1.819 . S
C58 C59 1.391 . S
C58 C63 1.391 . S
C59 H41 0.941 . S
C59 C58 1.391 . S
C59 C60 1.396 . S
C60 H44 0.939 . S
C60 C59 1.396 . S
C60 C61 1.397 . S
C61 C60 1.397 . S
C61 C62 1.385 . S
C62 H45 0.940 . S
C62 C61 1.385 . S
C62 C63 1.388 . S
C63 H42 0.939 . S
C63 C58 1.391 . S
C63 C62 1.388 . S
P64 O75 1.490 . S
P64 C78 1.812 . S
P64 C84 1.803 . S
P64 C90 1.819 . S
H65 C79 0.941 . S
H66 C80 0.939 . S
H67 C82 0.940 . S
H68 C83 0.940 . S
H69 C85 0.939 . S
H70 C86 0.942 . S
H71 C88 0.940 . S
H72 C89 0.939 . S
H73 C91 0.941 . S
H74 C95 0.939 . S
O75 P64 1.490 . S
H76 C92 0.939 . S
H77 C94 0.940 . S
C78 P64 1.812 . S
C78 C79 1.389 . S
C78 C83 1.391 . S
C79 H65 0.941 . S
C79 C78 1.389 . S
C79 C80 1.397 . S
C80 H66 0.939 . S
C80 C79 1.397 . S
C80 C81 1.378 . S
C81 C80 1.378 . S
C81 C82 1.378 . S
C82 H67 0.940 . S
C82 C81 1.378 . S
C82 C83 1.396 . S
C83 H68 0.940 . S
C83 C78 1.391 . S
C83 C82 1.396 . S
C84 P64 1.803 . S
C84 C85 1.378 . S
C84 C89 1.400 . S
C85 H69 0.939 . S
C85 C84 1.378 . S
C85 C86 1.361 . S
C86 H70 0.942 . S
C86 C85 1.361 . S
C86 C87 1.369 . S
C87 C86 1.369 . S
C87 C88 1.404 . S
C88 H71 0.940 . S
C88 C87 1.404 . S
C88 C89 1.389 . S
C89 H72 0.939 . S
C89 C84 1.400 . S
C89 C88 1.389 . S
C90 P64 1.819 . S
C90 C91 1.391 . S
C90 C95 1.391 . S
C91 H73 0.941 . S
C91 C90 1.391 . S
C91 C92 1.396 . S
C92 H76 0.939 . S
C92 C91 1.396 . S
C92 C93 1.397 . S
C93 C92 1.397 . S
C93 C94 1.385 . S
C94 H77 0.940 . S
C94 C93 1.385 . S
C94 C95 1.388 . S
C95 H74 0.939 . S
C95 C90 1.391 . S
C95 C94 1.388 . S
P96 O107 1.490 . S
P96 C110 1.812 . S
P96 C116 1.803 . S
P96 C122 1.819 . S
H97 C111 0.941 . S
H98 C112 0.939 . S
H99 C114 0.940 . S
H100 C115 0.940 . S
H101 C117 0.939 . S
H102 C118 0.942 . S
H103 C120 0.940 . S
H104 C121 0.939 . S
H105 C123 0.941 . S
H106 C127 0.939 . S
O107 P96 1.490 . S
H108 C124 0.939 . S
H109 C126 0.940 . S
C110 P96 1.812 . S
C110 C111 1.389 . S
C110 C115 1.391 . S
C111 H97 0.941 . S
C111 C110 1.389 . S
C111 C112 1.397 . S
C112 H98 0.939 . S
C112 C111 1.397 . S
C112 C113 1.378 . S
C113 C112 1.378 . S
C113 C114 1.378 . S
C114 H99 0.940 . S
C114 C113 1.378 . S
C114 C115 1.396 . S
C115 H100 0.940 . S
C115 C110 1.391 . S
C115 C114 1.396 . S
C116 P96 1.803 . S
C116 C117 1.378 . S
C116 C121 1.400 . S
C117 H101 0.939 . S
C117 C116 1.378 . S
C117 C118 1.361 . S
C118 H102 0.942 . S
C118 C117 1.361 . S
C118 C119 1.369 . S
C119 C118 1.369 . S
C119 C120 1.404 . S
C120 H103 0.940 . S
C120 C119 1.404 . S
C120 C121 1.389 . S
C121 H104 0.939 . S
C121 C116 1.400 . S
C121 C120 1.389 . S
C122 P96 1.819 . S
C122 C123 1.391 . S
C122 C127 1.391 . S
C123 H105 0.941 . S
C123 C122 1.391 . S
C123 C124 1.396 . S
C124 H108 0.939 . S
C124 C123 1.396 . S
C124 C125 1.397 . S
C125 C124 1.397 . S
C125 C126 1.385 . S
C126 H109 0.940 . S
C126 C125 1.385 . S
C126 C127 1.388 . S
C127 H106 0.939 . S
C127 C122 1.391 . S
C127 C126 1.388 . S
P128 O139 1.490 . S
P128 C142 1.812 . S
P128 C148 1.803 . S
P128 C154 1.819 . S
H129 C143 0.941 . S
H130 C144 0.939 . S
H131 C146 0.940 . S
H132 C147 0.940 . S
H133 C149 0.939 . S
H134 C150 0.942 . S
H135 C152 0.940 . S
H136 C153 0.939 . S
H137 C155 0.941 . S
H138 C159 0.939 . S
O139 P128 1.490 . S
H140 C156 0.939 . S
H141 C158 0.940 . S
C142 P128 1.812 . S
C142 C143 1.389 . S
C142 C147 1.391 . S
C143 H129 0.941 . S
C143 C142 1.389 . S
C143 C144 1.397 . S
C144 H130 0.939 . S
C144 C143 1.397 . S
C144 C145 1.378 . S
C145 C144 1.378 . S
C145 C146 1.378 . S
C146 H131 0.940 . S
C146 C145 1.378 . S
C146 C147 1.396 . S
C147 H132 0.940 . S
C147 C142 1.391 . S
C147 C146 1.396 . S
C148 P128 1.803 . S
C148 C149 1.378 . S
C148 C153 1.400 . S
C149 H133 0.939 . S
C149 C148 1.378 . S
C149 C150 1.361 . S
C150 H134 0.942 . S
C150 C149 1.361 . S
C150 C151 1.369 . S
C151 C150 1.369 . S
C151 C152 1.404 . S
C152 H135 0.940 . S
C152 C151 1.404 . S
C152 C153 1.389 . S
C153 H136 0.939 . S
C153 C148 1.400 . S
C153 C152 1.389 . S
C154 P128 1.819 . S
C154 C155 1.391 . S
C154 C159 1.391 . S
C155 H137 0.941 . S
C155 C154 1.391 . S
C155 C156 1.396 . S
C156 H140 0.939 . S
C156 C155 1.396 . S
C156 C157 1.397 . S
C157 C156 1.397 . S
C157 C158 1.385 . S
C158 H141 0.940 . S
C158 C157 1.385 . S
C158 C159 1.388 . S
C159 H138 0.939 . S
C159 C154 1.391 . S
C159 C158 1.388 . S
P160 O171 1.490 . S
P160 C174 1.812 . S
P160 C180 1.803 . S
P160 C186 1.819 . S
H161 C175 0.941 . S
H162 C176 0.939 . S
H163 C178 0.940 . S
H164 C179 0.940 . S
H165 C181 0.939 . S
H166 C182 0.942 . S
H167 C184 0.940 . S
H168 C185 0.939 . S
H169 C187 0.941 . S
H170 C191 0.939 . S
O171 P160 1.490 . S
H172 C188 0.939 . S
H173 C190 0.940 . S
C174 P160 1.812 . S
C174 C175 1.389 . S
C174 C179 1.391 . S
C175 H161 0.941 . S
C175 C174 1.389 . S
C175 C176 1.397 . S
C176 H162 0.939 . S
C176 C175 1.397 . S
C176 C177 1.378 . S
C177 C176 1.378 . S
C177 C178 1.378 . S
C178 H163 0.940 . S
C178 C177 1.378 . S
C178 C179 1.396 . S
C179 H164 0.940 . S
C179 C174 1.391 . S
C179 C178 1.396 . S
C180 P160 1.803 . S
C180 C181 1.378 . S
C180 C185 1.400 . S
C181 H165 0.939 . S
C181 C180 1.378 . S
C181 C182 1.361 . S
C182 H166 0.942 . S
C182 C181 1.361 . S
C182 C183 1.369 . S
C183 C182 1.369 . S
C183 C184 1.404 . S
C184 H167 0.940 . S
C184 C183 1.404 . S
C184 C185 1.389 . S
C185 H168 0.939 . S
C185 C180 1.400 . S
C185 C184 1.389 . S
C186 P160 1.819 . S
C186 C187 1.391 . S
C186 C191 1.391 . S
C187 H169 0.941 . S
C187 C186 1.391 . S
C187 C188 1.396 . S
C188 H172 0.939 . S
C188 C187 1.396 . S
C188 C189 1.397 . S
C189 C188 1.397 . S
C189 C190 1.385 . S
C190 H173 0.940 . S
C190 C189 1.385 . S
C190 C191 1.388 . S
C191 H170 0.939 . S
C191 C186 1.391 . S
C191 C190 1.388 . S
P192 O203 1.490 . S
P192 C206 1.812 . S
P192 C212 1.803 . S
P192 C218 1.819 . S
H193 C207 0.941 . S
H194 C208 0.939 . S
H195 C210 0.940 . S
H196 C211 0.940 . S
H197 C213 0.939 . S
H198 C214 0.942 . S
H199 C216 0.940 . S
H200 C217 0.939 . S
H201 C219 0.941 . S
H202 C223 0.939 . S
O203 P192 1.490 . S
H204 C220 0.939 . S
H205 C222 0.940 . S
C206 P192 1.812 . S
C206 C207 1.389 . S
C206 C211 1.391 . S
C207 H193 0.941 . S
C207 C206 1.389 . S
C207 C208 1.397 . S
C208 H194 0.939 . S
C208 C207 1.397 . S
C208 C209 1.378 . S
C209 C208 1.378 . S
C209 C210 1.378 . S
C210 H195 0.940 . S
C210 C209 1.378 . S
C210 C211 1.396 . S
C211 H196 0.940 . S
C211 C206 1.391 . S
C211 C210 1.396 . S
C212 P192 1.803 . S
C212 C213 1.378 . S
C212 C217 1.400 . S
C213 H197 0.939 . S
C213 C212 1.378 . S
C213 C214 1.361 . S
C214 H198 0.942 . S
C214 C213 1.361 . S
C214 C215 1.369 . S
C215 C214 1.369 . S
C215 C216 1.404 . S
C216 H199 0.940 . S
C216 C215 1.404 . S
C216 C217 1.389 . S
C217 H200 0.939 . S
C217 C212 1.400 . S
C217 C216 1.389 . S
C218 P192 1.819 . S
C218 C219 1.391 . S
C218 C223 1.391 . S
C219 H201 0.941 . S
C219 C218 1.391 . S
C219 C220 1.396 . S
C220 H204 0.939 . S
C220 C219 1.396 . S
C220 C221 1.397 . S
C221 C220 1.397 . S
C221 C222 1.385 . S
C222 H205 0.940 . S
C222 C221 1.385 . S
C222 C223 1.388 . S
C223 H202 0.939 . S
C223 C218 1.391 . S
C223 C222 1.388 . S
P224 O235 1.490 . S
P224 C238 1.812 . S
P224 C244 1.803 . S
P224 C250 1.819 . S
H225 C239 0.941 . S
H226 C240 0.939 . S
H227 C242 0.940 . S
H228 C243 0.940 . S
H229 C245 0.939 . S
H230 C246 0.942 . S
H231 C248 0.940 . S
H232 C249 0.939 . S
H233 C251 0.941 . S
H234 C255 0.939 . S
O235 P224 1.490 . S
H236 C252 0.939 . S
H237 C254 0.940 . S
C238 P224 1.812 . S
C238 C239 1.389 . S
C238 C243 1.391 . S
C239 H225 0.941 . S
C239 C238 1.389 . S
C239 C240 1.397 . S
C240 H226 0.939 . S
C240 C239 1.397 . S
C240 C241 1.378 . S
C241 C240 1.378 . S
C241 C242 1.378 . S
C242 H227 0.940 . S
C242 C241 1.378 . S
C242 C243 1.396 . S
C243 H228 0.940 . S
C243 C238 1.391 . S
C243 C242 1.396 . S
C244 P224 1.803 . S
C244 C245 1.378 . S
C244 C249 1.400 . S
C245 H229 0.939 . S
C245 C244 1.378 . S
C245 C246 1.361 . S
C246 H230 0.942 . S
C246 C245 1.361 . S
C246 C247 1.369 . S
C247 C246 1.369 . S
C247 C248 1.404 . S
C248 H231 0.940 . S
C248 C247 1.404 . S
C248 C249 1.389 . S
C249 H232 0.939 . S
C249 C244 1.400 . S
C249 C248 1.389 . S
C250 P224 1.819 . S
C250 C251 1.391 . S
C250 C255 1.391 . S
C251 H233 0.941 . S
C251 C250 1.391 . S
C251 C252 1.396 . S
C252 H236 0.939 . S
C252 C251 1.396 . S
C252 C253 1.397 . S
C253 C252 1.397 . S
C253 C254 1.385 . S
C254 H237 0.940 . S
C254 C253 1.385 . S
C254 C255 1.388 . S
C255 H234 0.939 . S
C255 C250 1.391 . S
C255 C254 1.388 . S
Co256 O259 2.042 . S
Co256 O266 2.264 . S
Co256 O285 2.286 . S
Co256 O286 2.069 . S
Co256 O288 2.015 . S
Co257 O259 2.122 . S
Co257 O265 2.073 . S
Co257 O266 2.327 . S
Co257 O267 1.976 . S
Co258 O259 2.087 . S
Co258 O261 2.087 1_455 S
Co258 O268 2.111 . S
Co258 O269 2.143 1_455 S
Co258 O273 2.111 1_455 S
Co258 O287 2.143 . S
O259 Co256 2.042 . S
O259 Co257 2.122 . S
O259 Co258 2.087 . S
O259 H260 0.980 . S
H260 O259 0.980 . S
O261 Co258 2.087 1_655 S
O261 Co262 2.042 . S
O261 Co263 2.122 . S
O261 H264 0.980 . S
Co262 O261 2.042 . S
Co262 O270 2.286 . S
Co262 O271 2.069 . S
Co262 O272 2.015 . S
Co262 O275 2.264 . S
Co263 O261 2.122 . S
Co263 O274 1.976 . S
Co263 O275 2.327 . S
Co263 O276 2.073 . S
H264 O261 0.980 . S
O265 Co257 2.073 . S
O265 C280 1.245 . S
O266 Co256 2.264 . S
O266 Co257 2.327 . S
O266 C280 1.257 . S
O267 Co257 1.976 . S
O267 C279 1.251 . S
O268 Co258 2.111 . S
O268 C279 1.274 . S
O269 Co258 2.143 1_655 S
O269 C282 1.246 . S
O270 Co262 2.286 . S
O270 C281 1.259 . S
O271 Co262 2.069 . S
O271 C281 1.289 . S
O272 Co262 2.015 . S
O272 C282 1.257 . S
O273 Co258 2.111 1_655 S
O273 C283 1.274 . S
O274 Co263 1.976 . S
O274 C283 1.251 . S
O275 Co262 2.264 . S
O275 Co263 2.327 . S
O275 C284 1.257 . S
O276 Co263 2.073 . S
O276 C284 1.245 . S
C277 O285 1.259 . S
C277 O286 1.289 . S
C278 O287 1.246 . S
C278 O288 1.257 . S
C279 O267 1.251 . S
C279 O268 1.274 . S
C280 O265 1.245 . S
C280 O266 1.257 . S
C281 O270 1.259 . S
C281 O271 1.289 . S
C282 O269 1.246 . S
C282 O272 1.257 . S
C283 O273 1.274 . S
C283 O274 1.251 . S
C284 O275 1.257 . S
C284 O276 1.245 . S
O285 Co256 2.286 . S
O285 C277 1.259 . S
O286 Co256 2.069 . S
O286 C277 1.289 . S
O287 Co258 2.143 . S
O287 C278 1.246 . S
O288 Co256 2.015 . S
O288 C278 1.257 . S
Co289 O292 2.042 . S
Co289 O299 2.264 . S
Co289 O318 2.286 . S
Co289 O319 2.069 . S
Co289 O321 2.015 . S
Co290 O292 2.122 . S
Co290 O298 2.073 . S
Co290 O299 2.327 . S
Co290 O300 1.976 . S
Co291 O292 2.087 1_545 S
Co291 O294 2.087 . S
Co291 O301 2.111 1_545 S
Co291 O302 2.143 . S
Co291 O306 2.111 . S
Co291 O320 2.143 1_545 S
O292 Co289 2.042 . S
O292 Co290 2.122 . S
O292 Co291 2.087 1_565 S
O292 H293 0.980 . S
H293 O292 0.980 . S
O294 Co291 2.087 . S
O294 Co295 2.042 . S
O294 Co296 2.122 . S
O294 H297 0.980 . S
Co295 O294 2.042 . S
Co295 O303 2.286 . S
Co295 O304 2.069 . S
Co295 O305 2.015 . S
Co295 O308 2.264 . S
Co296 O294 2.122 . S
Co296 O307 1.976 . S
Co296 O308 2.327 . S
Co296 O309 2.073 . S
H297 O294 0.980 . S
O298 Co290 2.073 . S
O298 C313 1.245 . S
O299 Co289 2.264 . S
O299 Co290 2.327 . S
O299 C313 1.257 . S
O300 Co290 1.976 . S
O300 C312 1.251 . S
O301 Co291 2.111 1_565 S
O301 C312 1.274 . S
O302 Co291 2.143 . S
O302 C315 1.246 . S
O303 Co295 2.286 . S
O303 C314 1.259 . S
O304 Co295 2.069 . S
O304 C314 1.289 . S
O305 Co295 2.015 . S
O305 C315 1.257 . S
O306 Co291 2.111 . S
O306 C316 1.274 . S
O307 Co296 1.976 . S
O307 C316 1.251 . S
O308 Co295 2.264 . S
O308 Co296 2.327 . S
O308 C317 1.257 . S
O309 Co296 2.073 . S
O309 C317 1.245 . S
C310 O318 1.259 . S
C310 O319 1.289 . S
C311 O320 1.246 . S
C311 O321 1.257 . S
C312 O300 1.251 . S
C312 O301 1.274 . S
C313 O298 1.245 . S
C313 O299 1.257 . S
C314 O303 1.259 . S
C314 O304 1.289 . S
C315 O302 1.246 . S
C315 O305 1.257 . S
C316 O306 1.274 . S
C316 O307 1.251 . S
C317 O308 1.257 . S
C317 O309 1.245 . S
O318 Co289 2.286 . S
O318 C310 1.259 . S
O319 Co289 2.069 . S
O319 C310 1.289 . S
O320 Co291 2.143 1_565 S
O320 C311 1.246 . S
O321 Co289 2.015 . S
O321 C311 1.257 . S
Co322 O325 2.042 . S
Co322 O332 2.264 . S
Co322 O351 2.286 . S
Co322 O352 2.069 . S
Co322 O354 2.015 . S
Co323 O325 2.122 . S
Co323 O331 2.073 . S
Co323 O332 2.327 . S
Co323 O333 1.976 . S
Co324 O325 2.087 . S
Co324 O327 2.087 1_554 S
Co324 O334 2.111 . S
Co324 O335 2.143 1_554 S
Co324 O339 2.111 1_554 S
Co324 O353 2.143 . S
O325 Co322 2.042 . S
O325 Co323 2.122 . S
O325 Co324 2.087 . S
O325 H326 0.980 . S
H326 O325 0.980 . S
O327 Co324 2.087 1_556 S
O327 Co328 2.042 . S
O327 Co329 2.122 . S
O327 H330 0.980 . S
Co328 O327 2.042 . S
Co328 O336 2.286 . S
Co328 O337 2.069 . S
Co328 O338 2.015 . S
Co328 O341 2.264 . S
Co329 O327 2.122 . S
Co329 O340 1.976 . S
Co329 O341 2.327 . S
Co329 O342 2.073 . S
H330 O327 0.980 . S
O331 Co323 2.073 . S
O331 C346 1.245 . S
O332 Co322 2.264 . S
O332 Co323 2.327 . S
O332 C346 1.257 . S
O333 Co323 1.976 . S
O333 C345 1.251 . S
O334 Co324 2.111 . S
O334 C345 1.274 . S
O335 Co324 2.143 1_556 S
O335 C348 1.246 . S
O336 Co328 2.286 . S
O336 C347 1.259 . S
O337 Co328 2.069 . S
O337 C347 1.289 . S
O338 Co328 2.015 . S
O338 C348 1.257 . S
O339 Co324 2.111 1_556 S
O339 C349 1.274 . S
O340 Co329 1.976 . S
O340 C349 1.251 . S
O341 Co328 2.264 . S
O341 Co329 2.327 . S
O341 C350 1.257 . S
O342 Co329 2.073 . S
O342 C350 1.245 . S
C343 O351 1.259 . S
C343 O352 1.289 . S
C344 O353 1.246 . S
C344 O354 1.257 . S
C345 O333 1.251 . S
C345 O334 1.274 . S
C346 O331 1.245 . S
C346 O332 1.257 . S
C347 O336 1.259 . S
C347 O337 1.289 . S
C348 O335 1.246 . S
C348 O338 1.257 . S
C349 O339 1.274 . S
C349 O340 1.251 . S
C350 O341 1.257 . S
C350 O342 1.245 . S
O351 Co322 2.286 . S
O351 C343 1.259 . S
O352 Co322 2.069 . S
O352 C343 1.289 . S
O353 Co324 2.143 . S
O353 C344 1.246 . S
O354 Co322 2.015 . S
O354 C344 1.257 . S
C355 C356 1.369 . S
C355 C357 1.419 . S
C355 H359 0.930 . S
C356 C355 1.369 . S
C356 C365 1.429 . S
C357 C355 1.419 . S
C357 C358 1.363 . S
C357 H360 0.929 . S
C358 C357 1.363 . S
C358 C364 1.428 . S
H359 C355 0.930 . S
H360 C357 0.929 . S
S361 N362 1.613 . S
S361 N363 1.610 . S
N362 S361 1.613 . S
N362 C365 1.350 . S
N363 S361 1.610 . S
N363 C364 1.351 . S
C364 C358 1.428 . S
C364 N363 1.351 . S
C364 C365 1.434 . S
C365 C356 1.429 . S
C365 N362 1.350 . S
C365 C364 1.434 . S
C366 C367 1.369 . S
C366 C368 1.419 . S
C366 H370 0.930 . S
C367 C366 1.369 . S
C367 C376 1.429 . S
C368 C366 1.419 . S
C368 C369 1.363 . S
C368 H371 0.929 . S
C369 C368 1.363 . S
C369 C375 1.428 . S
H370 C366 0.930 . S
H371 C368 0.929 . S
S372 N373 1.613 . S
S372 N374 1.610 . S
N373 S372 1.613 . S
N373 C376 1.350 . S
N374 S372 1.610 . S
N374 C375 1.351 . S
C375 C369 1.428 . S
C375 N374 1.351 . S
C375 C376 1.434 . S
C376 C367 1.429 . S
C376 N373 1.350 . S
C376 C375 1.434 . S
C377 C378 1.369 . S
C377 C379 1.419 . S
C377 H381 0.930 . S
C378 C377 1.369 . S
C378 C387 1.429 . S
C379 C377 1.419 . S
C379 C380 1.363 . S
C379 H382 0.929 . S
C380 C379 1.363 . S
C380 C386 1.428 . S
H381 C377 0.930 . S
H382 C379 0.929 . S
S383 N384 1.613 . S
S383 N385 1.610 . S
N384 S383 1.613 . S
N384 C387 1.350 . S
N385 S383 1.610 . S
N385 C386 1.351 . S
C386 C380 1.428 . S
C386 N385 1.351 . S
C386 C387 1.434 . S
C387 C378 1.429 . S
C387 N384 1.350 . S
C387 C386 1.434 . S
C388 C389 1.369 . S
C388 C390 1.419 . S
C388 H392 0.930 . S
C389 C388 1.369 . S
C389 C398 1.429 . S
C390 C388 1.419 . S
C390 C391 1.363 . S
C390 H393 0.929 . S
C391 C390 1.363 . S
C391 C397 1.428 . S
H392 C388 0.930 . S
H393 C390 0.929 . S
S394 N395 1.613 . S
S394 N396 1.610 . S
N395 S394 1.613 . S
N395 C398 1.350 . S
N396 S394 1.610 . S
N396 C397 1.351 . S
C397 C391 1.428 . S
C397 N396 1.351 . S
C397 C398 1.434 . S
C398 C389 1.429 . S
C398 N395 1.350 . S
C398 C397 1.434 . S
C399 C400 1.369 . S
C399 C401 1.419 . S
C399 H403 0.930 . S
C400 C399 1.369 . S
C400 C409 1.429 . S
C401 C399 1.419 . S
C401 C402 1.363 . S
C401 H404 0.929 . S
C402 C401 1.363 . S
C402 C408 1.428 . S
H403 C399 0.930 . S
H404 C401 0.929 . S
S405 N406 1.613 . S
S405 N407 1.610 . S
N406 S405 1.613 . S
N406 C409 1.350 . S
N407 S405 1.610 . S
N407 C408 1.351 . S
C408 C402 1.428 . S
C408 N407 1.351 . S
C408 C409 1.434 . S
C409 C400 1.429 . S
C409 N406 1.350 . S
C409 C408 1.434 . S
C410 C411 1.369 . S
C410 C412 1.419 . S
C410 H414 0.930 . S
C411 C410 1.369 . S
C411 C420 1.429 . S
C412 C410 1.419 . S
C412 C413 1.363 . S
C412 H415 0.929 . S
C413 C412 1.363 . S
C413 C419 1.428 . S
H414 C410 0.930 . S
H415 C412 0.929 . S
S416 N417 1.613 . S
S416 N418 1.610 . S
N417 S416 1.613 . S
N417 C420 1.350 . S
N418 S416 1.610 . S
N418 C419 1.351 . S
C419 C413 1.428 . S
C419 N418 1.351 . S
C419 C420 1.434 . S
C420 C411 1.429 . S
C420 N417 1.350 . S
C420 C419 1.434 . S
C421 C422 1.369 . S
C421 C423 1.419 . S
C421 H425 0.930 . S
C422 C421 1.369 . S
C422 C431 1.429 . S
C423 C421 1.419 . S
C423 C424 1.363 . S
C423 H426 0.929 . S
C424 C423 1.363 . S
C424 C430 1.428 . S
H425 C421 0.930 . S
H426 C423 0.929 . S
S427 N428 1.613 . S
S427 N429 1.610 . S
N428 S427 1.613 . S
N428 C431 1.350 . S
N429 S427 1.610 . S
N429 C430 1.351 . S
C430 C424 1.428 . S
C430 N429 1.351 . S
C430 C431 1.434 . S
C431 C422 1.429 . S
C431 N428 1.350 . S
C431 C430 1.434 . S
C432 C433 1.369 . S
C432 C434 1.419 . S
C432 H436 0.930 . S
C433 C432 1.369 . S
C433 C442 1.429 . S
C434 C432 1.419 . S
C434 C435 1.363 . S
C434 H437 0.929 . S
C435 C434 1.363 . S
C435 C441 1.428 . S
H436 C432 0.930 . S
H437 C434 0.929 . S
S438 N439 1.613 . S
S438 N440 1.610 . S
N439 S438 1.613 . S
N439 C442 1.350 . S
N440 S438 1.610 . S
N440 C441 1.351 . S
C441 C435 1.428 . S
C441 N440 1.351 . S
C441 C442 1.434 . S
C442 C433 1.429 . S
C442 N439 1.350 . S
C442 C441 1.434 . S
C443 C444 1.369 . S
C443 C445 1.419 . S
C443 H447 0.930 . S
C444 C443 1.369 . S
C444 C453 1.429 . S
C445 C443 1.419 . S
C445 C446 1.363 . S
C445 H448 0.929 . S
C446 C445 1.363 . S
C446 C452 1.428 . S
H447 C443 0.930 . S
H448 C445 0.929 . S
S449 N450 1.613 . S
S449 N451 1.610 . S
N450 S449 1.613 . S
N450 C453 1.350 . S
N451 S449 1.610 . S
N451 C452 1.351 . S
C452 C446 1.428 . S
C452 N451 1.351 . S
C452 C453 1.434 . S
C453 C444 1.429 . S
C453 N450 1.350 . S
C453 C452 1.434 . S
C454 C455 1.369 . S
C454 C456 1.419 . S
C454 H458 0.930 . S
C455 C454 1.369 . S
C455 C464 1.429 . S
C456 C454 1.419 . S
C456 C457 1.363 . S
C456 H459 0.929 . S
C457 C456 1.363 . S
C457 C463 1.428 . S
H458 C454 0.930 . S
H459 C456 0.929 . S
S460 N461 1.613 . S
S460 N462 1.610 . S
N461 S460 1.613 . S
N461 C464 1.350 . S
N462 S460 1.610 . S
N462 C463 1.351 . S
C463 C457 1.428 . S
C463 N462 1.351 . S
C463 C464 1.434 . S
C464 C455 1.429 . S
C464 N461 1.350 . S
C464 C463 1.434 . S
C465 C466 1.369 . S
C465 C467 1.419 . S
C465 H469 0.930 . S
C466 C465 1.369 . S
C466 C475 1.429 . S
C467 C465 1.419 . S
C467 C468 1.363 . S
C467 H470 0.929 . S
C468 C467 1.363 . S
C468 C474 1.428 . S
H469 C465 0.930 . S
H470 C467 0.929 . S
S471 N472 1.613 . S
S471 N473 1.610 . S
N472 S471 1.613 . S
N472 C475 1.350 . S
N473 S471 1.610 . S
N473 C474 1.351 . S
C474 C468 1.428 . S
C474 N473 1.351 . S
C474 C475 1.434 . S
C475 C466 1.429 . S
C475 N472 1.350 . S
C475 C474 1.434 . S
C476 C477 1.369 . S
C476 C478 1.419 . S
C476 H480 0.930 . S
C477 C476 1.369 . S
C477 C486 1.429 . S
C478 C476 1.419 . S
C478 C479 1.363 . S
C478 H481 0.929 . S
C479 C478 1.363 . S
C479 C485 1.428 . S
H480 C476 0.930 . S
H481 C478 0.929 . S
S482 N483 1.613 . S
S482 N484 1.610 . S
N483 S482 1.613 . S
N483 C486 1.350 . S
N484 S482 1.610 . S
N484 C485 1.351 . S
C485 C479 1.428 . S
C485 N484 1.351 . S
C485 C486 1.434 . S
C486 C477 1.429 . S
C486 N483 1.350 . S
C486 C485 1.434 . S
C487 C488 1.369 . S
C487 C489 1.419 . S
C487 H491 0.930 . S
C488 C487 1.369 . S
C488 C497 1.429 . S
C489 C487 1.419 . S
C489 C490 1.363 . S
C489 H492 0.929 . S
C490 C489 1.363 . S
C490 C496 1.428 . S
H491 C487 0.930 . S
H492 C489 0.929 . S
S493 N494 1.613 . S
S493 N495 1.610 . S
N494 S493 1.613 . S
N494 C497 1.350 . S
N495 S493 1.610 . S
N495 C496 1.351 . S
C496 C490 1.428 . S
C496 N495 1.351 . S
C496 C497 1.434 . S
C497 C488 1.429 . S
C497 N494 1.350 . S
C497 C496 1.434 . S
C498 C499 1.369 . S
C498 C500 1.419 . S
C498 H502 0.930 . S
C499 C498 1.369 . S
C499 C508 1.429 . S
C500 C498 1.419 . S
C500 C501 1.363 . S
C500 H503 0.929 . S
C501 C500 1.363 . S
C501 C507 1.428 . S
H502 C498 0.930 . S
H503 C500 0.929 . S
S504 N505 1.613 . S
S504 N506 1.610 . S
N505 S504 1.613 . S
N505 C508 1.350 . S
N506 S504 1.610 . S
N506 C507 1.351 . S
C507 C501 1.428 . S
C507 N506 1.351 . S
C507 C508 1.434 . S
C508 C499 1.429 . S
C508 N505 1.350 . S
C508 C507 1.434 . S
C509 C510 1.369 . S
C509 C511 1.419 . S
C509 H513 0.930 . S
C510 C509 1.369 . S
C510 C519 1.429 . S
C511 C509 1.419 . S
C511 C512 1.363 . S
C511 H514 0.929 . S
C512 C511 1.363 . S
C512 C518 1.428 . S
H513 C509 0.930 . S
H514 C511 0.929 . S
S515 N516 1.613 . S
S515 N517 1.610 . S
N516 S515 1.613 . S
N516 C519 1.350 . S
N517 S515 1.610 . S
N517 C518 1.351 . S
C518 C512 1.428 . S
C518 N517 1.351 . S
C518 C519 1.434 . S
C519 C510 1.429 . S
C519 N516 1.350 . S
C519 C518 1.434 . S
C520 C521 1.369 . S
C520 C522 1.419 . S
C520 H524 0.930 . S
C521 C520 1.369 . S
C521 C530 1.429 . S
C522 C520 1.419 . S
C522 C523 1.363 . S
C522 H525 0.929 . S
C523 C522 1.363 . S
C523 C529 1.428 . S
H524 C520 0.930 . S
H525 C522 0.929 . S
S526 N527 1.613 . S
S526 N528 1.610 . S
N527 S526 1.613 . S
N527 C530 1.350 . S
N528 S526 1.610 . S
N528 C529 1.351 . S
C529 C523 1.428 . S
C529 N528 1.351 . S
C529 C530 1.434 . S
C530 C521 1.429 . S
C530 N527 1.350 . S
C530 C529 1.434 . S
C531 C532 1.369 . S
C531 C533 1.419 . S
C531 H535 0.930 . S
C532 C531 1.369 . S
C532 C541 1.429 . S
C533 C531 1.419 . S
C533 C534 1.363 . S
C533 H536 0.929 . S
C534 C533 1.363 . S
C534 C540 1.428 . S
H535 C531 0.930 . S
H536 C533 0.929 . S
S537 N538 1.613 . S
S537 N539 1.610 . S
N538 S537 1.613 . S
N538 C541 1.350 . S
N539 S537 1.610 . S
N539 C540 1.351 . S
C540 C534 1.428 . S
C540 N539 1.351 . S
C540 C541 1.434 . S
C541 C532 1.429 . S
C541 N538 1.350 . S
C541 C540 1.434 . S
C542 C543 1.369 . S
C542 C544 1.419 . S
C542 H546 0.930 . S
C543 C542 1.369 . S
C543 C552 1.429 . S
C544 C542 1.419 . S
C544 C545 1.363 . S
C544 H547 0.929 . S
C545 C544 1.363 . S
C545 C551 1.428 . S
H546 C542 0.930 . S
H547 C544 0.929 . S
S548 N549 1.613 . S
S548 N550 1.610 . S
N549 S548 1.613 . S
N549 C552 1.350 . S
N550 S548 1.610 . S
N550 C551 1.351 . S
C551 C545 1.428 . S
C551 N550 1.351 . S
C551 C552 1.434 . S
C552 C543 1.429 . S
C552 N549 1.350 . S
C552 C551 1.434 . S
C553 C554 1.369 . S
C553 C555 1.419 . S
C553 H557 0.930 . S
C554 C553 1.369 . S
C554 C563 1.429 . S
C555 C553 1.419 . S
C555 C556 1.363 . S
C555 H558 0.929 . S
C556 C555 1.363 . S
C556 C562 1.428 . S
H557 C553 0.930 . S
H558 C555 0.929 . S
S559 N560 1.613 . S
S559 N561 1.610 . S
N560 S559 1.613 . S
N560 C563 1.350 . S
N561 S559 1.610 . S
N561 C562 1.351 . S
C562 C556 1.428 . S
C562 N561 1.351 . S
C562 C563 1.434 . S
C563 C554 1.429 . S
C563 N560 1.350 . S
C563 C562 1.434 . S
C564 C565 1.369 . S
C564 C566 1.419 . S
C564 H568 0.930 . S
C565 C564 1.369 . S
C565 C574 1.429 . S
C566 C564 1.419 . S
C566 C567 1.363 . S
C566 H569 0.929 . S
C567 C566 1.363 . S
C567 C573 1.428 . S
H568 C564 0.930 . S
H569 C566 0.929 . S
S570 N571 1.613 . S
S570 N572 1.610 . S
N571 S570 1.613 . S
N571 C574 1.350 . S
N572 S570 1.610 . S
N572 C573 1.351 . S
C573 C567 1.428 . S
C573 N572 1.351 . S
C573 C574 1.434 . S
C574 C565 1.429 . S
C574 N571 1.350 . S
C574 C573 1.434 . S
C575 C576 1.369 . S
C575 C577 1.419 . S
C575 H579 0.930 . S
C576 C575 1.369 . S
C576 C585 1.429 . S
C577 C575 1.419 . S
C577 C578 1.363 . S
C577 H580 0.929 . S
C578 C577 1.363 . S
C578 C584 1.428 . S
H579 C575 0.930 . S
H580 C577 0.929 . S
S581 N582 1.613 . S
S581 N583 1.610 . S
N582 S581 1.613 . S
N582 C585 1.350 . S
N583 S581 1.610 . S
N583 C584 1.351 . S
C584 C578 1.428 . S
C584 N583 1.351 . S
C584 C585 1.434 . S
C585 C576 1.429 . S
C585 N582 1.350 . S
C585 C584 1.434 . S
C586 C587 1.369 . S
C586 C588 1.419 . S
C586 H590 0.930 . S
C587 C586 1.369 . S
C587 C596 1.429 . S
C588 C586 1.419 . S
C588 C589 1.363 . S
C588 H591 0.929 . S
C589 C588 1.363 . S
C589 C595 1.428 . S
H590 C586 0.930 . S
H591 C588 0.929 . S
S592 N593 1.613 . S
S592 N594 1.610 . S
N593 S592 1.613 . S
N593 C596 1.350 . S
N594 S592 1.610 . S
N594 C595 1.351 . S
C595 C589 1.428 . S
C595 N594 1.351 . S
C595 C596 1.434 . S
C596 C587 1.429 . S
C596 N593 1.350 . S
C596 C595 1.434 . S
C597 C598 1.369 . S
C597 C599 1.419 . S
C597 H601 0.930 . S
C598 C597 1.369 . S
C598 C607 1.429 . S
C599 C597 1.419 . S
C599 C600 1.363 . S
C599 H602 0.929 . S
C600 C599 1.363 . S
C600 C606 1.428 . S
H601 C597 0.930 . S
H602 C599 0.929 . S
S603 N604 1.613 . S
S603 N605 1.610 . S
N604 S603 1.613 . S
N604 C607 1.350 . S
N605 S603 1.610 . S
N605 C606 1.351 . S
C606 C600 1.428 . S
C606 N605 1.351 . S
C606 C607 1.434 . S
C607 C598 1.429 . S
C607 N604 1.350 . S
C607 C606 1.434 . S
C608 C609 1.369 . S
C608 C610 1.419 . S
C608 H612 0.930 . S
C609 C608 1.369 . S
C609 C618 1.429 . S
C610 C608 1.419 . S
C610 C611 1.363 . S
C610 H613 0.929 . S
C611 C610 1.363 . S
C611 C617 1.428 . S
H612 C608 0.930 . S
H613 C610 0.929 . S
S614 N615 1.613 . S
S614 N616 1.610 . S
N615 S614 1.613 . S
N615 C618 1.350 . S
N616 S614 1.610 . S
N616 C617 1.351 . S
C617 C611 1.428 . S
C617 N616 1.351 . S
C617 C618 1.434 . S
C618 C609 1.429 . S
C618 N615 1.350 . S
C618 C617 1.434 . S
C358 C280 1.184 . S
C356 C17 1.207 . S
C369 C316 1.620 . S
C367 C55 1.748 . S
C380 C281 1.390 . S
C378 C87 1.404 . S
C391 C311 1.525 . S
C389 C113 1.548 . S
C402 C278 1.476 . S
C400 C145 1.447 . S
C411 C183 1.512 . S
C413 C314 1.649 . S
C422 C215 1.298 . S
C424 C283 1.160 . S
C435 C313 1.459 . S
C433 C247 1.460 . S
C446 C317 1.422 . S
C444 C23 1.384 . S
C457 C282 1.524 . S
C455 C49 1.607 . S
C468 C310 1.694 . S
C466 C81 1.703 . S
C479 C279 1.198 . S
C477 C125 1.328 . S
C490 C312 1.585 . S
C488 C151 1.603 . S
C499 C189 1.328 . S
C501 C277 1.430 . S
C510 C209 1.594 . S
C512 C315 1.536 . S
C523 C284 1.204 . S
C521 C241 1.263 . S
C534 C346 1.601 . S
C532 C29 1.651 . S
C543 C157 1.908 . S
C545 C349 1.890 . S
C556 C348 1.659 . S
C554 C177 1.572 . S
C565 C221 2.041 . S
C567 C347 2.001 . S
C578 C350 1.605 . S
C576 C253 1.711 . S
C587 C93 1.793 . S
C589 C344 1.719 . S
C600 C343 1.910 . S
C598 C119 1.945 . S
C609 C61 2.061 . S
C611 C345 1.922 . S
