# Generated by pormake.
# Topology ctn, (3,4)-cn, num edge types: 1
# Building blocks:
#     Node 0, Type 0, BuildingBlock: BETDAH_clean_linker_0, # of connection points: 3
#     Node 1, Type 0, BuildingBlock: BETDAH_clean_linker_0, # of connection points: 3
#     Node 2, Type 0, BuildingBlock: BETDAH_clean_linker_0, # of connection points: 3
#     Node 3, Type 0, BuildingBlock: BETDAH_clean_linker_0, # of connection points: 3
#     Node 4, Type 0, BuildingBlock: BETDAH_clean_linker_0, # of connection points: 3
#     Node 5, Type 0, BuildingBlock: BETDAH_clean_linker_0, # of connection points: 3
#     Node 6, Type 0, BuildingBlock: BETDAH_clean_linker_0, # of connection points: 3
#     Node 7, Type 0, BuildingBlock: BETDAH_clean_linker_0, # of connection points: 3
#     Node 8, Type 0, BuildingBlock: BETDAH_clean_linker_0, # of connection points: 3
#     Node 9, Type 0, BuildingBlock: BETDAH_clean_linker_0, # of connection points: 3
#     Node 10, Type 0, BuildingBlock: BETDAH_clean_linker_0, # of connection points: 3
#     Node 11, Type 0, BuildingBlock: BETDAH_clean_linker_0, # of connection points: 3
#     Node 12, Type 0, BuildingBlock: BETDAH_clean_linker_0, # of connection points: 3
#     Node 13, Type 0, BuildingBlock: BETDAH_clean_linker_0, # of connection points: 3
#     Node 14, Type 0, BuildingBlock: BETDAH_clean_linker_0, # of connection points: 3
#     Node 15, Type 0, BuildingBlock: BETDAH_clean_linker_0, # of connection points: 3
#     Node 16, Type 1, BuildingBlock: TATPOV_clean_sbu_0, # of connection points: 4
#     Node 17, Type 1, BuildingBlock: TATPOV_clean_sbu_0, # of connection points: 4
#     Node 18, Type 1, BuildingBlock: TATPOV_clean_sbu_0, # of connection points: 4
#     Node 19, Type 1, BuildingBlock: TATPOV_clean_sbu_0, # of connection points: 4
#     Node 20, Type 1, BuildingBlock: TATPOV_clean_sbu_0, # of connection points: 4
#     Node 21, Type 1, BuildingBlock: TATPOV_clean_sbu_0, # of connection points: 4
#     Node 22, Type 1, BuildingBlock: TATPOV_clean_sbu_0, # of connection points: 4
#     Node 23, Type 1, BuildingBlock: TATPOV_clean_sbu_0, # of connection points: 4
#     Node 24, Type 1, BuildingBlock: TATPOV_clean_sbu_0, # of connection points: 4
#     Node 25, Type 1, BuildingBlock: TATPOV_clean_sbu_0, # of connection points: 4
#     Node 26, Type 1, BuildingBlock: TATPOV_clean_sbu_0, # of connection points: 4
#     Node 27, Type 1, BuildingBlock: TATPOV_clean_sbu_0, # of connection points: 4
#     Edge 28, Type (0, 1), BuildingBlock: XIVTED_clean_linker_0, # of connection points: 2
#     Edge 29, Type (0, 1), BuildingBlock: XIVTED_clean_linker_0, # of connection points: 2
#     Edge 30, Type (0, 1), BuildingBlock: XIVTED_clean_linker_0, # of connection points: 2
#     Edge 31, Type (0, 1), BuildingBlock: XIVTED_clean_linker_0, # of connection points: 2
#     Edge 32, Type (0, 1), BuildingBlock: XIVTED_clean_linker_0, # of connection points: 2
#     Edge 33, Type (0, 1), BuildingBlock: XIVTED_clean_linker_0, # of connection points: 2
#     Edge 34, Type (0, 1), BuildingBlock: XIVTED_clean_linker_0, # of connection points: 2
#     Edge 35, Type (0, 1), BuildingBlock: XIVTED_clean_linker_0, # of connection points: 2
#     Edge 36, Type (0, 1), BuildingBlock: XIVTED_clean_linker_0, # of connection points: 2
#     Edge 37, Type (0, 1), BuildingBlock: XIVTED_clean_linker_0, # of connection points: 2
#     Edge 38, Type (0, 1), BuildingBlock: XIVTED_clean_linker_0, # of connection points: 2
#     Edge 39, Type (0, 1), BuildingBlock: XIVTED_clean_linker_0, # of connection points: 2
#     Edge 40, Type (0, 1), BuildingBlock: XIVTED_clean_linker_0, # of connection points: 2
#     Edge 41, Type (0, 1), BuildingBlock: XIVTED_clean_linker_0, # of connection points: 2
#     Edge 42, Type (0, 1), BuildingBlock: XIVTED_clean_linker_0, # of connection points: 2
#     Edge 43, Type (0, 1), BuildingBlock: XIVTED_clean_linker_0, # of connection points: 2
#     Edge 44, Type (0, 1), BuildingBlock: XIVTED_clean_linker_0, # of connection points: 2
#     Edge 45, Type (0, 1), BuildingBlock: XIVTED_clean_linker_0, # of connection points: 2
#     Edge 46, Type (0, 1), BuildingBlock: XIVTED_clean_linker_0, # of connection points: 2
#     Edge 47, Type (0, 1), BuildingBlock: XIVTED_clean_linker_0, # of connection points: 2
#     Edge 48, Type (0, 1), BuildingBlock: XIVTED_clean_linker_0, # of connection points: 2
#     Edge 49, Type (0, 1), BuildingBlock: XIVTED_clean_linker_0, # of connection points: 2
#     Edge 50, Type (0, 1), BuildingBlock: XIVTED_clean_linker_0, # of connection points: 2
#     Edge 51, Type (0, 1), BuildingBlock: XIVTED_clean_linker_0, # of connection points: 2
#     Edge 52, Type (0, 1), BuildingBlock: XIVTED_clean_linker_0, # of connection points: 2
#     Edge 53, Type (0, 1), BuildingBlock: XIVTED_clean_linker_0, # of connection points: 2
#     Edge 54, Type (0, 1), BuildingBlock: XIVTED_clean_linker_0, # of connection points: 2
#     Edge 55, Type (0, 1), BuildingBlock: XIVTED_clean_linker_0, # of connection points: 2
#     Edge 56, Type (0, 1), BuildingBlock: XIVTED_clean_linker_0, # of connection points: 2
#     Edge 57, Type (0, 1), BuildingBlock: XIVTED_clean_linker_0, # of connection points: 2
#     Edge 58, Type (0, 1), BuildingBlock: XIVTED_clean_linker_0, # of connection points: 2
#     Edge 59, Type (0, 1), BuildingBlock: XIVTED_clean_linker_0, # of connection points: 2
#     Edge 60, Type (0, 1), BuildingBlock: XIVTED_clean_linker_0, # of connection points: 2
#     Edge 61, Type (0, 1), BuildingBlock: XIVTED_clean_linker_0, # of connection points: 2
#     Edge 62, Type (0, 1), BuildingBlock: XIVTED_clean_linker_0, # of connection points: 2
#     Edge 63, Type (0, 1), BuildingBlock: XIVTED_clean_linker_0, # of connection points: 2
#     Edge 64, Type (0, 1), BuildingBlock: XIVTED_clean_linker_0, # of connection points: 2
#     Edge 65, Type (0, 1), BuildingBlock: XIVTED_clean_linker_0, # of connection points: 2
#     Edge 66, Type (0, 1), BuildingBlock: XIVTED_clean_linker_0, # of connection points: 2
#     Edge 67, Type (0, 1), BuildingBlock: XIVTED_clean_linker_0, # of connection points: 2
#     Edge 68, Type (0, 1), BuildingBlock: XIVTED_clean_linker_0, # of connection points: 2
#     Edge 69, Type (0, 1), BuildingBlock: XIVTED_clean_linker_0, # of connection points: 2
#     Edge 70, Type (0, 1), BuildingBlock: XIVTED_clean_linker_0, # of connection points: 2
#     Edge 71, Type (0, 1), BuildingBlock: XIVTED_clean_linker_0, # of connection points: 2
#     Edge 72, Type (0, 1), BuildingBlock: XIVTED_clean_linker_0, # of connection points: 2
#     Edge 73, Type (0, 1), BuildingBlock: XIVTED_clean_linker_0, # of connection points: 2
#     Edge 74, Type (0, 1), BuildingBlock: XIVTED_clean_linker_0, # of connection points: 2
#     Edge 75, Type (0, 1), BuildingBlock: XIVTED_clean_linker_0, # of connection points: 2
# Relax obj value: 0.047
# Max RMSD: 0.164
# Mean RMSD: 0.097
data_MOF--net-ctn--node1-TATPOV_clean_sbu_0--node2-BETDAH_clean_linker_0--edge1-XIVTED_clean_linker_0
_symmetry_space_group_name_H-M    P1
_symmetry_Int_Tables_number       1
_symmetry_cell_setting            triclinic
loop_
_symmetry_equiv_pos_as_xyz
'x, y, z'
_cell_length_a     53.757161
_cell_length_b     53.832062
_cell_length_c     54.502058
_cell_angle_alpha  99.92285
_cell_angle_beta   91.548079
_cell_angle_gamma 96.084429
loop_
_atom_site_label
_atom_site_type_symbol
_atom_site_fract_x
_atom_site_fract_y
_atom_site_fract_z
_atom_type_partial_charge
H0 H 0.07425 0.01189 0.0768 0.0
H1 H 0.0786 0.02324 1.00045 0.0
H2 H 0.01565 0.04461 0.0426 0.0
C3 C 0.06669 0.01876 0.06093 0.0
C4 C 0.04379 0.02926 0.06278 0.0
C5 C 0.07953 0.01642 0.03855 0.0
C6 C 0.06929 0.02525 0.01795 0.0
C7 C 0.04638 0.03571 0.01961 0.0
C8 C 0.03376 0.03743 0.04187 0.0
N9 N 0.03386 0.04119 0.99826 0.0
C10 C 0.04323 0.059 0.98414 0.0
H11 H 0.27935 0.67573 0.25831 0.0
H12 H 0.28986 0.7449 0.22811 0.0
H13 H 0.21681 0.70332 0.22505 0.0
C14 C 0.27184 0.68969 0.24894 0.0
C15 C 0.24621 0.68673 0.2421 0.0
C16 C 0.28785 0.71065 0.2443 0.0
C17 C 0.27794 0.72847 0.23161 0.0
C18 C 0.25217 0.72578 0.22485 0.0
C19 C 0.23657 0.70515 0.2304 0.0
N20 N 0.2407 0.74419 0.21407 0.0
C21 C 0.25162 0.75904 0.19787 0.0
H22 H 0.05642 0.40895 0.04265 0.0
H23 H 0.0478 0.48863 0.06332 0.0
H24 H 0.04485 0.45437 0.98647 0.0
C25 C 0.05353 0.42708 0.03765 0.0
C26 C 0.05111 0.42897 0.01228 0.0
C27 C 0.05255 0.44847 0.05649 0.0
C28 C 0.04824 0.47168 0.04945 0.0
C29 C 0.04541 0.47363 0.0243 0.0
C30 C 0.04726 0.45251 0.00585 0.0
N31 N 0.04073 0.49688 0.01736 0.0
C32 C 0.01876 0.50733 0.02364 0.0
H33 H 0.80879 0.78218 0.20303 0.0
H34 H 0.75563 0.73185 0.2343 0.0
H35 H 0.78268 0.80479 0.27657 0.0
C36 C 0.79684 0.77837 0.21794 0.0
C37 C 0.79718 0.79671 0.23972 0.0
C38 C 0.78212 0.75472 0.21577 0.0
C39 C 0.76719 0.74982 0.23565 0.0
C40 C 0.76771 0.76786 0.25763 0.0
C41 C 0.78279 0.79098 0.25959 0.0
N42 N 0.75421 0.76295 0.2786 0.0
C43 C 0.73029 0.74999 0.27706 0.0
H44 H 0.09019 0.02346 0.43561 0.0
H45 H 0.09213 0.96935 0.48525 0.0
H46 H 0.0295 0.96418 0.43323 0.0
C47 C 0.08138 0.0074 0.44297 0.0
C48 C 0.05823 0.99522 0.43247 0.0
C49 C 0.09398 0.99785 0.46166 0.0
C50 C 0.08251 0.97679 0.47085 0.0
C51 C 0.05905 0.96484 0.46077 0.0
C52 C 0.0474 0.97374 0.44124 0.0
N53 N 0.04707 0.94326 0.46911 0.0
C54 C 0.05004 0.93832 0.49316 0.0
H55 H 0.27768 0.72246 0.80648 0.0
H56 H 0.22044 0.75578 0.77098 0.0
H57 H 0.26305 0.70249 0.72717 0.0
C58 C 0.26704 0.72405 0.78976 0.0
C59 C 0.27258 0.71003 0.76672 0.0
C60 C 0.24812 0.74036 0.7916 0.0
C61 C 0.23506 0.7433 0.76975 0.0
C62 C 0.24071 0.72972 0.74644 0.0
C63 C 0.25941 0.7133 0.74513 0.0
N64 N 0.22788 0.73167 0.72384 0.0
C65 C 0.20666 0.74404 0.72201 0.0
H66 H 0.91272 0.58169 0.52702 0.0
H67 H 0.94283 0.62419 0.47249 0.0
H68 H 0.92172 0.54412 0.45169 0.0
C69 C 0.91859 0.58229 0.50824 0.0
C70 C 0.91569 0.55999 0.49012 0.0
C71 C 0.92846 0.60552 0.50208 0.0
C72 C 0.93539 0.60635 0.4776 0.0
C73 C 0.93368 0.58422 0.45972 0.0
C74 C 0.924 0.56099 0.46598 0.0
N75 N 0.94042 0.58609 0.43515 0.0
C76 C 0.95669 0.57082 0.4222 0.0
H77 H 0.87691 0.77277 0.85679 0.0
H78 H 0.8368 0.83449 0.84223 0.0
H79 H 0.8169 0.79619 0.90266 0.0
C80 C 0.86232 0.78505 0.86103 0.0
C81 C 0.847 0.78175 0.88098 0.0
C82 C 0.85916 0.80426 0.84695 0.0
C83 C 0.84011 0.82006 0.85314 0.0
C84 C 0.82526 0.81736 0.87354 0.0
C85 C 0.829 0.79849 0.88743 0.0
N86 N 0.80634 0.83327 0.88065 0.0
C87 C 0.79368 0.84519 0.86429 0.0
H88 H 0.36655 0.29103 0.35116 0.0
H89 H 0.33951 0.36336 0.34978 0.0
H90 H 0.31626 0.32057 0.4062 0.0
C91 C 0.3555 0.30589 0.35906 0.0
C92 C 0.34142 0.30297 0.37995 0.0
C93 C 0.35514 0.32767 0.34807 0.0
C94 C 0.34006 0.34645 0.35798 0.0
C95 C 0.32633 0.34391 0.37912 0.0
C96 C 0.32742 0.32249 0.39023 0.0
N97 N 0.31121 0.36267 0.38953 0.0
C98 C 0.29477 0.37282 0.37494 0.0
H99 H 0.54431 0.91283 0.54619 0.0
H100 H 0.5551 0.99416 0.56726 0.0
H101 H 0.52758 0.9607 0.49335 0.0
C102 C 0.54345 0.93147 0.54147 0.0
C103 C 0.53522 0.93376 0.51727 0.0
C104 C 0.55083 0.9531 0.55964 0.0
C105 C 0.5498 0.97723 0.55347 0.0
C106 C 0.5408 0.97985 0.52992 0.0
C107 C 0.53358 0.95823 0.51183 0.0
N108 N 0.53948 0.0045 0.52463 0.0
C109 C 0.51708 0.01193 0.51683 0.0
H110 H 0.31289 0.29753 0.68006 0.0
H111 H 0.27253 0.24014 0.71454 0.0
H112 H 0.29496 0.31411 0.75729 0.0
C113 C 0.3047 0.29159 0.69637 0.0
C114 C 0.30496 0.30916 0.71869 0.0
C115 C 0.29312 0.2666 0.69468 0.0
C116 C 0.28136 0.25936 0.71553 0.0
C117 C 0.28219 0.27654 0.73811 0.0
C118 C 0.29427 0.30112 0.73965 0.0
N119 N 0.27186 0.26938 0.75986 0.0
C120 C 0.24894 0.25475 0.75972 0.0
H121 H 0.80388 0.16225 0.76463 0.0
H122 H 0.80782 0.22645 0.72648 0.0
H123 H 0.73753 0.18179 0.73042 0.0
C124 C 0.79498 0.1743 0.75392 0.0
C125 C 0.76918 0.16905 0.7479 0.0
C126 C 0.80929 0.19498 0.74644 0.0
C127 C 0.79721 0.21056 0.73257 0.0
C128 C 0.77124 0.20569 0.72684 0.0
C129 C 0.75754 0.18512 0.73466 0.0
N130 N 0.75773 0.22124 0.71398 0.0
C131 C 0.7677 0.23902 0.70012 0.0
H132 H 0.57358 0.5035 0.56922 0.0
H133 H 0.59656 0.51446 0.49659 0.0
H134 H 0.53733 0.55407 0.53014 0.0
C135 C 0.57178 0.51259 0.5531 0.0
C136 C 0.55347 0.52943 0.55227 0.0
C137 C 0.58768 0.5072 0.53328 0.0
C138 C 0.58489 0.51878 0.51232 0.0
C139 C 0.56702 0.53573 0.51105 0.0
C140 C 0.55126 0.54109 0.53108 0.0
N141 N 0.56522 0.54606 0.4888 0.0
C142 C 0.55312 0.5669 0.48524 0.0
H143 H 0.59239 0.52163 0.93341 0.0
H144 H 0.58802 0.46917 0.985 0.0
H145 H 0.53105 0.46236 0.92667 0.0
C146 C 0.58258 0.50574 0.94029 0.0
C147 C 0.56038 0.49328 0.92776 0.0
C148 C 0.59294 0.49686 0.96067 0.0
C149 C 0.58018 0.47605 0.96926 0.0
C150 C 0.55772 0.46372 0.95706 0.0
C151 C 0.5483 0.47207 0.93609 0.0
N152 N 0.54443 0.44248 0.96492 0.0
C153 C 0.54595 0.43735 0.98903 0.0
H154 H 0.77611 0.21016 0.31126 0.0
H155 H 0.71632 0.24864 0.28632 0.0
H156 H 0.74974 0.19362 0.23454 0.0
C157 C 0.76362 0.2135 0.29653 0.0
C158 C 0.76498 0.19974 0.27237 0.0
C159 C 0.74594 0.23102 0.30194 0.0
C160 C 0.73006 0.23532 0.28243 0.0
C161 C 0.73156 0.22183 0.25804 0.0
C162 C 0.74885 0.20408 0.25331 0.0
N163 N 0.71595 0.22514 0.23768 0.0
C164 C 0.69741 0.2414 0.23872 0.0
H165 H 0.42782 0.07656 0.03624 0.0
H166 H 0.50702 0.09556 0.03116 0.0
H167 H 0.47251 0.02248 0.99576 0.0
C168 C 0.44567 0.07138 0.02953 0.0
C169 C 0.44722 0.04708 0.01541 0.0
C170 C 0.46714 0.08897 0.03551 0.0
C171 C 0.49026 0.08222 0.02692 0.0
C172 C 0.49204 0.05872 0.01201 0.0
C173 C 0.47059 0.04112 0.00628 0.0
N174 N 0.51594 0.05293 0.00407 0.0
C175 C 0.52007 0.0403 0.98035 0.0
Zn176 Zn 0.29795 0.85018 0.0039 0.0
Zn177 Zn 0.25924 0.87592 0.01102 0.0
O178 O 0.26046 0.85798 0.04245 0.0
O179 O 0.2953 0.83996 0.03738 0.0
O180 O 0.22882 0.89586 0.01475 0.0
O181 O 0.32008 0.88148 0.99957 0.0
O182 O 0.2889 0.90391 0.0103 0.0
C183 C 0.27665 0.84497 0.05026 0.0
C184 C 0.26118 0.83306 0.96512 0.0
O185 O 0.25099 0.85188 0.97653 0.0
O186 O 0.28124 0.82712 0.974 0.0
C187 C 0.22812 0.91593 0.03086 0.0
O188 O 0.24743 0.92388 0.04658 0.0
C189 C 0.31164 0.90276 0.00445 0.0
Zn190 Zn 0.097 0.43698 0.28528 0.0
Zn191 Zn 0.12482 0.4823 0.28352 0.0
O192 O 0.09903 0.49299 0.30887 0.0
O193 O 0.07524 0.45723 0.30982 0.0
O194 O 0.14617 0.51464 0.28039 0.0
O195 O 0.12844 0.42416 0.29764 0.0
O196 O 0.15031 0.46058 0.2953 0.0
C197 C 0.08026 0.48098 0.3171 0.0
C198 C 0.09643 0.45062 0.23661 0.0
O199 O 0.10956 0.47047 0.24816 0.0
O200 O 0.08921 0.43265 0.24791 0.0
C201 C 0.13685 0.53486 0.27794 0.0
O202 O 0.11244 0.53512 0.27824 0.0
C203 C 0.14915 0.43818 0.30016 0.0
Zn204 Zn 0.81868 0.57646 0.96807 0.0
Zn205 Zn 0.81565 0.60787 0.01191 0.0
O206 O 0.84549 0.58836 0.01913 0.0
O207 O 0.84676 0.56179 0.98363 0.0
O208 O 0.81208 0.63232 0.04381 0.0
O209 O 0.82597 0.60702 0.95106 0.0
O210 O 0.82335 0.63201 0.98715 0.0
C211 C 0.85516 0.57032 0.00575 0.0
C212 C 0.77098 0.56895 0.98922 0.0
O213 O 0.78074 0.58693 0.0062 0.0
O214 O 0.78342 0.56082 0.97072 0.0
C215 C 0.80543 0.62524 0.06396 0.0
O216 O 0.80137 0.60087 0.06461 0.0
C217 C 0.82703 0.62913 0.96389 0.0
Zn218 Zn 0.88875 0.02587 0.29645 0.0
Zn219 Zn 0.91212 0.02214 0.25464 0.0
O220 O 0.89 0.05192 0.25369 0.0
O221 O 0.8669 0.0505 0.28635 0.0
O222 O 0.93193 0.0205 0.2231 0.0
O223 O 0.92059 0.03767 0.31728 0.0
O224 O 0.94017 0.02749 0.28266 0.0
C225 C 0.87235 0.05978 0.26715 0.0
C226 C 0.88035 0.97573 0.26721 0.0
O227 O 0.89225 0.98623 0.25104 0.0
O228 O 0.8773 0.9885 0.28848 0.0
C229 C 0.94127 0.04052 0.2157 0.0
O230 O 0.93759 0.06274 0.22848 0.0
C231 C 0.94073 0.03435 0.3063 0.0
Zn232 Zn 0.31555 0.08541 0.44554 0.0
Zn233 Zn 0.31584 0.11346 0.49233 0.0
O234 O 0.34659 0.09387 0.49401 0.0
O235 O 0.3469 0.07158 0.45612 0.0
O236 O 0.31535 0.13505 0.52654 0.0
O237 O 0.31859 0.1183 0.43161 0.0
O238 O 0.31979 0.14015 0.46977 0.0
C239 C 0.35655 0.07814 0.47806 0.0
C240 C 0.2709 0.07429 0.47142 0.0
O241 O 0.28171 0.09162 0.48838 0.0
O242 O 0.28156 0.06766 0.45126 0.0
C243 C 0.29523 0.14392 0.53375 0.0
O244 O 0.275 0.13847 0.51891 0.0
C245 C 0.32047 0.13946 0.44633 0.0
Zn246 Zn 0.39929 0.53331 0.78621 0.0
Zn247 Zn 0.42326 0.53451 0.74573 0.0
O248 O 0.40278 0.56641 0.74891 0.0
O249 O 0.38397 0.56451 0.784 0.0
O250 O 0.44434 0.53656 0.71534 0.0
O251 O 0.42994 0.53587 0.80806 0.0
O252 O 0.45088 0.53468 0.77378 0.0
C253 C 0.38831 0.57551 0.76563 0.0
C254 C 0.38531 0.48868 0.7498 0.0
O255 O 0.40136 0.49945 0.73701 0.0
O256 O 0.38091 0.49953 0.77149 0.0
C257 C 0.4357 0.53705 0.69346 0.0
O258 O 0.4114 0.53632 0.6895 0.0
C259 C 0.45048 0.53561 0.79735 0.0
Zn260 Zn 0.8084 0.34402 0.51516 0.0
Zn261 Zn 0.76763 0.3681 0.52195 0.0
O262 O 0.76919 0.35004 0.5532 0.0
O263 O 0.80437 0.33259 0.54804 0.0
O264 O 0.73833 0.38952 0.52612 0.0
O265 O 0.83026 0.37619 0.51269 0.0
O266 O 0.79686 0.39607 0.52027 0.0
C267 C 0.78549 0.33702 0.56078 0.0
C268 C 0.77081 0.32644 0.47585 0.0
O269 O 0.75921 0.34387 0.48785 0.0
O270 O 0.79186 0.32216 0.48418 0.0
C271 C 0.71675 0.38393 0.53407 0.0
O272 O 0.7115 0.36186 0.54104 0.0
C273 C 0.82013 0.3966 0.51608 0.0
Zn274 Zn 0.60398 0.92602 0.78235 0.0
Zn275 Zn 0.63346 0.97076 0.78311 0.0
O276 O 0.61026 0.97985 0.81182 0.0
O277 O 0.58631 0.94396 0.81171 0.0
O278 O 0.65389 0.00368 0.78005 0.0
O279 O 0.63602 0.91063 0.78858 0.0
O280 O 0.65921 0.94732 0.79069 0.0
C281 C 0.59257 0.96713 0.82097 0.0
C282 C 0.60056 0.94376 0.73635 0.0
O283 O 0.61637 0.96127 0.74825 0.0
O284 O 0.59149 0.92583 0.74687 0.0
C285 C 0.67151 0.0155 0.79498 0.0
O286 O 0.67743 0.00645 0.815 0.0
C287 C 0.65725 0.92376 0.79188 0.0
Zn288 Zn 0.03656 0.26209 0.818 0.0
Zn289 Zn 0.03452 0.22622 0.84535 0.0
O290 O 0.06634 0.22149 0.82441 0.0
O291 O 0.06453 0.24842 0.79844 0.0
O292 O 0.03436 0.19918 0.86763 0.0
O293 O 0.04428 0.2891 0.84836 0.0
O294 O 0.03859 0.25948 0.87153 0.0
C295 C 0.07516 0.2312 0.8062 0.0
C296 C 0.98902 0.23244 0.81143 0.0
O297 O 0.99945 0.21962 0.82572 0.0
O298 O 0.00105 0.25198 0.80575 0.0
C299 C 0.0441 0.17847 0.86212 0.0
O300 O 0.054 0.17312 0.84033 0.0
C301 C 0.04307 0.28283 0.86967 0.0
Zn302 Zn 0.51117 0.76645 0.32316 0.0
Zn303 Zn 0.50891 0.73035 0.35097 0.0
O304 O 0.54189 0.72645 0.33176 0.0
O305 O 0.54301 0.75623 0.30858 0.0
O306 O 0.50827 0.70233 0.37228 0.0
O307 O 0.5115 0.79318 0.35399 0.0
O308 O 0.51111 0.76343 0.37717 0.0
C309 C 0.55265 0.73808 0.31568 0.0
C310 C 0.46605 0.73364 0.3121 0.0
O311 O 0.47479 0.7233 0.3295 0.0
O312 O 0.47871 0.75223 0.30533 0.0
C313 C 0.52348 0.70524 0.39118 0.0
O314 O 0.53893 0.72624 0.39646 0.0
C315 C 0.51163 0.78677 0.37527 0.0
Zn316 Zn 0.95337 0.82285 0.64275 0.0
Zn317 Zn 0.99624 0.80744 0.6585 0.0
O318 O 0.00754 0.8374 0.64035 0.0
O319 O 0.97258 0.85135 0.62937 0.0
O320 O 0.02878 0.79794 0.67199 0.0
O321 O 0.9414 0.82855 0.67777 0.0
O322 O 0.97564 0.81411 0.69003 0.0
C323 C 0.99625 0.85287 0.63003 0.0
C324 C 0.9613 0.77107 0.62053 0.0
O325 O 0.98138 0.77562 0.63428 0.0
O326 O 0.94653 0.78798 0.62071 0.0
C327 C 0.04861 0.79893 0.65982 0.0
O328 O 0.04779 0.80588 0.63789 0.0
C329 C 0.95464 0.82245 0.69486 0.0
Zn330 Zn 0.45353 0.31736 0.14 0.0
Zn331 Zn 0.49776 0.31307 0.16317 0.0
O332 O 0.50741 0.34042 0.14145 0.0
O333 O 0.47105 0.34523 0.12421 0.0
O334 O 0.52993 0.30821 0.1813 0.0
O335 O 0.43818 0.32576 0.17326 0.0
O336 O 0.47416 0.32231 0.19195 0.0
C337 C 0.4945 0.35123 0.12727 0.0
C338 C 0.46954 0.26761 0.12742 0.0
O339 O 0.48787 0.27769 0.14242 0.0
O340 O 0.45219 0.2806 0.12288 0.0
C341 C 0.55173 0.31324 0.17364 0.0
O342 O 0.55412 0.32299 0.15322 0.0
C343 C 0.45126 0.32652 0.1931 0.0
H344 H 0.24076 0.79066 0.80619 0.0
H345 H 0.2599 0.78251 0.94914 0.0
H346 H 0.24219 0.72056 0.83412 0.0
H347 H 0.24013 0.85063 0.92572 0.0
H348 H 0.25029 0.7593 0.90694 0.0
H349 H 0.23723 0.81297 0.8491 0.0
C350 C 0.2399 0.77991 0.82127 0.0
C351 C 0.24228 0.7538 0.81664 0.0
C352 C 0.24764 0.77923 0.91096 0.0
C353 C 0.23845 0.77913 0.86562 0.0
C354 C 0.25311 0.79247 0.9351 0.0
C355 C 0.25086 0.8185 0.94085 0.0
C356 C 0.24043 0.79219 0.89211 0.0
C357 C 0.24197 0.83052 0.922 0.0
C358 C 0.23795 0.79265 0.84574 0.0
C359 C 0.24106 0.7408 0.83688 0.0
N360 N 0.23751 0.81735 0.89827 0.0
N361 N 0.23954 0.75362 0.86041 0.0
H362 H 0.99102 0.59287 0.39588 0.0
H363 H 0.0863 0.53139 0.33798 0.0
H364 H 0.96443 0.52102 0.4158 0.0
H365 H 0.03656 0.46253 0.33598 0.0
H366 H 0.05806 0.55454 0.36496 0.0
H367 H 0.02262 0.57254 0.37087 0.0
C368 C 0.99215 0.57276 0.39511 0.0
C369 C 0.97541 0.55849 0.40783 0.0
C370 C 0.05298 0.53448 0.35832 0.0
C371 C 0.01194 0.53507 0.37994 0.0
C372 C 0.06933 0.52114 0.34308 0.0
C373 C 0.0637 0.49499 0.33443 0.0
C374 C 0.03061 0.52167 0.36479 0.0
C375 C 0.04159 0.48271 0.34203 0.0
C376 C 0.01038 0.56116 0.38107 0.0
C377 C 0.97723 0.53254 0.4062 0.0
N378 N 0.02583 0.49617 0.35672 0.0
N379 N 0.99519 0.52157 0.39237 0.0
H380 H 0.84529 0.7815 0.93123 0.0
H381 H 0.83661 0.63016 0.91489 0.0
H382 H 0.85171 0.73234 0.8608 0.0
H383 H 0.83004 0.6794 0.98532 0.0
H384 H 0.84477 0.66749 0.89522 0.0
H385 H 0.84265 0.74452 0.95187 0.0
C386 C 0.8463 0.76293 0.92013 0.0
C387 C 0.84855 0.76 0.89421 0.0
C388 C 0.84164 0.67014 0.91499 0.0
C389 C 0.8455 0.71754 0.91773 0.0
C390 C 0.83692 0.64881 0.92625 0.0
C391 C 0.83249 0.65161 0.9518 0.0
C392 C 0.84189 0.69449 0.92934 0.0
C393 C 0.83325 0.67629 0.96556 0.0
C394 C 0.84484 0.74182 0.93193 0.0
C395 C 0.85016 0.73553 0.88083 0.0
N396 N 0.83776 0.69675 0.95414 0.0
N397 N 0.8484 0.71522 0.8927 0.0
H398 H 0.04493 0.04276 0.43213 0.0
H399 H 0.98026 0.00708 0.29481 0.0
H400 H 0.04272 0.96869 0.38642 0.0
H401 H 0.95333 0.06127 0.35299 0.0
H402 H 0.01339 1.00042 0.32404 0.0
H403 H 0.02081 0.05668 0.39897 0.0
C404 C 0.03962 0.02959 0.41496 0.0
C405 C 0.0455 0.00451 0.41198 0.0
C406 C 1.00048 0.01411 0.3302 0.0
C407 C 0.01848 0.0203 0.37409 0.0
C408 C 0.98174 0.01811 0.3135 0.0
C409 C 0.96391 0.03458 0.32159 0.0
C410 C 0.0016 0.02702 0.35496 0.0
C411 C 0.96658 0.04822 0.34609 0.0
C412 C 0.02588 0.03749 0.39615 0.0
C413 C 0.03823 0.98809 0.38947 0.0
N414 N 0.98498 0.04403 0.36198 0.0
N415 N 0.02508 0.99627 0.37135 0.0
H416 H 0.33313 0.2575 0.6659 0.0
H417 H 0.2542 0.1594 0.558 0.0
H418 H 0.25449 0.2334 0.67025 0.0
H419 H 0.33495 0.16723 0.56496 0.0
H420 H 0.25359 0.18865 0.59757 0.0
H421 H 0.33384 0.2269 0.62718 0.0
C422 C 0.31599 0.24581 0.65862 0.0
C423 C 0.2937 0.24802 0.67124 0.0
C424 C 0.27143 0.18387 0.59049 0.0
C425 C 0.29437 0.21295 0.627 0.0
C426 C 0.27181 0.16723 0.56787 0.0
C427 C 0.29467 0.16088 0.55813 0.0
C428 C 0.29409 0.19452 0.60335 0.0
C429 C 0.3169 0.17155 0.57179 0.0
C430 C 0.31644 0.22825 0.63663 0.0
C431 C 0.2721 0.23219 0.66118 0.0
N432 N 0.31606 0.18798 0.59363 0.0
N433 N 0.27293 0.21542 0.63956 0.0
H434 H 0.5656 0.53709 0.60245 0.0
H435 H 0.4236 0.53706 0.64413 0.0
H436 H 0.50255 0.53215 0.55049 0.0
H437 H 0.48702 0.53919 0.69501 0.0
H438 H 0.45213 0.53763 0.60993 0.0
H439 H 0.53718 0.54049 0.63674 0.0
C440 C 0.54575 0.53675 0.59823 0.0
C441 C 0.53649 0.53407 0.57344 0.0
C442 C 0.45982 0.53804 0.62858 0.0
C443 C 0.50365 0.53809 0.61286 0.0
C444 C 0.44352 0.53771 0.64816 0.0
C445 C 0.45286 0.53799 0.67256 0.0
C446 C 0.48572 0.53867 0.63335 0.0
C447 C 0.4789 0.53888 0.67656 0.0
C448 C 0.52951 0.53877 0.61787 0.0
C449 C 0.51059 0.53431 0.56926 0.0
N450 N 0.49435 0.53913 0.6572 0.0
N451 N 0.49509 0.53608 0.58872 0.0
H452 H 0.74439 0.28068 0.69895 0.0
H453 H 0.74648 0.33862 0.59299 0.0
H454 H 0.80049 0.23761 0.66304 0.0
H455 H 0.81796 0.3098 0.58127 0.0
H456 H 0.7419 0.31766 0.62933 0.0
H457 H 0.74796 0.30809 0.66743 0.0
C458 C 0.75766 0.27723 0.68446 0.0
C459 C 0.77229 0.25709 0.68351 0.0
C460 C 0.75883 0.31632 0.61916 0.0
C461 C 0.77584 0.28759 0.64674 0.0
C462 C 0.76134 0.3282 0.59823 0.0
C463 C 0.7826 0.32602 0.58394 0.0
C464 C 0.77778 0.30218 0.62587 0.0
C465 C 0.80118 0.31205 0.59158 0.0
C466 C 0.75943 0.29263 0.66621 0.0
C467 C 0.78903 0.25313 0.66441 0.0
N468 N 0.79824 0.30059 0.6118 0.0
N469 N 0.79034 0.26824 0.64675 0.0
H470 H 0.59002 0.9808 0.58862 0.0
H471 H 0.56559 0.91114 0.70562 0.0
H472 H 0.53094 0.91994 0.58888 0.0
H473 H 0.61871 0.97754 0.70722 0.0
H474 H 0.55405 0.91242 0.66218 0.0
H475 H 0.60232 0.97815 0.63141 0.0
C476 C 0.5796 0.96689 0.5977 0.0
C477 C 0.55932 0.95066 0.58517 0.0
C478 C 0.56822 0.9267 0.67206 0.0
C479 C 0.57345 0.94736 0.63418 0.0
C480 C 0.57483 0.92599 0.69686 0.0
C481 C 0.59313 0.94428 0.71013 0.0
C482 C 0.58007 0.94578 0.6604 0.0
C483 C 0.60447 0.96306 0.69779 0.0
C484 C 0.58668 0.96533 0.62212 0.0
C485 C 0.54682 0.93267 0.59773 0.0
N486 N 0.59777 0.9633 0.67365 0.0
N487 N 0.55404 0.93156 0.62157 0.0
H488 H 0.83718 0.24149 0.76054 0.0
H489 H 0.95862 0.18703 0.8087 0.0
H490 H 0.84379 0.16111 0.75021 0.0
H491 H 0.95911 0.2627 0.79221 0.0
H492 H 0.91504 0.17739 0.79173 0.0
H493 H 0.88086 0.24997 0.77592 0.0
C494 C 0.84779 0.2256 0.7612 0.0
C495 C 0.83652 0.20052 0.7541 0.0
C496 C 0.92482 0.19606 0.79183 0.0
C497 C 0.88658 0.21018 0.77247 0.0
C498 C 0.94961 0.20158 0.8016 0.0
C499 C 0.96261 0.22566 0.8018 0.0
C500 C 0.91291 0.21489 0.78265 0.0
C501 C 0.94997 0.24381 0.79231 0.0
C502 C 0.87273 0.23047 0.77021 0.0
C503 C 0.85135 0.18077 0.75594 0.0
N504 N 0.9259 0.2381 0.78328 0.0
N505 N 0.87549 0.186 0.7651 0.0
H506 H 0.49886 0.9252 0.47916 0.0
H507 H 0.5284 0.78487 0.42292 0.0
H508 H 0.55784 0.88963 0.51016 0.0
H509 H 0.49722 0.83418 0.37859 0.0
H510 H 0.53227 0.81972 0.45896 0.0
H511 H 0.49128 0.88841 0.44565 0.0
C512 C 0.51026 0.90976 0.479 0.0
C513 C 0.52919 0.91078 0.49757 0.0
C514 C 0.52448 0.82277 0.44133 0.0
C515 C 0.52004 0.86826 0.45951 0.0
C516 C 0.52216 0.80291 0.42084 0.0
C517 C 0.51265 0.80673 0.39772 0.0
C518 C 0.51676 0.84635 0.43871 0.0
C519 C 0.50489 0.8305 0.39602 0.0
C520 C 0.50578 0.88868 0.45992 0.0
C521 C 0.54281 0.88971 0.49658 0.0
N522 N 0.50706 0.84938 0.41624 0.0
N523 N 0.53798 0.86935 0.47788 0.0
H524 H 0.20919 0.25003 0.7273 0.0
H525 H 0.11342 0.21099 0.82774 0.0
H526 H 0.23233 0.23354 0.79848 0.0
H527 H 0.09218 0.23798 0.76095 0.0
H528 H 0.15619 0.20969 0.81326 0.0
H529 H 0.16559 0.23642 0.73532 0.0
C530 C 0.20503 0.24301 0.74439 0.0
C531 C 0.22407 0.24281 0.76229 0.0
C532 C 0.14203 0.21548 0.8016 0.0
C533 C 0.17451 0.22772 0.77189 0.0
C534 C 0.11759 0.21606 0.80978 0.0
C535 C 0.09932 0.22497 0.7957 0.0
C536 C 0.14812 0.22374 0.77915 0.0
C537 C 0.10578 0.23135 0.77259 0.0
C538 C 0.1802 0.23536 0.74904 0.0
C539 C 0.21796 0.23384 0.78425 0.0
N540 N 0.12965 0.23088 0.76519 0.0
N541 N 0.19362 0.22687 0.78858 0.0
H542 H 0.56936 0.61673 0.49978 0.0
H543 H 0.49739 0.65734 0.38425 0.0
H544 H 0.51779 0.56493 0.44849 0.0
H545 H 0.55209 0.7074 0.43396 0.0
H546 H 0.5013 0.62436 0.40965 0.0
H547 H 0.55958 0.65144 0.47855 0.0
C548 C 0.55552 0.61286 0.48438 0.0
C549 C 0.5441 0.58815 0.47599 0.0
C550 C 0.51235 0.64262 0.41506 0.0
C551 C 0.53328 0.62745 0.45112 0.0
C552 C 0.51012 0.66148 0.40054 0.0
C553 C 0.52454 0.6852 0.40682 0.0
C554 C 0.52908 0.64749 0.43607 0.0
C555 C 0.54068 0.68941 0.42823 0.0
C556 C 0.55008 0.63258 0.47211 0.0
C557 C 0.52672 0.58388 0.45566 0.0
N558 N 0.54256 0.67078 0.44196 0.0
N559 N 0.52194 0.6033 0.44379 0.0
H560 H 0.88011 0.76775 0.8145 0.0
H561 H 0.92253 0.85409 0.71772 0.0
H562 H 0.87587 0.84867 0.83073 0.0
H563 H 0.96268 0.79113 0.7281 0.0
H564 H 0.90141 0.85089 0.75654 0.0
H565 H 0.9067 0.774 0.78002 0.0
C566 C 0.88489 0.78687 0.81112 0.0
C567 C 0.87555 0.8077 0.82579 0.0
C568 C 0.91508 0.83801 0.75045 0.0
C569 C 0.90544 0.81472 0.78565 0.0
C570 C 0.9271 0.83979 0.72834 0.0
C571 C 0.94437 0.82286 0.71976 0.0
C572 C 0.91986 0.81871 0.76366 0.0
C573 C 0.9496 0.80465 0.73419 0.0
C574 C 0.90002 0.79035 0.7913 0.0
C575 C 0.88203 0.83189 0.81976 0.0
N576 N 0.93706 0.80276 0.75525 0.0
N577 N 0.89633 0.83469 0.80002 0.0
H578 H 0.0237 0.9593 0.53092 0.0
H579 H 0.04254 0.85 0.61024 0.0
H580 H 0.07256 0.90147 0.5102 0.0
H581 H 0.98131 0.89611 0.61758 0.0
H582 H 0.06099 0.87533 0.58052 0.0
H583 H 0.01546 0.943 0.56958 0.0
C584 C 0.03309 0.94348 0.53487 0.0
C585 C 0.04876 0.93161 0.51761 0.0
C586 C 0.04373 0.88012 0.58898 0.0
C587 C 0.03921 0.91261 0.56134 0.0
C588 C 0.03329 0.8658 0.60606 0.0
C589 C 0.01019 0.87077 0.61615 0.0
C590 C 0.0311 0.89966 0.58221 0.0
C591 C 0.99897 0.89141 0.61 0.0
C592 C 0.02831 0.9341 0.55681 0.0
C593 C 0.06037 0.91108 0.52326 0.0
N594 N 0.00941 0.90494 0.5933 0.0
N595 N 0.05519 0.90202 0.54461 0.0
H596 H 0.16232 0.74153 0.74459 0.0
H597 H 0.09492 0.80295 0.64036 0.0
H598 H 0.20065 0.77068 0.68538 0.0
H599 H 0.05665 0.78034 0.70297 0.0
H600 H 0.13389 0.79188 0.65726 0.0
H601 H 0.12354 0.75662 0.73074 0.0
C602 C 0.16254 0.75144 0.72889 0.0
C603 C 0.18447 0.7551 0.71609 0.0
C604 C 0.11701 0.78939 0.66738 0.0
C605 C 0.14051 0.77194 0.69991 0.0
C606 C 0.09469 0.79565 0.65768 0.0
C607 C 0.07241 0.79249 0.67019 0.0
C608 C 0.11716 0.77972 0.68973 0.0
C609 C 0.07336 0.78306 0.69266 0.0
C610 C 0.14048 0.75995 0.72092 0.0
C611 C 0.184 0.76771 0.69573 0.0
N612 N 0.09534 0.77691 0.70165 0.0
N613 N 0.16232 0.77557 0.68817 0.0
H614 H 0.95054 0.61281 0.54899 0.0
H615 H 0.92561 0.75826 0.58248 0.0
H616 H 0.91356 0.65165 0.4981 0.0
H617 H 0.98301 0.72715 0.62082 0.0
H618 H 0.91622 0.71741 0.55473 0.0
H619 H 0.9577 0.65277 0.57902 0.0
C620 C 0.94374 0.62971 0.54428 0.0
C621 C 0.93155 0.62903 0.52105 0.0
C622 C 0.93085 0.71952 0.56923 0.0
C623 C 0.93962 0.67458 0.55513 0.0
C624 C 0.9362 0.74282 0.58514 0.0
C625 C 0.95522 0.74618 0.60397 0.0
C626 C 0.9444 0.69928 0.57228 0.0
C627 C 0.9683 0.72545 0.60647 0.0
C628 C 0.94797 0.65248 0.5613 0.0
C629 C 0.92326 0.65146 0.51572 0.0
N630 N 0.96261 0.70284 0.59083 0.0
N631 N 0.9274 0.67331 0.53265 0.0
H632 H 0.80476 0.82682 0.20385 0.0
H633 H 0.86767 0.94561 0.30107 0.0
H634 H 0.82456 0.82409 0.28057 0.0
H635 H 0.8704 0.94376 0.22171 0.0
H636 H 0.84999 0.90142 0.29332 0.0
H637 H 0.82743 0.86954 0.20915 0.0
C638 C 0.81407 0.83502 0.22172 0.0
C639 C 0.81243 0.82187 0.2419 0.0
C640 C 0.85454 0.91054 0.27753 0.0
C641 C 0.83803 0.87088 0.24812 0.0
C642 C 0.86454 0.93589 0.28194 0.0
C643 C 0.87041 0.94851 0.26199 0.0
C644 C 0.84995 0.89755 0.25295 0.0
C645 C 0.86614 0.93475 0.23762 0.0
C646 C 0.82692 0.85945 0.22473 0.0
C647 C 0.82472 0.83364 0.26465 0.0
N648 N 0.85592 0.91002 0.23375 0.0
N649 N 0.83676 0.85747 0.26717 0.0
H650 H 0.81516 0.20358 0.28531 0.0
H651 H 0.82215 0.05618 0.25999 0.0
H652 H 0.75419 0.1508 0.2482 0.0
H653 H 0.88894 0.1084 0.26171 0.0
H654 H 0.7967 0.09075 0.25714 0.0
H655 H 0.84262 0.16951 0.27897 0.0
C656 C 0.80762 0.18486 0.27572 0.0
C657 C 0.78236 0.17995 0.26732 0.0
C658 C 0.81691 0.09462 0.25768 0.0
C659 C 0.8135 0.141 0.26022 0.0
C660 C 0.8314 0.07491 0.25925 0.0
C661 C 0.85758 0.07952 0.26082 0.0
C662 C 0.82868 0.11933 0.25852 0.0
C663 C 0.86876 0.10413 0.26018 0.0
C664 C 0.82331 0.16552 0.27196 0.0
C665 C 0.77357 0.15542 0.25485 0.0
N666 N 0.85422 0.1233 0.25952 0.0
N667 N 0.78901 0.1368 0.25198 0.0
H668 H 0.43387 0.00975 0.97434 0.0
H669 H 0.30911 0.95116 0.02983 0.0
H670 H 0.4093 0.03964 0.04732 0.0
H671 H 0.35315 0.90713 0.97736 0.0
H672 H 0.34032 0.98825 0.03073 0.0
H673 H 0.39892 0.97611 0.96978 0.0
C674 C 0.42121 0.00936 0.98941 0.0
C675 C 0.42485 0.02762 0.01136 0.0
C676 C 0.34296 0.97047 0.0189 0.0
C677 C 0.38434 0.98941 0.00587 0.0
C678 C 0.32515 0.9494 0.01829 0.0
C679 C 0.3287 0.92602 0.00368 0.0
C680 C 0.36411 0.96819 0.00442 0.0
C681 C 0.34983 0.92473 0.98911 0.0
C682 C 0.40115 0.99021 0.98669 0.0
C683 C 0.40724 0.02633 0.0299 0.0
N684 N 0.36672 0.9455 0.98983 0.0
N685 N 0.38781 0.00756 0.02675 0.0
H686 H 0.25358 0.34489 0.35232 0.0
H687 H 0.19583 0.46418 0.31244 0.0
H688 H 0.29192 0.4207 0.36672 0.0
H689 H 0.15448 0.39016 0.30819 0.0
H690 H 0.23274 0.44797 0.32839 0.0
H691 H 0.2187 0.36042 0.33181 0.0
C692 C 0.25464 0.3648 0.35088 0.0
C693 C 0.27539 0.38164 0.36105 0.0
C694 C 0.2156 0.43529 0.3239 0.0
C695 C 0.23574 0.39963 0.33798 0.0
C696 C 0.19451 0.44451 0.31476 0.0
C697 C 0.17194 0.42855 0.30908 0.0
C698 C 0.21415 0.4099 0.32727 0.0
C699 C 0.17139 0.40322 0.31244 0.0
C700 C 0.23477 0.37369 0.33929 0.0
C701 C 0.27609 0.40724 0.35895 0.0
N702 N 0.19215 0.39472 0.32133 0.0
N703 N 0.25644 0.41553 0.34768 0.0
H704 H 0.13463 0.97185 0.46259 0.0
H705 H 0.23454 0.09429 0.50043 0.0
H706 H 0.11271 0.04758 0.47756 0.0
H707 H 0.24955 0.02707 0.44995 0.0
H708 H 0.19132 0.07504 0.50281 0.0
H709 H 0.17864 0.98976 0.46922 0.0
C710 C 0.1391 0.99222 0.46783 0.0
C711 C 0.12012 0.00832 0.46946 0.0
C712 C 0.20422 0.0645 0.49143 0.0
C713 C 0.17021 0.02882 0.47698 0.0
C714 C 0.22883 0.07538 0.49012 0.0
C715 C 0.24552 0.0623 0.47478 0.0
C716 C 0.19653 0.0402 0.47777 0.0
C717 C 0.23718 0.03789 0.46177 0.0
C718 C 0.16415 0.0024 0.47139 0.0
C719 C 0.12688 0.03459 0.47598 0.0
N720 N 0.21327 0.0276 0.46359 0.0
N721 N 0.15144 0.04408 0.47946 0.0
H722 H 0.73228 0.13613 0.72034 0.0
H723 H 0.70994 0.04653 0.82266 0.0
H724 H 0.77232 0.15077 0.79201 0.0
H725 H 0.6655 0.0375 0.75388 0.0
H726 H 0.7336 0.08426 0.81178 0.0
H727 H 0.70815 0.09952 0.73233 0.0
C728 C 0.7359 0.13177 0.73869 0.0
C729 C 0.75437 0.14667 0.75519 0.0
C730 C 0.71862 0.07404 0.79912 0.0
C731 C 0.72693 0.10436 0.76897 0.0
C732 C 0.70511 0.05248 0.80531 0.0
C733 C 0.6857 0.03877 0.78916 0.0
C734 C 0.71275 0.08188 0.77656 0.0
C735 C 0.68028 0.04742 0.76693 0.0
C736 C 0.72218 0.11074 0.74549 0.0
C737 C 0.75851 0.1397 0.77854 0.0
N738 N 0.69376 0.06833 0.76129 0.0
N739 N 0.74492 0.11906 0.78472 0.0
H740 H 0.48803 0.99736 0.47443 0.0
H741 H 0.38471 0.08959 0.52221 0.0
H742 H 0.49332 0.04636 0.54616 0.0
H743 H 0.38143 0.04305 0.44901 0.0
H744 H 0.42373 0.07296 0.53197 0.0
H745 H 0.4481 0.01295 0.46516 0.0
C746 C 0.48067 0.01144 0.48816 0.0
C747 C 0.49369 0.02078 0.51097 0.0
C748 C 0.41443 0.06637 0.51379 0.0
C749 C 0.44836 0.03859 0.50077 0.0
C750 C 0.39212 0.07583 0.50822 0.0
C751 C 0.37977 0.06777 0.48473 0.0
C752 C 0.42445 0.04869 0.49576 0.0
C753 C 0.3903 0.04989 0.46734 0.0
C754 C 0.45796 0.02032 0.48294 0.0
C755 C 0.48363 0.03886 0.52831 0.0
N756 N 0.412 0.041 0.4732 0.0
N757 N 0.46151 0.04723 0.52286 0.0
H758 H 0.63605 0.51209 0.51826 0.0
H759 H 0.66873 0.37877 0.55025 0.0
H760 H 0.58383 0.46175 0.55055 0.0
H761 H 0.72103 0.43067 0.51989 0.0
H762 H 0.63747 0.40881 0.55086 0.0
H763 H 0.66732 0.48243 0.51892 0.0
C764 C 0.63109 0.49474 0.52541 0.0
C765 C 0.60714 0.48944 0.53427 0.0
C766 C 0.6558 0.41364 0.5441 0.0
C767 C 0.64315 0.4553 0.53528 0.0
C768 C 0.67369 0.39647 0.54374 0.0
C769 C 0.69761 0.40211 0.53497 0.0
C770 C 0.6618 0.43667 0.5356 0.0
C771 C 0.70288 0.42541 0.5268 0.0
C772 C 0.64905 0.47784 0.52591 0.0
C773 C 0.60207 0.46681 0.54374 0.0
N774 N 0.68516 0.44175 0.52728 0.0
N775 N 0.61985 0.45057 0.54391 0.0
H776 H 0.74833 0.21091 0.34463 0.0
H777 H 0.74214 0.34132 0.43944 0.0
H778 H 0.73878 0.28104 0.31911 0.0
H779 H 0.77734 0.27773 0.45689 0.0
H780 H 0.73149 0.31743 0.39698 0.0
H781 H 0.74954 0.23325 0.38756 0.0
C782 C 0.74651 0.23105 0.34802 0.0
C783 C 0.74403 0.2442 0.32812 0.0
C784 C 0.74127 0.30868 0.41027 0.0
C785 C 0.74497 0.2699 0.37753 0.0
C786 C 0.74717 0.32219 0.43449 0.0
C787 C 0.76076 0.3115 0.4516 0.0
C788 C 0.74864 0.28423 0.40344 0.0
C789 C 0.76703 0.28676 0.44421 0.0
C790 C 0.74706 0.24376 0.37259 0.0
C791 C 0.74083 0.27014 0.33383 0.0
N792 N 0.76097 0.27402 0.42075 0.0
N793 N 0.74161 0.28222 0.35803 0.0
H794 H 0.50716 0.99283 0.95406 0.0
H795 H 0.60074 0.01625 0.84607 0.0
H796 H 0.5506 0.0643 0.95179 0.0
H797 H 0.5555 0.94506 0.8464 0.0
H798 H 0.58108 0.03467 0.8838 0.0
H799 H 0.52309 0.97527 0.91355 0.0
C800 C 0.51991 0.00479 0.94483 0.0
C801 C 0.52769 0.02991 0.95595 0.0
C802 C 0.57536 0.01505 0.87556 0.0
C803 C 0.54607 0.01021 0.91011 0.0
C804 C 0.58659 0.00451 0.85398 0.0
C805 C 0.57988 0.97902 0.84307 0.0
C806 C 0.55732 0.99999 0.8864 0.0
C807 C 0.56136 0.96477 0.85418 0.0
C808 C 0.52902 0.99485 0.92182 0.0
C809 C 0.54424 0.04479 0.94359 0.0
N810 N 0.55083 0.97541 0.87528 0.0
N811 N 0.55298 0.0347 0.92134 0.0
H812 H 0.34229 0.29726 0.42909 0.0
H813 H 0.32305 0.14532 0.39745 0.0
H814 H 0.33742 0.25416 0.35427 0.0
H815 H 0.32592 0.18824 0.47231 0.0
H816 H 0.32937 0.18503 0.38138 0.0
H817 H 0.33755 0.25754 0.44539 0.0
C818 C 0.34025 0.27945 0.41609 0.0
C819 C 0.34023 0.27907 0.39026 0.0
C820 C 0.32862 0.18577 0.40132 0.0
C821 C 0.33489 0.2335 0.4088 0.0
C822 C 0.32498 0.16308 0.41053 0.0
C823 C 0.32392 0.16341 0.43629 0.0
C824 C 0.33124 0.20902 0.41797 0.0
C825 C 0.32658 0.18704 0.45231 0.0
C826 C 0.33762 0.25677 0.42541 0.0
C827 C 0.33787 0.2554 0.37432 0.0
N828 N 0.33011 0.20888 0.44289 0.0
N829 N 0.3352 0.2336 0.38384 0.0
H830 H 0.55084 0.54152 0.92468 0.0
H831 H 0.48755 0.50477 0.78664 0.0
H832 H 0.54538 0.46583 0.88171 0.0
H833 H 0.46419 0.56291 0.84315 0.0
H834 H 0.51949 0.4966 0.81663 0.0
H835 H 0.52937 0.55549 0.89 0.0
C836 C 0.54545 0.52796 0.90779 0.0
C837 C 0.54959 0.50245 0.90609 0.0
C838 C 0.50769 0.5115 0.82221 0.0
C839 C 0.52538 0.5183 0.86641 0.0
C840 C 0.4897 0.51632 0.80508 0.0
C841 C 0.47327 0.53447 0.81256 0.0
C842 C 0.50943 0.5253 0.84668 0.0
C843 C 0.47649 0.54869 0.83676 0.0
C844 C 0.53318 0.53591 0.88809 0.0
C845 C 0.54218 0.4856 0.88383 0.0
N846 N 0.49413 0.54374 0.853 0.0
N847 N 0.53036 0.4938 0.86485 0.0
H848 H 0.78291 0.70338 0.2133 0.0
H849 H 0.80758 0.6768 0.06751 0.0
H850 H 0.78455 0.7608 0.16679 0.0
H851 H 0.79422 0.61726 0.11103 0.0
H852 H 0.80049 0.70796 0.10409 0.0
H853 H 0.78756 0.6716 0.17638 0.0
C854 C 0.78394 0.7093 0.19531 0.0
C855 C 0.78338 0.7349 0.19324 0.0
C856 C 0.79907 0.68808 0.10566 0.0
C857 C 0.78924 0.69858 0.15088 0.0
C858 C 0.8032 0.67026 0.08477 0.0
C859 C 0.80153 0.64434 0.08618 0.0
C860 C 0.79335 0.68002 0.12823 0.0
C861 C 0.79571 0.63703 0.10906 0.0
C862 C 0.78679 0.69114 0.17424 0.0
C863 C 0.78528 0.74141 0.16942 0.0
N864 N 0.7919 0.65478 0.1292 0.0
N865 N 0.78823 0.72342 0.14924 0.0
H866 H 0.03492 0.99296 0.09231 0.0
H867 H 0.95864 0.07912 0.19168 0.0
H868 H 0.02034 0.06899 0.08626 0.0
H869 H 0.95885 0.99849 0.18852 0.0
H870 H 0.98411 0.07654 0.15507 0.0
H871 H 0.01033 0.99553 0.12973 0.0
C872 C 0.02673 0.01028 0.09897 0.0
C873 C 0.02971 0.0308 0.0861 0.0
C874 C 0.97857 0.05939 0.16235 0.0
C875 C 0.0014 0.03381 0.12886 0.0
C876 C 0.96403 0.06085 0.18331 0.0
C877 C 0.9565 0.03897 0.19323 0.0
C878 C 0.98592 0.03593 0.15124 0.0
C879 C 0.96411 0.01583 0.18149 0.0
C880 C 0.01254 0.01165 0.12022 0.0
C881 C 0.01836 0.05263 0.09543 0.0
N882 N 0.97845 0.01493 0.16119 0.0
N883 N 0.0048 0.05357 0.11623 0.0
H884 H 0.22374 0.79358 0.18476 0.0
H885 H 0.30938 0.81866 0.07161 0.0
H886 H 0.29136 0.75901 0.16796 0.0
H887 H 0.23804 0.8479 0.08301 0.0
H888 H 0.30468 0.80003 0.10899 0.0
H889 H 0.23036 0.81686 0.15009 0.0
C890 C 0.24019 0.79121 0.17389 0.0
C891 C 0.25716 0.7746 0.17914 0.0
C892 C 0.29004 0.81055 0.10344 0.0
C893 C 0.26472 0.80079 0.13937 0.0
C894 C 0.29268 0.82128 0.082 0.0
C895 C 0.27397 0.83483 0.07392 0.0
C896 C 0.26851 0.81327 0.11716 0.0
C897 C 0.2529 0.83759 0.08842 0.0
C898 C 0.24389 0.80438 0.15406 0.0
C899 C 0.27798 0.77184 0.1645 0.0
N900 N 0.2507 0.82681 0.10928 0.0
N901 N 0.28116 0.78478 0.14521 0.0
H902 H 0.03188 0.47484 0.09749 0.0
H903 H 0.08909 0.40815 0.20042 0.0
H904 H 0.08299 0.41858 0.07728 0.0
H905 H 0.08699 0.48923 0.21265 0.0
H906 H 0.07711 0.40619 0.15616 0.0
H907 H 0.04221 0.47488 0.14137 0.0
C908 C 0.04528 0.46252 0.1021 0.0
C909 C 0.05681 0.44695 0.08335 0.0
C910 C 0.07927 0.42433 0.16865 0.0
C911 C 0.06777 0.44626 0.13371 0.0
C912 C 0.08598 0.42547 0.1938 0.0
C913 C 0.08912 0.44891 0.21007 0.0
C914 C 0.07493 0.44666 0.16006 0.0
C915 C 0.08495 0.47083 0.20062 0.0
C916 C 0.05098 0.46248 0.12719 0.0
C917 C 0.07332 0.43072 0.09083 0.0
N918 N 0.07781 0.46916 0.17624 0.0
N919 N 0.07825 0.43075 0.11544 0.0
H920 H 0.33003 0.72655 0.22099 0.0
H921 H 0.42581 0.70727 0.33027 0.0
H922 H 0.30669 0.70202 0.28897 0.0
H923 H 0.44785 0.74283 0.26785 0.0
H924 H 0.3824 0.70059 0.31312 0.0
H925 H 0.37374 0.72949 0.23623 0.0
C926 C 0.33405 0.72191 0.23914 0.0
C927 C 0.31458 0.71383 0.25357 0.0
C928 C 0.39682 0.70968 0.30311 0.0
C929 C 0.36462 0.71676 0.27103 0.0
C930 C 0.42161 0.71329 0.3128 0.0
C931 C 0.44047 0.72578 0.3006 0.0
C932 C 0.39092 0.71849 0.281 0.0
C933 C 0.4339 0.73333 0.27805 0.0
C934 C 0.35902 0.7234 0.24777 0.0
C935 C 0.32102 0.70784 0.27691 0.0
N936 N 0.40974 0.72968 0.26908 0.0
N937 N 0.34541 0.70936 0.28485 0.0
H938 H 0.07461 0.4271 0.96817 0.0
H939 H 0.03233 0.27934 0.91822 0.0
H940 H 0.0308 0.37955 0.01104 0.0
H941 H 0.06158 0.33235 0.87219 0.0
H942 H 0.03622 0.31414 0.95425 0.0
H943 H 0.07456 0.39081 0.93457 0.0
C944 C 0.06492 0.40903 0.97051 0.0
C945 C 0.05245 0.40649 0.99239 0.0
C946 C 0.04185 0.31805 0.93624 0.0
C947 C 0.05259 0.36462 0.95397 0.0
C948 C 0.03972 0.29821 0.91572 0.0
C949 C 0.04648 0.30296 0.89211 0.0
C950 C 0.05105 0.3427 0.93313 0.0
C951 C 0.05593 0.32779 0.88995 0.0
C952 C 0.065 0.38826 0.95134 0.0
C953 C 0.04077 0.38238 0.99458 0.0
N954 N 0.0579 0.34666 0.91014 0.0
N955 N 0.04101 0.36239 0.97555 0.0
H956 H 0.7107 0.72599 0.31288 0.0
H957 H 0.57229 0.7473 0.27228 0.0
H958 H 0.69149 0.75302 0.24572 0.0
H959 H 0.58912 0.71551 0.33744 0.0
H960 H 0.61499 0.74381 0.25949 0.0
H961 H 0.66594 0.71643 0.31955 0.0
C962 C 0.69695 0.72934 0.29927 0.0
C963 C 0.7045 0.74016 0.27871 0.0
C964 C 0.60938 0.73728 0.27644 0.0
C965 C 0.65355 0.72987 0.28635 0.0
C966 C 0.58494 0.73928 0.28377 0.0
C967 C 0.57721 0.73197 0.30613 0.0
C968 C 0.62649 0.72826 0.29173 0.0
C969 C 0.59433 0.72143 0.3201 0.0
C970 C 0.67146 0.724 0.3031 0.0
C971 C 0.68623 0.74454 0.26173 0.0
N972 N 0.61833 0.72027 0.31288 0.0
N973 N 0.66156 0.73961 0.26605 0.0
H974 H 0.03383 0.10783 0.99409 0.0
H975 H 0.06226 0.13214 0.85575 0.0
H976 H 0.06097 0.05229 0.93761 0.0
H977 H 0.02881 0.18491 0.91039 0.0
H978 H 0.06466 0.10392 0.8862 0.0
H979 H 0.03527 0.13781 0.9648 0.0
C980 C 0.04054 0.10218 0.9756 0.0
C981 C 0.04757 0.0778 0.96821 0.0
C982 C 0.0568 0.12167 0.89155 0.0
C983 C 0.04878 0.11163 0.93443 0.0
C984 C 0.05538 0.13782 0.87413 0.0
C985 C 0.04522 0.16097 0.88041 0.0
C986 C 0.04809 0.12866 0.91556 0.0
C987 C 0.03669 0.16725 0.90462 0.0
C988 C 0.04118 0.11918 0.95883 0.0
C989 C 0.05568 0.07111 0.94401 0.0
N990 N 0.03832 0.15122 0.92126 0.0
N991 N 0.05599 0.0879 0.92792 0.0
H992 H 0.34132 0.34467 0.30563 0.0
H993 H 0.47009 0.32123 0.23912 0.0
H994 H 0.40345 0.3172 0.34049 0.0
H995 H 0.40466 0.34086 0.20232 0.0
H996 H 0.44778 0.32411 0.27793 0.0
H997 H 0.36605 0.34775 0.26909 0.0
C998 C 0.36024 0.3395 0.30569 0.0
C999 C 0.37026 0.33053 0.3261 0.0
C1000 C 0.43839 0.32795 0.26138 0.0
C1001 C 0.39866 0.3338 0.28422 0.0
C1002 C 0.45115 0.32641 0.23924 0.0
C1003 C 0.43919 0.33063 0.21736 0.0
C1004 C 0.41353 0.33384 0.26165 0.0
C1005 C 0.41461 0.33725 0.21865 0.0
C1006 C 0.37432 0.34113 0.28476 0.0
C1007 C 0.39483 0.32383 0.325 0.0
N1008 N 0.40259 0.33853 0.24035 0.0
N1009 N 0.40815 0.32554 0.3044 0.0
H1010 H 0.51372 0.45395 0.02317 0.0
H1011 H 0.54259 0.35451 0.11115 0.0
H1012 H 0.57189 0.40478 0.00948 0.0
H1013 H 0.47371 0.38875 0.10924 0.0
H1014 H 0.55927 0.38004 0.08071 0.0
H1015 H 0.50478 0.43759 0.06165 0.0
C1016 C 0.52489 0.44002 0.02862 0.0
C1017 C 0.54348 0.43058 0.01338 0.0
C1018 C 0.54066 0.38219 0.08728 0.0
C1019 C 0.53326 0.41153 0.05696 0.0
C1020 C 0.5312 0.36777 0.10474 0.0
C1021 C 0.50664 0.36935 0.1125 0.0
C1022 C 0.52552 0.39847 0.07786 0.0
C1023 C 0.49264 0.38673 0.10353 0.0
C1024 C 0.51975 0.4306 0.05046 0.0
C1025 C 0.55741 0.41245 0.02095 0.0
N1026 N 0.50221 0.40047 0.08662 0.0
N1027 N 0.55189 0.4033 0.04219 0.0
H1028 H 0.6507 0.23721 0.25612 0.0
H1029 H 0.60108 0.32356 0.16381 0.0
H1030 H 0.6986 0.27837 0.21119 0.0
H1031 H 0.55331 0.28746 0.2129 0.0
H1032 H 0.63738 0.30968 0.18325 0.0
H1033 H 0.6152 0.25805 0.24326 0.0
C1034 C 0.65375 0.25106 0.24394 0.0
C1035 C 0.67741 0.25634 0.23476 0.0
C1036 C 0.61899 0.30493 0.18993 0.0
C1037 C 0.63712 0.27974 0.21952 0.0
C1038 C 0.59821 0.31284 0.17879 0.0
C1039 C 0.57404 0.30652 0.18658 0.0
C1040 C 0.61565 0.2904 0.20893 0.0
C1041 C 0.57156 0.29269 0.2062 0.0
C1042 C 0.63354 0.26284 0.23649 0.0
C1043 C 0.68055 0.27404 0.21876 0.0
N1044 N 0.59206 0.28493 0.21654 0.0
N1045 N 0.66058 0.28497 0.21147 0.0
H1046 H 0.43168 0.12145 0.03186 0.0
H1047 H 0.50287 0.23367 0.1333 0.0
H1048 H 0.49928 0.1146 0.07353 0.0
H1049 H 0.43394 0.2402 0.09355 0.0
H1050 H 0.50117 0.1896 0.11235 0.0
H1051 H 0.43117 0.16441 0.05538 0.0
C1052 C 0.44627 0.12888 0.04612 0.0
C1053 C 0.46564 0.11446 0.05062 0.0
C1054 C 0.48637 0.20064 0.10825 0.0
C1055 C 0.46536 0.16372 0.07738 0.0
C1056 C 0.48735 0.22585 0.1202 0.0
C1057 C 0.46856 0.24073 0.11514 0.0
C1058 C 0.4665 0.19018 0.09104 0.0
C1059 C 0.44887 0.22949 0.09801 0.0
C1060 C 0.44606 0.15347 0.05944 0.0
C1061 C 0.48422 0.12519 0.06914 0.0
N1062 N 0.4484 0.20493 0.08653 0.0
N1063 N 0.48367 0.14917 0.08176 0.0
H1064 H 0.28549 0.35166 0.74117 0.0
H1065 H 0.39939 0.45053 0.71387 0.0
H1066 H 0.34839 0.3281 0.6991 0.0
H1067 H 0.34106 0.46857 0.76465 0.0
H1068 H 0.37877 0.40669 0.70319 0.0
H1069 H 0.30354 0.39562 0.74517 0.0
C1070 C 0.30321 0.35573 0.73286 0.0
C1071 C 0.31561 0.33608 0.72012 0.0
C1072 C 0.37045 0.42038 0.7165 0.0
C1073 C 0.3364 0.38671 0.72439 0.0
C1074 C 0.3821 0.44539 0.72247 0.0
C1075 C 0.37204 0.46314 0.74034 0.0
C1076 C 0.34852 0.41331 0.72834 0.0
C1077 C 0.34967 0.45546 0.751 0.0
C1078 C 0.31346 0.38091 0.73501 0.0
C1079 C 0.33818 0.34264 0.70911 0.0
N1080 N 0.33878 0.4312 0.74491 0.0
N1081 N 0.34797 0.36742 0.71164 0.0
H1082 H 0.28085 0.67917 0.80035 0.0
H1083 H 0.37795 0.59776 0.72455 0.0
H1084 H 0.30647 0.69714 0.73035 0.0
H1085 H 0.36926 0.60537 0.80391 0.0
H1086 H 0.35101 0.63214 0.72375 0.0
H1087 H 0.3114 0.64908 0.79933 0.0
C1088 C 0.29311 0.67709 0.78486 0.0
C1089 C 0.29122 0.69119 0.76563 0.0
C1090 C 0.35533 0.62634 0.7413 0.0
C1091 C 0.3262 0.65585 0.76403 0.0
C1092 C 0.37074 0.60685 0.74177 0.0
C1093 C 0.37556 0.59839 0.76425 0.0
C1094 C 0.34472 0.63714 0.76342 0.0
C1095 C 0.36573 0.61083 0.78604 0.0
C1096 C 0.31054 0.6597 0.78422 0.0
C1097 C 0.30713 0.68668 0.74557 0.0
N1098 N 0.35068 0.62927 0.785 0.0
N1099 N 0.32395 0.66935 0.74525 0.0
H1100 H 0.8729 0.55437 0.51559 0.0
H1101 H 0.86848 0.40356 0.50189 0.0
H1102 H 0.92821 0.51134 0.47766 0.0
H1103 H 0.80625 0.4449 0.52569 0.0
H1104 H 0.89254 0.44334 0.49699 0.0
H1105 H 0.85035 0.51495 0.52362 0.0
C1106 C 0.88046 0.53664 0.50918 0.0
C1107 C 0.90254 0.53616 0.49598 0.0
C1108 C 0.87364 0.44372 0.50334 0.0
C1109 C 0.87661 0.49089 0.5049 0.0
C1110 C 0.85988 0.42101 0.50622 0.0
C1111 C 0.83522 0.42083 0.51415 0.0
C1112 C 0.86279 0.46652 0.50857 0.0
C1113 C 0.82514 0.44408 0.51945 0.0
C1114 C 0.86746 0.51412 0.51361 0.0
C1115 C 0.91118 0.51257 0.48774 0.0
N1116 N 0.83896 0.46598 0.51656 0.0
N1117 N 0.89822 0.49088 0.49236 0.0
H1118 H 0.79548 0.89481 0.86055 0.0
H1119 H 0.6611 0.87319 0.78943 0.0
H1120 H 0.75484 0.82124 0.83436 0.0
H1121 H 0.70414 0.94679 0.80872 0.0
H1122 H 0.69674 0.85372 0.803 0.0
H1123 H 0.76401 0.91421 0.83885 0.0
C1124 C 0.78009 0.88279 0.84983 0.0
C1125 C 0.77752 0.85654 0.84904 0.0
C1126 C 0.69851 0.87411 0.80411 0.0
C1127 C 0.74146 0.87833 0.82469 0.0
C1128 C 0.67811 0.88527 0.7964 0.0
C1129 C 0.67952 0.91171 0.79816 0.0
C1130 C 0.72049 0.88947 0.81392 0.0
C1131 C 0.70217 0.92634 0.80713 0.0
C1132 C 0.76214 0.8938 0.83754 0.0
C1133 C 0.75733 0.84161 0.83524 0.0
N1134 N 0.72169 0.91505 0.81492 0.0
N1135 N 0.73991 0.85274 0.82374 0.0
H1136 H 0.61075 0.54713 0.97518 0.0
H1137 H 0.75152 0.52052 0.97073 0.0
H1138 H 0.63261 0.47162 0.96964 0.0
H1139 H 0.73125 0.59157 0.01013 0.0
H1140 H 0.70771 0.50266 0.969 0.0
H1141 H 0.65429 0.56464 0.98722 0.0
C1142 C 0.62467 0.53428 0.97683 0.0
C1143 C 0.61816 0.50791 0.97133 0.0
C1144 C 0.71284 0.52207 0.9783 0.0
C1145 C 0.6678 0.5277 0.98467 0.0
C1146 C 0.73781 0.5323 0.97919 0.0
C1147 C 0.74493 0.55759 0.99046 0.0
C1148 C 0.69471 0.53739 0.98822 0.0
C1149 C 0.72647 0.57197 0.00129 0.0
C1150 C 0.64942 0.54426 0.98378 0.0
C1151 C 0.63682 0.49206 0.97385 0.0
N1152 N 0.70205 0.5618 0.99953 0.0
N1153 N 0.66087 0.5022 0.97995 0.0
H1154 H 0.19815 0.68556 0.2584 0.0
H1155 H 0.18716 0.53878 0.27042 0.0
H1156 H 0.25625 0.63726 0.23821 0.0
H1157 H 0.12397 0.58237 0.27548 0.0
H1158 H 0.21366 0.57576 0.26192 0.0
H1159 H 0.17142 0.64889 0.26746 0.0
C1160 C 0.20526 0.66725 0.2557 0.0
C1161 C 0.22956 0.66457 0.24751 0.0
C1162 C 0.194 0.57726 0.26489 0.0
C1163 C 0.19914 0.62257 0.2583 0.0
C1164 C 0.17885 0.55616 0.26984 0.0
C1165 C 0.15326 0.55744 0.27363 0.0
C1166 C 0.18357 0.59992 0.26387 0.0
C1167 C 0.14357 0.58049 0.27261 0.0
C1168 C 0.19002 0.64634 0.26102 0.0
C1169 C 0.23784 0.64039 0.24484 0.0
N1170 N 0.15874 0.60082 0.26786 0.0
N1171 N 0.2227 0.62038 0.25025 0.0
H1172 H 0.00859 0.55533 0.0413 0.0
H1173 H 0.86639 0.52197 0.99379 0.0
H1174 H 0.97432 0.47922 0.01398 0.0
H1175 H 0.89381 0.5945 0.03813 0.0
H1176 H 0.90538 0.5057 0.00345 0.0
H1177 H 0.96679 0.5702 0.04269 0.0
C1178 C 0.99215 0.54177 0.03598 0.0
C1179 C 0.99457 0.51614 0.02744 0.0
C1180 C 0.90286 0.52508 0.0114 0.0
C1181 C 0.94715 0.53279 0.02867 0.0
C1182 C 0.88058 0.53438 0.00586 0.0
C1183 C 0.87701 0.55965 0.01503 0.0
C1184 C 0.92203 0.54131 0.02581 0.0
C1185 C 0.89589 0.57488 0.03073 0.0
C1186 C 0.96838 0.55019 0.03678 0.0
C1187 C 0.97301 0.49918 0.02061 0.0
N1188 N 0.91785 0.5656 0.03529 0.0
N1189 N 0.95018 0.50784 0.02113 0.0
H1190 H 0.11939 0.02231 0.07243 0.0
H1191 H 0.18705 0.90822 0.99808 0.0
H1192 H 0.09239 0.98035 1.00029 0.0
H1193 H 0.2192 0.95759 0.06478 0.0
H1194 H 0.15168 0.9335 0.99907 0.0
H1195 H 0.15561 0.99822 0.07033 0.0
C1196 C 0.12111 0.00807 0.0561 0.0
C1197 C 0.10274 0.00336 0.03653 0.0
C1198 C 0.16649 0.93882 0.01347 0.0
C1199 C 0.14427 0.97552 0.03401 0.0
C1200 C 0.18667 0.92432 0.01298 0.0
C1201 C 0.20619 0.93072 0.0314 0.0
C1202 C 0.16564 0.95983 0.03262 0.0
C1203 C 0.20464 0.95189 0.05018 0.0
C1204 C 0.14185 0.99435 0.05488 0.0
C1205 C 0.10617 0.98483 0.01571 0.0
N1206 N 0.18475 0.96559 0.05033 0.0
N1207 N 0.12639 0.97149 0.01508 0.0
loop_
_geom_bond_atom_site_label_1
_geom_bond_atom_site_label_2
_geom_bond_distance
_geom_bond_site_symmetry_2
_ccdc_geom_bond_type
H0 C3 0.929 . S
H1 C6 0.929 . S
H2 C8 0.930 . S
C3 H0 0.929 . S
C3 C4 1.398 . S
C3 C5 1.396 . S
C4 C3 1.398 . S
C4 C8 1.407 . S
C5 C3 1.396 . S
C5 C6 1.394 . S
C6 H1 0.929 . S
C6 C5 1.394 . S
C6 C7 1.382 . S
C7 C6 1.382 . S
C7 C8 1.392 . S
C7 N9 1.420 . S
C8 H2 0.930 . S
C8 C4 1.407 . S
C8 C7 1.392 . S
N9 C7 1.420 . S
N9 C10 1.244 . S
C10 N9 1.244 . S
H11 C14 0.929 . S
H12 C17 0.929 . S
H13 C19 0.930 . S
C14 H11 0.929 . S
C14 C15 1.398 . S
C14 C16 1.396 . S
C15 C14 1.398 . S
C15 C19 1.407 . S
C16 C14 1.396 . S
C16 C17 1.394 . S
C17 H12 0.929 . S
C17 C16 1.394 . S
C17 C18 1.382 . S
C18 C17 1.382 . S
C18 C19 1.392 . S
C18 N20 1.420 . S
C19 H13 0.930 . S
C19 C15 1.407 . S
C19 C18 1.392 . S
N20 C18 1.420 . S
N20 C21 1.244 . S
C21 N20 1.244 . S
H22 C25 0.914 1_455 S
H23 C28 0.929 . S
H24 C30 0.930 . S
C25 H22 0.914 1_655 S
C25 C26 1.398 . S
C25 C27 1.396 . S
C26 C25 1.398 . S
C26 C30 1.407 . S
C27 C25 1.396 . S
C27 C28 1.394 . S
C28 H23 0.929 . S
C28 C27 1.394 . S
C28 C29 1.382 . S
C29 C28 1.382 . S
C29 C30 1.392 . S
C29 N31 1.420 . S
C30 H24 0.930 . S
C30 C26 1.407 . S
C30 C29 1.392 . S
N31 C29 1.420 . S
N31 C32 1.244 . S
C32 N31 1.244 . S
H33 C36 0.929 . S
H34 C39 0.929 . S
H35 C41 0.930 . S
C36 H33 0.929 . S
C36 C37 1.398 . S
C36 C38 1.396 . S
C37 C36 1.398 . S
C37 C41 1.407 . S
C38 C36 1.396 . S
C38 C39 1.394 . S
C39 H34 0.929 . S
C39 C38 1.394 . S
C39 C40 1.382 . S
C40 C39 1.382 . S
C40 C41 1.392 . S
C40 N42 1.420 . S
C41 H35 0.930 . S
C41 C37 1.407 . S
C41 C40 1.392 . S
N42 C40 1.420 . S
N42 C43 1.244 . S
C43 N42 1.244 . S
H44 C47 0.929 . S
H45 C50 0.929 . S
H46 C52 0.930 . S
C47 H44 0.929 . S
C47 C48 1.398 . S
C47 C49 1.396 . S
C48 C47 1.398 . S
C48 C52 1.407 . S
C49 C47 1.396 . S
C49 C50 1.394 . S
C50 H45 0.929 . S
C50 C49 1.394 . S
C50 C51 1.382 . S
C51 C50 1.382 . S
C51 C52 1.392 . S
C51 N53 1.420 . S
C52 H46 0.930 . S
C52 C48 1.407 . S
C52 C51 1.392 . S
N53 C51 1.420 . S
N53 C54 1.244 . S
C54 N53 1.244 . S
H55 C58 0.929 . S
H56 C61 0.929 . S
H57 C63 0.930 . S
C58 H55 0.929 . S
C58 C59 1.398 . S
C58 C60 1.396 . S
C59 C58 1.398 . S
C59 C63 1.407 . S
C60 C58 1.396 . S
C60 C61 1.394 . S
C61 H56 0.929 . S
C61 C60 1.394 . S
C61 C62 1.382 . S
C62 C61 1.382 . S
C62 C63 1.392 . S
C62 N64 1.420 . S
C63 H57 0.930 . S
C63 C59 1.407 . S
C63 C62 1.392 . S
N64 C62 1.420 . S
N64 C65 1.244 . S
C65 N64 1.244 . S
H66 C69 0.929 . S
H67 C72 0.929 1_455 S
H68 C74 0.930 . S
C69 H66 0.929 . S
C69 C70 1.398 . S
C69 C71 1.396 . S
C70 C69 1.398 . S
C70 C74 1.407 . S
C71 C69 1.396 . S
C71 C72 1.394 . S
C72 H67 0.929 1_655 S
C72 C71 1.394 . S
C72 C73 1.382 . S
C73 C72 1.382 . S
C73 C74 1.392 . S
C73 N75 1.425 . S
C74 H68 0.930 . S
C74 C70 1.407 . S
C74 C73 1.392 . S
N75 C73 1.425 . S
N75 C76 1.241 1_655 S
C76 N75 1.241 1_455 S
H77 C80 0.929 . S
H78 C83 0.929 . S
H79 C85 0.930 . S
C80 H77 0.929 . S
C80 C81 1.398 . S
C80 C82 1.396 . S
C81 C80 1.398 . S
C81 C85 1.407 . S
C82 C80 1.396 . S
C82 C83 1.394 . S
C83 H78 0.929 . S
C83 C82 1.394 . S
C83 C84 1.382 . S
C84 C83 1.382 . S
C84 C85 1.392 . S
C84 N86 1.420 . S
C85 H79 0.930 . S
C85 C81 1.407 . S
C85 C84 1.392 . S
N86 C84 1.420 . S
N86 C87 1.244 . S
C87 N86 1.244 . S
H88 C91 0.929 . S
H89 C94 0.929 . S
H90 C96 0.930 . S
C91 H88 0.929 . S
C91 C92 1.398 . S
C91 C93 1.396 . S
C92 C91 1.398 . S
C92 C96 1.407 . S
C93 C91 1.396 . S
C93 C94 1.394 . S
C94 H89 0.929 . S
C94 C93 1.394 . S
C94 C95 1.382 . S
C95 C94 1.382 . S
C95 C96 1.392 . S
C95 N97 1.420 . S
C96 H90 0.930 . S
C96 C92 1.407 . S
C96 C95 1.392 . S
N97 C95 1.420 . S
N97 C98 1.244 . S
C98 N97 1.244 . S
H99 C102 0.929 . S
H100 C105 0.929 . S
H101 C107 0.930 . S
C102 H99 0.929 . S
C102 C103 1.398 . S
C102 C104 1.396 . S
C103 C102 1.398 . S
C103 C107 1.407 . S
C104 C102 1.396 . S
C104 C105 1.394 . S
C105 H100 0.929 . S
C105 C104 1.394 . S
C105 C106 1.382 . S
C106 C105 1.382 . S
C106 C107 1.392 . S
C106 N108 1.420 . S
C107 H101 0.930 . S
C107 C103 1.407 . S
C107 C106 1.392 . S
N108 C106 1.420 . S
N108 C109 1.244 1_565 S
C109 N108 1.244 1_545 S
H110 C113 0.929 . S
H111 C116 0.929 . S
H112 C118 0.930 . S
C113 H110 0.929 . S
C113 C114 1.398 . S
C113 C115 1.396 . S
C114 C113 1.398 . S
C114 C118 1.407 . S
C115 C113 1.396 . S
C115 C116 1.394 . S
C116 H111 0.929 . S
C116 C115 1.394 . S
C116 C117 1.382 . S
C117 C116 1.382 . S
C117 C118 1.392 . S
C117 N119 1.420 . S
C118 H112 0.930 . S
C118 C114 1.407 . S
C118 C117 1.392 . S
N119 C117 1.420 . S
N119 C120 1.244 . S
C120 N119 1.244 . S
H121 C124 0.929 . S
H122 C127 0.929 . S
H123 C129 0.930 . S
C124 H121 0.929 . S
C124 C125 1.398 . S
C124 C126 1.396 . S
C125 C124 1.398 . S
C125 C129 1.407 . S
C126 C124 1.396 . S
C126 C127 1.394 . S
C127 H122 0.929 . S
C127 C126 1.394 . S
C127 C128 1.382 . S
C128 C127 1.382 . S
C128 C129 1.392 . S
C128 N130 1.420 . S
C129 H123 0.930 . S
C129 C125 1.407 . S
C129 C128 1.392 . S
N130 C128 1.420 . S
N130 C131 1.244 . S
C131 N130 1.244 . S
H132 C135 0.929 . S
H133 C138 0.929 . S
H134 C140 0.930 . S
C135 H132 0.929 . S
C135 C136 1.398 . S
C135 C137 1.396 . S
C136 C135 1.398 . S
C136 C140 1.407 . S
C137 C135 1.396 . S
C137 C138 1.394 . S
C138 H133 0.929 . S
C138 C137 1.394 . S
C138 C139 1.382 . S
C139 C138 1.382 . S
C139 C140 1.392 . S
C139 N141 1.420 . S
C140 H134 0.930 . S
C140 C136 1.407 . S
C140 C139 1.392 . S
N141 C139 1.420 . S
N141 C142 1.244 . S
C142 N141 1.244 . S
H143 C146 0.929 . S
H144 C149 0.929 1_554 S
H145 C151 0.930 . S
C146 H143 0.929 . S
C146 C147 1.398 . S
C146 C148 1.396 . S
C147 C146 1.398 . S
C147 C151 1.407 . S
C148 C146 1.396 . S
C148 C149 1.394 . S
C149 H144 0.929 1_556 S
C149 C148 1.394 . S
C149 C150 1.382 . S
C150 C149 1.382 . S
C150 C151 1.392 . S
C150 N152 1.420 1_556 S
C151 H145 0.930 . S
C151 C147 1.407 . S
C151 C150 1.392 . S
N152 C150 1.420 1_554 S
N152 C153 1.244 . S
C153 N152 1.244 . S
H154 C157 0.929 . S
H155 C160 0.929 . S
H156 C162 0.930 . S
C157 H154 0.929 . S
C157 C158 1.398 . S
C157 C159 1.396 . S
C158 C157 1.398 . S
C158 C162 1.407 . S
C159 C157 1.396 . S
C159 C160 1.394 . S
C160 H155 0.929 . S
C160 C159 1.394 . S
C160 C161 1.382 . S
C161 C160 1.382 . S
C161 C162 1.392 . S
C161 N163 1.420 . S
C162 H156 0.930 . S
C162 C158 1.407 . S
C162 C161 1.392 . S
N163 C161 1.420 . S
N163 C164 1.244 . S
C164 N163 1.244 . S
H165 C168 0.929 . S
H166 C171 0.929 . S
H167 C173 0.930 . S
C168 H165 0.929 . S
C168 C169 1.398 . S
C168 C170 1.396 . S
C169 C168 1.398 . S
C169 C173 1.407 . S
C170 C168 1.396 . S
C170 C171 1.394 . S
C171 H166 0.929 . S
C171 C170 1.394 . S
C171 C172 1.382 . S
C172 C171 1.382 . S
C172 C173 1.392 . S
C172 N174 1.420 . S
C173 H167 0.930 . S
C173 C169 1.407 . S
C173 C172 1.392 . S
N174 C172 1.420 . S
N174 C175 1.244 . S
C175 N174 1.244 . S
Zn176 O179 2.031 . S
Zn176 O181 2.049 . S
Zn176 O186 2.067 1_554 S
Zn177 O178 1.962 . S
Zn177 O180 1.986 . S
Zn177 O182 1.996 . S
Zn177 O185 1.943 . S
O178 Zn177 1.962 . S
O178 C183 1.254 . S
O179 Zn176 2.031 . S
O179 C183 1.269 . S
O180 Zn177 1.986 . S
O180 C187 1.262 . S
O181 Zn176 2.049 . S
O181 C189 1.260 . S
O182 Zn177 1.996 . S
O182 C189 1.257 . S
C183 O178 1.254 . S
C183 O179 1.269 . S
C184 O185 1.249 1_556 S
C184 O186 1.270 . S
O185 Zn177 1.943 . S
O185 C184 1.249 1_554 S
O186 Zn176 2.067 1_556 S
O186 C184 1.270 . S
C187 O180 1.262 . S
C187 O188 1.232 . S
O188 C187 1.232 . S
C189 O181 1.260 . S
C189 O182 1.257 . S
Zn190 O193 2.031 . S
Zn190 O195 2.049 . S
Zn190 O200 2.067 . S
Zn191 O192 1.962 . S
Zn191 O194 1.986 . S
Zn191 O196 1.996 . S
Zn191 O199 1.943 . S
O192 Zn191 1.962 . S
O192 C197 1.254 . S
O193 Zn190 2.031 . S
O193 C197 1.269 . S
O194 Zn191 1.986 . S
O194 C201 1.262 . S
O195 Zn190 2.049 . S
O195 C203 1.260 . S
O196 Zn191 1.996 . S
O196 C203 1.257 . S
C197 O192 1.254 . S
C197 O193 1.269 . S
C198 O199 1.249 . S
C198 O200 1.270 . S
O199 Zn191 1.943 . S
O199 C198 1.249 . S
O200 Zn190 2.067 . S
O200 C198 1.270 . S
C201 O194 1.262 . S
C201 O202 1.232 . S
O202 C201 1.232 . S
C203 O195 1.260 . S
C203 O196 1.257 . S
Zn204 O207 2.031 . S
Zn204 O209 2.049 . S
Zn204 O214 2.067 . S
Zn205 O206 1.962 . S
Zn205 O208 1.986 . S
Zn205 O210 1.996 1_554 S
Zn205 O213 1.943 . S
O206 Zn205 1.962 . S
O206 C211 1.254 . S
O207 Zn204 2.031 . S
O207 C211 1.269 1_556 S
O208 Zn205 1.986 . S
O208 C215 1.262 . S
O209 Zn204 2.049 . S
O209 C217 1.260 . S
O210 Zn205 1.996 1_556 S
O210 C217 1.257 . S
C211 O206 1.254 . S
C211 O207 1.269 1_554 S
C212 O213 1.249 1_556 S
C212 O214 1.270 . S
O213 Zn205 1.943 . S
O213 C212 1.249 1_554 S
O214 Zn204 2.067 . S
O214 C212 1.270 . S
C215 O208 1.262 . S
C215 O216 1.232 . S
O216 C215 1.232 . S
C217 O209 1.260 . S
C217 O210 1.257 . S
Zn218 O221 2.031 . S
Zn218 O223 2.049 . S
Zn218 O228 2.067 1_545 S
Zn219 O220 1.962 . S
Zn219 O222 1.986 . S
Zn219 O224 1.996 . S
Zn219 O227 1.943 1_545 S
O220 Zn219 1.962 . S
O220 C225 1.254 . S
O221 Zn218 2.031 . S
O221 C225 1.269 . S
O222 Zn219 1.986 . S
O222 C229 1.262 . S
O223 Zn218 2.049 . S
O223 C231 1.260 . S
O224 Zn219 1.996 . S
O224 C231 1.257 . S
C225 O220 1.254 . S
C225 O221 1.269 . S
C226 O227 1.249 . S
C226 O228 1.270 . S
O227 Zn219 1.943 1_565 S
O227 C226 1.249 . S
O228 Zn218 2.067 1_565 S
O228 C226 1.270 . S
C229 O222 1.262 . S
C229 O230 1.232 . S
O230 C229 1.232 . S
C231 O223 1.260 . S
C231 O224 1.257 . S
Zn232 O235 2.031 . S
Zn232 O237 2.049 . S
Zn232 O242 2.067 . S
Zn233 O234 1.962 . S
Zn233 O236 1.986 . S
Zn233 O238 1.996 . S
Zn233 O241 1.943 . S
O234 Zn233 1.962 . S
O234 C239 1.254 . S
O235 Zn232 2.031 . S
O235 C239 1.269 . S
O236 Zn233 1.986 . S
O236 C243 1.262 . S
O237 Zn232 2.049 . S
O237 C245 1.260 . S
O238 Zn233 1.996 . S
O238 C245 1.257 . S
C239 O234 1.254 . S
C239 O235 1.269 . S
C240 O241 1.249 . S
C240 O242 1.270 . S
O241 Zn233 1.943 . S
O241 C240 1.249 . S
O242 Zn232 2.067 . S
O242 C240 1.270 . S
C243 O236 1.262 . S
C243 O244 1.232 . S
O244 C243 1.232 . S
C245 O237 1.260 . S
C245 O238 1.257 . S
Zn246 O249 2.031 . S
Zn246 O251 2.049 . S
Zn246 O256 2.067 . S
Zn247 O248 1.962 . S
Zn247 O250 1.986 . S
Zn247 O252 1.996 . S
Zn247 O255 1.943 . S
O248 Zn247 1.962 . S
O248 C253 1.254 . S
O249 Zn246 2.031 . S
O249 C253 1.269 . S
O250 Zn247 1.986 . S
O250 C257 1.262 . S
O251 Zn246 2.049 . S
O251 C259 1.260 . S
O252 Zn247 1.996 . S
O252 C259 1.257 . S
C253 O248 1.254 . S
C253 O249 1.269 . S
C254 O255 1.249 . S
C254 O256 1.270 . S
O255 Zn247 1.943 . S
O255 C254 1.249 . S
O256 Zn246 2.067 . S
O256 C254 1.270 . S
C257 O250 1.262 . S
C257 O258 1.232 . S
O258 C257 1.232 . S
C259 O251 1.260 . S
C259 O252 1.257 . S
Zn260 O263 2.031 . S
Zn260 O265 2.049 . S
Zn260 O270 2.067 . S
Zn261 O262 1.962 . S
Zn261 O264 1.986 . S
Zn261 O266 1.996 . S
Zn261 O269 1.943 . S
O262 Zn261 1.962 . S
O262 C267 1.254 . S
O263 Zn260 2.031 . S
O263 C267 1.269 . S
O264 Zn261 1.986 . S
O264 C271 1.262 . S
O265 Zn260 2.049 . S
O265 C273 1.260 . S
O266 Zn261 1.996 . S
O266 C273 1.257 . S
C267 O262 1.254 . S
C267 O263 1.269 . S
C268 O269 1.249 . S
C268 O270 1.270 . S
O269 Zn261 1.943 . S
O269 C268 1.249 . S
O270 Zn260 2.067 . S
O270 C268 1.270 . S
C271 O264 1.262 . S
C271 O272 1.232 . S
O272 C271 1.232 . S
C273 O265 1.260 . S
C273 O266 1.257 . S
Zn274 O277 2.031 . S
Zn274 O279 2.049 . S
Zn274 O284 2.067 . S
Zn275 O276 1.962 . S
Zn275 O278 1.986 . S
Zn275 O280 1.996 1_545 S
Zn275 O283 1.943 . S
O276 Zn275 1.962 . S
O276 C281 1.254 . S
O277 Zn274 2.031 . S
O277 C281 1.269 1_565 S
O278 Zn275 1.986 . S
O278 C285 1.262 . S
O279 Zn274 2.049 . S
O279 C287 1.260 . S
O280 Zn275 1.996 1_565 S
O280 C287 1.257 . S
C281 O276 1.254 . S
C281 O277 1.269 1_545 S
C282 O283 1.222 1_565 S
C282 O284 1.270 . S
O283 Zn275 1.943 . S
O283 C282 1.222 1_545 S
O284 Zn274 2.067 . S
O284 C282 1.270 . S
C285 O278 1.262 . S
C285 O286 1.232 . S
O286 C285 1.232 . S
C287 O279 1.260 . S
C287 O280 1.257 . S
Zn288 O291 2.031 . S
Zn288 O293 2.049 . S
Zn288 O298 2.067 1_455 S
Zn289 O290 1.962 . S
Zn289 O292 1.986 . S
Zn289 O294 1.996 . S
Zn289 O297 1.943 1_455 S
O290 Zn289 1.962 . S
O290 C295 1.254 . S
O291 Zn288 2.031 . S
O291 C295 1.269 . S
O292 Zn289 1.986 . S
O292 C299 1.262 . S
O293 Zn288 2.049 . S
O293 C301 1.260 . S
O294 Zn289 1.996 . S
O294 C301 1.257 . S
C295 O290 1.254 . S
C295 O291 1.269 . S
C296 O297 1.249 . S
C296 O298 1.270 . S
O297 Zn289 1.943 1_655 S
O297 C296 1.249 . S
O298 Zn288 2.067 1_655 S
O298 C296 1.270 . S
C299 O292 1.262 . S
C299 O300 1.232 . S
O300 C299 1.232 . S
C301 O293 1.260 . S
C301 O294 1.257 . S
Zn302 O305 2.031 . S
Zn302 O307 2.049 . S
Zn302 O312 2.067 . S
Zn303 O304 1.962 . S
Zn303 O306 1.986 . S
Zn303 O308 1.996 . S
Zn303 O311 1.943 . S
O304 Zn303 1.962 . S
O304 C309 1.254 . S
O305 Zn302 2.031 . S
O305 C309 1.269 . S
O306 Zn303 1.986 . S
O306 C313 1.262 . S
O307 Zn302 2.049 . S
O307 C315 1.260 . S
O308 Zn303 1.996 . S
O308 C315 1.257 . S
C309 O304 1.254 . S
C309 O305 1.269 . S
C310 O311 1.249 . S
C310 O312 1.270 . S
O311 Zn303 1.943 . S
O311 C310 1.249 . S
O312 Zn302 2.067 . S
O312 C310 1.270 . S
C313 O306 1.262 . S
C313 O314 1.232 . S
O314 C313 1.232 . S
C315 O307 1.260 . S
C315 O308 1.257 . S
Zn316 O319 2.031 1_655 S
Zn316 O321 2.049 . S
Zn316 O326 2.067 . S
Zn317 O318 1.962 . S
Zn317 O320 1.986 . S
Zn317 O322 1.996 1_455 S
Zn317 O325 1.943 . S
O318 Zn317 1.962 . S
O318 C323 1.254 . S
O319 Zn316 2.031 1_455 S
O319 C323 1.269 . S
O320 Zn317 1.986 . S
O320 C327 1.262 . S
O321 Zn316 2.049 . S
O321 C329 1.260 . S
O322 Zn317 1.996 1_655 S
O322 C329 1.257 . S
C323 O318 1.254 . S
C323 O319 1.269 . S
C324 O325 1.249 1_655 S
C324 O326 1.270 . S
O325 Zn317 1.943 . S
O325 C324 1.249 1_455 S
O326 Zn316 2.067 . S
O326 C324 1.270 . S
C327 O320 1.262 . S
C327 O328 1.232 . S
O328 C327 1.232 . S
C329 O321 1.260 . S
C329 O322 1.257 . S
Zn330 O333 2.031 . S
Zn330 O335 2.049 . S
Zn330 O340 2.067 . S
Zn331 O332 1.962 . S
Zn331 O334 1.986 . S
Zn331 O336 1.996 . S
Zn331 O339 1.943 . S
O332 Zn331 1.962 . S
O332 C337 1.254 . S
O333 Zn330 2.031 . S
O333 C337 1.269 . S
O334 Zn331 1.986 . S
O334 C341 1.262 . S
O335 Zn330 2.049 . S
O335 C343 1.260 . S
O336 Zn331 1.996 . S
O336 C343 1.257 . S
C337 O332 1.254 . S
C337 O333 1.269 . S
C338 O339 1.249 . S
C338 O340 1.270 . S
O339 Zn331 1.943 . S
O339 C338 1.249 . S
O340 Zn330 2.067 . S
O340 C338 1.270 . S
C341 O334 1.262 . S
C341 O342 1.232 . S
O342 C341 1.232 . S
C343 O335 1.260 . S
C343 O336 1.257 . S
H344 C350 0.930 . S
H345 C354 0.930 . S
H346 C359 0.929 . S
H347 C357 0.929 . S
H348 C352 0.929 . S
H349 C358 0.929 . S
C350 H344 0.930 . S
C350 C351 1.367 . S
C350 C358 1.378 . S
C351 C350 1.367 . S
C351 C359 1.433 . S
C352 H348 0.929 . S
C352 C354 1.378 . S
C352 C356 1.350 . S
C353 C356 1.463 . S
C353 C358 1.350 . S
C353 N361 1.427 . S
C354 H345 0.930 . S
C354 C352 1.378 . S
C354 C355 1.367 . S
C355 C354 1.367 . S
C355 C357 1.433 . S
C356 C352 1.350 . S
C356 C353 1.463 . S
C356 N360 1.427 . S
C357 H347 0.929 . S
C357 C355 1.433 . S
C357 N360 1.384 . S
C358 H349 0.929 . S
C358 C350 1.378 . S
C358 C353 1.350 . S
C359 H346 0.929 . S
C359 C351 1.433 . S
C359 N361 1.384 . S
N360 C356 1.427 . S
N360 C357 1.384 . S
N361 C353 1.427 . S
N361 C359 1.384 . S
H362 C368 0.930 . S
H363 C372 0.930 . S
H364 C377 0.929 . S
H365 C375 0.929 . S
H366 C370 0.929 . S
H367 C376 0.929 . S
C368 H362 0.930 . S
C368 C369 1.367 . S
C368 C376 1.378 . S
C369 C368 1.367 . S
C369 C377 1.433 . S
C370 H366 0.929 . S
C370 C372 1.378 . S
C370 C374 1.350 . S
C371 C374 1.463 . S
C371 C376 1.350 . S
C371 N379 1.427 . S
C372 H363 0.930 . S
C372 C370 1.378 . S
C372 C373 1.367 . S
C373 C372 1.367 . S
C373 C375 1.433 . S
C374 C370 1.350 . S
C374 C371 1.463 . S
C374 N378 1.427 . S
C375 H365 0.929 . S
C375 C373 1.433 . S
C375 N378 1.384 . S
C376 H367 0.929 . S
C376 C368 1.378 . S
C376 C371 1.350 . S
C377 H364 0.929 . S
C377 C369 1.433 . S
C377 N379 1.384 . S
N378 C374 1.427 . S
N378 C375 1.384 . S
N379 C371 1.427 . S
N379 C377 1.384 . S
H380 C386 0.930 . S
H381 C390 0.930 . S
H382 C395 0.929 . S
H383 C393 0.929 . S
H384 C388 0.929 . S
H385 C394 0.929 . S
C386 H380 0.930 . S
C386 C387 1.367 . S
C386 C394 1.378 . S
C387 C386 1.367 . S
C387 C395 1.433 . S
C388 H384 0.929 . S
C388 C390 1.378 . S
C388 C392 1.350 . S
C389 C392 1.463 . S
C389 C394 1.350 . S
C389 N397 1.427 . S
C390 H381 0.930 . S
C390 C388 1.378 . S
C390 C391 1.367 . S
C391 C390 1.367 . S
C391 C393 1.433 . S
C392 C388 1.350 . S
C392 C389 1.463 . S
C392 N396 1.427 . S
C393 H383 0.929 . S
C393 C391 1.433 . S
C393 N396 1.384 . S
C394 H385 0.929 . S
C394 C386 1.378 . S
C394 C389 1.350 . S
C395 H382 0.929 . S
C395 C387 1.433 . S
C395 N397 1.384 . S
N396 C392 1.427 . S
N396 C393 1.384 . S
N397 C389 1.427 . S
N397 C395 1.384 . S
H398 C404 0.930 1_545 S
H399 C408 0.930 . S
H400 C413 0.929 . S
H401 C411 0.929 . S
H402 C406 0.929 . S
H403 C412 0.929 . S
C404 H398 0.930 1_565 S
C404 C405 1.367 . S
C404 C412 1.378 1_565 S
C405 C404 1.367 . S
C405 C413 1.433 . S
C406 H402 0.929 . S
C406 C408 1.378 . S
C406 C410 1.350 1_655 S
C407 C410 1.463 . S
C407 C412 1.350 1_565 S
C407 N415 1.427 . S
C408 H399 0.930 . S
C408 C406 1.378 . S
C408 C409 1.367 1_565 S
C409 C408 1.367 1_545 S
C409 C411 1.433 . S
C410 C406 1.350 1_455 S
C410 C407 1.463 . S
C410 N414 1.427 1_565 S
C411 H401 0.929 . S
C411 C409 1.433 . S
C411 N414 1.384 1_655 S
C412 H403 0.929 . S
C412 C404 1.378 1_545 S
C412 C407 1.350 1_545 S
C413 H400 0.929 . S
C413 C405 1.433 . S
C413 N415 1.384 . S
N414 C410 1.427 1_545 S
N414 C411 1.384 1_455 S
N415 C407 1.427 . S
N415 C413 1.384 . S
H416 C422 0.930 . S
H417 C426 0.930 . S
H418 C431 0.929 . S
H419 C429 0.929 . S
H420 C424 0.929 . S
H421 C430 0.929 . S
C422 H416 0.930 . S
C422 C423 1.367 . S
C422 C430 1.378 . S
C423 C422 1.367 . S
C423 C431 1.433 . S
C424 H420 0.929 . S
C424 C426 1.378 . S
C424 C428 1.350 . S
C425 C428 1.463 . S
C425 C430 1.350 . S
C425 N433 1.427 . S
C426 H417 0.930 . S
C426 C424 1.378 . S
C426 C427 1.367 . S
C427 C426 1.367 . S
C427 C429 1.433 . S
C428 C424 1.350 . S
C428 C425 1.463 . S
C428 N432 1.427 . S
C429 H419 0.929 . S
C429 C427 1.433 . S
C429 N432 1.384 . S
C430 H421 0.929 . S
C430 C422 1.378 . S
C430 C425 1.350 . S
C431 H418 0.929 . S
C431 C423 1.433 . S
C431 N433 1.384 . S
N432 C428 1.427 . S
N432 C429 1.384 . S
N433 C425 1.427 . S
N433 C431 1.384 . S
H434 C440 0.930 . S
H435 C444 0.930 . S
H436 C449 0.929 . S
H437 C447 0.929 . S
H438 C442 0.929 . S
H439 C448 0.929 . S
C440 H434 0.930 . S
C440 C441 1.367 . S
C440 C448 1.378 . S
C441 C440 1.367 . S
C441 C449 1.433 . S
C442 H438 0.929 . S
C442 C444 1.378 . S
C442 C446 1.350 . S
C443 C446 1.463 . S
C443 C448 1.350 . S
C443 N451 1.427 . S
C444 H435 0.930 . S
C444 C442 1.378 . S
C444 C445 1.367 . S
C445 C444 1.367 . S
C445 C447 1.433 . S
C446 C442 1.350 . S
C446 C443 1.463 . S
C446 N450 1.427 . S
C447 H437 0.929 . S
C447 C445 1.433 . S
C447 N450 1.384 . S
C448 H439 0.929 . S
C448 C440 1.378 . S
C448 C443 1.350 . S
C449 H436 0.929 . S
C449 C441 1.433 . S
C449 N451 1.384 . S
N450 C446 1.427 . S
N450 C447 1.384 . S
N451 C443 1.427 . S
N451 C449 1.384 . S
H452 C458 0.930 . S
H453 C462 0.930 . S
H454 C467 0.929 . S
H455 C465 0.929 . S
H456 C460 0.929 . S
H457 C466 0.929 . S
C458 H452 0.930 . S
C458 C459 1.367 . S
C458 C466 1.378 . S
C459 C458 1.367 . S
C459 C467 1.433 . S
C460 H456 0.929 . S
C460 C462 1.378 . S
C460 C464 1.350 . S
C461 C464 1.463 . S
C461 C466 1.350 . S
C461 N469 1.427 . S
C462 H453 0.930 . S
C462 C460 1.378 . S
C462 C463 1.367 . S
C463 C462 1.367 . S
C463 C465 1.433 . S
C464 C460 1.350 . S
C464 C461 1.463 . S
C464 N468 1.427 . S
C465 H455 0.929 . S
C465 C463 1.433 . S
C465 N468 1.384 . S
C466 H457 0.929 . S
C466 C458 1.378 . S
C466 C461 1.350 . S
C467 H454 0.929 . S
C467 C459 1.433 . S
C467 N469 1.384 . S
N468 C464 1.427 . S
N468 C465 1.384 . S
N469 C461 1.427 . S
N469 C467 1.384 . S
H470 C476 0.930 1_545 S
H471 C480 0.930 . S
H472 C485 0.929 . S
H473 C483 0.929 . S
H474 C478 0.929 . S
H475 C484 0.929 1_545 S
C476 H470 0.930 1_565 S
C476 C477 1.367 . S
C476 C484 1.378 . S
C477 C476 1.367 . S
C477 C485 1.433 . S
C478 H474 0.929 . S
C478 C480 1.378 . S
C478 C482 1.350 . S
C479 C482 1.463 . S
C479 C484 1.350 . S
C479 N487 1.427 . S
C480 H471 0.930 . S
C480 C478 1.378 . S
C480 C481 1.367 . S
C481 C480 1.367 . S
C481 C483 1.433 1_565 S
C482 C478 1.350 . S
C482 C479 1.463 . S
C482 N486 1.427 1_565 S
C483 H473 0.929 . S
C483 C481 1.433 1_545 S
C483 N486 1.384 . S
C484 H475 0.929 1_565 S
C484 C476 1.378 . S
C484 C479 1.350 . S
C485 H472 0.929 . S
C485 C477 1.433 . S
C485 N487 1.384 . S
N486 C482 1.427 1_545 S
N486 C483 1.384 . S
N487 C479 1.427 . S
N487 C485 1.384 . S
H488 C494 0.930 . S
H489 C498 0.930 . S
H490 C503 0.929 . S
H491 C501 0.929 . S
H492 C496 0.929 . S
H493 C502 0.929 . S
C494 H488 0.930 . S
C494 C495 1.367 . S
C494 C502 1.378 . S
C495 C494 1.367 . S
C495 C503 1.433 . S
C496 H492 0.929 . S
C496 C498 1.378 . S
C496 C500 1.350 . S
C497 C500 1.463 . S
C497 C502 1.350 . S
C497 N505 1.427 . S
C498 H489 0.930 . S
C498 C496 1.378 . S
C498 C499 1.367 . S
C499 C498 1.367 . S
C499 C501 1.433 . S
C500 C496 1.350 . S
C500 C497 1.463 . S
C500 N504 1.427 . S
C501 H491 0.929 . S
C501 C499 1.433 . S
C501 N504 1.384 . S
C502 H493 0.929 . S
C502 C494 1.378 . S
C502 C497 1.350 . S
C503 H490 0.929 . S
C503 C495 1.433 . S
C503 N505 1.384 . S
N504 C500 1.427 . S
N504 C501 1.384 . S
N505 C497 1.427 . S
N505 C503 1.384 . S
H506 C512 0.930 . S
H507 C516 0.930 . S
H508 C521 0.929 . S
H509 C519 0.929 . S
H510 C514 0.929 . S
H511 C520 0.929 . S
C512 H506 0.930 . S
C512 C513 1.367 . S
C512 C520 1.378 . S
C513 C512 1.367 . S
C513 C521 1.433 . S
C514 H510 0.929 . S
C514 C516 1.378 . S
C514 C518 1.350 . S
C515 C518 1.463 . S
C515 C520 1.350 . S
C515 N523 1.427 . S
C516 H507 0.930 . S
C516 C514 1.378 . S
C516 C517 1.367 . S
C517 C516 1.367 . S
C517 C519 1.433 . S
C518 C514 1.350 . S
C518 C515 1.463 . S
C518 N522 1.427 . S
C519 H509 0.929 . S
C519 C517 1.433 . S
C519 N522 1.384 . S
C520 H511 0.929 . S
C520 C512 1.378 . S
C520 C515 1.350 . S
C521 H508 0.929 . S
C521 C513 1.433 . S
C521 N523 1.384 . S
N522 C518 1.427 . S
N522 C519 1.384 . S
N523 C515 1.427 . S
N523 C521 1.384 . S
H524 C530 0.930 . S
H525 C534 0.930 . S
H526 C539 0.929 . S
H527 C537 0.929 . S
H528 C532 0.929 . S
H529 C538 0.929 . S
C530 H524 0.930 . S
C530 C531 1.367 . S
C530 C538 1.378 . S
C531 C530 1.367 . S
C531 C539 1.433 . S
C532 H528 0.929 . S
C532 C534 1.378 . S
C532 C536 1.350 . S
C533 C536 1.463 . S
C533 C538 1.350 . S
C533 N541 1.427 . S
C534 H525 0.930 . S
C534 C532 1.378 . S
C534 C535 1.367 . S
C535 C534 1.367 . S
C535 C537 1.433 . S
C536 C532 1.350 . S
C536 C533 1.463 . S
C536 N540 1.427 . S
C537 H527 0.929 . S
C537 C535 1.433 . S
C537 N540 1.384 . S
C538 H529 0.929 . S
C538 C530 1.378 . S
C538 C533 1.350 . S
C539 H526 0.929 . S
C539 C531 1.433 . S
C539 N541 1.384 . S
N540 C536 1.427 . S
N540 C537 1.384 . S
N541 C533 1.427 . S
N541 C539 1.384 . S
H542 C548 0.930 . S
H543 C552 0.930 . S
H544 C557 0.929 . S
H545 C555 0.929 . S
H546 C550 0.929 . S
H547 C556 0.929 . S
C548 H542 0.930 . S
C548 C549 1.367 . S
C548 C556 1.378 . S
C549 C548 1.367 . S
C549 C557 1.433 . S
C550 H546 0.929 . S
C550 C552 1.378 . S
C550 C554 1.350 . S
C551 C554 1.463 . S
C551 C556 1.350 . S
C551 N559 1.427 . S
C552 H543 0.930 . S
C552 C550 1.378 . S
C552 C553 1.367 . S
C553 C552 1.367 . S
C553 C555 1.433 . S
C554 C550 1.350 . S
C554 C551 1.463 . S
C554 N558 1.427 . S
C555 H545 0.929 . S
C555 C553 1.433 . S
C555 N558 1.384 . S
C556 H547 0.929 . S
C556 C548 1.378 . S
C556 C551 1.350 . S
C557 H544 0.929 . S
C557 C549 1.433 . S
C557 N559 1.384 . S
N558 C554 1.427 . S
N558 C555 1.384 . S
N559 C551 1.427 . S
N559 C557 1.384 . S
H560 C566 0.930 . S
H561 C570 0.930 . S
H562 C575 0.929 . S
H563 C573 0.929 . S
H564 C568 0.929 . S
H565 C574 0.929 . S
C566 H560 0.930 . S
C566 C567 1.367 . S
C566 C574 1.378 . S
C567 C566 1.367 . S
C567 C575 1.433 . S
C568 H564 0.929 . S
C568 C570 1.378 . S
C568 C572 1.350 . S
C569 C572 1.463 . S
C569 C574 1.350 . S
C569 N577 1.427 . S
C570 H561 0.930 . S
C570 C568 1.378 . S
C570 C571 1.367 . S
C571 C570 1.367 . S
C571 C573 1.433 . S
C572 C568 1.350 . S
C572 C569 1.463 . S
C572 N576 1.427 . S
C573 H563 0.929 . S
C573 C571 1.433 . S
C573 N576 1.384 . S
C574 H565 0.929 . S
C574 C566 1.378 . S
C574 C569 1.350 . S
C575 H562 0.929 . S
C575 C567 1.433 . S
C575 N577 1.384 . S
N576 C572 1.427 . S
N576 C573 1.384 . S
N577 C569 1.427 . S
N577 C575 1.384 . S
H578 C584 0.930 . S
H579 C588 0.930 . S
H580 C593 0.929 . S
H581 C591 0.929 . S
H582 C586 0.929 . S
H583 C592 0.929 . S
C584 H578 0.930 . S
C584 C585 1.367 . S
C584 C592 1.378 . S
C585 C584 1.367 . S
C585 C593 1.433 . S
C586 H582 0.929 . S
C586 C588 1.378 . S
C586 C590 1.350 . S
C587 C590 1.463 . S
C587 C592 1.350 . S
C587 N595 1.427 . S
C588 H579 0.930 . S
C588 C586 1.378 . S
C588 C589 1.367 . S
C589 C588 1.367 . S
C589 C591 1.433 . S
C590 C586 1.350 . S
C590 C587 1.463 . S
C590 N594 1.427 . S
C591 H581 0.929 . S
C591 C589 1.433 . S
C591 N594 1.384 . S
C592 H583 0.929 . S
C592 C584 1.378 . S
C592 C587 1.350 . S
C593 H580 0.929 . S
C593 C585 1.433 . S
C593 N595 1.384 . S
N594 C590 1.427 . S
N594 C591 1.384 . S
N595 C587 1.427 . S
N595 C593 1.384 . S
H596 C602 0.930 . S
H597 C606 0.930 . S
H598 C611 0.929 . S
H599 C609 0.929 . S
H600 C604 0.929 . S
H601 C610 0.929 . S
C602 H596 0.930 . S
C602 C603 1.367 . S
C602 C610 1.378 . S
C603 C602 1.367 . S
C603 C611 1.433 . S
C604 H600 0.929 . S
C604 C606 1.378 . S
C604 C608 1.350 . S
C605 C608 1.463 . S
C605 C610 1.350 . S
C605 N613 1.427 . S
C606 H597 0.930 . S
C606 C604 1.378 . S
C606 C607 1.367 . S
C607 C606 1.367 . S
C607 C609 1.433 . S
C608 C604 1.350 . S
C608 C605 1.463 . S
C608 N612 1.427 . S
C609 H599 0.929 . S
C609 C607 1.433 . S
C609 N612 1.384 . S
C610 H601 0.929 . S
C610 C602 1.378 . S
C610 C605 1.350 . S
C611 H598 0.929 . S
C611 C603 1.433 . S
C611 N613 1.384 . S
N612 C608 1.427 . S
N612 C609 1.384 . S
N613 C605 1.427 . S
N613 C611 1.384 . S
H614 C620 0.930 . S
H615 C624 0.930 . S
H616 C629 0.929 . S
H617 C627 0.929 . S
H618 C622 0.929 . S
H619 C628 0.929 1_455 S
C620 H614 0.930 . S
C620 C621 1.367 . S
C620 C628 1.378 . S
C621 C620 1.367 . S
C621 C629 1.433 . S
C622 H618 0.929 . S
C622 C624 1.378 . S
C622 C626 1.350 . S
C623 C626 1.463 . S
C623 C628 1.350 . S
C623 N631 1.427 . S
C624 H615 0.930 . S
C624 C622 1.378 . S
C624 C625 1.374 . S
C625 C624 1.374 . S
C625 C627 1.427 1_655 S
C626 C622 1.350 . S
C626 C623 1.463 . S
C626 N630 1.427 1_655 S
C627 H617 0.929 . S
C627 C625 1.427 1_455 S
C627 N630 1.384 . S
C628 H619 0.929 1_655 S
C628 C620 1.378 . S
C628 C623 1.350 . S
C629 H616 0.929 . S
C629 C621 1.433 . S
C629 N631 1.384 . S
N630 C626 1.427 1_455 S
N630 C627 1.384 . S
N631 C623 1.427 . S
N631 C629 1.384 . S
H632 C638 0.930 . S
H633 C642 0.930 . S
H634 C647 0.929 . S
H635 C645 0.929 . S
H636 C640 0.929 . S
H637 C646 0.929 . S
C638 H632 0.930 . S
C638 C639 1.367 . S
C638 C646 1.378 . S
C639 C638 1.367 . S
C639 C647 1.433 . S
C640 H636 0.929 . S
C640 C642 1.378 . S
C640 C644 1.350 . S
C641 C644 1.463 . S
C641 C646 1.350 . S
C641 N649 1.427 . S
C642 H633 0.930 . S
C642 C640 1.378 . S
C642 C643 1.367 . S
C643 C642 1.367 . S
C643 C645 1.433 . S
C644 C640 1.350 . S
C644 C641 1.463 . S
C644 N648 1.427 . S
C645 H635 0.929 . S
C645 C643 1.433 . S
C645 N648 1.384 . S
C646 H637 0.929 . S
C646 C638 1.378 . S
C646 C641 1.350 . S
C647 H634 0.929 . S
C647 C639 1.433 . S
C647 N649 1.384 . S
N648 C644 1.427 . S
N648 C645 1.384 . S
N649 C641 1.427 . S
N649 C647 1.384 . S
H650 C656 0.930 . S
H651 C660 0.930 . S
H652 C665 0.929 . S
H653 C663 0.929 . S
H654 C658 0.929 . S
H655 C664 0.929 . S
C656 H650 0.930 . S
C656 C657 1.367 . S
C656 C664 1.378 . S
C657 C656 1.367 . S
C657 C665 1.433 . S
C658 H654 0.929 . S
C658 C660 1.378 . S
C658 C662 1.350 . S
C659 C662 1.463 . S
C659 C664 1.350 . S
C659 N667 1.427 . S
C660 H651 0.930 . S
C660 C658 1.378 . S
C660 C661 1.367 . S
C661 C660 1.367 . S
C661 C663 1.433 . S
C662 C658 1.350 . S
C662 C659 1.463 . S
C662 N666 1.427 . S
C663 H653 0.929 . S
C663 C661 1.433 . S
C663 N666 1.384 . S
C664 H655 0.929 . S
C664 C656 1.378 . S
C664 C659 1.350 . S
C665 H652 0.929 . S
C665 C657 1.433 . S
C665 N667 1.384 . S
N666 C662 1.427 . S
N666 C663 1.384 . S
N667 C659 1.427 . S
N667 C665 1.384 . S
H668 C674 0.930 . S
H669 C678 0.930 . S
H670 C683 0.929 . S
H671 C681 0.929 . S
H672 C676 0.929 . S
H673 C682 0.929 . S
C674 H668 0.930 . S
C674 C675 1.367 1_565 S
C674 C682 1.378 . S
C675 C674 1.367 1_545 S
C675 C683 1.433 . S
C676 H672 0.929 . S
C676 C678 1.378 . S
C676 C680 1.350 1_554 S
C677 C680 1.463 . S
C677 C682 1.350 . S
C677 N685 1.427 1_565 S
C678 H669 0.930 . S
C678 C676 1.378 . S
C678 C679 1.367 . S
C679 C678 1.367 . S
C679 C681 1.433 1_554 S
C680 C676 1.350 1_556 S
C680 C677 1.463 . S
C680 N684 1.427 . S
C681 H671 0.929 . S
C681 C679 1.433 1_556 S
C681 N684 1.384 . S
C682 H673 0.929 . S
C682 C674 1.378 . S
C682 C677 1.350 . S
C683 H670 0.929 . S
C683 C675 1.433 . S
C683 N685 1.384 . S
N684 C680 1.427 . S
N684 C681 1.384 . S
N685 C677 1.427 1_545 S
N685 C683 1.384 . S
H686 C692 0.930 . S
H687 C696 0.930 . S
H688 C701 0.929 . S
H689 C699 0.929 . S
H690 C694 0.929 . S
H691 C700 0.929 . S
C692 H686 0.930 . S
C692 C693 1.367 . S
C692 C700 1.378 . S
C693 C692 1.367 . S
C693 C701 1.433 . S
C694 H690 0.929 . S
C694 C696 1.378 . S
C694 C698 1.350 . S
C695 C698 1.463 . S
C695 C700 1.350 . S
C695 N703 1.427 . S
C696 H687 0.930 . S
C696 C694 1.378 . S
C696 C697 1.367 . S
C697 C696 1.367 . S
C697 C699 1.433 . S
C698 C694 1.350 . S
C698 C695 1.463 . S
C698 N702 1.427 . S
C699 H689 0.929 . S
C699 C697 1.433 . S
C699 N702 1.384 . S
C700 H691 0.929 . S
C700 C692 1.378 . S
C700 C695 1.350 . S
C701 H688 0.929 . S
C701 C693 1.433 . S
C701 N703 1.384 . S
N702 C698 1.427 . S
N702 C699 1.384 . S
N703 C695 1.427 . S
N703 C701 1.384 . S
H704 C710 0.935 . S
H705 C714 0.930 . S
H706 C719 0.929 1_565 S
H707 C717 0.929 . S
H708 C712 0.929 . S
H709 C718 0.929 . S
C710 H704 0.935 . S
C710 C711 1.367 1_545 S
C710 C718 1.378 . S
C711 C710 1.367 1_565 S
C711 C719 1.433 1_565 S
C712 H708 0.929 . S
C712 C714 1.378 . S
C712 C716 1.350 . S
C713 C716 1.463 . S
C713 C718 1.350 . S
C713 N721 1.427 . S
C714 H705 0.930 . S
C714 C712 1.378 . S
C714 C715 1.367 . S
C715 C714 1.367 . S
C715 C717 1.433 . S
C716 C712 1.350 . S
C716 C713 1.463 . S
C716 N720 1.427 . S
C717 H707 0.929 . S
C717 C715 1.433 . S
C717 N720 1.384 . S
C718 H709 0.929 . S
C718 C710 1.378 . S
C718 C713 1.350 . S
C719 H706 0.929 1_545 S
C719 C711 1.433 1_545 S
C719 N721 1.384 . S
N720 C716 1.427 . S
N720 C717 1.384 . S
N721 C713 1.427 . S
N721 C719 1.384 . S
H722 C728 0.930 . S
H723 C732 0.930 . S
H724 C737 0.929 . S
H725 C735 0.929 . S
H726 C730 0.929 . S
H727 C736 0.929 . S
C728 H722 0.930 . S
C728 C729 1.367 . S
C728 C736 1.378 . S
C729 C728 1.367 . S
C729 C737 1.433 . S
C730 H726 0.929 . S
C730 C732 1.378 . S
C730 C734 1.350 . S
C731 C734 1.463 . S
C731 C736 1.350 . S
C731 N739 1.427 . S
C732 H723 0.930 . S
C732 C730 1.378 . S
C732 C733 1.367 . S
C733 C732 1.367 . S
C733 C735 1.433 . S
C734 C730 1.350 . S
C734 C731 1.463 . S
C734 N738 1.427 . S
C735 H725 0.929 . S
C735 C733 1.433 . S
C735 N738 1.384 . S
C736 H727 0.929 . S
C736 C728 1.378 . S
C736 C731 1.350 . S
C737 H724 0.929 . S
C737 C729 1.433 . S
C737 N739 1.384 . S
N738 C734 1.427 . S
N738 C735 1.384 . S
N739 C731 1.427 . S
N739 C737 1.384 . S
H740 C746 0.930 1_565 S
H741 C750 0.930 . S
H742 C755 0.929 . S
H743 C753 0.929 . S
H744 C748 0.929 . S
H745 C754 0.929 . S
C746 H740 0.930 1_545 S
C746 C747 1.367 . S
C746 C754 1.378 . S
C747 C746 1.367 . S
C747 C755 1.433 . S
C748 H744 0.929 . S
C748 C750 1.378 . S
C748 C752 1.350 . S
C749 C752 1.463 . S
C749 C754 1.350 . S
C749 N757 1.427 . S
C750 H741 0.930 . S
C750 C748 1.378 . S
C750 C751 1.367 . S
C751 C750 1.367 . S
C751 C753 1.433 . S
C752 C748 1.350 . S
C752 C749 1.463 . S
C752 N756 1.427 . S
C753 H743 0.929 . S
C753 C751 1.433 . S
C753 N756 1.384 . S
C754 H745 0.929 . S
C754 C746 1.378 . S
C754 C749 1.350 . S
C755 H742 0.929 . S
C755 C747 1.433 . S
C755 N757 1.384 . S
N756 C752 1.427 . S
N756 C753 1.384 . S
N757 C749 1.427 . S
N757 C755 1.384 . S
H758 C764 0.930 . S
H759 C768 0.930 . S
H760 C773 0.929 . S
H761 C771 0.929 . S
H762 C766 0.929 . S
H763 C772 0.929 . S
C764 H758 0.930 . S
C764 C765 1.367 . S
C764 C772 1.378 . S
C765 C764 1.367 . S
C765 C773 1.433 . S
C766 H762 0.929 . S
C766 C768 1.378 . S
C766 C770 1.350 . S
C767 C770 1.463 . S
C767 C772 1.350 . S
C767 N775 1.427 . S
C768 H759 0.930 . S
C768 C766 1.378 . S
C768 C769 1.367 . S
C769 C768 1.367 . S
C769 C771 1.433 . S
C770 C766 1.350 . S
C770 C767 1.463 . S
C770 N774 1.427 . S
C771 H761 0.929 . S
C771 C769 1.433 . S
C771 N774 1.384 . S
C772 H763 0.929 . S
C772 C764 1.378 . S
C772 C767 1.350 . S
C773 H760 0.929 . S
C773 C765 1.433 . S
C773 N775 1.384 . S
N774 C770 1.427 . S
N774 C771 1.384 . S
N775 C767 1.427 . S
N775 C773 1.384 . S
H776 C782 0.930 . S
H777 C786 0.930 . S
H778 C791 0.929 . S
H779 C789 0.929 . S
H780 C784 0.929 . S
H781 C790 0.929 . S
C782 H776 0.930 . S
C782 C783 1.367 . S
C782 C790 1.378 . S
C783 C782 1.367 . S
C783 C791 1.433 . S
C784 H780 0.929 . S
C784 C786 1.378 . S
C784 C788 1.350 . S
C785 C788 1.463 . S
C785 C790 1.350 . S
C785 N793 1.427 . S
C786 H777 0.930 . S
C786 C784 1.378 . S
C786 C787 1.367 . S
C787 C786 1.367 . S
C787 C789 1.433 . S
C788 C784 1.350 . S
C788 C785 1.463 . S
C788 N792 1.427 . S
C789 H779 0.929 . S
C789 C787 1.433 . S
C789 N792 1.384 . S
C790 H781 0.929 . S
C790 C782 1.378 . S
C790 C785 1.350 . S
C791 H778 0.929 . S
C791 C783 1.433 . S
C791 N793 1.384 . S
N792 C788 1.427 . S
N792 C789 1.384 . S
N793 C785 1.427 . S
N793 C791 1.384 . S
H794 C800 0.930 . S
H795 C804 0.930 . S
H796 C809 0.929 . S
H797 C807 0.929 1_565 S
H798 C802 0.929 . S
H799 C808 0.929 . S
C800 H794 0.930 . S
C800 C801 1.367 . S
C800 C808 1.378 . S
C801 C800 1.367 . S
C801 C809 1.433 . S
C802 H798 0.929 . S
C802 C804 1.378 . S
C802 C806 1.350 . S
C803 C806 1.463 . S
C803 C808 1.350 . S
C803 N811 1.427 . S
C804 H795 0.930 . S
C804 C802 1.378 . S
C804 C805 1.367 . S
C805 C804 1.367 . S
C805 C807 1.433 . S
C806 C802 1.350 . S
C806 C803 1.463 . S
C806 N810 1.427 . S
C807 H797 0.929 1_545 S
C807 C805 1.433 . S
C807 N810 1.384 . S
C808 H799 0.929 . S
C808 C800 1.378 . S
C808 C803 1.350 . S
C809 H796 0.929 . S
C809 C801 1.433 . S
C809 N811 1.384 . S
N810 C806 1.427 . S
N810 C807 1.384 . S
N811 C803 1.427 . S
N811 C809 1.384 . S
H812 C818 0.930 . S
H813 C822 0.930 . S
H814 C827 0.929 . S
H815 C825 0.929 . S
H816 C820 0.929 . S
H817 C826 0.929 . S
C818 H812 0.930 . S
C818 C819 1.367 . S
C818 C826 1.378 . S
C819 C818 1.367 . S
C819 C827 1.433 . S
C820 H816 0.929 . S
C820 C822 1.378 . S
C820 C824 1.350 . S
C821 C824 1.463 . S
C821 C826 1.350 . S
C821 N829 1.427 . S
C822 H813 0.930 . S
C822 C820 1.378 . S
C822 C823 1.367 . S
C823 C822 1.367 . S
C823 C825 1.433 . S
C824 C820 1.350 . S
C824 C821 1.463 . S
C824 N828 1.427 . S
C825 H815 0.929 . S
C825 C823 1.433 . S
C825 N828 1.384 . S
C826 H817 0.929 . S
C826 C818 1.378 . S
C826 C821 1.350 . S
C827 H814 0.929 . S
C827 C819 1.433 . S
C827 N829 1.384 . S
N828 C824 1.427 . S
N828 C825 1.384 . S
N829 C821 1.427 . S
N829 C827 1.384 . S
H830 C836 0.930 . S
H831 C840 0.930 . S
H832 C845 0.929 . S
H833 C843 0.929 . S
H834 C838 0.929 . S
H835 C844 0.929 . S
C836 H830 0.930 . S
C836 C837 1.367 . S
C836 C844 1.378 . S
C837 C836 1.367 . S
C837 C845 1.433 . S
C838 H834 0.929 . S
C838 C840 1.378 . S
C838 C842 1.350 . S
C839 C842 1.463 . S
C839 C844 1.350 . S
C839 N847 1.427 . S
C840 H831 0.930 . S
C840 C838 1.378 . S
C840 C841 1.367 . S
C841 C840 1.367 . S
C841 C843 1.433 . S
C842 C838 1.350 . S
C842 C839 1.463 . S
C842 N846 1.427 . S
C843 H833 0.929 . S
C843 C841 1.433 . S
C843 N846 1.384 . S
C844 H835 0.929 . S
C844 C836 1.378 . S
C844 C839 1.350 . S
C845 H832 0.929 . S
C845 C837 1.433 . S
C845 N847 1.384 . S
N846 C842 1.427 . S
N846 C843 1.384 . S
N847 C839 1.427 . S
N847 C845 1.384 . S
H848 C854 0.930 . S
H849 C858 0.930 . S
H850 C863 0.929 . S
H851 C861 0.929 . S
H852 C856 0.929 . S
H853 C862 0.929 . S
C854 H848 0.930 . S
C854 C855 1.367 . S
C854 C862 1.378 . S
C855 C854 1.367 . S
C855 C863 1.433 . S
C856 H852 0.929 . S
C856 C858 1.378 . S
C856 C860 1.350 . S
C857 C860 1.463 . S
C857 C862 1.350 . S
C857 N865 1.427 . S
C858 H849 0.930 . S
C858 C856 1.378 . S
C858 C859 1.367 . S
C859 C858 1.367 . S
C859 C861 1.433 . S
C860 C856 1.350 . S
C860 C857 1.463 . S
C860 N864 1.427 . S
C861 H851 0.929 . S
C861 C859 1.433 . S
C861 N864 1.384 . S
C862 H853 0.929 . S
C862 C854 1.378 . S
C862 C857 1.350 . S
C863 H850 0.929 . S
C863 C855 1.433 . S
C863 N865 1.384 . S
N864 C860 1.427 . S
N864 C861 1.384 . S
N865 C857 1.427 . S
N865 C863 1.384 . S
H866 C872 0.930 . S
H867 C876 0.930 . S
H868 C881 0.929 . S
H869 C879 0.929 1_565 S
H870 C874 0.929 . S
H871 C880 0.963 . S
C872 H866 0.930 . S
C872 C873 1.367 . S
C872 C880 1.378 . S
C873 C872 1.367 . S
C873 C881 1.433 . S
C874 H870 0.929 . S
C874 C876 1.378 . S
C874 C878 1.350 1_655 S
C875 C878 1.463 . S
C875 C880 1.350 . S
C875 N883 1.427 . S
C876 H867 0.930 . S
C876 C874 1.378 . S
C876 C877 1.367 . S
C877 C876 1.367 . S
C877 C879 1.433 . S
C878 C874 1.350 1_455 S
C878 C875 1.463 . S
C878 N882 1.427 . S
C879 H869 0.929 1_545 S
C879 C877 1.433 . S
C879 N882 1.384 1_655 S
C880 H871 0.963 . S
C880 C872 1.378 . S
C880 C875 1.350 . S
C881 H868 0.929 . S
C881 C873 1.433 . S
C881 N883 1.384 . S
N882 C878 1.427 . S
N882 C879 1.384 1_455 S
N883 C875 1.427 . S
N883 C881 1.384 . S
H884 C890 0.930 . S
H885 C894 0.930 . S
H886 C899 0.929 . S
H887 C897 0.929 . S
H888 C892 0.929 . S
H889 C898 0.929 . S
C890 H884 0.930 . S
C890 C891 1.367 . S
C890 C898 1.378 . S
C891 C890 1.367 . S
C891 C899 1.433 . S
C892 H888 0.929 . S
C892 C894 1.378 . S
C892 C896 1.350 . S
C893 C896 1.463 . S
C893 C898 1.350 . S
C893 N901 1.427 . S
C894 H885 0.930 . S
C894 C892 1.378 . S
C894 C895 1.367 . S
C895 C894 1.367 . S
C895 C897 1.433 . S
C896 C892 1.350 . S
C896 C893 1.463 . S
C896 N900 1.427 . S
C897 H887 0.929 . S
C897 C895 1.433 . S
C897 N900 1.384 . S
C898 H889 0.929 . S
C898 C890 1.378 . S
C898 C893 1.350 . S
C899 H886 0.929 . S
C899 C891 1.433 . S
C899 N901 1.384 . S
N900 C896 1.427 . S
N900 C897 1.384 . S
N901 C893 1.427 . S
N901 C899 1.384 . S
H902 C908 0.930 1_655 S
H903 C912 0.930 . S
H904 C917 0.929 . S
H905 C915 0.929 . S
H906 C910 0.929 . S
H907 C916 0.929 . S
C908 H902 0.930 1_455 S
C908 C909 1.367 . S
C908 C916 1.378 . S
C909 C908 1.367 . S
C909 C917 1.433 . S
C910 H906 0.929 . S
C910 C912 1.378 . S
C910 C914 1.350 . S
C911 C914 1.463 . S
C911 C916 1.350 . S
C911 N919 1.427 . S
C912 H903 0.930 . S
C912 C910 1.378 . S
C912 C913 1.367 . S
C913 C912 1.367 . S
C913 C915 1.433 . S
C914 C910 1.350 . S
C914 C911 1.463 . S
C914 N918 1.427 . S
C915 H905 0.929 . S
C915 C913 1.433 . S
C915 N918 1.384 . S
C916 H907 0.929 . S
C916 C908 1.378 . S
C916 C911 1.350 . S
C917 H904 0.929 . S
C917 C909 1.433 . S
C917 N919 1.384 . S
N918 C914 1.427 . S
N918 C915 1.384 . S
N919 C911 1.427 . S
N919 C917 1.384 . S
H920 C926 0.930 . S
H921 C930 0.930 . S
H922 C935 0.929 . S
H923 C933 0.929 . S
H924 C928 0.929 . S
H925 C934 0.929 . S
C926 H920 0.930 . S
C926 C927 1.367 . S
C926 C934 1.378 . S
C927 C926 1.367 . S
C927 C935 1.433 . S
C928 H924 0.929 . S
C928 C930 1.378 . S
C928 C932 1.350 . S
C929 C932 1.463 . S
C929 C934 1.350 . S
C929 N937 1.427 . S
C930 H921 0.930 . S
C930 C928 1.378 . S
C930 C931 1.367 . S
C931 C930 1.367 . S
C931 C933 1.433 . S
C932 C928 1.350 . S
C932 C929 1.463 . S
C932 N936 1.427 . S
C933 H923 0.929 . S
C933 C931 1.433 . S
C933 N936 1.384 . S
C934 H925 0.929 . S
C934 C926 1.378 . S
C934 C929 1.350 . S
C935 H922 0.929 . S
C935 C927 1.433 . S
C935 N937 1.384 . S
N936 C932 1.427 . S
N936 C933 1.384 . S
N937 C929 1.427 . S
N937 C935 1.384 . S
H938 C944 0.930 . S
H939 C948 0.930 . S
H940 C953 0.929 . S
H941 C951 0.929 . S
H942 C946 0.929 . S
H943 C952 0.929 1_455 S
C944 H938 0.930 . S
C944 C945 1.367 1_556 S
C944 C952 1.378 . S
C945 C944 1.367 1_554 S
C945 C953 1.433 . S
C946 H942 0.929 . S
C946 C948 1.378 . S
C946 C950 1.350 . S
C947 C950 1.463 . S
C947 C952 1.350 . S
C947 N955 1.427 1_556 S
C948 H939 0.930 . S
C948 C946 1.378 . S
C948 C949 1.367 1_655 S
C949 C948 1.367 1_455 S
C949 C951 1.433 . S
C950 C946 1.350 . S
C950 C947 1.463 . S
C950 N954 1.427 1_655 S
C951 H941 0.929 . S
C951 C949 1.433 . S
C951 N954 1.384 . S
C952 H943 0.929 1_655 S
C952 C944 1.378 . S
C952 C947 1.350 . S
C953 H940 0.929 . S
C953 C945 1.433 . S
C953 N955 1.384 . S
N954 C950 1.427 1_455 S
N954 C951 1.384 . S
N955 C947 1.427 1_554 S
N955 C953 1.384 . S
H956 C962 0.930 . S
H957 C966 0.930 . S
H958 C971 0.929 . S
H959 C969 0.929 . S
H960 C964 0.929 . S
H961 C970 0.929 . S
C962 H956 0.930 . S
C962 C963 1.367 . S
C962 C970 1.378 . S
C963 C962 1.367 . S
C963 C971 1.433 . S
C964 H960 0.929 . S
C964 C966 1.378 . S
C964 C968 1.350 . S
C965 C968 1.463 . S
C965 C970 1.350 . S
C965 N973 1.427 . S
C966 H957 0.930 . S
C966 C964 1.378 . S
C966 C967 1.367 . S
C967 C966 1.367 . S
C967 C969 1.433 . S
C968 C964 1.350 . S
C968 C965 1.463 . S
C968 N972 1.427 . S
C969 H959 0.929 . S
C969 C967 1.433 . S
C969 N972 1.384 . S
C970 H961 0.929 . S
C970 C962 1.378 . S
C970 C965 1.350 . S
C971 H958 0.929 . S
C971 C963 1.433 . S
C971 N973 1.384 . S
N972 C968 1.427 . S
N972 C969 1.384 . S
N973 C965 1.427 . S
N973 C971 1.384 . S
H974 C980 0.930 . S
H975 C984 0.930 . S
H976 C989 0.929 . S
H977 C987 0.929 . S
H978 C982 0.929 . S
H979 C988 0.929 . S
C980 H974 0.930 . S
C980 C981 1.367 . S
C980 C988 1.378 . S
C981 C980 1.367 . S
C981 C989 1.433 1_554 S
C982 H978 0.929 . S
C982 C984 1.378 . S
C982 C986 1.350 . S
C983 C986 1.463 . S
C983 C988 1.350 1_556 S
C983 N991 1.427 . S
C984 H975 0.930 . S
C984 C982 1.378 . S
C984 C985 1.367 . S
C985 C984 1.367 . S
C985 C987 1.433 . S
C986 C982 1.350 . S
C986 C983 1.463 . S
C986 N990 1.427 . S
C987 H977 0.929 . S
C987 C985 1.433 . S
C987 N990 1.384 . S
C988 H979 0.929 . S
C988 C980 1.378 . S
C988 C983 1.350 1_554 S
C989 H976 0.929 . S
C989 C981 1.433 1_556 S
C989 N991 1.384 . S
N990 C986 1.427 . S
N990 C987 1.384 . S
N991 C983 1.427 . S
N991 C989 1.384 . S
H992 C998 0.930 . S
H993 C1002 0.930 . S
H994 C1007 0.929 . S
H995 C1005 0.929 . S
H996 C1000 0.929 . S
H997 C1006 0.929 . S
C998 H992 0.930 . S
C998 C999 1.367 . S
C998 C1006 1.378 . S
C999 C998 1.367 . S
C999 C1007 1.433 . S
C1000 H996 0.929 . S
C1000 C1002 1.378 . S
C1000 C1004 1.350 . S
C1001 C1004 1.463 . S
C1001 C1006 1.350 . S
C1001 N1009 1.427 . S
C1002 H993 0.930 . S
C1002 C1000 1.378 . S
C1002 C1003 1.367 . S
C1003 C1002 1.367 . S
C1003 C1005 1.433 . S
C1004 C1000 1.350 . S
C1004 C1001 1.463 . S
C1004 N1008 1.427 . S
C1005 H995 0.929 . S
C1005 C1003 1.433 . S
C1005 N1008 1.384 . S
C1006 H997 0.929 . S
C1006 C998 1.378 . S
C1006 C1001 1.350 . S
C1007 H994 0.929 . S
C1007 C999 1.433 . S
C1007 N1009 1.384 . S
N1008 C1004 1.427 . S
N1008 C1005 1.384 . S
N1009 C1001 1.427 . S
N1009 C1007 1.384 . S
H1010 C1016 0.930 . S
H1011 C1020 0.930 . S
H1012 C1025 0.959 . S
H1013 C1023 0.929 . S
H1014 C1018 0.929 . S
H1015 C1024 0.929 . S
C1016 H1010 0.930 . S
C1016 C1017 1.367 . S
C1016 C1024 1.378 . S
C1017 C1016 1.367 . S
C1017 C1025 1.433 . S
C1018 H1014 0.929 . S
C1018 C1020 1.378 . S
C1018 C1022 1.350 . S
C1019 C1022 1.463 . S
C1019 C1024 1.350 . S
C1019 N1027 1.427 . S
C1020 H1011 0.930 . S
C1020 C1018 1.378 . S
C1020 C1021 1.367 . S
C1021 C1020 1.367 . S
C1021 C1023 1.433 . S
C1022 C1018 1.350 . S
C1022 C1019 1.463 . S
C1022 N1026 1.427 . S
C1023 H1013 0.929 . S
C1023 C1021 1.433 . S
C1023 N1026 1.384 . S
C1024 H1015 0.929 . S
C1024 C1016 1.378 . S
C1024 C1019 1.350 . S
C1025 H1012 0.959 . S
C1025 C1017 1.433 . S
C1025 N1027 1.384 . S
N1026 C1022 1.427 . S
N1026 C1023 1.384 . S
N1027 C1019 1.427 . S
N1027 C1025 1.384 . S
H1028 C1034 0.930 . S
H1029 C1038 0.930 . S
H1030 C1043 0.929 . S
H1031 C1041 0.929 . S
H1032 C1036 0.929 . S
H1033 C1042 0.929 . S
C1034 H1028 0.930 . S
C1034 C1035 1.367 . S
C1034 C1042 1.378 . S
C1035 C1034 1.367 . S
C1035 C1043 1.433 . S
C1036 H1032 0.929 . S
C1036 C1038 1.378 . S
C1036 C1040 1.350 . S
C1037 C1040 1.463 . S
C1037 C1042 1.350 . S
C1037 N1045 1.427 . S
C1038 H1029 0.930 . S
C1038 C1036 1.378 . S
C1038 C1039 1.367 . S
C1039 C1038 1.367 . S
C1039 C1041 1.433 . S
C1040 C1036 1.350 . S
C1040 C1037 1.463 . S
C1040 N1044 1.427 . S
C1041 H1031 0.929 . S
C1041 C1039 1.433 . S
C1041 N1044 1.384 . S
C1042 H1033 0.929 . S
C1042 C1034 1.378 . S
C1042 C1037 1.350 . S
C1043 H1030 0.929 . S
C1043 C1035 1.433 . S
C1043 N1045 1.384 . S
N1044 C1040 1.427 . S
N1044 C1041 1.384 . S
N1045 C1037 1.427 . S
N1045 C1043 1.384 . S
H1046 C1052 0.930 . S
H1047 C1056 0.930 . S
H1048 C1061 0.929 1_556 S
H1049 C1059 0.929 . S
H1050 C1054 0.929 . S
H1051 C1060 0.929 . S
C1052 H1046 0.930 . S
C1052 C1053 1.367 . S
C1052 C1060 1.378 1_556 S
C1053 C1052 1.367 . S
C1053 C1061 1.433 1_556 S
C1054 H1050 0.929 . S
C1054 C1056 1.378 . S
C1054 C1058 1.350 . S
C1055 C1058 1.463 . S
C1055 C1060 1.350 . S
C1055 N1063 1.427 . S
C1056 H1047 0.930 . S
C1056 C1054 1.378 . S
C1056 C1057 1.367 . S
C1057 C1056 1.367 . S
C1057 C1059 1.433 . S
C1058 C1054 1.350 . S
C1058 C1055 1.463 . S
C1058 N1062 1.427 . S
C1059 H1049 0.929 . S
C1059 C1057 1.433 . S
C1059 N1062 1.384 . S
C1060 H1051 0.929 . S
C1060 C1052 1.378 1_554 S
C1060 C1055 1.350 . S
C1061 H1048 0.929 1_554 S
C1061 C1053 1.433 1_554 S
C1061 N1063 1.384 . S
N1062 C1058 1.427 . S
N1062 C1059 1.384 . S
N1063 C1055 1.427 . S
N1063 C1061 1.384 . S
H1064 C1070 0.930 . S
H1065 C1074 0.930 . S
H1066 C1079 0.929 . S
H1067 C1077 0.929 . S
H1068 C1072 0.929 . S
H1069 C1078 0.929 . S
C1070 H1064 0.930 . S
C1070 C1071 1.367 . S
C1070 C1078 1.378 . S
C1071 C1070 1.367 . S
C1071 C1079 1.433 . S
C1072 H1068 0.929 . S
C1072 C1074 1.378 . S
C1072 C1076 1.350 . S
C1073 C1076 1.463 . S
C1073 C1078 1.350 . S
C1073 N1081 1.427 . S
C1074 H1065 0.930 . S
C1074 C1072 1.378 . S
C1074 C1075 1.367 . S
C1075 C1074 1.367 . S
C1075 C1077 1.433 . S
C1076 C1072 1.350 . S
C1076 C1073 1.463 . S
C1076 N1080 1.427 . S
C1077 H1067 0.929 . S
C1077 C1075 1.433 . S
C1077 N1080 1.384 . S
C1078 H1069 0.929 . S
C1078 C1070 1.378 . S
C1078 C1073 1.350 . S
C1079 H1066 0.929 . S
C1079 C1071 1.433 . S
C1079 N1081 1.384 . S
N1080 C1076 1.427 . S
N1080 C1077 1.384 . S
N1081 C1073 1.427 . S
N1081 C1079 1.384 . S
H1082 C1088 0.930 . S
H1083 C1092 0.930 . S
H1084 C1097 0.929 . S
H1085 C1095 0.929 . S
H1086 C1090 0.929 . S
H1087 C1096 0.929 . S
C1088 H1082 0.930 . S
C1088 C1089 1.367 . S
C1088 C1096 1.378 . S
C1089 C1088 1.367 . S
C1089 C1097 1.433 . S
C1090 H1086 0.929 . S
C1090 C1092 1.378 . S
C1090 C1094 1.350 . S
C1091 C1094 1.463 . S
C1091 C1096 1.350 . S
C1091 N1099 1.427 . S
C1092 H1083 0.930 . S
C1092 C1090 1.378 . S
C1092 C1093 1.367 . S
C1093 C1092 1.367 . S
C1093 C1095 1.433 . S
C1094 C1090 1.350 . S
C1094 C1091 1.463 . S
C1094 N1098 1.427 . S
C1095 H1085 0.929 . S
C1095 C1093 1.433 . S
C1095 N1098 1.384 . S
C1096 H1087 0.929 . S
C1096 C1088 1.378 . S
C1096 C1091 1.350 . S
C1097 H1084 0.929 . S
C1097 C1089 1.433 . S
C1097 N1099 1.384 . S
N1098 C1094 1.427 . S
N1098 C1095 1.384 . S
N1099 C1091 1.427 . S
N1099 C1097 1.384 . S
H1100 C1106 0.930 . S
H1101 C1110 0.930 . S
H1102 C1115 0.929 . S
H1103 C1113 0.929 . S
H1104 C1108 0.929 . S
H1105 C1114 0.929 . S
C1106 H1100 0.930 . S
C1106 C1107 1.367 . S
C1106 C1114 1.378 . S
C1107 C1106 1.367 . S
C1107 C1115 1.433 . S
C1108 H1104 0.929 . S
C1108 C1110 1.378 . S
C1108 C1112 1.350 . S
C1109 C1112 1.463 . S
C1109 C1114 1.350 . S
C1109 N1117 1.427 . S
C1110 H1101 0.930 . S
C1110 C1108 1.378 . S
C1110 C1111 1.367 . S
C1111 C1110 1.367 . S
C1111 C1113 1.433 . S
C1112 C1108 1.350 . S
C1112 C1109 1.463 . S
C1112 N1116 1.427 . S
C1113 H1103 0.929 . S
C1113 C1111 1.433 . S
C1113 N1116 1.384 . S
C1114 H1105 0.929 . S
C1114 C1106 1.378 . S
C1114 C1109 1.350 . S
C1115 H1102 0.929 . S
C1115 C1107 1.433 . S
C1115 N1117 1.384 . S
N1116 C1112 1.427 . S
N1116 C1113 1.384 . S
N1117 C1109 1.427 . S
N1117 C1115 1.384 . S
H1118 C1124 0.930 . S
H1119 C1128 0.930 . S
H1120 C1133 0.929 . S
H1121 C1131 0.929 . S
H1122 C1126 0.929 . S
H1123 C1132 0.929 . S
C1124 H1118 0.930 . S
C1124 C1125 1.367 . S
C1124 C1132 1.378 . S
C1125 C1124 1.367 . S
C1125 C1133 1.433 . S
C1126 H1122 0.929 . S
C1126 C1128 1.378 . S
C1126 C1130 1.350 . S
C1127 C1130 1.463 . S
C1127 C1132 1.350 . S
C1127 N1135 1.427 . S
C1128 H1119 0.930 . S
C1128 C1126 1.378 . S
C1128 C1129 1.367 . S
C1129 C1128 1.367 . S
C1129 C1131 1.433 . S
C1130 C1126 1.350 . S
C1130 C1127 1.463 . S
C1130 N1134 1.427 . S
C1131 H1121 0.929 . S
C1131 C1129 1.433 . S
C1131 N1134 1.384 . S
C1132 H1123 0.929 . S
C1132 C1124 1.378 . S
C1132 C1127 1.350 . S
C1133 H1120 0.929 . S
C1133 C1125 1.433 . S
C1133 N1135 1.384 . S
N1134 C1130 1.427 . S
N1134 C1131 1.384 . S
N1135 C1127 1.427 . S
N1135 C1133 1.384 . S
H1136 C1142 0.930 . S
H1137 C1146 0.930 . S
H1138 C1151 0.897 1_554 S
H1139 C1149 0.929 . S
H1140 C1144 0.929 . S
H1141 C1150 0.929 . S
C1142 H1136 0.930 . S
C1142 C1143 1.367 . S
C1142 C1150 1.378 . S
C1143 C1142 1.367 . S
C1143 C1151 1.462 . S
C1144 H1140 0.929 . S
C1144 C1146 1.378 . S
C1144 C1148 1.350 1_554 S
C1145 C1148 1.463 . S
C1145 C1150 1.350 . S
C1145 N1153 1.427 1_556 S
C1146 H1137 0.930 . S
C1146 C1144 1.378 . S
C1146 C1147 1.367 1_554 S
C1147 C1146 1.367 1_556 S
C1147 C1149 1.433 . S
C1148 C1144 1.350 1_556 S
C1148 C1145 1.463 . S
C1148 N1152 1.427 . S
C1149 H1139 0.929 . S
C1149 C1147 1.433 . S
C1149 N1152 1.384 . S
C1150 H1141 0.929 . S
C1150 C1142 1.378 . S
C1150 C1145 1.350 . S
C1151 H1138 0.897 1_556 S
C1151 C1143 1.462 . S
C1151 N1153 1.389 1_556 S
N1152 C1148 1.427 . S
N1152 C1149 1.384 . S
N1153 C1145 1.427 1_554 S
N1153 C1151 1.389 1_554 S
H1154 C1160 0.930 . S
H1155 C1164 0.930 . S
H1156 C1169 0.929 . S
H1157 C1167 0.929 . S
H1158 C1162 0.929 . S
H1159 C1168 0.929 . S
C1160 H1154 0.930 . S
C1160 C1161 1.367 . S
C1160 C1168 1.378 . S
C1161 C1160 1.367 . S
C1161 C1169 1.433 . S
C1162 H1158 0.929 . S
C1162 C1164 1.378 . S
C1162 C1166 1.350 . S
C1163 C1166 1.463 . S
C1163 C1168 1.350 . S
C1163 N1171 1.427 . S
C1164 H1155 0.930 . S
C1164 C1162 1.378 . S
C1164 C1165 1.367 . S
C1165 C1164 1.367 . S
C1165 C1167 1.433 . S
C1166 C1162 1.350 . S
C1166 C1163 1.463 . S
C1166 N1170 1.427 . S
C1167 H1157 0.929 . S
C1167 C1165 1.433 . S
C1167 N1170 1.384 . S
C1168 H1159 0.929 . S
C1168 C1160 1.378 . S
C1168 C1163 1.350 . S
C1169 H1156 0.929 . S
C1169 C1161 1.433 . S
C1169 N1171 1.384 . S
N1170 C1166 1.427 . S
N1170 C1167 1.384 . S
N1171 C1163 1.427 . S
N1171 C1169 1.384 . S
H1172 C1178 0.930 . S
H1173 C1182 0.930 1_556 S
H1174 C1187 0.929 . S
H1175 C1185 0.929 . S
H1176 C1180 0.929 . S
H1177 C1186 0.929 . S
C1178 H1172 0.930 . S
C1178 C1179 1.367 . S
C1178 C1186 1.378 . S
C1179 C1178 1.367 . S
C1179 C1187 1.433 . S
C1180 H1176 0.929 . S
C1180 C1182 1.378 . S
C1180 C1184 1.350 . S
C1181 C1184 1.463 . S
C1181 C1186 1.350 . S
C1181 N1189 1.427 . S
C1182 H1173 0.930 1_554 S
C1182 C1180 1.378 . S
C1182 C1183 1.367 . S
C1183 C1182 1.367 . S
C1183 C1185 1.433 . S
C1184 C1180 1.350 . S
C1184 C1181 1.463 . S
C1184 N1188 1.427 . S
C1185 H1175 0.929 . S
C1185 C1183 1.433 . S
C1185 N1188 1.384 . S
C1186 H1177 0.929 . S
C1186 C1178 1.378 . S
C1186 C1181 1.350 . S
C1187 H1174 0.929 . S
C1187 C1179 1.433 . S
C1187 N1189 1.384 . S
N1188 C1184 1.427 . S
N1188 C1185 1.384 . S
N1189 C1181 1.427 . S
N1189 C1187 1.384 . S
H1190 C1196 0.930 . S
H1191 C1200 0.930 . S
H1192 C1205 0.929 . S
H1193 C1203 0.929 . S
H1194 C1198 0.929 . S
H1195 C1204 0.929 . S
C1196 H1190 0.930 . S
C1196 C1197 1.367 . S
C1196 C1204 1.378 1_545 S
C1197 C1196 1.367 . S
C1197 C1205 1.433 . S
C1198 H1194 0.929 . S
C1198 C1200 1.378 . S
C1198 C1202 1.350 . S
C1199 C1202 1.463 . S
C1199 C1204 1.350 . S
C1199 N1207 1.427 . S
C1200 H1191 0.930 . S
C1200 C1198 1.378 . S
C1200 C1201 1.367 . S
C1201 C1200 1.367 . S
C1201 C1203 1.433 . S
C1202 C1198 1.350 . S
C1202 C1199 1.463 . S
C1202 N1206 1.427 . S
C1203 H1193 0.929 . S
C1203 C1201 1.433 . S
C1203 N1206 1.384 . S
C1204 H1195 0.929 . S
C1204 C1196 1.378 1_565 S
C1204 C1199 1.350 . S
C1205 H1192 0.929 . S
C1205 C1197 1.433 . S
C1205 N1207 1.384 1_545 S
N1206 C1202 1.427 . S
N1206 C1203 1.384 . S
N1207 C1199 1.427 . S
N1207 C1205 1.384 1_565 S
C355 C184 1.589 . S
C351 C60 1.629 . S
C373 C197 1.314 . S
C369 C76 1.317 . S
C387 C81 1.807 . S
C391 C217 1.669 . S
C409 C231 1.412 . S
C405 C48 1.509 . S
C427 C243 1.530 . S
C423 C115 1.533 . S
C445 C257 1.531 . S
C441 C136 1.540 . S
C459 C131 1.317 . S
C463 C267 1.303 . S
C481 C282 1.544 . S
C477 C104 1.551 . S
C495 C126 1.499 . S
C499 C296 1.454 . S
C517 C315 1.249 . S
C513 C103 1.330 . S
C531 C120 1.407 . S
C535 C295 1.397 . S
C553 C313 1.369 . S
C549 C142 1.371 . S
C567 C82 1.651 . S
C571 C329 1.532 . S
C585 C54 1.781 . S
C589 C323 1.773 . S
C603 C65 1.443 . S
C607 C327 1.444 . S
C621 C71 1.295 . S
C625 C324 1.290 . S
C639 C37 1.572 . S
C643 C226 1.539 . S
C657 C158 1.896 . S
C661 C225 1.885 . S
C679 C189 1.295 . S
C675 C169 1.348 . S
C697 C203 1.332 . S
C693 C98 1.434 . S
C711 C49 1.720 . S
C715 C240 1.731 . S
C733 C285 1.454 . S
C729 C125 1.463 . S
C751 C239 1.360 . S
C747 C109 1.362 . S
C769 C271 1.709 . S
C765 C137 1.705 . S
C787 C268 1.587 . S
C783 C159 1.630 . S
C801 C175 1.318 . S
C805 C281 1.313 . S
C819 C92 1.807 . S
C823 C245 1.670 . S
C841 C259 1.409 . S
C837 C147 1.509 . S
C855 C38 1.534 . S
C859 C215 1.534 . S
C877 C229 1.532 . S
C873 C4 1.540 . S
C895 C183 1.302 . S
C891 C21 1.319 . S
C913 C198 1.545 . S
C909 C27 1.551 1_455 S
C927 C16 1.497 . S
C931 C310 1.443 . S
C945 C26 1.328 . S
C949 C301 1.253 . S
C963 C43 1.408 . S
C967 C309 1.394 . S
C981 C10 1.373 . S
C985 C299 1.365 . S
C1003 C343 1.548 . S
C999 C93 1.656 . S
C1021 C337 1.771 . S
C1017 C153 1.780 . S
C1039 C341 1.444 . S
C1035 C164 1.443 . S
C1053 C170 1.299 . S
C1057 C338 1.298 . S
C1071 C114 1.572 . S
C1075 C254 1.540 . S
C1093 C253 1.891 . S
C1089 C59 1.899 . S
C1111 C273 1.279 . S
C1107 C70 1.347 . S
C1129 C287 1.322 . S
C1125 C87 1.430 . S
C1143 C148 1.719 . S
C1147 C212 1.730 . S
C1165 C201 1.459 . S
C1161 C15 1.463 . S
C1179 C32 1.359 . S
C1183 C211 1.354 . S
C1201 C187 1.710 . S
C1197 C5 1.699 . S
