# Generated by pormake.
# Topology nom, (4,4)-cn, num edge types: 1
# Building blocks:
#     Node 0, Type 0, BuildingBlock: GIZVER_clean_linker_0, # of connection points: 4
#     Node 1, Type 0, BuildingBlock: GIZVER_clean_linker_0, # of connection points: 4
#     Node 2, Type 0, BuildingBlock: GIZVER_clean_linker_0, # of connection points: 4
#     Node 3, Type 0, BuildingBlock: GIZVER_clean_linker_0, # of connection points: 4
#     Node 4, Type 0, BuildingBlock: GIZVER_clean_linker_0, # of connection points: 4
#     Node 5, Type 0, BuildingBlock: GIZVER_clean_linker_0, # of connection points: 4
#     Node 6, Type 1, BuildingBlock: UXUYUI_clean_sbu_0, # of connection points: 4
#     Node 7, Type 1, BuildingBlock: UXUYUI_clean_sbu_0, # of connection points: 4
#     Node 8, Type 1, BuildingBlock: UXUYUI_clean_sbu_0, # of connection points: 4
#     Node 9, Type 1, BuildingBlock: UXUYUI_clean_sbu_0, # of connection points: 4
#     Node 10, Type 1, BuildingBlock: UXUYUI_clean_sbu_0, # of connection points: 4
#     Node 11, Type 1, BuildingBlock: UXUYUI_clean_sbu_0, # of connection points: 4
#     Edge 12, Type (0, 1), BuildingBlock: EZIPEK_clean_linker_0, # of connection points: 2
#     Edge 13, Type (0, 1), BuildingBlock: EZIPEK_clean_linker_0, # of connection points: 2
#     Edge 14, Type (0, 1), BuildingBlock: EZIPEK_clean_linker_0, # of connection points: 2
#     Edge 15, Type (0, 1), BuildingBlock: EZIPEK_clean_linker_0, # of connection points: 2
#     Edge 16, Type (0, 1), BuildingBlock: EZIPEK_clean_linker_0, # of connection points: 2
#     Edge 17, Type (0, 1), BuildingBlock: EZIPEK_clean_linker_0, # of connection points: 2
#     Edge 18, Type (0, 1), BuildingBlock: EZIPEK_clean_linker_0, # of connection points: 2
#     Edge 19, Type (0, 1), BuildingBlock: EZIPEK_clean_linker_0, # of connection points: 2
#     Edge 20, Type (0, 1), BuildingBlock: EZIPEK_clean_linker_0, # of connection points: 2
#     Edge 21, Type (0, 1), BuildingBlock: EZIPEK_clean_linker_0, # of connection points: 2
#     Edge 22, Type (0, 1), BuildingBlock: EZIPEK_clean_linker_0, # of connection points: 2
#     Edge 23, Type (0, 1), BuildingBlock: EZIPEK_clean_linker_0, # of connection points: 2
#     Edge 24, Type (0, 1), BuildingBlock: EZIPEK_clean_linker_0, # of connection points: 2
#     Edge 25, Type (0, 1), BuildingBlock: EZIPEK_clean_linker_0, # of connection points: 2
#     Edge 26, Type (0, 1), BuildingBlock: EZIPEK_clean_linker_0, # of connection points: 2
#     Edge 27, Type (0, 1), BuildingBlock: EZIPEK_clean_linker_0, # of connection points: 2
#     Edge 28, Type (0, 1), BuildingBlock: EZIPEK_clean_linker_0, # of connection points: 2
#     Edge 29, Type (0, 1), BuildingBlock: EZIPEK_clean_linker_0, # of connection points: 2
#     Edge 30, Type (0, 1), BuildingBlock: EZIPEK_clean_linker_0, # of connection points: 2
#     Edge 31, Type (0, 1), BuildingBlock: EZIPEK_clean_linker_0, # of connection points: 2
#     Edge 32, Type (0, 1), BuildingBlock: EZIPEK_clean_linker_0, # of connection points: 2
#     Edge 33, Type (0, 1), BuildingBlock: EZIPEK_clean_linker_0, # of connection points: 2
#     Edge 34, Type (0, 1), BuildingBlock: EZIPEK_clean_linker_0, # of connection points: 2
#     Edge 35, Type (0, 1), BuildingBlock: EZIPEK_clean_linker_0, # of connection points: 2
# Relax obj value: 0.036
# Max RMSD: 0.149
# Mean RMSD: 0.105
data_MOF--net-nom--node1-UXUYUI_clean_sbu_0--node2-GIZVER_clean_linker_0--edge1-EZIPEK_clean_linker_0
_symmetry_space_group_name_H-M    P1
_symmetry_Int_Tables_number       1
_symmetry_cell_setting            triclinic
loop_
_symmetry_equiv_pos_as_xyz
'x, y, z'
_cell_length_a     45.04227
_cell_length_b     45.0851
_cell_length_c     44.856604
_cell_angle_alpha  90.009963
_cell_angle_beta   90.017637
_cell_angle_gamma 120.00003
loop_
_atom_site_label
_atom_site_type_symbol
_atom_site_fract_x
_atom_site_fract_y
_atom_site_fract_z
_atom_type_partial_charge
H0 H 0.97043 0.56548 0.3664 0.0
H1 H 1.00168 0.56162 0.27625 0.0
H2 H 0.90039 0.48834 0.30595 0.0
H3 H 0.01928 0.61462 0.3458 0.0
H4 H 0.02537 0.61681 0.30652 0.0
H5 H 0.04068 0.57813 0.37571 0.0
H6 H 0.14531 0.614 0.35086 0.0
H7 H 0.07788 0.62374 0.28924 0.0
C8 C 0.96557 0.55273 0.34499 0.0
C9 C 0.93295 0.5246 0.33903 0.0
C10 C 0.99073 0.56624 0.32243 0.0
C11 C 0.98319 0.55049 0.29418 0.0
C12 C 0.95061 0.52233 0.2883 0.0
C13 C 0.92597 0.50922 0.3109 0.0
C14 C 0.02241 0.60092 0.3265 0.0
C15 C 0.05475 0.5992 0.33123 0.0
C16 C 0.06066 0.58834 0.35893 0.0
C17 C 0.09348 0.59404 0.3661 0.0
C18 C 0.11976 0.60876 0.34498 0.0
C19 C 0.11417 0.61908 0.3172 0.0
C20 C 0.0816 0.61407 0.31019 0.0
H21 H 0.41838 0.96623 0.53197 0.0
H22 H 0.46034 1.00212 0.44424 0.0
H23 H 0.42813 0.89873 0.47045 0.0
H24 H 0.42154 0.01721 0.51321 0.0
H25 H 0.42581 0.02399 0.47403 0.0
H26 H 0.47841 0.03822 0.54384 0.0
H27 H 0.54932 0.14225 0.5191 0.0
H28 H 0.47266 0.07567 0.45669 0.0
C29 C 0.42752 0.96233 0.5108 0.0
C30 C 0.42317 0.92997 0.50407 0.0
C31 C 0.44111 0.9887 0.48932 0.0
C32 C 0.45121 0.98254 0.46136 0.0
C33 C 0.4462 0.94995 0.45448 0.0
C34 C 0.43285 0.92414 0.47607 0.0
C35 C 0.43848 0.02049 0.49394 0.0
C36 C 0.47271 0.05246 0.49903 0.0
C37 C 0.48888 0.05813 0.52701 0.0
C38 C 0.51635 0.09065 0.5343 0.0
C39 C 0.52878 0.11687 0.51311 0.0
C40 C 0.51343 0.11151 0.48506 0.0
C41 C 0.48559 0.0792 0.47788 0.0
H42 H 0.42283 0.4713 0.62047 0.0
H43 H 0.46445 0.48005 0.70879 0.0
H44 H 0.43299 0.55082 0.67938 0.0
H45 H 0.42655 0.42437 0.64058 0.0
H46 H 0.43009 0.42282 0.67996 0.0
H47 H 0.48418 0.46011 0.61074 0.0
H48 H 0.55495 0.42793 0.63844 0.0
H49 H 0.47602 0.41719 0.69839 0.0
C50 C 0.43208 0.48509 0.64131 0.0
C51 C 0.42775 0.51333 0.64702 0.0
C52 C 0.44562 0.473 0.66348 0.0
C53 C 0.45558 0.49008 0.69109 0.0
C54 C 0.4509 0.51811 0.69684 0.0
C55 C 0.43771 0.52995 0.67455 0.0
C56 C 0.44311 0.4385 0.65991 0.0
C57 C 0.47748 0.44073 0.65583 0.0
C58 C 0.4944 0.4511 0.62817 0.0
C59 C 0.52236 0.44644 0.62195 0.0
C60 C 0.53427 0.43282 0.64376 0.0
C61 C 0.51782 0.42243 0.67132 0.0
C62 C 0.48972 0.42682 0.67756 0.0
H63 H 0.96842 0.41761 0.78951 0.0
H64 H 1.00705 0.46531 0.87505 0.0
H65 H 0.90258 0.43078 0.85042 0.0
H66 H 0.02139 0.42479 0.80641 0.0
H67 H 0.02691 0.42707 0.84573 0.0
H68 H 0.04476 0.48227 0.77736 0.0
H69 H 0.14705 0.55281 0.80703 0.0
H70 H 0.07719 0.47358 0.86589 0.0
C71 C 0.96519 0.42819 0.81014 0.0
C72 C 0.93291 0.42392 0.81713 0.0
C73 C 0.99232 0.44339 0.83089 0.0
C74 C 0.98693 0.45508 0.85837 0.0
C75 C 0.95446 0.45037 0.86547 0.0
C76 C 0.92795 0.43547 0.84455 0.0
C77 C 0.02415 0.44079 0.82625 0.0
C78 C 0.0564 0.47511 0.82269 0.0
C79 C 0.06363 0.49226 0.7951 0.0
C80 C 0.09642 0.52023 0.78944 0.0
C81 C 0.12138 0.532 0.8118 0.0
C82 C 0.11454 0.51542 0.83935 0.0
C83 C 0.08189 0.48729 0.845 0.0
H84 H 0.62758 0.07453 0.03179 0.0
H85 H 0.58476 0.03746 0.94447 0.0
H86 H 0.61447 0.14025 0.97066 0.0
H87 H 0.62352 0.02301 0.014 0.0
H88 H 0.62059 0.0168 0.97473 0.0
H89 H 0.56662 0.99971 0.04383 0.0
H90 H 0.49471 0.89753 0.01505 0.0
H91 H 0.57364 0.96622 0.9553 0.0
C92 C 0.61762 0.07789 0.01084 0.0
C93 C 0.62116 0.10991 0.00407 0.0
C94 C 0.60406 0.05131 0.98952 0.0
C95 C 0.59348 0.05702 0.9616 0.0
C96 C 0.59723 0.08914 0.95485 0.0
C97 C 0.61031 0.11504 0.97635 0.0
C98 C 0.60714 0.01979 0.9943 0.0
C99 C 0.57294 0.98753 -0.00155 0.0
C100 C 0.55624 0.98069 0.02624 0.0
C101 C 0.52801 0.94819 0.03219 0.0
C102 C 0.5157 0.92301 0.01002 0.0
C103 C 0.53196 0.9294 0.98233 0.0
C104 C 0.56027 0.96183 0.97635 0.0
H105 H 0.62518 0.57057 0.11969 0.0
H106 H 0.58722 0.5635 0.20924 0.0
H107 H 0.61645 0.49152 0.1785 0.0
H108 H 0.62314 0.61832 0.1405 0.0
H109 H 0.61964 0.61995 0.17991 0.0
H110 H 0.56515 0.58139 0.11098 0.0
H111 H 0.49372 0.61289 0.13835 0.0
H112 H 0.57376 0.62584 0.19802 0.0
C113 C 0.61675 0.55716 0.14076 0.0
C114 C 0.62111 0.52889 0.14623 0.0
C115 C 0.60429 0.56977 0.16341 0.0
C116 C 0.59528 0.5531 0.19123 0.0
C117 C 0.59962 0.52482 0.19659 0.0
C118 C 0.6119 0.51256 0.17392 0.0
C119 C 0.60667 0.60421 0.15987 0.0
C120 C 0.57219 0.60171 0.15576 0.0
C121 C 0.555 0.59067 0.12825 0.0
C122 C 0.52672 0.59478 0.12199 0.0
C123 C 0.51475 0.60852 0.14366 0.0
C124 C 0.53146 0.61957 0.17106 0.0
C125 C 0.55992 0.61576 0.17731 0.0
Li126 Li 0.63763 0.41359 0.43756 0.0
Li127 Li 0.62894 0.36226 0.41191 0.0
Li128 Li 0.68268 0.41283 0.40791 0.0
Li129 Li 0.63259 0.40843 0.38089 0.0
C130 C 0.65112 0.37109 0.47204 0.0
N131 N 0.62916 0.33813 0.52628 0.0
C132 C 0.61615 0.35259 0.47872 0.0
C133 C 0.67493 0.37279 0.49295 0.0
C134 C 0.60555 0.3361 0.50624 0.0
C135 C 0.66332 0.35598 0.52025 0.0
C136 C 0.56397 0.3624 0.40814 0.0
C137 C 0.51471 0.33223 0.37608 0.0
N138 N 0.49383 0.32355 0.40029 0.0
C139 C 0.54198 0.35354 0.43266 0.0
C140 C 0.55022 0.35199 0.37957 0.0
C141 C 0.50662 0.33374 0.42825 0.0
C142 C 0.59803 0.43778 0.46308 0.0
N143 N 0.62365 0.43118 0.46965 0.0
C144 C 0.62022 0.44177 0.52134 0.0
C145 C 0.63571 0.43407 0.49792 0.0
C146 C 0.59243 0.44671 0.5153 0.0
C147 C 0.58195 0.44571 0.48575 0.0
H148 H 0.58905 0.43529 0.44035 0.0
H149 H 0.6563 0.42897 0.50249 0.0
C150 C 0.62351 0.30012 0.43206 0.0
N151 N 0.60693 0.31287 0.41572 0.0
C152 C 0.60734 0.26529 0.43897 0.0
C153 C 0.55849 0.25655 0.40985 0.0
C154 C 0.57551 0.29164 0.40371 0.0
C155 C 0.57407 0.24336 0.4285 0.0
H156 H 0.64894 0.31719 0.44055 0.0
H157 H 0.56326 0.30185 0.38984 0.0
C158 C 0.69615 0.47683 0.40458 0.0
N159 N 0.75833 0.53679 0.40033 0.0
C160 C 0.7097 0.49057 0.37662 0.0
C161 C 0.71409 0.49356 0.43039 0.0
C162 C 0.74123 0.52091 0.37494 0.0
C163 C 0.74554 0.52386 0.42776 0.0
C164 C 0.65149 0.35256 0.36211 0.0
C165 C 0.67254 0.33938 0.37034 0.0
C166 C 0.6248 0.33468 0.34184 0.0
C167 C 0.66624 0.30815 0.35835 0.0
C168 C 0.61935 0.30355 0.33033 0.0
N169 N 0.63998 0.29102 0.33879 0.0
C170 C 0.75298 0.44374 0.4271 0.0
C171 C 0.74266 0.43605 0.37503 0.0
C172 C 0.78844 0.45986 0.42236 0.0
N173 N 0.73103 0.43248 0.40349 0.0
C174 C 0.77773 0.45194 0.36931 0.0
C175 C 0.80097 0.46416 0.39311 0.0
H176 H 0.74297 0.44079 0.4495 0.0
H177 H 0.72461 0.4271 0.35671 0.0
C178 C 0.59644 0.43628 0.35298 0.0
N179 N 0.61807 0.42395 0.34791 0.0
C180 C 0.58839 0.45193 0.32997 0.0
C181 C 0.62464 0.44135 0.29699 0.0
C182 C 0.63185 0.42575 0.32058 0.0
C183 C 0.6031 0.45503 0.30181 0.0
H184 H 0.58635 0.43488 0.37514 0.0
H185 H 0.64938 0.41618 0.31744 0.0
O186 O 0.66226 0.38759 0.44527 0.0
O187 O 0.59866 0.38241 0.41193 0.0
O188 O 0.66574 0.44677 0.40669 0.0
O189 O 0.65655 0.38247 0.37436 0.0
H190 H 0.59742 0.35075 0.46276 0.0
H191 H 0.70211 0.38702 0.48812 0.0
H192 H 0.57854 0.32164 0.51164 0.0
H193 H 0.68148 0.35711 0.53666 0.0
H194 H 0.50376 0.32377 0.35413 0.0
H195 H 0.55203 0.36199 0.45488 0.0
H196 H 0.56679 0.35872 0.36032 0.0
H197 H 0.48933 0.32658 0.44704 0.0
H198 H 0.62872 0.4423 0.54402 0.0
H199 H 0.56044 0.44924 0.48052 0.0
H200 H 0.62016 0.25576 0.45321 0.0
H201 H 0.53292 0.24012 0.40118 0.0
H202 H 0.69613 0.47776 0.35645 0.0
H203 H 0.70394 0.48306 0.45218 0.0
H204 H 0.75216 0.53179 0.35346 0.0
H205 H 0.75983 0.53704 0.44752 0.0
H206 H 0.69323 0.35292 0.38611 0.0
H207 H 0.60831 0.34461 0.33528 0.0
H208 H 0.68214 0.29747 0.36468 0.0
H209 H 0.59867 0.2893 0.31476 0.0
H210 H 0.80587 0.46931 0.44114 0.0
H211 H 0.78671 0.45513 0.34649 0.0
H212 H 0.57195 0.46259 0.33431 0.0
H213 H 0.63654 0.44371 0.27548 0.0
Li214 Li 0.24653 0.63311 0.60489 0.0
Li215 Li 0.29029 0.6269 0.57711 0.0
Li216 Li 0.29024 0.67837 0.57398 0.0
Li217 Li 0.24563 0.62756 0.5472 0.0
C218 C 0.3178 0.68529 0.62783 0.0
N219 N 0.36109 0.74167 0.66184 0.0
C220 C 0.35295 0.70336 0.62182 0.0
C221 C 0.3047 0.69563 0.65136 0.0
C222 C 0.37439 0.7319 0.63918 0.0
C223 C 0.32702 0.72425 0.66826 0.0
C224 C 0.23735 0.56304 0.58014 0.0
C225 C 0.2293 0.5115 0.55653 0.0
N226 N 0.23429 0.50042 0.58326 0.0
C227 C 0.2422 0.55109 0.60741 0.0
C228 C 0.23068 0.5431 0.55449 0.0
C229 C 0.24063 0.51938 0.60851 0.0
C230 C 0.18452 0.61367 0.63494 0.0
N231 N 0.21673 0.61862 0.63812 0.0
C232 C 0.20388 0.59509 0.68719 0.0
C233 C 0.22687 0.61 0.66363 0.0
C234 C 0.17027 0.58894 0.68426 0.0
C235 C 0.16063 0.59873 0.65798 0.0
H236 H 0.1771 0.62027 0.61415 0.0
H237 H 0.25249 0.61375 0.66526 0.0
C238 C 0.31798 0.58313 0.56058 0.0
N239 N 0.31784 0.60528 0.5812 0.0
C240 C 0.33656 0.56637 0.56576 0.0
C241 C 0.35429 0.59521 0.61331 0.0
C242 C 0.33571 0.61164 0.60712 0.0
C243 C 0.35453 0.57207 0.59262 0.0
H244 H 0.30294 0.57768 0.5405 0.0
H245 H 0.33484 0.62884 0.6234 0.0
C246 C 0.23674 0.68838 0.56987 0.0
N247 N 0.23292 0.74713 0.56214 0.0
C248 C 0.24054 0.70255 0.54146 0.0
C249 C 0.23077 0.70389 0.59432 0.0
C250 C 0.2386 0.73233 0.53802 0.0
C251 C 0.22898 0.73363 0.58995 0.0
C252 C 0.31938 0.64944 0.52471 0.0
C253 C 0.35387 0.66821 0.53303 0.0
C254 C 0.30965 0.6267 0.5007 0.0
C255 C 0.37805 0.66352 0.51743 0.0
C256 C 0.33463 0.62281 0.48561 0.0
N257 N 0.36801 0.6411 0.49425 0.0
C258 C 0.31751 0.74974 0.59021 0.0
C259 C 0.33395 0.739 0.54305 0.0
C260 C 0.33543 0.78504 0.58484 0.0
N261 N 0.31711 0.7275 0.56942 0.0
C262 C 0.35188 0.77397 0.53666 0.0
C263 C 0.35247 0.79729 0.5576 0.0
H264 H 0.30314 0.74015 0.61061 0.0
H265 H 0.33272 0.72095 0.52658 0.0
C266 C 0.18086 0.58979 0.52097 0.0
N267 N 0.21451 0.61174 0.51489 0.0
C268 C 0.15609 0.58118 0.49877 0.0
C269 C 0.20131 0.61698 0.46431 0.0
C270 C 0.22515 0.62516 0.48722 0.0
C271 C 0.16635 0.59524 0.47022 0.0
H272 H 0.1732 0.5801 0.54338 0.0
H273 H 0.25195 0.6433 0.4833 0.0
O274 O 0.29642 0.65724 0.61113 0.0
O275 O 0.23934 0.59423 0.57849 0.0
O276 O 0.2392 0.65965 0.57377 0.0
O277 O 0.29534 0.65365 0.53976 0.0
H278 H 0.36353 0.69544 0.60394 0.0
H279 H 0.27757 0.682 0.65627 0.0
H280 H 0.40162 0.74626 0.63467 0.0
H281 H 0.31722 0.73269 0.68641 0.0
H282 H 0.22436 0.49585 0.53684 0.0
H283 H 0.24751 0.56634 0.62743 0.0
H284 H 0.22695 0.5521 0.53321 0.0
H285 H 0.24458 0.50988 0.62942 0.0
H286 H 0.21188 0.58747 0.70716 0.0
H287 H 0.13472 0.59391 0.65504 0.0
H288 H 0.33607 0.54837 0.54949 0.0
H289 H 0.36781 0.59997 0.63432 0.0
H290 H 0.24531 0.69087 0.52235 0.0
H291 H 0.22791 0.69322 0.61647 0.0
H292 H 0.24173 0.74376 0.51621 0.0
H293 H 0.22457 0.74605 0.60868 0.0
H294 H 0.36183 0.68615 0.55136 0.0
H295 H 0.28305 0.6118 0.49408 0.0
H296 H 0.4048 0.67773 0.52374 0.0
H297 H 0.32745 0.60512 0.46712 0.0
H298 H 0.33516 0.80249 0.60129 0.0
H299 H 0.36463 0.78273 0.51535 0.0
H300 H 0.12921 0.56474 0.50401 0.0
H301 H 0.20983 0.62862 0.44256 0.0
Li302 Li 0.68167 0.28264 0.74699 0.0
Li303 Li 0.631 0.23908 0.77176 0.0
Li304 Li 0.63431 0.2392 0.71787 0.0
Li305 Li 0.62807 0.28283 0.74346 0.0
C306 C 0.68057 0.22123 0.76423 0.0
N307 N 0.71364 0.19739 0.80059 0.0
C308 C 0.69876 0.24008 0.78924 0.0
C309 C 0.67906 0.19018 0.7578 0.0
C310 C 0.71538 0.22765 0.8073 0.0
C311 C 0.69597 0.17857 0.77645 0.0
C312 C 0.64139 0.29675 0.80349 0.0
C313 C 0.5922 0.28399 0.83382 0.0
N314 N 0.61212 0.31192 0.85094 0.0
C315 C 0.66139 0.32527 0.82142 0.0
C316 C 0.60652 0.27587 0.80977 0.0
C317 C 0.64612 0.33253 0.84529 0.0
C318 C 0.74308 0.34051 0.76521 0.0
N319 N 0.73043 0.31038 0.75021 0.0
C320 C 0.7866 0.31753 0.74598 0.0
C321 C 0.75143 0.29893 0.74011 0.0
C322 C 0.79997 0.34782 0.7627 0.0
C323 C 0.77802 0.35975 0.77179 0.0
H324 H 0.72579 0.34893 0.77299 0.0
H325 H 0.74072 0.27467 0.72859 0.0
C326 C 0.59189 0.17514 0.79945 0.0
N327 N 0.61556 0.2085 0.80473 0.0
C328 C 0.58327 0.15064 0.82187 0.0
C329 C 0.62298 0.19553 0.85481 0.0
C330 C 0.63081 0.21913 0.83182 0.0
C331 C 0.59937 0.16086 0.84971 0.0
H332 H 0.58071 0.16742 0.77748 0.0
H333 H 0.65008 0.24566 0.83521 0.0
C334 C 0.68289 0.29723 0.68712 0.0
N335 N 0.72787 0.31251 0.64008 0.0
C336 C 0.69156 0.32573 0.66914 0.0
C337 C 0.69705 0.27645 0.68111 0.0
C338 C 0.71435 0.33304 0.64548 0.0
C339 C 0.71975 0.28462 0.65725 0.0
C340 C 0.56786 0.22513 0.72478 0.0
C341 C 0.57222 0.24428 0.69896 0.0
C342 C 0.53545 0.19774 0.73175 0.0
C343 C 0.54402 0.23573 0.68059 0.0
C344 C 0.50788 0.18996 0.71279 0.0
N345 N 0.5127 0.20897 0.68782 0.0
C346 C 0.60476 0.17477 0.69105 0.0
C347 C 0.61842 0.21984 0.6567 0.0
C348 C 0.5883 0.15031 0.6687 0.0
N349 N 0.619 0.20871 0.68476 0.0
C350 C 0.60256 0.19631 0.63366 0.0
C351 C 0.58682 0.16117 0.63976 0.0
H352 H 0.60496 0.16672 0.71374 0.0
H353 H 0.62891 0.24685 0.65244 0.0
C354 C 0.62475 0.34073 0.72484 0.0
N355 N 0.60754 0.31103 0.74047 0.0
C356 C 0.60899 0.35987 0.71815 0.0
C357 C 0.55878 0.31853 0.74521 0.0
C358 C 0.57539 0.30001 0.75115 0.0
C359 C 0.57534 0.34828 0.72779 0.0
H360 H 0.65022 0.34882 0.71659 0.0
H361 H 0.56201 0.27606 0.76314 0.0
O362 O 0.66332 0.23239 0.74661 0.0
O363 O 0.65615 0.28942 0.78007 0.0
O364 O 0.66063 0.28991 0.71041 0.0
O365 O 0.59511 0.23259 0.743 0.0
H366 H 0.69971 0.26387 0.79489 0.0
H367 H 0.66483 0.17516 0.73866 0.0
H368 H 0.72952 0.24196 0.82673 0.0
H369 H 0.69499 0.15456 0.77176 0.0
H370 H 0.56524 0.26806 0.8389 0.0
H371 H 0.68845 0.34164 0.81696 0.0
H372 H 0.59061 0.25358 0.7963 0.0
H373 H 0.6613 0.35454 0.85934 0.0
H374 H 0.80295 0.30763 0.73882 0.0
H375 H 0.78763 0.38301 0.78481 0.0
H376 H 0.56524 0.12394 0.81729 0.0
H377 H 0.63605 0.20401 0.87603 0.0
H378 H 0.68077 0.34204 0.6734 0.0
H379 H 0.69051 0.25413 0.69456 0.0
H380 H 0.72129 0.35503 0.6314 0.0
H381 H 0.73089 0.26875 0.65236 0.0
H382 H 0.59709 0.26548 0.69305 0.0
H383 H 0.53169 0.18258 0.7516 0.0
H384 H 0.54704 0.25035 0.66057 0.0
H385 H 0.48266 0.1688 0.71791 0.0
H386 H 0.57587 0.12331 0.67408 0.0
H387 H 0.60123 0.20533 0.61158 0.0
H388 H 0.62235 0.38271 0.70458 0.0
H389 H 0.53271 0.30888 0.75278 0.0
Li390 Li 0.41063 0.62824 0.9387 0.0
Li391 Li 0.41725 0.67872 0.91111 0.0
Li392 Li 0.36551 0.62724 0.90841 0.0
Li393 Li 0.41524 0.6326 0.88107 0.0
C394 C 0.35964 0.65234 0.95994 0.0
N395 N 0.30377 0.64789 0.98948 0.0
C396 C 0.34416 0.67058 0.94956 0.0
C397 C 0.34703 0.63218 0.98555 0.0
C398 C 0.31582 0.66786 0.96472 0.0
C399 C 0.31869 0.63022 0.00014 0.0
C400 C 0.48048 0.68905 0.9144 0.0
C401 C 0.53187 0.73418 0.8919 0.0
N402 N 0.54259 0.74906 0.91914 0.0
C403 C 0.49205 0.70464 0.94219 0.0
C404 C 0.50053 0.70379 0.88904 0.0
C405 C 0.52351 0.73504 0.94411 0.0
C406 C 0.43238 0.58715 0.96763 0.0
N407 N 0.42523 0.61283 0.97171 0.0
C408 C 0.44729 0.62224 0.02129 0.0
C409 C 0.43191 0.63008 -0.00206 0.0
C410 C 0.45584 0.59655 0.01739 0.0
C411 C 0.4478 0.57845 0.99043 0.0
H412 H 0.42724 0.57431 0.94629 0.0
H413 H 0.42648 0.65079 0.00027 0.0
C414 C 0.4602 0.75043 0.89438 0.0
N415 N 0.43925 0.7279 0.91546 0.0
C416 C 0.47704 0.78573 0.89982 0.0
C417 C 0.45093 0.77405 0.94863 0.0
C418 C 0.43443 0.73913 0.94219 0.0
C419 C 0.47264 0.79767 0.92738 0.0
H420 H 0.4647 0.74113 0.8737 0.0
H421 H 0.41842 0.72091 0.95891 0.0
C422 C 0.35371 0.56333 0.90719 0.0
N423 N 0.29319 0.50137 0.90603 0.0
C424 C 0.33662 0.55015 0.8802 0.0
C425 C 0.34021 0.54494 0.93355 0.0
C426 C 0.30599 0.5188 0.8801 0.0
C427 C 0.30953 0.51366 0.9325 0.0
C428 C 0.39733 0.68425 0.85608 0.0
C429 C 0.38001 0.70249 0.85969 0.0
C430 C 0.42176 0.69353 0.83348 0.0
C431 C 0.38778 0.7301 0.84083 0.0
C432 C 0.42873 0.72124 0.81502 0.0
N433 N 0.41178 0.73882 0.81908 0.0
C434 C 0.29413 0.58557 0.92586 0.0
C435 C 0.30494 0.61087 0.87786 0.0
C436 C 0.25875 0.5691 0.9209 0.0
N437 N 0.31643 0.60598 0.90441 0.0
C438 C 0.26989 0.5947 0.87187 0.0
C439 C 0.24649 0.57337 0.89345 0.0
H440 H 0.30374 0.58133 0.94652 0.0
H441 H 0.32305 0.62673 0.86098 0.0
C442 C 0.4576 0.61264 0.85113 0.0
N443 N 0.43009 0.61721 0.84813 0.0
C444 C 0.46629 0.59737 0.82819 0.0
C445 C 0.41859 0.59256 0.79946 0.0
C446 C 0.41077 0.60779 0.82292 0.0
C447 C 0.44637 0.58689 0.80218 0.0
H448 H 0.47209 0.6199 0.8717 0.0
H449 H 0.38873 0.61127 0.82143 0.0
O450 O 0.38733 0.6546 0.94533 0.0
O451 O 0.44944 0.65974 0.91196 0.0
O452 O 0.38336 0.59425 0.90786 0.0
O453 O 0.38987 0.65699 0.87417 0.0
H454 H 0.35386 0.68654 0.92994 0.0
H455 H 0.35877 0.61795 0.99387 0.0
H456 H 0.30342 0.68165 0.95683 0.0
H457 H 0.30849 0.61455 0.01988 0.0
H458 H 0.54761 0.74601 0.87246 0.0
H459 H 0.47669 0.6936 0.96198 0.0
H460 H 0.4918 0.69204 0.86736 0.0
H461 H 0.53269 0.74756 0.96543 0.0
H462 H 0.45355 0.63683 0.04181 0.0
H463 H 0.45449 0.55876 0.98676 0.0
H464 H 0.49403 0.80343 0.88313 0.0
H465 H 0.44731 0.78256 0.97021 0.0
H466 H 0.34671 0.56419 0.85964 0.0
H467 H 0.35312 0.55492 0.95463 0.0
H468 H 0.29232 0.50838 0.85942 0.0
H469 H 0.29865 0.49921 0.95274 0.0
H470 H 0.36075 0.69539 0.87684 0.0
H471 H 0.43555 0.67985 0.83045 0.0
H472 H 0.37469 0.74455 0.84345 0.0
H473 H 0.44772 0.72884 0.79756 0.0
H474 H 0.2412 0.55251 0.93787 0.0
H475 H 0.2611 0.59829 0.85041 0.0
H476 H 0.48766 0.59295 0.83097 0.0
H477 H 0.4026 0.58442 0.7797 0.0
Li478 Li 0.75822 0.41607 0.0749 0.0
Li479 Li 0.80267 0.41048 0.10114 0.0
Li480 Li 0.80053 0.41157 0.04639 0.0
Li481 Li 0.75766 0.36084 0.07202 0.0
C482 C 0.81018 0.47861 0.0794 0.0
N483 N 0.81104 0.5396 0.08875 0.0
C484 C 0.80794 0.48886 0.10832 0.0
C485 C 0.81323 0.49953 0.05526 0.0
C486 C 0.8083 0.51973 0.11258 0.0
C487 C 0.81352 0.53024 0.06044 0.0
C488 C 0.74316 0.36206 0.13185 0.0
C489 C 0.75361 0.32517 0.16373 0.0
N490 N 0.72456 0.31708 0.17921 0.0
C491 C 0.71339 0.35335 0.14802 0.0
C492 C 0.76344 0.34786 0.13971 0.0
C493 C 0.70444 0.33058 0.17192 0.0
C494 C 0.71941 0.44847 0.05668 0.0
N495 N 0.73028 0.43672 0.0798 0.0
C496 C 0.70406 0.45635 0.11495 0.0
C497 C 0.72275 0.44013 0.1085 0.0
C498 C 0.6929 0.46903 0.09162 0.0
C499 C 0.70057 0.46493 0.06214 0.0
H500 H 0.72562 0.44548 0.03407 0.0
H501 H 0.73191 0.4308 0.12646 0.0
C502 C 0.86679 0.43915 0.12965 0.0
N503 N 0.83273 0.42638 0.13459 0.0
C504 C 0.89037 0.45446 0.15285 0.0
C505 C 0.84333 0.44318 0.18576 0.0
C506 C 0.82068 0.42803 0.16198 0.0
C507 C 0.87857 0.45684 0.18114 0.0
H508 H 0.87573 0.43855 0.10743 0.0
H509 H 0.79364 0.4187 0.16513 0.0
C510 C 0.74615 0.388 0.00961 0.0
N511 N 0.73959 0.39169 0.94865 0.0
C512 C 0.73113 0.35813 0.99239 0.0
C513 C 0.75783 0.4197 0.9958 0.0
C514 C 0.72803 0.36054 0.96161 0.0
C515 C 0.75431 0.42105 0.96497 0.0
C516 C 0.82323 0.36643 0.05479 0.0
C517 C 0.80452 0.34265 0.03248 0.0
C518 C 0.85797 0.37718 0.05853 0.0
C519 C 0.82087 0.32999 0.01434 0.0
C520 C 0.87342 0.36396 0.0399 0.0
N521 N 0.85471 0.34084 0.01837 0.0
C522 C 0.8618 0.45677 0.01647 0.0
C523 C 0.82468 0.40744 0.98827 0.0
C524 C 0.88727 0.46718 0.99464 0.0
N525 N 0.83133 0.42721 0.01304 0.0
C526 C 0.8492 0.41697 0.9659 0.0
C527 C 0.88101 0.44689 0.96916 0.0
H528 H 0.86676 0.47163 0.03667 0.0
H529 H 0.80091 0.38353 0.98631 0.0
C530 C 0.69849 0.29826 0.05751 0.0
N531 N 0.72972 0.31207 0.07085 0.0
C532 C 0.67977 0.26316 0.05158 0.0
C533 C 0.72435 0.25675 0.07553 0.0
C534 C 0.74242 0.29205 0.08067 0.0
C535 C 0.69326 0.24227 0.05984 0.0
H536 H 0.68894 0.31479 0.05014 0.0
H537 H 0.76738 0.3037 0.09114 0.0
O538 O 0.80889 0.44802 0.07472 0.0
O539 O 0.75204 0.38411 0.10825 0.0
O540 O 0.74944 0.38616 0.03979 0.0
O541 O 0.80779 0.37952 0.07252 0.0
H542 H 0.80538 0.47289 0.12724 0.0
H543 H 0.81537 0.49215 0.03276 0.0
H544 H 0.80626 0.52783 0.13482 0.0
H545 H 0.81573 0.54662 0.04196 0.0
H546 H 0.76907 0.314 0.17006 0.0
H547 H 0.69736 0.36405 0.14214 0.0
H548 H 0.78655 0.35427 0.12744 0.0
H549 H 0.68147 0.32361 0.18465 0.0
H550 H 0.69867 0.45936 0.13794 0.0
H551 H 0.6924 0.47466 0.04371 0.0
H552 H 0.91752 0.46531 0.1486 0.0
H553 H 0.83362 0.44514 0.20732 0.0
H554 H 0.72226 0.33338 0.00256 0.0
H555 H 0.77 0.44307 0.00869 0.0
H556 H 0.71653 0.33766 0.94801 0.0
H557 H 0.76341 0.44546 0.954 0.0
H558 H 0.77785 0.33461 0.02871 0.0
H559 H 0.87291 0.39557 0.07559 0.0
H560 H 0.80671 0.31173 0.99691 0.0
H561 H 0.90031 0.37214 0.04251 0.0
H562 H 0.91182 0.49019 -0.0021 0.0
H563 H 0.84386 0.40054 0.94663 0.0
H564 H 0.65581 0.25268 0.03944 0.0
H565 H 0.7354 0.24123 0.08212 0.0
Li566 Li 0.41495 0.80072 0.2711 0.0
Li567 Li 0.36489 0.757 0.24586 0.0
Li568 Li 0.41866 0.75704 0.2426 0.0
Li569 Li 0.41178 0.80029 0.21713 0.0
C570 C 0.40529 0.74293 0.30243 0.0
N571 N 0.43496 0.72778 0.3496 0.0
C572 C 0.38549 0.7143 0.32029 0.0
C573 C 0.44018 0.7639 0.30862 0.0
C574 C 0.40096 0.70706 0.34402 0.0
C575 C 0.4547 0.7558 0.33254 0.0
C576 C 0.36298 0.81533 0.26364 0.0
C577 C 0.33894 0.85128 0.27498 0.0
N578 N 0.32449 0.83263 0.30006 0.0
C579 C 0.34795 0.79655 0.28957 0.0
C580 C 0.35849 0.84294 0.25628 0.0
C581 C 0.32855 0.80567 0.30766 0.0
C582 C 0.45023 0.86531 0.29786 0.0
N583 N 0.43012 0.83141 0.3041 0.0
C584 C 0.42579 0.84389 0.35511 0.0
C585 C 0.41805 0.82034 0.33208 0.0
C586 C 0.44562 0.879 0.34906 0.0
C587 C 0.45829 0.8898 0.32019 0.0
H588 H 0.45881 0.87332 0.27523 0.0
H589 H 0.40122 0.79337 0.3363 0.0
C590 C 0.30333 0.69962 0.26491 0.0
N591 N 0.31607 0.72914 0.24898 0.0
C592 C 0.26839 0.68079 0.27161 0.0
C593 C 0.25998 0.72206 0.24398 0.0
C594 C 0.29514 0.74028 0.23804 0.0
C595 C 0.24654 0.69249 0.26166 0.0
H596 H 0.32055 0.69143 0.27338 0.0
H597 H 0.30589 0.76408 0.22582 0.0
C598 C 0.47901 0.8169 0.22483 0.0
N599 N 0.53565 0.83739 0.18869 0.0
C600 C 0.47701 0.79757 0.19974 0.0
C601 C 0.50976 0.8467 0.23148 0.0
C602 C 0.50595 0.80832 0.18179 0.0
C603 C 0.53812 0.85663 0.21293 0.0
C604 C 0.36395 0.74227 0.1861 0.0
C605 C 0.35495 0.71336 0.16856 0.0
C606 C 0.35022 0.7633 0.17953 0.0
C607 C 0.33224 0.70589 0.14478 0.0
C608 C 0.32759 0.75497 0.15557 0.0
N609 N 0.31913 0.72667 0.13884 0.0
C610 C 0.42275 0.69946 0.22432 0.0
C611 C 0.47205 0.74083 0.25032 0.0
C612 C 0.43885 0.68062 0.21769 0.0
N613 N 0.43976 0.72934 0.23975 0.0
C614 C 0.489 0.72262 0.24445 0.0
C615 C 0.47264 0.6927 0.22721 0.0
H616 H 0.39716 0.69099 0.21614 0.0
H617 H 0.48527 0.76492 0.26212 0.0
C618 C 0.43717 0.86382 0.1884 0.0
N619 N 0.4269 0.83024 0.18367 0.0
C620 C 0.45298 0.88776 0.16554 0.0
C621 C 0.44652 0.84185 0.13331 0.0
C622 C 0.43084 0.81885 0.15671 0.0
C623 C 0.45819 0.87673 0.13783 0.0
H624 H 0.43422 0.87216 0.21026 0.0
H625 H 0.42311 0.79216 0.15372 0.0
O626 O 0.39037 0.75015 0.27905 0.0
O627 O 0.38254 0.8073 0.24569 0.0
O628 O 0.45087 0.80735 0.24247 0.0
O629 O 0.38618 0.74978 0.20945 0.0
H630 H 0.35843 0.69782 0.31589 0.0
H631 H 0.45593 0.78629 0.29524 0.0
H632 H 0.38593 0.68496 0.35801 0.0
H633 H 0.48167 0.77182 0.33756 0.0
H634 H 0.33527 0.87262 0.26956 0.0
H635 H 0.35125 0.77521 0.29577 0.0
H636 H 0.37008 0.85781 0.23634 0.0
H637 H 0.31677 0.79135 0.32777 0.0
H638 H 0.41518 0.83492 0.37712 0.0
H639 H 0.47322 0.9168 0.31485 0.0
H640 H 0.25873 0.65808 0.28537 0.0
H641 H 0.24372 0.73178 0.23615 0.0
H642 H 0.45333 0.77466 0.19401 0.0
H643 H 0.51163 0.86205 0.25071 0.0
H644 H 0.50475 0.7936 0.16232 0.0
H645 H 0.56209 0.87967 0.21779 0.0
H646 H 0.36541 0.69685 0.17324 0.0
H647 H 0.35695 0.78587 0.19269 0.0
H648 H 0.32504 0.68358 0.13104 0.0
H649 H 0.31677 0.77102 0.15028 0.0
H650 H 0.42564 0.65765 0.20426 0.0
H651 H 0.51517 0.73265 0.25192 0.0
H652 H 0.46211 0.91463 0.16969 0.0
H653 H 0.45056 0.83275 0.11219 0.0
C654 C 0.1668 0.67448 0.30555 0.0
C655 C 0.14443 0.63973 0.29788 0.0
C656 C 0.18614 0.64263 0.26114 0.0
C657 C 0.21041 0.67549 0.27222 0.0
N658 N 0.22526 0.72156 0.30726 0.0
N659 N 0.13235 0.58978 0.26926 0.0
C660 C 0.20101 0.69136 0.29478 0.0
C661 C 0.1538 0.62361 0.27563 0.0
N662 N 0.15525 0.69123 0.32333 0.0
N663 N 0.19396 0.6299 0.2366 0.0
H664 H 0.108 0.57562 0.27868 0.0
H665 H 0.13925 0.57532 0.2559 0.0
H666 H 0.21744 0.6433 0.22557 0.0
H667 H 0.17636 0.60755 0.2257 0.0
H668 H 0.16913 0.71748 0.32734 0.0
H669 H 0.13037 0.67943 0.33184 0.0
H670 H 0.22085 0.73224 0.32614 0.0
H671 H 0.25078 0.73474 0.30038 0.0
C672 C 0.54955 0.15074 0.44368 0.0
C673 C 0.52378 0.14179 0.46561 0.0
C674 C 0.52919 0.19847 0.4616 0.0
C675 C 0.55469 0.20742 0.43934 0.0
N676 N 0.58424 0.19041 0.40467 0.0
N677 N 0.48306 0.15331 0.49018 0.0
C678 C 0.56328 0.18292 0.4289 0.0
C679 C 0.51154 0.16443 0.47269 0.0
N680 N 0.56177 0.12902 0.43791 0.0
N681 N 0.52327 0.22299 0.4735 0.0
H682 H 0.46974 0.12858 0.49894 0.0
H683 H 0.47078 0.16738 0.4937 0.0
H684 H 0.53576 0.24837 0.46631 0.0
H685 H 0.50803 0.21894 0.49221 0.0
H686 H 0.58327 0.13559 0.42482 0.0
H687 H 0.55131 0.10478 0.44757 0.0
H688 H 0.58907 0.17264 0.3942 0.0
H689 H 0.59466 0.21378 0.39347 0.0
C690 C 0.37189 0.50686 0.62978 0.0
C691 C 0.40804 0.52298 0.62653 0.0
C692 C 0.40827 0.56829 0.59608 0.0
C693 C 0.37232 0.55281 0.60026 0.0
N694 N 0.31866 0.50376 0.61467 0.0
N695 N 0.45974 0.56398 0.60179 0.0
C696 C 0.35371 0.52074 0.61488 0.0
C697 C 0.42591 0.55205 0.60793 0.0
N698 N 0.35525 0.47948 0.64858 0.0
N699 N 0.42557 0.59911 0.58174 0.0
H700 H 0.47303 0.55239 0.61031 0.0
H701 H 0.47393 0.58339 0.58656 0.0
H702 H 0.41315 0.61079 0.57168 0.0
H703 H 0.45217 0.61384 0.58077 0.0
H704 H 0.32982 0.46933 0.65509 0.0
H705 H 0.36741 0.46782 0.65912 0.0
H706 H 0.30345 0.47875 0.62221 0.0
H707 H 0.30457 0.51365 0.60466 0.0
C708 C 0.88001 0.36809 0.8072 0.0
C709 C 0.90227 0.40248 0.79844 0.0
C710 C 0.86024 0.39785 0.76122 0.0
C711 C 0.83614 0.36545 0.7732 0.0
N712 N 0.82161 0.32102 0.80989 0.0
N713 N 0.91399 0.45112 0.76805 0.0
C714 C 0.84573 0.35067 0.79657 0.0
C715 C 0.89266 0.41758 0.77544 0.0
N716 N 0.89172 0.35219 0.82584 0.0
N717 N 0.85219 0.40946 0.73607 0.0
H718 H 0.93838 0.46575 0.77729 0.0
H719 H 0.90694 0.46495 0.75402 0.0
H720 H 0.82865 0.39552 0.72521 0.0
H721 H 0.86966 0.43136 0.72457 0.0
H722 H 0.87792 0.32612 0.83066 0.0
H723 H 0.91664 0.36438 0.83431 0.0
H724 H 0.82617 0.31125 0.82929 0.0
H725 H 0.79606 0.30746 0.80312 0.0
C726 C 0.53821 0.88014 0.96439 0.0
C727 C 0.5218 0.89995 0.96184 0.0
C728 C 0.47595 0.85486 0.93177 0.0
C729 C 0.49184 0.83467 0.93512 0.0
N730 N 0.54156 0.83056 0.94808 0.0
N731 N 0.47996 0.91035 0.93826 0.0
C732 C 0.52427 0.84828 0.94916 0.0
C733 C 0.49226 0.88865 0.94377 0.0
N734 N 0.56593 0.89085 0.98281 0.0
N735 N 0.44468 0.84113 0.91813 0.0
H736 H 0.49157 0.93516 0.9469 0.0
H737 H 0.4602 0.90504 0.92337 0.0
H738 H 0.43286 0.81706 0.90801 0.0
H739 H 0.42972 0.85276 0.91787 0.0
H740 H 0.57635 0.87564 0.98877 0.0
H741 H 0.57756 0.91447 0.99366 0.0
H742 H 0.56677 0.84051 0.9552 0.0
H743 H 0.53168 0.80678 0.93769 0.0
C744 C 0.62068 0.48714 0.10927 0.0
C745 C 0.63952 0.51838 0.12504 0.0
C746 C 0.69333 0.52165 0.10972 0.0
C747 C 0.67439 0.48771 0.09872 0.0
N748 N 0.62016 0.43746 0.08776 0.0
N749 N 0.69382 0.56523 0.14163 0.0
C750 C 0.63804 0.47042 0.09792 0.0
C751 C 0.67593 0.53598 0.12517 0.0
N752 N 0.58618 0.47354 0.10543 0.0
N753 N 0.728 0.54005 0.10542 0.0
H754 H 0.68217 0.57699 0.15283 0.0
H755 H 0.72002 0.57677 0.14575 0.0
H756 H 0.74141 0.53009 0.09424 0.0
H757 H 0.74295 0.56601 0.11038 0.0
H758 H 0.57119 0.45234 0.09206 0.0
H759 H 0.57307 0.48546 0.11361 0.0
H760 H 0.59371 0.42199 0.08976 0.0
H761 H 0.63207 0.42478 0.07866 0.0
C762 C 0.36795 0.87955 0.521 0.0
C763 C 0.40405 0.90012 0.52417 0.0
C764 C 0.40555 0.85527 0.55397 0.0
C765 C 0.36963 0.83428 0.54991 0.0
N766 N 0.31537 0.82856 0.53585 0.0
N767 N 0.45628 0.91158 0.54847 0.0
C768 C 0.3504 0.84727 0.53559 0.0
C769 C 0.42252 0.88926 0.5424 0.0
N770 N 0.35076 0.8901 0.50263 0.0
N771 N 0.42347 0.84215 0.56791 0.0
H772 H 0.46912 0.93654 0.54013 0.0
H773 H 0.47083 0.90658 0.5635 0.0
H774 H 0.41155 0.81793 0.57773 0.0
H775 H 0.45009 0.85446 0.56875 0.0
H776 H 0.32535 0.87455 0.49617 0.0
H777 H 0.36246 0.9141 0.49244 0.0
H778 H 0.29968 0.8379 0.52852 0.0
H779 H 0.30176 0.80443 0.54567 0.0
C780 C 0.51462 0.36689 0.683 0.0
C781 C 0.52696 0.40158 0.69085 0.0
C782 C 0.565 0.39825 0.72816 0.0
C783 C 0.55651 0.36547 0.71698 0.0
N784 N 0.5259 0.31978 0.68144 0.0
N785 N 0.56429 0.45121 0.72006 0.0
C786 C 0.53167 0.34986 0.69403 0.0
C787 C 0.55202 0.41745 0.71349 0.0
N788 N 0.48668 0.35036 0.66476 0.0
N789 N 0.58515 0.41072 0.75298 0.0
H790 H 0.55428 0.46545 0.7105 0.0
H791 H 0.58539 0.46553 0.73377 0.0
H792 H 0.59498 0.39718 0.76413 0.0
H793 H 0.58981 0.43301 0.76393 0.0
H794 H 0.4743 0.32413 0.6606 0.0
H795 H 0.47382 0.36226 0.65599 0.0
H796 H 0.5112 0.30933 0.66232 0.0
H797 H 0.53804 0.30648 0.68851 0.0
C798 C 0.15565 0.5548 0.87781 0.0
C799 C 0.14379 0.52505 0.85998 0.0
C800 C 0.19509 0.5218 0.87258 0.0
C801 C 0.20933 0.55447 0.88621 0.0
N802 N 0.20385 0.60226 0.90291 0.0
N803 N 0.15186 0.48014 0.83938 0.0
C804 C 0.18957 0.57083 0.88955 0.0
C805 C 0.16311 0.5081 0.85756 0.0
N806 N 0.13434 0.56759 0.88331 0.0
N807 N 0.21236 0.50406 0.87382 0.0
H808 H 0.12815 0.4687 0.82865 0.0
H809 H 0.16672 0.4693 0.83351 0.0
H810 H 0.23621 0.51374 0.88407 0.0
H811 H 0.20195 0.47871 0.86701 0.0
H812 H 0.14009 0.58761 0.89801 0.0
H813 H 0.10942 0.55615 0.87487 0.0
H814 H 0.19254 0.6175 0.90315 0.0
H815 H 0.22804 0.61388 0.91285 0.0
C816 C 0.67587 0.16373 0.01451 0.0
C817 C 0.64169 0.1404 0.02318 0.0
C818 C 0.64469 0.18117 0.06095 0.0
C819 C 0.6767 0.2063 0.049 0.0
N820 N 0.72103 0.22291 0.01173 0.0
N821 N 0.59253 0.12648 0.05373 0.0
C822 C 0.69209 0.19787 0.02529 0.0
C823 C 0.62588 0.14883 0.04642 0.0
N824 N 0.69272 0.15318 0.99578 0.0
N825 N 0.63258 0.18818 0.08634 0.0
H826 H 0.5786 0.10217 0.04421 0.0
H827 H 0.57814 0.13259 0.06799 0.0
H828 H 0.64586 0.21161 0.09743 0.0
H829 H 0.61099 0.17 0.09777 0.0
H830 H 0.71877 0.16791 0.991 0.0
H831 H 0.68144 0.12835 0.98725 0.0
H832 H 0.73101 0.21898 0.99215 0.0
H833 H 0.73357 0.24849 0.01838 0.0
C834 C 0.49706 0.62428 0.21316 0.0
C835 C 0.52199 0.64026 0.19046 0.0
C836 C 0.51648 0.69154 0.19342 0.0
C837 C 0.49179 0.67583 0.21644 0.0
N838 N 0.46374 0.63072 0.25263 0.0
N839 N 0.5617 0.69152 0.16415 0.0
C840 C 0.48375 0.64324 0.22776 0.0
C841 C 0.53387 0.67481 0.18246 0.0
N842 N 0.4852 0.59063 0.21987 0.0
N843 N 0.5218 0.72139 0.1807 0.0
H844 H 0.57478 0.67983 0.15541 0.0
H845 H 0.57377 0.7177 0.15988 0.0
H846 H 0.50938 0.73445 0.1877 0.0
H847 H 0.53638 0.73186 0.16153 0.0
H848 H 0.4642 0.57619 0.23362 0.0
H849 H 0.49546 0.57658 0.21037 0.0
H850 H 0.45942 0.60861 0.26367 0.0
H851 H 0.45369 0.64409 0.26374 0.0
C852 C 0.891 0.48166 0.37501 0.0
C853 C 0.90388 0.51353 0.3602 0.0
C854 C 0.85387 0.51714 0.37665 0.0
C855 C 0.83834 0.48278 0.38662 0.0
N856 N 0.84138 0.43173 0.39579 0.0
N857 N 0.89725 0.56142 0.34546 0.0
C858 C 0.85693 0.46502 0.38643 0.0
C859 C 0.88555 0.53159 0.3611 0.0
N860 N 0.91143 0.46742 0.37791 0.0
N861 N 0.8381 0.53581 0.38198 0.0
H862 H 0.92056 0.57323 0.33411 0.0
H863 H 0.88289 0.57342 0.34209 0.0
H864 H 0.8148 0.52575 0.39328 0.0
H865 H 0.84949 0.56197 0.37781 0.0
H866 H 0.90487 0.44565 0.39056 0.0
H867 H 0.93645 0.47929 0.36968 0.0
H868 H 0.85193 0.41598 0.39305 0.0
H869 H 0.81686 0.4192 0.40507 0.0
C870 C 0.11215 0.61525 0.41809 0.0
C871 C 0.10272 0.58882 0.39667 0.0
C872 C 0.12687 0.56155 0.42819 0.0
C873 C 0.14061 0.59053 0.44724 0.0
N874 N 0.14543 0.64409 0.46224 0.0
N875 N 0.09852 0.53579 0.38127 0.0
C876 C 0.13243 0.61684 0.44302 0.0
C877 C 0.10882 0.5613 0.40202 0.0
N878 N 0.10213 0.63908 0.41425 0.0
N879 N 0.13143 0.53456 0.43513 0.0
H880 H 0.08362 0.53411 0.36282 0.0
H881 H 0.10525 0.51684 0.38167 0.0
H882 H 0.14523 0.53448 0.45378 0.0
H883 H 0.11992 0.51138 0.42371 0.0
H884 H 0.10521 0.65714 0.43019 0.0
H885 H 0.08844 0.63954 0.39572 0.0
H886 H 0.14432 0.66631 0.45872 0.0
H887 H 0.15873 0.64515 0.48163 0.0
C888 C 0.51353 0.11026 0.58583 0.0
C889 C 0.53019 0.09966 0.56508 0.0
C890 C 0.58033 0.12123 0.598 0.0
C891 C 0.5657 0.13614 0.6164 0.0
N892 N 0.51841 0.14434 0.6295 0.0
N893 N 0.57802 0.09291 0.55116 0.0
C894 C 0.532 0.12997 0.61107 0.0
C895 C 0.56301 0.10402 0.57139 0.0
N896 N 0.48022 0.10186 0.58108 0.0
N897 N 0.61083 0.12381 0.606 0.0
H898 H 0.56509 0.07863 0.53236 0.0
H899 H 0.60336 0.09851 0.55231 0.0
H900 H 0.62435 0.1369 0.62503 0.0
H901 H 0.62178 0.11126 0.5951 0.0
H902 H 0.46534 0.10581 0.59654 0.0
H903 H 0.46629 0.08858 0.56231 0.0
H904 H 0.49594 0.14472 0.6251 0.0
H905 H 0.53043 0.15736 0.64905 0.0
C906 C 0.48166 0.56667 0.73263 0.0
C907 C 0.4549 0.53272 0.72723 0.0
C908 C 0.42955 0.532 0.77571 0.0
C909 C 0.45259 0.56765 0.77848 0.0
N910 N 0.50034 0.61977 0.75963 0.0
N911 N 0.40152 0.48343 0.74246 0.0
C912 C 0.47899 0.58519 0.75719 0.0
C913 C 0.42862 0.5152 0.74869 0.0
N914 N 0.50945 0.58106 0.7141 0.0
N915 N 0.40857 0.51427 0.79901 0.0
H916 H 0.39971 0.46995 0.72303 0.0
H917 H 0.37955 0.47136 0.7556 0.0
H918 H 0.40863 0.52593 0.81913 0.0
H919 H 0.39362 0.48767 0.79948 0.0
H920 H 0.53129 0.60462 0.71813 0.0
H921 H 0.51186 0.56784 0.69601 0.0
H922 H 0.51753 0.63471 0.74308 0.0
H923 H 0.49943 0.63402 0.77757 0.0
C924 C 0.93695 0.48228 0.90003 0.0
C925 C 0.94569 0.4564 0.89594 0.0
C926 C 0.92307 0.43361 0.94553 0.0
C927 C 0.90818 0.4548 0.94672 0.0
N928 N 0.90054 0.49964 0.92549 0.0
N929 N 0.94559 0.40586 0.91415 0.0
C930 C 0.91555 0.47977 0.92436 0.0
C931 C 0.93905 0.43204 0.91879 0.0
N932 N 0.94886 0.5089 0.88033 0.0
N933 N 0.92156 0.41479 0.96996 0.0
H934 H 0.95736 0.40361 0.89499 0.0
H935 H 0.93721 0.385 0.92845 0.0
H936 H 0.91001 0.41558 0.98988 0.0
H937 H 0.93459 0.40119 0.97147 0.0
H938 H 0.94583 0.53014 0.88324 0.0
H939 H 0.96463 0.5111 0.86241 0.0
H940 H 0.90167 0.51549 0.90814 0.0
H941 H 0.88521 0.49883 0.94325 0.0
C942 C 0.48108 0.93371 0.0691 0.0
C943 C 0.51378 0.93792 0.06271 0.0
C944 C 0.5132 0.91088 0.11027 0.0
C945 C 0.47839 0.90165 0.11413 0.0
N946 N 0.42843 0.90352 0.09774 0.0
N947 N 0.56078 0.92916 0.07606 0.0
C948 C 0.46221 0.9133 0.09392 0.0
C949 C 0.5301 0.92668 0.08323 0.0
N950 N 0.46823 0.94923 0.05129 0.0
N951 N 0.53 0.90445 0.1325 0.0
H952 H 0.57442 0.94114 0.05678 0.0
H953 H 0.57177 0.91745 0.08825 0.0
H954 H 0.51819 0.89254 0.15248 0.0
H955 H 0.55629 0.91357 0.13236 0.0
H956 H 0.44585 0.94972 0.05598 0.0
H957 H 0.48171 0.96428 0.03301 0.0
H958 H 0.41395 0.9078 0.08205 0.0
H959 H 0.4142 0.88933 0.11609 0.0
C960 C 0.62468 0.52665 0.24687 0.0
C961 C 0.59647 0.51051 0.22696 0.0
C962 C 0.5701 0.45904 0.25824 0.0
C963 C 0.59851 0.47509 0.2779 0.0
N964 N 0.64824 0.52645 0.29544 0.0
N965 N 0.53922 0.46521 0.21642 0.0
C966 C 0.62424 0.50974 0.2737 0.0
C967 C 0.56804 0.47792 0.23367 0.0
N968 N 0.65282 0.55716 0.23928 0.0
N969 N 0.54595 0.4254 0.26241 0.0
H970 H 0.53725 0.4787 0.19834 0.0
H971 H 0.5164 0.44292 0.22139 0.0
H972 H 0.54626 0.41121 0.28065 0.0
H973 H 0.52667 0.41098 0.2471 0.0
H974 H 0.67591 0.56796 0.25091 0.0
H975 H 0.65401 0.57084 0.22015 0.0
H976 H 0.66548 0.55268 0.29514 0.0
H977 H 0.64901 0.51464 0.31519 0.0
C978 C 0.47916 0.93609 0.41746 0.0
C979 C 0.45074 0.9405 0.42378 0.0
C980 C 0.4222 0.91034 0.37774 0.0
C981 C 0.44966 0.90409 0.37241 0.0
N982 N 0.50704 0.91613 0.38288 0.0
N983 N 0.39847 0.93822 0.4079 0.0
C984 C 0.4792 0.91886 0.39085 0.0
C985 C 0.42343 0.92992 0.40306 0.0
N986 N 0.50533 0.9472 0.43766 0.0
N987 N 0.3943 0.89617 0.3592 0.0
H988 H 0.39771 0.95127 0.42678 0.0
H989 H 0.37962 0.93432 0.39247 0.0
H990 H 0.39336 0.88331 0.33956 0.0
H991 H 0.37146 0.89584 0.36354 0.0
H992 H 0.52507 0.9416 0.4365 0.0
H993 H 0.50676 0.96151 0.45646 0.0
H994 H 0.53054 0.92855 0.39381 0.0
H995 H 0.5074 0.90301 0.36386 0.0
C996 C 0.5217 0.42024 0.57292 0.0
C997 C 0.53604 0.44979 0.59131 0.0
C998 C 0.58358 0.47979 0.55608 0.0
C999 C 0.57179 0.44869 0.54017 0.0
N1000 N 0.53134 0.38832 0.53443 0.0
N1001 N 0.58043 0.50759 0.60146 0.0
C1002 C 0.54103 0.41873 0.5486 0.0
C1003 C 0.56677 0.47974 0.583 0.0
N1004 N 0.48967 0.39348 0.57898 0.0
N1005 N 0.6106 0.50929 0.54524 0.0
H1006 H 0.5678 0.50876 0.62054 0.0
H1007 H 0.60475 0.52882 0.5987 0.0
H1008 H 0.62351 0.50994 0.52573 0.0
H1009 H 0.6186 0.53343 0.55418 0.0
H1010 H 0.47625 0.37275 0.5647 0.0
H1011 H 0.47507 0.39331 0.59708 0.0
H1012 H 0.51161 0.36481 0.54187 0.0
H1013 H 0.54461 0.38597 0.51639 0.0
C1014 C 0.11445 0.56877 0.75361 0.0
C1015 C 0.10721 0.53482 0.75908 0.0
C1016 C 0.13223 0.5341 0.71078 0.0
C1017 C 0.14481 0.56973 0.70796 0.0
N1018 N 0.14894 0.62182 0.72656 0.0
N1019 N 0.11139 0.48554 0.74405 0.0
C1020 C 0.13577 0.58726 0.72911 0.0
C1021 C 0.11614 0.51731 0.73775 0.0
N1022 N 0.10097 0.58317 0.77203 0.0
N1023 N 0.1357 0.51637 0.68761 0.0
H1024 H 0.09953 0.47205 0.76342 0.0
H1025 H 0.1214 0.47347 0.73105 0.0
H1026 H 0.1475 0.528 0.66755 0.0
H1027 H 0.12407 0.48977 0.68715 0.0
H1028 H 0.10274 0.60673 0.76796 0.0
H1029 H 0.08525 0.56997 0.79008 0.0
H1030 H 0.14656 0.63679 0.743 0.0
H1031 H 0.16413 0.63601 0.70862 0.0
C1032 C 0.56445 0.10278 0.91768 0.0
C1033 C 0.59289 0.09851 0.9241 0.0
C1034 C 0.61948 0.12573 0.87663 0.0
C1035 C 0.59414 0.13529 0.87294 0.0
N1036 N 0.54227 0.13337 0.88928 0.0
N1037 N 0.64854 0.107 0.91066 0.0
C1038 C 0.56617 0.12345 0.89303 0.0
C1039 C 0.62043 0.10967 0.90355 0.0
N1040 N 0.53602 0.08716 0.93541 0.0
N1041 N 0.64267 0.13217 0.85437 0.0
H1042 H 0.65008 0.0948 0.92984 0.0
H1043 H 0.67126 0.1187 0.89849 0.0
H1044 H 0.64283 0.14423 0.83447 0.0
H1045 H 0.6597 0.12289 0.8544 0.0
H1046 H 0.5132 0.08679 0.93076 0.0
H1047 H 0.53437 0.0719 0.95356 0.0
H1048 H 0.52342 0.12894 0.90491 0.0
H1049 H 0.54238 0.14778 0.87104 0.0
C1050 C 0.52879 0.61657 0.07019 0.0
C1051 C 0.51213 0.58999 0.09154 0.0
C1052 C 0.45945 0.56421 0.06171 0.0
C1053 C 0.47599 0.59114 0.04073 0.0
N1054 N 0.52833 0.63705 0.02032 0.0
N1055 N 0.46528 0.53454 0.10463 0.0
C1056 C 0.51141 0.6153 0.04342 0.0
C1057 C 0.47863 0.56234 0.08615 0.0
N1058 N 0.56026 0.6442 0.07635 0.0
N1059 N 0.42515 0.5415 0.05903 0.0
H1060 H 0.47904 0.53277 0.12261 0.0
H1061 H 0.44213 0.51218 0.10071 0.0
H1062 H 0.4106 0.54175 0.04104 0.0
H1063 H 0.41068 0.52364 0.07533 0.0
H1064 H 0.57162 0.66637 0.06346 0.0
H1065 H 0.57424 0.64607 0.09547 0.0
H1066 H 0.55484 0.65293 0.0197 0.0
H1067 H 0.51621 0.63691 0.00044 0.0
C1068 C 0.92767 0.52605 0.23839 0.0
C1069 C 0.93959 0.50917 0.25757 0.0
C1070 C 0.91512 0.45915 0.22451 0.0
C1071 C 0.90299 0.47597 0.20553 0.0
N1072 N 0.90466 0.52793 0.18998 0.0
N1073 N 0.95162 0.46361 0.26625 0.0
C1074 C 0.91168 0.51034 0.21102 0.0
C1075 C 0.93565 0.47697 0.24964 0.0
N1076 N 0.92974 0.5561 0.24714 0.0
N1077 N 0.90576 0.42574 0.21918 0.0
H1078 H 0.96676 0.47629 0.28474 0.0
H1079 H 0.95235 0.44165 0.26039 0.0
H1080 H 0.89154 0.41231 0.20053 0.0
H1081 H 0.91041 0.4107 0.23392 0.0
H1082 H 0.91756 0.56732 0.236 0.0
H1083 H 0.94184 0.56891 0.26671 0.0
H1084 H 0.9135 0.5541 0.19125 0.0
H1085 H 0.8925 0.517 0.16984 0.0
loop_
_geom_bond_atom_site_label_1
_geom_bond_atom_site_label_2
_geom_bond_distance
_geom_bond_site_symmetry_2
_ccdc_geom_bond_type
H0 C8 0.930 . S
H1 C11 0.930 . S
H2 C13 0.930 . S
H3 C14 0.970 . S
H4 C14 0.970 . S
H5 C16 0.930 . S
H6 C18 0.930 . S
H7 C20 0.930 . S
C8 H0 0.930 . S
C8 C9 1.382 . S
C8 C10 1.426 . S
C9 C8 1.382 . S
C9 C13 1.389 . S
C10 C8 1.426 . S
C10 C11 1.375 . S
C10 C14 1.532 1_655 S
C11 H1 0.930 . S
C11 C10 1.375 . S
C11 C12 1.416 . S
C12 C11 1.416 . S
C12 C13 1.371 . S
C13 H2 0.930 . S
C13 C9 1.389 . S
C13 C12 1.371 . S
C14 H3 0.970 . S
C14 H4 0.970 . S
C14 C10 1.532 1_455 S
C14 C15 1.499 . S
C15 C14 1.499 . S
C15 C16 1.370 . S
C15 C20 1.415 . S
C16 H5 0.930 . S
C16 C15 1.370 . S
C16 C17 1.407 . S
C17 C16 1.407 . S
C17 C18 1.365 . S
C18 H6 0.930 . S
C18 C17 1.365 . S
C18 C19 1.393 . S
C19 C18 1.393 . S
C19 C20 1.387 . S
C20 H7 0.930 . S
C20 C15 1.415 . S
C20 C19 1.387 . S
H21 C29 0.930 . S
H22 C32 0.930 . S
H23 C34 0.930 . S
H24 C35 0.970 . S
H25 C35 0.970 . S
H26 C37 0.930 . S
H27 C39 0.930 . S
H28 C41 0.930 . S
C29 H21 0.930 . S
C29 C30 1.382 . S
C29 C31 1.426 . S
C30 C29 1.382 . S
C30 C34 1.389 . S
C31 C29 1.426 . S
C31 C32 1.375 . S
C31 C35 1.532 1_565 S
C32 H22 0.930 . S
C32 C31 1.375 . S
C32 C33 1.416 . S
C33 C32 1.416 . S
C33 C34 1.371 . S
C34 H23 0.930 . S
C34 C30 1.389 . S
C34 C33 1.371 . S
C35 H24 0.970 . S
C35 H25 0.970 . S
C35 C31 1.532 1_545 S
C35 C36 1.499 . S
C36 C35 1.499 . S
C36 C37 1.370 . S
C36 C41 1.415 . S
C37 H26 0.930 . S
C37 C36 1.370 . S
C37 C38 1.407 . S
C38 C37 1.407 . S
C38 C39 1.365 . S
C39 H27 0.930 . S
C39 C38 1.365 . S
C39 C40 1.393 . S
C40 C39 1.393 . S
C40 C41 1.387 . S
C41 H28 0.930 . S
C41 C36 1.415 . S
C41 C40 1.387 . S
H42 C50 0.930 . S
H43 C53 0.930 . S
H44 C55 0.930 . S
H45 C56 0.970 . S
H46 C56 0.970 . S
H47 C58 0.930 . S
H48 C60 0.930 . S
H49 C62 0.930 . S
C50 H42 0.930 . S
C50 C51 1.382 . S
C50 C52 1.426 . S
C51 C50 1.382 . S
C51 C55 1.389 . S
C52 C50 1.426 . S
C52 C53 1.375 . S
C52 C56 1.532 . S
C53 H43 0.930 . S
C53 C52 1.375 . S
C53 C54 1.416 . S
C54 C53 1.416 . S
C54 C55 1.371 . S
C55 H44 0.930 . S
C55 C51 1.389 . S
C55 C54 1.371 . S
C56 H45 0.970 . S
C56 H46 0.970 . S
C56 C52 1.532 . S
C56 C57 1.499 . S
C57 C56 1.499 . S
C57 C58 1.370 . S
C57 C62 1.415 . S
C58 H47 0.930 . S
C58 C57 1.370 . S
C58 C59 1.407 . S
C59 C58 1.407 . S
C59 C60 1.365 . S
C60 H48 0.930 . S
C60 C59 1.365 . S
C60 C61 1.393 . S
C61 C60 1.393 . S
C61 C62 1.387 . S
C62 H49 0.930 . S
C62 C57 1.415 . S
C62 C61 1.387 . S
H63 C71 0.930 . S
H64 C74 0.930 . S
H65 C76 0.930 . S
H66 C77 0.970 . S
H67 C77 0.970 . S
H68 C79 0.930 . S
H69 C81 0.930 . S
H70 C83 0.930 . S
C71 H63 0.930 . S
C71 C72 1.382 . S
C71 C73 1.426 . S
C72 C71 1.382 . S
C72 C76 1.389 . S
C73 C71 1.426 . S
C73 C74 1.375 . S
C73 C77 1.532 1_655 S
C74 H64 0.930 . S
C74 C73 1.375 . S
C74 C75 1.416 . S
C75 C74 1.416 . S
C75 C76 1.371 . S
C76 H65 0.930 . S
C76 C72 1.389 . S
C76 C75 1.371 . S
C77 H66 0.970 . S
C77 H67 0.970 . S
C77 C73 1.532 1_455 S
C77 C78 1.499 . S
C78 C77 1.499 . S
C78 C79 1.370 . S
C78 C83 1.415 . S
C79 H68 0.930 . S
C79 C78 1.370 . S
C79 C80 1.407 . S
C80 C79 1.407 . S
C80 C81 1.365 . S
C81 H69 0.930 . S
C81 C80 1.365 . S
C81 C82 1.393 . S
C82 C81 1.393 . S
C82 C83 1.387 . S
C83 H70 0.930 . S
C83 C78 1.415 . S
C83 C82 1.387 . S
H84 C92 0.930 . S
H85 C95 0.930 . S
H86 C97 0.930 . S
H87 C98 0.970 1_554 S
H88 C98 0.970 . S
H89 C100 0.930 . S
H90 C102 0.930 . S
H91 C104 0.930 . S
C92 H84 0.930 . S
C92 C93 1.382 . S
C92 C94 1.426 1_554 S
C93 C92 1.382 . S
C93 C97 1.389 1_554 S
C94 C92 1.426 1_556 S
C94 C95 1.375 . S
C94 C98 1.532 . S
C95 H85 0.930 . S
C95 C94 1.375 . S
C95 C96 1.416 . S
C96 C95 1.416 . S
C96 C97 1.371 . S
C97 H86 0.930 . S
C97 C93 1.389 1_556 S
C97 C96 1.371 . S
C98 H87 0.970 1_556 S
C98 H88 0.970 . S
C98 C94 1.532 . S
C98 C99 1.499 1_546 S
C99 C98 1.499 1_564 S
C99 C100 1.370 . S
C99 C104 1.415 1_554 S
C100 H89 0.930 . S
C100 C99 1.370 . S
C100 C101 1.407 . S
C101 C100 1.407 . S
C101 C102 1.365 . S
C102 H90 0.930 . S
C102 C101 1.365 . S
C102 C103 1.393 1_554 S
C103 C102 1.393 1_556 S
C103 C104 1.387 . S
C104 H91 0.930 . S
C104 C99 1.415 1_556 S
C104 C103 1.387 . S
H105 C113 0.930 . S
H106 C116 0.930 . S
H107 C118 0.930 . S
H108 C119 0.970 . S
H109 C119 0.970 . S
H110 C121 0.930 . S
H111 C123 0.930 . S
H112 C125 0.930 . S
C113 H105 0.930 . S
C113 C114 1.382 . S
C113 C115 1.426 . S
C114 C113 1.382 . S
C114 C118 1.389 . S
C115 C113 1.426 . S
C115 C116 1.375 . S
C115 C119 1.532 . S
C116 H106 0.930 . S
C116 C115 1.375 . S
C116 C117 1.416 . S
C117 C116 1.416 . S
C117 C118 1.371 . S
C118 H107 0.930 . S
C118 C114 1.389 . S
C118 C117 1.371 . S
C119 H108 0.970 . S
C119 H109 0.970 . S
C119 C115 1.532 . S
C119 C120 1.499 . S
C120 C119 1.499 . S
C120 C121 1.370 . S
C120 C125 1.415 . S
C121 H110 0.930 . S
C121 C120 1.370 . S
C121 C122 1.407 . S
C122 C121 1.407 . S
C122 C123 1.365 . S
C123 H111 0.930 . S
C123 C122 1.365 . S
C123 C124 1.393 . S
C124 C123 1.393 . S
C124 C125 1.387 . S
C125 H112 0.930 . S
C125 C120 1.415 . S
C125 C124 1.387 . S
Li126 N143 1.990 . S
Li126 O186 1.956 . S
Li126 O187 1.970 . S
Li126 O188 1.961 . S
Li127 N151 1.990 . S
Li127 O186 1.970 . S
Li127 O187 1.956 . S
Li127 O189 1.961 . S
Li128 N173 1.990 . S
Li128 O186 1.961 . S
Li128 O188 1.956 . S
Li128 O189 1.970 . S
Li129 N179 1.990 . S
Li129 O187 1.961 . S
Li129 O188 1.970 . S
Li129 O189 1.956 . S
C130 C132 1.348 . S
C130 C133 1.356 . S
C130 O186 1.325 . S
N131 C134 1.314 . S
N131 C135 1.279 . S
C132 C130 1.348 . S
C132 C134 1.353 . S
C132 H190 0.929 . S
C133 C130 1.356 . S
C133 C135 1.358 . S
C133 H191 0.930 . S
C134 N131 1.314 . S
C134 C132 1.353 . S
C134 H192 0.930 . S
C135 N131 1.279 . S
C135 C133 1.358 . S
C135 H193 0.930 . S
C136 C139 1.348 . S
C136 C140 1.356 . S
C136 O187 1.325 . S
C137 N138 1.279 . S
C137 C140 1.358 . S
C137 H194 0.930 . S
N138 C137 1.279 . S
N138 C141 1.314 . S
C139 C136 1.348 . S
C139 C141 1.353 . S
C139 H195 0.929 . S
C140 C136 1.356 . S
C140 C137 1.358 . S
C140 H196 0.930 . S
C141 N138 1.314 . S
C141 C139 1.353 . S
C141 H197 0.930 . S
C142 N143 1.314 . S
C142 C147 1.353 . S
C142 H148 0.930 . S
N143 Li126 1.990 . S
N143 C142 1.314 . S
N143 C145 1.279 . S
C144 C145 1.358 . S
C144 C146 1.356 . S
C144 H198 0.930 . S
C145 N143 1.279 . S
C145 C144 1.358 . S
C145 H149 0.930 . S
C146 C144 1.356 . S
C146 C147 1.348 . S
C147 C142 1.353 . S
C147 C146 1.348 . S
C147 H199 0.929 . S
H148 C142 0.930 . S
H149 C145 0.930 . S
C150 N151 1.314 . S
C150 C152 1.353 . S
C150 H156 0.930 . S
N151 Li127 1.990 . S
N151 C150 1.314 . S
N151 C154 1.279 . S
C152 C150 1.353 . S
C152 C155 1.348 . S
C152 H200 0.929 . S
C153 C154 1.358 . S
C153 C155 1.356 . S
C153 H201 0.930 . S
C154 N151 1.279 . S
C154 C153 1.358 . S
C154 H157 0.930 . S
C155 C152 1.348 . S
C155 C153 1.356 . S
H156 C150 0.930 . S
H157 C154 0.930 . S
C158 C160 1.348 . S
C158 C161 1.356 . S
C158 O188 1.325 . S
N159 C162 1.314 . S
N159 C163 1.279 . S
C160 C158 1.348 . S
C160 C162 1.353 . S
C160 H202 0.929 . S
C161 C158 1.356 . S
C161 C163 1.358 . S
C161 H203 0.930 . S
C162 N159 1.314 . S
C162 C160 1.353 . S
C162 H204 0.930 . S
C163 N159 1.279 . S
C163 C161 1.358 . S
C163 H205 0.930 . S
C164 C165 1.348 . S
C164 C166 1.356 . S
C164 O189 1.325 . S
C165 C164 1.348 . S
C165 C167 1.353 . S
C165 H206 0.929 . S
C166 C164 1.356 . S
C166 C168 1.358 . S
C166 H207 0.930 . S
C167 C165 1.353 . S
C167 N169 1.314 . S
C167 H208 0.930 . S
C168 C166 1.358 . S
C168 N169 1.279 . S
C168 H209 0.930 . S
N169 C167 1.314 . S
N169 C168 1.279 . S
C170 C172 1.353 . S
C170 N173 1.314 . S
C170 H176 0.930 . S
C171 N173 1.279 . S
C171 C174 1.358 . S
C171 H177 0.930 . S
C172 C170 1.353 . S
C172 C175 1.348 . S
C172 H210 0.929 . S
N173 Li128 1.990 . S
N173 C170 1.314 . S
N173 C171 1.279 . S
C174 C171 1.358 . S
C174 C175 1.356 . S
C174 H211 0.930 . S
C175 C172 1.348 . S
C175 C174 1.356 . S
H176 C170 0.930 . S
H177 C171 0.930 . S
C178 N179 1.314 . S
C178 C180 1.353 . S
C178 H184 0.930 . S
N179 Li129 1.990 . S
N179 C178 1.314 . S
N179 C182 1.279 . S
C180 C178 1.353 . S
C180 C183 1.348 . S
C180 H212 0.929 . S
C181 C182 1.358 . S
C181 C183 1.356 . S
C181 H213 0.930 . S
C182 N179 1.279 . S
C182 C181 1.358 . S
C182 H185 0.930 . S
C183 C180 1.348 . S
C183 C181 1.356 . S
H184 C178 0.930 . S
H185 C182 0.930 . S
O186 Li126 1.956 . S
O186 Li127 1.970 . S
O186 Li128 1.961 . S
O186 C130 1.325 . S
O187 Li126 1.970 . S
O187 Li127 1.956 . S
O187 Li129 1.961 . S
O187 C136 1.325 . S
O188 Li126 1.961 . S
O188 Li128 1.956 . S
O188 Li129 1.970 . S
O188 C158 1.325 . S
O189 Li127 1.961 . S
O189 Li128 1.970 . S
O189 Li129 1.956 . S
O189 C164 1.325 . S
H190 C132 0.929 . S
H191 C133 0.930 . S
H192 C134 0.930 . S
H193 C135 0.930 . S
H194 C137 0.930 . S
H195 C139 0.929 . S
H196 C140 0.930 . S
H197 C141 0.930 . S
H198 C144 0.930 . S
H199 C147 0.929 . S
H200 C152 0.929 . S
H201 C153 0.930 . S
H202 C160 0.929 . S
H203 C161 0.930 . S
H204 C162 0.930 . S
H205 C163 0.930 . S
H206 C165 0.929 . S
H207 C166 0.930 . S
H208 C167 0.930 . S
H209 C168 0.930 . S
H210 C172 0.929 . S
H211 C174 0.930 . S
H212 C180 0.929 . S
H213 C181 0.930 . S
Li214 N231 1.990 . S
Li214 O274 1.956 . S
Li214 O275 1.970 . S
Li214 O276 1.961 . S
Li215 N239 1.990 . S
Li215 O274 1.970 . S
Li215 O275 1.956 . S
Li215 O277 1.961 . S
Li216 N261 1.990 . S
Li216 O274 1.961 . S
Li216 O276 1.956 . S
Li216 O277 1.970 . S
Li217 N267 1.990 . S
Li217 O275 1.961 . S
Li217 O276 1.970 . S
Li217 O277 1.956 . S
C218 C220 1.348 . S
C218 C221 1.356 . S
C218 O274 1.325 . S
N219 C222 1.314 . S
N219 C223 1.279 . S
C220 C218 1.348 . S
C220 C222 1.353 . S
C220 H278 0.929 . S
C221 C218 1.356 . S
C221 C223 1.358 . S
C221 H279 0.930 . S
C222 N219 1.314 . S
C222 C220 1.353 . S
C222 H280 0.930 . S
C223 N219 1.279 . S
C223 C221 1.358 . S
C223 H281 0.930 . S
C224 C227 1.348 . S
C224 C228 1.356 . S
C224 O275 1.325 . S
C225 N226 1.279 . S
C225 C228 1.358 . S
C225 H282 0.930 . S
N226 C225 1.279 . S
N226 C229 1.314 . S
C227 C224 1.348 . S
C227 C229 1.353 . S
C227 H283 0.929 . S
C228 C224 1.356 . S
C228 C225 1.358 . S
C228 H284 0.930 . S
C229 N226 1.314 . S
C229 C227 1.353 . S
C229 H285 0.930 . S
C230 N231 1.314 . S
C230 C235 1.353 . S
C230 H236 0.930 . S
N231 Li214 1.990 . S
N231 C230 1.314 . S
N231 C233 1.279 . S
C232 C233 1.358 . S
C232 C234 1.356 . S
C232 H286 0.930 . S
C233 N231 1.279 . S
C233 C232 1.358 . S
C233 H237 0.930 . S
C234 C232 1.356 . S
C234 C235 1.348 . S
C235 C230 1.353 . S
C235 C234 1.348 . S
C235 H287 0.929 . S
H236 C230 0.930 . S
H237 C233 0.930 . S
C238 N239 1.314 . S
C238 C240 1.353 . S
C238 H244 0.930 . S
N239 Li215 1.990 . S
N239 C238 1.314 . S
N239 C242 1.279 . S
C240 C238 1.353 . S
C240 C243 1.348 . S
C240 H288 0.929 . S
C241 C242 1.358 . S
C241 C243 1.356 . S
C241 H289 0.930 . S
C242 N239 1.279 . S
C242 C241 1.358 . S
C242 H245 0.930 . S
C243 C240 1.348 . S
C243 C241 1.356 . S
H244 C238 0.930 . S
H245 C242 0.930 . S
C246 C248 1.348 . S
C246 C249 1.356 . S
C246 O276 1.325 . S
N247 C250 1.314 . S
N247 C251 1.279 . S
C248 C246 1.348 . S
C248 C250 1.353 . S
C248 H290 0.929 . S
C249 C246 1.356 . S
C249 C251 1.358 . S
C249 H291 0.930 . S
C250 N247 1.314 . S
C250 C248 1.353 . S
C250 H292 0.930 . S
C251 N247 1.279 . S
C251 C249 1.358 . S
C251 H293 0.930 . S
C252 C253 1.348 . S
C252 C254 1.356 . S
C252 O277 1.325 . S
C253 C252 1.348 . S
C253 C255 1.353 . S
C253 H294 0.929 . S
C254 C252 1.356 . S
C254 C256 1.358 . S
C254 H295 0.930 . S
C255 C253 1.353 . S
C255 N257 1.314 . S
C255 H296 0.930 . S
C256 C254 1.358 . S
C256 N257 1.279 . S
C256 H297 0.930 . S
N257 C255 1.314 . S
N257 C256 1.279 . S
C258 C260 1.353 . S
C258 N261 1.314 . S
C258 H264 0.930 . S
C259 N261 1.279 . S
C259 C262 1.358 . S
C259 H265 0.930 . S
C260 C258 1.353 . S
C260 C263 1.348 . S
C260 H298 0.929 . S
N261 Li216 1.990 . S
N261 C258 1.314 . S
N261 C259 1.279 . S
C262 C259 1.358 . S
C262 C263 1.356 . S
C262 H299 0.930 . S
C263 C260 1.348 . S
C263 C262 1.356 . S
H264 C258 0.930 . S
H265 C259 0.930 . S
C266 N267 1.314 . S
C266 C268 1.353 . S
C266 H272 0.930 . S
N267 Li217 1.990 . S
N267 C266 1.314 . S
N267 C270 1.279 . S
C268 C266 1.353 . S
C268 C271 1.348 . S
C268 H300 0.929 . S
C269 C270 1.358 . S
C269 C271 1.356 . S
C269 H301 0.930 . S
C270 N267 1.279 . S
C270 C269 1.358 . S
C270 H273 0.930 . S
C271 C268 1.348 . S
C271 C269 1.356 . S
H272 C266 0.930 . S
H273 C270 0.930 . S
O274 Li214 1.956 . S
O274 Li215 1.970 . S
O274 Li216 1.961 . S
O274 C218 1.325 . S
O275 Li214 1.970 . S
O275 Li215 1.956 . S
O275 Li217 1.961 . S
O275 C224 1.325 . S
O276 Li214 1.961 . S
O276 Li216 1.956 . S
O276 Li217 1.970 . S
O276 C246 1.325 . S
O277 Li215 1.961 . S
O277 Li216 1.970 . S
O277 Li217 1.956 . S
O277 C252 1.325 . S
H278 C220 0.929 . S
H279 C221 0.930 . S
H280 C222 0.930 . S
H281 C223 0.930 . S
H282 C225 0.930 . S
H283 C227 0.929 . S
H284 C228 0.930 . S
H285 C229 0.930 . S
H286 C232 0.930 . S
H287 C235 0.929 . S
H288 C240 0.929 . S
H289 C241 0.930 . S
H290 C248 0.929 . S
H291 C249 0.930 . S
H292 C250 0.930 . S
H293 C251 0.930 . S
H294 C253 0.929 . S
H295 C254 0.930 . S
H296 C255 0.930 . S
H297 C256 0.930 . S
H298 C260 0.929 . S
H299 C262 0.930 . S
H300 C268 0.929 . S
H301 C269 0.930 . S
Li302 N319 1.990 . S
Li302 O362 1.956 . S
Li302 O363 1.970 . S
Li302 O364 1.961 . S
Li303 N327 1.990 . S
Li303 O362 1.970 . S
Li303 O363 1.956 . S
Li303 O365 1.961 . S
Li304 N349 1.990 . S
Li304 O362 1.961 . S
Li304 O364 1.956 . S
Li304 O365 1.970 . S
Li305 N355 1.990 . S
Li305 O363 1.961 . S
Li305 O364 1.970 . S
Li305 O365 1.956 . S
C306 C308 1.348 . S
C306 C309 1.356 . S
C306 O362 1.325 . S
N307 C310 1.314 . S
N307 C311 1.279 . S
C308 C306 1.348 . S
C308 C310 1.353 . S
C308 H366 0.929 . S
C309 C306 1.356 . S
C309 C311 1.358 . S
C309 H367 0.930 . S
C310 N307 1.314 . S
C310 C308 1.353 . S
C310 H368 0.930 . S
C311 N307 1.279 . S
C311 C309 1.358 . S
C311 H369 0.930 . S
C312 C315 1.348 . S
C312 C316 1.356 . S
C312 O363 1.325 . S
C313 N314 1.279 . S
C313 C316 1.358 . S
C313 H370 0.930 . S
N314 C313 1.279 . S
N314 C317 1.314 . S
C315 C312 1.348 . S
C315 C317 1.353 . S
C315 H371 0.929 . S
C316 C312 1.356 . S
C316 C313 1.358 . S
C316 H372 0.930 . S
C317 N314 1.314 . S
C317 C315 1.353 . S
C317 H373 0.930 . S
C318 N319 1.314 . S
C318 C323 1.353 . S
C318 H324 0.930 . S
N319 Li302 1.990 . S
N319 C318 1.314 . S
N319 C321 1.279 . S
C320 C321 1.358 . S
C320 C322 1.356 . S
C320 H374 0.930 . S
C321 N319 1.279 . S
C321 C320 1.358 . S
C321 H325 0.930 . S
C322 C320 1.356 . S
C322 C323 1.348 . S
C323 C318 1.353 . S
C323 C322 1.348 . S
C323 H375 0.929 . S
H324 C318 0.930 . S
H325 C321 0.930 . S
C326 N327 1.314 . S
C326 C328 1.353 . S
C326 H332 0.930 . S
N327 Li303 1.990 . S
N327 C326 1.314 . S
N327 C330 1.279 . S
C328 C326 1.353 . S
C328 C331 1.348 . S
C328 H376 0.929 . S
C329 C330 1.358 . S
C329 C331 1.356 . S
C329 H377 0.930 . S
C330 N327 1.279 . S
C330 C329 1.358 . S
C330 H333 0.930 . S
C331 C328 1.348 . S
C331 C329 1.356 . S
H332 C326 0.930 . S
H333 C330 0.930 . S
C334 C336 1.348 . S
C334 C337 1.356 . S
C334 O364 1.325 . S
N335 C338 1.314 . S
N335 C339 1.279 . S
C336 C334 1.348 . S
C336 C338 1.353 . S
C336 H378 0.929 . S
C337 C334 1.356 . S
C337 C339 1.358 . S
C337 H379 0.930 . S
C338 N335 1.314 . S
C338 C336 1.353 . S
C338 H380 0.930 . S
C339 N335 1.279 . S
C339 C337 1.358 . S
C339 H381 0.930 . S
C340 C341 1.348 . S
C340 C342 1.356 . S
C340 O365 1.325 . S
C341 C340 1.348 . S
C341 C343 1.353 . S
C341 H382 0.929 . S
C342 C340 1.356 . S
C342 C344 1.358 . S
C342 H383 0.930 . S
C343 C341 1.353 . S
C343 N345 1.314 . S
C343 H384 0.930 . S
C344 C342 1.358 . S
C344 N345 1.279 . S
C344 H385 0.930 . S
N345 C343 1.314 . S
N345 C344 1.279 . S
C346 C348 1.353 . S
C346 N349 1.314 . S
C346 H352 0.930 . S
C347 N349 1.279 . S
C347 C350 1.358 . S
C347 H353 0.930 . S
C348 C346 1.353 . S
C348 C351 1.348 . S
C348 H386 0.929 . S
N349 Li304 1.990 . S
N349 C346 1.314 . S
N349 C347 1.279 . S
C350 C347 1.358 . S
C350 C351 1.356 . S
C350 H387 0.930 . S
C351 C348 1.348 . S
C351 C350 1.356 . S
H352 C346 0.930 . S
H353 C347 0.930 . S
C354 N355 1.314 . S
C354 C356 1.353 . S
C354 H360 0.930 . S
N355 Li305 1.990 . S
N355 C354 1.314 . S
N355 C358 1.279 . S
C356 C354 1.353 . S
C356 C359 1.348 . S
C356 H388 0.929 . S
C357 C358 1.358 . S
C357 C359 1.356 . S
C357 H389 0.930 . S
C358 N355 1.279 . S
C358 C357 1.358 . S
C358 H361 0.930 . S
C359 C356 1.348 . S
C359 C357 1.356 . S
H360 C354 0.930 . S
H361 C358 0.930 . S
O362 Li302 1.956 . S
O362 Li303 1.970 . S
O362 Li304 1.961 . S
O362 C306 1.325 . S
O363 Li302 1.970 . S
O363 Li303 1.956 . S
O363 Li305 1.961 . S
O363 C312 1.325 . S
O364 Li302 1.961 . S
O364 Li304 1.956 . S
O364 Li305 1.970 . S
O364 C334 1.325 . S
O365 Li303 1.961 . S
O365 Li304 1.970 . S
O365 Li305 1.956 . S
O365 C340 1.325 . S
H366 C308 0.929 . S
H367 C309 0.930 . S
H368 C310 0.930 . S
H369 C311 0.930 . S
H370 C313 0.930 . S
H371 C315 0.929 . S
H372 C316 0.930 . S
H373 C317 0.930 . S
H374 C320 0.930 . S
H375 C323 0.929 . S
H376 C328 0.929 . S
H377 C329 0.930 . S
H378 C336 0.929 . S
H379 C337 0.930 . S
H380 C338 0.930 . S
H381 C339 0.930 . S
H382 C341 0.929 . S
H383 C342 0.930 . S
H384 C343 0.930 . S
H385 C344 0.930 . S
H386 C348 0.929 . S
H387 C350 0.930 . S
H388 C356 0.929 . S
H389 C357 0.930 . S
Li390 N407 1.990 . S
Li390 O450 1.956 . S
Li390 O451 1.970 . S
Li390 O452 1.961 . S
Li391 N415 1.990 . S
Li391 O450 1.970 . S
Li391 O451 1.956 . S
Li391 O453 1.961 . S
Li392 N437 1.990 . S
Li392 O450 1.961 . S
Li392 O452 1.956 . S
Li392 O453 1.970 . S
Li393 N443 1.990 . S
Li393 O451 1.961 . S
Li393 O452 1.970 . S
Li393 O453 1.956 . S
C394 C396 1.348 . S
C394 C397 1.356 . S
C394 O450 1.325 . S
N395 C398 1.314 . S
N395 C399 1.279 . S
C396 C394 1.348 . S
C396 C398 1.353 1_556 S
C396 H454 0.929 . S
C397 C394 1.356 . S
C397 C399 1.358 1_556 S
C397 H455 0.930 . S
C398 N395 1.314 . S
C398 C396 1.353 1_554 S
C398 H456 0.930 . S
C399 N395 1.279 . S
C399 C397 1.358 1_554 S
C399 H457 0.930 . S
C400 C403 1.348 . S
C400 C404 1.356 . S
C400 O451 1.325 . S
C401 N402 1.279 . S
C401 C404 1.358 . S
C401 H458 0.930 . S
N402 C401 1.279 . S
N402 C405 1.314 . S
C403 C400 1.348 . S
C403 C405 1.353 . S
C403 H459 0.929 . S
C404 C400 1.356 . S
C404 C401 1.358 . S
C404 H460 0.930 . S
C405 N402 1.314 . S
C405 C403 1.353 . S
C405 H461 0.930 . S
C406 N407 1.314 . S
C406 C411 1.365 . S
C406 H412 0.930 . S
N407 Li390 1.990 . S
N407 C406 1.314 . S
N407 C409 1.279 1_556 S
C408 C409 1.358 . S
C408 C410 1.356 . S
C408 H462 0.930 . S
C409 N407 1.279 1_554 S
C409 C408 1.358 . S
C409 H413 0.930 . S
C410 C408 1.356 . S
C410 C411 1.333 1_554 S
C411 C406 1.365 . S
C411 C410 1.333 1_556 S
C411 H463 0.932 . S
H412 C406 0.930 . S
H413 C409 0.930 . S
C414 N415 1.314 . S
C414 C416 1.353 . S
C414 H420 0.930 . S
N415 Li391 1.990 . S
N415 C414 1.314 . S
N415 C418 1.279 . S
C416 C414 1.353 . S
C416 C419 1.348 . S
C416 H464 0.929 . S
C417 C418 1.358 . S
C417 C419 1.356 . S
C417 H465 0.930 . S
C418 N415 1.279 . S
C418 C417 1.358 . S
C418 H421 0.930 . S
C419 C416 1.348 . S
C419 C417 1.356 . S
H420 C414 0.930 . S
H421 C418 0.930 . S
C422 C424 1.348 . S
C422 C425 1.356 . S
C422 O452 1.325 . S
N423 C426 1.314 . S
N423 C427 1.279 . S
C424 C422 1.348 . S
C424 C426 1.353 . S
C424 H466 0.929 . S
C425 C422 1.356 . S
C425 C427 1.358 . S
C425 H467 0.930 . S
C426 N423 1.314 . S
C426 C424 1.353 . S
C426 H468 0.930 . S
C427 N423 1.279 . S
C427 C425 1.358 . S
C427 H469 0.930 . S
C428 C429 1.348 . S
C428 C430 1.356 . S
C428 O453 1.325 . S
C429 C428 1.348 . S
C429 C431 1.353 . S
C429 H470 0.929 . S
C430 C428 1.356 . S
C430 C432 1.358 . S
C430 H471 0.930 . S
C431 C429 1.353 . S
C431 N433 1.314 . S
C431 H472 0.930 . S
C432 C430 1.358 . S
C432 N433 1.279 . S
C432 H473 0.930 . S
N433 C431 1.314 . S
N433 C432 1.279 . S
C434 C436 1.353 . S
C434 N437 1.314 . S
C434 H440 0.930 . S
C435 N437 1.279 . S
C435 C438 1.358 . S
C435 H441 0.930 . S
C436 C434 1.353 . S
C436 C439 1.348 . S
C436 H474 0.929 . S
N437 Li392 1.990 . S
N437 C434 1.314 . S
N437 C435 1.279 . S
C438 C435 1.358 . S
C438 C439 1.356 . S
C438 H475 0.930 . S
C439 C436 1.348 . S
C439 C438 1.356 . S
H440 C434 0.930 . S
H441 C435 0.930 . S
C442 N443 1.314 . S
C442 C444 1.353 . S
C442 H448 0.930 . S
N443 Li393 1.990 . S
N443 C442 1.314 . S
N443 C446 1.279 . S
C444 C442 1.353 . S
C444 C447 1.348 . S
C444 H476 0.929 . S
C445 C446 1.358 . S
C445 C447 1.356 . S
C445 H477 0.930 . S
C446 N443 1.279 . S
C446 C445 1.358 . S
C446 H449 0.930 . S
C447 C444 1.348 . S
C447 C445 1.356 . S
H448 C442 0.930 . S
H449 C446 0.930 . S
O450 Li390 1.956 . S
O450 Li391 1.970 . S
O450 Li392 1.961 . S
O450 C394 1.325 . S
O451 Li390 1.970 . S
O451 Li391 1.956 . S
O451 Li393 1.961 . S
O451 C400 1.325 . S
O452 Li390 1.961 . S
O452 Li392 1.956 . S
O452 Li393 1.970 . S
O452 C422 1.325 . S
O453 Li391 1.961 . S
O453 Li392 1.970 . S
O453 Li393 1.956 . S
O453 C428 1.325 . S
H454 C396 0.929 . S
H455 C397 0.930 . S
H456 C398 0.930 . S
H457 C399 0.930 . S
H458 C401 0.930 . S
H459 C403 0.929 . S
H460 C404 0.930 . S
H461 C405 0.930 . S
H462 C408 0.930 . S
H463 C411 0.932 . S
H464 C416 0.929 . S
H465 C417 0.930 . S
H466 C424 0.929 . S
H467 C425 0.930 . S
H468 C426 0.930 . S
H469 C427 0.930 . S
H470 C429 0.929 . S
H471 C430 0.930 . S
H472 C431 0.930 . S
H473 C432 0.930 . S
H474 C436 0.929 . S
H475 C438 0.930 . S
H476 C444 0.929 . S
H477 C445 0.930 . S
Li478 N495 1.990 . S
Li478 O538 1.956 . S
Li478 O539 1.970 . S
Li478 O540 1.961 . S
Li479 N503 1.990 . S
Li479 O538 1.970 . S
Li479 O539 1.956 . S
Li479 O541 1.961 . S
Li480 N525 1.990 . S
Li480 O538 1.961 . S
Li480 O540 1.956 . S
Li480 O541 1.970 . S
Li481 N531 1.990 . S
Li481 O539 1.961 . S
Li481 O540 1.970 . S
Li481 O541 1.956 . S
C482 C484 1.348 . S
C482 C485 1.356 . S
C482 O538 1.325 . S
N483 C486 1.314 . S
N483 C487 1.279 . S
C484 C482 1.348 . S
C484 C486 1.353 . S
C484 H542 0.929 . S
C485 C482 1.356 . S
C485 C487 1.358 . S
C485 H543 0.930 . S
C486 N483 1.314 . S
C486 C484 1.353 . S
C486 H544 0.930 . S
C487 N483 1.279 . S
C487 C485 1.358 . S
C487 H545 0.930 . S
C488 C491 1.348 . S
C488 C492 1.356 . S
C488 O539 1.325 . S
C489 N490 1.279 . S
C489 C492 1.358 . S
C489 H546 0.930 . S
N490 C489 1.279 . S
N490 C493 1.314 . S
C491 C488 1.348 . S
C491 C493 1.353 . S
C491 H547 0.929 . S
C492 C488 1.356 . S
C492 C489 1.358 . S
C492 H548 0.930 . S
C493 N490 1.314 . S
C493 C491 1.353 . S
C493 H549 0.930 . S
C494 N495 1.314 . S
C494 C499 1.353 . S
C494 H500 0.930 . S
N495 Li478 1.990 . S
N495 C494 1.314 . S
N495 C497 1.279 . S
C496 C497 1.358 . S
C496 C498 1.356 . S
C496 H550 0.930 . S
C497 N495 1.279 . S
C497 C496 1.358 . S
C497 H501 0.930 . S
C498 C496 1.356 . S
C498 C499 1.348 . S
C499 C494 1.353 . S
C499 C498 1.348 . S
C499 H551 0.929 . S
H500 C494 0.930 . S
H501 C497 0.930 . S
C502 N503 1.314 . S
C502 C504 1.353 . S
C502 H508 0.930 . S
N503 Li479 1.990 . S
N503 C502 1.314 . S
N503 C506 1.279 . S
C504 C502 1.353 . S
C504 C507 1.348 . S
C504 H552 0.929 . S
C505 C506 1.358 . S
C505 C507 1.356 . S
C505 H553 0.930 . S
C506 N503 1.279 . S
C506 C505 1.358 . S
C506 H509 0.930 . S
C507 C504 1.348 . S
C507 C505 1.356 . S
H508 C502 0.930 . S
H509 C506 0.930 . S
C510 C512 1.348 . S
C510 C513 1.356 . S
C510 O540 1.325 . S
N511 C514 1.314 . S
N511 C515 1.279 . S
C512 C510 1.348 . S
C512 C514 1.353 1_554 S
C512 H554 0.929 . S
C513 C510 1.356 . S
C513 C515 1.358 1_554 S
C513 H555 0.930 . S
C514 N511 1.314 . S
C514 C512 1.353 1_556 S
C514 H556 0.930 . S
C515 N511 1.279 . S
C515 C513 1.358 1_556 S
C515 H557 0.930 . S
C516 C517 1.348 . S
C516 C518 1.356 . S
C516 O541 1.325 . S
C517 C516 1.348 . S
C517 C519 1.353 . S
C517 H558 0.929 . S
C518 C516 1.356 . S
C518 C520 1.358 . S
C518 H559 0.930 . S
C519 C517 1.353 . S
C519 N521 1.314 . S
C519 H560 0.930 . S
C520 C518 1.358 . S
C520 N521 1.279 . S
C520 H561 0.930 . S
N521 C519 1.314 . S
N521 C520 1.279 . S
C522 C524 1.353 1_554 S
C522 N525 1.314 . S
C522 H528 0.930 . S
C523 N525 1.279 1_556 S
C523 C526 1.358 . S
C523 H529 0.930 . S
C524 C522 1.353 1_556 S
C524 C527 1.348 . S
C524 H562 0.929 . S
N525 Li480 1.990 . S
N525 C522 1.314 . S
N525 C523 1.279 1_554 S
C526 C523 1.358 . S
C526 C527 1.356 . S
C526 H563 0.930 . S
C527 C524 1.348 . S
C527 C526 1.356 . S
H528 C522 0.930 . S
H529 C523 0.930 . S
C530 N531 1.314 . S
C530 C532 1.353 . S
C530 H536 0.930 . S
N531 Li481 1.990 . S
N531 C530 1.314 . S
N531 C534 1.279 . S
C532 C530 1.353 . S
C532 C535 1.348 . S
C532 H564 0.929 . S
C533 C534 1.358 . S
C533 C535 1.356 . S
C533 H565 0.930 . S
C534 N531 1.279 . S
C534 C533 1.358 . S
C534 H537 0.930 . S
C535 C532 1.348 . S
C535 C533 1.356 . S
H536 C530 0.930 . S
H537 C534 0.930 . S
O538 Li478 1.956 . S
O538 Li479 1.970 . S
O538 Li480 1.961 . S
O538 C482 1.325 . S
O539 Li478 1.970 . S
O539 Li479 1.956 . S
O539 Li481 1.961 . S
O539 C488 1.325 . S
O540 Li478 1.961 . S
O540 Li480 1.956 . S
O540 Li481 1.970 . S
O540 C510 1.325 . S
O541 Li479 1.961 . S
O541 Li480 1.970 . S
O541 Li481 1.956 . S
O541 C516 1.325 . S
H542 C484 0.929 . S
H543 C485 0.930 . S
H544 C486 0.930 . S
H545 C487 0.930 . S
H546 C489 0.930 . S
H547 C491 0.929 . S
H548 C492 0.930 . S
H549 C493 0.930 . S
H550 C496 0.930 . S
H551 C499 0.929 . S
H552 C504 0.929 . S
H553 C505 0.930 . S
H554 C512 0.929 . S
H555 C513 0.930 . S
H556 C514 0.930 . S
H557 C515 0.930 . S
H558 C517 0.929 . S
H559 C518 0.930 . S
H560 C519 0.930 . S
H561 C520 0.930 . S
H562 C524 0.929 . S
H563 C526 0.930 . S
H564 C532 0.929 . S
H565 C533 0.930 . S
Li566 N583 1.990 . S
Li566 O626 1.956 . S
Li566 O627 1.970 . S
Li566 O628 1.961 . S
Li567 N591 1.990 . S
Li567 O626 1.970 . S
Li567 O627 1.956 . S
Li567 O629 1.961 . S
Li568 N613 1.990 . S
Li568 O626 1.961 . S
Li568 O628 1.956 . S
Li568 O629 1.970 . S
Li569 N619 1.990 . S
Li569 O627 1.961 . S
Li569 O628 1.970 . S
Li569 O629 1.956 . S
C570 C572 1.348 . S
C570 C573 1.356 . S
C570 O626 1.325 . S
N571 C574 1.314 . S
N571 C575 1.279 . S
C572 C570 1.348 . S
C572 C574 1.353 . S
C572 H630 0.929 . S
C573 C570 1.356 . S
C573 C575 1.358 . S
C573 H631 0.930 . S
C574 N571 1.314 . S
C574 C572 1.353 . S
C574 H632 0.930 . S
C575 N571 1.279 . S
C575 C573 1.358 . S
C575 H633 0.930 . S
C576 C579 1.348 . S
C576 C580 1.356 . S
C576 O627 1.325 . S
C577 N578 1.279 . S
C577 C580 1.358 . S
C577 H634 0.930 . S
N578 C577 1.279 . S
N578 C581 1.314 . S
C579 C576 1.348 . S
C579 C581 1.353 . S
C579 H635 0.929 . S
C580 C576 1.356 . S
C580 C577 1.358 . S
C580 H636 0.930 . S
C581 N578 1.314 . S
C581 C579 1.353 . S
C581 H637 0.930 . S
C582 N583 1.314 . S
C582 C587 1.353 . S
C582 H588 0.930 . S
N583 Li566 1.990 . S
N583 C582 1.314 . S
N583 C585 1.279 . S
C584 C585 1.358 . S
C584 C586 1.356 . S
C584 H638 0.930 . S
C585 N583 1.279 . S
C585 C584 1.358 . S
C585 H589 0.930 . S
C586 C584 1.356 . S
C586 C587 1.348 . S
C587 C582 1.353 . S
C587 C586 1.348 . S
C587 H639 0.929 . S
H588 C582 0.930 . S
H589 C585 0.930 . S
C590 N591 1.314 . S
C590 C592 1.353 . S
C590 H596 0.930 . S
N591 Li567 1.990 . S
N591 C590 1.314 . S
N591 C594 1.279 . S
C592 C590 1.353 . S
C592 C595 1.348 . S
C592 H640 0.929 . S
C593 C594 1.358 . S
C593 C595 1.356 . S
C593 H641 0.930 . S
C594 N591 1.279 . S
C594 C593 1.358 . S
C594 H597 0.930 . S
C595 C592 1.348 . S
C595 C593 1.356 . S
H596 C590 0.930 . S
H597 C594 0.930 . S
C598 C600 1.348 . S
C598 C601 1.356 . S
C598 O628 1.325 . S
N599 C602 1.314 . S
N599 C603 1.279 . S
C600 C598 1.348 . S
C600 C602 1.353 . S
C600 H642 0.929 . S
C601 C598 1.356 . S
C601 C603 1.358 . S
C601 H643 0.930 . S
C602 N599 1.314 . S
C602 C600 1.353 . S
C602 H644 0.930 . S
C603 N599 1.279 . S
C603 C601 1.358 . S
C603 H645 0.930 . S
C604 C605 1.348 . S
C604 C606 1.356 . S
C604 O629 1.325 . S
C605 C604 1.348 . S
C605 C607 1.353 . S
C605 H646 0.929 . S
C606 C604 1.356 . S
C606 C608 1.358 . S
C606 H647 0.930 . S
C607 C605 1.353 . S
C607 N609 1.314 . S
C607 H648 0.930 . S
C608 C606 1.358 . S
C608 N609 1.279 . S
C608 H649 0.930 . S
N609 C607 1.314 . S
N609 C608 1.279 . S
C610 C612 1.353 . S
C610 N613 1.314 . S
C610 H616 0.930 . S
C611 N613 1.279 . S
C611 C614 1.358 . S
C611 H617 0.930 . S
C612 C610 1.353 . S
C612 C615 1.348 . S
C612 H650 0.929 . S
N613 Li568 1.990 . S
N613 C610 1.314 . S
N613 C611 1.279 . S
C614 C611 1.358 . S
C614 C615 1.356 . S
C614 H651 0.930 . S
C615 C612 1.348 . S
C615 C614 1.356 . S
H616 C610 0.930 . S
H617 C611 0.930 . S
C618 N619 1.314 . S
C618 C620 1.353 . S
C618 H624 0.930 . S
N619 Li569 1.990 . S
N619 C618 1.314 . S
N619 C622 1.279 . S
C620 C618 1.353 . S
C620 C623 1.348 . S
C620 H652 0.929 . S
C621 C622 1.358 . S
C621 C623 1.356 . S
C621 H653 0.930 . S
C622 N619 1.279 . S
C622 C621 1.358 . S
C622 H625 0.930 . S
C623 C620 1.348 . S
C623 C621 1.356 . S
H624 C618 0.930 . S
H625 C622 0.930 . S
O626 Li566 1.956 . S
O626 Li567 1.970 . S
O626 Li568 1.961 . S
O626 C570 1.325 . S
O627 Li566 1.970 . S
O627 Li567 1.956 . S
O627 Li569 1.961 . S
O627 C576 1.325 . S
O628 Li566 1.961 . S
O628 Li568 1.956 . S
O628 Li569 1.970 . S
O628 C598 1.325 . S
O629 Li567 1.961 . S
O629 Li568 1.970 . S
O629 Li569 1.956 . S
O629 C604 1.325 . S
H630 C572 0.929 . S
H631 C573 0.930 . S
H632 C574 0.930 . S
H633 C575 0.930 . S
H634 C577 0.930 . S
H635 C579 0.929 . S
H636 C580 0.930 . S
H637 C581 0.930 . S
H638 C584 0.930 . S
H639 C587 0.929 . S
H640 C592 0.929 . S
H641 C593 0.930 . S
H642 C600 0.929 . S
H643 C601 0.930 . S
H644 C602 0.930 . S
H645 C603 0.930 . S
H646 C605 0.929 . S
H647 C606 0.930 . S
H648 C607 0.930 . S
H649 C608 0.930 . S
H650 C612 0.929 . S
H651 C614 0.930 . S
H652 C620 0.929 . S
H653 C621 0.930 . S
C654 C655 1.363 . S
C654 C660 1.379 . S
C654 N662 1.356 . S
C655 C654 1.363 . S
C655 C661 1.363 . S
C656 C657 1.363 . S
C656 C661 1.379 . S
C656 N663 1.356 . S
C657 C656 1.363 . S
C657 C660 1.363 . S
N658 C660 1.356 . S
N658 H670 0.984 . S
N658 H671 0.985 . S
N659 C661 1.356 . S
N659 H664 0.984 . S
N659 H665 0.985 . S
C660 C654 1.379 . S
C660 C657 1.363 . S
C660 N658 1.356 . S
C661 C655 1.363 . S
C661 C656 1.379 . S
C661 N659 1.356 . S
N662 C654 1.356 . S
N662 H668 0.984 . S
N662 H669 0.984 . S
N663 C656 1.356 . S
N663 H666 0.984 . S
N663 H667 0.985 . S
H664 N659 0.984 . S
H665 N659 0.985 . S
H666 N663 0.984 . S
H667 N663 0.985 . S
H668 N662 0.984 . S
H669 N662 0.984 . S
H670 N658 0.984 . S
H671 N658 0.985 . S
C672 C673 1.363 . S
C672 C678 1.379 . S
C672 N680 1.356 . S
C673 C672 1.363 . S
C673 C679 1.363 . S
C674 C675 1.363 . S
C674 C679 1.379 . S
C674 N681 1.356 . S
C675 C674 1.363 . S
C675 C678 1.363 . S
N676 C678 1.356 . S
N676 H688 0.984 . S
N676 H689 0.985 . S
N677 C679 1.356 . S
N677 H682 0.984 . S
N677 H683 0.985 . S
C678 C672 1.379 . S
C678 C675 1.363 . S
C678 N676 1.356 . S
C679 C673 1.363 . S
C679 C674 1.379 . S
C679 N677 1.356 . S
N680 C672 1.356 . S
N680 H686 0.984 . S
N680 H687 0.984 . S
N681 C674 1.356 . S
N681 H684 0.984 . S
N681 H685 0.985 . S
H682 N677 0.984 . S
H683 N677 0.985 . S
H684 N681 0.984 . S
H685 N681 0.985 . S
H686 N680 0.984 . S
H687 N680 0.984 . S
H688 N676 0.984 . S
H689 N676 0.985 . S
C690 C691 1.363 . S
C690 C696 1.379 . S
C690 N698 1.356 . S
C691 C690 1.363 . S
C691 C697 1.363 . S
C692 C693 1.363 . S
C692 C697 1.379 . S
C692 N699 1.356 . S
C693 C692 1.363 . S
C693 C696 1.363 . S
N694 C696 1.356 . S
N694 H706 0.984 . S
N694 H707 0.985 . S
N695 C697 1.356 . S
N695 H700 0.984 . S
N695 H701 0.985 . S
C696 C690 1.379 . S
C696 C693 1.363 . S
C696 N694 1.356 . S
C697 C691 1.363 . S
C697 C692 1.379 . S
C697 N695 1.356 . S
N698 C690 1.356 . S
N698 H704 0.984 . S
N698 H705 0.984 . S
N699 C692 1.356 . S
N699 H702 0.984 . S
N699 H703 0.985 . S
H700 N695 0.984 . S
H701 N695 0.985 . S
H702 N699 0.984 . S
H703 N699 0.985 . S
H704 N698 0.984 . S
H705 N698 0.984 . S
H706 N694 0.984 . S
H707 N694 0.985 . S
C708 C709 1.363 . S
C708 C714 1.379 . S
C708 N716 1.356 . S
C709 C708 1.363 . S
C709 C715 1.363 . S
C710 C711 1.363 . S
C710 C715 1.379 . S
C710 N717 1.356 . S
C711 C710 1.363 . S
C711 C714 1.363 . S
N712 C714 1.356 . S
N712 H724 0.984 . S
N712 H725 0.985 . S
N713 C715 1.356 . S
N713 H718 0.984 . S
N713 H719 0.985 . S
C714 C708 1.379 . S
C714 C711 1.363 . S
C714 N712 1.356 . S
C715 C709 1.363 . S
C715 C710 1.379 . S
C715 N713 1.356 . S
N716 C708 1.356 . S
N716 H722 0.984 . S
N716 H723 0.984 . S
N717 C710 1.356 . S
N717 H720 0.984 . S
N717 H721 0.985 . S
H718 N713 0.984 . S
H719 N713 0.985 . S
H720 N717 0.984 . S
H721 N717 0.985 . S
H722 N716 0.984 . S
H723 N716 0.984 . S
H724 N712 0.984 . S
H725 N712 0.985 . S
C726 C727 1.363 . S
C726 C732 1.379 . S
C726 N734 1.356 . S
C727 C726 1.363 . S
C727 C733 1.363 . S
C728 C729 1.363 . S
C728 C733 1.379 . S
C728 N735 1.356 . S
C729 C728 1.363 . S
C729 C732 1.363 . S
N730 C732 1.356 . S
N730 H742 0.984 . S
N730 H743 0.985 . S
N731 C733 1.356 . S
N731 H736 0.984 . S
N731 H737 0.985 . S
C732 C726 1.379 . S
C732 C729 1.363 . S
C732 N730 1.356 . S
C733 C727 1.363 . S
C733 C728 1.379 . S
C733 N731 1.356 . S
N734 C726 1.356 . S
N734 H740 0.984 1_556 S
N734 H741 0.984 . S
N735 C728 1.356 . S
N735 H738 0.984 . S
N735 H739 0.985 . S
H736 N731 0.984 . S
H737 N731 0.985 . S
H738 N735 0.984 . S
H739 N735 0.985 . S
H740 N734 0.984 1_554 S
H741 N734 0.984 . S
H742 N730 0.984 . S
H743 N730 0.985 . S
C744 C745 1.363 . S
C744 C750 1.379 . S
C744 N752 1.356 . S
C745 C744 1.363 . S
C745 C751 1.363 . S
C746 C747 1.363 . S
C746 C751 1.379 . S
C746 N753 1.356 . S
C747 C746 1.363 . S
C747 C750 1.363 . S
N748 C750 1.356 . S
N748 H760 0.984 . S
N748 H761 0.985 . S
N749 C751 1.356 . S
N749 H754 0.984 . S
N749 H755 0.985 . S
C750 C744 1.379 . S
C750 C747 1.363 . S
C750 N748 1.356 . S
C751 C745 1.363 . S
C751 C746 1.379 . S
C751 N749 1.356 . S
N752 C744 1.356 . S
N752 H758 0.984 . S
N752 H759 0.984 . S
N753 C746 1.356 . S
N753 H756 0.984 . S
N753 H757 0.985 . S
H754 N749 0.984 . S
H755 N749 0.985 . S
H756 N753 0.984 . S
H757 N753 0.985 . S
H758 N752 0.984 . S
H759 N752 0.984 . S
H760 N748 0.984 . S
H761 N748 0.985 . S
C762 C763 1.363 . S
C762 C768 1.379 . S
C762 N770 1.356 . S
C763 C762 1.363 . S
C763 C769 1.363 . S
C764 C765 1.363 . S
C764 C769 1.379 . S
C764 N771 1.356 . S
C765 C764 1.363 . S
C765 C768 1.363 . S
N766 C768 1.356 . S
N766 H778 0.984 . S
N766 H779 0.985 . S
N767 C769 1.356 . S
N767 H772 0.984 . S
N767 H773 0.985 . S
C768 C762 1.379 . S
C768 C765 1.363 . S
C768 N766 1.356 . S
C769 C763 1.363 . S
C769 C764 1.379 . S
C769 N767 1.356 . S
N770 C762 1.356 . S
N770 H776 0.984 . S
N770 H777 0.984 . S
N771 C764 1.356 . S
N771 H774 0.984 . S
N771 H775 0.985 . S
H772 N767 0.984 . S
H773 N767 0.985 . S
H774 N771 0.984 . S
H775 N771 0.985 . S
H776 N770 0.984 . S
H777 N770 0.984 . S
H778 N766 0.984 . S
H779 N766 0.985 . S
C780 C781 1.363 . S
C780 C786 1.379 . S
C780 N788 1.356 . S
C781 C780 1.363 . S
C781 C787 1.363 . S
C782 C783 1.363 . S
C782 C787 1.379 . S
C782 N789 1.356 . S
C783 C782 1.363 . S
C783 C786 1.363 . S
N784 C786 1.356 . S
N784 H796 0.984 . S
N784 H797 0.985 . S
N785 C787 1.356 . S
N785 H790 0.984 . S
N785 H791 0.985 . S
C786 C780 1.379 . S
C786 C783 1.363 . S
C786 N784 1.356 . S
C787 C781 1.363 . S
C787 C782 1.379 . S
C787 N785 1.356 . S
N788 C780 1.356 . S
N788 H794 0.984 . S
N788 H795 0.984 . S
N789 C782 1.356 . S
N789 H792 0.984 . S
N789 H793 0.985 . S
H790 N785 0.984 . S
H791 N785 0.985 . S
H792 N789 0.984 . S
H793 N789 0.985 . S
H794 N788 0.984 . S
H795 N788 0.984 . S
H796 N784 0.984 . S
H797 N784 0.985 . S
C798 C799 1.363 . S
C798 C804 1.379 . S
C798 N806 1.356 . S
C799 C798 1.363 . S
C799 C805 1.363 . S
C800 C801 1.363 . S
C800 C805 1.379 . S
C800 N807 1.356 . S
C801 C800 1.363 . S
C801 C804 1.363 . S
N802 C804 1.356 . S
N802 H814 0.984 . S
N802 H815 0.985 . S
N803 C805 1.356 . S
N803 H808 0.984 . S
N803 H809 0.985 . S
C804 C798 1.379 . S
C804 C801 1.363 . S
C804 N802 1.356 . S
C805 C799 1.363 . S
C805 C800 1.379 . S
C805 N803 1.356 . S
N806 C798 1.356 . S
N806 H812 0.984 . S
N806 H813 0.984 . S
N807 C800 1.356 . S
N807 H810 0.984 . S
N807 H811 0.985 . S
H808 N803 0.984 . S
H809 N803 0.985 . S
H810 N807 0.984 . S
H811 N807 0.985 . S
H812 N806 0.984 . S
H813 N806 0.984 . S
H814 N802 0.984 . S
H815 N802 0.985 . S
C816 C817 1.363 . S
C816 C822 1.379 . S
C816 N824 1.356 1_554 S
C817 C816 1.363 . S
C817 C823 1.363 . S
C818 C819 1.363 . S
C818 C823 1.379 . S
C818 N825 1.356 . S
C819 C818 1.363 . S
C819 C822 1.363 . S
N820 C822 1.356 . S
N820 H832 0.984 1_554 S
N820 H833 0.985 . S
N821 C823 1.356 . S
N821 H826 0.984 . S
N821 H827 0.985 . S
C822 C816 1.379 . S
C822 C819 1.363 . S
C822 N820 1.356 . S
C823 C817 1.363 . S
C823 C818 1.379 . S
C823 N821 1.356 . S
N824 C816 1.356 1_556 S
N824 H830 0.984 . S
N824 H831 0.984 . S
N825 C818 1.356 . S
N825 H828 0.984 . S
N825 H829 0.985 . S
H826 N821 0.984 . S
H827 N821 0.985 . S
H828 N825 0.984 . S
H829 N825 0.985 . S
H830 N824 0.984 . S
H831 N824 0.984 . S
H832 N820 0.984 1_556 S
H833 N820 0.985 . S
C834 C835 1.363 . S
C834 C840 1.379 . S
C834 N842 1.356 . S
C835 C834 1.363 . S
C835 C841 1.363 . S
C836 C837 1.363 . S
C836 C841 1.379 . S
C836 N843 1.356 . S
C837 C836 1.363 . S
C837 C840 1.363 . S
N838 C840 1.356 . S
N838 H850 0.984 . S
N838 H851 0.985 . S
N839 C841 1.356 . S
N839 H844 0.984 . S
N839 H845 0.985 . S
C840 C834 1.379 . S
C840 C837 1.363 . S
C840 N838 1.356 . S
C841 C835 1.363 . S
C841 C836 1.379 . S
C841 N839 1.356 . S
N842 C834 1.356 . S
N842 H848 0.984 . S
N842 H849 0.984 . S
N843 C836 1.356 . S
N843 H846 0.984 . S
N843 H847 0.985 . S
H844 N839 0.984 . S
H845 N839 0.985 . S
H846 N843 0.984 . S
H847 N843 0.985 . S
H848 N842 0.984 . S
H849 N842 0.984 . S
H850 N838 0.984 . S
H851 N838 0.985 . S
C852 C853 1.363 . S
C852 C858 1.379 . S
C852 N860 1.356 . S
C853 C852 1.363 . S
C853 C859 1.363 . S
C854 C855 1.363 . S
C854 C859 1.379 . S
C854 N861 1.356 . S
C855 C854 1.363 . S
C855 C858 1.363 . S
N856 C858 1.356 . S
N856 H868 0.984 . S
N856 H869 0.985 . S
N857 C859 1.356 . S
N857 H862 0.984 . S
N857 H863 0.985 . S
C858 C852 1.379 . S
C858 C855 1.363 . S
C858 N856 1.356 . S
C859 C853 1.363 . S
C859 C854 1.379 . S
C859 N857 1.356 . S
N860 C852 1.356 . S
N860 H866 0.984 . S
N860 H867 0.984 . S
N861 C854 1.356 . S
N861 H864 0.984 . S
N861 H865 0.985 . S
H862 N857 0.984 . S
H863 N857 0.985 . S
H864 N861 0.984 . S
H865 N861 0.985 . S
H866 N860 0.984 . S
H867 N860 0.984 . S
H868 N856 0.984 . S
H869 N856 0.985 . S
C870 C871 1.363 . S
C870 C876 1.379 . S
C870 N878 1.356 . S
C871 C870 1.363 . S
C871 C877 1.363 . S
C872 C873 1.363 . S
C872 C877 1.379 . S
C872 N879 1.356 . S
C873 C872 1.363 . S
C873 C876 1.363 . S
N874 C876 1.356 . S
N874 H886 0.984 . S
N874 H887 0.985 . S
N875 C877 1.356 . S
N875 H880 0.984 . S
N875 H881 0.985 . S
C876 C870 1.379 . S
C876 C873 1.363 . S
C876 N874 1.356 . S
C877 C871 1.363 . S
C877 C872 1.379 . S
C877 N875 1.356 . S
N878 C870 1.356 . S
N878 H884 0.984 . S
N878 H885 0.984 . S
N879 C872 1.356 . S
N879 H882 0.984 . S
N879 H883 0.985 . S
H880 N875 0.984 . S
H881 N875 0.985 . S
H882 N879 0.984 . S
H883 N879 0.985 . S
H884 N878 0.984 . S
H885 N878 0.984 . S
H886 N874 0.984 . S
H887 N874 0.985 . S
C888 C889 1.363 . S
C888 C894 1.379 . S
C888 N896 1.356 . S
C889 C888 1.363 . S
C889 C895 1.363 . S
C890 C891 1.363 . S
C890 C895 1.379 . S
C890 N897 1.356 . S
C891 C890 1.363 . S
C891 C894 1.363 . S
N892 C894 1.356 . S
N892 H904 0.984 . S
N892 H905 0.985 . S
N893 C895 1.356 . S
N893 H898 0.984 . S
N893 H899 0.985 . S
C894 C888 1.379 . S
C894 C891 1.363 . S
C894 N892 1.356 . S
C895 C889 1.363 . S
C895 C890 1.379 . S
C895 N893 1.356 . S
N896 C888 1.356 . S
N896 H902 0.984 . S
N896 H903 0.984 . S
N897 C890 1.356 . S
N897 H900 0.984 . S
N897 H901 0.985 . S
H898 N893 0.984 . S
H899 N893 0.985 . S
H900 N897 0.984 . S
H901 N897 0.985 . S
H902 N896 0.984 . S
H903 N896 0.984 . S
H904 N892 0.984 . S
H905 N892 0.985 . S
C906 C907 1.363 . S
C906 C912 1.379 . S
C906 N914 1.356 . S
C907 C906 1.363 . S
C907 C913 1.363 . S
C908 C909 1.363 . S
C908 C913 1.379 . S
C908 N915 1.356 . S
C909 C908 1.363 . S
C909 C912 1.363 . S
N910 C912 1.356 . S
N910 H922 0.984 . S
N910 H923 0.985 . S
N911 C913 1.356 . S
N911 H916 0.984 . S
N911 H917 0.985 . S
C912 C906 1.379 . S
C912 C909 1.363 . S
C912 N910 1.356 . S
C913 C907 1.363 . S
C913 C908 1.379 . S
C913 N911 1.356 . S
N914 C906 1.356 . S
N914 H920 0.984 . S
N914 H921 0.984 . S
N915 C908 1.356 . S
N915 H918 0.984 . S
N915 H919 0.985 . S
H916 N911 0.984 . S
H917 N911 0.985 . S
H918 N915 0.984 . S
H919 N915 0.985 . S
H920 N914 0.984 . S
H921 N914 0.984 . S
H922 N910 0.984 . S
H923 N910 0.985 . S
C924 C925 1.363 . S
C924 C930 1.379 . S
C924 N932 1.356 . S
C925 C924 1.363 . S
C925 C931 1.363 . S
C926 C927 1.363 . S
C926 C931 1.379 . S
C926 N933 1.356 . S
C927 C926 1.363 . S
C927 C930 1.363 . S
N928 C930 1.356 . S
N928 H940 0.984 . S
N928 H941 0.985 . S
N929 C931 1.356 . S
N929 H934 0.984 . S
N929 H935 0.985 . S
C930 C924 1.379 . S
C930 C927 1.363 . S
C930 N928 1.356 . S
C931 C925 1.363 . S
C931 C926 1.379 . S
C931 N929 1.356 . S
N932 C924 1.356 . S
N932 H938 0.984 . S
N932 H939 0.984 . S
N933 C926 1.356 . S
N933 H936 0.984 . S
N933 H937 0.985 . S
H934 N929 0.984 . S
H935 N929 0.985 . S
H936 N933 0.984 . S
H937 N933 0.985 . S
H938 N932 0.984 . S
H939 N932 0.984 . S
H940 N928 0.984 . S
H941 N928 0.985 . S
C942 C943 1.363 . S
C942 C948 1.379 . S
C942 N950 1.356 . S
C943 C942 1.363 . S
C943 C949 1.363 . S
C944 C945 1.363 . S
C944 C949 1.379 . S
C944 N951 1.356 . S
C945 C944 1.363 . S
C945 C948 1.363 . S
N946 C948 1.356 . S
N946 H958 0.984 . S
N946 H959 0.985 . S
N947 C949 1.356 . S
N947 H952 0.984 . S
N947 H953 0.985 . S
C948 C942 1.379 . S
C948 C945 1.363 . S
C948 N946 1.356 . S
C949 C943 1.363 . S
C949 C944 1.379 . S
C949 N947 1.356 . S
N950 C942 1.356 . S
N950 H956 0.984 . S
N950 H957 0.984 . S
N951 C944 1.356 . S
N951 H954 0.984 . S
N951 H955 0.985 . S
H952 N947 0.984 . S
H953 N947 0.985 . S
H954 N951 0.984 . S
H955 N951 0.985 . S
H956 N950 0.984 . S
H957 N950 0.984 . S
H958 N946 0.984 . S
H959 N946 0.985 . S
C960 C961 1.363 . S
C960 C966 1.379 . S
C960 N968 1.356 . S
C961 C960 1.363 . S
C961 C967 1.363 . S
C962 C963 1.363 . S
C962 C967 1.379 . S
C962 N969 1.356 . S
C963 C962 1.363 . S
C963 C966 1.363 . S
N964 C966 1.356 . S
N964 H976 0.984 . S
N964 H977 0.985 . S
N965 C967 1.356 . S
N965 H970 0.984 . S
N965 H971 0.985 . S
C966 C960 1.379 . S
C966 C963 1.363 . S
C966 N964 1.356 . S
C967 C961 1.363 . S
C967 C962 1.379 . S
C967 N965 1.356 . S
N968 C960 1.356 . S
N968 H974 0.984 . S
N968 H975 0.984 . S
N969 C962 1.356 . S
N969 H972 0.984 . S
N969 H973 0.985 . S
H970 N965 0.984 . S
H971 N965 0.985 . S
H972 N969 0.984 . S
H973 N969 0.985 . S
H974 N968 0.984 . S
H975 N968 0.984 . S
H976 N964 0.984 . S
H977 N964 0.985 . S
C978 C979 1.363 . S
C978 C984 1.379 . S
C978 N986 1.356 . S
C979 C978 1.363 . S
C979 C985 1.363 . S
C980 C981 1.363 . S
C980 C985 1.379 . S
C980 N987 1.356 . S
C981 C980 1.363 . S
C981 C984 1.363 . S
N982 C984 1.356 . S
N982 H994 0.984 . S
N982 H995 0.985 . S
N983 C985 1.356 . S
N983 H988 0.984 . S
N983 H989 0.985 . S
C984 C978 1.379 . S
C984 C981 1.363 . S
C984 N982 1.356 . S
C985 C979 1.363 . S
C985 C980 1.379 . S
C985 N983 1.356 . S
N986 C978 1.356 . S
N986 H992 0.984 . S
N986 H993 0.984 . S
N987 C980 1.356 . S
N987 H990 0.984 . S
N987 H991 0.985 . S
H988 N983 0.984 . S
H989 N983 0.985 . S
H990 N987 0.984 . S
H991 N987 0.985 . S
H992 N986 0.984 . S
H993 N986 0.984 . S
H994 N982 0.984 . S
H995 N982 0.985 . S
C996 C997 1.363 . S
C996 C1002 1.379 . S
C996 N1004 1.356 . S
C997 C996 1.363 . S
C997 C1003 1.363 . S
C998 C999 1.363 . S
C998 C1003 1.379 . S
C998 N1005 1.356 . S
C999 C998 1.363 . S
C999 C1002 1.363 . S
N1000 C1002 1.356 . S
N1000 H1012 0.984 . S
N1000 H1013 0.985 . S
N1001 C1003 1.356 . S
N1001 H1006 0.984 . S
N1001 H1007 0.985 . S
C1002 C996 1.379 . S
C1002 C999 1.363 . S
C1002 N1000 1.356 . S
C1003 C997 1.363 . S
C1003 C998 1.379 . S
C1003 N1001 1.356 . S
N1004 C996 1.356 . S
N1004 H1010 0.984 . S
N1004 H1011 0.984 . S
N1005 C998 1.356 . S
N1005 H1008 0.984 . S
N1005 H1009 0.985 . S
H1006 N1001 0.984 . S
H1007 N1001 0.985 . S
H1008 N1005 0.984 . S
H1009 N1005 0.985 . S
H1010 N1004 0.984 . S
H1011 N1004 0.984 . S
H1012 N1000 0.984 . S
H1013 N1000 0.985 . S
C1014 C1015 1.363 . S
C1014 C1020 1.379 . S
C1014 N1022 1.356 . S
C1015 C1014 1.363 . S
C1015 C1021 1.363 . S
C1016 C1017 1.363 . S
C1016 C1021 1.379 . S
C1016 N1023 1.356 . S
C1017 C1016 1.363 . S
C1017 C1020 1.363 . S
N1018 C1020 1.356 . S
N1018 H1030 0.984 . S
N1018 H1031 0.985 . S
N1019 C1021 1.356 . S
N1019 H1024 0.984 . S
N1019 H1025 0.985 . S
C1020 C1014 1.379 . S
C1020 C1017 1.363 . S
C1020 N1018 1.356 . S
C1021 C1015 1.363 . S
C1021 C1016 1.379 . S
C1021 N1019 1.356 . S
N1022 C1014 1.356 . S
N1022 H1028 0.984 . S
N1022 H1029 0.984 . S
N1023 C1016 1.356 . S
N1023 H1026 0.984 . S
N1023 H1027 0.985 . S
H1024 N1019 0.984 . S
H1025 N1019 0.985 . S
H1026 N1023 0.984 . S
H1027 N1023 0.985 . S
H1028 N1022 0.984 . S
H1029 N1022 0.984 . S
H1030 N1018 0.984 . S
H1031 N1018 0.985 . S
C1032 C1033 1.363 . S
C1032 C1038 1.379 . S
C1032 N1040 1.356 . S
C1033 C1032 1.363 . S
C1033 C1039 1.363 . S
C1034 C1035 1.363 . S
C1034 C1039 1.379 . S
C1034 N1041 1.356 . S
C1035 C1034 1.363 . S
C1035 C1038 1.363 . S
N1036 C1038 1.356 . S
N1036 H1048 0.984 . S
N1036 H1049 0.985 . S
N1037 C1039 1.356 . S
N1037 H1042 0.984 . S
N1037 H1043 0.985 . S
C1038 C1032 1.379 . S
C1038 C1035 1.363 . S
C1038 N1036 1.356 . S
C1039 C1033 1.363 . S
C1039 C1034 1.379 . S
C1039 N1037 1.356 . S
N1040 C1032 1.356 . S
N1040 H1046 0.984 . S
N1040 H1047 0.984 . S
N1041 C1034 1.356 . S
N1041 H1044 0.984 . S
N1041 H1045 0.985 . S
H1042 N1037 0.984 . S
H1043 N1037 0.985 . S
H1044 N1041 0.984 . S
H1045 N1041 0.985 . S
H1046 N1040 0.984 . S
H1047 N1040 0.984 . S
H1048 N1036 0.984 . S
H1049 N1036 0.985 . S
C1050 C1051 1.363 . S
C1050 C1056 1.379 . S
C1050 N1058 1.356 . S
C1051 C1050 1.363 . S
C1051 C1057 1.363 . S
C1052 C1053 1.363 . S
C1052 C1057 1.379 . S
C1052 N1059 1.356 . S
C1053 C1052 1.363 . S
C1053 C1056 1.363 . S
N1054 C1056 1.356 . S
N1054 H1066 0.984 . S
N1054 H1067 0.985 . S
N1055 C1057 1.356 . S
N1055 H1060 0.984 . S
N1055 H1061 0.985 . S
C1056 C1050 1.379 . S
C1056 C1053 1.363 . S
C1056 N1054 1.356 . S
C1057 C1051 1.363 . S
C1057 C1052 1.379 . S
C1057 N1055 1.356 . S
N1058 C1050 1.356 . S
N1058 H1064 0.984 . S
N1058 H1065 0.984 . S
N1059 C1052 1.356 . S
N1059 H1062 0.984 . S
N1059 H1063 0.985 . S
H1060 N1055 0.984 . S
H1061 N1055 0.985 . S
H1062 N1059 0.984 . S
H1063 N1059 0.985 . S
H1064 N1058 0.984 . S
H1065 N1058 0.984 . S
H1066 N1054 0.984 . S
H1067 N1054 0.985 . S
C1068 C1069 1.363 . S
C1068 C1074 1.379 . S
C1068 N1076 1.356 . S
C1069 C1068 1.363 . S
C1069 C1075 1.363 . S
C1070 C1071 1.363 . S
C1070 C1075 1.379 . S
C1070 N1077 1.356 . S
C1071 C1070 1.363 . S
C1071 C1074 1.363 . S
N1072 C1074 1.356 . S
N1072 H1084 0.984 . S
N1072 H1085 0.985 . S
N1073 C1075 1.356 . S
N1073 H1078 0.984 . S
N1073 H1079 0.985 . S
C1074 C1068 1.379 . S
C1074 C1071 1.363 . S
C1074 N1072 1.356 . S
C1075 C1069 1.363 . S
C1075 C1070 1.379 . S
C1075 N1073 1.356 . S
N1076 C1068 1.356 . S
N1076 H1082 0.984 . S
N1076 H1083 0.984 . S
N1077 C1070 1.356 . S
N1077 H1080 0.984 . S
N1077 H1081 0.985 . S
H1078 N1073 0.984 . S
H1079 N1073 0.985 . S
H1080 N1077 0.984 . S
H1081 N1077 0.985 . S
H1082 N1076 0.984 . S
H1083 N1076 0.984 . S
H1084 N1072 0.984 . S
H1085 N1072 0.985 . S
C657 C595 1.625 . S
C655 C19 1.541 . S
C673 C40 1.542 . S
C675 C155 1.627 . S
C691 C51 1.533 . S
C693 C243 1.637 . S
C709 C72 1.526 . S
C711 C322 1.629 . S
C729 C419 1.626 . S
C727 C103 1.542 . S
C745 C114 1.526 . S
C747 C498 1.629 . S
C763 C30 1.533 . S
C765 C263 1.637 . S
C781 C61 1.542 . S
C783 C359 1.627 . S
C799 C82 1.541 . S
C801 C439 1.625 . S
C819 C535 1.629 . S
C817 C93 1.526 . S
C837 C615 1.626 . S
C835 C124 1.542 . S
C855 C175 1.630 . S
C853 C9 1.526 . S
C871 C17 1.463 . S
C873 C271 1.563 . S
C889 C38 1.460 . S
C891 C351 1.560 . S
C909 C447 1.554 . S
C907 C54 1.454 . S
C925 C75 1.460 . S
C927 C527 1.561 . S
C945 C623 1.558 . S
C943 C101 1.458 . S
C963 C183 1.556 . S
C961 C117 1.454 . S
C981 C586 1.554 . S
C979 C33 1.454 . S
C997 C59 1.460 . S
C999 C146 1.560 . S
C1017 C234 1.563 . S
C1015 C80 1.463 . S
C1033 C96 1.454 . S
C1035 C331 1.556 . S
C1051 C122 1.458 . S
C1053 C410 1.558 . S
C1069 C12 1.459 . S
C1071 C507 1.561 . S
