# Generated by pormake.
# Topology nom, (4,4)-cn, num edge types: 1
# Building blocks:
#     Node 0, Type 0, BuildingBlock: MIFKUJ_clean_linker_1, # of connection points: 4
#     Node 1, Type 0, BuildingBlock: MIFKUJ_clean_linker_1, # of connection points: 4
#     Node 2, Type 0, BuildingBlock: MIFKUJ_clean_linker_1, # of connection points: 4
#     Node 3, Type 0, BuildingBlock: MIFKUJ_clean_linker_1, # of connection points: 4
#     Node 4, Type 0, BuildingBlock: MIFKUJ_clean_linker_1, # of connection points: 4
#     Node 5, Type 0, BuildingBlock: MIFKUJ_clean_linker_1, # of connection points: 4
#     Node 6, Type 1, BuildingBlock: CEKHIL_clean_sbu_0, # of connection points: 4
#     Node 7, Type 1, BuildingBlock: CEKHIL_clean_sbu_0, # of connection points: 4
#     Node 8, Type 1, BuildingBlock: CEKHIL_clean_sbu_0, # of connection points: 4
#     Node 9, Type 1, BuildingBlock: CEKHIL_clean_sbu_0, # of connection points: 4
#     Node 10, Type 1, BuildingBlock: CEKHIL_clean_sbu_0, # of connection points: 4
#     Node 11, Type 1, BuildingBlock: CEKHIL_clean_sbu_0, # of connection points: 4
#     Edge 12, Type (0, 1), BuildingBlock: KIFKEQ_clean_linker_1, # of connection points: 2
#     Edge 13, Type (0, 1), BuildingBlock: KIFKEQ_clean_linker_1, # of connection points: 2
#     Edge 14, Type (0, 1), BuildingBlock: KIFKEQ_clean_linker_1, # of connection points: 2
#     Edge 15, Type (0, 1), BuildingBlock: KIFKEQ_clean_linker_1, # of connection points: 2
#     Edge 16, Type (0, 1), BuildingBlock: KIFKEQ_clean_linker_1, # of connection points: 2
#     Edge 17, Type (0, 1), BuildingBlock: KIFKEQ_clean_linker_1, # of connection points: 2
#     Edge 18, Type (0, 1), BuildingBlock: KIFKEQ_clean_linker_1, # of connection points: 2
#     Edge 19, Type (0, 1), BuildingBlock: KIFKEQ_clean_linker_1, # of connection points: 2
#     Edge 20, Type (0, 1), BuildingBlock: KIFKEQ_clean_linker_1, # of connection points: 2
#     Edge 21, Type (0, 1), BuildingBlock: KIFKEQ_clean_linker_1, # of connection points: 2
#     Edge 22, Type (0, 1), BuildingBlock: KIFKEQ_clean_linker_1, # of connection points: 2
#     Edge 23, Type (0, 1), BuildingBlock: KIFKEQ_clean_linker_1, # of connection points: 2
#     Edge 24, Type (0, 1), BuildingBlock: KIFKEQ_clean_linker_1, # of connection points: 2
#     Edge 25, Type (0, 1), BuildingBlock: KIFKEQ_clean_linker_1, # of connection points: 2
#     Edge 26, Type (0, 1), BuildingBlock: KIFKEQ_clean_linker_1, # of connection points: 2
#     Edge 27, Type (0, 1), BuildingBlock: KIFKEQ_clean_linker_1, # of connection points: 2
#     Edge 28, Type (0, 1), BuildingBlock: KIFKEQ_clean_linker_1, # of connection points: 2
#     Edge 29, Type (0, 1), BuildingBlock: KIFKEQ_clean_linker_1, # of connection points: 2
#     Edge 30, Type (0, 1), BuildingBlock: KIFKEQ_clean_linker_1, # of connection points: 2
#     Edge 31, Type (0, 1), BuildingBlock: KIFKEQ_clean_linker_1, # of connection points: 2
#     Edge 32, Type (0, 1), BuildingBlock: KIFKEQ_clean_linker_1, # of connection points: 2
#     Edge 33, Type (0, 1), BuildingBlock: KIFKEQ_clean_linker_1, # of connection points: 2
#     Edge 34, Type (0, 1), BuildingBlock: KIFKEQ_clean_linker_1, # of connection points: 2
#     Edge 35, Type (0, 1), BuildingBlock: KIFKEQ_clean_linker_1, # of connection points: 2
# Relax obj value: 0.002
# Max RMSD: 0.100
# Mean RMSD: 0.066
data_MOF--net-nom--node1-CEKHIL_clean_sbu_0--node2-MIFKUJ_clean_linker_1--edge1-KIFKEQ_clean_linker_1
_symmetry_space_group_name_H-M    P1
_symmetry_Int_Tables_number       1
_symmetry_cell_setting            triclinic
loop_
_symmetry_equiv_pos_as_xyz
'x, y, z'
_cell_length_a     54.262646
_cell_length_b     53.706749
_cell_length_c     57.031778
_cell_angle_alpha  90.00375
_cell_angle_beta   89.957143
_cell_angle_gamma 121.02888
loop_
_atom_site_label
_atom_site_type_symbol
_atom_site_fract_x
_atom_site_fract_y
_atom_site_fract_z
_atom_type_partial_charge
H0 H 0.98522 0.48951 0.29001 0.0
H1 H 0.95326 0.47054 0.25627 0.0
H2 H 0.92048 0.52682 0.27242 0.0
H3 H 0.95242 0.54544 0.30661 0.0
H4 H 0.02808 0.54602 0.29897 0.0
H5 H 0.93568 0.47386 0.33284 0.0
H6 H 0.88474 0.4545 0.34068 0.0
H7 H 0.90627 0.53287 0.37863 0.0
H8 H 0.95707 0.55266 0.36964 0.0
H9 H 0.03375 0.57994 0.39825 0.0
H10 H 0.06634 0.59272 0.43139 0.0
H11 H 0.10669 0.55054 0.3977 0.0
H12 H 0.07233 0.53565 0.3657 0.0
H13 H 0.99345 0.53413 0.38101 0.0
H14 H 0.08218 0.6077 0.34996 0.0
H15 H 0.13283 0.63515 0.33842 0.0
H16 H 0.11958 0.56371 0.29455 0.0
H17 H 0.06902 0.53617 0.30636 0.0
C18 C 0.97115 0.5188 0.30088 0.0
C19 C 0.97121 0.49784 0.28626 0.0
C20 C 0.953 0.48713 0.26687 0.0
C21 C 0.93443 0.49732 0.26146 0.0
C22 C 0.93432 0.51832 0.27618 0.0
C23 C 0.95259 0.52903 0.29569 0.0
C24 C 0.99098 0.52998 0.32126 0.0
C25 C 0.02057 0.54315 0.31697 0.0
C26 C 0.98114 0.52753 0.34463 0.0
C27 C 0.95021 0.51492 0.35032 0.0
C28 C 0.92941 0.48698 0.34265 0.0
C29 C 0.90026 0.4758 0.3474 0.0
C30 C 0.89128 0.49214 0.36025 0.0
C31 C 0.91228 0.51987 0.36833 0.0
C32 C 0.9414 0.53111 0.36342 0.0
C33 C 0.05076 0.55722 0.37915 0.0
C34 C 0.04938 0.57312 0.39812 0.0
C35 C 0.0684 0.58079 0.41699 0.0
C36 C 0.08962 0.57308 0.41726 0.0
C37 C 0.09061 0.55672 0.39839 0.0
C38 C 0.07119 0.54857 0.37976 0.0
C39 C 0.03081 0.54954 0.35883 0.0
C40 C 1.00118 0.53713 0.36309 0.0
C41 C 0.04068 0.55354 0.33532 0.0
C42 C 0.07177 0.56974 0.32917 0.0
C43 C 0.09026 0.59773 0.33815 0.0
C44 C 0.11922 0.61342 0.33155 0.0
C45 C 0.13017 0.6016 0.31555 0.0
C46 C 0.11169 0.57351 0.3067 0.0
C47 C 0.08281 0.55775 0.31346 0.0
H48 H 0.42654 0.94937 0.52823 0.0
H49 H 0.39907 0.89836 0.53979 0.0
H50 H 0.4558 0.88144 0.49873 0.0
H51 H 0.48366 0.93288 0.48743 0.0
H52 H 0.48145 0.99027 0.53572 0.0
H53 H 0.42313 0.93821 0.46749 0.0
H54 H 0.40789 0.9039 0.4347 0.0
H55 H 0.49381 0.95144 0.40613 0.0
H56 H 0.50932 0.98502 0.43935 0.0
H57 H 0.54405 0.06786 0.45732 0.0
H58 H 0.56406 0.11881 0.44644 0.0
H59 H 0.50492 0.12418 0.49396 0.0
H60 H 0.4848 0.0732 0.5046 0.0
H61 H 0.49338 0.02161 0.45263 0.0
H62 H 0.55336 0.07278 0.51574 0.0
H63 H 0.57495 0.10773 0.54749 0.0
H64 H 0.49487 0.06246 0.58598 0.0
H65 H 0.47276 0.02875 0.55325 0.0
C66 C 0.45704 0.94495 0.50683 0.0
C67 C 0.43325 0.93477 0.52184 0.0
C68 C 0.41758 0.90561 0.52845 0.0
C69 C 0.4253 0.88592 0.52017 0.0
C70 C 0.4492 0.89608 0.50518 0.0
C71 C 0.46511 0.92543 0.49874 0.0
C72 C 0.47301 0.97601 0.49978 0.0
C73 C 0.48376 0.99715 0.51756 0.0
C74 C 0.47731 0.98495 0.476 0.0
C75 C 0.46753 0.964 0.45614 0.0
C76 C 0.43884 0.94097 0.45442 0.0
C77 C 0.43012 0.92141 0.43568 0.0
C78 C 0.44973 0.925 0.41797 0.0
C79 C 0.47826 0.94825 0.41951 0.0
C80 C 0.4871 0.96746 0.43845 0.0
C81 C 0.5131 0.06674 0.48194 0.0
C82 C 0.5353 0.07997 0.46532 0.0
C83 C 0.54671 0.10907 0.45911 0.0
C84 C 0.53614 0.12552 0.46943 0.0
C85 C 0.51383 0.11221 0.486 0.0
C86 C 0.5023 0.08306 0.49206 0.0
C87 C 0.50102 0.03582 0.4886 0.0
C88 C 0.49111 0.01476 0.4708 0.0
C89 C 0.49818 0.02696 0.51233 0.0
C90 C 0.51126 0.04827 0.53187 0.0
C91 C 0.54023 0.07068 0.53079 0.0
C92 C 0.55271 0.09047 0.54919 0.0
C93 C 0.53677 0.08793 0.56948 0.0
C94 C 0.50774 0.06542 0.57055 0.0
C95 C 0.49513 0.04586 0.55193 0.0
H96 H 0.50718 0.52157 0.70849 0.0
H97 H 0.49663 0.54323 0.74163 0.0
H98 H 0.40558 0.48723 0.72862 0.0
H99 H 0.41645 0.4659 0.69508 0.0
H100 H 0.49118 0.46417 0.70079 0.0
H101 H 0.47107 0.53566 0.66641 0.0
H102 H 0.43998 0.55512 0.65791 0.0
H103 H 0.3797 0.47488 0.62323 0.0
H104 H 0.4106 0.45536 0.63209 0.0
H105 H 0.45705 0.42308 0.60449 0.0
H106 H 0.4758 0.41068 0.57037 0.0
H107 H 0.56223 0.46416 0.5971 0.0
H108 H 0.5432 0.47597 0.63143 0.0
H109 H 0.46495 0.47316 0.61927 0.0
H110 H 0.47746 0.40006 0.65005 0.0
H111 H 0.49905 0.37129 0.65999 0.0
H112 H 0.56203 0.44177 0.70293 0.0
H113 H 0.54101 0.47094 0.6921 0.0
C114 C 0.46264 0.49223 0.69924 0.0
C115 C 0.48494 0.51384 0.71284 0.0
C116 C 0.47883 0.52612 0.73188 0.0
C117 C 0.45022 0.51689 0.73792 0.0
C118 C 0.42785 0.49508 0.72431 0.0
C119 C 0.43401 0.4828 0.70519 0.0
C120 C 0.46978 0.47988 0.67887 0.0
C121 C 0.4858 0.46645 0.68291 0.0
C122 C 0.46126 0.48139 0.65569 0.0
C123 C 0.44299 0.49385 0.6502 0.0
C124 C 0.45102 0.52213 0.6572 0.0
C125 C 0.43324 0.53324 0.65232 0.0
C126 C 0.40731 0.51648 0.63998 0.0
C127 C 0.39962 0.48841 0.6326 0.0
C128 C 0.41725 0.47722 0.63768 0.0
C129 C 0.49866 0.45031 0.6206 0.0
C130 C 0.48004 0.43212 0.603 0.0
C131 C 0.49085 0.42517 0.58342 0.0
C132 C 0.5206 0.43653 0.58086 0.0
C133 C 0.5392 0.4547 0.5986 0.0
C134 C 0.52834 0.46152 0.61824 0.0
C135 C 0.48725 0.45833 0.64111 0.0
C136 C 0.47039 0.47085 0.63712 0.0
C137 C 0.494 0.45495 0.66442 0.0
C138 C 0.50781 0.43787 0.67006 0.0
C139 C 0.49621 0.40954 0.66129 0.0
C140 C 0.50836 0.39293 0.66726 0.0
C141 C 0.53225 0.40414 0.68233 0.0
C142 C 0.54387 0.43256 0.69106 0.0
C143 C 0.53174 0.4492 0.68503 0.0
H144 H 0.03442 0.52517 0.7857 0.0
H145 H 0.06669 0.54511 0.75231 0.0
H146 H 0.1103 0.50082 0.77485 0.0
H147 H 0.07617 0.47891 0.80717 0.0
H148 H 0.99581 0.47296 0.7984 0.0
H149 H 0.08918 0.54672 0.83143 0.0
H150 H 0.14029 0.56607 0.83869 0.0
H151 H 0.11917 0.48765 0.87641 0.0
H152 H 0.06833 0.46791 0.86799 0.0
H153 H 0.98847 0.43585 0.89525 0.0
H154 H 0.95588 0.42286 0.92862 0.0
H155 H 0.92486 0.47669 0.90098 0.0
H156 H 0.95709 0.48901 0.86736 0.0
H157 H 0.03224 0.48653 0.87994 0.0
H158 H 0.94452 0.41198 0.85036 0.0
H159 H 0.89347 0.38341 0.84073 0.0
H160 H 0.9028 0.45314 0.79653 0.0
H161 H 0.95372 0.48216 0.80704 0.0
C162 C 0.05314 0.50098 0.79933 0.0
C163 C 0.05068 0.51942 0.78331 0.0
C164 C 0.06951 0.53117 0.76433 0.0
C165 C 0.09166 0.52517 0.76101 0.0
C166 C 0.09353 0.50593 0.77668 0.0
C167 C 0.07424 0.49368 0.79545 0.0
C168 C 0.03363 0.48989 0.82005 0.0
C169 C 1.00385 0.47637 0.81624 0.0
C170 C 0.04394 0.49286 0.84336 0.0
C171 C 0.07493 0.50567 0.84885 0.0
C172 C 0.09561 0.53364 0.84112 0.0
C173 C 0.12484 0.54478 0.8455 0.0
C174 C 0.13397 0.52837 0.85804 0.0
C175 C 0.11306 0.50068 0.86629 0.0
C176 C 0.08391 0.48948 0.86173 0.0
C177 C 0.97512 0.46325 0.87872 0.0
C178 C 0.97471 0.44492 0.89643 0.0
C179 C 0.95611 0.43762 0.91558 0.0
C180 C 0.9377 0.44877 0.91759 0.0
C181 C 0.93836 0.46734 0.89987 0.0
C182 C 0.95687 0.47449 0.88066 0.0
C183 C 0.99463 0.4707 0.85822 0.0
C184 C 0.02428 0.48336 0.86209 0.0
C185 C 0.98421 0.46623 0.83495 0.0
C186 C 0.95294 0.44937 0.82963 0.0
C187 C 0.93549 0.42136 0.83893 0.0
C188 C 0.90635 0.40489 0.83318 0.0
C189 C 0.89404 0.41593 0.81779 0.0
C190 C 0.91149 0.44412 0.80866 0.0
C191 C 0.94067 0.46063 0.81448 0.0
H192 H 0.60016 0.0676 0.02881 0.0
H193 H 0.62826 0.11859 0.04028 0.0
H194 H 0.57044 0.13596 1.00142 0.0
H195 H 0.54188 0.08451 0.99026 0.0
H196 H 0.54613 0.02715 0.03769 0.0
H197 H 0.60097 0.0783 0.96814 0.0
H198 H 0.61522 0.11232 0.93523 0.0
H199 H 0.52824 0.06523 0.90895 0.0
H200 H 0.51371 0.03193 0.94235 0.0
H201 H 0.47886 0.94793 0.96186 0.0
H202 H 0.45936 0.89714 0.95079 0.0
H203 H 0.52317 0.89425 0.99411 0.0
H204 H 0.54318 0.94526 0.00439 0.0
H205 H 0.52968 0.99507 0.95472 0.0
H206 H 0.4742 0.94304 0.02027 0.0
H207 H 0.45592 0.90874 0.05298 0.0
H208 H 0.53856 0.95667 0.08704 0.0
H209 H 0.55731 0.99036 0.05379 0.0
C210 C 0.569 0.07221 0.00855 0.0
C211 C 0.59334 0.08229 0.02289 0.0
C212 C 0.60938 0.11143 0.02945 0.0
C213 C 0.60151 0.13123 0.02176 0.0
C214 C 0.57713 0.1212 0.00741 0.0
C215 C 0.56082 0.09186 1.00104 0.0
C216 C 0.55254 0.0411 1.00166 0.0
C217 C 0.54281 0.02011 0.01954 0.0
C218 C 0.54701 0.03196 0.97794 0.0
C219 C 0.55611 0.05278 0.95801 0.0
C220 C 0.5848 0.07559 0.95558 0.0
C221 C 0.59296 0.09499 0.93676 0.0
C222 C 0.57278 0.09145 0.91965 0.0
C223 C 0.54422 0.0684 0.92188 0.0
C224 C 0.53595 0.04936 0.94092 0.0
C225 C 0.51232 0.95034 0.98411 0.0
C226 C 0.48871 0.93637 0.96887 0.0
C227 C 0.47742 0.90725 0.96275 0.0
C228 C 0.48963 0.89158 0.97165 0.0
C229 C 0.51341 0.90574 0.98677 0.0
C230 C 0.52471 0.93483 0.99285 0.0
C231 C 0.52423 0.98121 0.99075 0.0
C232 C 0.53292 1.00209 0.97287 0.0
C233 C 0.52843 0.99027 0.01448 0.0
C234 C 0.51732 0.96915 0.0343 0.0
C235 C 0.48865 0.94588 0.03448 0.0
C236 C 0.47817 0.9263 0.05321 0.0
C237 C 0.49589 0.93 0.07244 0.0
C238 C 0.52446 0.95339 0.07242 0.0
C239 C 0.53512 0.97267 0.05347 0.0
H240 H 0.52188 0.49536 0.20542 0.0
H241 H 0.53291 0.47159 0.23677 0.0
H242 H 0.62373 0.52942 0.22437 0.0
H243 H 0.61251 0.55324 0.1928 0.0
H244 H 0.53953 0.55559 0.19983 0.0
H245 H 0.55542 0.48182 0.16364 0.0
H246 H 0.58616 0.46196 0.15511 0.0
H247 H 0.64672 0.54186 0.12007 0.0
H248 H 0.61615 0.56179 0.12899 0.0
H249 H 0.56807 0.59005 0.10034 0.0
H250 H 0.54842 0.60263 0.06716 0.0
H251 H 0.46564 0.56247 0.10171 0.0
H252 H 0.4849 0.54791 0.13395 0.0
H253 H 0.56059 0.54393 0.11728 0.0
H254 H 0.55074 0.61895 0.14854 0.0
H255 H 0.5297 0.64806 0.15943 0.0
H256 H 0.46972 0.57921 0.20516 0.0
H257 H 0.49044 0.54985 0.19387 0.0
C258 C 0.56635 0.52592 0.19672 0.0
C259 C 0.54417 0.50307 0.20955 0.0
C260 C 0.5505 0.48938 0.22732 0.0
C261 C 0.57918 0.49852 0.23285 0.0
C262 C 0.60146 0.52201 0.22048 0.0
C263 C 0.59508 0.53553 0.20245 0.0
C264 C 0.55898 0.53875 0.17691 0.0
C265 C 0.54384 0.55289 0.18172 0.0
C266 C 0.56607 0.5365 0.15344 0.0
C267 C 0.5837 0.52351 0.14731 0.0
C268 C 0.57542 0.49516 0.1543 0.0
C269 C 0.59301 0.48383 0.1494 0.0
C270 C 0.61897 0.50042 0.13705 0.0
C271 C 0.62678 0.52847 0.12948 0.0
C272 C 0.60933 0.53989 0.13459 0.0
C273 C 0.52817 0.56836 0.11993 0.0
C274 C 0.54561 0.5837 0.1007 0.0
C275 C 0.53436 0.59123 0.0818 0.0
C276 C 0.50541 0.58391 0.08172 0.0
C277 C 0.48792 0.56829 0.10092 0.0
C278 C 0.49907 0.56033 0.11964 0.0
C279 C 0.54019 0.5602 0.14001 0.0
C280 C 0.55628 0.54694 0.13531 0.0
C281 C 0.53504 0.56441 0.16366 0.0
C282 C 0.52197 0.58198 0.17013 0.0
C283 C 0.53278 0.60989 0.16066 0.0
C284 C 0.52079 0.62657 0.16693 0.0
C285 C 0.49804 0.61592 0.18314 0.0
C286 C 0.48742 0.58812 0.1928 0.0
C287 C 0.49922 0.57131 0.18633 0.0
Co288 Co 0.63275 0.37889 0.4053 0.0
O289 O 0.66125 0.37935 0.38495 0.0
O290 O 0.66926 0.41489 0.40921 0.0
C291 C 0.61572 0.33331 0.41876 0.0
O292 O 0.60916 0.38547 0.42988 0.0
Co293 Co 0.5678 0.33495 0.39746 0.0
O294 O 0.56334 0.34827 0.42868 0.0
C295 C 0.59831 0.3863 0.36658 0.0
C296 C 0.67936 0.40455 0.39379 0.0
C297 C 0.58333 0.37141 0.43815 0.0
O298 O 0.62089 0.39666 0.37962 0.0
O299 O 0.57593 0.3612 0.36987 0.0
O300 O 0.63861 0.35508 0.42793 0.0
O301 O 0.60533 0.33944 0.40081 0.0
Co302 Co 0.26925 0.63293 0.58746 0.0
O303 O 0.29709 0.6327 0.60814 0.0
O304 O 0.26835 0.59647 0.58462 0.0
C305 C 0.29911 0.67795 0.57308 0.0
O306 O 0.2389 0.62607 0.5629 0.0
Co307 Co 0.2502 0.67802 0.59408 0.0
O308 O 0.23464 0.66559 0.56192 0.0
C309 C 0.2297 0.6287 0.62693 0.0
C310 C 0.28903 0.60706 0.6 0.0
C311 C 0.22963 0.64148 0.55336 0.0
O312 O 0.23935 0.61654 0.61326 0.0
O313 O 0.23417 0.65427 0.62342 0.0
O314 O 0.29957 0.65576 0.56453 0.0
O315 O 0.28252 0.67251 0.59097 0.0
Co316 Co 0.64566 0.26538 0.74368 0.0
O317 O 0.64648 0.29318 0.72186 0.0
O318 O 0.61033 0.26596 0.74584 0.0
C319 C 0.69036 0.2948 0.75803 0.0
O320 O 0.63748 0.2355 0.76941 0.0
Co321 Co 0.68836 0.24336 0.73932 0.0
O322 O 0.67242 0.22471 0.76997 0.0
C323 C 0.63845 0.22036 0.70737 0.0
C324 C 0.62128 0.28609 0.72983 0.0
C325 C 0.64971 0.22261 0.77849 0.0
O326 O 0.62851 0.23407 0.71873 0.0
O327 O 0.66273 0.22286 0.71193 0.0
O328 O 0.66883 0.29655 0.76592 0.0
O329 O 0.68465 0.27727 0.74064 0.0
Co330 Co 0.39118 0.63865 0.90514 0.0
O331 O 0.3638 0.6383 0.88353 0.0
O332 O 0.35444 0.6028 0.90835 0.0
C333 C 0.4077 0.68425 0.91822 0.0
O334 O 0.4134 0.63197 0.9309 0.0
Co335 Co 0.45655 0.68211 0.89963 0.0
O336 O 0.45765 0.67175 0.93283 0.0
C337 C 0.42776 0.63031 0.86895 0.0
C338 C 0.34516 0.6132 0.89229 0.0
C339 C 0.43771 0.64782 0.94134 0.0
O340 O 0.4042 0.62067 0.8806 0.0
O341 O 0.45037 0.65503 0.87299 0.0
O342 O 0.38427 0.66255 0.92682 0.0
O343 O 0.41904 0.67807 0.90095 0.0
Co344 Co 0.75856 0.38442 0.08824 0.0
O345 O 0.73051 0.38471 0.1087 0.0
O346 O 0.75919 0.42069 0.08491 0.0
C347 C 0.72899 0.33922 0.07411 0.0
O348 O 0.78907 0.39129 0.06373 0.0
Co349 Co 0.77809 0.33986 0.09553 0.0
O350 O 0.79677 0.35397 0.06462 0.0
C351 C 0.80056 0.39093 0.12675 0.0
C352 C 0.73845 0.41019 0.10025 0.0
C353 C 0.80069 0.37738 0.05544 0.0
O354 O 0.78844 0.40147 0.11405 0.0
O355 O 0.79726 0.36585 0.12315 0.0
O356 O 0.72845 0.36127 0.06537 0.0
O357 O 0.74545 0.34483 0.09211 0.0
Co358 Co 0.37978 0.75019 0.24339 0.0
O359 O 0.37992 0.72243 0.22208 0.0
O360 O 0.41492 0.74955 0.24699 0.0
C361 C 0.33446 0.72102 0.25664 0.0
O362 O 0.38688 0.78006 0.26879 0.0
Co363 Co 0.33782 0.77269 0.23669 0.0
O364 O 0.35206 0.79099 0.26772 0.0
C365 C 0.38933 0.79569 0.20661 0.0
C366 C 0.4048 0.72959 0.23083 0.0
C367 C 0.37428 0.79296 0.27714 0.0
O368 O 0.39824 0.78149 0.21854 0.0
O369 O 0.36509 0.79369 0.21021 0.0
O370 O 0.35557 0.71915 0.26535 0.0
O371 O 0.34095 0.73845 0.23902 0.0
H372 H 0.15031 0.60789 0.27078 0.0
H373 H 0.17847 0.6345 0.34204 0.0
H374 H 0.19993 0.6369 0.2572 0.0
H375 H 0.2282 0.66401 0.32836 0.0
H376 H 0.28628 0.71801 0.23914 0.0
H377 H 0.23718 0.6893 0.25395 0.0
H378 H 0.26663 0.65742 0.31033 0.0
H379 H 0.31589 0.6863 0.29556 0.0
C380 C 0.16714 0.61982 0.28355 0.0
C381 C 0.1605 0.61888 0.30748 0.0
C382 C 0.19552 0.63667 0.27575 0.0
C383 C 0.21795 0.65284 0.2917 0.0
C384 C 0.21139 0.65165 0.31568 0.0
C385 C 0.18292 0.63496 0.32347 0.0
C386 C 0.28231 0.70495 0.25474 0.0
C387 C 0.30492 0.70433 0.26615 0.0
C388 C 0.25416 0.68839 0.26314 0.0
C389 C 0.24803 0.67099 0.28323 0.0
C390 C 0.27073 0.67077 0.2949 0.0
C391 C 0.29889 0.68719 0.28638 0.0
H392 H 0.54853 0.14871 0.42536 0.0
H393 H 0.5504 0.17189 0.49813 0.0
H394 H 0.56752 0.1992 0.41402 0.0
H395 H 0.56886 0.22239 0.48672 0.0
H396 H 0.63252 0.31449 0.45668 0.0
H397 H 0.61314 0.26431 0.46954 0.0
H398 H 0.55083 0.23423 0.41346 0.0
H399 H 0.57027 0.28421 0.40053 0.0
C400 C 0.55311 0.16463 0.43893 0.0
C401 C 0.54797 0.15633 0.46263 0.0
C402 C 0.5637 0.19348 0.43243 0.0
C403 C 0.56955 0.21474 0.44948 0.0
C404 C 0.5647 0.20653 0.47321 0.0
C405 C 0.55391 0.17759 0.47971 0.0
C406 C 0.61458 0.29715 0.44721 0.0
C407 C 0.603 0.30326 0.42754 0.0
C408 C 0.60342 0.26845 0.45462 0.0
C409 C 0.5806 0.24532 0.4424 0.0
C410 C 0.56871 0.25155 0.42301 0.0
C411 C 0.57973 0.2802 0.4157 0.0
H412 H 0.38016 0.5134 0.59871 0.0
H413 H 0.39153 0.54596 0.66952 0.0
H414 H 0.3499 0.53354 0.58992 0.0
H415 H 0.36082 0.56561 0.66097 0.0
H416 H 0.33483 0.62683 0.62937 0.0
H417 H 0.36201 0.60391 0.63929 0.0
H418 H 0.30434 0.52937 0.59717 0.0
H419 H 0.27752 0.55294 0.5866 0.0
C420 C 0.3759 0.52458 0.61248 0.0
C421 C 0.38837 0.52823 0.63477 0.0
C422 C 0.35845 0.53603 0.60748 0.0
C423 C 0.35289 0.55128 0.6247 0.0
C424 C 0.36502 0.55448 0.64712 0.0
C425 C 0.38263 0.54321 0.65206 0.0
C426 C 0.32777 0.60546 0.62231 0.0
C427 C 0.30401 0.59173 0.60715 0.0
C428 C 0.34331 0.59219 0.62814 0.0
C429 C 0.33543 0.56472 0.61909 0.0
C430 C 0.31129 0.55071 0.60423 0.0
C431 C 0.29577 0.5641 0.59829 0.0
H432 H 0.85428 0.4325 0.81205 0.0
H433 H 0.8645 0.35803 0.80709 0.0
H434 H 0.80469 0.4028 0.79846 0.0
H435 H 0.81474 0.32817 0.79448 0.0
H436 H 0.73814 0.29414 0.74452 0.0
H437 H 0.78673 0.32317 0.75994 0.0
H438 H 0.75729 0.36258 0.81003 0.0
H439 H 0.70858 0.33381 0.79422 0.0
C440 C 0.84593 0.40979 0.80815 0.0
C441 C 0.8634 0.39768 0.81061 0.0
C442 C 0.81741 0.39269 0.80062 0.0
C443 C 0.80576 0.36312 0.79533 0.0
C444 C 0.82313 0.35095 0.79813 0.0
C445 C 0.85158 0.36801 0.80564 0.0
C446 C 0.74199 0.30892 0.75888 0.0
C447 C 0.71955 0.31171 0.76814 0.0
C448 C 0.76983 0.32545 0.76781 0.0
C449 C 0.77591 0.34518 0.78625 0.0
C450 C 0.75339 0.34782 0.79565 0.0
C451 C 0.72547 0.33122 0.78669 0.0
H452 H 0.43308 0.84853 0.96741 0.0
H453 H 0.51946 0.86471 0.96076 0.0
H454 H 0.41381 0.7983 0.95527 0.0
H455 H 0.50018 0.8142 0.94957 0.0
H456 H 0.45604 0.73303 0.90279 0.0
H457 H 0.4759 0.78273 0.91652 0.0
H458 H 0.40841 0.7527 0.96843 0.0
H459 H 0.38817 0.70299 0.95431 0.0
C460 C 0.44796 0.84137 0.96339 0.0
C461 C 0.47782 0.86069 0.96497 0.0
C462 C 0.4369 0.81246 0.95671 0.0
C463 C 0.45545 0.8022 0.95144 0.0
C464 C 0.4853 0.82146 0.95325 0.0
C465 C 0.49634 0.85035 0.95993 0.0
C466 C 0.44551 0.73702 0.91719 0.0
C467 C 0.42049 0.71413 0.92741 0.0
C468 C 0.45699 0.7655 0.92516 0.0
C469 C 0.44373 0.77173 0.94356 0.0
C470 C 0.41892 0.74871 0.95401 0.0
C471 C 0.40743 0.72021 0.94602 0.0
H472 H 0.63449 0.47134 0.16721 0.0
H473 H 0.64653 0.50304 0.09607 0.0
H474 H 0.66539 0.45173 0.1594 0.0
H475 H 0.677 0.48291 0.08802 0.0
H476 H 0.74979 0.46401 0.08617 0.0
H477 H 0.72258 0.48742 0.0959 0.0
H478 H 0.66468 0.41328 0.13836 0.0
H479 H 0.69227 0.39051 0.12927 0.0
C480 C 0.64356 0.47389 0.14983 0.0
C481 C 0.63796 0.48862 0.13223 0.0
C482 C 0.66128 0.46263 0.14532 0.0
C483 C 0.67367 0.4656 0.12303 0.0
C484 C 0.66824 0.48059 0.10549 0.0
C485 C 0.65067 0.49204 0.11006 0.0
C486 C 0.73141 0.45291 0.09776 0.0
C487 C 0.72323 0.42543 0.10696 0.0
C488 C 0.71566 0.4662 0.1032 0.0
C489 C 0.69134 0.45225 0.11791 0.0
C490 C 0.68351 0.42494 0.12731 0.0
C491 C 0.69928 0.41177 0.12197 0.0
H492 H 0.40566 0.83764 0.49245 0.0
H493 H 0.40659 0.86431 0.56401 0.0
H494 H 0.3748 0.78677 0.50405 0.0
H495 H 0.37632 0.81374 0.57571 0.0
H496 H 0.29681 0.72572 0.58498 0.0
H497 H 0.32748 0.7753 0.57122 0.0
H498 H 0.37291 0.74733 0.52636 0.0
H499 H 0.34143 0.6973 0.53973 0.0
C500 C 0.39957 0.83258 0.5107 0.0
C501 C 0.4083 0.85494 0.52729 0.0
C502 C 0.38191 0.80347 0.51736 0.0
C503 C 0.37276 0.79616 0.54077 0.0
C504 C 0.38231 0.81858 0.55742 0.0
C505 C 0.39976 0.84758 0.55076 0.0
C506 C 0.31323 0.73008 0.57208 0.0
C507 C 0.31682 0.70765 0.56353 0.0
C508 C 0.33098 0.75858 0.56431 0.0
C509 C 0.35297 0.76543 0.54792 0.0
C510 C 0.3561 0.74281 0.53889 0.0
C511 C 0.33815 0.71418 0.5466 0.0
H512 H 0.50371 0.34603 0.69299 0.0
H513 H 0.58917 0.42147 0.68704 0.0
H514 H 0.52422 0.31643 0.70338 0.0
H515 H 0.60962 0.39218 0.69845 0.0
H516 H 0.63855 0.32677 0.69526 0.0
H517 H 0.61643 0.35433 0.68338 0.0
H518 H 0.54934 0.30859 0.73486 0.0
H519 H 0.57119 0.28045 0.74637 0.0
C520 C 0.52688 0.35631 0.69385 0.0
C521 C 0.54478 0.38615 0.68907 0.0
C522 C 0.53864 0.33939 0.7001 0.0
C523 C 0.56859 0.35187 0.70173 0.0
C524 C 0.58647 0.38173 0.69706 0.0
C525 C 0.57473 0.39864 0.69079 0.0
C526 C 0.61897 0.32243 0.70395 0.0
C527 C 0.60666 0.30145 0.7218 0.0
C528 C 0.60639 0.33842 0.69726 0.0
C529 C 0.58123 0.33391 0.70829 0.0
C530 C 0.56857 0.31246 0.72583 0.0
C531 C 0.58114 0.29639 0.7325 0.0
H532 H 0.16284 0.49876 0.85764 0.0
H533 H 0.17583 0.58437 0.86862 0.0
H534 H 0.21376 0.51783 0.86525 0.0
H535 H 0.22676 0.60342 0.87565 0.0
H536 H 0.32049 0.63306 0.86192 0.0
H537 H 0.26964 0.61172 0.85308 0.0
H538 H 0.24921 0.53926 0.89853 0.0
H539 H 0.30039 0.56064 0.9074 0.0
C540 C 0.17645 0.52158 0.86183 0.0
C541 C 0.16512 0.54 0.8625 0.0
C542 C 0.20565 0.5325 0.86612 0.0
C543 C 0.22428 0.56213 0.87095 0.0
C544 C 0.21303 0.58055 0.87161 0.0
C545 C 0.18381 0.56962 0.86751 0.0
C546 C 0.30524 0.61244 0.8699 0.0
C547 C 0.31449 0.59859 0.88545 0.0
C548 C 0.27606 0.60033 0.86495 0.0
C549 C 0.2554 0.57397 0.87529 0.0
C550 C 0.26466 0.55955 0.89022 0.0
C551 C 0.29394 0.57182 0.89534 0.0
H552 H 0.62091 0.17956 0.99418 0.0
H553 H 0.62132 0.15266 0.06542 0.0
H554 H 0.65228 0.23035 0.00567 0.0
H555 H 0.65202 0.20318 0.07707 0.0
H556 H 0.73135 0.29145 0.08608 0.0
H557 H 0.70052 0.24179 0.07248 0.0
H558 H 0.65478 0.2697 0.028 0.0
H559 H 0.68642 0.31972 0.04112 0.0
C560 C 0.62741 0.18457 0.01235 0.0
C561 C 0.61888 0.16217 0.02887 0.0
C562 C 0.64536 0.21364 0.01895 0.0
C563 C 0.65498 0.22088 0.04226 0.0
C564 C 0.64567 0.19841 0.05885 0.0
C565 C 0.62796 0.16944 0.05222 0.0
C566 C 0.71483 0.28703 0.07329 0.0
C567 C 0.71121 0.30944 0.06475 0.0
C568 C 0.69698 0.25849 0.06561 0.0
C569 C 0.67487 0.25162 0.04936 0.0
C570 C 0.6717 0.27422 0.0404 0.0
C571 C 0.68974 0.30286 0.04798 0.0
H572 H 0.48451 0.62523 0.22721 0.0
H573 H 0.4833 0.64702 0.15451 0.0
H574 H 0.4633 0.65412 0.23839 0.0
H575 H 0.46244 0.6762 0.16571 0.0
H576 H 0.45216 0.73261 0.25083 0.0
H577 H 0.47585 0.7062 0.23911 0.0
H578 H 0.41567 0.66676 0.182 0.0
H579 H 0.39206 0.69308 0.19364 0.0
C580 C 0.47968 0.63617 0.21363 0.0
C581 C 0.4855 0.63379 0.18998 0.0
C582 C 0.46782 0.65295 0.22005 0.0
C583 C 0.46123 0.66747 0.20293 0.0
C584 C 0.4671 0.66512 0.17928 0.0
C585 C 0.47923 0.64859 0.17289 0.0
C586 C 0.44413 0.71845 0.23569 0.0
C587 C 0.42022 0.71491 0.22318 0.0
C588 C 0.45758 0.70319 0.22908 0.0
C589 C 0.44759 0.68437 0.20965 0.0
C590 C 0.42404 0.6813 0.1969 0.0
C591 C 0.41043 0.69629 0.20365 0.0
H592 H 0.86189 0.52125 0.3605 0.0
H593 H 0.8501 0.43611 0.37138 0.0
H594 H 0.81085 0.50153 0.36833 0.0
H595 H 0.79912 0.41645 0.37869 0.0
H596 H 0.72336 0.45732 0.40942 0.0
H597 H 0.77482 0.47949 0.40117 0.0
H598 H 0.75638 0.40742 0.35595 0.0
H599 H 0.70531 0.38531 0.36419 0.0
C600 C 0.84853 0.4984 0.36474 0.0
C601 C 0.86019 0.48027 0.36522 0.0
C602 C 0.81926 0.48712 0.36917 0.0
C603 C 0.80093 0.45741 0.37398 0.0
C604 C 0.81259 0.43934 0.37463 0.0
C605 C 0.84184 0.45063 0.37037 0.0
C606 C 0.73032 0.44639 0.39757 0.0
C607 C 0.71027 0.41951 0.38756 0.0
C608 C 0.75976 0.4591 0.39281 0.0
C609 C 0.76967 0.44504 0.37809 0.0
C610 C 0.74949 0.41855 0.36767 0.0
C611 C 0.72017 0.40598 0.37229 0.0
H612 H 0.11443 0.54402 0.43657 0.0
H613 H 0.11332 0.62368 0.44275 0.0
H614 H 0.15016 0.56037 0.46756 0.0
H615 H 0.14678 0.63868 0.47506 0.0
H616 H 0.22622 0.67362 0.51818 0.0
H617 H 0.1942 0.6568 0.48457 0.0
H618 H 0.15833 0.56796 0.50772 0.0
H619 H 0.19187 0.58502 0.54065 0.0
C620 C 0.12169 0.565 0.4445 0.0
C621 C 0.11083 0.58248 0.43693 0.0
C622 C 0.14194 0.5742 0.46263 0.0
C623 C 0.15164 0.60097 0.47396 0.0
C624 C 0.14046 0.61822 0.46656 0.0
C625 C 0.12065 0.60928 0.44821 0.0
C626 C 0.21164 0.65047 0.51595 0.0
C627 C 0.21143 0.63065 0.53211 0.0
C628 C 0.19301 0.64077 0.49676 0.0
C629 C 0.1731 0.61095 0.49348 0.0
C630 C 0.17345 0.59104 0.50941 0.0
C631 C 0.19261 0.60079 0.52838 0.0
H632 H 0.59183 0.11069 0.58549 0.0
H633 H 0.51353 0.11066 0.59959 0.0
H634 H 0.61496 0.14318 0.61822 0.0
H635 H 0.53621 0.14169 0.63365 0.0
H636 H 0.59706 0.22107 0.67999 0.0
H637 H 0.57168 0.18952 0.64655 0.0
H638 H 0.61476 0.1419 0.6592 0.0
H639 H 0.64072 0.17392 0.69161 0.0
C640 C 0.57949 0.11765 0.5955 0.0
C641 C 0.55075 0.10799 0.58972 0.0
C642 C 0.59267 0.13597 0.61463 0.0
C643 C 0.5774 0.14485 0.62888 0.0
C644 C 0.54872 0.13546 0.62303 0.0
C645 C 0.53557 0.11731 0.60366 0.0
C646 C 0.60095 0.20377 0.67559 0.0
C647 C 0.62119 0.20026 0.68822 0.0
C648 C 0.58635 0.18561 0.65649 0.0
C649 C 0.59148 0.16339 0.64987 0.0
C650 C 0.61088 0.15929 0.66323 0.0
C651 C 0.62568 0.17759 0.68197 0.0
H652 H 0.40905 0.53204 0.74154 0.0
H653 H 0.47738 0.53209 0.78045 0.0
H654 H 0.40165 0.55733 0.77395 0.0
H655 H 0.47031 0.55775 0.81247 0.0
H656 H 0.47587 0.63744 0.84734 0.0
H657 H 0.47904 0.60794 0.81658 0.0
H658 H 0.38665 0.55198 0.81694 0.0
H659 H 0.38328 0.58169 0.84796 0.0
C660 C 0.42222 0.53706 0.75709 0.0
C661 C 0.44406 0.53032 0.75823 0.0
C662 C 0.41799 0.55158 0.77563 0.0
C663 C 0.43561 0.5598 0.79563 0.0
C664 C 0.45675 0.55219 0.79709 0.0
C665 C 0.46085 0.53756 0.77869 0.0
C666 C 0.45614 0.61888 0.84094 0.0
C667 C 0.4293 0.61198 0.85018 0.0
C668 C 0.45801 0.60184 0.82338 0.0
C669 C 0.43312 0.57755 0.81443 0.0
C670 C 0.40619 0.57066 0.82345 0.0
C671 C 0.40431 0.58759 0.84128 0.0
H672 H 0.94835 0.44226 0.96346 0.0
H673 H 0.88219 0.43767 0.91829 0.0
H674 H 0.91526 0.42662 0.99653 0.0
H675 H 0.84931 0.42267 0.9517 0.0
H676 H 0.80899 0.42101 0.02502 0.0
H677 H 0.84235 0.4403 0.99169 0.0
H678 H 0.87023 0.3798 0.00649 0.0
H679 H 0.83729 0.36061 0.03945 0.0
C680 C 0.92675 0.43785 0.96052 0.0
C681 C 0.91791 0.44092 0.93807 0.0
C682 C 0.90783 0.42902 0.97953 0.0
C683 C 0.87963 0.42324 0.97667 0.0
C684 C 0.87099 0.4272 0.95446 0.0
C685 C 0.88988 0.43583 0.93534 0.0
C686 C 0.82226 0.41186 0.02114 0.0
C687 C 0.82042 0.38926 0.03497 0.0
C688 C 0.84124 0.42282 1.00201 0.0
C689 C 0.85904 0.41169 0.99661 0.0
C690 C 0.85711 0.38911 0.01041 0.0
C691 C 0.83801 0.37798 0.02924 0.0
H692 H 0.49895 0.94496 0.11843 0.0
H693 H 0.46593 0.87062 0.07252 0.0
H694 H 0.47594 0.91257 0.15194 0.0
H695 H 0.44321 0.83818 0.10617 0.0
H696 H 0.42926 0.79218 0.17947 0.0
H697 H 0.45808 0.82484 0.14736 0.0
H698 H 0.42046 0.87742 0.16019 0.0
H699 H 0.39137 0.84475 0.19172 0.0
C700 C 0.48718 0.92168 0.1156 0.0
C701 C 0.4841 0.91025 0.09292 0.0
C702 C 0.47395 0.90321 0.13472 0.0
C703 C 0.45784 0.87294 0.13158 0.0
C704 C 0.45569 0.86144 0.10905 0.0
C705 C 0.46849 0.87995 0.08983 0.0
C706 C 0.42732 0.81082 0.17547 0.0
C707 C 0.40797 0.81585 0.18801 0.0
C708 C 0.44368 0.82937 0.1571 0.0
C709 C 0.44149 0.85363 0.15142 0.0
C710 C 0.4227 0.859 0.16435 0.0
C711 C 0.40594 0.84018 0.18228 0.0
H712 H 0.55558 0.44022 0.23747 0.0
H713 H 0.61694 0.52182 0.26962 0.0
H714 H 0.56265 0.41404 0.26901 0.0
H715 H 0.62355 0.49559 0.3018 0.0
H716 H 0.64318 0.43631 0.34722 0.0
H717 H 0.64109 0.46407 0.31399 0.0
H718 H 0.54937 0.4045 0.30908 0.0
H719 H 0.55152 0.3766 0.34145 0.0
C720 C 0.57054 0.45254 0.25138 0.0
C721 C 0.58543 0.48302 0.25126 0.0
C722 C 0.57454 0.43756 0.26953 0.0
C723 C 0.5933 0.45266 0.28822 0.0
C724 C 0.60906 0.48325 0.28765 0.0
C725 C 0.60524 0.49829 0.26928 0.0
C726 C 0.6226 0.42919 0.33899 0.0
C727 C 0.59758 0.40404 0.34691 0.0
C728 C 0.62139 0.44515 0.32001 0.0
C729 C 0.59511 0.43634 0.30863 0.0
C730 C 0.57012 0.41154 0.31694 0.0
C731 C 0.57134 0.39558 0.33569 0.0
H732 H 0.42001 0.86556 0.41803 0.0
H733 H 0.45803 0.93984 0.3718 0.0
H734 H 0.40328 0.83302 0.3839 0.0
H735 H 0.44101 0.90741 0.33782 0.0
H736 H 0.36848 0.83864 0.28933 0.0
H737 H 0.38824 0.87018 0.32346 0.0
H738 H 0.427 0.82171 0.34673 0.0
H739 H 0.4076 0.79016 0.31211 0.0
C740 C 0.42479 0.87486 0.40058 0.0
C741 C 0.44024 0.90517 0.3975 0.0
C742 C 0.41543 0.8563 0.38112 0.0
C743 C 0.42087 0.86777 0.3583 0.0
C744 C 0.43648 0.89806 0.35525 0.0
C745 C 0.44629 0.91657 0.37465 0.0
C746 C 0.3812 0.83462 0.30168 0.0
C747 C 0.38647 0.81187 0.29802 0.0
C748 C 0.39262 0.8528 0.32114 0.0
C749 C 0.40914 0.84837 0.33765 0.0
C750 C 0.41423 0.82547 0.33424 0.0
C751 C 0.40327 0.80756 0.31443 0.0
H752 H 0.50252 0.43187 0.5354 0.0
H753 H 0.56488 0.42568 0.57817 0.0
H754 H 0.51929 0.41795 0.50104 0.0
H755 H 0.58206 0.41232 0.5435 0.0
H756 H 0.61978 0.41377 0.46929 0.0
H757 H 0.6064 0.43157 0.50376 0.0
H758 H 0.51664 0.37208 0.48869 0.0
H759 H 0.52972 0.3544 0.45456 0.0
C760 C 0.51973 0.42744 0.53753 0.0
C761 C 0.53205 0.42955 0.55968 0.0
C762 C 0.52943 0.4196 0.51779 0.0
C763 C 0.55186 0.41385 0.5196 0.0
C764 C 0.56489 0.41685 0.54153 0.0
C765 C 0.55503 0.42452 0.56138 0.0
C766 C 0.59721 0.40456 0.47333 0.0
C767 C 0.57586 0.38266 0.4591 0.0
C768 C 0.58957 0.41466 0.49312 0.0
C769 C 0.56047 0.40334 0.49884 0.0
C770 C 0.53923 0.38153 0.48458 0.0
C771 C 0.5468 0.37126 0.46506 0.0
H772 H 0.11862 0.50316 0.7343 0.0
H773 H 0.11358 0.58029 0.74378 0.0
H774 H 0.15411 0.52758 0.70337 0.0
H775 H 0.14679 0.60354 0.71172 0.0
H776 H 0.22574 0.6511 0.66844 0.0
H777 H 0.1946 0.62559 0.70147 0.0
H778 H 0.16106 0.54413 0.6644 0.0
H779 H 0.19375 0.56982 0.63183 0.0
C780 C 0.12497 0.52526 0.72983 0.0
C781 C 0.11302 0.53961 0.74166 0.0
C782 C 0.14508 0.53916 0.71178 0.0
C783 C 0.15356 0.56768 0.70493 0.0
C784 C 0.1414 0.58184 0.71669 0.0
C785 C 0.12174 0.56818 0.73489 0.0
C786 C 0.21186 0.6277 0.66743 0.0
C787 C 0.21201 0.61248 0.64747 0.0
C788 C 0.19376 0.61302 0.68632 0.0
C789 C 0.17473 0.58274 0.68557 0.0
C790 C 0.17551 0.56738 0.6658 0.0
C791 C 0.19415 0.58209 0.64704 0.0
H792 H 0.60305 0.15089 0.91925 0.0
H793 H 0.56278 0.07611 0.87362 0.0
H794 H 0.6195 0.18304 0.88486 0.0
H795 H 0.57957 0.10817 0.83937 0.0
H796 H 0.65372 0.17596 0.79079 0.0
H797 H 0.63295 0.14448 0.82487 0.0
H798 H 0.59572 0.19463 0.84752 0.0
H799 H 0.6161 0.22609 0.81289 0.0
C800 C 0.59767 0.1414 0.90187 0.0
C801 C 0.58172 0.11106 0.89904 0.0
C802 C 0.60687 0.15974 0.88227 0.0
C803 C 0.60077 0.14802 0.85954 0.0
C804 C 0.58457 0.11771 0.85674 0.0
C805 C 0.57491 0.09942 0.87629 0.0
C806 C 0.64108 0.18032 0.80298 0.0
C807 C 0.63658 0.20355 0.79917 0.0
C808 C 0.62908 0.16218 0.82241 0.0
C809 C 0.61274 0.16715 0.83875 0.0
C810 C 0.60831 0.19045 0.83515 0.0
C811 C 0.61984 0.20831 0.81534 0.0
H812 H 0.45095 0.55428 0.06254 0.0
H813 H 0.53322 0.63392 0.05558 0.0
H814 H 0.43201 0.56954 0.03059 0.0
H815 H 0.51514 0.64789 0.02251 0.0
H816 H 0.47186 0.68102 0.97706 0.0
H817 H 0.4857 0.66531 0.01198 0.0
H818 H 0.43267 0.57582 0.98986 0.0
H819 H 0.41758 0.59175 0.95549 0.0
C820 C 0.46506 0.57504 0.05425 0.0
C821 C 0.49371 0.59281 0.06181 0.0
C822 C 0.45427 0.58361 0.03562 0.0
C823 C 0.47191 0.61004 0.02384 0.0
C824 C 0.50059 0.62766 0.03133 0.0
C825 C 0.51122 0.61932 0.05013 0.0
C826 C 0.46295 0.65796 0.9798 0.0
C827 C 0.44382 0.63762 0.96346 0.0
C828 C 0.47109 0.6489 0.99975 0.0
C829 C 0.46085 0.61926 1.00367 0.0
C830 C 0.4409 0.59881 0.98764 0.0
C831 C 0.43228 0.6079 0.96786 0.0
H832 H 0.87817 0.48336 0.25722 0.0
H833 H 0.94744 0.48531 0.21819 0.0
H834 H 0.84595 0.46032 0.22379 0.0
H835 H 0.91515 0.46183 0.18521 0.0
H836 H 0.84002 0.38266 0.14924 0.0
H837 H 0.87231 0.41114 0.18079 0.0
H838 H 0.83808 0.46801 0.18008 0.0
H839 H 0.80539 0.43933 0.1481 0.0
C840 C 0.88666 0.47929 0.24144 0.0
C841 C 0.91531 0.48578 0.24055 0.0
C842 C 0.86818 0.46609 0.22232 0.0
C843 C 0.87797 0.45897 0.20203 0.0
C844 C 0.90688 0.46658 0.20079 0.0
C845 C 0.92533 0.47991 0.21975 0.0
C846 C 0.83922 0.40119 0.15573 0.0
C847 C 0.82005 0.40867 0.14608 0.0
C848 C 0.85793 0.41764 0.17373 0.0
C849 C 0.85786 0.44191 0.18279 0.0
C850 C 0.83853 0.44935 0.17343 0.0
C851 C 0.81994 0.43303 0.15509 0.0
loop_
_geom_bond_atom_site_label_1
_geom_bond_atom_site_label_2
_geom_bond_distance
_geom_bond_site_symmetry_2
_ccdc_geom_bond_type
H0 C19 0.949 . S
H1 C20 0.950 . S
H2 C22 0.950 . S
H3 C23 0.950 . S
H4 C25 0.950 . S
H5 C28 0.950 . S
H6 C29 0.950 . S
H7 C31 0.951 . S
H8 C32 0.949 . S
H9 C34 0.949 . S
H10 C35 0.950 . S
H11 C37 0.950 . S
H12 C38 0.950 . S
H13 C40 0.944 1_655 S
H14 C43 0.950 . S
H15 C44 0.950 . S
H16 C46 0.951 . S
H17 C47 0.949 . S
C18 C19 1.376 . S
C18 C23 1.386 . S
C18 C24 1.483 . S
C19 H0 0.949 . S
C19 C18 1.376 . S
C19 C20 1.397 . S
C20 H1 0.950 . S
C20 C19 1.397 . S
C20 C21 1.391 . S
C21 C20 1.391 . S
C21 C22 1.405 . S
C22 H2 0.950 . S
C22 C21 1.405 . S
C22 C23 1.367 . S
C23 H3 0.950 . S
C23 C18 1.386 . S
C23 C22 1.367 . S
C24 C18 1.483 . S
C24 C25 1.382 1_655 S
C24 C26 1.403 . S
C25 H4 0.950 . S
C25 C24 1.382 1_455 S
C25 C41 1.411 . S
C26 C24 1.403 . S
C26 C27 1.489 . S
C26 C40 1.400 1_655 S
C27 C26 1.489 . S
C27 C28 1.383 . S
C27 C32 1.382 . S
C28 H5 0.950 . S
C28 C27 1.383 . S
C28 C29 1.395 . S
C29 H6 0.950 . S
C29 C28 1.395 . S
C29 C30 1.288 . S
C30 C29 1.288 . S
C30 C31 1.392 . S
C31 H7 0.951 . S
C31 C30 1.392 . S
C31 C32 1.392 . S
C32 H8 0.949 . S
C32 C27 1.382 . S
C32 C31 1.392 . S
C33 C34 1.376 . S
C33 C38 1.386 . S
C33 C39 1.483 . S
C34 H9 0.949 . S
C34 C33 1.376 . S
C34 C35 1.397 . S
C35 H10 0.950 . S
C35 C34 1.397 . S
C35 C36 1.391 . S
C36 C35 1.391 . S
C36 C37 1.405 . S
C37 H11 0.950 . S
C37 C36 1.405 . S
C37 C38 1.367 . S
C38 H12 0.950 . S
C38 C33 1.386 . S
C38 C37 1.367 . S
C39 C33 1.483 . S
C39 C40 1.399 . S
C39 C41 1.403 . S
C40 H13 0.944 1_455 S
C40 C26 1.400 1_455 S
C40 C39 1.399 . S
C41 C25 1.411 . S
C41 C39 1.403 . S
C41 C42 1.489 . S
C42 C41 1.489 . S
C42 C43 1.383 . S
C42 C47 1.382 . S
C43 H14 0.950 . S
C43 C42 1.383 . S
C43 C44 1.395 . S
C44 H15 0.950 . S
C44 C43 1.395 . S
C44 C45 1.288 . S
C45 C44 1.288 . S
C45 C46 1.392 . S
C46 H16 0.951 . S
C46 C45 1.392 . S
C46 C47 1.392 . S
C47 H17 0.949 . S
C47 C42 1.382 . S
C47 C46 1.392 . S
H48 C67 0.949 . S
H49 C68 0.950 . S
H50 C70 0.950 . S
H51 C71 0.950 . S
H52 C73 0.950 . S
H53 C76 0.950 . S
H54 C77 0.950 . S
H55 C79 0.951 . S
H56 C80 0.949 . S
H57 C82 0.949 . S
H58 C83 0.950 . S
H59 C85 0.950 . S
H60 C86 0.950 . S
H61 C88 0.950 . S
H62 C91 0.950 . S
H63 C92 0.950 . S
H64 C94 0.951 . S
H65 C95 0.949 . S
C66 C67 1.376 . S
C66 C71 1.386 . S
C66 C72 1.483 . S
C67 H48 0.949 . S
C67 C66 1.376 . S
C67 C68 1.397 . S
C68 H49 0.950 . S
C68 C67 1.397 . S
C68 C69 1.391 . S
C69 C68 1.391 . S
C69 C70 1.405 . S
C70 H50 0.950 . S
C70 C69 1.405 . S
C70 C71 1.367 . S
C71 H51 0.950 . S
C71 C66 1.386 . S
C71 C70 1.367 . S
C72 C66 1.483 . S
C72 C73 1.382 . S
C72 C74 1.403 . S
C73 H52 0.950 . S
C73 C72 1.382 . S
C73 C89 1.411 1_565 S
C74 C72 1.403 . S
C74 C75 1.489 . S
C74 C88 1.411 1_565 S
C75 C74 1.489 . S
C75 C76 1.383 . S
C75 C80 1.382 . S
C76 H53 0.950 . S
C76 C75 1.383 . S
C76 C77 1.395 . S
C77 H54 0.950 . S
C77 C76 1.395 . S
C77 C78 1.288 . S
C78 C77 1.288 . S
C78 C79 1.392 . S
C79 H55 0.951 . S
C79 C78 1.392 . S
C79 C80 1.392 . S
C80 H56 0.949 . S
C80 C75 1.382 . S
C80 C79 1.392 . S
C81 C82 1.376 . S
C81 C86 1.386 . S
C81 C87 1.483 . S
C82 H57 0.949 . S
C82 C81 1.376 . S
C82 C83 1.397 . S
C83 H58 0.950 . S
C83 C82 1.397 . S
C83 C84 1.391 . S
C84 C83 1.391 . S
C84 C85 1.405 . S
C85 H59 0.950 . S
C85 C84 1.405 . S
C85 C86 1.367 . S
C86 H60 0.950 . S
C86 C81 1.386 . S
C86 C85 1.367 . S
C87 C81 1.483 . S
C87 C88 1.382 . S
C87 C89 1.403 . S
C88 H61 0.950 . S
C88 C74 1.411 1_545 S
C88 C87 1.382 . S
C89 C73 1.411 1_545 S
C89 C87 1.403 . S
C89 C90 1.489 . S
C90 C89 1.489 . S
C90 C91 1.383 . S
C90 C95 1.382 . S
C91 H62 0.950 . S
C91 C90 1.383 . S
C91 C92 1.395 . S
C92 H63 0.950 . S
C92 C91 1.395 . S
C92 C93 1.288 . S
C93 C92 1.288 . S
C93 C94 1.392 . S
C94 H64 0.951 . S
C94 C93 1.392 . S
C94 C95 1.392 . S
C95 H65 0.949 . S
C95 C90 1.382 . S
C95 C94 1.392 . S
H96 C115 0.949 . S
H97 C116 0.950 . S
H98 C118 0.950 . S
H99 C119 0.950 . S
H100 C121 0.950 . S
H101 C124 0.950 . S
H102 C125 0.950 . S
H103 C127 0.951 . S
H104 C128 0.949 . S
H105 C130 0.949 . S
H106 C131 0.950 . S
H107 C133 0.950 . S
H108 C134 0.950 . S
H109 C136 0.950 . S
H110 C139 0.950 . S
H111 C140 0.950 . S
H112 C142 0.951 . S
H113 C143 0.949 . S
C114 C115 1.376 . S
C114 C119 1.386 . S
C114 C120 1.483 . S
C115 H96 0.949 . S
C115 C114 1.376 . S
C115 C116 1.397 . S
C116 H97 0.950 . S
C116 C115 1.397 . S
C116 C117 1.391 . S
C117 C116 1.391 . S
C117 C118 1.405 . S
C118 H98 0.950 . S
C118 C117 1.405 . S
C118 C119 1.367 . S
C119 H99 0.950 . S
C119 C114 1.386 . S
C119 C118 1.367 . S
C120 C114 1.483 . S
C120 C121 1.382 . S
C120 C122 1.403 . S
C121 H100 0.950 . S
C121 C120 1.382 . S
C121 C137 1.411 . S
C122 C120 1.403 . S
C122 C123 1.489 . S
C122 C136 1.411 . S
C123 C122 1.489 . S
C123 C124 1.383 . S
C123 C128 1.382 . S
C124 H101 0.950 . S
C124 C123 1.383 . S
C124 C125 1.395 . S
C125 H102 0.950 . S
C125 C124 1.395 . S
C125 C126 1.288 . S
C126 C125 1.288 . S
C126 C127 1.392 . S
C127 H103 0.951 . S
C127 C126 1.392 . S
C127 C128 1.392 . S
C128 H104 0.949 . S
C128 C123 1.382 . S
C128 C127 1.392 . S
C129 C130 1.376 . S
C129 C134 1.386 . S
C129 C135 1.483 . S
C130 H105 0.949 . S
C130 C129 1.376 . S
C130 C131 1.397 . S
C131 H106 0.950 . S
C131 C130 1.397 . S
C131 C132 1.391 . S
C132 C131 1.391 . S
C132 C133 1.405 . S
C133 H107 0.950 . S
C133 C132 1.405 . S
C133 C134 1.367 . S
C134 H108 0.950 . S
C134 C129 1.386 . S
C134 C133 1.367 . S
C135 C129 1.483 . S
C135 C136 1.382 . S
C135 C137 1.403 . S
C136 H109 0.950 . S
C136 C122 1.411 . S
C136 C135 1.382 . S
C137 C121 1.411 . S
C137 C135 1.403 . S
C137 C138 1.489 . S
C138 C137 1.489 . S
C138 C139 1.383 . S
C138 C143 1.382 . S
C139 H110 0.950 . S
C139 C138 1.383 . S
C139 C140 1.395 . S
C140 H111 0.950 . S
C140 C139 1.395 . S
C140 C141 1.288 . S
C141 C140 1.288 . S
C141 C142 1.392 . S
C142 H112 0.951 . S
C142 C141 1.392 . S
C142 C143 1.392 . S
C143 H113 0.949 . S
C143 C138 1.382 . S
C143 C142 1.392 . S
H144 C163 0.949 . S
H145 C164 0.950 . S
H146 C166 0.950 . S
H147 C167 0.950 . S
H148 C169 0.950 . S
H149 C172 0.950 . S
H150 C173 0.950 . S
H151 C175 0.951 . S
H152 C176 0.949 . S
H153 C178 0.949 . S
H154 C179 0.950 . S
H155 C181 0.950 . S
H156 C182 0.950 . S
H157 C184 0.950 . S
H158 C187 0.950 . S
H159 C188 0.950 . S
H160 C190 0.951 . S
H161 C191 0.949 . S
C162 C163 1.376 . S
C162 C167 1.386 . S
C162 C168 1.483 . S
C163 H144 0.949 . S
C163 C162 1.376 . S
C163 C164 1.397 . S
C164 H145 0.950 . S
C164 C163 1.397 . S
C164 C165 1.391 . S
C165 C164 1.391 . S
C165 C166 1.405 . S
C166 H146 0.950 . S
C166 C165 1.405 . S
C166 C167 1.367 . S
C167 H147 0.950 . S
C167 C162 1.386 . S
C167 C166 1.367 . S
C168 C162 1.483 . S
C168 C169 1.382 1_455 S
C168 C170 1.403 . S
C169 H148 0.950 . S
C169 C168 1.382 1_655 S
C169 C185 1.411 . S
C170 C168 1.403 . S
C170 C171 1.489 . S
C170 C184 1.411 . S
C171 C170 1.489 . S
C171 C172 1.383 . S
C171 C176 1.382 . S
C172 H149 0.950 . S
C172 C171 1.383 . S
C172 C173 1.395 . S
C173 H150 0.950 . S
C173 C172 1.395 . S
C173 C174 1.288 . S
C174 C173 1.288 . S
C174 C175 1.392 . S
C175 H151 0.951 . S
C175 C174 1.392 . S
C175 C176 1.392 . S
C176 H152 0.949 . S
C176 C171 1.382 . S
C176 C175 1.392 . S
C177 C178 1.376 . S
C177 C182 1.386 . S
C177 C183 1.483 . S
C178 H153 0.949 . S
C178 C177 1.376 . S
C178 C179 1.397 . S
C179 H154 0.950 . S
C179 C178 1.397 . S
C179 C180 1.391 . S
C180 C179 1.391 . S
C180 C181 1.405 . S
C181 H155 0.950 . S
C181 C180 1.405 . S
C181 C182 1.367 . S
C182 H156 0.950 . S
C182 C177 1.386 . S
C182 C181 1.367 . S
C183 C177 1.483 . S
C183 C184 1.382 1_655 S
C183 C185 1.403 . S
C184 H157 0.950 . S
C184 C170 1.411 . S
C184 C183 1.382 1_455 S
C185 C169 1.411 . S
C185 C183 1.403 . S
C185 C186 1.489 . S
C186 C185 1.489 . S
C186 C187 1.383 . S
C186 C191 1.382 . S
C187 H158 0.950 . S
C187 C186 1.383 . S
C187 C188 1.395 . S
C188 H159 0.950 . S
C188 C187 1.395 . S
C188 C189 1.288 . S
C189 C188 1.288 . S
C189 C190 1.392 . S
C190 H160 0.951 . S
C190 C189 1.392 . S
C190 C191 1.392 . S
C191 H161 0.949 . S
C191 C186 1.382 . S
C191 C190 1.392 . S
H192 C211 0.949 . S
H193 C212 0.950 . S
H194 C214 0.950 . S
H195 C215 0.947 . S
H196 C217 0.950 . S
H197 C220 0.950 . S
H198 C221 0.950 . S
H199 C223 0.951 . S
H200 C224 0.949 . S
H201 C226 0.949 . S
H202 C227 0.950 . S
H203 C229 0.950 . S
H204 C230 0.950 . S
H205 C232 0.950 . S
H206 C235 0.950 . S
H207 C236 0.950 . S
H208 C238 0.951 . S
H209 C239 0.949 . S
C210 C211 1.376 . S
C210 C215 1.387 1_554 S
C210 C216 1.483 1_554 S
C211 H192 0.949 . S
C211 C210 1.376 . S
C211 C212 1.397 . S
C212 H193 0.950 . S
C212 C211 1.397 . S
C212 C213 1.391 . S
C213 C212 1.391 . S
C213 C214 1.405 . S
C214 H194 0.950 . S
C214 C213 1.405 . S
C214 C215 1.369 1_554 S
C215 H195 0.947 . S
C215 C210 1.387 1_556 S
C215 C214 1.369 1_556 S
C216 C210 1.483 1_556 S
C216 C217 1.382 1_556 S
C216 C218 1.403 . S
C217 H196 0.950 . S
C217 C216 1.382 1_554 S
C217 C233 1.411 1_545 S
C218 C216 1.403 . S
C218 C219 1.489 . S
C218 C232 1.411 1_545 S
C219 C218 1.489 . S
C219 C220 1.383 . S
C219 C224 1.382 . S
C220 H197 0.950 . S
C220 C219 1.383 . S
C220 C221 1.395 . S
C221 H198 0.950 . S
C221 C220 1.395 . S
C221 C222 1.288 . S
C222 C221 1.288 . S
C222 C223 1.392 . S
C223 H199 0.951 . S
C223 C222 1.392 . S
C223 C224 1.392 . S
C224 H200 0.949 . S
C224 C219 1.382 . S
C224 C223 1.392 . S
C225 C226 1.376 . S
C225 C230 1.386 . S
C225 C231 1.483 . S
C226 H201 0.949 . S
C226 C225 1.376 . S
C226 C227 1.397 . S
C227 H202 0.950 . S
C227 C226 1.397 . S
C227 C228 1.391 . S
C228 C227 1.391 . S
C228 C229 1.405 . S
C229 H203 0.950 . S
C229 C228 1.405 . S
C229 C230 1.367 . S
C230 H204 0.950 . S
C230 C225 1.386 . S
C230 C229 1.367 . S
C231 C225 1.483 . S
C231 C232 1.382 . S
C231 C233 1.403 1_556 S
C232 H205 0.950 . S
C232 C218 1.411 1_565 S
C232 C231 1.382 . S
C233 C217 1.411 1_565 S
C233 C231 1.403 1_554 S
C233 C234 1.489 . S
C234 C233 1.489 . S
C234 C235 1.383 . S
C234 C239 1.382 . S
C235 H206 0.950 . S
C235 C234 1.383 . S
C235 C236 1.395 . S
C236 H207 0.950 . S
C236 C235 1.395 . S
C236 C237 1.288 . S
C237 C236 1.288 . S
C237 C238 1.392 . S
C238 H208 0.951 . S
C238 C237 1.392 . S
C238 C239 1.392 . S
C239 H209 0.949 . S
C239 C234 1.382 . S
C239 C238 1.392 . S
H240 C259 0.949 . S
H241 C260 0.950 . S
H242 C262 0.950 . S
H243 C263 0.950 . S
H244 C265 0.950 . S
H245 C268 0.950 . S
H246 C269 0.950 . S
H247 C271 0.951 . S
H248 C272 0.949 . S
H249 C274 0.949 . S
H250 C275 0.950 . S
H251 C277 0.950 . S
H252 C278 0.950 . S
H253 C280 0.950 . S
H254 C283 0.950 . S
H255 C284 0.950 . S
H256 C286 0.951 . S
H257 C287 0.949 . S
C258 C259 1.376 . S
C258 C263 1.386 . S
C258 C264 1.483 . S
C259 H240 0.949 . S
C259 C258 1.376 . S
C259 C260 1.397 . S
C260 H241 0.950 . S
C260 C259 1.397 . S
C260 C261 1.391 . S
C261 C260 1.391 . S
C261 C262 1.405 . S
C262 H242 0.950 . S
C262 C261 1.405 . S
C262 C263 1.367 . S
C263 H243 0.950 . S
C263 C258 1.386 . S
C263 C262 1.367 . S
C264 C258 1.483 . S
C264 C265 1.382 . S
C264 C266 1.403 . S
C265 H244 0.950 . S
C265 C264 1.382 . S
C265 C281 1.411 . S
C266 C264 1.403 . S
C266 C267 1.489 . S
C266 C280 1.411 . S
C267 C266 1.489 . S
C267 C268 1.383 . S
C267 C272 1.382 . S
C268 H245 0.950 . S
C268 C267 1.383 . S
C268 C269 1.395 . S
C269 H246 0.950 . S
C269 C268 1.395 . S
C269 C270 1.288 . S
C270 C269 1.288 . S
C270 C271 1.392 . S
C271 H247 0.951 . S
C271 C270 1.392 . S
C271 C272 1.392 . S
C272 H248 0.949 . S
C272 C267 1.382 . S
C272 C271 1.392 . S
C273 C274 1.376 . S
C273 C278 1.386 . S
C273 C279 1.483 . S
C274 H249 0.949 . S
C274 C273 1.376 . S
C274 C275 1.397 . S
C275 H250 0.950 . S
C275 C274 1.397 . S
C275 C276 1.391 . S
C276 C275 1.391 . S
C276 C277 1.405 . S
C277 H251 0.950 . S
C277 C276 1.405 . S
C277 C278 1.367 . S
C278 H252 0.950 . S
C278 C273 1.386 . S
C278 C277 1.367 . S
C279 C273 1.483 . S
C279 C280 1.382 . S
C279 C281 1.403 . S
C280 H253 0.950 . S
C280 C266 1.411 . S
C280 C279 1.382 . S
C281 C265 1.411 . S
C281 C279 1.403 . S
C281 C282 1.489 . S
C282 C281 1.489 . S
C282 C283 1.383 . S
C282 C287 1.382 . S
C283 H254 0.950 . S
C283 C282 1.383 . S
C283 C284 1.395 . S
C284 H255 0.950 . S
C284 C283 1.395 . S
C284 C285 1.288 . S
C285 C284 1.288 . S
C285 C286 1.392 . S
C286 H256 0.951 . S
C286 C285 1.392 . S
C286 C287 1.392 . S
C287 H257 0.949 . S
C287 C282 1.382 . S
C287 C286 1.392 . S
Co288 O289 2.216 . S
Co288 O290 2.091 . S
Co288 O292 2.004 . S
Co288 O298 2.021 . S
Co288 O300 2.137 . S
Co288 O301 2.244 . S
O289 Co288 2.216 . S
O289 C296 1.247 . S
O290 Co288 2.091 . S
O290 C296 1.261 . S
C291 O300 1.247 . S
C291 O301 1.272 . S
O292 Co288 2.004 . S
O292 C297 1.259 . S
Co293 O294 2.061 . S
Co293 O299 2.052 . S
Co293 O301 2.135 . S
O294 Co293 2.061 . S
O294 C297 1.235 . S
C295 O298 1.238 . S
C295 O299 1.241 . S
C296 O289 1.247 . S
C296 O290 1.261 . S
C297 O292 1.259 . S
C297 O294 1.235 . S
O298 Co288 2.021 . S
O298 C295 1.238 . S
O299 Co293 2.052 . S
O299 C295 1.241 . S
O300 Co288 2.137 . S
O300 C291 1.247 . S
O301 Co288 2.244 . S
O301 C291 1.272 . S
O301 Co293 2.135 . S
Co302 O303 2.216 . S
Co302 O304 2.091 . S
Co302 O306 2.004 . S
Co302 O312 2.021 . S
Co302 O314 2.137 . S
Co302 O315 2.244 . S
O303 Co302 2.216 . S
O303 C310 1.247 . S
O304 Co302 2.091 . S
O304 C310 1.261 . S
C305 O314 1.247 . S
C305 O315 1.272 . S
O306 Co302 2.004 . S
O306 C311 1.259 . S
Co307 O308 2.061 . S
Co307 O313 2.052 . S
Co307 O315 2.135 . S
O308 Co307 2.061 . S
O308 C311 1.235 . S
C309 O312 1.238 . S
C309 O313 1.241 . S
C310 O303 1.247 . S
C310 O304 1.261 . S
C311 O306 1.259 . S
C311 O308 1.235 . S
O312 Co302 2.021 . S
O312 C309 1.238 . S
O313 Co307 2.052 . S
O313 C309 1.241 . S
O314 Co302 2.137 . S
O314 C305 1.247 . S
O315 Co302 2.244 . S
O315 C305 1.272 . S
O315 Co307 2.135 . S
Co316 O317 2.216 . S
Co316 O318 2.091 . S
Co316 O320 2.004 . S
Co316 O326 2.021 . S
Co316 O328 2.137 . S
Co316 O329 2.244 . S
O317 Co316 2.216 . S
O317 C324 1.247 . S
O318 Co316 2.091 . S
O318 C324 1.261 . S
C319 O328 1.247 . S
C319 O329 1.272 . S
O320 Co316 2.004 . S
O320 C325 1.259 . S
Co321 O322 2.061 . S
Co321 O327 2.052 . S
Co321 O329 2.135 . S
O322 Co321 2.061 . S
O322 C325 1.235 . S
C323 O326 1.238 . S
C323 O327 1.241 . S
C324 O317 1.247 . S
C324 O318 1.261 . S
C325 O320 1.259 . S
C325 O322 1.235 . S
O326 Co316 2.021 . S
O326 C323 1.238 . S
O327 Co321 2.052 . S
O327 C323 1.241 . S
O328 Co316 2.137 . S
O328 C319 1.247 . S
O329 Co316 2.244 . S
O329 C319 1.272 . S
O329 Co321 2.135 . S
Co330 O331 2.216 . S
Co330 O332 2.091 . S
Co330 O334 2.004 . S
Co330 O340 2.021 . S
Co330 O342 2.137 . S
Co330 O343 2.244 . S
O331 Co330 2.216 . S
O331 C338 1.247 . S
O332 Co330 2.091 . S
O332 C338 1.261 . S
C333 O342 1.247 . S
C333 O343 1.272 . S
O334 Co330 2.004 . S
O334 C339 1.259 . S
Co335 O336 2.061 . S
Co335 O341 2.052 . S
Co335 O343 2.135 . S
O336 Co335 2.061 . S
O336 C339 1.235 . S
C337 O340 1.238 . S
C337 O341 1.241 . S
C338 O331 1.247 . S
C338 O332 1.261 . S
C339 O334 1.259 . S
C339 O336 1.235 . S
O340 Co330 2.021 . S
O340 C337 1.238 . S
O341 Co335 2.052 . S
O341 C337 1.241 . S
O342 Co330 2.137 . S
O342 C333 1.247 . S
O343 Co330 2.244 . S
O343 C333 1.272 . S
O343 Co335 2.135 . S
Co344 O345 2.216 . S
Co344 O346 2.091 . S
Co344 O348 2.004 . S
Co344 O354 2.021 . S
Co344 O356 2.137 . S
Co344 O357 2.244 . S
O345 Co344 2.216 . S
O345 C352 1.247 . S
O346 Co344 2.091 . S
O346 C352 1.261 . S
C347 O356 1.247 . S
C347 O357 1.272 . S
O348 Co344 2.004 . S
O348 C353 1.259 . S
Co349 O350 2.061 . S
Co349 O355 2.052 . S
Co349 O357 2.135 . S
O350 Co349 2.061 . S
O350 C353 1.235 . S
C351 O354 1.238 . S
C351 O355 1.241 . S
C352 O345 1.247 . S
C352 O346 1.261 . S
C353 O348 1.259 . S
C353 O350 1.235 . S
O354 Co344 2.021 . S
O354 C351 1.238 . S
O355 Co349 2.052 . S
O355 C351 1.241 . S
O356 Co344 2.137 . S
O356 C347 1.247 . S
O357 Co344 2.244 . S
O357 C347 1.272 . S
O357 Co349 2.135 . S
Co358 O359 2.216 . S
Co358 O360 2.091 . S
Co358 O362 2.004 . S
Co358 O368 2.021 . S
Co358 O370 2.137 . S
Co358 O371 2.244 . S
O359 Co358 2.216 . S
O359 C366 1.247 . S
O360 Co358 2.091 . S
O360 C366 1.261 . S
C361 O370 1.247 . S
C361 O371 1.272 . S
O362 Co358 2.004 . S
O362 C367 1.259 . S
Co363 O364 2.061 . S
Co363 O369 2.052 . S
Co363 O371 2.135 . S
O364 Co363 2.061 . S
O364 C367 1.235 . S
C365 O368 1.238 . S
C365 O369 1.241 . S
C366 O359 1.247 . S
C366 O360 1.261 . S
C367 O362 1.259 . S
C367 O364 1.235 . S
O368 Co358 2.021 . S
O368 C365 1.238 . S
O369 Co363 2.052 . S
O369 C365 1.241 . S
O370 Co358 2.137 . S
O370 C361 1.247 . S
O371 Co358 2.244 . S
O371 C361 1.272 . S
O371 Co363 2.135 . S
H372 C380 0.950 . S
H373 C385 0.950 . S
H374 C382 0.950 . S
H375 C384 0.950 . S
H376 C386 0.950 . S
H377 C388 0.950 . S
H378 C390 0.950 . S
H379 C391 0.950 . S
C380 H372 0.950 . S
C380 C381 1.386 . S
C380 C382 1.391 . S
C381 C380 1.386 . S
C381 C385 1.393 . S
C382 H374 0.950 . S
C382 C380 1.391 . S
C382 C383 1.400 . S
C383 C382 1.400 . S
C383 C384 1.398 . S
C383 C389 1.491 . S
C384 H375 0.950 . S
C384 C383 1.398 . S
C384 C385 1.391 . S
C385 H373 0.950 . S
C385 C381 1.393 . S
C385 C384 1.391 . S
C386 H376 0.950 . S
C386 C387 1.386 . S
C386 C388 1.391 . S
C387 C386 1.386 . S
C387 C391 1.393 . S
C388 H377 0.950 . S
C388 C386 1.391 . S
C388 C389 1.400 . S
C389 C383 1.491 . S
C389 C388 1.400 . S
C389 C390 1.398 . S
C390 H378 0.950 . S
C390 C389 1.398 . S
C390 C391 1.391 . S
C391 H379 0.950 . S
C391 C387 1.393 . S
C391 C390 1.391 . S
H392 C400 0.950 . S
H393 C405 0.950 . S
H394 C402 0.950 . S
H395 C404 0.950 . S
H396 C406 0.950 . S
H397 C408 0.950 . S
H398 C410 0.950 . S
H399 C411 0.950 . S
C400 H392 0.950 . S
C400 C401 1.386 . S
C400 C402 1.391 . S
C401 C400 1.386 . S
C401 C405 1.393 . S
C402 H394 0.950 . S
C402 C400 1.391 . S
C402 C403 1.400 . S
C403 C402 1.400 . S
C403 C404 1.398 . S
C403 C409 1.491 . S
C404 H395 0.950 . S
C404 C403 1.398 . S
C404 C405 1.391 . S
C405 H393 0.950 . S
C405 C401 1.393 . S
C405 C404 1.391 . S
C406 H396 0.950 . S
C406 C407 1.386 . S
C406 C408 1.391 . S
C407 C406 1.386 . S
C407 C411 1.393 . S
C408 H397 0.950 . S
C408 C406 1.391 . S
C408 C409 1.400 . S
C409 C403 1.491 . S
C409 C408 1.400 . S
C409 C410 1.398 . S
C410 H398 0.950 . S
C410 C409 1.398 . S
C410 C411 1.391 . S
C411 H399 0.950 . S
C411 C407 1.393 . S
C411 C410 1.391 . S
H412 C420 0.950 . S
H413 C425 0.950 . S
H414 C422 0.950 . S
H415 C424 0.950 . S
H416 C426 0.950 . S
H417 C428 0.950 . S
H418 C430 0.950 . S
H419 C431 0.950 . S
C420 H412 0.950 . S
C420 C421 1.386 . S
C420 C422 1.391 . S
C421 C420 1.386 . S
C421 C425 1.393 . S
C422 H414 0.950 . S
C422 C420 1.391 . S
C422 C423 1.400 . S
C423 C422 1.400 . S
C423 C424 1.398 . S
C423 C429 1.491 . S
C424 H415 0.950 . S
C424 C423 1.398 . S
C424 C425 1.391 . S
C425 H413 0.950 . S
C425 C421 1.393 . S
C425 C424 1.391 . S
C426 H416 0.950 . S
C426 C427 1.386 . S
C426 C428 1.391 . S
C427 C426 1.386 . S
C427 C431 1.393 . S
C428 H417 0.950 . S
C428 C426 1.391 . S
C428 C429 1.400 . S
C429 C423 1.491 . S
C429 C428 1.400 . S
C429 C430 1.398 . S
C430 H418 0.950 . S
C430 C429 1.398 . S
C430 C431 1.391 . S
C431 H419 0.950 . S
C431 C427 1.393 . S
C431 C430 1.391 . S
H432 C440 0.950 . S
H433 C445 0.950 . S
H434 C442 0.950 . S
H435 C444 0.950 . S
H436 C446 0.950 . S
H437 C448 0.950 . S
H438 C450 0.950 . S
H439 C451 0.950 . S
C440 H432 0.950 . S
C440 C441 1.386 . S
C440 C442 1.391 . S
C441 C440 1.386 . S
C441 C445 1.393 . S
C442 H434 0.950 . S
C442 C440 1.391 . S
C442 C443 1.400 . S
C443 C442 1.400 . S
C443 C444 1.398 . S
C443 C449 1.491 . S
C444 H435 0.950 . S
C444 C443 1.398 . S
C444 C445 1.391 . S
C445 H433 0.950 . S
C445 C441 1.393 . S
C445 C444 1.391 . S
C446 H436 0.950 . S
C446 C447 1.386 . S
C446 C448 1.391 . S
C447 C446 1.386 . S
C447 C451 1.393 . S
C448 H437 0.950 . S
C448 C446 1.391 . S
C448 C449 1.400 . S
C449 C443 1.491 . S
C449 C448 1.400 . S
C449 C450 1.398 . S
C450 H438 0.950 . S
C450 C449 1.398 . S
C450 C451 1.391 . S
C451 H439 0.950 . S
C451 C447 1.393 . S
C451 C450 1.391 . S
H452 C460 0.950 . S
H453 C465 0.950 . S
H454 C462 0.950 . S
H455 C464 0.950 . S
H456 C466 0.950 . S
H457 C468 0.950 . S
H458 C470 0.950 . S
H459 C471 0.950 . S
C460 H452 0.950 . S
C460 C461 1.386 . S
C460 C462 1.391 . S
C461 C460 1.386 . S
C461 C465 1.393 . S
C462 H454 0.950 . S
C462 C460 1.391 . S
C462 C463 1.400 . S
C463 C462 1.400 . S
C463 C464 1.398 . S
C463 C469 1.491 . S
C464 H455 0.950 . S
C464 C463 1.398 . S
C464 C465 1.391 . S
C465 H453 0.950 . S
C465 C461 1.393 . S
C465 C464 1.391 . S
C466 H456 0.950 . S
C466 C467 1.386 . S
C466 C468 1.391 . S
C467 C466 1.386 . S
C467 C471 1.393 . S
C468 H457 0.950 . S
C468 C466 1.391 . S
C468 C469 1.400 . S
C469 C463 1.491 . S
C469 C468 1.400 . S
C469 C470 1.398 . S
C470 H458 0.950 . S
C470 C469 1.398 . S
C470 C471 1.391 . S
C471 H459 0.950 . S
C471 C467 1.393 . S
C471 C470 1.391 . S
H472 C480 0.950 . S
H473 C485 0.950 . S
H474 C482 0.950 . S
H475 C484 0.950 . S
H476 C486 0.950 . S
H477 C488 0.950 . S
H478 C490 0.950 . S
H479 C491 0.950 . S
C480 H472 0.950 . S
C480 C481 1.386 . S
C480 C482 1.391 . S
C481 C480 1.386 . S
C481 C485 1.393 . S
C482 H474 0.950 . S
C482 C480 1.391 . S
C482 C483 1.400 . S
C483 C482 1.400 . S
C483 C484 1.398 . S
C483 C489 1.491 . S
C484 H475 0.950 . S
C484 C483 1.398 . S
C484 C485 1.391 . S
C485 H473 0.950 . S
C485 C481 1.393 . S
C485 C484 1.391 . S
C486 H476 0.950 . S
C486 C487 1.386 . S
C486 C488 1.391 . S
C487 C486 1.386 . S
C487 C491 1.393 . S
C488 H477 0.950 . S
C488 C486 1.391 . S
C488 C489 1.400 . S
C489 C483 1.491 . S
C489 C488 1.400 . S
C489 C490 1.398 . S
C490 H478 0.950 . S
C490 C489 1.398 . S
C490 C491 1.391 . S
C491 H479 0.950 . S
C491 C487 1.393 . S
C491 C490 1.391 . S
H492 C500 0.950 . S
H493 C505 0.950 . S
H494 C502 0.950 . S
H495 C504 0.950 . S
H496 C506 0.950 . S
H497 C508 0.950 . S
H498 C510 0.950 . S
H499 C511 0.950 . S
C500 H492 0.950 . S
C500 C501 1.386 . S
C500 C502 1.391 . S
C501 C500 1.386 . S
C501 C505 1.393 . S
C502 H494 0.950 . S
C502 C500 1.391 . S
C502 C503 1.400 . S
C503 C502 1.400 . S
C503 C504 1.398 . S
C503 C509 1.491 . S
C504 H495 0.950 . S
C504 C503 1.398 . S
C504 C505 1.391 . S
C505 H493 0.950 . S
C505 C501 1.393 . S
C505 C504 1.391 . S
C506 H496 0.950 . S
C506 C507 1.386 . S
C506 C508 1.391 . S
C507 C506 1.386 . S
C507 C511 1.393 . S
C508 H497 0.950 . S
C508 C506 1.391 . S
C508 C509 1.400 . S
C509 C503 1.491 . S
C509 C508 1.400 . S
C509 C510 1.398 . S
C510 H498 0.950 . S
C510 C509 1.398 . S
C510 C511 1.391 . S
C511 H499 0.950 . S
C511 C507 1.393 . S
C511 C510 1.391 . S
H512 C520 0.950 . S
H513 C525 0.950 . S
H514 C522 0.950 . S
H515 C524 0.950 . S
H516 C526 0.950 . S
H517 C528 0.950 . S
H518 C530 0.950 . S
H519 C531 0.950 . S
C520 H512 0.950 . S
C520 C521 1.386 . S
C520 C522 1.391 . S
C521 C520 1.386 . S
C521 C525 1.393 . S
C522 H514 0.950 . S
C522 C520 1.391 . S
C522 C523 1.400 . S
C523 C522 1.400 . S
C523 C524 1.398 . S
C523 C529 1.491 . S
C524 H515 0.950 . S
C524 C523 1.398 . S
C524 C525 1.391 . S
C525 H513 0.950 . S
C525 C521 1.393 . S
C525 C524 1.391 . S
C526 H516 0.950 . S
C526 C527 1.386 . S
C526 C528 1.391 . S
C527 C526 1.386 . S
C527 C531 1.393 . S
C528 H517 0.950 . S
C528 C526 1.391 . S
C528 C529 1.400 . S
C529 C523 1.491 . S
C529 C528 1.400 . S
C529 C530 1.398 . S
C530 H518 0.950 . S
C530 C529 1.398 . S
C530 C531 1.391 . S
C531 H519 0.950 . S
C531 C527 1.393 . S
C531 C530 1.391 . S
H532 C540 0.950 . S
H533 C545 0.950 . S
H534 C542 0.950 . S
H535 C544 0.950 . S
H536 C546 0.950 . S
H537 C548 0.950 . S
H538 C550 0.950 . S
H539 C551 0.950 . S
C540 H532 0.950 . S
C540 C541 1.386 . S
C540 C542 1.391 . S
C541 C540 1.386 . S
C541 C545 1.393 . S
C542 H534 0.950 . S
C542 C540 1.391 . S
C542 C543 1.400 . S
C543 C542 1.400 . S
C543 C544 1.398 . S
C543 C549 1.491 . S
C544 H535 0.950 . S
C544 C543 1.398 . S
C544 C545 1.391 . S
C545 H533 0.950 . S
C545 C541 1.393 . S
C545 C544 1.391 . S
C546 H536 0.950 . S
C546 C547 1.386 . S
C546 C548 1.391 . S
C547 C546 1.386 . S
C547 C551 1.393 . S
C548 H537 0.950 . S
C548 C546 1.391 . S
C548 C549 1.400 . S
C549 C543 1.491 . S
C549 C548 1.400 . S
C549 C550 1.398 . S
C550 H538 0.950 . S
C550 C549 1.398 . S
C550 C551 1.391 . S
C551 H539 0.950 . S
C551 C547 1.393 . S
C551 C550 1.391 . S
H552 C560 0.950 1_556 S
H553 C565 0.950 . S
H554 C562 0.950 . S
H555 C564 0.950 . S
H556 C566 0.950 . S
H557 C568 0.950 . S
H558 C570 0.950 . S
H559 C571 0.950 . S
C560 H552 0.950 1_554 S
C560 C561 1.386 . S
C560 C562 1.391 . S
C561 C560 1.386 . S
C561 C565 1.393 . S
C562 H554 0.950 . S
C562 C560 1.391 . S
C562 C563 1.400 . S
C563 C562 1.400 . S
C563 C564 1.398 . S
C563 C569 1.491 . S
C564 H555 0.950 . S
C564 C563 1.398 . S
C564 C565 1.391 . S
C565 H553 0.950 . S
C565 C561 1.393 . S
C565 C564 1.391 . S
C566 H556 0.950 . S
C566 C567 1.386 . S
C566 C568 1.391 . S
C567 C566 1.386 . S
C567 C571 1.393 . S
C568 H557 0.950 . S
C568 C566 1.391 . S
C568 C569 1.400 . S
C569 C563 1.491 . S
C569 C568 1.400 . S
C569 C570 1.398 . S
C570 H558 0.950 . S
C570 C569 1.398 . S
C570 C571 1.391 . S
C571 H559 0.950 . S
C571 C567 1.393 . S
C571 C570 1.391 . S
H572 C580 0.950 . S
H573 C585 0.950 . S
H574 C582 0.950 . S
H575 C584 0.950 . S
H576 C586 0.950 . S
H577 C588 0.950 . S
H578 C590 0.950 . S
H579 C591 0.950 . S
C580 H572 0.950 . S
C580 C581 1.386 . S
C580 C582 1.391 . S
C581 C580 1.386 . S
C581 C585 1.393 . S
C582 H574 0.950 . S
C582 C580 1.391 . S
C582 C583 1.400 . S
C583 C582 1.400 . S
C583 C584 1.398 . S
C583 C589 1.491 . S
C584 H575 0.950 . S
C584 C583 1.398 . S
C584 C585 1.391 . S
C585 H573 0.950 . S
C585 C581 1.393 . S
C585 C584 1.391 . S
C586 H576 0.950 . S
C586 C587 1.386 . S
C586 C588 1.391 . S
C587 C586 1.386 . S
C587 C591 1.393 . S
C588 H577 0.950 . S
C588 C586 1.391 . S
C588 C589 1.400 . S
C589 C583 1.491 . S
C589 C588 1.400 . S
C589 C590 1.398 . S
C590 H578 0.950 . S
C590 C589 1.398 . S
C590 C591 1.391 . S
C591 H579 0.950 . S
C591 C587 1.393 . S
C591 C590 1.391 . S
H592 C600 0.950 . S
H593 C605 0.950 . S
H594 C602 0.950 . S
H595 C604 0.950 . S
H596 C606 0.950 . S
H597 C608 0.950 . S
H598 C610 0.950 . S
H599 C611 0.950 . S
C600 H592 0.950 . S
C600 C601 1.386 . S
C600 C602 1.391 . S
C601 C600 1.386 . S
C601 C605 1.393 . S
C602 H594 0.950 . S
C602 C600 1.391 . S
C602 C603 1.400 . S
C603 C602 1.400 . S
C603 C604 1.398 . S
C603 C609 1.491 . S
C604 H595 0.950 . S
C604 C603 1.398 . S
C604 C605 1.391 . S
C605 H593 0.950 . S
C605 C601 1.393 . S
C605 C604 1.391 . S
C606 H596 0.950 . S
C606 C607 1.386 . S
C606 C608 1.391 . S
C607 C606 1.386 . S
C607 C611 1.393 . S
C608 H597 0.950 . S
C608 C606 1.391 . S
C608 C609 1.400 . S
C609 C603 1.491 . S
C609 C608 1.400 . S
C609 C610 1.398 . S
C610 H598 0.950 . S
C610 C609 1.398 . S
C610 C611 1.391 . S
C611 H599 0.950 . S
C611 C607 1.393 . S
C611 C610 1.391 . S
H612 C620 0.950 . S
H613 C625 0.950 . S
H614 C622 0.950 . S
H615 C624 0.950 . S
H616 C626 0.950 . S
H617 C628 0.950 . S
H618 C630 0.950 . S
H619 C631 0.950 . S
C620 H612 0.950 . S
C620 C621 1.386 . S
C620 C622 1.391 . S
C621 C620 1.386 . S
C621 C625 1.393 . S
C622 H614 0.950 . S
C622 C620 1.391 . S
C622 C623 1.400 . S
C623 C622 1.400 . S
C623 C624 1.398 . S
C623 C629 1.491 . S
C624 H615 0.950 . S
C624 C623 1.398 . S
C624 C625 1.391 . S
C625 H613 0.950 . S
C625 C621 1.393 . S
C625 C624 1.391 . S
C626 H616 0.950 . S
C626 C627 1.386 . S
C626 C628 1.391 . S
C627 C626 1.386 . S
C627 C631 1.393 . S
C628 H617 0.950 . S
C628 C626 1.391 . S
C628 C629 1.400 . S
C629 C623 1.491 . S
C629 C628 1.400 . S
C629 C630 1.398 . S
C630 H618 0.950 . S
C630 C629 1.398 . S
C630 C631 1.391 . S
C631 H619 0.950 . S
C631 C627 1.393 . S
C631 C630 1.391 . S
H632 C640 0.950 . S
H633 C645 0.950 . S
H634 C642 0.950 . S
H635 C644 0.950 . S
H636 C646 0.950 . S
H637 C648 0.950 . S
H638 C650 0.950 . S
H639 C651 0.950 . S
C640 H632 0.950 . S
C640 C641 1.386 . S
C640 C642 1.391 . S
C641 C640 1.386 . S
C641 C645 1.393 . S
C642 H634 0.950 . S
C642 C640 1.391 . S
C642 C643 1.400 . S
C643 C642 1.400 . S
C643 C644 1.398 . S
C643 C649 1.491 . S
C644 H635 0.950 . S
C644 C643 1.398 . S
C644 C645 1.391 . S
C645 H633 0.950 . S
C645 C641 1.393 . S
C645 C644 1.391 . S
C646 H636 0.950 . S
C646 C647 1.386 . S
C646 C648 1.391 . S
C647 C646 1.386 . S
C647 C651 1.393 . S
C648 H637 0.950 . S
C648 C646 1.391 . S
C648 C649 1.400 . S
C649 C643 1.491 . S
C649 C648 1.400 . S
C649 C650 1.398 . S
C650 H638 0.950 . S
C650 C649 1.398 . S
C650 C651 1.391 . S
C651 H639 0.950 . S
C651 C647 1.393 . S
C651 C650 1.391 . S
H652 C660 0.950 . S
H653 C665 0.950 . S
H654 C662 0.950 . S
H655 C664 0.950 . S
H656 C666 0.950 . S
H657 C668 0.950 . S
H658 C670 0.950 . S
H659 C671 0.950 . S
C660 H652 0.950 . S
C660 C661 1.386 . S
C660 C662 1.391 . S
C661 C660 1.386 . S
C661 C665 1.393 . S
C662 H654 0.950 . S
C662 C660 1.391 . S
C662 C663 1.400 . S
C663 C662 1.400 . S
C663 C664 1.398 . S
C663 C669 1.491 . S
C664 H655 0.950 . S
C664 C663 1.398 . S
C664 C665 1.391 . S
C665 H653 0.950 . S
C665 C661 1.393 . S
C665 C664 1.391 . S
C666 H656 0.950 . S
C666 C667 1.386 . S
C666 C668 1.391 . S
C667 C666 1.386 . S
C667 C671 1.393 . S
C668 H657 0.950 . S
C668 C666 1.391 . S
C668 C669 1.400 . S
C669 C663 1.491 . S
C669 C668 1.400 . S
C669 C670 1.398 . S
C670 H658 0.950 . S
C670 C669 1.398 . S
C670 C671 1.391 . S
C671 H659 0.950 . S
C671 C667 1.393 . S
C671 C670 1.391 . S
H672 C680 0.950 . S
H673 C685 0.950 . S
H674 C682 0.950 . S
H675 C684 0.950 . S
H676 C686 0.950 . S
H677 C688 0.950 . S
H678 C690 0.950 . S
H679 C691 0.950 . S
C680 H672 0.950 . S
C680 C681 1.386 . S
C680 C682 1.391 . S
C681 C680 1.386 . S
C681 C685 1.393 . S
C682 H674 0.950 . S
C682 C680 1.391 . S
C682 C683 1.400 . S
C683 C682 1.400 . S
C683 C684 1.398 . S
C683 C689 1.491 . S
C684 H675 0.950 . S
C684 C683 1.398 . S
C684 C685 1.391 . S
C685 H673 0.950 . S
C685 C681 1.393 . S
C685 C684 1.391 . S
C686 H676 0.950 . S
C686 C687 1.386 1_556 S
C686 C688 1.391 . S
C687 C686 1.386 1_554 S
C687 C691 1.393 . S
C688 H677 0.950 . S
C688 C686 1.391 . S
C688 C689 1.400 . S
C689 C683 1.491 . S
C689 C688 1.400 . S
C689 C690 1.398 1_556 S
C690 H678 0.950 . S
C690 C689 1.398 1_554 S
C690 C691 1.391 . S
C691 H679 0.950 . S
C691 C687 1.393 . S
C691 C690 1.391 . S
H692 C700 0.950 . S
H693 C705 0.950 . S
H694 C702 0.950 . S
H695 C704 0.950 . S
H696 C706 0.950 . S
H697 C708 0.950 . S
H698 C710 0.950 . S
H699 C711 0.950 . S
C700 H692 0.950 . S
C700 C701 1.386 . S
C700 C702 1.391 . S
C701 C700 1.386 . S
C701 C705 1.393 . S
C702 H694 0.950 . S
C702 C700 1.391 . S
C702 C703 1.400 . S
C703 C702 1.400 . S
C703 C704 1.398 . S
C703 C709 1.491 . S
C704 H695 0.950 . S
C704 C703 1.398 . S
C704 C705 1.391 . S
C705 H693 0.950 . S
C705 C701 1.393 . S
C705 C704 1.391 . S
C706 H696 0.950 . S
C706 C707 1.386 . S
C706 C708 1.391 . S
C707 C706 1.386 . S
C707 C711 1.393 . S
C708 H697 0.950 . S
C708 C706 1.391 . S
C708 C709 1.400 . S
C709 C703 1.491 . S
C709 C708 1.400 . S
C709 C710 1.398 . S
C710 H698 0.950 . S
C710 C709 1.398 . S
C710 C711 1.391 . S
C711 H699 0.950 . S
C711 C707 1.393 . S
C711 C710 1.391 . S
H712 C720 0.950 . S
H713 C725 0.950 . S
H714 C722 0.950 . S
H715 C724 0.950 . S
H716 C726 0.950 . S
H717 C728 0.950 . S
H718 C730 0.950 . S
H719 C731 0.950 . S
C720 H712 0.950 . S
C720 C721 1.386 . S
C720 C722 1.391 . S
C721 C720 1.386 . S
C721 C725 1.393 . S
C722 H714 0.950 . S
C722 C720 1.391 . S
C722 C723 1.400 . S
C723 C722 1.400 . S
C723 C724 1.398 . S
C723 C729 1.491 . S
C724 H715 0.950 . S
C724 C723 1.398 . S
C724 C725 1.391 . S
C725 H713 0.950 . S
C725 C721 1.393 . S
C725 C724 1.391 . S
C726 H716 0.950 . S
C726 C727 1.386 . S
C726 C728 1.391 . S
C727 C726 1.386 . S
C727 C731 1.393 . S
C728 H717 0.950 . S
C728 C726 1.391 . S
C728 C729 1.400 . S
C729 C723 1.491 . S
C729 C728 1.400 . S
C729 C730 1.398 . S
C730 H718 0.950 . S
C730 C729 1.398 . S
C730 C731 1.391 . S
C731 H719 0.950 . S
C731 C727 1.393 . S
C731 C730 1.391 . S
H732 C740 0.950 . S
H733 C745 0.950 . S
H734 C742 0.950 . S
H735 C744 0.950 . S
H736 C746 0.950 . S
H737 C748 0.950 . S
H738 C750 0.950 . S
H739 C751 0.950 . S
C740 H732 0.950 . S
C740 C741 1.386 . S
C740 C742 1.391 . S
C741 C740 1.386 . S
C741 C745 1.393 . S
C742 H734 0.950 . S
C742 C740 1.391 . S
C742 C743 1.400 . S
C743 C742 1.400 . S
C743 C744 1.398 . S
C743 C749 1.491 . S
C744 H735 0.950 . S
C744 C743 1.398 . S
C744 C745 1.391 . S
C745 H733 0.950 . S
C745 C741 1.393 . S
C745 C744 1.391 . S
C746 H736 0.950 . S
C746 C747 1.386 . S
C746 C748 1.391 . S
C747 C746 1.386 . S
C747 C751 1.393 . S
C748 H737 0.950 . S
C748 C746 1.391 . S
C748 C749 1.400 . S
C749 C743 1.491 . S
C749 C748 1.400 . S
C749 C750 1.398 . S
C750 H738 0.950 . S
C750 C749 1.398 . S
C750 C751 1.391 . S
C751 H739 0.950 . S
C751 C747 1.393 . S
C751 C750 1.391 . S
H752 C760 0.950 . S
H753 C765 0.950 . S
H754 C762 0.950 . S
H755 C764 0.950 . S
H756 C766 0.950 . S
H757 C768 0.950 . S
H758 C770 0.950 . S
H759 C771 0.950 . S
C760 H752 0.950 . S
C760 C761 1.386 . S
C760 C762 1.391 . S
C761 C760 1.386 . S
C761 C765 1.393 . S
C762 H754 0.950 . S
C762 C760 1.391 . S
C762 C763 1.400 . S
C763 C762 1.400 . S
C763 C764 1.398 . S
C763 C769 1.491 . S
C764 H755 0.950 . S
C764 C763 1.398 . S
C764 C765 1.391 . S
C765 H753 0.950 . S
C765 C761 1.393 . S
C765 C764 1.391 . S
C766 H756 0.950 . S
C766 C767 1.386 . S
C766 C768 1.391 . S
C767 C766 1.386 . S
C767 C771 1.393 . S
C768 H757 0.950 . S
C768 C766 1.391 . S
C768 C769 1.400 . S
C769 C763 1.491 . S
C769 C768 1.400 . S
C769 C770 1.398 . S
C770 H758 0.950 . S
C770 C769 1.398 . S
C770 C771 1.391 . S
C771 H759 0.950 . S
C771 C767 1.393 . S
C771 C770 1.391 . S
H772 C780 0.950 . S
H773 C785 0.950 . S
H774 C782 0.950 . S
H775 C784 0.950 . S
H776 C786 0.950 . S
H777 C788 0.950 . S
H778 C790 0.950 . S
H779 C791 0.950 . S
C780 H772 0.950 . S
C780 C781 1.386 . S
C780 C782 1.391 . S
C781 C780 1.386 . S
C781 C785 1.393 . S
C782 H774 0.950 . S
C782 C780 1.391 . S
C782 C783 1.400 . S
C783 C782 1.400 . S
C783 C784 1.398 . S
C783 C789 1.491 . S
C784 H775 0.950 . S
C784 C783 1.398 . S
C784 C785 1.391 . S
C785 H773 0.950 . S
C785 C781 1.393 . S
C785 C784 1.391 . S
C786 H776 0.950 . S
C786 C787 1.386 . S
C786 C788 1.391 . S
C787 C786 1.386 . S
C787 C791 1.393 . S
C788 H777 0.950 . S
C788 C786 1.391 . S
C788 C789 1.400 . S
C789 C783 1.491 . S
C789 C788 1.400 . S
C789 C790 1.398 . S
C790 H778 0.950 . S
C790 C789 1.398 . S
C790 C791 1.391 . S
C791 H779 0.950 . S
C791 C787 1.393 . S
C791 C790 1.391 . S
H792 C800 0.950 . S
H793 C805 0.950 . S
H794 C802 0.950 . S
H795 C804 0.950 . S
H796 C806 0.950 . S
H797 C808 0.950 . S
H798 C810 0.950 . S
H799 C811 0.950 . S
C800 H792 0.950 . S
C800 C801 1.386 . S
C800 C802 1.391 . S
C801 C800 1.386 . S
C801 C805 1.393 . S
C802 H794 0.950 . S
C802 C800 1.391 . S
C802 C803 1.400 . S
C803 C802 1.400 . S
C803 C804 1.398 . S
C803 C809 1.491 . S
C804 H795 0.950 . S
C804 C803 1.398 . S
C804 C805 1.391 . S
C805 H793 0.950 . S
C805 C801 1.393 . S
C805 C804 1.391 . S
C806 H796 0.950 . S
C806 C807 1.386 . S
C806 C808 1.391 . S
C807 C806 1.386 . S
C807 C811 1.393 . S
C808 H797 0.950 . S
C808 C806 1.391 . S
C808 C809 1.400 . S
C809 C803 1.491 . S
C809 C808 1.400 . S
C809 C810 1.398 . S
C810 H798 0.950 . S
C810 C809 1.398 . S
C810 C811 1.391 . S
C811 H799 0.950 . S
C811 C807 1.393 . S
C811 C810 1.391 . S
H812 C820 0.950 . S
H813 C825 0.950 . S
H814 C822 0.950 . S
H815 C824 0.950 . S
H816 C826 0.950 . S
H817 C828 0.950 . S
H818 C830 0.950 . S
H819 C831 0.950 . S
C820 H812 0.950 . S
C820 C821 1.386 . S
C820 C822 1.391 . S
C821 C820 1.386 . S
C821 C825 1.393 . S
C822 H814 0.950 . S
C822 C820 1.391 . S
C822 C823 1.400 . S
C823 C822 1.400 . S
C823 C824 1.398 . S
C823 C829 1.491 . S
C824 H815 0.950 . S
C824 C823 1.398 . S
C824 C825 1.391 . S
C825 H813 0.950 . S
C825 C821 1.393 . S
C825 C824 1.391 . S
C826 H816 0.950 . S
C826 C827 1.386 . S
C826 C828 1.391 1_556 S
C827 C826 1.386 . S
C827 C831 1.393 . S
C828 H817 0.950 . S
C828 C826 1.391 1_554 S
C828 C829 1.400 . S
C829 C823 1.491 . S
C829 C828 1.400 . S
C829 C830 1.398 1_554 S
C830 H818 0.950 . S
C830 C829 1.398 1_556 S
C830 C831 1.391 . S
C831 H819 0.950 . S
C831 C827 1.393 . S
C831 C830 1.391 . S
H832 C840 0.950 . S
H833 C845 0.950 . S
H834 C842 0.950 . S
H835 C844 0.950 . S
H836 C846 0.950 . S
H837 C848 0.950 . S
H838 C850 0.950 . S
H839 C851 0.950 . S
C840 H832 0.950 . S
C840 C841 1.386 . S
C840 C842 1.391 . S
C841 C840 1.386 . S
C841 C845 1.393 . S
C842 H834 0.950 . S
C842 C840 1.391 . S
C842 C843 1.400 . S
C843 C842 1.400 . S
C843 C844 1.398 . S
C843 C849 1.491 . S
C844 H835 0.950 . S
C844 C843 1.398 . S
C844 C845 1.391 . S
C845 H833 0.950 . S
C845 C841 1.393 . S
C845 C844 1.391 . S
C846 H836 0.950 . S
C846 C847 1.386 . S
C846 C848 1.391 . S
C847 C846 1.386 . S
C847 C851 1.393 . S
C848 H837 0.950 . S
C848 C846 1.391 . S
C848 C849 1.400 . S
C849 C843 1.491 . S
C849 C848 1.400 . S
C849 C850 1.398 . S
C850 H838 0.950 . S
C850 C849 1.398 . S
C850 C851 1.391 . S
C851 H839 0.950 . S
C851 C847 1.393 . S
C851 C850 1.391 . S
C387 C361 1.612 . S
C381 C45 1.618 . S
C401 C84 1.606 . S
C407 C291 1.610 . S
C421 C126 1.590 . S
C427 C310 1.634 . S
C441 C189 1.621 . S
C447 C319 1.617 . S
C467 C333 1.615 . S
C461 C228 1.615 . S
C481 C270 1.610 . S
C487 C352 1.639 . S
C501 C69 1.583 . S
C507 C305 1.593 . S
C521 C141 1.616 . S
C527 C324 1.611 . S
C541 C174 1.577 . S
C547 C338 1.608 . S
C567 C347 1.595 . S
C561 C213 1.584 . S
C587 C366 1.615 . S
C581 C285 1.615 . S
C607 C296 1.612 . S
C601 C30 1.588 . S
C621 C36 1.502 . S
C627 C311 1.486 . S
C641 C93 1.501 . S
C647 C323 1.478 . S
C667 C337 1.479 . S
C661 C117 1.506 . S
C681 C180 1.504 . S
C687 C353 1.485 . S
C707 C365 1.483 . S
C701 C237 1.501 . S
C727 C295 1.475 . S
C721 C261 1.501 . S
C747 C367 1.503 . S
C741 C78 1.506 . S
C761 C132 1.520 . S
C767 C297 1.505 . S
C787 C309 1.496 . S
C781 C165 1.508 . S
C801 C222 1.506 . S
C807 C325 1.504 . S
C821 C276 1.517 . S
C827 C339 1.503 . S
C841 C21 1.513 . S
C847 C351 1.484 . S
