# Generated by pormake.
# Topology anh, (6,3)-cn, num edge types: 1
# Building blocks:
#     Node 0, Type 0, BuildingBlock: BETFEN_clean_sbu_0, # of connection points: 6
#     Node 1, Type 0, BuildingBlock: BETFEN_clean_sbu_0, # of connection points: 6
#     Node 2, Type 0, BuildingBlock: BETFEN_clean_sbu_0, # of connection points: 6
#     Node 3, Type 1, BuildingBlock: MIDCAF_clean_linker_0, # of connection points: 3
#     Node 4, Type 1, BuildingBlock: MIDCAF_clean_linker_0, # of connection points: 3
#     Node 5, Type 1, BuildingBlock: MIDCAF_clean_linker_0, # of connection points: 3
#     Node 6, Type 1, BuildingBlock: MIDCAF_clean_linker_0, # of connection points: 3
#     Node 7, Type 1, BuildingBlock: MIDCAF_clean_linker_0, # of connection points: 3
#     Node 8, Type 1, BuildingBlock: MIDCAF_clean_linker_0, # of connection points: 3
#     Edge 9, Type (0, 1), BuildingBlock: ZUJKAS_clean_linker_0, # of connection points: 2
#     Edge 10, Type (0, 1), BuildingBlock: ZUJKAS_clean_linker_0, # of connection points: 2
#     Edge 11, Type (0, 1), BuildingBlock: ZUJKAS_clean_linker_0, # of connection points: 2
#     Edge 12, Type (0, 1), BuildingBlock: ZUJKAS_clean_linker_0, # of connection points: 2
#     Edge 13, Type (0, 1), BuildingBlock: ZUJKAS_clean_linker_0, # of connection points: 2
#     Edge 14, Type (0, 1), BuildingBlock: ZUJKAS_clean_linker_0, # of connection points: 2
#     Edge 15, Type (0, 1), BuildingBlock: ZUJKAS_clean_linker_0, # of connection points: 2
#     Edge 16, Type (0, 1), BuildingBlock: ZUJKAS_clean_linker_0, # of connection points: 2
#     Edge 17, Type (0, 1), BuildingBlock: ZUJKAS_clean_linker_0, # of connection points: 2
#     Edge 18, Type (0, 1), BuildingBlock: ZUJKAS_clean_linker_0, # of connection points: 2
#     Edge 19, Type (0, 1), BuildingBlock: ZUJKAS_clean_linker_0, # of connection points: 2
#     Edge 20, Type (0, 1), BuildingBlock: ZUJKAS_clean_linker_0, # of connection points: 2
#     Edge 21, Type (0, 1), BuildingBlock: ZUJKAS_clean_linker_0, # of connection points: 2
#     Edge 22, Type (0, 1), BuildingBlock: ZUJKAS_clean_linker_0, # of connection points: 2
#     Edge 23, Type (0, 1), BuildingBlock: ZUJKAS_clean_linker_0, # of connection points: 2
#     Edge 24, Type (0, 1), BuildingBlock: ZUJKAS_clean_linker_0, # of connection points: 2
#     Edge 25, Type (0, 1), BuildingBlock: ZUJKAS_clean_linker_0, # of connection points: 2
#     Edge 26, Type (0, 1), BuildingBlock: ZUJKAS_clean_linker_0, # of connection points: 2
# Relax obj value: 0.165
# Max RMSD: 0.198
# Mean RMSD: 0.150
data_MOF--net-anh--node1-BETFEN_clean_sbu_0--node2-MIDCAF_clean_linker_0--edge1-ZUJKAS_clean_linker_0
_symmetry_space_group_name_H-M    P1
_symmetry_Int_Tables_number       1
_symmetry_cell_setting            triclinic
loop_
_symmetry_equiv_pos_as_xyz
'x, y, z'
_cell_length_a     44.562989
_cell_length_b     46.855979
_cell_length_c     82.213441
_cell_angle_alpha  90.311916
_cell_angle_beta   92.171205
_cell_angle_gamma 110.01054
loop_
_atom_site_label
_atom_site_type_symbol
_atom_site_fract_x
_atom_site_fract_y
_atom_site_fract_z
_atom_type_partial_charge
Pr0 Pr 0.02108 0.52568 0.15494 0.0
Pr1 Pr 0.04435 0.59211 0.14743 0.0
C2 C 0.99232 0.46988 0.1669 0.0
C3 C 0.96036 0.44645 0.16786 0.0
C4 C 0.95633 0.41624 0.16375 0.0
C5 C 0.92664 0.39335 0.16507 0.0
C6 C 0.90038 0.4002 0.17063 0.0
C7 C 0.90435 0.43058 0.17455 0.0
C8 C 0.93403 0.45353 0.17312 0.0
C9 C 0.02882 0.53731 0.12186 0.0
C10 C 0.96744 0.5602 0.14797 0.0
C11 C 0.07435 0.6489 0.13699 0.0
C12 C 0.1047 0.67336 0.14119 0.0
C13 C 0.12247 0.672 0.15543 0.0
C14 C 0.15096 0.69562 0.15959 0.0
C15 C 0.16232 0.721 0.14954 0.0
C16 C 0.14452 0.72198 0.13515 0.0
C17 C 0.11595 0.69836 0.13104 0.0
C18 C 0.03807 0.58 0.18062 0.0
C19 C 0.09783 0.55658 0.15227 0.0
O20 O 0.99818 0.49498 0.17546 0.0
O21 O 1.00473 0.47433 0.15258 0.0
O22 O 1.0163 0.5509 0.13133 0.0
O23 O 0.03665 0.51628 0.12923 0.0
O24 O 0.99021 0.582 0.14103 0.0
O25 O 0.97399 0.53824 0.15572 0.0
O26 O 0.07653 0.62468 0.12991 0.0
O27 O 0.05305 0.64254 0.14816 0.0
O28 O 0.05022 0.56685 0.17077 0.0
O29 O 0.02981 0.60102 0.17359 0.0
O30 O 0.07563 0.53429 0.15924 0.0
O31 O 0.09088 0.57919 0.14549 0.0
H32 H 0.97631 0.41027 0.15971 0.0
H33 H 0.92448 0.37015 0.16214 0.0
H34 H 0.88447 0.43659 0.17871 0.0
H35 H 0.93641 0.47672 0.17625 0.0
H36 H 0.11413 0.65279 0.16341 0.0
H37 H 0.16373 0.69424 0.17086 0.0
H38 H 0.15276 0.7409 0.127 0.0
H39 H 0.10258 0.69967 0.11995 0.0
Pr40 Pr 0.56947 0.06089 0.52031 0.0
Pr41 Pr 0.49836 0.03844 0.5238 0.0
C42 C 0.62975 0.08903 0.51097 0.0
C43 C 0.65299 0.11992 0.50853 0.0
C44 C 0.67919 0.13214 0.51959 0.0
C45 C 0.70218 0.16061 0.51702 0.0
C46 C 0.69971 0.17748 0.50324 0.0
C47 C 0.67332 0.1653 0.49224 0.0
C48 C 0.65026 0.13689 0.49484 0.0
C49 C 0.55086 0.05119 0.55226 0.0
C50 C 0.53225 0.1136 0.52382 0.0
C51 C 0.43771 1.00873 0.532 0.0
C52 C 0.41387 0.97857 0.5282 0.0
C53 C 0.41716 0.96152 0.51473 0.0
C54 C 0.39415 0.93313 0.51095 0.0
C55 C 0.36746 0.92108 0.52064 0.0
C56 C 0.36464 0.93814 0.5343 0.0
C57 C 0.38762 0.96663 0.53802 0.0
C58 C 0.51629 0.0464 0.49162 0.0
C59 C 0.53619 0.9857 0.52197 0.0
O60 O 0.60502 0.07908 0.50073 0.0
O61 O 0.62287 0.08081 0.52596 0.0
O62 O 0.53894 0.06409 0.54171 0.0
O63 O 0.57408 0.04368 0.54665 0.0
O64 O 0.50686 0.09098 0.52844 0.0
O65 O 0.5575 0.10745 0.51879 0.0
O66 O 0.46258 1.00919 0.54112 0.0
O67 O 0.44511 0.02746 0.51987 0.0
O68 O 0.52878 0.03438 0.50238 0.0
O69 O 0.49293 0.05361 0.49718 0.0
O70 O 0.56237 1.00819 0.51809 0.0
O71 O 0.51007 0.99184 0.52546 0.0
H72 H 0.68208 0.11954 0.53019 0.0
H73 H 0.72191 0.16939 0.52588 0.0
H74 H 0.67084 0.17737 0.48136 0.0
H75 H 0.63056 0.12808 0.48597 0.0
H76 H 0.4374 0.97032 0.50704 0.0
H77 H 0.39698 0.92093 0.50023 0.0
H78 H 0.34476 0.92941 0.5422 0.0
H79 H 0.38485 0.97937 0.54855 0.0
Pr80 Pr 0.52024 0.51726 0.81767 0.0
Pr81 Pr 0.54466 0.58771 0.83076 0.0
C82 C 0.51469 0.46425 0.80322 0.0
C83 C 0.53073 0.44276 0.80779 0.0
C84 C 0.55298 0.4499 0.82104 0.0
C85 C 0.56644 0.42872 0.82657 0.0
C86 C 0.55783 0.40002 0.81893 0.0
C87 C 0.53625 0.3933 0.80531 0.0
C88 C 0.52272 0.41456 0.79979 0.0
C89 C 0.52197 0.52632 0.85119 0.0
C90 C 0.59984 0.5566 0.82501 0.0
C91 C 0.55107 0.63486 0.85082 0.0
C92 C 0.53086 0.65348 0.8526 0.0
C93 C 0.50582 0.65027 0.84111 0.0
C94 C 0.48384 0.66485 0.8436 0.0
C95 C 0.48649 0.68291 0.85765 0.0
C96 C 0.51196 0.68647 0.86904 0.0
C97 C 0.53392 0.67167 0.86656 0.0
C98 C 0.53495 0.58364 0.7966 0.0
C99 C 0.46667 0.5498 0.82154 0.0
O100 O 0.53335 0.49038 0.79794 0.0
O101 O 0.49444 0.46694 0.81374 0.0
O102 O 0.54239 0.54199 0.84163 0.0
O103 O 0.50071 0.50342 0.84363 0.0
O104 O 0.59412 0.58063 0.83079 0.0
O105 O 0.57671 0.53185 0.8193 0.0
O106 O 0.5373 0.60655 0.85491 0.0
O107 O 0.56638 0.63783 0.83724 0.0
O108 O 0.53013 0.56285 0.80669 0.0
O109 O 0.54603 0.60964 0.80441 0.0
O110 O 0.47391 0.52944 0.81274 0.0
O111 O 0.48841 0.57046 0.83086 0.0
H112 H 0.5593 0.4716 0.8274 0.0
H113 H 0.58316 0.4346 0.83699 0.0
H114 H 0.52885 0.37119 0.79931 0.0
H115 H 0.50544 0.40869 0.78961 0.0
H116 H 0.5029 0.63595 0.83035 0.0
H117 H 0.46485 0.66211 0.83446 0.0
H118 H 0.5145 0.70016 0.88001 0.0
H119 H 0.55283 0.67389 0.87568 0.0
C120 C 0.44684 0.95719 0.23045 0.0
C121 C 0.44048 0.9605 0.21384 0.0
C122 C 0.45954 0.98666 0.20599 0.0
C123 C 0.48443 1.00901 0.21459 0.0
H124 H 0.5692 0.08449 0.20897 0.0
H125 H 0.61046 0.12568 0.19605 0.0
H126 H 0.64871 0.16431 0.24341 0.0
H127 H 0.60826 0.12324 0.2563 0.0
H128 H 0.58439 0.08961 0.28757 0.0
H129 H 0.58686 0.08748 0.31713 0.0
H130 H 0.50468 1.00492 0.31524 0.0
H131 H 0.50243 1.00663 0.28564 0.0
H132 H 0.47541 0.97616 0.25187 0.0
H133 H 0.43234 0.93751 0.23691 0.0
H134 H 0.45536 0.98975 0.19316 0.0
H135 H 0.49861 0.0289 0.20819 0.0
N136 N 0.53793 0.05306 0.23305 0.0
N137 N 0.56275 0.07298 0.25832 0.0
N138 N 0.51826 0.02828 0.25719 0.0
C139 C 0.56132 0.07484 0.24184 0.0
C140 C 0.54138 0.04984 0.26611 0.0
C141 C 0.51629 0.02966 0.24069 0.0
C142 C 0.58543 0.1003 0.23371 0.0
C143 C 0.58638 0.10179 0.21663 0.0
C144 C 0.60995 0.12549 0.20921 0.0
C145 C 0.63309 0.14816 0.2187 0.0
C146 C 0.6317 0.14691 0.23573 0.0
C147 C 0.60827 0.12334 0.24313 0.0
C148 C 0.54316 0.04832 0.28415 0.0
C149 C 0.56685 0.07091 0.2934 0.0
C150 C 0.56821 0.0698 0.31039 0.0
C151 C 0.54595 0.04607 0.31856 0.0
C152 C 0.52244 1.02332 0.30932 0.0
C153 C 0.52105 0.02443 0.29233 0.0
C154 C 0.49056 1.00579 0.23127 0.0
C155 C 0.47146 0.97954 0.23906 0.0
C156 C 0.56337 0.45654 0.53902 0.0
C157 C 0.53625 0.43352 0.53203 0.0
C158 C 0.51007 0.44276 0.52719 0.0
C159 C 0.51069 0.47311 0.52972 0.0
H160 H 0.57093 0.61637 0.52269 0.0
H161 H 0.57161 0.66815 0.51697 0.0
H162 H 0.48812 0.65196 0.54539 0.0
H163 H 0.4872 0.6008 0.55051 0.0
H164 H 0.5321 0.59701 0.5892 0.0
H165 H 0.53113 0.59841 0.61867 0.0
H166 H 0.53281 0.50685 0.6203 0.0
H167 H 0.5345 0.50557 0.59068 0.0
H168 H 0.58452 0.50267 0.54802 0.0
H169 H 0.58401 0.45107 0.54326 0.0
H170 H 0.48864 0.42636 0.52165 0.0
H171 H 0.4894 0.47845 0.52662 0.0
N172 N 0.53341 0.54963 0.53599 0.0
N173 N 0.53158 0.5744 0.56082 0.0
N174 N 0.53564 0.52598 0.56117 0.0
C175 C 0.5316 0.57488 0.54432 0.0
C176 C 0.53367 0.55046 0.56935 0.0
C177 C 0.53538 0.52479 0.54463 0.0
C178 C 0.52842 0.60345 0.53671 0.0
C179 C 0.552 0.62348 0.52716 0.0
C180 C 0.55271 0.65374 0.52418 0.0
C181 C 0.52996 0.66538 0.53067 0.0
C182 C 0.50594 0.64473 0.53976 0.0
C183 C 0.5053 0.61482 0.54271 0.0
C184 C 0.53334 0.55114 0.58745 0.0
C185 C 0.53229 0.57709 0.59576 0.0
C186 C 0.5315 0.57786 0.61273 0.0
C187 C 0.53167 0.55268 0.6219 0.0
C188 C 0.53295 0.52676 0.61364 0.0
C189 C 0.53377 0.52599 0.59662 0.0
C190 C 0.53753 0.49569 0.53718 0.0
C191 C 0.56382 0.48662 0.54167 0.0
C192 C 0.94112 0.58256 0.86288 0.0
C193 C 0.92456 0.56287 0.85004 0.0
C194 C 0.94 0.54509 0.8423 0.0
C195 C 0.97039 0.54564 0.84803 0.0
H196 H 0.08343 0.56495 0.83921 0.0
H197 H 0.13147 0.56027 0.82745 0.0
H198 H 0.15312 0.52269 0.87238 0.0
H199 H 0.10565 0.52698 0.88393 0.0
H200 H 0.08749 0.55303 0.91663 0.0
H201 H 0.08849 0.55469 0.94628 0.0
H202 H 0.99803 0.56968 0.94464 0.0
H203 H 0.99725 0.5687 0.91507 0.0
H204 H 0.98242 0.59751 0.879 0.0
H205 H 0.93053 0.59728 0.86882 0.0
H206 H 0.92798 0.52968 0.83236 0.0
H207 H 0.98098 0.53057 0.84244 0.0
N208 N 0.03811 0.55503 0.86206 0.0
N209 N 0.06465 0.55365 0.88722 0.0
N210 N 1.01625 0.56258 0.88665 0.0
C211 C 0.06357 0.5517 0.87067 0.0
C212 C 0.04115 0.55907 0.89531 0.0
C213 C 1.01433 0.56057 0.87014 0.0
C214 C 0.09064 0.54647 0.86255 0.0
C215 C 0.09824 0.55529 0.84645 0.0
C216 C 0.12591 0.55283 0.83977 0.0
C217 C 0.14623 0.54106 0.84895 0.0
C218 C 0.13794 0.53147 0.86484 0.0
C219 C 0.11069 0.53418 0.87152 0.0
C220 C 0.04227 0.56068 0.91339 0.0
C221 C 0.06785 0.55681 0.92256 0.0
C222 C 0.06836 0.5576 0.93959 0.0
C223 C 0.04332 0.56228 0.94786 0.0
C224 C 0.01793 0.56645 0.93868 0.0
C225 C 0.01741 0.56567 0.92168 0.0
C226 C 0.9857 0.56384 0.86163 0.0
C227 C 0.97108 0.58289 0.86864 0.0
C228 C 0.13318 0.63877 0.44283 0.0
C229 C 0.1299 0.64418 0.45938 0.0
C230 C 0.10338 0.62465 0.46727 0.0
C231 C 0.08057 0.60033 0.45875 0.0
H232 H 1.01077 0.51042 0.46371 0.0
H233 H 0.97006 0.46838 0.47647 0.0
H234 H 0.91823 0.44367 0.43014 0.0
H235 H 0.95843 0.48546 0.41743 0.0
H236 H 0.99379 0.50881 0.38538 0.0
H237 H 0.9941 0.50948 0.35576 0.0
H238 H 0.07933 0.58925 0.35827 0.0
H239 H 0.07947 0.58838 0.38785 0.0
H240 H 0.11362 0.61157 0.42152 0.0
H241 H 0.15309 0.65359 0.43633 0.0
H242 H 0.10032 0.62812 0.48005 0.0
H243 H 0.06032 0.58585 0.46516 0.0
N244 N 0.03587 0.54826 0.44028 0.0
N245 N 1.01356 0.52636 0.4149 0.0
N246 N 0.05893 0.5703 0.41614 0.0
C247 C 1.01309 0.52602 0.43142 0.0
C248 C 0.03639 0.54836 0.40715 0.0
C249 C 0.0589 0.57054 0.43267 0.0
C250 C 0.988 0.50135 0.43952 0.0
C251 C 0.99058 0.49615 0.45627 0.0
C252 C 0.96737 0.47197 0.46357 0.0
C253 C 0.9409 0.45273 0.45432 0.0
C254 C 0.9381 0.45828 0.43765 0.0
C255 C 0.96136 0.48217 0.43034 0.0
C256 C 0.0366 0.54856 0.38908 0.0
C257 C 1.01268 0.52648 0.37965 0.0
C258 C 1.01273 0.52693 0.36264 0.0
C259 C 0.03673 0.54941 0.35463 0.0
C260 C 0.06073 0.57137 0.36404 0.0
C261 C 0.06067 0.57097 0.38104 0.0
C262 C 0.08362 0.59527 0.44211 0.0
C263 C 0.11033 0.61473 0.4343 0.0
C264 C 0.52702 0.11711 0.80401 0.0
C265 C 0.53362 0.11591 0.82082 0.0
C266 C 0.5199 0.08828 0.82879 0.0
C267 C 0.49947 0.06272 0.82021 0.0
H268 H 0.41918 0.98572 0.8265 0.0
H269 H 0.39492 0.94037 0.84223 0.0
H270 H 0.37581 0.88545 0.79812 0.0
H271 H 0.39946 0.93082 0.7823 0.0
H272 H 0.42719 0.96292 0.74847 0.0
H273 H 0.43176 0.9623 0.71892 0.0
H274 H 0.47744 0.05981 0.72008 0.0
H275 H 0.47284 0.06059 0.74943 0.0
H276 H 0.50206 0.0936 0.78256 0.0
H277 H 0.53638 0.13812 0.79749 0.0
H278 H 0.52467 0.08646 0.84168 0.0
H279 H 0.48905 0.04186 0.82673 0.0
N280 N 0.45124 1.01334 0.80239 0.0
N281 N 0.43064 0.98805 0.77753 0.0
N282 N 0.46917 0.03693 0.77785 0.0
C283 C 0.43118 0.98859 0.79409 0.0
C284 C 0.44946 1.01233 0.76933 0.0
C285 C 0.47033 0.03756 0.79436 0.0
C286 C 0.41192 0.96182 0.80317 0.0
C287 C 0.40933 0.96405 0.82009 0.0
C288 C 0.39537 0.93808 0.82913 0.0
C289 C 0.38384 0.90931 0.82146 0.0
C290 C 0.38423 0.90732 0.80439 0.0
C291 C 0.39806 0.93334 0.79533 0.0
C292 C 0.4498 1.01179 0.75133 0.0
C293 C 0.43787 0.98425 0.74239 0.0
C294 C 0.44063 0.98385 0.7255 0.0
C295 C 0.45496 1.011 0.71722 0.0
C296 C 0.46598 0.03856 0.7261 0.0
C297 C 0.46354 0.03895 0.74295 0.0
C298 C 0.49255 0.06421 0.80346 0.0
C299 C 0.50694 0.09157 0.79543 0.0
C300 C 0.64506 0.58108 0.11064 0.0
C301 C 0.64743 0.56672 0.12535 0.0
C302 C 0.61914 0.55193 0.13351 0.0
C303 C 0.5892 0.55101 0.12687 0.0
H304 H 0.49106 0.56841 0.13395 0.0
H305 H 0.44008 0.56547 0.1456 0.0
H306 H 0.39043 0.52749 0.10012 0.0
H307 H 0.44043 0.52997 0.08872 0.0
H308 H 0.48193 0.56339 0.05647 0.0
H309 H 0.48176 0.56255 0.02672 0.0
H310 H 0.57198 0.54726 0.02873 0.0
H311 H 0.5724 0.54822 0.05838 0.0
H312 H 0.61474 0.59069 0.09242 0.0
H313 H 0.66609 0.59231 0.10385 0.0
H314 H 0.62012 0.54079 0.14492 0.0
H315 H 0.56778 0.53878 0.13315 0.0
N316 N 0.52847 0.5568 0.11112 0.0
N317 N 0.50054 0.55305 0.08584 0.0
N318 N 0.55495 0.56001 0.08662 0.0
C319 C 0.50057 0.55317 0.10239 0.0
C320 C 0.52753 0.55637 0.07787 0.0
C321 C 0.55587 0.56035 0.10315 0.0
C322 C 0.47001 0.54955 0.11037 0.0
C323 C 0.46917 0.55909 0.12656 0.0
C324 C 0.43999 0.55761 0.13318 0.0
C325 C 0.41106 0.54615 0.12382 0.0
C326 C 0.41203 0.53601 0.10781 0.0
C327 C 0.44095 0.53771 0.1012 0.0
C328 C 0.52717 0.55587 0.05983 0.0
C329 C 0.50172 0.55982 0.05058 0.0
C330 C 0.50168 0.55952 0.03355 0.0
C331 C 0.52683 0.55479 0.02545 0.0
C332 C 0.55216 0.55069 0.03467 0.0
C333 C 0.55245 0.55142 0.05166 0.0
C334 C 0.58703 0.56444 0.11182 0.0
C335 C 0.61541 0.57992 0.104 0.0
H336 H 0.14921 0.59838 0.13854 0.0
H337 H 0.20289 0.59636 0.13599 0.0
H338 H 0.17583 0.51196 0.16167 0.0
H339 H 0.1219 0.51379 0.16438 0.0
H340 H 0.23794 0.55488 0.17154 0.0
H341 H 0.22264 0.5365 0.1045 0.0
H342 H 0.21417 0.56897 0.11192 0.0
H343 H 0.18933 0.53146 0.11736 0.0
C344 C 0.15458 0.57938 0.14372 0.0
C345 C 0.13101 0.5561 0.15157 0.0
C346 C 0.18534 0.57825 0.14219 0.0
C347 C 0.19329 0.5538 0.14843 0.0
C348 C 0.1702 0.53099 0.15671 0.0
H349 H 0.35267 0.50104 0.11991 0.0
H350 H 0.3006 0.50257 0.1272 0.0
C351 C 0.13934 0.53205 0.15822 0.0
C352 C 0.22541 0.55171 0.14589 0.0
H353 H 0.27443 0.54519 0.11618 0.0
C354 C 0.24594 0.55272 0.15945 0.0
C355 C 0.23571 0.54855 0.13012 0.0
C356 C 0.21427 0.54603 0.11512 0.0
C357 C 0.27667 0.55114 0.15762 0.0
C358 C 0.28722 0.5487 0.14181 0.0
C359 C 0.26647 0.54727 0.1283 0.0
C360 C 0.31938 0.54696 0.13889 0.0
C361 C 0.29738 0.55158 0.17262 0.0
C362 C 0.34749 0.57125 0.14323 0.0
C363 C 0.37746 0.5705 0.139 0.0
C364 C 0.37988 0.54554 0.13023 0.0
C365 C 0.35172 0.52084 0.12643 0.0
C366 C 0.32188 0.52162 0.13065 0.0
H367 H 0.28322 0.54623 0.18374 0.0
H368 H 0.31006 0.53505 0.17132 0.0
H369 H 0.31562 0.57457 0.17433 0.0
H370 H 0.34619 0.59129 0.14935 0.0
H371 H 0.39855 0.59006 0.14195 0.0
H372 H 0.76463 0.19332 0.50837 0.0
H373 H 0.80602 0.24165 0.5027 0.0
H374 H 0.73384 0.27677 0.48443 0.0
H375 H 0.69216 0.22903 0.49078 0.0
H376 H 0.8208 0.26819 0.47369 0.0
H377 H 0.78662 0.34536 0.51452 0.0
H378 H 0.77046 0.30456 0.51608 0.0
H379 H 0.7544 0.32356 0.50092 0.0
C380 C 0.75743 0.21151 0.50348 0.0
C381 C 0.72495 0.20723 0.50013 0.0
C382 C 0.7812 0.23909 0.50012 0.0
C383 C 0.77307 0.26306 0.49337 0.0
C384 C 0.74071 0.25889 0.48998 0.0
H385 H 0.87582 0.43437 0.45005 0.0
H386 H 0.83606 0.38868 0.4605 0.0
C387 C 0.7169 0.23137 0.4934 0.0
C388 C 0.79853 0.29177 0.48909 0.0
H389 H 0.8244 0.36894 0.49452 0.0
C390 C 0.82177 0.29018 0.47838 0.0
C391 C 0.79982 0.32049 0.49522 0.0
C392 C 0.77668 0.32365 0.50745 0.0
C393 C 0.84567 0.31653 0.4733 0.0
C394 C 0.84656 0.34522 0.47919 0.0
C395 C 0.82359 0.34687 0.49001 0.0
C396 C 0.87065 0.37379 0.4738 0.0
C397 C 0.86931 0.31358 0.46131 0.0
C398 C 0.9032 0.38086 0.47812 0.0
C399 C 0.92598 0.40698 0.47219 0.0
C400 C 0.91659 0.4264 0.46177 0.0
C401 C 0.88384 0.41965 0.45787 0.0
C402 C 0.86109 0.39366 0.46389 0.0
H403 H 0.86187 0.29045 0.45569 0.0
H404 H 0.87226 0.33039 0.45149 0.0
H405 H 0.89294 0.31827 0.46769 0.0
H406 H 0.911 0.36593 0.4859 0.0
H407 H 0.95101 0.41144 0.47534 0.0
H408 H 0.4215 0.66 0.8526 0.0
H409 H 0.3845 0.6885 0.85226 0.0
H410 H 0.46192 0.7697 0.86753 0.0
H411 H 0.49903 0.74153 0.86782 0.0
H412 H 0.39899 0.76124 0.88161 0.0
H413 H 0.39589 0.74876 0.81393 0.0
H414 H 0.38503 0.71489 0.82581 0.0
H415 H 0.4256 0.74053 0.8267 0.0
C416 C 0.43052 0.68386 0.85607 0.0
C417 C 0.46325 0.69871 0.85997 0.0
C418 C 0.40934 0.7 0.85597 0.0
C419 C 0.42063 0.73119 0.8597 0.0
C420 C 0.45279 0.74557 0.86468 0.0
H421 H 0.4168 0.90045 0.84827 0.0
H422 H 0.41301 0.85245 0.86039 0.0
C423 C 0.47397 0.72946 0.86483 0.0
C424 C 0.40053 0.74997 0.8563 0.0
H425 H 0.37609 0.78438 0.82465 0.0
C426 C 0.39322 0.76586 0.86919 0.0
C427 C 0.39267 0.75558 0.84009 0.0
C428 C 0.40023 0.73923 0.82577 0.0
C429 C 0.38015 0.78876 0.8662 0.0
C430 C 0.37519 0.79638 0.84993 0.0
C431 C 0.37991 0.77861 0.83713 0.0
C432 C 0.3714 0.8257 0.84567 0.0
C433 C 0.37295 0.80528 0.8805 0.0
C434 C 0.34897 0.82697 0.83347 0.0
C435 C 0.35138 0.85463 0.82629 0.0
C436 C 0.37624 0.88141 0.83124 0.0
C437 C 0.39703 0.88037 0.84434 0.0
C438 C 0.39475 0.8528 0.85139 0.0
H439 H 0.3643 0.78953 0.89072 0.0
H440 H 0.39523 0.82338 0.88495 0.0
H441 H 0.35472 0.81576 0.8772 0.0
H442 H 0.33086 0.80631 0.82879 0.0
H443 H 0.33485 0.85481 0.81632 0.0
H444 H 0.91294 0.51569 0.15748 0.0
H445 H 0.85784 0.51529 0.15501 0.0
H446 H 0.891 0.60414 0.1339 0.0
H447 H 0.94592 0.60443 0.13595 0.0
H448 H 0.8287 0.5522 0.16784 0.0
H449 H 0.82283 0.55798 0.10061 0.0
H450 H 0.85487 0.55017 0.11161 0.0
H451 H 0.8555 0.58863 0.10969 0.0
C452 C 0.90852 0.53512 0.15225 0.0
C453 C 0.93393 0.55998 0.14676 0.0
C454 C 0.87696 0.53487 0.15087 0.0
C455 C 0.87007 0.55942 0.14397 0.0
C456 C 0.89549 0.58455 0.13886 0.0
H457 H 0.70524 0.61301 0.12551 0.0
H458 H 0.75825 0.61002 0.13128 0.0
C459 C 0.92699 0.58474 0.14012 0.0
C460 C 0.83644 0.55898 0.14223 0.0
H461 H 0.78096 0.56727 0.11451 0.0
C462 C 0.81817 0.55523 0.15616 0.0
C463 C 0.82249 0.5627 0.12697 0.0
C464 C 0.83981 0.56478 0.11135 0.0
C465 C 0.78686 0.55615 0.1553 0.0
C466 C 0.77339 0.56078 0.14012 0.0
C467 C 0.79141 0.56399 0.12618 0.0
C468 C 0.74088 0.56299 0.13834 0.0
C469 C 0.7687 0.55302 0.17068 0.0
C470 C 0.71334 0.53766 0.14066 0.0
C471 C 0.68282 0.53921 0.13724 0.0
C472 C 0.67929 0.56612 0.13137 0.0
C473 C 0.70699 0.59177 0.12976 0.0
C474 C 0.73737 0.59016 0.1331 0.0
H475 H 0.78439 0.55509 0.18177 0.0
H476 H 0.75714 0.57055 0.17133 0.0
H477 H 0.74956 0.5304 0.17062 0.0
H478 H 0.71546 0.51633 0.1445 0.0
H479 H 0.66212 0.51892 0.13844 0.0
H480 H 0.30242 0.90465 0.52283 0.0
H481 H 0.26149 0.85605 0.51514 0.0
H482 H 0.33451 0.82174 0.49996 0.0
H483 H 0.37569 0.86966 0.5084 0.0
H484 H 0.24702 0.82942 0.48551 0.0
H485 H 0.28226 0.75278 0.52716 0.0
H486 H 0.29813 0.79359 0.52963 0.0
H487 H 0.31441 0.77473 0.51503 0.0
C488 C 0.30989 0.88658 0.5182 0.0
C489 C 0.34248 0.89116 0.51632 0.0
C490 C 0.28639 0.85884 0.51368 0.0
C491 C 0.29488 0.83502 0.5072 0.0
C492 C 0.32734 0.83949 0.50528 0.0
H493 H 0.19508 0.6635 0.4582 0.0
H494 H 0.23404 0.70949 0.47073 0.0
C495 C 0.35088 0.86714 0.50989 0.0
C496 C 0.26971 0.80614 0.50164 0.0
H497 H 0.24501 0.72895 0.50527 0.0
C498 C 0.24639 0.80749 0.48997 0.0
C499 C 0.26886 0.77748 0.50745 0.0
C500 C 0.29206 0.77451 0.52063 0.0
C501 C 0.22285 0.781 0.48365 0.0
C502 C 0.22242 0.75238 0.48923 0.0
C503 C 0.24546 0.75095 0.501 0.0
C504 C 0.19879 0.72366 0.48254 0.0
C505 C 0.19912 0.78372 0.47069 0.0
C506 C 0.16612 0.71608 0.48534 0.0
C507 C 0.14378 0.68979 0.47821 0.0
C508 C 0.15374 0.67069 0.4681 0.0
C509 C 0.18661 0.67796 0.46574 0.0
C510 C 0.20891 0.70411 0.47295 0.0
H511 H 0.20628 0.80689 0.46558 0.0
H512 H 0.19647 0.76706 0.4606 0.0
H513 H 0.17541 0.77869 0.47604 0.0
H514 H 0.15787 0.73073 0.49285 0.0
H515 H 0.11864 0.68494 0.48019 0.0
H516 H 0.57981 0.36074 0.80257 0.0
H517 H 0.59066 0.31671 0.81364 0.0
H518 H 0.57268 0.34169 0.8619 0.0
H519 H 0.56134 0.38558 0.85092 0.0
H520 H 0.63295 0.30773 0.84321 0.0
H521 H 0.50038 0.25785 0.84736 0.0
H522 H 0.51835 0.28999 0.83466 0.0
H523 H 0.52163 0.29468 0.85639 0.0
C524 C 0.57866 0.35711 0.81557 0.0
C525 C 0.56935 0.37634 0.82585 0.0
C526 C 0.58522 0.33221 0.82189 0.0
C527 C 0.58242 0.32609 0.83855 0.0
C528 C 0.57511 0.34625 0.84902 0.0
H529 H 0.52327 0.1338 0.85134 0.0
H530 H 0.5446 0.18496 0.86308 0.0
C531 C 0.56866 0.37126 0.84271 0.0
C532 C 0.58195 0.29617 0.84421 0.0
H533 H 0.52906 0.2248 0.8485 0.0
C534 C 0.61039 0.28959 0.8448 0.0
C535 C 0.55255 0.27282 0.8466 0.0
C536 C 0.52137 0.27892 0.84622 0.0
C537 C 0.60985 0.25963 0.84657 0.0
C538 C 0.58004 0.23576 0.84711 0.0
C539 C 0.55199 0.24292 0.84803 0.0
C540 C 0.57622 0.20359 0.84348 0.0
C541 C 0.64114 0.25386 0.84728 0.0
C542 C 0.58849 0.19643 0.82914 0.0
C543 C 0.57697 0.16697 0.82263 0.0
C544 C 0.55218 0.14426 0.83003 0.0
C545 C 0.54228 0.15067 0.84525 0.0
C546 C 0.55439 0.18006 0.85197 0.0
H547 H 0.65961 0.27222 0.85442 0.0
H548 H 0.63882 0.23171 0.85284 0.0
H549 H 0.64976 0.25413 0.83477 0.0
H550 H 0.60484 0.21404 0.82211 0.0
H551 H 0.58584 0.16258 0.81113 0.0
H552 H 0.58597 0.96331 0.51771 0.0
H553 H 0.58524 0.91066 0.51858 0.0
H554 H 0.48513 0.87992 0.52846 0.0
H555 H 0.48568 0.93237 0.52746 0.0
H556 H 0.57353 0.86762 0.5417 0.0
H557 H 0.48162 0.82093 0.49239 0.0
H558 H 0.49995 0.86123 0.49627 0.0
H559 H 0.46794 0.83876 0.50847 0.0
C560 C 0.56364 0.94544 0.51999 0.0
C561 C 0.53585 0.95282 0.5224 0.0
C562 C 0.56326 0.91497 0.52053 0.0
C563 C 0.53499 0.8903 0.5233 0.0
C564 C 0.50728 0.89773 0.52586 0.0
H565 H 0.48048 0.68971 0.53037 0.0
H566 H 0.48302 0.74242 0.52901 0.0
C567 C 0.50768 0.92818 0.52541 0.0
C568 C 0.53469 0.85731 0.52381 0.0
H569 H 0.49644 0.785 0.50797 0.0
C570 C 0.55671 0.84971 0.5342 0.0
C571 C 0.5129 0.83309 0.5142 0.0
C572 C 0.48946 0.83886 0.50208 0.0
C573 C 0.55699 0.81942 0.53558 0.0
C574 C 0.53521 0.79516 0.52594 0.0
C575 C 0.5133 0.80284 0.51548 0.0
C576 C 0.53418 0.76189 0.52671 0.0
C577 C 0.58003 0.81371 0.54795 0.0
C578 C 0.56183 0.75367 0.52559 0.0
C579 C 0.56053 0.72294 0.52661 0.0
C580 C 0.53145 0.69868 0.52865 0.0
C581 C 0.50371 0.70698 0.52925 0.0
C582 C 0.50506 0.73765 0.52829 0.0
H583 H 0.58732 0.83155 0.55771 0.0
H584 H 0.56947 0.79129 0.5537 0.0
H585 H 0.60195 0.81414 0.54184 0.0
H586 H 0.58473 0.77105 0.52381 0.0
H587 H 0.58271 0.71841 0.52608 0.0
H588 H 0.62166 0.51199 0.81417 0.0
H589 H 0.67625 0.51127 0.81602 0.0
H590 H 0.70862 0.59993 0.83922 0.0
H591 H 0.65418 0.60117 0.83717 0.0
H592 H 0.74952 0.59461 0.81591 0.0
H593 H 0.72109 0.49677 0.85747 0.0
H594 H 0.69754 0.4893 0.83871 0.0
H595 H 0.69366 0.51675 0.85309 0.0
C596 C 0.64034 0.53144 0.81964 0.0
C597 C 0.63332 0.5566 0.82561 0.0
C598 C 0.67159 0.53088 0.82077 0.0
C599 C 0.69654 0.55531 0.82801 0.0
C600 C 0.68978 0.58074 0.83364 0.0
H601 H 0.87749 0.5617 0.87064 0.0
H602 H 0.82301 0.55932 0.86387 0.0
C603 C 0.65855 0.58138 0.83248 0.0
C604 C 0.7296 0.55434 0.82993 0.0
H605 H 0.77364 0.51534 0.84814 0.0
C606 C 0.7548 0.57721 0.82291 0.0
C607 C 0.73656 0.53178 0.83918 0.0
C608 C 0.71088 0.5074 0.84768 0.0
C609 C 0.7867 0.57829 0.82497 0.0
C610 C 0.79361 0.55559 0.83411 0.0
C611 C 0.76836 0.53257 0.841 0.0
C612 C 0.82701 0.55662 0.83782 0.0
C613 C 0.81282 0.60433 0.81783 0.0
C614 C 0.84755 0.55546 0.82544 0.0
C615 C 0.87912 0.55714 0.82928 0.0
C616 C 0.89076 0.55998 0.84559 0.0
C617 C 0.86974 0.5603 0.85792 0.0
C618 C 0.83838 0.55866 0.85408 0.0
H619 H 0.80436 0.62325 0.8143 0.0
H620 H 0.83356 0.61329 0.82662 0.0
H621 H 0.82116 0.59619 0.80676 0.0
H622 H 0.83918 0.55326 0.8128 0.0
H623 H 0.89455 0.55674 0.81948 0.0
H624 H 0.17462 0.78218 0.14627 0.0
H625 H 0.22339 0.82396 0.1545 0.0
H626 H 0.26593 0.75966 0.17246 0.0
H627 H 0.2179 0.71772 0.16359 0.0
H628 H 0.25002 0.83912 0.18485 0.0
H629 H 0.33661 0.81375 0.14574 0.0
H630 H 0.29394 0.79597 0.14245 0.0
H631 H 0.31509 0.78209 0.15779 0.0
C632 C 0.19458 0.77685 0.15166 0.0
C633 C 0.1923 0.7465 0.1542 0.0
C634 C 0.22237 0.8008 0.15647 0.0
C635 C 0.24854 0.79497 0.16387 0.0
C636 C 0.24636 0.76474 0.16644 0.0
H637 H 0.42444 0.89879 0.21523 0.0
H638 H 0.37799 0.85985 0.20217 0.0
C639 C 0.21865 0.74077 0.16157 0.0
C640 C 0.27742 0.8205 0.16968 0.0
H641 H 0.35873 0.84957 0.16762 0.0
C642 C 0.27375 0.8416 0.18094 0.0
C643 C 0.30839 0.82374 0.16457 0.0
C644 C 0.31378 0.80286 0.15185 0.0
C645 C 0.30025 0.86527 0.18759 0.0
C646 C 0.33123 0.86808 0.18274 0.0
C647 C 0.33492 0.84729 0.17133 0.0
C648 C 0.36014 0.89185 0.18986 0.0
C649 C 0.29506 0.88655 0.20014 0.0
C650 C 0.36582 0.92272 0.18699 0.0
C651 C 0.39235 0.94505 0.19445 0.0
C652 C 0.41361 0.93686 0.20494 0.0
C653 C 0.40826 0.90584 0.20741 0.0
C654 C 0.38186 0.88357 0.19989 0.0
H655 H 0.27054 0.87789 0.20479 0.0
H656 H 0.31259 0.89012 0.21058 0.0
H657 H 0.29864 0.90894 0.19458 0.0
H658 H 0.34951 0.92954 0.17913 0.0
H659 H 0.3957 0.96873 0.19237 0.0
H660 H 0.48359 0.13571 0.53126 0.0
H661 H 0.48421 0.18829 0.53199 0.0
H662 H 0.58293 0.21991 0.51929 0.0
H663 H 0.58205 0.16739 0.51803 0.0
H664 H 0.51198 0.23723 0.54915 0.0
H665 H 0.55505 0.26884 0.48751 0.0
H666 H 0.54347 0.23022 0.49429 0.0
H667 H 0.58274 0.25689 0.49959 0.0
C668 C 0.50548 0.15374 0.52848 0.0
C669 C 0.53267 0.14652 0.52443 0.0
C670 C 0.50585 0.18422 0.52894 0.0
C671 C 0.53339 0.2091 0.52533 0.0
C672 C 0.56077 0.20187 0.5216 0.0
H673 H 0.58561 0.41087 0.52637 0.0
H674 H 0.5843 0.35822 0.52505 0.0
C675 C 0.56035 0.17139 0.52103 0.0
C676 C 0.53355 0.24214 0.52588 0.0
H677 H 0.55498 0.30949 0.50498 0.0
C678 C 0.52123 0.25275 0.53935 0.0
C679 C 0.54548 0.26342 0.51328 0.0
C680 C 0.55712 0.25422 0.49779 0.0
C681 C 0.52117 0.28314 0.54073 0.0
C682 C 0.53334 0.30443 0.5282 0.0
C683 C 0.54566 0.29387 0.51474 0.0
C684 C 0.53375 0.33747 0.52888 0.0
C685 C 0.50883 0.29237 0.55599 0.0
C686 C 0.50582 0.34468 0.53118 0.0
C687 C 0.50648 0.37524 0.53193 0.0
C688 C 0.53514 0.40027 0.53045 0.0
C689 C 0.56296 0.39292 0.52787 0.0
C690 C 0.56223 0.36236 0.527 0.0
H691 H 0.50919 0.27706 0.56622 0.0
H692 H 0.52317 0.31603 0.55982 0.0
H693 H 0.48371 0.29105 0.55362 0.0
H694 H 0.48316 0.32656 0.53231 0.0
H695 H 0.48436 0.37916 0.53402 0.0
H696 H 0.4442 0.59019 0.83663 0.0
H697 H 0.38895 0.58769 0.83869 0.0
H698 H 0.35692 0.5056 0.80923 0.0
H699 H 0.41252 0.50802 0.80693 0.0
H700 H 0.32507 0.54807 0.80127 0.0
H701 H 0.32568 0.52575 0.86748 0.0
H702 H 0.35746 0.55906 0.86158 0.0
H703 H 0.35609 0.52223 0.85452 0.0
C704 C 0.42555 0.57159 0.83049 0.0
C705 C 0.43297 0.5491 0.82173 0.0
C706 C 0.39386 0.57017 0.83175 0.0
C707 C 0.36869 0.54617 0.82436 0.0
C708 C 0.37595 0.52426 0.81511 0.0
H709 H 0.17104 0.49522 0.85208 0.0
H710 H 0.22374 0.49557 0.84467 0.0
C711 C 0.40777 0.52565 0.81382 0.0
C712 C 0.33487 0.54362 0.82679 0.0
H713 H 0.28081 0.53619 0.85628 0.0
C714 C 0.31532 0.54535 0.81328 0.0
C715 C 0.322 0.53972 0.84244 0.0
C716 C 0.34125 0.53629 0.85733 0.0
C717 C 0.28349 0.54393 0.81507 0.0
C718 C 0.27096 0.54097 0.8308 0.0
C719 C 0.29039 0.53867 0.84423 0.0
C720 C 0.23772 0.53985 0.83374 0.0
C721 C 0.26341 0.54518 0.80009 0.0
C722 C 0.22767 0.56447 0.82989 0.0
C723 C 0.19742 0.56436 0.83416 0.0
C724 C 0.17668 0.53974 0.84251 0.0
C725 C 0.18649 0.51474 0.84586 0.0
C726 C 0.21663 0.51486 0.84158 0.0
H727 H 0.27343 0.53947 0.78885 0.0
H728 H 0.23849 0.52933 0.80099 0.0
H729 H 0.26274 0.56854 0.79891 0.0
H730 H 0.24368 0.58429 0.82413 0.0
H731 H 0.19087 0.58415 0.83158 0.0
H732 H 0.86928 0.35228 0.14995 0.0
H733 H 0.82015 0.30973 0.15459 0.0
H734 H 0.81297 0.3492 0.20117 0.0
H735 H 0.86177 0.3919 0.19651 0.0
H736 H 0.81024 0.26877 0.17798 0.0
H737 H 0.72271 0.32792 0.18294 0.0
H738 H 0.7618 0.34603 0.17502 0.0
H739 H 0.7567 0.34397 0.19666 0.0
C740 C 0.85706 0.35199 0.16112 0.0
C741 C 0.86936 0.37548 0.17285 0.0
C742 C 0.82894 0.32772 0.16373 0.0
C743 C 0.81255 0.32646 0.17811 0.0
C744 C 0.82463 0.35005 0.18977 0.0
H745 H 0.69617 0.17159 0.22852 0.0
H746 H 0.7382 0.21383 0.21699 0.0
C747 C 0.85262 0.37443 0.18712 0.0
C748 C 0.78425 0.29941 0.1815 0.0
H749 H 0.70747 0.27764 0.19389 0.0
C750 C 0.78764 0.2707 0.18125 0.0
C751 C 0.75455 0.30176 0.1855 0.0
C752 C 0.74857 0.33155 0.18488 0.0
C753 C 0.76268 0.24452 0.18559 0.0
C754 C 0.73376 0.2472 0.19068 0.0
C755 C 0.7298 0.27566 0.1902 0.0
C756 C 0.70806 0.22109 0.19734 0.0
C757 C 0.7676 0.21426 0.18474 0.0
C758 C 0.67686 0.2115 0.19036 0.0
C759 C 0.65254 0.18751 0.19709 0.0
C760 C 0.65895 0.17288 0.21102 0.0
C761 C 0.69028 0.18254 0.21791 0.0
C762 C 0.71448 0.20646 0.2112 0.0
H763 H 0.78591 0.21451 0.17588 0.0
H764 H 0.77614 0.20923 0.19688 0.0
H765 H 0.74499 0.19565 0.18121 0.0
H766 H 0.67133 0.22265 0.17973 0.0
H767 H 0.62861 0.18087 0.1916 0.0
H768 H 1.01097 0.57827 0.10386 0.0
H769 H 1.01301 0.58447 0.07421 0.0
H770 H 0.05339 0.51329 0.07042 0.0
H771 H 0.05123 0.50685 0.09989 0.0
H772 H 0.06693 0.59791 0.05391 0.0
H773 H 0.97502 0.48587 0.03828 0.0
H774 H 0.98015 0.50287 0.05842 0.0
H775 H 1.00675 0.48402 0.0519 0.0
C776 C 0.02022 0.56394 0.09667 0.0
C777 C 0.03066 0.54188 0.10412 0.0
C778 C 0.02141 0.56753 0.07978 0.0
C779 C 0.03285 0.54898 0.07012 0.0
C780 C 0.04389 0.52741 0.07762 0.0
H781 H 0.06052 0.52429 0.96847 0.0
H782 H 0.05889 0.5231 0.99816 0.0
C783 C 0.04276 0.52385 0.09446 0.0
C784 C 0.03351 0.55214 0.0522 0.0
H785 H 1.00514 0.51287 0.01653 0.0
C786 C 0.05325 0.57945 0.0457 0.0
C787 C 1.01561 0.52799 0.04156 0.0
C788 C 0.99294 0.49861 0.04785 0.0
C789 C 0.05635 0.58291 0.02881 0.0
C790 C 0.03881 0.55856 0.01818 0.0
C791 C 0.0187 0.53144 0.0247 0.0
C792 C 0.04115 0.56049 0.00025 0.0
C793 C 0.07911 0.61221 0.02251 0.0
C794 C 0.03165 0.58189 0.99157 0.0
C795 C 0.03279 0.58279 0.97459 0.0
C796 C 0.04325 0.56216 0.96596 0.0
C797 C 0.05282 0.54081 0.97473 0.0
C798 C 0.05169 0.53995 0.9917 0.0
H799 H 0.09644 0.62542 0.0322 0.0
H800 H 0.09259 0.60778 0.01229 0.0
H801 H 0.06528 0.62644 0.01795 0.0
H802 H 0.02291 0.59761 0.99789 0.0
H803 H 0.02548 0.59967 0.96824 0.0
H804 H 0.48725 0.06657 0.46683 0.0
H805 H 0.496 0.06492 0.43772 0.0
H806 H 0.5688 0.02526 0.44773 0.0
H807 H 0.56029 0.02702 0.47702 0.0
H808 H 0.58542 0.07297 0.42456 0.0
H809 H 0.46677 0.98597 0.40972 0.0
H810 H 0.46495 1.01819 0.42103 0.0
H811 H 0.48377 0.99355 0.43024 0.0
C812 C 0.50516 0.05754 0.46285 0.0
C813 C 0.52288 0.04665 0.47415 0.0
C814 C 0.51003 0.05649 0.44621 0.0
C815 C 0.53262 0.04446 0.44057 0.0
C816 C 0.55108 0.03441 0.45186 0.0
H817 H 0.5372 0.99681 0.33805 0.0
H818 H 0.53665 0.99555 0.3678 0.0
C819 C 0.54618 0.0354 0.46854 0.0
C820 C 0.53671 0.04234 0.42286 0.0
H821 H 0.49608 1.01168 0.38733 0.0
C822 C 0.56602 0.05939 0.41641 0.0
C823 C 0.5115 1.02423 0.41231 0.0
C824 C 0.48006 1.0042 0.41866 0.0
C825 C 0.57039 0.05967 0.39957 0.0
C826 C 0.54462 0.04276 0.38894 0.0
C827 C 0.51571 0.02486 0.39547 0.0
C828 C 0.54673 0.04386 0.37099 0.0
C829 C 0.60257 0.07799 0.39331 0.0
C830 C 0.55236 0.07139 0.36291 0.0
C831 C 0.55254 0.07216 0.34592 0.0
C832 C 0.54685 0.04535 0.33665 0.0
C833 C 0.54133 1.0178 0.3448 0.0
C834 C 0.54119 1.01707 0.3618 0.0
H835 H 0.62185 0.08221 0.40293 0.0
H836 H 0.60857 0.06632 0.38277 0.0
H837 H 0.60198 0.10035 0.38925 0.0
H838 H 0.55587 0.09221 0.36972 0.0
H839 H 0.55629 0.09365 0.34003 0.0
H840 H 0.54993 0.62754 0.77369 0.0
H841 H 0.54746 0.62059 0.74404 0.0
H842 H 0.51277 0.52335 0.74954 0.0
H843 H 0.51455 0.53023 0.77917 0.0
H844 H 0.5796 0.59227 0.72564 0.0
H845 H 0.44862 0.53521 0.71605 0.0
H846 H 0.4666 0.55454 0.7349 0.0
H847 H 0.4668 0.51696 0.73056 0.0
C848 C 0.54153 0.60469 0.76855 0.0
C849 C 0.53244 0.57941 0.77871 0.0
C850 C 0.5402 0.60074 0.75163 0.0
C851 C 0.5296 0.57145 0.74454 0.0
C852 C 0.52045 0.54616 0.75469 0.0
H853 H 0.56459 0.53047 0.64454 0.0
H854 H 0.56368 0.5336 0.67424 0.0
C855 C 0.52171 0.55011 0.77162 0.0
C856 C 0.52915 0.56749 0.72656 0.0
H857 H 0.48027 0.5367 0.69325 0.0
C858 C 0.55787 0.58015 0.71855 0.0
C859 C 0.50073 0.55193 0.7173 0.0
C860 C 0.46887 0.53911 0.72509 0.0
C861 C 0.55901 0.57752 0.70157 0.0
C862 C 0.53076 0.5613 0.69235 0.0
C863 C 0.50198 0.54884 0.70035 0.0
C864 C 0.53033 0.55803 0.67434 0.0
C865 C 0.59033 0.59278 0.69362 0.0
C866 C 0.51106 0.56977 0.66451 0.0
C867 C 0.5112 0.56767 0.64755 0.0
C868 C 0.53058 0.55369 0.64 0.0
C869 C 0.54928 0.54127 0.64991 0.0
C870 C 0.54908 0.54335 0.6669 0.0
H871 H 0.60745 0.61045 0.70172 0.0
H872 H 0.6014 0.57552 0.69077 0.0
H873 H 0.5866 0.6035 0.68206 0.0
H874 H 0.4962 0.58097 0.66998 0.0
H875 H 0.49603 0.57697 0.64033 0.0
H876 H 0.56998 1.01912 0.57548 0.0
H877 H 0.55023 1.00804 0.60296 0.0
H878 H 0.48665 0.05855 0.59404 0.0
H879 H 0.5057 0.069 0.56643 0.0
H880 H 0.55313 0.04711 0.6277 0.0
H881 H 0.42638 0.98049 0.61161 0.0
H882 H 0.45708 0.98944 0.59685 0.0
H883 H 0.43951 1.01719 0.60251 0.0
C884 C 0.55169 0.02772 0.57938 0.0
C885 C 0.53932 0.04487 0.56886 0.0
C886 C 0.54041 1.02136 0.59505 0.0
C887 C 0.51656 0.032 0.60045 0.0
C888 C 0.50444 0.04943 0.58999 0.0
H889 H 0.4439 0.04858 0.69425 0.0
H890 H 0.45764 0.0515 0.66556 0.0
C891 C 0.51555 0.05562 0.57428 0.0
C892 C 0.50545 0.02605 0.61726 0.0
H893 H 0.43877 0.99684 0.63945 0.0
C894 C 0.52817 0.03585 0.63026 0.0
C895 C 0.47286 1.01128 0.62057 0.0
C896 C 0.44759 0.99872 0.60715 0.0
C897 C 0.51908 0.03194 0.64646 0.0
C898 C 0.48648 1.01784 0.64972 0.0
C899 C 0.46374 1.00773 0.63681 0.0
C900 C 0.4757 1.01418 0.66657 0.0
C901 C 0.54419 0.04343 0.66005 0.0
C902 C 0.48078 0.9918 0.67643 0.0
C903 C 0.4729 0.99001 0.69278 0.0
C904 C 0.46002 1.01073 0.69951 0.0
C905 C 0.45407 0.03251 0.68942 0.0
C906 C 0.46174 0.03413 0.67305 0.0
H907 H 0.56801 0.05658 0.65546 0.0
H908 H 0.53704 0.05807 0.66865 0.0
H909 H 0.54629 1.02387 0.66696 0.0
H910 H 0.49154 0.97622 0.67156 0.0
H911 H 0.47803 0.97319 0.70029 0.0
H912 H 0.47954 0.49438 0.87302 0.0
H913 H 0.48148 0.50296 0.90244 0.0
H914 H 0.56838 0.57986 0.8988 0.0
H915 H 0.5673 0.57046 0.86939 0.0
H916 H 0.57341 0.54566 0.92346 0.0
H917 H 0.45881 0.56608 0.92716 0.0
H918 H 0.45338 0.53019 0.91748 0.0
H919 H 0.47694 0.56482 0.90804 0.0
C920 C 0.499 0.51318 0.87849 0.0
C921 C 0.52307 0.53199 0.86891 0.0
C922 C 0.49991 0.51825 0.89529 0.0
C923 C 0.52462 0.54254 0.9028 0.0
C924 C 0.54889 0.56119 0.89325 0.0
H925 H 0.51513 0.59502 0.00434 0.0
H926 H 0.51637 0.59424 0.97456 0.0
C927 C 0.54818 0.55589 0.87645 0.0
C928 C 0.52586 0.54753 0.92071 0.0
H929 H 0.48128 0.55488 0.9523 0.0
C930 C 0.55339 0.548 0.92975 0.0
C931 C 0.50001 0.55119 0.92891 0.0
C932 C 0.47078 0.55339 0.91987 0.0
C933 C 0.55536 0.55096 0.94679 0.0
C934 C 0.52865 0.55254 0.95507 0.0
C935 C 0.50156 0.55317 0.94599 0.0
C936 C 0.52814 0.55314 0.97313 0.0
C937 C 0.58621 0.55273 0.95569 0.0
C938 C 0.5338 0.53006 0.98221 0.0
C939 C 0.53343 0.53067 -0.00081 0.0
C940 C 0.52673 0.55402 0.00741 0.0
C941 C 0.52024 0.57669 0.99831 0.0
C942 C 0.52103 0.5763 0.98131 0.0
H943 H 0.60687 0.56134 0.94772 0.0
H944 H 0.59088 0.56774 0.96668 0.0
H945 H 0.58471 0.52964 0.95954 0.0
H946 H 0.53828 0.51141 0.97617 0.0
H947 H 0.53797 0.51262 0.0059 0.0
H948 H 0.05827 0.53961 0.19775 0.0
H949 H 0.05734 0.53217 0.22726 0.0
H950 H 1.01384 0.60076 0.23277 0.0
H951 H 1.01509 0.60857 0.20336 0.0
H952 H 0.0653 0.60858 0.25434 0.0
H953 H 0.98053 0.48989 0.25487 0.0
H954 H 1.01409 0.49547 0.24229 0.0
H955 H 0.98525 0.51332 0.23713 0.0
C956 C 0.04838 0.55297 0.20527 0.0
C957 C 0.0368 0.5747 0.1983 0.0
C958 C 0.04768 0.54857 0.2221 0.0
C959 C 0.03517 0.56566 0.23218 0.0
C960 C 0.0235 0.58727 0.2252 0.0
H961 H 0.98534 0.53996 0.3333 0.0
H962 H 0.98544 0.54317 0.3036 0.0
C963 C 0.02422 0.5917 0.20841 0.0
C964 C 0.0353 0.56198 0.25009 0.0
H965 H 1.00637 0.511 0.28015 0.0
C966 C 0.05241 0.58725 0.25999 0.0
C967 C 0.01817 0.53422 0.25742 0.0
C968 C 0.99821 0.50672 0.24742 0.0
C969 C 0.05307 0.58548 0.27702 0.0
C970 C 0.0366 0.55753 0.28435 0.0
C971 C 0.01923 0.53231 0.27448 0.0
C972 C 0.03656 0.5543 0.30229 0.0
C973 C 0.07085 0.61374 0.28703 0.0
C974 C 0.0652 0.55892 0.31136 0.0
C975 C 0.06522 0.55704 0.32832 0.0
C976 C 0.03655 0.55029 0.33654 0.0
C977 C 1.00779 0.54493 0.32736 0.0
C978 C 1.00781 0.54687 0.31039 0.0
H979 H 0.07536 0.63466 0.27981 0.0
H980 H 0.05732 0.61552 0.29783 0.0
H981 H 0.0943 0.61267 0.29139 0.0
H982 H 0.08756 0.56404 0.30531 0.0
H983 H 0.08769 0.56071 0.335 0.0
loop_
_geom_bond_atom_site_label_1
_geom_bond_atom_site_label_2
_geom_bond_distance
_geom_bond_site_symmetry_2
_ccdc_geom_bond_type
Pr0 C2 2.880 . S
Pr0 O20 2.562 . S
Pr0 O21 2.490 . S
Pr0 O22 2.695 1_655 S
Pr0 O23 2.512 . S
Pr0 O25 2.437 . S
Pr0 O28 2.436 . S
Pr0 O30 2.438 1_655 S
Pr1 C11 2.880 . S
Pr1 O22 2.436 . S
Pr1 O24 2.438 1_455 S
Pr1 O26 2.562 . S
Pr1 O27 2.490 . S
Pr1 O28 2.695 1_455 S
Pr1 O29 2.512 . S
Pr1 O31 2.437 . S
C2 Pr0 2.880 . S
C2 C3 1.491 . S
C2 O20 1.254 . S
C2 O21 1.225 . S
C3 C2 1.491 . S
C3 C4 1.392 . S
C3 C8 1.356 . S
C4 C3 1.392 . S
C4 C5 1.368 . S
C4 H32 0.929 . S
C5 C4 1.368 . S
C5 C6 1.386 . S
C5 H33 0.929 . S
C6 C5 1.386 . S
C6 C7 1.373 . S
C7 C6 1.373 . S
C7 C8 1.409 . S
C7 H34 0.931 . S
C8 C3 1.356 . S
C8 C7 1.409 . S
C8 H35 0.930 . S
C9 O22 1.270 . S
C9 O23 1.248 1_455 S
C10 O24 1.267 . S
C10 O25 1.278 . S
C11 Pr1 2.880 . S
C11 C12 1.491 . S
C11 O26 1.254 . S
C11 O27 1.225 . S
C12 C11 1.491 . S
C12 C13 1.392 . S
C12 C17 1.356 . S
C13 C12 1.392 . S
C13 C14 1.368 . S
C13 H36 0.929 . S
C14 C13 1.368 . S
C14 C15 1.386 . S
C14 H37 0.929 . S
C15 C14 1.386 . S
C15 C16 1.373 . S
C16 C15 1.373 . S
C16 C17 1.409 . S
C16 H38 0.931 . S
C17 C12 1.356 . S
C17 C16 1.409 . S
C17 H39 0.930 . S
C18 O28 1.270 1_455 S
C18 O29 1.248 . S
C19 O30 1.267 . S
C19 O31 1.278 . S
O20 Pr0 2.562 . S
O20 C2 1.254 . S
O21 Pr0 2.490 . S
O21 C2 1.225 . S
O22 Pr0 2.695 1_455 S
O22 Pr1 2.436 . S
O22 C9 1.270 . S
O23 Pr0 2.512 . S
O23 C9 1.248 1_655 S
O24 Pr1 2.438 1_655 S
O24 C10 1.267 . S
O25 Pr0 2.437 . S
O25 C10 1.278 . S
O26 Pr1 2.562 . S
O26 C11 1.254 . S
O27 Pr1 2.490 . S
O27 C11 1.225 . S
O28 Pr0 2.436 . S
O28 Pr1 2.695 1_655 S
O28 C18 1.270 1_655 S
O29 Pr1 2.512 . S
O29 C18 1.248 . S
O30 Pr0 2.438 1_455 S
O30 C19 1.267 . S
O31 Pr1 2.437 . S
O31 C19 1.278 . S
H32 C4 0.929 . S
H33 C5 0.929 . S
H34 C7 0.931 . S
H35 C8 0.930 . S
H36 C13 0.929 . S
H37 C14 0.929 . S
H38 C16 0.931 . S
H39 C17 0.930 . S
Pr40 C42 2.880 . S
Pr40 O60 2.562 . S
Pr40 O61 2.490 . S
Pr40 O62 2.695 . S
Pr40 O63 2.512 . S
Pr40 O65 2.437 . S
Pr40 O68 2.436 . S
Pr40 O70 2.438 1_545 S
Pr41 C51 2.861 1_545 S
Pr41 O62 2.433 . S
Pr41 O64 2.463 . S
Pr41 O66 2.543 1_545 S
Pr41 O67 2.475 1_545 S
Pr41 O68 2.699 . S
Pr41 O69 2.512 . S
Pr41 O71 2.414 1_545 S
C42 Pr40 2.880 . S
C42 C43 1.491 . S
C42 O60 1.254 . S
C42 O61 1.225 . S
C43 C42 1.491 . S
C43 C44 1.392 . S
C43 C48 1.356 . S
C44 C43 1.392 . S
C44 C45 1.368 . S
C44 H72 0.929 . S
C45 C44 1.368 . S
C45 C46 1.386 . S
C45 H73 0.929 . S
C46 C45 1.386 . S
C46 C47 1.373 . S
C47 C46 1.373 . S
C47 C48 1.409 . S
C47 H74 0.931 . S
C48 C43 1.356 . S
C48 C47 1.409 . S
C48 H75 0.930 . S
C49 O62 1.270 . S
C49 O63 1.248 . S
C50 O64 1.267 . S
C50 O65 1.278 . S
C51 Pr41 2.861 1_565 S
C51 C52 1.491 . S
C51 O66 1.254 . S
C51 O67 1.225 . S
C52 C51 1.491 . S
C52 C53 1.392 . S
C52 C57 1.356 . S
C53 C52 1.392 . S
C53 C54 1.368 . S
C53 H76 0.929 . S
C54 C53 1.368 . S
C54 C55 1.386 . S
C54 H77 0.929 . S
C55 C54 1.386 . S
C55 C56 1.373 . S
C56 C55 1.373 . S
C56 C57 1.409 . S
C56 H78 0.931 . S
C57 C52 1.356 . S
C57 C56 1.409 . S
C57 H79 0.930 . S
C58 O68 1.270 . S
C58 O69 1.248 . S
C59 O70 1.267 . S
C59 O71 1.278 . S
O60 Pr40 2.562 . S
O60 C42 1.254 . S
O61 Pr40 2.490 . S
O61 C42 1.225 . S
O62 Pr40 2.695 . S
O62 Pr41 2.433 . S
O62 C49 1.270 . S
O63 Pr40 2.512 . S
O63 C49 1.248 . S
O64 Pr41 2.463 . S
O64 C50 1.267 . S
O65 Pr40 2.437 . S
O65 C50 1.278 . S
O66 Pr41 2.543 1_565 S
O66 C51 1.254 . S
O67 Pr41 2.475 1_565 S
O67 C51 1.225 . S
O68 Pr40 2.436 . S
O68 Pr41 2.699 . S
O68 C58 1.270 . S
O69 Pr41 2.512 . S
O69 C58 1.248 . S
O70 Pr40 2.438 1_565 S
O70 C59 1.267 . S
O71 Pr41 2.414 1_565 S
O71 C59 1.278 . S
H72 C44 0.929 . S
H73 C45 0.929 . S
H74 C47 0.931 . S
H75 C48 0.930 . S
H76 C53 0.929 . S
H77 C54 0.929 . S
H78 C56 0.931 . S
H79 C57 0.930 . S
Pr80 C82 2.880 . S
Pr80 O100 2.562 . S
Pr80 O101 2.490 . S
Pr80 O102 2.695 . S
Pr80 O103 2.512 . S
Pr80 O105 2.437 . S
Pr80 O108 2.436 . S
Pr80 O110 2.438 . S
Pr81 C91 2.880 . S
Pr81 O102 2.436 . S
Pr81 O104 2.438 . S
Pr81 O106 2.562 . S
Pr81 O107 2.490 . S
Pr81 O108 2.695 . S
Pr81 O109 2.512 . S
Pr81 O111 2.437 . S
C82 Pr80 2.880 . S
C82 C83 1.491 . S
C82 O100 1.254 . S
C82 O101 1.225 . S
C83 C82 1.491 . S
C83 C84 1.392 . S
C83 C88 1.356 . S
C84 C83 1.392 . S
C84 C85 1.368 . S
C84 H112 0.929 . S
C85 C84 1.368 . S
C85 C86 1.386 . S
C85 H113 0.929 . S
C86 C85 1.386 . S
C86 C87 1.373 . S
C87 C86 1.373 . S
C87 C88 1.409 . S
C87 H114 0.931 . S
C88 C83 1.356 . S
C88 C87 1.409 . S
C88 H115 0.930 . S
C89 O102 1.270 . S
C89 O103 1.248 . S
C90 O104 1.267 . S
C90 O105 1.278 . S
C91 Pr81 2.880 . S
C91 C92 1.491 . S
C91 O106 1.254 . S
C91 O107 1.225 . S
C92 C91 1.491 . S
C92 C93 1.392 . S
C92 C97 1.356 . S
C93 C92 1.392 . S
C93 C94 1.368 . S
C93 H116 0.929 . S
C94 C93 1.368 . S
C94 C95 1.386 . S
C94 H117 0.929 . S
C95 C94 1.386 . S
C95 C96 1.373 . S
C96 C95 1.373 . S
C96 C97 1.409 . S
C96 H118 0.931 . S
C97 C92 1.356 . S
C97 C96 1.409 . S
C97 H119 0.930 . S
C98 O108 1.270 . S
C98 O109 1.248 . S
C99 O110 1.267 . S
C99 O111 1.278 . S
O100 Pr80 2.562 . S
O100 C82 1.254 . S
O101 Pr80 2.490 . S
O101 C82 1.225 . S
O102 Pr80 2.695 . S
O102 Pr81 2.436 . S
O102 C89 1.270 . S
O103 Pr80 2.512 . S
O103 C89 1.248 . S
O104 Pr81 2.438 . S
O104 C90 1.267 . S
O105 Pr80 2.437 . S
O105 C90 1.278 . S
O106 Pr81 2.562 . S
O106 C91 1.254 . S
O107 Pr81 2.490 . S
O107 C91 1.225 . S
O108 Pr80 2.436 . S
O108 Pr81 2.695 . S
O108 C98 1.270 . S
O109 Pr81 2.512 . S
O109 C98 1.248 . S
O110 Pr80 2.438 . S
O110 C99 1.267 . S
O111 Pr81 2.437 . S
O111 C99 1.278 . S
H112 C84 0.929 . S
H113 C85 0.929 . S
H114 C87 0.931 . S
H115 C88 0.930 . S
H116 C93 0.929 . S
H117 C94 0.929 . S
H118 C96 0.931 . S
H119 C97 0.930 . S
C120 C121 1.384 . S
C120 H133 0.947 . S
C120 C155 1.382 . S
C121 C120 1.384 . S
C121 C122 1.378 . S
C122 C121 1.378 . S
C122 C123 1.378 . S
C122 H134 0.952 . S
C123 C122 1.378 . S
C123 H135 0.950 . S
C123 C154 1.383 . S
H124 C143 0.947 . S
H125 C144 0.946 . S
H126 C146 0.953 . S
H127 C147 0.945 . S
H128 C149 0.952 . S
H129 C150 0.949 . S
H130 C152 0.950 1_565 S
H131 C153 0.948 1_565 S
H132 C155 0.951 . S
H133 C120 0.947 . S
H134 C122 0.952 . S
H135 C123 0.950 . S
N136 C139 1.382 . S
N136 C141 1.363 . S
N137 C139 1.371 . S
N137 C140 1.372 . S
N138 C140 1.361 . S
N138 C141 1.377 . S
C139 N136 1.382 . S
C139 N137 1.371 . S
C139 C142 1.480 . S
C140 N137 1.372 . S
C140 N138 1.361 . S
C140 C148 1.457 . S
C141 N136 1.363 . S
C141 N138 1.377 . S
C141 C154 1.479 1_545 S
C142 C139 1.480 . S
C142 C143 1.383 . S
C142 C147 1.385 . S
C143 H124 0.947 . S
C143 C142 1.383 . S
C143 C144 1.388 . S
C144 H125 0.946 . S
C144 C143 1.388 . S
C144 C145 1.384 . S
C145 C144 1.384 . S
C145 C146 1.377 . S
C146 H126 0.953 . S
C146 C145 1.377 . S
C146 C147 1.369 . S
C147 H127 0.945 . S
C147 C142 1.385 . S
C147 C146 1.369 . S
C148 C140 1.457 . S
C148 C149 1.372 . S
C148 C153 1.364 . S
C149 H128 0.952 . S
C149 C148 1.372 . S
C149 C150 1.389 . S
C150 H129 0.949 . S
C150 C149 1.389 . S
C150 C151 1.387 . S
C151 C150 1.387 . S
C151 C152 1.372 . S
C152 H130 0.950 1_545 S
C152 C151 1.372 . S
C152 C153 1.379 . S
C153 H131 0.948 1_545 S
C153 C148 1.364 . S
C153 C152 1.379 . S
C154 C123 1.383 . S
C154 C141 1.479 1_565 S
C154 C155 1.398 . S
C155 C120 1.382 . S
C155 H132 0.951 . S
C155 C154 1.398 . S
C156 C157 1.384 . S
C156 H169 0.947 . S
C156 C191 1.382 . S
C157 C156 1.384 . S
C157 C158 1.378 . S
C158 C157 1.378 . S
C158 C159 1.378 . S
C158 H170 0.952 . S
C159 C158 1.378 . S
C159 H171 0.950 . S
C159 C190 1.383 . S
H160 C179 0.947 . S
H161 C180 0.946 . S
H162 C182 0.953 . S
H163 C183 0.945 . S
H164 C185 0.952 . S
H165 C186 0.949 . S
H166 C188 0.950 . S
H167 C189 0.948 . S
H168 C191 0.951 . S
H169 C156 0.947 . S
H170 C158 0.952 . S
H171 C159 0.950 . S
N172 C175 1.382 . S
N172 C177 1.363 . S
N173 C175 1.371 . S
N173 C176 1.372 . S
N174 C176 1.361 . S
N174 C177 1.377 . S
C175 N172 1.382 . S
C175 N173 1.371 . S
C175 C178 1.480 . S
C176 N173 1.372 . S
C176 N174 1.361 . S
C176 C184 1.457 . S
C177 N172 1.363 . S
C177 N174 1.377 . S
C177 C190 1.479 . S
C178 C175 1.480 . S
C178 C179 1.383 . S
C178 C183 1.385 . S
C179 H160 0.947 . S
C179 C178 1.383 . S
C179 C180 1.388 . S
C180 H161 0.946 . S
C180 C179 1.388 . S
C180 C181 1.384 . S
C181 C180 1.384 . S
C181 C182 1.377 . S
C182 H162 0.953 . S
C182 C181 1.377 . S
C182 C183 1.369 . S
C183 H163 0.945 . S
C183 C178 1.385 . S
C183 C182 1.369 . S
C184 C176 1.457 . S
C184 C185 1.372 . S
C184 C189 1.364 . S
C185 H164 0.952 . S
C185 C184 1.372 . S
C185 C186 1.389 . S
C186 H165 0.949 . S
C186 C185 1.389 . S
C186 C187 1.387 . S
C187 C186 1.387 . S
C187 C188 1.372 . S
C188 H166 0.950 . S
C188 C187 1.372 . S
C188 C189 1.379 . S
C189 H167 0.948 . S
C189 C184 1.364 . S
C189 C188 1.379 . S
C190 C159 1.383 . S
C190 C177 1.479 . S
C190 C191 1.398 . S
C191 C156 1.382 . S
C191 H168 0.951 . S
C191 C190 1.398 . S
C192 C193 1.384 . S
C192 H205 0.947 . S
C192 C227 1.382 . S
C193 C192 1.384 . S
C193 C194 1.378 . S
C194 C193 1.378 . S
C194 C195 1.378 . S
C194 H206 0.952 . S
C195 C194 1.378 . S
C195 H207 0.950 . S
C195 C226 1.383 . S
H196 C215 0.947 . S
H197 C216 0.946 . S
H198 C218 0.953 . S
H199 C219 0.945 . S
H200 C221 0.952 . S
H201 C222 0.949 . S
H202 C224 0.950 . S
H203 C225 0.948 . S
H204 C227 0.951 . S
H205 C192 0.947 . S
H206 C194 0.952 . S
H207 C195 0.950 . S
N208 C211 1.382 . S
N208 C213 1.363 1_455 S
N209 C211 1.371 . S
N209 C212 1.372 . S
N210 C212 1.361 1_655 S
N210 C213 1.377 . S
C211 N208 1.382 . S
C211 N209 1.371 . S
C211 C214 1.480 . S
C212 N209 1.372 . S
C212 N210 1.361 1_455 S
C212 C220 1.457 . S
C213 N208 1.363 1_655 S
C213 N210 1.377 . S
C213 C226 1.479 . S
C214 C211 1.480 . S
C214 C215 1.383 . S
C214 C219 1.385 . S
C215 H196 0.947 . S
C215 C214 1.383 . S
C215 C216 1.388 . S
C216 H197 0.946 . S
C216 C215 1.388 . S
C216 C217 1.384 . S
C217 C216 1.384 . S
C217 C218 1.377 . S
C218 H198 0.953 . S
C218 C217 1.377 . S
C218 C219 1.369 . S
C219 H199 0.945 . S
C219 C214 1.385 . S
C219 C218 1.369 . S
C220 C212 1.457 . S
C220 C221 1.372 . S
C220 C225 1.364 1_455 S
C221 H200 0.952 . S
C221 C220 1.372 . S
C221 C222 1.389 . S
C222 H201 0.949 . S
C222 C221 1.389 . S
C222 C223 1.387 . S
C223 C222 1.387 . S
C223 C224 1.372 1_455 S
C224 H202 0.950 . S
C224 C223 1.372 1_655 S
C224 C225 1.379 . S
C225 H203 0.948 . S
C225 C220 1.364 1_655 S
C225 C224 1.379 . S
C226 C195 1.383 . S
C226 C213 1.479 . S
C226 C227 1.398 . S
C227 C192 1.382 . S
C227 H204 0.951 . S
C227 C226 1.398 . S
C228 C229 1.384 . S
C228 H241 0.947 . S
C228 C263 1.382 . S
C229 C228 1.384 . S
C229 C230 1.378 . S
C230 C229 1.378 . S
C230 C231 1.378 . S
C230 H242 0.952 . S
C231 C230 1.378 . S
C231 H243 0.950 . S
C231 C262 1.383 . S
H232 C251 0.947 . S
H233 C252 0.946 . S
H234 C254 0.953 . S
H235 C255 0.945 . S
H236 C257 0.952 . S
H237 C258 0.949 . S
H238 C260 0.950 . S
H239 C261 0.948 . S
H240 C263 0.951 . S
H241 C228 0.947 . S
H242 C230 0.952 . S
H243 C231 0.950 . S
N244 C247 1.382 1_455 S
N244 C249 1.363 . S
N245 C247 1.371 . S
N245 C248 1.372 1_655 S
N246 C248 1.361 . S
N246 C249 1.377 . S
C247 N244 1.382 1_655 S
C247 N245 1.371 . S
C247 C250 1.480 . S
C248 N245 1.372 1_455 S
C248 N246 1.361 . S
C248 C256 1.457 . S
C249 N244 1.363 . S
C249 N246 1.377 . S
C249 C262 1.479 . S
C250 C247 1.480 . S
C250 C251 1.383 . S
C250 C255 1.385 . S
C251 H232 0.947 . S
C251 C250 1.383 . S
C251 C252 1.388 . S
C252 H233 0.946 . S
C252 C251 1.388 . S
C252 C253 1.384 . S
C253 C252 1.384 . S
C253 C254 1.377 . S
C254 H234 0.953 . S
C254 C253 1.377 . S
C254 C255 1.369 . S
C255 H235 0.945 . S
C255 C250 1.385 . S
C255 C254 1.369 . S
C256 C248 1.457 . S
C256 C257 1.372 1_455 S
C256 C261 1.364 . S
C257 H236 0.952 . S
C257 C256 1.372 1_655 S
C257 C258 1.389 . S
C258 H237 0.949 . S
C258 C257 1.389 . S
C258 C259 1.395 . S
C259 C258 1.395 . S
C259 C260 1.362 1_655 S
C260 H238 0.950 . S
C260 C259 1.362 1_455 S
C260 C261 1.379 . S
C261 H239 0.948 . S
C261 C256 1.364 . S
C261 C260 1.379 . S
C262 C231 1.383 . S
C262 C249 1.479 . S
C262 C263 1.398 . S
C263 C228 1.382 . S
C263 H240 0.951 . S
C263 C262 1.398 . S
C264 C265 1.384 . S
C264 H277 0.947 . S
C264 C299 1.382 . S
C265 C264 1.384 . S
C265 C266 1.378 . S
C266 C265 1.378 . S
C266 C267 1.378 . S
C266 H278 0.952 . S
C267 C266 1.378 . S
C267 H279 0.950 . S
C267 C298 1.383 . S
H268 C287 0.947 . S
H269 C288 0.946 . S
H270 C290 0.953 . S
H271 C291 0.945 . S
H272 C293 0.952 . S
H273 C294 0.949 . S
H274 C296 0.950 . S
H275 C297 0.948 . S
H276 C299 0.951 . S
H277 C264 0.947 . S
H278 C266 0.952 . S
H279 C267 0.950 . S
N280 C283 1.382 1_545 S
N280 C285 1.363 . S
N281 C283 1.371 . S
N281 C284 1.372 1_565 S
N282 C284 1.361 . S
N282 C285 1.377 . S
C283 N280 1.382 1_565 S
C283 N281 1.371 . S
C283 C286 1.480 . S
C284 N281 1.372 1_545 S
C284 N282 1.361 . S
C284 C292 1.457 . S
C285 N280 1.363 . S
C285 N282 1.377 . S
C285 C298 1.479 . S
C286 C283 1.480 . S
C286 C287 1.383 . S
C286 C291 1.385 . S
C287 H268 0.947 . S
C287 C286 1.383 . S
C287 C288 1.388 . S
C288 H269 0.946 . S
C288 C287 1.388 . S
C288 C289 1.384 . S
C289 C288 1.384 . S
C289 C290 1.377 . S
C290 H270 0.953 . S
C290 C289 1.377 . S
C290 C291 1.369 . S
C291 H271 0.945 . S
C291 C286 1.385 . S
C291 C290 1.369 . S
C292 C284 1.457 . S
C292 C293 1.372 1_545 S
C292 C297 1.364 . S
C293 H272 0.952 . S
C293 C292 1.372 1_565 S
C293 C294 1.389 . S
C294 H273 0.949 . S
C294 C293 1.389 . S
C294 C295 1.387 1_565 S
C295 C294 1.387 1_545 S
C295 C296 1.372 . S
C296 H274 0.950 . S
C296 C295 1.372 . S
C296 C297 1.379 . S
C297 H275 0.948 . S
C297 C292 1.364 . S
C297 C296 1.379 . S
C298 C267 1.383 . S
C298 C285 1.479 . S
C298 C299 1.398 . S
C299 C264 1.382 . S
C299 H276 0.951 . S
C299 C298 1.398 . S
C300 C301 1.384 . S
C300 H313 0.947 . S
C300 C335 1.382 . S
C301 C300 1.384 . S
C301 C302 1.378 . S
C302 C301 1.378 . S
C302 C303 1.378 . S
C302 H314 0.952 . S
C303 C302 1.378 . S
C303 H315 0.950 . S
C303 C334 1.383 . S
H304 C323 0.947 . S
H305 C324 0.946 . S
H306 C326 0.953 . S
H307 C327 0.945 . S
H308 C329 0.952 . S
H309 C330 0.949 . S
H310 C332 0.950 . S
H311 C333 0.948 . S
H312 C335 0.951 . S
H313 C300 0.947 . S
H314 C302 0.952 . S
H315 C303 0.950 . S
N316 C319 1.382 . S
N316 C321 1.363 . S
N317 C319 1.371 . S
N317 C320 1.372 . S
N318 C320 1.361 . S
N318 C321 1.377 . S
C319 N316 1.382 . S
C319 N317 1.371 . S
C319 C322 1.480 . S
C320 N317 1.372 . S
C320 N318 1.361 . S
C320 C328 1.457 . S
C321 N316 1.363 . S
C321 N318 1.377 . S
C321 C334 1.479 . S
C322 C319 1.480 . S
C322 C323 1.383 . S
C322 C327 1.385 . S
C323 H304 0.947 . S
C323 C322 1.383 . S
C323 C324 1.388 . S
C324 H305 0.946 . S
C324 C323 1.388 . S
C324 C325 1.384 . S
C325 C324 1.384 . S
C325 C326 1.377 . S
C326 H306 0.953 . S
C326 C325 1.377 . S
C326 C327 1.369 . S
C327 H307 0.945 . S
C327 C322 1.385 . S
C327 C326 1.369 . S
C328 C320 1.457 . S
C328 C329 1.372 . S
C328 C333 1.364 . S
C329 H308 0.952 . S
C329 C328 1.372 . S
C329 C330 1.389 . S
C330 H309 0.949 . S
C330 C329 1.389 . S
C330 C331 1.387 . S
C331 C330 1.387 . S
C331 C332 1.372 . S
C332 H310 0.950 . S
C332 C331 1.372 . S
C332 C333 1.379 . S
C333 H311 0.948 . S
C333 C328 1.364 . S
C333 C332 1.379 . S
C334 C303 1.383 . S
C334 C321 1.479 . S
C334 C335 1.398 . S
C335 C300 1.382 . S
C335 H312 0.951 . S
C335 C334 1.398 . S
H336 C344 0.929 . S
H337 C346 0.930 . S
H338 C348 0.930 . S
H339 C351 0.929 . S
H340 C354 0.930 . S
H341 C356 0.960 . S
H342 C356 0.960 . S
H343 C356 0.960 . S
C344 H336 0.929 . S
C344 C345 1.377 . S
C344 C346 1.384 . S
C345 C344 1.377 . S
C345 C351 1.390 . S
C346 H337 0.930 . S
C346 C344 1.384 . S
C346 C347 1.372 . S
C347 C346 1.372 . S
C347 C348 1.400 . S
C347 C352 1.490 . S
C348 H338 0.930 . S
C348 C347 1.400 . S
C348 C351 1.386 . S
H349 C365 0.930 . S
H350 C366 0.931 . S
C351 H339 0.929 . S
C351 C345 1.390 . S
C351 C348 1.386 . S
C352 C347 1.490 . S
C352 C354 1.395 . S
C352 C355 1.403 . S
H353 C359 0.930 . S
C354 H340 0.930 . S
C354 C352 1.395 . S
C354 C357 1.403 . S
C355 C352 1.403 . S
C355 C356 1.524 . S
C355 C359 1.400 . S
C356 H341 0.960 . S
C356 H342 0.960 . S
C356 H343 0.960 . S
C356 C355 1.524 . S
C357 C354 1.403 . S
C357 C358 1.392 . S
C357 C361 1.495 . S
C358 C357 1.392 . S
C358 C359 1.385 . S
C358 C360 1.478 . S
C359 H353 0.930 . S
C359 C355 1.400 . S
C359 C358 1.385 . S
C360 C358 1.478 . S
C360 C362 1.381 . S
C360 C366 1.383 . S
C361 C357 1.495 . S
C361 H367 0.959 . S
C361 H368 0.961 . S
C361 H369 0.960 . S
C362 C360 1.381 . S
C362 C363 1.394 . S
C362 H370 0.930 . S
C363 C362 1.394 . S
C363 C364 1.383 . S
C363 H371 0.929 . S
C364 C363 1.383 . S
C364 C365 1.377 . S
C365 H349 0.930 . S
C365 C364 1.377 . S
C365 C366 1.379 . S
C366 H350 0.931 . S
C366 C360 1.383 . S
C366 C365 1.379 . S
H367 C361 0.959 . S
H368 C361 0.961 . S
H369 C361 0.960 . S
H370 C362 0.930 . S
H371 C363 0.929 . S
H372 C380 0.929 . S
H373 C382 0.930 . S
H374 C384 0.930 . S
H375 C387 0.929 . S
H376 C390 0.930 . S
H377 C392 0.960 . S
H378 C392 0.960 . S
H379 C392 0.960 . S
C380 H372 0.929 . S
C380 C381 1.377 . S
C380 C382 1.384 . S
C381 C380 1.377 . S
C381 C387 1.390 . S
C382 H373 0.930 . S
C382 C380 1.384 . S
C382 C383 1.372 . S
C383 C382 1.372 . S
C383 C384 1.400 . S
C383 C388 1.490 . S
C384 H374 0.930 . S
C384 C383 1.400 . S
C384 C387 1.386 . S
H385 C401 0.930 . S
H386 C402 0.931 . S
C387 H375 0.929 . S
C387 C381 1.390 . S
C387 C384 1.386 . S
C388 C383 1.490 . S
C388 C390 1.395 . S
C388 C391 1.403 . S
H389 C395 0.930 . S
C390 H376 0.930 . S
C390 C388 1.395 . S
C390 C393 1.403 . S
C391 C388 1.403 . S
C391 C392 1.524 . S
C391 C395 1.400 . S
C392 H377 0.960 . S
C392 H378 0.960 . S
C392 H379 0.960 . S
C392 C391 1.524 . S
C393 C390 1.403 . S
C393 C394 1.392 . S
C393 C397 1.495 . S
C394 C393 1.392 . S
C394 C395 1.385 . S
C394 C396 1.478 . S
C395 H389 0.930 . S
C395 C391 1.400 . S
C395 C394 1.385 . S
C396 C394 1.478 . S
C396 C398 1.381 . S
C396 C402 1.383 . S
C397 C393 1.495 . S
C397 H403 0.959 . S
C397 H404 0.961 . S
C397 H405 0.960 . S
C398 C396 1.381 . S
C398 C399 1.394 . S
C398 H406 0.930 . S
C399 C398 1.394 . S
C399 C400 1.383 . S
C399 H407 0.929 . S
C400 C399 1.383 . S
C400 C401 1.377 . S
C401 H385 0.930 . S
C401 C400 1.377 . S
C401 C402 1.379 . S
C402 H386 0.931 . S
C402 C396 1.383 . S
C402 C401 1.379 . S
H403 C397 0.959 . S
H404 C397 0.961 . S
H405 C397 0.960 . S
H406 C398 0.930 . S
H407 C399 0.929 . S
H408 C416 0.929 . S
H409 C418 0.930 . S
H410 C420 0.930 . S
H411 C423 0.929 . S
H412 C426 0.930 . S
H413 C428 0.960 . S
H414 C428 0.960 . S
H415 C428 0.960 . S
C416 H408 0.929 . S
C416 C417 1.377 . S
C416 C418 1.384 . S
C417 C416 1.377 . S
C417 C423 1.390 . S
C418 H409 0.930 . S
C418 C416 1.384 . S
C418 C419 1.372 . S
C419 C418 1.372 . S
C419 C420 1.400 . S
C419 C424 1.490 . S
C420 H410 0.930 . S
C420 C419 1.400 . S
C420 C423 1.386 . S
H421 C437 0.930 . S
H422 C438 0.931 . S
C423 H411 0.929 . S
C423 C417 1.390 . S
C423 C420 1.386 . S
C424 C419 1.490 . S
C424 C426 1.395 . S
C424 C427 1.403 . S
H425 C431 0.930 . S
C426 H412 0.930 . S
C426 C424 1.395 . S
C426 C429 1.403 . S
C427 C424 1.403 . S
C427 C428 1.524 . S
C427 C431 1.400 . S
C428 H413 0.960 . S
C428 H414 0.960 . S
C428 H415 0.960 . S
C428 C427 1.524 . S
C429 C426 1.403 . S
C429 C430 1.392 . S
C429 C433 1.495 . S
C430 C429 1.392 . S
C430 C431 1.385 . S
C430 C432 1.478 . S
C431 H425 0.930 . S
C431 C427 1.400 . S
C431 C430 1.385 . S
C432 C430 1.478 . S
C432 C434 1.381 . S
C432 C438 1.383 . S
C433 C429 1.495 . S
C433 H439 0.959 . S
C433 H440 0.961 . S
C433 H441 0.960 . S
C434 C432 1.381 . S
C434 C435 1.394 . S
C434 H442 0.930 . S
C435 C434 1.394 . S
C435 C436 1.383 . S
C435 H443 0.929 . S
C436 C435 1.383 . S
C436 C437 1.377 . S
C437 H421 0.930 . S
C437 C436 1.377 . S
C437 C438 1.379 . S
C438 H422 0.931 . S
C438 C432 1.383 . S
C438 C437 1.379 . S
H439 C433 0.959 . S
H440 C433 0.961 . S
H441 C433 0.960 . S
H442 C434 0.930 . S
H443 C435 0.929 . S
H444 C452 0.929 . S
H445 C454 0.930 . S
H446 C456 0.930 . S
H447 C459 0.929 . S
H448 C462 0.930 . S
H449 C464 0.960 . S
H450 C464 0.960 . S
H451 C464 0.960 . S
C452 H444 0.929 . S
C452 C453 1.377 . S
C452 C454 1.384 . S
C453 C452 1.377 . S
C453 C459 1.390 . S
C454 H445 0.930 . S
C454 C452 1.384 . S
C454 C455 1.372 . S
C455 C454 1.372 . S
C455 C456 1.400 . S
C455 C460 1.490 . S
C456 H446 0.930 . S
C456 C455 1.400 . S
C456 C459 1.386 . S
H457 C473 0.930 . S
H458 C474 0.931 . S
C459 H447 0.929 . S
C459 C453 1.390 . S
C459 C456 1.386 . S
C460 C455 1.490 . S
C460 C462 1.395 . S
C460 C463 1.403 . S
H461 C467 0.930 . S
C462 H448 0.930 . S
C462 C460 1.395 . S
C462 C465 1.403 . S
C463 C460 1.403 . S
C463 C464 1.524 . S
C463 C467 1.400 . S
C464 H449 0.960 . S
C464 H450 0.960 . S
C464 H451 0.960 . S
C464 C463 1.524 . S
C465 C462 1.403 . S
C465 C466 1.392 . S
C465 C469 1.495 . S
C466 C465 1.392 . S
C466 C467 1.385 . S
C466 C468 1.478 . S
C467 H461 0.930 . S
C467 C463 1.400 . S
C467 C466 1.385 . S
C468 C466 1.478 . S
C468 C470 1.381 . S
C468 C474 1.383 . S
C469 C465 1.495 . S
C469 H475 0.959 . S
C469 H476 0.961 . S
C469 H477 0.960 . S
C470 C468 1.381 . S
C470 C471 1.394 . S
C470 H478 0.930 . S
C471 C470 1.394 . S
C471 C472 1.383 . S
C471 H479 0.929 . S
C472 C471 1.383 . S
C472 C473 1.377 . S
C473 H457 0.930 . S
C473 C472 1.377 . S
C473 C474 1.379 . S
C474 H458 0.931 . S
C474 C468 1.383 . S
C474 C473 1.379 . S
H475 C469 0.959 . S
H476 C469 0.961 . S
H477 C469 0.960 . S
H478 C470 0.930 . S
H479 C471 0.929 . S
H480 C488 0.929 . S
H481 C490 0.930 . S
H482 C492 0.930 . S
H483 C495 0.929 . S
H484 C498 0.930 . S
H485 C500 0.960 . S
H486 C500 0.960 . S
H487 C500 0.960 . S
C488 H480 0.929 . S
C488 C489 1.377 . S
C488 C490 1.384 . S
C489 C488 1.377 . S
C489 C495 1.390 . S
C490 H481 0.930 . S
C490 C488 1.384 . S
C490 C491 1.372 . S
C491 C490 1.372 . S
C491 C492 1.400 . S
C491 C496 1.490 . S
C492 H482 0.930 . S
C492 C491 1.400 . S
C492 C495 1.386 . S
H493 C509 0.930 . S
H494 C510 0.931 . S
C495 H483 0.929 . S
C495 C489 1.390 . S
C495 C492 1.386 . S
C496 C491 1.490 . S
C496 C498 1.395 . S
C496 C499 1.403 . S
H497 C503 0.930 . S
C498 H484 0.930 . S
C498 C496 1.395 . S
C498 C501 1.403 . S
C499 C496 1.403 . S
C499 C500 1.524 . S
C499 C503 1.400 . S
C500 H485 0.960 . S
C500 H486 0.960 . S
C500 H487 0.960 . S
C500 C499 1.524 . S
C501 C498 1.403 . S
C501 C502 1.392 . S
C501 C505 1.495 . S
C502 C501 1.392 . S
C502 C503 1.385 . S
C502 C504 1.478 . S
C503 H497 0.930 . S
C503 C499 1.400 . S
C503 C502 1.385 . S
C504 C502 1.478 . S
C504 C506 1.381 . S
C504 C510 1.383 . S
C505 C501 1.495 . S
C505 H511 0.959 . S
C505 H512 0.961 . S
C505 H513 0.960 . S
C506 C504 1.381 . S
C506 C507 1.394 . S
C506 H514 0.930 . S
C507 C506 1.394 . S
C507 C508 1.383 . S
C507 H515 0.929 . S
C508 C507 1.383 . S
C508 C509 1.377 . S
C509 H493 0.930 . S
C509 C508 1.377 . S
C509 C510 1.379 . S
C510 H494 0.931 . S
C510 C504 1.383 . S
C510 C509 1.379 . S
H511 C505 0.959 . S
H512 C505 0.961 . S
H513 C505 0.960 . S
H514 C506 0.930 . S
H515 C507 0.929 . S
H516 C524 0.929 . S
H517 C526 0.930 . S
H518 C528 0.930 . S
H519 C531 0.929 . S
H520 C534 0.930 . S
H521 C536 0.960 . S
H522 C536 0.960 . S
H523 C536 0.960 . S
C524 H516 0.929 . S
C524 C525 1.377 . S
C524 C526 1.384 . S
C525 C524 1.377 . S
C525 C531 1.390 . S
C526 H517 0.930 . S
C526 C524 1.384 . S
C526 C527 1.372 . S
C527 C526 1.372 . S
C527 C528 1.400 . S
C527 C532 1.490 . S
C528 H518 0.930 . S
C528 C527 1.400 . S
C528 C531 1.386 . S
H529 C545 0.930 . S
H530 C546 0.931 . S
C531 H519 0.929 . S
C531 C525 1.390 . S
C531 C528 1.386 . S
C532 C527 1.490 . S
C532 C534 1.395 . S
C532 C535 1.403 . S
H533 C539 0.930 . S
C534 H520 0.930 . S
C534 C532 1.395 . S
C534 C537 1.403 . S
C535 C532 1.403 . S
C535 C536 1.524 . S
C535 C539 1.400 . S
C536 H521 0.960 . S
C536 H522 0.960 . S
C536 H523 0.960 . S
C536 C535 1.524 . S
C537 C534 1.403 . S
C537 C538 1.392 . S
C537 C541 1.495 . S
C538 C537 1.392 . S
C538 C539 1.385 . S
C538 C540 1.478 . S
C539 H533 0.930 . S
C539 C535 1.400 . S
C539 C538 1.385 . S
C540 C538 1.478 . S
C540 C542 1.381 . S
C540 C546 1.383 . S
C541 C537 1.495 . S
C541 H547 0.959 . S
C541 H548 0.961 . S
C541 H549 0.960 . S
C542 C540 1.381 . S
C542 C543 1.394 . S
C542 H550 0.930 . S
C543 C542 1.394 . S
C543 C544 1.383 . S
C543 H551 0.929 . S
C544 C543 1.383 . S
C544 C545 1.377 . S
C545 H529 0.930 . S
C545 C544 1.377 . S
C545 C546 1.379 . S
C546 H530 0.931 . S
C546 C540 1.383 . S
C546 C545 1.379 . S
H547 C541 0.959 . S
H548 C541 0.961 . S
H549 C541 0.960 . S
H550 C542 0.930 . S
H551 C543 0.929 . S
H552 C560 0.929 . S
H553 C562 0.930 . S
H554 C564 0.930 . S
H555 C567 0.929 . S
H556 C570 0.930 . S
H557 C572 0.960 . S
H558 C572 0.960 . S
H559 C572 0.960 . S
C560 H552 0.929 . S
C560 C561 1.377 . S
C560 C562 1.384 . S
C561 C560 1.377 . S
C561 C567 1.390 . S
C562 H553 0.930 . S
C562 C560 1.384 . S
C562 C563 1.372 . S
C563 C562 1.372 . S
C563 C564 1.400 . S
C563 C568 1.490 . S
C564 H554 0.930 . S
C564 C563 1.400 . S
C564 C567 1.386 . S
H565 C581 0.930 . S
H566 C582 0.931 . S
C567 H555 0.929 . S
C567 C561 1.390 . S
C567 C564 1.386 . S
C568 C563 1.490 . S
C568 C570 1.395 . S
C568 C571 1.403 . S
H569 C575 0.930 . S
C570 H556 0.930 . S
C570 C568 1.395 . S
C570 C573 1.403 . S
C571 C568 1.403 . S
C571 C572 1.524 . S
C571 C575 1.400 . S
C572 H557 0.960 . S
C572 H558 0.960 . S
C572 H559 0.960 . S
C572 C571 1.524 . S
C573 C570 1.403 . S
C573 C574 1.392 . S
C573 C577 1.495 . S
C574 C573 1.392 . S
C574 C575 1.385 . S
C574 C576 1.478 . S
C575 H569 0.930 . S
C575 C571 1.400 . S
C575 C574 1.385 . S
C576 C574 1.478 . S
C576 C578 1.381 . S
C576 C582 1.383 . S
C577 C573 1.495 . S
C577 H583 0.959 . S
C577 H584 0.961 . S
C577 H585 0.960 . S
C578 C576 1.381 . S
C578 C579 1.394 . S
C578 H586 0.930 . S
C579 C578 1.394 . S
C579 C580 1.383 . S
C579 H587 0.929 . S
C580 C579 1.383 . S
C580 C581 1.377 . S
C581 H565 0.930 . S
C581 C580 1.377 . S
C581 C582 1.379 . S
C582 H566 0.931 . S
C582 C576 1.383 . S
C582 C581 1.379 . S
H583 C577 0.959 . S
H584 C577 0.961 . S
H585 C577 0.960 . S
H586 C578 0.930 . S
H587 C579 0.929 . S
H588 C596 0.929 . S
H589 C598 0.930 . S
H590 C600 0.930 . S
H591 C603 0.929 . S
H592 C606 0.930 . S
H593 C608 0.960 . S
H594 C608 0.960 . S
H595 C608 0.960 . S
C596 H588 0.929 . S
C596 C597 1.377 . S
C596 C598 1.384 . S
C597 C596 1.377 . S
C597 C603 1.390 . S
C598 H589 0.930 . S
C598 C596 1.384 . S
C598 C599 1.372 . S
C599 C598 1.372 . S
C599 C600 1.400 . S
C599 C604 1.490 . S
C600 H590 0.930 . S
C600 C599 1.400 . S
C600 C603 1.386 . S
H601 C617 0.930 . S
H602 C618 0.931 . S
C603 H591 0.929 . S
C603 C597 1.390 . S
C603 C600 1.386 . S
C604 C599 1.490 . S
C604 C606 1.395 . S
C604 C607 1.403 . S
H605 C611 0.930 . S
C606 H592 0.930 . S
C606 C604 1.395 . S
C606 C609 1.403 . S
C607 C604 1.403 . S
C607 C608 1.524 . S
C607 C611 1.400 . S
C608 H593 0.960 . S
C608 H594 0.960 . S
C608 H595 0.960 . S
C608 C607 1.524 . S
C609 C606 1.403 . S
C609 C610 1.392 . S
C609 C613 1.495 . S
C610 C609 1.392 . S
C610 C611 1.385 . S
C610 C612 1.478 . S
C611 H605 0.930 . S
C611 C607 1.400 . S
C611 C610 1.385 . S
C612 C610 1.478 . S
C612 C614 1.381 . S
C612 C618 1.383 . S
C613 C609 1.495 . S
C613 H619 0.959 . S
C613 H620 0.961 . S
C613 H621 0.960 . S
C614 C612 1.381 . S
C614 C615 1.394 . S
C614 H622 0.930 . S
C615 C614 1.394 . S
C615 C616 1.383 . S
C615 H623 0.929 . S
C616 C615 1.383 . S
C616 C617 1.377 . S
C617 H601 0.930 . S
C617 C616 1.377 . S
C617 C618 1.379 . S
C618 H602 0.931 . S
C618 C612 1.383 . S
C618 C617 1.379 . S
H619 C613 0.959 . S
H620 C613 0.961 . S
H621 C613 0.960 . S
H622 C614 0.930 . S
H623 C615 0.929 . S
H624 C632 0.929 . S
H625 C634 0.930 . S
H626 C636 0.930 . S
H627 C639 0.929 . S
H628 C642 0.930 . S
H629 C644 0.960 . S
H630 C644 0.960 . S
H631 C644 0.960 . S
C632 H624 0.929 . S
C632 C633 1.377 . S
C632 C634 1.384 . S
C633 C632 1.377 . S
C633 C639 1.390 . S
C634 H625 0.930 . S
C634 C632 1.384 . S
C634 C635 1.372 . S
C635 C634 1.372 . S
C635 C636 1.400 . S
C635 C640 1.490 . S
C636 H626 0.930 . S
C636 C635 1.400 . S
C636 C639 1.386 . S
H637 C653 0.930 . S
H638 C654 0.931 . S
C639 H627 0.929 . S
C639 C633 1.390 . S
C639 C636 1.386 . S
C640 C635 1.490 . S
C640 C642 1.395 . S
C640 C643 1.403 . S
H641 C647 0.930 . S
C642 H628 0.930 . S
C642 C640 1.395 . S
C642 C645 1.403 . S
C643 C640 1.403 . S
C643 C644 1.524 . S
C643 C647 1.400 . S
C644 H629 0.960 . S
C644 H630 0.960 . S
C644 H631 0.960 . S
C644 C643 1.524 . S
C645 C642 1.403 . S
C645 C646 1.392 . S
C645 C649 1.495 . S
C646 C645 1.392 . S
C646 C647 1.385 . S
C646 C648 1.478 . S
C647 H641 0.930 . S
C647 C643 1.400 . S
C647 C646 1.385 . S
C648 C646 1.478 . S
C648 C650 1.381 . S
C648 C654 1.383 . S
C649 C645 1.495 . S
C649 H655 0.959 . S
C649 H656 0.961 . S
C649 H657 0.960 . S
C650 C648 1.381 . S
C650 C651 1.394 . S
C650 H658 0.930 . S
C651 C650 1.394 . S
C651 C652 1.383 . S
C651 H659 0.929 . S
C652 C651 1.383 . S
C652 C653 1.377 . S
C653 H637 0.930 . S
C653 C652 1.377 . S
C653 C654 1.379 . S
C654 H638 0.931 . S
C654 C648 1.383 . S
C654 C653 1.379 . S
H655 C649 0.959 . S
H656 C649 0.961 . S
H657 C649 0.960 . S
H658 C650 0.930 . S
H659 C651 0.929 . S
H660 C668 0.929 . S
H661 C670 0.930 . S
H662 C672 0.930 . S
H663 C675 0.929 . S
H664 C678 0.930 . S
H665 C680 0.960 . S
H666 C680 0.960 . S
H667 C680 0.960 . S
C668 H660 0.929 . S
C668 C669 1.377 . S
C668 C670 1.384 . S
C669 C668 1.377 . S
C669 C675 1.390 . S
C670 H661 0.930 . S
C670 C668 1.384 . S
C670 C671 1.372 . S
C671 C670 1.372 . S
C671 C672 1.400 . S
C671 C676 1.490 . S
C672 H662 0.930 . S
C672 C671 1.400 . S
C672 C675 1.386 . S
H673 C689 0.930 . S
H674 C690 0.931 . S
C675 H663 0.929 . S
C675 C669 1.390 . S
C675 C672 1.386 . S
C676 C671 1.490 . S
C676 C678 1.395 . S
C676 C679 1.403 . S
H677 C683 0.930 . S
C678 H664 0.930 . S
C678 C676 1.395 . S
C678 C681 1.403 . S
C679 C676 1.403 . S
C679 C680 1.524 . S
C679 C683 1.400 . S
C680 H665 0.960 . S
C680 H666 0.960 . S
C680 H667 0.960 . S
C680 C679 1.524 . S
C681 C678 1.403 . S
C681 C682 1.392 . S
C681 C685 1.495 . S
C682 C681 1.392 . S
C682 C683 1.385 . S
C682 C684 1.478 . S
C683 H677 0.930 . S
C683 C679 1.400 . S
C683 C682 1.385 . S
C684 C682 1.478 . S
C684 C686 1.381 . S
C684 C690 1.383 . S
C685 C681 1.495 . S
C685 H691 0.959 . S
C685 H692 0.961 . S
C685 H693 0.960 . S
C686 C684 1.381 . S
C686 C687 1.394 . S
C686 H694 0.930 . S
C687 C686 1.394 . S
C687 C688 1.383 . S
C687 H695 0.929 . S
C688 C687 1.383 . S
C688 C689 1.377 . S
C689 H673 0.930 . S
C689 C688 1.377 . S
C689 C690 1.379 . S
C690 H674 0.931 . S
C690 C684 1.383 . S
C690 C689 1.379 . S
H691 C685 0.959 . S
H692 C685 0.961 . S
H693 C685 0.960 . S
H694 C686 0.930 . S
H695 C687 0.929 . S
H696 C704 0.929 . S
H697 C706 0.930 . S
H698 C708 0.930 . S
H699 C711 0.929 . S
H700 C714 0.930 . S
H701 C716 0.960 . S
H702 C716 0.960 . S
H703 C716 0.960 . S
C704 H696 0.929 . S
C704 C705 1.377 . S
C704 C706 1.384 . S
C705 C704 1.377 . S
C705 C711 1.390 . S
C706 H697 0.930 . S
C706 C704 1.384 . S
C706 C707 1.372 . S
C707 C706 1.372 . S
C707 C708 1.400 . S
C707 C712 1.490 . S
C708 H698 0.930 . S
C708 C707 1.400 . S
C708 C711 1.386 . S
H709 C725 0.930 . S
H710 C726 0.931 . S
C711 H699 0.929 . S
C711 C705 1.390 . S
C711 C708 1.386 . S
C712 C707 1.490 . S
C712 C714 1.395 . S
C712 C715 1.403 . S
H713 C719 0.930 . S
C714 H700 0.930 . S
C714 C712 1.395 . S
C714 C717 1.403 . S
C715 C712 1.403 . S
C715 C716 1.524 . S
C715 C719 1.400 . S
C716 H701 0.960 . S
C716 H702 0.960 . S
C716 H703 0.960 . S
C716 C715 1.524 . S
C717 C714 1.403 . S
C717 C718 1.392 . S
C717 C721 1.495 . S
C718 C717 1.392 . S
C718 C719 1.385 . S
C718 C720 1.478 . S
C719 H713 0.930 . S
C719 C715 1.400 . S
C719 C718 1.385 . S
C720 C718 1.478 . S
C720 C722 1.381 . S
C720 C726 1.383 . S
C721 C717 1.495 . S
C721 H727 0.959 . S
C721 H728 0.961 . S
C721 H729 0.960 . S
C722 C720 1.381 . S
C722 C723 1.394 . S
C722 H730 0.930 . S
C723 C722 1.394 . S
C723 C724 1.383 . S
C723 H731 0.929 . S
C724 C723 1.383 . S
C724 C725 1.377 . S
C725 H709 0.930 . S
C725 C724 1.377 . S
C725 C726 1.379 . S
C726 H710 0.931 . S
C726 C720 1.383 . S
C726 C725 1.379 . S
H727 C721 0.959 . S
H728 C721 0.961 . S
H729 C721 0.960 . S
H730 C722 0.930 . S
H731 C723 0.929 . S
H732 C740 0.929 . S
H733 C742 0.930 . S
H734 C744 0.930 . S
H735 C747 0.929 . S
H736 C750 0.930 . S
H737 C752 0.960 . S
H738 C752 0.960 . S
H739 C752 0.960 . S
C740 H732 0.929 . S
C740 C741 1.377 . S
C740 C742 1.384 . S
C741 C740 1.377 . S
C741 C747 1.390 . S
C742 H733 0.930 . S
C742 C740 1.384 . S
C742 C743 1.372 . S
C743 C742 1.372 . S
C743 C744 1.400 . S
C743 C748 1.490 . S
C744 H734 0.930 . S
C744 C743 1.400 . S
C744 C747 1.386 . S
H745 C761 0.930 . S
H746 C762 0.931 . S
C747 H735 0.929 . S
C747 C741 1.390 . S
C747 C744 1.386 . S
C748 C743 1.490 . S
C748 C750 1.395 . S
C748 C751 1.403 . S
H749 C755 0.930 . S
C750 H736 0.930 . S
C750 C748 1.395 . S
C750 C753 1.403 . S
C751 C748 1.403 . S
C751 C752 1.524 . S
C751 C755 1.400 . S
C752 H737 0.960 . S
C752 H738 0.960 . S
C752 H739 0.960 . S
C752 C751 1.524 . S
C753 C750 1.403 . S
C753 C754 1.392 . S
C753 C757 1.495 . S
C754 C753 1.392 . S
C754 C755 1.385 . S
C754 C756 1.478 . S
C755 H749 0.930 . S
C755 C751 1.400 . S
C755 C754 1.385 . S
C756 C754 1.478 . S
C756 C758 1.381 . S
C756 C762 1.383 . S
C757 C753 1.495 . S
C757 H763 0.959 . S
C757 H764 0.961 . S
C757 H765 0.960 . S
C758 C756 1.381 . S
C758 C759 1.394 . S
C758 H766 0.930 . S
C759 C758 1.394 . S
C759 C760 1.383 . S
C759 H767 0.929 . S
C760 C759 1.383 . S
C760 C761 1.377 . S
C761 H745 0.930 . S
C761 C760 1.377 . S
C761 C762 1.379 . S
C762 H746 0.931 . S
C762 C756 1.383 . S
C762 C761 1.379 . S
H763 C757 0.959 . S
H764 C757 0.961 . S
H765 C757 0.960 . S
H766 C758 0.930 . S
H767 C759 0.929 . S
H768 C776 0.929 . S
H769 C778 0.930 . S
H770 C780 0.930 . S
H771 C783 0.929 . S
H772 C786 0.930 . S
H773 C788 0.960 . S
H774 C788 0.960 1_655 S
H775 C788 0.960 . S
C776 H768 0.929 . S
C776 C777 1.377 1_655 S
C776 C778 1.384 . S
C777 C776 1.377 1_455 S
C777 C783 1.390 . S
C778 H769 0.930 . S
C778 C776 1.384 . S
C778 C779 1.372 1_655 S
C779 C778 1.372 1_455 S
C779 C780 1.400 . S
C779 C784 1.490 . S
C780 H770 0.930 . S
C780 C779 1.400 . S
C780 C783 1.386 . S
H781 C797 0.930 . S
H782 C798 0.966 . S
C783 H771 0.929 . S
C783 C777 1.390 . S
C783 C780 1.386 . S
C784 C779 1.490 . S
C784 C786 1.395 . S
C784 C787 1.403 . S
H785 C791 0.930 . S
C786 H772 0.930 . S
C786 C784 1.395 . S
C786 C789 1.403 . S
C787 C784 1.403 . S
C787 C788 1.524 . S
C787 C791 1.400 . S
C788 H773 0.960 . S
C788 H774 0.960 1_455 S
C788 H775 0.960 . S
C788 C787 1.524 . S
C789 C786 1.403 . S
C789 C790 1.392 . S
C789 C793 1.495 . S
C790 C789 1.392 . S
C790 C791 1.385 . S
C790 C792 1.478 . S
C791 H785 0.930 . S
C791 C787 1.400 . S
C791 C790 1.385 . S
C792 C790 1.478 . S
C792 C794 1.381 1_454 S
C792 C798 1.413 . S
C793 C789 1.495 . S
C793 H799 0.959 . S
C793 H800 0.961 . S
C793 H801 0.960 1_455 S
C794 C792 1.381 1_656 S
C794 C795 1.394 . S
C794 H802 0.930 1_556 S
C795 C794 1.394 . S
C795 C796 1.383 1_655 S
C795 H803 0.929 . S
C796 C795 1.383 1_455 S
C796 C797 1.377 . S
C797 H781 0.930 . S
C797 C796 1.377 . S
C797 C798 1.317 1_556 S
C798 H782 0.966 . S
C798 C792 1.413 . S
C798 C797 1.317 1_554 S
H799 C793 0.959 . S
H800 C793 0.961 . S
H801 C793 0.960 1_655 S
H802 C794 0.930 1_554 S
H803 C795 0.929 . S
H804 C812 0.929 . S
H805 C814 0.930 . S
H806 C816 0.930 1_565 S
H807 C819 0.929 1_565 S
H808 C822 0.930 . S
H809 C824 0.960 . S
H810 C824 0.960 . S
H811 C824 0.960 . S
C812 H804 0.929 . S
C812 C813 1.377 . S
C812 C814 1.384 . S
C813 C812 1.377 . S
C813 C819 1.390 . S
C814 H805 0.930 . S
C814 C812 1.384 . S
C814 C815 1.372 . S
C815 C814 1.372 . S
C815 C816 1.400 . S
C815 C820 1.490 . S
C816 H806 0.930 1_545 S
C816 C815 1.400 . S
C816 C819 1.386 . S
H817 C833 0.930 . S
H818 C834 0.931 . S
C819 H807 0.929 1_545 S
C819 C813 1.390 . S
C819 C816 1.386 . S
C820 C815 1.490 . S
C820 C822 1.395 . S
C820 C823 1.403 . S
H821 C827 0.930 1_565 S
C822 H808 0.930 . S
C822 C820 1.395 . S
C822 C825 1.403 . S
C823 C820 1.403 . S
C823 C824 1.524 1_545 S
C823 C827 1.400 . S
C824 H809 0.960 . S
C824 H810 0.960 . S
C824 H811 0.960 . S
C824 C823 1.524 1_565 S
C825 C822 1.403 . S
C825 C826 1.392 . S
C825 C829 1.495 . S
C826 C825 1.392 . S
C826 C827 1.385 . S
C826 C828 1.478 . S
C827 H821 0.930 1_545 S
C827 C823 1.400 . S
C827 C826 1.385 . S
C828 C826 1.478 . S
C828 C830 1.381 . S
C828 C834 1.383 . S
C829 C825 1.495 . S
C829 H835 0.959 . S
C829 H836 0.961 . S
C829 H837 0.960 . S
C830 C828 1.381 . S
C830 C831 1.394 . S
C830 H838 0.930 . S
C831 C830 1.394 . S
C831 C832 1.383 . S
C831 H839 0.929 . S
C832 C831 1.383 . S
C832 C833 1.377 . S
C833 H817 0.930 . S
C833 C832 1.377 . S
C833 C834 1.379 . S
C834 H818 0.931 . S
C834 C828 1.383 . S
C834 C833 1.379 . S
H835 C829 0.959 . S
H836 C829 0.961 . S
H837 C829 0.960 . S
H838 C830 0.930 . S
H839 C831 0.929 . S
H840 C848 0.929 . S
H841 C850 0.930 . S
H842 C852 0.930 . S
H843 C855 0.929 . S
H844 C858 0.930 . S
H845 C860 0.960 . S
H846 C860 0.960 . S
H847 C860 0.960 . S
C848 H840 0.929 . S
C848 C849 1.377 . S
C848 C850 1.384 . S
C849 C848 1.377 . S
C849 C855 1.390 . S
C850 H841 0.930 . S
C850 C848 1.384 . S
C850 C851 1.372 . S
C851 C850 1.372 . S
C851 C852 1.400 . S
C851 C856 1.490 . S
C852 H842 0.930 . S
C852 C851 1.400 . S
C852 C855 1.386 . S
H853 C869 0.930 . S
H854 C870 0.931 . S
C855 H843 0.929 . S
C855 C849 1.390 . S
C855 C852 1.386 . S
C856 C851 1.490 . S
C856 C858 1.395 . S
C856 C859 1.403 . S
H857 C863 0.930 . S
C858 H844 0.930 . S
C858 C856 1.395 . S
C858 C861 1.403 . S
C859 C856 1.403 . S
C859 C860 1.524 . S
C859 C863 1.400 . S
C860 H845 0.960 . S
C860 H846 0.960 . S
C860 H847 0.960 . S
C860 C859 1.524 . S
C861 C858 1.403 . S
C861 C862 1.392 . S
C861 C865 1.495 . S
C862 C861 1.392 . S
C862 C863 1.385 . S
C862 C864 1.478 . S
C863 H857 0.930 . S
C863 C859 1.400 . S
C863 C862 1.385 . S
C864 C862 1.478 . S
C864 C866 1.381 . S
C864 C870 1.383 . S
C865 C861 1.495 . S
C865 H871 0.959 . S
C865 H872 0.961 . S
C865 H873 0.960 . S
C866 C864 1.381 . S
C866 C867 1.394 . S
C866 H874 0.930 . S
C867 C866 1.394 . S
C867 C868 1.383 . S
C867 H875 0.929 . S
C868 C867 1.383 . S
C868 C869 1.377 . S
C869 H853 0.930 . S
C869 C868 1.377 . S
C869 C870 1.379 . S
C870 H854 0.931 . S
C870 C864 1.383 . S
C870 C869 1.379 . S
H871 C865 0.959 . S
H872 C865 0.961 . S
H873 C865 0.960 . S
H874 C866 0.930 . S
H875 C867 0.929 . S
H876 C884 0.929 . S
H877 C886 0.930 . S
H878 C888 0.930 . S
H879 C891 0.929 . S
H880 C894 0.930 . S
H881 C896 0.966 1_565 S
H882 C896 0.936 1_565 S
H883 C896 0.984 . S
C884 H876 0.929 . S
C884 C885 1.377 1_565 S
C884 C886 1.384 . S
C885 C884 1.377 1_545 S
C885 C891 1.390 . S
C886 H877 0.930 . S
C886 C884 1.384 . S
C886 C887 1.372 1_565 S
C887 C886 1.372 1_545 S
C887 C888 1.400 . S
C887 C892 1.490 . S
C888 H878 0.930 . S
C888 C887 1.400 . S
C888 C891 1.386 . S
H889 C905 0.930 . S
H890 C906 0.931 . S
C891 H879 0.929 . S
C891 C885 1.390 . S
C891 C888 1.386 . S
C892 C887 1.490 . S
C892 C894 1.395 . S
C892 C895 1.403 . S
H893 C899 0.930 . S
C894 H880 0.930 . S
C894 C892 1.395 . S
C894 C897 1.403 . S
C895 C892 1.403 . S
C895 C896 1.520 . S
C895 C899 1.400 . S
C896 H881 0.966 1_545 S
C896 H882 0.936 1_545 S
C896 H883 0.984 . S
C896 C895 1.520 . S
C897 C894 1.403 . S
C897 C898 1.392 . S
C897 C901 1.495 . S
C898 C897 1.392 . S
C898 C899 1.385 . S
C898 C900 1.478 . S
C899 H893 0.930 . S
C899 C895 1.400 . S
C899 C898 1.385 . S
C900 C898 1.478 . S
C900 C902 1.381 1_545 S
C900 C906 1.383 . S
C901 C897 1.495 . S
C901 H907 0.959 . S
C901 H908 0.961 . S
C901 H909 0.960 . S
C902 C900 1.381 1_565 S
C902 C903 1.394 . S
C902 H910 0.930 . S
C903 C902 1.394 . S
C903 C904 1.383 1_565 S
C903 H911 0.929 . S
C904 C903 1.383 1_545 S
C904 C905 1.377 . S
C905 H889 0.930 . S
C905 C904 1.377 . S
C905 C906 1.379 . S
C906 H890 0.931 . S
C906 C900 1.383 . S
C906 C905 1.379 . S
H907 C901 0.959 . S
H908 C901 0.961 . S
H909 C901 0.960 . S
H910 C902 0.930 . S
H911 C903 0.929 . S
H912 C920 0.929 . S
H913 C922 0.930 . S
H914 C924 0.930 . S
H915 C927 0.929 . S
H916 C930 0.930 . S
H917 C932 0.960 . S
H918 C932 0.960 . S
H919 C932 0.960 . S
C920 H912 0.929 . S
C920 C921 1.377 . S
C920 C922 1.384 . S
C921 C920 1.377 . S
C921 C927 1.390 . S
C922 H913 0.930 . S
C922 C920 1.384 . S
C922 C923 1.372 . S
C923 C922 1.372 . S
C923 C924 1.400 . S
C923 C928 1.490 . S
C924 H914 0.930 . S
C924 C923 1.400 . S
C924 C927 1.386 . S
H925 C941 0.930 . S
H926 C942 0.931 1_556 S
C927 H915 0.929 . S
C927 C921 1.390 . S
C927 C924 1.386 . S
C928 C923 1.490 . S
C928 C930 1.395 . S
C928 C931 1.403 . S
H929 C935 0.930 . S
C930 H916 0.930 . S
C930 C928 1.395 . S
C930 C933 1.403 . S
C931 C928 1.403 . S
C931 C932 1.524 . S
C931 C935 1.400 . S
C932 H917 0.960 . S
C932 H918 0.960 . S
C932 H919 0.960 . S
C932 C931 1.524 . S
C933 C930 1.403 . S
C933 C934 1.392 . S
C933 C937 1.495 . S
C934 C933 1.392 . S
C934 C935 1.385 . S
C934 C936 1.478 . S
C935 H929 0.930 . S
C935 C931 1.400 . S
C935 C934 1.385 . S
C936 C934 1.478 . S
C936 C938 1.381 1_556 S
C936 C942 1.383 1_556 S
C937 C933 1.495 . S
C937 H943 0.959 . S
C937 H944 0.961 . S
C937 H945 0.960 . S
C938 C936 1.381 1_554 S
C938 C939 1.394 . S
C938 H946 0.930 1_554 S
C939 C938 1.394 . S
C939 C940 1.383 . S
C939 H947 0.929 . S
C940 C939 1.383 . S
C940 C941 1.377 . S
C941 H925 0.930 . S
C941 C940 1.377 . S
C941 C942 1.379 . S
C942 H926 0.931 1_554 S
C942 C936 1.383 1_554 S
C942 C941 1.379 . S
H943 C937 0.959 . S
H944 C937 0.961 . S
H945 C937 0.960 . S
H946 C938 0.930 1_556 S
H947 C939 0.929 . S
H948 C956 0.929 . S
H949 C958 0.930 . S
H950 C960 0.930 . S
H951 C963 0.929 . S
H952 C966 0.930 . S
H953 C968 0.960 . S
H954 C968 0.960 . S
H955 C968 0.960 . S
C956 H948 0.929 . S
C956 C957 1.377 . S
C956 C958 1.384 . S
C957 C956 1.377 . S
C957 C963 1.390 1_455 S
C958 H949 0.930 . S
C958 C956 1.384 . S
C958 C959 1.372 . S
C959 C958 1.372 . S
C959 C960 1.400 1_455 S
C959 C964 1.490 . S
C960 H950 0.930 . S
C960 C959 1.400 1_655 S
C960 C963 1.386 . S
H961 C977 0.930 . S
H962 C978 0.931 . S
C963 H951 0.929 . S
C963 C957 1.390 1_655 S
C963 C960 1.386 . S
C964 C959 1.490 . S
C964 C966 1.395 . S
C964 C967 1.403 1_455 S
H965 C971 0.930 . S
C966 H952 0.930 . S
C966 C964 1.395 . S
C966 C969 1.403 . S
C967 C964 1.403 1_655 S
C967 C968 1.524 . S
C967 C971 1.400 . S
C968 H953 0.960 . S
C968 H954 0.960 . S
C968 H955 0.960 . S
C968 C967 1.524 . S
C969 C966 1.403 . S
C969 C970 1.392 . S
C969 C973 1.495 . S
C970 C969 1.392 . S
C970 C971 1.385 1_455 S
C970 C972 1.478 . S
C971 H965 0.930 . S
C971 C967 1.400 . S
C971 C970 1.385 1_655 S
C972 C970 1.478 . S
C972 C974 1.381 . S
C972 C978 1.383 1_455 S
C973 C969 1.495 . S
C973 H979 0.959 . S
C973 H980 0.961 . S
C973 H981 0.960 . S
C974 C972 1.381 . S
C974 C975 1.394 . S
C974 H982 0.930 . S
C975 C974 1.394 . S
C975 C976 1.365 1_455 S
C975 H983 0.929 . S
C976 C975 1.365 1_655 S
C976 C977 1.393 . S
C977 H961 0.930 . S
C977 C976 1.393 . S
C977 C978 1.379 . S
C978 H962 0.931 . S
C978 C972 1.383 1_655 S
C978 C977 1.379 . S
H979 C973 0.959 . S
H980 C973 0.961 . S
H981 C973 0.960 . S
H982 C974 0.930 . S
H983 C975 0.929 . S
C345 C19 1.857 . S
C364 C325 1.809 . S
C381 C46 1.152 . S
C400 C253 1.112 . S
C417 C95 0.318 . S
C436 C289 0.364 . S
C453 C10 1.950 . S
C472 C301 1.941 . S
C508 C229 1.258 . S
C489 C55 1.256 . S
C544 C265 0.378 . S
C525 C86 0.422 . S
C561 C59 3.048 . S
C580 C181 2.965 . S
C597 C90 1.975 . S
C616 C193 1.967 . S
C633 C15 1.237 . S
C652 C121 1.238 . S
C688 C157 2.911 . S
C669 C50 2.926 . S
C724 C217 1.818 . S
C705 C99 1.850 . S
C741 C6 1.153 . S
C760 C145 1.149 . S
C796 C223 1.379 . S
C777 C9 1.329 . S
C813 C58 1.444 . S
C832 C151 1.505 . S
C849 C98 1.693 . S
C868 C187 1.753 . S
C904 C295 1.089 . S
C885 C49 1.091 . S
C940 C331 1.356 . S
C921 C89 1.324 . S
C957 C18 1.445 . S
C976 C259 1.471 . S
