# Generated by pormake.
# Topology ctn, (3,4)-cn, num edge types: 1
# Building blocks:
#     Node 0, Type 0, BuildingBlock: BETDAH_clean_linker_0, # of connection points: 3
#     Node 1, Type 0, BuildingBlock: BETDAH_clean_linker_0, # of connection points: 3
#     Node 2, Type 0, BuildingBlock: BETDAH_clean_linker_0, # of connection points: 3
#     Node 3, Type 0, BuildingBlock: BETDAH_clean_linker_0, # of connection points: 3
#     Node 4, Type 0, BuildingBlock: BETDAH_clean_linker_0, # of connection points: 3
#     Node 5, Type 0, BuildingBlock: BETDAH_clean_linker_0, # of connection points: 3
#     Node 6, Type 0, BuildingBlock: BETDAH_clean_linker_0, # of connection points: 3
#     Node 7, Type 0, BuildingBlock: BETDAH_clean_linker_0, # of connection points: 3
#     Node 8, Type 0, BuildingBlock: BETDAH_clean_linker_0, # of connection points: 3
#     Node 9, Type 0, BuildingBlock: BETDAH_clean_linker_0, # of connection points: 3
#     Node 10, Type 0, BuildingBlock: BETDAH_clean_linker_0, # of connection points: 3
#     Node 11, Type 0, BuildingBlock: BETDAH_clean_linker_0, # of connection points: 3
#     Node 12, Type 0, BuildingBlock: BETDAH_clean_linker_0, # of connection points: 3
#     Node 13, Type 0, BuildingBlock: BETDAH_clean_linker_0, # of connection points: 3
#     Node 14, Type 0, BuildingBlock: BETDAH_clean_linker_0, # of connection points: 3
#     Node 15, Type 0, BuildingBlock: BETDAH_clean_linker_0, # of connection points: 3
#     Node 16, Type 1, BuildingBlock: QUQFOY_clean_sbu_1, # of connection points: 4
#     Node 17, Type 1, BuildingBlock: QUQFOY_clean_sbu_1, # of connection points: 4
#     Node 18, Type 1, BuildingBlock: QUQFOY_clean_sbu_1, # of connection points: 4
#     Node 19, Type 1, BuildingBlock: QUQFOY_clean_sbu_1, # of connection points: 4
#     Node 20, Type 1, BuildingBlock: QUQFOY_clean_sbu_1, # of connection points: 4
#     Node 21, Type 1, BuildingBlock: QUQFOY_clean_sbu_1, # of connection points: 4
#     Node 22, Type 1, BuildingBlock: QUQFOY_clean_sbu_1, # of connection points: 4
#     Node 23, Type 1, BuildingBlock: QUQFOY_clean_sbu_1, # of connection points: 4
#     Node 24, Type 1, BuildingBlock: QUQFOY_clean_sbu_1, # of connection points: 4
#     Node 25, Type 1, BuildingBlock: QUQFOY_clean_sbu_1, # of connection points: 4
#     Node 26, Type 1, BuildingBlock: QUQFOY_clean_sbu_1, # of connection points: 4
#     Node 27, Type 1, BuildingBlock: QUQFOY_clean_sbu_1, # of connection points: 4
#     Edge 28, Type (0, 1), BuildingBlock: UVAHIK_clean_linker_0, # of connection points: 2
#     Edge 29, Type (0, 1), BuildingBlock: UVAHIK_clean_linker_0, # of connection points: 2
#     Edge 30, Type (0, 1), BuildingBlock: UVAHIK_clean_linker_0, # of connection points: 2
#     Edge 31, Type (0, 1), BuildingBlock: UVAHIK_clean_linker_0, # of connection points: 2
#     Edge 32, Type (0, 1), BuildingBlock: UVAHIK_clean_linker_0, # of connection points: 2
#     Edge 33, Type (0, 1), BuildingBlock: UVAHIK_clean_linker_0, # of connection points: 2
#     Edge 34, Type (0, 1), BuildingBlock: UVAHIK_clean_linker_0, # of connection points: 2
#     Edge 35, Type (0, 1), BuildingBlock: UVAHIK_clean_linker_0, # of connection points: 2
#     Edge 36, Type (0, 1), BuildingBlock: UVAHIK_clean_linker_0, # of connection points: 2
#     Edge 37, Type (0, 1), BuildingBlock: UVAHIK_clean_linker_0, # of connection points: 2
#     Edge 38, Type (0, 1), BuildingBlock: UVAHIK_clean_linker_0, # of connection points: 2
#     Edge 39, Type (0, 1), BuildingBlock: UVAHIK_clean_linker_0, # of connection points: 2
#     Edge 40, Type (0, 1), BuildingBlock: UVAHIK_clean_linker_0, # of connection points: 2
#     Edge 41, Type (0, 1), BuildingBlock: UVAHIK_clean_linker_0, # of connection points: 2
#     Edge 42, Type (0, 1), BuildingBlock: UVAHIK_clean_linker_0, # of connection points: 2
#     Edge 43, Type (0, 1), BuildingBlock: UVAHIK_clean_linker_0, # of connection points: 2
#     Edge 44, Type (0, 1), BuildingBlock: UVAHIK_clean_linker_0, # of connection points: 2
#     Edge 45, Type (0, 1), BuildingBlock: UVAHIK_clean_linker_0, # of connection points: 2
#     Edge 46, Type (0, 1), BuildingBlock: UVAHIK_clean_linker_0, # of connection points: 2
#     Edge 47, Type (0, 1), BuildingBlock: UVAHIK_clean_linker_0, # of connection points: 2
#     Edge 48, Type (0, 1), BuildingBlock: UVAHIK_clean_linker_0, # of connection points: 2
#     Edge 49, Type (0, 1), BuildingBlock: UVAHIK_clean_linker_0, # of connection points: 2
#     Edge 50, Type (0, 1), BuildingBlock: UVAHIK_clean_linker_0, # of connection points: 2
#     Edge 51, Type (0, 1), BuildingBlock: UVAHIK_clean_linker_0, # of connection points: 2
#     Edge 52, Type (0, 1), BuildingBlock: UVAHIK_clean_linker_0, # of connection points: 2
#     Edge 53, Type (0, 1), BuildingBlock: UVAHIK_clean_linker_0, # of connection points: 2
#     Edge 54, Type (0, 1), BuildingBlock: UVAHIK_clean_linker_0, # of connection points: 2
#     Edge 55, Type (0, 1), BuildingBlock: UVAHIK_clean_linker_0, # of connection points: 2
#     Edge 56, Type (0, 1), BuildingBlock: UVAHIK_clean_linker_0, # of connection points: 2
#     Edge 57, Type (0, 1), BuildingBlock: UVAHIK_clean_linker_0, # of connection points: 2
#     Edge 58, Type (0, 1), BuildingBlock: UVAHIK_clean_linker_0, # of connection points: 2
#     Edge 59, Type (0, 1), BuildingBlock: UVAHIK_clean_linker_0, # of connection points: 2
#     Edge 60, Type (0, 1), BuildingBlock: UVAHIK_clean_linker_0, # of connection points: 2
#     Edge 61, Type (0, 1), BuildingBlock: UVAHIK_clean_linker_0, # of connection points: 2
#     Edge 62, Type (0, 1), BuildingBlock: UVAHIK_clean_linker_0, # of connection points: 2
#     Edge 63, Type (0, 1), BuildingBlock: UVAHIK_clean_linker_0, # of connection points: 2
#     Edge 64, Type (0, 1), BuildingBlock: UVAHIK_clean_linker_0, # of connection points: 2
#     Edge 65, Type (0, 1), BuildingBlock: UVAHIK_clean_linker_0, # of connection points: 2
#     Edge 66, Type (0, 1), BuildingBlock: UVAHIK_clean_linker_0, # of connection points: 2
#     Edge 67, Type (0, 1), BuildingBlock: UVAHIK_clean_linker_0, # of connection points: 2
#     Edge 68, Type (0, 1), BuildingBlock: UVAHIK_clean_linker_0, # of connection points: 2
#     Edge 69, Type (0, 1), BuildingBlock: UVAHIK_clean_linker_0, # of connection points: 2
#     Edge 70, Type (0, 1), BuildingBlock: UVAHIK_clean_linker_0, # of connection points: 2
#     Edge 71, Type (0, 1), BuildingBlock: UVAHIK_clean_linker_0, # of connection points: 2
#     Edge 72, Type (0, 1), BuildingBlock: UVAHIK_clean_linker_0, # of connection points: 2
#     Edge 73, Type (0, 1), BuildingBlock: UVAHIK_clean_linker_0, # of connection points: 2
#     Edge 74, Type (0, 1), BuildingBlock: UVAHIK_clean_linker_0, # of connection points: 2
#     Edge 75, Type (0, 1), BuildingBlock: UVAHIK_clean_linker_0, # of connection points: 2
# Relax obj value: 0.074
# Max RMSD: 0.180
# Mean RMSD: 0.124
data_MOF--net-ctn--node1-QUQFOY_clean_sbu_1--node2-BETDAH_clean_linker_0--edge1-UVAHIK_clean_linker_0
_symmetry_space_group_name_H-M    P1
_symmetry_Int_Tables_number       1
_symmetry_cell_setting            triclinic
loop_
_symmetry_equiv_pos_as_xyz
'x, y, z'
_cell_length_a     69.697973
_cell_length_b     69.443111
_cell_length_c     71.038067
_cell_angle_alpha  101.34196
_cell_angle_beta   90.195517
_cell_angle_gamma 99.355675
loop_
_atom_site_label
_atom_site_type_symbol
_atom_site_fract_x
_atom_site_fract_y
_atom_site_fract_z
_atom_type_partial_charge
H0 H 0.10059 0.09334 0.12641 0.0
H1 H 0.13863 0.10376 0.08058 0.0
H2 H 0.09585 0.1413 0.09733 0.0
C3 C 0.10558 0.1019 0.11563 0.0
C4 C 0.09659 0.1181 0.11347 0.0
C5 C 0.12066 0.09641 0.10377 0.0
C6 C 0.12713 0.1078 0.09003 0.0
C7 C 0.1182 0.12379 0.0875 0.0
C8 C 0.10274 0.12884 0.09911 0.0
N9 N 0.12527 0.13441 0.07312 0.0
C10 C 0.11443 0.14544 0.06428 0.0
H11 H 0.31553 0.72397 0.24919 0.0
H12 H 0.31713 0.78407 0.24083 0.0
H13 H 0.26238 0.74661 0.2443 0.0
C14 C 0.30814 0.73593 0.24692 0.0
C15 C 0.28774 0.73282 0.24632 0.0
C16 C 0.31903 0.75438 0.24512 0.0
C17 C 0.30907 0.76975 0.24226 0.0
C18 C 0.28862 0.76685 0.242 0.0
C19 C 0.27813 0.74854 0.24422 0.0
N20 N 0.27816 0.78237 0.24051 0.0
C21 C 0.28316 0.79563 0.22836 0.0
H22 H 0.95998 0.44942 0.08372 0.0
H23 H 0.92587 0.49378 0.10885 0.0
H24 H 0.90321 0.44882 0.05968 0.0
C25 C 0.9468 0.45587 0.0839 0.0
C26 C 0.93196 0.44732 0.06999 0.0
C27 C 0.9448 0.47265 0.09796 0.0
C28 C 0.92764 0.48089 0.09802 0.0
C29 C 0.91263 0.47223 0.08418 0.0
C30 C 0.91482 0.45544 0.07032 0.0
N31 N 0.89491 0.4797 0.08425 0.0
C32 C 0.8941 0.49982 0.08607 0.0
H33 H 0.77487 0.84755 0.2145 0.0
H34 H 0.71902 0.81667 0.22691 0.0
H35 H 0.73551 0.87901 0.25015 0.0
C36 C 0.76117 0.8476 0.22166 0.0
C37 C 0.75722 0.86537 0.23311 0.0
C38 C 0.74737 0.82998 0.21905 0.0
C39 C 0.72974 0.83013 0.22865 0.0
C40 C 0.72563 0.84785 0.23994 0.0
C41 C 0.73915 0.86536 0.24177 0.0
N42 N 0.70766 0.84874 0.249 0.0
C43 C 0.69848 0.83397 0.25806 0.0
H44 H 0.07658 0.02605 0.45411 0.0
H45 H 0.08349 0.97725 0.48126 0.0
H46 H 0.03801 0.97004 0.43816 0.0
C47 C 0.07168 0.01097 0.45609 0.0
C48 C 0.05588 0.99917 0.44484 0.0
C49 C 0.08192 0.0031 0.46903 0.0
C50 C 0.0757 0.98342 0.47127 0.0
C51 C 0.05971 0.97156 0.46022 0.0
C52 C 0.05022 0.97933 0.44675 0.0
N53 N 0.05309 0.95165 0.46208 0.0
C54 C 0.05333 0.94551 0.47953 0.0
H55 H 0.26221 0.73931 0.83022 0.0
H56 H 0.23186 0.7754 0.80184 0.0
H57 H 0.26058 0.73052 0.76858 0.0
C58 C 0.25755 0.74328 0.81714 0.0
C59 C 0.26275 0.73298 0.79936 0.0
C60 C 0.24653 0.7587 0.81829 0.0
C61 C 0.24023 0.76345 0.80119 0.0
C62 C 0.2454 0.7533 0.78325 0.0
C63 C 0.25684 0.73836 0.78247 0.0
N64 N 0.23948 0.75783 0.76571 0.0
C65 C 0.2234 0.76688 0.76379 0.0
H66 H 0.9354 0.5838 0.52138 0.0
H67 H 0.97668 0.5932 0.47771 0.0
H68 H 0.9318 0.54152 0.46797 0.0
C69 C 0.94097 0.57898 0.5073 0.0
C70 C 0.93183 0.56124 0.49552 0.0
C71 C 0.95721 0.59056 0.50102 0.0
C72 C 0.96425 0.58426 0.48267 0.0
C73 C 0.95506 0.56643 0.47078 0.0
C74 C 0.93891 0.55514 0.47727 0.0
N75 N 0.96129 0.55948 0.45207 0.0
C76 C 0.97972 0.56503 0.44556 0.0
H77 H 0.82602 0.80625 0.82347 0.0
H78 H 0.7923 0.83712 0.79207 0.0
H79 H 0.76788 0.81334 0.83976 0.0
C80 C 0.81262 0.81161 0.82115 0.0
C81 C 0.79723 0.8085 0.83347 0.0
C82 C 0.81098 0.82161 0.80593 0.0
C83 C 0.79392 0.82956 0.8038 0.0
C84 C 0.77846 0.8267 0.81621 0.0
C85 C 0.78012 0.81596 0.83069 0.0
N86 N 0.76062 0.83352 0.81403 0.0
C87 C 0.75855 0.84964 0.80576 0.0
H88 H 0.32536 0.28073 0.3154 0.0
H89 H 0.2889 0.30741 0.28237 0.0
H90 H 0.26626 0.28387 0.33085 0.0
C91 C 0.31144 0.28492 0.3127 0.0
C92 C 0.2962 0.28121 0.32502 0.0
C93 C 0.309 0.29419 0.29712 0.0
C94 C 0.29113 0.30048 0.29442 0.0
C95 C 0.27575 0.29678 0.3067 0.0
C96 C 0.27833 0.287 0.32172 0.0
N97 N 0.25719 0.30188 0.30394 0.0
C98 C 0.25401 0.31755 0.29549 0.0
H99 H 0.47879 0.9272 0.56888 0.0
H100 H 0.44247 0.97184 0.58483 0.0
H101 H 0.42155 0.91904 0.54262 0.0
C102 C 0.46529 0.9326 0.56712 0.0
C103 C 0.45073 0.92096 0.55412 0.0
C104 C 0.46245 0.95091 0.57828 0.0
C105 C 0.44476 0.95769 0.57633 0.0
C106 C 0.42998 0.94607 0.56347 0.0
C107 C 0.43294 0.92769 0.55269 0.0
N108 N 0.41194 0.95238 0.56105 0.0
C109 C 0.40985 0.97224 0.56327 0.0
H110 H 0.2891 0.31156 0.73882 0.0
H111 H 0.26707 0.2534 0.74957 0.0
H112 H 0.25527 0.30547 0.78852 0.0
C113 C 0.28072 0.30228 0.74751 0.0
C114 C 0.27235 0.31117 0.76431 0.0
C115 C 0.27873 0.2815 0.74188 0.0
C116 C 0.26887 0.26948 0.75373 0.0
C117 C 0.26033 0.27799 0.77046 0.0
C118 C 0.262 0.29885 0.77568 0.0
N119 N 0.24993 0.26514 0.78157 0.0
C120 C 0.23593 0.27085 0.7944 0.0
H121 H 0.84388 0.21347 0.73354 0.0
H122 H 0.88119 0.25038 0.70199 0.0
H123 H 0.81951 0.23817 0.68976 0.0
C124 C 0.8458 0.22245 0.72262 0.0
C125 C 0.82947 0.22449 0.71197 0.0
C126 C 0.86454 0.23181 0.71933 0.0
C127 C 0.86683 0.24326 0.70502 0.0
C128 C 0.85073 0.24584 0.69453 0.0
C129 C 0.832 0.23639 0.69797 0.0
N130 N 0.85408 0.25789 0.68053 0.0
C131 C 0.83984 0.26582 0.67232 0.0
H132 H 0.54441 0.55581 0.59944 0.0
H133 H 0.55571 0.58314 0.55027 0.0
H134 H 0.51727 0.60557 0.59312 0.0
C135 C 0.54186 0.56674 0.59115 0.0
C136 C 0.52922 0.58011 0.59812 0.0
C137 C 0.55147 0.56754 0.57386 0.0
C138 C 0.54858 0.58239 0.56369 0.0
C139 C 0.53648 0.59631 0.5709 0.0
C140 C 0.52698 0.59511 0.58805 0.0
N141 N 0.53348 0.61177 0.56137 0.0
C142 C 0.53692 0.61179 0.54213 0.0
H143 H 0.57837 0.50727 0.94925 0.0
H144 H 0.59446 0.46297 0.97819 0.0
H145 H 0.54263 0.44948 0.94189 0.0
C146 C 0.57535 0.49255 0.95267 0.0
C147 C 0.55879 0.47925 0.94437 0.0
C148 C 0.58848 0.48672 0.96463 0.0
C149 C 0.58454 0.46755 0.96881 0.0
C150 C 0.56792 0.45417 0.96065 0.0
C151 C 0.55542 0.4599 0.94812 0.0
N152 N 0.56349 0.43484 0.9648 0.0
C153 C 0.56605 0.43126 0.98312 0.0
H154 H 0.77483 0.26235 0.32 0.0
H155 H 0.74047 0.29295 0.28924 0.0
H156 H 0.78048 0.2579 0.25901 0.0
C157 C 0.7707 0.26615 0.30663 0.0
C158 C 0.77937 0.25861 0.28954 0.0
C159 C 0.75673 0.27859 0.30659 0.0
C160 C 0.75127 0.28335 0.28925 0.0
C161 C 0.75974 0.27574 0.27201 0.0
C162 C 0.77388 0.2636 0.27231 0.0
N163 N 0.75431 0.27997 0.25417 0.0
C164 C 0.73652 0.28549 0.25085 0.0
H165 H 0.43626 0.0923 0.99388 0.0
H166 H 0.46861 0.11231 0.94782 0.0
H167 H 0.42049 0.06394 0.93523 0.0
C168 C 0.43898 0.09079 0.97868 0.0
C169 C 0.42678 0.07634 0.96538 0.0
C170 C 0.45392 0.10402 0.97249 0.0
C171 C 0.45708 0.1022 0.95273 0.0
C172 C 0.44503 0.08762 0.93931 0.0
C173 C 0.42973 0.07509 0.94569 0.0
N174 N 0.44767 0.08538 0.91928 0.0
C175 C 0.46574 0.08918 0.91139 0.0
O176 O 0.25237 0.87622 0.01508 0.0
Cd177 Cd 0.2631 0.89786 0.03873 0.0
Cd178 Cd 0.23492 0.91571 0.02731 0.0
O179 O 0.22711 0.88921 0.00798 0.0
O180 O 0.27973 0.88479 0.05336 0.0
O181 O 0.25352 0.89622 0.06517 0.0
C182 C 0.26817 0.8875 0.06739 0.0
C183 C 0.21144 0.93096 0.04494 0.0
C184 C 0.2372 0.87531 0.00473 0.0
C185 C 0.27609 0.93594 0.02545 0.0
O186 O 0.25834 0.93521 0.02078 0.0
O187 O 0.2811 0.92287 0.03382 0.0
O188 O 0.21263 0.93008 0.0267 0.0
O189 O 0.22325 0.9224 0.05322 0.0
O190 O 0.17246 0.53956 0.27817 0.0
Cd191 Cd 0.15477 0.51621 0.28666 0.0
Cd192 Cd 0.12662 0.52874 0.2637 0.0
O193 O 0.15166 0.54656 0.25804 0.0
O194 O 0.17337 0.50195 0.29746 0.0
O195 O 0.15421 0.48813 0.27189 0.0
C196 C 0.16771 0.48679 0.28385 0.0
C197 C 0.10255 0.52029 0.2389 0.0
C198 C 0.16856 0.54956 0.26591 0.0
C199 C 0.12072 0.53105 0.30673 0.0
O200 O 0.11561 0.53459 0.29073 0.0
O201 O 0.13561 0.52294 0.30815 0.0
O202 O 0.10721 0.53816 0.24859 0.0
O203 O 0.11174 0.5069 0.24311 0.0
O204 O 0.78512 0.6961 0.99398 0.0
Cd205 Cd 0.77661 0.67995 0.01491 0.0
Cd206 Cd 0.79966 0.65568 0.99567 0.0
O207 O 0.80457 0.67676 0.97855 0.0
O208 O 0.76275 0.69766 0.03354 0.0
O209 O 0.78964 0.68758 0.04136 0.0
C210 C 0.77572 0.69749 0.04644 0.0
C211 C 0.82446 0.64687 0.01244 0.0
C212 C 0.79665 0.69226 0.98043 0.0
C213 C 0.75818 0.6376 0.99774 0.0
O214 O 0.77453 0.63487 0.99084 0.0
O215 O 0.75619 0.65439 0.00777 0.0
O216 O 0.82164 0.6405 0.99414 0.0
O217 O 0.81373 0.65919 0.02107 0.0
O218 O 0.95339 0.06583 0.28879 0.0
Cd219 Cd 0.93627 0.06948 0.26635 0.0
Cd220 Cd 0.91572 0.08493 0.29517 0.0
O221 O 0.93881 0.08282 0.3124 0.0
O222 O 0.95237 0.06526 0.24334 0.0
O223 O 0.94275 0.09398 0.2548 0.0
C224 C 0.95217 0.08351 0.24216 0.0
C225 C 0.90336 0.11443 0.29756 0.0
C226 C 0.9523 0.07304 0.30658 0.0
C227 C 0.89674 0.04686 0.2697 0.0
O228 O 0.89617 0.05917 0.28541 0.0
O229 O 0.91115 0.04903 0.25897 0.0
O230 O 0.90007 0.10356 0.31036 0.0
O231 O 0.91445 0.10891 0.28367 0.0
O232 O 0.30012 0.18405 0.49564 0.0
Cd233 Cd 0.29252 0.16984 0.5181 0.0
Cd234 Cd 0.30752 0.14055 0.49563 0.0
O235 O 0.31273 0.16025 0.47713 0.0
O236 O 0.28688 0.19148 0.53911 0.0
O237 O 0.3099 0.17359 0.54172 0.0
C238 C 0.30049 0.18757 0.54934 0.0
C239 C 0.33227 0.12684 0.50732 0.0
C240 C 0.30809 0.17754 0.48014 0.0
C241 C 0.2656 0.131 0.50488 0.0
O242 O 0.27979 0.12473 0.49583 0.0
O243 O 0.26766 0.14865 0.51468 0.0
O244 O 0.32529 0.12061 0.48993 0.0
O245 O 0.32567 0.14155 0.51788 0.0
O246 O 0.4195 0.52844 0.80581 0.0
Cd247 Cd 0.39968 0.53146 0.78531 0.0
Cd248 Cd 0.38476 0.54993 0.81639 0.0
O249 O 0.41028 0.54894 0.83056 0.0
O250 O 0.41226 0.52275 0.7607 0.0
O251 O 0.40653 0.55344 0.77041 0.0
C252 C 0.41364 0.54066 0.75783 0.0
C253 C 0.37399 0.57937 0.8144 0.0
C254 C 0.42197 0.53752 0.82324 0.0
C255 C 0.36136 0.51165 0.79633 0.0
O256 O 0.36412 0.52445 0.81195 0.0
O257 O 0.37307 0.51285 0.78278 0.0
O258 O 0.37209 0.57215 0.82985 0.0
O259 O 0.38281 0.57018 0.80028 0.0
O260 O 0.73109 0.37427 0.50812 0.0
Cd261 Cd 0.74031 0.39066 0.53496 0.0
Cd262 Cd 0.71698 0.41771 0.51981 0.0
O263 O 0.71378 0.39383 0.49681 0.0
O264 O 0.75799 0.37362 0.54276 0.0
O265 O 0.73258 0.38061 0.55943 0.0
C266 C 0.74772 0.372 0.55751 0.0
C267 C 0.6908 0.43507 0.52589 0.0
C268 C 0.72083 0.37779 0.49475 0.0
C269 C 0.7596 0.43253 0.53158 0.0
O270 O 0.74376 0.43587 0.52501 0.0
O271 O 0.76061 0.41599 0.53625 0.0
O272 O 0.70145 0.4363 0.51129 0.0
O273 O 0.6946 0.42341 0.53698 0.0
O274 O 0.67947 0.06928 0.76694 0.0
Cd275 Cd 0.662 0.04619 0.77622 0.0
Cd276 Cd 0.63641 0.05173 0.74721 0.0
O277 O 0.66128 0.06987 0.74163 0.0
O278 O 0.67981 0.03429 0.79084 0.0
O279 O 0.66371 0.01774 0.76412 0.0
C280 C 0.67586 0.01811 0.77802 0.0
C281 C 0.61546 0.03663 0.72065 0.0
C282 C 0.67681 0.07606 0.75194 0.0
C283 C 0.62469 0.05924 0.78912 0.0
O284 O 0.62174 0.06042 0.77175 0.0
O285 O 0.63965 0.05288 0.79406 0.0
O286 O 0.61806 0.05551 0.72725 0.0
O287 O 0.62514 0.02606 0.72893 0.0
O288 O 0.99813 0.27993 0.93199 0.0
Cd289 Cd 0.00871 0.25654 0.91506 0.0
Cd290 Cd 0.02946 0.28604 0.90045 0.0
O291 O 0.01719 0.30419 0.92187 0.0
O292 O 0.00504 0.23422 0.92928 0.0
O293 O 0.03392 0.25029 0.92365 0.0
C294 C 0.02374 0.23691 0.9315 0.0
C295 C 0.06283 0.29122 0.89565 0.0
C296 C 0.00401 0.2984 0.9328 0.0
C297 C 0.0005 0.25607 0.87373 0.0
O298 O 0.0122 0.2725 0.87648 0.0
O299 O 0.9975 0.24636 0.88718 0.0
O300 O 0.05184 0.30295 0.89103 0.0
O301 O 0.05493 0.27691 0.90372 0.0
O302 O 0.48621 0.74671 0.40376 0.0
Cd303 Cd 0.49353 0.72652 0.3806 0.0
Cd304 Cd 0.51984 0.75628 0.37583 0.0
O305 O 0.51366 0.76749 0.4038 0.0
O306 O 0.48636 0.69938 0.3863 0.0
O307 O 0.51683 0.71439 0.38506 0.0
C308 C 0.50477 0.69939 0.38856 0.0
C309 C 0.55206 0.75886 0.36654 0.0
C310 C 0.49788 0.76222 0.41174 0.0
C311 C 0.48653 0.7435 0.34694 0.0
O312 O 0.49993 0.75752 0.35473 0.0
O313 O 0.48274 0.72777 0.35381 0.0
O314 O 0.54371 0.77431 0.37094 0.0
O315 O 0.54225 0.74178 0.3679 0.0
O316 O 0.98964 0.8072 0.69239 0.0
Cd317 Cd 0.01326 0.79862 0.67761 0.0
Cd318 Cd 0.99864 0.81853 0.65082 0.0
O319 O 0.97915 0.82416 0.67238 0.0
O320 O 0.02779 0.78853 0.69674 0.0
O321 O 0.04066 0.81365 0.68346 0.0
C322 C 0.04256 0.80177 0.69498 0.0
C323 C 0.00925 0.84387 0.63403 0.0
C324 C 0.97764 0.81767 0.68794 0.0
C325 C 0.00096 0.77463 0.63809 0.0
O326 O 0.99604 0.79021 0.63401 0.0
O327 O 0.00815 0.77498 0.65463 0.0
O328 O 0.99162 0.83451 0.63229 0.0
O329 O 0.02103 0.83922 0.64583 0.0
O330 O 0.49025 0.29454 0.18536 0.0
Cd331 Cd 0.51434 0.28888 0.16979 0.0
Cd332 Cd 0.50077 0.31134 0.14746 0.0
O333 O 0.48035 0.31474 0.16844 0.0
O334 O 0.53141 0.27932 0.18718 0.0
O335 O 0.54046 0.30653 0.17545 0.0
C336 C 0.54458 0.29429 0.18581 0.0
C337 C 0.51663 0.33895 0.13638 0.0
C338 C 0.47833 0.30579 0.18248 0.0
C339 C 0.50284 0.26879 0.12919 0.0
O340 O 0.49755 0.28501 0.12734 0.0
O341 O 0.51023 0.26722 0.14508 0.0
O342 O 0.49847 0.33208 0.1323 0.0
O343 O 0.52578 0.33054 0.14749 0.0
C344 C 0.25598 0.77417 0.85269 0.0
C345 C 0.242 0.7698 0.83746 0.0
C346 C 0.25159 0.78341 0.87103 0.0
C347 C 0.22194 0.81675 0.89746 0.0
H348 H 0.23542 0.79428 0.94061 0.0
C349 C 0.21628 0.85824 0.97542 0.0
C350 C 0.23254 0.85914 0.98754 0.0
C351 C 0.21355 0.84481 0.95778 0.0
C352 C 0.23165 0.80082 0.92875 0.0
H353 H 0.21254 0.77238 0.82959 0.0
H354 H 0.20513 0.78931 0.86175 0.0
H355 H 0.23845 0.77633 0.9079 0.0
H356 H 0.25811 0.84586 0.99104 0.0
H357 H 0.25363 0.82288 0.9603 0.0
H358 H 0.21616 0.84176 0.91818 0.0
C359 C 0.21939 0.78519 0.85934 0.0
C360 C 0.23331 0.79049 0.91004 0.0
C361 C 0.22369 0.77562 0.84094 0.0
C362 C 0.24542 0.8456 0.98208 0.0
C363 C 0.24277 0.83228 0.96443 0.0
C364 C 0.22049 0.82724 0.91621 0.0
C365 C 0.23323 0.78885 0.87459 0.0
C366 C 0.22893 0.79859 0.89423 0.0
C367 C 0.22706 0.83203 0.95184 0.0
C368 C 0.22582 0.81963 0.93209 0.0
H369 H 0.27042 0.77048 0.85046 0.0
H370 H 0.26268 0.7865 0.88245 0.0
H371 H 0.21857 0.82334 0.88549 0.0
H372 H 0.20598 0.86836 0.97925 0.0
H373 H 0.2011 0.84477 0.9486 0.0
C374 C 0.01364 0.55963 0.44265 0.0
C375 C 0.99811 0.56762 0.43649 0.0
C376 C 0.03028 0.55885 0.43176 0.0
C377 C 0.05565 0.57695 0.39091 0.0
H378 H 0.07187 0.52514 0.3811 0.0
C379 C 0.09409 0.54772 0.32256 0.0
C380 C 0.10926 0.53689 0.32384 0.0
C381 C 0.08323 0.55344 0.33853 0.0
C382 C 0.06779 0.53981 0.38393 0.0
H383 H 0.98759 0.58161 0.41479 0.0
H384 H 0.01656 0.58025 0.39562 0.0
H385 H 0.04838 0.53254 0.40568 0.0
H386 H 0.12498 0.52367 0.34302 0.0
H387 H 0.10581 0.53362 0.37101 0.0
H388 H 0.07458 0.58392 0.36865 0.0
C389 C 0.01622 0.57487 0.40895 0.0
C390 C 0.05434 0.54409 0.39805 0.0
C391 C 0.99961 0.57563 0.41985 0.0
C392 C 0.11336 0.53196 0.34154 0.0
C393 C 0.10237 0.53762 0.35755 0.0
C394 C 0.06906 0.57265 0.37676 0.0
C395 C 0.03154 0.56598 0.4145 0.0
C396 C 0.04777 0.56254 0.4014 0.0
C397 C 0.0872 0.54844 0.3562 0.0
C398 C 0.07491 0.55387 0.3728 0.0
H399 H 0.01259 0.55324 0.45543 0.0
H400 H 0.04191 0.55214 0.43655 0.0
H401 H 0.05115 0.59142 0.39336 0.0
H402 H 0.09051 0.55179 0.30918 0.0
H403 H 0.07143 0.56146 0.33692 0.0
C404 C 0.79154 0.8031 0.86715 0.0
C405 C 0.79888 0.79708 0.8489 0.0
C406 C 0.79296 0.79224 0.88156 0.0
C407 C 0.79969 0.74239 0.88879 0.0
H408 H 0.81081 0.7697 0.94173 0.0
C409 C 0.81002 0.69996 0.94943 0.0
C410 C 0.79994 0.70543 0.96624 0.0
C411 C 0.81169 0.71166 0.93537 0.0
C412 C 0.80759 0.76186 0.92703 0.0
H413 H 0.81333 0.77474 0.83151 0.0
H414 H 0.81623 0.75611 0.85677 0.0
H415 H 0.81005 0.78903 0.91662 0.0
H416 H 0.78428 0.72786 0.98171 0.0
H417 H 0.78718 0.74815 0.95725 0.0
H418 H 0.79714 0.71522 0.89924 0.0
C419 C 0.80918 0.76912 0.85988 0.0
C420 C 0.8071 0.77293 0.91264 0.0
C421 C 0.80773 0.77995 0.84546 0.0
C422 C 0.79212 0.72317 0.96893 0.0
C423 C 0.79387 0.73489 0.95494 0.0
C424 C 0.80025 0.73132 0.90318 0.0
C425 C 0.80177 0.77509 0.87811 0.0
C426 C 0.80297 0.76333 0.89336 0.0
C427 C 0.80343 0.72913 0.93788 0.0
C428 C 0.80403 0.74093 0.92248 0.0
H429 H 0.7848 0.81632 0.87034 0.0
H430 H 0.78688 0.79714 0.89535 0.0
H431 H 0.79618 0.73449 0.87415 0.0
H432 H 0.81626 0.68642 0.9469 0.0
H433 H 0.81935 0.70696 0.92248 0.0
C434 C 0.03965 0.02617 0.43655 0.0
C435 C 0.04562 0.00757 0.43089 0.0
C436 C 0.03035 0.03436 0.42333 0.0
C437 C 0.02545 0.03382 0.37206 0.0
H438 H 0.97719 0.05353 0.38475 0.0
C439 C 0.97686 0.05332 0.31511 0.0
C440 C 0.96572 0.06849 0.32068 0.0
C441 C 0.98785 0.04735 0.32874 0.0
C442 C 0.99085 0.04848 0.38107 0.0
H443 H 0.0467 0.98301 0.40704 0.0
H444 H 0.03059 0.99746 0.3838 0.0
H445 H 0.99368 0.04005 0.40826 0.0
H446 H 0.95817 0.09003 0.34479 0.0
H447 H 0.9779 0.08013 0.36849 0.0
H448 H 0.02292 0.04251 0.34503 0.0
C449 C 0.03307 0.00564 0.39848 0.0
C450 C 0.00021 0.04064 0.39453 0.0
C451 C 0.04212 0.99731 0.41178 0.0
C452 C 0.96647 0.07817 0.34006 0.0
C453 C 0.97766 0.07237 0.35367 0.0
C454 C 0.01624 0.04191 0.35868 0.0
C455 C 0.0271 0.02424 0.40414 0.0
C456 C 0.01748 0.03306 0.39007 0.0
C457 C 0.98817 0.05659 0.34825 0.0
C458 C 0.99869 0.04916 0.36293 0.0
H459 H 0.0421 0.03433 0.45124 0.0
H460 H 0.02596 0.04876 0.42803 0.0
H461 H 0.03891 0.02832 0.36838 0.0
H462 H 0.97653 0.04546 0.30032 0.0
H463 H 0.99549 0.03498 0.32401 0.0
C464 C 0.2954 0.25575 0.72121 0.0
C465 C 0.28603 0.27246 0.72312 0.0
C466 C 0.30158 0.24702 0.70327 0.0
C467 C 0.31117 0.25663 0.65413 0.0
H468 H 0.2992 0.19914 0.63846 0.0
C469 C 0.2973 0.21623 0.57575 0.0
C470 C 0.3045 0.1984 0.5694 0.0
C471 C 0.2995 0.22578 0.59501 0.0
C472 C 0.30299 0.21518 0.64273 0.0
H473 H 0.27558 0.29293 0.70765 0.0
H474 H 0.28615 0.27774 0.67654 0.0
H475 H 0.29458 0.21486 0.67164 0.0
H476 H 0.32014 0.17685 0.57811 0.0
H477 H 0.3237 0.19349 0.61206 0.0
H478 H 0.3187 0.25697 0.62499 0.0
C479 C 0.28922 0.27162 0.6889 0.0
C480 C 0.30035 0.2242 0.66175 0.0
C481 C 0.2831 0.28032 0.70676 0.0
C482 C 0.31446 0.19059 0.58262 0.0
C483 C 0.31642 0.20004 0.60202 0.0
C484 C 0.31368 0.24763 0.63513 0.0
C485 C 0.29848 0.25482 0.68689 0.0
C486 C 0.30388 0.24507 0.66753 0.0
C487 C 0.30877 0.21762 0.60842 0.0
C488 C 0.30911 0.22686 0.62912 0.0
H489 H 0.29802 0.24946 0.73359 0.0
H490 H 0.30881 0.2342 0.70224 0.0
H491 H 0.31447 0.27272 0.65822 0.0
H492 H 0.28962 0.22265 0.56589 0.0
H493 H 0.29326 0.23918 0.59954 0.0
C494 C 0.5144 0.59447 0.62904 0.0
C495 C 0.5178 0.57779 0.61544 0.0
C496 C 0.50334 0.59202 0.64508 0.0
C497 C 0.48717 0.55523 0.675 0.0
H498 H 0.44568 0.58567 0.68953 0.0
C499 C 0.42976 0.53156 0.72681 0.0
C500 C 0.42401 0.54635 0.7411 0.0
C501 C 0.44105 0.53671 0.71184 0.0
C502 C 0.45737 0.57724 0.68581 0.0
H503 H 0.51174 0.5455 0.60784 0.0
H504 H 0.49285 0.54128 0.63586 0.0
H505 H 0.46636 0.59256 0.66304 0.0
H506 H 0.4251 0.57817 0.75057 0.0
H507 H 0.44512 0.58723 0.72438 0.0
H508 H 0.47835 0.53991 0.69761 0.0
C509 C 0.49894 0.55623 0.63428 0.0
C510 C 0.46921 0.58118 0.67066 0.0
C511 C 0.50984 0.55867 0.61824 0.0
C512 C 0.42929 0.56644 0.73974 0.0
C513 C 0.44072 0.57162 0.72473 0.0
C514 C 0.47545 0.55136 0.69013 0.0
C515 C 0.49559 0.57285 0.6479 0.0
C516 C 0.48399 0.56995 0.66489 0.0
C517 C 0.44702 0.5568 0.71082 0.0
C518 C 0.46017 0.56203 0.69549 0.0
H519 H 0.52047 0.60941 0.62742 0.0
H520 H 0.5011 0.60509 0.65543 0.0
H521 H 0.49871 0.54661 0.67114 0.0
H522 H 0.42578 0.51593 0.72732 0.0
H523 H 0.44524 0.5249 0.7011 0.0
C524 C 0.80787 0.27543 0.66671 0.0
C525 C 0.82769 0.27627 0.66295 0.0
C526 C 0.79667 0.28652 0.65795 0.0
C527 C 0.80232 0.33021 0.63462 0.0
H528 H 0.75214 0.30664 0.60946 0.0
C529 C 0.77302 0.35708 0.57159 0.0
C530 C 0.75399 0.36137 0.57195 0.0
C531 C 0.77967 0.34767 0.5853 0.0
C532 C 0.76596 0.31351 0.61674 0.0
H533 H 0.8515 0.2888 0.6473 0.0
H534 H 0.83209 0.30792 0.63187 0.0
H535 H 0.76842 0.28794 0.62879 0.0
H536 H 0.72686 0.35881 0.58682 0.0
H537 H 0.73854 0.34168 0.61078 0.0
H538 H 0.80035 0.35532 0.62189 0.0
C539 C 0.82511 0.29909 0.64169 0.0
C540 C 0.77528 0.30283 0.62778 0.0
C541 C 0.8362 0.28804 0.65036 0.0
C542 C 0.74161 0.35572 0.58623 0.0
C543 C 0.74824 0.34592 0.59986 0.0
C544 C 0.79311 0.34075 0.62356 0.0
C545 C 0.80526 0.29865 0.64551 0.0
C546 C 0.79387 0.31084 0.63628 0.0
C547 C 0.76743 0.34207 0.59961 0.0
C548 C 0.77516 0.33226 0.61402 0.0
H549 H 0.80114 0.26642 0.6765 0.0
H550 H 0.78143 0.2859 0.66119 0.0
H551 H 0.81639 0.33701 0.6414 0.0
H552 H 0.78297 0.36124 0.56084 0.0
H553 H 0.79446 0.34464 0.58463 0.0
C554 C 0.47385 0.9694 0.61142 0.0
C555 C 0.47802 0.96248 0.59219 0.0
C556 C 0.48893 0.9782 0.62498 0.0
C557 C 0.52456 0.98198 0.65149 0.0
H558 H 0.56781 0.0203 0.6403 0.0
C559 C 0.59473 0.00695 0.69998 0.0
C560 C 0.60122 0.02762 0.7046 0.0
C561 C 0.5801 0.99889 0.68573 0.0
C562 C 0.55581 0.00964 0.64364 0.0
H563 H 0.50102 0.96018 0.57183 0.0
H564 H 0.52732 0.97563 0.59543 0.0
H565 H 0.54075 0.00777 0.61685 0.0
H566 H 0.59788 0.05595 0.69754 0.0
H567 H 0.57259 0.04189 0.67271 0.0
H568 H 0.53958 0.98395 0.67835 0.0
C569 C 0.51246 0.97421 0.60009 0.0
C570 C 0.54038 0.00239 0.63018 0.0
C571 C 0.49743 0.96527 0.5866 0.0
C572 C 0.5932 0.03996 0.69435 0.0
C573 C 0.57876 0.03191 0.68004 0.0
C574 C 0.54007 0.98912 0.6649 0.0
C575 C 0.50841 0.98043 0.61949 0.0
C576 C 0.52456 0.98853 0.63398 0.0
C577 C 0.57188 0.01132 0.67571 0.0
C578 C 0.55582 0.00307 0.66114 0.0
H579 H 0.45902 0.96733 0.61612 0.0
H580 H 0.48537 0.98308 0.6398 0.0
H581 H 0.51267 0.97112 0.65472 0.0
H582 H 0.60062 0.99708 0.70766 0.0
H583 H 0.5752 0.98293 0.68256 0.0
C584 C 0.89609 0.2468 0.73767 0.0
C585 C 0.88151 0.23016 0.73137 0.0
C586 C 0.9111 0.24581 0.75033 0.0
C587 C 0.92047 0.22138 0.78906 0.0
H588 H 0.9743 0.24452 0.7844 0.0
C589 C 0.97705 0.23053 0.85103 0.0
C590 C 0.98959 0.24897 0.85506 0.0
C591 C 0.96573 0.22476 0.83392 0.0
C592 C 0.95931 0.2381 0.78599 0.0
H593 H 0.87203 0.19908 0.73266 0.0
H594 H 0.89792 0.19767 0.75534 0.0
H595 H 0.95096 0.24115 0.75779 0.0
H596 H 0.00046 0.27554 0.844 0.0
H597 H 0.98047 0.26583 0.81469 0.0
H598 H 0.9284 0.21932 0.81758 0.0
C599 C 0.8976 0.21144 0.75044 0.0
C600 C 0.946 0.2361 0.77071 0.0
C601 C 0.88272 0.21233 0.73756 0.0
C602 C 0.99099 0.26121 0.84138 0.0
C603 C 0.9796 0.25554 0.82442 0.0
C604 C 0.93372 0.22362 0.80445 0.0
C605 C 0.91177 0.22826 0.75714 0.0
C606 C 0.92638 0.2281 0.77226 0.0
C607 C 0.96662 0.23737 0.82054 0.0
C608 C 0.95322 0.23245 0.80329 0.0
H609 H 0.89551 0.26086 0.73346 0.0
H610 H 0.92172 0.25908 0.75547 0.0
H611 H 0.90537 0.21532 0.79069 0.0
H612 H 0.97574 0.22069 0.86121 0.0
H613 H 0.95611 0.21053 0.83128 0.0
C614 C 0.47272 0.90122 0.53356 0.0
C615 C 0.45446 0.90216 0.54169 0.0
C616 C 0.47644 0.88371 0.52185 0.0
C617 C 0.45254 0.83805 0.49011 0.0
H618 H 0.50279 0.82174 0.49425 0.0
C619 C 0.47419 0.77108 0.43729 0.0
C620 C 0.49268 0.77493 0.42964 0.0
C621 C 0.46877 0.78422 0.45317 0.0
C622 C 0.48871 0.82612 0.49288 0.0
H623 H 0.42575 0.88531 0.54388 0.0
H624 H 0.43221 0.85469 0.52308 0.0
H625 H 0.49444 0.84942 0.51784 0.0
H626 H 0.52024 0.7952 0.43315 0.0
H627 H 0.51078 0.81806 0.46063 0.0
H628 H 0.44705 0.81514 0.4648 0.0
C629 C 0.44362 0.8676 0.52584 0.0
C630 C 0.48393 0.84196 0.50639 0.0
C631 C 0.43992 0.88515 0.53769 0.0
C632 C 0.50587 0.79178 0.43864 0.0
C633 C 0.50049 0.80484 0.45451 0.0
C634 C 0.45734 0.8222 0.47655 0.0
C635 C 0.46195 0.86671 0.51785 0.0
C636 C 0.46599 0.84841 0.50488 0.0
C637 C 0.48178 0.8014 0.46178 0.0
C638 C 0.47567 0.81639 0.47753 0.0
H639 H 0.48411 0.91415 0.53596 0.0
H640 H 0.49057 0.88363 0.51556 0.0
H641 H 0.43866 0.84277 0.4885 0.0
H642 H 0.4637 0.7582 0.43073 0.0
H643 H 0.45433 0.78106 0.45859 0.0
C644 C 0.20136 0.27262 0.79864 0.0
C645 C 0.2203 0.27593 0.80655 0.0
C646 C 0.18593 0.27695 0.8103 0.0
C647 C 0.17114 0.28348 0.86058 0.0
H648 H 0.12932 0.30518 0.84058 0.0
C649 C 0.09419 0.27792 0.89124 0.0
C650 C 0.08345 0.29319 0.89032 0.0
C651 C 0.11268 0.27844 0.88358 0.0
C652 C 0.14098 0.29941 0.84657 0.0
H653 H 0.23839 0.28641 0.8325 0.0
H654 H 0.21132 0.29424 0.8531 0.0
H655 H 0.15817 0.30161 0.82199 0.0
H656 H 0.08421 0.32165 0.88187 0.0
H657 H 0.11659 0.32278 0.8689 0.0
H658 H 0.15388 0.28133 0.88522 0.0
C659 C 0.20831 0.28812 0.83795 0.0
C660 C 0.15743 0.29711 0.83576 0.0
C661 C 0.22377 0.28376 0.82621 0.0
C662 C 0.09203 0.30954 0.88261 0.0
C663 C 0.11055 0.31013 0.87507 0.0
C664 C 0.15466 0.28581 0.87144 0.0
C665 C 0.18919 0.28472 0.83011 0.0
C666 C 0.17255 0.28877 0.84246 0.0
C667 C 0.12086 0.2943 0.87493 0.0
C668 C 0.13924 0.29352 0.86442 0.0
H669 H 0.19847 0.26648 0.78346 0.0
H670 H 0.17137 0.27383 0.80385 0.0
H671 H 0.18249 0.27691 0.86612 0.0
H672 H 0.08797 0.2651 0.89708 0.0
H673 H 0.12012 0.26591 0.88359 0.0
C674 C 0.55162 0.62869 0.51702 0.0
C675 C 0.53803 0.61369 0.52233 0.0
C676 C 0.55038 0.63301 0.49867 0.0
C677 C 0.51291 0.63138 0.4623 0.0
H678 H 0.55616 0.64892 0.43217 0.0
C679 C 0.49888 0.6663 0.39831 0.0
C680 C 0.51158 0.68391 0.39725 0.0
C681 C 0.50384 0.65348 0.40973 0.0
C682 C 0.54392 0.64413 0.44045 0.0
H683 H 0.51314 0.59076 0.51285 0.0
H684 H 0.51095 0.59813 0.48065 0.0
H685 H 0.56206 0.63412 0.45973 0.0
H686 H 0.53999 0.70128 0.40632 0.0
H687 H 0.54839 0.67937 0.42674 0.0
H688 H 0.49486 0.64222 0.44392 0.0
C689 C 0.5225 0.60666 0.49057 0.0
C690 C 0.54731 0.6356 0.4562 0.0
C691 C 0.52381 0.60235 0.5089 0.0
C692 C 0.5299 0.68778 0.40681 0.0
C693 C 0.53474 0.67513 0.41849 0.0
C694 C 0.50954 0.64003 0.44672 0.0
C695 C 0.53539 0.62246 0.48546 0.0
C696 C 0.53186 0.6294 0.46746 0.0
C697 C 0.52147 0.65819 0.42066 0.0
C698 C 0.52502 0.64683 0.43574 0.0
H699 H 0.56259 0.63772 0.52734 0.0
H700 H 0.5604 0.64538 0.49525 0.0
H701 H 0.50072 0.62713 0.47088 0.0
H702 H 0.48475 0.6628 0.39091 0.0
H703 H 0.49348 0.64028 0.41059 0.0
C704 C 0.83264 0.8399 0.78434 0.0
C705 C 0.82681 0.82271 0.79194 0.0
C706 C 0.84801 0.84077 0.77167 0.0
C707 C 0.87787 0.80804 0.7405 0.0
H708 H 0.91575 0.85645 0.74541 0.0
C709 C 0.95526 0.80856 0.71338 0.0
C710 C 0.9609 0.82099 0.70027 0.0
C711 C 0.93843 0.81024 0.72374 0.0
C712 C 0.90516 0.84291 0.74381 0.0
H713 H 0.83213 0.79267 0.79146 0.0
H714 H 0.8592 0.7945 0.7704 0.0
H715 H 0.88662 0.85639 0.7646 0.0
H716 H 0.95372 0.84552 0.68836 0.0
H717 H 0.92445 0.84881 0.70706 0.0
H718 H 0.89692 0.79437 0.72043 0.0
C719 C 0.85183 0.80726 0.77383 0.0
C720 C 0.88842 0.84286 0.7547 0.0
C721 C 0.83644 0.80633 0.78626 0.0
C722 C 0.94972 0.83568 0.69831 0.0
C723 C 0.93303 0.83761 0.70901 0.0
C724 C 0.8947 0.80802 0.72993 0.0
C725 C 0.85788 0.82447 0.76634 0.0
C726 C 0.87473 0.82529 0.75345 0.0
C727 C 0.92706 0.82462 0.7215 0.0
C728 C 0.90864 0.82534 0.73171 0.0
H729 H 0.82558 0.85281 0.78844 0.0
H730 H 0.85212 0.8542 0.76604 0.0
H731 H 0.86743 0.79438 0.73868 0.0
H732 H 0.96349 0.79705 0.71521 0.0
H733 H 0.93418 0.80016 0.73342 0.0
C734 C 0.03258 0.93672 0.50527 0.0
C735 C 0.05091 0.93838 0.49722 0.0
C736 C 0.02944 0.92843 0.52159 0.0
C737 C 0.05336 0.91548 0.56267 0.0
H738 H 0.0064 0.87638 0.56003 0.0
C739 C 0.03541 0.86329 0.6177 0.0
C740 C 0.01571 0.85849 0.62183 0.0
C741 C 0.04087 0.87481 0.60384 0.0
C742 C 0.01943 0.88748 0.56119 0.0
H743 H 0.08055 0.93338 0.49976 0.0
H744 H 0.07511 0.91872 0.52853 0.0
H745 H 0.01383 0.89313 0.53338 0.0
H746 H 0.98649 0.86319 0.61583 0.0
H747 H 0.996 0.88365 0.59227 0.0
H748 H 0.05886 0.90975 0.59064 0.0
C749 C 0.06319 0.92393 0.52233 0.0
C750 C 0.02371 0.89705 0.54585 0.0
C751 C 0.0663 0.9322 0.5059 0.0
C752 C 0.00176 0.86639 0.61276 0.0
C753 C 0.00721 0.87802 0.59913 0.0
C754 C 0.04901 0.90593 0.57816 0.0
C755 C 0.04461 0.92163 0.53012 0.0
C756 C 0.04061 0.91129 0.54646 0.0
C757 C 0.02672 0.88182 0.59401 0.0
C758 C 0.03186 0.89195 0.57766 0.0
H759 H 0.02057 0.94149 0.49873 0.0
H760 H 0.01506 0.92714 0.52742 0.0
H761 H 0.06648 0.92644 0.56354 0.0
H762 H 0.04647 0.85736 0.62447 0.0
H763 H 0.05603 0.87743 0.60022 0.0
C764 C 0.20559 0.7869 0.7472 0.0
C765 C 0.20597 0.77455 0.76054 0.0
C766 C 0.18809 0.79254 0.74246 0.0
C767 C 0.13559 0.77449 0.74083 0.0
H768 H 0.13099 0.82684 0.7317 0.0
C769 C 0.06172 0.79176 0.7201 0.0
C770 C 0.06121 0.80244 0.70529 0.0
C771 C 0.0794 0.79057 0.72871 0.0
C772 C 0.13208 0.8121 0.73404 0.0
H773 H 0.18901 0.75878 0.7799 0.0
H774 H 0.15832 0.76867 0.77177 0.0
H775 H 0.16203 0.82086 0.74363 0.0
H776 H 0.07881 0.82091 0.68838 0.0
H777 H 0.10985 0.81848 0.70315 0.0
H778 H 0.10598 0.76547 0.73084 0.0
C779 C 0.1714 0.77392 0.76481 0.0
C780 C 0.14984 0.8087 0.74091 0.0
C781 C 0.18891 0.76836 0.76957 0.0
C782 C 0.07874 0.81258 0.69978 0.0
C783 C 0.09652 0.81124 0.7083 0.0
C784 C 0.11794 0.77785 0.7339 0.0
C785 C 0.17072 0.78575 0.75092 0.0
C786 C 0.15178 0.78984 0.74437 0.0
C787 C 0.09707 0.79986 0.7226 0.0
C788 C 0.11591 0.79668 0.73041 0.0
H789 H 0.21867 0.79169 0.74002 0.0
H790 H 0.18802 0.80149 0.73159 0.0
H791 H 0.13671 0.75967 0.74293 0.0
H792 H 0.04844 0.78398 0.72486 0.0
H793 H 0.07921 0.7821 0.74 0.0
C794 C 0.97141 0.60949 0.53287 0.0
C795 C 0.96632 0.60938 0.51373 0.0
C796 C 0.97762 0.62743 0.54571 0.0
C797 C 0.99385 0.68195 0.54934 0.0
H798 H 0.97268 0.68454 0.60004 0.0
C799 C 0.99314 0.75577 0.60426 0.0
C800 C 0.99838 0.75591 0.62344 0.0
C801 C 0.9907 0.73805 0.59049 0.0
C802 C 0.97888 0.684 0.58602 0.0
H803 H 0.96438 0.62776 0.4927 0.0
H804 H 0.97477 0.6593 0.51525 0.0
H805 H 0.96637 0.65343 0.57661 0.0
H806 H 0.0053 0.73752 0.64311 0.0
H807 H 0.00085 0.70665 0.61911 0.0
H808 H 0.00589 0.71285 0.55881 0.0
C809 C 0.97433 0.64552 0.52032 0.0
C810 C 0.97534 0.66613 0.57258 0.0
C811 C 0.96835 0.62749 0.5074 0.0
C812 C 0.00121 0.73796 0.62849 0.0
C813 C 0.99859 0.72024 0.61477 0.0
C814 C 0.99725 0.69993 0.56279 0.0
C815 C 0.97858 0.64572 0.53977 0.0
C816 C 0.98282 0.66482 0.55407 0.0
C817 C 0.99325 0.72009 0.59564 0.0
C818 C 0.98983 0.7011 0.58129 0.0
H819 H 0.97019 0.59566 0.53802 0.0
H820 H 0.98129 0.62696 0.56042 0.0
H821 H 0.0 0.68145 0.53532 0.0
H822 H 0.99092 0.76934 0.59986 0.0
H823 H 0.98641 0.73834 0.57589 0.0
C824 C 0.7744 0.89676 0.2542 0.0
C825 C 0.77181 0.88397 0.23607 0.0
C826 C 0.78779 0.91443 0.25708 0.0
C827 C 0.81604 0.95035 0.23114 0.0
H828 H 0.84549 0.96759 0.27963 0.0
C829 C 0.88075 0.01629 0.24655 0.0
C830 C 0.88119 0.02929 0.2645 0.0
C831 C 0.86693 0.99888 0.24229 0.0
C832 C 0.83724 0.96305 0.26609 0.0
H833 H 0.78134 0.87983 0.20672 0.0
H834 H 0.80525 0.91037 0.21193 0.0
H835 H 0.823 0.93615 0.27366 0.0
H836 H 0.8671 0.03444 0.29182 0.0
H837 H 0.84313 0.00403 0.28439 0.0
H838 H 0.8307 0.97724 0.22354 0.0
C839 C 0.79663 0.90687 0.22384 0.0
C840 C 0.82432 0.94505 0.26266 0.0
C841 C 0.7831 0.88922 0.22092 0.0
C842 C 0.86721 0.02475 0.27788 0.0
C843 C 0.85355 0.00728 0.27368 0.0
C844 C 0.82914 0.96831 0.23452 0.0
C845 C 0.79911 0.91971 0.24197 0.0
C846 C 0.81341 0.93855 0.24522 0.0
C847 C 0.85343 0.99404 0.25596 0.0
C848 C 0.83973 0.97491 0.2521 0.0
H849 H 0.76615 0.89308 0.26627 0.0
H850 H 0.78909 0.92406 0.27116 0.0
H851 H 0.80771 0.94594 0.21765 0.0
H852 H 0.89128 0.01938 0.2359 0.0
H853 H 0.86721 0.98889 0.22854 0.0
C854 C 0.79186 0.22703 0.27635 0.0
C855 C 0.79383 0.24517 0.28965 0.0
C856 C 0.80493 0.21388 0.27699 0.0
C857 C 0.85391 0.21038 0.29324 0.0
H858 H 0.83185 0.15554 0.29402 0.0
C859 C 0.89771 0.14452 0.285 0.0
C860 C 0.89343 0.1318 0.29812 0.0
C861 C 0.88682 0.15968 0.28443 0.0
C862 C 0.8382 0.17082 0.29385 0.0
H863 H 0.81127 0.26409 0.31363 0.0
H864 H 0.83434 0.24114 0.31459 0.0
H865 H 0.8103 0.17942 0.29146 0.0
H866 H 0.87483 0.12546 0.32136 0.0
H867 H 0.85577 0.15167 0.32014 0.0
H868 H 0.88186 0.20162 0.2955 0.0
C869 C 0.82263 0.2371 0.30376 0.0
C870 C 0.82589 0.18442 0.29223 0.0
C871 C 0.80938 0.25013 0.30331 0.0
C872 C 0.87849 0.13495 0.31104 0.0
C873 C 0.86749 0.14989 0.3103 0.0
C874 C 0.86626 0.19666 0.29456 0.0
C875 C 0.82037 0.21875 0.29075 0.0
C876 C 0.83361 0.20435 0.29201 0.0
C877 C 0.87133 0.16217 0.29679 0.0
C878 C 0.85849 0.17679 0.29504 0.0
H879 H 0.77993 0.2228 0.26576 0.0
H880 H 0.80294 0.19987 0.26673 0.0
H881 H 0.8602 0.22566 0.29301 0.0
H882 H 0.90915 0.14247 0.27488 0.0
H883 H 0.89003 0.16894 0.27385 0.0
C884 C 0.39211 0.05916 0.96357 0.0
C885 C 0.41089 0.06266 0.97208 0.0
C886 C 0.37715 0.04628 0.96993 0.0
C887 C 0.36341 0.02154 0.01093 0.0
H888 H 0.32634 0.98651 0.97346 0.0
C889 C 0.31033 0.95437 0.02773 0.0
C890 C 0.29105 0.95173 0.02058 0.0
C891 C 0.32459 0.96879 0.02251 0.0
C892 C 0.33647 0.99635 0.98411 0.0
H893 H 0.42885 0.0553 0.99371 0.0
H894 H 0.40287 0.03246 0.00456 0.0
H895 H 0.35204 0.00974 0.96282 0.0
H896 H 0.27156 0.96237 0.00258 0.0
H897 H 0.29652 0.98742 0.99338 0.0
H898 H 0.34799 0.0077 0.03213 0.0
C899 C 0.39953 0.04001 0.9933 0.0
C900 C 0.35118 0.00971 0.97803 0.0
C901 C 0.41444 0.05303 0.98705 0.0
C902 C 0.28628 0.96399 0.00832 0.0
C903 C 0.30058 0.97827 0.00296 0.0
C904 C 0.34878 0.00804 0.01697 0.0
C905 C 0.38068 0.03648 0.98483 0.0
C906 C 0.36485 0.02246 0.99136 0.0
C907 C 0.31989 0.98072 0.00991 0.0
C908 C 0.33519 0.99531 0.00362 0.0
H909 H 0.38893 0.06661 0.95217 0.0
H910 H 0.36275 0.04419 0.9633 0.0
H911 H 0.37347 0.03137 0.02163 0.0
H912 H 0.31448 0.9452 0.03724 0.0
H913 H 0.3394 0.97028 0.02797 0.0
C914 C 0.23382 0.33126 0.27463 0.0
C915 C 0.24841 0.33429 0.28901 0.0
C916 C 0.22621 0.34745 0.27043 0.0
C917 C 0.23459 0.4029 0.27868 0.0
H918 H 0.17828 0.39588 0.27429 0.0
C919 C 0.19293 0.46878 0.29404 0.0
C920 C 0.17691 0.46875 0.28194 0.0
C921 C 0.20207 0.4521 0.2922 0.0
C922 C 0.19402 0.39802 0.27518 0.0
H923 H 0.26693 0.35619 0.31006 0.0
H924 H 0.25367 0.38455 0.30293 0.0
H925 H 0.19413 0.36726 0.27536 0.0
H926 H 0.15788 0.45107 0.25845 0.0
H927 H 0.17384 0.42171 0.25535 0.0
H928 H 0.23441 0.43378 0.27911 0.0
C929 C 0.24824 0.36985 0.29457 0.0
C930 C 0.20314 0.3816 0.27576 0.0
C931 C 0.25582 0.35365 0.29872 0.0
C932 C 0.17017 0.45155 0.268 0.0
C933 C 0.17927 0.43474 0.26625 0.0
C934 C 0.22548 0.41931 0.27818 0.0
C935 C 0.23304 0.36691 0.28065 0.0
C936 C 0.22352 0.38392 0.27789 0.0
C937 C 0.1954 0.43489 0.27829 0.0
C938 C 0.20508 0.41712 0.27682 0.0
H939 H 0.22784 0.31633 0.2671 0.0
H940 H 0.21471 0.34468 0.25947 0.0
H941 H 0.25032 0.40516 0.27995 0.0
H942 H 0.19851 0.48176 0.30494 0.0
H943 H 0.21424 0.45259 0.30191 0.0
C944 C 0.11746 0.00743 0.47723 0.0
C945 C 0.09999 0.01512 0.47882 0.0
C946 C 0.13513 0.01981 0.48345 0.0
C947 C 0.15659 0.07313 0.49163 0.0
H948 H 0.20143 0.05502 0.5104 0.0
C949 C 0.2301 0.12521 0.51171 0.0
C950 C 0.2466 0.11768 0.50411 0.0
C951 C 0.21212 0.11272 0.5108 0.0
C952 C 0.18902 0.06023 0.5051 0.0
H953 H 0.087 0.04128 0.48942 0.0
H954 H 0.11774 0.06278 0.50092 0.0
H955 H 0.16988 0.03308 0.50625 0.0
H956 H 0.25721 0.091 0.4899 0.0
H957 H 0.22577 0.0692 0.48837 0.0
H958 H 0.17574 0.10024 0.49046 0.0
C959 C 0.11795 0.04739 0.49429 0.0
C960 C 0.17096 0.04768 0.5027 0.0
C961 C 0.10033 0.03507 0.48786 0.0
C962 C 0.24477 0.0973 0.49583 0.0
C963 C 0.22681 0.08477 0.49508 0.0
C964 C 0.17458 0.08571 0.4942 0.0
C965 C 0.13565 0.0401 0.49157 0.0
C966 C 0.15455 0.05389 0.49571 0.0
C967 C 0.21028 0.09239 0.50243 0.0
C968 C 0.19102 0.07932 0.50075 0.0
H969 H 0.1176 0.99214 0.47013 0.0
H970 H 0.14844 0.01369 0.48094 0.0
H971 H 0.14444 0.07831 0.48581 0.0
H972 H 0.231 0.14082 0.51822 0.0
H973 H 0.19964 0.11896 0.51671 0.0
C974 C 0.79773 0.2028 0.69961 0.0
C975 C 0.81005 0.21343 0.7152 0.0
C976 C 0.78092 0.18991 0.70265 0.0
C977 C 0.74881 0.17449 0.74107 0.0
H978 H 0.74039 0.12325 0.70598 0.0
C979 C 0.70567 0.10322 0.76041 0.0
C980 C 0.69148 0.09192 0.74678 0.0
C981 C 0.71876 0.11898 0.75583 0.0
C982 C 0.74246 0.13755 0.71579 0.0
H983 H 0.81355 0.22012 0.74627 0.0
H984 H 0.78484 0.19722 0.75153 0.0
H985 H 0.76483 0.15007 0.69913 0.0
H986 H 0.68018 0.08798 0.71751 0.0
H987 H 0.70337 0.11526 0.70944 0.0
H988 H 0.72695 0.16152 0.75811 0.0
C989 C 0.78791 0.19885 0.73695 0.0
C990 C 0.75636 0.153 0.71182 0.0
C991 C 0.80457 0.21183 0.73392 0.0
C992 C 0.69092 0.09644 0.72835 0.0
C993 C 0.7042 0.112 0.7237 0.0
C994 C 0.7351 0.15895 0.74515 0.0
C995 C 0.77613 0.18731 0.72133 0.0
C996 C 0.75991 0.1716 0.72454 0.0
C997 C 0.7181 0.12355 0.73746 0.0
C998 C 0.73197 0.14028 0.73267 0.0
H999 H 0.80155 0.20369 0.685 0.0
H1000 H 0.77197 0.18157 0.6903 0.0
H1001 H 0.75084 0.18871 0.751 0.0
H1002 H 0.70644 0.10016 0.77474 0.0
H1003 H 0.7295 0.12754 0.76663 0.0
C1004 C 0.42097 0.00647 0.55861 0.0
C1005 C 0.40624 0.99207 0.56325 0.0
C1006 C 0.41669 0.0248 0.556 0.0
C1007 C 0.39986 0.05378 0.53633 0.0
H1008 H 0.36003 0.07918 0.56436 0.0
C1009 C 0.35301 0.10026 0.50345 0.0
C1010 C 0.34622 0.11629 0.51526 0.0
C1011 C 0.36407 0.08852 0.51127 0.0
C1012 C 0.37143 0.07254 0.55657 0.0
H1013 H 0.3758 0.98524 0.56932 0.0
H1014 H 0.36816 0.0171 0.56461 0.0
H1015 H 0.37249 0.05264 0.57592 0.0
H1016 H 0.34661 0.13324 0.54441 0.0
H1017 H 0.36614 0.11277 0.55807 0.0
H1018 H 0.39865 0.07352 0.51687 0.0
C1019 C 0.38308 0.01461 0.56331 0.0
C1020 C 0.37841 0.05714 0.56307 0.0
C1021 C 0.38738 0.99633 0.56593 0.0
C1022 C 0.35156 0.12093 0.53494 0.0
C1023 C 0.36264 0.10914 0.54278 0.0
C1024 C 0.39291 0.06919 0.52985 0.0
C1025 C 0.39759 0.02892 0.55791 0.0
C1026 C 0.39231 0.04719 0.55273 0.0
C1027 C 0.36866 0.09252 0.5311 0.0
C1028 C 0.37821 0.07837 0.53958 0.0
H1029 H 0.43561 0.00331 0.55641 0.0
H1030 H 0.42824 0.03556 0.55206 0.0
H1031 H 0.41047 0.04639 0.52792 0.0
H1032 H 0.34918 0.09629 0.48823 0.0
H1033 H 0.36824 0.07571 0.50186 0.0
C1034 C 0.55997 0.53311 0.5695 0.0
C1035 C 0.56453 0.55286 0.56674 0.0
C1036 C 0.57284 0.5197 0.56429 0.0
C1037 C 0.61189 0.5079 0.53269 0.0
H1038 H 0.62862 0.48217 0.57216 0.0
C1039 C 0.67547 0.46392 0.52132 0.0
C1040 C 0.6753 0.44738 0.52998 0.0
C1041 C 0.66135 0.47611 0.52539 0.0
C1042 C 0.62386 0.48887 0.56082 0.0
H1043 H 0.58613 0.57366 0.55568 0.0
H1044 H 0.60825 0.54986 0.54588 0.0
H1045 H 0.60485 0.5045 0.57944 0.0
H1046 H 0.65999 0.43039 0.54947 0.0
H1047 H 0.63473 0.45119 0.55602 0.0
H1048 H 0.63029 0.49195 0.51383 0.0
C1049 C 0.59472 0.54499 0.55233 0.0
C1050 C 0.61033 0.50178 0.56507 0.0
C1051 C 0.58199 0.55856 0.55786 0.0
C1052 C 0.66053 0.44311 0.54265 0.0
C1053 C 0.64614 0.45514 0.54649 0.0
C1054 C 0.62514 0.49471 0.52831 0.0
C1055 C 0.5904 0.52556 0.55582 0.0
C1056 C 0.60437 0.51153 0.55109 0.0
C1057 C 0.64642 0.4719 0.53798 0.0
C1058 C 0.6315 0.48517 0.54238 0.0
H1059 H 0.54644 0.52797 0.57579 0.0
H1060 H 0.56906 0.50469 0.56685 0.0
H1061 H 0.60732 0.51509 0.52161 0.0
H1062 H 0.6868 0.46775 0.51165 0.0
H1063 H 0.66243 0.48909 0.5189 0.0
C1064 C 0.73923 0.27425 0.33654 0.0
C1065 C 0.74814 0.28688 0.32479 0.0
C1066 C 0.732 0.28217 0.35421 0.0
C1067 C 0.72107 0.32986 0.38397 0.0
H1068 H 0.72774 0.30307 0.42592 0.0
C1069 C 0.70546 0.36542 0.4616 0.0
C1070 C 0.7188 0.36388 0.47589 0.0
C1071 C 0.70526 0.35373 0.44311 0.0
C1072 C 0.7259 0.31087 0.41442 0.0
H1073 H 0.75649 0.31756 0.32203 0.0
H1074 H 0.74483 0.33154 0.3532 0.0
H1075 H 0.73523 0.28797 0.39368 0.0
H1076 H 0.74199 0.34841 0.48211 0.0
H1077 H 0.74222 0.32879 0.44999 0.0
H1078 H 0.71323 0.35351 0.40497 0.0
C1079 C 0.74266 0.3155 0.34866 0.0
C1080 C 0.72988 0.30199 0.39576 0.0
C1081 C 0.7495 0.30754 0.33083 0.0
C1082 C 0.73143 0.34991 0.47149 0.0
C1083 C 0.73146 0.3385 0.45299 0.0
C1084 C 0.71745 0.33893 0.40269 0.0
C1085 C 0.73394 0.30294 0.3607 0.0
C1086 C 0.72789 0.31153 0.38029 0.0
C1087 C 0.71861 0.34046 0.43842 0.0
C1088 C 0.72019 0.32975 0.41825 0.0
H1089 H 0.73787 0.25823 0.33205 0.0
H1090 H 0.72501 0.27197 0.3628 0.0
H1091 H 0.71888 0.33748 0.37243 0.0
H1092 H 0.69542 0.37592 0.46458 0.0
H1093 H 0.69485 0.35536 0.43243 0.0
C1094 C 0.49946 0.08305 0.90823 0.0
C1095 C 0.48387 0.09076 0.90175 0.0
C1096 C 0.51612 0.08208 0.89739 0.0
C1097 C 0.53034 0.07826 0.84737 0.0
H1098 H 0.58316 0.08856 0.86871 0.0
C1099 C 0.59521 0.07461 0.79839 0.0
C1100 C 0.61021 0.06506 0.80343 0.0
C1101 C 0.58089 0.07932 0.81133 0.0
C1102 C 0.56847 0.08545 0.86257 0.0
H1103 H 0.47327 0.10407 0.87957 0.0
H1104 H 0.50247 0.10265 0.86063 0.0
H1105 H 0.55625 0.09467 0.8899 0.0
H1106 H 0.62216 0.05343 0.82628 0.0
H1107 H 0.59683 0.06137 0.84885 0.0
H1108 H 0.54232 0.06871 0.82018 0.0
C1109 C 0.50187 0.09716 0.87391 0.0
C1110 C 0.55308 0.08899 0.87469 0.0
C1111 C 0.48526 0.09814 0.88477 0.0
C1112 C 0.6108 0.06078 0.82195 0.0
C1113 C 0.59635 0.06542 0.83491 0.0
C1114 C 0.54565 0.07467 0.83532 0.0
C1115 C 0.5173 0.08869 0.87987 0.0
C1116 C 0.53386 0.0855 0.86718 0.0
C1117 C 0.58107 0.07449 0.82963 0.0
C1118 C 0.56492 0.07829 0.84272 0.0
H1119 H 0.49847 0.07714 0.92128 0.0
H1120 H 0.52766 0.07532 0.90228 0.0
H1121 H 0.51566 0.07495 0.8412 0.0
H1122 H 0.59442 0.07836 0.78435 0.0
H1123 H 0.56958 0.08669 0.80694 0.0
C1124 C 0.29214 0.27827 0.35946 0.0
C1125 C 0.29889 0.27115 0.34122 0.0
C1126 C 0.2945 0.26872 0.37468 0.0
C1127 C 0.32248 0.23334 0.39078 0.0
H1128 H 0.28013 0.22769 0.42558 0.0
C1129 C 0.31752 0.18219 0.44696 0.0
C1130 C 0.31045 0.18964 0.46501 0.0
C1131 C 0.31768 0.1928 0.4321 0.0
C1132 C 0.29219 0.22935 0.41612 0.0
H1133 H 0.31331 0.24836 0.32459 0.0
H1134 H 0.31721 0.23151 0.35109 0.0
H1135 H 0.27702 0.24461 0.3991 0.0
H1136 H 0.29891 0.21457 0.4818 0.0
H1137 H 0.29929 0.233 0.45598 0.0
H1138 H 0.33747 0.2177 0.40775 0.0
C1139 C 0.31043 0.24471 0.35375 0.0
C1140 C 0.29042 0.23908 0.40094 0.0
C1141 C 0.30815 0.25433 0.33855 0.0
C1142 C 0.30431 0.20829 0.46806 0.0
C1143 C 0.30441 0.21882 0.45323 0.0
C1144 C 0.3242 0.22348 0.40594 0.0
C1145 C 0.30357 0.25175 0.372 0.0
C1146 C 0.30556 0.24128 0.38811 0.0
C1147 C 0.31071 0.21102 0.43497 0.0
C1148 C 0.3091 0.22147 0.41883 0.0
H1149 H 0.28521 0.29138 0.36203 0.0
H1150 H 0.28937 0.27478 0.38862 0.0
H1151 H 0.33452 0.23497 0.38131 0.0
H1152 H 0.32238 0.16789 0.44412 0.0
H1153 H 0.32256 0.18638 0.41816 0.0
C1154 C 0.53843 0.47369 0.91404 0.0
C1155 C 0.54503 0.48568 0.93189 0.0
C1156 C 0.52566 0.47995 0.9022 0.0
C1157 C 0.50669 0.52504 0.89451 0.0
H1158 H 0.46643 0.4859 0.86438 0.0
C1159 C 0.44192 0.54442 0.8541 0.0
C1160 C 0.43772 0.53355 0.83524 0.0
C1161 C 0.4558 0.53948 0.8658 0.0
C1162 C 0.47771 0.49697 0.87261 0.0
H1163 H 0.54321 0.51337 0.95158 0.0
H1164 H 0.5205 0.52408 0.93122 0.0
H1165 H 0.48867 0.47525 0.88522 0.0
H1166 H 0.44518 0.5093 0.81374 0.0
H1167 H 0.46917 0.50063 0.83421 0.0
H1168 H 0.49525 0.54679 0.88212 0.0
C1169 C 0.52557 0.51011 0.92604 0.0
C1170 C 0.49052 0.49088 0.88451 0.0
C1171 C 0.53851 0.50395 0.93776 0.0
C1172 C 0.44802 0.51797 0.8282 0.0
C1173 C 0.46168 0.51291 0.83994 0.0
C1174 C 0.49371 0.53115 0.88276 0.0
C1175 C 0.51902 0.49823 0.90807 0.0
C1176 C 0.50526 0.5048 0.89554 0.0
C1177 C 0.46553 0.52343 0.85892 0.0
C1178 C 0.47918 0.51715 0.87162 0.0
H1179 H 0.54342 0.45964 0.90908 0.0
H1180 H 0.52122 0.47056 0.88832 0.0
H1181 H 0.51804 0.53615 0.90255 0.0
H1182 H 0.43427 0.55653 0.85994 0.0
H1183 H 0.45847 0.54779 0.88041 0.0
C1184 C 0.76925 0.80615 0.20411 0.0
C1185 C 0.75082 0.812 0.20516 0.0
C1186 C 0.77298 0.79059 0.18956 0.0
C1187 C 0.74878 0.74884 0.15134 0.0
H1188 H 0.7966 0.7596 0.12466 0.0
C1189 C 0.75694 0.71516 0.07214 0.0
C1190 C 0.77422 0.70809 0.06644 0.0
C1191 C 0.75519 0.72519 0.09092 0.0
C1192 C 0.78335 0.7562 0.13215 0.0
H1193 H 0.72177 0.80578 0.19204 0.0
H1194 H 0.72826 0.77886 0.16669 0.0
H1195 H 0.79132 0.78172 0.15471 0.0
H1196 H 0.80325 0.70597 0.07598 0.0
H1197 H 0.80028 0.72398 0.10893 0.0
H1198 H 0.74048 0.72384 0.12827 0.0
C1199 C 0.73977 0.78598 0.17726 0.0
C1200 C 0.78032 0.76884 0.1494 0.0
C1201 C 0.73603 0.80146 0.19181 0.0
C1202 C 0.78976 0.71125 0.07997 0.0
C1203 C 0.78808 0.72157 0.09878 0.0
C1204 C 0.75177 0.73631 0.13405 0.0
C1205 C 0.75839 0.78058 0.17572 0.0
C1206 C 0.76277 0.76561 0.15894 0.0
C1207 C 0.77073 0.72858 0.10442 0.0
C1208 C 0.76885 0.74016 0.12403 0.0
H1209 H 0.78087 0.81381 0.21436 0.0
H1210 H 0.78739 0.7866 0.18898 0.0
H1211 H 0.7353 0.74566 0.15852 0.0
H1212 H 0.74468 0.71293 0.0621 0.0
H1213 H 0.74175 0.73069 0.09476 0.0
C1214 C 0.06258 0.12528 0.11817 0.0
C1215 C 0.08046 0.12317 0.12603 0.0
C1216 C 0.04651 0.12697 0.1298 0.0
C1217 C 0.0314 0.13495 0.1807 0.0
H1218 H 0.98634 0.09566 0.16032 0.0
C1219 C 0.96972 0.07933 0.2115 0.0
C1220 C 0.96294 0.09204 0.227 0.0
C1221 C 0.98114 0.08709 0.1978 0.0
C1222 C 0.99873 0.10684 0.16616 0.0
H1223 H 0.09602 0.1227 0.15234 0.0
H1224 H 0.0681 0.1255 0.17257 0.0
H1225 H 0.01274 0.10354 0.13927 0.0
H1226 H 0.96237 0.12291 0.24003 0.0
H1227 H 0.98269 0.13657 0.21606 0.0
H1228 H 0.01786 0.1373 0.20789 0.0
C1229 C 0.06637 0.12591 0.1575 0.0
C1230 C 0.01378 0.11152 0.15406 0.0
C1231 C 0.08233 0.12409 0.14589 0.0
C1232 C 0.96739 0.11275 0.22823 0.0
C1233 C 0.97906 0.12056 0.21457 0.0
C1234 C 0.0163 0.1303 0.19281 0.0
C1235 C 0.04812 0.12677 0.14951 0.0
C1236 C 0.03062 0.12506 0.16135 0.0
C1237 C 0.9862 0.10777 0.19932 0.0
C1238 C 0.00016 0.11563 0.18582 0.0
H1239 H 0.06075 0.12459 0.10289 0.0
H1240 H 0.03268 0.12778 0.12326 0.0
H1241 H 0.04408 0.14564 0.18668 0.0
H1242 H 0.9665 0.06331 0.2101 0.0
H1243 H 0.98664 0.07683 0.18641 0.0
C1244 C 0.29972 0.80707 0.20098 0.0
C1245 C 0.28538 0.80853 0.21469 0.0
C1246 C 0.30015 0.81783 0.18624 0.0
C1247 C 0.28043 0.8591 0.17049 0.0
H1248 H 0.28764 0.82943 0.1195 0.0
C1249 C 0.25897 0.88299 0.10062 0.0
C1250 C 0.27163 0.88051 0.0853 0.0
C1251 C 0.26212 0.87573 0.11722 0.0
C1252 C 0.28585 0.83804 0.13366 0.0
H1253 H 0.26055 0.82233 0.22436 0.0
H1254 H 0.26108 0.84103 0.19856 0.0
H1255 H 0.29129 0.81452 0.14727 0.0
H1256 H 0.29776 0.86889 0.07557 0.0
H1257 H 0.30324 0.85638 0.10445 0.0
H1258 H 0.27458 0.88246 0.15671 0.0
C1259 C 0.27223 0.83196 0.19922 0.0
C1260 C 0.28801 0.82951 0.1496 0.0
C1261 C 0.27185 0.82123 0.21394 0.0
C1262 C 0.28765 0.87094 0.08705 0.0
C1263 C 0.29076 0.86368 0.10358 0.0
C1264 C 0.27822 0.86762 0.1545 0.0
C1265 C 0.28615 0.8301 0.18496 0.0
C1266 C 0.28519 0.83986 0.16821 0.0
C1267 C 0.27794 0.86581 0.11878 0.0
C1268 C 0.28079 0.85713 0.1359 0.0
H1269 H 0.31021 0.79721 0.20136 0.0
H1270 H 0.31122 0.81628 0.17564 0.0
H1271 H 0.27839 0.86757 0.18464 0.0
H1272 H 0.24651 0.89031 0.09971 0.0
H1273 H 0.25188 0.87745 0.12862 0.0
C1274 C 0.98004 0.48423 0.10715 0.0
C1275 C 0.96064 0.48096 0.11269 0.0
C1276 C 0.99527 0.48972 0.12095 0.0
C1277 C 0.02411 0.51055 0.15376 0.0
H1278 H 0.02243 0.48032 0.19438 0.0
C1279 C 0.07932 0.53114 0.21797 0.0
C1280 C 0.08691 0.51558 0.22377 0.0
C1281 C 0.06409 0.52706 0.20424 0.0
C1282 C 0.02314 0.48878 0.18305 0.0
H1283 H 0.94187 0.4814 0.13695 0.0
H1284 H 0.9686 0.49108 0.16122 0.0
H1285 H 0.99507 0.47402 0.17112 0.0
H1286 H 0.08454 0.4835 0.21961 0.0
H1287 H 0.05771 0.47633 0.19552 0.0
H1288 H 0.05222 0.5252 0.16557 0.0
C1289 C 0.97198 0.48927 0.14617 0.0
C1290 C 0.00739 0.48537 0.16989 0.0
C1291 C 0.9567 0.48395 0.13233 0.0
C1292 C 0.07901 0.4958 0.21541 0.0
C1293 C 0.06359 0.4917 0.20174 0.0
C1294 C 0.03978 0.51408 0.167 0.0
C1295 C 0.99143 0.49191 0.14059 0.0
C1296 C 0.00775 0.49617 0.15508 0.0
C1297 C 0.05597 0.50732 0.19604 0.0
C1298 C 0.03948 0.50321 0.18176 0.0
H1299 H 0.98344 0.4821 0.09209 0.0
H1300 H 0.01009 0.49154 0.11621 0.0
H1301 H 0.02477 0.51916 0.14255 0.0
H1302 H 0.08507 0.54656 0.22413 0.0
H1303 H 0.05841 0.53941 0.20031 0.0
C1304 C 0.35109 0.74208 0.24197 0.0
C1305 C 0.3406 0.75773 0.24804 0.0
C1306 C 0.37027 0.74349 0.24851 0.0
C1307 C 0.4024 0.7712 0.29007 0.0
H1308 H 0.43807 0.73707 0.26617 0.0
C1309 C 0.47381 0.76573 0.32794 0.0
C1310 C 0.47419 0.7464 0.33107 0.0
C1311 C 0.46042 0.76898 0.31472 0.0
C1312 C 0.42827 0.74675 0.27291 0.0
H1313 H 0.34299 0.78813 0.26398 0.0
H1314 H 0.37681 0.79115 0.2742 0.0
H1315 H 0.41001 0.74119 0.24753 0.0
H1316 H 0.46165 0.71522 0.32194 0.0
H1317 H 0.4385 0.72093 0.29842 0.0
H1318 H 0.42091 0.77689 0.31534 0.0
C1319 C 0.36987 0.77728 0.26526 0.0
C1320 C 0.4121 0.74905 0.26233 0.0
C1321 C 0.3505 0.77568 0.25907 0.0
C1322 C 0.46164 0.73027 0.3199 0.0
C1323 C 0.44849 0.73351 0.30639 0.0
C1324 C 0.41877 0.76926 0.30045 0.0
C1325 C 0.3797 0.76083 0.26092 0.0
C1326 C 0.3986 0.76086 0.27094 0.0
C1327 C 0.44744 0.75294 0.30408 0.0
C1328 C 0.43156 0.75665 0.29213 0.0
H1329 H 0.34415 0.72824 0.23294 0.0
H1330 H 0.37715 0.73043 0.24474 0.0
H1331 H 0.39228 0.78008 0.29748 0.0
H1332 H 0.48325 0.77849 0.33632 0.0
H1333 H 0.45986 0.78408 0.31315 0.0
C1334 C 0.93463 0.43211 0.03546 0.0
C1335 C 0.93489 0.43035 0.05479 0.0
C1336 C 0.93991 0.41711 0.02125 0.0
C1337 C 0.94455 0.36482 0.00883 0.0
H1338 H 0.98943 0.38204 0.98052 0.0
C1339 C 0.98629 0.30836 0.96277 0.0
C1340 C 0.99512 0.31323 0.94622 0.0
C1341 C 0.97781 0.32239 0.97542 0.0
C1342 C 0.97664 0.37693 0.98793 0.0
H1343 H 0.93989 0.41139 0.0745 0.0
H1344 H 0.94855 0.38476 0.0495 0.0
H1345 H 0.97519 0.40657 0.00294 0.0
H1346 H 0.00157 0.33637 0.92959 0.0
H1347 H 0.98602 0.36053 0.95106 0.0
H1348 H 0.94554 0.33526 0.99357 0.0
C1349 C 0.94447 0.39781 0.0454 0.0
C1350 C 0.96857 0.39103 0.00085 0.0
C1351 C 0.9396 0.413 0.05964 0.0
C1352 C 0.99509 0.33229 0.94239 0.0
C1353 C 0.98624 0.34618 0.9548 0.0
C1354 C 0.95236 0.35072 0.99559 0.0
C1355 C 0.94511 0.39997 0.02616 0.0
C1356 C 0.9526 0.38507 0.01154 0.0
C1357 C 0.97759 0.3415 0.97157 0.0
C1358 C 0.96868 0.35655 0.98512 0.0
H1359 H 0.93118 0.44546 0.03146 0.0
H1360 H 0.94029 0.41903 0.00648 0.0
H1361 H 0.93216 0.35994 0.0169 0.0
H1362 H 0.98621 0.29379 0.96613 0.0
H1363 H 0.97169 0.3183 0.98834 0.0
C1364 C 0.68148 0.80109 0.26255 0.0
C1365 C 0.6884 0.82129 0.26987 0.0
C1366 C 0.67049 0.78948 0.27403 0.0
C1367 C 0.65586 0.78988 0.32472 0.0
H1368 H 0.60799 0.75784 0.30081 0.0
C1369 C 0.58411 0.77932 0.36288 0.0
C1370 C 0.57178 0.76079 0.3589 0.0
C1371 C 0.60161 0.7822 0.35356 0.0
C1372 C 0.62149 0.76635 0.30765 0.0
H1373 H 0.68989 0.84533 0.29458 0.0
H1374 H 0.67049 0.8254 0.31451 0.0
H1375 H 0.63298 0.77135 0.28083 0.0
H1376 H 0.56841 0.73047 0.3427 0.0
H1377 H 0.59898 0.73569 0.32594 0.0
H1378 H 0.64368 0.78594 0.35164 0.0
C1379 C 0.67375 0.81819 0.30022 0.0
C1380 C 0.63585 0.7741 0.2962 0.0
C1381 C 0.68471 0.82969 0.28878 0.0
C1382 C 0.5777 0.74489 0.34607 0.0
C1383 C 0.5951 0.74788 0.33644 0.0
C1384 C 0.64142 0.78231 0.33616 0.0
C1385 C 0.66628 0.79799 0.29295 0.0
C1386 C 0.65288 0.78659 0.30466 0.0
C1387 C 0.60701 0.76669 0.33983 0.0
C1388 C 0.62383 0.77105 0.32777 0.0
H1389 H 0.68426 0.79442 0.24792 0.0
H1390 H 0.66508 0.77395 0.26804 0.0
H1391 H 0.66902 0.79903 0.33168 0.0
H1392 H 0.57993 0.79182 0.37275 0.0
H1393 H 0.6104 0.79691 0.35632 0.0
C1394 C 0.11541 0.17061 0.04433 0.0
C1395 C 0.10457 0.15604 0.05286 0.0
C1396 C 0.10636 0.17945 0.03148 0.0
C1397 C 0.05862 0.18792 0.01514 0.0
H1398 H 0.08546 0.19404 0.96838 0.0
C1399 C 0.02182 0.21168 0.95251 0.0
C1400 C 0.03312 0.22589 0.94374 0.0
C1401 C 0.03042 0.20252 0.96541 0.0
C1402 C 0.07785 0.19263 0.98144 0.0
H1403 H 0.076 0.13926 0.05522 0.0
H1404 H 0.06 0.15473 0.03265 0.0
H1405 H 0.10053 0.18009 0.99245 0.0
H1406 H 0.0624 0.2413 0.94129 0.0
H1407 H 0.07738 0.22547 0.96391 0.0
H1408 H 0.03598 0.20056 0.00416 0.0
C1409 C 0.07542 0.15953 0.03598 0.0
C1410 C 0.0865 0.18465 0.99525 0.0
C1411 C 0.08452 0.15066 0.04884 0.0
C1412 C 0.05329 0.23036 0.94775 0.0
C1413 C 0.06189 0.22122 0.96068 0.0
C1414 C 0.04998 0.19595 0.00133 0.0
C1415 C 0.08632 0.17379 0.02691 0.0
C1416 C 0.07702 0.18227 0.01228 0.0
C1417 C 0.05052 0.20738 0.96985 0.0
C1418 C 0.05952 0.19844 0.98433 0.0
H1419 H 0.13095 0.17484 0.04726 0.0
H1420 H 0.1151 0.1906 0.02497 0.0
H1421 H 0.05104 0.18648 0.0282 0.0
H1422 H 0.00625 0.20784 0.94968 0.0
H1423 H 0.0213 0.19167 0.97197 0.0
C1424 C 0.33611 0.28126 0.27821 0.0
C1425 C 0.325 0.29652 0.28348 0.0
C1426 C 0.35171 0.28348 0.26616 0.0
C1427 C 0.38616 0.32163 0.24809 0.0
H1428 H 0.39849 0.27501 0.21351 0.0
C1429 C 0.44931 0.32161 0.19385 0.0
C1430 C 0.46119 0.30721 0.19466 0.0
C1431 C 0.43229 0.32177 0.20427 0.0
C1432 C 0.39523 0.28815 0.22314 0.0
H1433 H 0.32137 0.32599 0.27974 0.0
H1434 H 0.34835 0.32964 0.25809 0.0
H1435 H 0.36866 0.27237 0.23121 0.0
H1436 H 0.46468 0.28196 0.2074 0.0
H1437 H 0.4349 0.28208 0.22524 0.0
H1438 H 0.41281 0.33737 0.23959 0.0
C1439 C 0.3452 0.31609 0.26369 0.0
C1440 C 0.37818 0.28665 0.23336 0.0
C1441 C 0.32959 0.31391 0.27592 0.0
C1442 C 0.4559 0.29327 0.20643 0.0
C1443 C 0.43878 0.29324 0.21657 0.0
C1444 C 0.40314 0.32318 0.2376 0.0
C1445 C 0.35653 0.30093 0.25875 0.0
C1446 C 0.37363 0.30323 0.24635 0.0
C1447 C 0.42669 0.30732 0.21541 0.0
C1448 C 0.40803 0.30633 0.22538 0.0
H1449 H 0.3328 0.2675 0.28344 0.0
H1450 H 0.36022 0.27159 0.26298 0.0
H1451 H 0.38324 0.33468 0.25806 0.0
H1452 H 0.45301 0.33258 0.18495 0.0
H1453 H 0.42318 0.33277 0.20315 0.0
C1454 C 0.55009 0.42973 0.01353 0.0
C1455 C 0.56622 0.42721 0.00222 0.0
C1456 C 0.54924 0.42444 0.03151 0.0
C1457 C 0.56822 0.39083 0.0581 0.0
H1458 H 0.54046 0.41803 0.09961 0.0
C1459 C 0.54689 0.35682 0.12441 0.0
C1460 C 0.52675 0.35484 0.12713 0.0
C1461 C 0.55572 0.36946 0.11266 0.0
C1462 C 0.54838 0.41036 0.0882 0.0
H1463 H 0.59438 0.41786 0.00055 0.0
H1464 H 0.59312 0.40872 0.03227 0.0
H1465 H 0.54901 0.43335 0.07199 0.0
H1466 H 0.50036 0.36552 0.12089 0.0
H1467 H 0.51575 0.38771 0.10072 0.0
H1468 H 0.56706 0.36758 0.0741 0.0
C1469 C 0.581 0.41458 0.02724 0.0
C1470 C 0.5532 0.41907 0.07234 0.0
C1471 C 0.5818 0.41986 0.00919 0.0
C1472 C 0.51589 0.36669 0.11899 0.0
C1473 C 0.52474 0.3795 0.10753 0.0
C1474 C 0.56352 0.38219 0.07404 0.0
C1475 C 0.56457 0.41655 0.03851 0.0
C1476 C 0.56255 0.40907 0.05678 0.0
C1477 C 0.54462 0.38057 0.10375 0.0
C1478 C 0.55295 0.39155 0.08893 0.0
H1479 H 0.53789 0.4353 0.00825 0.0
H1480 H 0.53621 0.42582 0.03957 0.0
H1481 H 0.57527 0.38261 0.04633 0.0
H1482 H 0.5556 0.34781 0.13047 0.0
H1483 H 0.5711 0.3701 0.11006 0.0
C1484 C 0.71476 0.30231 0.23469 0.0
C1485 C 0.71741 0.28949 0.24707 0.0
C1486 C 0.69598 0.30486 0.22987 0.0
C1487 C 0.6457 0.27836 0.22605 0.0
H1488 H 0.63193 0.32933 0.22194 0.0
C1489 C 0.56702 0.28489 0.20862 0.0
C1490 C 0.564 0.29666 0.19526 0.0
C1491 C 0.58559 0.28572 0.21644 0.0
C1492 C 0.6356 0.31497 0.22285 0.0
H1493 H 0.70315 0.26965 0.26458 0.0
H1494 H 0.67024 0.27409 0.25627 0.0
H1495 H 0.66483 0.32773 0.23297 0.0
H1496 H 0.57799 0.31903 0.18008 0.0
H1497 H 0.61061 0.32018 0.19347 0.0
H1498 H 0.61679 0.26545 0.2156 0.0
C1499 C 0.68251 0.28207 0.25012 0.0
C1500 C 0.65442 0.31407 0.2292 0.0
C1501 C 0.70127 0.2796 0.25496 0.0
C1502 C 0.57987 0.30979 0.19036 0.0
C1503 C 0.59854 0.3105 0.1981 0.0
C1504 C 0.62698 0.27924 0.21964 0.0
C1505 C 0.67963 0.29449 0.23728 0.0
C1506 C 0.65964 0.29574 0.23091 0.0
C1507 C 0.60167 0.29818 0.21097 0.0
C1508 C 0.62165 0.29754 0.21801 0.0
H1509 H 0.72715 0.30999 0.22842 0.0
H1510 H 0.69422 0.31439 0.21982 0.0
H1511 H 0.64937 0.26396 0.22682 0.0
H1512 H 0.55506 0.27479 0.21287 0.0
H1513 H 0.58737 0.27638 0.22666 0.0
C1514 C 0.46661 0.14027 0.98422 0.0
C1515 C 0.46506 0.12054 0.98677 0.0
C1516 C 0.47417 0.15613 0.99907 0.0
C1517 C 0.47991 0.16725 0.05191 0.0
H1518 H 0.50765 0.21802 0.04413 0.0
C1519 C 0.50464 0.23311 0.11501 0.0
C1520 C 0.50063 0.25172 0.11269 0.0
C1521 C 0.50252 0.217 0.09946 0.0
C1522 C 0.49984 0.20393 0.04649 0.0
H1523 H 0.47151 0.10181 0.00619 0.0
H1524 H 0.48521 0.12944 0.03196 0.0
H1525 H 0.50124 0.18987 0.01697 0.0
H1526 H 0.4915 0.26805 0.0921 0.0
H1527 H 0.48776 0.23989 0.06499 0.0
H1528 H 0.4784 0.18133 0.08136 0.0
C1529 C 0.48005 0.13274 0.01875 0.0
C1530 C 0.49615 0.18781 0.03094 0.0
C1531 C 0.47232 0.11691 0.00397 0.0
C1532 C 0.49466 0.25391 0.09441 0.0
C1533 C 0.49267 0.23783 0.07883 0.0
C1534 C 0.48371 0.1833 0.06744 0.0
C1535 C 0.48047 0.15256 0.01673 0.0
C1536 C 0.48593 0.16932 0.03342 0.0
C1537 C 0.49647 0.21917 0.08121 0.0
C1538 C 0.4935 0.20188 0.06486 0.0
H1539 H 0.46095 0.14348 0.97116 0.0
H1540 H 0.4741 0.17117 0.99705 0.0
H1541 H 0.47165 0.15339 0.05432 0.0
H1542 H 0.50934 0.23091 0.12888 0.0
H1543 H 0.50571 0.20284 0.1017 0.0
C1544 C 0.27823 0.343 0.78924 0.0
C1545 C 0.27479 0.33329 0.76992 0.0
C1546 C 0.28251 0.3638 0.79418 0.0
C1547 C 0.28437 0.41019 0.77404 0.0
H1548 H 0.32634 0.43059 0.81229 0.0
C1549 C 0.34014 0.48196 0.77653 0.0
C1550 C 0.34563 0.49424 0.79456 0.0
C1551 C 0.32715 0.4641 0.77513 0.0
C1552 C 0.31439 0.42518 0.80181 0.0
H1553 H 0.27175 0.338 0.74082 0.0
H1554 H 0.28026 0.37392 0.74921 0.0
H1555 H 0.31157 0.39571 0.80715 0.0
H1556 H 0.3411 0.49787 0.82518 0.0
H1557 H 0.31874 0.46641 0.8227 0.0
H1558 H 0.2883 0.43962 0.76794 0.0
C1559 C 0.27936 0.36565 0.76068 0.0
C1560 C 0.30582 0.40516 0.79888 0.0
C1561 C 0.27481 0.34492 0.7558 0.0
C1562 C 0.33717 0.48873 0.81108 0.0
C1563 C 0.32443 0.47071 0.80969 0.0
C1564 C 0.2932 0.43016 0.77676 0.0
C1565 C 0.28369 0.37538 0.7799 0.0
C1566 C 0.29096 0.39726 0.78468 0.0
C1567 C 0.31964 0.45805 0.79175 0.0
C1568 C 0.30852 0.43773 0.79044 0.0
H1569 H 0.27837 0.33456 0.80052 0.0
H1570 H 0.28534 0.37074 0.80917 0.0
H1571 H 0.27268 0.40481 0.76329 0.0
H1572 H 0.34633 0.48584 0.76353 0.0
H1573 H 0.32379 0.45453 0.76112 0.0
C1574 C 0.28936 0.71428 0.7858 0.0
C1575 C 0.27419 0.71655 0.79864 0.0
C1576 C 0.30056 0.69928 0.78586 0.0
C1577 C 0.30057 0.65204 0.80324 0.0
H1578 H 0.35642 0.66363 0.79795 0.0
C1579 C 0.35198 0.60378 0.82625 0.0
C1580 C 0.36499 0.5968 0.8125 0.0
C1581 C 0.34172 0.61873 0.82354 0.0
C1582 C 0.34082 0.66018 0.79929 0.0
H1583 H 0.25851 0.70434 0.82113 0.0
H1584 H 0.27839 0.67891 0.8218 0.0
H1585 H 0.33637 0.68869 0.79458 0.0
H1586 H 0.37812 0.60067 0.78555 0.0
H1587 H 0.36034 0.62722 0.78105 0.0
H1588 H 0.30514 0.62383 0.8086 0.0
C1589 C 0.28153 0.68843 0.81144 0.0
C1590 C 0.32931 0.67446 0.79728 0.0
C1591 C 0.27028 0.70327 0.81127 0.0
C1592 C 0.36815 0.60571 0.79638 0.0
C1593 C 0.35804 0.62091 0.79381 0.0
C1594 C 0.31208 0.63794 0.8055 0.0
C1595 C 0.29686 0.68625 0.79879 0.0
C1596 C 0.30905 0.67065 0.79949 0.0
C1597 C 0.3444 0.62721 0.80716 0.0
C1598 C 0.33232 0.64196 0.80379 0.0
H1599 H 0.29285 0.72433 0.77597 0.0
H1600 H 0.3121 0.69789 0.77576 0.0
H1601 H 0.28499 0.64835 0.80455 0.0
H1602 H 0.34922 0.59727 0.83883 0.0
H1603 H 0.33146 0.62353 0.83418 0.0
C1604 C 0.91484 0.52877 0.50182 0.0
C1605 C 0.91483 0.54901 0.50216 0.0
C1606 C 0.89855 0.51694 0.50738 0.0
C1607 C 0.85135 0.51926 0.53186 0.0
H1608 H 0.83896 0.4648 0.5035 0.0
C1609 C 0.77664 0.46689 0.52994 0.0
C1610 C 0.77752 0.44741 0.53234 0.0
C1611 C 0.79373 0.48021 0.52867 0.0
C1612 C 0.84235 0.47993 0.51165 0.0
H1613 H 0.898 0.57293 0.50859 0.0
H1614 H 0.86911 0.55215 0.51755 0.0
H1615 H 0.86798 0.48618 0.49613 0.0
H1616 H 0.79705 0.42693 0.53602 0.0
H1617 H 0.82675 0.45008 0.53341 0.0
H1618 H 0.82501 0.51296 0.54674 0.0
C1619 C 0.88187 0.54543 0.51358 0.0
C1620 C 0.85905 0.4922 0.50753 0.0
C1621 C 0.89834 0.55734 0.50835 0.0
C1622 C 0.79583 0.4418 0.53414 0.0
C1623 C 0.81285 0.45499 0.53257 0.0
C1624 C 0.83442 0.50704 0.53575 0.0
C1625 C 0.88169 0.52501 0.51301 0.0
C1626 C 0.86387 0.51201 0.51763 0.0
C1627 C 0.81193 0.47417 0.52949 0.0
C1628 C 0.82986 0.48725 0.52573 0.0
H1629 H 0.92752 0.5221 0.49731 0.0
H1630 H 0.8992 0.50144 0.50721 0.0
H1631 H 0.85469 0.53433 0.54014 0.0
H1632 H 0.76276 0.47169 0.5286 0.0
H1633 H 0.79268 0.49492 0.52623 0.0
C1634 C 0.7401 0.86462 0.78446 0.0
C1635 C 0.75384 0.86689 0.7995 0.0
C1636 C 0.73311 0.88124 0.78046 0.0
C1637 C 0.72561 0.93094 0.80512 0.0
H1638 H 0.71461 0.9391 0.75399 0.0
C1639 C 0.69972 0.00234 0.79363 0.0
C1640 C 0.68523 0.0007 0.77932 0.0
C1641 C 0.70866 0.98609 0.79511 0.0
C1642 C 0.71739 0.93691 0.76837 0.0
H1643 H 0.77162 0.88791 0.82185 0.0
H1644 H 0.75964 0.91708 0.8148 0.0
H1645 H 0.73002 0.91082 0.75787 0.0
H1646 H 0.66886 0.98065 0.75524 0.0
H1647 H 0.68425 0.95205 0.75805 0.0
H1648 H 0.71275 0.95668 0.8157 0.0
C1649 C 0.75409 0.90255 0.80614 0.0
C1650 C 0.72628 0.92074 0.77058 0.0
C1651 C 0.76109 0.88594 0.81008 0.0
C1652 C 0.67998 0.9824 0.76642 0.0
C1653 C 0.68889 0.96605 0.76796 0.0
C1654 C 0.71667 0.94699 0.80293 0.0
C1655 C 0.73966 0.90034 0.7916 0.0
C1656 C 0.73058 0.91764 0.789 0.0
C1657 C 0.70328 0.96768 0.78241 0.0
C1658 C 0.71252 0.95027 0.78454 0.0
H1659 H 0.73419 0.84994 0.77631 0.0
H1660 H 0.7219 0.879 0.76928 0.0
H1661 H 0.72829 0.92872 0.81951 0.0
H1662 H 0.70426 0.01625 0.80371 0.0
H1663 H 0.71994 0.98803 0.80617 0.0
C1664 C 0.62474 0.49393 0.96949 0.0
C1665 C 0.60669 0.50047 0.97183 0.0
C1666 C 0.64205 0.50748 0.97407 0.0
C1667 C 0.67404 0.54222 0.97053 0.0
H1668 H 0.68076 0.584 0.01626 0.0
C1669 C 0.74398 0.60143 0.98683 0.0
C1670 C 0.74146 0.62102 0.99476 0.0
C1671 C 0.72829 0.58572 0.98495 0.0
C1672 C 0.67903 0.57255 0.00332 0.0
H1673 H 0.59251 0.52599 0.9817 0.0
H1674 H 0.62273 0.54963 0.98983 0.0
H1675 H 0.65202 0.55812 0.01218 0.0
H1676 H 0.72038 0.63953 0.00654 0.0
H1677 H 0.69303 0.61232 0.00283 0.0
H1678 H 0.7007 0.55693 0.96134 0.0
C1679 C 0.62353 0.53408 0.98441 0.0
C1680 C 0.66262 0.55768 0.00105 0.0
C1681 C 0.60624 0.5206 0.97965 0.0
C1682 C 0.72287 0.6246 0.00049 0.0
C1683 C 0.7072 0.60895 0.99851 0.0
C1684 C 0.6904 0.55718 0.97273 0.0
C1685 C 0.64161 0.52775 0.9813 0.0
C1686 C 0.65983 0.54251 0.98453 0.0
C1687 C 0.70972 0.58929 0.99088 0.0
C1688 C 0.69296 0.57269 0.98903 0.0
H1689 H 0.62548 0.47851 0.96336 0.0
H1690 H 0.65579 0.50217 0.97168 0.0
H1691 H 0.67215 0.53085 0.95753 0.0
H1692 H 0.75814 0.59815 0.98237 0.0
H1693 H 0.7308 0.57074 0.97918 0.0
C1694 C 0.26006 0.70463 0.23598 0.0
C1695 C 0.27654 0.71318 0.24802 0.0
C1696 C 0.2498 0.68591 0.23721 0.0
C1697 C 0.24116 0.65046 0.26993 0.0
H1698 H 0.22106 0.61286 0.22352 0.0
C1699 C 0.2011 0.57167 0.27235 0.0
C1700 C 0.18337 0.56585 0.26167 0.0
C1701 C 0.21413 0.58839 0.2697 0.0
C1702 C 0.22653 0.62324 0.2366 0.0
H1703 H 0.29495 0.70894 0.27104 0.0
H1704 H 0.27728 0.67612 0.27293 0.0
H1705 H 0.24035 0.64487 0.22112 0.0
H1706 H 0.16586 0.57251 0.23918 0.0
H1707 H 0.18855 0.60164 0.23464 0.0
H1708 H 0.22719 0.62893 0.28541 0.0
C1709 C 0.2722 0.68394 0.26263 0.0
C1710 C 0.23752 0.64159 0.23524 0.0
C1711 C 0.28245 0.70266 0.26141 0.0
C1712 C 0.17935 0.57661 0.24771 0.0
C1713 C 0.19241 0.59326 0.24501 0.0
C1714 C 0.23022 0.6321 0.27129 0.0
C1715 C 0.25578 0.67533 0.25051 0.0
C1716 C 0.24478 0.6555 0.2519 0.0
C1717 C 0.20976 0.59956 0.25624 0.0
C1718 C 0.22261 0.61838 0.25465 0.0
H1719 H 0.25525 0.71228 0.2254 0.0
H1720 H 0.23706 0.67982 0.22785 0.0
H1721 H 0.24632 0.66094 0.28305 0.0
H1722 H 0.20469 0.56367 0.28316 0.0
H1723 H 0.22753 0.59275 0.27837 0.0
C1724 C 0.90677 0.53418 0.08251 0.0
C1725 C 0.89115 0.5197 0.08532 0.0
C1726 C 0.90334 0.5525 0.07897 0.0
C1727 C 0.86458 0.58407 0.07926 0.0
H1728 H 0.89223 0.60086 0.03645 0.0
C1729 C 0.83984 0.64382 0.04351 0.0
C1730 C 0.8382 0.63863 0.02335 0.0
C1731 C 0.85041 0.6336 0.05388 0.0
C1732 C 0.88439 0.59641 0.04845 0.0
H1733 H 0.85994 0.5127 0.08717 0.0
H1734 H 0.85378 0.54439 0.08075 0.0
H1735 H 0.90223 0.57452 0.05029 0.0
H1736 H 0.84736 0.61949 0.99824 0.0
H1737 H 0.86532 0.60152 0.01619 0.0
H1738 H 0.84586 0.60494 0.07653 0.0
C1739 C 0.86872 0.54207 0.08166 0.0
C1740 C 0.89029 0.58145 0.05658 0.0
C1741 C 0.87219 0.52386 0.08525 0.0
C1742 C 0.84829 0.62386 0.01376 0.0
C1743 C 0.85875 0.61361 0.0241 0.0
C1744 C 0.85858 0.59891 0.07104 0.0
C1745 C 0.88421 0.55649 0.07807 0.0
C1746 C 0.88006 0.57464 0.07169 0.0
C1747 C 0.8595 0.61795 0.04431 0.0
C1748 C 0.86802 0.60482 0.05512 0.0
H1749 H 0.92153 0.5311 0.08242 0.0
H1750 H 0.91562 0.56333 0.07649 0.0
H1751 H 0.8566 0.57947 0.09112 0.0
H1752 H 0.83234 0.65523 0.05132 0.0
H1753 H 0.85096 0.63758 0.06942 0.0
C1754 C 0.11652 0.06058 0.10693 0.0
C1755 C 0.12884 0.07814 0.10482 0.0
C1756 C 0.12381 0.0428 0.10576 0.0
C1757 C 0.13956 0.00596 0.0867 0.0
H1758 H 0.19246 0.00387 0.10215 0.0
C1759 C 0.18388 0.9499 0.04617 0.0
C1760 C 0.198 0.94292 0.05598 0.0
C1761 C 0.17308 0.96367 0.05598 0.0
C1762 C 0.17752 0.00403 0.09805 0.0
H1763 H 0.15872 0.091 0.10101 0.0
H1764 H 0.17131 0.05992 0.09831 0.0
H1765 H 0.17864 0.03395 0.11359 0.0
H1766 H 0.21112 0.94405 0.08398 0.0
H1767 H 0.19211 0.96823 0.10124 0.0
H1768 H 0.13852 0.97617 0.07096 0.0
C1769 C 0.15605 0.05989 0.10112 0.0
C1770 C 0.16969 0.02138 0.1044 0.0
C1771 C 0.14878 0.07768 0.10239 0.0
C1772 C 0.20035 0.94919 0.07603 0.0
C1773 C 0.18957 0.96312 0.08588 0.0
C1774 C 0.14737 0.98861 0.08041 0.0
C1775 C 0.14357 0.04212 0.10235 0.0
C1776 C 0.15083 0.02278 0.09828 0.0
C1777 C 0.17614 0.97086 0.07586 0.0
C1778 C 0.16666 0.98769 0.08547 0.0
H1779 H 0.10106 0.06033 0.10867 0.0
H1780 H 0.11384 0.02947 0.10703 0.0
H1781 H 0.12504 0.00649 0.08158 0.0
H1782 H 0.18167 0.94532 0.03073 0.0
H1783 H 0.16306 0.96947 0.04775 0.0
loop_
_geom_bond_atom_site_label_1
_geom_bond_atom_site_label_2
_geom_bond_distance
_geom_bond_site_symmetry_2
_ccdc_geom_bond_type
H0 C3 0.929 . S
H1 C6 0.929 . S
H2 C8 0.930 . S
C3 H0 0.929 . S
C3 C4 1.398 . S
C3 C5 1.396 . S
C4 C3 1.398 . S
C4 C8 1.407 . S
C5 C3 1.396 . S
C5 C6 1.394 . S
C6 H1 0.929 . S
C6 C5 1.394 . S
C6 C7 1.382 . S
C7 C6 1.382 . S
C7 C8 1.392 . S
C7 N9 1.420 . S
C8 H2 0.930 . S
C8 C4 1.407 . S
C8 C7 1.392 . S
N9 C7 1.420 . S
N9 C10 1.244 . S
C10 N9 1.244 . S
H11 C14 0.929 . S
H12 C17 0.929 . S
H13 C19 0.930 . S
C14 H11 0.929 . S
C14 C15 1.398 . S
C14 C16 1.396 . S
C15 C14 1.398 . S
C15 C19 1.407 . S
C16 C14 1.396 . S
C16 C17 1.394 . S
C17 H12 0.929 . S
C17 C16 1.394 . S
C17 C18 1.382 . S
C18 C17 1.382 . S
C18 C19 1.392 . S
C18 N20 1.420 . S
C19 H13 0.930 . S
C19 C15 1.407 . S
C19 C18 1.392 . S
N20 C18 1.420 . S
N20 C21 1.244 . S
C21 N20 1.244 . S
H22 C25 0.929 . S
H23 C28 0.929 . S
H24 C30 0.930 . S
C25 H22 0.929 . S
C25 C26 1.398 . S
C25 C27 1.396 . S
C26 C25 1.398 . S
C26 C30 1.407 . S
C27 C25 1.396 . S
C27 C28 1.394 . S
C28 H23 0.929 . S
C28 C27 1.394 . S
C28 C29 1.382 . S
C29 C28 1.382 . S
C29 C30 1.392 . S
C29 N31 1.420 . S
C30 H24 0.930 . S
C30 C26 1.407 . S
C30 C29 1.392 . S
N31 C29 1.420 . S
N31 C32 1.244 . S
C32 N31 1.244 . S
H33 C36 0.929 . S
H34 C39 0.929 . S
H35 C41 0.930 . S
C36 H33 0.929 . S
C36 C37 1.398 . S
C36 C38 1.396 . S
C37 C36 1.398 . S
C37 C41 1.407 . S
C38 C36 1.396 . S
C38 C39 1.394 . S
C39 H34 0.929 . S
C39 C38 1.394 . S
C39 C40 1.382 . S
C40 C39 1.382 . S
C40 C41 1.392 . S
C40 N42 1.420 . S
C41 H35 0.930 . S
C41 C37 1.407 . S
C41 C40 1.392 . S
N42 C40 1.420 . S
N42 C43 1.244 . S
C43 N42 1.244 . S
H44 C47 0.929 . S
H45 C50 0.929 . S
H46 C52 0.930 . S
C47 H44 0.929 . S
C47 C48 1.398 . S
C47 C49 1.396 . S
C48 C47 1.398 . S
C48 C52 1.407 . S
C49 C47 1.396 . S
C49 C50 1.394 . S
C50 H45 0.929 . S
C50 C49 1.394 . S
C50 C51 1.382 . S
C51 C50 1.382 . S
C51 C52 1.392 . S
C51 N53 1.420 . S
C52 H46 0.930 . S
C52 C48 1.407 . S
C52 C51 1.392 . S
N53 C51 1.420 . S
N53 C54 1.244 . S
C54 N53 1.244 . S
H55 C58 0.929 . S
H56 C61 0.929 . S
H57 C63 0.930 . S
C58 H55 0.929 . S
C58 C59 1.398 . S
C58 C60 1.396 . S
C59 C58 1.398 . S
C59 C63 1.407 . S
C60 C58 1.396 . S
C60 C61 1.394 . S
C61 H56 0.929 . S
C61 C60 1.394 . S
C61 C62 1.382 . S
C62 C61 1.382 . S
C62 C63 1.392 . S
C62 N64 1.420 . S
C63 H57 0.930 . S
C63 C59 1.407 . S
C63 C62 1.392 . S
N64 C62 1.420 . S
N64 C65 1.244 . S
C65 N64 1.244 . S
H66 C69 0.929 . S
H67 C72 0.929 . S
H68 C74 0.930 . S
C69 H66 0.929 . S
C69 C70 1.398 . S
C69 C71 1.396 . S
C70 C69 1.398 . S
C70 C74 1.407 . S
C71 C69 1.396 . S
C71 C72 1.394 . S
C72 H67 0.929 . S
C72 C71 1.394 . S
C72 C73 1.382 . S
C73 C72 1.382 . S
C73 C74 1.392 . S
C73 N75 1.420 . S
C74 H68 0.930 . S
C74 C70 1.407 . S
C74 C73 1.392 . S
N75 C73 1.420 . S
N75 C76 1.244 . S
C76 N75 1.244 . S
H77 C80 0.929 . S
H78 C83 0.929 . S
H79 C85 0.930 . S
C80 H77 0.929 . S
C80 C81 1.398 . S
C80 C82 1.396 . S
C81 C80 1.398 . S
C81 C85 1.407 . S
C82 C80 1.396 . S
C82 C83 1.394 . S
C83 H78 0.929 . S
C83 C82 1.394 . S
C83 C84 1.382 . S
C84 C83 1.382 . S
C84 C85 1.392 . S
C84 N86 1.420 . S
C85 H79 0.930 . S
C85 C81 1.407 . S
C85 C84 1.392 . S
N86 C84 1.420 . S
N86 C87 1.244 . S
C87 N86 1.244 . S
H88 C91 0.929 . S
H89 C94 0.929 . S
H90 C96 0.930 . S
C91 H88 0.929 . S
C91 C92 1.398 . S
C91 C93 1.396 . S
C92 C91 1.398 . S
C92 C96 1.407 . S
C93 C91 1.396 . S
C93 C94 1.394 . S
C94 H89 0.929 . S
C94 C93 1.394 . S
C94 C95 1.382 . S
C95 C94 1.382 . S
C95 C96 1.392 . S
C95 N97 1.420 . S
C96 H90 0.930 . S
C96 C92 1.407 . S
C96 C95 1.392 . S
N97 C95 1.420 . S
N97 C98 1.244 . S
C98 N97 1.244 . S
H99 C102 0.929 . S
H100 C105 0.929 . S
H101 C107 0.930 . S
C102 H99 0.929 . S
C102 C103 1.398 . S
C102 C104 1.396 . S
C103 C102 1.398 . S
C103 C107 1.407 . S
C104 C102 1.396 . S
C104 C105 1.394 . S
C105 H100 0.929 . S
C105 C104 1.394 . S
C105 C106 1.382 . S
C106 C105 1.382 . S
C106 C107 1.392 . S
C106 N108 1.420 . S
C107 H101 0.930 . S
C107 C103 1.407 . S
C107 C106 1.392 . S
N108 C106 1.420 . S
N108 C109 1.244 . S
C109 N108 1.244 . S
H110 C113 0.929 . S
H111 C116 0.929 . S
H112 C118 0.930 . S
C113 H110 0.929 . S
C113 C114 1.398 . S
C113 C115 1.396 . S
C114 C113 1.398 . S
C114 C118 1.407 . S
C115 C113 1.396 . S
C115 C116 1.394 . S
C116 H111 0.929 . S
C116 C115 1.394 . S
C116 C117 1.382 . S
C117 C116 1.382 . S
C117 C118 1.392 . S
C117 N119 1.420 . S
C118 H112 0.930 . S
C118 C114 1.407 . S
C118 C117 1.392 . S
N119 C117 1.420 . S
N119 C120 1.244 . S
C120 N119 1.244 . S
H121 C124 0.929 . S
H122 C127 0.929 . S
H123 C129 0.930 . S
C124 H121 0.929 . S
C124 C125 1.398 . S
C124 C126 1.396 . S
C125 C124 1.398 . S
C125 C129 1.407 . S
C126 C124 1.396 . S
C126 C127 1.394 . S
C127 H122 0.929 . S
C127 C126 1.394 . S
C127 C128 1.382 . S
C128 C127 1.382 . S
C128 C129 1.392 . S
C128 N130 1.420 . S
C129 H123 0.930 . S
C129 C125 1.407 . S
C129 C128 1.392 . S
N130 C128 1.420 . S
N130 C131 1.244 . S
C131 N130 1.244 . S
H132 C135 0.929 . S
H133 C138 0.929 . S
H134 C140 0.930 . S
C135 H132 0.929 . S
C135 C136 1.398 . S
C135 C137 1.396 . S
C136 C135 1.398 . S
C136 C140 1.407 . S
C137 C135 1.396 . S
C137 C138 1.394 . S
C138 H133 0.929 . S
C138 C137 1.394 . S
C138 C139 1.382 . S
C139 C138 1.382 . S
C139 C140 1.392 . S
C139 N141 1.420 . S
C140 H134 0.930 . S
C140 C136 1.407 . S
C140 C139 1.392 . S
N141 C139 1.420 . S
N141 C142 1.244 . S
C142 N141 1.244 . S
H143 C146 0.929 . S
H144 C149 0.929 . S
H145 C151 0.930 . S
C146 H143 0.929 . S
C146 C147 1.398 . S
C146 C148 1.396 . S
C147 C146 1.398 . S
C147 C151 1.407 . S
C148 C146 1.396 . S
C148 C149 1.394 . S
C149 H144 0.929 . S
C149 C148 1.394 . S
C149 C150 1.382 . S
C150 C149 1.382 . S
C150 C151 1.392 . S
C150 N152 1.420 . S
C151 H145 0.930 . S
C151 C147 1.407 . S
C151 C150 1.392 . S
N152 C150 1.420 . S
N152 C153 1.244 . S
C153 N152 1.244 . S
H154 C157 0.929 . S
H155 C160 0.929 . S
H156 C162 0.930 . S
C157 H154 0.929 . S
C157 C158 1.398 . S
C157 C159 1.396 . S
C158 C157 1.398 . S
C158 C162 1.407 . S
C159 C157 1.396 . S
C159 C160 1.394 . S
C160 H155 0.929 . S
C160 C159 1.394 . S
C160 C161 1.382 . S
C161 C160 1.382 . S
C161 C162 1.392 . S
C161 N163 1.420 . S
C162 H156 0.930 . S
C162 C158 1.407 . S
C162 C161 1.392 . S
N163 C161 1.420 . S
N163 C164 1.244 . S
C164 N163 1.244 . S
H165 C168 0.929 . S
H166 C171 0.929 . S
H167 C173 0.930 . S
C168 H165 0.929 . S
C168 C169 1.398 . S
C168 C170 1.396 . S
C169 C168 1.398 . S
C169 C173 1.407 . S
C170 C168 1.396 . S
C170 C171 1.394 . S
C171 H166 0.929 . S
C171 C170 1.394 . S
C171 C172 1.382 . S
C172 C171 1.382 . S
C172 C173 1.392 . S
C172 N174 1.420 . S
C173 H167 0.930 . S
C173 C169 1.407 . S
C173 C172 1.392 . S
N174 C172 1.420 . S
N174 C175 1.244 . S
C175 N174 1.244 . S
O176 Cd177 2.223 . S
O176 C184 1.315 . S
Cd177 O176 2.223 . S
Cd177 O180 2.297 . S
Cd177 O181 2.439 . S
Cd177 O187 2.240 . S
Cd178 O179 2.240 . S
Cd178 O186 2.223 . S
Cd178 O188 2.297 . S
Cd178 O189 2.439 . S
O179 Cd178 2.240 . S
O179 C184 1.279 . S
O180 Cd177 2.297 . S
O180 C182 1.247 . S
O181 Cd177 2.439 . S
O181 C182 1.208 . S
C182 O180 1.247 . S
C182 O181 1.208 . S
C183 O188 1.247 . S
C183 O189 1.208 . S
C184 O176 1.315 . S
C184 O179 1.279 . S
C185 O186 1.315 . S
C185 O187 1.279 . S
O186 Cd178 2.223 . S
O186 C185 1.315 . S
O187 Cd177 2.240 . S
O187 C185 1.279 . S
O188 Cd178 2.297 . S
O188 C183 1.247 . S
O189 Cd178 2.439 . S
O189 C183 1.208 . S
O190 Cd191 2.223 . S
O190 C198 1.315 . S
Cd191 O190 2.223 . S
Cd191 O194 2.297 . S
Cd191 O195 2.439 . S
Cd191 O201 2.240 . S
Cd192 O193 2.240 . S
Cd192 O200 2.223 . S
Cd192 O202 2.297 . S
Cd192 O203 2.439 . S
O193 Cd192 2.240 . S
O193 C198 1.279 . S
O194 Cd191 2.297 . S
O194 C196 1.247 . S
O195 Cd191 2.439 . S
O195 C196 1.208 . S
C196 O194 1.247 . S
C196 O195 1.208 . S
C197 O202 1.247 . S
C197 O203 1.208 . S
C198 O190 1.315 . S
C198 O193 1.279 . S
C199 O200 1.315 . S
C199 O201 1.279 . S
O200 Cd192 2.223 . S
O200 C199 1.315 . S
O201 Cd191 2.240 . S
O201 C199 1.279 . S
O202 Cd192 2.297 . S
O202 C197 1.247 . S
O203 Cd192 2.439 . S
O203 C197 1.208 . S
O204 Cd205 2.223 1_556 S
O204 C212 1.315 . S
Cd205 O204 2.223 1_554 S
Cd205 O208 2.297 . S
Cd205 O209 2.439 . S
Cd205 O215 2.240 1_554 S
Cd206 O207 2.240 . S
Cd206 O214 2.223 . S
Cd206 O216 2.297 . S
Cd206 O217 2.439 1_556 S
O207 Cd206 2.240 . S
O207 C212 1.279 . S
O208 Cd205 2.297 . S
O208 C210 1.247 . S
O209 Cd205 2.439 . S
O209 C210 1.208 . S
C210 O208 1.247 . S
C210 O209 1.208 . S
C211 O216 1.247 1_554 S
C211 O217 1.208 . S
C212 O204 1.315 . S
C212 O207 1.279 . S
C213 O214 1.315 . S
C213 O215 1.279 . S
O214 Cd206 2.223 . S
O214 C213 1.315 . S
O215 Cd205 2.240 1_556 S
O215 C213 1.279 . S
O216 Cd206 2.297 . S
O216 C211 1.247 1_556 S
O217 Cd206 2.439 1_554 S
O217 C211 1.208 . S
O218 Cd219 2.223 . S
O218 C226 1.315 . S
Cd219 O218 2.223 . S
Cd219 O222 2.297 . S
Cd219 O223 2.439 . S
Cd219 O229 2.240 . S
Cd220 O221 2.240 . S
Cd220 O228 2.223 . S
Cd220 O230 2.297 . S
Cd220 O231 2.439 . S
O221 Cd220 2.240 . S
O221 C226 1.279 . S
O222 Cd219 2.297 . S
O222 C224 1.247 . S
O223 Cd219 2.439 . S
O223 C224 1.208 . S
C224 O222 1.247 . S
C224 O223 1.208 . S
C225 O230 1.247 . S
C225 O231 1.208 . S
C226 O218 1.315 . S
C226 O221 1.279 . S
C227 O228 1.315 . S
C227 O229 1.279 . S
O228 Cd220 2.223 . S
O228 C227 1.315 . S
O229 Cd219 2.240 . S
O229 C227 1.279 . S
O230 Cd220 2.297 . S
O230 C225 1.247 . S
O231 Cd220 2.439 . S
O231 C225 1.208 . S
O232 Cd233 2.223 . S
O232 C240 1.315 . S
Cd233 O232 2.223 . S
Cd233 O236 2.297 . S
Cd233 O237 2.439 . S
Cd233 O243 2.240 . S
Cd234 O235 2.240 . S
Cd234 O242 2.223 . S
Cd234 O244 2.297 . S
Cd234 O245 2.439 . S
O235 Cd234 2.240 . S
O235 C240 1.279 . S
O236 Cd233 2.297 . S
O236 C238 1.247 . S
O237 Cd233 2.439 . S
O237 C238 1.208 . S
C238 O236 1.247 . S
C238 O237 1.208 . S
C239 O244 1.247 . S
C239 O245 1.208 . S
C240 O232 1.315 . S
C240 O235 1.279 . S
C241 O242 1.315 . S
C241 O243 1.279 . S
O242 Cd234 2.223 . S
O242 C241 1.315 . S
O243 Cd233 2.240 . S
O243 C241 1.279 . S
O244 Cd234 2.297 . S
O244 C239 1.247 . S
O245 Cd234 2.439 . S
O245 C239 1.208 . S
O246 Cd247 2.223 . S
O246 C254 1.315 . S
Cd247 O246 2.223 . S
Cd247 O250 2.297 . S
Cd247 O251 2.439 . S
Cd247 O257 2.240 . S
Cd248 O249 2.240 . S
Cd248 O256 2.223 . S
Cd248 O258 2.297 . S
Cd248 O259 2.439 . S
O249 Cd248 2.240 . S
O249 C254 1.279 . S
O250 Cd247 2.297 . S
O250 C252 1.247 . S
O251 Cd247 2.439 . S
O251 C252 1.208 . S
C252 O250 1.247 . S
C252 O251 1.208 . S
C253 O258 1.247 . S
C253 O259 1.208 . S
C254 O246 1.315 . S
C254 O249 1.279 . S
C255 O256 1.315 . S
C255 O257 1.279 . S
O256 Cd248 2.223 . S
O256 C255 1.315 . S
O257 Cd247 2.240 . S
O257 C255 1.279 . S
O258 Cd248 2.297 . S
O258 C253 1.247 . S
O259 Cd248 2.439 . S
O259 C253 1.208 . S
O260 Cd261 2.223 . S
O260 C268 1.315 . S
Cd261 O260 2.223 . S
Cd261 O264 2.297 . S
Cd261 O265 2.439 . S
Cd261 O271 2.240 . S
Cd262 O263 2.240 . S
Cd262 O270 2.223 . S
Cd262 O272 2.297 . S
Cd262 O273 2.439 . S
O263 Cd262 2.240 . S
O263 C268 1.279 . S
O264 Cd261 2.297 . S
O264 C266 1.247 . S
O265 Cd261 2.439 . S
O265 C266 1.208 . S
C266 O264 1.247 . S
C266 O265 1.208 . S
C267 O272 1.247 . S
C267 O273 1.208 . S
C268 O260 1.315 . S
C268 O263 1.279 . S
C269 O270 1.315 . S
C269 O271 1.279 . S
O270 Cd262 2.223 . S
O270 C269 1.315 . S
O271 Cd261 2.240 . S
O271 C269 1.279 . S
O272 Cd262 2.297 . S
O272 C267 1.247 . S
O273 Cd262 2.439 . S
O273 C267 1.208 . S
O274 Cd275 2.223 1_545 S
O274 C282 1.315 . S
Cd275 O274 2.223 1_565 S
Cd275 O278 2.297 . S
Cd275 O279 2.439 . S
Cd275 O285 2.240 1_565 S
Cd276 O277 2.240 . S
Cd276 O284 2.223 . S
Cd276 O286 2.297 . S
Cd276 O287 2.439 1_545 S
O277 Cd276 2.240 . S
O277 C282 1.279 . S
O278 Cd275 2.297 . S
O278 C280 1.247 . S
O279 Cd275 2.439 . S
O279 C280 1.208 . S
C280 O278 1.247 . S
C280 O279 1.208 . S
C281 O286 1.247 1_565 S
C281 O287 1.208 . S
C282 O274 1.315 . S
C282 O277 1.279 . S
C283 O284 1.315 . S
C283 O285 1.279 . S
O284 Cd276 2.223 . S
O284 C283 1.315 . S
O285 Cd275 2.240 1_545 S
O285 C283 1.279 . S
O286 Cd276 2.297 . S
O286 C281 1.247 1_545 S
O287 Cd276 2.439 1_565 S
O287 C281 1.208 . S
O288 Cd289 2.223 1_655 S
O288 C296 1.315 . S
Cd289 O288 2.223 1_455 S
Cd289 O292 2.297 . S
Cd289 O293 2.439 . S
Cd289 O299 2.242 . S
Cd290 O291 2.240 . S
Cd290 O298 2.223 1_455 S
Cd290 O300 2.297 . S
Cd290 O301 2.439 . S
O291 Cd290 2.240 . S
O291 C296 1.279 1_455 S
O292 Cd289 2.297 . S
O292 C294 1.247 . S
O293 Cd289 2.439 . S
O293 C294 1.208 . S
C294 O292 1.247 . S
C294 O293 1.208 . S
C295 O300 1.247 . S
C295 O301 1.208 . S
C296 O288 1.315 . S
C296 O291 1.279 1_655 S
C297 O298 1.315 . S
C297 O299 1.260 1_655 S
O298 Cd290 2.223 1_655 S
O298 C297 1.315 . S
O299 Cd289 2.242 . S
O299 C297 1.260 1_455 S
O300 Cd290 2.297 . S
O300 C295 1.247 . S
O301 Cd290 2.439 . S
O301 C295 1.208 . S
O302 Cd303 2.223 . S
O302 C310 1.315 . S
Cd303 O302 2.223 . S
Cd303 O306 2.297 . S
Cd303 O307 2.439 . S
Cd303 O313 2.240 . S
Cd304 O305 2.240 . S
Cd304 O312 2.223 . S
Cd304 O314 2.297 . S
Cd304 O315 2.439 . S
O305 Cd304 2.240 . S
O305 C310 1.279 . S
O306 Cd303 2.297 . S
O306 C308 1.247 . S
O307 Cd303 2.439 . S
O307 C308 1.208 . S
C308 O306 1.247 . S
C308 O307 1.208 . S
C309 O314 1.247 . S
C309 O315 1.208 . S
C310 O302 1.315 . S
C310 O305 1.279 . S
C311 O312 1.315 . S
C311 O313 1.279 . S
O312 Cd304 2.223 . S
O312 C311 1.315 . S
O313 Cd303 2.240 . S
O313 C311 1.279 . S
O314 Cd304 2.297 . S
O314 C309 1.247 . S
O315 Cd304 2.439 . S
O315 C309 1.208 . S
O316 Cd317 2.223 1_655 S
O316 C324 1.315 . S
Cd317 O316 2.223 1_455 S
Cd317 O320 2.297 . S
Cd317 O321 2.439 . S
Cd317 O327 2.240 . S
Cd318 O319 2.240 1_455 S
Cd318 O326 2.223 1_455 S
Cd318 O328 2.297 . S
Cd318 O329 2.439 . S
O319 Cd318 2.240 1_655 S
O319 C324 1.279 . S
O320 Cd317 2.297 . S
O320 C322 1.247 . S
O321 Cd317 2.439 . S
O321 C322 1.208 . S
C322 O320 1.247 . S
C322 O321 1.208 . S
C323 O328 1.247 . S
C323 O329 1.208 . S
C324 O316 1.315 . S
C324 O319 1.279 . S
C325 O326 1.315 . S
C325 O327 1.279 1_655 S
O326 Cd318 2.223 1_655 S
O326 C325 1.315 . S
O327 Cd317 2.240 . S
O327 C325 1.279 1_455 S
O328 Cd318 2.297 . S
O328 C323 1.247 . S
O329 Cd318 2.439 . S
O329 C323 1.208 . S
O330 Cd331 2.223 . S
O330 C338 1.315 . S
Cd331 O330 2.223 . S
Cd331 O334 2.297 . S
Cd331 O335 2.439 . S
Cd331 O341 2.240 . S
Cd332 O333 2.240 . S
Cd332 O340 2.223 . S
Cd332 O342 2.297 . S
Cd332 O343 2.439 . S
O333 Cd332 2.240 . S
O333 C338 1.279 . S
O334 Cd331 2.297 . S
O334 C336 1.247 . S
O335 Cd331 2.439 . S
O335 C336 1.208 . S
C336 O334 1.247 . S
C336 O335 1.208 . S
C337 O342 1.247 . S
C337 O343 1.208 . S
C338 O330 1.315 . S
C338 O333 1.279 . S
C339 O340 1.315 . S
C339 O341 1.279 . S
O340 Cd332 2.223 . S
O340 C339 1.315 . S
O341 Cd331 2.240 . S
O341 C339 1.279 . S
O342 Cd332 2.297 . S
O342 C337 1.247 . S
O343 Cd332 2.439 . S
O343 C337 1.208 . S
C344 C345 1.349 . S
C344 C346 1.327 . S
C344 H369 0.950 . S
C345 C344 1.349 . S
C345 C361 1.349 . S
C346 C344 1.327 . S
C346 C365 1.429 . S
C346 H370 0.950 . S
C347 C364 1.574 . S
C347 C366 1.368 . S
C347 H371 0.949 . S
H348 C352 0.949 . S
C349 C350 1.349 . S
C349 C351 1.327 1_554 S
C349 H372 0.950 . S
C350 C349 1.349 . S
C350 C362 1.349 . S
C351 C349 1.327 1_556 S
C351 C367 1.429 . S
C351 H373 0.950 . S
C352 H348 0.949 . S
C352 C360 1.574 . S
C352 C368 1.368 . S
H353 C361 0.950 . S
H354 C359 0.950 . S
H355 C360 0.949 . S
H356 C362 0.950 . S
H357 C363 0.950 . S
H358 C364 0.949 . S
C359 H354 0.950 . S
C359 C361 1.327 . S
C359 C365 1.429 . S
C360 C352 1.574 . S
C360 H355 0.949 . S
C360 C366 1.368 . S
C361 C345 1.349 . S
C361 H353 0.950 . S
C361 C359 1.327 . S
C362 C350 1.349 . S
C362 H356 0.950 . S
C362 C363 1.327 1_554 S
C363 H357 0.950 . S
C363 C362 1.327 1_556 S
C363 C367 1.429 . S
C364 C347 1.574 . S
C364 H358 0.949 . S
C364 C368 1.368 . S
C365 C346 1.429 . S
C365 C359 1.429 . S
C365 C366 1.523 . S
C366 C347 1.368 . S
C366 C360 1.368 . S
C366 C365 1.523 . S
C367 C351 1.429 . S
C367 C363 1.429 . S
C367 C368 1.523 . S
C368 C352 1.368 . S
C368 C364 1.368 . S
C368 C367 1.523 . S
H369 C344 0.950 . S
H370 C346 0.950 . S
H371 C347 0.949 . S
H372 C349 0.950 . S
H373 C351 0.950 . S
C374 C375 1.349 . S
C374 C376 1.327 . S
C374 H399 0.950 . S
C375 C374 1.349 . S
C375 C391 1.349 . S
C376 C374 1.327 . S
C376 C395 1.429 . S
C376 H400 0.950 . S
C377 C394 1.574 . S
C377 C396 1.368 . S
C377 H401 0.949 . S
H378 C382 0.949 . S
C379 C380 1.349 . S
C379 C381 1.327 . S
C379 H402 0.950 . S
C380 C379 1.349 . S
C380 C392 1.349 . S
C381 C379 1.327 . S
C381 C397 1.429 . S
C381 H403 0.950 . S
C382 H378 0.949 . S
C382 C390 1.574 . S
C382 C398 1.368 . S
H383 C391 0.950 . S
H384 C389 0.950 . S
H385 C390 0.949 . S
H386 C392 0.950 . S
H387 C393 0.950 . S
H388 C394 0.949 . S
C389 H384 0.950 . S
C389 C391 1.327 . S
C389 C395 1.429 . S
C390 C382 1.574 . S
C390 H385 0.949 . S
C390 C396 1.368 . S
C391 C375 1.349 . S
C391 H383 0.950 . S
C391 C389 1.327 . S
C392 C380 1.349 . S
C392 H386 0.950 . S
C392 C393 1.327 . S
C393 H387 0.950 . S
C393 C392 1.327 . S
C393 C397 1.429 . S
C394 C377 1.574 . S
C394 H388 0.949 . S
C394 C398 1.368 . S
C395 C376 1.429 . S
C395 C389 1.429 . S
C395 C396 1.523 1_655 S
C396 C377 1.368 . S
C396 C390 1.368 . S
C396 C395 1.523 1_455 S
C397 C381 1.429 . S
C397 C393 1.429 . S
C397 C398 1.523 . S
C398 C382 1.368 . S
C398 C394 1.368 . S
C398 C397 1.523 . S
H399 C374 0.950 . S
H400 C376 0.950 . S
H401 C377 0.949 . S
H402 C379 0.950 . S
H403 C381 0.950 . S
C404 C405 1.349 . S
C404 C406 1.327 . S
C404 H429 0.950 . S
C405 C404 1.349 . S
C405 C421 1.349 . S
C406 C404 1.327 . S
C406 C425 1.429 . S
C406 H430 0.950 . S
C407 C424 1.574 . S
C407 C426 1.368 . S
C407 H431 0.949 . S
H408 C412 0.949 . S
C409 C410 1.349 . S
C409 C411 1.327 . S
C409 H432 0.950 . S
C410 C409 1.349 . S
C410 C422 1.349 . S
C411 C409 1.327 . S
C411 C427 1.429 . S
C411 H433 0.950 . S
C412 H408 0.949 . S
C412 C420 1.574 . S
C412 C428 1.368 . S
H413 C421 0.950 . S
H414 C419 0.950 . S
H415 C420 0.949 . S
H416 C422 0.950 . S
H417 C423 0.950 . S
H418 C424 0.949 . S
C419 H414 0.950 . S
C419 C421 1.327 . S
C419 C425 1.429 . S
C420 C412 1.574 . S
C420 H415 0.949 . S
C420 C426 1.368 . S
C421 C405 1.349 . S
C421 H413 0.950 . S
C421 C419 1.327 . S
C422 C410 1.349 . S
C422 H416 0.950 . S
C422 C423 1.327 . S
C423 H417 0.950 . S
C423 C422 1.327 . S
C423 C427 1.429 . S
C424 C407 1.574 . S
C424 H418 0.949 . S
C424 C428 1.368 . S
C425 C406 1.429 . S
C425 C419 1.429 . S
C425 C426 1.523 . S
C426 C407 1.368 . S
C426 C420 1.368 . S
C426 C425 1.523 . S
C427 C411 1.429 . S
C427 C423 1.429 . S
C427 C428 1.523 . S
C428 C412 1.368 . S
C428 C424 1.368 . S
C428 C427 1.523 . S
H429 C404 0.950 . S
H430 C406 0.950 . S
H431 C407 0.949 . S
H432 C409 0.950 . S
H433 C411 0.950 . S
C434 C435 1.349 . S
C434 C436 1.327 1_565 S
C434 H459 0.940 1_565 S
C435 C434 1.349 . S
C435 C451 1.349 . S
C436 C434 1.327 1_545 S
C436 C455 1.429 1_545 S
C436 H460 0.950 . S
C437 C454 1.574 1_565 S
C437 C456 1.368 1_565 S
C437 H461 0.949 . S
H438 C442 0.949 . S
C439 C440 1.349 . S
C439 C441 1.327 . S
C439 H462 0.950 . S
C440 C439 1.349 . S
C440 C452 1.349 . S
C441 C439 1.327 . S
C441 C457 1.429 . S
C441 H463 0.950 . S
C442 H438 0.949 . S
C442 C450 1.574 . S
C442 C458 1.368 . S
H443 C451 0.950 . S
H444 C449 0.950 . S
H445 C450 0.949 . S
H446 C452 0.950 . S
H447 C453 0.950 1_455 S
H448 C454 0.949 1_665 S
C449 H444 0.950 . S
C449 C451 1.327 . S
C449 C455 1.429 . S
C450 C442 1.574 . S
C450 H445 0.949 . S
C450 C456 1.368 . S
C451 C435 1.349 . S
C451 H443 0.950 . S
C451 C449 1.327 . S
C452 C440 1.349 . S
C452 H446 0.950 . S
C452 C453 1.327 . S
C453 H447 0.950 1_655 S
C453 C452 1.327 . S
C453 C457 1.429 . S
C454 C437 1.574 1_545 S
C454 H448 0.949 1_445 S
C454 C458 1.368 . S
C455 C436 1.429 1_565 S
C455 C449 1.429 . S
C455 C456 1.523 1_565 S
C456 C437 1.368 1_545 S
C456 C450 1.368 . S
C456 C455 1.523 1_545 S
C457 C441 1.429 . S
C457 C453 1.429 . S
C457 C458 1.523 1_655 S
C458 C442 1.368 . S
C458 C454 1.368 . S
C458 C457 1.523 1_455 S
H459 C434 0.940 1_545 S
H460 C436 0.950 . S
H461 C437 0.949 . S
H462 C439 0.950 . S
H463 C441 0.950 . S
C464 C465 1.349 . S
C464 C466 1.327 . S
C464 H489 0.950 . S
C465 C464 1.349 . S
C465 C481 1.349 . S
C466 C464 1.327 . S
C466 C485 1.429 . S
C466 H490 0.950 . S
C467 C484 1.574 . S
C467 C486 1.368 . S
C467 H491 0.949 . S
H468 C472 0.949 . S
C469 C470 1.349 . S
C469 C471 1.327 . S
C469 H492 0.950 . S
C470 C469 1.349 . S
C470 C482 1.349 . S
C471 C469 1.327 . S
C471 C487 1.429 . S
C471 H493 0.950 . S
C472 H468 0.949 . S
C472 C480 1.574 . S
C472 C488 1.368 . S
H473 C481 0.950 . S
H474 C479 0.950 . S
H475 C480 0.949 . S
H476 C482 0.950 . S
H477 C483 0.950 . S
H478 C484 0.949 . S
C479 H474 0.950 . S
C479 C481 1.327 . S
C479 C485 1.429 . S
C480 C472 1.574 . S
C480 H475 0.949 . S
C480 C486 1.368 . S
C481 C465 1.349 . S
C481 H473 0.950 . S
C481 C479 1.327 . S
C482 C470 1.349 . S
C482 H476 0.950 . S
C482 C483 1.327 . S
C483 H477 0.950 . S
C483 C482 1.327 . S
C483 C487 1.429 . S
C484 C467 1.574 . S
C484 H478 0.949 . S
C484 C488 1.368 . S
C485 C466 1.429 . S
C485 C479 1.429 . S
C485 C486 1.523 . S
C486 C467 1.368 . S
C486 C480 1.368 . S
C486 C485 1.523 . S
C487 C471 1.429 . S
C487 C483 1.429 . S
C487 C488 1.523 . S
C488 C472 1.368 . S
C488 C484 1.368 . S
C488 C487 1.523 . S
H489 C464 0.950 . S
H490 C466 0.950 . S
H491 C467 0.949 . S
H492 C469 0.950 . S
H493 C471 0.950 . S
C494 C495 1.349 . S
C494 C496 1.327 . S
C494 H519 0.950 . S
C495 C494 1.349 . S
C495 C511 1.349 . S
C496 C494 1.327 . S
C496 C515 1.429 . S
C496 H520 0.950 . S
C497 C514 1.574 . S
C497 C516 1.368 . S
C497 H521 0.949 . S
H498 C502 0.949 . S
C499 C500 1.349 . S
C499 C501 1.327 . S
C499 H522 0.950 . S
C500 C499 1.349 . S
C500 C512 1.349 . S
C501 C499 1.327 . S
C501 C517 1.429 . S
C501 H523 0.950 . S
C502 H498 0.949 . S
C502 C510 1.574 . S
C502 C518 1.368 . S
H503 C511 0.950 . S
H504 C509 0.950 . S
H505 C510 0.949 . S
H506 C512 0.950 . S
H507 C513 0.950 . S
H508 C514 0.949 . S
C509 H504 0.950 . S
C509 C511 1.327 . S
C509 C515 1.429 . S
C510 C502 1.574 . S
C510 H505 0.949 . S
C510 C516 1.368 . S
C511 C495 1.349 . S
C511 H503 0.950 . S
C511 C509 1.327 . S
C512 C500 1.349 . S
C512 H506 0.950 . S
C512 C513 1.327 . S
C513 H507 0.950 . S
C513 C512 1.327 . S
C513 C517 1.429 . S
C514 C497 1.574 . S
C514 H508 0.949 . S
C514 C518 1.368 . S
C515 C496 1.429 . S
C515 C509 1.429 . S
C515 C516 1.523 . S
C516 C497 1.368 . S
C516 C510 1.368 . S
C516 C515 1.523 . S
C517 C501 1.429 . S
C517 C513 1.429 . S
C517 C518 1.523 . S
C518 C502 1.368 . S
C518 C514 1.368 . S
C518 C517 1.523 . S
H519 C494 0.950 . S
H520 C496 0.950 . S
H521 C497 0.949 . S
H522 C499 0.950 . S
H523 C501 0.950 . S
C524 C525 1.349 . S
C524 C526 1.327 . S
C524 H549 0.950 . S
C525 C524 1.349 . S
C525 C541 1.349 . S
C526 C524 1.327 . S
C526 C545 1.429 . S
C526 H550 0.950 . S
C527 C544 1.574 . S
C527 C546 1.368 . S
C527 H551 0.949 . S
H528 C532 0.949 . S
C529 C530 1.349 . S
C529 C531 1.327 . S
C529 H552 0.950 . S
C530 C529 1.349 . S
C530 C542 1.349 . S
C531 C529 1.327 . S
C531 C547 1.429 . S
C531 H553 0.950 . S
C532 H528 0.949 . S
C532 C540 1.574 . S
C532 C548 1.368 . S
H533 C541 0.950 . S
H534 C539 0.950 . S
H535 C540 0.949 . S
H536 C542 0.950 . S
H537 C543 0.950 . S
H538 C544 0.949 . S
C539 H534 0.950 . S
C539 C541 1.327 . S
C539 C545 1.429 . S
C540 C532 1.574 . S
C540 H535 0.949 . S
C540 C546 1.368 . S
C541 C525 1.349 . S
C541 H533 0.950 . S
C541 C539 1.327 . S
C542 C530 1.349 . S
C542 H536 0.950 . S
C542 C543 1.327 . S
C543 H537 0.950 . S
C543 C542 1.327 . S
C543 C547 1.429 . S
C544 C527 1.574 . S
C544 H538 0.949 . S
C544 C548 1.368 . S
C545 C526 1.429 . S
C545 C539 1.429 . S
C545 C546 1.523 . S
C546 C527 1.368 . S
C546 C540 1.368 . S
C546 C545 1.523 . S
C547 C531 1.429 . S
C547 C543 1.429 . S
C547 C548 1.523 . S
C548 C532 1.368 . S
C548 C544 1.368 . S
C548 C547 1.523 . S
H549 C524 0.950 . S
H550 C526 0.950 . S
H551 C527 0.949 . S
H552 C529 0.950 . S
H553 C531 0.950 . S
C554 C555 1.349 . S
C554 C556 1.327 . S
C554 H579 0.950 . S
C555 C554 1.349 . S
C555 C571 1.349 . S
C556 C554 1.327 . S
C556 C575 1.429 . S
C556 H580 0.950 . S
C557 C574 1.574 . S
C557 C576 1.368 . S
C557 H581 0.949 . S
H558 C562 0.949 . S
C559 C560 1.349 . S
C559 C561 1.327 . S
C559 H582 0.950 . S
C560 C559 1.349 . S
C560 C572 1.349 . S
C561 C559 1.327 . S
C561 C577 1.429 . S
C561 H583 0.950 . S
C562 H558 0.949 . S
C562 C570 1.574 . S
C562 C578 1.368 . S
H563 C571 0.950 . S
H564 C569 0.950 . S
H565 C570 0.949 . S
H566 C572 0.952 . S
H567 C573 0.950 . S
H568 C574 0.949 . S
C569 H564 0.950 . S
C569 C571 1.327 . S
C569 C575 1.429 . S
C570 C562 1.574 . S
C570 H565 0.949 . S
C570 C576 1.368 . S
C571 C555 1.349 . S
C571 H563 0.950 . S
C571 C569 1.327 . S
C572 C560 1.349 . S
C572 H566 0.952 . S
C572 C573 1.327 . S
C573 H567 0.950 . S
C573 C572 1.327 . S
C573 C577 1.429 . S
C574 C557 1.574 . S
C574 H568 0.949 . S
C574 C578 1.368 . S
C575 C556 1.429 . S
C575 C569 1.429 . S
C575 C576 1.523 . S
C576 C557 1.368 . S
C576 C570 1.368 . S
C576 C575 1.523 . S
C577 C561 1.429 . S
C577 C573 1.429 . S
C577 C578 1.523 . S
C578 C562 1.368 . S
C578 C574 1.368 . S
C578 C577 1.523 . S
H579 C554 0.950 . S
H580 C556 0.950 . S
H581 C557 0.949 . S
H582 C559 0.950 . S
H583 C561 0.950 . S
C584 C585 1.349 . S
C584 C586 1.327 . S
C584 H609 0.950 . S
C585 C584 1.349 . S
C585 C601 1.349 . S
C586 C584 1.327 . S
C586 C605 1.429 . S
C586 H610 0.950 . S
C587 C604 1.574 . S
C587 C606 1.368 . S
C587 H611 0.949 . S
H588 C592 0.949 . S
C589 C590 1.349 . S
C589 C591 1.327 . S
C589 H612 0.950 . S
C590 C589 1.349 . S
C590 C602 1.349 . S
C591 C589 1.327 . S
C591 C607 1.429 . S
C591 H613 0.950 . S
C592 H588 0.949 . S
C592 C600 1.574 . S
C592 C608 1.368 . S
H593 C601 0.950 . S
H594 C599 0.950 . S
H595 C600 0.949 . S
H596 C602 0.950 . S
H597 C603 0.950 . S
H598 C604 0.949 . S
C599 H594 0.950 . S
C599 C601 1.327 . S
C599 C605 1.429 . S
C600 C592 1.574 . S
C600 H595 0.949 . S
C600 C606 1.368 . S
C601 C585 1.349 . S
C601 H593 0.950 . S
C601 C599 1.327 . S
C602 C590 1.349 . S
C602 H596 0.950 . S
C602 C603 1.327 . S
C603 H597 0.950 . S
C603 C602 1.327 . S
C603 C607 1.429 . S
C604 C587 1.574 . S
C604 H598 0.949 . S
C604 C608 1.368 . S
C605 C586 1.429 . S
C605 C599 1.429 . S
C605 C606 1.523 . S
C606 C587 1.368 . S
C606 C600 1.368 . S
C606 C605 1.523 . S
C607 C591 1.429 . S
C607 C603 1.429 . S
C607 C608 1.523 . S
C608 C592 1.368 . S
C608 C604 1.368 . S
C608 C607 1.523 . S
H609 C584 0.950 . S
H610 C586 0.950 . S
H611 C587 0.949 . S
H612 C589 0.950 . S
H613 C591 0.950 . S
C614 C615 1.349 . S
C614 C616 1.327 . S
C614 H639 0.950 . S
C615 C614 1.349 . S
C615 C631 1.349 . S
C616 C614 1.327 . S
C616 C635 1.429 . S
C616 H640 0.950 . S
C617 C634 1.574 . S
C617 C636 1.368 . S
C617 H641 0.949 . S
H618 C622 0.949 . S
C619 C620 1.349 . S
C619 C621 1.327 . S
C619 H642 0.950 . S
C620 C619 1.349 . S
C620 C632 1.349 . S
C621 C619 1.327 . S
C621 C637 1.429 . S
C621 H643 0.950 . S
C622 H618 0.949 . S
C622 C630 1.574 . S
C622 C638 1.368 . S
H623 C631 0.950 . S
H624 C629 0.950 . S
H625 C630 0.949 . S
H626 C632 0.950 . S
H627 C633 0.950 . S
H628 C634 0.949 . S
C629 H624 0.950 . S
C629 C631 1.327 . S
C629 C635 1.429 . S
C630 C622 1.574 . S
C630 H625 0.949 . S
C630 C636 1.368 . S
C631 C615 1.349 . S
C631 H623 0.950 . S
C631 C629 1.327 . S
C632 C620 1.349 . S
C632 H626 0.950 . S
C632 C633 1.327 . S
C633 H627 0.950 . S
C633 C632 1.327 . S
C633 C637 1.429 . S
C634 C617 1.574 . S
C634 H628 0.949 . S
C634 C638 1.368 . S
C635 C616 1.429 . S
C635 C629 1.429 . S
C635 C636 1.523 . S
C636 C617 1.368 . S
C636 C630 1.368 . S
C636 C635 1.523 . S
C637 C621 1.429 . S
C637 C633 1.429 . S
C637 C638 1.523 . S
C638 C622 1.368 . S
C638 C634 1.368 . S
C638 C637 1.523 . S
H639 C614 0.950 . S
H640 C616 0.950 . S
H641 C617 0.949 . S
H642 C619 0.950 . S
H643 C621 0.950 . S
C644 C645 1.349 . S
C644 C646 1.327 . S
C644 H669 0.950 . S
C645 C644 1.349 . S
C645 C661 1.349 . S
C646 C644 1.327 . S
C646 C665 1.429 . S
C646 H670 0.950 . S
C647 C664 1.574 . S
C647 C666 1.368 . S
C647 H671 0.949 . S
H648 C652 0.949 . S
C649 C650 1.349 . S
C649 C651 1.327 . S
C649 H672 0.950 . S
C650 C649 1.349 . S
C650 C662 1.349 . S
C651 C649 1.327 . S
C651 C667 1.429 . S
C651 H673 0.950 . S
C652 H648 0.949 . S
C652 C660 1.574 . S
C652 C668 1.368 . S
H653 C661 0.950 . S
H654 C659 0.950 . S
H655 C660 0.949 . S
H656 C662 0.950 . S
H657 C663 0.950 . S
H658 C664 0.949 . S
C659 H654 0.950 . S
C659 C661 1.327 . S
C659 C665 1.429 . S
C660 C652 1.574 . S
C660 H655 0.949 . S
C660 C666 1.368 . S
C661 C645 1.349 . S
C661 H653 0.950 . S
C661 C659 1.327 . S
C662 C650 1.349 . S
C662 H656 0.950 . S
C662 C663 1.327 . S
C663 H657 0.950 . S
C663 C662 1.327 . S
C663 C667 1.429 . S
C664 C647 1.574 . S
C664 H658 0.949 . S
C664 C668 1.368 . S
C665 C646 1.429 . S
C665 C659 1.429 . S
C665 C666 1.523 . S
C666 C647 1.368 . S
C666 C660 1.368 . S
C666 C665 1.523 . S
C667 C651 1.429 . S
C667 C663 1.429 . S
C667 C668 1.523 . S
C668 C652 1.368 . S
C668 C664 1.368 . S
C668 C667 1.523 . S
H669 C644 0.950 . S
H670 C646 0.950 . S
H671 C647 0.949 . S
H672 C649 0.950 . S
H673 C651 0.950 . S
C674 C675 1.349 . S
C674 C676 1.327 . S
C674 H699 0.950 . S
C675 C674 1.349 . S
C675 C691 1.349 . S
C676 C674 1.327 . S
C676 C695 1.429 . S
C676 H700 0.950 . S
C677 C694 1.574 . S
C677 C696 1.368 . S
C677 H701 0.949 . S
H678 C682 0.949 . S
C679 C680 1.349 . S
C679 C681 1.327 . S
C679 H702 0.950 . S
C680 C679 1.349 . S
C680 C692 1.349 . S
C681 C679 1.327 . S
C681 C697 1.429 . S
C681 H703 0.950 . S
C682 H678 0.949 . S
C682 C690 1.574 . S
C682 C698 1.368 . S
H683 C691 0.950 . S
H684 C689 0.950 . S
H685 C690 0.949 . S
H686 C692 0.950 . S
H687 C693 0.950 . S
H688 C694 0.949 . S
C689 H684 0.950 . S
C689 C691 1.327 . S
C689 C695 1.429 . S
C690 C682 1.574 . S
C690 H685 0.949 . S
C690 C696 1.368 . S
C691 C675 1.349 . S
C691 H683 0.950 . S
C691 C689 1.327 . S
C692 C680 1.349 . S
C692 H686 0.950 . S
C692 C693 1.327 . S
C693 H687 0.950 . S
C693 C692 1.327 . S
C693 C697 1.429 . S
C694 C677 1.574 . S
C694 H688 0.949 . S
C694 C698 1.368 . S
C695 C676 1.429 . S
C695 C689 1.429 . S
C695 C696 1.523 . S
C696 C677 1.368 . S
C696 C690 1.368 . S
C696 C695 1.523 . S
C697 C681 1.429 . S
C697 C693 1.429 . S
C697 C698 1.523 . S
C698 C682 1.368 . S
C698 C694 1.368 . S
C698 C697 1.523 . S
H699 C674 0.950 . S
H700 C676 0.950 . S
H701 C677 0.949 . S
H702 C679 0.950 . S
H703 C681 0.950 . S
C704 C705 1.349 . S
C704 C706 1.327 . S
C704 H729 0.950 . S
C705 C704 1.349 . S
C705 C721 1.349 . S
C706 C704 1.327 . S
C706 C725 1.429 . S
C706 H730 0.950 . S
C707 C724 1.574 . S
C707 C726 1.368 . S
C707 H731 0.949 . S
H708 C712 0.949 . S
C709 C710 1.349 . S
C709 C711 1.327 . S
C709 H732 0.950 . S
C710 C709 1.349 . S
C710 C722 1.349 . S
C711 C709 1.327 . S
C711 C727 1.429 . S
C711 H733 0.950 . S
C712 H708 0.949 . S
C712 C720 1.574 . S
C712 C728 1.368 . S
H713 C721 0.950 . S
H714 C719 0.950 . S
H715 C720 0.949 . S
H716 C722 0.950 . S
H717 C723 0.950 . S
H718 C724 0.949 . S
C719 H714 0.950 . S
C719 C721 1.327 . S
C719 C725 1.429 . S
C720 C712 1.574 . S
C720 H715 0.949 . S
C720 C726 1.368 . S
C721 C705 1.349 . S
C721 H713 0.950 . S
C721 C719 1.327 . S
C722 C710 1.349 . S
C722 H716 0.950 . S
C722 C723 1.327 . S
C723 H717 0.950 . S
C723 C722 1.327 . S
C723 C727 1.429 . S
C724 C707 1.574 . S
C724 H718 0.949 . S
C724 C728 1.368 . S
C725 C706 1.429 . S
C725 C719 1.429 . S
C725 C726 1.523 . S
C726 C707 1.368 . S
C726 C720 1.368 . S
C726 C725 1.523 . S
C727 C711 1.429 . S
C727 C723 1.429 . S
C727 C728 1.523 . S
C728 C712 1.368 . S
C728 C724 1.368 . S
C728 C727 1.523 . S
H729 C704 0.950 . S
H730 C706 0.950 . S
H731 C707 0.949 . S
H732 C709 0.950 . S
H733 C711 0.950 . S
C734 C735 1.349 . S
C734 C736 1.327 . S
C734 H759 0.950 . S
C735 C734 1.349 . S
C735 C751 1.349 . S
C736 C734 1.327 . S
C736 C755 1.429 . S
C736 H760 0.950 . S
C737 C754 1.574 . S
C737 C756 1.368 . S
C737 H761 0.949 . S
H738 C742 0.949 . S
C739 C740 1.349 . S
C739 C741 1.327 . S
C739 H762 0.950 . S
C740 C739 1.349 . S
C740 C752 1.349 . S
C741 C739 1.327 . S
C741 C757 1.429 . S
C741 H763 0.950 . S
C742 H738 0.949 . S
C742 C750 1.574 . S
C742 C758 1.368 . S
H743 C751 0.950 . S
H744 C749 0.950 . S
H745 C750 0.949 . S
H746 C752 0.950 . S
H747 C753 0.950 . S
H748 C754 0.949 . S
C749 H744 0.950 . S
C749 C751 1.327 . S
C749 C755 1.429 . S
C750 C742 1.574 . S
C750 H745 0.949 . S
C750 C756 1.368 . S
C751 C735 1.349 . S
C751 H743 0.950 . S
C751 C749 1.327 . S
C752 C740 1.349 . S
C752 H746 0.950 . S
C752 C753 1.327 . S
C753 H747 0.950 . S
C753 C752 1.327 . S
C753 C757 1.429 . S
C754 C737 1.574 . S
C754 H748 0.949 . S
C754 C758 1.368 . S
C755 C736 1.429 . S
C755 C749 1.429 . S
C755 C756 1.523 . S
C756 C737 1.368 . S
C756 C750 1.368 . S
C756 C755 1.523 . S
C757 C741 1.429 . S
C757 C753 1.429 . S
C757 C758 1.523 . S
C758 C742 1.368 . S
C758 C754 1.368 . S
C758 C757 1.523 . S
H759 C734 0.950 . S
H760 C736 0.950 . S
H761 C737 0.949 . S
H762 C739 0.950 . S
H763 C741 0.950 . S
C764 C765 1.349 . S
C764 C766 1.327 . S
C764 H789 0.950 . S
C765 C764 1.349 . S
C765 C781 1.349 . S
C766 C764 1.327 . S
C766 C785 1.429 . S
C766 H790 0.950 . S
C767 C784 1.574 . S
C767 C786 1.368 . S
C767 H791 0.949 . S
H768 C772 0.949 . S
C769 C770 1.349 . S
C769 C771 1.327 . S
C769 H792 0.950 . S
C770 C769 1.349 . S
C770 C782 1.349 . S
C771 C769 1.327 . S
C771 C787 1.429 . S
C771 H793 0.950 . S
C772 H768 0.949 . S
C772 C780 1.574 . S
C772 C788 1.368 . S
H773 C781 0.950 . S
H774 C779 0.950 . S
H775 C780 0.949 . S
H776 C782 0.950 . S
H777 C783 0.950 . S
H778 C784 0.949 . S
C779 H774 0.950 . S
C779 C781 1.327 . S
C779 C785 1.429 . S
C780 C772 1.574 . S
C780 H775 0.949 . S
C780 C786 1.368 . S
C781 C765 1.349 . S
C781 H773 0.950 . S
C781 C779 1.327 . S
C782 C770 1.349 . S
C782 H776 0.950 . S
C782 C783 1.327 . S
C783 H777 0.950 . S
C783 C782 1.327 . S
C783 C787 1.429 . S
C784 C767 1.574 . S
C784 H778 0.949 . S
C784 C788 1.368 . S
C785 C766 1.429 . S
C785 C779 1.429 . S
C785 C786 1.523 . S
C786 C767 1.368 . S
C786 C780 1.368 . S
C786 C785 1.523 . S
C787 C771 1.429 . S
C787 C783 1.429 . S
C787 C788 1.523 . S
C788 C772 1.368 . S
C788 C784 1.368 . S
C788 C787 1.523 . S
H789 C764 0.950 . S
H790 C766 0.950 . S
H791 C767 0.949 . S
H792 C769 0.950 . S
H793 C771 0.950 . S
C794 C795 1.349 . S
C794 C796 1.327 . S
C794 H819 0.950 . S
C795 C794 1.349 . S
C795 C811 1.349 . S
C796 C794 1.327 . S
C796 C815 1.429 . S
C796 H820 0.950 . S
C797 C814 1.574 . S
C797 C816 1.368 . S
C797 H821 0.949 . S
H798 C802 0.949 . S
C799 C800 1.349 . S
C799 C801 1.327 . S
C799 H822 0.950 . S
C800 C799 1.349 . S
C800 C812 1.349 . S
C801 C799 1.327 . S
C801 C817 1.429 . S
C801 H823 0.950 . S
C802 H798 0.949 . S
C802 C810 1.574 . S
C802 C818 1.368 . S
H803 C811 0.950 . S
H804 C809 0.950 . S
H805 C810 0.949 . S
H806 C812 0.950 . S
H807 C813 0.950 . S
H808 C814 0.949 . S
C809 H804 0.950 . S
C809 C811 1.327 . S
C809 C815 1.429 . S
C810 C802 1.574 . S
C810 H805 0.949 . S
C810 C816 1.368 . S
C811 C795 1.349 . S
C811 H803 0.950 . S
C811 C809 1.327 . S
C812 C800 1.349 . S
C812 H806 0.950 . S
C812 C813 1.327 . S
C813 H807 0.950 . S
C813 C812 1.327 . S
C813 C817 1.429 . S
C814 C797 1.574 . S
C814 H808 0.949 . S
C814 C818 1.368 . S
C815 C796 1.429 . S
C815 C809 1.429 . S
C815 C816 1.523 . S
C816 C797 1.368 . S
C816 C810 1.368 . S
C816 C815 1.523 . S
C817 C801 1.429 . S
C817 C813 1.429 . S
C817 C818 1.523 . S
C818 C802 1.368 . S
C818 C814 1.368 . S
C818 C817 1.523 . S
H819 C794 0.950 . S
H820 C796 0.950 . S
H821 C797 0.949 . S
H822 C799 0.950 . S
H823 C801 0.950 . S
C824 C825 1.349 . S
C824 C826 1.327 . S
C824 H849 0.950 . S
C825 C824 1.349 . S
C825 C841 1.349 . S
C826 C824 1.327 . S
C826 C845 1.429 . S
C826 H850 0.950 . S
C827 C844 1.574 . S
C827 C846 1.368 . S
C827 H851 0.949 . S
H828 C832 0.949 . S
C829 C830 1.349 . S
C829 C831 1.327 . S
C829 H852 0.950 . S
C830 C829 1.349 . S
C830 C842 1.349 . S
C831 C829 1.327 . S
C831 C847 1.429 1_545 S
C831 H853 0.950 . S
C832 H828 0.949 . S
C832 C840 1.574 . S
C832 C848 1.368 . S
H833 C841 0.950 . S
H834 C839 0.950 . S
H835 C840 0.949 . S
H836 C842 0.950 . S
H837 C843 0.950 . S
H838 C844 0.949 . S
C839 H834 0.950 . S
C839 C841 1.327 . S
C839 C845 1.429 . S
C840 C832 1.574 . S
C840 H835 0.949 . S
C840 C846 1.368 . S
C841 C825 1.349 . S
C841 H833 0.950 . S
C841 C839 1.327 . S
C842 C830 1.349 . S
C842 H836 0.950 . S
C842 C843 1.327 1_545 S
C843 H837 0.950 . S
C843 C842 1.327 1_565 S
C843 C847 1.429 . S
C844 C827 1.574 . S
C844 H838 0.949 . S
C844 C848 1.368 . S
C845 C826 1.429 . S
C845 C839 1.429 . S
C845 C846 1.523 . S
C846 C827 1.368 . S
C846 C840 1.368 . S
C846 C845 1.523 . S
C847 C831 1.429 1_565 S
C847 C843 1.429 . S
C847 C848 1.523 . S
C848 C832 1.368 . S
C848 C844 1.368 . S
C848 C847 1.523 . S
H849 C824 0.950 . S
H850 C826 0.950 . S
H851 C827 0.949 . S
H852 C829 0.950 . S
H853 C831 0.950 . S
C854 C855 1.349 . S
C854 C856 1.327 . S
C854 H879 0.950 . S
C855 C854 1.349 . S
C855 C871 1.349 . S
C856 C854 1.327 . S
C856 C875 1.429 . S
C856 H880 0.950 . S
C857 C874 1.574 . S
C857 C876 1.368 . S
C857 H881 0.949 . S
H858 C862 0.949 . S
C859 C860 1.349 . S
C859 C861 1.327 . S
C859 H882 0.950 . S
C860 C859 1.349 . S
C860 C872 1.349 . S
C861 C859 1.327 . S
C861 C877 1.429 . S
C861 H883 0.950 . S
C862 H858 0.949 . S
C862 C870 1.574 . S
C862 C878 1.368 . S
H863 C871 0.950 . S
H864 C869 0.950 . S
H865 C870 0.949 . S
H866 C872 0.950 . S
H867 C873 0.950 . S
H868 C874 0.949 . S
C869 H864 0.950 . S
C869 C871 1.327 . S
C869 C875 1.429 . S
C870 C862 1.574 . S
C870 H865 0.949 . S
C870 C876 1.368 . S
C871 C855 1.349 . S
C871 H863 0.950 . S
C871 C869 1.327 . S
C872 C860 1.349 . S
C872 H866 0.950 . S
C872 C873 1.327 . S
C873 H867 0.950 . S
C873 C872 1.327 . S
C873 C877 1.429 . S
C874 C857 1.574 . S
C874 H868 0.949 . S
C874 C878 1.368 . S
C875 C856 1.429 . S
C875 C869 1.429 . S
C875 C876 1.523 . S
C876 C857 1.368 . S
C876 C870 1.368 . S
C876 C875 1.523 . S
C877 C861 1.429 . S
C877 C873 1.429 . S
C877 C878 1.523 . S
C878 C862 1.368 . S
C878 C874 1.368 . S
C878 C877 1.523 . S
H879 C854 0.950 . S
H880 C856 0.950 . S
H881 C857 0.949 . S
H882 C859 0.950 . S
H883 C861 0.950 . S
C884 C885 1.349 . S
C884 C886 1.327 . S
C884 H909 0.950 . S
C885 C884 1.349 . S
C885 C901 1.349 . S
C886 C884 1.327 . S
C886 C905 1.429 . S
C886 H910 0.950 . S
C887 C904 1.574 . S
C887 C906 1.368 1_554 S
C887 H911 0.949 . S
H888 C892 0.939 1_565 S
C889 C890 1.349 . S
C889 C891 1.327 1_565 S
C889 H912 0.950 . S
C890 C889 1.349 . S
C890 C902 1.349 . S
C891 C889 1.327 1_545 S
C891 C907 1.429 1_545 S
C891 H913 0.950 . S
C892 H888 0.939 1_545 S
C892 C900 1.581 . S
C892 C908 1.373 1_556 S
H893 C901 0.950 . S
H894 C899 0.950 . S
H895 C900 0.949 . S
H896 C902 0.950 . S
H897 C903 0.995 . S
H898 C904 0.949 . S
C899 H894 0.950 . S
C899 C901 1.327 . S
C899 C905 1.429 . S
C900 C892 1.581 . S
C900 H895 0.949 . S
C900 C906 1.368 . S
C901 C885 1.349 . S
C901 H893 0.950 . S
C901 C899 1.327 . S
C902 C890 1.349 . S
C902 H896 0.950 . S
C902 C903 1.327 . S
C903 H897 0.995 . S
C903 C902 1.327 . S
C903 C907 1.429 . S
C904 C887 1.574 . S
C904 H898 0.949 . S
C904 C908 1.368 . S
C905 C886 1.429 . S
C905 C899 1.429 . S
C905 C906 1.523 . S
C906 C887 1.368 1_556 S
C906 C900 1.368 . S
C906 C905 1.523 . S
C907 C891 1.429 1_565 S
C907 C903 1.429 . S
C907 C908 1.523 1_565 S
C908 C892 1.373 1_554 S
C908 C904 1.368 . S
C908 C907 1.523 1_545 S
H909 C884 0.950 . S
H910 C886 0.950 . S
H911 C887 0.949 . S
H912 C889 0.950 . S
H913 C891 0.950 . S
C914 C915 1.349 . S
C914 C916 1.327 . S
C914 H939 0.950 . S
C915 C914 1.349 . S
C915 C931 1.349 . S
C916 C914 1.327 . S
C916 C935 1.429 . S
C916 H940 0.950 . S
C917 C934 1.574 . S
C917 C936 1.368 . S
C917 H941 0.949 . S
H918 C922 0.949 . S
C919 C920 1.349 . S
C919 C921 1.327 . S
C919 H942 0.950 . S
C920 C919 1.349 . S
C920 C932 1.349 . S
C921 C919 1.327 . S
C921 C937 1.429 . S
C921 H943 0.950 . S
C922 H918 0.949 . S
C922 C930 1.574 . S
C922 C938 1.368 . S
H923 C931 0.950 . S
H924 C929 0.950 . S
H925 C930 0.949 . S
H926 C932 0.950 . S
H927 C933 0.950 . S
H928 C934 0.949 . S
C929 H924 0.950 . S
C929 C931 1.327 . S
C929 C935 1.429 . S
C930 C922 1.574 . S
C930 H925 0.949 . S
C930 C936 1.368 . S
C931 C915 1.349 . S
C931 H923 0.950 . S
C931 C929 1.327 . S
C932 C920 1.349 . S
C932 H926 0.950 . S
C932 C933 1.327 . S
C933 H927 0.950 . S
C933 C932 1.327 . S
C933 C937 1.429 . S
C934 C917 1.574 . S
C934 H928 0.949 . S
C934 C938 1.368 . S
C935 C916 1.429 . S
C935 C929 1.429 . S
C935 C936 1.523 . S
C936 C917 1.368 . S
C936 C930 1.368 . S
C936 C935 1.523 . S
C937 C921 1.429 . S
C937 C933 1.429 . S
C937 C938 1.523 . S
C938 C922 1.368 . S
C938 C934 1.368 . S
C938 C937 1.523 . S
H939 C914 0.950 . S
H940 C916 0.950 . S
H941 C917 0.949 . S
H942 C919 0.950 . S
H943 C921 0.950 . S
C944 C945 1.349 . S
C944 C946 1.327 1_565 S
C944 H969 0.950 . S
C945 C944 1.349 . S
C945 C961 1.349 1_565 S
C946 C944 1.327 1_545 S
C946 C965 1.429 . S
C946 H970 0.950 . S
C947 C964 1.574 . S
C947 C966 1.368 . S
C947 H971 0.949 . S
H948 C952 0.949 . S
C949 C950 1.349 . S
C949 C951 1.327 . S
C949 H972 0.950 . S
C950 C949 1.349 . S
C950 C962 1.349 . S
C951 C949 1.327 . S
C951 C967 1.429 . S
C951 H973 0.950 . S
C952 H948 0.949 . S
C952 C960 1.574 . S
C952 C968 1.368 . S
H953 C961 0.950 . S
H954 C959 0.950 . S
H955 C960 0.949 . S
H956 C962 0.950 . S
H957 C963 0.950 . S
H958 C964 0.949 . S
C959 H954 0.950 . S
C959 C961 1.327 . S
C959 C965 1.429 . S
C960 C952 1.574 . S
C960 H955 0.949 . S
C960 C966 1.368 . S
C961 C945 1.349 1_545 S
C961 H953 0.950 . S
C961 C959 1.327 . S
C962 C950 1.349 . S
C962 H956 0.950 . S
C962 C963 1.327 . S
C963 H957 0.950 . S
C963 C962 1.327 . S
C963 C967 1.429 . S
C964 C947 1.574 . S
C964 H958 0.949 . S
C964 C968 1.368 . S
C965 C946 1.429 . S
C965 C959 1.429 . S
C965 C966 1.523 . S
C966 C947 1.368 . S
C966 C960 1.368 . S
C966 C965 1.523 . S
C967 C951 1.429 . S
C967 C963 1.429 . S
C967 C968 1.523 . S
C968 C952 1.368 . S
C968 C964 1.368 . S
C968 C967 1.523 . S
H969 C944 0.950 . S
H970 C946 0.950 . S
H971 C947 0.949 . S
H972 C949 0.950 . S
H973 C951 0.950 . S
C974 C975 1.349 . S
C974 C976 1.327 . S
C974 H999 0.950 . S
C975 C974 1.349 . S
C975 C991 1.349 . S
C976 C974 1.327 . S
C976 C995 1.429 . S
C976 H1000 0.950 . S
C977 C994 1.574 . S
C977 C996 1.368 . S
C977 H1001 0.949 . S
H978 C982 0.949 . S
C979 C980 1.349 . S
C979 C981 1.327 . S
C979 H1002 0.950 . S
C980 C979 1.349 . S
C980 C992 1.349 . S
C981 C979 1.327 . S
C981 C997 1.429 . S
C981 H1003 0.950 . S
C982 H978 0.949 . S
C982 C990 1.574 . S
C982 C998 1.368 . S
H983 C991 0.950 . S
H984 C989 0.950 . S
H985 C990 0.949 . S
H986 C992 0.950 . S
H987 C993 0.950 . S
H988 C994 0.949 . S
C989 H984 0.950 . S
C989 C991 1.327 . S
C989 C995 1.429 . S
C990 C982 1.574 . S
C990 H985 0.949 . S
C990 C996 1.368 . S
C991 C975 1.349 . S
C991 H983 0.950 . S
C991 C989 1.327 . S
C992 C980 1.349 . S
C992 H986 0.950 . S
C992 C993 1.327 . S
C993 H987 0.950 . S
C993 C992 1.327 . S
C993 C997 1.429 . S
C994 C977 1.574 . S
C994 H988 0.949 . S
C994 C998 1.368 . S
C995 C976 1.429 . S
C995 C989 1.429 . S
C995 C996 1.523 . S
C996 C977 1.368 . S
C996 C990 1.368 . S
C996 C995 1.523 . S
C997 C981 1.429 . S
C997 C993 1.429 . S
C997 C998 1.523 . S
C998 C982 1.368 . S
C998 C994 1.368 . S
C998 C997 1.523 . S
H999 C974 0.950 . S
H1000 C976 0.950 . S
H1001 C977 0.949 . S
H1002 C979 0.950 . S
H1003 C981 0.950 . S
C1004 C1005 1.349 . S
C1004 C1006 1.327 1_565 S
C1004 H1029 0.939 . S
C1005 C1004 1.349 . S
C1005 C1021 1.349 . S
C1006 C1004 1.327 1_545 S
C1006 C1025 1.429 . S
C1006 H1030 0.950 . S
C1007 C1024 1.574 . S
C1007 C1026 1.368 . S
C1007 H1031 0.949 . S
H1008 C1012 0.949 . S
C1009 C1010 1.349 . S
C1009 C1011 1.327 . S
C1009 H1032 0.950 . S
C1010 C1009 1.349 . S
C1010 C1022 1.349 . S
C1011 C1009 1.327 . S
C1011 C1027 1.429 . S
C1011 H1033 0.950 . S
C1012 H1008 0.949 . S
C1012 C1020 1.574 . S
C1012 C1028 1.368 . S
H1013 C1021 0.950 . S
H1014 C1019 0.950 . S
H1015 C1020 0.949 . S
H1016 C1022 0.950 . S
H1017 C1023 0.950 . S
H1018 C1024 0.949 . S
C1019 H1014 0.950 . S
C1019 C1021 1.327 . S
C1019 C1025 1.429 1_565 S
C1020 C1012 1.574 . S
C1020 H1015 0.949 . S
C1020 C1026 1.368 . S
C1021 C1005 1.349 . S
C1021 H1013 0.950 . S
C1021 C1019 1.327 . S
C1022 C1010 1.349 . S
C1022 H1016 0.950 . S
C1022 C1023 1.327 . S
C1023 H1017 0.950 . S
C1023 C1022 1.327 . S
C1023 C1027 1.429 . S
C1024 C1007 1.574 . S
C1024 H1018 0.949 . S
C1024 C1028 1.368 . S
C1025 C1006 1.429 . S
C1025 C1019 1.429 1_545 S
C1025 C1026 1.523 . S
C1026 C1007 1.368 . S
C1026 C1020 1.368 . S
C1026 C1025 1.523 . S
C1027 C1011 1.429 . S
C1027 C1023 1.429 . S
C1027 C1028 1.523 . S
C1028 C1012 1.368 . S
C1028 C1024 1.368 . S
C1028 C1027 1.523 . S
H1029 C1004 0.939 . S
H1030 C1006 0.950 . S
H1031 C1007 0.949 . S
H1032 C1009 0.950 . S
H1033 C1011 0.950 . S
C1034 C1035 1.349 . S
C1034 C1036 1.327 . S
C1034 H1059 0.950 . S
C1035 C1034 1.349 . S
C1035 C1051 1.349 . S
C1036 C1034 1.327 . S
C1036 C1055 1.429 . S
C1036 H1060 0.950 . S
C1037 C1054 1.574 . S
C1037 C1056 1.368 . S
C1037 H1061 0.949 . S
H1038 C1042 0.949 . S
C1039 C1040 1.349 . S
C1039 C1041 1.327 . S
C1039 H1062 0.950 . S
C1040 C1039 1.349 . S
C1040 C1052 1.349 . S
C1041 C1039 1.327 . S
C1041 C1057 1.429 . S
C1041 H1063 0.950 . S
C1042 H1038 0.949 . S
C1042 C1050 1.574 . S
C1042 C1058 1.368 . S
H1043 C1051 0.950 . S
H1044 C1049 0.950 . S
H1045 C1050 0.949 . S
H1046 C1052 0.950 . S
H1047 C1053 0.950 . S
H1048 C1054 0.949 . S
C1049 H1044 0.950 . S
C1049 C1051 1.327 . S
C1049 C1055 1.429 . S
C1050 C1042 1.574 . S
C1050 H1045 0.949 . S
C1050 C1056 1.368 . S
C1051 C1035 1.349 . S
C1051 H1043 0.950 . S
C1051 C1049 1.327 . S
C1052 C1040 1.349 . S
C1052 H1046 0.950 . S
C1052 C1053 1.327 . S
C1053 H1047 0.950 . S
C1053 C1052 1.327 . S
C1053 C1057 1.429 . S
C1054 C1037 1.574 . S
C1054 H1048 0.949 . S
C1054 C1058 1.368 . S
C1055 C1036 1.429 . S
C1055 C1049 1.429 . S
C1055 C1056 1.523 . S
C1056 C1037 1.368 . S
C1056 C1050 1.368 . S
C1056 C1055 1.523 . S
C1057 C1041 1.429 . S
C1057 C1053 1.429 . S
C1057 C1058 1.523 . S
C1058 C1042 1.368 . S
C1058 C1054 1.368 . S
C1058 C1057 1.523 . S
H1059 C1034 0.950 . S
H1060 C1036 0.950 . S
H1061 C1037 0.949 . S
H1062 C1039 0.950 . S
H1063 C1041 0.950 . S
C1064 C1065 1.349 . S
C1064 C1066 1.327 . S
C1064 H1089 0.950 . S
C1065 C1064 1.349 . S
C1065 C1081 1.349 . S
C1066 C1064 1.327 . S
C1066 C1085 1.429 . S
C1066 H1090 0.950 . S
C1067 C1084 1.574 . S
C1067 C1086 1.368 . S
C1067 H1091 0.949 . S
H1068 C1072 0.949 . S
C1069 C1070 1.349 . S
C1069 C1071 1.327 . S
C1069 H1092 0.950 . S
C1070 C1069 1.349 . S
C1070 C1082 1.349 . S
C1071 C1069 1.327 . S
C1071 C1087 1.429 . S
C1071 H1093 0.950 . S
C1072 H1068 0.949 . S
C1072 C1080 1.574 . S
C1072 C1088 1.368 . S
H1073 C1081 0.950 . S
H1074 C1079 0.950 . S
H1075 C1080 0.949 . S
H1076 C1082 0.950 . S
H1077 C1083 0.950 . S
H1078 C1084 0.949 . S
C1079 H1074 0.950 . S
C1079 C1081 1.327 . S
C1079 C1085 1.429 . S
C1080 C1072 1.574 . S
C1080 H1075 0.949 . S
C1080 C1086 1.368 . S
C1081 C1065 1.349 . S
C1081 H1073 0.950 . S
C1081 C1079 1.327 . S
C1082 C1070 1.349 . S
C1082 H1076 0.950 . S
C1082 C1083 1.327 . S
C1083 H1077 0.950 . S
C1083 C1082 1.327 . S
C1083 C1087 1.429 . S
C1084 C1067 1.574 . S
C1084 H1078 0.949 . S
C1084 C1088 1.368 . S
C1085 C1066 1.429 . S
C1085 C1079 1.429 . S
C1085 C1086 1.523 . S
C1086 C1067 1.368 . S
C1086 C1080 1.368 . S
C1086 C1085 1.523 . S
C1087 C1071 1.429 . S
C1087 C1083 1.429 . S
C1087 C1088 1.523 . S
C1088 C1072 1.368 . S
C1088 C1084 1.368 . S
C1088 C1087 1.523 . S
H1089 C1064 0.950 . S
H1090 C1066 0.950 . S
H1091 C1067 0.949 . S
H1092 C1069 0.950 . S
H1093 C1071 0.950 . S
C1094 C1095 1.349 . S
C1094 C1096 1.327 . S
C1094 H1119 0.950 . S
C1095 C1094 1.349 . S
C1095 C1111 1.349 . S
C1096 C1094 1.327 . S
C1096 C1115 1.429 . S
C1096 H1120 0.950 . S
C1097 C1114 1.574 . S
C1097 C1116 1.368 . S
C1097 H1121 0.949 . S
H1098 C1102 0.949 . S
C1099 C1100 1.349 . S
C1099 C1101 1.327 . S
C1099 H1122 0.950 . S
C1100 C1099 1.349 . S
C1100 C1112 1.349 . S
C1101 C1099 1.327 . S
C1101 C1117 1.429 . S
C1101 H1123 0.950 . S
C1102 H1098 0.949 . S
C1102 C1110 1.574 . S
C1102 C1118 1.368 . S
H1103 C1111 0.950 . S
H1104 C1109 0.950 . S
H1105 C1110 0.949 . S
H1106 C1112 0.989 . S
H1107 C1113 0.950 . S
H1108 C1114 0.949 . S
C1109 H1104 0.950 . S
C1109 C1111 1.327 . S
C1109 C1115 1.429 . S
C1110 C1102 1.574 . S
C1110 H1105 0.949 . S
C1110 C1116 1.368 . S
C1111 C1095 1.349 . S
C1111 H1103 0.950 . S
C1111 C1109 1.327 . S
C1112 C1100 1.349 . S
C1112 H1106 0.989 . S
C1112 C1113 1.327 . S
C1113 H1107 0.950 . S
C1113 C1112 1.327 . S
C1113 C1117 1.429 . S
C1114 C1097 1.574 . S
C1114 H1108 0.949 . S
C1114 C1118 1.368 . S
C1115 C1096 1.429 . S
C1115 C1109 1.429 . S
C1115 C1116 1.523 . S
C1116 C1097 1.368 . S
C1116 C1110 1.368 . S
C1116 C1115 1.523 . S
C1117 C1101 1.429 . S
C1117 C1113 1.429 . S
C1117 C1118 1.523 . S
C1118 C1102 1.368 . S
C1118 C1114 1.368 . S
C1118 C1117 1.523 . S
H1119 C1094 0.950 . S
H1120 C1096 0.950 . S
H1121 C1097 0.949 . S
H1122 C1099 0.950 . S
H1123 C1101 0.950 . S
C1124 C1125 1.349 . S
C1124 C1126 1.327 . S
C1124 H1149 0.950 . S
C1125 C1124 1.349 . S
C1125 C1141 1.349 . S
C1126 C1124 1.327 . S
C1126 C1145 1.429 . S
C1126 H1150 0.950 . S
C1127 C1144 1.574 . S
C1127 C1146 1.368 . S
C1127 H1151 0.949 . S
H1128 C1132 0.949 . S
C1129 C1130 1.349 . S
C1129 C1131 1.327 . S
C1129 H1152 0.950 . S
C1130 C1129 1.349 . S
C1130 C1142 1.349 . S
C1131 C1129 1.327 . S
C1131 C1147 1.429 . S
C1131 H1153 0.950 . S
C1132 H1128 0.949 . S
C1132 C1140 1.574 . S
C1132 C1148 1.368 . S
H1133 C1141 0.950 . S
H1134 C1139 0.950 . S
H1135 C1140 0.949 . S
H1136 C1142 0.950 . S
H1137 C1143 0.950 . S
H1138 C1144 0.949 . S
C1139 H1134 0.950 . S
C1139 C1141 1.327 . S
C1139 C1145 1.429 . S
C1140 C1132 1.574 . S
C1140 H1135 0.949 . S
C1140 C1146 1.368 . S
C1141 C1125 1.349 . S
C1141 H1133 0.950 . S
C1141 C1139 1.327 . S
C1142 C1130 1.349 . S
C1142 H1136 0.950 . S
C1142 C1143 1.327 . S
C1143 H1137 0.950 . S
C1143 C1142 1.327 . S
C1143 C1147 1.429 . S
C1144 C1127 1.574 . S
C1144 H1138 0.949 . S
C1144 C1148 1.368 . S
C1145 C1126 1.429 . S
C1145 C1139 1.429 . S
C1145 C1146 1.523 . S
C1146 C1127 1.368 . S
C1146 C1140 1.368 . S
C1146 C1145 1.523 . S
C1147 C1131 1.429 . S
C1147 C1143 1.429 . S
C1147 C1148 1.523 . S
C1148 C1132 1.368 . S
C1148 C1144 1.368 . S
C1148 C1147 1.523 . S
H1149 C1124 0.950 . S
H1150 C1126 0.950 . S
H1151 C1127 0.949 . S
H1152 C1129 0.950 . S
H1153 C1131 0.950 . S
C1154 C1155 1.349 . S
C1154 C1156 1.327 . S
C1154 H1179 0.950 . S
C1155 C1154 1.349 . S
C1155 C1171 1.349 . S
C1156 C1154 1.327 . S
C1156 C1175 1.429 . S
C1156 H1180 0.950 . S
C1157 C1174 1.574 . S
C1157 C1176 1.368 . S
C1157 H1181 0.949 . S
H1158 C1162 0.949 . S
C1159 C1160 1.349 . S
C1159 C1161 1.327 . S
C1159 H1182 0.950 . S
C1160 C1159 1.349 . S
C1160 C1172 1.349 . S
C1161 C1159 1.327 . S
C1161 C1177 1.429 . S
C1161 H1183 0.950 . S
C1162 H1158 0.949 . S
C1162 C1170 1.574 . S
C1162 C1178 1.368 . S
H1163 C1171 0.950 . S
H1164 C1169 0.950 . S
H1165 C1170 0.949 . S
H1166 C1172 0.950 . S
H1167 C1173 0.950 . S
H1168 C1174 0.949 . S
C1169 H1164 0.950 . S
C1169 C1171 1.327 . S
C1169 C1175 1.429 . S
C1170 C1162 1.574 . S
C1170 H1165 0.949 . S
C1170 C1176 1.368 . S
C1171 C1155 1.349 . S
C1171 H1163 0.950 . S
C1171 C1169 1.327 . S
C1172 C1160 1.349 . S
C1172 H1166 0.950 . S
C1172 C1173 1.327 . S
C1173 H1167 0.950 . S
C1173 C1172 1.327 . S
C1173 C1177 1.429 . S
C1174 C1157 1.574 . S
C1174 H1168 0.949 . S
C1174 C1178 1.368 . S
C1175 C1156 1.429 . S
C1175 C1169 1.429 . S
C1175 C1176 1.523 . S
C1176 C1157 1.368 . S
C1176 C1170 1.368 . S
C1176 C1175 1.523 . S
C1177 C1161 1.429 . S
C1177 C1173 1.429 . S
C1177 C1178 1.523 . S
C1178 C1162 1.368 . S
C1178 C1174 1.368 . S
C1178 C1177 1.523 . S
H1179 C1154 0.950 . S
H1180 C1156 0.950 . S
H1181 C1157 0.949 . S
H1182 C1159 0.950 . S
H1183 C1161 0.950 . S
C1184 C1185 1.349 . S
C1184 C1186 1.327 . S
C1184 H1209 0.950 . S
C1185 C1184 1.349 . S
C1185 C1201 1.349 . S
C1186 C1184 1.327 . S
C1186 C1205 1.429 . S
C1186 H1210 0.950 . S
C1187 C1204 1.574 . S
C1187 C1206 1.368 . S
C1187 H1211 0.949 . S
H1188 C1192 0.949 . S
C1189 C1190 1.349 . S
C1189 C1191 1.327 . S
C1189 H1212 0.950 . S
C1190 C1189 1.349 . S
C1190 C1202 1.349 . S
C1191 C1189 1.327 . S
C1191 C1207 1.429 . S
C1191 H1213 0.950 . S
C1192 H1188 0.949 . S
C1192 C1200 1.574 . S
C1192 C1208 1.368 . S
H1193 C1201 0.950 . S
H1194 C1199 0.950 . S
H1195 C1200 0.949 . S
H1196 C1202 0.950 . S
H1197 C1203 0.950 . S
H1198 C1204 0.949 . S
C1199 H1194 0.950 . S
C1199 C1201 1.327 . S
C1199 C1205 1.429 . S
C1200 C1192 1.574 . S
C1200 H1195 0.949 . S
C1200 C1206 1.368 . S
C1201 C1185 1.349 . S
C1201 H1193 0.950 . S
C1201 C1199 1.327 . S
C1202 C1190 1.349 . S
C1202 H1196 0.950 . S
C1202 C1203 1.327 . S
C1203 H1197 0.950 . S
C1203 C1202 1.327 . S
C1203 C1207 1.429 . S
C1204 C1187 1.574 . S
C1204 H1198 0.949 . S
C1204 C1208 1.368 . S
C1205 C1186 1.429 . S
C1205 C1199 1.429 . S
C1205 C1206 1.523 . S
C1206 C1187 1.368 . S
C1206 C1200 1.368 . S
C1206 C1205 1.523 . S
C1207 C1191 1.429 . S
C1207 C1203 1.429 . S
C1207 C1208 1.523 . S
C1208 C1192 1.368 . S
C1208 C1204 1.368 . S
C1208 C1207 1.523 . S
H1209 C1184 0.950 . S
H1210 C1186 0.950 . S
H1211 C1187 0.949 . S
H1212 C1189 0.950 . S
H1213 C1191 0.950 . S
C1214 C1215 1.349 . S
C1214 C1216 1.327 . S
C1214 H1239 0.950 . S
C1215 C1214 1.349 . S
C1215 C1231 1.349 . S
C1216 C1214 1.327 . S
C1216 C1235 1.429 . S
C1216 H1240 0.950 . S
C1217 C1234 1.574 . S
C1217 C1236 1.368 . S
C1217 H1241 0.949 . S
H1218 C1222 0.949 . S
C1219 C1220 1.349 1_455 S
C1219 C1221 1.327 . S
C1219 H1242 0.950 . S
C1220 C1219 1.349 1_655 S
C1220 C1232 1.349 . S
C1221 C1219 1.327 . S
C1221 C1237 1.429 . S
C1221 H1243 0.950 . S
C1222 H1218 0.949 . S
C1222 C1230 1.574 . S
C1222 C1238 1.368 . S
H1223 C1231 0.950 . S
H1224 C1229 0.950 . S
H1225 C1230 0.949 . S
H1226 C1232 0.950 . S
H1227 C1233 0.950 . S
H1228 C1234 0.949 . S
C1229 H1224 0.950 . S
C1229 C1231 1.327 . S
C1229 C1235 1.429 . S
C1230 C1222 1.574 . S
C1230 H1225 0.949 . S
C1230 C1236 1.368 . S
C1231 C1215 1.349 . S
C1231 H1223 0.950 . S
C1231 C1229 1.327 . S
C1232 C1220 1.349 . S
C1232 H1226 0.950 . S
C1232 C1233 1.327 . S
C1233 H1227 0.950 . S
C1233 C1232 1.327 . S
C1233 C1237 1.429 1_655 S
C1234 C1217 1.574 . S
C1234 H1228 0.949 . S
C1234 C1238 1.368 . S
C1235 C1216 1.429 . S
C1235 C1229 1.429 . S
C1235 C1236 1.523 . S
C1236 C1217 1.368 . S
C1236 C1230 1.368 . S
C1236 C1235 1.523 . S
C1237 C1221 1.429 . S
C1237 C1233 1.429 1_455 S
C1237 C1238 1.523 . S
C1238 C1222 1.368 . S
C1238 C1234 1.368 . S
C1238 C1237 1.523 . S
H1239 C1214 0.950 . S
H1240 C1216 0.950 . S
H1241 C1217 0.949 . S
H1242 C1219 0.950 . S
H1243 C1221 0.950 . S
C1244 C1245 1.349 . S
C1244 C1246 1.327 . S
C1244 H1269 0.950 . S
C1245 C1244 1.349 . S
C1245 C1261 1.349 . S
C1246 C1244 1.327 . S
C1246 C1265 1.429 . S
C1246 H1270 0.950 . S
C1247 C1264 1.574 . S
C1247 C1266 1.368 . S
C1247 H1271 0.949 . S
H1248 C1252 0.949 . S
C1249 C1250 1.349 . S
C1249 C1251 1.327 . S
C1249 H1272 0.950 . S
C1250 C1249 1.349 . S
C1250 C1262 1.349 . S
C1251 C1249 1.327 . S
C1251 C1267 1.429 . S
C1251 H1273 0.950 . S
C1252 H1248 0.949 . S
C1252 C1260 1.574 . S
C1252 C1268 1.368 . S
H1253 C1261 0.950 . S
H1254 C1259 0.950 . S
H1255 C1260 0.949 . S
H1256 C1262 0.950 . S
H1257 C1263 0.950 . S
H1258 C1264 0.949 . S
C1259 H1254 0.950 . S
C1259 C1261 1.327 . S
C1259 C1265 1.429 . S
C1260 C1252 1.574 . S
C1260 H1255 0.949 . S
C1260 C1266 1.368 . S
C1261 C1245 1.349 . S
C1261 H1253 0.950 . S
C1261 C1259 1.327 . S
C1262 C1250 1.349 . S
C1262 H1256 0.950 . S
C1262 C1263 1.327 . S
C1263 H1257 0.950 . S
C1263 C1262 1.327 . S
C1263 C1267 1.429 . S
C1264 C1247 1.574 . S
C1264 H1258 0.949 . S
C1264 C1268 1.368 . S
C1265 C1246 1.429 . S
C1265 C1259 1.429 . S
C1265 C1266 1.523 . S
C1266 C1247 1.368 . S
C1266 C1260 1.368 . S
C1266 C1265 1.523 . S
C1267 C1251 1.429 . S
C1267 C1263 1.429 . S
C1267 C1268 1.523 . S
C1268 C1252 1.368 . S
C1268 C1264 1.368 . S
C1268 C1267 1.523 . S
H1269 C1244 0.950 . S
H1270 C1246 0.950 . S
H1271 C1247 0.949 . S
H1272 C1249 0.950 . S
H1273 C1251 0.950 . S
C1274 C1275 1.349 . S
C1274 C1276 1.327 . S
C1274 H1299 0.950 . S
C1275 C1274 1.349 . S
C1275 C1291 1.349 . S
C1276 C1274 1.327 . S
C1276 C1295 1.429 . S
C1276 H1300 0.950 . S
C1277 C1294 1.574 1_655 S
C1277 C1296 1.368 . S
C1277 H1301 0.949 . S
H1278 C1282 0.949 . S
C1279 C1280 1.349 . S
C1279 C1281 1.327 . S
C1279 H1302 0.950 . S
C1280 C1279 1.349 . S
C1280 C1292 1.349 . S
C1281 C1279 1.327 . S
C1281 C1297 1.429 . S
C1281 H1303 0.950 . S
C1282 H1278 0.949 . S
C1282 C1290 1.574 1_455 S
C1282 C1298 1.368 . S
H1283 C1291 0.950 . S
H1284 C1289 0.950 . S
H1285 C1290 0.949 . S
H1286 C1292 0.950 . S
H1287 C1293 0.950 . S
H1288 C1294 0.949 . S
C1289 H1284 0.950 . S
C1289 C1291 1.327 . S
C1289 C1295 1.429 . S
C1290 C1282 1.574 1_655 S
C1290 H1285 0.949 . S
C1290 C1296 1.368 . S
C1291 C1275 1.349 . S
C1291 H1283 0.950 . S
C1291 C1289 1.327 . S
C1292 C1280 1.349 . S
C1292 H1286 0.950 . S
C1292 C1293 1.327 . S
C1293 H1287 0.950 . S
C1293 C1292 1.327 . S
C1293 C1297 1.429 . S
C1294 C1277 1.574 1_455 S
C1294 H1288 0.949 . S
C1294 C1298 1.368 . S
C1295 C1276 1.429 . S
C1295 C1289 1.429 . S
C1295 C1296 1.523 . S
C1296 C1277 1.368 . S
C1296 C1290 1.368 . S
C1296 C1295 1.523 . S
C1297 C1281 1.429 . S
C1297 C1293 1.429 . S
C1297 C1298 1.523 . S
C1298 C1282 1.368 . S
C1298 C1294 1.368 . S
C1298 C1297 1.523 . S
H1299 C1274 0.950 . S
H1300 C1276 0.950 . S
H1301 C1277 0.949 . S
H1302 C1279 0.950 . S
H1303 C1281 0.950 . S
C1304 C1305 1.349 . S
C1304 C1306 1.327 . S
C1304 H1329 0.950 . S
C1305 C1304 1.349 . S
C1305 C1321 1.349 . S
C1306 C1304 1.327 . S
C1306 C1325 1.429 . S
C1306 H1330 0.950 . S
C1307 C1324 1.574 . S
C1307 C1326 1.368 . S
C1307 H1331 0.949 . S
H1308 C1312 0.949 . S
C1309 C1310 1.349 . S
C1309 C1311 1.327 . S
C1309 H1332 0.950 . S
C1310 C1309 1.349 . S
C1310 C1322 1.349 . S
C1311 C1309 1.327 . S
C1311 C1327 1.429 . S
C1311 H1333 0.950 . S
C1312 H1308 0.949 . S
C1312 C1320 1.574 . S
C1312 C1328 1.368 . S
H1313 C1321 0.950 . S
H1314 C1319 0.950 . S
H1315 C1320 0.949 . S
H1316 C1322 0.950 . S
H1317 C1323 0.950 . S
H1318 C1324 0.949 . S
C1319 H1314 0.950 . S
C1319 C1321 1.327 . S
C1319 C1325 1.429 . S
C1320 C1312 1.574 . S
C1320 H1315 0.949 . S
C1320 C1326 1.368 . S
C1321 C1305 1.349 . S
C1321 H1313 0.950 . S
C1321 C1319 1.327 . S
C1322 C1310 1.349 . S
C1322 H1316 0.950 . S
C1322 C1323 1.327 . S
C1323 H1317 0.950 . S
C1323 C1322 1.327 . S
C1323 C1327 1.429 . S
C1324 C1307 1.574 . S
C1324 H1318 0.949 . S
C1324 C1328 1.368 . S
C1325 C1306 1.429 . S
C1325 C1319 1.429 . S
C1325 C1326 1.523 . S
C1326 C1307 1.368 . S
C1326 C1320 1.368 . S
C1326 C1325 1.523 . S
C1327 C1311 1.429 . S
C1327 C1323 1.429 . S
C1327 C1328 1.523 . S
C1328 C1312 1.368 . S
C1328 C1324 1.368 . S
C1328 C1327 1.523 . S
H1329 C1304 0.950 . S
H1330 C1306 0.950 . S
H1331 C1307 0.949 . S
H1332 C1309 0.950 . S
H1333 C1311 0.950 . S
C1334 C1335 1.349 . S
C1334 C1336 1.327 . S
C1334 H1359 0.950 . S
C1335 C1334 1.349 . S
C1335 C1351 1.349 . S
C1336 C1334 1.327 . S
C1336 C1355 1.429 . S
C1336 H1360 0.950 . S
C1337 C1354 1.574 1_554 S
C1337 C1356 1.368 . S
C1337 H1361 0.949 . S
H1338 C1342 0.949 . S
C1339 C1340 1.349 . S
C1339 C1341 1.327 . S
C1339 H1362 0.950 . S
C1340 C1339 1.349 . S
C1340 C1352 1.349 . S
C1341 C1339 1.327 . S
C1341 C1357 1.429 . S
C1341 H1363 0.950 . S
C1342 H1338 0.949 . S
C1342 C1350 1.574 . S
C1342 C1358 1.368 . S
H1343 C1351 0.950 . S
H1344 C1349 0.950 . S
H1345 C1350 0.949 . S
H1346 C1352 0.950 1_455 S
H1347 C1353 0.950 . S
H1348 C1354 0.949 . S
C1349 H1344 0.950 . S
C1349 C1351 1.327 . S
C1349 C1355 1.429 . S
C1350 C1342 1.574 . S
C1350 H1345 0.949 . S
C1350 C1356 1.368 1_556 S
C1351 C1335 1.349 . S
C1351 H1343 0.950 . S
C1351 C1349 1.327 . S
C1352 C1340 1.349 . S
C1352 H1346 0.950 1_655 S
C1352 C1353 1.327 . S
C1353 H1347 0.950 . S
C1353 C1352 1.327 . S
C1353 C1357 1.429 . S
C1354 C1337 1.574 1_556 S
C1354 H1348 0.949 . S
C1354 C1358 1.368 . S
C1355 C1336 1.429 . S
C1355 C1349 1.429 . S
C1355 C1356 1.523 . S
C1356 C1337 1.368 . S
C1356 C1350 1.368 1_554 S
C1356 C1355 1.523 . S
C1357 C1341 1.429 . S
C1357 C1353 1.429 . S
C1357 C1358 1.523 . S
C1358 C1342 1.368 . S
C1358 C1354 1.368 . S
C1358 C1357 1.523 . S
H1359 C1334 0.950 . S
H1360 C1336 0.950 . S
H1361 C1337 0.949 . S
H1362 C1339 0.950 . S
H1363 C1341 0.950 . S
C1364 C1365 1.349 . S
C1364 C1366 1.327 . S
C1364 H1389 0.950 . S
C1365 C1364 1.349 . S
C1365 C1381 1.349 . S
C1366 C1364 1.327 . S
C1366 C1385 1.429 . S
C1366 H1390 0.950 . S
C1367 C1384 1.574 . S
C1367 C1386 1.368 . S
C1367 H1391 0.949 . S
H1368 C1372 0.949 . S
C1369 C1370 1.349 . S
C1369 C1371 1.327 . S
C1369 H1392 0.950 . S
C1370 C1369 1.349 . S
C1370 C1382 1.349 . S
C1371 C1369 1.327 . S
C1371 C1387 1.429 . S
C1371 H1393 0.950 . S
C1372 H1368 0.949 . S
C1372 C1380 1.574 . S
C1372 C1388 1.368 . S
H1373 C1381 0.950 . S
H1374 C1379 0.950 . S
H1375 C1380 0.949 . S
H1376 C1382 0.950 . S
H1377 C1383 0.950 . S
H1378 C1384 0.949 . S
C1379 H1374 0.950 . S
C1379 C1381 1.327 . S
C1379 C1385 1.429 . S
C1380 C1372 1.574 . S
C1380 H1375 0.949 . S
C1380 C1386 1.368 . S
C1381 C1365 1.349 . S
C1381 H1373 0.950 . S
C1381 C1379 1.327 . S
C1382 C1370 1.349 . S
C1382 H1376 0.950 . S
C1382 C1383 1.327 . S
C1383 H1377 0.950 . S
C1383 C1382 1.327 . S
C1383 C1387 1.429 . S
C1384 C1367 1.574 . S
C1384 H1378 0.949 . S
C1384 C1388 1.368 . S
C1385 C1366 1.429 . S
C1385 C1379 1.429 . S
C1385 C1386 1.523 . S
C1386 C1367 1.368 . S
C1386 C1380 1.368 . S
C1386 C1385 1.523 . S
C1387 C1371 1.429 . S
C1387 C1383 1.429 . S
C1387 C1388 1.523 . S
C1388 C1372 1.368 . S
C1388 C1384 1.368 . S
C1388 C1387 1.523 . S
H1389 C1364 0.950 . S
H1390 C1366 0.950 . S
H1391 C1367 0.949 . S
H1392 C1369 0.950 . S
H1393 C1371 0.950 . S
C1394 C1395 1.349 . S
C1394 C1396 1.327 . S
C1394 H1419 0.950 . S
C1395 C1394 1.349 . S
C1395 C1411 1.349 . S
C1396 C1394 1.327 . S
C1396 C1415 1.429 . S
C1396 H1420 0.950 . S
C1397 C1414 1.574 . S
C1397 C1416 1.368 . S
C1397 H1421 0.949 . S
H1398 C1402 0.949 . S
C1399 C1400 1.349 . S
C1399 C1401 1.327 . S
C1399 H1422 0.950 . S
C1400 C1399 1.349 . S
C1400 C1412 1.349 . S
C1401 C1399 1.327 . S
C1401 C1417 1.429 . S
C1401 H1423 0.950 . S
C1402 H1398 0.949 . S
C1402 C1410 1.574 1_556 S
C1402 C1418 1.365 1_556 S
H1403 C1411 0.950 . S
H1404 C1409 0.950 . S
H1405 C1410 0.949 . S
H1406 C1412 0.950 . S
H1407 C1413 0.950 . S
H1408 C1414 0.949 . S
C1409 H1404 0.950 . S
C1409 C1411 1.327 . S
C1409 C1415 1.429 . S
C1410 C1402 1.574 1_554 S
C1410 H1405 0.949 . S
C1410 C1416 1.368 . S
C1411 C1395 1.349 . S
C1411 H1403 0.950 . S
C1411 C1409 1.327 . S
C1412 C1400 1.349 . S
C1412 H1406 0.950 . S
C1412 C1413 1.327 . S
C1413 H1407 0.950 . S
C1413 C1412 1.327 . S
C1413 C1417 1.429 . S
C1414 C1397 1.574 . S
C1414 H1408 0.949 . S
C1414 C1418 1.399 . S
C1415 C1396 1.429 . S
C1415 C1409 1.429 . S
C1415 C1416 1.523 . S
C1416 C1397 1.368 . S
C1416 C1410 1.368 . S
C1416 C1415 1.523 . S
C1417 C1401 1.429 . S
C1417 C1413 1.429 . S
C1417 C1418 1.488 1_556 S
C1418 C1402 1.365 1_554 S
C1418 C1414 1.399 . S
C1418 C1417 1.488 1_554 S
H1419 C1394 0.950 . S
H1420 C1396 0.950 . S
H1421 C1397 0.949 . S
H1422 C1399 0.950 . S
H1423 C1401 0.950 . S
C1424 C1425 1.349 . S
C1424 C1426 1.327 . S
C1424 H1449 0.950 . S
C1425 C1424 1.349 . S
C1425 C1441 1.349 . S
C1426 C1424 1.327 . S
C1426 C1445 1.429 . S
C1426 H1450 0.950 . S
C1427 C1444 1.574 . S
C1427 C1446 1.368 . S
C1427 H1451 0.949 . S
H1428 C1432 0.949 . S
C1429 C1430 1.349 . S
C1429 C1431 1.327 . S
C1429 H1452 0.950 . S
C1430 C1429 1.349 . S
C1430 C1442 1.349 . S
C1431 C1429 1.327 . S
C1431 C1447 1.429 . S
C1431 H1453 0.950 . S
C1432 H1428 0.949 . S
C1432 C1440 1.574 . S
C1432 C1448 1.368 . S
H1433 C1441 0.950 . S
H1434 C1439 0.950 . S
H1435 C1440 0.949 . S
H1436 C1442 0.950 . S
H1437 C1443 0.950 . S
H1438 C1444 0.949 . S
C1439 H1434 0.950 . S
C1439 C1441 1.327 . S
C1439 C1445 1.429 . S
C1440 C1432 1.574 . S
C1440 H1435 0.949 . S
C1440 C1446 1.368 . S
C1441 C1425 1.349 . S
C1441 H1433 0.950 . S
C1441 C1439 1.327 . S
C1442 C1430 1.349 . S
C1442 H1436 0.950 . S
C1442 C1443 1.327 . S
C1443 H1437 0.950 . S
C1443 C1442 1.327 . S
C1443 C1447 1.429 . S
C1444 C1427 1.574 . S
C1444 H1438 0.949 . S
C1444 C1448 1.368 . S
C1445 C1426 1.429 . S
C1445 C1439 1.429 . S
C1445 C1446 1.523 . S
C1446 C1427 1.368 . S
C1446 C1440 1.368 . S
C1446 C1445 1.523 . S
C1447 C1431 1.429 . S
C1447 C1443 1.429 . S
C1447 C1448 1.523 . S
C1448 C1432 1.368 . S
C1448 C1444 1.368 . S
C1448 C1447 1.523 . S
H1449 C1424 0.950 . S
H1450 C1426 0.950 . S
H1451 C1427 0.949 . S
H1452 C1429 0.950 . S
H1453 C1431 0.950 . S
C1454 C1455 1.349 . S
C1454 C1456 1.327 . S
C1454 H1479 0.950 . S
C1455 C1454 1.349 . S
C1455 C1471 1.349 . S
C1456 C1454 1.327 . S
C1456 C1475 1.429 1_556 S
C1456 H1480 0.950 . S
C1457 C1474 1.574 . S
C1457 C1476 1.368 . S
C1457 H1481 0.949 . S
H1458 C1462 0.949 . S
C1459 C1460 1.349 . S
C1459 C1461 1.327 . S
C1459 H1482 0.950 . S
C1460 C1459 1.349 . S
C1460 C1472 1.349 . S
C1461 C1459 1.327 . S
C1461 C1477 1.429 . S
C1461 H1483 0.950 . S
C1462 H1458 0.949 . S
C1462 C1470 1.574 . S
C1462 C1478 1.368 . S
H1463 C1471 0.950 . S
H1464 C1469 0.950 . S
H1465 C1470 0.949 . S
H1466 C1472 0.950 . S
H1467 C1473 0.950 . S
H1468 C1474 0.949 . S
C1469 H1464 0.950 . S
C1469 C1471 1.327 . S
C1469 C1475 1.429 1_556 S
C1470 C1462 1.574 . S
C1470 H1465 0.949 . S
C1470 C1476 1.368 . S
C1471 C1455 1.349 . S
C1471 H1463 0.950 . S
C1471 C1469 1.327 . S
C1472 C1460 1.349 . S
C1472 H1466 0.950 . S
C1472 C1473 1.327 . S
C1473 H1467 0.950 . S
C1473 C1472 1.327 . S
C1473 C1477 1.429 . S
C1474 C1457 1.574 . S
C1474 H1468 0.949 . S
C1474 C1478 1.368 . S
C1475 C1456 1.429 1_554 S
C1475 C1469 1.429 1_554 S
C1475 C1476 1.523 . S
C1476 C1457 1.368 . S
C1476 C1470 1.368 . S
C1476 C1475 1.523 . S
C1477 C1461 1.429 . S
C1477 C1473 1.429 . S
C1477 C1478 1.523 . S
C1478 C1462 1.368 . S
C1478 C1474 1.368 . S
C1478 C1477 1.523 . S
H1479 C1454 0.950 . S
H1480 C1456 0.950 . S
H1481 C1457 0.949 . S
H1482 C1459 0.950 . S
H1483 C1461 0.950 . S
C1484 C1485 1.349 . S
C1484 C1486 1.327 . S
C1484 H1509 0.950 . S
C1485 C1484 1.349 . S
C1485 C1501 1.349 . S
C1486 C1484 1.327 . S
C1486 C1505 1.429 . S
C1486 H1510 0.950 . S
C1487 C1504 1.574 . S
C1487 C1506 1.368 . S
C1487 H1511 0.949 . S
H1488 C1492 0.949 . S
C1489 C1490 1.349 . S
C1489 C1491 1.327 . S
C1489 H1512 0.950 . S
C1490 C1489 1.349 . S
C1490 C1502 1.349 . S
C1491 C1489 1.327 . S
C1491 C1507 1.429 . S
C1491 H1513 0.950 . S
C1492 H1488 0.949 . S
C1492 C1500 1.574 . S
C1492 C1508 1.368 . S
H1493 C1501 0.950 . S
H1494 C1499 0.950 . S
H1495 C1500 0.949 . S
H1496 C1502 0.950 . S
H1497 C1503 0.950 . S
H1498 C1504 0.949 . S
C1499 H1494 0.950 . S
C1499 C1501 1.327 . S
C1499 C1505 1.429 . S
C1500 C1492 1.574 . S
C1500 H1495 0.949 . S
C1500 C1506 1.368 . S
C1501 C1485 1.349 . S
C1501 H1493 0.950 . S
C1501 C1499 1.327 . S
C1502 C1490 1.349 . S
C1502 H1496 0.950 . S
C1502 C1503 1.327 . S
C1503 H1497 0.950 . S
C1503 C1502 1.327 . S
C1503 C1507 1.429 . S
C1504 C1487 1.574 . S
C1504 H1498 0.949 . S
C1504 C1508 1.368 . S
C1505 C1486 1.429 . S
C1505 C1499 1.429 . S
C1505 C1506 1.523 . S
C1506 C1487 1.368 . S
C1506 C1500 1.368 . S
C1506 C1505 1.523 . S
C1507 C1491 1.429 . S
C1507 C1503 1.429 . S
C1507 C1508 1.523 . S
C1508 C1492 1.368 . S
C1508 C1504 1.368 . S
C1508 C1507 1.523 . S
H1509 C1484 0.950 . S
H1510 C1486 0.950 . S
H1511 C1487 0.949 . S
H1512 C1489 0.950 . S
H1513 C1491 0.950 . S
C1514 C1515 1.349 . S
C1514 C1516 1.327 . S
C1514 H1539 0.950 . S
C1515 C1514 1.349 . S
C1515 C1531 1.349 . S
C1516 C1514 1.327 . S
C1516 C1535 1.429 . S
C1516 H1540 0.950 . S
C1517 C1534 1.574 . S
C1517 C1536 1.368 . S
C1517 H1541 0.949 . S
H1518 C1522 0.949 . S
C1519 C1520 1.349 . S
C1519 C1521 1.327 . S
C1519 H1542 0.950 . S
C1520 C1519 1.349 . S
C1520 C1532 1.349 . S
C1521 C1519 1.327 . S
C1521 C1537 1.429 . S
C1521 H1543 0.950 . S
C1522 H1518 0.949 . S
C1522 C1530 1.574 . S
C1522 C1538 1.368 . S
H1523 C1531 0.950 . S
H1524 C1529 0.950 1_554 S
H1525 C1530 0.928 1_556 S
H1526 C1532 0.950 . S
H1527 C1533 0.950 . S
H1528 C1534 0.949 . S
C1529 H1524 0.950 1_556 S
C1529 C1531 1.327 . S
C1529 C1535 1.429 . S
C1530 C1522 1.574 . S
C1530 H1525 0.928 1_554 S
C1530 C1536 1.368 . S
C1531 C1515 1.349 . S
C1531 H1523 0.950 . S
C1531 C1529 1.327 . S
C1532 C1520 1.349 . S
C1532 H1526 0.950 . S
C1532 C1533 1.327 . S
C1533 H1527 0.950 . S
C1533 C1532 1.327 . S
C1533 C1537 1.429 . S
C1534 C1517 1.574 . S
C1534 H1528 0.949 . S
C1534 C1538 1.368 . S
C1535 C1516 1.429 . S
C1535 C1529 1.429 . S
C1535 C1536 1.523 1_556 S
C1536 C1517 1.368 . S
C1536 C1530 1.368 . S
C1536 C1535 1.523 1_554 S
C1537 C1521 1.429 . S
C1537 C1533 1.429 . S
C1537 C1538 1.523 . S
C1538 C1522 1.368 . S
C1538 C1534 1.368 . S
C1538 C1537 1.523 . S
H1539 C1514 0.950 . S
H1540 C1516 0.950 . S
H1541 C1517 0.949 . S
H1542 C1519 0.950 . S
H1543 C1521 0.950 . S
C1544 C1545 1.349 . S
C1544 C1546 1.327 . S
C1544 H1569 0.950 . S
C1545 C1544 1.349 . S
C1545 C1561 1.349 . S
C1546 C1544 1.327 . S
C1546 C1565 1.429 . S
C1546 H1570 0.950 . S
C1547 C1564 1.574 . S
C1547 C1566 1.368 . S
C1547 H1571 0.949 . S
H1548 C1552 0.949 . S
C1549 C1550 1.349 . S
C1549 C1551 1.327 . S
C1549 H1572 0.950 . S
C1550 C1549 1.349 . S
C1550 C1562 1.349 . S
C1551 C1549 1.327 . S
C1551 C1567 1.429 . S
C1551 H1573 0.950 . S
C1552 H1548 0.949 . S
C1552 C1560 1.574 . S
C1552 C1568 1.368 . S
H1553 C1561 0.950 . S
H1554 C1559 0.950 . S
H1555 C1560 0.949 . S
H1556 C1562 0.950 . S
H1557 C1563 0.950 . S
H1558 C1564 0.949 . S
C1559 H1554 0.950 . S
C1559 C1561 1.327 . S
C1559 C1565 1.429 . S
C1560 C1552 1.574 . S
C1560 H1555 0.949 . S
C1560 C1566 1.368 . S
C1561 C1545 1.349 . S
C1561 H1553 0.950 . S
C1561 C1559 1.327 . S
C1562 C1550 1.349 . S
C1562 H1556 0.950 . S
C1562 C1563 1.327 . S
C1563 H1557 0.950 . S
C1563 C1562 1.327 . S
C1563 C1567 1.429 . S
C1564 C1547 1.574 . S
C1564 H1558 0.949 . S
C1564 C1568 1.368 . S
C1565 C1546 1.429 . S
C1565 C1559 1.429 . S
C1565 C1566 1.523 . S
C1566 C1547 1.368 . S
C1566 C1560 1.368 . S
C1566 C1565 1.523 . S
C1567 C1551 1.429 . S
C1567 C1563 1.429 . S
C1567 C1568 1.523 . S
C1568 C1552 1.368 . S
C1568 C1564 1.368 . S
C1568 C1567 1.523 . S
H1569 C1544 0.950 . S
H1570 C1546 0.950 . S
H1571 C1547 0.949 . S
H1572 C1549 0.950 . S
H1573 C1551 0.950 . S
C1574 C1575 1.349 . S
C1574 C1576 1.327 . S
C1574 H1599 0.950 . S
C1575 C1574 1.349 . S
C1575 C1591 1.349 . S
C1576 C1574 1.327 . S
C1576 C1595 1.429 . S
C1576 H1600 0.950 . S
C1577 C1594 1.574 . S
C1577 C1596 1.368 . S
C1577 H1601 0.949 . S
H1578 C1582 0.949 . S
C1579 C1580 1.349 . S
C1579 C1581 1.327 . S
C1579 H1602 0.950 . S
C1580 C1579 1.349 . S
C1580 C1592 1.349 . S
C1581 C1579 1.327 . S
C1581 C1597 1.429 . S
C1581 H1603 0.950 . S
C1582 H1578 0.949 . S
C1582 C1590 1.574 . S
C1582 C1598 1.368 . S
H1583 C1591 0.950 . S
H1584 C1589 0.950 . S
H1585 C1590 0.949 . S
H1586 C1592 0.950 . S
H1587 C1593 0.950 . S
H1588 C1594 0.949 . S
C1589 H1584 0.950 . S
C1589 C1591 1.327 . S
C1589 C1595 1.429 . S
C1590 C1582 1.574 . S
C1590 H1585 0.949 . S
C1590 C1596 1.368 . S
C1591 C1575 1.349 . S
C1591 H1583 0.950 . S
C1591 C1589 1.327 . S
C1592 C1580 1.349 . S
C1592 H1586 0.950 . S
C1592 C1593 1.327 . S
C1593 H1587 0.950 . S
C1593 C1592 1.327 . S
C1593 C1597 1.429 . S
C1594 C1577 1.574 . S
C1594 H1588 0.949 . S
C1594 C1598 1.368 . S
C1595 C1576 1.429 . S
C1595 C1589 1.429 . S
C1595 C1596 1.523 . S
C1596 C1577 1.368 . S
C1596 C1590 1.368 . S
C1596 C1595 1.523 . S
C1597 C1581 1.429 . S
C1597 C1593 1.429 . S
C1597 C1598 1.523 . S
C1598 C1582 1.368 . S
C1598 C1594 1.368 . S
C1598 C1597 1.523 . S
H1599 C1574 0.950 . S
H1600 C1576 0.950 . S
H1601 C1577 0.949 . S
H1602 C1579 0.950 . S
H1603 C1581 0.950 . S
C1604 C1605 1.349 . S
C1604 C1606 1.327 . S
C1604 H1629 0.950 . S
C1605 C1604 1.349 . S
C1605 C1621 1.349 . S
C1606 C1604 1.327 . S
C1606 C1625 1.429 . S
C1606 H1630 0.950 . S
C1607 C1624 1.574 . S
C1607 C1626 1.368 . S
C1607 H1631 0.949 . S
H1608 C1612 0.949 . S
C1609 C1610 1.349 . S
C1609 C1611 1.327 . S
C1609 H1632 0.950 . S
C1610 C1609 1.349 . S
C1610 C1622 1.349 . S
C1611 C1609 1.327 . S
C1611 C1627 1.429 . S
C1611 H1633 0.950 . S
C1612 H1608 0.949 . S
C1612 C1620 1.574 . S
C1612 C1628 1.368 . S
H1613 C1621 0.950 . S
H1614 C1619 0.950 . S
H1615 C1620 0.949 . S
H1616 C1622 0.950 . S
H1617 C1623 0.950 . S
H1618 C1624 0.949 . S
C1619 H1614 0.950 . S
C1619 C1621 1.327 . S
C1619 C1625 1.429 . S
C1620 C1612 1.574 . S
C1620 H1615 0.949 . S
C1620 C1626 1.368 . S
C1621 C1605 1.349 . S
C1621 H1613 0.950 . S
C1621 C1619 1.327 . S
C1622 C1610 1.349 . S
C1622 H1616 0.950 . S
C1622 C1623 1.327 . S
C1623 H1617 0.950 . S
C1623 C1622 1.327 . S
C1623 C1627 1.429 . S
C1624 C1607 1.574 . S
C1624 H1618 0.949 . S
C1624 C1628 1.368 . S
C1625 C1606 1.429 . S
C1625 C1619 1.429 . S
C1625 C1626 1.523 . S
C1626 C1607 1.368 . S
C1626 C1620 1.368 . S
C1626 C1625 1.523 . S
C1627 C1611 1.429 . S
C1627 C1623 1.429 . S
C1627 C1628 1.523 . S
C1628 C1612 1.368 . S
C1628 C1624 1.368 . S
C1628 C1627 1.523 . S
H1629 C1604 0.950 . S
H1630 C1606 0.950 . S
H1631 C1607 0.949 . S
H1632 C1609 0.950 . S
H1633 C1611 0.950 . S
C1634 C1635 1.349 . S
C1634 C1636 1.327 . S
C1634 H1659 0.950 . S
C1635 C1634 1.349 . S
C1635 C1651 1.349 . S
C1636 C1634 1.327 . S
C1636 C1655 1.429 . S
C1636 H1660 0.950 . S
C1637 C1654 1.574 . S
C1637 C1656 1.368 . S
C1637 H1661 0.949 . S
H1638 C1642 0.949 . S
C1639 C1640 1.349 . S
C1639 C1641 1.327 . S
C1639 H1662 0.950 . S
C1640 C1639 1.349 . S
C1640 C1652 1.349 . S
C1641 C1639 1.327 . S
C1641 C1657 1.429 . S
C1641 H1663 0.950 . S
C1642 H1638 0.949 . S
C1642 C1650 1.574 . S
C1642 C1658 1.368 . S
H1643 C1651 0.950 . S
H1644 C1649 0.950 . S
H1645 C1650 0.949 . S
H1646 C1652 0.950 . S
H1647 C1653 0.950 . S
H1648 C1654 0.949 . S
C1649 H1644 0.950 . S
C1649 C1651 1.327 . S
C1649 C1655 1.429 . S
C1650 C1642 1.574 . S
C1650 H1645 0.949 . S
C1650 C1656 1.368 . S
C1651 C1635 1.349 . S
C1651 H1643 0.950 . S
C1651 C1649 1.327 . S
C1652 C1640 1.349 . S
C1652 H1646 0.950 . S
C1652 C1653 1.327 . S
C1653 H1647 0.950 . S
C1653 C1652 1.327 . S
C1653 C1657 1.429 . S
C1654 C1637 1.574 . S
C1654 H1648 0.949 . S
C1654 C1658 1.368 . S
C1655 C1636 1.429 . S
C1655 C1649 1.429 . S
C1655 C1656 1.523 . S
C1656 C1637 1.368 . S
C1656 C1650 1.368 . S
C1656 C1655 1.523 . S
C1657 C1641 1.429 . S
C1657 C1653 1.429 . S
C1657 C1658 1.523 . S
C1658 C1642 1.368 . S
C1658 C1654 1.368 . S
C1658 C1657 1.523 . S
H1659 C1634 0.950 . S
H1660 C1636 0.950 . S
H1661 C1637 0.949 . S
H1662 C1639 0.950 . S
H1663 C1641 0.950 . S
C1664 C1665 1.349 . S
C1664 C1666 1.327 . S
C1664 H1689 0.950 . S
C1665 C1664 1.349 . S
C1665 C1681 1.349 . S
C1666 C1664 1.327 . S
C1666 C1685 1.429 . S
C1666 H1690 0.950 . S
C1667 C1684 1.574 . S
C1667 C1686 1.368 . S
C1667 H1691 0.949 . S
H1668 C1672 0.949 . S
C1669 C1670 1.349 . S
C1669 C1671 1.327 . S
C1669 H1692 0.950 . S
C1670 C1669 1.349 . S
C1670 C1682 1.349 . S
C1671 C1669 1.327 . S
C1671 C1687 1.429 . S
C1671 H1693 0.950 . S
C1672 H1668 0.949 . S
C1672 C1680 1.574 . S
C1672 C1688 1.368 . S
H1673 C1681 0.950 . S
H1674 C1679 0.950 . S
H1675 C1680 0.949 . S
H1676 C1682 0.950 . S
H1677 C1683 0.950 . S
H1678 C1684 0.949 . S
C1679 H1674 0.950 . S
C1679 C1681 1.327 . S
C1679 C1685 1.429 . S
C1680 C1672 1.574 . S
C1680 H1675 0.949 . S
C1680 C1686 1.368 . S
C1681 C1665 1.349 . S
C1681 H1673 0.950 . S
C1681 C1679 1.327 . S
C1682 C1670 1.349 . S
C1682 H1676 0.950 . S
C1682 C1683 1.327 . S
C1683 H1677 0.950 . S
C1683 C1682 1.327 . S
C1683 C1687 1.429 . S
C1684 C1667 1.574 . S
C1684 H1678 0.949 . S
C1684 C1688 1.368 . S
C1685 C1666 1.429 . S
C1685 C1679 1.429 . S
C1685 C1686 1.523 . S
C1686 C1667 1.368 . S
C1686 C1680 1.368 . S
C1686 C1685 1.523 . S
C1687 C1671 1.429 . S
C1687 C1683 1.429 . S
C1687 C1688 1.523 . S
C1688 C1672 1.368 . S
C1688 C1684 1.368 . S
C1688 C1687 1.523 . S
H1689 C1664 0.950 . S
H1690 C1666 0.950 . S
H1691 C1667 0.949 . S
H1692 C1669 0.950 . S
H1693 C1671 0.950 . S
C1694 C1695 1.349 . S
C1694 C1696 1.327 . S
C1694 H1719 0.950 . S
C1695 C1694 1.349 . S
C1695 C1711 1.349 . S
C1696 C1694 1.327 . S
C1696 C1715 1.429 . S
C1696 H1720 0.950 . S
C1697 C1714 1.574 . S
C1697 C1716 1.368 . S
C1697 H1721 0.949 . S
H1698 C1702 0.949 . S
C1699 C1700 1.349 . S
C1699 C1701 1.327 . S
C1699 H1722 0.950 . S
C1700 C1699 1.349 . S
C1700 C1712 1.349 . S
C1701 C1699 1.327 . S
C1701 C1717 1.429 . S
C1701 H1723 0.950 . S
C1702 H1698 0.949 . S
C1702 C1710 1.574 . S
C1702 C1718 1.368 . S
H1703 C1711 0.950 . S
H1704 C1709 0.950 . S
H1705 C1710 0.949 . S
H1706 C1712 0.950 . S
H1707 C1713 0.950 . S
H1708 C1714 0.949 . S
C1709 H1704 0.950 . S
C1709 C1711 1.327 . S
C1709 C1715 1.429 . S
C1710 C1702 1.574 . S
C1710 H1705 0.949 . S
C1710 C1716 1.368 . S
C1711 C1695 1.349 . S
C1711 H1703 0.950 . S
C1711 C1709 1.327 . S
C1712 C1700 1.349 . S
C1712 H1706 0.950 . S
C1712 C1713 1.327 . S
C1713 H1707 0.950 . S
C1713 C1712 1.327 . S
C1713 C1717 1.429 . S
C1714 C1697 1.574 . S
C1714 H1708 0.949 . S
C1714 C1718 1.368 . S
C1715 C1696 1.429 . S
C1715 C1709 1.429 . S
C1715 C1716 1.523 . S
C1716 C1697 1.368 . S
C1716 C1710 1.368 . S
C1716 C1715 1.523 . S
C1717 C1701 1.429 . S
C1717 C1713 1.429 . S
C1717 C1718 1.523 . S
C1718 C1702 1.368 . S
C1718 C1714 1.368 . S
C1718 C1717 1.523 . S
H1719 C1694 0.950 . S
H1720 C1696 0.950 . S
H1721 C1697 0.949 . S
H1722 C1699 0.950 . S
H1723 C1701 0.950 . S
C1724 C1725 1.349 . S
C1724 C1726 1.327 . S
C1724 H1749 0.950 . S
C1725 C1724 1.349 . S
C1725 C1741 1.349 . S
C1726 C1724 1.327 . S
C1726 C1745 1.429 . S
C1726 H1750 0.950 . S
C1727 C1744 1.574 . S
C1727 C1746 1.368 . S
C1727 H1751 0.949 . S
H1728 C1732 0.949 . S
C1729 C1730 1.349 . S
C1729 C1731 1.327 . S
C1729 H1752 0.950 . S
C1730 C1729 1.349 . S
C1730 C1742 1.349 . S
C1731 C1729 1.327 . S
C1731 C1747 1.429 . S
C1731 H1753 0.950 . S
C1732 H1728 0.949 . S
C1732 C1740 1.574 . S
C1732 C1748 1.368 . S
H1733 C1741 0.950 . S
H1734 C1739 0.950 . S
H1735 C1740 0.949 . S
H1736 C1742 0.950 . S
H1737 C1743 0.950 . S
H1738 C1744 0.949 . S
C1739 H1734 0.950 . S
C1739 C1741 1.327 . S
C1739 C1745 1.429 . S
C1740 C1732 1.574 . S
C1740 H1735 0.949 . S
C1740 C1746 1.368 . S
C1741 C1725 1.349 . S
C1741 H1733 0.950 . S
C1741 C1739 1.327 . S
C1742 C1730 1.349 . S
C1742 H1736 0.950 . S
C1742 C1743 1.327 . S
C1743 H1737 0.950 . S
C1743 C1742 1.327 . S
C1743 C1747 1.429 . S
C1744 C1727 1.574 . S
C1744 H1738 0.949 . S
C1744 C1748 1.368 . S
C1745 C1726 1.429 . S
C1745 C1739 1.429 . S
C1745 C1746 1.523 . S
C1746 C1727 1.368 . S
C1746 C1740 1.368 . S
C1746 C1745 1.523 . S
C1747 C1731 1.429 . S
C1747 C1743 1.429 . S
C1747 C1748 1.523 . S
C1748 C1732 1.368 . S
C1748 C1744 1.368 . S
C1748 C1747 1.523 . S
H1749 C1724 0.950 . S
H1750 C1726 0.950 . S
H1751 C1727 0.949 . S
H1752 C1729 0.950 . S
H1753 C1731 0.950 . S
C1754 C1755 1.349 . S
C1754 C1756 1.327 . S
C1754 H1779 0.950 . S
C1755 C1754 1.349 . S
C1755 C1771 1.349 . S
C1756 C1754 1.327 . S
C1756 C1775 1.429 . S
C1756 H1780 0.950 . S
C1757 C1774 1.574 . S
C1757 C1776 1.368 . S
C1757 H1781 0.949 . S
H1758 C1762 0.949 . S
C1759 C1760 1.349 . S
C1759 C1761 1.327 . S
C1759 H1782 0.950 . S
C1760 C1759 1.349 . S
C1760 C1772 1.349 . S
C1761 C1759 1.327 . S
C1761 C1777 1.429 . S
C1761 H1783 0.950 . S
C1762 H1758 0.949 . S
C1762 C1770 1.574 . S
C1762 C1778 1.368 . S
H1763 C1771 0.950 . S
H1764 C1769 0.950 . S
H1765 C1770 0.949 . S
H1766 C1772 0.950 1_565 S
H1767 C1773 0.950 . S
H1768 C1774 0.949 . S
C1769 H1764 0.950 . S
C1769 C1771 1.327 . S
C1769 C1775 1.429 . S
C1770 C1762 1.574 . S
C1770 H1765 0.949 . S
C1770 C1776 1.368 . S
C1771 C1755 1.349 . S
C1771 H1763 0.950 . S
C1771 C1769 1.327 . S
C1772 C1760 1.349 . S
C1772 H1766 0.950 1_545 S
C1772 C1773 1.327 . S
C1773 H1767 0.950 . S
C1773 C1772 1.327 . S
C1773 C1777 1.429 . S
C1774 C1757 1.574 . S
C1774 H1768 0.949 . S
C1774 C1778 1.368 . S
C1775 C1756 1.429 . S
C1775 C1769 1.429 . S
C1775 C1776 1.523 . S
C1776 C1757 1.368 . S
C1776 C1770 1.368 . S
C1776 C1775 1.523 . S
C1777 C1761 1.429 . S
C1777 C1773 1.429 . S
C1777 C1778 1.523 . S
C1778 C1762 1.368 . S
C1778 C1774 1.368 . S
C1778 C1777 1.523 . S
H1779 C1754 0.950 . S
H1780 C1756 0.950 . S
H1781 C1757 0.949 . S
H1782 C1759 0.950 . S
H1783 C1761 0.950 . S
C350 C184 1.794 . S
C345 C60 1.796 . S
C380 C199 1.540 . S
C375 C76 1.556 . S
C405 C81 1.876 . S
C410 C212 1.858 . S
C440 C226 1.560 . S
C435 C48 1.576 . S
C470 C238 1.721 . S
C465 C115 1.807 . S
C500 C252 1.354 . S
C495 C136 1.370 . S
C525 C131 1.584 . S
C530 C266 1.551 . S
C560 C281 1.338 . S
C555 C104 1.357 . S
C585 C126 1.632 . S
C590 C297 1.602 . S
C620 C310 1.335 . S
C615 C103 1.324 . S
C645 C120 1.541 . S
C650 C295 1.485 . S
C680 C308 1.483 . S
C675 C142 1.471 . S
C705 C82 1.926 . S
C710 C324 1.924 . S
C735 C54 1.850 . S
C740 C323 1.814 . S
C765 C65 1.669 . S
C770 C322 1.619 . S
C795 C71 1.245 . S
C800 C325 1.249 . S
C825 C37 1.763 . S
C830 C227 1.753 . S
C855 C158 1.910 . S
C860 C225 1.887 . S
C890 C185 1.358 . S
C885 C169 1.368 . S
C920 C196 1.505 . S
C915 C98 1.539 . S
C945 C49 1.699 . S
C950 C241 1.697 . S
C980 C282 1.956 . S
C975 C125 1.956 . S
C1010 C239 1.431 . S
C1005 C109 1.435 . S
C1040 C267 1.688 . S
C1035 C137 1.718 . S
C1070 C268 1.794 . S
C1065 C159 1.797 . S
C1095 C175 1.556 . S
C1100 C283 1.540 . S
C1125 C92 1.876 . S
C1130 C240 1.858 . S
C1160 C254 1.560 . S
C1155 C147 1.576 . S
C1185 C38 1.807 . S
C1190 C210 1.720 . S
C1220 C224 1.354 . S
C1215 C4 1.370 . S
C1250 C182 1.551 . S
C1245 C21 1.584 . S
C1280 C197 1.338 . S
C1275 C27 1.357 . S
C1305 C16 1.632 . S
C1310 C311 1.602 . S
C1335 C26 1.324 . S
C1340 C296 1.335 . S
C1365 C43 1.541 . S
C1370 C309 1.485 . S
C1395 C10 1.472 . S
C1400 C294 1.483 . S
C1430 C338 1.924 . S
C1425 C93 1.926 . S
C1460 C337 1.814 . S
C1455 C153 1.850 . S
C1490 C336 1.619 . S
C1485 C164 1.669 . S
C1515 C170 1.245 . S
C1520 C339 1.249 . S
C1545 C114 1.764 . S
C1550 C255 1.753 . S
C1580 C253 1.887 . S
C1575 C59 1.910 . S
C1610 C269 1.358 . S
C1605 C70 1.368 . S
C1640 C280 1.505 . S
C1635 C87 1.539 . S
C1665 C148 1.699 . S
C1670 C213 1.697 . S
C1700 C198 1.956 . S
C1695 C15 1.956 . S
C1725 C32 1.435 . S
C1730 C211 1.431 . S
C1760 C183 1.688 1_545 S
C1755 C5 1.718 . S
