# Generated by pormake.
# Topology tsx, (6,3)-cn, num edge types: 1
# Building blocks:
#     Node 0, Type 0, BuildingBlock: VOLQOD_clean_sbu_1, # of connection points: 6
#     Node 1, Type 0, BuildingBlock: VOLQOD_clean_sbu_1, # of connection points: 6
#     Node 2, Type 1, BuildingBlock: BETDAH_clean_linker_0, # of connection points: 3
#     Node 3, Type 1, BuildingBlock: BETDAH_clean_linker_0, # of connection points: 3
#     Node 4, Type 1, BuildingBlock: BETDAH_clean_linker_0, # of connection points: 3
#     Node 5, Type 1, BuildingBlock: BETDAH_clean_linker_0, # of connection points: 3
#     Edge 6, Type (0, 1), BuildingBlock: MIFKUJ_clean_linker_0, # of connection points: 2
#     Edge 7, Type (0, 1), BuildingBlock: MIFKUJ_clean_linker_0, # of connection points: 2
#     Edge 8, Type (0, 1), BuildingBlock: MIFKUJ_clean_linker_0, # of connection points: 2
#     Edge 9, Type (0, 1), BuildingBlock: MIFKUJ_clean_linker_0, # of connection points: 2
#     Edge 10, Type (0, 1), BuildingBlock: MIFKUJ_clean_linker_0, # of connection points: 2
#     Edge 11, Type (0, 1), BuildingBlock: MIFKUJ_clean_linker_0, # of connection points: 2
#     Edge 12, Type (0, 1), BuildingBlock: MIFKUJ_clean_linker_0, # of connection points: 2
#     Edge 13, Type (0, 1), BuildingBlock: MIFKUJ_clean_linker_0, # of connection points: 2
#     Edge 14, Type (0, 1), BuildingBlock: MIFKUJ_clean_linker_0, # of connection points: 2
#     Edge 15, Type (0, 1), BuildingBlock: MIFKUJ_clean_linker_0, # of connection points: 2
#     Edge 16, Type (0, 1), BuildingBlock: MIFKUJ_clean_linker_0, # of connection points: 2
#     Edge 17, Type (0, 1), BuildingBlock: MIFKUJ_clean_linker_0, # of connection points: 2
# Relax obj value: 0.053
# Max RMSD: 0.114
# Mean RMSD: 0.101
data_MOF--net-tsx--node1-VOLQOD_clean_sbu_1--node2-BETDAH_clean_linker_0--edge1-MIFKUJ_clean_linker_0
_symmetry_space_group_name_H-M    P1
_symmetry_Int_Tables_number       1
_symmetry_cell_setting            triclinic
loop_
_symmetry_equiv_pos_as_xyz
'x, y, z'
_cell_length_a     27.190803
_cell_length_b     28.09907
_cell_length_c     48.577017
_cell_angle_alpha  90.303689
_cell_angle_beta   98.194432
_cell_angle_gamma 90.107087
loop_
_atom_site_label
_atom_site_type_symbol
_atom_site_fract_x
_atom_site_fract_y
_atom_site_fract_z
_atom_type_partial_charge
O0 O 0.04557 0.02008 0.07444 0.0
Zn1 Zn 0.06361 0.01792 0.03525 0.0
O2 O 0.00355 0.02226 0.00742 0.0
Zn3 Zn 0.99812 0.96602 0.98341 0.0
Zn4 Zn 0.9443 0.02579 0.02578 0.0
Zn5 Zn 0.0071 0.07929 0.98486 0.0
O6 O 0.9985 0.98364 0.94313 0.0
O7 O 0.00979 0.06196 0.94476 0.0
O8 O 0.10301 0.95803 0.02992 0.0
O9 O 0.05652 0.92359 0.99394 0.0
O10 O 0.9383 0.92586 0.98801 0.0
O11 O 0.90102 0.96776 0.01786 0.0
O12 O 0.90366 0.08406 0.01442 0.0
O13 O 0.10911 0.07359 0.03185 0.0
O14 O 0.94813 0.12189 0.98641 0.0
O15 O 0.06809 0.1179 0.99846 0.0
C16 C 0.00417 0.02522 0.08359 0.0
C17 C 0.0051 0.02294 0.93114 0.0
C18 C 0.90346 0.93097 0.00272 0.0
C19 C 0.09478 0.92406 0.01236 0.0
C20 C 0.91017 0.11929 0.99895 0.0
C21 C 0.10562 0.11075 0.01682 0.0
O22 O 0.96351 0.02851 0.06712 0.0
O23 O 0.55024 0.51767 0.57004 0.0
Zn24 Zn 0.56405 0.51834 0.5299 0.0
O25 O 0.50297 0.53138 0.50441 0.0
Zn26 Zn 0.48796 0.47851 0.47875 0.0
Zn27 Zn 0.44811 0.53908 0.52552 0.0
Zn28 Zn 0.50965 0.58925 0.4833 0.0
O29 O 0.4793 0.49989 0.43883 0.0
O30 O 0.50803 0.57406 0.44243 0.0
O31 O 0.59611 0.45629 0.52018 0.0
O32 O 0.54485 0.43338 0.48276 0.0
O33 O 0.42964 0.44 0.48761 0.0
O34 O 0.40393 0.48133 0.52188 0.0
O35 O 0.4067 0.5958 0.51286 0.0
O36 O 0.6138 0.57096 0.52706 0.0
O37 O 0.45278 0.63418 0.48587 0.0
O38 O 0.57367 0.62282 0.49746 0.0
C39 C 0.51332 0.53322 0.58096 0.0
C40 C 0.49241 0.53798 0.42767 0.0
C41 C 0.4008 0.4451 0.5059 0.0
C42 C 0.58419 0.42746 0.49995 0.0
C43 C 0.41399 0.63116 0.49768 0.0
C44 C 0.61192 0.61042 0.51413 0.0
O45 O 0.47329 0.54624 0.56609 0.0
H46 H 0.04402 0.96669 0.37289 0.0
H47 H 0.90048 0.02744 0.37893 0.0
H48 H 0.96811 0.93182 0.44186 0.0
C49 C 0.01272 0.97175 0.38415 0.0
C50 C 0.0115 0.94699 0.40901 0.0
C51 C 0.97268 0.00047 0.37285 0.0
C52 C 0.93167 0.00546 0.38734 0.0
C53 C 0.93029 0.98061 0.4123 0.0
C54 C 0.96965 0.9509 0.42266 0.0
N55 N 0.88909 0.98357 0.427 0.0
C56 C 0.86504 0.02603 0.43083 0.0
H57 H 0.97886 0.93951 0.63774 0.0
H58 H 0.11633 0.0159 0.63738 0.0
H59 H 0.0531 0.93536 0.56543 0.0
C60 C 0.00925 0.95077 0.62704 0.0
C61 C 0.01085 0.93492 0.5998 0.0
C62 C 0.04756 0.97918 0.64105 0.0
C63 C 0.08634 0.99429 0.62679 0.0
C64 C 0.08817 0.97834 0.59942 0.0
C65 C 0.05104 0.94802 0.58636 0.0
N66 N 0.12833 0.98963 0.585 0.0
C67 C 0.15271 0.03319 0.58703 0.0
H68 H 0.56692 0.46485 0.88099 0.0
H69 H 0.42023 0.52535 0.87448 0.0
H70 H 0.48647 0.46257 0.95105 0.0
C71 C 0.53448 0.47438 0.89042 0.0
C72 C 0.53222 0.46164 0.91812 0.0
C73 C 0.49423 0.49693 0.87424 0.0
C74 C 0.45222 0.5091 0.88669 0.0
C75 C 0.44982 0.49668 0.91443 0.0
C76 C 0.48942 0.47275 0.92985 0.0
N77 N 0.40556 0.50259 0.92613 0.0
C78 C 0.38561 0.5469 0.93044 0.0
H79 H 0.45023 0.46391 0.12726 0.0
H80 H 0.60049 0.51768 0.13842 0.0
H81 H 0.54411 0.43895 0.06469 0.0
C82 C 0.48531 0.46939 0.11955 0.0
C83 C 0.49208 0.44978 0.09377 0.0
C84 C 0.52446 0.493 0.13628 0.0
C85 C 0.56957 0.50018 0.12577 0.0
C86 C 0.57631 0.48096 0.09979 0.0
C87 C 0.53803 0.45498 0.08427 0.0
N88 N 0.62271 0.48374 0.08994 0.0
C89 C 0.64689 0.52666 0.08753 0.0
H90 H 0.09906 0.20534 0.00442 0.0
H91 H 0.16457 0.26537 0.01323 0.0
H92 H 0.26856 0.15702 0.04641 0.0
H93 H 0.20249 0.09735 0.03893 0.0
H94 H 0.28069 0.2286 0.07846 0.0
H95 H 0.26733 0.21074 0.97961 0.0
H96 H 0.22526 0.20825 0.93117 0.0
H97 H 0.18074 0.35393 0.93771 0.0
H98 H 0.22199 0.35711 0.98634 0.0
H99 H 0.50142 0.35901 0.07598 0.0
H100 H 0.43448 0.30436 0.05733 0.0
H101 H 0.32747 0.41709 0.05881 0.0
H102 H 0.3944 0.47189 0.078 0.0
H103 H 0.31725 0.34621 0.00817 0.0
H104 H 0.33087 0.3594 0.1091 0.0
H105 H 0.3795 0.35988 0.15601 0.0
H106 H 0.42973 0.21779 0.14303 0.0
H107 H 0.38215 0.2169 0.09578 0.0
C108 C 0.13599 0.19433 0.01346 0.0
C109 C 0.1457 0.14669 0.02101 0.0
C110 C 0.17352 0.22863 0.01832 0.0
C111 C 0.22182 0.2157 0.0301 0.0
C112 C 0.23162 0.16795 0.03734 0.0
C113 C 0.19387 0.13384 0.03303 0.0
C114 C 0.26167 0.25212 0.03605 0.0
C115 C 0.28889 0.25378 0.06288 0.0
C116 C 0.2721 0.28577 0.01596 0.0
C117 C 0.24733 0.284 0.98671 0.0
C118 C 0.24824 0.24213 0.97079 0.0
C119 C 0.2246 0.24062 0.94329 0.0
C120 C 0.20023 0.28087 0.93139 0.0
C121 C 0.19957 0.32276 0.94696 0.0
C122 C 0.22311 0.32445 0.97449 0.0
C123 C 0.46379 0.37239 0.07168 0.0
C124 C 0.45284 0.41946 0.07847 0.0
C125 C 0.4257 0.34122 0.06108 0.0
C126 C 0.37628 0.35686 0.05682 0.0
C127 C 0.36552 0.40461 0.0619 0.0
C128 C 0.40357 0.43567 0.07297 0.0
C129 C 0.33572 0.32193 0.05026 0.0
C130 C 0.30859 0.32076 0.02351 0.0
C131 C 0.32576 0.2882 0.0702 0.0
C132 C 0.35339 0.28828 0.09882 0.0
C133 C 0.35263 0.32843 0.11616 0.0
C134 C 0.37995 0.32876 0.14282 0.0
C135 C 0.40778 0.28893 0.15247 0.0
C136 C 0.40821 0.24864 0.13551 0.0
C137 C 0.38106 0.2482 0.1088 0.0
H138 H 0.42893 0.28925 0.17311 0.0
H139 H 0.18195 0.27962 0.9101 0.0
H140 H 0.19555 0.92693 0.02859 0.0
H141 H 0.25572 0.86456 0.02122 0.0
H142 H 0.1353 0.77117 0.98823 0.0
H143 H 0.07541 0.83317 0.99508 0.0
H144 H 0.21395 0.7251 0.02337 0.0
H145 H 0.18576 0.83596 0.94626 0.0
H146 H 0.18578 0.91651 0.92657 0.0
H147 H 0.34341 0.92695 0.95158 0.0
H148 H 0.34394 0.84709 0.97257 0.0
H149 H 0.28828 0.55909 0.93104 0.0
H150 H 0.24838 0.62699 0.95062 0.0
H151 H 0.39063 0.69729 0.96915 0.0
H152 H 0.43059 0.62903 0.94932 0.0
H153 H 0.31491 0.7592 0.94823 0.0
H154 H 0.34634 0.64566 0.02048 0.0
H155 H 0.34756 0.56632 0.042 0.0
H156 H 0.18815 0.56117 0.02727 0.0
H157 H 0.18596 0.6402 0.00526 0.0
C158 C 0.18202 0.89273 0.02031 0.0
C159 C 0.13091 0.88496 0.01215 0.0
C160 C 0.21634 0.85727 0.01607 0.0
C161 C 0.19984 0.81347 0.00403 0.0
C162 C 0.14873 0.80471 0.99758 0.0
C163 C 0.1146 0.84026 0.00135 0.0
C164 C 0.23513 0.77817 0.99548 0.0
C165 C 0.2361 0.73247 0.00698 0.0
C166 C 0.26493 0.78835 0.97459 0.0
C167 C 0.26477 0.83584 0.96137 0.0
C168 C 0.22034 0.85562 0.94787 0.0
C169 C 0.22025 0.90118 0.93647 0.0
C170 C 0.26458 0.92685 0.93778 0.0
C171 C 0.30908 0.90705 0.95061 0.0
C172 C 0.30926 0.86172 0.96238 0.0
C173 C 0.31074 0.58945 0.93889 0.0
C174 C 0.36213 0.58945 0.93867 0.0
C175 C 0.28812 0.62796 0.95024 0.0
C176 C 0.31671 0.66681 0.96172 0.0
C177 C 0.368 0.66758 0.96048 0.0
C178 C 0.3907 0.62883 0.94915 0.0
C179 C 0.29269 0.70569 0.9756 0.0
C180 C 0.29372 0.75201 0.96507 0.0
C181 C 0.26503 0.69619 0.99756 0.0
C182 C 0.26602 0.64878 0.01103 0.0
C183 C 0.31154 0.62749 0.02165 0.0
C184 C 0.31241 0.58258 0.03396 0.0
C185 C 0.26797 0.55869 0.03596 0.0
C186 C 0.22255 0.57972 0.0257 0.0
C187 C 0.22147 0.62461 0.01333 0.0
H188 H 0.26873 0.52391 0.04549 0.0
H189 H 0.26445 0.96204 0.92882 0.0
H190 H 0.81203 0.93442 0.0199 0.0
H191 H 0.76151 0.86704 0.03102 0.0
H192 H 0.86785 0.76981 0.00395 0.0
H193 H 0.91721 0.837 0.99159 0.0
H194 H 0.78012 0.73331 0.99153 0.0
H195 H 0.87013 0.80363 0.07396 0.0
H196 H 0.89729 0.8687 0.10696 0.0
H197 H 0.74657 0.89051 0.121 0.0
H198 H 0.71842 0.82597 0.08776 0.0
H199 H 0.73857 0.53309 0.07364 0.0
H200 H 0.77736 0.60431 0.0569 0.0
H201 H 0.64939 0.68745 0.07008 0.0
H202 H 0.6103 0.61584 0.08647 0.0
H203 H 0.74313 0.73181 0.08868 0.0
H204 H 0.65702 0.65232 0.00765 0.0
H205 H 0.63624 0.58309 0.97675 0.0
H206 H 0.78805 0.57391 0.96228 0.0
H207 H 0.81001 0.64249 0.99358 0.0
C208 C 0.8241 0.89868 0.01581 0.0
C209 C 0.86884 0.89101 0.00513 0.0
C210 C 0.79537 0.86017 0.02234 0.0
C211 C 0.81159 0.81327 0.0191 0.0
C212 C 0.85466 0.80561 0.00682 0.0
C213 C 0.88288 0.84411 0.99975 0.0
C214 C 0.78576 0.7724 0.03017 0.0
C215 C 0.7724 0.73291 0.01283 0.0
C216 C 0.77524 0.77184 0.05794 0.0
C217 C 0.79211 0.81033 0.07816 0.0
C218 C 0.84275 0.8225 0.08396 0.0
C219 C 0.85833 0.85927 0.10271 0.0
C220 C 0.82366 0.88381 0.116 0.0
C221 C 0.77337 0.87152 0.11064 0.0
C222 C 0.75758 0.83484 0.09186 0.0
C223 C 0.71913 0.56677 0.07316 0.0
C224 C 0.67177 0.56955 0.08118 0.0
C225 C 0.7411 0.60722 0.06355 0.0
C226 C 0.7159 0.65091 0.06195 0.0
C227 C 0.66928 0.65399 0.0711 0.0
C228 C 0.64711 0.61334 0.08047 0.0
C229 C 0.7378 0.69301 0.05008 0.0
C230 C 0.75051 0.73256 0.06732 0.0
C231 C 0.7486 0.69315 0.02242 0.0
C232 C 0.73525 0.65239 0.00316 0.0
C233 C 0.68607 0.63535 0.99805 0.0
C234 C 0.67406 0.59624 0.98043 0.0
C235 C 0.71079 0.57413 0.96755 0.0
C236 C 0.75961 0.59116 0.97222 0.0
C237 C 0.77187 0.63012 0.98992 0.0
H238 H 0.70146 0.54374 0.954 0.0
H239 H 0.8358 0.91229 0.1305 0.0
H240 H 0.81988 0.12192 0.01766 0.0
H241 H 0.75729 0.18461 0.01032 0.0
H242 H 0.85329 0.26693 0.96534 0.0
H243 H 0.91628 0.20453 0.97259 0.0
H244 H 0.8044 0.32229 0.002 0.0
H245 H 0.76597 0.20365 0.92953 0.0
H246 H 0.74891 0.1222 0.91146 0.0
H247 H 0.62303 0.11259 0.95544 0.0
H248 H 0.63979 0.1938 0.97409 0.0
H249 H 0.6328 0.47229 0.91953 0.0
H250 H 0.69787 0.41789 0.93975 0.0
H251 H 0.58826 0.33234 0.97285 0.0
H252 H 0.52279 0.38506 0.95146 0.0
H253 H 0.64333 0.27858 0.94608 0.0
H254 H 0.67556 0.40015 0.01496 0.0
H255 H 0.69098 0.48206 0.03245 0.0
H256 H 0.82633 0.48724 0.99658 0.0
H257 H 0.81122 0.40561 0.97833 0.0
C258 C 0.8279 0.15345 0.00634 0.0
C259 C 0.87293 0.15797 0.99546 0.0
C260 C 0.7921 0.18925 0.00222 0.0
C261 C 0.80065 0.2302 0.98717 0.0
C262 C 0.84612 0.2356 0.97707 0.0
C263 C 0.88187 0.19972 0.98106 0.0
C264 C 0.7609 0.26587 0.98035 0.0
C265 C 0.76924 0.313 0.98963 0.0
C266 C 0.71474 0.25327 0.96477 0.0
C267 C 0.70447 0.20456 0.95345 0.0
C268 C 0.7349 0.18401 0.93553 0.0
C269 C 0.72524 0.13792 0.92515 0.0
C270 C 0.685 0.11218 0.93237 0.0
C271 C 0.65424 0.13254 0.94991 0.0
C272 C 0.66379 0.17859 0.96038 0.0
C273 C 0.6226 0.44199 0.93122 0.0
C274 C 0.57256 0.43283 0.93369 0.0
C275 C 0.65991 0.41123 0.94306 0.0
C276 C 0.64797 0.37113 0.95795 0.0
C277 C 0.59831 0.36307 0.96145 0.0
C278 C 0.56096 0.39355 0.94943 0.0
C279 C 0.68649 0.33538 0.9677 0.0
C280 C 0.67809 0.28807 0.95881 0.0
C281 C 0.73234 0.34792 0.98376 0.0
C282 C 0.74208 0.39677 0.99512 0.0
C283 C 0.70849 0.41881 0.01065 0.0
C284 C 0.71721 0.4652 0.02074 0.0
C285 C 0.75971 0.48977 0.01571 0.0
C286 C 0.79352 0.46806 1.00053 0.0
C287 C 0.7849 0.42172 0.99031 0.0
H288 H 0.76641 0.52569 0.02349 0.0
H289 H 0.67757 0.0765 0.92431 0.0
H290 H 0.71014 0.58753 0.52291 0.0
H291 H 0.78087 0.64204 0.53216 0.0
H292 H 0.68007 0.76132 0.52776 0.0
H293 H 0.60969 0.70702 0.51644 0.0
H294 H 0.75331 0.78778 0.50621 0.0
H295 H 0.74004 0.70822 0.59182 0.0
H296 H 0.73534 0.63997 0.62307 0.0
H297 H 0.87935 0.59321 0.60786 0.0
H298 H 0.88463 0.66089 0.57624 0.0
H299 H 0.91074 0.94773 0.59474 0.0
H300 H 0.84547 0.89198 0.57497 0.0
H301 H 0.95707 0.79394 0.55483 0.0
H302 H 0.02255 0.84982 0.57435 0.0
H303 H 0.88304 0.7557 0.58654 0.0
H304 H 0.8944 0.84793 0.50377 0.0
H305 H 0.89488 0.92319 0.47791 0.0
H306 H 0.74722 0.95392 0.49446 0.0
H307 H 0.74614 0.87921 0.5208 0.0
C308 C 0.70329 0.62544 0.52378 0.0
C309 C 0.65462 0.64318 0.51916 0.0
C310 C 0.74365 0.65659 0.52924 0.0
C311 C 0.73594 0.70588 0.53138 0.0
C312 C 0.68718 0.72354 0.52626 0.0
C313 C 0.64694 0.69252 0.5199 0.0
C314 C 0.77838 0.73902 0.53943 0.0
C315 C 0.78134 0.78081 0.52394 0.0
C316 C 0.81552 0.73002 0.56241 0.0
C317 C 0.81247 0.68931 0.58143 0.0
C318 C 0.77054 0.68319 0.595 0.0
C319 C 0.7678 0.64464 0.61279 0.0
C320 C 0.80695 0.61219 0.61738 0.0
C321 C 0.84901 0.61831 0.60424 0.0
C322 C 0.85191 0.65677 0.5864 0.0
C323 C 0.92122 0.91444 0.58586 0.0
C324 C 0.97152 0.90293 0.58603 0.0
C325 C 0.88404 0.88282 0.5745 0.0
C326 C 0.89663 0.83906 0.56341 0.0
C327 C 0.94679 0.82769 0.56324 0.0
C328 C 0.984 0.85962 0.57424 0.0
C329 C 0.85737 0.8041 0.55347 0.0
C330 C 0.8551 0.76213 0.56867 0.0
C331 C 0.82007 0.81373 0.53086 0.0
C332 C 0.82035 0.85811 0.51444 0.0
C333 C 0.86215 0.87086 0.50204 0.0
C334 C 0.8625 0.91342 0.48727 0.0
C335 C 0.82114 0.94336 0.48462 0.0
C336 C 0.77924 0.9307 0.49657 0.0
C337 C 0.77872 0.88823 0.51138 0.0
H338 H 0.82147 0.97638 0.47332 0.0
H339 H 0.80476 0.58237 0.63117 0.0
H340 H 0.57112 0.36314 0.45742 0.0
H341 H 0.62293 0.29555 0.44966 0.0
H342 H 0.72186 0.32959 0.52473 0.0
H343 H 0.67018 0.39859 0.53257 0.0
H344 H 0.77252 0.30712 0.48189 0.0
H345 H 0.64278 0.23706 0.52428 0.0
H346 H 0.55638 0.22132 0.53161 0.0
H347 H 0.52425 0.16214 0.44932 0.0
H348 H 0.61029 0.17816 0.44133 0.0
H349 H 0.89308 0.08103 0.47553 0.0
H350 H 0.84891 0.15059 0.49044 0.0
H351 H 0.73799 0.13521 0.41791 0.0
H352 H 0.78208 0.06527 0.40324 0.0
H353 H 0.69669 0.14693 0.4651 0.0
H354 H 0.8257 0.22296 0.42211 0.0
H355 H 0.91234 0.23898 0.41529 0.0
H356 H 0.9463 0.28614 0.50011 0.0
H357 H 0.85997 0.2698 0.50753 0.0
C358 C 0.60376 0.35644 0.47243 0.0
C359 C 0.61628 0.38625 0.49576 0.0
C360 C 0.63329 0.31753 0.46798 0.0
C361 C 0.67576 0.30706 0.48686 0.0
C362 C 0.68901 0.33697 0.51 0.0
C363 C 0.6594 0.37624 0.51447 0.0
C364 C 0.70622 0.26504 0.48186 0.0
C365 C 0.75626 0.27189 0.47876 0.0
C366 C 0.68471 0.21924 0.47736 0.0
C367 C 0.63296 0.20913 0.48215 0.0
C368 C 0.61722 0.22098 0.50767 0.0
C369 C 0.56831 0.21196 0.51195 0.0
C370 C 0.53482 0.19082 0.49092 0.0
C371 C 0.55023 0.17853 0.46559 0.0
C372 C 0.59909 0.18751 0.46119 0.0
C373 C 0.85954 0.09306 0.46271 0.0
C374 C 0.84082 0.06864 0.43823 0.0
C375 C 0.83444 0.13266 0.47118 0.0
C376 C 0.7904 0.14828 0.45516 0.0
C377 C 0.77195 0.12375 0.43054 0.0
C378 C 0.7971 0.08413 0.4221 0.0
C379 C 0.76261 0.18924 0.46447 0.0
C380 C 0.71308 0.18208 0.46848 0.0
C381 C 0.7847 0.2346 0.46994 0.0
C382 C 0.83652 0.24468 0.46545 0.0
C383 C 0.85175 0.23639 0.43936 0.0
C384 C 0.90078 0.2456 0.43538 0.0
C385 C 0.93484 0.26344 0.45728 0.0
C386 C 0.9199 0.27225 0.48318 0.0
C387 C 0.87092 0.26306 0.48728 0.0
H388 H 0.97279 0.27054 0.45416 0.0
H389 H 0.49696 0.1839 0.49427 0.0
H390 H 0.40707 0.35182 0.49117 0.0
H391 H 0.35895 0.28532 0.50519 0.0
H392 H 0.26928 0.3827 0.54571 0.0
H393 H 0.31912 0.44939 0.53282 0.0
H394 H 0.29383 0.3139 0.57866 0.0
H395 H 0.22409 0.31968 0.48316 0.0
H396 H 0.22322 0.32319 0.43239 0.0
H397 H 0.29887 0.18902 0.43401 0.0
H398 H 0.3008 0.18498 0.48486 0.0
H399 H 0.12065 0.12211 0.59625 0.0
H400 H 0.15904 0.19686 0.58356 0.0
H401 H 0.27888 0.11696 0.55638 0.0
H402 H 0.24105 0.04268 0.56946 0.0
H403 H 0.23051 0.18033 0.51631 0.0
H404 H 0.30182 0.17926 0.61355 0.0
H405 H 0.29876 0.17753 0.66402 0.0
H406 H 0.21254 0.30589 0.65787 0.0
H407 H 0.21448 0.308 0.60726 0.0
C408 C 0.37652 0.35922 0.50262 0.0
C409 C 0.36682 0.40589 0.51083 0.0
C410 C 0.34884 0.32109 0.51058 0.0
C411 C 0.30992 0.32888 0.52624 0.0
C412 C 0.29911 0.3757 0.53367 0.0
C413 C 0.32745 0.41382 0.52617 0.0
C414 C 0.28282 0.28792 0.53633 0.0
C415 C 0.27909 0.2852 0.56486 0.0
C416 C 0.26409 0.25 0.5185 0.0
C417 C 0.2629 0.25221 0.48788 0.0
C418 C 0.24084 0.29107 0.47273 0.0
C419 C 0.24011 0.29313 0.44392 0.0
C420 C 0.26106 0.2564 0.42999 0.0
C421 C 0.28268 0.21746 0.44483 0.0
C422 C 0.28354 0.21523 0.47364 0.0
C423 C 0.15579 0.12092 0.58818 0.0
C424 C 0.1783 0.07722 0.58385 0.0
C425 C 0.17753 0.16339 0.58088 0.0
C426 C 0.22168 0.16229 0.56897 0.0
C427 C 0.24476 0.11848 0.56547 0.0
C428 C 0.22333 0.07623 0.57302 0.0
C429 C 0.24244 0.20627 0.5585 0.0
C430 C 0.24481 0.20946 0.52991 0.0
C431 C 0.25909 0.24487 0.57617 0.0
C432 C 0.25776 0.24345 0.60656 0.0
C433 C 0.28176 0.20684 0.62291 0.0
C434 C 0.28033 0.20586 0.65155 0.0
C435 C 0.25533 0.24149 0.66413 0.0
C436 C 0.2318 0.27826 0.64809 0.0
C437 C 0.23307 0.27937 0.61943 0.0
H438 H 0.2543 0.24068 0.68632 0.0
H439 H 0.26046 0.25807 0.40769 0.0
H440 H 0.31654 0.62337 0.50434 0.0
H441 H 0.25047 0.68123 0.49135 0.0
H442 H 0.35693 0.77989 0.46612 0.0
H443 H 0.42349 0.72171 0.47854 0.0
H444 H 0.27853 0.81792 0.50041 0.0
H445 H 0.30146 0.73218 0.41682 0.0
H446 H 0.3114 0.66002 0.38905 0.0
H447 H 0.16879 0.60925 0.40439 0.0
H448 H 0.15835 0.68088 0.43261 0.0
H449 H 0.1101 0.96896 0.41543 0.0
H450 H 0.18005 0.91755 0.43307 0.0
H451 H 0.07787 0.80472 0.44562 0.0
H452 H 0.00772 0.85591 0.42783 0.0
H453 H 0.15606 0.77532 0.41804 0.0
H454 H 0.13135 0.86113 0.50039 0.0
H455 H 0.11943 0.93382 0.52729 0.0
H456 H 0.2635 0.98449 0.51457 0.0
H457 H 0.27606 0.91228 0.48725 0.0
C458 C 0.32611 0.65757 0.49636 0.0
C459 C 0.37516 0.66793 0.4923 0.0
C460 C 0.28832 0.6905 0.48895 0.0
C461 C 0.29905 0.73454 0.47777 0.0
C462 C 0.3482 0.74599 0.47481 0.0
C463 C 0.38599 0.71269 0.48176 0.0
C464 C 0.25814 0.76701 0.46744 0.0
C465 C 0.25209 0.8091 0.4822 0.0
C466 C 0.22331 0.75468 0.44405 0.0
C467 C 0.22941 0.71159 0.4271 0.0
C468 C 0.27247 0.70538 0.41452 0.0
C469 C 0.27814 0.66465 0.39864 0.0
C470 C 0.24082 0.62999 0.39504 0.0
C471 C 0.1977 0.63608 0.40725 0.0
C472 C 0.19187 0.67676 0.42316 0.0
C473 C 0.10264 0.93316 0.42193 0.0
C474 C 0.05362 0.91633 0.42031 0.0
C475 C 0.14251 0.90401 0.43213 0.0
C476 C 0.13395 0.85755 0.44075 0.0
C477 C 0.08507 0.84057 0.43909 0.0
C478 C 0.04515 0.86986 0.42912 0.0
C479 C 0.17616 0.82634 0.45101 0.0
C480 C 0.18248 0.78435 0.43623 0.0
C481 C 0.21108 0.83879 0.4744 0.0
C482 C 0.20442 0.88155 0.49152 0.0
C483 C 0.1604 0.88789 0.5032 0.0
C484 C 0.15353 0.92896 0.51854 0.0
C485 C 0.19058 0.96382 0.5225 0.0
C486 C 0.2348 0.95747 0.5114 0.0
C487 C 0.24185 0.91644 0.49602 0.0
H488 H 0.18495 0.99578 0.53411 0.0
H489 H 0.24526 0.59848 0.38273 0.0
H490 H 0.923 0.01719 0.11041 0.0
H491 H 0.9196 0.0237 0.1601 0.0
H492 H 0.07801 0.04739 0.17538 0.0
H493 H 0.08196 0.03959 0.12549 0.0
H494 H 0.05195 0.98814 0.2122 0.0
H495 H 0.99363 0.13972 0.17842 0.0
H496 H 0.94239 0.19608 0.148 0.0
H497 H 0.81041 0.14045 0.17529 0.0
H498 H 0.8608 0.08327 0.20559 0.0
H499 H 0.04889 0.04595 0.35261 0.0
H500 H 0.05491 0.06265 0.30383 0.0
H501 H 0.903 0.01725 0.28065 0.0
H502 H 0.89685 -1e-05 0.32937 0.0
H503 H 0.93053 0.09461 0.24873 0.0
H504 H 0.99059 0.93862 0.27936 0.0
H505 H 0.04307 0.88433 0.3106 0.0
H506 H 0.1743 0.95167 0.28925 0.0
H507 H 0.12252 0.00697 0.25825 0.0
C508 C 0.9572 0.02389 0.12428 0.0
C509 C 0.00276 0.02815 0.11393 0.0
C510 C 0.95511 0.0279 0.15273 0.0
C511 C 0.99837 0.03709 0.17147 0.0
C512 C 0.04409 0.04061 0.16129 0.0
C513 C 0.0463 0.0361 0.13278 0.0
C514 C 0.99579 0.04165 0.20173 0.0
C515 C 0.02606 0.01213 0.22018 0.0
C516 C 0.96147 0.07241 0.21221 0.0
C517 C 0.931 0.10694 0.19413 0.0
C518 C 0.95365 0.13928 0.17779 0.0
C519 C 0.92476 0.17141 0.16059 0.0
C520 C 0.87317 0.17178 0.15967 0.0
C521 C 0.85037 0.1401 0.17601 0.0
C522 C 0.87909 0.10785 0.19323 0.0
C523 C 0.01647 0.04039 0.33717 0.0
C524 C 0.97263 0.02096 0.34475 0.0
C525 C 0.01995 0.05003 0.30935 0.0
C526 C 0.97969 0.04033 0.28863 0.0
C527 C 0.93451 0.02487 0.29636 0.0
C528 C 0.93101 0.01516 0.32422 0.0
C529 C 0.98637 0.04095 0.2589 0.0
C530 C 0.9568 0.0712 0.24063 0.0
C531 C 0.02155 0.01114 0.24856 0.0
C532 C 0.0527 0.97724 0.26672 0.0
C533 C 0.03064 0.94205 0.28147 0.0
C534 C 0.06025 0.9111 0.29913 0.0
C535 C 0.11199 0.91463 0.30197 0.0
C536 C 0.13422 0.94903 0.28707 0.0
C537 C 0.10476 0.98019 0.26945 0.0
H538 H 0.13486 0.89065 0.31566 0.0
H539 H 0.85086 0.19668 0.14633 0.0
H540 H 0.99867 0.94685 0.8953 0.0
H541 H 0.0112 0.94639 0.84655 0.0
H542 H 0.0363 0.09805 0.85012 0.0
H543 H 0.02307 0.09905 0.89885 0.0
H544 H 0.97843 0.07369 0.80292 0.0
H545 H 0.13431 0.02125 0.85118 0.0
H546 H 0.19261 0.9729 0.883 0.0
H547 H 0.14314 0.84659 0.83702 0.0
H548 H 0.08423 0.89413 0.80504 0.0
H549 H 0.0655 0.06422 0.6692 0.0
H550 H 0.06358 0.0791 0.71903 0.0
H551 H 0.02966 0.93098 0.73013 0.0
H552 H 0.03234 0.91593 0.68096 0.0
H553 H 0.10025 0.96277 0.77066 0.0
H554 H 0.93939 0.0148 0.72504 0.0
H555 H 0.88299 0.06342 0.69231 0.0
H556 H 0.94319 0.19094 0.73321 0.0
H557 H 0.00046 0.14303 0.76597 0.0
C558 C 0.00664 0.9802 0.88575 0.0
C559 C 0.01004 0.02296 0.9011 0.0
C560 C 0.01413 0.97982 0.85789 0.0
C561 C 0.02558 0.02207 0.84481 0.0
C562 C 0.02778 0.06499 0.85982 0.0
C563 C 0.02021 0.06545 0.88771 0.0
C564 C 0.03487 0.02125 0.8154 0.0
C565 C 0.00571 0.05004 0.79594 0.0
C566 C 0.0701 0.99011 0.80621 0.0
C567 C 0.10461 0.96124 0.82583 0.0
C568 C 0.13552 0.98311 0.84801 0.0
C569 C 0.16878 0.95585 0.86603 0.0
C570 C 0.17155 0.90669 0.86204 0.0
C571 C 0.14096 0.88467 0.84007 0.0
C572 C 0.1077 0.91176 0.82197 0.0
C573 C 0.05799 0.03492 0.6824 0.0
C574 C 0.04847 0.98906 0.67117 0.0
C575 C 0.0566 0.04347 0.71076 0.0
C576 C 0.046 0.00619 0.72822 0.0
C577 C 0.03777 0.96028 0.71707 0.0
C578 C 0.03892 0.95182 0.6889 0.0
C579 C 0.04297 0.0142 0.75814 0.0
C580 C 0.07343 0.98683 0.77772 0.0
C581 C 0.00899 0.04662 0.76739 0.0
C582 C 0.97462 0.07538 0.74771 0.0
C583 C 0.94091 0.05323 0.72689 0.0
C584 C 0.90873 0.08065 0.70837 0.0
C585 C 0.90963 0.13025 0.71062 0.0
C586 C 0.94262 0.15252 0.73145 0.0
C587 C 0.97493 0.12526 0.75 0.0
H588 H 0.88466 0.15142 0.69627 0.0
H589 H 0.19751 0.88563 0.87587 0.0
H590 H 0.56784 0.4765 0.61946 0.0
H591 H 0.56428 0.47415 0.66966 0.0
H592 H 0.46081 0.59101 0.66157 0.0
H593 H 0.4631 0.5928 0.61137 0.0
H594 H 0.54454 0.595 0.70925 0.0
H595 H 0.40984 0.49635 0.66517 0.0
H596 H 0.37296 0.43202 0.63413 0.0
H597 H 0.46784 0.33006 0.68083 0.0
H598 H 0.50588 0.39399 0.7119 0.0
H599 H 0.46149 0.57377 0.84177 0.0
H600 H 0.46378 0.5836 0.79182 0.0
H601 H 0.53167 0.44538 0.78865 0.0
H602 H 0.5274 0.43446 0.83789 0.0
H603 H 0.46359 0.45495 0.74576 0.0
H604 H 0.59955 0.55047 0.78946 0.0
H605 H 0.64007 0.61325 0.82042 0.0
H606 H 0.54837 0.71897 0.77501 0.0
H607 H 0.5068 0.65669 0.74398 0.0
C608 C 0.54483 0.50203 0.62845 0.0
C609 C 0.51557 0.53468 0.61153 0.0
C610 C 0.54273 0.50056 0.65705 0.0
C611 C 0.51213 0.53231 0.66916 0.0
C612 C 0.48462 0.56628 0.65253 0.0
C613 C 0.48586 0.5671 0.6239 0.0
C614 C 0.50686 0.52849 0.69895 0.0
C615 C 0.52636 0.56473 0.71729 0.0
C616 C 0.48391 0.48854 0.7093 0.0
C617 C 0.46113 0.45005 0.69064 0.0
C618 C 0.42323 0.4603 0.66864 0.0
C619 C 0.40203 0.42389 0.65108 0.0
C620 C 0.41815 0.377 0.65545 0.0
C621 C 0.45545 0.36641 0.67744 0.0
C622 C 0.47683 0.40272 0.69503 0.0
C623 C 0.47655 0.54539 0.83034 0.0
C624 C 0.49493 0.50365 0.84393 0.0
C625 C 0.47825 0.55121 0.80186 0.0
C626 C 0.49861 0.5155 0.78654 0.0
C627 C 0.51604 0.47353 0.8 0.0
C628 C 0.5141 0.46761 0.8283 0.0
C629 C 0.50179 0.5213 0.75644 0.0
C630 C 0.48176 0.4854 0.7379 0.0
C631 C 0.52477 0.56135 0.746 0.0
C632 C 0.54968 0.59886 0.76461 0.0
C633 C 0.58774 0.58706 0.78622 0.0
C634 C 0.61095 0.62256 0.80376 0.0
C635 C 0.5967 0.67005 0.79974 0.0
C636 C 0.5593 0.68216 0.77813 0.0
C637 C 0.53592 0.64678 0.76055 0.0
H638 H 0.61473 0.69749 0.81333 0.0
H639 H 0.40164 0.34885 0.64186 0.0
H640 H 0.52263 0.61061 0.39636 0.0
H641 H 0.52773 0.60981 0.3465 0.0
H642 H 0.46648 0.46782 0.33992 0.0
H643 H 0.46181 0.46798 0.38969 0.0
H644 H 0.54776 0.47371 0.31507 0.0
H645 H 0.39799 0.56432 0.31534 0.0
H646 H 0.34709 0.63004 0.32967 0.0
H647 H 0.44192 0.7317 0.2974 0.0
H648 H 0.49388 0.66657 0.28326 0.0
H649 H 0.48294 0.43796 0.17281 0.0
H650 H 0.47763 0.45391 0.22153 0.0
H651 H 0.55204 0.5885 0.21619 0.0
H652 H 0.55637 0.57331 0.16665 0.0
H653 H 0.47076 0.59276 0.24716 0.0
H654 H 0.61785 0.5003 0.24468 0.0
H655 H 0.6669 0.43348 0.23001 0.0
H656 H 0.57508 0.33424 0.26649 0.0
H657 H 0.52498 0.40045 0.28103 0.0
C658 C 0.50981 0.57935 0.38428 0.0
C659 C 0.49195 0.53928 0.39711 0.0
C660 C 0.51263 0.57903 0.35574 0.0
C661 C 0.49735 0.53881 0.33946 0.0
C662 C 0.47863 0.49919 0.3521 0.0
C663 C 0.47585 0.49942 0.38058 0.0
C664 C 0.50276 0.53688 0.30948 0.0
C665 C 0.53049 0.49951 0.30021 0.0
C666 C 0.48156 0.5714 0.29022 0.0
C667 C 0.45016 0.61059 0.29853 0.0
C668 C 0.40824 0.6007 0.31151 0.0
C669 C 0.37915 0.63784 0.31956 0.0
C670 C 0.39135 0.68502 0.31452 0.0
C671 C 0.43257 0.69514 0.30134 0.0
C672 C 0.46184 0.65813 0.29329 0.0
C673 C 0.49736 0.47147 0.18171 0.0
C674 C 0.51981 0.50455 0.16572 0.0
C675 C 0.49469 0.48029 0.2097 0.0
C676 C 0.51487 0.52214 0.22253 0.0
C677 C 0.53633 0.55593 0.20663 0.0
C678 C 0.53908 0.54706 0.17844 0.0
C679 C 0.51483 0.52905 0.25282 0.0
C680 C 0.48834 0.5673 0.26213 0.0
C681 C 0.53702 0.49526 0.27221 0.0
C682 C 0.56745 0.45535 0.26378 0.0
C683 C 0.60791 0.46421 0.24942 0.0
C684 C 0.63593 0.42645 0.24114 0.0
C685 C 0.62406 0.37964 0.24727 0.0
C686 C 0.58422 0.37052 0.26175 0.0
C687 C 0.55603 0.40816 0.27004 0.0
H688 H 0.6458 0.35045 0.24084 0.0
H689 H 0.36878 0.71372 0.32078 0.0
loop_
_geom_bond_atom_site_label_1
_geom_bond_atom_site_label_2
_geom_bond_distance
_geom_bond_site_symmetry_2
_ccdc_geom_bond_type
O0 Zn1 1.953 1_565 S
O0 C16 1.225 1_565 S
Zn1 O0 1.953 1_545 S
Zn1 O2 1.949 . S
Zn1 O8 1.919 1_545 S
Zn1 O13 1.924 . S
O2 Zn1 1.949 . S
O2 Zn3 1.923 1_444 S
O2 Zn4 1.950 1_455 S
O2 Zn5 1.945 1_554 S
Zn3 O2 1.923 1_666 S
Zn3 O6 1.933 . S
Zn3 O9 1.941 1_655 S
Zn3 O10 1.965 . S
Zn4 O2 1.950 1_655 S
Zn4 O11 1.938 1_545 S
Zn4 O12 1.906 . S
Zn4 O22 1.953 . S
Zn5 O2 1.945 1_556 S
Zn5 O7 1.932 . S
Zn5 O14 1.977 1_455 S
Zn5 O15 1.922 . S
O6 Zn3 1.933 . S
O6 C17 1.226 1_665 S
O7 Zn5 1.932 . S
O7 C17 1.307 . S
O8 Zn1 1.919 1_565 S
O8 C19 1.253 . S
O9 Zn3 1.941 1_455 S
O9 C19 1.283 1_556 S
O10 Zn3 1.965 . S
O10 C18 1.303 1_556 S
O11 Zn4 1.938 1_565 S
O11 C18 1.247 . S
O12 Zn4 1.906 . S
O12 C20 1.304 1_554 S
O13 Zn1 1.924 . S
O13 C21 1.311 . S
O14 Zn5 1.977 1_655 S
O14 C20 1.272 . S
O15 Zn5 1.922 . S
O15 C21 1.199 1_556 S
C16 O0 1.225 1_545 S
C16 O22 1.298 1_455 S
C17 O6 1.226 1_445 S
C17 O7 1.307 . S
C18 O10 1.303 1_554 S
C18 O11 1.247 . S
C19 O8 1.253 . S
C19 O9 1.283 1_554 S
C20 O12 1.304 1_556 S
C20 O14 1.272 . S
C21 O13 1.311 . S
C21 O15 1.199 1_554 S
O22 Zn4 1.953 . S
O22 C16 1.298 1_655 S
O23 Zn24 1.953 . S
O23 C39 1.225 . S
Zn24 O23 1.953 . S
Zn24 O25 1.949 . S
Zn24 O31 1.919 . S
Zn24 O36 1.924 . S
O25 Zn24 1.949 . S
O25 Zn26 1.923 . S
O25 Zn27 1.950 . S
O25 Zn28 1.945 . S
Zn26 O25 1.923 . S
Zn26 O29 1.933 . S
Zn26 O32 1.941 . S
Zn26 O33 1.965 . S
Zn27 O25 1.950 . S
Zn27 O34 1.938 . S
Zn27 O35 1.906 . S
Zn27 O45 1.953 . S
Zn28 O25 1.945 . S
Zn28 O30 1.932 . S
Zn28 O37 1.977 . S
Zn28 O38 1.910 . S
O29 Zn26 1.933 . S
O29 C40 1.226 . S
O30 Zn28 1.932 . S
O30 C40 1.307 . S
O31 Zn24 1.919 . S
O31 C42 1.253 . S
O32 Zn26 1.941 . S
O32 C42 1.283 . S
O33 Zn26 1.965 . S
O33 C41 1.303 . S
O34 Zn27 1.938 . S
O34 C41 1.247 . S
O35 Zn27 1.906 . S
O35 C43 1.304 . S
O36 Zn24 1.924 . S
O36 C44 1.311 . S
O37 Zn28 1.977 . S
O37 C43 1.272 . S
O38 Zn28 1.910 . S
O38 C44 1.231 . S
C39 O23 1.225 . S
C39 O45 1.298 . S
C40 O29 1.226 . S
C40 O30 1.307 . S
C41 O33 1.303 . S
C41 O34 1.247 . S
C42 O31 1.253 . S
C42 O32 1.283 . S
C43 O35 1.304 . S
C43 O37 1.272 . S
C44 O36 1.311 . S
C44 O38 1.231 . S
O45 Zn27 1.953 . S
O45 C39 1.298 . S
H46 C49 0.929 . S
H47 C52 0.929 . S
H48 C54 0.930 . S
C49 H46 0.929 . S
C49 C50 1.398 . S
C49 C51 1.396 1_565 S
C50 C49 1.398 . S
C50 C54 1.407 . S
C51 C49 1.396 1_545 S
C51 C52 1.394 1_455 S
C52 H47 0.929 . S
C52 C51 1.394 1_655 S
C52 C53 1.382 . S
C53 C52 1.382 . S
C53 C54 1.392 1_645 S
C53 N55 1.420 . S
C54 H48 0.930 . S
C54 C50 1.407 . S
C54 C53 1.392 1_465 S
N55 C53 1.420 . S
N55 C56 1.244 . S
C56 N55 1.244 . S
H57 C60 0.929 . S
H58 C63 0.929 . S
H59 C65 0.930 . S
C60 H57 0.929 . S
C60 C61 1.398 . S
C60 C62 1.396 1_665 S
C61 C60 1.398 . S
C61 C65 1.408 1_655 S
C62 C60 1.396 1_445 S
C62 C63 1.394 . S
C63 H58 0.929 . S
C63 C62 1.394 . S
C63 C64 1.382 . S
C64 C63 1.382 . S
C64 C65 1.391 1_545 S
C64 N66 1.420 . S
C65 H59 0.930 . S
C65 C61 1.408 1_455 S
C65 C64 1.391 1_565 S
N66 C64 1.420 . S
N66 C67 1.244 . S
C67 N66 1.244 . S
H68 C71 0.929 . S
H69 C74 0.929 . S
H70 C76 0.930 . S
C71 H68 0.929 . S
C71 C72 1.398 . S
C71 C73 1.396 . S
C72 C71 1.398 . S
C72 C76 1.407 . S
C73 C71 1.396 . S
C73 C74 1.394 . S
C74 H69 0.929 . S
C74 C73 1.394 . S
C74 C75 1.382 . S
C75 C74 1.382 . S
C75 C76 1.392 . S
C75 N77 1.420 . S
C76 H70 0.930 . S
C76 C72 1.407 . S
C76 C75 1.392 . S
N77 C75 1.420 . S
N77 C78 1.244 . S
C78 N77 1.244 . S
H79 C82 0.929 . S
H80 C85 0.929 . S
H81 C87 0.930 . S
C82 H79 0.929 . S
C82 C83 1.398 . S
C82 C84 1.396 . S
C83 C82 1.398 . S
C83 C87 1.407 . S
C84 C82 1.396 . S
C84 C85 1.394 . S
C85 H80 0.929 . S
C85 C84 1.394 . S
C85 C86 1.382 . S
C86 C85 1.382 . S
C86 C87 1.392 . S
C86 N88 1.420 . S
C87 H81 0.930 . S
C87 C83 1.407 . S
C87 C86 1.392 . S
N88 C86 1.420 . S
N88 C89 1.244 . S
C89 N88 1.244 . S
H90 C108 0.951 . S
H91 C110 0.951 . S
H92 C112 0.950 . S
H93 C113 0.950 . S
H94 C115 0.950 . S
H95 C118 0.950 . S
H96 C119 0.950 . S
H97 C121 0.950 . S
H98 C122 0.950 . S
H99 C123 0.951 . S
H100 C125 0.951 . S
H101 C127 0.950 . S
H102 C128 0.950 . S
H103 C130 0.950 . S
H104 C133 0.950 . S
H105 C134 0.950 . S
H106 C136 0.950 . S
H107 C137 0.950 . S
C108 H90 0.951 . S
C108 C109 1.366 . S
C108 C110 1.388 . S
C109 C108 1.366 . S
C109 C113 1.385 . S
C110 H91 0.951 . S
C110 C108 1.388 . S
C110 C111 1.366 . S
C111 C110 1.366 . S
C111 C112 1.414 . S
C111 C114 1.499 . S
C112 H92 0.950 . S
C112 C111 1.414 . S
C112 C113 1.374 . S
C113 H93 0.950 . S
C113 C109 1.385 . S
C113 C112 1.374 . S
C114 C111 1.499 . S
C114 C115 1.373 . S
C114 C116 1.389 . S
C115 H94 0.950 . S
C115 C114 1.373 . S
C115 C131 1.377 . S
C116 C114 1.389 . S
C116 C117 1.524 . S
C116 C130 1.377 . S
C117 C116 1.524 . S
C117 C118 1.397 1_554 S
C117 C122 1.363 . S
C118 H95 0.950 . S
C118 C117 1.397 1_556 S
C118 C119 1.334 . S
C119 H96 0.950 . S
C119 C118 1.334 . S
C119 C120 1.287 . S
C120 C119 1.287 . S
C120 C121 1.524 . S
C120 H139 0.913 . S
C121 H97 0.950 . S
C121 C120 1.524 . S
C121 C122 1.415 1_556 S
C122 H98 0.950 . S
C122 C117 1.363 . S
C122 C121 1.415 1_554 S
C123 H99 0.951 . S
C123 C124 1.366 . S
C123 C125 1.388 . S
C124 C123 1.366 . S
C124 C128 1.385 . S
C125 H100 0.951 . S
C125 C123 1.388 . S
C125 C126 1.366 . S
C126 C125 1.366 . S
C126 C127 1.414 . S
C126 C129 1.499 . S
C127 H101 0.950 . S
C127 C126 1.414 . S
C127 C128 1.374 . S
C128 H102 0.950 . S
C128 C124 1.385 . S
C128 C127 1.374 . S
C129 C126 1.499 . S
C129 C130 1.373 . S
C129 C131 1.389 . S
C130 H103 0.950 . S
C130 C116 1.377 . S
C130 C129 1.373 . S
C131 C115 1.377 . S
C131 C129 1.389 . S
C131 C132 1.524 . S
C132 C131 1.524 . S
C132 C133 1.397 . S
C132 C137 1.363 . S
C133 H104 0.950 . S
C133 C132 1.397 . S
C133 C134 1.334 . S
C134 H105 0.950 . S
C134 C133 1.334 . S
C134 C135 1.287 . S
C135 C134 1.287 . S
C135 C136 1.524 . S
C135 H138 0.999 . S
C136 H106 0.950 . S
C136 C135 1.524 . S
C136 C137 1.415 . S
C137 H107 0.950 . S
C137 C132 1.363 . S
C137 C136 1.415 . S
H138 C135 0.999 . S
H139 C120 0.913 . S
H140 C158 0.951 . S
H141 C160 0.951 . S
H142 C162 0.950 . S
H143 C163 0.950 . S
H144 C165 0.950 1_554 S
H145 C168 0.950 . S
H146 C169 0.950 . S
H147 C171 0.950 . S
H148 C172 0.950 . S
H149 C173 0.951 . S
H150 C175 0.951 . S
H151 C177 0.950 . S
H152 C178 0.950 . S
H153 C180 0.950 . S
H154 C183 0.950 . S
H155 C184 0.950 . S
H156 C186 0.950 . S
H157 C187 0.950 . S
C158 H140 0.951 . S
C158 C159 1.366 . S
C158 C160 1.388 . S
C159 C158 1.366 . S
C159 C163 1.385 . S
C160 H141 0.951 . S
C160 C158 1.388 . S
C160 C161 1.366 . S
C161 C160 1.366 . S
C161 C162 1.414 . S
C161 C164 1.499 . S
C162 H142 0.950 . S
C162 C161 1.414 . S
C162 C163 1.374 . S
C163 H143 0.950 . S
C163 C159 1.385 . S
C163 C162 1.374 . S
C164 C161 1.499 . S
C164 C165 1.373 . S
C164 C166 1.389 . S
C165 H144 0.950 1_556 S
C165 C164 1.373 . S
C165 C181 1.377 . S
C166 C164 1.389 . S
C166 C167 1.524 . S
C166 C180 1.377 . S
C167 C166 1.524 . S
C167 C168 1.397 . S
C167 C172 1.363 . S
C168 H145 0.950 . S
C168 C167 1.397 . S
C168 C169 1.334 . S
C169 H146 0.950 . S
C169 C168 1.334 . S
C169 C170 1.287 . S
C170 C169 1.287 . S
C170 C171 1.524 . S
C170 H189 0.913 . S
C171 H147 0.950 . S
C171 C170 1.524 . S
C171 C172 1.415 . S
C172 H148 0.950 . S
C172 C167 1.363 . S
C172 C171 1.415 . S
C173 H149 0.951 . S
C173 C174 1.366 . S
C173 C175 1.388 . S
C174 C173 1.366 . S
C174 C178 1.385 . S
C175 H150 0.951 . S
C175 C173 1.388 . S
C175 C176 1.366 . S
C176 C175 1.366 . S
C176 C177 1.414 . S
C176 C179 1.499 . S
C177 H151 0.950 . S
C177 C176 1.414 . S
C177 C178 1.374 . S
C178 H152 0.950 . S
C178 C174 1.385 . S
C178 C177 1.374 . S
C179 C176 1.499 . S
C179 C180 1.373 . S
C179 C181 1.389 . S
C180 H153 0.950 . S
C180 C166 1.377 . S
C180 C179 1.373 . S
C181 C165 1.377 . S
C181 C179 1.389 . S
C181 C182 1.524 1_556 S
C182 C181 1.524 1_554 S
C182 C183 1.397 . S
C182 C187 1.363 . S
C183 H154 0.950 . S
C183 C182 1.397 . S
C183 C184 1.334 . S
C184 H155 0.950 . S
C184 C183 1.334 . S
C184 C185 1.287 . S
C185 C184 1.287 . S
C185 C186 1.524 . S
C185 H188 0.999 . S
C186 H156 0.950 . S
C186 C185 1.524 . S
C186 C187 1.415 . S
C187 H157 0.950 . S
C187 C182 1.363 . S
C187 C186 1.415 . S
H188 C185 0.999 . S
H189 C170 0.913 . S
H190 C208 0.951 . S
H191 C210 0.951 . S
H192 C212 0.950 . S
H193 C213 0.950 . S
H194 C215 0.950 . S
H195 C218 0.950 . S
H196 C219 0.950 . S
H197 C221 0.950 . S
H198 C222 0.950 . S
H199 C223 0.951 . S
H200 C225 0.951 . S
H201 C227 0.950 . S
H202 C228 0.950 . S
H203 C230 0.950 . S
H204 C233 0.950 . S
H205 C234 0.950 . S
H206 C236 0.950 . S
H207 C237 0.950 . S
C208 H190 0.951 . S
C208 C209 1.366 . S
C208 C210 1.388 . S
C209 C208 1.366 . S
C209 C213 1.385 . S
C210 H191 0.951 . S
C210 C208 1.388 . S
C210 C211 1.366 . S
C211 C210 1.366 . S
C211 C212 1.414 . S
C211 C214 1.499 . S
C212 H192 0.950 . S
C212 C211 1.414 . S
C212 C213 1.374 . S
C213 H193 0.950 . S
C213 C209 1.385 . S
C213 C212 1.374 . S
C214 C211 1.499 . S
C214 C215 1.373 . S
C214 C216 1.389 . S
C215 H194 0.950 . S
C215 C214 1.373 . S
C215 C231 1.377 . S
C216 C214 1.389 . S
C216 C217 1.524 . S
C216 C230 1.377 . S
C217 C216 1.524 . S
C217 C218 1.397 . S
C217 C222 1.363 . S
C218 H195 0.950 . S
C218 C217 1.397 . S
C218 C219 1.334 . S
C219 H196 0.950 . S
C219 C218 1.334 . S
C219 C220 1.287 . S
C220 C219 1.287 . S
C220 C221 1.524 . S
C220 H239 0.913 . S
C221 H197 0.950 . S
C221 C220 1.524 . S
C221 C222 1.415 . S
C222 H198 0.950 . S
C222 C217 1.363 . S
C222 C221 1.415 . S
C223 H199 0.951 . S
C223 C224 1.366 . S
C223 C225 1.388 . S
C224 C223 1.366 . S
C224 C228 1.385 . S
C225 H200 0.951 . S
C225 C223 1.388 . S
C225 C226 1.366 . S
C226 C225 1.366 . S
C226 C227 1.414 . S
C226 C229 1.499 . S
C227 H201 0.950 . S
C227 C226 1.414 . S
C227 C228 1.374 . S
C228 H202 0.950 . S
C228 C224 1.385 . S
C228 C227 1.374 . S
C229 C226 1.499 . S
C229 C230 1.373 . S
C229 C231 1.389 . S
C230 H203 0.950 . S
C230 C216 1.377 . S
C230 C229 1.373 . S
C231 C215 1.377 . S
C231 C229 1.389 . S
C231 C232 1.524 . S
C232 C231 1.524 . S
C232 C233 1.397 . S
C232 C237 1.363 . S
C233 H204 0.950 . S
C233 C232 1.397 . S
C233 C234 1.334 1_554 S
C234 H205 0.950 . S
C234 C233 1.334 1_556 S
C234 C235 1.287 . S
C235 C234 1.287 . S
C235 C236 1.524 1_556 S
C235 H238 0.999 . S
C236 H206 0.950 . S
C236 C235 1.524 1_554 S
C236 C237 1.415 . S
C237 H207 0.950 . S
C237 C232 1.363 . S
C237 C236 1.415 . S
H238 C235 0.999 . S
H239 C220 0.913 . S
H240 C258 0.951 . S
H241 C260 0.951 . S
H242 C262 0.950 . S
H243 C263 0.950 . S
H244 C265 0.950 . S
H245 C268 0.950 . S
H246 C269 0.950 . S
H247 C271 0.950 . S
H248 C272 0.950 . S
H249 C273 0.951 . S
H250 C275 0.951 . S
H251 C277 0.950 . S
H252 C278 0.950 . S
H253 C280 0.950 . S
H254 C283 0.954 . S
H255 C284 0.950 . S
H256 C286 0.950 . S
H257 C287 0.950 . S
C258 H240 0.951 . S
C258 C259 1.366 . S
C258 C260 1.388 . S
C259 C258 1.366 . S
C259 C263 1.385 . S
C260 H241 0.951 . S
C260 C258 1.388 . S
C260 C261 1.366 . S
C261 C260 1.366 . S
C261 C262 1.414 . S
C261 C264 1.499 . S
C262 H242 0.950 . S
C262 C261 1.414 . S
C262 C263 1.374 . S
C263 H243 0.950 . S
C263 C259 1.385 . S
C263 C262 1.374 . S
C264 C261 1.499 . S
C264 C265 1.373 . S
C264 C266 1.389 . S
C265 H244 0.950 . S
C265 C264 1.373 . S
C265 C281 1.377 . S
C266 C264 1.389 . S
C266 C267 1.524 . S
C266 C280 1.377 . S
C267 C266 1.524 . S
C267 C268 1.397 . S
C267 C272 1.363 . S
C268 H245 0.950 . S
C268 C267 1.397 . S
C268 C269 1.334 . S
C269 H246 0.950 . S
C269 C268 1.334 . S
C269 C270 1.287 . S
C270 C269 1.287 . S
C270 C271 1.524 . S
C270 H289 0.913 . S
C271 H247 0.950 . S
C271 C270 1.524 . S
C271 C272 1.415 . S
C272 H248 0.950 . S
C272 C267 1.363 . S
C272 C271 1.415 . S
C273 H249 0.951 . S
C273 C274 1.366 . S
C273 C275 1.388 . S
C274 C273 1.366 . S
C274 C278 1.385 . S
C275 H250 0.951 . S
C275 C273 1.388 . S
C275 C276 1.366 . S
C276 C275 1.366 . S
C276 C277 1.414 . S
C276 C279 1.499 . S
C277 H251 0.950 . S
C277 C276 1.414 . S
C277 C278 1.374 . S
C278 H252 0.950 . S
C278 C274 1.385 . S
C278 C277 1.374 . S
C279 C276 1.499 . S
C279 C280 1.373 . S
C279 C281 1.389 . S
C280 H253 0.950 . S
C280 C266 1.377 . S
C280 C279 1.373 . S
C281 C265 1.377 . S
C281 C279 1.389 . S
C281 C282 1.524 . S
C282 C281 1.524 . S
C282 C283 1.397 1_556 S
C282 C287 1.363 1_556 S
C283 H254 0.954 . S
C283 C282 1.397 1_554 S
C283 C284 1.334 . S
C284 H255 0.950 . S
C284 C283 1.334 . S
C284 C285 1.287 . S
C285 C284 1.287 . S
C285 C286 1.524 . S
C285 H288 0.999 . S
C286 H256 0.950 . S
C286 C285 1.524 . S
C286 C287 1.415 . S
C287 H257 0.950 . S
C287 C282 1.363 1_554 S
C287 C286 1.415 . S
H288 C285 0.999 . S
H289 C270 0.913 . S
H290 C308 0.951 . S
H291 C310 0.951 . S
H292 C312 0.950 . S
H293 C313 0.950 . S
H294 C315 0.950 . S
H295 C318 0.950 . S
H296 C319 0.950 . S
H297 C321 0.950 . S
H298 C322 0.950 . S
H299 C323 0.951 . S
H300 C325 0.951 . S
H301 C327 0.950 . S
H302 C328 0.950 . S
H303 C330 0.950 . S
H304 C333 0.950 . S
H305 C334 0.950 . S
H306 C336 0.950 . S
H307 C337 0.950 . S
C308 H290 0.951 . S
C308 C309 1.366 . S
C308 C310 1.388 . S
C309 C308 1.366 . S
C309 C313 1.385 . S
C310 H291 0.951 . S
C310 C308 1.388 . S
C310 C311 1.366 . S
C311 C310 1.366 . S
C311 C312 1.414 . S
C311 C314 1.499 . S
C312 H292 0.950 . S
C312 C311 1.414 . S
C312 C313 1.374 . S
C313 H293 0.950 . S
C313 C309 1.385 . S
C313 C312 1.374 . S
C314 C311 1.499 . S
C314 C315 1.373 . S
C314 C316 1.389 . S
C315 H294 0.950 . S
C315 C314 1.373 . S
C315 C331 1.377 . S
C316 C314 1.389 . S
C316 C317 1.524 . S
C316 C330 1.377 . S
C317 C316 1.524 . S
C317 C318 1.397 . S
C317 C322 1.363 . S
C318 H295 0.950 . S
C318 C317 1.397 . S
C318 C319 1.334 . S
C319 H296 0.950 . S
C319 C318 1.334 . S
C319 C320 1.287 . S
C320 C319 1.287 . S
C320 C321 1.524 . S
C320 H339 0.913 . S
C321 H297 0.950 . S
C321 C320 1.524 . S
C321 C322 1.415 . S
C322 H298 0.950 . S
C322 C317 1.363 . S
C322 C321 1.415 . S
C323 H299 0.951 . S
C323 C324 1.366 . S
C323 C325 1.388 . S
C324 C323 1.366 . S
C324 C328 1.385 . S
C325 H300 0.951 . S
C325 C323 1.388 . S
C325 C326 1.366 . S
C326 C325 1.366 . S
C326 C327 1.414 . S
C326 C329 1.499 . S
C327 H301 0.950 . S
C327 C326 1.414 . S
C327 C328 1.374 . S
C328 H302 0.950 . S
C328 C324 1.385 . S
C328 C327 1.374 . S
C329 C326 1.499 . S
C329 C330 1.373 . S
C329 C331 1.389 . S
C330 H303 0.950 . S
C330 C316 1.377 . S
C330 C329 1.373 . S
C331 C315 1.377 . S
C331 C329 1.389 . S
C331 C332 1.524 . S
C332 C331 1.524 . S
C332 C333 1.397 . S
C332 C337 1.363 . S
C333 H304 0.950 . S
C333 C332 1.397 . S
C333 C334 1.334 . S
C334 H305 0.950 . S
C334 C333 1.334 . S
C334 C335 1.287 . S
C335 C334 1.287 . S
C335 C336 1.524 . S
C335 H338 0.999 . S
C336 H306 0.950 . S
C336 C335 1.524 . S
C336 C337 1.415 . S
C337 H307 0.950 . S
C337 C332 1.363 . S
C337 C336 1.415 . S
H338 C335 0.999 . S
H339 C320 0.913 . S
H340 C358 0.951 . S
H341 C360 0.951 . S
H342 C362 0.950 . S
H343 C363 0.950 . S
H344 C365 0.950 . S
H345 C368 0.950 . S
H346 C369 0.950 . S
H347 C371 0.950 . S
H348 C372 0.950 . S
H349 C373 0.951 . S
H350 C375 0.951 . S
H351 C377 0.950 . S
H352 C378 0.950 . S
H353 C380 0.950 . S
H354 C383 0.950 . S
H355 C384 0.950 . S
H356 C386 0.950 . S
H357 C387 0.950 . S
C358 H340 0.951 . S
C358 C359 1.366 . S
C358 C360 1.388 . S
C359 C358 1.366 . S
C359 C363 1.385 . S
C360 H341 0.951 . S
C360 C358 1.388 . S
C360 C361 1.366 . S
C361 C360 1.366 . S
C361 C362 1.414 . S
C361 C364 1.499 . S
C362 H342 0.950 . S
C362 C361 1.414 . S
C362 C363 1.374 . S
C363 H343 0.950 . S
C363 C359 1.385 . S
C363 C362 1.374 . S
C364 C361 1.499 . S
C364 C365 1.373 . S
C364 C366 1.389 . S
C365 H344 0.950 . S
C365 C364 1.373 . S
C365 C381 1.377 . S
C366 C364 1.389 . S
C366 C367 1.524 . S
C366 C380 1.377 . S
C367 C366 1.524 . S
C367 C368 1.397 . S
C367 C372 1.363 . S
C368 H345 0.950 . S
C368 C367 1.397 . S
C368 C369 1.334 . S
C369 H346 0.950 . S
C369 C368 1.334 . S
C369 C370 1.287 . S
C370 C369 1.287 . S
C370 C371 1.524 . S
C370 H389 0.913 . S
C371 H347 0.950 . S
C371 C370 1.524 . S
C371 C372 1.415 . S
C372 H348 0.950 . S
C372 C367 1.363 . S
C372 C371 1.415 . S
C373 H349 0.951 . S
C373 C374 1.366 . S
C373 C375 1.388 . S
C374 C373 1.366 . S
C374 C378 1.385 . S
C375 H350 0.951 . S
C375 C373 1.388 . S
C375 C376 1.366 . S
C376 C375 1.366 . S
C376 C377 1.414 . S
C376 C379 1.499 . S
C377 H351 0.950 . S
C377 C376 1.414 . S
C377 C378 1.374 . S
C378 H352 0.950 . S
C378 C374 1.385 . S
C378 C377 1.374 . S
C379 C376 1.499 . S
C379 C380 1.373 . S
C379 C381 1.389 . S
C380 H353 0.950 . S
C380 C366 1.377 . S
C380 C379 1.373 . S
C381 C365 1.377 . S
C381 C379 1.389 . S
C381 C382 1.524 . S
C382 C381 1.524 . S
C382 C383 1.397 . S
C382 C387 1.363 . S
C383 H354 0.950 . S
C383 C382 1.397 . S
C383 C384 1.334 . S
C384 H355 0.950 . S
C384 C383 1.334 . S
C384 C385 1.287 . S
C385 C384 1.287 . S
C385 C386 1.524 . S
C385 H388 0.999 . S
C386 H356 0.950 . S
C386 C385 1.524 . S
C386 C387 1.415 . S
C387 H357 0.950 . S
C387 C382 1.363 . S
C387 C386 1.415 . S
H388 C385 0.999 . S
H389 C370 0.913 . S
H390 C408 0.951 . S
H391 C410 0.951 . S
H392 C412 0.950 . S
H393 C413 0.950 . S
H394 C415 0.950 . S
H395 C418 0.950 . S
H396 C419 0.950 . S
H397 C421 0.950 . S
H398 C422 0.950 . S
H399 C423 0.951 . S
H400 C425 0.951 . S
H401 C427 0.950 . S
H402 C428 0.950 . S
H403 C430 0.950 . S
H404 C433 0.950 . S
H405 C434 0.950 . S
H406 C436 0.950 . S
H407 C437 0.950 . S
C408 H390 0.951 . S
C408 C409 1.366 . S
C408 C410 1.388 . S
C409 C408 1.366 . S
C409 C413 1.385 . S
C410 H391 0.951 . S
C410 C408 1.388 . S
C410 C411 1.366 . S
C411 C410 1.366 . S
C411 C412 1.414 . S
C411 C414 1.499 . S
C412 H392 0.950 . S
C412 C411 1.414 . S
C412 C413 1.374 . S
C413 H393 0.950 . S
C413 C409 1.385 . S
C413 C412 1.374 . S
C414 C411 1.499 . S
C414 C415 1.373 . S
C414 C416 1.389 . S
C415 H394 0.950 . S
C415 C414 1.373 . S
C415 C431 1.377 . S
C416 C414 1.389 . S
C416 C417 1.524 . S
C416 C430 1.377 . S
C417 C416 1.524 . S
C417 C418 1.397 . S
C417 C422 1.363 . S
C418 H395 0.950 . S
C418 C417 1.397 . S
C418 C419 1.334 . S
C419 H396 0.950 . S
C419 C418 1.334 . S
C419 C420 1.287 . S
C420 C419 1.287 . S
C420 C421 1.524 . S
C420 H439 0.913 . S
C421 H397 0.950 . S
C421 C420 1.524 . S
C421 C422 1.415 . S
C422 H398 0.950 . S
C422 C417 1.363 . S
C422 C421 1.415 . S
C423 H399 0.951 . S
C423 C424 1.366 . S
C423 C425 1.388 . S
C424 C423 1.366 . S
C424 C428 1.385 . S
C425 H400 0.951 . S
C425 C423 1.388 . S
C425 C426 1.366 . S
C426 C425 1.366 . S
C426 C427 1.414 . S
C426 C429 1.499 . S
C427 H401 0.950 . S
C427 C426 1.414 . S
C427 C428 1.374 . S
C428 H402 0.950 . S
C428 C424 1.385 . S
C428 C427 1.374 . S
C429 C426 1.499 . S
C429 C430 1.373 . S
C429 C431 1.389 . S
C430 H403 0.950 . S
C430 C416 1.377 . S
C430 C429 1.373 . S
C431 C415 1.377 . S
C431 C429 1.389 . S
C431 C432 1.524 . S
C432 C431 1.524 . S
C432 C433 1.397 . S
C432 C437 1.363 . S
C433 H404 0.950 . S
C433 C432 1.397 . S
C433 C434 1.334 . S
C434 H405 0.950 . S
C434 C433 1.334 . S
C434 C435 1.287 . S
C435 C434 1.287 . S
C435 C436 1.524 . S
C435 H438 0.999 . S
C436 H406 0.950 . S
C436 C435 1.524 . S
C436 C437 1.415 . S
C437 H407 0.950 . S
C437 C432 1.363 . S
C437 C436 1.415 . S
H438 C435 0.999 . S
H439 C420 0.913 . S
H440 C458 0.951 . S
H441 C460 0.951 . S
H442 C462 0.950 . S
H443 C463 0.950 . S
H444 C465 0.950 . S
H445 C468 0.950 . S
H446 C469 0.950 . S
H447 C471 0.950 . S
H448 C472 0.950 . S
H449 C473 0.951 . S
H450 C475 0.951 . S
H451 C477 0.950 . S
H452 C478 0.950 . S
H453 C480 0.950 . S
H454 C483 0.950 . S
H455 C484 0.950 . S
H456 C486 0.950 . S
H457 C487 0.950 . S
C458 H440 0.951 . S
C458 C459 1.366 . S
C458 C460 1.388 . S
C459 C458 1.366 . S
C459 C463 1.385 . S
C460 H441 0.951 . S
C460 C458 1.388 . S
C460 C461 1.366 . S
C461 C460 1.366 . S
C461 C462 1.414 . S
C461 C464 1.499 . S
C462 H442 0.950 . S
C462 C461 1.414 . S
C462 C463 1.374 . S
C463 H443 0.950 . S
C463 C459 1.385 . S
C463 C462 1.374 . S
C464 C461 1.499 . S
C464 C465 1.373 . S
C464 C466 1.389 . S
C465 H444 0.950 . S
C465 C464 1.373 . S
C465 C481 1.377 . S
C466 C464 1.389 . S
C466 C467 1.524 . S
C466 C480 1.377 . S
C467 C466 1.524 . S
C467 C468 1.397 . S
C467 C472 1.363 . S
C468 H445 0.950 . S
C468 C467 1.397 . S
C468 C469 1.334 . S
C469 H446 0.950 . S
C469 C468 1.334 . S
C469 C470 1.287 . S
C470 C469 1.287 . S
C470 C471 1.524 . S
C470 H489 0.913 . S
C471 H447 0.950 . S
C471 C470 1.524 . S
C471 C472 1.415 . S
C472 H448 0.950 . S
C472 C467 1.363 . S
C472 C471 1.415 . S
C473 H449 0.951 . S
C473 C474 1.366 . S
C473 C475 1.388 . S
C474 C473 1.366 . S
C474 C478 1.385 . S
C475 H450 0.951 . S
C475 C473 1.388 . S
C475 C476 1.366 . S
C476 C475 1.366 . S
C476 C477 1.414 . S
C476 C479 1.499 . S
C477 H451 0.950 . S
C477 C476 1.414 . S
C477 C478 1.374 . S
C478 H452 0.950 . S
C478 C474 1.385 . S
C478 C477 1.374 . S
C479 C476 1.499 . S
C479 C480 1.373 . S
C479 C481 1.389 . S
C480 H453 0.950 . S
C480 C466 1.377 . S
C480 C479 1.373 . S
C481 C465 1.377 . S
C481 C479 1.389 . S
C481 C482 1.524 . S
C482 C481 1.524 . S
C482 C483 1.397 . S
C482 C487 1.363 . S
C483 H454 0.950 . S
C483 C482 1.397 . S
C483 C484 1.334 . S
C484 H455 0.950 . S
C484 C483 1.334 . S
C484 C485 1.287 . S
C485 C484 1.287 . S
C485 C486 1.524 . S
C485 H488 0.999 . S
C486 H456 0.950 . S
C486 C485 1.524 . S
C486 C487 1.415 . S
C487 H457 0.950 . S
C487 C482 1.363 . S
C487 C486 1.415 . S
H488 C485 0.999 . S
H489 C470 0.913 . S
H490 C508 0.951 . S
H491 C510 0.951 . S
H492 C512 0.950 . S
H493 C513 0.950 . S
H494 C515 0.950 . S
H495 C518 0.950 1_455 S
H496 C519 0.950 . S
H497 C521 0.950 . S
H498 C522 0.950 . S
H499 C523 0.951 . S
H500 C525 0.951 . S
H501 C527 0.953 . S
H502 C528 0.950 . S
H503 C530 0.950 . S
H504 C533 0.950 . S
H505 C534 0.950 . S
H506 C536 0.950 . S
H507 C537 0.950 . S
C508 H490 0.951 . S
C508 C509 1.366 1_655 S
C508 C510 1.388 . S
C509 C508 1.366 1_455 S
C509 C513 1.385 . S
C510 H491 0.951 . S
C510 C508 1.388 . S
C510 C511 1.366 1_655 S
C511 C510 1.366 1_455 S
C511 C512 1.414 . S
C511 C514 1.499 . S
C512 H492 0.950 . S
C512 C511 1.414 . S
C512 C513 1.374 . S
C513 H493 0.950 . S
C513 C509 1.385 . S
C513 C512 1.374 . S
C514 C511 1.499 . S
C514 C515 1.373 1_545 S
C514 C516 1.389 1_455 S
C515 H494 0.950 . S
C515 C514 1.373 1_565 S
C515 C531 1.377 . S
C516 C514 1.389 1_655 S
C516 C517 1.524 . S
C516 C530 1.377 . S
C517 C516 1.524 . S
C517 C518 1.397 . S
C517 C522 1.363 . S
C518 H495 0.950 1_655 S
C518 C517 1.397 . S
C518 C519 1.334 . S
C519 H496 0.950 . S
C519 C518 1.334 . S
C519 C520 1.287 . S
C520 C519 1.287 . S
C520 C521 1.524 . S
C520 H539 0.913 . S
C521 H497 0.950 . S
C521 C520 1.524 . S
C521 C522 1.415 . S
C522 H498 0.950 . S
C522 C517 1.363 . S
C522 C521 1.415 . S
C523 H499 0.951 . S
C523 C524 1.366 . S
C523 C525 1.388 . S
C524 C523 1.366 . S
C524 C528 1.385 1_455 S
C525 H500 0.951 . S
C525 C523 1.388 . S
C525 C526 1.366 . S
C526 C525 1.366 . S
C526 C527 1.414 1_455 S
C526 C529 1.499 . S
C527 H501 0.953 . S
C527 C526 1.414 1_655 S
C527 C528 1.374 . S
C528 H502 0.950 . S
C528 C524 1.385 1_655 S
C528 C527 1.374 . S
C529 C526 1.499 . S
C529 C530 1.373 1_455 S
C529 C531 1.389 1_545 S
C530 H503 0.950 . S
C530 C516 1.377 . S
C530 C529 1.373 1_655 S
C531 C515 1.377 . S
C531 C529 1.389 1_565 S
C531 C532 1.524 . S
C532 C531 1.524 . S
C532 C533 1.397 . S
C532 C537 1.363 . S
C533 H504 0.950 . S
C533 C532 1.397 . S
C533 C534 1.334 . S
C534 H505 0.950 . S
C534 C533 1.334 . S
C534 C535 1.287 . S
C535 C534 1.287 . S
C535 C536 1.524 . S
C535 H538 0.999 . S
C536 H506 0.950 . S
C536 C535 1.524 . S
C536 C537 1.415 . S
C537 H507 0.950 . S
C537 C532 1.363 . S
C537 C536 1.415 . S
H538 C535 0.999 . S
H539 C520 0.913 . S
H540 C558 0.951 . S
H541 C560 0.951 . S
H542 C562 0.950 . S
H543 C563 0.950 . S
H544 C565 0.950 . S
H545 C568 0.950 1_545 S
H546 C569 0.950 . S
H547 C571 0.950 . S
H548 C572 0.950 . S
H549 C573 0.951 . S
H550 C575 0.951 . S
H551 C577 0.950 . S
H552 C578 0.951 . S
H553 C580 0.950 . S
H554 C583 0.950 . S
H555 C584 0.950 . S
H556 C586 0.950 . S
H557 C587 0.950 . S
C558 H540 0.951 . S
C558 C559 1.366 1_665 S
C558 C560 1.390 . S
C559 C558 1.366 1_445 S
C559 C563 1.385 . S
C560 H541 0.951 . S
C560 C558 1.390 . S
C560 C561 1.363 1_665 S
C561 C560 1.363 1_445 S
C561 C562 1.414 . S
C561 C564 1.499 . S
C562 H542 0.950 . S
C562 C561 1.414 . S
C562 C563 1.374 . S
C563 H543 0.950 . S
C563 C559 1.385 . S
C563 C562 1.374 . S
C564 C561 1.499 . S
C564 C565 1.373 1_455 S
C564 C566 1.389 1_545 S
C565 H544 0.950 . S
C565 C564 1.373 1_655 S
C565 C581 1.377 . S
C566 C564 1.389 1_565 S
C566 C567 1.524 . S
C566 C580 1.377 . S
C567 C566 1.524 . S
C567 C568 1.397 . S
C567 C572 1.363 . S
C568 H545 0.950 1_565 S
C568 C567 1.397 . S
C568 C569 1.334 . S
C569 H546 0.950 . S
C569 C568 1.334 . S
C569 C570 1.287 . S
C570 C569 1.287 . S
C570 C571 1.524 . S
C570 H589 0.913 . S
C571 H547 0.950 . S
C571 C570 1.524 . S
C571 C572 1.415 . S
C572 H548 0.950 . S
C572 C567 1.363 . S
C572 C571 1.415 . S
C573 H549 0.951 . S
C573 C574 1.366 . S
C573 C575 1.388 . S
C574 C573 1.366 . S
C574 C578 1.382 1_445 S
C575 H550 0.951 . S
C575 C573 1.388 . S
C575 C576 1.366 . S
C576 C575 1.366 . S
C576 C577 1.414 1_445 S
C576 C579 1.499 . S
C577 H551 0.950 . S
C577 C576 1.414 1_665 S
C577 C578 1.376 . S
C578 H552 0.951 . S
C578 C574 1.382 1_665 S
C578 C577 1.376 . S
C579 C576 1.499 . S
C579 C580 1.373 1_545 S
C579 C581 1.389 1_455 S
C580 H553 0.950 . S
C580 C566 1.377 . S
C580 C579 1.373 1_565 S
C581 C565 1.377 . S
C581 C579 1.389 1_655 S
C581 C582 1.524 . S
C582 C581 1.524 . S
C582 C583 1.397 . S
C582 C587 1.363 . S
C583 H554 0.950 . S
C583 C582 1.397 . S
C583 C584 1.334 . S
C584 H555 0.950 . S
C584 C583 1.334 . S
C584 C585 1.287 . S
C585 C584 1.287 . S
C585 C586 1.524 . S
C585 H588 0.999 . S
C586 H556 0.950 . S
C586 C585 1.524 . S
C586 C587 1.415 . S
C587 H557 0.950 . S
C587 C582 1.363 . S
C587 C586 1.415 . S
H588 C585 0.999 . S
H589 C570 0.913 . S
H590 C608 0.951 . S
H591 C610 0.951 . S
H592 C612 0.950 . S
H593 C613 0.950 . S
H594 C615 0.950 . S
H595 C618 0.950 . S
H596 C619 0.950 . S
H597 C621 0.950 . S
H598 C622 0.950 . S
H599 C623 0.951 . S
H600 C625 0.951 . S
H601 C627 0.950 . S
H602 C628 0.950 . S
H603 C630 0.950 . S
H604 C633 0.950 . S
H605 C634 0.950 . S
H606 C636 0.950 . S
H607 C637 0.950 . S
C608 H590 0.951 . S
C608 C609 1.366 . S
C608 C610 1.388 . S
C609 C608 1.366 . S
C609 C613 1.385 . S
C610 H591 0.951 . S
C610 C608 1.388 . S
C610 C611 1.366 . S
C611 C610 1.366 . S
C611 C612 1.414 . S
C611 C614 1.499 . S
C612 H592 0.950 . S
C612 C611 1.414 . S
C612 C613 1.374 . S
C613 H593 0.950 . S
C613 C609 1.385 . S
C613 C612 1.374 . S
C614 C611 1.499 . S
C614 C615 1.373 . S
C614 C616 1.389 . S
C615 H594 0.950 . S
C615 C614 1.373 . S
C615 C631 1.377 . S
C616 C614 1.389 . S
C616 C617 1.524 . S
C616 C630 1.377 . S
C617 C616 1.524 . S
C617 C618 1.397 . S
C617 C622 1.363 . S
C618 H595 0.950 . S
C618 C617 1.397 . S
C618 C619 1.334 . S
C619 H596 0.950 . S
C619 C618 1.334 . S
C619 C620 1.287 . S
C620 C619 1.287 . S
C620 C621 1.524 . S
C620 H639 0.913 . S
C621 H597 0.950 . S
C621 C620 1.524 . S
C621 C622 1.415 . S
C622 H598 0.950 . S
C622 C617 1.363 . S
C622 C621 1.415 . S
C623 H599 0.951 . S
C623 C624 1.366 . S
C623 C625 1.388 . S
C624 C623 1.366 . S
C624 C628 1.385 . S
C625 H600 0.951 . S
C625 C623 1.388 . S
C625 C626 1.366 . S
C626 C625 1.366 . S
C626 C627 1.414 . S
C626 C629 1.499 . S
C627 H601 0.950 . S
C627 C626 1.414 . S
C627 C628 1.374 . S
C628 H602 0.950 . S
C628 C624 1.385 . S
C628 C627 1.374 . S
C629 C626 1.499 . S
C629 C630 1.373 . S
C629 C631 1.389 . S
C630 H603 0.950 . S
C630 C616 1.377 . S
C630 C629 1.373 . S
C631 C615 1.377 . S
C631 C629 1.389 . S
C631 C632 1.524 . S
C632 C631 1.524 . S
C632 C633 1.397 . S
C632 C637 1.363 . S
C633 H604 0.950 . S
C633 C632 1.397 . S
C633 C634 1.334 . S
C634 H605 0.950 . S
C634 C633 1.334 . S
C634 C635 1.287 . S
C635 C634 1.287 . S
C635 C636 1.524 . S
C635 H638 0.999 . S
C636 H606 0.950 . S
C636 C635 1.524 . S
C636 C637 1.415 . S
C637 H607 0.950 . S
C637 C632 1.363 . S
C637 C636 1.415 . S
H638 C635 0.999 . S
H639 C620 0.913 . S
H640 C658 0.951 . S
H641 C660 0.951 . S
H642 C662 0.950 . S
H643 C663 0.950 . S
H644 C665 0.950 . S
H645 C668 0.950 . S
H646 C669 0.950 . S
H647 C671 0.950 . S
H648 C672 0.950 . S
H649 C673 0.951 . S
H650 C675 0.951 . S
H651 C677 0.950 . S
H652 C678 0.950 . S
H653 C680 0.950 . S
H654 C683 0.950 . S
H655 C684 0.950 . S
H656 C686 0.950 . S
H657 C687 0.950 . S
C658 H640 0.951 . S
C658 C659 1.366 . S
C658 C660 1.388 . S
C659 C658 1.366 . S
C659 C663 1.385 . S
C660 H641 0.951 . S
C660 C658 1.388 . S
C660 C661 1.366 . S
C661 C660 1.366 . S
C661 C662 1.414 . S
C661 C664 1.499 . S
C662 H642 0.950 . S
C662 C661 1.414 . S
C662 C663 1.374 . S
C663 H643 0.950 . S
C663 C659 1.385 . S
C663 C662 1.374 . S
C664 C661 1.499 . S
C664 C665 1.373 . S
C664 C666 1.389 . S
C665 H644 0.950 . S
C665 C664 1.373 . S
C665 C681 1.377 . S
C666 C664 1.389 . S
C666 C667 1.524 . S
C666 C680 1.377 . S
C667 C666 1.524 . S
C667 C668 1.397 . S
C667 C672 1.363 . S
C668 H645 0.950 . S
C668 C667 1.397 . S
C668 C669 1.334 . S
C669 H646 0.950 . S
C669 C668 1.334 . S
C669 C670 1.287 . S
C670 C669 1.287 . S
C670 C671 1.524 . S
C670 H689 0.913 . S
C671 H647 0.950 . S
C671 C670 1.524 . S
C671 C672 1.415 . S
C672 H648 0.950 . S
C672 C667 1.363 . S
C672 C671 1.415 . S
C673 H649 0.951 . S
C673 C674 1.366 . S
C673 C675 1.388 . S
C674 C673 1.366 . S
C674 C678 1.385 . S
C675 H650 0.951 . S
C675 C673 1.388 . S
C675 C676 1.366 . S
C676 C675 1.366 . S
C676 C677 1.414 . S
C676 C679 1.499 . S
C677 H651 0.950 . S
C677 C676 1.414 . S
C677 C678 1.374 . S
C678 H652 0.950 . S
C678 C674 1.385 . S
C678 C677 1.374 . S
C679 C676 1.499 . S
C679 C680 1.373 . S
C679 C681 1.389 . S
C680 H653 0.950 . S
C680 C666 1.377 . S
C680 C679 1.373 . S
C681 C665 1.377 . S
C681 C679 1.389 . S
C681 C682 1.524 . S
C682 C681 1.524 . S
C682 C683 1.397 . S
C682 C687 1.363 . S
C683 H654 0.950 . S
C683 C682 1.397 . S
C683 C684 1.334 . S
C684 H655 0.950 . S
C684 C683 1.334 . S
C684 C685 1.287 . S
C685 C684 1.287 . S
C685 C686 1.524 . S
C685 H688 0.999 . S
C686 H656 0.950 . S
C686 C685 1.524 . S
C686 C687 1.415 . S
C687 H657 0.950 . S
C687 C682 1.363 . S
C687 C686 1.415 . S
H688 C685 0.999 . S
H689 C670 0.913 . S
C124 C83 1.523 . S
C109 C21 1.522 . S
C159 C19 1.375 1_556 S
C174 C78 1.361 . S
C209 C18 1.341 . S
C224 C89 1.338 . S
C259 C20 1.503 . S
C274 C72 1.506 . S
C309 C44 1.522 . S
C324 C61 1.522 . S
C359 C42 1.376 . S
C374 C56 1.361 . S
C424 C67 1.339 . S
C409 C41 1.341 . S
C474 C50 1.506 . S
C459 C43 1.503 . S
C509 C16 1.529 . S
C524 C51 1.523 . S
C559 C17 1.488 . S
C574 C62 1.482 . S
C624 C73 1.523 . S
C609 C39 1.529 . S
C659 C40 1.488 . S
C674 C84 1.482 . S
