# Generated by pormake.
# Topology dag, (6,3)-cn, num edge types: 1
# Building blocks:
#     Node 0, Type 0, BuildingBlock: OJICUG_clean_sbu_0, # of connection points: 6
#     Node 1, Type 0, BuildingBlock: OJICUG_clean_sbu_0, # of connection points: 6
#     Node 2, Type 0, BuildingBlock: OJICUG_clean_sbu_0, # of connection points: 6
#     Node 3, Type 0, BuildingBlock: OJICUG_clean_sbu_0, # of connection points: 6
#     Node 4, Type 1, BuildingBlock: MIDCAF_clean_linker_0, # of connection points: 3
#     Node 5, Type 1, BuildingBlock: MIDCAF_clean_linker_0, # of connection points: 3
#     Node 6, Type 1, BuildingBlock: MIDCAF_clean_linker_0, # of connection points: 3
#     Node 7, Type 1, BuildingBlock: MIDCAF_clean_linker_0, # of connection points: 3
#     Node 8, Type 1, BuildingBlock: MIDCAF_clean_linker_0, # of connection points: 3
#     Node 9, Type 1, BuildingBlock: MIDCAF_clean_linker_0, # of connection points: 3
#     Node 10, Type 1, BuildingBlock: MIDCAF_clean_linker_0, # of connection points: 3
#     Node 11, Type 1, BuildingBlock: MIDCAF_clean_linker_0, # of connection points: 3
#     Edge 12, Type (0, 1), BuildingBlock: TEMPAE_clean_linker_10, # of connection points: 2
#     Edge 13, Type (0, 1), BuildingBlock: TEMPAE_clean_linker_10, # of connection points: 2
#     Edge 14, Type (0, 1), BuildingBlock: TEMPAE_clean_linker_10, # of connection points: 2
#     Edge 15, Type (0, 1), BuildingBlock: TEMPAE_clean_linker_10, # of connection points: 2
#     Edge 16, Type (0, 1), BuildingBlock: TEMPAE_clean_linker_10, # of connection points: 2
#     Edge 17, Type (0, 1), BuildingBlock: TEMPAE_clean_linker_10, # of connection points: 2
#     Edge 18, Type (0, 1), BuildingBlock: TEMPAE_clean_linker_10, # of connection points: 2
#     Edge 19, Type (0, 1), BuildingBlock: TEMPAE_clean_linker_10, # of connection points: 2
#     Edge 20, Type (0, 1), BuildingBlock: TEMPAE_clean_linker_10, # of connection points: 2
#     Edge 21, Type (0, 1), BuildingBlock: TEMPAE_clean_linker_10, # of connection points: 2
#     Edge 22, Type (0, 1), BuildingBlock: TEMPAE_clean_linker_10, # of connection points: 2
#     Edge 23, Type (0, 1), BuildingBlock: TEMPAE_clean_linker_10, # of connection points: 2
#     Edge 24, Type (0, 1), BuildingBlock: TEMPAE_clean_linker_10, # of connection points: 2
#     Edge 25, Type (0, 1), BuildingBlock: TEMPAE_clean_linker_10, # of connection points: 2
#     Edge 26, Type (0, 1), BuildingBlock: TEMPAE_clean_linker_10, # of connection points: 2
#     Edge 27, Type (0, 1), BuildingBlock: TEMPAE_clean_linker_10, # of connection points: 2
#     Edge 28, Type (0, 1), BuildingBlock: TEMPAE_clean_linker_10, # of connection points: 2
#     Edge 29, Type (0, 1), BuildingBlock: TEMPAE_clean_linker_10, # of connection points: 2
#     Edge 30, Type (0, 1), BuildingBlock: TEMPAE_clean_linker_10, # of connection points: 2
#     Edge 31, Type (0, 1), BuildingBlock: TEMPAE_clean_linker_10, # of connection points: 2
#     Edge 32, Type (0, 1), BuildingBlock: TEMPAE_clean_linker_10, # of connection points: 2
#     Edge 33, Type (0, 1), BuildingBlock: TEMPAE_clean_linker_10, # of connection points: 2
#     Edge 34, Type (0, 1), BuildingBlock: TEMPAE_clean_linker_10, # of connection points: 2
#     Edge 35, Type (0, 1), BuildingBlock: TEMPAE_clean_linker_10, # of connection points: 2
# Relax obj value: 0.257
# Max RMSD: 0.201
# Mean RMSD: 0.166
data_MOF--net-dag--node1-OJICUG_clean_sbu_0--node2-MIDCAF_clean_linker_0--edge1-TEMPAE_clean_linker_10
_symmetry_space_group_name_H-M    P1
_symmetry_Int_Tables_number       1
_symmetry_cell_setting            triclinic
loop_
_symmetry_equiv_pos_as_xyz
'x, y, z'
_cell_length_a     46.008007
_cell_length_b     43.960744
_cell_length_c     45.115597
_cell_angle_alpha  89.762104
_cell_angle_beta   95.189918
_cell_angle_gamma 89.889162
loop_
_atom_site_label
_atom_site_type_symbol
_atom_site_fract_x
_atom_site_fract_y
_atom_site_fract_z
_atom_type_partial_charge
Sc0 Sc 0.14989 0.8766 0.01799 0.0
Sc1 Sc 0.17285 0.81121 0.98207 0.0
Sc2 Sc 0.22483 0.85852 0.02169 0.0
O3 O 0.18257 0.84876 0.00729 0.0
C4 C 0.19952 0.92455 0.00491 0.0
C5 C 0.12847 0.86041 0.95096 0.0
C6 C 0.22976 0.83607 0.95487 0.0
C7 C 0.12155 0.81071 0.02476 0.0
C8 C 0.19134 0.87549 0.07858 0.0
C9 C 0.22355 0.78644 0.02917 0.0
O10 O 0.17323 0.91714 0.00785 0.0
O11 O 0.14239 0.83538 0.95104 0.0
O12 O 0.24016 0.84954 0.97842 0.0
O13 O 0.12273 0.83923 0.02935 0.0
O14 O 0.21447 0.86864 0.06656 0.0
O15 O 0.20247 0.7824 0.00937 0.0
O16 O 0.16668 0.87854 0.06377 0.0
O17 O 0.13873 0.79696 0.00876 0.0
O18 O 0.2335 0.81255 0.03653 0.0
O19 O 0.12948 0.87789 0.97335 0.0
O20 O 0.2206 0.90576 0.00869 0.0
O21 O 0.20569 0.82183 0.9531 0.0
Sc22 Sc 0.72352 0.64833 0.52522 0.0
Sc23 Sc 0.67437 0.69731 0.483 0.0
Sc24 Sc 0.64862 0.63082 0.51539 0.0
O25 O 0.68221 0.65887 0.50792 0.0
C26 C 0.6988 0.58281 0.50595 0.0
C27 C 0.73363 0.67237 0.46005 0.0
C28 C 0.6321 0.64966 0.44757 0.0
C29 C 0.72209 0.7206 0.53307 0.0
C30 C 0.68626 0.63054 0.57882 0.0
C31 C 0.61958 0.69629 0.5216 0.0
O32 O 0.71968 0.60076 0.51385 0.0
O33 O 0.71062 0.68858 0.45762 0.0
O34 O 0.63047 0.63218 0.46984 0.0
O35 O 0.73249 0.69436 0.53947 0.0
O36 O 0.66299 0.62607 0.56193 0.0
O37 O 0.63721 0.71023 0.50618 0.0
O38 O 0.70992 0.63942 0.56903 0.0
O39 O 0.70101 0.7253 0.51342 0.0
O40 O 0.62121 0.66786 0.52679 0.0
O41 O 0.74114 0.65598 0.48283 0.0
O42 O 0.67216 0.59075 0.50449 0.0
O43 O 0.64716 0.67391 0.44886 0.0
Sc44 Sc 0.82663 0.19073 0.09397 0.0
Sc45 Sc 0.77362 0.14272 0.0568 0.0
Sc46 Sc 0.84857 0.12444 0.05905 0.0
O47 O 0.81622 0.15264 0.0699 0.0
C48 C 0.87763 0.18942 0.05066 0.0
C49 C 0.77549 0.21489 0.04744 0.0
C50 C 0.80557 0.12504 0.99928 0.0
C51 C 0.76981 0.16683 0.12282 0.0
C52 C 0.87058 0.14194 0.12584 0.0
C53 C 0.79954 0.07674 0.07378 0.0
O54 O 0.86164 0.20329 0.06776 0.0
O55 O 0.76369 0.18895 0.04311 0.0
O56 O 0.83022 0.12095 0.01386 0.0
O57 O 0.79297 0.18253 0.12289 0.0
O58 O 0.87028 0.12481 0.10321 0.0
O59 O 0.77831 0.09522 0.06903 0.0
O60 O 0.85586 0.16645 0.12603 0.0
O61 O 0.75986 0.151 0.10064 0.0
O62 O 0.82584 0.08438 0.07136 0.0
O63 O 0.79857 0.21898 0.06464 0.0
O64 O 0.87532 0.16111 0.04541 0.0
O65 O 0.78293 0.13332 0.01145 0.0
Sc66 Sc 0.34609 0.36616 0.55403 0.0
Sc67 Sc 0.2709 0.35047 0.55256 0.0
Sc68 Sc 0.32272 0.3024 0.5924 0.0
O69 O 0.31318 0.33965 0.56629 0.0
C70 C 0.3747 0.30045 0.55012 0.0
C71 C 0.30326 0.36477 0.49435 0.0
C72 C 0.27223 0.27782 0.54575 0.0
C73 C 0.29806 0.41604 0.56683 0.0
C74 C 0.36667 0.35169 0.62224 0.0
C75 C 0.26533 0.32779 0.61895 0.0
O76 O 0.37201 0.32815 0.54229 0.0
O77 O 0.28025 0.35899 0.507 0.0
O78 O 0.29492 0.27378 0.56364 0.0
O79 O 0.3241 0.40755 0.56407 0.0
O80 O 0.35117 0.32789 0.62377 0.0
O81 O 0.25655 0.34395 0.59647 0.0
O82 O 0.36745 0.36721 0.59847 0.0
O83 O 0.27644 0.39801 0.56346 0.0
O84 O 0.28813 0.31139 0.6199 0.0
O85 O 0.32822 0.36767 0.50854 0.0
O86 O 0.35893 0.28817 0.56851 0.0
O87 O 0.26091 0.30394 0.54019 0.0
C88 C 0.01452 0.03565 0.29239 0.0
C89 C 0.00546 0.06561 0.29726 0.0
C90 C 0.02058 0.08274 0.31986 0.0
C91 C 0.04524 0.07074 0.33621 0.0
H92 H 0.10483 0.08465 0.40903 0.0
H93 H 0.13176 0.1203 0.44201 0.0
H94 H 0.21246 0.0751 0.42677 0.0
H95 H 0.18559 0.03946 0.39325 0.0
H96 H 0.18493 0.99299 0.33824 0.0
H97 H 0.20921 0.96068 0.30398 0.0
H98 H 0.12603 0.92191 0.27234 0.0
H99 H 0.10182 0.95394 0.30642 0.0
H100 H 0.04646 0.00103 0.3033 0.0
H101 H 0.00337 0.02199 0.27497 0.0
H102 H 0.01386 0.1058 0.32424 0.0
H103 H 0.05702 0.08504 0.35266 0.0
N104 N 0.09897 0.04705 0.36562 0.0
N105 N 0.1404 0.01636 0.3629 0.0
N106 N 0.098 0.00725 0.3313 0.0
C107 C 0.12686 0.03982 0.37565 0.0
C108 C 0.12595 0.99975 0.3409 0.0
C109 C 0.08434 0.03088 0.3435 0.0
C110 C 0.14304 0.0593 0.39822 0.0
C111 C 0.12829 0.08203 0.41284 0.0
C112 C 0.1437 0.1024 0.43195 0.0
C113 C 0.17423 0.10057 0.43687 0.0
C114 C 0.18894 0.07724 0.42311 0.0
C115 C 0.17351 0.05673 0.40405 0.0
C116 C 0.14137 0.97635 0.32473 0.0
C117 C 0.17193 0.977 0.32453 0.0
C118 C 0.18584 0.9586 0.30485 0.0
C119 C 0.16951 0.93891 0.28537 0.0
C120 C 0.13927 0.93663 0.28725 0.0
C121 C 0.12535 0.95522 0.30661 0.0
C122 C 0.05549 0.04147 0.33001 0.0
C123 C 0.03934 0.02373 0.30852 0.0
C124 C 0.3057 0.65456 0.59596 0.0
C125 C 0.28862 0.63798 0.61463 0.0
C126 C 0.28043 0.65183 0.64066 0.0
C127 C 0.29047 0.68094 0.64866 0.0
H128 H 0.29496 0.74029 0.71675 0.0
H129 H 0.28657 0.75866 0.76583 0.0
H130 H 0.34913 0.83057 0.7576 0.0
H131 H 0.35766 0.81229 0.70792 0.0
H132 H 0.40626 0.79828 0.65931 0.0
H133 H 0.45252 0.80613 0.63772 0.0
H134 H 0.42046 0.7535 0.56094 0.0
H135 H 0.37439 0.74654 0.58183 0.0
H136 H 0.32977 0.69513 0.58949 0.0
H137 H 0.31267 0.6445 0.57589 0.0
H138 H 0.26695 0.6398 0.6553 0.0
H139 H 0.28464 0.69044 0.66943 0.0
N140 N 0.31755 0.73802 0.66755 0.0
N141 N 0.35487 0.77385 0.66384 0.0
N142 N 0.34526 0.73722 0.62664 0.0
C143 C 0.33293 0.7624 0.67884 0.0
C144 C 0.36101 0.76143 0.63755 0.0
C145 C 0.3235 0.72536 0.6414 0.0
C146 C 0.32712 0.77469 0.7083 0.0
C147 C 0.307 0.76006 0.72518 0.0
C148 C 0.30231 0.77043 0.75349 0.0
C149 C 0.31751 0.79577 0.76569 0.0
C150 C 0.33717 0.81094 0.74871 0.0
C151 C 0.34206 0.8004 0.72031 0.0
C152 C 0.38678 0.7713 0.62256 0.0
C153 C 0.40886 0.78908 0.63747 0.0
C154 C 0.43544 0.79343 0.62519 0.0
C155 C 0.44038 0.78019 0.59774 0.0
C156 C 0.41745 0.76435 0.58195 0.0
C157 C 0.391 0.76004 0.59415 0.0
C158 C 0.30901 0.69677 0.63083 0.0
C159 C 0.31573 0.68359 0.60393 0.0
C160 C 0.79291 0.70399 0.24622 0.0
C161 C 0.81434 0.68774 0.26397 0.0
C162 C 0.84194 0.68349 0.25361 0.0
C163 C 0.84813 0.69578 0.22621 0.0
H164 H 0.91184 0.7003 0.16488 0.0
H165 H 0.95889 0.6955 0.14398 0.0
H166 H 0.92542 0.74885 0.06768 0.0
H167 H 0.8787 0.75288 0.08789 0.0
H168 H 0.8295 0.79974 0.09464 0.0
H169 H 0.81121 0.85033 0.08223 0.0
H170 H 0.76624 0.85158 0.16223 0.0
H171 H 0.7852 0.80083 0.17519 0.0
H172 H 0.78233 0.72953 0.20631 0.0
H173 H 0.77156 0.70797 0.25381 0.0
H174 H 0.8588 0.67099 0.26686 0.0
H175 H 0.86977 0.69262 0.21905 0.0
N176 N 0.8578 0.71981 0.16738 0.0
N177 N 0.84812 0.7587 0.13218 0.0
N178 N 0.8178 0.75263 0.17064 0.0
C179 C 0.86474 0.73474 0.14254 0.0
C180 C 0.8247 0.76789 0.14603 0.0
C181 C 0.83408 0.72842 0.18131 0.0
C182 C 0.89162 0.72735 0.12827 0.0
C183 C 0.91438 0.71036 0.14331 0.0
C184 C 0.94138 0.70776 0.13144 0.0
C185 C 0.94602 0.72193 0.10424 0.0
C186 C 0.92262 0.73727 0.08847 0.0
C187 C 0.8958 0.73989 0.10028 0.0
C188 C 0.80923 0.79632 0.13618 0.0
C189 C 0.81536 0.81049 0.10946 0.0
C190 C 0.80462 0.83951 0.10216 0.0
C191 C 0.78738 0.85513 0.12133 0.0
C192 C 0.77978 0.84028 0.14719 0.0
C193 C 0.79052 0.81112 0.15451 0.0
C194 C 0.82697 0.71297 0.20895 0.0
C195 C 0.79919 0.71657 0.2191 0.0
C196 C 0.68476 0.41504 0.92559 0.0
C197 C 0.67718 0.38412 0.92553 0.0
C198 C 0.65272 0.37425 0.90736 0.0
C199 C 0.63606 0.3949 0.88947 0.0
H200 H 0.5559 0.40329 0.84625 0.0
H201 H 0.51227 0.3841 0.81781 0.0
H202 H 0.50081 0.47056 0.77249 0.0
H203 H 0.54425 0.49 0.80098 0.0
H204 H 0.59711 0.53914 0.80862 0.0
H205 H 0.6188 0.57354 0.77459 0.0
H206 H 0.70363 0.53419 0.79943 0.0
H207 H 0.68185 0.4994 0.83354 0.0
H208 H 0.67484 0.45939 0.90726 0.0
H209 H 0.7036 0.42307 0.93948 0.0
H210 H 0.64639 0.35051 0.90715 0.0
H211 H 0.61738 0.38645 0.87559 0.0
N212 N 0.59868 0.4399 0.85892 0.0
N213 N 0.59547 0.48345 0.82889 0.0
N214 N 0.63896 0.47255 0.85834 0.0
C215 C 0.5829 0.45803 0.83907 0.0
C216 C 0.6234 0.49093 0.83837 0.0
C217 C 0.62654 0.44711 0.86891 0.0
C218 C 0.5539 0.44809 0.8256 0.0
C219 C 0.54383 0.41848 0.83066 0.0
C220 C 0.51889 0.40738 0.81429 0.0
C221 C 0.50335 0.42572 0.79273 0.0
C222 C 0.51226 0.45595 0.78907 0.0
C223 C 0.5373 0.46701 0.80529 0.0
C224 C 0.63766 0.51617 0.82342 0.0
C225 C 0.62051 0.53827 0.80741 0.0
C226 C 0.63299 0.55819 0.78804 0.0
C227 C 0.66289 0.55635 0.7841 0.0
C228 C 0.68047 0.53588 0.80182 0.0
C229 C 0.66799 0.51609 0.82147 0.0
C230 C 0.64383 0.4258 0.88894 0.0
C231 C 0.66839 0.43571 0.90714 0.0
C232 C 0.58816 0.22581 0.50166 0.0
C233 C 0.56176 0.22141 0.48388 0.0
C234 C 0.56284 0.21622 0.45322 0.0
C235 C 0.58932 0.21793 0.44036 0.0
H236 H 0.64608 0.18432 0.37281 0.0
H237 H 0.65455 0.16703 0.32274 0.0
H238 H 0.711 0.24398 0.31261 0.0
H239 H 0.7027 0.26132 0.36209 0.0
H240 H 0.70116 0.31533 0.40663 0.0
H241 H 0.71554 0.36617 0.42217 0.0
H242 H 0.70371 0.34229 0.51344 0.0
H243 H 0.68738 0.29179 0.49732 0.0
H244 H 0.63418 0.23358 0.50271 0.0
H245 H 0.58833 0.22893 0.52548 0.0
H246 H 0.54304 0.21299 0.4387 0.0
H247 H 0.58913 0.2158 0.41643 0.0
N248 N 0.64664 0.22361 0.41646 0.0
N249 N 0.68393 0.25947 0.4133 0.0
N250 N 0.65733 0.25859 0.4551 0.0
C251 C 0.66834 0.23552 0.40147 0.0
C252 C 0.67868 0.27103 0.44012 0.0
C253 C 0.64121 0.23493 0.44343 0.0
C254 C 0.67365 0.22426 0.37152 0.0
C255 C 0.66027 0.19755 0.35987 0.0
C256 C 0.66513 0.18759 0.33128 0.0
C257 C 0.68314 0.20437 0.31374 0.0
C258 C 0.69658 0.23089 0.32544 0.0
C259 C 0.69198 0.24067 0.35397 0.0
C260 C 0.69277 0.29967 0.4507 0.0
C261 C 0.70211 0.32073 0.4301 0.0
C262 C 0.71057 0.34998 0.43912 0.0
C263 C 0.7105 0.35872 0.4691 0.0
C264 C 0.70324 0.33677 0.49004 0.0
C265 C 0.69412 0.3077 0.48088 0.0
C266 C 0.61512 0.22541 0.4578 0.0
C267 C 0.61449 0.22821 0.4887 0.0
C268 C 0.21058 0.29866 0.83601 0.0
C269 C 0.189 0.31438 0.81796 0.0
C270 C 0.1613 0.31839 0.82815 0.0
C271 C 0.15511 0.30626 0.8556 0.0
H272 H 0.09113 0.30145 0.91622 0.0
H273 H 0.04345 0.30523 0.93597 0.0
H274 H 0.07551 0.25013 0.01157 0.0
H275 H 0.12284 0.24716 0.99256 0.0
H276 H 0.1743 0.20261 0.98732 0.0
H277 H 0.19193 0.15165 0.99928 0.0
H278 H 0.23551 0.14981 0.91841 0.0
H279 H 0.21725 0.20093 0.90596 0.0
H280 H 0.22127 0.27358 0.87618 0.0
H281 H 0.23203 0.2949 0.82855 0.0
H282 H 0.14431 0.3305 0.81467 0.0
H283 H 0.13337 0.30914 0.86258 0.0
N284 N 0.14517 0.28207 0.91425 0.0
N285 N 0.15476 0.24301 0.94926 0.0
N286 N 0.18559 0.24974 0.91133 0.0
C287 C 0.13802 0.26685 0.93885 0.0
C288 C 0.17849 0.23421 0.93572 0.0
C289 C 0.16921 0.27387 0.90063 0.0
C290 C 0.1107 0.27364 0.95259 0.0
C291 C 0.08814 0.29078 0.93741 0.0
C292 C 0.06077 0.29279 0.94861 0.0
C293 C 0.05555 0.27783 0.97525 0.0
C294 C 0.07873 0.2623 0.99121 0.0
C295 C 0.10592 0.26031 0.98008 0.0
C296 C 0.19393 0.20574 0.94542 0.0
C297 C 0.18803 0.19164 0.97224 0.0
C298 C 0.19839 0.16242 0.97927 0.0
C299 C 0.21496 0.14653 0.95969 0.0
C300 C 0.22247 0.16133 0.93376 0.0
C301 C 0.21214 0.19071 0.92673 0.0
C302 C 0.1764 0.28946 0.8731 0.0
C303 C 0.20432 0.28622 0.86319 0.0
C304 C 0.35393 0.60191 0.13494 0.0
C305 C 0.3258 0.61172 0.14066 0.0
C306 C 0.31365 0.60005 0.16592 0.0
C307 C 0.32946 0.57991 0.18528 0.0
H308 H 0.32285 0.49728 0.23814 0.0
H309 H 0.29993 0.46653 0.27514 0.0
H310 H 0.38287 0.45879 0.32739 0.0
H311 H 0.40591 0.48879 0.29087 0.0
H312 H 0.46331 0.51565 0.26584 0.0
H313 H 0.5076 0.53674 0.29121 0.0
H314 H 0.49057 0.62238 0.24568 0.0
H315 H 0.446 0.60134 0.22021 0.0
H316 H 0.39197 0.57612 0.15031 0.0
H317 H 0.3638 0.60957 0.11536 0.0
H318 H 0.29236 0.60733 0.17154 0.0
H319 H 0.31982 0.57208 0.20498 0.0
N320 N 0.36362 0.53228 0.21941 0.0
N321 N 0.40847 0.52468 0.24737 0.0
N322 N 0.4047 0.56086 0.20903 0.0
C323 C 0.37988 0.51737 0.2416 0.0
C324 C 0.42108 0.54633 0.23133 0.0
C325 C 0.37606 0.55372 0.20279 0.0
C326 C 0.36619 0.4959 0.26164 0.0
C327 C 0.33628 0.48866 0.25731 0.0
C328 C 0.32314 0.47105 0.27837 0.0
C329 C 0.33966 0.46076 0.30415 0.0
C330 C 0.36966 0.46683 0.30781 0.0
C331 C 0.38281 0.48402 0.28677 0.0
C332 C 0.45088 0.55694 0.24133 0.0
C333 C 0.46931 0.53876 0.26067 0.0
C334 C 0.49484 0.55078 0.27508 0.0
C335 C 0.50238 0.58131 0.27064 0.0
C336 C 0.48509 0.59886 0.24971 0.0
C337 C 0.45966 0.58672 0.23502 0.0
C338 C 0.35805 0.5716 0.18029 0.0
C339 C 0.37003 0.58247 0.15479 0.0
C340 C 0.85706 0.06116 0.79232 0.0
C341 C 0.8267 0.05951 0.79361 0.0
C342 C 0.81035 0.03996 0.77402 0.0
C343 C 0.82431 0.02119 0.75471 0.0
H344 H 0.81221 0.94058 0.70417 0.0
H345 H 0.78634 0.90304 0.67252 0.0
H346 H 0.86165 0.89422 0.62213 0.0
H347 H 0.88811 0.93009 0.65552 0.0
H348 H 0.93949 0.91355 0.72557 0.0
H349 H 0.98314 0.89347 0.75369 0.0
H350 H 0.99464 0.97865 0.80048 0.0
H351 H 0.95105 0.99891 0.77246 0.0
H352 H 0.89459 0.04315 0.77382 0.0
H353 H 0.87031 0.07575 0.80736 0.0
H354 H 0.7869 0.03836 0.77446 0.0
H355 H 0.81121 0.00544 0.7408 0.0
N356 N 0.85529 0.98093 0.71721 0.0
N357 N 0.89718 0.95135 0.71261 0.0
N358 N 0.89854 0.99118 0.74701 0.0
C359 C 0.86883 0.95792 0.70385 0.0
C360 C 0.9122 0.96785 0.73426 0.0
C361 C 0.87018 0.998 0.73852 0.0
C362 C 0.85216 0.93804 0.68233 0.0
C363 C 0.82306 0.93076 0.68613 0.0
C364 C 0.80818 0.9093 0.66779 0.0
C365 C 0.82183 0.89524 0.64468 0.0
C366 C 0.85059 0.90379 0.64013 0.0
C367 C 0.86573 0.92459 0.65904 0.0
C368 C 0.94148 0.95775 0.74703 0.0
C369 C 0.95162 0.9283 0.74136 0.0
C370 C 0.97656 0.91669 0.75755 0.0
C371 C 0.99208 0.93439 0.77944 0.0
C372 C 0.98318 0.96453 0.78363 0.0
C373 C 0.95808 0.97606 0.76767 0.0
C374 C 0.85491 0.02134 0.75494 0.0
C375 C 0.87102 0.04223 0.77328 0.0
C376 C 0.21732 0.87245 0.13016 0.0
C377 C 0.1929 0.88119 0.11108 0.0
C378 C 0.2186 0.87833 0.16091 0.0
C379 C 0.1951 0.89366 0.17262 0.0
C380 C 0.17041 0.90239 0.15345 0.0
C381 C 0.16957 0.89592 0.12307 0.0
C382 C 0.24505 0.86834 0.1808 0.0
C383 C 0.14493 0.91902 0.16494 0.0
C384 C 0.17519 0.8943 0.25194 0.0
C385 C 0.18276 0.92414 0.2603 0.0
C386 C 0.18184 0.88272 0.2244 0.0
C387 C 0.19602 0.9016 0.20471 0.0
C388 C 0.20609 0.93068 0.21425 0.0
C389 C 0.1994 0.94157 0.24201 0.0
C390 C 0.17126 0.85135 0.21532 0.0
C391 C 0.2212 0.95161 0.19395 0.0
H392 H 0.23537 0.8609 0.12113 0.0
H393 H 0.15064 0.90294 0.10857 0.0
H394 H 0.2564 0.88852 0.19092 0.0
H395 H 0.2383 0.85407 0.19931 0.0
H396 H 0.26075 0.85522 0.16851 0.0
H397 H 0.12742 0.92424 0.14704 0.0
H398 H 0.13543 0.90512 0.18222 0.0
H399 H 0.15249 0.9407 0.17549 0.0
H400 H 0.16269 0.88061 0.26625 0.0
H401 H 0.20517 0.96472 0.24825 0.0
H402 H 0.18786 0.83909 0.20355 0.0
H403 H 0.15124 0.85338 0.19977 0.0
H404 H 0.16598 0.83754 0.2348 0.0
H405 H 0.23786 0.93911 0.18249 0.0
H406 H 0.23189 0.97103 0.20624 0.0
H407 H 0.2049 0.96084 0.17656 0.0
C408 C 0.59682 0.74533 0.53634 0.0
C409 C 0.5955 0.71356 0.53341 0.0
C410 C 0.57382 0.76166 0.54737 0.0
C411 C 0.5488 0.74585 0.5551 0.0
C412 C 0.54737 0.71382 0.55209 0.0
C413 C 0.57079 0.69809 0.54153 0.0
C414 C 0.57628 0.79571 0.55083 0.0
C415 C 0.52091 0.6961 0.55976 0.0
C416 C 0.49439 0.77258 0.60726 0.0
C417 C 0.47007 0.77915 0.58715 0.0
C418 C 0.52125 0.7644 0.59709 0.0
C419 C 0.52369 0.76233 0.56612 0.0
C420 C 0.50005 0.77157 0.54579 0.0
C421 C 0.4736 0.78013 0.55658 0.0
C422 C 0.54614 0.75533 0.61951 0.0
C423 C 0.50174 0.76973 0.51258 0.0
H424 H 0.61595 0.75741 0.5303 0.0
H425 H 0.56948 0.67359 0.53914 0.0
H426 H 0.55839 0.80713 0.53684 0.0
H427 H 0.57391 0.8021 0.57426 0.0
H428 H 0.59748 0.80451 0.54446 0.0
H429 H 0.5231 0.67133 0.55571 0.0
H430 H 0.51739 0.69946 0.58353 0.0
H431 H 0.50114 0.70457 0.54631 0.0
H432 H 0.49197 0.77163 0.63091 0.0
H433 H 0.45512 0.78591 0.54093 0.0
H434 H 0.56714 0.76442 0.61303 0.0
H435 H 0.54799 0.73016 0.62028 0.0
H436 H 0.54276 0.7635 0.64222 0.0
H437 H 0.52255 0.77942 0.50627 0.0
H438 H 0.48332 0.78186 0.49998 0.0
H439 H 0.50109 0.7455 0.50572 0.0
C440 C 0.76546 0.0352 0.08737 0.0
C441 C 0.79364 0.04471 0.08194 0.0
C442 C 0.7599 0.00474 0.09465 0.0
C443 C 0.78301 0.98332 0.09635 0.0
C444 C 0.81146 0.9928 0.091 0.0
C445 C 0.81642 0.02329 0.08396 0.0
C446 C 0.72936 0.99545 0.10045 0.0
C447 C 0.83672 0.97064 0.09248 0.0
C448 C 0.78415 0.90889 0.13894 0.0
C449 C 0.78025 0.88778 0.11568 0.0
C450 C 0.78293 0.94029 0.1332 0.0
C451 C 0.77788 0.95081 0.10348 0.0
C452 C 0.77181 0.92966 0.08017 0.0
C453 C 0.77298 0.8984 0.08657 0.0
C454 C 0.78926 0.96211 0.15872 0.0
C455 C 0.76622 0.93994 0.04819 0.0
H456 H 0.74772 0.05154 0.08597 0.0
H457 H 0.83826 0.03025 0.07977 0.0
H458 H 0.72124 0.9778 0.08428 0.0
H459 H 0.72944 0.98527 0.123 0.0
H460 H 0.71389 0.01495 0.09874 0.0
H461 H 0.8575 0.98169 0.08771 0.0
H462 H 0.83981 0.96006 0.11492 0.0
H463 H 0.83195 0.95206 0.0762 0.0
H464 H 0.79 0.90097 0.16148 0.0
H465 H 0.76939 0.88221 0.06856 0.0
H466 H 0.77353 0.98133 0.15702 0.0
H467 H 0.81141 0.9718 0.15779 0.0
H468 H 0.78832 0.95077 0.18066 0.0
H469 H 0.75001 0.95871 0.04617 0.0
H470 H 0.7582 0.92111 0.03328 0.0
H471 H 0.78677 0.94879 0.04034 0.0
C472 C 0.4075 0.38265 0.64665 0.0
C473 C 0.38473 0.3619 0.64921 0.0
C474 C 0.4251 0.39237 0.67178 0.0
C475 C 0.41961 0.38139 0.70027 0.0
C476 C 0.39638 0.36083 0.70314 0.0
C477 C 0.37932 0.35115 0.67753 0.0
C478 C 0.44989 0.41407 0.66776 0.0
C479 C 0.38967 0.34898 0.73322 0.0
C480 C 0.48465 0.38483 0.75791 0.0
C481 C 0.47992 0.41258 0.77196 0.0
C482 C 0.46454 0.37377 0.73535 0.0
C483 C 0.43898 0.39076 0.72678 0.0
C484 C 0.43337 0.41803 0.74188 0.0
C485 C 0.45403 0.42874 0.7642 0.0
C486 C 0.47147 0.34475 0.71959 0.0
C487 C 0.40614 0.43654 0.73362 0.0
H488 H 0.41193 0.39101 0.62488 0.0
H489 H 0.3616 0.33532 0.67974 0.0
H490 H 0.44733 0.43499 0.68095 0.0
H491 H 0.47095 0.40341 0.67613 0.0
H492 H 0.45107 0.42068 0.64411 0.0
H493 H 0.37003 0.3342 0.73179 0.0
H494 H 0.40852 0.33572 0.74352 0.0
H495 H 0.38612 0.36825 0.74829 0.0
H496 H 0.50482 0.37247 0.76355 0.0
H497 H 0.45022 0.45006 0.77521 0.0
H498 H 0.47542 0.34999 0.69621 0.0
H499 H 0.45271 0.32888 0.71896 0.0
H500 H 0.49107 0.33304 0.73046 0.0
H501 H 0.40709 0.44649 0.71108 0.0
H502 H 0.40351 0.45534 0.74954 0.0
H503 H 0.38653 0.42181 0.73281 0.0
C504 C 0.68733 0.53474 0.47835 0.0
C505 C 0.7055 0.55083 0.49935 0.0
C506 C 0.69182 0.50368 0.47352 0.0
C507 C 0.71456 0.48818 0.49071 0.0
C508 C 0.73343 0.50447 0.51147 0.0
C509 C 0.72889 0.53577 0.51528 0.0
C510 C 0.67165 0.48728 0.45064 0.0
C511 C 0.75747 0.4886 0.53067 0.0
C512 C 0.69854 0.40432 0.49911 0.0
C513 C 0.71506 0.39123 0.47775 0.0
C514 C 0.69963 0.43564 0.50483 0.0
C515 C 0.71704 0.45458 0.48824 0.0
C516 C 0.73472 0.44151 0.46757 0.0
C517 C 0.73382 0.40995 0.46287 0.0
C518 C 0.68091 0.44863 0.52756 0.0
C519 C 0.75335 0.46101 0.44923 0.0
H520 H 0.6694 0.54644 0.46583 0.0
H521 H 0.74282 0.54815 0.5317 0.0
H522 H 0.68451 0.4743 0.43529 0.0
H523 H 0.65817 0.4707 0.46191 0.0
H524 H 0.65682 0.50315 0.43731 0.0
H525 H 0.77171 0.50488 0.54394 0.0
H526 H 0.74772 0.47273 0.54618 0.0
H527 H 0.77116 0.47482 0.51677 0.0
H528 H 0.68361 0.39042 0.51051 0.0
H529 H 0.74725 0.4001 0.44685 0.0
H530 H 0.66271 0.46198 0.51608 0.0
H531 H 0.69386 0.46431 0.54275 0.0
H532 H 0.67149 0.4306 0.5411 0.0
H533 H 0.73905 0.47531 0.43367 0.0
H534 H 0.76775 0.4472 0.43605 0.0
H535 H 0.76709 0.47663 0.46373 0.0
C536 C 0.9252 0.1913 0.02826 0.0
C537 C 0.90078 0.20665 0.03725 0.0
C538 C 0.94826 0.20724 0.01718 0.0
C539 C 0.94664 0.23932 0.01445 0.0
C540 C 0.92162 0.25492 0.02253 0.0
C541 C 0.89909 0.23842 0.03417 0.0
C542 C 0.97472 0.18975 0.00914 0.0
C543 C 0.91884 0.28902 0.01924 0.0
C544 C 0.02141 0.27486 0.01542 0.0
C545 C 0.02562 0.27517 0.985 0.0
C546 C 0.99493 0.26519 0.02535 0.0
C547 C 0.9719 0.25621 0.0043 0.0
C548 C 0.97498 0.25943 0.97351 0.0
C549 C 0.00191 0.26866 0.9642 0.0
C550 C 0.99257 0.26208 0.05839 0.0
C551 C 0.95067 0.2508 0.95038 0.0
H552 H 0.92674 0.16679 0.0307 0.0
H553 H 0.88011 0.25038 0.04081 0.0
H554 H 0.97844 0.19404 0.98554 0.0
H555 H 0.99442 0.19763 0.02299 0.0
H556 H 0.97246 0.16484 0.01244 0.0
H557 H 0.89696 0.29737 0.02405 0.0
H558 H 0.93556 0.30029 0.03469 0.0
H559 H 0.92287 0.29607 0.99633 0.0
H560 H 0.0394 0.28061 0.0316 0.0
H561 H 0.00488 0.26873 0.94065 0.0
H562 H 0.99264 0.2376 0.06452 0.0
H563 H 0.97176 0.27195 0.06453 0.0
H564 H 0.01094 0.27335 0.07174 0.0
H565 H 0.94921 0.22565 0.94897 0.0
H566 H 0.95441 0.25982 0.928 0.0
H567 H 0.92936 0.25936 0.95659 0.0
C568 C 0.27653 0.38505 0.44753 0.0
C569 C 0.3012 0.37078 0.46197 0.0
C570 C 0.27716 0.39684 0.41857 0.0
C571 C 0.30294 0.39396 0.40384 0.0
C572 C 0.32677 0.37692 0.41729 0.0
C573 C 0.32567 0.36571 0.44625 0.0
C574 C 0.25122 0.41463 0.40488 0.0
C575 C 0.35451 0.37281 0.40221 0.0
C576 C 0.31112 0.41777 0.32387 0.0
C577 C 0.32587 0.44543 0.32848 0.0
C578 C 0.30184 0.40125 0.34808 0.0
C579 C 0.30735 0.41295 0.37727 0.0
C580 C 0.32052 0.44189 0.38158 0.0
C581 C 0.32973 0.45766 0.35714 0.0
C582 C 0.28781 0.37056 0.34261 0.0
C583 C 0.32651 0.45545 0.41224 0.0
H584 H 0.25753 0.38895 0.45959 0.0
H585 H 0.34461 0.3542 0.45717 0.0
H586 H 0.25591 0.43933 0.40695 0.0
H587 H 0.24694 0.40951 0.38083 0.0
H588 H 0.23122 0.40973 0.41611 0.0
H589 H 0.36924 0.35555 0.41369 0.0
H590 H 0.34947 0.36584 0.37871 0.0
H591 H 0.36635 0.39478 0.40213 0.0
H592 H 0.30817 0.40838 0.30162 0.0
H593 H 0.34084 0.47928 0.36052 0.0
H594 H 0.26896 0.36769 0.35605 0.0
H595 H 0.30387 0.35245 0.3495 0.0
H596 H 0.2803 0.36722 0.31874 0.0
H597 H 0.30649 0.45505 0.42421 0.0
H598 H 0.33438 0.47929 0.41142 0.0
H599 H 0.34336 0.44169 0.42541 0.0
C600 C 0.11529 0.85807 0.8958 0.0
C601 C 0.11013 0.86975 0.92376 0.0
C602 C 0.09821 0.86738 0.86993 0.0
C603 C 0.07516 0.88839 0.87221 0.0
C604 C 0.06978 0.90007 0.9004 0.0
C605 C 0.08746 0.89081 0.92576 0.0
C606 C 0.10485 0.85483 0.84018 0.0
C607 C 0.04513 0.92217 0.90385 0.0
C608 C 0.04155 0.93621 0.80772 0.0
C609 C 0.01542 0.92061 0.80009 0.0
C610 C 0.0621 0.92502 0.83005 0.0
C611 C 0.05608 0.8979 0.84539 0.0
C612 C 0.03026 0.88144 0.83692 0.0
C613 C 0.01032 0.89293 0.81426 0.0
C614 C 0.08962 0.94293 0.83813 0.0
C615 C 0.02283 0.85267 0.85298 0.0
H616 H 0.13294 0.842 0.89408 0.0
H617 H 0.08322 0.89979 0.94729 0.0
H618 H 0.08576 0.84203 0.82999 0.0
H619 H 0.10897 0.87376 0.82478 0.0
H620 H 0.12414 0.83947 0.84208 0.0
H621 H 0.04372 0.9289 0.92739 0.0
H622 H 0.04809 0.94299 0.8905 0.0
H623 H 0.02404 0.91183 0.89532 0.0
H624 H 0.04563 0.95749 0.79662 0.0
H625 H 0.98996 0.881 0.80869 0.0
H626 H 0.10897 0.92772 0.83933 0.0
H627 H 0.08872 0.95321 0.86044 0.0
H628 H 0.09267 0.96145 0.82187 0.0
H629 H 0.04141 0.83647 0.8541 0.0
H630 H 0.00321 0.84123 0.84206 0.0
H631 H 0.01866 0.85818 0.87621 0.0
C632 C 0.82625 0.10329 0.9548 0.0
C633 C 0.8035 0.11896 0.96684 0.0
C634 C 0.82508 0.09667 0.92444 0.0
C635 C 0.80062 0.10616 0.90534 0.0
C636 C 0.77764 0.12231 0.91711 0.0
C637 C 0.77925 0.12838 0.94784 0.0
C638 C 0.85001 0.07915 0.9129 0.0
C639 C 0.75143 0.13306 0.89729 0.0
C640 C 0.82123 0.10463 0.82642 0.0
C641 C 0.8132 0.07488 0.81818 0.0
C642 C 0.81438 0.11663 0.85371 0.0
C643 C 0.79948 0.09826 0.87326 0.0
C644 C 0.78881 0.06941 0.8637 0.0
C645 C 0.79575 0.05808 0.8362 0.0
C646 C 0.82564 0.14775 0.8628 0.0
C647 C 0.77288 0.04904 0.88383 0.0
H648 H 0.84502 0.09572 0.96921 0.0
H649 H 0.76164 0.14063 0.95692 0.0
H650 H 0.84177 0.05773 0.9023 0.0
H651 H 0.85994 0.09272 0.89566 0.0
H652 H 0.86736 0.07334 0.93078 0.0
H653 H 0.73592 0.1463 0.9097 0.0
H654 H 0.75854 0.14746 0.87904 0.0
H655 H 0.73974 0.11326 0.88679 0.0
H656 H 0.83432 0.11787 0.81229 0.0
H657 H 0.78957 0.03502 0.83002 0.0
H658 H 0.84558 0.14526 0.87841 0.0
H659 H 0.80929 0.16047 0.87452 0.0
H660 H 0.83128 0.16135 0.84333 0.0
H661 H 0.7888 0.03912 0.90118 0.0
H662 H 0.76154 0.03009 0.87137 0.0
H663 H 0.75664 0.06213 0.89532 0.0
C664 C 0.41088 0.29204 0.51291 0.0
C665 C 0.39848 0.28248 0.53864 0.0
C666 C 0.4357 0.27764 0.50368 0.0
C667 C 0.44869 0.25333 0.52082 0.0
C668 C 0.43542 0.24251 0.54593 0.0
C669 C 0.41032 0.25712 0.55445 0.0
C670 C 0.44891 0.28956 0.47647 0.0
C671 C 0.44873 0.21678 0.56486 0.0
C672 C 0.50822 0.20993 0.48565 0.0
C673 C 0.53321 0.2262 0.4964 0.0
C674 C 0.48054 0.21762 0.49426 0.0
C675 C 0.47787 0.2419 0.51436 0.0
C676 C 0.50316 0.25723 0.52656 0.0
C677 C 0.5304 0.2494 0.51727 0.0
C678 C 0.45403 0.2008 0.48075 0.0
C679 C 0.50131 0.28307 0.54831 0.0
H680 H 0.40159 0.31135 0.50032 0.0
H681 H 0.40086 0.24959 0.57437 0.0
H682 H 0.47 0.30084 0.48332 0.0
H683 H 0.4535 0.27056 0.46146 0.0
H684 H 0.43445 0.30625 0.4638 0.0
H685 H 0.43382 0.20843 0.58113 0.0
H686 H 0.45453 0.19749 0.55074 0.0
H687 H 0.46919 0.22472 0.57733 0.0
H688 H 0.51015 0.19166 0.4699 0.0
H689 H 0.5493 0.26261 0.52536 0.0
H690 H 0.44075 0.21621 0.46537 0.0
H691 H 0.44007 0.19358 0.49829 0.0
H692 H 0.46002 0.18044 0.46811 0.0
H693 H 0.49001 0.30275 0.53686 0.0
H694 H 0.52319 0.29065 0.55789 0.0
H695 H 0.48837 0.27617 0.56679 0.0
C696 C 0.18325 0.97844 0.99619 0.0
C697 C 0.20566 0.95664 0.99719 0.0
C698 C 0.18852 0.00896 0.98949 0.0
C699 C 0.21689 0.01805 0.98345 0.0
C700 C 0.23963 0.99625 0.98418 0.0
C701 C 0.23377 0.96579 0.99112 0.0
C702 C 0.16367 0.03154 0.98904 0.0
C703 C 0.27008 0.00514 0.97765 0.0
C704 C 0.21633 0.09286 0.94153 0.0
C705 C 0.22134 0.11368 0.96492 0.0
C706 C 0.21686 0.0614 0.94697 0.0
C707 C 0.22237 0.05053 0.97653 0.0
C708 C 0.22948 0.07133 -7e-05 0.0
C709 C 0.22895 0.10266 0.99383 0.0
C710 C 0.20938 0.03996 0.92137 0.0
C711 C 0.23563 0.06065 0.03173 0.0
H712 H 0.16148 0.97174 0.00089 0.0
H713 H 0.25124 0.94916 0.99174 0.0
H714 H 0.16918 0.04983 0.00545 0.0
H715 H 0.16014 0.04245 0.96678 0.0
H716 H 0.1429 0.02077 0.99428 0.0
H717 H 0.28528 0.98541 0.97882 0.0
H718 H 0.26958 0.01547 0.95514 0.0
H719 H 0.27884 0.02256 0.99377 0.0
H720 H 0.21019 0.10112 0.91916 0.0
H721 H 0.23334 0.11862 0.01192 0.0
H722 H 0.18717 0.03063 0.92293 0.0
H723 H 0.22478 0.02046 0.92236 0.0
H724 H 0.20982 0.05148 0.89945 0.0
H725 H 0.21516 0.05209 0.04 0.0
H726 H 0.24432 0.07918 0.04666 0.0
H727 H 0.2515 0.04157 0.03315 0.0
C728 C 0.62198 0.65459 0.39208 0.0
C729 C 0.6155 0.64133 0.41907 0.0
C730 C 0.60627 0.6466 0.36506 0.0
C731 C 0.58332 0.62521 0.36514 0.0
C732 C 0.57672 0.61177 0.3923 0.0
C733 C 0.59298 0.61984 0.41885 0.0
C734 C 0.61416 0.66104 0.33646 0.0
C735 C 0.55219 0.58909 0.39341 0.0
C736 C 0.52003 0.62262 0.30546 0.0
C737 C 0.52578 0.59554 0.29073 0.0
C738 C 0.5395 0.6336 0.32865 0.0
C739 C 0.56545 0.6172 0.33715 0.0
C740 C 0.57235 0.59103 0.32096 0.0
C741 C 0.55232 0.58037 0.29804 0.0
C742 C 0.53119 0.66145 0.34549 0.0
C743 C 0.60004 0.5732 0.32903 0.0
H744 H 0.6395 0.67103 0.39201 0.0
H745 H 0.58771 0.60956 0.43957 0.0
H746 H 0.61912 0.64316 0.32037 0.0
H747 H 0.59537 0.67434 0.32611 0.0
H748 H 0.6333 0.67639 0.34004 0.0
H749 H 0.54987 0.58075 0.41635 0.0
H750 H 0.53124 0.59967 0.38456 0.0
H751 H 0.55605 0.56926 0.37914 0.0
H752 H 0.49939 0.63424 0.30015 0.0
H753 H 0.55694 0.55958 0.2865 0.0
H754 H 0.54975 0.67756 0.34837 0.0
H755 H 0.52575 0.65462 0.36804 0.0
H756 H 0.51205 0.67349 0.33407 0.0
H757 H 0.61907 0.5887 0.33211 0.0
H758 H 0.60416 0.55613 0.31181 0.0
H759 H 0.59839 0.56111 0.35045 0.0
C760 C 0.31613 0.46919 0.5754 0.0
C761 C 0.29292 0.44842 0.57408 0.0
C762 C 0.31192 0.49987 0.5821 0.0
C763 C 0.2838 0.51019 0.58776 0.0
C764 C 0.26022 0.48947 0.58651 0.0
C765 C 0.26504 0.45881 0.57963 0.0
C766 C 0.33766 0.52127 0.58316 0.0
C767 C 0.22998 0.49968 0.59254 0.0
C768 C 0.28615 0.58373 0.63126 0.0
C769 C 0.28211 0.60541 0.60833 0.0
C770 C 0.28487 0.5525 0.62507 0.0
C771 C 0.27954 0.54271 0.59523 0.0
C772 C 0.27359 0.56443 0.57222 0.0
C773 C 0.27491 0.59554 0.57905 0.0
C774 C 0.29121 0.53005 0.65026 0.0
C775 C 0.26766 0.55489 0.54013 0.0
H776 H 0.33775 0.46153 0.5711 0.0
H777 H 0.24695 0.44298 0.57874 0.0
H778 H 0.33305 0.54015 0.56701 0.0
H779 H 0.34138 0.53153 0.60561 0.0
H780 H 0.35805 0.50967 0.57797 0.0
H781 H 0.21392 0.48079 0.59048 0.0
H782 H 0.23042 0.50922 0.61531 0.0
H783 H 0.22237 0.51806 0.57677 0.0
H784 H 0.292 0.59111 0.6539 0.0
H785 H 0.27128 0.61218 0.5613 0.0
H786 H 0.31298 0.5196 0.64865 0.0
H787 H 0.27493 0.5114 0.64876 0.0
H788 H 0.29112 0.541 0.6724 0.0
H789 H 0.28796 0.54558 0.5321 0.0
H790 H 0.26002 0.5742 0.52546 0.0
H791 H 0.25103 0.53662 0.53801 0.0
C792 C 0.07372 0.80802 0.04661 0.0
C793 C 0.09849 0.79306 0.03793 0.0
C794 C 0.05104 0.7918 0.05804 0.0
C795 C 0.05334 0.75982 0.0614 0.0
C796 C 0.07857 0.74457 0.05336 0.0
C797 C 0.10077 0.76136 0.04142 0.0
C798 C 0.02433 0.80892 0.06603 0.0
C799 C 0.08201 0.7106 0.05722 0.0
C800 C -0.00024 0.73124 0.11379 0.0
C801 C 0.97567 0.72412 0.09371 0.0
C802 C 0.02635 0.74031 0.10356 0.0
C803 C 0.0287 0.7427 0.07257 0.0
C804 C 0.00533 0.73296 0.0523 0.0
C805 C 0.97919 0.72351 0.06314 0.0
C806 C 0.05101 0.74984 0.12592 0.0
C807 C 0.00691 0.73512 0.01907 0.0
H808 H 0.0717 0.83246 0.04384 0.0
H809 H 0.11998 0.74968 0.03498 0.0
H810 H 0.00463 0.80019 0.05277 0.0
H811 H 0.02112 0.80523 0.08985 0.0
H812 H 0.02593 0.83377 0.06195 0.0
H813 H 0.10364 0.70243 0.05142 0.0
H814 H 0.07929 0.70405 0.08058 0.0
H815 H 0.06476 0.69873 0.04292 0.0
H816 H 0.99732 0.73187 0.13744 0.0
H817 H 0.96088 0.7173 0.04752 0.0
H818 H 0.05213 0.77504 0.12666 0.0
H819 H 0.07225 0.7414 0.1194 0.0
H820 H 0.04792 0.74135 0.14865 0.0
H821 H 0.00591 0.7594 0.01218 0.0
H822 H 0.98866 0.72288 0.0065 0.0
H823 H 0.02785 0.72573 0.01274 0.0
C824 C 0.70939 0.63181 0.63157 0.0
C825 C 0.68578 0.62399 0.61109 0.0
C826 C 0.70938 0.62437 0.66192 0.0
C827 C 0.68537 0.60844 0.67191 0.0
C828 C 0.66129 0.60101 0.65147 0.0
C829 C 0.66173 0.60899 0.62143 0.0
C830 C 0.73524 0.63302 0.68318 0.0
C831 C 0.63529 0.58388 0.66116 0.0
C832 C 0.69038 0.55613 0.7389 0.0
C833 C 0.67436 0.57242 0.7586 0.0
C834 C 0.69604 0.56854 0.71133 0.0
C835 C 0.68558 0.59803 0.70335 0.0
C836 C 0.67155 0.61555 0.72417 0.0
C837 C 0.66595 0.60246 0.75152 0.0
C838 C 0.71097 0.54902 0.68977 0.0
C839 C 0.66054 0.64728 0.71672 0.0
H840 H 0.72799 0.6436 0.62388 0.0
H841 H 0.64336 0.60279 0.6059 0.0
H842 H 0.72783 0.6454 0.70252 0.0
H843 H 0.74669 0.61218 0.69192 0.0
H844 H 0.75105 0.6475 0.67239 0.0
H845 H 0.61808 0.58039 0.64259 0.0
H846 H 0.64236 0.5613 0.67027 0.0
H847 H 0.6256 0.59642 0.67916 0.0
H848 H 0.69669 0.5328 0.74407 0.0
H849 H 0.65387 0.61526 0.76684 0.0
H850 H 0.72812 0.56211 0.67958 0.0
H851 H 0.69475 0.54173 0.67148 0.0
H852 H 0.72107 0.52837 0.70064 0.0
H853 H 0.67718 0.66063 0.706 0.0
H854 H 0.65469 0.65963 0.73679 0.0
H855 H 0.64083 0.64598 0.70068 0.0
C856 C 0.91202 0.11216 0.15099 0.0
C857 C 0.88889 0.13265 0.15305 0.0
C858 C 0.92949 0.10267 0.17639 0.0
C859 C 0.92345 0.11356 0.20467 0.0
C860 C 0.90004 0.1341 0.20702 0.0
C861 C 0.88315 0.14363 0.18111 0.0
C862 C 0.95454 0.08108 0.17289 0.0
C863 C 0.89274 0.14582 0.23686 0.0
C864 C 0.95635 0.06424 0.26828 0.0
C865 C 0.98231 0.07983 0.27672 0.0
C866 C 0.93604 0.07591 0.246 0.0
C867 C 0.94212 0.10355 0.23157 0.0
C868 C 0.96771 0.12001 0.24092 0.0
C869 C 0.98743 0.108 0.26349 0.0
C870 C 0.90876 0.05795 0.23696 0.0
C871 C 0.97517 0.14935 0.22584 0.0
H872 H 0.91672 0.10373 0.12938 0.0
H873 H 0.86515 0.15927 0.18287 0.0
H874 H 0.97536 0.09148 0.18215 0.0
H875 H 0.95154 0.05983 0.18558 0.0
H876 H 0.95653 0.07508 0.14926 0.0
H877 H 0.87344 0.16117 0.23493 0.0
H878 H 0.8883 0.12646 0.25164 0.0
H879 H 0.91163 0.15838 0.2478 0.0
H880 H 0.95226 0.04257 0.27868 0.0
H881 H 0.00765 0.11994 0.2697 0.0
H882 H 0.91015 0.04832 0.21443 0.0
H883 H 0.88928 0.07298 0.23579 0.0
H884 H 0.90555 0.03895 0.25264 0.0
H885 H 0.97997 0.14457 0.20264 0.0
H886 H 0.99444 0.16075 0.23753 0.0
H887 H 0.95639 0.16529 0.22469 0.0
C888 C 0.24652 0.76093 0.07482 0.0
C889 C 0.23716 0.75959 0.04444 0.0
C890 C 0.25969 0.7357 0.0897 0.0
C891 C 0.26448 0.70886 0.07354 0.0
C892 C 0.25517 0.70746 0.04279 0.0
C893 C 0.24115 0.73272 0.02869 0.0
C894 C 0.26855 0.73779 0.12269 0.0
C895 C 0.26072 0.67961 0.02464 0.0
C896 C 0.32544 0.65858 0.1084 0.0
C897 C 0.30995 0.6353 0.12145 0.0
C898 C 0.31089 0.68191 0.0917 0.0
C899 C 0.28004 0.68269 0.08877 0.0
C900 C 0.26417 0.65922 0.10151 0.0
C901 C 0.2793 0.63556 0.11725 0.0
C902 C 0.32861 0.70616 0.07783 0.0
C903 C 0.23122 0.65961 0.09934 0.0
H904 H 0.24315 0.78164 0.08704 0.0
H905 H 0.23408 0.73181 0.00512 0.0
H906 H 0.25884 0.71871 0.13458 0.0
H907 H 0.2926 0.73577 0.12691 0.0
H908 H 0.2616 0.75957 0.1323 0.0
H909 H 0.2519 0.68208 0.001 0.0
H910 H 0.28455 0.67526 0.0254 0.0
H911 H 0.25069 0.65931 0.0342 0.0
H912 H 0.34903 0.65921 0.11184 0.0
H913 H 0.26699 0.61745 0.12655 0.0
H914 H 0.32563 0.72825 0.08895 0.0
H915 H 0.32095 0.70913 0.05395 0.0
H916 H 0.35228 0.70064 0.07966 0.0
H917 H 0.22355 0.68043 0.11011 0.0
H918 H 0.22212 0.63943 0.11014 0.0
H919 H 0.22227 0.66034 0.07569 0.0
C920 C 0.7424 0.74574 0.57969 0.0
C921 C 0.73548 0.74697 0.54886 0.0
C922 C 0.75531 0.77069 0.59499 0.0
C923 C 0.76246 0.79691 0.57881 0.0
C924 C 0.75573 0.79807 0.54758 0.0
C925 C 0.74179 0.77323 0.53302 0.0
C926 C 0.76129 0.769 0.62843 0.0
C927 C 0.76394 0.82518 0.52946 0.0
C928 C 0.77615 0.8714 0.61995 0.0
C929 C 0.80662 0.87082 0.6264 0.0
C930 C 0.76146 0.84743 0.60463 0.0
C931 C 0.77766 0.82278 0.59453 0.0
C932 C 0.80842 0.82248 0.59997 0.0
C933 C 0.82245 0.84617 0.61626 0.0
C934 C 0.72855 0.8482 0.59979 0.0
C935 C 0.82652 0.79691 0.58889 0.0
H936 H 0.73724 0.72543 0.59188 0.0
H937 H 0.73662 0.77394 0.5091 0.0
H938 H 0.78512 0.77009 0.63474 0.0
H939 H 0.7512 0.78877 0.63883 0.0
H940 H 0.75272 0.74777 0.63781 0.0
H941 H 0.7573 0.82239 0.50533 0.0
H942 H 0.75359 0.8461 0.53729 0.0
H943 H 0.78792 0.82863 0.5325 0.0
H944 H 0.76364 0.89052 0.627 0.0
H945 H 0.84586 0.84492 0.62154 0.0
H946 H 0.71936 0.82774 0.60999 0.0
H947 H 0.72144 0.84764 0.57565 0.0
H948 H 0.71914 0.86877 0.60952 0.0
H949 H 0.82156 0.77536 0.60024 0.0
H950 H 0.85032 0.80131 0.5929 0.0
H951 H 0.82099 0.79353 0.56468 0.0
C952 C 0.76882 0.17669 0.17703 0.0
C953 C 0.75413 0.16721 0.15006 0.0
C954 C 0.75431 0.17909 0.20286 0.0
C955 C 0.72424 0.17203 0.20175 0.0
C956 C 0.70943 0.16139 0.17491 0.0
C957 C 0.72462 0.15898 0.14933 0.0
C958 C 0.77102 0.1902 0.23112 0.0
C959 C 0.67738 0.15364 0.17297 0.0
C960 C 0.69751 0.16437 0.27844 0.0
C961 C 0.68873 0.19431 0.28347 0.0
C962 C 0.70732 0.15603 0.25101 0.0
C963 C 0.70824 0.17821 0.22825 0.0
C964 C 0.69739 0.20785 0.23257 0.0
C965 C 0.6878 0.21554 0.26015 0.0
C966 C 0.71861 0.12417 0.24719 0.0
C967 C 0.69779 0.23211 0.2088 0.0
H968 H 0.79175 0.18259 0.17795 0.0
H969 H 0.71316 0.15154 0.12858 0.0
H970 H 0.76221 0.21255 0.23743 0.0
H971 H 0.76832 0.17414 0.24969 0.0
H972 H 0.79471 0.19282 0.22872 0.0
H973 H 0.66982 0.14275 0.15147 0.0
H974 H 0.67274 0.13815 0.19142 0.0
H975 H 0.66446 0.17469 0.1753 0.0
H976 H 0.69828 0.14792 0.29647 0.0
H977 H 0.6805 0.23857 0.26387 0.0
H978 H 0.74279 0.12461 0.24818 0.0
H979 H 0.71046 0.11494 0.22514 0.0
H980 H 0.71215 0.10851 0.26482 0.0
H981 H 0.72069 0.23874 0.20621 0.0
H982 H 0.68548 0.25279 0.2143 0.0
H983 H 0.68835 0.22329 0.18703 0.0
C984 C 0.23195 0.35359 0.65213 0.0
C985 C 0.24909 0.32841 0.64579 0.0
C986 C 0.21888 0.35525 0.67909 0.0
C987 C 0.22282 0.331 0.69984 0.0
C988 C 0.23914 0.30506 0.69295 0.0
C989 C 0.25217 0.30417 0.66613 0.0
C990 C 0.20178 0.38333 0.68581 0.0
C991 C 0.24355 0.27851 0.71429 0.0
C992 C 0.22136 0.33864 0.78306 0.0
C993 C 0.19501 0.32418 0.78765 0.0
C994 C 0.22966 0.34326 0.75424 0.0
C995 C 0.21127 0.33288 0.7295 0.0
C996 C 0.18372 0.32021 0.73392 0.0
C997 C 0.17587 0.31608 0.76301 0.0
C998 C 0.25906 0.35725 0.75045 0.0
C999 C 0.16355 0.30878 0.70813 0.0
H1000 H 0.22962 0.37245 0.63654 0.0
H1001 H 0.26512 0.28449 0.66122 0.0
H1002 H 0.18006 0.37696 0.69269 0.0
H1003 H 0.21345 0.39571 0.70468 0.0
H1004 H 0.1987 0.39901 0.6664 0.0
H1005 H 0.2555 0.25939 0.70483 0.0
H1006 H 0.2561 0.28599 0.73514 0.0
H1007 H 0.22217 0.26999 0.7203 0.0
H1008 H 0.236 0.34529 0.80211 0.0
H1009 H 0.15555 0.30474 0.76649 0.0
H1010 H 0.25716 0.37471 0.73256 0.0
H1011 H 0.27421 0.33938 0.74378 0.0
H1012 H 0.26882 0.36791 0.7713 0.0
H1013 H 0.16177 0.32558 0.68965 0.0
H1014 H 0.14134 0.30392 0.71475 0.0
H1015 H 0.17261 0.2875 0.6995 0.0
C1016 C 0.74991 0.69693 0.41468 0.0
C1017 C 0.75156 0.67218 0.43445 0.0
C1018 C 0.76392 0.69624 0.38844 0.0
C1019 C 0.77984 0.67001 0.38158 0.0
C1020 C 0.78264 0.64537 0.40198 0.0
C1021 C 0.76854 0.64681 0.42835 0.0
C1022 C 0.76069 0.72322 0.3675 0.0
C1023 C 0.79937 0.61702 0.39534 0.0
C1024 C 0.78161 0.66332 0.29837 0.0
C1025 C 0.8082 0.67744 0.2941 0.0
C1026 C 0.77313 0.65841 0.32707 0.0
C1027 C 0.79163 0.66808 0.35204 0.0
C1028 C 0.81945 0.68024 0.34792 0.0
C1029 C 0.82745 0.68473 0.31892 0.0
C1030 C 0.74342 0.645 0.33052 0.0
C1031 C 0.83978 0.6908 0.37395 0.0
H1032 H 0.73712 0.71677 0.41946 0.0
H1033 H 0.7698 0.62757 0.44353 0.0
H1034 H 0.78244 0.7311 0.36195 0.0
H1035 H 0.74819 0.71643 0.34638 0.0
H1036 H 0.7492 0.74259 0.37707 0.0
H1037 H 0.80238 0.6015 0.41488 0.0
H1038 H 0.78739 0.60462 0.37668 0.0
H1039 H 0.82111 0.62299 0.38823 0.0
H1040 H 0.7669 0.65724 0.27918 0.0
H1041 H 0.84799 0.69576 0.31569 0.0
H1042 H 0.72861 0.6631 0.33739 0.0
H1043 H 0.74487 0.62725 0.34813 0.0
H1044 H 0.73352 0.63486 0.30947 0.0
H1045 H 0.83136 0.71236 0.38265 0.0
H1046 H 0.86221 0.6949 0.36755 0.0
H1047 H 0.84086 0.67387 0.39231 0.0
C1048 C 0.77923 0.2663 0.02421 0.0
C1049 C 0.76204 0.24144 0.03127 0.0
C1050 C 0.76697 0.29101 0.00766 0.0
C1051 C 0.7367 0.29111 0.99857 0.0
C1052 C 0.71912 0.26644 0.00635 0.0
C1053 C 0.73207 0.24173 0.0223 0.0
C1054 C 0.78651 0.31659 0.99921 0.0
C1055 C 0.68666 0.266 0.99754 0.0
C1056 C 0.6983 0.36516 0.97514 0.0
C1057 C 0.69461 0.36182 0.94418 0.0
C1058 C 0.7124 0.3425 0.99322 0.0
C1059 C 0.72351 0.31634 0.97984 0.0
C1060 C 0.72081 0.31355 0.94845 0.0
C1061 C 0.70608 0.3362 0.93102 0.0
C1062 C 0.71443 0.346 0.02661 0.0
C1063 C 0.73288 0.28631 0.93332 0.0
H1064 H 0.80246 0.26606 0.0309 0.0
H1065 H 0.71866 0.22267 0.02794 0.0
H1066 H 0.78606 0.31813 0.97462 0.0
H1067 H 0.77843 0.33863 0.00713 0.0
H1068 H 0.80949 0.31339 0.0086 0.0
H1069 H 0.67582 0.24603 0.0069 0.0
H1070 H 0.67638 0.28704 0.00526 0.0
H1071 H 0.68254 0.26543 0.97294 0.0
H1072 H 0.68918 0.38493 0.98523 0.0
H1073 H 0.70331 0.33383 0.90701 0.0
H1074 H 0.73743 0.34377 0.03609 0.0
H1075 H 0.70188 0.32759 0.03647 0.0
H1076 H 0.70579 0.36827 0.03344 0.0
H1077 H 0.75624 0.28294 0.94114 0.0
H1078 H 0.73088 0.28873 0.90869 0.0
H1079 H 0.72106 0.26549 0.93922 0.0
C1080 C 0.26868 0.22143 0.53809 0.0
C1081 C 0.25844 0.25086 0.53066 0.0
C1082 C 0.25593 0.19574 0.52394 0.0
C1083 C 0.23245 0.19955 0.50174 0.0
C1084 C 0.22199 0.22911 0.4941 0.0
C1085 C 0.23506 0.2544 0.50868 0.0
C1086 C 0.2676 0.16454 0.53271 0.0
C1087 C 0.19703 0.23404 0.47042 0.0
C1088 C 0.21526 0.13777 0.44441 0.0
C1089 C 0.19062 0.12412 0.45489 0.0
C1090 C 0.2295 0.16194 0.4598 0.0
C1091 C 0.21884 0.17265 0.48632 0.0
C1092 C 0.19449 0.15839 0.49748 0.0
C1093 C 0.18064 0.1343 0.48159 0.0
C1094 C 0.25537 0.17664 0.44718 0.0
C1095 C 0.18266 0.16904 0.52583 0.0
H1096 H 0.28668 0.21837 0.55507 0.0
H1097 H 0.227 0.27698 0.50268 0.0
H1098 H 0.24991 0.1503 0.54054 0.0
H1099 H 0.27544 0.15302 0.51309 0.0
H1100 H 0.28584 0.16545 0.55058 0.0
H1101 H 0.19149 0.2585 0.46708 0.0
H1102 H 0.20271 0.22451 0.44895 0.0
H1103 H 0.17734 0.22186 0.47659 0.0
H1104 H 0.22283 0.13025 0.42358 0.0
H1105 H 0.16179 0.12358 0.48993 0.0
H1106 H 0.27436 0.177 0.46419 0.0
H1107 H 0.25007 0.20061 0.44104 0.0
H1108 H 0.26181 0.16465 0.42715 0.0
H1109 H 0.20025 0.16898 0.54435 0.0
H1110 H 0.16446 0.15458 0.53224 0.0
H1111 H 0.17466 0.19279 0.52298 0.0
C1112 C 0.2314 0.8296 0.90028 0.0
C1113 C 0.2461 0.83642 0.92805 0.0
C1114 C 0.24642 0.82695 0.87482 0.0
C1115 C 0.27702 0.83114 0.87709 0.0
C1116 C 0.29189 0.83951 0.90471 0.0
C1117 C 0.2762 0.84214 0.92995 0.0
C1118 C 0.22962 0.81826 0.84575 0.0
C1119 C 0.32448 0.84435 0.90788 0.0
C1120 C 0.31083 0.78481 0.81892 0.0
C1121 C 0.31222 0.80618 0.79595 0.0
C1122 C 0.30146 0.7932 0.8464 0.0
C1123 C 0.29328 0.82375 0.85104 0.0
C1124 C 0.29673 0.8459 0.82874 0.0
C1125 C 0.30619 0.83683 0.80136 0.0
C1126 C 0.29828 0.76889 0.86963 0.0
C1127 C 0.28845 0.87873 0.83296 0.0
H1128 H 0.20804 0.82572 0.89846 0.0
H1129 H 0.28768 0.84757 0.95131 0.0
H1130 H 0.23442 0.8344 0.82787 0.0
H1131 H 0.23652 0.7953 0.83899 0.0
H1132 H 0.20566 0.81799 0.84731 0.0
H1133 H 0.33212 0.85475 0.92959 0.0
H1134 H 0.33571 0.82216 0.90611 0.0
H1135 H 0.33112 0.85913 0.88969 0.0
H1136 H 0.31609 0.7612 0.81497 0.0
H1137 H 0.30727 0.85341 0.78365 0.0
H1138 H 0.27477 0.76458 0.87158 0.0
H1139 H 0.30805 0.7765 0.89173 0.0
H1140 H 0.30874 0.74712 0.864 0.0
H1141 H 0.26432 0.88088 0.83102 0.0
H1142 H 0.29711 0.89384 0.81604 0.0
H1143 H 0.29664 0.88674 0.85546 0.0
loop_
_geom_bond_atom_site_label_1
_geom_bond_atom_site_label_2
_geom_bond_distance
_geom_bond_site_symmetry_2
_ccdc_geom_bond_type
Sc0 O3 2.025 . S
Sc0 O10 2.105 . S
Sc0 O13 2.105 . S
Sc0 O16 2.105 . S
Sc0 O19 2.105 1_554 S
Sc1 O3 2.025 1_556 S
Sc1 O11 2.105 . S
Sc1 O15 2.105 1_556 S
Sc1 O17 2.105 1_556 S
Sc1 O21 2.105 . S
Sc2 O3 2.025 . S
Sc2 O12 2.105 1_554 S
Sc2 O14 2.105 . S
Sc2 O18 2.105 . S
Sc2 O20 2.105 . S
O3 Sc0 2.025 . S
O3 Sc1 2.025 1_554 S
O3 Sc2 2.025 . S
C4 O10 1.268 1_556 S
C4 O20 1.268 1_556 S
C5 O11 1.268 . S
C5 O19 1.268 . S
C6 O12 1.268 . S
C6 O21 1.268 . S
C7 O13 1.268 . S
C7 O17 1.268 . S
C8 O14 1.268 . S
C8 O16 1.268 . S
C9 O15 1.268 . S
C9 O18 1.268 . S
O10 Sc0 2.105 . S
O10 C4 1.268 1_554 S
O11 Sc1 2.105 . S
O11 C5 1.268 . S
O12 Sc2 2.105 1_556 S
O12 C6 1.268 . S
O13 Sc0 2.105 . S
O13 C7 1.268 . S
O14 Sc2 2.105 . S
O14 C8 1.268 . S
O15 Sc1 2.105 1_554 S
O15 C9 1.268 . S
O16 Sc0 2.105 . S
O16 C8 1.268 . S
O17 Sc1 2.105 1_554 S
O17 C7 1.268 . S
O18 Sc2 2.105 . S
O18 C9 1.268 . S
O19 Sc0 2.105 1_556 S
O19 C5 1.268 . S
O20 Sc2 2.105 . S
O20 C4 1.268 1_554 S
O21 Sc1 2.105 . S
O21 C6 1.268 . S
Sc22 O25 2.025 . S
Sc22 O32 2.105 . S
Sc22 O35 2.105 . S
Sc22 O38 2.105 . S
Sc22 O41 2.105 . S
Sc23 O25 2.025 . S
Sc23 O33 2.105 . S
Sc23 O37 2.105 . S
Sc23 O39 2.105 . S
Sc23 O43 2.105 . S
Sc24 O25 2.025 . S
Sc24 O34 2.105 . S
Sc24 O36 2.105 . S
Sc24 O40 2.105 . S
Sc24 O42 2.105 . S
O25 Sc22 2.025 . S
O25 Sc23 2.025 . S
O25 Sc24 2.025 . S
C26 O32 1.268 . S
C26 O42 1.268 . S
C27 O33 1.268 . S
C27 O41 1.268 . S
C28 O34 1.268 . S
C28 O43 1.268 . S
C29 O35 1.268 . S
C29 O39 1.268 . S
C30 O36 1.268 . S
C30 O38 1.268 . S
C31 O37 1.268 . S
C31 O40 1.268 . S
O32 Sc22 2.105 . S
O32 C26 1.268 . S
O33 Sc23 2.105 . S
O33 C27 1.268 . S
O34 Sc24 2.105 . S
O34 C28 1.268 . S
O35 Sc22 2.105 . S
O35 C29 1.268 . S
O36 Sc24 2.105 . S
O36 C30 1.268 . S
O37 Sc23 2.105 . S
O37 C31 1.268 . S
O38 Sc22 2.105 . S
O38 C30 1.268 . S
O39 Sc23 2.105 . S
O39 C29 1.268 . S
O40 Sc24 2.105 . S
O40 C31 1.268 . S
O41 Sc22 2.105 . S
O41 C27 1.268 . S
O42 Sc24 2.105 . S
O42 C26 1.268 . S
O43 Sc23 2.105 . S
O43 C28 1.268 . S
Sc44 O47 2.025 . S
Sc44 O54 2.105 . S
Sc44 O57 2.105 . S
Sc44 O60 2.105 . S
Sc44 O63 2.105 . S
Sc45 O47 2.025 . S
Sc45 O55 2.105 . S
Sc45 O59 2.105 . S
Sc45 O61 2.105 . S
Sc45 O65 2.105 . S
Sc46 O47 2.025 . S
Sc46 O56 2.105 . S
Sc46 O58 2.105 . S
Sc46 O62 2.105 . S
Sc46 O64 2.105 . S
O47 Sc44 2.025 . S
O47 Sc45 2.025 . S
O47 Sc46 2.025 . S
C48 O54 1.268 . S
C48 O64 1.268 . S
C49 O55 1.268 . S
C49 O63 1.268 . S
C50 O56 1.279 . S
C50 O65 1.281 . S
C51 O57 1.268 . S
C51 O61 1.268 . S
C52 O58 1.268 . S
C52 O60 1.268 . S
C53 O59 1.268 . S
C53 O62 1.268 . S
O54 Sc44 2.105 . S
O54 C48 1.268 . S
O55 Sc45 2.105 . S
O55 C49 1.268 . S
O56 Sc46 2.105 . S
O56 C50 1.279 . S
O57 Sc44 2.105 . S
O57 C51 1.268 . S
O58 Sc46 2.105 . S
O58 C52 1.268 . S
O59 Sc45 2.105 . S
O59 C53 1.268 . S
O60 Sc44 2.105 . S
O60 C52 1.268 . S
O61 Sc45 2.105 . S
O61 C51 1.268 . S
O62 Sc46 2.105 . S
O62 C53 1.268 . S
O63 Sc44 2.105 . S
O63 C49 1.268 . S
O64 Sc46 2.105 . S
O64 C48 1.268 . S
O65 Sc45 2.105 . S
O65 C50 1.281 . S
Sc66 O69 2.025 . S
Sc66 O76 2.105 . S
Sc66 O79 2.105 . S
Sc66 O82 2.105 . S
Sc66 O85 2.105 . S
Sc67 O69 2.025 . S
Sc67 O77 2.105 . S
Sc67 O81 2.105 . S
Sc67 O83 2.105 . S
Sc67 O87 2.105 . S
Sc68 O69 2.025 . S
Sc68 O78 2.105 . S
Sc68 O80 2.105 . S
Sc68 O84 2.105 . S
Sc68 O86 2.105 . S
O69 Sc66 2.025 . S
O69 Sc67 2.025 . S
O69 Sc68 2.025 . S
C70 O76 1.268 . S
C70 O86 1.268 . S
C71 O77 1.268 . S
C71 O85 1.268 . S
C72 O78 1.268 . S
C72 O87 1.268 . S
C73 O79 1.268 . S
C73 O83 1.268 . S
C74 O80 1.268 . S
C74 O82 1.268 . S
C75 O81 1.268 . S
C75 O84 1.268 . S
O76 Sc66 2.105 . S
O76 C70 1.268 . S
O77 Sc67 2.105 . S
O77 C71 1.268 . S
O78 Sc68 2.105 . S
O78 C72 1.268 . S
O79 Sc66 2.105 . S
O79 C73 1.268 . S
O80 Sc68 2.105 . S
O80 C74 1.268 . S
O81 Sc67 2.105 . S
O81 C75 1.268 . S
O82 Sc66 2.105 . S
O82 C74 1.268 . S
O83 Sc67 2.105 . S
O83 C73 1.268 . S
O84 Sc68 2.105 . S
O84 C75 1.268 . S
O85 Sc66 2.105 . S
O85 C71 1.268 . S
O86 Sc68 2.105 . S
O86 C70 1.268 . S
O87 Sc67 2.105 . S
O87 C72 1.268 . S
C88 C89 1.384 . S
C88 H101 0.947 . S
C88 C123 1.382 . S
C89 C88 1.384 . S
C89 C90 1.378 . S
C90 C89 1.378 . S
C90 C91 1.378 . S
C90 H102 0.952 . S
C91 C90 1.378 . S
C91 H103 0.950 . S
C91 C122 1.383 . S
H92 C111 0.947 . S
H93 C112 0.946 . S
H94 C114 0.953 . S
H95 C115 0.945 . S
H96 C117 0.968 . S
H97 C118 0.949 . S
H98 C120 0.950 . S
H99 C121 0.954 . S
H100 C123 0.951 . S
H101 C88 0.947 . S
H102 C90 0.952 . S
H103 C91 0.950 . S
N104 C107 1.382 . S
N104 C109 1.363 . S
N105 C107 1.371 . S
N105 C108 1.372 . S
N106 C108 1.361 . S
N106 C109 1.377 . S
C107 N104 1.382 . S
C107 N105 1.371 . S
C107 C110 1.480 . S
C108 N105 1.372 . S
C108 N106 1.361 . S
C108 C116 1.457 . S
C109 N104 1.363 . S
C109 N106 1.377 . S
C109 C122 1.479 . S
C110 C107 1.480 . S
C110 C111 1.383 . S
C110 C115 1.385 . S
C111 H92 0.947 . S
C111 C110 1.383 . S
C111 C112 1.388 . S
C112 H93 0.946 . S
C112 C111 1.388 . S
C112 C113 1.384 . S
C113 C112 1.384 . S
C113 C114 1.377 . S
C114 H94 0.953 . S
C114 C113 1.377 . S
C114 C115 1.369 . S
C115 H95 0.945 . S
C115 C110 1.385 . S
C115 C114 1.369 . S
C116 C108 1.457 . S
C116 C117 1.386 . S
C116 C121 1.371 . S
C117 H96 0.968 . S
C117 C116 1.386 . S
C117 C118 1.359 1_545 S
C118 H97 0.949 . S
C118 C117 1.359 1_565 S
C118 C119 1.387 . S
C119 C118 1.387 . S
C119 C120 1.372 . S
C120 H98 0.950 . S
C120 C119 1.372 . S
C120 C121 1.366 1_565 S
C121 H99 0.954 . S
C121 C116 1.371 . S
C121 C120 1.366 1_545 S
C122 C91 1.383 . S
C122 C109 1.479 . S
C122 C123 1.398 . S
C123 C88 1.382 . S
C123 H100 0.951 . S
C123 C122 1.398 . S
C124 C125 1.384 . S
C124 H137 0.947 . S
C124 C159 1.382 . S
C125 C124 1.384 . S
C125 C126 1.378 . S
C126 C125 1.378 . S
C126 C127 1.378 . S
C126 H138 0.952 . S
C127 C126 1.378 . S
C127 H139 0.950 . S
C127 C158 1.383 . S
H128 C147 0.947 . S
H129 C148 0.946 . S
H130 C150 0.953 . S
H131 C151 0.945 . S
H132 C153 0.952 . S
H133 C154 0.949 . S
H134 C156 0.950 . S
H135 C157 0.948 . S
H136 C159 0.951 . S
H137 C124 0.947 . S
H138 C126 0.952 . S
H139 C127 0.950 . S
N140 C143 1.382 . S
N140 C145 1.363 . S
N141 C143 1.371 . S
N141 C144 1.372 . S
N142 C144 1.361 . S
N142 C145 1.377 . S
C143 N140 1.382 . S
C143 N141 1.371 . S
C143 C146 1.480 . S
C144 N141 1.372 . S
C144 N142 1.361 . S
C144 C152 1.457 . S
C145 N140 1.363 . S
C145 N142 1.377 . S
C145 C158 1.479 . S
C146 C143 1.480 . S
C146 C147 1.383 . S
C146 C151 1.385 . S
C147 H128 0.947 . S
C147 C146 1.383 . S
C147 C148 1.388 . S
C148 H129 0.946 . S
C148 C147 1.388 . S
C148 C149 1.384 . S
C149 C148 1.384 . S
C149 C150 1.377 . S
C150 H130 0.953 . S
C150 C149 1.377 . S
C150 C151 1.369 . S
C151 H131 0.945 . S
C151 C146 1.385 . S
C151 C150 1.369 . S
C152 C144 1.457 . S
C152 C153 1.372 . S
C152 C157 1.364 . S
C153 H132 0.952 . S
C153 C152 1.372 . S
C153 C154 1.389 . S
C154 H133 0.949 . S
C154 C153 1.389 . S
C154 C155 1.387 . S
C155 C154 1.387 . S
C155 C156 1.372 . S
C156 H134 0.950 . S
C156 C155 1.372 . S
C156 C157 1.379 . S
C157 H135 0.948 . S
C157 C152 1.364 . S
C157 C156 1.379 . S
C158 C127 1.383 . S
C158 C145 1.479 . S
C158 C159 1.398 . S
C159 C124 1.382 . S
C159 H136 0.951 . S
C159 C158 1.398 . S
C160 C161 1.384 . S
C160 H173 0.947 . S
C160 C195 1.382 . S
C161 C160 1.384 . S
C161 C162 1.378 . S
C162 C161 1.378 . S
C162 C163 1.378 . S
C162 H174 0.952 . S
C163 C162 1.378 . S
C163 H175 0.950 . S
C163 C194 1.383 . S
H164 C183 0.947 . S
H165 C184 0.946 . S
H166 C186 0.953 . S
H167 C187 0.945 . S
H168 C189 0.952 . S
H169 C190 0.949 . S
H170 C192 0.950 . S
H171 C193 0.948 . S
H172 C195 0.951 . S
H173 C160 0.947 . S
H174 C162 0.952 . S
H175 C163 0.950 . S
N176 C179 1.382 . S
N176 C181 1.363 . S
N177 C179 1.371 . S
N177 C180 1.372 . S
N178 C180 1.361 . S
N178 C181 1.377 . S
C179 N176 1.382 . S
C179 N177 1.371 . S
C179 C182 1.480 . S
C180 N177 1.372 . S
C180 N178 1.361 . S
C180 C188 1.457 . S
C181 N176 1.363 . S
C181 N178 1.377 . S
C181 C194 1.479 . S
C182 C179 1.480 . S
C182 C183 1.383 . S
C182 C187 1.385 . S
C183 H164 0.947 . S
C183 C182 1.383 . S
C183 C184 1.388 . S
C184 H165 0.946 . S
C184 C183 1.388 . S
C184 C185 1.384 . S
C185 C184 1.384 . S
C185 C186 1.377 . S
C186 H166 0.953 . S
C186 C185 1.377 . S
C186 C187 1.369 . S
C187 H167 0.945 . S
C187 C182 1.385 . S
C187 C186 1.369 . S
C188 C180 1.457 . S
C188 C189 1.372 . S
C188 C193 1.364 . S
C189 H168 0.952 . S
C189 C188 1.372 . S
C189 C190 1.389 . S
C190 H169 0.949 . S
C190 C189 1.389 . S
C190 C191 1.387 . S
C191 C190 1.387 . S
C191 C192 1.372 . S
C192 H170 0.950 . S
C192 C191 1.372 . S
C192 C193 1.379 . S
C193 H171 0.948 . S
C193 C188 1.364 . S
C193 C192 1.379 . S
C194 C163 1.383 . S
C194 C181 1.479 . S
C194 C195 1.398 . S
C195 C160 1.382 . S
C195 H172 0.951 . S
C195 C194 1.398 . S
C196 C197 1.384 . S
C196 H209 0.947 . S
C196 C231 1.382 . S
C197 C196 1.384 . S
C197 C198 1.378 . S
C198 C197 1.378 . S
C198 C199 1.378 . S
C198 H210 0.952 . S
C199 C198 1.378 . S
C199 H211 0.950 . S
C199 C230 1.383 . S
H200 C219 0.947 . S
H201 C220 0.946 . S
H202 C222 0.953 . S
H203 C223 0.945 . S
H204 C225 0.952 . S
H205 C226 0.949 . S
H206 C228 0.950 . S
H207 C229 0.948 . S
H208 C231 0.951 . S
H209 C196 0.947 . S
H210 C198 0.952 . S
H211 C199 0.950 . S
N212 C215 1.382 . S
N212 C217 1.363 . S
N213 C215 1.371 . S
N213 C216 1.372 . S
N214 C216 1.361 . S
N214 C217 1.377 . S
C215 N212 1.382 . S
C215 N213 1.371 . S
C215 C218 1.480 . S
C216 N213 1.372 . S
C216 N214 1.361 . S
C216 C224 1.457 . S
C217 N212 1.363 . S
C217 N214 1.377 . S
C217 C230 1.479 . S
C218 C215 1.480 . S
C218 C219 1.383 . S
C218 C223 1.385 . S
C219 H200 0.947 . S
C219 C218 1.383 . S
C219 C220 1.388 . S
C220 H201 0.946 . S
C220 C219 1.388 . S
C220 C221 1.384 . S
C221 C220 1.384 . S
C221 C222 1.377 . S
C222 H202 0.953 . S
C222 C221 1.377 . S
C222 C223 1.369 . S
C223 H203 0.945 . S
C223 C218 1.385 . S
C223 C222 1.369 . S
C224 C216 1.457 . S
C224 C225 1.372 . S
C224 C229 1.364 . S
C225 H204 0.952 . S
C225 C224 1.372 . S
C225 C226 1.389 . S
C226 H205 0.949 . S
C226 C225 1.389 . S
C226 C227 1.387 . S
C227 C226 1.387 . S
C227 C228 1.372 . S
C228 H206 0.950 . S
C228 C227 1.372 . S
C228 C229 1.379 . S
C229 H207 0.948 . S
C229 C224 1.364 . S
C229 C228 1.379 . S
C230 C199 1.383 . S
C230 C217 1.479 . S
C230 C231 1.398 . S
C231 C196 1.382 . S
C231 H208 0.951 . S
C231 C230 1.398 . S
C232 C233 1.384 . S
C232 H245 0.947 . S
C232 C267 1.382 . S
C233 C232 1.384 . S
C233 C234 1.378 . S
C234 C233 1.378 . S
C234 C235 1.378 . S
C234 H246 0.952 . S
C235 C234 1.378 . S
C235 H247 0.950 . S
C235 C266 1.383 . S
H236 C255 0.947 . S
H237 C256 0.946 . S
H238 C258 0.953 . S
H239 C259 0.945 . S
H240 C261 0.952 . S
H241 C262 0.949 . S
H242 C264 0.950 . S
H243 C265 0.948 . S
H244 C267 0.951 . S
H245 C232 0.947 . S
H246 C234 0.952 . S
H247 C235 0.950 . S
N248 C251 1.382 . S
N248 C253 1.363 . S
N249 C251 1.371 . S
N249 C252 1.372 . S
N250 C252 1.361 . S
N250 C253 1.377 . S
C251 N248 1.382 . S
C251 N249 1.371 . S
C251 C254 1.480 . S
C252 N249 1.372 . S
C252 N250 1.361 . S
C252 C260 1.457 . S
C253 N248 1.363 . S
C253 N250 1.377 . S
C253 C266 1.479 . S
C254 C251 1.480 . S
C254 C255 1.383 . S
C254 C259 1.385 . S
C255 H236 0.947 . S
C255 C254 1.383 . S
C255 C256 1.388 . S
C256 H237 0.946 . S
C256 C255 1.388 . S
C256 C257 1.384 . S
C257 C256 1.384 . S
C257 C258 1.377 . S
C258 H238 0.953 . S
C258 C257 1.377 . S
C258 C259 1.369 . S
C259 H239 0.945 . S
C259 C254 1.385 . S
C259 C258 1.369 . S
C260 C252 1.457 . S
C260 C261 1.372 . S
C260 C265 1.364 . S
C261 H240 0.952 . S
C261 C260 1.372 . S
C261 C262 1.389 . S
C262 H241 0.949 . S
C262 C261 1.389 . S
C262 C263 1.387 . S
C263 C262 1.387 . S
C263 C264 1.372 . S
C264 H242 0.950 . S
C264 C263 1.372 . S
C264 C265 1.379 . S
C265 H243 0.948 . S
C265 C260 1.364 . S
C265 C264 1.379 . S
C266 C235 1.383 . S
C266 C253 1.479 . S
C266 C267 1.398 . S
C267 C232 1.382 . S
C267 H244 0.951 . S
C267 C266 1.398 . S
C268 C269 1.384 . S
C268 H281 0.947 . S
C268 C303 1.382 . S
C269 C268 1.384 . S
C269 C270 1.378 . S
C270 C269 1.378 . S
C270 C271 1.378 . S
C270 H282 0.952 . S
C271 C270 1.378 . S
C271 H283 0.950 . S
C271 C302 1.383 . S
H272 C291 0.947 . S
H273 C292 0.946 . S
H274 C294 0.953 . S
H275 C295 0.945 . S
H276 C297 0.952 . S
H277 C298 0.949 . S
H278 C300 0.950 . S
H279 C301 0.948 . S
H280 C303 0.951 . S
H281 C268 0.947 . S
H282 C270 0.952 . S
H283 C271 0.950 . S
N284 C287 1.382 . S
N284 C289 1.363 . S
N285 C287 1.371 . S
N285 C288 1.372 . S
N286 C288 1.361 . S
N286 C289 1.377 . S
C287 N284 1.382 . S
C287 N285 1.371 . S
C287 C290 1.480 . S
C288 N285 1.372 . S
C288 N286 1.361 . S
C288 C296 1.457 . S
C289 N284 1.363 . S
C289 N286 1.377 . S
C289 C302 1.479 . S
C290 C287 1.480 . S
C290 C291 1.383 . S
C290 C295 1.385 . S
C291 H272 0.947 . S
C291 C290 1.383 . S
C291 C292 1.388 . S
C292 H273 0.946 . S
C292 C291 1.388 . S
C292 C293 1.384 . S
C293 C292 1.384 . S
C293 C294 1.377 . S
C294 H274 0.953 . S
C294 C293 1.377 . S
C294 C295 1.369 . S
C295 H275 0.945 . S
C295 C290 1.385 . S
C295 C294 1.369 . S
C296 C288 1.457 . S
C296 C297 1.372 . S
C296 C301 1.364 . S
C297 H276 0.952 . S
C297 C296 1.372 . S
C297 C298 1.389 . S
C298 H277 0.949 . S
C298 C297 1.389 . S
C298 C299 1.387 . S
C299 C298 1.387 . S
C299 C300 1.372 . S
C300 H278 0.950 . S
C300 C299 1.372 . S
C300 C301 1.379 . S
C301 H279 0.948 . S
C301 C296 1.364 . S
C301 C300 1.379 . S
C302 C271 1.383 . S
C302 C289 1.479 . S
C302 C303 1.398 . S
C303 C268 1.382 . S
C303 H280 0.951 . S
C303 C302 1.398 . S
C304 C305 1.384 . S
C304 H317 0.947 . S
C304 C339 1.382 . S
C305 C304 1.384 . S
C305 C306 1.378 . S
C306 C305 1.378 . S
C306 C307 1.378 . S
C306 H318 0.952 . S
C307 C306 1.378 . S
C307 H319 0.950 . S
C307 C338 1.383 . S
H308 C327 0.947 . S
H309 C328 0.946 . S
H310 C330 0.953 . S
H311 C331 0.945 . S
H312 C333 0.952 . S
H313 C334 0.949 . S
H314 C336 0.950 . S
H315 C337 0.948 . S
H316 C339 0.951 . S
H317 C304 0.947 . S
H318 C306 0.952 . S
H319 C307 0.950 . S
N320 C323 1.382 . S
N320 C325 1.363 . S
N321 C323 1.371 . S
N321 C324 1.372 . S
N322 C324 1.361 . S
N322 C325 1.377 . S
C323 N320 1.382 . S
C323 N321 1.371 . S
C323 C326 1.480 . S
C324 N321 1.372 . S
C324 N322 1.361 . S
C324 C332 1.457 . S
C325 N320 1.363 . S
C325 N322 1.377 . S
C325 C338 1.479 . S
C326 C323 1.480 . S
C326 C327 1.383 . S
C326 C331 1.385 . S
C327 H308 0.947 . S
C327 C326 1.383 . S
C327 C328 1.388 . S
C328 H309 0.946 . S
C328 C327 1.388 . S
C328 C329 1.384 . S
C329 C328 1.384 . S
C329 C330 1.377 . S
C330 H310 0.953 . S
C330 C329 1.377 . S
C330 C331 1.369 . S
C331 H311 0.945 . S
C331 C326 1.385 . S
C331 C330 1.369 . S
C332 C324 1.457 . S
C332 C333 1.372 . S
C332 C337 1.364 . S
C333 H312 0.952 . S
C333 C332 1.372 . S
C333 C334 1.389 . S
C334 H313 0.949 . S
C334 C333 1.389 . S
C334 C335 1.387 . S
C335 C334 1.387 . S
C335 C336 1.372 . S
C336 H314 0.950 . S
C336 C335 1.372 . S
C336 C337 1.379 . S
C337 H315 0.948 . S
C337 C332 1.364 . S
C337 C336 1.379 . S
C338 C307 1.383 . S
C338 C325 1.479 . S
C338 C339 1.398 . S
C339 C304 1.382 . S
C339 H316 0.951 . S
C339 C338 1.398 . S
C340 C341 1.384 . S
C340 H353 0.947 . S
C340 C375 1.382 . S
C341 C340 1.384 . S
C341 C342 1.378 . S
C342 C341 1.378 . S
C342 C343 1.378 1_545 S
C342 H354 0.952 . S
C343 C342 1.378 1_565 S
C343 H355 0.950 . S
C343 C374 1.383 . S
H344 C363 0.947 . S
H345 C364 0.946 . S
H346 C366 0.953 . S
H347 C367 0.945 . S
H348 C369 0.952 . S
H349 C370 0.949 . S
H350 C372 0.950 . S
H351 C373 0.948 . S
H352 C375 0.954 . S
H353 C340 0.947 . S
H354 C342 0.952 . S
H355 C343 0.950 . S
N356 C359 1.382 . S
N356 C361 1.363 . S
N357 C359 1.371 . S
N357 C360 1.372 . S
N358 C360 1.361 . S
N358 C361 1.377 . S
C359 N356 1.382 . S
C359 N357 1.371 . S
C359 C362 1.480 . S
C360 N357 1.372 . S
C360 N358 1.361 . S
C360 C368 1.457 . S
C361 N356 1.363 . S
C361 N358 1.377 . S
C361 C374 1.479 . S
C362 C359 1.480 . S
C362 C363 1.383 . S
C362 C367 1.385 . S
C363 H344 0.947 . S
C363 C362 1.383 . S
C363 C364 1.388 . S
C364 H345 0.946 . S
C364 C363 1.388 . S
C364 C365 1.384 . S
C365 C364 1.384 . S
C365 C366 1.377 . S
C366 H346 0.953 . S
C366 C365 1.377 . S
C366 C367 1.369 . S
C367 H347 0.945 . S
C367 C362 1.385 . S
C367 C366 1.369 . S
C368 C360 1.457 . S
C368 C369 1.372 . S
C368 C373 1.364 . S
C369 H348 0.952 . S
C369 C368 1.372 . S
C369 C370 1.389 . S
C370 H349 0.949 . S
C370 C369 1.389 . S
C370 C371 1.387 . S
C371 C370 1.387 . S
C371 C372 1.372 . S
C372 H350 0.950 . S
C372 C371 1.372 . S
C372 C373 1.379 . S
C373 H351 0.948 . S
C373 C368 1.364 . S
C373 C372 1.379 . S
C374 C343 1.383 . S
C374 C361 1.479 . S
C374 C375 1.398 1_565 S
C375 C340 1.382 . S
C375 H352 0.954 . S
C375 C374 1.398 1_545 S
C376 C377 1.391 . S
C376 C378 1.394 . S
C376 H392 0.931 . S
C377 C376 1.391 . S
C377 C381 1.376 . S
C378 C376 1.394 . S
C378 C379 1.369 . S
C378 C382 1.531 . S
C379 C378 1.369 . S
C379 C380 1.410 . S
C379 C387 1.503 . S
C380 C379 1.410 . S
C380 C381 1.392 . S
C380 C383 1.511 . S
C381 C377 1.376 . S
C381 C380 1.392 . S
C381 H393 0.929 . S
C382 C378 1.531 . S
C382 H394 0.960 . S
C382 H395 0.962 . S
C382 H396 0.960 . S
C383 C380 1.511 . S
C383 H397 0.961 . S
C383 H398 0.961 . S
C383 H399 0.961 . S
C384 C385 1.370 . S
C384 C386 1.363 . S
C384 H400 0.931 . S
C385 C384 1.370 . S
C385 C389 1.408 . S
C386 C384 1.363 . S
C386 C387 1.370 . S
C386 C390 1.524 . S
C387 C379 1.503 . S
C387 C386 1.370 . S
C387 C388 1.403 . S
C388 C387 1.403 . S
C388 C389 1.404 . S
C388 C391 1.539 . S
C389 C385 1.408 . S
C389 C388 1.404 . S
C389 H401 0.930 . S
C390 C386 1.524 . S
C390 H402 0.956 . S
C390 H403 0.961 . S
C390 H404 0.961 . S
C391 C388 1.539 . S
C391 H405 0.958 . S
C391 H406 0.961 . S
C391 H407 0.960 . S
H392 C376 0.931 . S
H393 C381 0.929 . S
H394 C382 0.960 . S
H395 C382 0.962 . S
H396 C382 0.960 . S
H397 C383 0.961 . S
H398 C383 0.961 . S
H399 C383 0.961 . S
H400 C384 0.931 . S
H401 C389 0.930 . S
H402 C390 0.956 . S
H403 C390 0.961 . S
H404 C390 0.961 . S
H405 C391 0.958 . S
H406 C391 0.961 . S
H407 C391 0.960 . S
C408 C409 1.391 . S
C408 C410 1.394 . S
C408 H424 0.931 . S
C409 C408 1.391 . S
C409 C413 1.376 . S
C410 C408 1.394 . S
C410 C411 1.369 . S
C410 C414 1.531 . S
C411 C410 1.369 . S
C411 C412 1.410 . S
C411 C419 1.503 . S
C412 C411 1.410 . S
C412 C413 1.392 . S
C412 C415 1.511 . S
C413 C409 1.376 . S
C413 C412 1.392 . S
C413 H425 0.929 . S
C414 C410 1.531 . S
C414 H426 0.960 . S
C414 H427 0.962 . S
C414 H428 0.960 . S
C415 C412 1.511 . S
C415 H429 0.961 . S
C415 H430 0.961 . S
C415 H431 0.961 . S
C416 C417 1.370 . S
C416 C418 1.363 . S
C416 H432 0.931 . S
C417 C416 1.370 . S
C417 C421 1.408 . S
C418 C416 1.363 . S
C418 C419 1.370 . S
C418 C422 1.524 . S
C419 C411 1.503 . S
C419 C418 1.370 . S
C419 C420 1.403 . S
C420 C419 1.403 . S
C420 C421 1.404 . S
C420 C423 1.539 . S
C421 C417 1.408 . S
C421 C420 1.404 . S
C421 H433 0.930 . S
C422 C418 1.524 . S
C422 H434 0.956 . S
C422 H435 0.961 . S
C422 H436 0.961 . S
C423 C420 1.539 . S
C423 H437 0.958 . S
C423 H438 0.961 . S
C423 H439 0.960 . S
H424 C408 0.931 . S
H425 C413 0.929 . S
H426 C414 0.960 . S
H427 C414 0.962 . S
H428 C414 0.960 . S
H429 C415 0.961 . S
H430 C415 0.961 . S
H431 C415 0.961 . S
H432 C416 0.931 . S
H433 C421 0.930 . S
H434 C422 0.956 . S
H435 C422 0.961 . S
H436 C422 0.961 . S
H437 C423 0.958 . S
H438 C423 0.961 . S
H439 C423 0.960 . S
C440 C441 1.391 . S
C440 C442 1.394 . S
C440 H456 0.931 . S
C441 C440 1.391 . S
C441 C445 1.376 . S
C442 C440 1.394 . S
C442 C443 1.369 1_545 S
C442 C446 1.531 1_545 S
C443 C442 1.369 1_565 S
C443 C444 1.410 1_565 S
C443 C451 1.503 . S
C444 C443 1.410 1_545 S
C444 C445 1.392 . S
C444 C447 1.511 1_545 S
C445 C441 1.376 . S
C445 C444 1.392 . S
C445 H457 0.929 . S
C446 C442 1.531 1_565 S
C446 H458 0.960 . S
C446 H459 0.962 . S
C446 H460 0.960 1_565 S
C447 C444 1.511 1_565 S
C447 H461 0.961 . S
C447 H462 0.961 . S
C447 H463 0.961 . S
C448 C449 1.370 . S
C448 C450 1.363 . S
C448 H464 0.931 . S
C449 C448 1.370 . S
C449 C453 1.408 . S
C450 C448 1.363 . S
C450 C451 1.370 . S
C450 C454 1.524 . S
C451 C443 1.503 . S
C451 C450 1.370 . S
C451 C452 1.403 . S
C452 C451 1.403 . S
C452 C453 1.404 . S
C452 C455 1.539 . S
C453 C449 1.408 . S
C453 C452 1.404 . S
C453 H465 0.930 . S
C454 C450 1.524 . S
C454 H466 0.956 . S
C454 H467 0.961 . S
C454 H468 0.961 . S
C455 C452 1.539 . S
C455 H469 0.958 . S
C455 H470 0.961 . S
C455 H471 0.960 . S
H456 C440 0.931 . S
H457 C445 0.929 . S
H458 C446 0.960 . S
H459 C446 0.962 . S
H460 C446 0.960 1_545 S
H461 C447 0.961 . S
H462 C447 0.961 . S
H463 C447 0.961 . S
H464 C448 0.931 . S
H465 C453 0.930 . S
H466 C454 0.956 . S
H467 C454 0.961 . S
H468 C454 0.961 . S
H469 C455 0.958 . S
H470 C455 0.961 . S
H471 C455 0.960 . S
C472 C473 1.391 . S
C472 C474 1.394 . S
C472 H488 0.931 . S
C473 C472 1.391 . S
C473 C477 1.376 . S
C474 C472 1.394 . S
C474 C475 1.369 . S
C474 C478 1.531 . S
C475 C474 1.369 . S
C475 C476 1.410 . S
C475 C483 1.503 . S
C476 C475 1.410 . S
C476 C477 1.392 . S
C476 C479 1.511 . S
C477 C473 1.376 . S
C477 C476 1.392 . S
C477 H489 0.929 . S
C478 C474 1.531 . S
C478 H490 0.960 . S
C478 H491 0.962 . S
C478 H492 0.960 . S
C479 C476 1.511 . S
C479 H493 0.961 . S
C479 H494 0.961 . S
C479 H495 0.961 . S
C480 C481 1.370 . S
C480 C482 1.363 . S
C480 H496 0.931 . S
C481 C480 1.370 . S
C481 C485 1.408 . S
C482 C480 1.363 . S
C482 C483 1.370 . S
C482 C486 1.524 . S
C483 C475 1.503 . S
C483 C482 1.370 . S
C483 C484 1.403 . S
C484 C483 1.403 . S
C484 C485 1.404 . S
C484 C487 1.539 . S
C485 C481 1.408 . S
C485 C484 1.404 . S
C485 H497 0.930 . S
C486 C482 1.524 . S
C486 H498 0.956 . S
C486 H499 0.961 . S
C486 H500 0.961 . S
C487 C484 1.539 . S
C487 H501 0.958 . S
C487 H502 0.961 . S
C487 H503 0.960 . S
H488 C472 0.931 . S
H489 C477 0.929 . S
H490 C478 0.960 . S
H491 C478 0.962 . S
H492 C478 0.960 . S
H493 C479 0.961 . S
H494 C479 0.961 . S
H495 C479 0.961 . S
H496 C480 0.931 . S
H497 C485 0.930 . S
H498 C486 0.956 . S
H499 C486 0.961 . S
H500 C486 0.961 . S
H501 C487 0.958 . S
H502 C487 0.961 . S
H503 C487 0.960 . S
C504 C505 1.391 . S
C504 C506 1.394 . S
C504 H520 0.931 . S
C505 C504 1.391 . S
C505 C509 1.376 . S
C506 C504 1.394 . S
C506 C507 1.369 . S
C506 C510 1.531 . S
C507 C506 1.369 . S
C507 C508 1.410 . S
C507 C515 1.503 . S
C508 C507 1.410 . S
C508 C509 1.392 . S
C508 C511 1.511 . S
C509 C505 1.376 . S
C509 C508 1.392 . S
C509 H521 0.929 . S
C510 C506 1.531 . S
C510 H522 0.960 . S
C510 H523 0.962 . S
C510 H524 0.960 . S
C511 C508 1.511 . S
C511 H525 0.961 . S
C511 H526 0.961 . S
C511 H527 0.961 . S
C512 C513 1.370 . S
C512 C514 1.363 . S
C512 H528 0.931 . S
C513 C512 1.370 . S
C513 C517 1.408 . S
C514 C512 1.363 . S
C514 C515 1.370 . S
C514 C518 1.524 . S
C515 C507 1.503 . S
C515 C514 1.370 . S
C515 C516 1.403 . S
C516 C515 1.403 . S
C516 C517 1.404 . S
C516 C519 1.539 . S
C517 C513 1.408 . S
C517 C516 1.404 . S
C517 H529 0.930 . S
C518 C514 1.524 . S
C518 H530 0.956 . S
C518 H531 0.961 . S
C518 H532 0.961 . S
C519 C516 1.539 . S
C519 H533 0.958 . S
C519 H534 0.961 . S
C519 H535 0.960 . S
H520 C504 0.931 . S
H521 C509 0.929 . S
H522 C510 0.960 . S
H523 C510 0.962 . S
H524 C510 0.960 . S
H525 C511 0.961 . S
H526 C511 0.961 . S
H527 C511 0.961 . S
H528 C512 0.931 . S
H529 C517 0.930 . S
H530 C518 0.956 . S
H531 C518 0.961 . S
H532 C518 0.961 . S
H533 C519 0.958 . S
H534 C519 0.961 . S
H535 C519 0.960 . S
C536 C537 1.391 . S
C536 C538 1.394 . S
C536 H552 0.931 . S
C537 C536 1.391 . S
C537 C541 1.376 1_554 S
C538 C536 1.394 . S
C538 C539 1.369 1_554 S
C538 C542 1.531 . S
C539 C538 1.369 1_556 S
C539 C540 1.410 . S
C539 C547 1.503 . S
C540 C539 1.410 . S
C540 C541 1.392 . S
C540 C543 1.511 . S
C541 C537 1.376 1_556 S
C541 C540 1.392 . S
C541 H553 0.931 . S
C542 C538 1.531 . S
C542 H554 0.960 1_554 S
C542 H555 0.962 . S
C542 H556 0.960 . S
C543 C540 1.511 . S
C543 H557 0.961 . S
C543 H558 0.961 . S
C543 H559 0.961 . S
C544 C545 1.370 . S
C544 C546 1.363 1_455 S
C544 H560 0.931 1_556 S
C545 C544 1.370 . S
C545 C549 1.408 . S
C546 C544 1.363 1_655 S
C546 C547 1.370 . S
C546 C550 1.524 1_556 S
C547 C539 1.503 . S
C547 C546 1.370 . S
C547 C548 1.403 . S
C548 C547 1.403 . S
C548 C549 1.404 1_655 S
C548 C551 1.539 . S
C549 C545 1.408 . S
C549 C548 1.404 1_455 S
C549 H561 0.930 . S
C550 C546 1.524 1_554 S
C550 H562 0.956 . S
C550 H563 0.961 . S
C550 H564 0.961 . S
C551 C548 1.539 . S
C551 H565 0.958 . S
C551 H566 0.961 . S
C551 H567 0.960 . S
H552 C536 0.931 . S
H553 C541 0.931 . S
H554 C542 0.960 1_556 S
H555 C542 0.962 . S
H556 C542 0.960 . S
H557 C543 0.961 . S
H558 C543 0.961 . S
H559 C543 0.961 . S
H560 C544 0.931 1_554 S
H561 C549 0.930 . S
H562 C550 0.956 . S
H563 C550 0.961 . S
H564 C550 0.961 . S
H565 C551 0.958 . S
H566 C551 0.961 . S
H567 C551 0.960 . S
C568 C569 1.391 . S
C568 C570 1.394 . S
C568 H584 0.931 . S
C569 C568 1.391 . S
C569 C573 1.376 . S
C570 C568 1.394 . S
C570 C571 1.369 . S
C570 C574 1.531 . S
C571 C570 1.369 . S
C571 C572 1.410 . S
C571 C579 1.503 . S
C572 C571 1.410 . S
C572 C573 1.392 . S
C572 C575 1.511 . S
C573 C569 1.376 . S
C573 C572 1.392 . S
C573 H585 0.929 . S
C574 C570 1.531 . S
C574 H586 0.960 . S
C574 H587 0.962 . S
C574 H588 0.960 . S
C575 C572 1.511 . S
C575 H589 0.961 . S
C575 H590 0.961 . S
C575 H591 0.961 . S
C576 C577 1.370 . S
C576 C578 1.363 . S
C576 H592 0.931 . S
C577 C576 1.370 . S
C577 C581 1.408 . S
C578 C576 1.363 . S
C578 C579 1.370 . S
C578 C582 1.524 . S
C579 C571 1.503 . S
C579 C578 1.370 . S
C579 C580 1.403 . S
C580 C579 1.403 . S
C580 C581 1.404 . S
C580 C583 1.539 . S
C581 C577 1.408 . S
C581 C580 1.404 . S
C581 H593 0.930 . S
C582 C578 1.524 . S
C582 H594 0.956 . S
C582 H595 0.961 . S
C582 H596 0.961 . S
C583 C580 1.539 . S
C583 H597 0.958 . S
C583 H598 0.961 . S
C583 H599 0.960 . S
H584 C568 0.931 . S
H585 C573 0.929 . S
H586 C574 0.960 . S
H587 C574 0.962 . S
H588 C574 0.960 . S
H589 C575 0.961 . S
H590 C575 0.961 . S
H591 C575 0.961 . S
H592 C576 0.931 . S
H593 C581 0.930 . S
H594 C582 0.956 . S
H595 C582 0.961 . S
H596 C582 0.961 . S
H597 C583 0.958 . S
H598 C583 0.961 . S
H599 C583 0.960 . S
C600 C601 1.391 . S
C600 C602 1.394 . S
C600 H616 0.931 . S
C601 C600 1.391 . S
C601 C605 1.376 . S
C602 C600 1.394 . S
C602 C603 1.369 . S
C602 C606 1.531 . S
C603 C602 1.369 . S
C603 C604 1.410 . S
C603 C611 1.503 . S
C604 C603 1.410 . S
C604 C605 1.392 . S
C604 C607 1.511 . S
C605 C601 1.376 . S
C605 C604 1.392 . S
C605 H617 0.929 . S
C606 C602 1.531 . S
C606 H618 0.960 . S
C606 H619 0.962 . S
C606 H620 0.960 . S
C607 C604 1.511 . S
C607 H621 0.961 . S
C607 H622 0.961 . S
C607 H623 0.961 . S
C608 C609 1.370 . S
C608 C610 1.363 . S
C608 H624 0.931 . S
C609 C608 1.370 . S
C609 C613 1.408 . S
C610 C608 1.363 . S
C610 C611 1.370 . S
C610 C614 1.524 . S
C611 C603 1.503 . S
C611 C610 1.370 . S
C611 C612 1.403 . S
C612 C611 1.403 . S
C612 C613 1.404 . S
C612 C615 1.539 . S
C613 C609 1.408 . S
C613 C612 1.404 . S
C613 H625 0.943 . S
C614 C610 1.524 . S
C614 H626 0.956 . S
C614 H627 0.961 . S
C614 H628 0.961 . S
C615 C612 1.539 . S
C615 H629 0.958 . S
C615 H630 0.961 . S
C615 H631 0.960 . S
H616 C600 0.931 . S
H617 C605 0.929 . S
H618 C606 0.960 . S
H619 C606 0.962 . S
H620 C606 0.960 . S
H621 C607 0.961 . S
H622 C607 0.961 . S
H623 C607 0.961 . S
H624 C608 0.931 . S
H625 C613 0.943 . S
H626 C614 0.956 . S
H627 C614 0.961 . S
H628 C614 0.961 . S
H629 C615 0.958 . S
H630 C615 0.961 . S
H631 C615 0.960 . S
C632 C633 1.391 . S
C632 C634 1.394 . S
C632 H648 0.931 . S
C633 C632 1.391 . S
C633 C637 1.376 . S
C634 C632 1.394 . S
C634 C635 1.369 . S
C634 C638 1.531 . S
C635 C634 1.369 . S
C635 C636 1.410 . S
C635 C643 1.503 . S
C636 C635 1.410 . S
C636 C637 1.392 . S
C636 C639 1.511 . S
C637 C633 1.376 . S
C637 C636 1.392 . S
C637 H649 0.929 . S
C638 C634 1.531 . S
C638 H650 0.960 . S
C638 H651 0.962 . S
C638 H652 0.960 . S
C639 C636 1.511 . S
C639 H653 0.961 . S
C639 H654 0.961 . S
C639 H655 0.961 . S
C640 C641 1.370 . S
C640 C642 1.363 . S
C640 H656 0.931 . S
C641 C640 1.370 . S
C641 C645 1.408 . S
C642 C640 1.363 . S
C642 C643 1.370 . S
C642 C646 1.524 . S
C643 C635 1.503 . S
C643 C642 1.370 . S
C643 C644 1.403 . S
C644 C643 1.403 . S
C644 C645 1.404 . S
C644 C647 1.539 . S
C645 C641 1.408 . S
C645 C644 1.404 . S
C645 H657 0.930 . S
C646 C642 1.524 . S
C646 H658 0.956 . S
C646 H659 0.961 . S
C646 H660 0.961 . S
C647 C644 1.539 . S
C647 H661 0.958 . S
C647 H662 0.961 . S
C647 H663 0.960 . S
H648 C632 0.931 . S
H649 C637 0.929 . S
H650 C638 0.960 . S
H651 C638 0.962 . S
H652 C638 0.960 . S
H653 C639 0.961 . S
H654 C639 0.961 . S
H655 C639 0.961 . S
H656 C640 0.931 . S
H657 C645 0.930 . S
H658 C646 0.956 . S
H659 C646 0.961 . S
H660 C646 0.961 . S
H661 C647 0.958 . S
H662 C647 0.961 . S
H663 C647 0.960 . S
C664 C665 1.391 . S
C664 C666 1.394 . S
C664 H680 0.931 . S
C665 C664 1.391 . S
C665 C669 1.376 . S
C666 C664 1.394 . S
C666 C667 1.369 . S
C666 C670 1.531 . S
C667 C666 1.369 . S
C667 C668 1.410 . S
C667 C675 1.503 . S
C668 C667 1.410 . S
C668 C669 1.392 . S
C668 C671 1.511 . S
C669 C665 1.376 . S
C669 C668 1.392 . S
C669 H681 0.929 . S
C670 C666 1.531 . S
C670 H682 0.960 . S
C670 H683 0.962 . S
C670 H684 0.960 . S
C671 C668 1.511 . S
C671 H685 0.961 . S
C671 H686 0.961 . S
C671 H687 0.961 . S
C672 C673 1.370 . S
C672 C674 1.363 . S
C672 H688 0.931 . S
C673 C672 1.370 . S
C673 C677 1.408 . S
C674 C672 1.363 . S
C674 C675 1.370 . S
C674 C678 1.524 . S
C675 C667 1.503 . S
C675 C674 1.370 . S
C675 C676 1.403 . S
C676 C675 1.403 . S
C676 C677 1.404 . S
C676 C679 1.539 . S
C677 C673 1.408 . S
C677 C676 1.404 . S
C677 H689 0.930 . S
C678 C674 1.524 . S
C678 H690 0.956 . S
C678 H691 0.961 . S
C678 H692 0.961 . S
C679 C676 1.539 . S
C679 H693 0.958 . S
C679 H694 0.961 . S
C679 H695 0.960 . S
H680 C664 0.931 . S
H681 C669 0.929 . S
H682 C670 0.960 . S
H683 C670 0.962 . S
H684 C670 0.960 . S
H685 C671 0.961 . S
H686 C671 0.961 . S
H687 C671 0.961 . S
H688 C672 0.931 . S
H689 C677 0.930 . S
H690 C678 0.956 . S
H691 C678 0.961 . S
H692 C678 0.961 . S
H693 C679 0.958 . S
H694 C679 0.961 . S
H695 C679 0.960 . S
C696 C697 1.391 1_554 S
C696 C698 1.396 1_564 S
C696 H712 0.931 . S
C697 C696 1.391 1_556 S
C697 C701 1.376 . S
C698 C696 1.396 1_546 S
C698 C699 1.368 . S
C698 C702 1.529 1_556 S
C699 C698 1.368 . S
C699 C700 1.410 1_545 S
C699 C707 1.503 . S
C700 C699 1.410 1_565 S
C700 C701 1.392 . S
C700 C703 1.511 . S
C701 C697 1.376 . S
C701 C700 1.392 . S
C701 H713 0.929 . S
C702 C698 1.529 1_554 S
C702 H714 0.960 . S
C702 H715 0.962 . S
C702 H716 0.960 . S
C703 C700 1.511 . S
C703 H717 0.961 . S
C703 H718 0.961 1_565 S
C703 H719 0.961 1_565 S
C704 C705 1.370 . S
C704 C706 1.363 . S
C704 H720 0.931 . S
C705 C704 1.370 . S
C705 C709 1.408 . S
C706 C704 1.363 . S
C706 C707 1.370 . S
C706 C710 1.524 . S
C707 C699 1.503 . S
C707 C706 1.370 . S
C707 C708 1.403 . S
C708 C707 1.403 . S
C708 C709 1.404 . S
C708 C711 1.539 1_556 S
C709 C705 1.408 . S
C709 C708 1.404 . S
C709 H721 0.930 . S
C710 C706 1.524 . S
C710 H722 0.956 . S
C710 H723 0.961 . S
C710 H724 0.961 . S
C711 C708 1.539 1_554 S
C711 H725 0.958 . S
C711 H726 0.961 . S
C711 H727 0.960 1_554 S
H712 C696 0.931 . S
H713 C701 0.929 . S
H714 C702 0.960 . S
H715 C702 0.962 . S
H716 C702 0.960 . S
H717 C703 0.961 . S
H718 C703 0.961 1_545 S
H719 C703 0.961 1_545 S
H720 C704 0.931 . S
H721 C709 0.930 . S
H722 C710 0.956 . S
H723 C710 0.961 . S
H724 C710 0.961 . S
H725 C711 0.958 . S
H726 C711 0.961 . S
H727 C711 0.960 1_556 S
C728 C729 1.391 . S
C728 C730 1.394 . S
C728 H744 0.931 . S
C729 C728 1.391 . S
C729 C733 1.376 . S
C730 C728 1.394 . S
C730 C731 1.369 . S
C730 C734 1.531 . S
C731 C730 1.369 . S
C731 C732 1.410 . S
C731 C739 1.503 . S
C732 C731 1.410 . S
C732 C733 1.392 . S
C732 C735 1.511 . S
C733 C729 1.376 . S
C733 C732 1.392 . S
C733 H745 0.929 . S
C734 C730 1.531 . S
C734 H746 0.960 . S
C734 H747 0.962 . S
C734 H748 0.960 . S
C735 C732 1.511 . S
C735 H749 0.961 . S
C735 H750 0.961 . S
C735 H751 0.961 . S
C736 C737 1.370 . S
C736 C738 1.363 . S
C736 H752 0.931 . S
C737 C736 1.370 . S
C737 C741 1.408 . S
C738 C736 1.363 . S
C738 C739 1.370 . S
C738 C742 1.524 . S
C739 C731 1.503 . S
C739 C738 1.370 . S
C739 C740 1.403 . S
C740 C739 1.403 . S
C740 C741 1.404 . S
C740 C743 1.539 . S
C741 C737 1.408 . S
C741 C740 1.404 . S
C741 H753 0.930 . S
C742 C738 1.524 . S
C742 H754 0.956 . S
C742 H755 0.961 . S
C742 H756 0.961 . S
C743 C740 1.539 . S
C743 H757 0.958 . S
C743 H758 0.961 . S
C743 H759 0.960 . S
H744 C728 0.931 . S
H745 C733 0.929 . S
H746 C734 0.960 . S
H747 C734 0.962 . S
H748 C734 0.960 . S
H749 C735 0.961 . S
H750 C735 0.961 . S
H751 C735 0.961 . S
H752 C736 0.931 . S
H753 C741 0.930 . S
H754 C742 0.956 . S
H755 C742 0.961 . S
H756 C742 0.961 . S
H757 C743 0.958 . S
H758 C743 0.961 . S
H759 C743 0.960 . S
C760 C761 1.391 . S
C760 C762 1.394 . S
C760 H776 0.931 . S
C761 C760 1.391 . S
C761 C765 1.376 . S
C762 C760 1.394 . S
C762 C763 1.369 . S
C762 C766 1.531 . S
C763 C762 1.369 . S
C763 C764 1.410 . S
C763 C771 1.503 . S
C764 C763 1.410 . S
C764 C765 1.392 . S
C764 C767 1.511 . S
C765 C761 1.376 . S
C765 C764 1.392 . S
C765 H777 0.929 . S
C766 C762 1.531 . S
C766 H778 0.960 . S
C766 H779 0.962 . S
C766 H780 0.960 . S
C767 C764 1.511 . S
C767 H781 0.961 . S
C767 H782 0.961 . S
C767 H783 0.961 . S
C768 C769 1.370 . S
C768 C770 1.363 . S
C768 H784 0.931 . S
C769 C768 1.370 . S
C769 C773 1.408 . S
C770 C768 1.363 . S
C770 C771 1.370 . S
C770 C774 1.524 . S
C771 C763 1.503 . S
C771 C770 1.370 . S
C771 C772 1.403 . S
C772 C771 1.403 . S
C772 C773 1.404 . S
C772 C775 1.539 . S
C773 C769 1.408 . S
C773 C772 1.404 . S
C773 H785 0.930 . S
C774 C770 1.524 . S
C774 H786 0.956 . S
C774 H787 0.961 . S
C774 H788 0.961 . S
C775 C772 1.539 . S
C775 H789 0.958 . S
C775 H790 0.961 . S
C775 H791 0.960 . S
H776 C760 0.931 . S
H777 C765 0.929 . S
H778 C766 0.960 . S
H779 C766 0.962 . S
H780 C766 0.960 . S
H781 C767 0.961 . S
H782 C767 0.961 . S
H783 C767 0.961 . S
H784 C768 0.931 . S
H785 C773 0.930 . S
H786 C774 0.956 . S
H787 C774 0.961 . S
H788 C774 0.961 . S
H789 C775 0.958 . S
H790 C775 0.961 . S
H791 C775 0.960 . S
C792 C793 1.391 . S
C792 C794 1.394 . S
C792 H808 0.931 . S
C793 C792 1.391 . S
C793 C797 1.376 . S
C794 C792 1.394 . S
C794 C795 1.369 . S
C794 C798 1.531 . S
C795 C794 1.369 . S
C795 C796 1.410 . S
C795 C803 1.503 . S
C796 C795 1.410 . S
C796 C797 1.392 . S
C796 C799 1.511 . S
C797 C793 1.376 . S
C797 C796 1.392 . S
C797 H809 0.929 . S
C798 C794 1.531 . S
C798 H810 0.956 1_455 S
C798 H811 0.962 . S
C798 H812 0.960 . S
C799 C796 1.511 . S
C799 H813 0.961 . S
C799 H814 0.961 . S
C799 H815 0.961 . S
C800 C801 1.370 . S
C800 C802 1.363 1_655 S
C800 H816 0.931 . S
C801 C800 1.370 . S
C801 C805 1.408 . S
C802 C800 1.363 1_455 S
C802 C803 1.370 . S
C802 C806 1.524 . S
C803 C795 1.503 . S
C803 C802 1.370 . S
C803 C804 1.403 . S
C804 C803 1.403 . S
C804 C805 1.404 1_455 S
C804 C807 1.539 . S
C805 C801 1.408 . S
C805 C804 1.404 1_655 S
C805 H817 0.930 . S
C806 C802 1.524 . S
C806 H818 0.956 . S
C806 H819 0.961 . S
C806 H820 0.961 . S
C807 C804 1.539 . S
C807 H821 0.961 . S
C807 H822 0.961 . S
C807 H823 0.960 . S
H808 C792 0.931 . S
H809 C797 0.929 . S
H810 C798 0.956 1_655 S
H811 C798 0.962 . S
H812 C798 0.960 . S
H813 C799 0.961 . S
H814 C799 0.961 . S
H815 C799 0.961 . S
H816 C800 0.931 . S
H817 C805 0.930 . S
H818 C806 0.956 . S
H819 C806 0.961 . S
H820 C806 0.961 . S
H821 C807 0.961 . S
H822 C807 0.961 . S
H823 C807 0.960 . S
C824 C825 1.391 . S
C824 C826 1.394 . S
C824 H840 0.931 . S
C825 C824 1.391 . S
C825 C829 1.376 . S
C826 C824 1.394 . S
C826 C827 1.369 . S
C826 C830 1.531 . S
C827 C826 1.369 . S
C827 C828 1.410 . S
C827 C835 1.503 . S
C828 C827 1.410 . S
C828 C829 1.392 . S
C828 C831 1.511 . S
C829 C825 1.376 . S
C829 C828 1.392 . S
C829 H841 0.929 . S
C830 C826 1.531 . S
C830 H842 0.960 . S
C830 H843 0.962 . S
C830 H844 0.960 . S
C831 C828 1.511 . S
C831 H845 0.961 . S
C831 H846 0.961 . S
C831 H847 0.961 . S
C832 C833 1.370 . S
C832 C834 1.363 . S
C832 H848 0.931 . S
C833 C832 1.370 . S
C833 C837 1.408 . S
C834 C832 1.363 . S
C834 C835 1.370 . S
C834 C838 1.524 . S
C835 C827 1.503 . S
C835 C834 1.370 . S
C835 C836 1.403 . S
C836 C835 1.403 . S
C836 C837 1.404 . S
C836 C839 1.539 . S
C837 C833 1.408 . S
C837 C836 1.404 . S
C837 H849 0.930 . S
C838 C834 1.524 . S
C838 H850 0.956 . S
C838 H851 0.961 . S
C838 H852 0.961 . S
C839 C836 1.539 . S
C839 H853 0.958 . S
C839 H854 0.961 . S
C839 H855 0.960 . S
H840 C824 0.931 . S
H841 C829 0.929 . S
H842 C830 0.960 . S
H843 C830 0.962 . S
H844 C830 0.960 . S
H845 C831 0.961 . S
H846 C831 0.961 . S
H847 C831 0.961 . S
H848 C832 0.931 . S
H849 C837 0.930 . S
H850 C838 0.956 . S
H851 C838 0.961 . S
H852 C838 0.961 . S
H853 C839 0.958 . S
H854 C839 0.961 . S
H855 C839 0.960 . S
C856 C857 1.391 . S
C856 C858 1.394 . S
C856 H872 0.931 . S
C857 C856 1.391 . S
C857 C861 1.376 . S
C858 C856 1.394 . S
C858 C859 1.369 . S
C858 C862 1.531 . S
C859 C858 1.369 . S
C859 C860 1.410 . S
C859 C867 1.503 . S
C860 C859 1.410 . S
C860 C861 1.392 . S
C860 C863 1.511 . S
C861 C857 1.376 . S
C861 C860 1.392 . S
C861 H873 0.929 . S
C862 C858 1.531 . S
C862 H874 0.960 . S
C862 H875 0.962 . S
C862 H876 0.960 . S
C863 C860 1.511 . S
C863 H877 0.961 . S
C863 H878 0.961 . S
C863 H879 0.961 . S
C864 C865 1.370 . S
C864 C866 1.363 . S
C864 H880 0.931 . S
C865 C864 1.370 . S
C865 C869 1.408 . S
C866 C864 1.363 . S
C866 C867 1.370 . S
C866 C870 1.524 . S
C867 C859 1.503 . S
C867 C866 1.370 . S
C867 C868 1.403 . S
C868 C867 1.403 . S
C868 C869 1.404 . S
C868 C871 1.539 . S
C869 C865 1.408 . S
C869 C868 1.404 . S
C869 H881 0.930 . S
C870 C866 1.524 . S
C870 H882 0.956 . S
C870 H883 0.961 . S
C870 H884 0.961 . S
C871 C868 1.539 . S
C871 H885 0.958 . S
C871 H886 0.961 . S
C871 H887 0.960 . S
H872 C856 0.931 . S
H873 C861 0.929 . S
H874 C862 0.960 . S
H875 C862 0.962 . S
H876 C862 0.960 . S
H877 C863 0.961 . S
H878 C863 0.961 . S
H879 C863 0.961 . S
H880 C864 0.931 . S
H881 C869 0.930 . S
H882 C870 0.956 . S
H883 C870 0.961 . S
H884 C870 0.961 . S
H885 C871 0.958 . S
H886 C871 0.961 . S
H887 C871 0.960 . S
C888 C889 1.391 . S
C888 C890 1.394 . S
C888 H904 0.931 . S
C889 C888 1.391 . S
C889 C893 1.376 . S
C890 C888 1.394 . S
C890 C891 1.369 . S
C890 C894 1.531 . S
C891 C890 1.369 . S
C891 C892 1.410 . S
C891 C899 1.503 . S
C892 C891 1.410 . S
C892 C893 1.392 . S
C892 C895 1.511 . S
C893 C889 1.376 . S
C893 C892 1.392 . S
C893 H905 0.929 . S
C894 C890 1.531 . S
C894 H906 0.960 . S
C894 H907 0.962 . S
C894 H908 0.960 . S
C895 C892 1.511 . S
C895 H909 0.961 . S
C895 H910 0.961 . S
C895 H911 0.961 . S
C896 C897 1.370 . S
C896 C898 1.363 . S
C896 H912 0.931 . S
C897 C896 1.370 . S
C897 C901 1.408 . S
C898 C896 1.363 . S
C898 C899 1.370 . S
C898 C902 1.524 . S
C899 C891 1.503 . S
C899 C898 1.370 . S
C899 C900 1.403 . S
C900 C899 1.403 . S
C900 C901 1.404 . S
C900 C903 1.539 . S
C901 C897 1.408 . S
C901 C900 1.404 . S
C901 H913 0.930 . S
C902 C898 1.524 . S
C902 H914 0.956 . S
C902 H915 0.961 . S
C902 H916 0.961 . S
C903 C900 1.539 . S
C903 H917 0.958 . S
C903 H918 0.961 . S
C903 H919 0.960 . S
H904 C888 0.931 . S
H905 C893 0.929 . S
H906 C894 0.960 . S
H907 C894 0.962 . S
H908 C894 0.960 . S
H909 C895 0.961 . S
H910 C895 0.961 . S
H911 C895 0.961 . S
H912 C896 0.931 . S
H913 C901 0.930 . S
H914 C902 0.956 . S
H915 C902 0.961 . S
H916 C902 0.961 . S
H917 C903 0.958 . S
H918 C903 0.961 . S
H919 C903 0.960 . S
C920 C921 1.391 . S
C920 C922 1.394 . S
C920 H936 0.931 . S
C921 C920 1.391 . S
C921 C925 1.376 . S
C922 C920 1.394 . S
C922 C923 1.369 . S
C922 C926 1.531 . S
C923 C922 1.369 . S
C923 C924 1.410 . S
C923 C931 1.503 . S
C924 C923 1.410 . S
C924 C925 1.392 . S
C924 C927 1.511 . S
C925 C921 1.376 . S
C925 C924 1.392 . S
C925 H937 0.929 . S
C926 C922 1.531 . S
C926 H938 0.960 . S
C926 H939 0.962 . S
C926 H940 0.960 . S
C927 C924 1.511 . S
C927 H941 0.961 . S
C927 H942 0.961 . S
C927 H943 0.961 . S
C928 C929 1.370 . S
C928 C930 1.363 . S
C928 H944 0.931 . S
C929 C928 1.370 . S
C929 C933 1.408 . S
C930 C928 1.363 . S
C930 C931 1.370 . S
C930 C934 1.524 . S
C931 C923 1.503 . S
C931 C930 1.370 . S
C931 C932 1.403 . S
C932 C931 1.403 . S
C932 C933 1.404 . S
C932 C935 1.539 . S
C933 C929 1.408 . S
C933 C932 1.404 . S
C933 H945 0.930 . S
C934 C930 1.524 . S
C934 H946 0.956 . S
C934 H947 0.961 . S
C934 H948 0.961 . S
C935 C932 1.539 . S
C935 H949 0.958 . S
C935 H950 0.961 . S
C935 H951 0.960 . S
H936 C920 0.931 . S
H937 C925 0.929 . S
H938 C926 0.960 . S
H939 C926 0.962 . S
H940 C926 0.960 . S
H941 C927 0.961 . S
H942 C927 0.961 . S
H943 C927 0.961 . S
H944 C928 0.931 . S
H945 C933 0.930 . S
H946 C934 0.956 . S
H947 C934 0.961 . S
H948 C934 0.961 . S
H949 C935 0.958 . S
H950 C935 0.961 . S
H951 C935 0.960 . S
C952 C953 1.391 . S
C952 C954 1.394 . S
C952 H968 0.931 . S
C953 C952 1.391 . S
C953 C957 1.376 . S
C954 C952 1.394 . S
C954 C955 1.369 . S
C954 C958 1.531 . S
C955 C954 1.369 . S
C955 C956 1.410 . S
C955 C963 1.503 . S
C956 C955 1.410 . S
C956 C957 1.392 . S
C956 C959 1.511 . S
C957 C953 1.376 . S
C957 C956 1.392 . S
C957 H969 0.929 . S
C958 C954 1.531 . S
C958 H970 0.960 . S
C958 H971 0.962 . S
C958 H972 0.960 . S
C959 C956 1.511 . S
C959 H973 0.961 . S
C959 H974 0.961 . S
C959 H975 0.961 . S
C960 C961 1.370 . S
C960 C962 1.363 . S
C960 H976 0.931 . S
C961 C960 1.370 . S
C961 C965 1.408 . S
C962 C960 1.363 . S
C962 C963 1.370 . S
C962 C966 1.524 . S
C963 C955 1.503 . S
C963 C962 1.370 . S
C963 C964 1.403 . S
C964 C963 1.403 . S
C964 C965 1.404 . S
C964 C967 1.539 . S
C965 C961 1.408 . S
C965 C964 1.404 . S
C965 H977 0.930 . S
C966 C962 1.524 . S
C966 H978 0.956 . S
C966 H979 0.961 . S
C966 H980 0.961 . S
C967 C964 1.539 . S
C967 H981 0.958 . S
C967 H982 0.961 . S
C967 H983 0.960 . S
H968 C952 0.931 . S
H969 C957 0.929 . S
H970 C958 0.960 . S
H971 C958 0.962 . S
H972 C958 0.960 . S
H973 C959 0.961 . S
H974 C959 0.961 . S
H975 C959 0.961 . S
H976 C960 0.931 . S
H977 C965 0.930 . S
H978 C966 0.956 . S
H979 C966 0.961 . S
H980 C966 0.961 . S
H981 C967 0.958 . S
H982 C967 0.961 . S
H983 C967 0.960 . S
C984 C985 1.391 . S
C984 C986 1.394 . S
C984 H1000 0.931 . S
C985 C984 1.391 . S
C985 C989 1.376 . S
C986 C984 1.394 . S
C986 C987 1.369 . S
C986 C990 1.531 . S
C987 C986 1.369 . S
C987 C988 1.410 . S
C987 C995 1.503 . S
C988 C987 1.410 . S
C988 C989 1.392 . S
C988 C991 1.511 . S
C989 C985 1.376 . S
C989 C988 1.392 . S
C989 H1001 0.929 . S
C990 C986 1.531 . S
C990 H1002 0.960 . S
C990 H1003 0.962 . S
C990 H1004 0.960 . S
C991 C988 1.511 . S
C991 H1005 0.961 . S
C991 H1006 0.961 . S
C991 H1007 0.961 . S
C992 C993 1.370 . S
C992 C994 1.363 . S
C992 H1008 0.931 . S
C993 C992 1.370 . S
C993 C997 1.408 . S
C994 C992 1.363 . S
C994 C995 1.370 . S
C994 C998 1.524 . S
C995 C987 1.503 . S
C995 C994 1.370 . S
C995 C996 1.403 . S
C996 C995 1.403 . S
C996 C997 1.404 . S
C996 C999 1.539 . S
C997 C993 1.408 . S
C997 C996 1.404 . S
C997 H1009 0.930 . S
C998 C994 1.524 . S
C998 H1010 0.956 . S
C998 H1011 0.961 . S
C998 H1012 0.961 . S
C999 C996 1.539 . S
C999 H1013 0.958 . S
C999 H1014 0.961 . S
C999 H1015 0.960 . S
H1000 C984 0.931 . S
H1001 C989 0.929 . S
H1002 C990 0.960 . S
H1003 C990 0.962 . S
H1004 C990 0.960 . S
H1005 C991 0.961 . S
H1006 C991 0.961 . S
H1007 C991 0.961 . S
H1008 C992 0.931 . S
H1009 C997 0.930 . S
H1010 C998 0.956 . S
H1011 C998 0.961 . S
H1012 C998 0.961 . S
H1013 C999 0.958 . S
H1014 C999 0.961 . S
H1015 C999 0.960 . S
C1016 C1017 1.391 . S
C1016 C1018 1.394 . S
C1016 H1032 0.931 . S
C1017 C1016 1.391 . S
C1017 C1021 1.376 . S
C1018 C1016 1.394 . S
C1018 C1019 1.369 . S
C1018 C1022 1.531 . S
C1019 C1018 1.369 . S
C1019 C1020 1.410 . S
C1019 C1027 1.503 . S
C1020 C1019 1.410 . S
C1020 C1021 1.392 . S
C1020 C1023 1.511 . S
C1021 C1017 1.376 . S
C1021 C1020 1.392 . S
C1021 H1033 0.929 . S
C1022 C1018 1.531 . S
C1022 H1034 0.960 . S
C1022 H1035 0.962 . S
C1022 H1036 0.960 . S
C1023 C1020 1.511 . S
C1023 H1037 0.961 . S
C1023 H1038 0.961 . S
C1023 H1039 0.961 . S
C1024 C1025 1.370 . S
C1024 C1026 1.363 . S
C1024 H1040 0.931 . S
C1025 C1024 1.370 . S
C1025 C1029 1.408 . S
C1026 C1024 1.363 . S
C1026 C1027 1.370 . S
C1026 C1030 1.524 . S
C1027 C1019 1.503 . S
C1027 C1026 1.370 . S
C1027 C1028 1.403 . S
C1028 C1027 1.403 . S
C1028 C1029 1.404 . S
C1028 C1031 1.539 . S
C1029 C1025 1.408 . S
C1029 C1028 1.404 . S
C1029 H1041 0.930 . S
C1030 C1026 1.524 . S
C1030 H1042 0.956 . S
C1030 H1043 0.961 . S
C1030 H1044 0.961 . S
C1031 C1028 1.539 . S
C1031 H1045 0.958 . S
C1031 H1046 0.961 . S
C1031 H1047 0.960 . S
H1032 C1016 0.931 . S
H1033 C1021 0.929 . S
H1034 C1022 0.960 . S
H1035 C1022 0.962 . S
H1036 C1022 0.960 . S
H1037 C1023 0.961 . S
H1038 C1023 0.961 . S
H1039 C1023 0.961 . S
H1040 C1024 0.931 . S
H1041 C1029 0.930 . S
H1042 C1030 0.956 . S
H1043 C1030 0.961 . S
H1044 C1030 0.961 . S
H1045 C1031 0.958 . S
H1046 C1031 0.961 . S
H1047 C1031 0.960 . S
C1048 C1049 1.391 1_556 S
C1048 C1050 1.394 . S
C1048 H1064 0.931 . S
C1049 C1048 1.391 1_554 S
C1049 C1053 1.376 . S
C1050 C1048 1.394 . S
C1050 C1051 1.369 . S
C1050 C1054 1.531 . S
C1051 C1050 1.369 . S
C1051 C1052 1.410 1_556 S
C1051 C1059 1.503 . S
C1052 C1051 1.410 1_554 S
C1052 C1053 1.392 . S
C1052 C1055 1.511 . S
C1053 C1049 1.376 . S
C1053 C1052 1.392 . S
C1053 H1065 0.929 . S
C1054 C1050 1.531 . S
C1054 H1066 0.960 . S
C1054 H1067 0.962 . S
C1054 H1068 0.960 . S
C1055 C1052 1.511 . S
C1055 H1069 0.961 . S
C1055 H1070 0.961 . S
C1055 H1071 0.961 1_554 S
C1056 C1057 1.370 . S
C1056 C1058 1.363 . S
C1056 H1072 0.931 . S
C1057 C1056 1.370 . S
C1057 C1061 1.408 . S
C1058 C1056 1.363 . S
C1058 C1059 1.370 . S
C1058 C1062 1.524 1_556 S
C1059 C1051 1.503 . S
C1059 C1058 1.370 . S
C1059 C1060 1.403 . S
C1060 C1059 1.403 . S
C1060 C1061 1.404 . S
C1060 C1063 1.539 . S
C1061 C1057 1.408 . S
C1061 C1060 1.404 . S
C1061 H1073 0.930 . S
C1062 C1058 1.524 1_554 S
C1062 H1074 0.956 . S
C1062 H1075 0.961 . S
C1062 H1076 0.961 . S
C1063 C1060 1.539 . S
C1063 H1077 0.958 . S
C1063 H1078 0.961 . S
C1063 H1079 0.960 . S
H1064 C1048 0.931 . S
H1065 C1053 0.929 . S
H1066 C1054 0.960 . S
H1067 C1054 0.962 . S
H1068 C1054 0.960 . S
H1069 C1055 0.961 . S
H1070 C1055 0.961 . S
H1071 C1055 0.961 1_556 S
H1072 C1056 0.931 . S
H1073 C1061 0.930 . S
H1074 C1062 0.956 . S
H1075 C1062 0.961 . S
H1076 C1062 0.961 . S
H1077 C1063 0.958 . S
H1078 C1063 0.961 . S
H1079 C1063 0.960 . S
C1080 C1081 1.391 . S
C1080 C1082 1.394 . S
C1080 H1096 0.931 . S
C1081 C1080 1.391 . S
C1081 C1085 1.376 . S
C1082 C1080 1.394 . S
C1082 C1083 1.369 . S
C1082 C1086 1.531 . S
C1083 C1082 1.369 . S
C1083 C1084 1.410 . S
C1083 C1091 1.503 . S
C1084 C1083 1.410 . S
C1084 C1085 1.392 . S
C1084 C1087 1.511 . S
C1085 C1081 1.376 . S
C1085 C1084 1.392 . S
C1085 H1097 0.929 . S
C1086 C1082 1.531 . S
C1086 H1098 0.960 . S
C1086 H1099 0.962 . S
C1086 H1100 0.960 . S
C1087 C1084 1.511 . S
C1087 H1101 0.961 . S
C1087 H1102 0.961 . S
C1087 H1103 0.961 . S
C1088 C1089 1.370 . S
C1088 C1090 1.363 . S
C1088 H1104 0.931 . S
C1089 C1088 1.370 . S
C1089 C1093 1.408 . S
C1090 C1088 1.363 . S
C1090 C1091 1.370 . S
C1090 C1094 1.524 . S
C1091 C1083 1.503 . S
C1091 C1090 1.370 . S
C1091 C1092 1.403 . S
C1092 C1091 1.403 . S
C1092 C1093 1.404 . S
C1092 C1095 1.539 . S
C1093 C1089 1.408 . S
C1093 C1092 1.404 . S
C1093 H1105 0.930 . S
C1094 C1090 1.524 . S
C1094 H1106 0.956 . S
C1094 H1107 0.961 . S
C1094 H1108 0.961 . S
C1095 C1092 1.539 . S
C1095 H1109 0.958 . S
C1095 H1110 0.961 . S
C1095 H1111 0.960 . S
H1096 C1080 0.931 . S
H1097 C1085 0.929 . S
H1098 C1086 0.960 . S
H1099 C1086 0.962 . S
H1100 C1086 0.960 . S
H1101 C1087 0.961 . S
H1102 C1087 0.961 . S
H1103 C1087 0.961 . S
H1104 C1088 0.931 . S
H1105 C1093 0.930 . S
H1106 C1094 0.956 . S
H1107 C1094 0.961 . S
H1108 C1094 0.961 . S
H1109 C1095 0.958 . S
H1110 C1095 0.961 . S
H1111 C1095 0.960 . S
C1112 C1113 1.391 . S
C1112 C1114 1.394 . S
C1112 H1128 0.931 . S
C1113 C1112 1.391 . S
C1113 C1117 1.376 . S
C1114 C1112 1.394 . S
C1114 C1115 1.369 . S
C1114 C1118 1.531 . S
C1115 C1114 1.369 . S
C1115 C1116 1.410 . S
C1115 C1123 1.503 . S
C1116 C1115 1.410 . S
C1116 C1117 1.392 . S
C1116 C1119 1.511 . S
C1117 C1113 1.376 . S
C1117 C1116 1.392 . S
C1117 H1129 0.929 . S
C1118 C1114 1.531 . S
C1118 H1130 0.960 . S
C1118 H1131 0.962 . S
C1118 H1132 0.960 . S
C1119 C1116 1.511 . S
C1119 H1133 0.961 . S
C1119 H1134 0.961 . S
C1119 H1135 0.961 . S
C1120 C1121 1.370 . S
C1120 C1122 1.363 . S
C1120 H1136 0.931 . S
C1121 C1120 1.370 . S
C1121 C1125 1.408 . S
C1122 C1120 1.363 . S
C1122 C1123 1.370 . S
C1122 C1126 1.524 . S
C1123 C1115 1.503 . S
C1123 C1122 1.370 . S
C1123 C1124 1.403 . S
C1124 C1123 1.403 . S
C1124 C1125 1.404 . S
C1124 C1127 1.539 . S
C1125 C1121 1.408 . S
C1125 C1124 1.404 . S
C1125 H1137 0.930 . S
C1126 C1122 1.524 . S
C1126 H1138 0.956 . S
C1126 H1139 0.961 . S
C1126 H1140 0.961 . S
C1127 C1124 1.539 . S
C1127 H1141 0.958 . S
C1127 H1142 0.961 . S
C1127 H1143 0.960 . S
H1128 C1112 0.931 . S
H1129 C1117 0.929 . S
H1130 C1118 0.960 . S
H1131 C1118 0.962 . S
H1132 C1118 0.960 . S
H1133 C1119 0.961 . S
H1134 C1119 0.961 . S
H1135 C1119 0.961 . S
H1136 C1120 0.931 . S
H1137 C1125 0.930 . S
H1138 C1126 0.956 . S
H1139 C1126 0.961 . S
H1140 C1126 0.961 . S
H1141 C1127 0.958 . S
H1142 C1127 0.961 . S
H1143 C1127 0.960 . S
C377 C8 1.522 . S
C385 C119 1.382 . S
C409 C31 1.775 . S
C417 C155 1.697 . S
C441 C53 1.407 . S
C449 C191 1.417 . S
C481 C221 1.487 . S
C473 C74 1.586 . S
C513 C263 1.474 . S
C505 C26 1.476 . S
C537 C48 1.802 . S
C545 C293 1.678 . S
C569 C71 1.495 . S
C577 C329 1.344 . S
C601 C5 1.601 . S
C609 C371 1.495 1_455 S
C633 C50 1.476 1_556 S
C641 C341 1.395 . S
C673 C233 1.701 . S
C665 C70 1.772 . S
C705 C299 1.460 . S
C697 C4 1.419 . S
C729 C28 1.607 . S
C737 C335 1.520 . S
C769 C125 1.468 . S
C761 C73 1.420 . S
C793 C7 1.771 . S
C801 C185 1.645 . S
C833 C227 1.422 . S
C825 C30 1.537 . S
C865 C89 1.502 1_655 S
C857 C52 1.579 . S
C897 C305 1.359 . S
C889 C9 1.383 . S
C929 C365 1.327 . S
C921 C29 1.379 . S
C953 C51 1.553 . S
C961 C257 1.506 . S
C993 C269 1.507 . S
C985 C75 1.549 . S
C1025 C161 1.460 . S
C1017 C27 1.552 . S
C1049 C49 1.399 . S
C1057 C197 1.329 . S
C1089 C113 1.336 . S
C1081 C72 1.359 . S
C1121 C149 1.541 . S
C1113 C6 1.570 . S
