# Generated by pormake.
# Topology hwx, (6,3)-cn, num edge types: 1
# Building blocks:
#     Node 0, Type 0, BuildingBlock: IZENUY_clean_sbu_0, # of connection points: 6
#     Node 1, Type 0, BuildingBlock: IZENUY_clean_sbu_0, # of connection points: 6
#     Node 2, Type 0, BuildingBlock: IZENUY_clean_sbu_0, # of connection points: 6
#     Node 3, Type 0, BuildingBlock: IZENUY_clean_sbu_0, # of connection points: 6
#     Node 4, Type 1, BuildingBlock: PAMTOO_clean_linker_0, # of connection points: 3
#     Node 5, Type 1, BuildingBlock: PAMTOO_clean_linker_0, # of connection points: 3
#     Node 6, Type 1, BuildingBlock: PAMTOO_clean_linker_0, # of connection points: 3
#     Node 7, Type 1, BuildingBlock: PAMTOO_clean_linker_0, # of connection points: 3
#     Node 8, Type 1, BuildingBlock: PAMTOO_clean_linker_0, # of connection points: 3
#     Node 9, Type 1, BuildingBlock: PAMTOO_clean_linker_0, # of connection points: 3
#     Node 10, Type 1, BuildingBlock: PAMTOO_clean_linker_0, # of connection points: 3
#     Node 11, Type 1, BuildingBlock: PAMTOO_clean_linker_0, # of connection points: 3
#     Edge 12, Type (0, 1), BuildingBlock: OJICUG_clean_linker_0, # of connection points: 2
#     Edge 13, Type (0, 1), BuildingBlock: OJICUG_clean_linker_0, # of connection points: 2
#     Edge 14, Type (0, 1), BuildingBlock: OJICUG_clean_linker_0, # of connection points: 2
#     Edge 15, Type (0, 1), BuildingBlock: OJICUG_clean_linker_0, # of connection points: 2
#     Edge 16, Type (0, 1), BuildingBlock: OJICUG_clean_linker_0, # of connection points: 2
#     Edge 17, Type (0, 1), BuildingBlock: OJICUG_clean_linker_0, # of connection points: 2
#     Edge 18, Type (0, 1), BuildingBlock: OJICUG_clean_linker_0, # of connection points: 2
#     Edge 19, Type (0, 1), BuildingBlock: OJICUG_clean_linker_0, # of connection points: 2
#     Edge 20, Type (0, 1), BuildingBlock: OJICUG_clean_linker_0, # of connection points: 2
#     Edge 21, Type (0, 1), BuildingBlock: OJICUG_clean_linker_0, # of connection points: 2
#     Edge 22, Type (0, 1), BuildingBlock: OJICUG_clean_linker_0, # of connection points: 2
#     Edge 23, Type (0, 1), BuildingBlock: OJICUG_clean_linker_0, # of connection points: 2
#     Edge 24, Type (0, 1), BuildingBlock: OJICUG_clean_linker_0, # of connection points: 2
#     Edge 25, Type (0, 1), BuildingBlock: OJICUG_clean_linker_0, # of connection points: 2
#     Edge 26, Type (0, 1), BuildingBlock: OJICUG_clean_linker_0, # of connection points: 2
#     Edge 27, Type (0, 1), BuildingBlock: OJICUG_clean_linker_0, # of connection points: 2
#     Edge 28, Type (0, 1), BuildingBlock: OJICUG_clean_linker_0, # of connection points: 2
#     Edge 29, Type (0, 1), BuildingBlock: OJICUG_clean_linker_0, # of connection points: 2
#     Edge 30, Type (0, 1), BuildingBlock: OJICUG_clean_linker_0, # of connection points: 2
#     Edge 31, Type (0, 1), BuildingBlock: OJICUG_clean_linker_0, # of connection points: 2
#     Edge 32, Type (0, 1), BuildingBlock: OJICUG_clean_linker_0, # of connection points: 2
#     Edge 33, Type (0, 1), BuildingBlock: OJICUG_clean_linker_0, # of connection points: 2
#     Edge 34, Type (0, 1), BuildingBlock: OJICUG_clean_linker_0, # of connection points: 2
#     Edge 35, Type (0, 1), BuildingBlock: OJICUG_clean_linker_0, # of connection points: 2
# Relax obj value: 0.004
# Max RMSD: 0.056
# Mean RMSD: 0.047
data_MOF--net-hwx--node1-IZENUY_clean_sbu_0--node2-PAMTOO_clean_linker_0--edge1-OJICUG_clean_linker_0
_symmetry_space_group_name_H-M    P1
_symmetry_Int_Tables_number       1
_symmetry_cell_setting            triclinic
loop_
_symmetry_equiv_pos_as_xyz
'x, y, z'
_cell_length_a     37.079956
_cell_length_b     37.083243
_cell_length_c     15.302598
_cell_angle_alpha  88.443439
_cell_angle_beta   91.641775
_cell_angle_gamma 89.674854
loop_
_atom_site_label
_atom_site_type_symbol
_atom_site_fract_x
_atom_site_fract_y
_atom_site_fract_z
_atom_type_partial_charge
Fe0 Fe 0.26148 0.26147 0.09654 0.0
Fe1 Fe 0.25698 0.26645 0.89625 0.0
O2 O 0.24232 0.24713 -0.00388 0.0
Fe3 Fe 0.20839 0.21335 -0.00436 0.0
O4 O 0.17848 0.24097 0.05823 0.0
O5 O 0.21979 0.25583 0.15678 0.0
O6 O 0.24735 0.30775 0.07486 0.0
C7 C 0.25522 0.32645 0.00823 0.0
C8 C 0.25663 0.18918 0.13264 0.0
O9 O 0.26541 0.31154 0.93954 0.0
C10 C 0.24971 0.1921 0.86096 0.0
O11 O 0.30664 0.27006 0.05424 0.0
O12 O 0.30326 0.25228 0.91863 0.0
O13 O 0.22578 0.18935 0.09489 0.0
O14 O 0.27698 0.21618 0.1259 0.0
C15 C 0.18467 0.26179 0.8587 0.0
O16 O 0.25149 0.22483 0.8354 0.0
O17 O 0.236 0.18346 0.93305 0.0
C18 C 0.32178 0.26002 0.98577 0.0
O19 O 0.21175 0.28202 0.86601 0.0
O20 O 0.18462 0.23095 0.8963 0.0
C21 C 0.1871 0.25442 0.13071 0.0
Fe22 Fe 0.26823 0.76248 0.62087 0.0
Fe23 Fe 0.31472 0.70888 0.52286 0.0
O24 O 0.28342 0.7455 0.52123 0.0
Fe25 Fe 0.26733 0.76527 0.4207 0.0
O26 O 0.26426 0.81135 0.46188 0.0
O27 O 0.28647 0.8067 0.59648 0.0
O28 O 0.31012 0.75259 0.68223 0.0
C29 C 0.34199 0.74868 0.65694 0.0
C30 C 0.20513 0.76576 0.51279 0.0
O31 O 0.34812 0.73408 0.58535 0.0
C32 C 0.26899 0.69016 0.3879 0.0
O33 O 0.24921 0.7192 0.65169 0.0
O34 O 0.29718 0.6871 0.62227 0.0
O35 O 0.22063 0.7556 0.44539 0.0
O36 O 0.22338 0.77586 0.57853 0.0
C37 C 0.33849 0.75423 0.38363 0.0
O38 O 0.28391 0.68098 0.46033 0.0
O39 O 0.2677 0.72289 0.36194 0.0
C40 C 0.26712 0.69016 0.65898 0.0
O41 O 0.33772 0.72396 0.42382 0.0
O42 O 0.31267 0.77636 0.38801 0.0
C43 C 0.27895 0.82549 0.5284 0.0
Fe44 Fe 0.76489 0.77801 0.90415 0.0
Fe45 Fe 0.77082 0.77249 0.10406 0.0
O46 O 0.78476 0.79213 0.00397 0.0
Fe47 Fe 0.81866 0.82587 0.00376 0.0
O48 O 0.80044 0.85017 0.90573 0.0
O49 O 0.74911 0.82324 0.87625 0.0
O50 O 0.71998 0.7694 0.94852 0.0
C51 C 0.70569 0.78044 0.01723 0.0
C52 C 0.83901 0.78533 0.86678 0.0
O53 O 0.72481 0.78724 0.08392 0.0
C54 C 0.84316 0.77663 0.13825 0.0
O55 O 0.77954 0.73193 0.92472 0.0
O56 O 0.7619 0.72756 0.06022 0.0
O57 O 0.84808 0.79852 0.93925 0.0
O58 O 0.80614 0.78389 0.842 0.0
C59 C 0.77848 0.84664 0.14088 0.0
O60 O 0.816 0.75655 0.13139 0.0
O61 O 0.84309 0.80772 0.10178 0.0
C62 C 0.77297 0.71304 -0.00812 0.0
O63 O 0.77702 0.81382 0.16591 0.0
O64 O 0.79157 0.85553 0.06826 0.0
C65 C 0.76933 0.85031 0.86922 0.0
Fe66 Fe 0.70447 0.32218 0.4833 0.0
Fe67 Fe 0.76214 0.27551 0.58243 0.0
O68 O 0.74104 0.29104 0.48304 0.0
Fe69 Fe 0.75664 0.2754 0.38249 0.0
O70 O 0.7448 0.31662 0.31967 0.0
O71 O 0.72867 0.35521 0.41758 0.0
O72 O 0.72097 0.34593 0.58006 0.0
C73 C 0.7518 0.34697 0.61771 0.0
C74 C 0.68401 0.27336 0.35053 0.0
O75 O 0.77371 0.32099 0.61313 0.0
C76 C 0.76171 0.21292 0.49199 0.0
O77 O 0.67757 0.29178 0.549 0.0
O78 O 0.72064 0.27611 0.64484 0.0
O79 O 0.7132 0.25561 0.35653 0.0
O80 O 0.68127 0.30369 0.38642 0.0
C81 C 0.82069 0.28712 0.46967 0.0
O82 O 0.75208 0.22872 0.55948 0.0
O83 O 0.77131 0.23096 0.42549 0.0
C84 C 0.6876 0.27733 0.62124 0.0
O85 O 0.8075 0.27235 0.53727 0.0
O86 O 0.80097 0.29444 0.40279 0.0
C87 C 0.74014 0.34868 0.34297 0.0
H88 H 0.24104 0.64106 0.02404 0.0
H89 H 0.24082 0.54035 0.89174 0.0
H90 H 0.23994 0.54071 0.17242 0.0
H91 H 0.28673 0.48546 0.10491 0.0
C92 C 0.27313 0.48111 0.04032 0.0
O93 O 0.24098 0.50005 0.03499 0.0
H94 H 0.29148 0.49113 0.98878 0.0
C95 C 0.2395 0.61186 0.02665 0.0
C96 C 0.23962 0.59349 0.10817 0.0
C97 C 0.23979 0.59315 0.94828 0.0
C98 C 0.24019 0.55529 0.95157 0.0
C99 C 0.24012 0.53651 0.03238 0.0
C100 C 0.23976 0.55555 0.11044 0.0
H101 H 0.89087 0.75659 0.50479 0.0
H102 H 0.9929 0.75361 0.3795 0.0
H103 H 0.98984 0.7591 0.65929 0.0
H104 H 0.04363 0.80759 0.56668 0.0
C105 C 0.05019 0.78909 0.51322 0.0
O106 O 0.03177 0.75716 0.52407 0.0
H107 H 0.04176 0.80267 0.45005 0.0
C108 C 0.92008 0.75526 0.50988 0.0
C109 C 0.9376 0.75705 0.59228 0.0
C110 C 0.93966 0.75396 0.43306 0.0
C111 C 0.9774 0.75426 0.43844 0.0
C112 C 0.99536 0.75615 0.51996 0.0
C113 C 0.97557 0.75759 0.59674 0.0
H114 H 0.7614 0.39926 0.97259 0.0
H115 H 0.75424 0.49894 0.10933 0.0
H116 H 0.77099 0.50053 0.83235 0.0
H117 H 0.81655 0.55185 0.93538 0.0
C118 C 0.797 0.55818 0.98676 0.0
O119 O 0.76514 0.54014 0.97116 0.0
H120 H 0.8092 0.54915 0.05107 0.0
C121 C 0.76201 0.4285 0.97257 0.0
C122 C 0.76686 0.44754 0.89356 0.0
C123 C 0.75665 0.44656 0.05067 0.0
C124 C 0.75814 0.48439 0.04984 0.0
C125 C 0.76384 0.50374 0.97138 0.0
C126 C 0.76749 0.48537 0.89302 0.0
H127 H 0.13535 0.28068 0.492 0.0
H128 H 0.03342 0.28352 0.61825 0.0
H129 H 0.03631 0.28118 0.33782 0.0
H130 H 0.98206 0.33012 0.40451 0.0
C131 C 0.97488 0.31506 0.46542 0.0
O132 O 0.99435 0.28323 0.47235 0.0
H133 H 0.98172 0.33227 0.52193 0.0
C134 C 0.10615 0.28223 0.48737 0.0
C135 C 0.0885 0.28142 0.40501 0.0
C136 C 0.08673 0.28313 0.56451 0.0
C137 C 0.04887 0.28308 0.55924 0.0
C138 C 0.03081 0.28281 0.47733 0.0
C139 C 0.05058 0.28164 0.40055 0.0
H140 H 0.74978 0.89857 0.50256 0.0
H141 H 0.74777 1.00046 0.62899 0.0
H142 H 0.75337 0.99764 0.34918 0.0
H143 H 0.80225 0.05067 0.44187 0.0
C144 C 0.78383 0.05767 0.49513 0.0
O145 O 0.75173 0.03947 0.48473 0.0
H146 H 0.79736 0.04941 0.55849 0.0
C147 C 0.74874 0.92779 0.49782 0.0
C148 C 0.75077 0.94538 0.41562 0.0
C149 C 0.74757 0.94727 0.57489 0.0
C150 C 0.74831 0.98503 0.5699 0.0
C151 C 0.75043 1.00306 0.48855 0.0
C152 C 0.75169 0.98333 0.41158 0.0
H153 H 0.63687 0.24851 0.98759 0.0
H154 H 0.53463 0.24657 0.11256 0.0
H155 H 0.5382 0.24624 0.83219 0.0
H156 H 0.48134 0.29169 0.89436 0.0
C157 C 0.47663 0.27845 0.95912 0.0
O158 O 0.49593 0.24654 0.96648 0.0
H159 H 0.48603 0.29726 0.01041 0.0
C160 C 0.60772 0.24656 0.98271 0.0
C161 C 0.5903 0.24668 0.89997 0.0
C162 C 0.58808 0.24626 0.05964 0.0
C163 C 0.55025 0.24628 0.05379 0.0
C164 C 0.53239 0.24613 0.97172 0.0
C165 C 0.55236 0.24619 0.8951 0.0
H166 H 0.2755 0.1401 0.49948 0.0
H167 H 0.2768 0.03815 0.37292 0.0
H168 H 0.27534 0.04109 0.65341 0.0
H169 H 0.32442 0.98683 0.58225 0.0
C170 C 0.30823 0.9794 0.52311 0.0
O171 O 0.27655 0.99913 0.51856 0.0
H172 H 0.3245 0.98571 0.46469 0.0
C173 C 0.27674 0.11089 0.50406 0.0
C174 C 0.27592 0.09327 0.58639 0.0
C175 C 0.27722 0.09143 0.42686 0.0
C176 C 0.27669 0.05361 0.432 0.0
C177 C 0.27647 0.03558 0.51382 0.0
C178 C 0.27577 0.05536 0.59072 0.0
H179 H 0.39169 0.76861 0.02071 0.0
H180 H 0.49319 0.76646 0.89137 0.0
H181 H 0.4912 0.76927 0.17197 0.0
H182 H 0.5441 0.81846 0.08638 0.0
C183 C 0.55067 0.8017 0.02964 0.0
O184 O 0.53265 0.76932 0.03551 0.0
H185 H 0.5418 0.81692 0.96898 0.0
C186 C 0.42094 0.76903 0.02372 0.0
C187 C 0.43893 0.76939 0.10549 0.0
C188 C 0.44011 0.76787 0.94604 0.0
C189 C 0.47792 0.767 0.95066 0.0
C190 C 0.49625 0.76808 0.03201 0.0
C191 C 0.47681 0.7687 0.1094 0.0
C192 C 0.16697 0.29095 0.25415 0.0
C193 C 0.15899 0.26498 0.19161 0.0
H194 H 0.15022 0.31767 0.36807 0.0
C195 C 0.12536 0.24769 0.19276 0.0
H196 H 0.19239 0.30522 0.25373 0.0
C197 C 0.1013 0.25438 0.25957 0.0
C198 C 0.11039 0.27875 0.32549 0.0
H199 H 0.11853 0.22759 0.14508 0.0
H200 H 0.07657 0.23905 0.26225 0.0
C201 C 0.14283 0.29801 0.31975 0.0
C202 C 0.227 0.66811 0.77797 0.0
C203 C 0.25621 0.66204 0.72355 0.0
H204 H 0.19864 0.65062 0.8913 0.0
C205 C 0.27679 0.63022 0.73674 0.0
H206 H 0.21033 0.69209 0.76925 0.0
C207 C 0.26987 0.60633 0.80653 0.0
C208 C 0.24238 0.61392 0.86459 0.0
H209 H 0.29929 0.62453 0.69554 0.0
H210 H 0.28741 0.58313 0.81812 0.0
C211 C 0.22027 0.64438 0.84792 0.0
C212 C 0.90228 0.78898 0.21519 0.0
C213 C 0.87201 0.76671 0.20349 0.0
H214 H 0.94799 0.80191 0.29729 0.0
C215 C 0.86765 0.73692 0.26099 0.0
H216 H 0.90659 0.81195 0.1716 0.0
C217 C 0.89121 0.73137 0.33282 0.0
C218 C 0.91988 0.75515 0.34787 0.0
H219 H 0.84485 0.71901 0.25357 0.0
H220 H 0.88607 0.70947 0.37902 0.0
C221 C 0.92612 0.78314 0.2867 0.0
C222 C 0.78848 0.37293 0.74075 0.0
C223 C 0.75993 0.37649 0.67856 0.0
H224 H 0.81324 0.3932 0.85763 0.0
C225 C 0.73736 0.40711 0.68015 0.0
H226 H 0.80653 0.34986 0.74116 0.0
C227 C 0.74164 0.43223 0.74624 0.0
C228 C 0.76833 0.42696 0.81223 0.0
H229 H 0.71536 0.41087 0.63261 0.0
H230 H 0.72254 0.45435 0.74915 0.0
C231 C 0.79245 0.39778 0.80728 0.0
C232 C 0.6613 0.23251 0.23368 0.0
C233 C 0.65561 0.26226 0.28674 0.0
H234 H 0.6439 0.20391 0.12048 0.0
C235 C 0.62422 0.28337 0.27195 0.0
H236 H 0.68494 0.21543 0.24362 0.0
C237 C 0.60054 0.2765 0.20158 0.0
C238 C 0.60795 0.24855 0.14462 0.0
H239 H 0.61884 0.30631 0.31202 0.0
H240 H 0.57778 0.29448 0.18842 0.0
C241 C 0.6378 0.22585 0.16315 0.0
C242 C 0.24267 0.13041 0.79875 0.0
C243 C 0.26008 0.16397 0.79986 0.0
H244 H 0.23373 0.08161 0.72933 0.0
C245 C 0.28603 0.17179 0.73726 0.0
H246 H 0.22259 0.12367 0.84649 0.0
C247 C 0.29292 0.14757 0.67166 0.0
C248 C 0.27351 0.11521 0.66597 0.0
H249 H 0.30041 0.19716 0.73765 0.0
H250 H 0.31257 0.15484 0.62329 0.0
C251 C 0.24918 0.10627 0.73195 0.0
C252 C 0.39748 0.73816 0.31719 0.0
C253 C 0.36743 0.76145 0.32063 0.0
H254 H 0.44417 0.72286 0.24673 0.0
C255 C 0.36396 0.79009 0.25882 0.0
H256 H 0.40115 0.71601 0.36427 0.0
C257 C 0.38851 0.79384 0.19168 0.0
C258 C 0.4173 0.76933 0.18543 0.0
H259 H 0.34135 0.80869 0.25974 0.0
H260 H 0.38424 0.81516 0.14258 0.0
C261 C 0.42229 0.74219 0.25039 0.0
C262 C 0.73001 0.87487 0.74562 0.0
C263 C 0.75956 0.87921 0.80398 0.0
H264 H 0.70295 0.89345 0.62716 0.0
C265 C 0.78179 0.90955 0.79325 0.0
H266 H 0.71214 0.85201 0.75225 0.0
C267 C 0.77619 0.9335 0.72192 0.0
C268 C 0.74846 0.92732 0.6599 0.0
H269 H 0.80458 0.91386 0.83753 0.0
H270 H 0.79496 0.95543 0.71217 0.0
C271 C 0.72468 0.89857 0.67397 0.0
C272 C 0.85874 0.74873 0.74284 0.0
C273 C 0.86684 0.77481 0.80499 0.0
H274 H 0.87547 0.72139 0.62979 0.0
C275 C 0.90054 0.79196 0.80343 0.0
H276 H 0.83327 0.73454 0.7436 0.0
C277 C 0.92461 0.78494 0.73681 0.0
C278 C 0.9155 0.76031 0.67147 0.0
H279 H 0.90749 0.81214 0.85083 0.0
H280 H 0.9494 0.80016 0.73397 0.0
C281 C 0.88291 0.74128 0.67752 0.0
C282 C 0.72183 0.37147 0.19557 0.0
C283 C 0.7404 0.3773 0.27487 0.0
H284 H 0.71114 0.38973 0.06414 0.0
C285 C 0.76128 0.40848 0.28415 0.0
H286 H 0.70513 0.34782 0.18759 0.0
C287 C 0.7655 0.43229 0.21229 0.0
C288 C 0.74855 0.42518 0.13109 0.0
H289 H 0.77581 0.41333 0.34508 0.0
H290 H 0.78336 0.45511 0.21903 0.0
C291 C 0.72549 0.39535 0.12487 0.0
C292 C 0.15982 0.3007 0.73437 0.0
C293 C 0.15571 0.27125 0.79299 0.0
H294 H 0.14075 0.32768 0.61626 0.0
C295 C 0.12534 0.24895 0.78257 0.0
H296 H 0.18267 0.31861 0.74067 0.0
C297 C 0.1011 0.25446 0.71155 0.0
C298 C 0.10696 0.28217 0.64944 0.0
H299 H 0.12118 0.22621 0.827 0.0
H300 H 0.07915 0.23566 0.70218 0.0
C301 C 0.13581 0.30595 0.66312 0.0
C302 C 0.27377 0.62825 0.32625 0.0
C303 C 0.25702 0.66236 0.32625 0.0
H304 H 0.28165 0.5796 0.25636 0.0
C305 C 0.23082 0.67118 0.26105 0.0
H306 H 0.29407 0.62073 0.37585 0.0
C307 C 0.22323 0.64748 0.19389 0.0
C308 C 0.24214 0.61464 0.18935 0.0
H309 H 0.217 0.69702 0.26031 0.0
H310 H 0.2036 0.65561 0.14325 0.0
C311 C 0.26653 0.60463 0.25803 0.0
C312 C 0.3662 0.78568 0.7768 0.0
C313 C 0.37157 0.75763 0.71872 0.0
H314 H 0.38443 0.8115 0.89282 0.0
C315 C 0.40294 0.73629 0.72802 0.0
H316 H 0.34254 0.80294 0.77007 0.0
C317 C 0.42692 0.74102 0.79932 0.0
C318 C 0.41977 0.76725 0.86139 0.0
H319 H 0.40763 0.7145 0.68392 0.0
H320 H 0.44966 0.72274 0.80894 0.0
C321 C 0.39012 0.79055 0.84707 0.0
C322 C 0.78554 0.90812 0.2045 0.0
C323 C 0.7681 0.87458 0.20256 0.0
H324 H 0.79412 0.95687 0.27437 0.0
C325 C 0.74185 0.86671 0.26435 0.0
H326 H 0.80585 0.91489 0.15737 0.0
C327 C 0.73453 0.89094 0.32971 0.0
C328 C 0.75387 0.92333 0.33622 0.0
H329 H 0.72743 0.84138 0.26327 0.0
H330 H 0.71451 0.88366 0.37716 0.0
C331 C 0.77866 0.93223 0.27119 0.0
C332 C 0.62568 0.28115 0.68287 0.0
C333 C 0.66037 0.26557 0.68452 0.0
H334 H 0.57634 0.28776 0.7504 0.0
C335 C 0.66985 0.24033 0.75135 0.0
H336 H 0.61761 0.30068 0.632 0.0
C337 C 0.64599 0.23233 0.81789 0.0
C338 C 0.61233 0.24993 0.82028 0.0
H339 H 0.69614 0.22738 0.75341 0.0
H340 H 0.6545 0.21324 0.86934 0.0
C341 C 0.60194 0.27357 0.75046 0.0
C342 C 0.29543 0.16407 0.25682 0.0
C343 C 0.26588 0.16018 0.19825 0.0
H344 H 0.32229 0.1449 0.37499 0.0
C345 C 0.24327 0.13007 0.20874 0.0
H346 H 0.31358 0.18671 0.25043 0.0
C347 C 0.24856 0.1059 0.27987 0.0
C348 C 0.27637 0.11159 0.34197 0.0
H349 H 0.22045 0.12608 0.16433 0.0
H350 H 0.22954 0.08417 0.28933 0.0
C351 C 0.30047 0.14014 0.32817 0.0
C352 C 0.26754 0.38778 0.94231 0.0
C353 C 0.25694 0.36631 0.01425 0.0
H354 H 0.28072 0.44082 0.89415 0.0
C355 C 0.24967 0.38319 0.09322 0.0
H356 H 0.27307 0.37578 0.88032 0.0
C357 C 0.25421 0.4204 0.10095 0.0
C358 C 0.2662 0.44146 0.0301 0.0
H359 H 0.24119 0.36758 0.14978 0.0
H360 H 0.24911 0.43268 0.16287 0.0
C361 C 0.27199 0.425 0.95012 0.0
C362 C 0.14827 0.77926 0.5901 0.0
C363 C 0.16532 0.76966 0.51296 0.0
H364 H 0.09867 0.79267 0.65044 0.0
C365 C 0.14405 0.76491 0.43661 0.0
H366 H 0.16371 0.7827 0.65042 0.0
C367 C 0.10671 0.77079 0.43694 0.0
C368 C 0.09008 0.78161 0.51339 0.0
H369 H 0.15626 0.75728 0.37632 0.0
H370 H 0.09084 0.76744 0.37719 0.0
C371 C 0.11104 0.785 0.59035 0.0
C372 C 0.78872 0.65688 0.91307 0.0
C373 C 0.77742 0.6733 0.98962 0.0
H374 H 0.80353 0.6077 0.8523 0.0
C375 C 0.77158 0.65146 0.06445 0.0
H376 H 0.79337 0.6728 0.85412 0.0
C377 C 0.77758 0.6142 0.06317 0.0
C378 C 0.78978 0.59812 0.98738 0.0
H379 H 0.76279 0.66317 0.12439 0.0
H380 H 0.77316 0.59794 0.12174 0.0
C381 C 0.79465 0.61965 0.9119 0.0
C382 C 0.87611 0.30715 0.39112 0.0
C383 C 0.86014 0.29359 0.4675 0.0
H384 H 0.9248 0.32426 0.33039 0.0
C385 C 0.88225 0.28659 0.54244 0.0
H386 H 0.85995 0.3128 0.3322 0.0
C387 C 0.91932 0.29328 0.54125 0.0
C388 C 0.93508 0.30712 0.46525 0.0
H389 H 0.87093 0.27616 0.60244 0.0
H390 H 0.93572 0.28791 0.59995 0.0
C391 C 0.91322 0.31372 0.38996 0.0
C392 C 0.77516 0.1556 0.4161 0.0
C393 C 0.76555 0.17308 0.49269 0.0
H394 H 0.7882 0.1056 0.35698 0.0
C395 C 0.7605 0.15215 0.56936 0.0
H396 H 0.77885 0.17077 0.35556 0.0
C397 C 0.76599 0.11474 0.56987 0.0
C398 C 0.77674 0.09767 0.49395 0.0
H399 H 0.75282 0.16467 0.62926 0.0
H400 H 0.76237 0.09917 0.62986 0.0
C401 C 0.78053 0.1183 0.41668 0.0
C402 C 0.38285 0.27182 0.05399 0.0
C403 C 0.36168 0.26174 0.98092 0.0
H404 H 0.43568 0.28473 0.10436 0.0
C405 C 0.37894 0.25501 0.90216 0.0
H406 H 0.37057 0.27689 0.11588 0.0
C407 C 0.41621 0.25965 0.89578 0.0
C408 C 0.43694 0.2712 0.96779 0.0
H409 H 0.36358 0.24694 0.84476 0.0
H410 H 0.42878 0.25502 0.834 0.0
C411 C 0.42011 0.27636 0.04754 0.0
C412 C 0.27843 0.88629 0.45188 0.0
C413 C 0.28554 0.86493 0.52793 0.0
H414 H 0.28008 0.93916 0.39132 0.0
C415 C 0.29952 0.88158 0.6031 0.0
H416 H 0.26767 0.87441 0.39283 0.0
C417 C 0.30648 0.91862 0.60198 0.0
C418 C 0.29989 0.93971 0.52556 0.0
H419 H 0.30527 0.86601 0.66284 0.0
H420 H 0.31736 0.93072 0.66065 0.0
C421 C 0.28552 0.92331 0.4508 0.0
C422 C 0.64991 0.79442 0.099 0.0
C423 C 0.66594 0.78422 0.02103 0.0
H424 H 0.60102 0.80763 0.1628 0.0
C425 C 0.64368 0.77865 0.94669 0.0
H426 H 0.66617 0.79881 0.15765 0.0
C427 C 0.60634 0.78388 0.9499 0.0
C428 C 0.59063 0.79491 0.02725 0.0
H429 H 0.6551 0.77072 0.8857 0.0
H430 H 0.58972 0.77981 0.89166 0.0
C431 C 0.61263 0.79953 0.10213 0.0
loop_
_geom_bond_atom_site_label_1
_geom_bond_atom_site_label_2
_geom_bond_distance
_geom_bond_site_symmetry_2
_ccdc_geom_bond_type
Fe0 O2 1.918 . S
Fe0 O5 1.997 . S
Fe0 O6 2.002 . S
Fe0 O11 1.976 . S
Fe0 O14 1.996 . S
Fe1 O2 1.918 1_556 S
Fe1 O9 1.997 . S
Fe1 O12 1.996 . S
Fe1 O16 1.976 . S
Fe1 O19 2.002 . S
O2 Fe0 1.918 . S
O2 Fe1 1.918 1_554 S
O2 Fe3 1.918 . S
Fe3 O2 1.918 . S
Fe3 O4 2.002 . S
Fe3 O13 1.976 . S
Fe3 O17 1.996 1_554 S
Fe3 O20 1.997 1_554 S
O4 Fe3 2.002 . S
O4 C21 1.295 . S
O5 Fe0 1.997 . S
O5 C21 1.235 . S
O6 Fe0 2.002 . S
O6 C7 1.295 . S
C7 O6 1.295 . S
C7 O9 1.235 1_554 S
C8 O13 1.287 . S
C8 O14 1.255 . S
O9 Fe1 1.997 . S
O9 C7 1.235 1_556 S
C10 O16 1.287 . S
C10 O17 1.255 . S
O11 Fe0 1.976 . S
O11 C18 1.287 . S
O12 Fe1 1.996 . S
O12 C18 1.255 1_556 S
O13 Fe3 1.976 . S
O13 C8 1.287 . S
O14 Fe0 1.996 . S
O14 C8 1.255 . S
C15 O19 1.295 . S
C15 O20 1.235 . S
O16 Fe1 1.976 . S
O16 C10 1.287 . S
O17 Fe3 1.996 1_556 S
O17 C10 1.255 . S
C18 O11 1.287 . S
C18 O12 1.255 1_554 S
O19 Fe1 2.002 . S
O19 C15 1.295 . S
O20 Fe3 1.997 1_556 S
O20 C15 1.235 . S
C21 O4 1.295 . S
C21 O5 1.235 . S
Fe22 O24 1.918 . S
Fe22 O27 1.997 . S
Fe22 O28 2.002 . S
Fe22 O33 1.976 . S
Fe22 O36 1.996 . S
Fe23 O24 1.918 . S
Fe23 O31 1.997 . S
Fe23 O34 1.996 . S
Fe23 O38 1.976 . S
Fe23 O41 2.002 . S
O24 Fe22 1.918 . S
O24 Fe23 1.918 . S
O24 Fe25 1.918 . S
Fe25 O24 1.918 . S
Fe25 O26 2.002 . S
Fe25 O35 1.976 . S
Fe25 O39 1.996 . S
Fe25 O42 1.997 . S
O26 Fe25 2.002 . S
O26 C43 1.295 . S
O27 Fe22 1.997 . S
O27 C43 1.235 . S
O28 Fe22 2.002 . S
O28 C29 1.295 . S
C29 O28 1.295 . S
C29 O31 1.235 . S
C30 O35 1.287 . S
C30 O36 1.255 . S
O31 Fe23 1.997 . S
O31 C29 1.235 . S
C32 O38 1.287 . S
C32 O39 1.255 . S
O33 Fe22 1.976 . S
O33 C40 1.287 . S
O34 Fe23 1.996 . S
O34 C40 1.255 . S
O35 Fe25 1.976 . S
O35 C30 1.287 . S
O36 Fe22 1.996 . S
O36 C30 1.255 . S
C37 O41 1.295 . S
C37 O42 1.235 . S
O38 Fe23 1.976 . S
O38 C32 1.287 . S
O39 Fe25 1.996 . S
O39 C32 1.255 . S
C40 O33 1.287 . S
C40 O34 1.255 . S
O41 Fe23 2.002 . S
O41 C37 1.295 . S
O42 Fe25 1.997 . S
O42 C37 1.235 . S
C43 O26 1.295 . S
C43 O27 1.235 . S
Fe44 O46 1.918 1_556 S
Fe44 O49 1.997 . S
Fe44 O50 2.002 . S
Fe44 O55 1.976 . S
Fe44 O58 1.996 . S
Fe45 O46 1.918 . S
Fe45 O53 1.997 . S
Fe45 O56 1.996 . S
Fe45 O60 1.976 . S
Fe45 O63 2.002 . S
O46 Fe44 1.918 1_554 S
O46 Fe45 1.918 . S
O46 Fe47 1.918 . S
Fe47 O46 1.918 . S
Fe47 O48 2.002 1_554 S
Fe47 O57 1.976 1_554 S
Fe47 O61 1.996 . S
Fe47 O64 1.997 . S
O48 Fe47 2.002 1_556 S
O48 C65 1.295 . S
O49 Fe44 1.997 . S
O49 C65 1.235 . S
O50 Fe44 2.002 . S
O50 C51 1.295 1_556 S
C51 O50 1.295 1_554 S
C51 O53 1.235 . S
C52 O57 1.287 . S
C52 O58 1.255 . S
O53 Fe45 1.997 . S
O53 C51 1.235 . S
C54 O60 1.287 . S
C54 O61 1.255 . S
O55 Fe44 1.976 . S
O55 C62 1.287 1_556 S
O56 Fe45 1.996 . S
O56 C62 1.255 . S
O57 Fe47 1.976 1_556 S
O57 C52 1.287 . S
O58 Fe44 1.996 . S
O58 C52 1.255 . S
C59 O63 1.295 . S
C59 O64 1.235 . S
O60 Fe45 1.976 . S
O60 C54 1.287 . S
O61 Fe47 1.996 . S
O61 C54 1.255 . S
C62 O55 1.287 1_554 S
C62 O56 1.255 . S
O63 Fe45 2.002 . S
O63 C59 1.295 . S
O64 Fe47 1.997 . S
O64 C59 1.235 . S
C65 O48 1.295 . S
C65 O49 1.235 . S
Fe66 O68 1.918 . S
Fe66 O71 1.997 . S
Fe66 O72 2.002 . S
Fe66 O77 1.976 . S
Fe66 O80 1.996 . S
Fe67 O68 1.918 . S
Fe67 O75 1.997 . S
Fe67 O78 1.996 . S
Fe67 O82 1.976 . S
Fe67 O85 2.002 . S
O68 Fe66 1.918 . S
O68 Fe67 1.918 . S
O68 Fe69 1.918 . S
Fe69 O68 1.918 . S
Fe69 O70 2.002 . S
Fe69 O79 1.976 . S
Fe69 O83 1.996 . S
Fe69 O86 1.997 . S
O70 Fe69 2.002 . S
O70 C87 1.295 . S
O71 Fe66 1.997 . S
O71 C87 1.235 . S
O72 Fe66 2.002 . S
O72 C73 1.295 . S
C73 O72 1.295 . S
C73 O75 1.235 . S
C74 O79 1.287 . S
C74 O80 1.255 . S
O75 Fe67 1.997 . S
O75 C73 1.235 . S
C76 O82 1.287 . S
C76 O83 1.255 . S
O77 Fe66 1.976 . S
O77 C84 1.287 . S
O78 Fe67 1.996 . S
O78 C84 1.255 . S
O79 Fe69 1.976 . S
O79 C74 1.287 . S
O80 Fe66 1.996 . S
O80 C74 1.255 . S
C81 O85 1.295 . S
C81 O86 1.235 . S
O82 Fe67 1.976 . S
O82 C76 1.287 . S
O83 Fe69 1.996 . S
O83 C76 1.255 . S
C84 O77 1.287 . S
C84 O78 1.255 . S
O85 Fe67 2.002 . S
O85 C81 1.295 . S
O86 Fe69 1.997 . S
O86 C81 1.235 . S
C87 O70 1.295 . S
C87 O71 1.235 . S
H88 C95 0.929 . S
H89 C98 0.930 . S
H90 C100 0.929 . S
H91 C92 0.969 . S
C92 H91 0.969 . S
C92 O93 1.550 1_556 S
C92 H94 0.973 . S
O93 C92 1.550 1_554 S
O93 C99 1.412 . S
H94 C92 0.973 . S
C95 H88 0.929 . S
C95 C96 1.400 . S
C95 C97 1.364 1_554 S
C96 C95 1.400 . S
C96 C100 1.377 . S
C97 C95 1.364 1_556 S
C97 C98 1.374 . S
C98 H89 0.930 . S
C98 C97 1.374 . S
C98 C99 1.383 1_556 S
C99 O93 1.412 . S
C99 C98 1.383 1_554 S
C99 C100 1.394 . S
C100 H90 0.929 . S
C100 C96 1.377 . S
C100 C99 1.394 . S
H101 C108 0.929 . S
H102 C111 0.947 . S
H103 C113 0.929 . S
H104 C105 0.969 . S
C105 H104 0.969 . S
C105 O106 1.550 . S
C105 H107 0.973 . S
O106 C105 1.550 . S
O106 C112 1.441 . S
H107 C105 0.973 . S
C108 H101 0.929 . S
C108 C109 1.400 . S
C108 C110 1.364 . S
C109 C108 1.400 . S
C109 C113 1.377 . S
C110 C108 1.364 . S
C110 C111 1.374 . S
C111 H102 0.947 . S
C111 C110 1.374 . S
C111 C112 1.371 1_655 S
C112 O106 1.441 . S
C112 C111 1.371 1_455 S
C112 C113 1.375 1_455 S
C113 H103 0.929 . S
C113 C109 1.377 . S
C113 C112 1.375 1_655 S
H114 C121 0.929 . S
H115 C124 0.930 . S
H116 C126 0.929 . S
H117 C118 0.969 . S
C118 H117 0.969 . S
C118 O119 1.550 1_554 S
C118 H120 0.973 . S
O119 C118 1.550 1_556 S
O119 C125 1.412 . S
H120 C118 0.973 . S
C121 H114 0.929 . S
C121 C122 1.400 1_554 S
C121 C123 1.364 . S
C122 C121 1.400 1_556 S
C122 C126 1.377 . S
C123 C121 1.364 . S
C123 C124 1.374 . S
C124 H115 0.930 . S
C124 C123 1.374 . S
C124 C125 1.383 1_554 S
C125 O119 1.412 . S
C125 C124 1.383 1_556 S
C125 C126 1.394 . S
C126 H116 0.929 . S
C126 C122 1.377 . S
C126 C125 1.394 . S
H127 C134 0.929 . S
H128 C137 0.930 1_655 S
H129 C139 0.929 . S
H130 C131 0.969 . S
C131 H130 0.969 . S
C131 O132 1.550 . S
C131 H133 0.973 . S
O132 C131 1.550 . S
O132 C138 1.412 . S
H133 C131 0.973 . S
C134 H127 0.929 . S
C134 C135 1.400 . S
C134 C136 1.364 . S
C135 C134 1.400 . S
C135 C139 1.377 . S
C136 C134 1.364 . S
C136 C137 1.374 . S
C137 H128 0.930 1_455 S
C137 C136 1.374 . S
C137 C138 1.383 1_455 S
C138 O132 1.412 . S
C138 C137 1.383 1_655 S
C138 C139 1.394 1_655 S
C139 H129 0.929 . S
C139 C135 1.377 . S
C139 C138 1.394 1_455 S
H140 C147 0.929 . S
H141 C150 0.930 1_545 S
H142 C152 0.929 . S
H143 C144 0.969 . S
C144 H143 0.969 . S
C144 O145 1.550 . S
C144 H146 0.973 . S
O145 C144 1.550 . S
O145 C151 1.412 . S
H146 C144 0.973 . S
C147 H140 0.929 . S
C147 C148 1.400 . S
C147 C149 1.364 . S
C148 C147 1.400 . S
C148 C152 1.377 . S
C149 C147 1.364 . S
C149 C150 1.374 . S
C150 H141 0.930 1_565 S
C150 C149 1.374 . S
C150 C151 1.383 1_565 S
C151 O145 1.412 . S
C151 C150 1.383 1_545 S
C151 C152 1.394 1_545 S
C152 H142 0.929 . S
C152 C148 1.377 . S
C152 C151 1.394 1_565 S
H153 C160 0.929 1_554 S
H154 C163 0.930 . S
H155 C165 0.929 . S
H156 C157 0.969 . S
C157 H156 0.969 . S
C157 O158 1.550 1_554 S
C157 H159 0.973 . S
O158 C157 1.550 1_556 S
O158 C164 1.412 . S
H159 C157 0.973 . S
C160 H153 0.929 1_556 S
C160 C161 1.400 . S
C160 C162 1.364 1_556 S
C161 C160 1.400 . S
C161 C165 1.377 . S
C162 C160 1.364 1_554 S
C162 C163 1.374 . S
C163 H154 0.930 . S
C163 C162 1.374 . S
C163 C164 1.383 1_554 S
C164 O158 1.412 . S
C164 C163 1.383 1_556 S
C164 C165 1.394 . S
C165 H155 0.929 . S
C165 C161 1.377 . S
C165 C164 1.394 . S
H166 C173 0.929 . S
H167 C176 0.930 1_565 S
H168 C178 0.929 . S
H169 C170 0.969 . S
C170 H169 0.969 . S
C170 O171 1.550 . S
C170 H172 0.973 . S
O171 C170 1.550 . S
O171 C177 1.412 . S
H172 C170 0.973 . S
C173 H166 0.929 . S
C173 C174 1.400 . S
C173 C175 1.364 . S
C174 C173 1.400 . S
C174 C178 1.377 . S
C175 C173 1.364 . S
C175 C176 1.374 . S
C176 H167 0.930 1_545 S
C176 C175 1.374 . S
C176 C177 1.383 1_545 S
C177 O171 1.412 . S
C177 C176 1.383 1_565 S
C177 C178 1.394 1_565 S
C178 H168 0.929 . S
C178 C174 1.377 . S
C178 C177 1.394 1_545 S
H179 C186 0.929 . S
H180 C189 0.930 . S
H181 C191 0.929 . S
H182 C183 0.969 . S
C183 H182 0.969 . S
C183 O184 1.550 1_556 S
C183 H185 0.973 . S
O184 C183 1.550 1_554 S
O184 C190 1.412 . S
H185 C183 0.973 . S
C186 H179 0.929 . S
C186 C187 1.400 . S
C186 C188 1.364 1_554 S
C187 C186 1.400 . S
C187 C191 1.377 . S
C188 C186 1.364 1_556 S
C188 C189 1.374 . S
C189 H180 0.930 . S
C189 C188 1.374 . S
C189 C190 1.383 1_556 S
C190 O184 1.412 . S
C190 C189 1.383 1_554 S
C190 C191 1.394 . S
C191 H181 0.929 . S
C191 C187 1.377 . S
C191 C190 1.394 . S
C192 C193 1.387 . S
C192 H196 0.950 . S
C192 C201 1.390 . S
C193 C192 1.387 . S
C193 C195 1.387 . S
H194 C201 0.950 . S
C195 C193 1.387 . S
C195 C197 1.390 . S
C195 H199 0.950 . S
H196 C192 0.950 . S
C197 C195 1.390 . S
C197 C198 1.387 . S
C197 H200 0.950 . S
C198 C197 1.387 . S
C198 C201 1.387 . S
H199 C195 0.950 . S
H200 C197 0.950 . S
C201 C192 1.390 . S
C201 H194 0.950 . S
C201 C198 1.387 . S
C202 C203 1.387 . S
C202 H206 0.950 . S
C202 C211 1.390 . S
C203 C202 1.387 . S
C203 C205 1.387 . S
H204 C211 0.950 . S
C205 C203 1.387 . S
C205 C207 1.390 . S
C205 H209 0.950 . S
H206 C202 0.950 . S
C207 C205 1.390 . S
C207 C208 1.387 . S
C207 H210 0.950 . S
C208 C207 1.387 . S
C208 C211 1.387 . S
H209 C205 0.950 . S
H210 C207 0.950 . S
C211 C202 1.390 . S
C211 H204 0.950 . S
C211 C208 1.387 . S
C212 C213 1.387 . S
C212 H216 0.950 . S
C212 C221 1.390 . S
C213 C212 1.387 . S
C213 C215 1.387 . S
H214 C221 0.950 . S
C215 C213 1.387 . S
C215 C217 1.390 . S
C215 H219 0.950 . S
H216 C212 0.950 . S
C217 C215 1.390 . S
C217 C218 1.387 . S
C217 H220 0.950 . S
C218 C217 1.387 . S
C218 C221 1.387 . S
H219 C215 0.950 . S
H220 C217 0.950 . S
C221 C212 1.390 . S
C221 H214 0.950 . S
C221 C218 1.387 . S
C222 C223 1.387 . S
C222 H226 0.950 . S
C222 C231 1.390 . S
C223 C222 1.387 . S
C223 C225 1.387 . S
H224 C231 0.950 . S
C225 C223 1.387 . S
C225 C227 1.390 . S
C225 H229 0.950 . S
H226 C222 0.950 . S
C227 C225 1.390 . S
C227 C228 1.387 . S
C227 H230 0.950 . S
C228 C227 1.387 . S
C228 C231 1.387 . S
H229 C225 0.950 . S
H230 C227 0.950 . S
C231 C222 1.390 . S
C231 H224 0.950 . S
C231 C228 1.387 . S
C232 C233 1.387 . S
C232 H236 0.950 . S
C232 C241 1.390 . S
C233 C232 1.387 . S
C233 C235 1.387 . S
H234 C241 0.950 . S
C235 C233 1.387 . S
C235 C237 1.390 . S
C235 H239 0.950 . S
H236 C232 0.950 . S
C237 C235 1.390 . S
C237 C238 1.387 . S
C237 H240 0.950 . S
C238 C237 1.387 . S
C238 C241 1.387 . S
H239 C235 0.950 . S
H240 C237 0.950 . S
C241 C232 1.390 . S
C241 H234 0.950 . S
C241 C238 1.387 . S
C242 C243 1.387 . S
C242 H246 0.950 . S
C242 C251 1.390 . S
C243 C242 1.387 . S
C243 C245 1.387 . S
H244 C251 0.950 . S
C245 C243 1.387 . S
C245 C247 1.390 . S
C245 H249 0.950 . S
H246 C242 0.950 . S
C247 C245 1.390 . S
C247 C248 1.387 . S
C247 H250 0.950 . S
C248 C247 1.387 . S
C248 C251 1.387 . S
H249 C245 0.950 . S
H250 C247 0.950 . S
C251 C242 1.390 . S
C251 H244 0.950 . S
C251 C248 1.387 . S
C252 C253 1.387 . S
C252 H256 0.950 . S
C252 C261 1.390 . S
C253 C252 1.387 . S
C253 C255 1.387 . S
H254 C261 0.950 . S
C255 C253 1.387 . S
C255 C257 1.390 . S
C255 H259 0.950 . S
H256 C252 0.950 . S
C257 C255 1.390 . S
C257 C258 1.387 . S
C257 H260 0.950 . S
C258 C257 1.387 . S
C258 C261 1.387 . S
H259 C255 0.950 . S
H260 C257 0.950 . S
C261 C252 1.390 . S
C261 H254 0.950 . S
C261 C258 1.387 . S
C262 C263 1.387 . S
C262 H266 0.950 . S
C262 C271 1.390 . S
C263 C262 1.387 . S
C263 C265 1.387 . S
H264 C271 0.950 . S
C265 C263 1.387 . S
C265 C267 1.390 . S
C265 H269 0.950 . S
H266 C262 0.950 . S
C267 C265 1.390 . S
C267 C268 1.387 . S
C267 H270 0.950 . S
C268 C267 1.387 . S
C268 C271 1.387 . S
H269 C265 0.950 . S
H270 C267 0.950 . S
C271 C262 1.390 . S
C271 H264 0.950 . S
C271 C268 1.387 . S
C272 C273 1.387 . S
C272 H276 0.950 . S
C272 C281 1.390 . S
C273 C272 1.387 . S
C273 C275 1.387 . S
H274 C281 0.950 . S
C275 C273 1.387 . S
C275 C277 1.390 . S
C275 H279 0.950 . S
H276 C272 0.950 . S
C277 C275 1.390 . S
C277 C278 1.387 . S
C277 H280 0.950 . S
C278 C277 1.387 . S
C278 C281 1.387 . S
H279 C275 0.950 . S
H280 C277 0.950 . S
C281 C272 1.390 . S
C281 H274 0.950 . S
C281 C278 1.387 . S
C282 C283 1.387 . S
C282 H286 0.950 . S
C282 C291 1.390 . S
C283 C282 1.387 . S
C283 C285 1.387 . S
H284 C291 0.950 . S
C285 C283 1.387 . S
C285 C287 1.390 . S
C285 H289 0.950 . S
H286 C282 0.950 . S
C287 C285 1.390 . S
C287 C288 1.387 . S
C287 H290 0.950 . S
C288 C287 1.387 . S
C288 C291 1.387 . S
H289 C285 0.950 . S
H290 C287 0.950 . S
C291 C282 1.390 . S
C291 H284 0.950 . S
C291 C288 1.387 . S
C292 C293 1.387 . S
C292 H296 0.950 . S
C292 C301 1.390 . S
C293 C292 1.387 . S
C293 C295 1.387 . S
H294 C301 0.950 . S
C295 C293 1.387 . S
C295 C297 1.390 . S
C295 H299 0.950 . S
H296 C292 0.950 . S
C297 C295 1.390 . S
C297 C298 1.387 . S
C297 H300 0.950 . S
C298 C297 1.387 . S
C298 C301 1.387 . S
H299 C295 0.950 . S
H300 C297 0.950 . S
C301 C292 1.390 . S
C301 H294 0.950 . S
C301 C298 1.387 . S
C302 C303 1.387 . S
C302 H306 0.950 . S
C302 C311 1.390 . S
C303 C302 1.387 . S
C303 C305 1.387 . S
H304 C311 0.950 . S
C305 C303 1.387 . S
C305 C307 1.390 . S
C305 H309 0.950 . S
H306 C302 0.950 . S
C307 C305 1.390 . S
C307 C308 1.387 . S
C307 H310 0.950 . S
C308 C307 1.387 . S
C308 C311 1.387 . S
H309 C305 0.950 . S
H310 C307 0.950 . S
C311 C302 1.390 . S
C311 H304 0.950 . S
C311 C308 1.387 . S
C312 C313 1.387 . S
C312 H316 0.950 . S
C312 C321 1.390 . S
C313 C312 1.387 . S
C313 C315 1.387 . S
H314 C321 0.950 . S
C315 C313 1.387 . S
C315 C317 1.390 . S
C315 H319 0.950 . S
H316 C312 0.950 . S
C317 C315 1.390 . S
C317 C318 1.387 . S
C317 H320 0.950 . S
C318 C317 1.387 . S
C318 C321 1.387 . S
H319 C315 0.950 . S
H320 C317 0.950 . S
C321 C312 1.390 . S
C321 H314 0.950 . S
C321 C318 1.387 . S
C322 C323 1.387 . S
C322 H326 0.950 . S
C322 C331 1.390 . S
C323 C322 1.387 . S
C323 C325 1.387 . S
H324 C331 0.950 . S
C325 C323 1.387 . S
C325 C327 1.390 . S
C325 H329 0.950 . S
H326 C322 0.950 . S
C327 C325 1.390 . S
C327 C328 1.387 . S
C327 H330 0.950 . S
C328 C327 1.387 . S
C328 C331 1.387 . S
H329 C325 0.950 . S
H330 C327 0.950 . S
C331 C322 1.390 . S
C331 H324 0.950 . S
C331 C328 1.387 . S
C332 C333 1.387 . S
C332 H336 0.950 . S
C332 C341 1.390 . S
C333 C332 1.387 . S
C333 C335 1.387 . S
H334 C341 0.950 . S
C335 C333 1.387 . S
C335 C337 1.390 . S
C335 H339 0.950 . S
H336 C332 0.950 . S
C337 C335 1.390 . S
C337 C338 1.387 . S
C337 H340 0.950 . S
C338 C337 1.387 . S
C338 C341 1.387 . S
H339 C335 0.950 . S
H340 C337 0.950 . S
C341 C332 1.390 . S
C341 H334 0.950 . S
C341 C338 1.387 . S
C342 C343 1.387 . S
C342 H346 0.950 . S
C342 C351 1.390 . S
C343 C342 1.387 . S
C343 C345 1.387 . S
H344 C351 0.950 . S
C345 C343 1.387 . S
C345 C347 1.390 . S
C345 H349 0.950 . S
H346 C342 0.950 . S
C347 C345 1.390 . S
C347 C348 1.387 . S
C347 H350 0.950 . S
C348 C347 1.387 . S
C348 C351 1.387 . S
H349 C345 0.950 . S
H350 C347 0.950 . S
C351 C342 1.390 . S
C351 H344 0.950 . S
C351 C348 1.387 . S
C352 C353 1.387 1_556 S
C352 H356 0.950 . S
C352 C361 1.390 . S
C353 C352 1.387 1_554 S
C353 C355 1.387 . S
H354 C361 0.950 . S
C355 C353 1.387 . S
C355 C357 1.390 . S
C355 H359 0.950 . S
H356 C352 0.950 . S
C357 C355 1.390 . S
C357 C358 1.387 . S
C357 H360 0.950 . S
C358 C357 1.387 . S
C358 C361 1.387 1_554 S
H359 C355 0.950 . S
H360 C357 0.950 . S
C361 C352 1.390 . S
C361 H354 0.950 . S
C361 C358 1.387 1_556 S
C362 C363 1.387 . S
C362 H366 0.950 . S
C362 C371 1.390 . S
C363 C362 1.387 . S
C363 C365 1.387 . S
H364 C371 0.950 . S
C365 C363 1.387 . S
C365 C367 1.390 . S
C365 H369 0.950 . S
H366 C362 0.950 . S
C367 C365 1.390 . S
C367 C368 1.387 . S
C367 H370 0.950 . S
C368 C367 1.387 . S
C368 C371 1.387 . S
H369 C365 0.950 . S
H370 C367 0.950 . S
C371 C362 1.390 . S
C371 H364 0.950 . S
C371 C368 1.387 . S
C372 C373 1.387 1_556 S
C372 H376 0.950 . S
C372 C381 1.390 . S
C373 C372 1.387 1_554 S
C373 C375 1.387 . S
H374 C381 0.950 . S
C375 C373 1.387 . S
C375 C377 1.390 . S
C375 H379 0.950 . S
H376 C372 0.950 . S
C377 C375 1.390 . S
C377 C378 1.387 . S
C377 H380 0.950 . S
C378 C377 1.387 . S
C378 C381 1.387 1_554 S
H379 C375 0.950 . S
H380 C377 0.950 . S
C381 C372 1.390 . S
C381 H374 0.950 . S
C381 C378 1.387 1_556 S
C382 C383 1.387 . S
C382 H386 0.950 . S
C382 C391 1.390 . S
C383 C382 1.387 . S
C383 C385 1.387 . S
H384 C391 0.950 . S
C385 C383 1.387 . S
C385 C387 1.390 . S
C385 H389 0.950 . S
H386 C382 0.950 . S
C387 C385 1.390 . S
C387 C388 1.387 . S
C387 H390 0.950 . S
C388 C387 1.387 . S
C388 C391 1.387 . S
H389 C385 0.950 . S
H390 C387 0.950 . S
C391 C382 1.390 . S
C391 H384 0.950 . S
C391 C388 1.387 . S
C392 C393 1.387 . S
C392 H396 0.950 . S
C392 C401 1.390 . S
C393 C392 1.387 . S
C393 C395 1.387 . S
H394 C401 0.950 . S
C395 C393 1.387 . S
C395 C397 1.390 . S
C395 H399 0.950 . S
H396 C392 0.950 . S
C397 C395 1.390 . S
C397 C398 1.387 . S
C397 H400 0.950 . S
C398 C397 1.387 . S
C398 C401 1.387 . S
H399 C395 0.950 . S
H400 C397 0.950 . S
C401 C392 1.390 . S
C401 H394 0.950 . S
C401 C398 1.387 . S
C402 C403 1.387 . S
C402 H406 0.950 . S
C402 C411 1.390 . S
C403 C402 1.387 . S
C403 C405 1.387 1_554 S
H404 C411 0.950 . S
C405 C403 1.387 1_556 S
C405 C407 1.390 . S
C405 H409 0.950 . S
H406 C402 0.950 . S
C407 C405 1.390 . S
C407 C408 1.387 1_556 S
C407 H410 0.950 . S
C408 C407 1.387 1_554 S
C408 C411 1.387 . S
H409 C405 0.950 . S
H410 C407 0.950 . S
C411 C402 1.390 . S
C411 H404 0.950 . S
C411 C408 1.387 . S
C412 C413 1.387 . S
C412 H416 0.950 . S
C412 C421 1.390 . S
C413 C412 1.387 . S
C413 C415 1.387 . S
H414 C421 0.950 . S
C415 C413 1.387 . S
C415 C417 1.390 . S
C415 H419 0.950 . S
H416 C412 0.950 . S
C417 C415 1.390 . S
C417 C418 1.387 . S
C417 H420 0.950 . S
C418 C417 1.387 . S
C418 C421 1.387 . S
H419 C415 0.950 . S
H420 C417 0.950 . S
C421 C412 1.390 . S
C421 H414 0.950 . S
C421 C418 1.387 . S
C422 C423 1.387 . S
C422 H426 0.950 . S
C422 C431 1.390 . S
C423 C422 1.387 . S
C423 C425 1.387 1_554 S
H424 C431 0.950 . S
C425 C423 1.387 1_556 S
C425 C427 1.390 . S
C425 H429 0.950 . S
H426 C422 0.950 . S
C427 C425 1.390 . S
C427 C428 1.387 1_556 S
C427 H430 0.950 . S
C428 C427 1.387 1_554 S
C428 C431 1.387 . S
H429 C425 0.950 . S
H430 C427 0.950 . S
C431 C422 1.390 . S
C431 H424 0.950 . S
C431 C428 1.387 . S
C193 C21 1.495 . S
C198 C135 1.504 . S
C203 C40 1.524 . S
C208 C97 1.489 . S
C218 C110 1.449 . S
C213 C54 1.473 . S
C223 C73 1.506 . S
C228 C122 1.509 . S
C238 C162 1.459 . S
C233 C74 1.482 . S
C248 C174 1.489 . S
C243 C10 1.502 . S
C258 C187 1.494 . S
C253 C37 1.484 . S
C268 C149 1.509 . S
C263 C65 1.527 . S
C273 C52 1.459 . S
C278 C109 1.454 . S
C283 C87 1.540 . S
C288 C123 1.518 . S
C293 C15 1.507 . S
C298 C136 1.496 . S
C308 C96 1.472 . S
C303 C32 1.484 . S
C313 C29 1.520 . S
C318 C188 1.504 . S
C328 C148 1.513 . S
C323 C59 1.518 . S
C338 C161 1.449 . S
C333 C84 1.452 . S
C343 C8 1.507 . S
C348 C175 1.475 . S
C358 C92 1.461 1_554 S
C353 C7 1.533 . S
C368 C105 1.457 . S
C363 C30 1.491 . S
C373 C62 1.539 . S
C378 C118 1.503 . S
C383 C81 1.501 . S
C388 C131 1.456 . S
C398 C144 1.453 . S
C393 C76 1.539 . S
C403 C18 1.490 . S
C408 C157 1.457 . S
C413 C43 1.535 . S
C418 C170 1.504 . S
C423 C51 1.501 . S
C428 C183 1.454 1_554 S
