# Generated by pormake.
# Topology hwx, (6,3)-cn, num edge types: 1
# Building blocks:
#     Node 0, Type 0, BuildingBlock: OJICUG_clean_sbu_0, # of connection points: 6
#     Node 1, Type 0, BuildingBlock: OJICUG_clean_sbu_0, # of connection points: 6
#     Node 2, Type 0, BuildingBlock: OJICUG_clean_sbu_0, # of connection points: 6
#     Node 3, Type 0, BuildingBlock: OJICUG_clean_sbu_0, # of connection points: 6
#     Node 4, Type 1, BuildingBlock: CUQRIR_clean_linker_1, # of connection points: 3
#     Node 5, Type 1, BuildingBlock: CUQRIR_clean_linker_1, # of connection points: 3
#     Node 6, Type 1, BuildingBlock: CUQRIR_clean_linker_1, # of connection points: 3
#     Node 7, Type 1, BuildingBlock: CUQRIR_clean_linker_1, # of connection points: 3
#     Node 8, Type 1, BuildingBlock: CUQRIR_clean_linker_1, # of connection points: 3
#     Node 9, Type 1, BuildingBlock: CUQRIR_clean_linker_1, # of connection points: 3
#     Node 10, Type 1, BuildingBlock: CUQRIR_clean_linker_1, # of connection points: 3
#     Node 11, Type 1, BuildingBlock: CUQRIR_clean_linker_1, # of connection points: 3
#     Edge 12, Type (0, 1), BuildingBlock: EZIPEK_clean_linker_0, # of connection points: 2
#     Edge 13, Type (0, 1), BuildingBlock: EZIPEK_clean_linker_0, # of connection points: 2
#     Edge 14, Type (0, 1), BuildingBlock: EZIPEK_clean_linker_0, # of connection points: 2
#     Edge 15, Type (0, 1), BuildingBlock: EZIPEK_clean_linker_0, # of connection points: 2
#     Edge 16, Type (0, 1), BuildingBlock: EZIPEK_clean_linker_0, # of connection points: 2
#     Edge 17, Type (0, 1), BuildingBlock: EZIPEK_clean_linker_0, # of connection points: 2
#     Edge 18, Type (0, 1), BuildingBlock: EZIPEK_clean_linker_0, # of connection points: 2
#     Edge 19, Type (0, 1), BuildingBlock: EZIPEK_clean_linker_0, # of connection points: 2
#     Edge 20, Type (0, 1), BuildingBlock: EZIPEK_clean_linker_0, # of connection points: 2
#     Edge 21, Type (0, 1), BuildingBlock: EZIPEK_clean_linker_0, # of connection points: 2
#     Edge 22, Type (0, 1), BuildingBlock: EZIPEK_clean_linker_0, # of connection points: 2
#     Edge 23, Type (0, 1), BuildingBlock: EZIPEK_clean_linker_0, # of connection points: 2
#     Edge 24, Type (0, 1), BuildingBlock: EZIPEK_clean_linker_0, # of connection points: 2
#     Edge 25, Type (0, 1), BuildingBlock: EZIPEK_clean_linker_0, # of connection points: 2
#     Edge 26, Type (0, 1), BuildingBlock: EZIPEK_clean_linker_0, # of connection points: 2
#     Edge 27, Type (0, 1), BuildingBlock: EZIPEK_clean_linker_0, # of connection points: 2
#     Edge 28, Type (0, 1), BuildingBlock: EZIPEK_clean_linker_0, # of connection points: 2
#     Edge 29, Type (0, 1), BuildingBlock: EZIPEK_clean_linker_0, # of connection points: 2
#     Edge 30, Type (0, 1), BuildingBlock: EZIPEK_clean_linker_0, # of connection points: 2
#     Edge 31, Type (0, 1), BuildingBlock: EZIPEK_clean_linker_0, # of connection points: 2
#     Edge 32, Type (0, 1), BuildingBlock: EZIPEK_clean_linker_0, # of connection points: 2
#     Edge 33, Type (0, 1), BuildingBlock: EZIPEK_clean_linker_0, # of connection points: 2
#     Edge 34, Type (0, 1), BuildingBlock: EZIPEK_clean_linker_0, # of connection points: 2
#     Edge 35, Type (0, 1), BuildingBlock: EZIPEK_clean_linker_0, # of connection points: 2
# Relax obj value: 0.003
# Max RMSD: 0.050
# Mean RMSD: 0.041
data_MOF--net-hwx--node1-OJICUG_clean_sbu_0--node2-CUQRIR_clean_linker_1--edge1-EZIPEK_clean_linker_0
_symmetry_space_group_name_H-M    P1
_symmetry_Int_Tables_number       1
_symmetry_cell_setting            triclinic
loop_
_symmetry_equiv_pos_as_xyz
'x, y, z'
_cell_length_a     35.522306
_cell_length_b     35.671713
_cell_length_c     13.18963
_cell_angle_alpha  90.045137
_cell_angle_beta   89.971876
_cell_angle_gamma 90.085959
loop_
_atom_site_label
_atom_site_type_symbol
_atom_site_fract_x
_atom_site_fract_y
_atom_site_fract_z
_atom_type_partial_charge
Sc0 Sc 0.21958 0.2293 0.12827 0.0
Sc1 Sc 0.16218 0.16736 0.99536 0.0
Sc2 Sc 0.22586 0.22383 0.86486 0.0
O3 O 0.20266 0.20697 0.99606 0.0
C4 C 0.22077 0.30033 0.97981 0.0
C5 C 0.13474 0.22173 0.1749 0.0
C6 C 0.13792 0.2158 0.81122 0.0
C7 C 0.20929 0.14183 0.1805 0.0
C8 C 0.2965 0.22134 0.01525 0.0
C9 C 0.21631 0.13947 0.81558 0.0
O10 O 0.22555 0.28507 0.06598 0.0
O11 O 0.13299 0.19086 0.12633 0.0
O12 O 0.17199 0.22243 0.78621 0.0
O13 O 0.216 0.17563 0.20668 0.0
O14 O 0.28181 0.22702 0.92867 0.0
O15 O 0.1854 0.13795 0.86455 0.0
O16 O 0.27756 0.21742 0.09629 0.0
O17 O 0.19436 0.13283 0.09622 0.0
O18 O 0.2385 0.16717 0.8231 0.0
O19 O 0.16278 0.24356 0.16714 0.0
O20 O 0.21611 0.28194 0.89828 0.0
O21 O 0.12842 0.20026 0.89426 0.0
Sc22 Sc 0.27455 0.72788 0.34178 0.0
Sc23 Sc 0.33939 0.66803 0.46152 0.0
Sc24 Sc 0.28045 0.726 0.60791 0.0
O25 O 0.29802 0.70712 0.47046 0.0
C26 C 0.27947 0.801 0.48326 0.0
C27 C 0.36038 0.72498 0.28223 0.0
C28 C 0.3696 0.71849 0.64125 0.0
C29 C 0.28628 0.64149 0.28252 0.0
C30 C 0.2032 0.72006 0.48069 0.0
C31 C 0.2902 0.6395 0.65232 0.0
O32 O 0.27238 0.78466 0.39966 0.0
O33 O 0.36803 0.69708 0.33878 0.0
O34 O 0.33696 0.72903 0.66891 0.0
O35 O 0.27381 0.67424 0.26496 0.0
O36 O 0.22161 0.7257 0.56229 0.0
O37 O 0.31551 0.63488 0.5847 0.0
O38 O 0.21849 0.71705 0.3941 0.0
O39 O 0.30796 0.63401 0.35645 0.0
O40 O 0.27325 0.67039 0.6663 0.0
O41 O 0.32839 0.74065 0.27904 0.0
O42 O 0.28639 0.7836 0.56488 0.0
O43 O 0.37542 0.69829 0.56362 0.0
Sc44 Sc 0.77284 0.76402 0.8764 0.0
Sc45 Sc 0.83307 0.82425 0.00895 0.0
Sc46 Sc 0.77361 0.76425 0.1435 0.0
O47 O 0.7931 0.78409 0.00947 0.0
C48 C 0.69897 0.76987 0.01682 0.0
C49 C 0.78137 0.84876 0.8198 0.0
C50 C 0.78305 0.85213 0.18852 0.0
C51 C 0.86139 0.77293 0.83126 0.0
C52 C 0.7755 0.69027 0.00512 0.0
C53 C 0.85869 0.77278 0.1969 0.0
O54 O 0.71536 0.76299 0.93283 0.0
O55 O 0.80924 0.85335 0.8793 0.0
O56 O 0.77487 0.81886 0.21579 0.0
O57 O 0.82808 0.76363 0.805 0.0
O58 O 0.76989 0.70722 0.08864 0.0
O59 O 0.86246 0.8011 0.13898 0.0
O60 O 0.78136 0.70695 0.92166 0.0
O61 O 0.86853 0.79118 0.91191 0.0
O62 O 0.82928 0.7525 0.19844 0.0
O63 O 0.76213 0.8188 0.81676 0.0
O64 O 0.71631 0.77446 0.10012 0.0
O65 O 0.80009 0.85964 0.10619 0.0
Sc66 Sc 0.72418 0.26318 0.66707 0.0
Sc67 Sc 0.65756 0.32265 0.55128 0.0
Sc68 Sc 0.71821 0.26761 0.40037 0.0
O69 O 0.7 0.28451 0.53971 0.0
C70 C 0.79516 0.27557 0.52014 0.0
C71 C 0.71123 0.34768 0.73468 0.0
C72 C 0.70374 0.35516 0.36463 0.0
C73 C 0.63688 0.26503 0.72757 0.0
C74 C 0.72303 0.19127 0.52577 0.0
C75 C 0.6303 0.27116 0.36507 0.0
O76 O 0.78062 0.27037 0.60737 0.0
O77 O 0.6852 0.35376 0.67056 0.0
O78 O 0.71651 0.32337 0.33815 0.0
O79 O 0.67046 0.25328 0.73785 0.0
O80 O 0.72255 0.20948 0.44312 0.0
O81 O 0.62458 0.29618 0.43232 0.0
O82 O 0.72213 0.20666 0.61235 0.0
O83 O 0.62735 0.2895 0.66218 0.0
O84 O 0.6622 0.2565 0.34818 0.0
O85 O 0.72864 0.31673 0.74084 0.0
O86 O 0.77622 0.27681 0.43858 0.0
O87 O 0.68381 0.36004 0.44366 0.0
C88 C 0.24352 0.48177 0.88802 0.0
N89 N 0.25156 0.51721 0.91718 0.0
N90 N 0.23696 0.45988 0.96981 0.0
C91 C 0.24459 0.46806 0.78036 0.0
C92 C 0.24111 0.48323 0.04988 0.0
N93 N 0.25018 0.51814 0.01804 0.0
C94 C 0.23921 0.47122 0.15885 0.0
H95 H 0.23063 0.48854 0.72956 0.0
H96 H 0.23075 0.44031 0.77265 0.0
H97 H 0.27439 0.46563 0.75602 0.0
H98 H 0.26742 0.46121 0.18255 0.0
H99 H 0.2189 0.44782 0.1684 0.0
H100 H 0.23105 0.49498 0.2085 0.0
C101 C 0.02033 0.73082 0.58749 0.0
N102 N 0.98443 0.73909 0.56125 0.0
N103 N 0.04255 0.72946 0.50434 0.0
C104 C 0.03432 0.72617 0.69412 0.0
C105 C 0.01902 0.7367 0.42636 0.0
N106 N 0.98354 0.74207 0.46059 0.0
C107 C 0.03095 0.73929 0.3172 0.0
H108 H 0.04858 0.7524 0.71818 0.0
H109 H 0.05536 0.70323 0.69733 0.0
H110 H 0.01087 0.72013 0.74726 0.0
H111 H 0.06012 0.75018 0.31083 0.0
H112 H 0.01162 0.75755 0.27346 0.0
H113 H 0.03033 0.7108 0.28346 0.0
C114 C 0.75142 0.51175 0.11858 0.0
N115 N 0.74304 0.47571 0.09583 0.0
N116 N 0.75835 0.53141 0.03302 0.0
C117 C 0.75061 0.52845 0.22314 0.0
C118 C 0.75441 0.50613 0.9574 0.0
N119 N 0.74527 0.47218 0.99549 0.0
C120 C 0.75686 0.51509 0.84626 0.0
H121 H 0.72453 0.54525 0.23169 0.0
H122 H 0.77488 0.54767 0.23352 0.0
H123 H 0.75115 0.50649 0.28261 0.0
H124 H 0.77382 0.49356 0.80644 0.0
H125 H 0.76949 0.54313 0.83307 0.0
H126 H 0.72811 0.51446 0.81344 0.0
C127 C 0.97863 0.2705 0.42632 0.0
N128 N 0.01414 0.25994 0.45099 0.0
N129 N 0.95613 0.27013 0.50893 0.0
C130 C 0.96537 0.28078 0.32177 0.0
C131 C 0.97907 0.25983 0.58553 0.0
N132 N 0.01452 0.25431 0.55099 0.0
C133 C 0.96644 0.25385 0.69311 0.0
H134 H 0.94615 0.30522 0.32614 0.0
H135 H 0.9491 0.25706 0.28938 0.0
H136 H 0.98933 0.28753 0.27095 0.0
H137 H 0.93709 0.24321 0.69545 0.0
H138 H 0.96717 0.28111 0.73358 0.0
H139 H 0.98523 0.23393 0.73313 0.0
C140 C 0.74047 0.00818 0.59138 0.0
N141 N 0.74734 0.97296 0.55847 0.0
N142 N 0.7351 0.03144 0.51184 0.0
C143 C 0.74204 0.0204 0.70039 0.0
C144 C 0.73877 0.00927 0.42937 0.0
N145 N 0.74679 0.97373 0.45754 0.0
C146 C 0.73723 0.0231 0.32184 0.0
H147 H 0.72693 0.0001 0.74936 0.0
H148 H 0.72966 0.04868 0.7107 0.0
H149 H 0.77188 0.02102 0.72514 0.0
H150 H 0.76312 0.03947 0.30555 0.0
H151 H 0.71287 0.04216 0.31191 0.0
H152 H 0.73508 -0.00039 0.26699 0.0
C153 C 0.48206 0.22041 0.954 0.0
N154 N 0.51841 0.21951 0.98883 0.0
N155 N 0.45735 0.21859 0.03168 0.0
C156 C 0.46968 0.23233 0.84925 0.0
C157 C 0.4788 0.21956 0.11544 0.0
N158 N 0.51569 0.22119 0.09036 0.0
C159 C 0.46352 0.22415 0.22139 0.0
H160 H 0.44381 0.24963 0.85373 0.0
H161 H 0.46239 0.2073 0.80337 0.0
H162 H 0.49137 0.24939 0.8103 0.0
H163 H 0.47736 0.20419 0.27368 0.0
H164 H 0.43268 0.21949 0.22459 0.0
H165 H 0.46986 0.25292 0.24866 0.0
C166 C 0.25296 0.98315 0.40729 0.0
N167 N 0.2472 0.01856 0.44093 0.0
N168 N 0.26459 0.96088 0.48379 0.0
C169 C 0.24634 0.96994 0.30055 0.0
C170 C 0.2653 0.98371 0.56562 0.0
N171 N 0.25385 0.01876 0.5405 0.0
C172 C 0.27714 0.97136 0.66975 0.0
H173 H 0.23508 0.94091 0.3004 0.0
H174 H 0.2736 0.96973 0.25945 0.0
H175 H 0.22656 0.98872 0.25996 0.0
H176 H 0.30148 0.95199 0.66402 0.0
H177 H 0.2537 0.9557 0.70586 0.0
H178 H 0.28479 0.99565 0.71814 0.0
C179 C 0.51158 0.77281 0.06194 0.0
N180 N 0.47625 0.77269 0.02035 0.0
N181 N 0.53826 0.7741 0.98899 0.0
C182 C 0.52108 0.76406 0.17102 0.0
C183 C 0.51895 0.77253 0.9015 0.0
N184 N 0.48149 0.7708 0.91961 0.0
C185 C 0.53697 0.76739 0.7991 0.0
H186 H 0.52496 0.79051 0.21395 0.0
H187 H 0.54801 0.74851 0.17626 0.0
H188 H 0.49907 0.74661 0.20738 0.0
H189 H 0.56636 0.77797 0.79872 0.0
H190 H 0.5206 0.78202 0.73959 0.0
H191 H 0.53732 0.73706 0.78039 0.0
C192 C 0.11077 0.25289 0.33582 0.0
C193 C 0.10347 0.23211 0.24543 0.0
C194 C 0.03829 0.22459 0.30149 0.0
C195 C 0.04426 0.25078 0.38097 0.0
N196 N 0.08444 0.29835 0.45139 0.0
N197 N 0.05549 0.20898 0.13008 0.0
C198 C 0.08 0.26762 0.39133 0.0
C199 C 0.06581 0.22099 0.2244 0.0
N200 N 0.14642 0.25679 0.373 0.0
N201 N 0.00702 0.20239 0.30041 0.0
H202 H 0.0735 0.20982 0.06773 0.0
H203 H 0.02757 0.20318 0.11116 0.0
H204 H 0.98715 0.20268 0.35841 0.0
H205 H 0.00326 0.18093 0.24761 0.0
H206 H 0.15189 0.26976 0.44238 0.0
H207 H 0.16956 0.24272 0.34293 0.0
H208 H 0.1098 0.31301 0.4563 0.0
H209 H 0.0615 0.31145 0.48552 0.0
C210 C 0.24214 0.59521 0.72639 0.0
C211 C 0.28012 0.60764 0.7198 0.0
C212 C 0.29925 0.55703 0.83362 0.0
C213 C 0.2611 0.54795 0.85094 0.0
N214 N 0.19555 0.55866 0.81809 0.0
N215 N 0.34332 0.60551 0.78682 0.0
C216 C 0.23229 0.56735 0.7989 0.0
C217 C 0.30833 0.58996 0.77892 0.0
N218 N 0.21597 0.60859 0.65984 0.0
N219 N 0.32676 0.53308 0.86467 0.0
H220 H 0.35017 0.6309 0.75265 0.0
H221 H 0.36381 0.59548 0.83635 0.0
H222 H 0.32049 0.50719 0.89711 0.0
H223 H 0.35511 0.53684 0.847 0.0
H224 H 0.18869 0.59809 0.65411 0.0
H225 H 0.2226 0.62796 0.60358 0.0
H226 H 0.17298 0.57452 0.79194 0.0
H227 H 0.18775 0.53646 0.865 0.0
C228 C 0.90021 0.79038 0.34299 0.0
C229 C 0.88966 0.76385 0.26808 0.0
C230 C 0.93741 0.72056 0.33253 0.0
C231 C 0.95075 0.74895 0.39868 0.0
N232 N 0.95179 0.8142 0.44332 0.0
N233 N 0.90341 0.70671 0.17784 0.0
C234 C 0.93399 0.78482 0.39784 0.0
C235 C 0.90951 0.72954 0.25934 0.0
N236 N 0.87761 0.82036 0.36357 0.0
N237 N 0.95167 0.68514 0.33923 0.0
H238 H 0.8849 0.7138 0.11969 0.0
H239 H 0.91945 0.68295 0.16252 0.0
H240 H 0.973 0.67803 0.38992 0.0
H241 H 0.9404 0.66237 0.30012 0.0
H242 H 0.88272 0.83881 0.42337 0.0
H243 H 0.85168 0.82422 0.32809 0.0
H244 H 0.94218 0.84174 0.43861 0.0
H245 H 0.9786 0.81145 0.47429 0.0
C246 C 0.7586 0.3905 0.81863 0.0
C247 C 0.7208 0.37787 0.80792 0.0
C248 C 0.6994 0.42868 0.91828 0.0
C249 C 0.73715 0.43902 0.93681 0.0
N250 N 0.80329 0.42835 0.91305 0.0
N251 N 0.65669 0.37913 0.86966 0.0
C252 C 0.76696 0.41914 0.89027 0.0
C253 C 0.6916 0.39516 0.86462 0.0
N254 N 0.78607 0.37699 0.75599 0.0
N255 N 0.67101 0.45226 0.94581 0.0
H256 H 0.65011 0.35376 0.83444 0.0
H257 H 0.63558 0.38895 0.91773 0.0
H258 H 0.6763 0.47856 0.97708 0.0
H259 H 0.64294 0.4477 0.92644 0.0
H260 H 0.81321 0.38798 0.75265 0.0
H261 H 0.78097 0.35684 0.70063 0.0
H262 H 0.82635 0.4122 0.89161 0.0
H263 H 0.81017 0.45126 0.95851 0.0
C264 C 0.58759 0.28292 0.21756 0.0
C265 C 0.5988 0.25951 0.29899 0.0
C266 C 0.55639 0.21011 0.239 0.0
C267 C 0.54378 0.2343 0.16103 0.0
N268 N 0.54025 0.29641 0.09067 0.0
N269 N 0.58988 0.20342 0.39768 0.0
C270 C 0.55709 0.27167 0.15515 0.0
C271 C 0.58188 0.22386 0.313 0.0
N272 N 0.60731 0.3149 0.19658 0.0
N273 N 0.54545 0.17338 0.23822 0.0
H274 H 0.60907 0.21255 0.45198 0.0
H275 H 0.57559 0.17905 0.41791 0.0
H276 H 0.52728 0.16258 0.18327 0.0
H277 H 0.55662 0.15309 0.28622 0.0
H278 H 0.60292 0.33097 0.13175 0.0
H279 H 0.63051 0.32343 0.23907 0.0
H280 H 0.54636 0.32497 0.08994 0.0
H281 H 0.51778 0.28892 0.04406 0.0
C282 C 0.21574 0.07071 0.76761 0.0
C283 C 0.22648 0.1082 0.74522 0.0
C284 C 0.26147 0.08463 0.59832 0.0
C285 C 0.24489 0.04895 0.61021 0.0
N286 N 0.19719 0.01174 0.69391 0.0
N287 N 0.25046 0.15079 0.61625 0.0
C288 C 0.21918 0.04305 0.69109 0.0
C289 C 0.24684 0.11533 0.65395 0.0
N290 N 0.20421 0.0607 0.86262 0.0
N291 N 0.29191 0.08906 0.53675 0.0
H292 H 0.23654 0.17385 0.64689 0.0
H293 H 0.26305 0.15618 0.54628 0.0
H294 H 0.30498 0.06619 0.50249 0.0
H295 H 0.30645 0.11438 0.53066 0.0
H296 H 0.19877 0.03293 0.88256 0.0
H297 H 0.20507 0.07893 0.92436 0.0
H298 H 0.17602 0.00793 0.74775 0.0
H299 H 0.19726 0.99188 0.63615 0.0
C300 C 0.41436 0.76859 0.24862 0.0
C301 C 0.38944 0.74009 0.21389 0.0
C302 C 0.40787 0.75426 0.04094 0.0
C303 C 0.44057 0.77216 0.07713 0.0
N304 N 0.45781 0.81842 0.19996 0.0
N305 N 0.36204 0.70628 0.07244 0.0
C306 C 0.43861 0.78642 0.17711 0.0
C307 C 0.38661 0.73244 0.10881 0.0
N308 N 0.41547 0.77778 0.34913 0.0
N309 N 0.39004 0.76845 0.95848 0.0
H310 H 0.34514 0.68985 0.11957 0.0
H311 H 0.36079 0.69979 0.99526 0.0
H312 H 0.39848 0.79415 0.92833 0.0
H313 H 0.36398 0.75848 0.93355 0.0
H314 H 0.43531 0.79596 0.38019 0.0
H315 H 0.39777 0.76539 0.40272 0.0
H316 H 0.45563 0.83239 0.26901 0.0
H317 H 0.47342 0.83254 0.14467 0.0
C318 C 0.79927 0.89332 0.68107 0.0
C319 C 0.77154 0.87944 0.74872 0.0
C320 C 0.72609 0.9243 0.67933 0.0
C321 C 0.75527 0.94084 0.62132 0.0
N322 N 0.82149 0.94777 0.59039 0.0
N323 N 0.70976 0.88543 0.8233 0.0
C324 C 0.79243 0.92717 0.62846 0.0
C325 C 0.73506 0.89572 0.75042 0.0
N326 N 0.83148 0.87348 0.66402 0.0
N327 N 0.68989 0.93625 0.66705 0.0
H328 H 0.71576 0.86538 0.8782 0.0
H329 H 0.68419 0.899 0.83498 0.0
H330 H 0.68285 0.95872 0.62032 0.0
H331 H 0.66673 0.92252 0.69826 0.0
H332 H 0.85119 0.88104 0.60908 0.0
H333 H 0.83608 0.84718 0.69605 0.0
H334 H 0.84965 0.94045 0.60019 0.0
H335 H 0.81735 0.97447 0.56056 0.0
C336 C 0.91939 0.79224 0.73465 0.0
C337 C 0.8933 0.76372 0.76243 0.0
C338 C 0.92652 0.71934 0.65128 0.0
C339 C 0.95372 0.74721 0.62972 0.0
N340 N 0.98165 0.80671 0.67264 0.0
N341 N 0.87695 0.69794 0.76389 0.0
C342 C 0.95188 0.78255 0.67822 0.0
C343 C 0.89801 0.72661 0.7248 0.0
N344 N 0.91245 0.82899 0.75743 0.0
N345 N 0.92856 0.68562 0.60278 0.0
H346 H 0.85731 0.70173 0.82174 0.0
H347 H 0.88143 0.66984 0.74639 0.0
H348 H 0.95104 0.67863 0.5557 0.0
H349 H 0.90728 0.66554 0.60529 0.0
H350 H 0.92832 0.85104 0.72798 0.0
H351 H 0.88884 0.83809 0.79708 0.0
H352 H 0.98368 0.83093 0.71652 0.0
H353 H 0.00576 0.80103 0.6306 0.0
C354 C 0.75235 0.39516 0.27855 0.0
C355 C 0.71383 0.38806 0.3012 0.0
C356 C 0.6958 0.44324 0.20189 0.0
C357 C 0.73326 0.44653 0.16678 0.0
N358 N 0.79794 0.42773 0.17332 0.0
N359 N 0.64812 0.40333 0.27552 0.0
C360 C 0.76174 0.42289 0.20535 0.0
C361 C 0.6853 0.41169 0.261 0.0
N362 N 0.77993 0.37695 0.33147 0.0
N363 N 0.67063 0.47119 0.18237 0.0
H364 H 0.6388 0.38099 0.31963 0.0
H365 H 0.62644 0.41691 0.23718 0.0
H366 H 0.67788 0.49529 0.14221 0.0
H367 H 0.64388 0.47233 0.21463 0.0
H368 H 0.80848 0.38314 0.32524 0.0
H369 H 0.77416 0.3579 0.38935 0.0
H370 H 0.81948 0.40869 0.18748 0.0
H371 H 0.80609 0.45057 0.12923 0.0
C372 C 0.08915 0.26147 0.7533 0.0
C373 C 0.10777 0.2267 0.74013 0.0
C374 C 0.06379 0.2095 0.60483 0.0
C375 C 0.0469 0.24526 0.6126 0.0
N376 N 0.04585 0.30733 0.68429 0.0
N377 N 0.11743 0.17007 0.6435 0.0
C378 C 0.06029 0.27185 0.68424 0.0
C379 C 0.09662 0.20151 0.66239 0.0
N380 N 0.09863 0.28418 0.83296 0.0
N381 N 0.04699 0.1825 0.54707 0.0
H382 H 0.14117 0.1629 0.68579 0.0
H383 H 0.11297 0.15273 0.58107 0.0
H384 H 0.02181 0.18722 0.5087 0.0
H385 H 0.05583 0.15469 0.54506 0.0
H386 H 0.08336 0.30783 0.85392 0.0
H387 H 0.12065 0.27812 0.88262 0.0
H388 H 0.05682 0.32928 0.72714 0.0
H389 H 0.02461 0.31577 0.63482 0.0
C390 C 0.23825 0.6023 0.18846 0.0
C391 C 0.27651 0.61073 0.21104 0.0
C392 C 0.29646 0.55554 0.1147 0.0
C393 C 0.25906 0.54985 0.08185 0.0
N394 N 0.19407 0.56792 0.08267 0.0
N395 N 0.34243 0.60019 0.17473 0.0
C396 C 0.22989 0.57357 0.11669 0.0
C397 C 0.30578 0.58875 0.16804 0.0
N398 N 0.20998 0.62001 0.23998 0.0
N399 N 0.32272 0.52823 0.09978 0.0
H400 H 0.35053 0.62518 0.20957 0.0
H401 H 0.36426 0.58688 0.13612 0.0
H402 H 0.31605 0.50254 0.06666 0.0
H403 H 0.34973 0.52944 0.13043 0.0
H404 H 0.18174 0.61252 0.23417 0.0
H405 H 0.21491 0.64014 0.29575 0.0
H406 H 0.17212 0.58667 0.09521 0.0
H407 H 0.18685 0.5451 0.03728 0.0
C408 C 0.42272 0.70518 0.76132 0.0
C409 C 0.40238 0.73131 0.70157 0.0
C410 C 0.44002 0.78275 0.77263 0.0
C411 C 0.45524 0.75741 0.84436 0.0
N412 N 0.46169 0.6948 0.90939 0.0
N413 N 0.39248 0.79471 0.64419 0.0
C414 C 0.44702 0.7186 0.83866 0.0
C415 C 0.41152 0.77009 0.70481 0.0
N416 N 0.41956 0.66763 0.74265 0.0
N417 N 0.45213 0.81911 0.77252 0.0
H418 H 0.37327 0.78606 0.58906 0.0
H419 H 0.39467 0.82371 0.65009 0.0
H420 H 0.47134 0.82927 0.82575 0.0
H421 H 0.44493 0.83861 0.71727 0.0
H422 H 0.43624 0.6474 0.77738 0.0
H423 H 0.403 0.6567 0.68468 0.0
H424 H 0.45313 0.66706 0.91791 0.0
H425 H 0.48061 0.70354 0.96487 0.0
C426 C 0.80207 0.90894 0.28882 0.0
C427 C 0.77347 0.88349 0.25777 0.0
C428 C 0.72776 0.9166 0.36502 0.0
C429 C 0.75588 0.94301 0.39076 0.0
N430 N 0.81668 0.97016 0.35683 0.0
N431 N 0.70752 0.86697 0.25164 0.0
C432 C 0.79212 0.94091 0.34664 0.0
C433 C 0.73584 0.88816 0.2925 0.0
N434 N 0.83904 0.90188 0.26706 0.0
N435 N 0.69301 0.91946 0.40839 0.0
H436 H 0.71208 0.84677 0.19593 0.0
H437 H 0.67908 0.87144 0.26613 0.0
H438 H 0.68536 0.94231 0.45301 0.0
H439 H 0.67245 0.89871 0.4036 0.0
H440 H 0.8612 0.9171 0.29857 0.0
H441 H 0.84805 0.87876 0.22542 0.0
H442 H 0.84185 0.97209 0.31661 0.0
H443 H 0.81041 0.99418 0.39838 0.0
C444 C 0.61343 0.24921 0.90201 0.0
C445 C 0.60776 0.24879 0.79534 0.0
C446 C 0.55186 0.20959 0.82253 0.0
C447 C 0.55288 0.2191 0.92641 0.0
N448 N 0.60329 0.20861 0.04286 0.0
N449 N 0.57202 0.22498 0.65254 0.0
C450 C 0.58877 0.22841 0.9642 0.0
C451 C 0.57723 0.2276 0.7547 0.0
N452 N 0.64216 0.269 0.94503 0.0
N453 N 0.52992 0.18037 0.79181 0.0
H454 H 0.59037 0.23705 0.6005 0.0
H455 H 0.54812 0.21295 0.62019 0.0
H456 H 0.51435 0.16469 0.84402 0.0
H457 H 0.53042 0.1695 0.71848 0.0
H458 H 0.6453 0.27072 0.02363 0.0
H459 H 0.66051 0.28584 0.90327 0.0
H460 H 0.63099 0.21201 0.06772 0.0
H461 H 0.58906 0.18523 0.07107 0.0
C462 C 0.25439 0.09229 0.23687 0.0
C463 C 0.21984 0.11143 0.25101 0.0
C464 C 0.20253 0.06801 0.38733 0.0
C465 C 0.23815 0.05064 0.37855 0.0
N466 N 0.30022 0.04882 0.30527 0.0
N467 N 0.16345 0.12187 0.34896 0.0
C468 C 0.26472 0.06351 0.30593 0.0
C469 C 0.1947 0.10072 0.32953 0.0
N470 N 0.27702 0.10128 0.15647 0.0
N471 N 0.17554 0.05186 0.44664 0.0
H472 H 0.15633 0.14545 0.30639 0.0
H473 H 0.14621 0.11776 0.41188 0.0
H474 H 0.18019 0.02688 0.48561 0.0
H475 H 0.14776 0.06106 0.44965 0.0
H476 H 0.30037 0.08561 0.13482 0.0
H477 H 0.27114 0.12329 0.1069 0.0
H478 H 0.3222 0.05944 0.26167 0.0
H479 H 0.30875 0.02784 0.35516 0.0
C480 C 0.19238 0.36447 0.991 0.0
C481 C 0.22424 0.34144 0.97325 0.0
C482 C 0.2647 0.39681 0.96049 0.0
C483 C 0.23261 0.41981 0.97184 0.0
N484 N 0.16574 0.42722 0.98517 0.0
N485 N 0.28942 0.33496 0.9246 0.0
C486 C 0.19632 0.40406 0.9835 0.0
C487 C 0.26007 0.35741 0.95301 0.0
N488 N 0.1587 0.34845 0.01657 0.0
N489 N 0.29966 0.41281 0.95997 0.0
H490 H 0.28714 0.30589 0.91882 0.0
H491 H 0.3152 0.34519 0.89911 0.0
H492 H 0.30374 0.44171 0.96495 0.0
H493 H 0.32458 0.39754 0.96276 0.0
H494 H 0.13529 0.36365 0.04013 0.0
H495 H 0.15473 0.31948 0.01989 0.0
H496 H 0.13802 0.41775 0.98383 0.0
H497 H 0.16826 0.45634 0.98117 0.0
C498 C 0.14402 0.75744 0.48283 0.0
C499 C 0.16168 0.72182 0.48442 0.0
C500 C 0.09997 0.69098 0.49264 0.0
C501 C 0.08289 0.72665 0.50045 0.0
N502 N 0.08745 0.79364 0.51302 0.0
N503 N 0.15771 0.65446 0.486 0.0
C504 C 0.10466 0.75984 0.49872 0.0
C505 C 0.13996 0.6884 0.48793 0.0
N506 N 0.16464 0.78874 0.46017 0.0
N507 N 0.07753 0.6599 0.48734 0.0
H508 H 0.18663 0.65194 0.47445 0.0
H509 H 0.14431 0.62889 0.49759 0.0
H510 H 0.04825 0.66146 0.49226 0.0
H511 H 0.08735 0.63291 0.47387 0.0
H512 H 0.1529 0.81508 0.44807 0.0
H513 H 0.19334 0.78779 0.44385 0.0
H514 H 0.10201 0.81864 0.52442 0.0
H515 H 0.05837 0.7963 0.52037 0.0
C516 C 0.7387 0.63202 0.97129 0.0
C517 C 0.77265 0.64904 0.00442 0.0
C518 C 0.79868 0.58737 0.04537 0.0
C519 C 0.76327 0.5712 0.02367 0.0
N520 N 0.69789 0.57768 0.981 0.0
N521 N 0.83466 0.64403 0.07695 0.0
C522 C 0.73279 0.59341 0.99048 0.0
C523 C 0.80265 0.62699 0.04272 0.0
N524 N 0.71242 0.65256 0.92001 0.0
N525 N 0.82854 0.56455 0.06601 0.0
H526 H 0.839 0.67281 0.07048 0.0
H527 H 0.85598 0.63011 0.1157 0.0
H528 H 0.82599 0.53542 0.06877 0.0
H529 H 0.85612 0.57407 0.07339 0.0
H530 H 0.68888 0.64076 0.88538 0.0
H531 H 0.71566 0.68103 0.90456 0.0
H532 H 0.67358 0.59316 0.96739 0.0
H533 H 0.69273 0.54941 0.99573 0.0
C534 C 0.85772 0.3084 0.53159 0.0
C535 C 0.83662 0.2754 0.51138 0.0
C536 C 0.89459 0.23914 0.49239 0.0
C537 C 0.91571 0.2721 0.51035 0.0
N538 N 0.91947 0.33827 0.53912 0.0
N539 N 0.83436 0.21165 0.44979 0.0
C540 C 0.89779 0.30688 0.52776 0.0
C541 C 0.85489 0.24141 0.48493 0.0
N542 N 0.83924 0.34101 0.5532 0.0
N543 N 0.91266 0.20544 0.48591 0.0
H544 H 0.80514 0.2121 0.44306 0.0
H545 H 0.84634 0.18755 0.41918 0.0
H546 H 0.94182 0.20292 0.49072 0.0
H547 H 0.89879 0.17972 0.48436 0.0
H548 H 0.85234 0.36555 0.57709 0.0
H549 H 0.81005 0.34333 0.54834 0.0
H550 H 0.90888 0.36532 0.54546 0.0
H551 H 0.94884 0.33726 0.53823 0.0
C552 C 0.69489 0.12826 0.4885 0.0
C553 C 0.72608 0.15005 0.52134 0.0
C554 C 0.76424 0.09332 0.53696 0.0
C555 C 0.73213 0.07155 0.51367 0.0
N556 N 0.6659 0.06663 0.48142 0.0
N557 N 0.78881 0.15318 0.59229 0.0
C558 C 0.69712 0.08859 0.49321 0.0
C559 C 0.7603 0.13254 0.55045 0.0
N560 N 0.66332 0.14548 0.45243 0.0
N561 N 0.79866 0.07646 0.54288 0.0
H562 H 0.78749 0.18215 0.60188 0.0
H563 H 0.81271 0.14129 0.62461 0.0
H564 H 0.80231 0.04772 0.53239 0.0
H565 H 0.82387 0.09122 0.54912 0.0
H566 H 0.64119 0.13124 0.41773 0.0
H567 H 0.66045 0.1745 0.4508 0.0
H568 H 0.63866 0.0772 0.47636 0.0
H569 H 0.66706 0.03741 0.48437 0.0
C570 C 0.3577 0.25289 0.05253 0.0
C571 C 0.33785 0.22024 0.02185 0.0
C572 C 0.39716 0.1861 1.00286 0.0
C573 C 0.41691 0.21943 0.02633 0.0
N574 N 0.41758 0.28569 0.05788 0.0
N575 N 0.33769 0.15682 0.95823 0.0
C576 C 0.39758 0.25321 0.04688 0.0
C577 C 0.35731 0.18709 0.99398 0.0
N578 N 0.33842 0.28328 0.08853 0.0
N579 N 0.4167 0.15338 0.99224 0.0
H580 H 0.30836 0.15607 0.95466 0.0
H581 H 0.35036 0.13325 0.9267 0.0
H582 H 0.44598 0.15217 0.99757 0.0
H583 H 0.40404 0.12719 0.98509 0.0
H584 H 0.35137 0.30649 0.12138 0.0
H585 H 0.30912 0.28425 0.0925 0.0
H586 H 0.40527 0.31208 0.06292 0.0
H587 H 0.44689 0.28649 0.05363 0.0
C588 C 0.24505 0.85922 0.53256 0.0
C589 C 0.27703 0.84231 0.48714 0.0
C590 C 0.30244 0.90448 0.44621 0.0
C591 C 0.26877 0.92076 0.4826 0.0
N592 N 0.20488 0.91386 0.53886 0.0
N593 N 0.33547 0.84788 0.39508 0.0
C594 C 0.2392 0.89816 0.51996 0.0
C595 C 0.30557 0.86469 0.44189 0.0
N596 N 0.22049 0.83829 0.58891 0.0
N597 N 0.33153 0.9273 0.41822 0.0
H598 H 0.33954 0.81892 0.39525 0.0
H599 H 0.3553 0.86232 0.352 0.0
H600 H 0.32941 0.95647 0.41998 0.0
H601 H 0.35828 0.91762 0.39963 0.0
H602 H 0.19898 0.85001 0.63223 0.0
H603 H 0.22331 0.80949 0.59944 0.0
H604 H 0.18097 0.89829 0.55682 0.0
H605 H 0.19943 0.94213 0.52559 0.0
C606 C 0.63864 0.80635 0.01514 0.0
C607 C 0.65741 0.77127 0.01822 0.0
C608 C 0.5973 0.73811 0.00362 0.0
C609 C 0.57851 0.77302 1.00157 0.0
N610 N 0.57902 0.83992 0.0181 0.0
N611 N 0.65476 0.70439 0.04181 0.0
C612 C 0.5986 0.80707 0.01143 0.0
C613 C 0.63677 0.73724 0.01991 0.0
N614 N 0.65921 0.83875 0.01411 0.0
N615 N 0.57726 0.70589 0.98865 0.0
H616 H 0.68343 0.70322 0.05855 0.0
H617 H 0.64093 0.67898 0.05297 0.0
H618 H 0.54808 0.70576 0.98056 0.0
H619 H 0.58961 0.67974 0.97791 0.0
H620 H 0.64786 0.86521 1.00179 0.0
H621 H 0.68841 0.83904 0.02206 0.0
H622 H 0.59122 0.86577 0.03427 0.0
H623 H 0.54973 0.84098 0.01285 0.0
loop_
_geom_bond_atom_site_label_1
_geom_bond_atom_site_label_2
_geom_bond_distance
_geom_bond_site_symmetry_2
_ccdc_geom_bond_type
Sc0 O3 2.025 . S
Sc0 O10 2.105 . S
Sc0 O13 2.105 . S
Sc0 O16 2.105 . S
Sc0 O19 2.105 . S
Sc1 O3 2.025 . S
Sc1 O11 2.104 . S
Sc1 O15 2.106 1_554 S
Sc1 O17 2.104 . S
Sc1 O21 2.106 1_554 S
Sc2 O3 2.025 1_556 S
Sc2 O12 2.105 . S
Sc2 O14 2.105 . S
Sc2 O18 2.105 . S
Sc2 O20 2.105 . S
O3 Sc0 2.025 . S
O3 Sc1 2.025 . S
O3 Sc2 2.025 1_554 S
C4 O10 1.270 . S
C4 O20 1.267 1_554 S
C5 O11 1.268 . S
C5 O19 1.268 . S
C6 O12 1.268 . S
C6 O21 1.268 . S
C7 O13 1.268 . S
C7 O17 1.268 . S
C8 O14 1.267 1_554 S
C8 O16 1.270 . S
C9 O15 1.268 . S
C9 O18 1.268 . S
O10 Sc0 2.105 . S
O10 C4 1.270 . S
O11 Sc1 2.104 . S
O11 C5 1.268 . S
O12 Sc2 2.105 . S
O12 C6 1.268 . S
O13 Sc0 2.105 . S
O13 C7 1.268 . S
O14 Sc2 2.105 . S
O14 C8 1.267 1_556 S
O15 Sc1 2.106 1_556 S
O15 C9 1.268 . S
O16 Sc0 2.105 . S
O16 C8 1.270 . S
O17 Sc1 2.104 . S
O17 C7 1.268 . S
O18 Sc2 2.105 . S
O18 C9 1.268 . S
O19 Sc0 2.105 . S
O19 C5 1.268 . S
O20 Sc2 2.105 . S
O20 C4 1.267 1_556 S
O21 Sc1 2.106 1_556 S
O21 C6 1.268 . S
Sc22 O25 2.025 . S
Sc22 O32 2.105 . S
Sc22 O35 2.105 . S
Sc22 O38 2.105 . S
Sc22 O41 2.105 . S
Sc23 O25 2.025 . S
Sc23 O33 2.105 . S
Sc23 O37 2.105 . S
Sc23 O39 2.105 . S
Sc23 O43 2.105 . S
Sc24 O25 2.025 . S
Sc24 O34 2.105 . S
Sc24 O36 2.105 . S
Sc24 O40 2.105 . S
Sc24 O42 2.105 . S
O25 Sc22 2.025 . S
O25 Sc23 2.025 . S
O25 Sc24 2.025 . S
C26 O32 1.268 . S
C26 O42 1.268 . S
C27 O33 1.268 . S
C27 O41 1.268 . S
C28 O34 1.268 . S
C28 O43 1.268 . S
C29 O35 1.268 . S
C29 O39 1.268 . S
C30 O36 1.268 . S
C30 O38 1.268 . S
C31 O37 1.268 . S
C31 O40 1.268 . S
O32 Sc22 2.105 . S
O32 C26 1.268 . S
O33 Sc23 2.105 . S
O33 C27 1.268 . S
O34 Sc24 2.105 . S
O34 C28 1.268 . S
O35 Sc22 2.105 . S
O35 C29 1.268 . S
O36 Sc24 2.105 . S
O36 C30 1.268 . S
O37 Sc23 2.105 . S
O37 C31 1.268 . S
O38 Sc22 2.105 . S
O38 C30 1.268 . S
O39 Sc23 2.105 . S
O39 C29 1.268 . S
O40 Sc24 2.105 . S
O40 C31 1.268 . S
O41 Sc22 2.105 . S
O41 C27 1.268 . S
O42 Sc24 2.105 . S
O42 C26 1.268 . S
O43 Sc23 2.105 . S
O43 C28 1.268 . S
Sc44 O47 2.021 1_556 S
Sc44 O54 2.105 . S
Sc44 O57 2.105 . S
Sc44 O60 2.105 . S
Sc44 O63 2.105 . S
Sc45 O47 2.025 . S
Sc45 O55 2.100 1_554 S
Sc45 O59 2.109 . S
Sc45 O61 2.100 1_554 S
Sc45 O65 2.109 . S
Sc46 O47 2.030 . S
Sc46 O56 2.105 . S
Sc46 O58 2.105 . S
Sc46 O62 2.105 . S
Sc46 O64 2.105 . S
O47 Sc44 2.021 1_554 S
O47 Sc45 2.025 . S
O47 Sc46 2.030 . S
C48 O54 1.265 1_554 S
C48 O64 1.271 . S
C49 O55 1.268 . S
C49 O63 1.268 . S
C50 O56 1.268 . S
C50 O65 1.268 . S
C51 O57 1.268 . S
C51 O61 1.268 . S
C52 O58 1.271 . S
C52 O60 1.265 1_554 S
C53 O59 1.268 . S
C53 O62 1.268 . S
O54 Sc44 2.105 . S
O54 C48 1.265 1_556 S
O55 Sc45 2.100 1_556 S
O55 C49 1.268 . S
O56 Sc46 2.105 . S
O56 C50 1.268 . S
O57 Sc44 2.105 . S
O57 C51 1.268 . S
O58 Sc46 2.105 . S
O58 C52 1.271 . S
O59 Sc45 2.109 . S
O59 C53 1.268 . S
O60 Sc44 2.105 . S
O60 C52 1.265 1_556 S
O61 Sc45 2.100 1_556 S
O61 C51 1.268 . S
O62 Sc46 2.105 . S
O62 C53 1.268 . S
O63 Sc44 2.105 . S
O63 C49 1.268 . S
O64 Sc46 2.105 . S
O64 C48 1.271 . S
O65 Sc45 2.109 . S
O65 C50 1.268 . S
Sc66 O69 2.025 . S
Sc66 O76 2.105 . S
Sc66 O79 2.105 . S
Sc66 O82 2.105 . S
Sc66 O85 2.105 . S
Sc67 O69 2.025 . S
Sc67 O77 2.105 . S
Sc67 O81 2.105 . S
Sc67 O83 2.105 . S
Sc67 O87 2.105 . S
Sc68 O69 2.025 . S
Sc68 O78 2.105 . S
Sc68 O80 2.105 . S
Sc68 O84 2.105 . S
Sc68 O86 2.105 . S
O69 Sc66 2.025 . S
O69 Sc67 2.025 . S
O69 Sc68 2.025 . S
C70 O76 1.268 . S
C70 O86 1.268 . S
C71 O77 1.268 . S
C71 O85 1.268 . S
C72 O78 1.268 . S
C72 O87 1.268 . S
C73 O79 1.268 . S
C73 O83 1.268 . S
C74 O80 1.268 . S
C74 O82 1.268 . S
C75 O81 1.268 . S
C75 O84 1.268 . S
O76 Sc66 2.105 . S
O76 C70 1.268 . S
O77 Sc67 2.105 . S
O77 C71 1.268 . S
O78 Sc68 2.105 . S
O78 C72 1.268 . S
O79 Sc66 2.105 . S
O79 C73 1.268 . S
O80 Sc68 2.105 . S
O80 C74 1.268 . S
O81 Sc67 2.105 . S
O81 C75 1.268 . S
O82 Sc66 2.105 . S
O82 C74 1.268 . S
O83 Sc67 2.105 . S
O83 C73 1.268 . S
O84 Sc68 2.105 . S
O84 C75 1.268 . S
O85 Sc66 2.105 . S
O85 C71 1.268 . S
O86 Sc68 2.105 . S
O86 C70 1.268 . S
O87 Sc67 2.105 . S
O87 C72 1.268 . S
C88 N89 1.317 . S
C88 N90 1.348 . S
C88 C91 1.485 . S
N89 C88 1.317 . S
N89 N93 1.370 1_556 S
N90 C88 1.348 . S
N90 C92 1.346 1_556 S
C91 C88 1.485 . S
C91 H95 0.960 . S
C91 H96 0.961 . S
C91 H97 0.960 . S
C92 N90 1.346 1_554 S
C92 N93 1.307 . S
C92 C94 1.486 . S
N93 N89 1.370 1_554 S
N93 C92 1.307 . S
C94 C92 1.486 . S
C94 H98 0.960 . S
C94 H99 0.960 . S
C94 H100 0.959 . S
H95 C91 0.960 . S
H96 C91 0.961 . S
H97 C91 0.960 . S
H98 C94 0.960 . S
H99 C94 0.960 . S
H100 C94 0.959 . S
C101 N102 1.317 1_455 S
C101 N103 1.348 . S
C101 C104 1.485 . S
N102 C101 1.317 1_655 S
N102 N106 1.370 . S
N103 C101 1.348 . S
N103 C105 1.346 . S
C104 C101 1.485 . S
C104 H108 0.960 . S
C104 H109 0.961 . S
C104 H110 0.960 1_455 S
C105 N103 1.346 . S
C105 N106 1.307 1_455 S
C105 C107 1.486 . S
N106 N102 1.370 . S
N106 C105 1.307 1_655 S
C107 C105 1.486 . S
C107 H111 0.960 . S
C107 H112 0.960 . S
C107 H113 0.953 1_455 S
H108 C104 0.960 . S
H109 C104 0.961 . S
H110 C104 0.960 1_655 S
H111 C107 0.960 . S
H112 C107 0.960 . S
H113 C107 0.953 1_655 S
C114 N115 1.317 . S
C114 N116 1.348 . S
C114 C117 1.485 . S
N115 C114 1.317 . S
N115 N119 1.370 1_554 S
N116 C114 1.348 . S
N116 C118 1.346 1_554 S
C117 C114 1.485 . S
C117 H121 0.960 . S
C117 H122 0.961 . S
C117 H123 0.960 . S
C118 N116 1.346 1_556 S
C118 N119 1.307 . S
C118 C120 1.486 . S
N119 N115 1.370 1_556 S
N119 C118 1.307 . S
C120 C118 1.486 . S
C120 H124 0.960 . S
C120 H125 0.960 . S
C120 H126 0.959 . S
H121 C117 0.960 . S
H122 C117 0.961 . S
H123 C117 0.960 . S
H124 C120 0.960 . S
H125 C120 0.960 . S
H126 C120 0.959 . S
C127 N128 1.317 1_655 S
C127 N129 1.348 . S
C127 C130 1.485 . S
N128 C127 1.317 1_455 S
N128 N132 1.370 . S
N129 C127 1.348 . S
N129 C131 1.346 . S
C130 C127 1.485 . S
C130 H134 0.960 . S
C130 H135 0.961 . S
C130 H136 0.973 . S
C131 N129 1.346 . S
C131 N132 1.307 1_655 S
C131 C133 1.486 . S
N132 N128 1.370 . S
N132 C131 1.307 1_455 S
C133 C131 1.486 . S
C133 H137 0.960 . S
C133 H138 0.960 . S
C133 H139 0.959 1_655 S
H134 C130 0.960 . S
H135 C130 0.961 . S
H136 C130 0.973 . S
H137 C133 0.960 . S
H138 C133 0.960 . S
H139 C133 0.959 1_455 S
C140 N141 1.317 1_545 S
C140 N142 1.348 . S
C140 C143 1.485 . S
N141 C140 1.317 1_565 S
N141 N145 1.370 . S
N142 C140 1.348 . S
N142 C144 1.346 . S
C143 C140 1.485 . S
C143 H147 0.960 . S
C143 H148 0.961 . S
C143 H149 0.973 . S
C144 N142 1.346 . S
C144 N145 1.307 1_545 S
C144 C146 1.486 . S
N145 N141 1.370 . S
N145 C144 1.307 1_565 S
C146 C144 1.486 . S
C146 H150 0.960 . S
C146 H151 0.960 . S
C146 H152 0.959 1_545 S
H147 C143 0.960 . S
H148 C143 0.961 . S
H149 C143 0.973 . S
H150 C146 0.960 . S
H151 C146 0.960 . S
H152 C146 0.959 1_565 S
C153 N154 1.317 . S
C153 N155 1.348 . S
C153 C156 1.485 . S
N154 C153 1.317 . S
N154 N158 1.370 1_556 S
N155 C153 1.348 . S
N155 C157 1.346 1_556 S
C156 C153 1.485 . S
C156 H160 0.960 . S
C156 H161 0.961 . S
C156 H162 0.960 . S
C157 N155 1.346 1_554 S
C157 N158 1.307 . S
C157 C159 1.486 . S
N158 N154 1.370 1_554 S
N158 C157 1.307 . S
C159 C157 1.486 . S
C159 H163 0.960 . S
C159 H164 0.960 . S
C159 H165 0.959 . S
H160 C156 0.960 . S
H161 C156 0.961 . S
H162 C156 0.960 . S
H163 C159 0.960 . S
H164 C159 0.960 . S
H165 C159 0.959 . S
C166 N167 1.317 1_565 S
C166 N168 1.348 . S
C166 C169 1.485 . S
N167 C166 1.317 1_545 S
N167 N171 1.370 . S
N168 C166 1.348 . S
N168 C170 1.346 . S
C169 C166 1.485 . S
C169 H173 0.960 . S
C169 H174 0.961 . S
C169 H175 0.960 1_565 S
C170 N168 1.346 . S
C170 N171 1.307 1_565 S
C170 C172 1.486 . S
N171 N167 1.370 . S
N171 C170 1.307 1_545 S
C172 C170 1.486 . S
C172 H176 0.960 . S
C172 H177 0.960 . S
C172 H178 0.953 1_565 S
H173 C169 0.960 . S
H174 C169 0.961 . S
H175 C169 0.960 1_545 S
H176 C172 0.960 . S
H177 C172 0.960 . S
H178 C172 0.953 1_545 S
C179 N180 1.317 . S
C179 N181 1.348 . S
C179 C182 1.485 . S
N180 C179 1.317 . S
N180 N184 1.370 1_554 S
N181 C179 1.348 . S
N181 C183 1.346 1_554 S
C182 C179 1.485 . S
C182 H186 0.960 . S
C182 H187 0.961 . S
C182 H188 0.960 . S
C183 N181 1.346 1_556 S
C183 N184 1.307 . S
C183 C185 1.486 . S
N184 N180 1.370 1_556 S
N184 C183 1.307 . S
C185 C183 1.486 . S
C185 H189 0.960 . S
C185 H190 0.960 . S
C185 H191 0.959 . S
H186 C182 0.960 . S
H187 C182 0.961 . S
H188 C182 0.960 . S
H189 C185 0.960 . S
H190 C185 0.960 . S
H191 C185 0.959 . S
C192 C193 1.363 . S
C192 C198 1.379 . S
C192 N200 1.356 . S
C193 C192 1.363 . S
C193 C199 1.363 . S
C194 C195 1.363 . S
C194 C199 1.379 . S
C194 N201 1.356 . S
C195 C194 1.363 . S
C195 C198 1.363 . S
N196 C198 1.356 . S
N196 H208 0.984 . S
N196 H209 0.985 . S
N197 C199 1.356 . S
N197 H202 0.984 . S
N197 H203 0.985 . S
C198 C192 1.379 . S
C198 C195 1.363 . S
C198 N196 1.356 . S
C199 C193 1.363 . S
C199 C194 1.379 . S
C199 N197 1.356 . S
N200 C192 1.356 . S
N200 H206 0.984 . S
N200 H207 0.984 . S
N201 C194 1.356 . S
N201 H204 0.984 . S
N201 H205 0.985 . S
H202 N197 0.984 . S
H203 N197 0.985 . S
H204 N201 0.984 . S
H205 N201 0.985 . S
H206 N200 0.984 . S
H207 N200 0.984 . S
H208 N196 0.984 . S
H209 N196 0.985 . S
C210 C211 1.363 . S
C210 C216 1.379 . S
C210 N218 1.356 . S
C211 C210 1.363 . S
C211 C217 1.363 . S
C212 C213 1.363 . S
C212 C217 1.379 . S
C212 N219 1.356 1_556 S
C213 C212 1.363 . S
C213 C216 1.363 . S
N214 C216 1.356 . S
N214 H226 0.984 . S
N214 H227 0.985 . S
N215 C217 1.356 . S
N215 H220 0.984 . S
N215 H221 0.985 . S
C216 C210 1.379 . S
C216 C213 1.363 . S
C216 N214 1.356 . S
C217 C211 1.363 . S
C217 C212 1.379 . S
C217 N215 1.356 . S
N218 C210 1.356 . S
N218 H224 0.984 . S
N218 H225 0.984 . S
N219 C212 1.356 1_554 S
N219 H222 0.984 . S
N219 H223 0.985 . S
H220 N215 0.984 . S
H221 N215 0.985 . S
H222 N219 0.984 . S
H223 N219 0.985 . S
H224 N218 0.984 . S
H225 N218 0.984 . S
H226 N214 0.984 . S
H227 N214 0.985 . S
C228 C229 1.363 . S
C228 C234 1.379 . S
C228 N236 1.356 . S
C229 C228 1.363 . S
C229 C235 1.363 . S
C230 C231 1.363 . S
C230 C235 1.379 . S
C230 N237 1.356 . S
C231 C230 1.363 . S
C231 C234 1.363 . S
N232 C234 1.356 . S
N232 H244 0.984 . S
N232 H245 0.985 . S
N233 C235 1.356 . S
N233 H238 0.984 . S
N233 H239 0.985 . S
C234 C228 1.379 . S
C234 C231 1.363 . S
C234 N232 1.356 . S
C235 C229 1.363 . S
C235 C230 1.379 . S
C235 N233 1.356 . S
N236 C228 1.356 . S
N236 H242 0.984 . S
N236 H243 0.984 . S
N237 C230 1.356 . S
N237 H240 0.984 . S
N237 H241 0.985 . S
H238 N233 0.984 . S
H239 N233 0.985 . S
H240 N237 0.984 . S
H241 N237 0.985 . S
H242 N236 0.984 . S
H243 N236 0.984 . S
H244 N232 0.984 . S
H245 N232 0.985 . S
C246 C247 1.363 . S
C246 C252 1.379 . S
C246 N254 1.356 . S
C247 C246 1.363 . S
C247 C253 1.363 . S
C248 C249 1.363 . S
C248 C253 1.379 . S
C248 N255 1.356 . S
C249 C248 1.363 . S
C249 C252 1.363 . S
N250 C252 1.356 . S
N250 H262 0.984 . S
N250 H263 0.985 . S
N251 C253 1.356 . S
N251 H256 0.984 . S
N251 H257 0.985 . S
C252 C246 1.379 . S
C252 C249 1.363 . S
C252 N250 1.356 . S
C253 C247 1.363 . S
C253 C248 1.379 . S
C253 N251 1.356 . S
N254 C246 1.356 . S
N254 H260 0.984 . S
N254 H261 0.984 . S
N255 C248 1.356 . S
N255 H258 0.984 1_556 S
N255 H259 0.985 1_556 S
H256 N251 0.984 . S
H257 N251 0.985 . S
H258 N255 0.984 1_554 S
H259 N255 0.985 1_554 S
H260 N254 0.984 . S
H261 N254 0.984 . S
H262 N250 0.984 . S
H263 N250 0.985 . S
C264 C265 1.363 . S
C264 C270 1.379 . S
C264 N272 1.356 . S
C265 C264 1.363 . S
C265 C271 1.363 . S
C266 C267 1.363 . S
C266 C271 1.379 . S
C266 N273 1.356 . S
C267 C266 1.363 . S
C267 C270 1.363 . S
N268 C270 1.356 . S
N268 H280 0.984 . S
N268 H281 0.985 . S
N269 C271 1.356 . S
N269 H274 0.984 . S
N269 H275 0.985 . S
C270 C264 1.379 . S
C270 C267 1.363 . S
C270 N268 1.356 . S
C271 C265 1.363 . S
C271 C266 1.379 . S
C271 N269 1.356 . S
N272 C264 1.356 . S
N272 H278 0.984 . S
N272 H279 0.984 . S
N273 C266 1.356 . S
N273 H276 0.984 . S
N273 H277 0.985 . S
H274 N269 0.984 . S
H275 N269 0.985 . S
H276 N273 0.984 . S
H277 N273 0.985 . S
H278 N272 0.984 . S
H279 N272 0.984 . S
H280 N268 0.984 . S
H281 N268 0.985 . S
C282 C283 1.363 . S
C282 C288 1.379 . S
C282 N290 1.356 . S
C283 C282 1.363 . S
C283 C289 1.363 . S
C284 C285 1.363 . S
C284 C289 1.379 . S
C284 N291 1.356 . S
C285 C284 1.363 . S
C285 C288 1.363 . S
N286 C288 1.356 . S
N286 H298 0.976 1_545 S
N286 H299 0.998 . S
N287 C289 1.356 . S
N287 H292 0.984 . S
N287 H293 0.985 . S
C288 C282 1.379 . S
C288 C285 1.363 . S
C288 N286 1.356 . S
C289 C283 1.363 . S
C289 C284 1.379 . S
C289 N287 1.356 . S
N290 C282 1.356 . S
N290 H296 0.984 . S
N290 H297 0.984 . S
N291 C284 1.356 . S
N291 H294 0.984 . S
N291 H295 0.985 . S
H292 N287 0.984 . S
H293 N287 0.985 . S
H294 N291 0.984 . S
H295 N291 0.985 . S
H296 N290 0.984 . S
H297 N290 0.984 . S
H298 N286 0.976 1_565 S
H299 N286 0.998 . S
C300 C301 1.363 . S
C300 C306 1.379 . S
C300 N308 1.356 . S
C301 C300 1.363 . S
C301 C307 1.363 . S
C302 C303 1.363 . S
C302 C307 1.379 . S
C302 N309 1.366 . S
C303 C302 1.363 . S
C303 C306 1.363 . S
N304 C306 1.356 . S
N304 H316 0.984 . S
N304 H317 0.985 . S
N305 C307 1.356 . S
N305 H310 0.984 . S
N305 H311 0.985 . S
C306 C300 1.379 . S
C306 C303 1.363 . S
C306 N304 1.356 . S
C307 C301 1.363 . S
C307 C302 1.379 . S
C307 N305 1.356 . S
N308 C300 1.356 . S
N308 H314 0.984 . S
N308 H315 0.984 . S
N309 C302 1.366 . S
N309 H312 0.980 1_554 S
N309 H313 0.979 1_554 S
H310 N305 0.984 . S
H311 N305 0.985 . S
H312 N309 0.980 1_556 S
H313 N309 0.979 1_556 S
H314 N308 0.984 . S
H315 N308 0.984 . S
H316 N304 0.984 . S
H317 N304 0.985 . S
C318 C319 1.363 . S
C318 C324 1.379 . S
C318 N326 1.356 . S
C319 C318 1.363 . S
C319 C325 1.363 . S
C320 C321 1.363 . S
C320 C325 1.379 . S
C320 N327 1.356 . S
C321 C320 1.363 . S
C321 C324 1.363 . S
N322 C324 1.356 . S
N322 H334 0.984 . S
N322 H335 0.985 . S
N323 C325 1.356 . S
N323 H328 0.984 . S
N323 H329 0.985 . S
C324 C318 1.379 . S
C324 C321 1.363 . S
C324 N322 1.356 . S
C325 C319 1.363 . S
C325 C320 1.379 . S
C325 N323 1.356 . S
N326 C318 1.356 . S
N326 H332 0.984 . S
N326 H333 0.984 . S
N327 C320 1.356 . S
N327 H330 0.984 . S
N327 H331 0.985 . S
H328 N323 0.984 . S
H329 N323 0.985 . S
H330 N327 0.984 . S
H331 N327 0.985 . S
H332 N326 0.984 . S
H333 N326 0.984 . S
H334 N322 0.984 . S
H335 N322 0.985 . S
C336 C337 1.363 . S
C336 C342 1.379 . S
C336 N344 1.356 . S
C337 C336 1.363 . S
C337 C343 1.363 . S
C338 C339 1.363 . S
C338 C343 1.379 . S
C338 N345 1.356 . S
C339 C338 1.363 . S
C339 C342 1.363 . S
N340 C342 1.356 . S
N340 H352 0.984 . S
N340 H353 0.985 . S
N341 C343 1.356 . S
N341 H346 0.984 . S
N341 H347 0.985 . S
C342 C336 1.379 . S
C342 C339 1.363 . S
C342 N340 1.356 . S
C343 C337 1.363 . S
C343 C338 1.379 . S
C343 N341 1.356 . S
N344 C336 1.356 . S
N344 H350 0.984 . S
N344 H351 0.984 . S
N345 C338 1.356 . S
N345 H348 0.984 . S
N345 H349 0.985 . S
H346 N341 0.984 . S
H347 N341 0.985 . S
H348 N345 0.984 . S
H349 N345 0.985 . S
H350 N344 0.984 . S
H351 N344 0.984 . S
H352 N340 0.984 . S
H353 N340 0.985 . S
C354 C355 1.363 . S
C354 C360 1.379 . S
C354 N362 1.356 . S
C355 C354 1.363 . S
C355 C361 1.363 . S
C356 C357 1.363 . S
C356 C361 1.379 . S
C356 N363 1.356 . S
C357 C356 1.363 . S
C357 C360 1.363 . S
N358 C360 1.356 . S
N358 H370 0.984 . S
N358 H371 0.985 . S
N359 C361 1.356 . S
N359 H364 0.984 . S
N359 H365 0.985 . S
C360 C354 1.379 . S
C360 C357 1.363 . S
C360 N358 1.356 . S
C361 C355 1.363 . S
C361 C356 1.379 . S
C361 N359 1.356 . S
N362 C354 1.356 . S
N362 H368 0.984 . S
N362 H369 0.984 . S
N363 C356 1.356 . S
N363 H366 0.984 . S
N363 H367 0.985 . S
H364 N359 0.984 . S
H365 N359 0.985 . S
H366 N363 0.984 . S
H367 N363 0.985 . S
H368 N362 0.984 . S
H369 N362 0.984 . S
H370 N358 0.984 . S
H371 N358 0.985 . S
C372 C373 1.363 . S
C372 C378 1.379 . S
C372 N380 1.356 . S
C373 C372 1.363 . S
C373 C379 1.363 . S
C374 C375 1.363 . S
C374 C379 1.379 . S
C374 N381 1.356 . S
C375 C374 1.363 . S
C375 C378 1.363 . S
N376 C378 1.356 . S
N376 H388 0.984 . S
N376 H389 0.985 . S
N377 C379 1.356 . S
N377 H382 0.984 . S
N377 H383 0.985 . S
C378 C372 1.379 . S
C378 C375 1.363 . S
C378 N376 1.356 . S
C379 C373 1.363 . S
C379 C374 1.379 . S
C379 N377 1.356 . S
N380 C372 1.356 . S
N380 H386 0.984 . S
N380 H387 0.984 . S
N381 C374 1.356 . S
N381 H384 0.984 . S
N381 H385 0.985 . S
H382 N377 0.984 . S
H383 N377 0.985 . S
H384 N381 0.984 . S
H385 N381 0.985 . S
H386 N380 0.984 . S
H387 N380 0.984 . S
H388 N376 0.984 . S
H389 N376 0.985 . S
C390 C391 1.363 . S
C390 C396 1.379 . S
C390 N398 1.356 . S
C391 C390 1.363 . S
C391 C397 1.363 . S
C392 C393 1.363 . S
C392 C397 1.379 . S
C392 N399 1.356 . S
C393 C392 1.363 . S
C393 C396 1.363 . S
N394 C396 1.356 . S
N394 H406 0.984 . S
N394 H407 0.985 . S
N395 C397 1.356 . S
N395 H400 0.984 . S
N395 H401 0.985 . S
C396 C390 1.379 . S
C396 C393 1.363 . S
C396 N394 1.356 . S
C397 C391 1.363 . S
C397 C392 1.379 . S
C397 N395 1.356 . S
N398 C390 1.356 . S
N398 H404 0.984 . S
N398 H405 0.984 . S
N399 C392 1.356 . S
N399 H402 0.984 . S
N399 H403 0.985 . S
H400 N395 0.984 . S
H401 N395 0.985 . S
H402 N399 0.984 . S
H403 N399 0.985 . S
H404 N398 0.984 . S
H405 N398 0.984 . S
H406 N394 0.984 . S
H407 N394 0.985 . S
C408 C409 1.363 . S
C408 C414 1.379 . S
C408 N416 1.356 . S
C409 C408 1.363 . S
C409 C415 1.363 . S
C410 C411 1.363 . S
C410 C415 1.379 . S
C410 N417 1.356 . S
C411 C410 1.363 . S
C411 C414 1.363 . S
N412 C414 1.356 . S
N412 H424 0.984 1_556 S
N412 H425 0.985 1_556 S
N413 C415 1.356 . S
N413 H418 0.984 . S
N413 H419 0.985 . S
C414 C408 1.379 . S
C414 C411 1.363 . S
C414 N412 1.356 . S
C415 C409 1.363 . S
C415 C410 1.379 . S
C415 N413 1.356 . S
N416 C408 1.356 . S
N416 H422 0.984 . S
N416 H423 0.984 . S
N417 C410 1.356 . S
N417 H420 0.984 . S
N417 H421 0.985 . S
H418 N413 0.984 . S
H419 N413 0.985 . S
H420 N417 0.984 . S
H421 N417 0.985 . S
H422 N416 0.984 . S
H423 N416 0.984 . S
H424 N412 0.984 1_554 S
H425 N412 0.985 1_554 S
C426 C427 1.363 . S
C426 C432 1.379 . S
C426 N434 1.356 . S
C427 C426 1.363 . S
C427 C433 1.363 . S
C428 C429 1.363 . S
C428 C433 1.379 . S
C428 N435 1.356 . S
C429 C428 1.363 . S
C429 C432 1.363 . S
N430 C432 1.356 . S
N430 H442 0.984 . S
N430 H443 0.985 . S
N431 C433 1.356 . S
N431 H436 0.984 . S
N431 H437 0.985 . S
C432 C426 1.379 . S
C432 C429 1.363 . S
C432 N430 1.356 . S
C433 C427 1.363 . S
C433 C428 1.379 . S
C433 N431 1.356 . S
N434 C426 1.356 . S
N434 H440 0.984 . S
N434 H441 0.984 . S
N435 C428 1.356 . S
N435 H438 0.984 . S
N435 H439 0.985 . S
H436 N431 0.984 . S
H437 N431 0.985 . S
H438 N435 0.984 . S
H439 N435 0.985 . S
H440 N434 0.984 . S
H441 N434 0.984 . S
H442 N430 0.984 . S
H443 N430 0.985 . S
C444 C445 1.363 . S
C444 C450 1.379 . S
C444 N452 1.356 . S
C445 C444 1.363 . S
C445 C451 1.363 . S
C446 C447 1.363 . S
C446 C451 1.379 . S
C446 N453 1.356 . S
C447 C446 1.363 . S
C447 C450 1.363 . S
N448 C450 1.356 . S
N448 H460 0.984 1_556 S
N448 H461 0.985 1_556 S
N449 C451 1.356 . S
N449 H454 0.984 . S
N449 H455 0.985 . S
C450 C444 1.379 . S
C450 C447 1.363 . S
C450 N448 1.356 . S
C451 C445 1.363 . S
C451 C446 1.379 . S
C451 N449 1.356 . S
N452 C444 1.356 . S
N452 H458 0.984 . S
N452 H459 0.984 . S
N453 C446 1.356 . S
N453 H456 0.984 . S
N453 H457 0.985 . S
H454 N449 0.984 . S
H455 N449 0.985 . S
H456 N453 0.984 . S
H457 N453 0.985 . S
H458 N452 0.984 . S
H459 N452 0.984 . S
H460 N448 0.984 1_554 S
H461 N448 0.985 1_554 S
C462 C463 1.363 . S
C462 C468 1.379 . S
C462 N470 1.356 . S
C463 C462 1.363 . S
C463 C469 1.363 . S
C464 C465 1.363 . S
C464 C469 1.379 . S
C464 N471 1.356 . S
C465 C464 1.363 . S
C465 C468 1.363 . S
N466 C468 1.356 . S
N466 H478 0.984 . S
N466 H479 0.985 . S
N467 C469 1.356 . S
N467 H472 0.984 . S
N467 H473 0.985 . S
C468 C462 1.379 . S
C468 C465 1.363 . S
C468 N466 1.356 . S
C469 C463 1.363 . S
C469 C464 1.379 . S
C469 N467 1.356 . S
N470 C462 1.356 . S
N470 H476 0.984 . S
N470 H477 0.984 . S
N471 C464 1.356 . S
N471 H474 0.984 . S
N471 H475 0.985 . S
H472 N467 0.984 . S
H473 N467 0.985 . S
H474 N471 0.984 . S
H475 N471 0.985 . S
H476 N470 0.984 . S
H477 N470 0.984 . S
H478 N466 0.984 . S
H479 N466 0.985 . S
C480 C481 1.364 . S
C480 C486 1.379 . S
C480 N488 1.356 . S
C481 C480 1.364 . S
C481 C487 1.362 1_554 S
C482 C483 1.361 1_556 S
C482 C487 1.379 . S
C482 N489 1.356 . S
C483 C482 1.361 1_554 S
C483 C486 1.365 . S
N484 C486 1.356 . S
N484 H496 0.984 . S
N484 H497 0.985 . S
N485 C487 1.356 . S
N485 H490 0.984 . S
N485 H491 0.985 . S
C486 C480 1.379 . S
C486 C483 1.365 . S
C486 N484 1.356 . S
C487 C481 1.362 1_556 S
C487 C482 1.379 . S
C487 N485 1.356 . S
N488 C480 1.356 . S
N488 H494 0.984 . S
N488 H495 0.984 . S
N489 C482 1.356 . S
N489 H492 0.984 . S
N489 H493 0.985 . S
H490 N485 0.984 . S
H491 N485 0.985 . S
H492 N489 0.984 . S
H493 N489 0.985 . S
H494 N488 0.984 . S
H495 N488 0.984 . S
H496 N484 0.984 . S
H497 N484 0.985 . S
C498 C499 1.363 . S
C498 C504 1.379 . S
C498 N506 1.356 . S
C499 C498 1.363 . S
C499 C505 1.363 . S
C500 C501 1.363 . S
C500 C505 1.379 . S
C500 N507 1.356 . S
C501 C500 1.363 . S
C501 C504 1.363 . S
N502 C504 1.356 . S
N502 H514 0.984 . S
N502 H515 0.985 . S
N503 C505 1.356 . S
N503 H508 0.984 . S
N503 H509 0.985 . S
C504 C498 1.379 . S
C504 C501 1.363 . S
C504 N502 1.356 . S
C505 C499 1.363 . S
C505 C500 1.379 . S
C505 N503 1.356 . S
N506 C498 1.356 . S
N506 H512 0.984 . S
N506 H513 0.984 . S
N507 C500 1.356 . S
N507 H510 0.984 . S
N507 H511 0.985 . S
H508 N503 0.984 . S
H509 N503 0.985 . S
H510 N507 0.984 . S
H511 N507 0.985 . S
H512 N506 0.984 . S
H513 N506 0.984 . S
H514 N502 0.984 . S
H515 N502 0.985 . S
C516 C517 1.361 1_556 S
C516 C522 1.379 . S
C516 N524 1.356 . S
C517 C516 1.361 1_554 S
C517 C523 1.365 . S
C518 C519 1.365 . S
C518 C523 1.379 . S
C518 N525 1.356 . S
C519 C518 1.365 . S
C519 C522 1.361 1_554 S
N520 C522 1.356 . S
N520 H532 0.984 . S
N520 H533 0.985 . S
N521 C523 1.356 . S
N521 H526 0.984 . S
N521 H527 0.985 . S
C522 C516 1.379 . S
C522 C519 1.361 1_556 S
C522 N520 1.356 . S
C523 C517 1.365 . S
C523 C518 1.379 . S
C523 N521 1.356 . S
N524 C516 1.356 . S
N524 H530 0.984 . S
N524 H531 0.984 . S
N525 C518 1.356 . S
N525 H528 0.984 . S
N525 H529 0.985 . S
H526 N521 0.984 . S
H527 N521 0.985 . S
H528 N525 0.984 . S
H529 N525 0.985 . S
H530 N524 0.984 . S
H531 N524 0.984 . S
H532 N520 0.984 . S
H533 N520 0.985 . S
C534 C535 1.363 . S
C534 C540 1.379 . S
C534 N542 1.356 . S
C535 C534 1.363 . S
C535 C541 1.363 . S
C536 C537 1.363 . S
C536 C541 1.379 . S
C536 N543 1.356 . S
C537 C536 1.363 . S
C537 C540 1.363 . S
N538 C540 1.356 . S
N538 H550 0.984 . S
N538 H551 0.985 . S
N539 C541 1.356 . S
N539 H544 0.984 . S
N539 H545 0.985 . S
C540 C534 1.379 . S
C540 C537 1.363 . S
C540 N538 1.356 . S
C541 C535 1.363 . S
C541 C536 1.379 . S
C541 N539 1.356 . S
N542 C534 1.356 . S
N542 H548 0.984 . S
N542 H549 0.984 . S
N543 C536 1.356 . S
N543 H546 0.984 . S
N543 H547 0.985 . S
H544 N539 0.984 . S
H545 N539 0.985 . S
H546 N543 0.984 . S
H547 N543 0.985 . S
H548 N542 0.984 . S
H549 N542 0.984 . S
H550 N538 0.984 . S
H551 N538 0.985 . S
C552 C553 1.363 . S
C552 C558 1.379 . S
C552 N560 1.356 . S
C553 C552 1.363 . S
C553 C559 1.363 . S
C554 C555 1.363 . S
C554 C559 1.379 . S
C554 N561 1.356 . S
C555 C554 1.363 . S
C555 C558 1.363 . S
N556 C558 1.356 . S
N556 H568 0.984 . S
N556 H569 0.985 . S
N557 C559 1.356 . S
N557 H562 0.984 . S
N557 H563 0.985 . S
C558 C552 1.379 . S
C558 C555 1.363 . S
C558 N556 1.356 . S
C559 C553 1.363 . S
C559 C554 1.379 . S
C559 N557 1.356 . S
N560 C552 1.356 . S
N560 H566 0.984 . S
N560 H567 0.984 . S
N561 C554 1.356 . S
N561 H564 0.984 . S
N561 H565 0.985 . S
H562 N557 0.984 . S
H563 N557 0.985 . S
H564 N561 0.984 . S
H565 N561 0.985 . S
H566 N560 0.984 . S
H567 N560 0.984 . S
H568 N556 0.984 . S
H569 N556 0.985 . S
C570 C571 1.364 . S
C570 C576 1.379 . S
C570 N578 1.356 . S
C571 C570 1.364 . S
C571 C577 1.362 1_554 S
C572 C573 1.361 1_556 S
C572 C577 1.379 . S
C572 N579 1.356 . S
C573 C572 1.361 1_554 S
C573 C576 1.365 . S
N574 C576 1.356 . S
N574 H586 0.984 . S
N574 H587 0.985 . S
N575 C577 1.356 . S
N575 H580 0.984 . S
N575 H581 0.985 . S
C576 C570 1.379 . S
C576 C573 1.365 . S
C576 N574 1.356 . S
C577 C571 1.362 1_556 S
C577 C572 1.379 . S
C577 N575 1.356 . S
N578 C570 1.356 . S
N578 H584 0.984 . S
N578 H585 0.984 . S
N579 C572 1.356 . S
N579 H582 0.984 . S
N579 H583 0.985 . S
H580 N575 0.984 . S
H581 N575 0.985 . S
H582 N579 0.984 . S
H583 N579 0.985 . S
H584 N578 0.984 . S
H585 N578 0.984 . S
H586 N574 0.984 . S
H587 N574 0.985 . S
C588 C589 1.363 . S
C588 C594 1.379 . S
C588 N596 1.356 . S
C589 C588 1.363 . S
C589 C595 1.363 . S
C590 C591 1.363 . S
C590 C595 1.379 . S
C590 N597 1.356 . S
C591 C590 1.363 . S
C591 C594 1.363 . S
N592 C594 1.356 . S
N592 H604 0.984 . S
N592 H605 0.985 . S
N593 C595 1.356 . S
N593 H598 0.984 . S
N593 H599 0.985 . S
C594 C588 1.379 . S
C594 C591 1.363 . S
C594 N592 1.356 . S
C595 C589 1.363 . S
C595 C590 1.379 . S
C595 N593 1.356 . S
N596 C588 1.356 . S
N596 H602 0.984 . S
N596 H603 0.984 . S
N597 C590 1.356 . S
N597 H600 0.984 . S
N597 H601 0.985 . S
H598 N593 0.984 . S
H599 N593 0.985 . S
H600 N597 0.984 . S
H601 N597 0.985 . S
H602 N596 0.984 . S
H603 N596 0.984 . S
H604 N592 0.984 . S
H605 N592 0.985 . S
C606 C607 1.361 1_556 S
C606 C612 1.379 . S
C606 N614 1.356 . S
C607 C606 1.361 1_554 S
C607 C613 1.365 . S
C608 C609 1.365 . S
C608 C613 1.379 . S
C608 N615 1.356 . S
C609 C608 1.365 . S
C609 C612 1.361 1_554 S
N610 C612 1.356 . S
N610 H622 0.984 . S
N610 H623 0.985 . S
N611 C613 1.356 . S
N611 H616 0.984 . S
N611 H617 0.985 . S
C612 C606 1.379 . S
C612 C609 1.361 1_556 S
C612 N610 1.356 . S
C613 C607 1.365 . S
C613 C608 1.379 . S
C613 N611 1.356 . S
N614 C606 1.356 . S
N614 H620 0.984 . S
N614 H621 0.984 . S
N615 C608 1.356 . S
N615 H618 0.984 . S
N615 H619 0.985 . S
H616 N611 0.984 . S
H617 N611 0.985 . S
H618 N615 0.984 . S
H619 N615 0.985 . S
H620 N614 0.984 . S
H621 N614 0.984 . S
H622 N610 0.984 . S
H623 N610 0.985 . S
C193 C5 1.476 . S
C195 N128 1.484 . S
C211 C31 1.477 . S
C213 N89 1.484 . S
C231 N106 1.492 . S
C229 C53 1.477 . S
C247 C71 1.477 . S
C249 N119 1.492 . S
C267 N158 1.492 . S
C265 C75 1.477 . S
C285 N171 1.492 . S
C283 C9 1.477 . S
C303 N180 1.484 . S
C301 C27 1.477 . S
C321 N141 1.484 . S
C319 C49 1.476 . S
C337 C51 1.476 . S
C339 N102 1.494 . S
C355 C72 1.477 . S
C357 N115 1.494 . S
C373 C6 1.477 . S
C375 N132 1.490 . S
C393 N93 1.490 . S
C391 C29 1.477 . S
C409 C28 1.477 . S
C411 N184 1.490 . S
C429 N145 1.490 . S
C427 C50 1.477 . S
C447 N154 1.494 . S
C445 C73 1.477 . S
C463 C7 1.476 . S
C465 N167 1.494 . S
C483 N90 1.506 1_554 S
C481 C4 1.499 . S
C501 N103 1.511 . S
C499 C30 1.499 . S
C517 C52 1.499 . S
C519 N116 1.511 . S
C535 C70 1.499 . S
C537 N129 1.506 . S
C555 N142 1.506 . S
C553 C74 1.499 . S
C571 C8 1.499 . S
C573 N155 1.511 1_554 S
C589 C26 1.499 . S
C591 N168 1.511 . S
C607 C48 1.499 . S
C609 N181 1.506 . S
