# Generated by pormake.
# Topology apo, (3,6)-cn, num edge types: 1
# Building blocks:
#     Node 0, Type 0, BuildingBlock: VETTIZ_charged_linker_0, # of connection points: 3
#     Node 1, Type 0, BuildingBlock: VETTIZ_charged_linker_0, # of connection points: 3
#     Node 2, Type 0, BuildingBlock: VETTIZ_charged_linker_0, # of connection points: 3
#     Node 3, Type 0, BuildingBlock: VETTIZ_charged_linker_0, # of connection points: 3
#     Node 4, Type 0, BuildingBlock: VETTIZ_charged_linker_0, # of connection points: 3
#     Node 5, Type 0, BuildingBlock: VETTIZ_charged_linker_0, # of connection points: 3
#     Node 6, Type 0, BuildingBlock: VETTIZ_charged_linker_0, # of connection points: 3
#     Node 7, Type 0, BuildingBlock: VETTIZ_charged_linker_0, # of connection points: 3
#     Node 8, Type 1, BuildingBlock: KUMBUR_clean_sbu_1, # of connection points: 6
#     Node 9, Type 1, BuildingBlock: KUMBUR_clean_sbu_1, # of connection points: 6
#     Node 10, Type 1, BuildingBlock: KUMBUR_clean_sbu_1, # of connection points: 6
#     Node 11, Type 1, BuildingBlock: KUMBUR_clean_sbu_1, # of connection points: 6
#     Edge 12, Type (0, 1), BuildingBlock: ZUJKAS_clean_linker_0, # of connection points: 2
#     Edge 13, Type (0, 1), BuildingBlock: ZUJKAS_clean_linker_0, # of connection points: 2
#     Edge 14, Type (0, 1), BuildingBlock: ZUJKAS_clean_linker_0, # of connection points: 2
#     Edge 15, Type (0, 1), BuildingBlock: ZUJKAS_clean_linker_0, # of connection points: 2
#     Edge 16, Type (0, 1), BuildingBlock: ZUJKAS_clean_linker_0, # of connection points: 2
#     Edge 17, Type (0, 1), BuildingBlock: ZUJKAS_clean_linker_0, # of connection points: 2
#     Edge 18, Type (0, 1), BuildingBlock: ZUJKAS_clean_linker_0, # of connection points: 2
#     Edge 19, Type (0, 1), BuildingBlock: ZUJKAS_clean_linker_0, # of connection points: 2
#     Edge 20, Type (0, 1), BuildingBlock: ZUJKAS_clean_linker_0, # of connection points: 2
#     Edge 21, Type (0, 1), BuildingBlock: ZUJKAS_clean_linker_0, # of connection points: 2
#     Edge 22, Type (0, 1), BuildingBlock: ZUJKAS_clean_linker_0, # of connection points: 2
#     Edge 23, Type (0, 1), BuildingBlock: ZUJKAS_clean_linker_0, # of connection points: 2
#     Edge 24, Type (0, 1), BuildingBlock: ZUJKAS_clean_linker_0, # of connection points: 2
#     Edge 25, Type (0, 1), BuildingBlock: ZUJKAS_clean_linker_0, # of connection points: 2
#     Edge 26, Type (0, 1), BuildingBlock: ZUJKAS_clean_linker_0, # of connection points: 2
#     Edge 27, Type (0, 1), BuildingBlock: ZUJKAS_clean_linker_0, # of connection points: 2
#     Edge 28, Type (0, 1), BuildingBlock: ZUJKAS_clean_linker_0, # of connection points: 2
#     Edge 29, Type (0, 1), BuildingBlock: ZUJKAS_clean_linker_0, # of connection points: 2
#     Edge 30, Type (0, 1), BuildingBlock: ZUJKAS_clean_linker_0, # of connection points: 2
#     Edge 31, Type (0, 1), BuildingBlock: ZUJKAS_clean_linker_0, # of connection points: 2
#     Edge 32, Type (0, 1), BuildingBlock: ZUJKAS_clean_linker_0, # of connection points: 2
#     Edge 33, Type (0, 1), BuildingBlock: ZUJKAS_clean_linker_0, # of connection points: 2
#     Edge 34, Type (0, 1), BuildingBlock: ZUJKAS_clean_linker_0, # of connection points: 2
#     Edge 35, Type (0, 1), BuildingBlock: ZUJKAS_clean_linker_0, # of connection points: 2
# Relax obj value: 0.011
# Max RMSD: 0.085
# Mean RMSD: 0.069
data_MOF--net-apo--node1-KUMBUR_clean_sbu_1--node2-VETTIZ_charged_linker_0--edge1-ZUJKAS_clean_linker_0
_symmetry_space_group_name_H-M    P1
_symmetry_Int_Tables_number       1
_symmetry_cell_setting            triclinic
loop_
_symmetry_equiv_pos_as_xyz
'x, y, z'
_cell_length_a     35.738158
_cell_length_b     65.090705
_cell_length_c     76.761105
_cell_angle_alpha  90.004403
_cell_angle_beta   90.065233
_cell_angle_gamma 90.477339
loop_
_atom_site_label
_atom_site_type_symbol
_atom_site_fract_x
_atom_site_fract_y
_atom_site_fract_z
_atom_type_partial_charge
C0 C 0.30084 0.36746 0.48237 0.0
C1 C 0.3206 0.38228 0.49214 0.0
C2 C 0.33177 0.40075 0.48399 0.0
C3 C 0.30404 0.38941 0.45679 0.0
C4 C 0.29275 0.37138 0.4648 0.0
C5 C 0.27155 0.35742 0.45258 0.0
H6 H 0.20796 0.33808 0.371 0.0
C7 C 0.2916 0.38865 0.43843 0.0
C8 C 0.27237 0.36997 0.43589 0.0
H9 H 0.19503 0.30005 0.41687 0.0
H10 H 0.22772 0.32551 0.43411 0.0
H11 H 0.18634 0.37996 0.38987 0.0
H12 H 0.29152 0.35174 0.37794 0.0
H13 H 0.29695 0.37808 0.37365 0.0
H14 H 0.26257 0.36339 0.36165 0.0
H15 H 0.20562 0.38009 0.3683 0.0
H16 H 0.21687 0.39999 0.38389 0.0
C17 C 0.23124 0.35463 0.45965 0.0
C18 C 0.29368 0.33718 0.45079 0.0
C19 C 0.32594 0.44688 0.39694 0.0
C20 C 0.31931 0.44998 0.37905 0.0
C21 C 0.29793 0.43528 0.36981 0.0
C22 C 0.28405 0.41766 0.37808 0.0
C23 C 0.29153 0.41456 0.39584 0.0
C24 C 0.31186 0.42911 0.40503 0.0
C25 C 0.31691 0.42314 0.42383 0.0
C26 C 0.29649 0.40256 0.42433 0.0
C27 C 0.28183 0.39764 0.40788 0.0
C28 C 0.29739 0.43944 0.4353 0.0
C29 C 0.35938 0.42084 0.42735 0.0
C30 C 0.21163 0.33528 0.3848 0.0
C31 C 0.19886 0.31692 0.39251 0.0
C32 C 0.20501 0.31389 0.4105 0.0
C33 C 0.22385 0.32876 0.42053 0.0
C34 C 0.23673 0.34692 0.41254 0.0
C35 C 0.23018 0.34998 0.395 0.0
C36 C 0.2454 0.37021 0.38866 0.0
C37 C 0.26242 0.37878 0.40527 0.0
C38 C 0.25749 0.36506 0.41921 0.0
C39 C 0.21209 0.38332 0.3822 0.0
C40 C 0.27553 0.36582 0.37465 0.0
H41 H 0.33306 0.41869 0.46099 0.0
H42 H 0.29143 0.35324 0.48831 0.0
H43 H 0.32429 0.34037 0.4502 0.0
H44 H 0.2872 0.32872 0.43869 0.0
H45 H 0.28848 0.3269 0.4621 0.0
H46 H 0.22143 0.36892 0.46611 0.0
H47 H 0.22979 0.34204 0.4694 0.0
H48 H 0.21051 0.35162 0.44926 0.0
H49 H 0.34242 0.4578 0.40441 0.0
H50 H 0.29177 0.43746 0.35611 0.0
H51 H 0.2682 0.40707 0.37025 0.0
H52 H 0.272 0.4455 0.42872 0.0
H53 H 0.31634 0.45268 0.43798 0.0
H54 H 0.28705 0.43313 0.44777 0.0
H55 H 0.37362 0.41386 0.41594 0.0
H56 H 0.3656 0.41048 0.43833 0.0
H57 H 0.37278 0.43602 0.42985 0.0
H58 H 0.34731 0.41233 0.49118 0.0
C59 C 0.32363 0.40438 0.46641 0.0
C60 C 0.29815 0.16465 0.88261 0.0
C61 C 0.31027 0.18335 0.89 0.0
C62 C 0.30364 0.1868 0.9079 0.0
C63 C 0.27266 0.1536 0.91044 0.0
C64 C 0.27973 0.15008 0.89301 0.0
C65 C 0.26542 0.12946 0.88706 0.0
H66 H 0.16948 0.04175 0.90404 0.0
C67 C 0.25216 0.1355 0.91738 0.0
C68 C 0.24809 0.12127 0.90373 0.0
H69 H 0.22341 0.06006 0.85603 0.0
H70 H 0.24567 0.09122 0.86957 0.0
H71 H 0.23751 0.05529 0.92889 0.0
H72 H 0.13667 0.0862 0.91368 0.0
H73 H 0.14328 0.09068 0.93604 0.0
H74 H 0.13676 0.06473 0.92835 0.0
H75 H 0.19266 0.0485 0.93777 0.0
H76 H 0.22144 0.06845 0.94734 0.0
C77 C 0.29933 0.11647 0.88116 0.0
C78 C 0.23562 0.13305 0.87272 0.0
C79 C 0.20599 0.13488 0.98018 0.0
C80 C 0.18505 0.12052 0.98993 0.0
C81 C 0.17419 0.10186 0.98196 0.0
C82 C 0.18348 0.09768 0.96461 0.0
C83 C 0.20394 0.11226 0.95498 0.0
C84 C 0.21506 0.13045 0.96279 0.0
C85 C 0.2367 0.14408 0.95048 0.0
C86 C 0.23658 0.13108 0.93402 0.0
C87 C 0.21728 0.11246 0.93677 0.0
C88 C 0.27671 0.14708 0.95788 0.0
C89 C 0.21464 0.16426 0.94809 0.0
C90 C 0.186 0.05253 0.89647 0.0
C91 C 0.19467 0.04844 0.87893 0.0
C92 C 0.21668 0.06273 0.8696 0.0
C93 C 0.22941 0.0809 0.87747 0.0
C94 C 0.22017 0.08492 0.89491 0.0
C95 C 0.1992 0.07074 0.90419 0.0
C96 C 0.19293 0.07744 0.92273 0.0
C97 C 0.21323 0.09806 0.92295 0.0
C98 C 0.22884 0.1024 0.90658 0.0
C99 C 0.21177 0.06162 0.93494 0.0
C100 C 0.15024 0.0798 0.92553 0.0
H101 H 0.28073 0.17566 0.93162 0.0
H102 H 0.30228 0.16146 0.86891 0.0
H103 H 0.21787 0.14647 0.87601 0.0
H104 H 0.21584 0.12007 0.87122 0.0
H105 H 0.24902 0.13621 0.85994 0.0
H106 H 0.32514 0.12086 0.88843 0.0
H107 H 0.30516 0.11864 0.86707 0.0
H108 H 0.29555 0.0999 0.88388 0.0
H109 H 0.21466 0.1494 0.98584 0.0
H110 H 0.15876 0.09032 0.98922 0.0
H111 H 0.17428 0.08322 0.95937 0.0
H112 H 0.28658 0.1328 0.96433 0.0
H113 H 0.27756 0.15959 0.96772 0.0
H114 H 0.29769 0.15033 0.94767 0.0
H115 H 0.18401 0.16109 0.94754 0.0
H116 H 0.22114 0.17223 0.93577 0.0
H117 H 0.21985 0.17498 0.95911 0.0
H118 H 0.31319 0.20085 0.91407 0.0
C119 C 0.28494 0.17207 0.91812 0.0
C120 C 0.80112 0.13419 0.53692 0.0
C121 C 0.82248 0.11983 0.52755 0.0
C122 C 0.83527 0.10212 0.5362 0.0
C123 C 0.80598 0.11323 0.56302 0.0
C124 C 0.79334 0.13062 0.55459 0.0
C125 C 0.77181 0.14448 0.56664 0.0
H126 H 0.70823 0.164 0.64828 0.0
C127 C 0.79324 0.11408 0.58131 0.0
C128 C 0.77309 0.13235 0.58355 0.0
H129 H 0.69804 0.20255 0.60272 0.0
H130 H 0.72844 0.17665 0.58519 0.0
H131 H 0.68505 0.12304 0.63008 0.0
H132 H 0.79292 0.14965 0.64108 0.0
H133 H 0.79442 0.12353 0.64689 0.0
H134 H 0.76156 0.14012 0.65751 0.0
H135 H 0.70646 0.12062 0.6511 0.0
H136 H 0.71473 0.10219 0.63394 0.0
C137 C 0.73141 0.1464 0.55958 0.0
C138 C 0.79332 0.16517 0.56806 0.0
C139 C 0.82829 0.05694 0.62345 0.0
C140 C 0.81902 0.05318 0.64096 0.0
C141 C 0.79531 0.0669 0.64972 0.0
C142 C 0.78167 0.08438 0.64132 0.0
C143 C 0.79163 0.08818 0.62391 0.0
C144 C 0.81393 0.07437 0.61514 0.0
C145 C 0.81985 0.08043 0.59641 0.0
C146 C 0.79811 0.10038 0.59554 0.0
C147 C 0.78214 0.10494 0.61174 0.0
C148 C 0.80224 0.0635 0.5847 0.0
C149 C 0.86232 0.08399 0.59356 0.0
C150 C 0.71279 0.16695 0.63455 0.0
C151 C 0.70115 0.18545 0.62693 0.0
C152 C 0.70672 0.18841 0.60891 0.0
C153 C 0.72461 0.17341 0.59878 0.0
C154 C 0.73701 0.15522 0.60674 0.0
C155 C 0.73051 0.15218 0.62431 0.0
C156 C 0.74505 0.13195 0.63066 0.0
C157 C 0.76227 0.1235 0.61413 0.0
C158 C 0.75762 0.13715 0.60012 0.0
C159 C 0.71132 0.11871 0.63691 0.0
C160 C 0.77492 0.13635 0.64486 0.0
H161 H 0.8377 0.08495 0.55958 0.0
H162 H 0.79124 0.14808 0.53073 0.0
H163 H 0.82408 0.16264 0.56811 0.0
H164 H 0.78762 0.17344 0.5803 0.0
H165 H 0.78676 0.17536 0.55688 0.0
H166 H 0.72118 0.13139 0.55442 0.0
H167 H 0.73007 0.15777 0.54881 0.0
H168 H 0.7111 0.1507 0.56974 0.0
H169 H 0.84604 0.04645 0.61635 0.0
H170 H 0.78798 0.06429 0.66324 0.0
H171 H 0.76418 0.09437 0.64879 0.0
H172 H 0.77745 0.0563 0.59109 0.0
H173 H 0.82258 0.05111 0.58197 0.0
H174 H 0.79137 0.06955 0.57226 0.0
H175 H 0.87517 0.09165 0.60509 0.0
H176 H 0.86854 0.09429 0.5825 0.0
H177 H 0.87699 0.0692 0.59154 0.0
H178 H 0.85135 0.0907 0.52926 0.0
C179 C 0.82711 0.09874 0.55381 0.0
C180 C 0.78854 0.33462 0.13589 0.0
C181 C 0.80134 0.31624 0.12842 0.0
C182 C 0.79637 0.31308 0.11038 0.0
C183 C 0.76588 0.34612 0.1077 0.0
C184 C 0.77112 0.34927 0.12534 0.0
C185 C 0.75618 0.36962 0.13129 0.0
H186 H 0.668 0.45853 0.11249 0.0
C187 C 0.74678 0.36438 0.10053 0.0
C188 C 0.74124 0.37824 0.11431 0.0
H189 H 0.70781 0.43731 0.16255 0.0
H190 H 0.73168 0.40665 0.14923 0.0
H191 H 0.73846 0.4459 0.09091 0.0
H192 H 0.63455 0.41386 0.10003 0.0
H193 H 0.64521 0.41193 0.07773 0.0
H194 H 0.63825 0.43687 0.08723 0.0
H195 H 0.69669 0.45211 0.07912 0.0
H196 H 0.7282 0.43241 0.07167 0.0
C197 C 0.78935 0.3826 0.13845 0.0
C198 C 0.72451 0.36544 0.14465 0.0
C199 C 0.70997 0.36684 0.03646 0.0
C200 C 0.69338 0.3821 0.0261 0.0
C201 C 0.68425 0.40109 0.03372 0.0
C202 C 0.69082 0.40473 0.05145 0.0
C203 C 0.70694 0.38926 0.06172 0.0
C204 C 0.71684 0.37082 0.05414 0.0
C205 C 0.73554 0.35664 0.06691 0.0
C206 C 0.73425 0.36939 0.08348 0.0
C207 C 0.71712 0.38839 0.08037 0.0
C208 C 0.7762 0.35302 0.06069 0.0
C209 C 0.71145 0.33684 0.0684 0.0
C210 C 0.68162 0.44721 0.12061 0.0
C211 C 0.68602 0.45046 0.13863 0.0
C212 C 0.70448 0.43542 0.14862 0.0
C213 C 0.71809 0.41749 0.14087 0.0
C214 C 0.71318 0.4144 0.12289 0.0
C215 C 0.6953 0.42915 0.11307 0.0
C216 C 0.69256 0.42321 0.09416 0.0
C217 C 0.71145 0.40238 0.09431 0.0
C218 C 0.72342 0.39731 0.11118 0.0
C219 C 0.71483 0.43923 0.08328 0.0
C220 C 0.65053 0.42145 0.08936 0.0
H221 H 0.77547 0.32448 0.08641 0.0
H222 H 0.79238 0.33768 0.14965 0.0
H223 H 0.70866 0.35119 0.14127 0.0
H224 H 0.70319 0.37762 0.14486 0.0
H225 H 0.73598 0.36344 0.15799 0.0
H226 H 0.81523 0.3798 0.13078 0.0
H227 H 0.79542 0.37865 0.15224 0.0
H228 H 0.78472 0.39931 0.13743 0.0
H229 H 0.71784 0.35222 0.03086 0.0
H230 H 0.67134 0.41302 0.02598 0.0
H231 H 0.68291 0.41943 0.05649 0.0
H232 H 0.78758 0.36679 0.05385 0.0
H233 H 0.77759 0.33987 0.05149 0.0
H234 H 0.79585 0.35041 0.07157 0.0
H235 H 0.68116 0.34064 0.06874 0.0
H236 H 0.71673 0.32817 0.08049 0.0
H237 H 0.71612 0.32655 0.05708 0.0
H238 H 0.80568 0.29899 0.10433 0.0
C239 C 0.77867 0.32787 0.10001 0.0
C240 C 0.7033 0.56018 0.63309 0.0
C241 C 0.68103 0.54427 0.62613 0.0
C242 C 0.67025 0.54526 0.60847 0.0
C243 C 0.70278 0.57789 0.60525 0.0
C244 C 0.7137 0.57676 0.62249 0.0
C245 C 0.73617 0.59522 0.6281 0.0
H246 H 0.80632 0.68959 0.61027 0.0
C247 C 0.71714 0.59752 0.59809 0.0
C248 C 0.73669 0.60773 0.61142 0.0
H249 H 0.81438 0.65475 0.65812 0.0
H250 H 0.78139 0.62652 0.64488 0.0
H251 H 0.8258 0.65037 0.58482 0.0
H252 H 0.72205 0.67757 0.60119 0.0
H253 H 0.71811 0.6717 0.57892 0.0
H254 H 0.75305 0.69 0.58604 0.0
H255 H 0.81065 0.67494 0.57702 0.0
H256 H 0.79596 0.65136 0.56663 0.0
C257 C 0.77585 0.58792 0.6333 0.0
C258 C 0.7144 0.60616 0.64285 0.0
C259 C 0.68963 0.61652 0.53525 0.0
C260 C 0.69813 0.63385 0.52502 0.0
C261 C 0.71809 0.65035 0.53263 0.0
C262 C 0.72977 0.64946 0.55007 0.0
C263 C 0.72127 0.63195 0.56008 0.0
C264 C 0.70135 0.6159 0.55264 0.0
C265 C 0.69419 0.59866 0.56526 0.0
C266 C 0.71361 0.60683 0.58144 0.0
C267 C 0.72945 0.62633 0.57836 0.0
C268 C 0.71333 0.5791 0.55817 0.0
C269 C 0.6513 0.59652 0.56783 0.0
C270 C 0.80125 0.6758 0.61782 0.0
C271 C 0.81252 0.67458 0.63538 0.0
C272 C 0.80526 0.65633 0.64473 0.0
C273 C 0.78624 0.63985 0.63698 0.0
C274 C 0.77421 0.6415 0.61963 0.0
C275 C 0.78222 0.65911 0.61023 0.0
C276 C 0.76766 0.65783 0.59183 0.0
C277 C 0.74915 0.63671 0.59189 0.0
C278 C 0.75299 0.62733 0.60825 0.0
C279 C 0.80156 0.6588 0.5793 0.0
C280 C 0.73886 0.67521 0.58917 0.0
H281 H 0.67185 0.56181 0.58469 0.0
H282 H 0.71165 0.56006 0.64666 0.0
H283 H 0.68372 0.60545 0.64039 0.0
H284 H 0.72098 0.62271 0.64386 0.0
H285 H 0.7197 0.59878 0.65566 0.0
H286 H 0.78423 0.57423 0.62558 0.0
H287 H 0.77704 0.5836 0.64729 0.0
H288 H 0.79783 0.59952 0.63056 0.0
H289 H 0.67382 0.60372 0.52989 0.0
H290 H 0.72523 0.6638 0.52498 0.0
H291 H 0.74504 0.66245 0.55507 0.0
H292 H 0.74074 0.58301 0.55209 0.0
H293 H 0.69573 0.57147 0.5481 0.0
H294 H 0.71996 0.56786 0.56847 0.0
H295 H 0.63738 0.6117 0.56678 0.0
H296 H 0.6436 0.59083 0.58091 0.0
H297 H 0.63868 0.58625 0.55783 0.0
H298 H 0.65347 0.53308 0.60273 0.0
C299 C 0.68106 0.56193 0.598 0.0
C300 C 0.70619 0.83693 0.13333 0.0
C301 C 0.69664 0.81785 0.12591 0.0
C302 C 0.70463 0.81441 0.10815 0.0
C303 C 0.73211 0.84851 0.10578 0.0
C304 C 0.72394 0.85187 0.12313 0.0
C305 C 0.73713 0.87256 0.12936 0.0
H306 H 0.83261 0.96059 0.11405 0.0
C307 C 0.75133 0.8671 0.09906 0.0
C308 C 0.75438 0.88119 0.11286 0.0
H309 H 0.78077 0.94021 0.16203 0.0
H310 H 0.7572 0.90998 0.14767 0.0
H311 H 0.86307 0.91614 0.10135 0.0
H312 H 0.76313 0.95007 0.09032 0.0
H313 H 0.77228 0.9357 0.07148 0.0
H314 H 0.80575 0.95489 0.07867 0.0
H315 H 0.86223 0.93995 0.08953 0.0
H316 H 0.8551 0.91578 0.07867 0.0
C317 C 0.7667 0.86917 0.14388 0.0
C318 C 0.70245 0.88499 0.13512 0.0
C319 C 0.79452 0.87036 0.03595 0.0
C320 C 0.8111 0.88611 0.02604 0.0
C321 C 0.81924 0.90515 0.03393 0.0
C322 C 0.81146 0.90844 0.05157 0.0
C323 C 0.79506 0.89257 0.0614 0.0
C324 C 0.78627 0.87402 0.05353 0.0
C325 C 0.7669 0.85944 0.06585 0.0
C326 C 0.76597 0.87222 0.08241 0.0
C327 C 0.78304 0.89148 0.07976 0.0
C328 C 0.79164 0.84017 0.06792 0.0
C329 C 0.72711 0.85496 0.0587 0.0
C330 C 0.81589 0.94972 0.12143 0.0
C331 C 0.80919 0.9527 0.13932 0.0
C332 C 0.78725 0.93809 0.14837 0.0
C333 C 0.77335 0.92055 0.13997 0.0
C334 C 0.78129 0.91747 0.12226 0.0
C335 C 0.80166 0.93208 0.1132 0.0
C336 C 0.80647 0.92636 0.09433 0.0
C337 C 0.78678 0.90557 0.09379 0.0
C338 C 0.77227 0.90047 0.1102 0.0
C339 C 0.8489 0.92453 0.09061 0.0
C340 C 0.78617 0.94258 0.08301 0.0
H341 H 0.72791 0.82603 0.08468 0.0
H342 H 0.70001 0.84025 0.14684 0.0
H343 H 0.67797 0.88151 0.12661 0.0
H344 H 0.70666 0.90177 0.13398 0.0
H345 H 0.69436 0.8812 0.14872 0.0
H346 H 0.78283 0.85488 0.14155 0.0
H347 H 0.75325 0.86772 0.15687 0.0
H348 H 0.78817 0.88145 0.14441 0.0
H349 H 0.78757 0.85568 0.03007 0.0
H350 H 0.83212 0.91743 0.02646 0.0
H351 H 0.81862 0.92319 0.05687 0.0
H352 H 0.82181 0.84453 0.06825 0.0
H353 H 0.78743 0.82938 0.05686 0.0
H354 H 0.78661 0.83187 0.08024 0.0
H355 H 0.71526 0.86884 0.05236 0.0
H356 H 0.70685 0.85089 0.06901 0.0
H357 H 0.72753 0.84248 0.04883 0.0
H358 H 0.69792 0.79979 0.10213 0.0
C359 C 0.72227 0.82963 0.09806 0.0
C360 C 0.19556 0.93832 0.38184 0.0
C361 C 0.17314 0.95416 0.38852 0.0
C362 C 0.16266 0.95343 0.40624 0.0
C363 C 0.19611 0.92146 0.41007 0.0
C364 C 0.20645 0.9222 0.39275 0.0
C365 C 0.22919 0.9039 0.38746 0.0
H366 H 0.30534 0.81211 0.40767 0.0
C367 C 0.2115 0.90242 0.41769 0.0
C368 C 0.2308 0.89205 0.40448 0.0
H369 H 0.30675 0.84409 0.35826 0.0
H370 H 0.27347 0.8723 0.37095 0.0
H371 H 0.32433 0.85206 0.43091 0.0
H372 H 0.21923 0.82305 0.41772 0.0
H373 H 0.21868 0.8291 0.44006 0.0
H374 H 0.25293 0.81138 0.43191 0.0
H375 H 0.30942 0.82837 0.44076 0.0
H376 H 0.29583 0.85294 0.44951 0.0
C377 C 0.26842 0.91166 0.38173 0.0
C378 C 0.2071 0.89203 0.3732 0.0
C379 C 0.18865 0.8858 0.48156 0.0
C380 C 0.19907 0.86928 0.49231 0.0
C381 C 0.22041 0.85326 0.48504 0.0
C382 C 0.23099 0.85363 0.46745 0.0
C383 C 0.2202 0.87019 0.45689 0.0
C384 C 0.19948 0.88594 0.46401 0.0
C385 C 0.19051 0.9023 0.45085 0.0
C386 C 0.20953 0.89388 0.43471 0.0
C387 C 0.22678 0.87501 0.43829 0.0
C388 C 0.20873 0.92272 0.45702 0.0
C389 C 0.14741 0.90311 0.44869 0.0
C390 C 0.29826 0.82517 0.39959 0.0
C391 C 0.30878 0.82584 0.38192 0.0
C392 C 0.29948 0.84326 0.37194 0.0
C393 C 0.27984 0.8596 0.37931 0.0
C394 C 0.26917 0.85864 0.3969 0.0
C395 C 0.27867 0.84174 0.4068 0.0
C396 C 0.26551 0.84371 0.42538 0.0
C397 C 0.24598 0.86438 0.42484 0.0
C398 C 0.24814 0.87296 0.40808 0.0
C399 C 0.30037 0.84416 0.43739 0.0
C400 C 0.23778 0.82586 0.42914 0.0
H401 H 0.16495 0.93756 0.43033 0.0
H402 H 0.20459 0.93844 0.36838 0.0
H403 H 0.17644 0.8928 0.37559 0.0
H404 H 0.21327 0.87544 0.37298 0.0
H405 H 0.21254 0.8986 0.36008 0.0
H406 H 0.27731 0.92528 0.38951 0.0
H407 H 0.26847 0.91625 0.3678 0.0
H408 H 0.29062 0.90023 0.38393 0.0
H409 H 0.17191 0.89825 0.48661 0.0
H410 H 0.22934 0.84049 0.49303 0.0
H411 H 0.2472 0.84099 0.46276 0.0
H412 H 0.23662 0.9199 0.46298 0.0
H413 H 0.19112 0.93038 0.46697 0.0
H414 H 0.21421 0.93359 0.44627 0.0
H415 H 0.13463 0.88756 0.45021 0.0
H416 H 0.13867 0.90818 0.43558 0.0
H417 H 0.13463 0.91329 0.45861 0.0
H418 H 0.14496 0.96519 0.41173 0.0
C419 C 0.17406 0.93724 0.41702 0.0
C420 C 0.21452 0.6653 0.88293 0.0
C421 C 0.20357 0.68417 0.8901 0.0
C422 C 0.21134 0.68811 0.90784 0.0
C423 C 0.24028 0.65462 0.91078 0.0
C424 C 0.23264 0.6509 0.8934 0.0
C425 C 0.24648 0.63039 0.88744 0.0
H426 H 0.34211 0.54364 0.90375 0.0
C427 C 0.2599 0.63641 0.91781 0.0
C428 C 0.26351 0.62223 0.90411 0.0
H429 H 0.29085 0.56299 0.85542 0.0
H430 H 0.26712 0.59318 0.86945 0.0
H431 H 0.37273 0.58818 0.91566 0.0
H432 H 0.27237 0.55414 0.92739 0.0
H433 H 0.28272 0.56841 0.9462 0.0
H434 H 0.31541 0.54935 0.93864 0.0
H435 H 0.37181 0.56507 0.92843 0.0
H436 H 0.36483 0.58983 0.93824 0.0
C437 C 0.27637 0.63411 0.8731 0.0
C438 C 0.21223 0.61734 0.88154 0.0
C439 C 0.30312 0.63403 0.9812 0.0
C440 C 0.32145 0.61886 0.99113 0.0
C441 C 0.33015 0.60001 0.98307 0.0
C442 C 0.32175 0.59647 0.96552 0.0
C443 C 0.30417 0.61185 0.95574 0.0
C444 C 0.29459 0.63014 0.96363 0.0
C445 C 0.27479 0.64436 0.95119 0.0
C446 C 0.27445 0.6316 0.93458 0.0
C447 C 0.29208 0.61265 0.93736 0.0
C448 C 0.29871 0.66415 0.94922 0.0
C449 C 0.23481 0.64804 0.95819 0.0
C450 C 0.32543 0.55427 0.89623 0.0
C451 C 0.31889 0.55101 0.87835 0.0
C452 C 0.2971 0.56532 0.86909 0.0
C453 C 0.28313 0.58284 0.8773 0.0
C454 C 0.29088 0.5862 0.89502 0.0
C455 C 0.31117 0.57189 0.90426 0.0
C456 C 0.31605 0.57794 0.92306 0.0
C457 C 0.2962 0.5985 0.92341 0.0
C458 C 0.28172 0.60324 0.90694 0.0
C459 C 0.35852 0.5803 0.92671 0.0
C460 C 0.29591 0.56164 0.93453 0.0
H461 H 0.23466 0.67731 0.9316 0.0
H462 H 0.20975 0.66189 0.86929 0.0
H463 H 0.18719 0.62083 0.88959 0.0
H464 H 0.21646 0.60066 0.88321 0.0
H465 H 0.20492 0.62051 0.86773 0.0
H466 H 0.29238 0.64856 0.87557 0.0
H467 H 0.2632 0.63546 0.86004 0.0
H468 H 0.29789 0.62205 0.87266 0.0
H469 H 0.29602 0.64872 0.98686 0.0
H470 H 0.34324 0.58779 0.99039 0.0
H471 H 0.32938 0.58185 0.96023 0.0
H472 H 0.32902 0.66041 0.9488 0.0
H473 H 0.2942 0.67474 0.96035 0.0
H474 H 0.29313 0.67244 0.93697 0.0
H475 H 0.22283 0.63366 0.96379 0.0
H476 H 0.21496 0.65265 0.94792 0.0
H477 H 0.23498 0.65988 0.96862 0.0
H478 H 0.20301 0.70247 0.91374 0.0
C479 C 0.22956 0.67343 0.91821 0.0
Tb480 Tb 0.05057 0.13912 0.24415 0.0
C481 C 0.88183 0.1251 0.26085 0.0
N482 N 0.9009 0.14325 0.2606 0.0
C483 C 0.85143 0.15874 0.2442 0.0
C484 C 0.84701 0.12293 0.25239 0.0
C485 C 0.88606 0.16008 0.25265 0.0
C486 C 0.83188 0.14006 0.244 0.0
C487 C 0.87974 0.08925 0.2693 0.0
C488 C 0.89827 0.10845 0.26902 0.0
C489 C 0.84509 0.08694 0.26082 0.0
C490 C 0.82877 0.10374 0.25238 0.0
Tb491 Tb 0.95772 0.14358 0.27419 0.0
N492 N 0.93238 0.11115 0.27669 0.0
C493 C 0.89633 0.07302 0.27831 0.0
C494 C 0.94691 0.09582 0.28673 0.0
C495 C 0.92972 0.07644 0.28733 0.0
H496 H 0.90061 0.17464 0.25308 0.0
H497 H 0.94188 0.06427 0.29504 0.0
H498 H 0.10788 0.10981 0.26693 0.0
H499 H 0.06279 0.21797 0.22155 0.0
H500 H 0.97087 0.09844 0.29489 0.0
H501 H 0.88301 0.05802 0.27886 0.0
H502 H 0.0349 0.18361 0.22269 0.0
H503 H 0.83984 0.17212 0.23787 0.0
H504 H 0.83057 0.07226 0.26081 0.0
H505 H 0.80205 0.10172 0.24589 0.0
H506 H 0.16918 0.11348 0.2815 0.0
H507 H 0.80516 0.13904 0.23735 0.0
H508 H 0.12191 0.2253 0.23718 0.0
N509 N 0.1068 0.14076 0.25815 0.0
C510 C 0.1254 0.15902 0.25712 0.0
C511 C 0.15709 0.12644 0.27477 0.0
C512 C 0.16049 0.16181 0.26522 0.0
C513 C 0.12218 0.12446 0.26667 0.0
C514 C 0.17631 0.1452 0.27408 0.0
N515 N 0.07396 0.17192 0.24116 0.0
C516 C 0.05881 0.18674 0.23076 0.0
C517 C 0.12623 0.19452 0.24761 0.0
C518 C 0.10816 0.1752 0.24859 0.0
C519 C 0.10896 0.21025 0.23826 0.0
C520 C 0.07543 0.20622 0.22955 0.0
H521 H 0.20325 0.14671 0.28046 0.0
H522 H 0.20519 0.18358 0.27065 0.0
H523 H 0.17535 0.21218 0.25513 0.0
O524 O 0.05911 0.14028 0.21664 0.0
O525 O 0.05601 0.15347 0.27003 0.0
O526 O 0.99894 0.16851 0.27365 0.0
O527 O 0.08982 0.11925 0.23325 0.0
O528 O 1.00099 0.15434 0.23309 0.0
O529 O 0.97143 0.16918 0.25673 0.0
O530 O 0.95248 0.14237 0.30187 0.0
O531 O 0.95234 0.12868 0.2486 0.0
O532 O 0.0097 0.11389 0.24367 0.0
O533 O 0.91959 0.16335 0.2861 0.0
O534 O 0.00667 0.12739 0.28489 0.0
O535 O 0.03714 0.11318 0.26116 0.0
C536 C 0.03439 0.16692 0.27769 0.0
C537 C 0.105 0.11755 0.20258 0.0
C538 C 0.1199 0.11655 0.17158 0.0
C539 C 0.1447 0.10037 0.17468 0.0
C540 C 0.13015 0.10135 0.20536 0.0
C541 C 0.14981 0.09285 0.19149 0.0
C542 C 0.09999 0.12521 0.18555 0.0
C543 C 0.97766 0.16779 0.23985 0.0
C544 C 0.08429 0.12599 0.2176 0.0
C545 C 0.17827 0.1811 0.26447 0.0
C546 C 0.16118 0.19741 0.2557 0.0
C547 C 0.97339 0.11479 0.24117 0.0
C548 C 0.90897 0.16537 0.31717 0.0
C549 C 0.89504 0.16503 0.34833 0.0
C550 C 0.87634 0.18378 0.34648 0.0
C551 C 0.88975 0.18406 0.31567 0.0
C552 C 0.91129 0.15574 0.33361 0.0
C553 C 0.87358 0.19315 0.33023 0.0
C554 C 0.02962 0.11386 0.27794 0.0
C555 C 0.92737 0.15674 0.3016 0.0
H556 H 0.16015 0.09355 0.16403 0.0
H557 H 0.13461 0.09514 0.21828 0.0
H558 H 0.16902 0.08037 0.19377 0.0
H559 H 0.08073 0.13767 0.18314 0.0
H560 H 0.86362 0.19111 0.35765 0.0
H561 H 0.88761 0.19184 0.30323 0.0
H562 H 0.92599 0.14133 0.33501 0.0
H563 H 0.85901 0.20758 0.32893 0.0
Tb564 Tb 0.4619 0.36234 0.74482 0.0
C565 C 0.63384 0.37445 0.76039 0.0
N566 N 0.61312 0.35692 0.76183 0.0
C567 C 0.66271 0.33756 0.74893 0.0
C568 C 0.66983 0.37423 0.75293 0.0
C569 C 0.62709 0.33854 0.75639 0.0
C570 C 0.68417 0.35548 0.74716 0.0
C571 C 0.63851 0.41138 0.76429 0.0
C572 C 0.61827 0.3928 0.76594 0.0
C573 C 0.67451 0.41123 0.75697 0.0
C574 C 0.69012 0.39271 0.75129 0.0
Tb575 Tb 0.55562 0.36052 0.77423 0.0
N576 N 0.58272 0.39247 0.77235 0.0
C577 C 0.6219 0.42955 0.77001 0.0
C578 C 0.56727 0.41002 0.77876 0.0
C579 C 0.58629 0.42882 0.77744 0.0
H580 H 0.6112 0.32454 0.75821 0.0
H581 H 0.57363 0.44271 0.78235 0.0
H582 H 0.4023 0.38929 0.76832 0.0
H583 H 0.45594 0.2841 0.72038 0.0
H584 H 0.54081 0.40974 0.78531 0.0
H585 H 0.63652 0.44415 0.76899 0.0
H586 H 0.47945 0.3195 0.72151 0.0
H587 H 0.67369 0.32296 0.74465 0.0
H588 H 0.69045 0.42537 0.75557 0.0
H589 H 0.71783 0.39287 0.74559 0.0
H590 H 0.34284 0.38316 0.78392 0.0
H591 H 0.71173 0.35467 0.74134 0.0
H592 H 0.40019 0.27403 0.73753 0.0
N593 N 0.40678 0.35849 0.75945 0.0
C594 C 0.39055 0.33956 0.75866 0.0
C595 C 0.35609 0.37073 0.77695 0.0
C596 C 0.3567 0.33532 0.7674 0.0
C597 C 0.38993 0.37412 0.76824 0.0
C598 C 0.33946 0.35122 0.7766 0.0
N599 N 0.44164 0.329 0.74136 0.0
C600 C 0.45711 0.31515 0.73015 0.0
C601 C 0.39328 0.3043 0.74869 0.0
C602 C 0.40893 0.32423 0.74958 0.0
C603 C 0.4113 0.28952 0.73857 0.0
C604 C 0.44293 0.2951 0.72899 0.0
H605 H 0.31338 0.34861 0.78346 0.0
H606 H 0.31567 0.31175 0.77362 0.0
H607 H 0.34754 0.28461 0.75715 0.0
O608 O 0.45303 0.36177 0.71725 0.0
O609 O 0.4593 0.34875 0.77107 0.0
O610 O 0.51703 0.33423 0.77562 0.0
O611 O 0.42022 0.38103 0.7345 0.0
O612 O 0.51251 0.34796 0.73414 0.0
O613 O 0.54326 0.33381 0.75781 0.0
O614 O 0.55912 0.36727 0.80101 0.0
O615 O 0.55943 0.37559 0.74862 0.0
O616 O 0.50066 0.38844 0.74365 0.0
O617 O 0.59497 0.34473 0.78945 0.0
O618 O 0.50635 0.37623 0.7849 0.0
O619 O 0.47333 0.38895 0.76132 0.0
C620 C 0.48068 0.33477 0.77822 0.0
C621 C 0.40494 0.38393 0.70397 0.0
C622 C 0.39068 0.38666 0.67294 0.0
C623 C 0.36658 0.40304 0.67655 0.0
C624 C 0.38037 0.40027 0.70722 0.0
C625 C 0.36132 0.40969 0.69359 0.0
C626 C 0.4097 0.37695 0.68672 0.0
C627 C 0.53599 0.33463 0.74099 0.0
C628 C 0.42663 0.37534 0.71863 0.0
C629 C 0.34153 0.31536 0.76689 0.0
C630 C 0.35979 0.29988 0.75757 0.0
C631 C 0.53671 0.38814 0.74052 0.0
C632 C 0.57868 0.3401 0.81901 0.0
C633 C 0.5842 0.33459 0.85043 0.0
C634 C 0.56893 0.31474 0.84819 0.0
C635 C 0.56348 0.3203 0.81711 0.0
C636 C 0.5888 0.34721 0.83565 0.0
C637 C 0.55854 0.30773 0.83166 0.0
C638 C 0.4816 0.38878 0.77803 0.0
C639 C 0.58463 0.35352 0.80383 0.0
H640 H 0.35152 0.4106 0.66613 0.0
H641 H 0.37618 0.40602 0.72031 0.0
H642 H 0.34262 0.4223 0.69624 0.0
H643 H 0.42861 0.36443 0.68397 0.0
H644 H 0.56556 0.30444 0.85917 0.0
H645 H 0.5558 0.31454 0.80437 0.0
H646 H 0.60004 0.36264 0.83705 0.0
H647 H 0.54693 0.29243 0.8301 0.0
Tb648 Tb 0.04709 0.8603 0.74081 0.0
C649 C 0.88527 0.84333 0.75648 0.0
N650 N 0.90489 0.86117 0.75863 0.0
C651 C 0.85636 0.87951 0.74368 0.0
C652 C 0.85134 0.84275 0.74709 0.0
C653 C 0.88946 0.87934 0.75342 0.0
C654 C 0.83757 0.86108 0.7402 0.0
C655 C 0.87737 0.8073 0.76393 0.0
C656 C 0.89793 0.82582 0.76477 0.0
C657 C 0.84445 0.80641 0.75395 0.0
C658 C 0.8315 0.82409 0.74551 0.0
Tb659 Tb 0.95943 0.85834 0.77433 0.0
N660 N 0.93036 0.8271 0.77394 0.0
C661 C 0.89029 0.79035 0.77338 0.0
C662 C 0.94219 0.811 0.78389 0.0
C663 C 0.92259 0.7923 0.78358 0.0
H664 H 0.90181 0.89389 0.75706 0.0
H665 H 0.93239 0.77942 0.79118 0.0
H666 H 0.11398 0.83589 0.76157 0.0
H667 H 0.04503 0.93546 0.71031 0.0
H668 H 0.96702 0.81257 0.79184 0.0
H669 H 0.87524 0.77584 0.77311 0.0
H670 H 0.02402 0.89981 0.71476 0.0
H671 H 0.84489 0.89393 0.73923 0.0
H672 H 0.82841 0.79226 0.75296 0.0
H673 H 0.80555 0.82333 0.73822 0.0
H674 H 0.17581 0.84412 0.7743 0.0
H675 H 0.81161 0.86131 0.7329 0.0
H676 H 0.10219 0.94831 0.72508 0.0
N677 N 0.10442 0.86636 0.75275 0.0
C678 C 0.11895 0.88549 0.75054 0.0
C679 C 0.15995 0.85596 0.76779 0.0
C680 C 0.15416 0.89091 0.7575 0.0
C681 C 0.12477 0.85138 0.76071 0.0
C682 C 0.17457 0.87588 0.76635 0.0
N683 N 0.06549 0.89317 0.7339 0.0
C684 C 0.0475 0.90549 0.72221 0.0
C685 C 0.11258 0.91951 0.73827 0.0
C686 C 0.09839 0.89952 0.7411 0.0
C687 C 0.09232 0.9328 0.72757 0.0
C688 C 0.05998 0.92563 0.71926 0.0
H689 H 0.20179 0.8794 0.77187 0.0
H690 H 0.19469 0.91559 0.76066 0.0
H691 H 0.15825 0.94067 0.74381 0.0
O692 O 0.07212 0.86172 0.71587 0.0
O693 O 0.05466 0.87249 0.76738 0.0
O694 O 0.99688 0.88521 0.77512 0.0
O695 O 0.0661 0.83263 0.72973 0.0
O696 O 0.99418 0.87519 0.73347 0.0
O697 O 0.96626 0.88666 0.75885 0.0
O698 O 0.96405 0.85497 0.80151 0.0
O699 O 0.97042 0.8329 0.75614 0.0
O700 O 0.99114 0.851 0.7329 0.0
O701 O 0.91559 0.86877 0.79022 0.0
O702 O 0.01176 0.84477 0.78322 0.0
O703 O 0.04431 0.83368 0.75867 0.0
C704 C 0.03375 0.88586 0.77566 0.0
C705 C 0.09467 0.83114 0.70086 0.0
C706 C 0.11201 0.82948 0.67005 0.0
C707 C 0.12263 0.80893 0.67243 0.0
C708 C 0.10557 0.8106 0.70286 0.0
C709 C 0.11963 0.79964 0.68874 0.0
C710 C 0.09846 0.84065 0.68443 0.0
C711 C 0.97431 0.88873 0.74217 0.0
C712 C 0.07706 0.84197 0.71561 0.0
C713 C 0.16784 0.91103 0.75528 0.0
C714 C 0.14703 0.92532 0.74572 0.0
C715 C 0.97525 0.83458 0.7393 0.0
C716 C 0.93451 0.88052 0.81783 0.0
C717 C 0.9289 0.89096 0.84818 0.0
C718 C 0.94086 0.91086 0.84357 0.0
C719 C 0.94557 0.90054 0.81337 0.0
C720 C 0.92582 0.87581 0.8352 0.0
C721 C 0.94894 0.91562 0.82622 0.0
C722 C 0.03573 0.8325 0.77543 0.0
C723 C 0.93281 0.86429 0.8046 0.0
H724 H 0.13349 0.80006 0.66164 0.0
H725 H 0.10288 0.80291 0.71532 0.0
H726 H 0.12791 0.7838 0.6904 0.0
H727 H 0.08964 0.85641 0.68264 0.0
H728 H 0.94325 0.92282 0.85334 0.0
H729 H 0.95148 0.90444 0.79996 0.0
H730 H 0.91715 0.86033 0.83865 0.0
H731 H 0.95769 0.93103 0.82272 0.0
Tb732 Tb 0.45776 0.64267 0.24369 0.0
C733 C 0.62639 0.65877 0.26174 0.0
N734 N 0.60726 0.64068 0.26054 0.0
C735 C 0.65838 0.62558 0.24507 0.0
C736 C 0.66241 0.66099 0.25448 0.0
C737 C 0.62277 0.62409 0.25251 0.0
C738 C 0.67831 0.6441 0.24605 0.0
C739 C 0.6281 0.69434 0.27115 0.0
C740 C 0.60909 0.67533 0.26975 0.0
C741 C 0.6641 0.69658 0.26403 0.0
C742 C 0.68117 0.67997 0.25568 0.0
Tb743 Tb 0.5505 0.63991 0.274 0.0
N744 N 0.57389 0.6727 0.27629 0.0
C745 C 0.6107 0.71042 0.27999 0.0
C746 C 0.55824 0.68793 0.28606 0.0
C747 C 0.57586 0.70709 0.28768 0.0
H748 H 0.60824 0.60952 0.25229 0.0
H749 H 0.56296 0.71911 0.29529 0.0
H750 H 0.39815 0.67113 0.26591 0.0
H751 H 0.44807 0.56445 0.21948 0.0
H752 H 0.53322 0.68532 0.29342 0.0
H753 H 0.62444 0.72522 0.28143 0.0
H754 H 0.47449 0.59918 0.22125 0.0
H755 H 0.6706 0.61238 0.23874 0.0
H756 H 0.67908 0.71108 0.26499 0.0
H757 H 0.7089 0.68196 0.25022 0.0
H758 H 0.3369 0.66655 0.28024 0.0
H759 H 0.70592 0.64519 0.2403 0.0
H760 H 0.38939 0.55599 0.23504 0.0
N761 N 0.40113 0.6402 0.25725 0.0
C762 C 0.38339 0.62171 0.25609 0.0
C763 C 0.34979 0.65376 0.2736 0.0
C764 C 0.34827 0.6184 0.26398 0.0
C765 C 0.38473 0.65626 0.26566 0.0
C766 C 0.33151 0.63473 0.27282 0.0
N767 N 0.43527 0.60979 0.24002 0.0
C768 C 0.45086 0.59547 0.22929 0.0
C769 C 0.38394 0.58643 0.24606 0.0
C770 C 0.40128 0.60591 0.2474 0.0
C771 C 0.40177 0.57115 0.23641 0.0
C772 C 0.43504 0.57582 0.22773 0.0
H773 H 0.3045 0.63282 0.27903 0.0
H774 H 0.30434 0.59603 0.26899 0.0
H775 H 0.33545 0.56806 0.2532 0.0
O776 O 0.45174 0.64231 0.21592 0.0
O777 O 0.45323 0.6275 0.26925 0.0
O778 O 0.51154 0.61381 0.27439 0.0
O779 O 0.41781 0.6618 0.23248 0.0
O780 O 0.50828 0.62781 0.23324 0.0
O781 O 0.53889 0.61363 0.25701 0.0
O782 O 0.55526 0.64193 0.30139 0.0
O783 O 0.55561 0.65514 0.24855 0.0
O784 O 0.49723 0.66842 0.24423 0.0
O785 O 0.59283 0.62333 0.28646 0.0
O786 O 0.50026 0.65469 0.28476 0.0
O787 O 0.46888 0.66858 0.26117 0.0
C788 C 0.47523 0.61429 0.27708 0.0
C789 C 0.40535 0.66481 0.20166 0.0
C790 C 0.39022 0.66609 0.17054 0.0
C791 C 0.3673 0.68314 0.17375 0.0
C792 C 0.38228 0.68191 0.20437 0.0
C793 C 0.36342 0.69094 0.19051 0.0
C794 C 0.40913 0.65682 0.18465 0.0
C795 C 0.53147 0.61438 0.24018 0.0
C796 C 0.42538 0.65596 0.21676 0.0
C797 C 0.33128 0.59891 0.26296 0.0
C798 C 0.34908 0.58296 0.25403 0.0
C799 C 0.53289 0.66765 0.24043 0.0
C800 C 0.58365 0.6138 0.3159 0.0
C801 C 0.59452 0.6062 0.34672 0.0
C802 C 0.59467 0.58509 0.3426 0.0
C803 C 0.58329 0.59268 0.31218 0.0
C804 C 0.5886 0.62042 0.33317 0.0
C805 C 0.58871 0.57845 0.32551 0.0
C806 C 0.47592 0.66761 0.278 0.0
C807 C 0.58324 0.62929 0.30192 0.0
H808 H 0.35191 0.69034 0.16326 0.0
H809 H 0.37886 0.68845 0.21724 0.0
H810 H 0.34566 0.70406 0.19279 0.0
H811 H 0.42693 0.64369 0.18237 0.0
H812 H 0.60023 0.57366 0.35248 0.0
H813 H 0.57977 0.5872 0.29895 0.0
H814 H 0.58844 0.63675 0.33592 0.0
H815 H 0.58913 0.5622 0.32253 0.0
H816 H 0.15071 0.95168 0.35439 0.0
H817 H 0.12946 0.97944 0.33553 0.0
H818 H 0.14244 0.0225 0.37785 0.0
H819 H 0.16567 0.99505 0.39656 0.0
H820 H 0.06895 0.0033 0.33886 0.0
H821 H 0.19645 0.05239 0.33929 0.0
H822 H 0.19627 0.02635 0.34736 0.0
H823 H 0.17913 0.04694 0.36074 0.0
C824 C 0.14981 0.96712 0.35962 0.0
C825 C 0.16019 0.97111 0.37701 0.0
C826 C 0.13733 0.98295 0.34884 0.0
C827 C 0.1349 0.00312 0.35517 0.0
C828 C 0.14488 0.00715 0.37254 0.0
H829 H 0.03988 0.11528 0.31324 0.0
H830 H 0.06574 0.08837 0.33201 0.0
C831 C 0.15764 0.99135 0.38331 0.0
C832 C 0.12048 0.01972 0.34379 0.0
H833 H 0.14143 0.06717 0.32716 0.0
C834 C 0.08491 0.0172 0.33623 0.0
C835 C 0.14137 0.03786 0.34032 0.0
C836 C 0.18057 0.041 0.34721 0.0
C837 C 0.06946 0.03244 0.32554 0.0
C838 C 0.09013 0.05062 0.32231 0.0
C839 C 0.12564 0.05321 0.32981 0.0
C840 C 0.07537 0.06701 0.31094 0.0
C841 C 0.03093 0.02916 0.31792 0.0
C842 C 0.07271 0.0639 0.29291 0.0
C843 C 0.05816 0.07922 0.28217 0.0
C844 C 0.0459 0.09789 0.28931 0.0
C845 C 0.04891 0.10101 0.30739 0.0
C846 C 0.06375 0.08572 0.3181 0.0
H847 H 0.01611 0.01591 0.32399 0.0
H848 H 0.01371 0.04315 0.31961 0.0
H849 H 0.03342 0.02618 0.30374 0.0
H850 H 0.0818 0.04959 0.28716 0.0
H851 H 0.05608 0.07632 0.26831 0.0
H852 H 0.35018 0.55043 0.84591 0.0
H853 H 0.3767 0.52121 0.8305 0.0
H854 H 0.35407 0.4823 0.8748 0.0
H855 H 0.32587 0.51133 0.89008 0.0
H856 H 0.43671 0.49774 0.83945 0.0
H857 H 0.30794 0.44953 0.83492 0.0
H858 H 0.30689 0.4763 0.84101 0.0
H859 H 0.32045 0.4572 0.85664 0.0
C860 C 0.3502 0.53559 0.85229 0.0
C861 C 0.33548 0.53318 0.86917 0.0
C862 C 0.36569 0.51894 0.84352 0.0
C863 C 0.36686 0.49953 0.8514 0.0
C864 C 0.35277 0.49707 0.86834 0.0
H865 H 0.47621 0.38839 0.81356 0.0
H866 H 0.44839 0.41472 0.8323 0.0
C867 C 0.33707 0.51373 0.87713 0.0
C868 C 0.38361 0.48208 0.84188 0.0
H869 H 0.36409 0.43482 0.82455 0.0
C870 C 0.42085 0.48396 0.83624 0.0
C871 C 0.36278 0.46415 0.83767 0.0
C872 C 0.3222 0.46166 0.84272 0.0
C873 C 0.43775 0.46844 0.82641 0.0
C874 C 0.41689 0.45065 0.82217 0.0
C875 C 0.37991 0.44853 0.82798 0.0
C876 C 0.4327 0.43453 0.81095 0.0
C877 C 0.47765 0.47115 0.8204 0.0
C878 C 0.43272 0.43706 0.79283 0.0
C879 C 0.44841 0.42212 0.78212 0.0
C880 C 0.46445 0.40442 0.7894 0.0
C881 C 0.46422 0.40191 0.8076 0.0
C882 C 0.44827 0.41684 0.8183 0.0
H883 H 0.49123 0.48498 0.82618 0.0
H884 H 0.49426 0.4574 0.82388 0.0
H885 H 0.47818 0.47265 0.80599 0.0
H886 H 0.4208 0.45069 0.78701 0.0
H887 H 0.44834 0.42454 0.76816 0.0
H888 H 0.61134 0.52669 0.6274 0.0
H889 H 0.58928 0.49955 0.64699 0.0
H890 H 0.69913 0.49601 0.67005 0.0
H891 H 0.72147 0.52313 0.65047 0.0
H892 H 0.61432 0.45935 0.65139 0.0
H893 H 0.63099 0.50488 0.71221 0.0
H894 H 0.63257 0.51646 0.69086 0.0
H895 H 0.67255 0.50306 0.69919 0.0
C896 C 0.63092 0.51999 0.63651 0.0
C897 C 0.66812 0.52712 0.63744 0.0
C898 C 0.61822 0.50456 0.64774 0.0
C899 C 0.64241 0.49603 0.66015 0.0
C900 C 0.67979 0.50273 0.66083 0.0
H901 H 0.60719 0.38924 0.72661 0.0
H902 H 0.634 0.41544 0.70734 0.0
C903 C 0.69251 0.5182 0.64963 0.0
C904 C 0.62838 0.48008 0.67232 0.0
H905 H 0.61334 0.46989 0.71543 0.0
C906 C 0.61416 0.46164 0.66538 0.0
C907 C 0.62798 0.4832 0.69057 0.0
C908 C 0.64152 0.50303 0.69869 0.0
C909 C 0.59976 0.44617 0.67626 0.0
C910 C 0.59965 0.44926 0.69445 0.0
C911 C 0.61379 0.46763 0.70143 0.0
C912 C 0.58382 0.43372 0.70638 0.0
C913 C 0.58426 0.42667 0.66834 0.0
C914 C 0.54687 0.43552 0.71222 0.0
C915 C 0.53149 0.42066 0.72328 0.0
C916 C 0.55295 0.40382 0.72875 0.0
C917 C 0.59007 0.40214 0.72285 0.0
C918 C 0.6054 0.41701 0.71178 0.0
H919 H 0.58526 0.4269 0.65388 0.0
H920 H 0.60053 0.41333 0.6731 0.0
H921 H 0.5548 0.42435 0.67254 0.0
H922 H 0.52989 0.44836 0.70812 0.0
H923 H 0.50284 0.42243 0.72759 0.0
H924 H 0.83918 0.9534 0.17209 0.0
H925 H 0.8646 0.98287 0.18796 0.0
H926 H 0.84367 0.02185 0.14369 0.0
H927 H 0.81688 0.99252 0.12779 0.0
H928 H 0.92138 0.02297 0.16152 0.0
H929 H 0.79852 0.03437 0.2048 0.0
H930 H 0.81387 0.00832 0.20177 0.0
H931 H 0.79487 0.02223 0.18368 0.0
C932 C 0.8394 0.96827 0.16577 0.0
C933 C 0.82556 0.97062 0.14872 0.0
C934 C 0.85416 0.98505 0.17484 0.0
C935 C 0.8556 0.00447 0.16702 0.0
C936 C 0.84261 0.00692 0.14991 0.0
H937 H 0.9066 0.11728 0.22403 0.0
H938 H 0.87761 0.09128 0.20521 0.0
C939 C 0.82753 0.99013 0.14084 0.0
C940 C 0.87101 0.02212 0.17682 0.0
H941 H 0.85389 0.05279 0.2119 0.0
C942 C 0.9066 0.02966 0.17244 0.0
C943 C 0.85135 0.03086 0.1909 0.0
C944 C 0.81239 0.0237 0.19558 0.0
C945 C 0.92363 0.04544 0.18217 0.0
C946 C 0.90469 0.05355 0.19681 0.0
C947 C 0.86852 0.04642 0.20079 0.0
C948 C 0.92212 0.06921 0.20833 0.0
C949 C 0.96164 0.05328 0.17659 0.0
C950 C 0.9563 0.06525 0.21664 0.0
C951 C 0.97298 0.08009 0.22731 0.0
C952 C 0.95539 0.09903 0.23012 0.0
C953 C 0.92067 0.10277 0.22217 0.0
C954 C 0.90417 0.08798 0.21137 0.0
H955 H 0.96679 0.05026 0.16256 0.0
H956 H 0.96464 0.07003 0.179 0.0
H957 H 0.98356 0.04521 0.18414 0.0
H958 H 0.97006 0.05063 0.21494 0.0
H959 H 0.99947 0.07665 0.23348 0.0
H960 H 0.78096 0.02415 0.65955 0.0
H961 H 0.80712 0.9958 0.67648 0.0
H962 H 0.9185 0.01442 0.6611 0.0
H963 H 0.89216 0.04218 0.6435 0.0
H964 H 0.91358 0.9748 0.66037 0.0
H965 H 0.85446 1.0006 0.72312 0.0
H966 H 0.81839 0.99582 0.70738 0.0
H967 H 0.8522 0.01605 0.70367 0.0
C968 C 0.81101 0.02209 0.65977 0.0
C969 C 0.83463 0.03536 0.65035 0.0
C970 C 0.82597 0.00603 0.66956 0.0
C971 C 0.86488 0.00332 0.67051 0.0
C972 C 0.88841 0.01628 0.6607 0.0
H973 H 0.97082 0.92907 0.75108 0.0
H974 H 0.94546 0.95722 0.73348 0.0
C975 C 0.8734 0.03209 0.65063 0.0
C976 C 0.88108 0.98691 0.68159 0.0
H977 H 0.87985 0.96679 0.72267 0.0
C978 C 0.90639 0.97315 0.67403 0.0
C979 C 0.87242 0.98498 0.69952 0.0
C980 C 0.84822 1.0003 0.70894 0.0
C981 C 0.9228 0.95737 0.68379 0.0
C982 C 0.91231 0.95466 0.70145 0.0
C983 C 0.88749 0.96863 0.70908 0.0
C984 C 0.927 0.93759 0.71227 0.0
C985 C 0.95197 0.9442 0.67513 0.0
C986 C 0.92433 0.91717 0.70644 0.0
C987 C 0.9397 0.90127 0.71624 0.0
C988 C 0.95669 0.90542 0.73235 0.0
C989 C 0.95776 0.92562 0.73866 0.0
C990 C 0.94332 0.94163 0.72862 0.0
H991 H 0.96571 0.95245 0.66416 0.0
H992 H 0.97392 0.93939 0.6845 0.0
H993 H 0.93829 0.93024 0.66968 0.0
H994 H 0.91054 0.91351 0.69426 0.0
H995 H 0.93806 0.88569 0.7113 0.0
H996 H 0.61914 0.46941 0.13227 0.0
H997 H 0.59329 0.49938 0.1471 0.0
H998 H 0.69167 0.50319 0.17956 0.0
H999 H 0.71834 0.47378 0.16438 0.0
H1000 H 0.57607 0.5027 0.18158 0.0
H1001 H 0.68064 0.56229 0.16362 0.0
H1002 H 0.67749 0.53782 0.15261 0.0
H1003 H 0.70142 0.53995 0.17318 0.0
C1004 C 0.63564 0.47688 0.14232 0.0
C1005 C 0.67087 0.46919 0.14712 0.0
C1006 C 0.6207 0.49392 0.15086 0.0
C1007 C 0.64075 0.5037 0.16429 0.0
C1008 C 0.67601 0.49617 0.16901 0.0
H1009 H 0.55834 0.57674 0.24935 0.0
H1010 H 0.58414 0.55042 0.23014 0.0
C1011 C 0.691 0.47916 0.16047 0.0
C1012 C 0.62391 0.52098 0.17406 0.0
H1013 H 0.63949 0.57048 0.18719 0.0
C1014 C 0.58978 0.51757 0.18268 0.0
C1015 C 0.64156 0.54048 0.17531 0.0
C1016 C 0.67711 0.54546 0.16554 0.0
C1017 C 0.57349 0.5329 0.19298 0.0
C1018 C 0.59212 0.55201 0.19493 0.0
C1019 C 0.62555 0.5557 0.18585 0.0
C1020 C 0.5775 0.56823 0.20656 0.0
C1021 C 0.5364 0.52854 0.20167 0.0
C1022 C 0.56613 0.58716 0.1997 0.0
C1023 C 0.55149 0.60226 0.21065 0.0
C1024 C 0.54831 0.59874 0.22867 0.0
C1025 C 0.56049 0.57992 0.23553 0.0
C1026 C 0.57497 0.56482 0.22457 0.0
H1027 H 0.52141 0.51546 0.19542 0.0
H1028 H 0.5413 0.52454 0.21554 0.0
H1029 H 0.51814 0.54226 0.20127 0.0
H1030 H 0.56808 0.59011 0.18584 0.0
H1031 H 0.54253 0.61666 0.205 0.0
H1032 H 0.32262 0.48997 0.39041 0.0
H1033 H 0.3469 0.51996 0.37454 0.0
H1034 H 0.37574 0.48105 0.3312 0.0
H1035 H 0.35195 0.4511 0.34694 0.0
H1036 H 0.419 0.52757 0.36078 0.0
H1037 H 0.31117 0.5259 0.30881 0.0
H1038 H 0.30606 0.51189 0.32899 0.0
H1039 H 0.33436 0.50176 0.31169 0.0
C1040 C 0.33436 0.48781 0.37754 0.0
C1041 C 0.33496 0.46819 0.36984 0.0
C1042 C 0.34805 0.50495 0.36848 0.0
C1043 C 0.36239 0.50275 0.35157 0.0
C1044 C 0.3639 0.48315 0.34406 0.0
H1045 H 0.50724 0.57933 0.28976 0.0
H1046 H 0.47884 0.55357 0.30887 0.0
C1047 C 0.35026 0.46605 0.35307 0.0
C1048 C 0.37632 0.52084 0.34175 0.0
H1049 H 0.36516 0.54685 0.3035 0.0
C1050 C 0.40706 0.53193 0.34833 0.0
C1051 C 0.36028 0.52668 0.32565 0.0
C1052 C 0.32591 0.51608 0.31843 0.0
C1053 C 0.42315 0.54822 0.33888 0.0
C1054 C 0.40839 0.55329 0.32234 0.0
C1055 C 0.37672 0.54274 0.31609 0.0
C1056 C 0.42584 0.5692 0.31112 0.0
C1057 C 0.45578 0.55987 0.34669 0.0
C1058 C 0.40523 0.58634 0.3058 0.0
C1059 C 0.4214 0.60111 0.29489 0.0
C1060 C 0.45827 0.59883 0.28885 0.0
C1061 C 0.47883 0.58161 0.29421 0.0
C1062 C 0.46269 0.5669 0.30519 0.0
H1063 H 0.45683 0.55808 0.36108 0.0
H1064 H 0.48224 0.5538 0.34126 0.0
H1065 H 0.45431 0.57649 0.34353 0.0
H1066 H 0.37671 0.58837 0.31021 0.0
H1067 H 0.40511 0.61441 0.29136 0.0
H1068 H 0.12363 0.03256 0.88016 0.0
H1069 H 0.0983 0.00339 0.86353 0.0
H1070 H 0.20691 0.99311 0.84097 0.0
H1071 H 0.23253 0.02221 0.85756 0.0
H1072 H 0.11313 0.00177 0.8217 0.0
H1073 H 0.15826 0.93517 0.86196 0.0
H1074 H 0.14851 0.95987 0.87166 0.0
H1075 H 0.18975 0.95664 0.85874 0.0
C1076 C 0.14226 0.02387 0.87189 0.0
C1077 C 0.18004 0.02971 0.8701 0.0
C1078 C 0.12773 0.00729 0.86237 0.0
C1079 C 0.15083 0.99615 0.85111 0.0
C1080 C 0.18875 0.00152 0.84967 0.0
H1081 H 0.10596 0.88742 0.78785 0.0
H1082 H 0.13563 0.91482 0.80489 0.0
C1083 C 0.20324 0.01819 0.85907 0.0
C1084 C 0.13479 0.97981 0.83994 0.0
H1085 H 0.12524 0.92783 0.83612 0.0
C1086 C 0.11566 0.98558 0.8248 0.0
C1087 C 0.13889 0.9588 0.84393 0.0
C1088 C 0.15987 0.95206 0.85996 0.0
C1089 C 0.1005 0.97082 0.81342 0.0
C1090 C 0.10327 0.94967 0.81769 0.0
C1091 C 0.12285 0.94397 0.83283 0.0
C1092 C 0.08564 0.93329 0.80681 0.0
C1093 C 0.08271 0.97815 0.79671 0.0
C1094 C 0.04767 0.93439 0.80221 0.0
C1095 C 0.03127 0.91925 0.79175 0.0
C1096 C 0.05189 0.90212 0.78632 0.0
C1097 C 0.08957 0.90066 0.7914 0.0
C1098 C 0.10639 0.91619 0.80138 0.0
H1099 H 0.09455 0.99322 0.79258 0.0
H1100 H 0.08663 0.96698 0.78595 0.0
H1101 H 0.05228 0.98029 0.79884 0.0
H1102 H 0.03057 0.94697 0.80669 0.0
H1103 H 0.0024 0.92108 0.78787 0.0
H1104 H 0.22797 0.13836 0.01562 0.0
H1105 H 0.21177 0.14275 0.04644 0.0
H1106 H 0.1029 0.11615 0.03684 0.0
H1107 H 0.11835 0.11211 1.006 0.0
H1108 H 0.13142 0.16186 0.06234 0.0
H1109 H 0.17148 0.08066 0.07529 0.0
H1110 H 0.19331 0.09562 0.05822 0.0
H1111 H 0.14617 0.08656 0.05561 0.0
C1112 C 0.20031 0.13382 0.01998 0.0
C1113 C 0.17458 0.1247 1.00836 0.0
C1114 C 0.19116 0.13632 0.03759 0.0
C1115 C 0.15619 0.12975 0.04383 0.0
C1116 C 0.13003 0.12129 0.03221 0.0
H1117 H 0.0754 0.10004 0.14665 0.0
H1118 H 0.07985 0.10607 0.11518 0.0
C1119 C 0.13908 0.11883 0.01464 0.0
C1120 C 0.1479 0.13015 0.06268 0.0
H1121 H 0.14627 0.09933 0.09858 0.0
C1122 C 0.13469 0.14826 0.07035 0.0
C1123 C 0.15211 0.11233 0.07295 0.0
C1124 C 0.16666 0.09263 0.06524 0.0
C1125 C 0.12511 0.1489 0.08812 0.0
C1126 C 0.12935 0.13103 0.09842 0.0
C1127 C 0.14274 0.11298 0.09066 0.0
C1128 C 0.12103 0.13052 0.11737 0.0
C1129 C 0.10983 0.16852 0.09564 0.0
C1130 C 0.14175 0.14272 0.12907 0.0
C1131 C 0.1389 0.13939 0.14705 0.0
C1132 C 0.11538 0.1238 0.15352 0.0
C1133 C 0.09318 0.11238 0.1419 0.0
C1134 C 0.09591 0.11574 0.12397 0.0
H1135 H 0.09886 0.17881 0.08531 0.0
H1136 H 0.08712 0.16525 0.10513 0.0
H1137 H 0.1326 0.17684 0.10258 0.0
H1138 H 0.16189 0.15389 0.1243 0.0
H1139 H 0.15686 0.14803 0.15581 0.0
H1140 H 0.31367 0.40915 0.51922 0.0
H1141 H 0.33053 0.40371 0.54976 0.0
H1142 H 0.36422 0.34183 0.53789 0.0
H1143 H 0.34773 0.34722 0.50717 0.0
H1144 H 0.30207 0.37046 0.57286 0.0
H1145 H 0.45657 0.37073 0.56309 0.0
H1146 H 0.42494 0.38204 0.54749 0.0
H1147 H 0.42828 0.35465 0.54912 0.0
C1148 C 0.32486 0.39442 0.52308 0.0
C1149 C 0.3296 0.37865 0.51078 0.0
C1150 C 0.33428 0.3913 0.54053 0.0
C1151 C 0.34891 0.37245 0.546 0.0
C1152 C 0.35327 0.35655 0.53385 0.0
H1153 H 0.37309 0.34941 0.65861 0.0
H1154 H 0.36673 0.34175 0.62733 0.0
C1155 C 0.34359 0.35961 0.51637 0.0
C1156 C 0.35943 0.36964 0.5645 0.0
H1157 H 0.43471 0.36819 0.59194 0.0
C1158 C 0.33101 0.36962 0.57707 0.0
C1159 C 0.39725 0.36871 0.56984 0.0
C1160 C 0.42872 0.36912 0.55676 0.0
C1161 C 0.33943 0.36927 0.59492 0.0
C1162 C 0.3773 0.36878 0.60031 0.0
C1163 C 0.40573 0.36829 0.58773 0.0
C1164 C 0.38762 0.37141 0.61888 0.0
C1165 C 0.30786 0.37048 0.60792 0.0
C1166 C 0.40306 0.3902 0.62436 0.0
C1167 C 0.40657 0.39457 0.64209 0.0
C1168 C 0.39511 0.38012 0.65462 0.0
C1169 C 0.38235 0.3607 0.64915 0.0
C1170 C 0.3785 0.35639 0.63135 0.0
H1171 H 0.28053 0.37358 0.60157 0.0
H1172 H 0.30554 0.35569 0.61504 0.0
H1173 H 0.31357 0.38276 0.61764 0.0
H1174 H 0.41028 0.40198 0.61494 0.0
H1175 H 0.41644 0.40965 0.64605 0.0
H1176 H 0.6562 0.34929 0.01211 0.0
H1177 H 0.63975 0.34362 0.98139 0.0
H1178 H 0.69485 0.40043 0.96748 0.0
H1179 H 0.71117 0.40629 0.99821 0.0
H1180 H 0.60205 0.38292 0.95749 0.0
H1181 H 0.73259 0.34344 0.93686 0.0
H1182 H 0.71495 0.34062 0.95879 0.0
H1183 H 0.7344 0.36473 0.95194 0.0
C1184 C 0.66509 0.36045 1.00246 0.0
C1185 C 0.68495 0.37822 1.00748 0.0
C1186 C 0.65557 0.35725 0.98499 0.0
C1187 C 0.66616 0.37162 0.97228 0.0
C1188 C 0.68642 0.38923 0.97718 0.0
H1189 H 0.64555 0.35815 0.85935 0.0
H1190 H 0.66468 0.36948 0.88843 0.0
C1191 C 0.69563 0.39255 0.99468 0.0
C1192 C 0.65528 0.36836 0.9539 0.0
H1193 H 0.68461 0.34643 0.916 0.0
C1194 C 0.62006 0.37503 0.94835 0.0
C1195 C 0.67917 0.35835 0.94207 0.0
C1196 C 0.71748 0.3513 0.94757 0.0
C1197 C 0.60774 0.37161 0.9312 0.0
C1198 C 0.63096 0.36075 0.91948 0.0
C1199 C 0.6667 0.35462 0.92499 0.0
C1200 C 0.6182 0.35487 0.90172 0.0
C1201 C 0.57015 0.37985 0.92578 0.0
C1202 C 0.58576 0.34285 0.89949 0.0
C1203 C 0.57443 0.3366 0.88287 0.0
C1204 C 0.59561 0.34195 0.86808 0.0
C1205 C 0.62818 0.354 0.87037 0.0
C1206 C 0.63935 0.36036 0.88702 0.0
H1207 H 0.56188 0.39313 0.93398 0.0
H1208 H 0.57025 0.38474 0.91192 0.0
H1209 H 0.54859 0.36765 0.92744 0.0
H1210 H 0.56942 0.33801 0.91065 0.0
H1211 H 0.549 0.32756 0.88164 0.0
H1212 H 0.88966 0.11395 0.51133 0.0
H1213 H 0.90494 0.11941 0.48061 0.0
H1214 H 0.79159 0.13847 0.47075 0.0
H1215 H 0.77621 0.13324 0.50152 0.0
H1216 H 0.87681 0.1021 0.45088 0.0
H1217 H 0.85152 0.18603 0.45101 0.0
H1218 H 0.85415 0.17119 0.47081 0.0
H1219 H 0.81184 0.17117 0.45808 0.0
C1220 C 0.86793 0.11924 0.50261 0.0
C1221 C 0.83175 0.12327 0.50888 0.0
C1222 C 0.87673 0.12237 0.48506 0.0
C1223 C 0.84958 0.12962 0.4734 0.0
C1224 C 0.81325 0.13333 0.47956 0.0
H1225 H 0.85956 0.13039 0.35984 0.0
H1226 H 0.85136 0.11982 0.39032 0.0
C1227 C 0.80448 0.13034 0.49715 0.0
C1228 C 0.85942 0.13335 0.45485 0.0
H1229 H 0.86146 0.17049 0.42349 0.0
C1230 C 0.87362 0.11707 0.44488 0.0
C1231 C 0.85575 0.15295 0.44711 0.0
C1232 C 0.84284 0.17139 0.45733 0.0
C1233 C 0.88379 0.1198 0.42733 0.0
C1234 C 0.87898 0.13926 0.41944 0.0
C1235 C 0.86507 0.15554 0.42949 0.0
C1236 C 0.88816 0.14337 0.40085 0.0
C1237 C 0.90025 0.10194 0.41753 0.0
C1238 C 0.91181 0.15995 0.39654 0.0
C1239 C 0.91603 0.16611 0.37922 0.0
C1240 C 0.89702 0.15568 0.36584 0.0
C1241 C 0.87502 0.13839 0.36995 0.0
C1242 C 0.8704 0.13236 0.38736 0.0
H1243 H 0.91238 0.09041 0.42654 0.0
H1244 H 0.87783 0.0942 0.4099 0.0
H1245 H 0.92238 0.10715 0.40836 0.0
H1246 H 0.92581 0.16869 0.40668 0.0
H1247 H 0.93285 0.17961 0.37633 0.0
H1248 H 0.85562 0.85663 0.01203 0.0
H1249 H 0.87688 0.8542 0.98168 0.0
H1250 H 0.80699 0.90553 0.96805 0.0
H1251 H 0.78723 0.90855 0.99846 0.0
H1252 H 0.84517 0.84805 0.95067 0.0
H1253 H 0.90675 0.92627 0.95219 0.0
H1254 H 0.88948 0.91368 0.97152 0.0
H1255 H 0.85772 0.92661 0.95702 0.0
C1256 C 0.8447 0.86725 1.00246 0.0
C1257 C 0.82027 0.88294 1.00749 0.0
C1258 C 0.85681 0.86587 0.98517 0.0
C1259 C 0.84434 0.88005 0.97269 0.0
C1260 C 0.818 0.89488 0.97756 0.0
H1261 H 0.86467 0.87324 0.86033 0.0
H1262 H 0.84605 0.86846 0.89075 0.0
C1263 C 0.80651 0.89651 0.99487 0.0
C1264 C 0.85974 0.87988 0.95474 0.0
H1265 H 0.90057 0.91078 0.9242 0.0
C1266 C 0.85758 0.86171 0.9449 0.0
C1267 C 0.8768 0.89754 0.94736 0.0
C1268 C 0.88323 0.91704 0.95764 0.0
C1269 C 0.87101 0.86092 0.92771 0.0
C1270 C 0.8859 0.87898 0.91998 0.0
C1271 C 0.88885 0.89696 0.93001 0.0
C1272 C 0.89828 0.87991 0.90152 0.0
C1273 C 0.86965 0.84066 0.91817 0.0
C1274 C 0.93357 0.88825 0.89736 0.0
C1275 C 0.94379 0.89148 0.88002 0.0
C1276 C 0.91911 0.8862 0.86648 0.0
C1277 C 0.88433 0.87723 0.87056 0.0
C1278 C 0.87381 0.87435 0.88794 0.0
H1279 H 0.87007 0.82751 0.9274 0.0
H1280 H 0.84323 0.8396 0.91061 0.0
H1281 H 0.89353 0.83912 0.90903 0.0
H1282 H 0.95294 0.89268 0.90758 0.0
H1283 H 0.97087 0.89829 0.87718 0.0
H1284 H 0.66684 0.6659 0.50712 0.0
H1285 H 0.64735 0.66646 0.47642 0.0
H1286 H 0.68379 0.60388 0.47044 0.0
H1287 H 0.70367 0.60326 0.50093 0.0
H1288 H 0.70888 0.63425 0.44373 0.0
H1289 H 0.55515 0.6325 0.45581 0.0
H1290 H 0.58346 0.65074 0.46773 0.0
H1291 H 0.58839 0.6238 0.47189 0.0
C1292 C 0.67089 0.65232 0.49921 0.0
C1293 C 0.68665 0.6345 0.50644 0.0
C1294 C 0.65952 0.65262 0.48175 0.0
C1295 C 0.66391 0.63515 0.47127 0.0
C1296 C 0.68005 0.61748 0.47838 0.0
H1297 H 0.5734 0.58757 0.37733 0.0
H1298 H 0.5901 0.59752 0.40694 0.0
C1299 C 0.69118 0.61711 0.49581 0.0
C1300 C 0.65204 0.63509 0.45281 0.0
H1301 H 0.57503 0.63116 0.42666 0.0
C1302 C 0.67965 0.63381 0.43991 0.0
C1303 C 0.61389 0.63445 0.44801 0.0
C1304 C 0.58331 0.63534 0.46151 0.0
C1305 C 0.67015 0.63123 0.42229 0.0
C1306 C 0.6319 0.63014 0.41747 0.0
C1307 C 0.60429 0.63206 0.43037 0.0
C1308 C 0.62007 0.62512 0.3994 0.0
C1309 C 0.70119 0.6287 0.40916 0.0
C1310 C 0.63075 0.63753 0.38528 0.0
C1311 C 0.62214 0.63158 0.36821 0.0
C1312 C 0.60194 0.61328 0.36492 0.0
C1313 C 0.58979 0.60145 0.37923 0.0
C1314 C 0.59891 0.60726 0.39623 0.0
H1315 H 0.72844 0.6254 0.41551 0.0
H1316 H 0.6946 0.61609 0.39989 0.0
H1317 H 0.70448 0.64314 0.40162 0.0
H1318 H 0.64637 0.65164 0.38742 0.0
H1319 H 0.6323 0.64108 0.35763 0.0
H1320 H 0.38439 0.60615 1.00843 0.0
H1321 H 0.39975 0.61039 0.03915 0.0
H1322 H 0.299 0.64528 0.04668 0.0
H1323 H 0.28208 0.63996 0.01616 0.0
H1324 H 0.41462 0.64311 0.05773 0.0
H1325 H 0.28962 0.60518 0.08596 0.0
H1326 H 0.30062 0.60369 0.06307 0.0
H1327 H 0.27721 0.62587 0.07171 0.0
C1328 C 0.365 0.61438 0.01665 0.0
C1329 C 0.33164 0.62244 0.00977 0.0
C1330 C 0.37407 0.61696 0.03423 0.0
C1331 C 0.35018 0.62776 0.04539 0.0
C1332 C 0.31739 0.63636 0.03849 0.0
H1333 H 0.40206 0.68842 0.14107 0.0
H1334 H 0.39637 0.67691 0.11097 0.0
C1335 C 0.30806 0.6336 0.02091 0.0
C1336 C 0.36031 0.63058 0.06406 0.0
H1337 H 0.32668 0.62565 0.10552 0.0
C1338 C 0.3955 0.63908 0.06817 0.0
C1339 C 0.33583 0.6249 0.07778 0.0
C1340 C 0.2989 0.61419 0.07443 0.0
C1341 C 0.40623 0.64282 0.0855 0.0
C1342 C 0.38071 0.63847 0.09912 0.0
C1343 C 0.34615 0.62919 0.09509 0.0
C1344 C 0.38802 0.64483 0.11744 0.0
C1345 C 0.44489 0.65136 0.089 0.0
C1346 C 0.38513 0.63067 0.13123 0.0
C1347 C 0.38799 0.6373 0.14858 0.0
C1348 C 0.39333 0.65825 0.1524 0.0
C1349 C 0.39767 0.6722 0.13854 0.0
C1350 C 0.3948 0.6656 0.1213 0.0
H1351 H 0.46478 0.64687 0.07858 0.0
H1352 H 0.44373 0.66839 0.08921 0.0
H1353 H 0.45595 0.64598 0.10171 0.0
H1354 H 0.3797 0.61457 0.12858 0.0
H1355 H 0.3842 0.62623 0.15898 0.0
H1356 H 0.19764 0.90112 0.51581 0.0
H1357 H 0.17959 0.89975 0.54662 0.0
H1358 H 0.15735 0.83483 0.54197 0.0
H1359 H 0.17461 0.83603 0.51114 0.0
H1360 H 0.09887 0.87034 0.56036 0.0
H1361 H 0.24432 0.85868 0.58459 0.0
H1362 H 0.23503 0.87512 0.56615 0.0
H1363 H 0.22984 0.84785 0.56397 0.0
C1364 C 0.18851 0.88658 0.52128 0.0
C1365 C 0.18771 0.86866 0.51098 0.0
C1366 C 0.17837 0.88584 0.53889 0.0
C1367 C 0.16722 0.8672 0.54649 0.0
C1368 C 0.16596 0.84935 0.53628 0.0
H1369 H 0.08499 0.8139 0.63963 0.0
H1370 H 0.09573 0.82679 0.61012 0.0
C1371 C 0.17612 0.85005 0.51871 0.0
C1372 C 0.1576 0.86607 0.56521 0.0
H1373 H 0.19555 0.85601 0.6051 0.0
C1374 C 0.11997 0.86744 0.5702 0.0
C1375 C 0.18527 0.86248 0.57796 0.0
C1376 C 0.226 0.86094 0.57306 0.0
C1377 C 0.10917 0.86465 0.58766 0.0
C1378 C 0.13668 0.86006 0.60032 0.0
C1379 C 0.17449 0.85955 0.59539 0.0
C1380 C 0.12666 0.85381 0.61834 0.0
C1381 C 0.06837 0.8664 0.59238 0.0
C1382 C 0.14038 0.86476 0.63282 0.0
C1383 C 0.13412 0.85743 0.64976 0.0
C1384 C 0.11473 0.83882 0.65243 0.0
C1385 C 0.10021 0.82822 0.63793 0.0
C1386 C 0.10607 0.83566 0.62108 0.0
H1387 H 0.05292 0.87581 0.58273 0.0
H1388 H 0.05549 0.85083 0.59256 0.0
H1389 H 0.06494 0.87332 0.6055 0.0
H1390 H 0.15659 0.87873 0.63098 0.0
H1391 H 0.1458 0.86582 0.66071 0.0
H1392 H 0.20602 0.27503 0.39461 0.0
H1393 H 0.1772 0.24897 0.37578 0.0
H1394 H 0.12131 0.29638 0.34676 0.0
H1395 H 0.14887 0.32254 0.36582 0.0
H1396 H 0.09381 0.2436 0.36743 0.0
H1397 H 0.18651 0.26093 0.31096 0.0
H1398 H 0.19914 0.26754 0.33307 0.0
H1399 H 0.16497 0.28243 0.32165 0.0
C1400 C 0.1871 0.27994 0.38443 0.0
C1401 C 0.17996 0.30093 0.38169 0.0
C1402 C 0.17089 0.26502 0.37362 0.0
C1403 C 0.14755 0.27084 0.35982 0.0
C1404 C 0.13968 0.29166 0.35724 0.0
H1405 H 1.00157 0.20087 0.29178 0.0
H1406 H 0.02924 0.22559 0.31213 0.0
C1407 C 0.15562 0.30657 0.3681 0.0
C1408 C 0.13175 0.25515 0.34794 0.0
H1409 H 0.13771 0.23677 0.30638 0.0
C1410 C 0.10338 0.24204 0.3541 0.0
C1411 C 0.14461 0.25315 0.33062 0.0
C1412 C 0.17566 0.26663 0.32361 0.0
C1413 C 0.08701 0.22713 0.34321 0.0
C1414 C 0.09941 0.22539 0.3258 0.0
C1415 C 0.12823 0.23826 0.31974 0.0
C1416 C 0.08264 0.2103 0.31363 0.0
C1417 C 0.05677 0.21323 0.3504 0.0
C1418 C 0.10369 0.19364 0.30769 0.0
C1419 C 0.08788 0.17937 0.29619 0.0
C1420 C 0.05102 0.18177 0.29014 0.0
C1421 C 0.03006 0.19855 0.29614 0.0
C1422 C 0.04577 0.21269 0.30778 0.0
H1423 H 0.05547 0.21385 0.36485 0.0
H1424 H 0.02926 0.21807 0.34516 0.0
H1425 H 0.06142 0.19708 0.34631 0.0
H1426 H 0.1322 0.19155 0.31212 0.0
H1427 H 0.10444 0.16636 0.2922 0.0
H1428 H 0.36042 0.17737 0.8634 0.0
H1429 H 0.38915 0.20331 0.84452 0.0
H1430 H 0.33331 0.25115 0.87296 0.0
H1431 H 0.30317 0.22533 0.89155 0.0
H1432 H 0.34186 0.23822 0.82503 0.0
H1433 H 0.45518 0.26273 0.87068 0.0
H1434 H 0.43483 0.23723 0.87143 0.0
H1435 H 0.40858 0.25873 0.8791 0.0
C1436 C 0.35385 0.19337 0.86558 0.0
C1437 C 0.32927 0.19919 0.87901 0.0
C1438 C 0.37051 0.20816 0.85483 0.0
C1439 C 0.36333 0.22907 0.8574 0.0
C1440 C 0.33928 0.23505 0.87086 0.0
H1441 H 0.41384 0.33711 0.7953 0.0
H1442 H 0.38448 0.31101 0.81385 0.0
C1443 C 0.32233 0.22026 0.88155 0.0
C1444 C 0.38065 0.24462 0.84584 0.0
H1445 H 0.4515 0.28006 0.84375 0.0
C1446 C 0.36577 0.24741 0.82909 0.0
C1447 C 0.4119 0.25644 0.85122 0.0
C1448 C 0.42887 0.25371 0.86906 0.0
C1449 C 0.38131 0.26193 0.81758 0.0
C1450 C 0.41245 0.27383 0.82301 0.0
C1451 C 0.42753 0.27089 0.8397 0.0
C1452 C 0.42981 0.28938 0.81147 0.0
C1453 C 0.36467 0.2644 0.79963 0.0
C1454 C 0.46495 0.28581 0.80401 0.0
C1455 C 0.48139 0.30049 0.79308 0.0
C1456 C 0.46323 0.31914 0.78968 0.0
C1457 C 0.42818 0.32273 0.79736 0.0
C1458 C 0.4115 0.30792 0.80807 0.0
H1459 H 0.3443 0.25195 0.79649 0.0
H1460 H 0.34999 0.27934 0.79886 0.0
H1461 H 0.38707 0.26454 0.78961 0.0
H1462 H 0.47947 0.27156 0.80652 0.0
H1463 H 0.50816 0.29714 0.78717 0.0
H1464 H 0.63924 0.20875 0.62001 0.0
H1465 H 0.61099 0.23496 0.63878 0.0
H1466 H 0.69621 0.22465 0.67752 0.0
H1467 H 0.72476 0.1987 0.65884 0.0
H1468 H 0.58503 0.22901 0.67498 0.0
H1469 H 0.69731 0.28812 0.66844 0.0
H1470 H 0.69119 0.2674 0.653 0.0
H1471 H 0.71284 0.26266 0.67372 0.0
C1472 C 0.65213 0.21224 0.63245 0.0
C1473 C 0.68421 0.20167 0.63795 0.0
C1474 C 0.63586 0.2271 0.64318 0.0
C1475 C 0.65173 0.23182 0.65945 0.0
C1476 C 0.68378 0.22136 0.66493 0.0
H1477 H 0.56165 0.29627 0.74897 0.0
H1478 H 0.58943 0.27123 0.72901 0.0
C1479 C 0.69986 0.20644 0.6543 0.0
C1480 C 0.63456 0.24743 0.67091 0.0
H1481 H 0.65085 0.29414 0.68984 0.0
C1482 C 0.59929 0.2433 0.67819 0.0
C1483 C 0.65321 0.26607 0.67496 0.0
C1484 C 0.69061 0.2715 0.66704 0.0
C1485 C 0.58247 0.2572 0.68972 0.0
C1486 C 0.60157 0.2756 0.69411 0.0
C1487 C 0.63648 0.27991 0.68656 0.0
C1488 C 0.5854 0.29077 0.70629 0.0
C1489 C 0.54429 0.25223 0.69704 0.0
C1490 C 0.57466 0.31013 0.70016 0.0
C1491 C 0.55887 0.32443 0.7115 0.0
C1492 C 0.55396 0.31968 0.72922 0.0
C1493 C 0.56532 0.30039 0.7354 0.0
C1494 C 0.58091 0.28603 0.72401 0.0
H1495 H 0.53029 0.23954 0.68981 0.0
H1496 H 0.54722 0.24748 0.71086 0.0
H1497 H 0.52609 0.26597 0.69666 0.0
H1498 H 0.57808 0.31409 0.68654 0.0
H1499 H 0.55051 0.33921 0.70639 0.0
H1500 H 0.77973 0.30272 0.16063 0.0
H1501 H 0.81059 0.2773 0.17911 0.0
H1502 H 0.89459 0.26832 0.13964 0.0
H1503 H 0.8642 0.29399 0.12115 0.0
H1504 H 0.8269 0.23486 0.17078 0.0
H1505 H 0.95431 0.28155 0.18516 0.0
H1506 H 0.91173 0.29271 0.1769 0.0
H1507 H 0.94217 0.27898 0.16251 0.0
C1508 C 0.80494 0.29546 0.15593 0.0
C1509 C 0.81964 0.30045 0.13946 0.0
C1510 C 0.82238 0.28086 0.16646 0.0
C1511 C 0.85504 0.27111 0.16081 0.0
C1512 C 0.86963 0.27586 0.14431 0.0
H1513 H 0.9633 0.16358 0.20508 0.0
H1514 H 0.93325 0.18844 0.18567 0.0
C1515 C 0.85206 0.29039 0.13371 0.0
C1516 C 0.87364 0.25587 0.17218 0.0
H1517 H 0.95323 0.24739 0.19571 0.0
C1518 C 0.85454 0.23755 0.17621 0.0
C1519 C 0.90953 0.25957 0.17937 0.0
C1520 C 0.93066 0.27932 0.17593 0.0
C1521 C 0.8706 0.22271 0.18713 0.0
C1522 C 0.9067 0.22629 0.1941 0.0
C1523 C 0.92565 0.24468 0.19021 0.0
C1524 C 0.92492 0.21125 0.20576 0.0
C1525 C 0.84871 0.20345 0.1914 0.0
C1526 C 0.93056 0.21601 0.22339 0.0
C1527 C 0.94759 0.20185 0.23449 0.0
C1528 C 0.95957 0.18276 0.2281 0.0
C1529 C 0.95433 0.17816 0.21036 0.0
C1530 C 0.93704 0.19228 0.1993 0.0
H1531 H 0.81886 0.20463 0.18749 0.0
H1532 H 0.86114 0.19024 0.18441 0.0
H1533 H 0.85013 0.20014 0.20558 0.0
H1534 H 0.92152 0.23062 0.22858 0.0
H1535 H 0.95156 0.2059 0.24806 0.0
H1536 H 0.79996 0.68874 0.66831 0.0
H1537 H 0.83236 0.71667 0.68349 0.0
H1538 H 0.89869 0.72882 0.63774 0.0
H1539 H 0.86694 0.70046 0.62243 0.0
H1540 H 0.92708 0.72007 0.68233 0.0
H1541 H 0.83714 0.78451 0.65994 0.0
H1542 H 0.81742 0.75911 0.66295 0.0
H1543 H 0.8494 0.76378 0.64542 0.0
C1544 C 0.82164 0.69721 0.66147 0.0
C1545 C 0.83112 0.69224 0.6442 0.0
C1546 C 0.83991 0.71322 0.67015 0.0
C1547 C 0.86782 0.72466 0.66171 0.0
C1548 C 0.8771 0.72008 0.6444 0.0
H1549 H 0.97255 0.8356 0.70377 0.0
H1550 H 0.95043 0.80861 0.68408 0.0
C1551 C 0.85882 0.70399 0.63568 0.0
C1552 C 0.88753 0.74113 0.67129 0.0
H1553 H 0.88226 0.792 0.68142 0.0
C1554 C 0.91766 0.73587 0.68205 0.0
C1555 C 0.87515 0.76163 0.67071 0.0
C1556 C 0.84301 0.7678 0.65915 0.0
C1557 C 0.93545 0.75063 0.69258 0.0
C1558 C 0.92195 0.77103 0.69266 0.0
C1559 C 0.89246 0.77636 0.68145 0.0
C1560 C 0.93718 0.78695 0.7046 0.0
C1561 C 0.9686 0.7442 0.70342 0.0
C1562 C 0.93715 0.78375 0.72269 0.0
C1563 C 0.9504 0.79902 0.73395 0.0
C1564 C 0.96284 0.81801 0.7274 0.0
C1565 C 0.96297 0.82117 0.70927 0.0
C1566 C 0.95024 0.80578 0.69799 0.0
H1567 H 0.98271 0.73065 0.69768 0.0
H1568 H 0.9894 0.75688 0.70472 0.0
H1569 H 0.95883 0.73981 0.71664 0.0
H1570 H 0.92646 0.76954 0.72815 0.0
H1571 H 0.95081 0.79592 0.74777 0.0
H1572 H 0.64002 0.79109 0.11695 0.0
H1573 H 0.61019 0.765 0.13543 0.0
H1574 H 0.68309 0.78196 0.17794 0.0
H1575 H 0.7136 0.80768 0.15955 0.0
H1576 H 0.64489 0.73119 0.15386 0.0
H1577 H 0.57499 0.78658 0.19793 0.0
H1578 H 0.59272 0.79374 0.17674 0.0
H1579 H 0.62423 0.79108 0.19483 0.0
C1580 C 0.64996 0.78913 0.13017 0.0
C1581 C 0.67898 0.8016 0.13681 0.0
C1582 C 0.63276 0.77431 0.14072 0.0
C1583 C 0.6441 0.77184 0.15809 0.0
C1584 C 0.67348 0.78395 0.16466 0.0
H1585 H 0.60517 0.67082 0.22886 0.0
H1586 H 0.63125 0.69612 0.20883 0.0
C1587 C 0.69078 0.79868 0.15413 0.0
C1588 C 0.62553 0.75648 0.16939 0.0
H1589 H 0.57449 0.7516 0.2067 0.0
C1590 C 0.62926 0.73559 0.16535 0.0
C1591 C 0.60486 0.76237 0.18423 0.0
C1592 C 0.59858 0.78466 0.18867 0.0
C1593 C 0.61352 0.72033 0.17605 0.0
C1594 C 0.5941 0.72619 0.19131 0.0
C1595 C 0.58964 0.74713 0.19508 0.0
C1596 C 0.57834 0.71089 0.20362 0.0
C1597 C 0.61758 0.69812 0.1708 0.0
C1598 C 0.54016 0.7112 0.20784 0.0
C1599 C 0.52535 0.69712 0.21977 0.0
C1600 C 0.54851 0.68247 0.22771 0.0
C1601 C 0.58668 0.68212 0.22332 0.0
C1602 C 0.60155 0.69637 0.21159 0.0
H1603 H 0.62287 0.69656 0.1566 0.0
H1604 H 0.64179 0.69143 0.17779 0.0
H1605 H 0.59217 0.68903 0.17417 0.0
H1606 H 0.52177 0.72232 0.20186 0.0
H1607 H 0.49577 0.69777 0.22275 0.0
H1608 H 0.36793 0.82759 0.35939 0.0
H1609 H 0.3964 0.79919 0.34345 0.0
H1610 H 0.32353 0.75622 0.3698 0.0
H1611 H 0.29425 0.78464 0.38555 0.0
H1612 H 0.43272 0.76322 0.35522 0.0
H1613 H 0.30349 0.74559 0.31748 0.0
H1614 H 0.30961 0.76914 0.32961 0.0
H1615 H 0.29813 0.74568 0.34076 0.0
C1616 C 0.35791 0.81209 0.36179 0.0
C1617 C 0.32853 0.80839 0.37359 0.0
C1618 C 0.37437 0.79588 0.35275 0.0
C1619 C 0.36166 0.77565 0.35524 0.0
C1620 C 0.33333 0.77177 0.36749 0.0
H1621 H 0.46996 0.66612 0.31351 0.0
H1622 H 0.44223 0.69178 0.33282 0.0
C1623 C 0.31689 0.78799 0.3766 0.0
C1624 C 0.37747 0.7588 0.3446 0.0
H1625 H 0.35526 0.72396 0.31287 0.0
C1626 C 0.41579 0.75454 0.34602 0.0
C1627 C 0.35538 0.74775 0.33243 0.0
C1628 C 0.31443 0.75231 0.3298 0.0
C1629 C 0.43262 0.73946 0.33562 0.0
C1630 C 0.4104 0.72821 0.32364 0.0
C1631 C 0.37211 0.7325 0.32219 0.0
C1632 C 0.42666 0.71244 0.31202 0.0
C1633 C 0.4742 0.73604 0.33718 0.0
C1634 C 0.42638 0.71537 0.29391 0.0
C1635 C 0.44217 0.70077 0.28285 0.0
C1636 C 0.45824 0.68284 0.28969 0.0
C1637 C 0.458 0.67981 0.30784 0.0
C1638 C 0.44228 0.69448 0.3189 0.0
H1639 H 0.48846 0.74883 0.34419 0.0
H1640 H 0.47918 0.72164 0.34454 0.0
H1641 H 0.48713 0.73438 0.32411 0.0
H1642 H 0.41439 0.72913 0.28835 0.0
H1643 H 0.44211 0.70364 0.26896 0.0
H1644 H 0.21549 0.72585 0.88907 0.0
H1645 H 0.18657 0.75081 0.86941 0.0
H1646 H 0.12162 0.70222 0.84562 0.0
H1647 H 0.14932 0.67736 0.86554 0.0
H1648 H 0.18871 0.75155 0.83303 0.0
H1649 H 0.04259 0.74499 0.8569 0.0
H1650 H 0.08189 0.73512 0.86897 0.0
H1651 H 0.06292 0.72088 0.85089 0.0
C1652 C 0.19455 0.72055 0.87987 0.0
C1653 C 0.18469 0.69961 0.87891 0.0
C1654 C 0.17831 0.73479 0.86854 0.0
C1655 C 0.15171 0.7284 0.85615 0.0
C1656 C 0.14166 0.70755 0.85524 0.0
H1657 H 0.07771 0.7993 0.76522 0.0
H1658 H 0.10693 0.77355 0.7841 0.0
C1659 C 0.15781 0.69333 0.86654 0.0
C1660 C 0.13508 0.74342 0.8439 0.0
H1661 H 0.05201 0.76386 0.83081 0.0
C1662 C 0.15883 0.7543 0.83255 0.0
C1663 C 0.09613 0.74705 0.84338 0.0
C1664 C 0.06938 0.73655 0.85579 0.0
C1665 C 0.14464 0.76868 0.82064 0.0
C1666 C 0.1056 0.77199 0.81989 0.0
C1667 C 0.0819 0.76114 0.83128 0.0
C1668 C 0.08878 0.78757 0.8082 0.0
C1669 C 0.17161 0.78055 0.80927 0.0
C1670 C 0.06841 0.80375 0.81545 0.0
C1671 C 0.05154 0.81831 0.80476 0.0
C1672 C 0.05457 0.81704 0.78651 0.0
C1673 C 0.07509 0.80082 0.77922 0.0
C1674 C 0.09193 0.78615 0.78999 0.0
H1675 H 0.20078 0.77969 0.81423 0.0
H1676 H 0.17106 0.77401 0.79593 0.0
H1677 H 0.16352 0.79695 0.80841 0.0
H1678 H 0.06559 0.80515 0.82945 0.0
H1679 H 0.03611 0.83059 0.8109 0.0
loop_
_geom_bond_atom_site_label_1
_geom_bond_atom_site_label_2
_geom_bond_distance
_geom_bond_site_symmetry_2
_ccdc_geom_bond_type
C0 C1 1.391 . S
C0 C4 1.391 . S
C0 H42 0.948 . S
C1 C0 1.391 . S
C1 C2 1.391 . S
C2 C1 1.391 . S
C2 H58 0.947 . S
C2 C59 1.392 . S
C3 C4 1.391 . S
C3 C7 1.397 . S
C3 C59 1.419 . S
C4 C0 1.391 . S
C4 C3 1.391 . S
C4 C5 1.399 . S
C5 C4 1.399 . S
C5 C8 1.396 . S
C5 C17 1.453 . S
C5 C18 1.684 . S
H6 C30 0.948 . S
C7 C3 1.397 . S
C7 C8 1.394 . S
C7 C26 1.723 . S
C8 C5 1.396 . S
C8 C7 1.394 . S
C8 C38 1.723 . S
H9 C32 0.947 . S
H10 C33 0.948 . S
H11 C39 0.982 . S
H12 C40 0.979 . S
H13 C40 0.980 . S
H14 C40 0.983 . S
H15 C39 0.979 . S
H16 C39 0.977 . S
C17 C5 1.453 . S
C17 H46 0.982 . S
C17 H47 0.979 . S
C17 H48 0.977 . S
C18 C5 1.684 . S
C18 H43 0.979 . S
C18 H44 0.980 . S
C18 H45 0.983 . S
C19 C20 1.391 . S
C19 C24 1.391 . S
C19 H49 0.948 . S
C20 C19 1.391 . S
C20 C21 1.391 . S
C21 C20 1.391 . S
C21 C22 1.392 . S
C21 H50 0.947 . S
C22 C21 1.392 . S
C22 C23 1.419 . S
C22 H51 0.948 . S
C23 C22 1.419 . S
C23 C24 1.391 . S
C23 C27 1.397 . S
C24 C19 1.391 . S
C24 C23 1.391 . S
C24 C25 1.399 . S
C25 C24 1.399 . S
C25 C26 1.396 . S
C25 C28 1.453 . S
C25 C29 1.684 . S
C26 C7 1.723 . S
C26 C25 1.396 . S
C26 C27 1.394 . S
C27 C23 1.397 . S
C27 C26 1.394 . S
C27 C37 1.723 . S
C28 C25 1.453 . S
C28 H52 0.982 . S
C28 H53 0.979 . S
C28 H54 0.977 . S
C29 C25 1.684 . S
C29 H55 0.979 . S
C29 H56 0.980 . S
C29 H57 0.983 . S
C30 H6 0.948 . S
C30 C31 1.391 . S
C30 C35 1.391 . S
C31 C30 1.391 . S
C31 C32 1.391 . S
C32 H9 0.947 . S
C32 C31 1.391 . S
C32 C33 1.392 . S
C33 H10 0.948 . S
C33 C32 1.392 . S
C33 C34 1.419 . S
C34 C33 1.419 . S
C34 C35 1.391 . S
C34 C38 1.397 . S
C35 C30 1.391 . S
C35 C34 1.391 . S
C35 C36 1.399 . S
C36 C35 1.399 . S
C36 C37 1.396 . S
C36 C39 1.453 . S
C36 C40 1.684 . S
C37 C27 1.723 . S
C37 C36 1.396 . S
C37 C38 1.394 . S
C38 C8 1.723 . S
C38 C34 1.397 . S
C38 C37 1.394 . S
C39 H11 0.982 . S
C39 H15 0.979 . S
C39 H16 0.977 . S
C39 C36 1.453 . S
C40 H12 0.979 . S
C40 H13 0.980 . S
C40 H14 0.983 . S
C40 C36 1.684 . S
H41 C59 0.948 . S
H42 C0 0.948 . S
H43 C18 0.979 . S
H44 C18 0.980 . S
H45 C18 0.983 . S
H46 C17 0.982 . S
H47 C17 0.979 . S
H48 C17 0.977 . S
H49 C19 0.948 . S
H50 C21 0.947 . S
H51 C22 0.948 . S
H52 C28 0.982 . S
H53 C28 0.979 . S
H54 C28 0.977 . S
H55 C29 0.979 . S
H56 C29 0.980 . S
H57 C29 0.983 . S
H58 C2 0.947 . S
C59 C2 1.392 . S
C59 C3 1.419 . S
C59 H41 0.948 . S
C60 C61 1.391 . S
C60 C64 1.391 . S
C60 H102 0.948 . S
C61 C60 1.391 . S
C61 C62 1.391 . S
C62 C61 1.391 . S
C62 H118 0.947 . S
C62 C119 1.392 . S
C63 C64 1.391 . S
C63 C67 1.397 . S
C63 C119 1.419 . S
C64 C60 1.391 . S
C64 C63 1.391 . S
C64 C65 1.399 . S
C65 C64 1.399 . S
C65 C68 1.396 . S
C65 C77 1.453 . S
C65 C78 1.684 . S
H66 C90 0.948 . S
C67 C63 1.397 . S
C67 C68 1.394 . S
C67 C86 1.723 . S
C68 C65 1.396 . S
C68 C67 1.394 . S
C68 C98 1.723 . S
H69 C92 0.947 . S
H70 C93 0.948 . S
H71 C99 0.982 . S
H72 C100 0.979 . S
H73 C100 0.980 . S
H74 C100 0.983 . S
H75 C99 0.979 . S
H76 C99 0.977 . S
C77 C65 1.453 . S
C77 H106 0.982 . S
C77 H107 0.979 . S
C77 H108 0.977 . S
C78 C65 1.684 . S
C78 H103 0.979 . S
C78 H104 0.980 . S
C78 H105 0.983 . S
C79 C80 1.391 . S
C79 C84 1.391 . S
C79 H109 0.948 . S
C80 C79 1.391 . S
C80 C81 1.391 . S
C81 C80 1.391 . S
C81 C82 1.392 . S
C81 H110 0.947 . S
C82 C81 1.392 . S
C82 C83 1.419 . S
C82 H111 0.948 . S
C83 C82 1.419 . S
C83 C84 1.391 . S
C83 C87 1.397 . S
C84 C79 1.391 . S
C84 C83 1.391 . S
C84 C85 1.399 . S
C85 C84 1.399 . S
C85 C86 1.396 . S
C85 C88 1.453 . S
C85 C89 1.684 . S
C86 C67 1.723 . S
C86 C85 1.396 . S
C86 C87 1.394 . S
C87 C83 1.397 . S
C87 C86 1.394 . S
C87 C97 1.723 . S
C88 C85 1.453 . S
C88 H112 0.982 . S
C88 H113 0.979 . S
C88 H114 0.977 . S
C89 C85 1.684 . S
C89 H115 0.979 . S
C89 H116 0.980 . S
C89 H117 0.983 . S
C90 H66 0.948 . S
C90 C91 1.391 . S
C90 C95 1.391 . S
C91 C90 1.391 . S
C91 C92 1.391 . S
C92 H69 0.947 . S
C92 C91 1.391 . S
C92 C93 1.392 . S
C93 H70 0.948 . S
C93 C92 1.392 . S
C93 C94 1.419 . S
C94 C93 1.419 . S
C94 C95 1.391 . S
C94 C98 1.397 . S
C95 C90 1.391 . S
C95 C94 1.391 . S
C95 C96 1.399 . S
C96 C95 1.399 . S
C96 C97 1.396 . S
C96 C99 1.453 . S
C96 C100 1.684 . S
C97 C87 1.723 . S
C97 C96 1.396 . S
C97 C98 1.394 . S
C98 C68 1.723 . S
C98 C94 1.397 . S
C98 C97 1.394 . S
C99 H71 0.982 . S
C99 H75 0.979 . S
C99 H76 0.977 . S
C99 C96 1.453 . S
C100 H72 0.979 . S
C100 H73 0.980 . S
C100 H74 0.983 . S
C100 C96 1.684 . S
H101 C119 0.948 . S
H102 C60 0.948 . S
H103 C78 0.979 . S
H104 C78 0.980 . S
H105 C78 0.983 . S
H106 C77 0.982 . S
H107 C77 0.979 . S
H108 C77 0.977 . S
H109 C79 0.948 . S
H110 C81 0.947 . S
H111 C82 0.948 . S
H112 C88 0.982 . S
H113 C88 0.979 . S
H114 C88 0.977 . S
H115 C89 0.979 . S
H116 C89 0.980 . S
H117 C89 0.983 . S
H118 C62 0.947 . S
C119 C62 1.392 . S
C119 C63 1.419 . S
C119 H101 0.948 . S
C120 C121 1.391 . S
C120 C124 1.391 . S
C120 H162 0.948 . S
C121 C120 1.391 . S
C121 C122 1.391 . S
C122 C121 1.391 . S
C122 H178 0.947 . S
C122 C179 1.392 . S
C123 C124 1.391 . S
C123 C127 1.397 . S
C123 C179 1.419 . S
C124 C120 1.391 . S
C124 C123 1.391 . S
C124 C125 1.399 . S
C125 C124 1.399 . S
C125 C128 1.396 . S
C125 C137 1.453 . S
C125 C138 1.684 . S
H126 C150 0.948 . S
C127 C123 1.397 . S
C127 C128 1.394 . S
C127 C146 1.723 . S
C128 C125 1.396 . S
C128 C127 1.394 . S
C128 C158 1.723 . S
H129 C152 0.947 . S
H130 C153 0.948 . S
H131 C159 0.982 . S
H132 C160 0.979 . S
H133 C160 0.980 . S
H134 C160 0.983 . S
H135 C159 0.979 . S
H136 C159 0.977 . S
C137 C125 1.453 . S
C137 H166 0.982 . S
C137 H167 0.979 . S
C137 H168 0.977 . S
C138 C125 1.684 . S
C138 H163 0.979 . S
C138 H164 0.980 . S
C138 H165 0.983 . S
C139 C140 1.391 . S
C139 C144 1.391 . S
C139 H169 0.948 . S
C140 C139 1.391 . S
C140 C141 1.391 . S
C141 C140 1.391 . S
C141 C142 1.392 . S
C141 H170 0.947 . S
C142 C141 1.392 . S
C142 C143 1.419 . S
C142 H171 0.948 . S
C143 C142 1.419 . S
C143 C144 1.391 . S
C143 C147 1.397 . S
C144 C139 1.391 . S
C144 C143 1.391 . S
C144 C145 1.399 . S
C145 C144 1.399 . S
C145 C146 1.396 . S
C145 C148 1.453 . S
C145 C149 1.684 . S
C146 C127 1.723 . S
C146 C145 1.396 . S
C146 C147 1.394 . S
C147 C143 1.397 . S
C147 C146 1.394 . S
C147 C157 1.723 . S
C148 C145 1.453 . S
C148 H172 0.982 . S
C148 H173 0.979 . S
C148 H174 0.977 . S
C149 C145 1.684 . S
C149 H175 0.979 . S
C149 H176 0.980 . S
C149 H177 0.983 . S
C150 H126 0.948 . S
C150 C151 1.391 . S
C150 C155 1.391 . S
C151 C150 1.391 . S
C151 C152 1.391 . S
C152 H129 0.947 . S
C152 C151 1.391 . S
C152 C153 1.392 . S
C153 H130 0.948 . S
C153 C152 1.392 . S
C153 C154 1.419 . S
C154 C153 1.419 . S
C154 C155 1.391 . S
C154 C158 1.397 . S
C155 C150 1.391 . S
C155 C154 1.391 . S
C155 C156 1.399 . S
C156 C155 1.399 . S
C156 C157 1.396 . S
C156 C159 1.453 . S
C156 C160 1.684 . S
C157 C147 1.723 . S
C157 C156 1.396 . S
C157 C158 1.394 . S
C158 C128 1.723 . S
C158 C154 1.397 . S
C158 C157 1.394 . S
C159 H131 0.982 . S
C159 H135 0.979 . S
C159 H136 0.977 . S
C159 C156 1.453 . S
C160 H132 0.979 . S
C160 H133 0.980 . S
C160 H134 0.983 . S
C160 C156 1.684 . S
H161 C179 0.948 . S
H162 C120 0.948 . S
H163 C138 0.979 . S
H164 C138 0.980 . S
H165 C138 0.983 . S
H166 C137 0.982 . S
H167 C137 0.979 . S
H168 C137 0.977 . S
H169 C139 0.948 . S
H170 C141 0.947 . S
H171 C142 0.948 . S
H172 C148 0.982 . S
H173 C148 0.979 . S
H174 C148 0.977 . S
H175 C149 0.979 . S
H176 C149 0.980 . S
H177 C149 0.983 . S
H178 C122 0.947 . S
C179 C122 1.392 . S
C179 C123 1.419 . S
C179 H161 0.948 . S
C180 C181 1.391 . S
C180 C184 1.391 . S
C180 H222 0.948 . S
C181 C180 1.391 . S
C181 C182 1.391 . S
C182 C181 1.391 . S
C182 H238 0.947 . S
C182 C239 1.392 . S
C183 C184 1.391 . S
C183 C187 1.397 . S
C183 C239 1.419 . S
C184 C180 1.391 . S
C184 C183 1.391 . S
C184 C185 1.399 . S
C185 C184 1.399 . S
C185 C188 1.396 . S
C185 C197 1.453 . S
C185 C198 1.684 . S
H186 C210 0.948 . S
C187 C183 1.397 . S
C187 C188 1.394 . S
C187 C206 1.723 . S
C188 C185 1.396 . S
C188 C187 1.394 . S
C188 C218 1.723 . S
H189 C212 0.947 . S
H190 C213 0.948 . S
H191 C219 0.982 . S
H192 C220 0.979 . S
H193 C220 0.980 . S
H194 C220 0.983 . S
H195 C219 0.979 . S
H196 C219 0.977 . S
C197 C185 1.453 . S
C197 H226 0.982 . S
C197 H227 0.979 . S
C197 H228 0.977 . S
C198 C185 1.684 . S
C198 H223 0.979 . S
C198 H224 0.980 . S
C198 H225 0.983 . S
C199 C200 1.391 . S
C199 C204 1.391 . S
C199 H229 0.948 . S
C200 C199 1.391 . S
C200 C201 1.391 . S
C201 C200 1.391 . S
C201 C202 1.392 . S
C201 H230 0.947 . S
C202 C201 1.392 . S
C202 C203 1.419 . S
C202 H231 0.948 . S
C203 C202 1.419 . S
C203 C204 1.391 . S
C203 C207 1.397 . S
C204 C199 1.391 . S
C204 C203 1.391 . S
C204 C205 1.399 . S
C205 C204 1.399 . S
C205 C206 1.396 . S
C205 C208 1.453 . S
C205 C209 1.684 . S
C206 C187 1.723 . S
C206 C205 1.396 . S
C206 C207 1.394 . S
C207 C203 1.397 . S
C207 C206 1.394 . S
C207 C217 1.723 . S
C208 C205 1.453 . S
C208 H232 0.982 . S
C208 H233 0.979 . S
C208 H234 0.977 . S
C209 C205 1.684 . S
C209 H235 0.979 . S
C209 H236 0.980 . S
C209 H237 0.983 . S
C210 H186 0.948 . S
C210 C211 1.391 . S
C210 C215 1.391 . S
C211 C210 1.391 . S
C211 C212 1.391 . S
C212 H189 0.947 . S
C212 C211 1.391 . S
C212 C213 1.392 . S
C213 H190 0.948 . S
C213 C212 1.392 . S
C213 C214 1.419 . S
C214 C213 1.419 . S
C214 C215 1.391 . S
C214 C218 1.397 . S
C215 C210 1.391 . S
C215 C214 1.391 . S
C215 C216 1.399 . S
C216 C215 1.399 . S
C216 C217 1.396 . S
C216 C219 1.453 . S
C216 C220 1.684 . S
C217 C207 1.723 . S
C217 C216 1.396 . S
C217 C218 1.394 . S
C218 C188 1.723 . S
C218 C214 1.397 . S
C218 C217 1.394 . S
C219 H191 0.982 . S
C219 H195 0.979 . S
C219 H196 0.977 . S
C219 C216 1.453 . S
C220 H192 0.979 . S
C220 H193 0.980 . S
C220 H194 0.983 . S
C220 C216 1.684 . S
H221 C239 0.948 . S
H222 C180 0.948 . S
H223 C198 0.979 . S
H224 C198 0.980 . S
H225 C198 0.983 . S
H226 C197 0.982 . S
H227 C197 0.979 . S
H228 C197 0.977 . S
H229 C199 0.948 . S
H230 C201 0.947 . S
H231 C202 0.948 . S
H232 C208 0.982 . S
H233 C208 0.979 . S
H234 C208 0.977 . S
H235 C209 0.979 . S
H236 C209 0.980 . S
H237 C209 0.983 . S
H238 C182 0.947 . S
C239 C182 1.392 . S
C239 C183 1.419 . S
C239 H221 0.948 . S
C240 C241 1.391 . S
C240 C244 1.391 . S
C240 H282 0.948 . S
C241 C240 1.391 . S
C241 C242 1.391 . S
C242 C241 1.391 . S
C242 H298 0.947 . S
C242 C299 1.392 . S
C243 C244 1.391 . S
C243 C247 1.397 . S
C243 C299 1.419 . S
C244 C240 1.391 . S
C244 C243 1.391 . S
C244 C245 1.399 . S
C245 C244 1.399 . S
C245 C248 1.396 . S
C245 C257 1.453 . S
C245 C258 1.684 . S
H246 C270 0.948 . S
C247 C243 1.397 . S
C247 C248 1.394 . S
C247 C266 1.723 . S
C248 C245 1.396 . S
C248 C247 1.394 . S
C248 C278 1.723 . S
H249 C272 0.947 . S
H250 C273 0.948 . S
H251 C279 0.982 . S
H252 C280 0.979 . S
H253 C280 0.980 . S
H254 C280 0.983 . S
H255 C279 0.979 . S
H256 C279 0.977 . S
C257 C245 1.453 . S
C257 H286 0.982 . S
C257 H287 0.979 . S
C257 H288 0.977 . S
C258 C245 1.684 . S
C258 H283 0.979 . S
C258 H284 0.980 . S
C258 H285 0.983 . S
C259 C260 1.391 . S
C259 C264 1.391 . S
C259 H289 0.948 . S
C260 C259 1.391 . S
C260 C261 1.391 . S
C261 C260 1.391 . S
C261 C262 1.392 . S
C261 H290 0.947 . S
C262 C261 1.392 . S
C262 C263 1.419 . S
C262 H291 0.948 . S
C263 C262 1.419 . S
C263 C264 1.391 . S
C263 C267 1.397 . S
C264 C259 1.391 . S
C264 C263 1.391 . S
C264 C265 1.399 . S
C265 C264 1.399 . S
C265 C266 1.396 . S
C265 C268 1.453 . S
C265 C269 1.684 . S
C266 C247 1.723 . S
C266 C265 1.396 . S
C266 C267 1.394 . S
C267 C263 1.397 . S
C267 C266 1.394 . S
C267 C277 1.723 . S
C268 C265 1.453 . S
C268 H292 0.982 . S
C268 H293 0.979 . S
C268 H294 0.977 . S
C269 C265 1.684 . S
C269 H295 0.979 . S
C269 H296 0.980 . S
C269 H297 0.983 . S
C270 H246 0.948 . S
C270 C271 1.391 . S
C270 C275 1.391 . S
C271 C270 1.391 . S
C271 C272 1.391 . S
C272 H249 0.947 . S
C272 C271 1.391 . S
C272 C273 1.392 . S
C273 H250 0.948 . S
C273 C272 1.392 . S
C273 C274 1.419 . S
C274 C273 1.419 . S
C274 C275 1.391 . S
C274 C278 1.397 . S
C275 C270 1.391 . S
C275 C274 1.391 . S
C275 C276 1.399 . S
C276 C275 1.399 . S
C276 C277 1.396 . S
C276 C279 1.453 . S
C276 C280 1.684 . S
C277 C267 1.723 . S
C277 C276 1.396 . S
C277 C278 1.394 . S
C278 C248 1.723 . S
C278 C274 1.397 . S
C278 C277 1.394 . S
C279 H251 0.982 . S
C279 H255 0.979 . S
C279 H256 0.977 . S
C279 C276 1.453 . S
C280 H252 0.979 . S
C280 H253 0.980 . S
C280 H254 0.983 . S
C280 C276 1.684 . S
H281 C299 0.948 . S
H282 C240 0.948 . S
H283 C258 0.979 . S
H284 C258 0.980 . S
H285 C258 0.983 . S
H286 C257 0.982 . S
H287 C257 0.979 . S
H288 C257 0.977 . S
H289 C259 0.948 . S
H290 C261 0.947 . S
H291 C262 0.948 . S
H292 C268 0.982 . S
H293 C268 0.979 . S
H294 C268 0.977 . S
H295 C269 0.979 . S
H296 C269 0.980 . S
H297 C269 0.983 . S
H298 C242 0.947 . S
C299 C242 1.392 . S
C299 C243 1.419 . S
C299 H281 0.948 . S
C300 C301 1.391 . S
C300 C304 1.391 . S
C300 H342 0.948 . S
C301 C300 1.391 . S
C301 C302 1.391 . S
C302 C301 1.391 . S
C302 H358 0.947 . S
C302 C359 1.392 . S
C303 C304 1.391 . S
C303 C307 1.397 . S
C303 C359 1.419 . S
C304 C300 1.391 . S
C304 C303 1.391 . S
C304 C305 1.399 . S
C305 C304 1.399 . S
C305 C308 1.396 . S
C305 C317 1.453 . S
C305 C318 1.684 . S
H306 C330 0.948 . S
C307 C303 1.397 . S
C307 C308 1.394 . S
C307 C326 1.723 . S
C308 C305 1.396 . S
C308 C307 1.394 . S
C308 C338 1.723 . S
H309 C332 0.947 . S
H310 C333 0.948 . S
H311 C339 0.982 . S
H312 C340 0.979 . S
H313 C340 0.980 . S
H314 C340 0.983 . S
H315 C339 0.979 . S
H316 C339 0.977 . S
C317 C305 1.453 . S
C317 H346 0.982 . S
C317 H347 0.979 . S
C317 H348 0.977 . S
C318 C305 1.684 . S
C318 H343 0.979 . S
C318 H344 0.980 . S
C318 H345 0.983 . S
C319 C320 1.391 . S
C319 C324 1.391 . S
C319 H349 0.948 . S
C320 C319 1.391 . S
C320 C321 1.391 . S
C321 C320 1.391 . S
C321 C322 1.392 . S
C321 H350 0.947 . S
C322 C321 1.392 . S
C322 C323 1.419 . S
C322 H351 0.948 . S
C323 C322 1.419 . S
C323 C324 1.391 . S
C323 C327 1.397 . S
C324 C319 1.391 . S
C324 C323 1.391 . S
C324 C325 1.399 . S
C325 C324 1.399 . S
C325 C326 1.396 . S
C325 C328 1.453 . S
C325 C329 1.684 . S
C326 C307 1.723 . S
C326 C325 1.396 . S
C326 C327 1.394 . S
C327 C323 1.397 . S
C327 C326 1.394 . S
C327 C337 1.723 . S
C328 C325 1.453 . S
C328 H352 0.982 . S
C328 H353 0.979 . S
C328 H354 0.977 . S
C329 C325 1.684 . S
C329 H355 0.979 . S
C329 H356 0.980 . S
C329 H357 0.983 . S
C330 H306 0.948 . S
C330 C331 1.391 . S
C330 C335 1.391 . S
C331 C330 1.391 . S
C331 C332 1.391 . S
C332 H309 0.947 . S
C332 C331 1.391 . S
C332 C333 1.392 . S
C333 H310 0.948 . S
C333 C332 1.392 . S
C333 C334 1.419 . S
C334 C333 1.419 . S
C334 C335 1.391 . S
C334 C338 1.397 . S
C335 C330 1.391 . S
C335 C334 1.391 . S
C335 C336 1.399 . S
C336 C335 1.399 . S
C336 C337 1.396 . S
C336 C339 1.453 . S
C336 C340 1.684 . S
C337 C327 1.723 . S
C337 C336 1.396 . S
C337 C338 1.394 . S
C338 C308 1.723 . S
C338 C334 1.397 . S
C338 C337 1.394 . S
C339 H311 0.982 . S
C339 H315 0.979 . S
C339 H316 0.977 . S
C339 C336 1.453 . S
C340 H312 0.979 . S
C340 H313 0.980 . S
C340 H314 0.983 . S
C340 C336 1.684 . S
H341 C359 0.948 . S
H342 C300 0.948 . S
H343 C318 0.979 . S
H344 C318 0.980 . S
H345 C318 0.983 . S
H346 C317 0.982 . S
H347 C317 0.979 . S
H348 C317 0.977 . S
H349 C319 0.948 . S
H350 C321 0.947 . S
H351 C322 0.948 . S
H352 C328 0.982 . S
H353 C328 0.979 . S
H354 C328 0.977 . S
H355 C329 0.979 . S
H356 C329 0.980 . S
H357 C329 0.983 . S
H358 C302 0.947 . S
C359 C302 1.392 . S
C359 C303 1.419 . S
C359 H341 0.948 . S
C360 C361 1.391 . S
C360 C364 1.391 . S
C360 H402 0.948 . S
C361 C360 1.391 . S
C361 C362 1.391 . S
C362 C361 1.391 . S
C362 H418 0.947 . S
C362 C419 1.392 . S
C363 C364 1.391 . S
C363 C367 1.397 . S
C363 C419 1.419 . S
C364 C360 1.391 . S
C364 C363 1.391 . S
C364 C365 1.399 . S
C365 C364 1.399 . S
C365 C368 1.396 . S
C365 C377 1.453 . S
C365 C378 1.684 . S
H366 C390 0.948 . S
C367 C363 1.397 . S
C367 C368 1.394 . S
C367 C386 1.723 . S
C368 C365 1.396 . S
C368 C367 1.394 . S
C368 C398 1.723 . S
H369 C392 0.947 . S
H370 C393 0.948 . S
H371 C399 0.982 . S
H372 C400 0.979 . S
H373 C400 0.980 . S
H374 C400 0.983 . S
H375 C399 0.979 . S
H376 C399 0.977 . S
C377 C365 1.453 . S
C377 H406 0.982 . S
C377 H407 0.979 . S
C377 H408 0.977 . S
C378 C365 1.684 . S
C378 H403 0.979 . S
C378 H404 0.980 . S
C378 H405 0.983 . S
C379 C380 1.391 . S
C379 C384 1.391 . S
C379 H409 0.948 . S
C380 C379 1.391 . S
C380 C381 1.391 . S
C381 C380 1.391 . S
C381 C382 1.392 . S
C381 H410 0.947 . S
C382 C381 1.392 . S
C382 C383 1.419 . S
C382 H411 0.948 . S
C383 C382 1.419 . S
C383 C384 1.391 . S
C383 C387 1.397 . S
C384 C379 1.391 . S
C384 C383 1.391 . S
C384 C385 1.399 . S
C385 C384 1.399 . S
C385 C386 1.396 . S
C385 C388 1.453 . S
C385 C389 1.684 . S
C386 C367 1.723 . S
C386 C385 1.396 . S
C386 C387 1.394 . S
C387 C383 1.397 . S
C387 C386 1.394 . S
C387 C397 1.723 . S
C388 C385 1.453 . S
C388 H412 0.982 . S
C388 H413 0.979 . S
C388 H414 0.977 . S
C389 C385 1.684 . S
C389 H415 0.979 . S
C389 H416 0.980 . S
C389 H417 0.983 . S
C390 H366 0.948 . S
C390 C391 1.391 . S
C390 C395 1.391 . S
C391 C390 1.391 . S
C391 C392 1.391 . S
C392 H369 0.947 . S
C392 C391 1.391 . S
C392 C393 1.392 . S
C393 H370 0.948 . S
C393 C392 1.392 . S
C393 C394 1.419 . S
C394 C393 1.419 . S
C394 C395 1.391 . S
C394 C398 1.397 . S
C395 C390 1.391 . S
C395 C394 1.391 . S
C395 C396 1.399 . S
C396 C395 1.399 . S
C396 C397 1.396 . S
C396 C399 1.453 . S
C396 C400 1.684 . S
C397 C387 1.723 . S
C397 C396 1.396 . S
C397 C398 1.394 . S
C398 C368 1.723 . S
C398 C394 1.397 . S
C398 C397 1.394 . S
C399 H371 0.982 . S
C399 H375 0.979 . S
C399 H376 0.977 . S
C399 C396 1.453 . S
C400 H372 0.979 . S
C400 H373 0.980 . S
C400 H374 0.983 . S
C400 C396 1.684 . S
H401 C419 0.948 . S
H402 C360 0.948 . S
H403 C378 0.979 . S
H404 C378 0.980 . S
H405 C378 0.983 . S
H406 C377 0.982 . S
H407 C377 0.979 . S
H408 C377 0.977 . S
H409 C379 0.948 . S
H410 C381 0.947 . S
H411 C382 0.948 . S
H412 C388 0.982 . S
H413 C388 0.979 . S
H414 C388 0.977 . S
H415 C389 0.979 . S
H416 C389 0.980 . S
H417 C389 0.983 . S
H418 C362 0.947 . S
C419 C362 1.392 . S
C419 C363 1.419 . S
C419 H401 0.948 . S
C420 C421 1.391 . S
C420 C424 1.391 . S
C420 H462 0.948 . S
C421 C420 1.391 . S
C421 C422 1.391 . S
C422 C421 1.391 . S
C422 H478 0.947 . S
C422 C479 1.392 . S
C423 C424 1.391 . S
C423 C427 1.397 . S
C423 C479 1.419 . S
C424 C420 1.391 . S
C424 C423 1.391 . S
C424 C425 1.399 . S
C425 C424 1.399 . S
C425 C428 1.396 . S
C425 C437 1.453 . S
C425 C438 1.684 . S
H426 C450 0.948 . S
C427 C423 1.397 . S
C427 C428 1.394 . S
C427 C446 1.723 . S
C428 C425 1.396 . S
C428 C427 1.394 . S
C428 C458 1.723 . S
H429 C452 0.947 . S
H430 C453 0.948 . S
H431 C459 0.982 . S
H432 C460 0.979 . S
H433 C460 0.980 . S
H434 C460 0.983 . S
H435 C459 0.979 . S
H436 C459 0.977 . S
C437 C425 1.453 . S
C437 H466 0.982 . S
C437 H467 0.979 . S
C437 H468 0.977 . S
C438 C425 1.684 . S
C438 H463 0.979 . S
C438 H464 0.980 . S
C438 H465 0.983 . S
C439 C440 1.391 . S
C439 C444 1.391 . S
C439 H469 0.948 . S
C440 C439 1.391 . S
C440 C441 1.391 . S
C441 C440 1.391 . S
C441 C442 1.392 . S
C441 H470 0.947 . S
C442 C441 1.392 . S
C442 C443 1.419 . S
C442 H471 0.948 . S
C443 C442 1.419 . S
C443 C444 1.391 . S
C443 C447 1.397 . S
C444 C439 1.391 . S
C444 C443 1.391 . S
C444 C445 1.399 . S
C445 C444 1.399 . S
C445 C446 1.396 . S
C445 C448 1.453 . S
C445 C449 1.684 . S
C446 C427 1.723 . S
C446 C445 1.396 . S
C446 C447 1.394 . S
C447 C443 1.397 . S
C447 C446 1.394 . S
C447 C457 1.723 . S
C448 C445 1.453 . S
C448 H472 0.982 . S
C448 H473 0.979 . S
C448 H474 0.977 . S
C449 C445 1.684 . S
C449 H475 0.979 . S
C449 H476 0.980 . S
C449 H477 0.983 . S
C450 H426 0.948 . S
C450 C451 1.391 . S
C450 C455 1.391 . S
C451 C450 1.391 . S
C451 C452 1.391 . S
C452 H429 0.947 . S
C452 C451 1.391 . S
C452 C453 1.392 . S
C453 H430 0.948 . S
C453 C452 1.392 . S
C453 C454 1.419 . S
C454 C453 1.419 . S
C454 C455 1.391 . S
C454 C458 1.397 . S
C455 C450 1.391 . S
C455 C454 1.391 . S
C455 C456 1.399 . S
C456 C455 1.399 . S
C456 C457 1.396 . S
C456 C459 1.453 . S
C456 C460 1.684 . S
C457 C447 1.723 . S
C457 C456 1.396 . S
C457 C458 1.394 . S
C458 C428 1.723 . S
C458 C454 1.397 . S
C458 C457 1.394 . S
C459 H431 0.982 . S
C459 H435 0.979 . S
C459 H436 0.977 . S
C459 C456 1.453 . S
C460 H432 0.979 . S
C460 H433 0.980 . S
C460 H434 0.983 . S
C460 C456 1.684 . S
H461 C479 0.948 . S
H462 C420 0.948 . S
H463 C438 0.979 . S
H464 C438 0.980 . S
H465 C438 0.983 . S
H466 C437 0.982 . S
H467 C437 0.979 . S
H468 C437 0.977 . S
H469 C439 0.948 . S
H470 C441 0.947 . S
H471 C442 0.948 . S
H472 C448 0.982 . S
H473 C448 0.979 . S
H474 C448 0.977 . S
H475 C449 0.979 . S
H476 C449 0.980 . S
H477 C449 0.983 . S
H478 C422 0.947 . S
C479 C422 1.392 . S
C479 C423 1.419 . S
C479 H461 0.948 . S
Tb480 N509 2.617 . S
Tb480 N515 2.572 . S
Tb480 O524 2.465 . S
Tb480 O525 2.387 . S
Tb480 O527 2.428 . S
Tb480 O528 2.308 . S
Tb480 O532 2.349 . S
Tb480 O535 2.393 . S
Tb480 C544 2.802 . S
C481 N482 1.379 . S
C481 C484 1.416 . S
C481 C488 1.424 . S
N482 C481 1.379 . S
N482 C485 1.334 . S
N482 Tb491 2.617 . S
C483 C485 1.390 . S
C483 C486 1.339 . S
C483 H503 0.930 . S
C484 C481 1.416 . S
C484 C486 1.416 . S
C484 C490 1.448 . S
C485 N482 1.334 . S
C485 C483 1.390 . S
C485 H496 0.930 . S
C486 C483 1.339 . S
C486 C484 1.416 . S
C486 H507 0.930 . S
C487 C488 1.413 . S
C487 C489 1.427 . S
C487 C493 1.416 . S
C488 C481 1.424 . S
C488 C487 1.413 . S
C488 N492 1.361 . S
C489 C487 1.427 . S
C489 C490 1.328 . S
C489 H504 0.929 . S
C490 C484 1.448 . S
C490 C489 1.328 . S
C490 H505 0.930 . S
Tb491 N482 2.617 . S
Tb491 N492 2.572 . S
Tb491 O526 2.330 1_655 S
Tb491 O529 2.393 . S
Tb491 O530 2.465 . S
Tb491 O531 2.387 . S
Tb491 O533 2.428 . S
Tb491 O534 2.308 1_655 S
Tb491 C555 2.802 . S
N492 C488 1.361 . S
N492 Tb491 2.572 . S
N492 C494 1.340 . S
C493 C487 1.416 . S
C493 C495 1.332 . S
C493 H501 0.931 . S
C494 N492 1.340 . S
C494 C495 1.407 . S
C494 H500 0.930 . S
C495 C493 1.332 . S
C495 C494 1.407 . S
C495 H497 0.929 . S
H496 C485 0.930 . S
H497 C495 0.929 . S
H498 C513 0.930 . S
H499 C520 0.929 . S
H500 C494 0.930 . S
H501 C493 0.931 . S
H502 C516 0.930 . S
H503 C483 0.930 . S
H504 C489 0.929 . S
H505 C490 0.930 . S
H506 C511 0.930 . S
H507 C486 0.930 . S
H508 C519 0.931 . S
N509 Tb480 2.617 . S
N509 C510 1.379 . S
N509 C513 1.334 . S
C510 N509 1.379 . S
C510 C512 1.416 . S
C510 C518 1.424 . S
C511 H506 0.930 . S
C511 C513 1.390 . S
C511 C514 1.339 . S
C512 C510 1.416 . S
C512 C514 1.416 . S
C512 C545 1.448 . S
C513 H498 0.930 . S
C513 N509 1.334 . S
C513 C511 1.390 . S
C514 C511 1.339 . S
C514 C512 1.416 . S
C514 H521 0.930 . S
N515 Tb480 2.572 . S
N515 C516 1.340 . S
N515 C518 1.361 . S
C516 H502 0.930 . S
C516 N515 1.340 . S
C516 C520 1.407 . S
C517 C518 1.413 . S
C517 C519 1.416 . S
C517 C546 1.427 . S
C518 C510 1.424 . S
C518 N515 1.361 . S
C518 C517 1.413 . S
C519 H508 0.931 . S
C519 C517 1.416 . S
C519 C520 1.332 . S
C520 H499 0.929 . S
C520 C516 1.407 . S
C520 C519 1.332 . S
H521 C514 0.930 . S
H522 C545 0.930 . S
H523 C546 0.929 . S
O524 Tb480 2.465 . S
O524 C544 1.264 . S
O525 Tb480 2.387 . S
O525 C536 1.264 . S
O526 Tb491 2.330 1_455 S
O526 C536 1.268 . S
O527 Tb480 2.428 . S
O527 C544 1.256 . S
O528 Tb480 2.308 . S
O528 C543 1.266 1_455 S
O529 Tb491 2.393 . S
O529 C543 1.248 . S
O530 Tb491 2.465 . S
O530 C555 1.264 . S
O531 Tb491 2.387 . S
O531 C547 1.264 . S
O532 Tb480 2.349 . S
O532 C547 1.243 1_455 S
O533 Tb491 2.428 . S
O533 C555 1.256 . S
O534 Tb491 2.308 1_455 S
O534 C554 1.266 . S
O535 Tb480 2.393 . S
O535 C554 1.248 . S
C536 O525 1.264 . S
C536 O526 1.268 . S
C537 C540 1.399 . S
C537 C542 1.383 . S
C537 C544 1.496 . S
C538 C539 1.399 . S
C538 C542 1.389 . S
C539 C538 1.399 . S
C539 C541 1.380 . S
C539 H556 0.929 . S
C540 C537 1.399 . S
C540 C541 1.392 . S
C540 H557 0.929 . S
C541 C539 1.380 . S
C541 C540 1.392 . S
C541 H558 0.929 . S
C542 C537 1.383 . S
C542 C538 1.389 . S
C542 H559 0.931 . S
C543 O528 1.266 1_655 S
C543 O529 1.248 . S
C544 Tb480 2.802 . S
C544 O524 1.264 . S
C544 O527 1.256 . S
C544 C537 1.496 . S
C545 C512 1.448 . S
C545 H522 0.930 . S
C545 C546 1.328 . S
C546 C517 1.427 . S
C546 H523 0.929 . S
C546 C545 1.328 . S
C547 O531 1.264 . S
C547 O532 1.243 1_655 S
C548 C551 1.399 . S
C548 C552 1.383 . S
C548 C555 1.496 . S
C549 C550 1.399 . S
C549 C552 1.389 . S
C550 C549 1.399 . S
C550 C553 1.380 . S
C550 H560 0.929 . S
C551 C548 1.399 . S
C551 C553 1.392 . S
C551 H561 0.929 . S
C552 C548 1.383 . S
C552 C549 1.389 . S
C552 H562 0.931 . S
C553 C550 1.380 . S
C553 C551 1.392 . S
C553 H563 0.929 . S
C554 O534 1.266 . S
C554 O535 1.248 . S
C555 Tb491 2.802 . S
C555 O530 1.264 . S
C555 O533 1.256 . S
C555 C548 1.496 . S
H556 C539 0.929 . S
H557 C540 0.929 . S
H558 C541 0.929 . S
H559 C542 0.931 . S
H560 C550 0.929 . S
H561 C551 0.929 . S
H562 C552 0.931 . S
H563 C553 0.929 . S
Tb564 N593 2.617 . S
Tb564 N599 2.572 . S
Tb564 O608 2.465 . S
Tb564 O609 2.387 . S
Tb564 O611 2.428 . S
Tb564 O612 2.308 . S
Tb564 O616 2.349 . S
Tb564 O619 2.393 . S
Tb564 C628 2.802 . S
C565 N566 1.379 . S
C565 C568 1.416 . S
C565 C572 1.424 . S
N566 C565 1.379 . S
N566 C569 1.334 . S
N566 Tb575 2.617 . S
C567 C569 1.390 . S
C567 C570 1.339 . S
C567 H587 0.930 . S
C568 C565 1.416 . S
C568 C570 1.416 . S
C568 C574 1.448 . S
C569 N566 1.334 . S
C569 C567 1.390 . S
C569 H580 0.930 . S
C570 C567 1.339 . S
C570 C568 1.416 . S
C570 H591 0.930 . S
C571 C572 1.413 . S
C571 C573 1.427 . S
C571 C577 1.416 . S
C572 C565 1.424 . S
C572 C571 1.413 . S
C572 N576 1.361 . S
C573 C571 1.427 . S
C573 C574 1.328 . S
C573 H588 0.929 . S
C574 C568 1.448 . S
C574 C573 1.328 . S
C574 H589 0.930 . S
Tb575 N566 2.617 . S
Tb575 N576 2.572 . S
Tb575 O610 2.349 . S
Tb575 O613 2.393 . S
Tb575 O614 2.465 . S
Tb575 O615 2.387 . S
Tb575 O617 2.428 . S
Tb575 O618 2.308 . S
Tb575 C639 2.802 . S
N576 C572 1.361 . S
N576 Tb575 2.572 . S
N576 C578 1.340 . S
C577 C571 1.416 . S
C577 C579 1.332 . S
C577 H585 0.931 . S
C578 N576 1.340 . S
C578 C579 1.407 . S
C578 H584 0.930 . S
C579 C577 1.332 . S
C579 C578 1.407 . S
C579 H581 0.929 . S
H580 C569 0.930 . S
H581 C579 0.929 . S
H582 C597 0.930 . S
H583 C604 0.929 . S
H584 C578 0.930 . S
H585 C577 0.931 . S
H586 C600 0.930 . S
H587 C567 0.930 . S
H588 C573 0.929 . S
H589 C574 0.930 . S
H590 C595 0.930 . S
H591 C570 0.930 . S
H592 C603 0.931 . S
N593 Tb564 2.617 . S
N593 C594 1.379 . S
N593 C597 1.334 . S
C594 N593 1.379 . S
C594 C596 1.416 . S
C594 C602 1.424 . S
C595 H590 0.930 . S
C595 C597 1.390 . S
C595 C598 1.339 . S
C596 C594 1.416 . S
C596 C598 1.416 . S
C596 C629 1.448 . S
C597 H582 0.930 . S
C597 N593 1.334 . S
C597 C595 1.390 . S
C598 C595 1.339 . S
C598 C596 1.416 . S
C598 H605 0.930 . S
N599 Tb564 2.572 . S
N599 C600 1.340 . S
N599 C602 1.361 . S
C600 H586 0.930 . S
C600 N599 1.340 . S
C600 C604 1.407 . S
C601 C602 1.413 . S
C601 C603 1.416 . S
C601 C630 1.427 . S
C602 C594 1.424 . S
C602 N599 1.361 . S
C602 C601 1.413 . S
C603 H592 0.931 . S
C603 C601 1.416 . S
C603 C604 1.332 . S
C604 H583 0.929 . S
C604 C600 1.407 . S
C604 C603 1.332 . S
H605 C598 0.930 . S
H606 C629 0.930 . S
H607 C630 0.929 . S
O608 Tb564 2.465 . S
O608 C628 1.264 . S
O609 Tb564 2.387 . S
O609 C620 1.264 . S
O610 Tb575 2.349 . S
O610 C620 1.243 . S
O611 Tb564 2.428 . S
O611 C628 1.256 . S
O612 Tb564 2.308 . S
O612 C627 1.266 . S
O613 Tb575 2.393 . S
O613 C627 1.248 . S
O614 Tb575 2.465 . S
O614 C639 1.264 . S
O615 Tb575 2.387 . S
O615 C631 1.264 . S
O616 Tb564 2.349 . S
O616 C631 1.243 . S
O617 Tb575 2.428 . S
O617 C639 1.256 . S
O618 Tb575 2.308 . S
O618 C638 1.266 . S
O619 Tb564 2.393 . S
O619 C638 1.248 . S
C620 O609 1.264 . S
C620 O610 1.243 . S
C621 C624 1.399 . S
C621 C626 1.383 . S
C621 C628 1.496 . S
C622 C623 1.399 . S
C622 C626 1.389 . S
C623 C622 1.399 . S
C623 C625 1.380 . S
C623 H640 0.929 . S
C624 C621 1.399 . S
C624 C625 1.392 . S
C624 H641 0.929 . S
C625 C623 1.380 . S
C625 C624 1.392 . S
C625 H642 0.929 . S
C626 C621 1.383 . S
C626 C622 1.389 . S
C626 H643 0.931 . S
C627 O612 1.266 . S
C627 O613 1.248 . S
C628 Tb564 2.802 . S
C628 O608 1.264 . S
C628 O611 1.256 . S
C628 C621 1.496 . S
C629 C596 1.448 . S
C629 H606 0.930 . S
C629 C630 1.328 . S
C630 C601 1.427 . S
C630 H607 0.929 . S
C630 C629 1.328 . S
C631 O615 1.264 . S
C631 O616 1.243 . S
C632 C635 1.399 . S
C632 C636 1.383 . S
C632 C639 1.496 . S
C633 C634 1.399 . S
C633 C636 1.389 . S
C634 C633 1.399 . S
C634 C637 1.380 . S
C634 H644 0.929 . S
C635 C632 1.399 . S
C635 C637 1.392 . S
C635 H645 0.929 . S
C636 C632 1.383 . S
C636 C633 1.389 . S
C636 H646 0.931 . S
C637 C634 1.380 . S
C637 C635 1.392 . S
C637 H647 0.929 . S
C638 O618 1.266 . S
C638 O619 1.248 . S
C639 Tb575 2.802 . S
C639 O614 1.264 . S
C639 O617 1.256 . S
C639 C632 1.496 . S
H640 C623 0.929 . S
H641 C624 0.929 . S
H642 C625 0.929 . S
H643 C626 0.931 . S
H644 C634 0.929 . S
H645 C635 0.929 . S
H646 C636 0.931 . S
H647 C637 0.929 . S
Tb648 N677 2.617 . S
Tb648 N683 2.572 . S
Tb648 O692 2.465 . S
Tb648 O693 2.387 . S
Tb648 O695 2.428 . S
Tb648 O696 2.308 . S
Tb648 O700 2.349 . S
Tb648 O703 2.393 . S
Tb648 C712 2.802 . S
C649 N650 1.379 . S
C649 C652 1.416 . S
C649 C656 1.424 . S
N650 C649 1.379 . S
N650 C653 1.334 . S
N650 Tb659 2.617 . S
C651 C653 1.390 . S
C651 C654 1.339 . S
C651 H671 0.930 . S
C652 C649 1.416 . S
C652 C654 1.416 . S
C652 C658 1.448 . S
C653 N650 1.334 . S
C653 C651 1.390 . S
C653 H664 0.930 . S
C654 C651 1.339 . S
C654 C652 1.416 . S
C654 H675 0.930 . S
C655 C656 1.413 . S
C655 C657 1.427 . S
C655 C661 1.416 . S
C656 C649 1.424 . S
C656 C655 1.413 . S
C656 N660 1.361 . S
C657 C655 1.427 . S
C657 C658 1.328 . S
C657 H672 0.929 . S
C658 C652 1.448 . S
C658 C657 1.328 . S
C658 H673 0.930 . S
Tb659 N650 2.617 . S
Tb659 N660 2.572 . S
Tb659 O694 2.349 1_655 S
Tb659 O697 2.393 . S
Tb659 O698 2.465 . S
Tb659 O699 2.387 . S
Tb659 O701 2.428 . S
Tb659 O702 2.308 1_655 S
Tb659 C723 2.802 . S
N660 C656 1.361 . S
N660 Tb659 2.572 . S
N660 C662 1.340 . S
C661 C655 1.416 . S
C661 C663 1.332 . S
C661 H669 0.931 . S
C662 N660 1.340 . S
C662 C663 1.407 . S
C662 H668 0.930 . S
C663 C661 1.332 . S
C663 C662 1.407 . S
C663 H665 0.929 . S
H664 C653 0.930 . S
H665 C663 0.929 . S
H666 C681 0.930 . S
H667 C688 0.929 . S
H668 C662 0.930 . S
H669 C661 0.931 . S
H670 C684 0.930 . S
H671 C651 0.930 . S
H672 C657 0.929 . S
H673 C658 0.930 . S
H674 C679 0.930 . S
H675 C654 0.930 . S
H676 C687 0.931 . S
N677 Tb648 2.617 . S
N677 C678 1.379 . S
N677 C681 1.334 . S
C678 N677 1.379 . S
C678 C680 1.416 . S
C678 C686 1.424 . S
C679 H674 0.930 . S
C679 C681 1.390 . S
C679 C682 1.339 . S
C680 C678 1.416 . S
C680 C682 1.416 . S
C680 C713 1.448 . S
C681 H666 0.930 . S
C681 N677 1.334 . S
C681 C679 1.390 . S
C682 C679 1.339 . S
C682 C680 1.416 . S
C682 H689 0.930 . S
N683 Tb648 2.572 . S
N683 C684 1.340 . S
N683 C686 1.361 . S
C684 H670 0.930 . S
C684 N683 1.340 . S
C684 C688 1.407 . S
C685 C686 1.413 . S
C685 C687 1.416 . S
C685 C714 1.427 . S
C686 C678 1.424 . S
C686 N683 1.361 . S
C686 C685 1.413 . S
C687 H676 0.931 . S
C687 C685 1.416 . S
C687 C688 1.332 . S
C688 H667 0.929 . S
C688 C684 1.407 . S
C688 C687 1.332 . S
H689 C682 0.930 . S
H690 C713 0.930 . S
H691 C714 0.929 . S
O692 Tb648 2.465 . S
O692 C712 1.264 . S
O693 Tb648 2.387 . S
O693 C704 1.264 . S
O694 Tb659 2.349 1_455 S
O694 C704 1.243 . S
O695 Tb648 2.428 . S
O695 C712 1.256 . S
O696 Tb648 2.308 . S
O696 C711 1.266 1_455 S
O697 Tb659 2.393 . S
O697 C711 1.248 . S
O698 Tb659 2.465 . S
O698 C723 1.264 . S
O699 Tb659 2.387 . S
O699 C715 1.264 . S
O700 Tb648 2.349 . S
O700 C715 1.243 1_455 S
O701 Tb659 2.428 . S
O701 C723 1.256 . S
O702 Tb659 2.308 1_455 S
O702 C722 1.266 . S
O703 Tb648 2.393 . S
O703 C722 1.248 . S
C704 O693 1.264 . S
C704 O694 1.243 . S
C705 C708 1.399 . S
C705 C710 1.383 . S
C705 C712 1.496 . S
C706 C707 1.399 . S
C706 C710 1.389 . S
C707 C706 1.399 . S
C707 C709 1.380 . S
C707 H724 0.929 . S
C708 C705 1.399 . S
C708 C709 1.392 . S
C708 H725 0.929 . S
C709 C707 1.380 . S
C709 C708 1.392 . S
C709 H726 0.929 . S
C710 C705 1.383 . S
C710 C706 1.389 . S
C710 H727 0.931 . S
C711 O696 1.266 1_655 S
C711 O697 1.248 . S
C712 Tb648 2.802 . S
C712 O692 1.264 . S
C712 O695 1.256 . S
C712 C705 1.496 . S
C713 C680 1.448 . S
C713 H690 0.930 . S
C713 C714 1.328 . S
C714 C685 1.427 . S
C714 H691 0.929 . S
C714 C713 1.328 . S
C715 O699 1.264 . S
C715 O700 1.243 1_655 S
C716 C719 1.399 . S
C716 C720 1.383 . S
C716 C723 1.496 . S
C717 C718 1.399 . S
C717 C720 1.389 . S
C718 C717 1.399 . S
C718 C721 1.380 . S
C718 H728 0.929 . S
C719 C716 1.399 . S
C719 C721 1.392 . S
C719 H729 0.929 . S
C720 C716 1.383 . S
C720 C717 1.389 . S
C720 H730 0.931 . S
C721 C718 1.380 . S
C721 C719 1.392 . S
C721 H731 0.929 . S
C722 O702 1.266 . S
C722 O703 1.248 . S
C723 Tb659 2.802 . S
C723 O698 1.264 . S
C723 O701 1.256 . S
C723 C716 1.496 . S
H724 C707 0.929 . S
H725 C708 0.929 . S
H726 C709 0.929 . S
H727 C710 0.931 . S
H728 C718 0.929 . S
H729 C719 0.929 . S
H730 C720 0.931 . S
H731 C721 0.929 . S
Tb732 N761 2.617 . S
Tb732 N767 2.572 . S
Tb732 O776 2.465 . S
Tb732 O777 2.387 . S
Tb732 O779 2.428 . S
Tb732 O780 2.308 . S
Tb732 O784 2.349 . S
Tb732 O787 2.393 . S
Tb732 C796 2.802 . S
C733 N734 1.379 . S
C733 C736 1.416 . S
C733 C740 1.424 . S
N734 C733 1.379 . S
N734 C737 1.334 . S
N734 Tb743 2.617 . S
C735 C737 1.390 . S
C735 C738 1.339 . S
C735 H755 0.930 . S
C736 C733 1.416 . S
C736 C738 1.416 . S
C736 C742 1.448 . S
C737 N734 1.334 . S
C737 C735 1.390 . S
C737 H748 0.930 . S
C738 C735 1.339 . S
C738 C736 1.416 . S
C738 H759 0.930 . S
C739 C740 1.413 . S
C739 C741 1.427 . S
C739 C745 1.416 . S
C740 C733 1.424 . S
C740 C739 1.413 . S
C740 N744 1.361 . S
C741 C739 1.427 . S
C741 C742 1.328 . S
C741 H756 0.929 . S
C742 C736 1.448 . S
C742 C741 1.328 . S
C742 H757 0.930 . S
Tb743 N734 2.617 . S
Tb743 N744 2.572 . S
Tb743 O778 2.349 . S
Tb743 O781 2.393 . S
Tb743 O782 2.465 . S
Tb743 O783 2.387 . S
Tb743 O785 2.428 . S
Tb743 O786 2.308 . S
Tb743 C807 2.802 . S
N744 C740 1.361 . S
N744 Tb743 2.572 . S
N744 C746 1.340 . S
C745 C739 1.416 . S
C745 C747 1.332 . S
C745 H753 0.931 . S
C746 N744 1.340 . S
C746 C747 1.407 . S
C746 H752 0.930 . S
C747 C745 1.332 . S
C747 C746 1.407 . S
C747 H749 0.929 . S
H748 C737 0.930 . S
H749 C747 0.929 . S
H750 C765 0.930 . S
H751 C772 0.929 . S
H752 C746 0.930 . S
H753 C745 0.931 . S
H754 C768 0.930 . S
H755 C735 0.930 . S
H756 C741 0.929 . S
H757 C742 0.930 . S
H758 C763 0.930 . S
H759 C738 0.930 . S
H760 C771 0.931 . S
N761 Tb732 2.617 . S
N761 C762 1.379 . S
N761 C765 1.334 . S
C762 N761 1.379 . S
C762 C764 1.416 . S
C762 C770 1.424 . S
C763 H758 0.930 . S
C763 C765 1.390 . S
C763 C766 1.339 . S
C764 C762 1.416 . S
C764 C766 1.416 . S
C764 C797 1.448 . S
C765 H750 0.930 . S
C765 N761 1.334 . S
C765 C763 1.390 . S
C766 C763 1.339 . S
C766 C764 1.416 . S
C766 H773 0.930 . S
N767 Tb732 2.572 . S
N767 C768 1.340 . S
N767 C770 1.361 . S
C768 H754 0.930 . S
C768 N767 1.340 . S
C768 C772 1.407 . S
C769 C770 1.413 . S
C769 C771 1.416 . S
C769 C798 1.427 . S
C770 C762 1.424 . S
C770 N767 1.361 . S
C770 C769 1.413 . S
C771 H760 0.931 . S
C771 C769 1.416 . S
C771 C772 1.332 . S
C772 H751 0.929 . S
C772 C768 1.407 . S
C772 C771 1.332 . S
H773 C766 0.930 . S
H774 C797 0.930 . S
H775 C798 0.929 . S
O776 Tb732 2.465 . S
O776 C796 1.264 . S
O777 Tb732 2.387 . S
O777 C788 1.264 . S
O778 Tb743 2.349 . S
O778 C788 1.243 . S
O779 Tb732 2.428 . S
O779 C796 1.256 . S
O780 Tb732 2.308 . S
O780 C795 1.266 . S
O781 Tb743 2.393 . S
O781 C795 1.248 . S
O782 Tb743 2.465 . S
O782 C807 1.264 . S
O783 Tb743 2.387 . S
O783 C799 1.264 . S
O784 Tb732 2.349 . S
O784 C799 1.243 . S
O785 Tb743 2.428 . S
O785 C807 1.256 . S
O786 Tb743 2.308 . S
O786 C806 1.266 . S
O787 Tb732 2.393 . S
O787 C806 1.248 . S
C788 O777 1.264 . S
C788 O778 1.243 . S
C789 C792 1.399 . S
C789 C794 1.383 . S
C789 C796 1.496 . S
C790 C791 1.399 . S
C790 C794 1.389 . S
C791 C790 1.399 . S
C791 C793 1.380 . S
C791 H808 0.929 . S
C792 C789 1.399 . S
C792 C793 1.392 . S
C792 H809 0.929 . S
C793 C791 1.380 . S
C793 C792 1.392 . S
C793 H810 0.929 . S
C794 C789 1.383 . S
C794 C790 1.389 . S
C794 H811 0.931 . S
C795 O780 1.266 . S
C795 O781 1.248 . S
C796 Tb732 2.802 . S
C796 O776 1.264 . S
C796 O779 1.256 . S
C796 C789 1.496 . S
C797 C764 1.448 . S
C797 H774 0.930 . S
C797 C798 1.328 . S
C798 C769 1.427 . S
C798 H775 0.929 . S
C798 C797 1.328 . S
C799 O783 1.264 . S
C799 O784 1.243 . S
C800 C803 1.399 . S
C800 C804 1.383 . S
C800 C807 1.496 . S
C801 C802 1.399 . S
C801 C804 1.389 . S
C802 C801 1.399 . S
C802 C805 1.380 . S
C802 H812 0.929 . S
C803 C800 1.399 . S
C803 C805 1.392 . S
C803 H813 0.929 . S
C804 C800 1.383 . S
C804 C801 1.389 . S
C804 H814 0.931 . S
C805 C802 1.380 . S
C805 C803 1.392 . S
C805 H815 0.929 . S
C806 O786 1.266 . S
C806 O787 1.248 . S
C807 Tb743 2.802 . S
C807 O782 1.264 . S
C807 O785 1.256 . S
C807 C800 1.496 . S
H808 C791 0.929 . S
H809 C792 0.929 . S
H810 C793 0.929 . S
H811 C794 0.931 . S
H812 C802 0.929 . S
H813 C803 0.929 . S
H814 C804 0.931 . S
H815 C805 0.929 . S
H816 C824 0.929 . S
H817 C826 0.930 . S
H818 C828 0.930 . S
H819 C831 0.929 . S
H820 C834 0.930 1_565 S
H821 C836 0.960 . S
H822 C836 0.960 . S
H823 C836 0.960 . S
C824 H816 0.929 . S
C824 C825 1.377 . S
C824 C826 1.384 . S
C825 C824 1.377 . S
C825 C831 1.390 . S
C826 H817 0.930 . S
C826 C824 1.384 . S
C826 C827 1.401 . S
C827 C826 1.401 . S
C827 C828 1.394 1_565 S
C827 C832 1.467 1_565 S
C828 H818 0.930 . S
C828 C827 1.394 1_545 S
C828 C831 1.386 1_545 S
H829 C845 0.930 . S
H830 C846 0.931 . S
C831 H819 0.929 . S
C831 C825 1.390 . S
C831 C828 1.386 1_565 S
C832 C827 1.467 1_545 S
C832 C834 1.395 . S
C832 C835 1.403 . S
H833 C839 0.930 . S
C834 H820 0.930 1_545 S
C834 C832 1.395 . S
C834 C837 1.403 . S
C835 C832 1.403 . S
C835 C836 1.524 . S
C835 C839 1.400 . S
C836 H821 0.960 . S
C836 H822 0.960 . S
C836 H823 0.960 . S
C836 C835 1.524 . S
C837 C834 1.403 . S
C837 C838 1.392 . S
C837 C841 1.495 . S
C838 C837 1.392 . S
C838 C839 1.385 . S
C838 C840 1.478 . S
C839 H833 0.930 . S
C839 C835 1.400 . S
C839 C838 1.385 . S
C840 C838 1.478 . S
C840 C842 1.381 . S
C840 C846 1.383 . S
C841 C837 1.495 . S
C841 H847 0.959 . S
C841 H848 0.961 . S
C841 H849 0.960 . S
C842 C840 1.381 . S
C842 C843 1.394 . S
C842 H850 0.930 . S
C843 C842 1.394 . S
C843 C844 1.383 . S
C843 H851 0.929 . S
C844 C843 1.383 . S
C844 C845 1.377 . S
C845 H829 0.930 . S
C845 C844 1.377 . S
C845 C846 1.379 . S
C846 H830 0.931 . S
C846 C840 1.383 . S
C846 C845 1.379 . S
H847 C841 0.959 . S
H848 C841 0.961 . S
H849 C841 0.960 . S
H850 C842 0.930 . S
H851 C843 0.929 . S
H852 C860 0.929 . S
H853 C862 0.930 . S
H854 C864 0.930 . S
H855 C867 0.929 . S
H856 C870 0.930 . S
H857 C872 0.960 . S
H858 C872 0.960 . S
H859 C872 0.960 . S
C860 H852 0.929 . S
C860 C861 1.377 . S
C860 C862 1.384 . S
C861 C860 1.377 . S
C861 C867 1.390 . S
C862 H853 0.930 . S
C862 C860 1.384 . S
C862 C863 1.372 . S
C863 C862 1.372 . S
C863 C864 1.400 . S
C863 C868 1.490 . S
C864 H854 0.930 . S
C864 C863 1.400 . S
C864 C867 1.386 . S
H865 C881 0.930 . S
H866 C882 0.931 . S
C867 H855 0.929 . S
C867 C861 1.390 . S
C867 C864 1.386 . S
C868 C863 1.490 . S
C868 C870 1.395 . S
C868 C871 1.403 . S
H869 C875 0.930 . S
C870 H856 0.930 . S
C870 C868 1.395 . S
C870 C873 1.403 . S
C871 C868 1.403 . S
C871 C872 1.524 . S
C871 C875 1.400 . S
C872 H857 0.960 . S
C872 H858 0.960 . S
C872 H859 0.960 . S
C872 C871 1.524 . S
C873 C870 1.403 . S
C873 C874 1.392 . S
C873 C877 1.495 . S
C874 C873 1.392 . S
C874 C875 1.385 . S
C874 C876 1.478 . S
C875 H869 0.930 . S
C875 C871 1.400 . S
C875 C874 1.385 . S
C876 C874 1.478 . S
C876 C878 1.381 . S
C876 C882 1.383 . S
C877 C873 1.495 . S
C877 H883 0.959 . S
C877 H884 0.961 . S
C877 H885 0.960 . S
C878 C876 1.381 . S
C878 C879 1.394 . S
C878 H886 0.930 . S
C879 C878 1.394 . S
C879 C880 1.383 . S
C879 H887 0.929 . S
C880 C879 1.383 . S
C880 C881 1.377 . S
C881 H865 0.930 . S
C881 C880 1.377 . S
C881 C882 1.379 . S
C882 H866 0.931 . S
C882 C876 1.383 . S
C882 C881 1.379 . S
H883 C877 0.959 . S
H884 C877 0.961 . S
H885 C877 0.960 . S
H886 C878 0.930 . S
H887 C879 0.929 . S
H888 C896 0.929 . S
H889 C898 0.930 . S
H890 C900 0.930 . S
H891 C903 0.929 . S
H892 C906 0.930 . S
H893 C908 0.960 . S
H894 C908 0.960 . S
H895 C908 0.960 . S
C896 H888 0.929 . S
C896 C897 1.377 . S
C896 C898 1.384 . S
C897 C896 1.377 . S
C897 C903 1.390 . S
C898 H889 0.930 . S
C898 C896 1.384 . S
C898 C899 1.372 . S
C899 C898 1.372 . S
C899 C900 1.400 . S
C899 C904 1.490 . S
C900 H890 0.930 . S
C900 C899 1.400 . S
C900 C903 1.386 . S
H901 C917 0.930 . S
H902 C918 0.931 . S
C903 H891 0.929 . S
C903 C897 1.390 . S
C903 C900 1.386 . S
C904 C899 1.490 . S
C904 C906 1.395 . S
C904 C907 1.403 . S
H905 C911 0.930 . S
C906 H892 0.930 . S
C906 C904 1.395 . S
C906 C909 1.403 . S
C907 C904 1.403 . S
C907 C908 1.524 . S
C907 C911 1.400 . S
C908 H893 0.960 . S
C908 H894 0.960 . S
C908 H895 0.960 . S
C908 C907 1.524 . S
C909 C906 1.403 . S
C909 C910 1.392 . S
C909 C913 1.495 . S
C910 C909 1.392 . S
C910 C911 1.385 . S
C910 C912 1.478 . S
C911 H905 0.930 . S
C911 C907 1.400 . S
C911 C910 1.385 . S
C912 C910 1.478 . S
C912 C914 1.381 . S
C912 C918 1.383 . S
C913 C909 1.495 . S
C913 H919 0.959 . S
C913 H920 0.961 . S
C913 H921 0.960 . S
C914 C912 1.381 . S
C914 C915 1.394 . S
C914 H922 0.930 . S
C915 C914 1.394 . S
C915 C916 1.383 . S
C915 H923 0.929 . S
C916 C915 1.383 . S
C916 C917 1.377 . S
C917 H901 0.930 . S
C917 C916 1.377 . S
C917 C918 1.379 . S
C918 H902 0.931 . S
C918 C912 1.383 . S
C918 C917 1.379 . S
H919 C913 0.959 . S
H920 C913 0.961 . S
H921 C913 0.960 . S
H922 C914 0.930 . S
H923 C915 0.929 . S
H924 C932 0.929 . S
H925 C934 0.930 . S
H926 C936 0.930 . S
H927 C939 0.929 . S
H928 C942 0.930 . S
H929 C944 0.960 . S
H930 C944 0.960 . S
H931 C944 0.960 . S
C932 H924 0.929 . S
C932 C933 1.377 . S
C932 C934 1.384 . S
C933 C932 1.377 . S
C933 C939 1.390 . S
C934 H925 0.930 . S
C934 C932 1.384 . S
C934 C935 1.318 1_565 S
C935 C934 1.318 1_545 S
C935 C936 1.415 . S
C935 C940 1.529 . S
C936 H926 0.930 . S
C936 C935 1.415 . S
C936 C939 1.386 1_545 S
H937 C953 0.930 . S
H938 C954 0.931 . S
C939 H927 0.929 . S
C939 C933 1.390 . S
C939 C936 1.386 1_565 S
C940 C935 1.529 . S
C940 C942 1.395 . S
C940 C943 1.403 . S
H941 C947 0.930 . S
C942 H928 0.930 . S
C942 C940 1.395 . S
C942 C945 1.403 . S
C943 C940 1.403 . S
C943 C944 1.524 . S
C943 C947 1.400 . S
C944 H929 0.960 . S
C944 H930 0.960 . S
C944 H931 0.960 . S
C944 C943 1.524 . S
C945 C942 1.403 . S
C945 C946 1.392 . S
C945 C949 1.495 . S
C946 C945 1.392 . S
C946 C947 1.385 . S
C946 C948 1.478 . S
C947 H941 0.930 . S
C947 C943 1.400 . S
C947 C946 1.385 . S
C948 C946 1.478 . S
C948 C950 1.381 . S
C948 C954 1.383 . S
C949 C945 1.495 . S
C949 H955 0.959 . S
C949 H956 0.961 . S
C949 H957 0.960 . S
C950 C948 1.381 . S
C950 C951 1.394 . S
C950 H958 0.930 . S
C951 C950 1.394 . S
C951 C952 1.383 . S
C951 H959 0.929 . S
C952 C951 1.383 . S
C952 C953 1.377 . S
C953 H937 0.930 . S
C953 C952 1.377 . S
C953 C954 1.379 . S
C954 H938 0.931 . S
C954 C948 1.383 . S
C954 C953 1.379 . S
H955 C949 0.959 . S
H956 C949 0.961 . S
H957 C949 0.960 . S
H958 C950 0.930 . S
H959 C951 0.929 . S
H960 C968 0.929 . S
H961 C970 0.930 . S
H962 C972 0.930 . S
H963 C975 0.929 . S
H964 C978 0.930 . S
H965 C980 0.960 . S
H966 C980 0.960 . S
H967 C980 0.960 . S
C968 H960 0.929 . S
C968 C969 1.377 . S
C968 C970 1.384 1_545 S
C969 C968 1.377 . S
C969 C975 1.390 . S
C970 H961 0.930 . S
C970 C968 1.384 1_565 S
C970 C971 1.375 . S
C971 C970 1.375 . S
C971 C972 1.372 1_565 S
C971 C976 1.514 . S
C972 H962 0.930 . S
C972 C971 1.372 1_545 S
C972 C975 1.386 . S
H973 C989 0.930 1_455 S
H974 C990 0.931 . S
C975 H963 0.929 . S
C975 C969 1.390 . S
C975 C972 1.386 . S
C976 C971 1.514 . S
C976 C978 1.395 . S
C976 C979 1.403 . S
H977 C983 0.930 . S
C978 H964 0.930 . S
C978 C976 1.395 . S
C978 C981 1.403 . S
C979 C976 1.403 . S
C979 C980 1.524 1_565 S
C979 C983 1.400 . S
C980 H965 0.960 . S
C980 H966 0.960 . S
C980 H967 0.960 . S
C980 C979 1.524 1_545 S
C981 C978 1.403 . S
C981 C982 1.392 . S
C981 C985 1.495 . S
C982 C981 1.392 . S
C982 C983 1.385 . S
C982 C984 1.478 . S
C983 H977 0.930 . S
C983 C979 1.400 . S
C983 C982 1.385 . S
C984 C982 1.478 . S
C984 C986 1.381 . S
C984 C990 1.383 . S
C985 C981 1.495 . S
C985 H991 0.959 . S
C985 H992 0.961 . S
C985 H993 0.960 . S
C986 C984 1.381 . S
C986 C987 1.394 . S
C986 H994 0.930 . S
C987 C986 1.394 . S
C987 C988 1.383 . S
C987 H995 0.929 . S
C988 C987 1.383 . S
C988 C989 1.377 . S
C989 H973 0.930 1_655 S
C989 C988 1.377 . S
C989 C990 1.379 . S
C990 H974 0.931 . S
C990 C984 1.383 . S
C990 C989 1.379 . S
H991 C985 0.959 . S
H992 C985 0.961 . S
H993 C985 0.960 . S
H994 C986 0.930 . S
H995 C987 0.929 . S
H996 C1004 0.929 . S
H997 C1006 0.930 . S
H998 C1008 0.930 . S
H999 C1011 0.929 . S
H1000 C1014 0.930 . S
H1001 C1016 0.960 . S
H1002 C1016 0.960 . S
H1003 C1016 0.960 . S
C1004 H996 0.929 . S
C1004 C1005 1.377 . S
C1004 C1006 1.384 . S
C1005 C1004 1.377 . S
C1005 C1011 1.390 . S
C1006 H997 0.930 . S
C1006 C1004 1.384 . S
C1006 C1007 1.372 . S
C1007 C1006 1.372 . S
C1007 C1008 1.400 . S
C1007 C1012 1.490 . S
C1008 H998 0.930 . S
C1008 C1007 1.400 . S
C1008 C1011 1.386 . S
H1009 C1025 0.930 . S
H1010 C1026 0.931 . S
C1011 H999 0.929 . S
C1011 C1005 1.390 . S
C1011 C1008 1.386 . S
C1012 C1007 1.490 . S
C1012 C1014 1.395 . S
C1012 C1015 1.403 . S
H1013 C1019 0.930 . S
C1014 H1000 0.930 . S
C1014 C1012 1.395 . S
C1014 C1017 1.403 . S
C1015 C1012 1.403 . S
C1015 C1016 1.524 . S
C1015 C1019 1.400 . S
C1016 H1001 0.960 . S
C1016 H1002 0.960 . S
C1016 H1003 0.960 . S
C1016 C1015 1.524 . S
C1017 C1014 1.403 . S
C1017 C1018 1.392 . S
C1017 C1021 1.495 . S
C1018 C1017 1.392 . S
C1018 C1019 1.385 . S
C1018 C1020 1.478 . S
C1019 H1013 0.930 . S
C1019 C1015 1.400 . S
C1019 C1018 1.385 . S
C1020 C1018 1.478 . S
C1020 C1022 1.381 . S
C1020 C1026 1.383 . S
C1021 C1017 1.495 . S
C1021 H1027 0.959 . S
C1021 H1028 0.961 . S
C1021 H1029 0.960 . S
C1022 C1020 1.381 . S
C1022 C1023 1.394 . S
C1022 H1030 0.930 . S
C1023 C1022 1.394 . S
C1023 C1024 1.383 . S
C1023 H1031 0.929 . S
C1024 C1023 1.383 . S
C1024 C1025 1.377 . S
C1025 H1009 0.930 . S
C1025 C1024 1.377 . S
C1025 C1026 1.379 . S
C1026 H1010 0.931 . S
C1026 C1020 1.383 . S
C1026 C1025 1.379 . S
H1027 C1021 0.959 . S
H1028 C1021 0.961 . S
H1029 C1021 0.960 . S
H1030 C1022 0.930 . S
H1031 C1023 0.929 . S
H1032 C1040 0.929 . S
H1033 C1042 0.930 . S
H1034 C1044 0.930 . S
H1035 C1047 0.929 . S
H1036 C1050 0.930 . S
H1037 C1052 0.960 . S
H1038 C1052 0.960 . S
H1039 C1052 0.960 . S
C1040 H1032 0.929 . S
C1040 C1041 1.377 . S
C1040 C1042 1.384 . S
C1041 C1040 1.377 . S
C1041 C1047 1.390 . S
C1042 H1033 0.930 . S
C1042 C1040 1.384 . S
C1042 C1043 1.372 . S
C1043 C1042 1.372 . S
C1043 C1044 1.400 . S
C1043 C1048 1.490 . S
C1044 H1034 0.930 . S
C1044 C1043 1.400 . S
C1044 C1047 1.386 . S
H1045 C1061 0.930 . S
H1046 C1062 0.931 . S
C1047 H1035 0.929 . S
C1047 C1041 1.390 . S
C1047 C1044 1.386 . S
C1048 C1043 1.490 . S
C1048 C1050 1.395 . S
C1048 C1051 1.403 . S
H1049 C1055 0.930 . S
C1050 H1036 0.930 . S
C1050 C1048 1.395 . S
C1050 C1053 1.403 . S
C1051 C1048 1.403 . S
C1051 C1052 1.524 . S
C1051 C1055 1.400 . S
C1052 H1037 0.960 . S
C1052 H1038 0.960 . S
C1052 H1039 0.960 . S
C1052 C1051 1.524 . S
C1053 C1050 1.403 . S
C1053 C1054 1.392 . S
C1053 C1057 1.495 . S
C1054 C1053 1.392 . S
C1054 C1055 1.385 . S
C1054 C1056 1.478 . S
C1055 H1049 0.930 . S
C1055 C1051 1.400 . S
C1055 C1054 1.385 . S
C1056 C1054 1.478 . S
C1056 C1058 1.381 . S
C1056 C1062 1.383 . S
C1057 C1053 1.495 . S
C1057 H1063 0.959 . S
C1057 H1064 0.961 . S
C1057 H1065 0.960 . S
C1058 C1056 1.381 . S
C1058 C1059 1.394 . S
C1058 H1066 0.930 . S
C1059 C1058 1.394 . S
C1059 C1060 1.383 . S
C1059 H1067 0.929 . S
C1060 C1059 1.383 . S
C1060 C1061 1.377 . S
C1061 H1045 0.930 . S
C1061 C1060 1.377 . S
C1061 C1062 1.379 . S
C1062 H1046 0.931 . S
C1062 C1056 1.383 . S
C1062 C1061 1.379 . S
H1063 C1057 0.959 . S
H1064 C1057 0.961 . S
H1065 C1057 0.960 . S
H1066 C1058 0.930 . S
H1067 C1059 0.929 . S
H1068 C1076 0.929 . S
H1069 C1078 0.930 1_565 S
H1070 C1080 0.930 . S
H1071 C1083 0.929 . S
H1072 C1086 0.930 . S
H1073 C1088 0.960 . S
H1074 C1088 0.960 . S
H1075 C1088 0.960 . S
C1076 H1068 0.929 . S
C1076 C1077 1.377 . S
C1076 C1078 1.384 . S
C1077 C1076 1.377 . S
C1077 C1083 1.390 . S
C1078 H1069 0.930 1_545 S
C1078 C1076 1.384 . S
C1078 C1079 1.372 1_545 S
C1079 C1078 1.372 1_565 S
C1079 C1080 1.400 1_565 S
C1079 C1084 1.490 . S
C1080 H1070 0.930 . S
C1080 C1079 1.400 1_545 S
C1080 C1083 1.386 . S
H1081 C1097 0.930 . S
H1082 C1098 0.931 . S
C1083 H1071 0.929 . S
C1083 C1077 1.390 . S
C1083 C1080 1.386 . S
C1084 C1079 1.490 . S
C1084 C1086 1.395 . S
C1084 C1087 1.403 . S
H1085 C1091 0.930 . S
C1086 H1072 0.930 . S
C1086 C1084 1.395 . S
C1086 C1089 1.403 . S
C1087 C1084 1.403 . S
C1087 C1088 1.524 . S
C1087 C1091 1.400 . S
C1088 H1073 0.960 . S
C1088 H1074 0.960 . S
C1088 H1075 0.960 . S
C1088 C1087 1.524 . S
C1089 C1086 1.403 . S
C1089 C1090 1.392 . S
C1089 C1093 1.495 . S
C1090 C1089 1.392 . S
C1090 C1091 1.385 . S
C1090 C1092 1.478 . S
C1091 H1085 0.930 . S
C1091 C1087 1.400 . S
C1091 C1090 1.385 . S
C1092 C1090 1.478 . S
C1092 C1094 1.381 . S
C1092 C1098 1.383 . S
C1093 C1089 1.495 . S
C1093 H1099 0.959 . S
C1093 H1100 0.961 . S
C1093 H1101 0.960 . S
C1094 C1092 1.381 . S
C1094 C1095 1.394 . S
C1094 H1102 0.930 . S
C1095 C1094 1.394 . S
C1095 C1096 1.383 . S
C1095 H1103 0.929 . S
C1096 C1095 1.383 . S
C1096 C1097 1.377 . S
C1097 H1081 0.930 . S
C1097 C1096 1.377 . S
C1097 C1098 1.379 . S
C1098 H1082 0.931 . S
C1098 C1092 1.383 . S
C1098 C1097 1.379 . S
H1099 C1093 0.959 . S
H1100 C1093 0.961 . S
H1101 C1093 0.960 . S
H1102 C1094 0.930 . S
H1103 C1095 0.929 . S
H1104 C1112 0.929 . S
H1105 C1114 0.930 . S
H1106 C1116 0.930 . S
H1107 C1119 0.929 . S
H1108 C1122 0.930 . S
H1109 C1124 0.960 . S
H1110 C1124 0.960 . S
H1111 C1124 0.960 . S
C1112 H1104 0.929 . S
C1112 C1113 1.377 . S
C1112 C1114 1.384 . S
C1113 C1112 1.377 . S
C1113 C1119 1.390 . S
C1114 H1105 0.930 . S
C1114 C1112 1.384 . S
C1114 C1115 1.372 . S
C1115 C1114 1.372 . S
C1115 C1116 1.400 . S
C1115 C1120 1.490 . S
C1116 H1106 0.930 . S
C1116 C1115 1.400 . S
C1116 C1119 1.386 . S
H1117 C1133 0.930 . S
H1118 C1134 0.931 . S
C1119 H1107 0.929 . S
C1119 C1113 1.390 . S
C1119 C1116 1.386 . S
C1120 C1115 1.490 . S
C1120 C1122 1.395 . S
C1120 C1123 1.403 . S
H1121 C1127 0.930 . S
C1122 H1108 0.930 . S
C1122 C1120 1.395 . S
C1122 C1125 1.403 . S
C1123 C1120 1.403 . S
C1123 C1124 1.524 . S
C1123 C1127 1.400 . S
C1124 H1109 0.960 . S
C1124 H1110 0.960 . S
C1124 H1111 0.960 . S
C1124 C1123 1.524 . S
C1125 C1122 1.403 . S
C1125 C1126 1.392 . S
C1125 C1129 1.495 . S
C1126 C1125 1.392 . S
C1126 C1127 1.385 . S
C1126 C1128 1.478 . S
C1127 H1121 0.930 . S
C1127 C1123 1.400 . S
C1127 C1126 1.385 . S
C1128 C1126 1.478 . S
C1128 C1130 1.381 . S
C1128 C1134 1.383 . S
C1129 C1125 1.495 . S
C1129 H1135 0.959 . S
C1129 H1136 0.961 . S
C1129 H1137 0.960 . S
C1130 C1128 1.381 . S
C1130 C1131 1.394 . S
C1130 H1138 0.930 . S
C1131 C1130 1.394 . S
C1131 C1132 1.383 . S
C1131 H1139 0.929 . S
C1132 C1131 1.383 . S
C1132 C1133 1.377 . S
C1133 H1117 0.930 . S
C1133 C1132 1.377 . S
C1133 C1134 1.379 . S
C1134 H1118 0.931 . S
C1134 C1128 1.383 . S
C1134 C1133 1.379 . S
H1135 C1129 0.959 . S
H1136 C1129 0.961 . S
H1137 C1129 0.960 . S
H1138 C1130 0.930 . S
H1139 C1131 0.929 . S
H1140 C1148 0.929 . S
H1141 C1150 0.930 . S
H1142 C1152 0.930 . S
H1143 C1155 0.929 . S
H1144 C1158 0.930 . S
H1145 C1160 0.960 . S
H1146 C1160 0.960 . S
H1147 C1160 0.960 . S
C1148 H1140 0.929 . S
C1148 C1149 1.377 . S
C1148 C1150 1.384 . S
C1149 C1148 1.377 . S
C1149 C1155 1.390 . S
C1150 H1141 0.930 . S
C1150 C1148 1.384 . S
C1150 C1151 1.372 . S
C1151 C1150 1.372 . S
C1151 C1152 1.400 . S
C1151 C1156 1.490 . S
C1152 H1142 0.930 . S
C1152 C1151 1.400 . S
C1152 C1155 1.386 . S
H1153 C1169 0.930 . S
H1154 C1170 0.931 . S
C1155 H1143 0.929 . S
C1155 C1149 1.390 . S
C1155 C1152 1.386 . S
C1156 C1151 1.490 . S
C1156 C1158 1.395 . S
C1156 C1159 1.403 . S
H1157 C1163 0.930 . S
C1158 H1144 0.930 . S
C1158 C1156 1.395 . S
C1158 C1161 1.403 . S
C1159 C1156 1.403 . S
C1159 C1160 1.524 . S
C1159 C1163 1.400 . S
C1160 H1145 0.960 . S
C1160 H1146 0.960 . S
C1160 H1147 0.960 . S
C1160 C1159 1.524 . S
C1161 C1158 1.403 . S
C1161 C1162 1.392 . S
C1161 C1165 1.495 . S
C1162 C1161 1.392 . S
C1162 C1163 1.385 . S
C1162 C1164 1.478 . S
C1163 H1157 0.930 . S
C1163 C1159 1.400 . S
C1163 C1162 1.385 . S
C1164 C1162 1.478 . S
C1164 C1166 1.381 . S
C1164 C1170 1.383 . S
C1165 C1161 1.495 . S
C1165 H1171 0.959 . S
C1165 H1172 0.961 . S
C1165 H1173 0.960 . S
C1166 C1164 1.381 . S
C1166 C1167 1.394 . S
C1166 H1174 0.930 . S
C1167 C1166 1.394 . S
C1167 C1168 1.383 . S
C1167 H1175 0.929 . S
C1168 C1167 1.383 . S
C1168 C1169 1.377 . S
C1169 H1153 0.930 . S
C1169 C1168 1.377 . S
C1169 C1170 1.379 . S
C1170 H1154 0.931 . S
C1170 C1164 1.383 . S
C1170 C1169 1.379 . S
H1171 C1165 0.959 . S
H1172 C1165 0.961 . S
H1173 C1165 0.960 . S
H1174 C1166 0.930 . S
H1175 C1167 0.929 . S
H1176 C1184 0.929 1_554 S
H1177 C1186 0.930 . S
H1178 C1188 0.930 . S
H1179 C1191 0.929 . S
H1180 C1194 0.930 . S
H1181 C1196 0.960 . S
H1182 C1196 0.960 . S
H1183 C1196 0.960 . S
C1184 H1176 0.929 1_556 S
C1184 C1185 1.377 1_556 S
C1184 C1186 1.384 . S
C1185 C1184 1.377 1_554 S
C1185 C1191 1.390 1_554 S
C1186 H1177 0.930 . S
C1186 C1184 1.384 . S
C1186 C1187 1.372 . S
C1187 C1186 1.372 . S
C1187 C1188 1.400 . S
C1187 C1192 1.490 . S
C1188 H1178 0.930 . S
C1188 C1187 1.400 . S
C1188 C1191 1.386 . S
H1189 C1205 0.930 . S
H1190 C1206 0.931 . S
C1191 H1179 0.929 . S
C1191 C1185 1.390 1_556 S
C1191 C1188 1.386 . S
C1192 C1187 1.490 . S
C1192 C1194 1.395 . S
C1192 C1195 1.403 . S
H1193 C1199 0.930 . S
C1194 H1180 0.930 . S
C1194 C1192 1.395 . S
C1194 C1197 1.403 . S
C1195 C1192 1.403 . S
C1195 C1196 1.524 . S
C1195 C1199 1.400 . S
C1196 H1181 0.960 . S
C1196 H1182 0.960 . S
C1196 H1183 0.960 . S
C1196 C1195 1.524 . S
C1197 C1194 1.403 . S
C1197 C1198 1.392 . S
C1197 C1201 1.495 . S
C1198 C1197 1.392 . S
C1198 C1199 1.385 . S
C1198 C1200 1.478 . S
C1199 H1193 0.930 . S
C1199 C1195 1.400 . S
C1199 C1198 1.385 . S
C1200 C1198 1.478 . S
C1200 C1202 1.381 . S
C1200 C1206 1.383 . S
C1201 C1197 1.495 . S
C1201 H1207 0.959 . S
C1201 H1208 0.961 . S
C1201 H1209 0.960 . S
C1202 C1200 1.381 . S
C1202 C1203 1.394 . S
C1202 H1210 0.930 . S
C1203 C1202 1.394 . S
C1203 C1204 1.383 . S
C1203 H1211 0.929 . S
C1204 C1203 1.383 . S
C1204 C1205 1.377 . S
C1205 H1189 0.930 . S
C1205 C1204 1.377 . S
C1205 C1206 1.379 . S
C1206 H1190 0.931 . S
C1206 C1200 1.383 . S
C1206 C1205 1.379 . S
H1207 C1201 0.959 . S
H1208 C1201 0.961 . S
H1209 C1201 0.960 . S
H1210 C1202 0.930 . S
H1211 C1203 0.929 . S
H1212 C1220 0.929 . S
H1213 C1222 0.930 . S
H1214 C1224 0.930 . S
H1215 C1227 0.929 . S
H1216 C1230 0.930 . S
H1217 C1232 0.960 . S
H1218 C1232 0.960 . S
H1219 C1232 0.960 . S
C1220 H1212 0.929 . S
C1220 C1221 1.377 . S
C1220 C1222 1.384 . S
C1221 C1220 1.377 . S
C1221 C1227 1.390 . S
C1222 H1213 0.930 . S
C1222 C1220 1.384 . S
C1222 C1223 1.372 . S
C1223 C1222 1.372 . S
C1223 C1224 1.400 . S
C1223 C1228 1.490 . S
C1224 H1214 0.930 . S
C1224 C1223 1.400 . S
C1224 C1227 1.386 . S
H1225 C1241 0.930 . S
H1226 C1242 0.931 . S
C1227 H1215 0.929 . S
C1227 C1221 1.390 . S
C1227 C1224 1.386 . S
C1228 C1223 1.490 . S
C1228 C1230 1.395 . S
C1228 C1231 1.403 . S
H1229 C1235 0.930 . S
C1230 H1216 0.930 . S
C1230 C1228 1.395 . S
C1230 C1233 1.403 . S
C1231 C1228 1.403 . S
C1231 C1232 1.524 . S
C1231 C1235 1.400 . S
C1232 H1217 0.960 . S
C1232 H1218 0.960 . S
C1232 H1219 0.960 . S
C1232 C1231 1.524 . S
C1233 C1230 1.403 . S
C1233 C1234 1.392 . S
C1233 C1237 1.495 . S
C1234 C1233 1.392 . S
C1234 C1235 1.385 . S
C1234 C1236 1.478 . S
C1235 H1229 0.930 . S
C1235 C1231 1.400 . S
C1235 C1234 1.385 . S
C1236 C1234 1.478 . S
C1236 C1238 1.381 . S
C1236 C1242 1.383 . S
C1237 C1233 1.495 . S
C1237 H1243 0.959 . S
C1237 H1244 0.961 . S
C1237 H1245 0.960 . S
C1238 C1236 1.381 . S
C1238 C1239 1.394 . S
C1238 H1246 0.930 . S
C1239 C1238 1.394 . S
C1239 C1240 1.383 . S
C1239 H1247 0.929 . S
C1240 C1239 1.383 . S
C1240 C1241 1.377 . S
C1241 H1225 0.930 . S
C1241 C1240 1.377 . S
C1241 C1242 1.379 . S
C1242 H1226 0.931 . S
C1242 C1236 1.383 . S
C1242 C1241 1.379 . S
H1243 C1237 0.959 . S
H1244 C1237 0.961 . S
H1245 C1237 0.960 . S
H1246 C1238 0.930 . S
H1247 C1239 0.929 . S
H1248 C1256 0.929 1_554 S
H1249 C1258 0.930 . S
H1250 C1260 0.930 . S
H1251 C1263 0.929 . S
H1252 C1266 0.930 . S
H1253 C1268 0.960 . S
H1254 C1268 0.960 . S
H1255 C1268 0.960 . S
C1256 H1248 0.929 1_556 S
C1256 C1257 1.377 . S
C1256 C1258 1.384 . S
C1257 C1256 1.377 . S
C1257 C1263 1.390 . S
C1258 H1249 0.930 . S
C1258 C1256 1.384 . S
C1258 C1259 1.372 . S
C1259 C1258 1.372 . S
C1259 C1260 1.400 . S
C1259 C1264 1.490 . S
C1260 H1250 0.930 . S
C1260 C1259 1.400 . S
C1260 C1263 1.386 . S
H1261 C1277 0.930 . S
H1262 C1278 0.931 . S
C1263 H1251 0.929 . S
C1263 C1257 1.390 . S
C1263 C1260 1.386 . S
C1264 C1259 1.490 . S
C1264 C1266 1.395 . S
C1264 C1267 1.403 . S
H1265 C1271 0.930 . S
C1266 H1252 0.930 . S
C1266 C1264 1.395 . S
C1266 C1269 1.403 . S
C1267 C1264 1.403 . S
C1267 C1268 1.524 . S
C1267 C1271 1.400 . S
C1268 H1253 0.960 . S
C1268 H1254 0.960 . S
C1268 H1255 0.960 . S
C1268 C1267 1.524 . S
C1269 C1266 1.403 . S
C1269 C1270 1.392 . S
C1269 C1273 1.495 . S
C1270 C1269 1.392 . S
C1270 C1271 1.385 . S
C1270 C1272 1.478 . S
C1271 H1265 0.930 . S
C1271 C1267 1.400 . S
C1271 C1270 1.385 . S
C1272 C1270 1.478 . S
C1272 C1274 1.381 . S
C1272 C1278 1.383 . S
C1273 C1269 1.495 . S
C1273 H1279 0.959 . S
C1273 H1280 0.961 . S
C1273 H1281 0.960 . S
C1274 C1272 1.381 . S
C1274 C1275 1.394 . S
C1274 H1282 0.930 . S
C1275 C1274 1.394 . S
C1275 C1276 1.383 . S
C1275 H1283 0.929 . S
C1276 C1275 1.383 . S
C1276 C1277 1.377 . S
C1277 H1261 0.930 . S
C1277 C1276 1.377 . S
C1277 C1278 1.379 . S
C1278 H1262 0.931 . S
C1278 C1272 1.383 . S
C1278 C1277 1.379 . S
H1279 C1273 0.959 . S
H1280 C1273 0.961 . S
H1281 C1273 0.960 . S
H1282 C1274 0.930 . S
H1283 C1275 0.929 . S
H1284 C1292 0.929 . S
H1285 C1294 0.930 . S
H1286 C1296 0.930 . S
H1287 C1299 0.929 . S
H1288 C1302 0.930 . S
H1289 C1304 0.960 . S
H1290 C1304 0.960 . S
H1291 C1304 0.960 . S
C1292 H1284 0.929 . S
C1292 C1293 1.377 . S
C1292 C1294 1.384 . S
C1293 C1292 1.377 . S
C1293 C1299 1.390 . S
C1294 H1285 0.930 . S
C1294 C1292 1.384 . S
C1294 C1295 1.372 . S
C1295 C1294 1.372 . S
C1295 C1296 1.400 . S
C1295 C1300 1.490 . S
C1296 H1286 0.930 . S
C1296 C1295 1.400 . S
C1296 C1299 1.386 . S
H1297 C1313 0.930 . S
H1298 C1314 0.931 . S
C1299 H1287 0.929 . S
C1299 C1293 1.390 . S
C1299 C1296 1.386 . S
C1300 C1295 1.490 . S
C1300 C1302 1.395 . S
C1300 C1303 1.403 . S
H1301 C1307 0.930 . S
C1302 H1288 0.930 . S
C1302 C1300 1.395 . S
C1302 C1305 1.403 . S
C1303 C1300 1.403 . S
C1303 C1304 1.524 . S
C1303 C1307 1.400 . S
C1304 H1289 0.960 . S
C1304 H1290 0.960 . S
C1304 H1291 0.960 . S
C1304 C1303 1.524 . S
C1305 C1302 1.403 . S
C1305 C1306 1.392 . S
C1305 C1309 1.495 . S
C1306 C1305 1.392 . S
C1306 C1307 1.385 . S
C1306 C1308 1.478 . S
C1307 H1301 0.930 . S
C1307 C1303 1.400 . S
C1307 C1306 1.385 . S
C1308 C1306 1.478 . S
C1308 C1310 1.381 . S
C1308 C1314 1.383 . S
C1309 C1305 1.495 . S
C1309 H1315 0.959 . S
C1309 H1316 0.961 . S
C1309 H1317 0.960 . S
C1310 C1308 1.381 . S
C1310 C1311 1.394 . S
C1310 H1318 0.930 . S
C1311 C1310 1.394 . S
C1311 C1312 1.383 . S
C1311 H1319 0.929 . S
C1312 C1311 1.383 . S
C1312 C1313 1.377 . S
C1313 H1297 0.930 . S
C1313 C1312 1.377 . S
C1313 C1314 1.379 . S
C1314 H1298 0.931 . S
C1314 C1308 1.383 . S
C1314 C1313 1.379 . S
H1315 C1309 0.959 . S
H1316 C1309 0.961 . S
H1317 C1309 0.960 . S
H1318 C1310 0.930 . S
H1319 C1311 0.929 . S
H1320 C1328 0.929 1_556 S
H1321 C1330 0.930 . S
H1322 C1332 0.930 . S
H1323 C1335 0.929 . S
H1324 C1338 0.930 . S
H1325 C1340 0.960 . S
H1326 C1340 0.960 . S
H1327 C1340 0.960 . S
C1328 H1320 0.929 1_554 S
C1328 C1329 1.377 1_554 S
C1328 C1330 1.384 . S
C1329 C1328 1.377 1_556 S
C1329 C1335 1.390 1_556 S
C1330 H1321 0.930 . S
C1330 C1328 1.384 . S
C1330 C1331 1.372 . S
C1331 C1330 1.372 . S
C1331 C1332 1.400 . S
C1331 C1336 1.490 . S
C1332 H1322 0.930 . S
C1332 C1331 1.400 . S
C1332 C1335 1.386 . S
H1333 C1349 0.930 . S
H1334 C1350 0.931 . S
C1335 H1323 0.929 . S
C1335 C1329 1.390 1_554 S
C1335 C1332 1.386 . S
C1336 C1331 1.490 . S
C1336 C1338 1.395 . S
C1336 C1339 1.403 . S
H1337 C1343 0.930 . S
C1338 H1324 0.930 . S
C1338 C1336 1.395 . S
C1338 C1341 1.403 . S
C1339 C1336 1.403 . S
C1339 C1340 1.524 . S
C1339 C1343 1.400 . S
C1340 H1325 0.960 . S
C1340 H1326 0.960 . S
C1340 H1327 0.960 . S
C1340 C1339 1.524 . S
C1341 C1338 1.403 . S
C1341 C1342 1.392 . S
C1341 C1345 1.495 . S
C1342 C1341 1.392 . S
C1342 C1343 1.385 . S
C1342 C1344 1.478 . S
C1343 H1337 0.930 . S
C1343 C1339 1.400 . S
C1343 C1342 1.385 . S
C1344 C1342 1.478 . S
C1344 C1346 1.381 . S
C1344 C1350 1.383 . S
C1345 C1341 1.495 . S
C1345 H1351 0.959 . S
C1345 H1352 0.961 . S
C1345 H1353 0.960 . S
C1346 C1344 1.381 . S
C1346 C1347 1.394 . S
C1346 H1354 0.930 . S
C1347 C1346 1.394 . S
C1347 C1348 1.383 . S
C1347 H1355 0.929 . S
C1348 C1347 1.383 . S
C1348 C1349 1.377 . S
C1349 H1333 0.930 . S
C1349 C1348 1.377 . S
C1349 C1350 1.379 . S
C1350 H1334 0.931 . S
C1350 C1344 1.383 . S
C1350 C1349 1.379 . S
H1351 C1345 0.959 . S
H1352 C1345 0.961 . S
H1353 C1345 0.960 . S
H1354 C1346 0.930 . S
H1355 C1347 0.929 . S
H1356 C1364 0.929 . S
H1357 C1366 0.930 . S
H1358 C1368 0.930 . S
H1359 C1371 0.929 . S
H1360 C1374 0.930 . S
H1361 C1376 0.960 . S
H1362 C1376 0.960 . S
H1363 C1376 0.960 . S
C1364 H1356 0.929 . S
C1364 C1365 1.377 . S
C1364 C1366 1.384 . S
C1365 C1364 1.377 . S
C1365 C1371 1.390 . S
C1366 H1357 0.930 . S
C1366 C1364 1.384 . S
C1366 C1367 1.372 . S
C1367 C1366 1.372 . S
C1367 C1368 1.400 . S
C1367 C1372 1.490 . S
C1368 H1358 0.930 . S
C1368 C1367 1.400 . S
C1368 C1371 1.386 . S
H1369 C1385 0.930 . S
H1370 C1386 0.931 . S
C1371 H1359 0.929 . S
C1371 C1365 1.390 . S
C1371 C1368 1.386 . S
C1372 C1367 1.490 . S
C1372 C1374 1.395 . S
C1372 C1375 1.403 . S
H1373 C1379 0.930 . S
C1374 H1360 0.930 . S
C1374 C1372 1.395 . S
C1374 C1377 1.403 . S
C1375 C1372 1.403 . S
C1375 C1376 1.524 . S
C1375 C1379 1.400 . S
C1376 H1361 0.960 . S
C1376 H1362 0.960 . S
C1376 H1363 0.960 . S
C1376 C1375 1.524 . S
C1377 C1374 1.403 . S
C1377 C1378 1.392 . S
C1377 C1381 1.495 . S
C1378 C1377 1.392 . S
C1378 C1379 1.385 . S
C1378 C1380 1.478 . S
C1379 H1373 0.930 . S
C1379 C1375 1.400 . S
C1379 C1378 1.385 . S
C1380 C1378 1.478 . S
C1380 C1382 1.381 . S
C1380 C1386 1.383 . S
C1381 C1377 1.495 . S
C1381 H1387 0.959 . S
C1381 H1388 0.961 . S
C1381 H1389 0.960 . S
C1382 C1380 1.381 . S
C1382 C1383 1.394 . S
C1382 H1390 0.930 . S
C1383 C1382 1.394 . S
C1383 C1384 1.383 . S
C1383 H1391 0.929 . S
C1384 C1383 1.383 . S
C1384 C1385 1.377 . S
C1385 H1369 0.930 . S
C1385 C1384 1.377 . S
C1385 C1386 1.379 . S
C1386 H1370 0.931 . S
C1386 C1380 1.383 . S
C1386 C1385 1.379 . S
H1387 C1381 0.959 . S
H1388 C1381 0.961 . S
H1389 C1381 0.960 . S
H1390 C1382 0.930 . S
H1391 C1383 0.929 . S
H1392 C1400 0.929 . S
H1393 C1402 0.930 . S
H1394 C1404 0.930 . S
H1395 C1407 0.929 . S
H1396 C1410 0.930 . S
H1397 C1412 0.960 . S
H1398 C1412 0.960 . S
H1399 C1412 0.960 . S
C1400 H1392 0.929 . S
C1400 C1401 1.377 . S
C1400 C1402 1.384 . S
C1401 C1400 1.377 . S
C1401 C1407 1.390 . S
C1402 H1393 0.930 . S
C1402 C1400 1.384 . S
C1402 C1403 1.372 . S
C1403 C1402 1.372 . S
C1403 C1404 1.400 . S
C1403 C1408 1.490 . S
C1404 H1394 0.930 . S
C1404 C1403 1.400 . S
C1404 C1407 1.386 . S
H1405 C1421 0.930 . S
H1406 C1422 0.931 . S
C1407 H1395 0.929 . S
C1407 C1401 1.390 . S
C1407 C1404 1.386 . S
C1408 C1403 1.490 . S
C1408 C1410 1.395 . S
C1408 C1411 1.403 . S
H1409 C1415 0.930 . S
C1410 H1396 0.930 . S
C1410 C1408 1.395 . S
C1410 C1413 1.403 . S
C1411 C1408 1.403 . S
C1411 C1412 1.524 . S
C1411 C1415 1.400 . S
C1412 H1397 0.960 . S
C1412 H1398 0.960 . S
C1412 H1399 0.960 . S
C1412 C1411 1.524 . S
C1413 C1410 1.403 . S
C1413 C1414 1.392 . S
C1413 C1417 1.495 . S
C1414 C1413 1.392 . S
C1414 C1415 1.385 . S
C1414 C1416 1.478 . S
C1415 H1409 0.930 . S
C1415 C1411 1.400 . S
C1415 C1414 1.385 . S
C1416 C1414 1.478 . S
C1416 C1418 1.381 . S
C1416 C1422 1.383 . S
C1417 C1413 1.495 . S
C1417 H1423 0.959 . S
C1417 H1424 0.961 . S
C1417 H1425 0.960 . S
C1418 C1416 1.381 . S
C1418 C1419 1.394 . S
C1418 H1426 0.930 . S
C1419 C1418 1.394 . S
C1419 C1420 1.383 . S
C1419 H1427 0.929 . S
C1420 C1419 1.383 . S
C1420 C1421 1.377 . S
C1421 H1405 0.930 . S
C1421 C1420 1.377 . S
C1421 C1422 1.379 . S
C1422 H1406 0.931 . S
C1422 C1416 1.383 . S
C1422 C1421 1.379 . S
H1423 C1417 0.959 . S
H1424 C1417 0.961 . S
H1425 C1417 0.960 . S
H1426 C1418 0.930 . S
H1427 C1419 0.929 . S
H1428 C1436 0.929 . S
H1429 C1438 0.930 . S
H1430 C1440 0.930 . S
H1431 C1443 0.929 . S
H1432 C1446 0.930 . S
H1433 C1448 0.960 . S
H1434 C1448 0.960 . S
H1435 C1448 0.960 . S
C1436 H1428 0.929 . S
C1436 C1437 1.377 . S
C1436 C1438 1.384 . S
C1437 C1436 1.377 . S
C1437 C1443 1.390 . S
C1438 H1429 0.930 . S
C1438 C1436 1.384 . S
C1438 C1439 1.372 . S
C1439 C1438 1.372 . S
C1439 C1440 1.400 . S
C1439 C1444 1.490 . S
C1440 H1430 0.930 . S
C1440 C1439 1.400 . S
C1440 C1443 1.386 . S
H1441 C1457 0.930 . S
H1442 C1458 0.931 . S
C1443 H1431 0.929 . S
C1443 C1437 1.390 . S
C1443 C1440 1.386 . S
C1444 C1439 1.490 . S
C1444 C1446 1.395 . S
C1444 C1447 1.403 . S
H1445 C1451 0.930 . S
C1446 H1432 0.930 . S
C1446 C1444 1.395 . S
C1446 C1449 1.403 . S
C1447 C1444 1.403 . S
C1447 C1448 1.524 . S
C1447 C1451 1.400 . S
C1448 H1433 0.960 . S
C1448 H1434 0.960 . S
C1448 H1435 0.960 . S
C1448 C1447 1.524 . S
C1449 C1446 1.403 . S
C1449 C1450 1.392 . S
C1449 C1453 1.495 . S
C1450 C1449 1.392 . S
C1450 C1451 1.385 . S
C1450 C1452 1.478 . S
C1451 H1445 0.930 . S
C1451 C1447 1.400 . S
C1451 C1450 1.385 . S
C1452 C1450 1.478 . S
C1452 C1454 1.381 . S
C1452 C1458 1.383 . S
C1453 C1449 1.495 . S
C1453 H1459 0.959 . S
C1453 H1460 0.961 . S
C1453 H1461 0.960 . S
C1454 C1452 1.381 . S
C1454 C1455 1.394 . S
C1454 H1462 0.930 . S
C1455 C1454 1.394 . S
C1455 C1456 1.383 . S
C1455 H1463 0.929 . S
C1456 C1455 1.383 . S
C1456 C1457 1.377 . S
C1457 H1441 0.930 . S
C1457 C1456 1.377 . S
C1457 C1458 1.379 . S
C1458 H1442 0.931 . S
C1458 C1452 1.383 . S
C1458 C1457 1.379 . S
H1459 C1453 0.959 . S
H1460 C1453 0.961 . S
H1461 C1453 0.960 . S
H1462 C1454 0.930 . S
H1463 C1455 0.929 . S
H1464 C1472 0.929 . S
H1465 C1474 0.930 . S
H1466 C1476 0.930 . S
H1467 C1479 0.929 . S
H1468 C1482 0.930 . S
H1469 C1484 0.960 . S
H1470 C1484 0.960 . S
H1471 C1484 0.960 . S
C1472 H1464 0.929 . S
C1472 C1473 1.377 . S
C1472 C1474 1.384 . S
C1473 C1472 1.377 . S
C1473 C1479 1.390 . S
C1474 H1465 0.930 . S
C1474 C1472 1.384 . S
C1474 C1475 1.372 . S
C1475 C1474 1.372 . S
C1475 C1476 1.400 . S
C1475 C1480 1.490 . S
C1476 H1466 0.930 . S
C1476 C1475 1.400 . S
C1476 C1479 1.386 . S
H1477 C1493 0.930 . S
H1478 C1494 0.931 . S
C1479 H1467 0.929 . S
C1479 C1473 1.390 . S
C1479 C1476 1.386 . S
C1480 C1475 1.490 . S
C1480 C1482 1.395 . S
C1480 C1483 1.403 . S
H1481 C1487 0.930 . S
C1482 H1468 0.930 . S
C1482 C1480 1.395 . S
C1482 C1485 1.403 . S
C1483 C1480 1.403 . S
C1483 C1484 1.524 . S
C1483 C1487 1.400 . S
C1484 H1469 0.960 . S
C1484 H1470 0.960 . S
C1484 H1471 0.960 . S
C1484 C1483 1.524 . S
C1485 C1482 1.403 . S
C1485 C1486 1.392 . S
C1485 C1489 1.495 . S
C1486 C1485 1.392 . S
C1486 C1487 1.385 . S
C1486 C1488 1.478 . S
C1487 H1481 0.930 . S
C1487 C1483 1.400 . S
C1487 C1486 1.385 . S
C1488 C1486 1.478 . S
C1488 C1490 1.381 . S
C1488 C1494 1.383 . S
C1489 C1485 1.495 . S
C1489 H1495 0.959 . S
C1489 H1496 0.961 . S
C1489 H1497 0.960 . S
C1490 C1488 1.381 . S
C1490 C1491 1.394 . S
C1490 H1498 0.930 . S
C1491 C1490 1.394 . S
C1491 C1492 1.383 . S
C1491 H1499 0.929 . S
C1492 C1491 1.383 . S
C1492 C1493 1.377 . S
C1493 H1477 0.930 . S
C1493 C1492 1.377 . S
C1493 C1494 1.379 . S
C1494 H1478 0.931 . S
C1494 C1488 1.383 . S
C1494 C1493 1.379 . S
H1495 C1489 0.959 . S
H1496 C1489 0.961 . S
H1497 C1489 0.960 . S
H1498 C1490 0.930 . S
H1499 C1491 0.929 . S
H1500 C1508 0.929 . S
H1501 C1510 0.930 . S
H1502 C1512 0.930 . S
H1503 C1515 0.929 . S
H1504 C1518 0.930 . S
H1505 C1520 0.960 . S
H1506 C1520 0.960 . S
H1507 C1520 0.960 . S
C1508 H1500 0.929 . S
C1508 C1509 1.377 . S
C1508 C1510 1.384 . S
C1509 C1508 1.377 . S
C1509 C1515 1.390 . S
C1510 H1501 0.930 . S
C1510 C1508 1.384 . S
C1510 C1511 1.372 . S
C1511 C1510 1.372 . S
C1511 C1512 1.400 . S
C1511 C1516 1.490 . S
C1512 H1502 0.930 . S
C1512 C1511 1.400 . S
C1512 C1515 1.386 . S
H1513 C1529 0.930 . S
H1514 C1530 0.931 . S
C1515 H1503 0.929 . S
C1515 C1509 1.390 . S
C1515 C1512 1.386 . S
C1516 C1511 1.490 . S
C1516 C1518 1.395 . S
C1516 C1519 1.403 . S
H1517 C1523 0.930 . S
C1518 H1504 0.930 . S
C1518 C1516 1.395 . S
C1518 C1521 1.403 . S
C1519 C1516 1.403 . S
C1519 C1520 1.524 . S
C1519 C1523 1.400 . S
C1520 H1505 0.960 . S
C1520 H1506 0.960 . S
C1520 H1507 0.960 . S
C1520 C1519 1.524 . S
C1521 C1518 1.403 . S
C1521 C1522 1.392 . S
C1521 C1525 1.495 . S
C1522 C1521 1.392 . S
C1522 C1523 1.385 . S
C1522 C1524 1.478 . S
C1523 H1517 0.930 . S
C1523 C1519 1.400 . S
C1523 C1522 1.385 . S
C1524 C1522 1.478 . S
C1524 C1526 1.381 . S
C1524 C1530 1.383 . S
C1525 C1521 1.495 . S
C1525 H1531 0.959 . S
C1525 H1532 0.961 . S
C1525 H1533 0.960 . S
C1526 C1524 1.381 . S
C1526 C1527 1.394 . S
C1526 H1534 0.930 . S
C1527 C1526 1.394 . S
C1527 C1528 1.383 . S
C1527 H1535 0.929 . S
C1528 C1527 1.383 . S
C1528 C1529 1.377 . S
C1529 H1513 0.930 . S
C1529 C1528 1.377 . S
C1529 C1530 1.379 . S
C1530 H1514 0.931 . S
C1530 C1524 1.383 . S
C1530 C1529 1.379 . S
H1531 C1525 0.959 . S
H1532 C1525 0.961 . S
H1533 C1525 0.960 . S
H1534 C1526 0.930 . S
H1535 C1527 0.929 . S
H1536 C1544 0.929 . S
H1537 C1546 0.930 . S
H1538 C1548 0.930 . S
H1539 C1551 0.929 . S
H1540 C1554 0.930 . S
H1541 C1556 0.960 . S
H1542 C1556 0.960 . S
H1543 C1556 0.960 . S
C1544 H1536 0.929 . S
C1544 C1545 1.377 . S
C1544 C1546 1.384 . S
C1545 C1544 1.377 . S
C1545 C1551 1.390 . S
C1546 H1537 0.930 . S
C1546 C1544 1.384 . S
C1546 C1547 1.372 . S
C1547 C1546 1.372 . S
C1547 C1548 1.400 . S
C1547 C1552 1.490 . S
C1548 H1538 0.930 . S
C1548 C1547 1.400 . S
C1548 C1551 1.386 . S
H1549 C1565 0.930 . S
H1550 C1566 0.931 . S
C1551 H1539 0.929 . S
C1551 C1545 1.390 . S
C1551 C1548 1.386 . S
C1552 C1547 1.490 . S
C1552 C1554 1.395 . S
C1552 C1555 1.403 . S
H1553 C1559 0.930 . S
C1554 H1540 0.930 . S
C1554 C1552 1.395 . S
C1554 C1557 1.403 . S
C1555 C1552 1.403 . S
C1555 C1556 1.524 . S
C1555 C1559 1.400 . S
C1556 H1541 0.960 . S
C1556 H1542 0.960 . S
C1556 H1543 0.960 . S
C1556 C1555 1.524 . S
C1557 C1554 1.403 . S
C1557 C1558 1.392 . S
C1557 C1561 1.495 . S
C1558 C1557 1.392 . S
C1558 C1559 1.385 . S
C1558 C1560 1.478 . S
C1559 H1553 0.930 . S
C1559 C1555 1.400 . S
C1559 C1558 1.385 . S
C1560 C1558 1.478 . S
C1560 C1562 1.381 . S
C1560 C1566 1.383 . S
C1561 C1557 1.495 . S
C1561 H1567 0.959 . S
C1561 H1568 0.961 . S
C1561 H1569 0.960 . S
C1562 C1560 1.381 . S
C1562 C1563 1.394 . S
C1562 H1570 0.930 . S
C1563 C1562 1.394 . S
C1563 C1564 1.383 . S
C1563 H1571 0.929 . S
C1564 C1563 1.383 . S
C1564 C1565 1.377 . S
C1565 H1549 0.930 . S
C1565 C1564 1.377 . S
C1565 C1566 1.379 . S
C1566 H1550 0.931 . S
C1566 C1560 1.383 . S
C1566 C1565 1.379 . S
H1567 C1561 0.959 . S
H1568 C1561 0.961 . S
H1569 C1561 0.960 . S
H1570 C1562 0.930 . S
H1571 C1563 0.929 . S
H1572 C1580 0.929 . S
H1573 C1582 0.930 . S
H1574 C1584 0.930 . S
H1575 C1587 0.929 . S
H1576 C1590 0.930 . S
H1577 C1592 0.960 . S
H1578 C1592 0.960 . S
H1579 C1592 0.960 . S
C1580 H1572 0.929 . S
C1580 C1581 1.377 . S
C1580 C1582 1.384 . S
C1581 C1580 1.377 . S
C1581 C1587 1.390 . S
C1582 H1573 0.930 . S
C1582 C1580 1.384 . S
C1582 C1583 1.372 . S
C1583 C1582 1.372 . S
C1583 C1584 1.400 . S
C1583 C1588 1.490 . S
C1584 H1574 0.930 . S
C1584 C1583 1.400 . S
C1584 C1587 1.386 . S
H1585 C1601 0.930 . S
H1586 C1602 0.931 . S
C1587 H1575 0.929 . S
C1587 C1581 1.390 . S
C1587 C1584 1.386 . S
C1588 C1583 1.490 . S
C1588 C1590 1.395 . S
C1588 C1591 1.403 . S
H1589 C1595 0.930 . S
C1590 H1576 0.930 . S
C1590 C1588 1.395 . S
C1590 C1593 1.403 . S
C1591 C1588 1.403 . S
C1591 C1592 1.524 . S
C1591 C1595 1.400 . S
C1592 H1577 0.960 . S
C1592 H1578 0.960 . S
C1592 H1579 0.960 . S
C1592 C1591 1.524 . S
C1593 C1590 1.403 . S
C1593 C1594 1.392 . S
C1593 C1597 1.495 . S
C1594 C1593 1.392 . S
C1594 C1595 1.385 . S
C1594 C1596 1.478 . S
C1595 H1589 0.930 . S
C1595 C1591 1.400 . S
C1595 C1594 1.385 . S
C1596 C1594 1.478 . S
C1596 C1598 1.381 . S
C1596 C1602 1.383 . S
C1597 C1593 1.495 . S
C1597 H1603 0.959 . S
C1597 H1604 0.961 . S
C1597 H1605 0.960 . S
C1598 C1596 1.381 . S
C1598 C1599 1.394 . S
C1598 H1606 0.930 . S
C1599 C1598 1.394 . S
C1599 C1600 1.383 . S
C1599 H1607 0.929 . S
C1600 C1599 1.383 . S
C1600 C1601 1.377 . S
C1601 H1585 0.930 . S
C1601 C1600 1.377 . S
C1601 C1602 1.379 . S
C1602 H1586 0.931 . S
C1602 C1596 1.383 . S
C1602 C1601 1.379 . S
H1603 C1597 0.959 . S
H1604 C1597 0.961 . S
H1605 C1597 0.960 . S
H1606 C1598 0.930 . S
H1607 C1599 0.929 . S
H1608 C1616 0.929 . S
H1609 C1618 0.930 . S
H1610 C1620 0.930 . S
H1611 C1623 0.929 . S
H1612 C1626 0.930 . S
H1613 C1628 0.960 . S
H1614 C1628 0.960 . S
H1615 C1628 0.960 . S
C1616 H1608 0.929 . S
C1616 C1617 1.377 . S
C1616 C1618 1.384 . S
C1617 C1616 1.377 . S
C1617 C1623 1.390 . S
C1618 H1609 0.930 . S
C1618 C1616 1.384 . S
C1618 C1619 1.372 . S
C1619 C1618 1.372 . S
C1619 C1620 1.400 . S
C1619 C1624 1.490 . S
C1620 H1610 0.930 . S
C1620 C1619 1.400 . S
C1620 C1623 1.386 . S
H1621 C1637 0.930 . S
H1622 C1638 0.931 . S
C1623 H1611 0.929 . S
C1623 C1617 1.390 . S
C1623 C1620 1.386 . S
C1624 C1619 1.490 . S
C1624 C1626 1.395 . S
C1624 C1627 1.403 . S
H1625 C1631 0.930 . S
C1626 H1612 0.930 . S
C1626 C1624 1.395 . S
C1626 C1629 1.403 . S
C1627 C1624 1.403 . S
C1627 C1628 1.524 . S
C1627 C1631 1.400 . S
C1628 H1613 0.960 . S
C1628 H1614 0.960 . S
C1628 H1615 0.960 . S
C1628 C1627 1.524 . S
C1629 C1626 1.403 . S
C1629 C1630 1.392 . S
C1629 C1633 1.495 . S
C1630 C1629 1.392 . S
C1630 C1631 1.385 . S
C1630 C1632 1.478 . S
C1631 H1625 0.930 . S
C1631 C1627 1.400 . S
C1631 C1630 1.385 . S
C1632 C1630 1.478 . S
C1632 C1634 1.381 . S
C1632 C1638 1.383 . S
C1633 C1629 1.495 . S
C1633 H1639 0.959 . S
C1633 H1640 0.961 . S
C1633 H1641 0.960 . S
C1634 C1632 1.381 . S
C1634 C1635 1.394 . S
C1634 H1642 0.930 . S
C1635 C1634 1.394 . S
C1635 C1636 1.383 . S
C1635 H1643 0.929 . S
C1636 C1635 1.383 . S
C1636 C1637 1.377 . S
C1637 H1621 0.930 . S
C1637 C1636 1.377 . S
C1637 C1638 1.379 . S
C1638 H1622 0.931 . S
C1638 C1632 1.383 . S
C1638 C1637 1.379 . S
H1639 C1633 0.959 . S
H1640 C1633 0.961 . S
H1641 C1633 0.960 . S
H1642 C1634 0.930 . S
H1643 C1635 0.929 . S
H1644 C1652 0.929 . S
H1645 C1654 0.930 . S
H1646 C1656 0.930 . S
H1647 C1659 0.929 . S
H1648 C1662 0.930 . S
H1649 C1664 0.960 . S
H1650 C1664 0.960 . S
H1651 C1664 0.960 . S
C1652 H1644 0.929 . S
C1652 C1653 1.377 . S
C1652 C1654 1.384 . S
C1653 C1652 1.377 . S
C1653 C1659 1.390 . S
C1654 H1645 0.930 . S
C1654 C1652 1.384 . S
C1654 C1655 1.372 . S
C1655 C1654 1.372 . S
C1655 C1656 1.400 . S
C1655 C1660 1.490 . S
C1656 H1646 0.930 . S
C1656 C1655 1.400 . S
C1656 C1659 1.386 . S
H1657 C1673 0.930 . S
H1658 C1674 0.931 . S
C1659 H1647 0.929 . S
C1659 C1653 1.390 . S
C1659 C1656 1.386 . S
C1660 C1655 1.490 . S
C1660 C1662 1.395 . S
C1660 C1663 1.403 . S
H1661 C1667 0.930 . S
C1662 H1648 0.930 . S
C1662 C1660 1.395 . S
C1662 C1665 1.403 . S
C1663 C1660 1.403 . S
C1663 C1664 1.524 . S
C1663 C1667 1.400 . S
C1664 H1649 0.960 . S
C1664 H1650 0.960 . S
C1664 H1651 0.960 . S
C1664 C1663 1.524 . S
C1665 C1662 1.403 . S
C1665 C1666 1.392 . S
C1665 C1669 1.495 . S
C1666 C1665 1.392 . S
C1666 C1667 1.385 . S
C1666 C1668 1.478 . S
C1667 H1661 0.930 . S
C1667 C1663 1.400 . S
C1667 C1666 1.385 . S
C1668 C1666 1.478 . S
C1668 C1670 1.381 . S
C1668 C1674 1.383 . S
C1669 C1665 1.495 . S
C1669 H1675 0.959 . S
C1669 H1676 0.961 . S
C1669 H1677 0.960 . S
C1670 C1668 1.381 . S
C1670 C1671 1.394 . S
C1670 H1678 0.930 . S
C1671 C1670 1.394 . S
C1671 C1672 1.383 . S
C1671 H1679 0.929 . S
C1672 C1671 1.383 . S
C1672 C1673 1.377 . S
C1673 H1657 0.930 . S
C1673 C1672 1.377 . S
C1673 C1674 1.379 . S
C1674 H1658 0.931 . S
C1674 C1668 1.383 . S
C1674 C1673 1.379 . S
H1675 C1669 0.959 . S
H1676 C1669 0.961 . S
H1677 C1669 0.960 . S
H1678 C1670 0.930 . S
H1679 C1671 0.929 . S
C825 C361 1.440 . S
C844 C554 1.440 . S
C880 C638 1.445 . S
C861 C451 1.441 . S
C916 C631 1.443 . S
C897 C241 1.423 . S
C933 C331 1.430 . S
C952 C547 1.453 . S
C988 C711 1.460 . S
C969 C140 1.428 . S
C1024 C795 1.444 . S
C1005 C211 1.434 . S
C1041 C20 1.417 . S
C1060 C788 1.446 . S
C1077 C91 1.420 . S
C1096 C704 1.456 . S
C1132 C538 1.386 . S
C1113 C80 1.481 1_554 S
C1168 C622 1.307 . S
C1149 C1 1.472 . S
C1204 C633 1.446 . S
C1185 C200 1.503 . S
C1240 C549 1.441 . S
C1221 C121 1.501 . S
C1276 C717 1.369 . S
C1257 C320 1.494 1_556 S
C1293 C260 1.484 . S
C1312 C801 1.307 . S
C1348 C790 1.436 . S
C1329 C440 1.518 . S
C1365 C380 1.519 . S
C1384 C706 1.444 . S
C1420 C536 1.586 . S
C1401 C31 1.566 . S
C1456 C620 1.592 . S
C1437 C61 1.573 . S
C1473 C151 1.557 . S
C1492 C627 1.558 . S
C1528 C543 1.566 . S
C1509 C181 1.561 . S
C1564 C715 1.596 . S
C1545 C271 1.530 . S
C1581 C301 1.591 . S
C1600 C799 1.584 . S
C1617 C391 1.519 . S
C1636 C806 1.568 . S
C1653 C421 1.576 . S
C1672 C722 1.556 . S
