# Generated by pormake.
# Topology pyr, (3,6)-cn, num edge types: 1
# Building blocks:
#     Node 0, Type 0, BuildingBlock: INOVEN_clean_linker_0, # of connection points: 3
#     Node 1, Type 0, BuildingBlock: INOVEN_clean_linker_0, # of connection points: 3
#     Node 2, Type 0, BuildingBlock: INOVEN_clean_linker_0, # of connection points: 3
#     Node 3, Type 0, BuildingBlock: INOVEN_clean_linker_0, # of connection points: 3
#     Node 4, Type 0, BuildingBlock: INOVEN_clean_linker_0, # of connection points: 3
#     Node 5, Type 0, BuildingBlock: INOVEN_clean_linker_0, # of connection points: 3
#     Node 6, Type 0, BuildingBlock: INOVEN_clean_linker_0, # of connection points: 3
#     Node 7, Type 0, BuildingBlock: INOVEN_clean_linker_0, # of connection points: 3
#     Node 8, Type 1, BuildingBlock: JUFBIX_clean_sbu_0, # of connection points: 6
#     Node 9, Type 1, BuildingBlock: JUFBIX_clean_sbu_0, # of connection points: 6
#     Node 10, Type 1, BuildingBlock: JUFBIX_clean_sbu_0, # of connection points: 6
#     Node 11, Type 1, BuildingBlock: JUFBIX_clean_sbu_0, # of connection points: 6
#     Edge 12, Type (0, 1), BuildingBlock: AJUNOK_clean_linker_0, # of connection points: 2
#     Edge 13, Type (0, 1), BuildingBlock: AJUNOK_clean_linker_0, # of connection points: 2
#     Edge 14, Type (0, 1), BuildingBlock: AJUNOK_clean_linker_0, # of connection points: 2
#     Edge 15, Type (0, 1), BuildingBlock: AJUNOK_clean_linker_0, # of connection points: 2
#     Edge 16, Type (0, 1), BuildingBlock: AJUNOK_clean_linker_0, # of connection points: 2
#     Edge 17, Type (0, 1), BuildingBlock: AJUNOK_clean_linker_0, # of connection points: 2
#     Edge 18, Type (0, 1), BuildingBlock: AJUNOK_clean_linker_0, # of connection points: 2
#     Edge 19, Type (0, 1), BuildingBlock: AJUNOK_clean_linker_0, # of connection points: 2
#     Edge 20, Type (0, 1), BuildingBlock: AJUNOK_clean_linker_0, # of connection points: 2
#     Edge 21, Type (0, 1), BuildingBlock: AJUNOK_clean_linker_0, # of connection points: 2
#     Edge 22, Type (0, 1), BuildingBlock: AJUNOK_clean_linker_0, # of connection points: 2
#     Edge 23, Type (0, 1), BuildingBlock: AJUNOK_clean_linker_0, # of connection points: 2
#     Edge 24, Type (0, 1), BuildingBlock: AJUNOK_clean_linker_0, # of connection points: 2
#     Edge 25, Type (0, 1), BuildingBlock: AJUNOK_clean_linker_0, # of connection points: 2
#     Edge 26, Type (0, 1), BuildingBlock: AJUNOK_clean_linker_0, # of connection points: 2
#     Edge 27, Type (0, 1), BuildingBlock: AJUNOK_clean_linker_0, # of connection points: 2
#     Edge 28, Type (0, 1), BuildingBlock: AJUNOK_clean_linker_0, # of connection points: 2
#     Edge 29, Type (0, 1), BuildingBlock: AJUNOK_clean_linker_0, # of connection points: 2
#     Edge 30, Type (0, 1), BuildingBlock: AJUNOK_clean_linker_0, # of connection points: 2
#     Edge 31, Type (0, 1), BuildingBlock: AJUNOK_clean_linker_0, # of connection points: 2
#     Edge 32, Type (0, 1), BuildingBlock: AJUNOK_clean_linker_0, # of connection points: 2
#     Edge 33, Type (0, 1), BuildingBlock: AJUNOK_clean_linker_0, # of connection points: 2
#     Edge 34, Type (0, 1), BuildingBlock: AJUNOK_clean_linker_0, # of connection points: 2
#     Edge 35, Type (0, 1), BuildingBlock: AJUNOK_clean_linker_0, # of connection points: 2
# Relax obj value: 0.164
# Max RMSD: 0.209
# Mean RMSD: 0.125
data_MOF--net-pry--node1-JUFBIX_clean_sbu_0--node2-INOVEN_clean_linker_0--edge1-AJUNOK_clean_linker_0
_symmetry_space_group_name_H-M    P1
_symmetry_Int_Tables_number       1
_symmetry_cell_setting            triclinic
loop_
_symmetry_equiv_pos_as_xyz
'x, y, z'
_cell_length_a     26.233712
_cell_length_b     24.989594
_cell_length_c     28.071713
_cell_angle_alpha  81.75212
_cell_angle_beta   87.25749
_cell_angle_gamma 95.594226
loop_
_atom_site_label
_atom_site_type_symbol
_atom_site_fract_x
_atom_site_fract_y
_atom_site_fract_z
_atom_type_partial_charge
H0 H 0.17943 0.2286 0.27156 0.0
H1 H 0.29551 0.11826 0.27004 0.0
H2 H 0.28838 0.24719 0.15019 0.0
N3 N 0.2046 0.28736 0.18942 0.0
N4 N 0.21376 0.314 0.14822 0.0
C5 C 0.21217 0.21462 0.25376 0.0
C6 C 0.23426 0.16958 0.27639 0.0
C7 C 0.23076 0.24234 0.20863 0.0
C8 C 0.27352 0.22504 0.18486 0.0
C9 C 0.29783 0.17998 0.2064 0.0
C10 C 0.27801 0.15296 0.25292 0.0
H11 H 0.36346 0.75116 0.74529 0.0
H12 H 0.50757 0.78513 0.80825 0.0
H13 H 0.3743 0.85678 0.85211 0.0
N14 N 0.32355 0.83229 0.77681 0.0
N15 N 0.31788 0.87924 0.78469 0.0
C16 C 0.38497 0.76769 0.77288 0.0
C17 C 0.43687 0.75923 0.77676 0.0
C18 C 0.3633 0.80485 0.79806 0.0
C19 C 0.39116 0.8276 0.8327 0.0
C20 C 0.44343 0.82237 0.83536 0.0
C21 C 0.46666 0.78794 0.80742 0.0
H22 H 0.68365 0.37041 0.89176 0.0
H23 H 0.79768 0.35788 0.99619 0.0
H24 H 0.81206 0.49279 0.87957 0.0
N25 N 0.72812 0.46127 0.83726 0.0
N26 N 0.68853 0.44148 0.82051 0.0
C27 C 0.71961 0.38597 0.90465 0.0
C28 C 0.73792 0.35768 0.94594 0.0
C29 C 0.74659 0.43402 0.88004 0.0
C30 C 0.79188 0.4551 0.89814 0.0
C31 C 0.8104 0.42862 0.94064 0.0
C32 C 0.78324 0.37949 0.96422 0.0
H33 H 0.91612 0.63379 0.49993 0.0
H34 H 0.97388 0.76123 0.57608 0.0
H35 H 0.06377 0.72121 0.45681 0.0
N36 N 0.98913 0.64789 0.43323 0.0
N37 N 1.01556 0.6678 0.39569 0.0
C38 C 0.94798 0.66157 0.50779 0.0
C39 C 0.94077 0.69513 0.54279 0.0
C40 C 0.99172 0.67105 0.47627 0.0
C41 C 1.03112 0.71125 0.48281 0.0
C42 C 1.02584 0.7423 0.52038 0.0
C43 C 0.98078 0.73336 0.55074 0.0
H44 H 0.88163 0.98304 0.83065 0.0
H45 H 0.99844 0.87314 0.84505 0.0
H46 H 0.88335 0.87035 0.96093 0.0
N47 N 0.83436 0.95244 0.9165 0.0
N48 N 0.8188 0.94396 0.96009 0.0
C49 C 0.89899 0.95031 0.85127 0.0
C50 C 0.94209 0.92992 0.83108 0.0
C51 C 0.87839 0.93008 0.89837 0.0
C52 C 0.90099 0.88776 0.9258 0.0
C53 C 0.94472 0.86657 0.90736 0.0
C54 C 0.96495 0.88859 0.85992 0.0
H55 H 0.59067 0.2266 0.41808 0.0
H56 H 0.69489 0.10427 0.42825 0.0
H57 H 0.7147 0.23521 0.51204 0.0
N58 N 0.63767 0.28821 0.47241 0.0
N59 N 0.66888 0.32404 0.48428 0.0
C60 C 0.62227 0.2082 0.43513 0.0
C61 C 0.63821 0.16082 0.42092 0.0
C62 C 0.65046 0.23581 0.46669 0.0
C63 C 0.69306 0.21381 0.48737 0.0
C64 C 0.70834 0.16498 0.47475 0.0
C65 C 0.6805 0.13893 0.4416 0.0
H66 H 0.44193 0.76811 0.24887 0.0
H67 H 0.34507 0.77732 0.13056 0.0
H68 H 0.32124 0.63973 0.24495 0.0
N69 N 0.39606 0.67526 0.29881 0.0
N70 N 0.43165 0.69741 0.31972 0.0
C71 C 0.40981 0.75034 0.23148 0.0
C72 C 0.39696 0.77719 0.1874 0.0
C73 C 0.38246 0.70109 0.253 0.0
C74 C 0.34151 0.67839 0.2289 0.0
C75 C 0.32715 0.70564 0.18427 0.0
C76 C 0.35571 0.75504 0.164 0.0
H77 H 0.04642 0.39061 0.65436 0.0
H78 H 0.15459 0.36669 0.54155 0.0
H79 H 0.18371 0.50074 0.6183 0.0
N80 N 0.10281 0.47425 0.6818 0.0
N81 N 0.13782 0.50473 0.69568 0.0
C82 C 0.0796 0.40598 0.63003 0.0
C83 C 0.09426 0.37642 0.59346 0.0
C84 C 0.11123 0.45187 0.63862 0.0
C85 C 0.15704 0.46802 0.60981 0.0
C86 C 0.17358 0.43604 0.57648 0.0
C87 C 0.14049 0.39288 0.56581 0.0
Co88 Co 0.04165 0.05769 0.53451 0.0
C89 C 0.08472 0.9616 0.53509 0.0
Co90 Co 0.11573 0.05838 0.56686 0.0
C91 C 0.93966 0.08338 0.52034 0.0
C92 C 0.96276 0.03095 0.47108 0.0
N93 N 0.97949 0.0575 0.50692 0.0
N94 N 0.89892 0.07403 0.49443 0.0
C95 C 0.91284 0.0409 0.46347 0.0
H96 H 0.94022 0.10835 0.54884 0.0
H97 H 0.98535 1.00605 0.45176 0.0
C98 C 0.07199 0.15452 0.56655 0.0
N99 N 0.17615 0.05785 0.59605 0.0
C100 C 0.18602 0.01622 0.62879 0.0
C101 C 0.21653 0.09588 0.59507 0.0
N102 N 0.23047 0.02635 0.6489 0.0
C103 C 0.25038 0.0764 0.62789 0.0
C104 C 0.12686 0.092 0.46707 0.0
O105 O 0.03736 0.13034 0.54514 0.0
O106 O 0.11069 0.13041 0.57907 0.0
O107 O 0.1518 0.08507 0.50494 0.0
O108 O 0.07789 0.08359 0.47193 0.0
O109 O 0.12063 0.98563 0.55519 0.0
H110 H 0.2205 0.13533 0.57281 0.0
H111 H 0.16004 0.9795 0.63901 0.0
O112 O 0.04598 0.98593 0.52358 0.0
O113 O 1.0058 0.03056 0.5976 0.0
O114 O 0.08018 0.03125 0.62871 0.0
C115 C 1.03175 0.0212 0.6346 0.0
H116 H 0.88899 0.02609 0.43671 0.0
H117 H 0.28659 0.09713 0.63548 0.0
Co118 Co 0.54298 0.07017 0.03963 0.0
C119 C 0.52001 0.97869 0.11073 0.0
Co120 Co 0.58061 0.07381 0.10727 0.0
C121 C 0.51545 1.0094 0.96751 0.0
C122 C 0.49376 0.08918 0.94662 0.0
N123 N 0.51409 0.05805 0.98269 0.0
N124 N 0.49689 1.00815 0.92406 0.0
C125 C 0.48291 0.05828 0.91028 0.0
H126 H 0.53122 0.97523 0.98753 0.0
H127 H 0.48785 0.13144 0.94645 0.0
C128 C 0.60572 0.16469 0.03536 0.0
N129 N 0.61259 0.08192 0.16269 0.0
C130 C 0.59114 0.08116 0.20739 0.0
C131 C 0.66329 0.09503 0.16601 0.0
N132 N 0.62656 0.09341 0.23821 0.0
C133 C 0.67191 0.10257 0.2125 0.0
C134 C 0.64063 0.03015 0.04097 0.0
O135 O 0.57357 0.14005 1.01128 0.0
O136 O 0.61284 0.14364 0.07818 0.0
O137 O 0.6391 0.04031 0.08406 0.0
O138 O 0.60263 0.04027 1.01626 0.0
O139 O 0.54895 1.0046 0.13642 0.0
H140 H 0.69176 0.1015 0.13601 0.0
H141 H 0.55024 0.07491 0.2166 0.0
O142 O 0.51313 1.00007 0.06822 0.0
O143 O 0.4824 0.10069 0.06379 0.0
O144 O 0.5215 0.1065 0.13038 0.0
C145 C 0.48169 0.11289 0.10662 0.0
H146 H 0.46541 0.07125 0.877 0.0
H147 H 0.70805 0.1168 0.22586 0.0
Co148 Co 0.58869 0.61028 0.56818 0.0
C149 C 0.51356 0.62138 0.50174 0.0
Co150 Co 0.5217 0.54986 0.58598 0.0
C151 C 0.69301 0.65416 0.5609 0.0
C152 C 0.64359 0.71759 0.5528 0.0
N153 N 0.64351 0.66317 0.55739 0.0
N154 N 0.72426 0.70057 0.55945 0.0
C155 C 0.69321 0.74075 0.55436 0.0
H156 H 0.70564 0.6139 0.56563 0.0
H157 H 0.60958 0.73885 0.55078 0.0
C158 C 0.59645 0.53665 0.65116 0.0
N159 N 0.46791 0.49596 0.59675 0.0
C160 C 0.41819 0.50148 0.58988 0.0
C161 C 0.4713 0.44197 0.60228 0.0
N162 N 0.3904 0.45316 0.58972 0.0
C163 C 0.42384 0.41558 0.59752 0.0
C164 C 0.5993 0.52006 0.52679 0.0
O165 O 0.6188 0.57854 0.62458 0.0
O166 O 0.55295 0.5168 0.64024 0.0
O167 O 0.55475 0.50753 0.54691 0.0
O168 O 0.62377 0.56522 0.53114 0.0
O169 O 0.49054 0.58243 0.53127 0.0
H170 H 0.5067 0.4233 0.60595 0.0
H171 H 0.40328 0.54054 0.58296 0.0
O172 O 0.55788 0.64163 0.51105 0.0
O173 O 0.5543 0.6542 0.60631 0.0
O174 O 0.48871 0.59254 0.62609 0.0
C175 C 0.51204 0.63845 0.63048 0.0
H176 H 0.70481 0.78355 0.55391 0.0
H177 H 0.41572 0.37246 0.59678 0.0
Co178 Co 0.09249 0.58994 1.01154 0.0
C179 C 0.99227 0.53748 1.0136 0.0
Co180 Co 0.04713 0.58792 0.07953 0.0
C181 C 0.1197 0.56363 0.9182 0.0
C182 C 0.15937 0.63908 0.93009 0.0
N183 N 0.12776 0.59599 0.95223 0.0
N184 N 0.14373 0.58553 0.87531 0.0
C185 C 0.16946 0.63263 0.88282 0.0
H186 H 0.09537 0.52548 0.92444 0.0
H187 H 0.1717 0.67446 0.94639 0.0
C188 C 0.14717 0.6361 0.0817 0.0
N189 N 1.0112 0.58138 0.13854 0.0
C190 C 1.01326 0.61618 0.17108 0.0
C191 C 0.98493 0.53534 0.16191 0.0
N192 N 0.99018 0.59335 0.2143 0.0
C193 C 0.97233 0.54238 0.20843 0.0
C194 C 0.10673 0.49899 0.07473 0.0
O195 O 0.15128 0.62718 0.03807 0.0
O196 O 0.10369 0.62485 0.1045 0.0
O197 O 0.07522 0.51985 0.10082 0.0
O198 O 0.11907 0.52294 0.03213 0.0
O199 O 0.99052 0.54998 0.05571 0.0
H200 H 0.97891 0.49765 0.14725 0.0
H201 H 1.03403 0.65637 0.16392 0.0
O202 O 1.03351 0.55151 0.98707 0.0
O203 O 0.06593 0.65715 0.98987 0.0
O204 O 1.01972 0.65668 0.05692 0.0
C205 C 1.03377 0.67921 1.01388 0.0
H206 H 0.19168 0.66169 0.85544 0.0
H207 H 0.95538 0.51066 0.23661 0.0
C208 C 0.23488 0.13985 0.36709 0.0
C209 C 0.20907 0.14137 0.3241 0.0
C210 C 0.20835 0.12339 0.41288 0.0
C211 C 0.15471 0.10801 0.41787 0.0
H212 H 0.27544 0.15366 0.36547 0.0
H213 H 0.23002 0.12402 0.44472 0.0
S214 S 0.07014 0.10028 0.31599 0.0
N215 N 0.12738 0.12237 0.28954 0.0
N216 N 0.07793 0.09214 0.37449 0.0
C217 C 0.12903 0.10753 0.37489 0.0
C218 C 0.15601 0.12394 0.32851 0.0
C219 C 0.46208 0.86291 0.90858 0.0
C220 C 0.47262 0.86345 0.85902 0.0
C221 C 0.47065 0.91041 0.92928 0.0
C222 C 0.48999 0.96016 0.90132 0.0
H223 H 0.4432 0.82659 0.93065 0.0
H224 H 0.45941 0.90904 0.96704 0.0
S225 S 0.5278 0.98218 0.77076 0.0
N226 N 0.50614 0.91702 0.78287 0.0
N227 N 0.52321 1.00636 0.82243 0.0
C228 C 0.50326 0.96076 0.85229 0.0
C229 C 0.49469 0.91224 0.8311 0.0
C230 C 0.68922 0.5146 0.75073 0.0
C231 C 0.66717 0.46565 0.7783 0.0
C232 C 0.66625 0.53716 0.70936 0.0
C233 C 0.62056 0.51163 0.69444 0.0
H234 H 0.72409 0.53555 0.76112 0.0
H235 H 0.6843 0.57502 0.68917 0.0
S236 S 0.54959 0.38182 0.75495 0.0
N237 N 0.59883 0.39209 0.78821 0.0
N238 N 0.55524 0.43381 0.71086 0.0
C239 C 0.59877 0.46239 0.72192 0.0
C240 C 0.62226 0.43967 0.76372 0.0
C241 C 0.04272 0.6673 0.312 0.0
C242 C 1.00773 0.64803 0.35132 0.0
C243 C 1.03575 0.65098 0.26687 0.0
C244 C 0.99358 0.61432 0.25948 0.0
H245 H 0.07587 0.69521 0.31632 0.0
H246 H 0.06422 0.66654 0.2379 0.0
S247 S 0.886 0.55891 0.34916 0.0
N248 N 0.92602 0.5948 0.37897 0.0
N249 N 0.91284 0.56469 0.29404 0.0
C250 C 0.95685 0.59675 0.29811 0.0
C251 C 0.96394 0.6133 0.34412 0.0
C252 C 0.38876 0.15154 0.20423 0.0
C253 C 0.3439 0.16195 0.18024 0.0
C254 C 0.43278 0.13683 0.18005 0.0
C255 C 0.43442 0.13108 0.13053 0.0
H256 H 0.39026 0.15562 0.24204 0.0
H257 H 0.46587 0.12955 0.20074 0.0
S258 S 0.32625 0.15072 0.05118 0.0
N259 N 0.30366 0.16336 0.10389 0.0
N260 N 0.38554 0.13586 0.05895 0.0
C261 C 0.38954 0.14073 0.10624 0.0
C262 C 0.34479 0.15608 0.13081 0.0
C263 C 0.2628 0.89594 0.7173 0.0
C264 C 0.28813 0.91357 0.7561 0.0
C265 C 0.2442 0.93335 0.68246 0.0
C266 C 0.25052 0.98938 0.68517 0.0
H267 H 0.25931 0.85349 0.71265 0.0
H268 H 0.22607 0.91851 0.65234 0.0
S269 S 0.31069 0.05462 0.78192 0.0
N270 N 0.31634 0.98916 0.79696 0.0
N271 N 0.2805 0.06006 0.73138 0.0
C272 C 0.27395 1.00712 0.72475 0.0
C273 C 0.29264 0.96888 0.76041 0.0
C274 C 0.90174 0.47271 0.93019 0.0
C275 C 0.85741 0.45344 0.96055 0.0
C276 C 0.94535 0.49899 0.94766 0.0
C277 C 0.9464 0.50754 0.99611 0.0
H278 H 0.90269 0.46754 0.89251 0.0
H279 H 0.97822 0.51338 0.92279 0.0
S280 S 0.83986 0.46511 0.09044 0.0
N281 N 0.81718 0.44507 0.04134 0.0
N282 N 0.8987 0.49372 0.07437 0.0
C283 C 0.90235 0.48791 1.02695 0.0
C284 C 0.8581 0.46105 1.00916 0.0
C285 C 0.85544 0.65917 0.58392 0.0
C286 C 0.88754 0.70241 0.55746 0.0
C287 C 0.80217 0.6606 0.58713 0.0
C288 C 0.77915 0.70459 0.56277 0.0
H289 H 0.87142 0.62306 0.60026 0.0
H290 H 0.77878 0.6259 0.60727 0.0
S291 S 0.84791 0.82879 0.49009 0.0
N292 N 0.89376 0.7917 0.50888 0.0
N293 N 0.79362 0.79355 0.51306 0.0
C294 C 0.81138 0.7493 0.5382 0.0
C295 C 0.86561 0.74829 0.53586 0.0
C296 C 0.19532 0.3853 0.08397 0.0
C297 C 0.18544 0.35867 0.13153 0.0
C298 C 0.16904 0.42963 0.06574 0.0
C299 C 0.13158 0.44956 0.09439 0.0
H300 H 0.22394 0.37175 0.06066 0.0
H301 H 0.17874 0.4488 1.02889 0.0
S302 S 0.09057 0.39399 0.2219 0.0
N303 N 0.13471 0.3554 0.20727 0.0
N304 N 0.08577 0.43832 0.17318 0.0
C305 C 0.12095 0.42293 0.14213 0.0
C306 C 0.14767 0.3777 0.16069 0.0
C307 C 0.6933 0.29789 1.01901 0.0
C308 C 0.70799 0.30601 0.96941 0.0
C309 C 0.65977 0.25235 0.04015 0.0
C310 C 0.63912 0.2138 1.0123 0.0
H311 H 0.70668 0.32764 0.04136 0.0
H312 H 0.64932 0.24772 0.07843 0.0
S313 S 0.67099 0.21253 0.88229 0.0
N314 N 0.70358 0.26845 0.89422 0.0
N315 N 0.63955 0.18433 0.93347 0.0
C316 C 0.65477 0.22065 0.96303 0.0
C317 C 0.68949 0.26628 0.94177 0.0
C318 C 0.05507 0.83519 0.48011 0.0
C319 C 0.058 0.7942 0.51947 0.0
C320 C 0.06802 0.8898 0.48424 0.0
C321 C 0.08537 0.90492 0.52742 0.0
H322 H 0.03783 0.82555 0.44764 0.0
H323 H 0.06118 0.92061 0.45458 0.0
S324 S 0.10732 0.81248 0.63817 0.0
N325 N 0.08454 0.77165 0.601 0.0
N326 N 0.11078 0.87479 0.60816 0.0
C327 C 0.09363 0.86413 0.56523 0.0
C328 C 0.07941 0.80847 0.5614 0.0
C329 C 0.43598 0.67594 0.7371 0.0
C330 C 0.4601 0.72737 0.74237 0.0
C331 C 0.45237 0.64801 0.7003 0.0
C332 C 0.49349 0.6705 0.66716 0.0
H333 H 0.40358 0.65749 0.76128 0.0
H334 H 0.43265 0.60839 0.69802 0.0
S335 S 0.56862 0.80511 0.66468 0.0
N336 N 0.52627 0.80041 0.71089 0.0
N337 N 0.55783 0.74791 0.64209 0.0
C338 C 0.51815 0.72195 0.67225 0.0
C339 C 0.50138 0.75032 0.7098 0.0
C340 C 1.01704 0.96576 0.77034 0.0
C341 C 0.96372 0.95252 0.7803 0.0
C342 C 0.03815 0.98796 0.72363 0.0
C343 C 1.00721 0.99803 0.68406 0.0
H344 H 0.04286 0.95968 0.79914 0.0
H345 H 0.07942 0.99735 0.71864 0.0
S346 S 0.86537 0.9678 0.6895 0.0
N347 N 0.88055 0.94917 0.74545 0.0
N348 N 0.91997 0.99108 0.65836 0.0
C349 C 0.95384 0.98443 0.69332 0.0
C350 C 0.93227 0.96181 0.74102 0.0
C351 C 0.6235 0.18091 0.33408 0.0
C352 C 0.62039 0.14247 0.37628 0.0
C353 C 0.6221 0.16432 0.28877 0.0
C354 C 0.61709 0.10902 0.28434 0.0
H355 H 0.63141 0.22396 0.33571 0.0
H356 H 0.62805 0.19468 0.2568 0.0
S357 S 0.59969 0.99264 0.38297 0.0
N358 N 0.60599 0.04675 0.41072 0.0
N359 N 0.60345 0.01592 0.32459 0.0
C360 C 0.60962 0.07025 0.32585 0.0
C361 C 0.6112 0.08696 0.37219 0.0
C362 C 0.49071 0.7063 0.38239 0.0
C363 C 0.4491 0.67649 0.36528 0.0
C364 C 0.51095 0.68867 0.42659 0.0
C365 C 0.49 0.64038 0.45584 0.0
H366 H 0.50802 0.74375 0.36095 0.0
H367 H 0.54333 0.71311 0.4378 0.0
S368 S 0.38029 0.54663 0.42714 0.0
N369 N 0.3873 0.596 0.3807 0.0
N370 N 0.42481 0.5624 0.46391 0.0
C371 C 0.4478 0.61007 0.43917 0.0
C372 C 0.42741 0.62811 0.39386 0.0
C373 C 0.18057 0.55387 0.75262 0.0
C374 C 0.13554 0.52605 0.73975 0.0
C375 C 0.1829 0.57318 0.79686 0.0
C376 C 0.14001 0.56538 0.82992 0.0
H377 H 0.21472 0.55978 0.72839 0.0
H378 H 0.21882 0.59353 0.80566 0.0
S379 S 1.01078 0.4995 0.81128 0.0
N380 N 0.04581 0.49395 0.7621 0.0
N381 N 0.04958 0.53155 0.84505 0.0
C382 C 0.09396 0.53883 0.81689 0.0
C383 C 0.09175 0.51882 0.77176 0.0
C384 C 0.76661 0.96559 1.02815 0.0
C385 C 0.77438 0.96594 0.97815 0.0
C386 C 0.72379 0.98661 0.04818 0.0
C387 C 0.68611 1.00807 1.01905 0.0
H388 H 0.79434 0.94919 0.05205 0.0
H389 H 0.72005 0.98558 0.0869 0.0
S390 S 0.68724 0.01715 0.88548 0.0
N391 N 0.74002 0.98917 0.89972 0.0
N392 N 0.65961 0.02765 0.93691 0.0
C393 C 0.69318 1.0081 0.96877 0.0
C394 C 0.73716 0.98734 0.94839 0.0
C395 C 0.75836 0.08716 0.50119 0.0
C396 C 0.75692 0.14382 0.48984 0.0
C397 C 0.80501 0.06451 0.50392 0.0
C398 C 0.85165 0.0978 0.49683 0.0
H399 H 0.72314 0.05993 0.50549 0.0
H400 H 0.80483 0.02071 0.51044 0.0
S401 S 0.86989 0.24797 0.46995 0.0
N402 N 0.80702 0.23257 0.47336 0.0
N403 N 0.89457 0.18948 0.48121 0.0
C404 C 0.85107 0.15437 0.4888 0.0
C405 C 0.80366 0.17758 0.48486 0.0
C406 C 0.2836 0.68893 0.10811 0.0
C407 C 0.2816 0.68486 0.15898 0.0
C408 C 0.24029 0.67366 0.08327 0.0
C409 C 0.19281 0.65379 0.10809 0.0
H410 H 0.3191 0.70407 0.08711 0.0
H411 H 0.24409 0.67766 0.0443 0.0
S412 S 0.1675 0.63203 0.24157 0.0
N413 N 0.22792 0.65825 0.23307 0.0
N414 N 0.14752 0.62797 0.18723 0.0
C415 C 0.19059 0.6484 0.15907 0.0
C416 C 0.2346 0.66413 0.18422 0.0
C417 C 0.26059 0.48138 0.54727 0.0
C418 C 0.22937 0.43485 0.56921 0.0
C419 C 0.31362 0.48595 0.55222 0.0
C420 C 0.33698 0.44466 0.58015 0.0
H421 H 0.24357 0.5154 0.52824 0.0
H422 H 0.33611 0.52297 0.53538 0.0
S423 S 0.27082 0.31457 0.64491 0.0
N424 N 0.22494 0.34605 0.61852 0.0
N425 N 0.32413 0.35537 0.62938 0.0
C426 C 0.3061 0.39704 0.60074 0.0
C427 C 0.25238 0.39202 0.59491 0.0
C428 C 0.98609 0.77835 0.91302 0.0
C429 C 0.96781 0.81977 0.93635 0.0
C430 C 1.00728 0.73395 0.93852 0.0
C431 C 1.01063 0.72766 0.98902 0.0
H432 H 0.9834 0.77956 0.87453 0.0
H433 H 1.02046 0.70358 0.91828 0.0
S434 S 0.97129 0.82503 0.06815 0.0
N435 N 0.95761 0.85236 1.01374 0.0
N436 N 0.99499 0.76752 0.06145 0.0
C437 C 0.99249 0.7683 1.01315 0.0
C438 C 0.97175 0.81445 0.987 0.0
C439 C 0.43559 0.8708 0.19468 0.0
C440 C 0.42746 0.82879 0.16653 0.0
C441 C 0.46718 0.91866 0.17698 0.0
C442 C 0.49131 0.92611 0.13046 0.0
H443 H 0.41726 0.86662 0.23063 0.0
H444 H 0.47171 0.95052 0.19935 0.0
S445 S 0.48722 0.82591 0.0449 0.0
N446 N 0.44925 0.7959 0.09167 0.0
N447 N 0.50816 0.8863 0.05796 0.0
C448 C 0.48428 0.88408 0.10232 0.0
C449 C 0.45237 0.83528 0.12045 0.0
C450 C 0.08934 0.27966 0.62738 0.0
C451 C 0.07255 0.31994 0.59327 0.0
C452 C 0.08732 0.22563 0.61916 0.0
C453 C 0.06748 0.20999 0.57704 0.0
H454 H 0.10831 0.29084 0.65853 0.0
H455 H 0.1032 0.19633 0.64508 0.0
S456 S 1.01379 0.29932 0.47915 0.0
N457 N 1.03269 0.34042 0.51753 0.0
N458 N 1.02644 0.238 0.50295 0.0
C459 C 0.04673 0.24905 0.54455 0.0
C460 C 0.0499 0.30436 0.55245 0.0
C461 C 0.68628 0.41273 0.50996 0.0
C462 C 0.65464 0.37699 0.48708 0.0
C463 C 0.67067 0.46283 0.51863 0.0
C464 C 0.62294 0.4783 0.50441 0.0
H465 H 0.72203 0.40049 0.52344 0.0
H466 H 0.69415 0.48749 0.53969 0.0
S467 S 0.53017 0.40434 0.4353 0.0
N468 N 0.57656 0.36455 0.44402 0.0
N469 N 0.54729 0.45802 0.46118 0.0
C470 C 0.59299 0.44508 0.47799 0.0
C471 C 0.60875 0.39444 0.46904 0.0
loop_
_geom_bond_atom_site_label_1
_geom_bond_atom_site_label_2
_geom_bond_distance
_geom_bond_site_symmetry_2
_ccdc_geom_bond_type
H0 C5 0.929 . S
H1 C10 0.931 . S
H2 C8 0.930 . S
N3 N4 1.234 . S
N3 C7 1.453 . S
N4 N3 1.234 . S
C5 H0 0.929 . S
C5 C6 1.373 . S
C5 C7 1.368 . S
C6 C5 1.373 . S
C6 C10 1.397 . S
C7 N3 1.453 . S
C7 C5 1.368 . S
C7 C8 1.373 . S
C8 H2 0.930 . S
C8 C7 1.373 . S
C8 C9 1.371 . S
C9 C8 1.371 . S
C9 C10 1.383 . S
C10 H1 0.931 . S
C10 C6 1.397 . S
C10 C9 1.383 . S
H11 C16 0.929 . S
H12 C21 0.931 . S
H13 C19 0.930 . S
N14 N15 1.234 . S
N14 C18 1.453 . S
N15 N14 1.234 . S
C16 H11 0.929 . S
C16 C17 1.373 . S
C16 C18 1.368 . S
C17 C16 1.373 . S
C17 C21 1.397 . S
C18 N14 1.453 . S
C18 C16 1.368 . S
C18 C19 1.373 . S
C19 H13 0.930 . S
C19 C18 1.373 . S
C19 C20 1.371 . S
C20 C19 1.371 . S
C20 C21 1.383 . S
C21 H12 0.931 . S
C21 C17 1.397 . S
C21 C20 1.383 . S
H22 C27 0.929 . S
H23 C32 0.931 1_554 S
H24 C30 0.930 . S
N25 N26 1.234 . S
N25 C29 1.453 . S
N26 N25 1.234 . S
C27 H22 0.929 . S
C27 C28 1.373 . S
C27 C29 1.368 . S
C28 C27 1.373 . S
C28 C32 1.397 . S
C29 N25 1.453 . S
C29 C27 1.368 . S
C29 C30 1.373 . S
C30 H24 0.930 . S
C30 C29 1.373 . S
C30 C31 1.371 . S
C31 C30 1.371 . S
C31 C32 1.383 . S
C32 H23 0.931 1_556 S
C32 C28 1.397 . S
C32 C31 1.383 . S
H33 C38 0.929 . S
H34 C43 0.931 . S
H35 C41 0.930 . S
N36 N37 1.234 . S
N36 C40 1.453 . S
N37 N36 1.234 . S
C38 H33 0.929 . S
C38 C39 1.373 . S
C38 C40 1.368 . S
C39 C38 1.373 . S
C39 C43 1.397 . S
C40 N36 1.453 . S
C40 C38 1.368 . S
C40 C41 1.373 . S
C41 H35 0.930 . S
C41 C40 1.373 . S
C41 C42 1.371 . S
C42 C41 1.371 . S
C42 C43 1.383 . S
C43 H34 0.931 . S
C43 C39 1.397 . S
C43 C42 1.383 . S
H44 C49 0.929 1_545 S
H45 C54 0.931 . S
H46 C52 0.930 . S
N47 N48 1.234 . S
N47 C51 1.453 . S
N48 N47 1.234 . S
C49 H44 0.929 1_565 S
C49 C50 1.373 . S
C49 C51 1.368 . S
C50 C49 1.373 . S
C50 C54 1.397 . S
C51 N47 1.453 . S
C51 C49 1.368 . S
C51 C52 1.373 . S
C52 H46 0.930 . S
C52 C51 1.373 . S
C52 C53 1.371 . S
C53 C52 1.371 . S
C53 C54 1.383 . S
C54 H45 0.931 . S
C54 C50 1.397 . S
C54 C53 1.383 . S
H55 C60 0.929 . S
H56 C65 0.931 . S
H57 C63 0.930 . S
N58 N59 1.234 . S
N58 C62 1.453 . S
N59 N58 1.234 . S
C60 H55 0.929 . S
C60 C61 1.373 . S
C60 C62 1.368 . S
C61 C60 1.373 . S
C61 C65 1.397 . S
C62 N58 1.453 . S
C62 C60 1.368 . S
C62 C63 1.373 . S
C63 H57 0.930 . S
C63 C62 1.373 . S
C63 C64 1.371 . S
C64 C63 1.371 . S
C64 C65 1.383 . S
C65 H56 0.931 . S
C65 C61 1.397 . S
C65 C64 1.383 . S
H66 C71 0.929 . S
H67 C76 0.931 . S
H68 C74 0.930 . S
N69 N70 1.234 . S
N69 C73 1.453 . S
N70 N69 1.234 . S
C71 H66 0.929 . S
C71 C72 1.373 . S
C71 C73 1.368 . S
C72 C71 1.373 . S
C72 C76 1.397 . S
C73 N69 1.453 . S
C73 C71 1.368 . S
C73 C74 1.373 . S
C74 H68 0.930 . S
C74 C73 1.373 . S
C74 C75 1.371 . S
C75 C74 1.371 . S
C75 C76 1.383 . S
C76 H67 0.931 . S
C76 C72 1.397 . S
C76 C75 1.383 . S
H77 C82 0.929 . S
H78 C87 0.931 . S
H79 C85 0.930 . S
N80 N81 1.234 . S
N80 C84 1.453 . S
N81 N80 1.234 . S
C82 H77 0.929 . S
C82 C83 1.373 . S
C82 C84 1.368 . S
C83 C82 1.373 . S
C83 C87 1.397 . S
C84 N80 1.453 . S
C84 C82 1.368 . S
C84 C85 1.373 . S
C85 H79 0.930 . S
C85 C84 1.373 . S
C85 C86 1.371 . S
C86 C85 1.371 . S
C86 C87 1.383 . S
C87 H78 0.931 . S
C87 C83 1.397 . S
C87 C86 1.383 . S
Co88 N93 2.057 . S
Co88 O105 2.021 . S
Co88 O108 2.062 . S
Co88 O112 2.117 1_545 S
Co88 O113 2.020 . S
C89 O109 1.259 1_655 S
C89 O112 1.258 . S
Co90 N99 2.057 . S
Co90 O106 2.117 . S
Co90 O107 2.020 . S
Co90 O109 2.021 1_545 S
Co90 O114 2.062 1_545 S
C91 N93 1.316 . S
C91 N94 1.347 . S
C91 H96 0.931 . S
C92 N93 1.375 . S
C92 C95 1.350 . S
C92 H97 0.930 1_545 S
N93 Co88 2.057 . S
N93 C91 1.316 . S
N93 C92 1.375 . S
N94 C91 1.347 . S
N94 C95 1.373 . S
C95 C92 1.350 . S
C95 N94 1.373 . S
C95 H116 0.931 . S
H96 C91 0.931 . S
H97 C92 0.930 1_565 S
C98 O105 1.259 1_455 S
C98 O106 1.258 . S
N99 Co90 2.057 . S
N99 C100 1.316 1_545 S
N99 C101 1.375 . S
C100 N99 1.316 1_565 S
C100 N102 1.347 . S
C100 H111 0.931 . S
C101 N99 1.375 . S
C101 C103 1.350 . S
C101 H110 0.930 . S
N102 C100 1.347 . S
N102 C103 1.373 1_565 S
C103 C101 1.350 . S
C103 N102 1.373 1_545 S
C103 H117 0.931 . S
C104 O107 1.256 . S
C104 O108 1.255 1_455 S
O105 Co88 2.021 . S
O105 C98 1.259 1_655 S
O106 Co90 2.117 . S
O106 C98 1.258 . S
O107 Co90 2.020 . S
O107 C104 1.256 . S
O108 Co88 2.062 . S
O108 C104 1.255 1_655 S
O109 C89 1.259 1_455 S
O109 Co90 2.021 1_565 S
H110 C101 0.930 . S
H111 C100 0.931 . S
O112 Co88 2.117 1_565 S
O112 C89 1.258 . S
O113 Co88 2.020 . S
O113 C115 1.256 . S
O114 Co90 2.062 1_565 S
O114 C115 1.255 1_465 S
C115 O113 1.256 . S
C115 O114 1.255 1_645 S
H116 C95 0.931 . S
H117 C103 0.931 . S
Co118 N123 2.057 1_544 S
Co118 O135 2.021 1_554 S
Co118 O138 2.062 1_554 S
Co118 O142 2.117 1_545 S
Co118 O143 2.020 . S
C119 O139 1.259 . S
C119 O142 1.258 . S
Co120 N129 2.057 . S
Co120 O136 2.117 . S
Co120 O137 2.020 . S
Co120 O139 2.021 1_545 S
Co120 O144 2.062 . S
C121 N123 1.316 1_545 S
C121 N124 1.347 1_545 S
C121 H126 0.931 . S
C122 N123 1.375 . S
C122 C125 1.350 . S
C122 H127 0.930 . S
N123 Co118 2.057 1_566 S
N123 C121 1.316 1_565 S
N123 C122 1.375 . S
N124 C121 1.347 1_565 S
N124 C125 1.373 . S
C125 C122 1.350 . S
C125 N124 1.373 . S
C125 H146 0.931 . S
H126 C121 0.931 . S
H127 C122 0.930 . S
C128 O135 1.259 1_554 S
C128 O136 1.258 . S
N129 Co120 2.057 . S
N129 C130 1.316 . S
N129 C131 1.375 . S
C130 N129 1.316 . S
C130 N132 1.347 . S
C130 H141 0.931 . S
C131 N129 1.375 . S
C131 C133 1.350 . S
C131 H140 0.930 . S
N132 C130 1.347 . S
N132 C133 1.373 . S
C133 C131 1.350 . S
C133 N132 1.373 . S
C133 H147 0.931 . S
C134 O137 1.256 . S
C134 O138 1.255 1_554 S
O135 Co118 2.021 1_556 S
O135 C128 1.259 1_556 S
O136 Co120 2.117 . S
O136 C128 1.258 . S
O137 Co120 2.020 . S
O137 C134 1.256 . S
O138 Co118 2.062 1_556 S
O138 C134 1.255 1_556 S
O139 C119 1.259 . S
O139 Co120 2.021 1_565 S
H140 C131 0.930 . S
H141 C130 0.931 . S
O142 Co118 2.117 1_565 S
O142 C119 1.258 . S
O143 Co118 2.020 . S
O143 C145 1.256 . S
O144 Co120 2.062 . S
O144 C145 1.255 . S
C145 O143 1.256 . S
C145 O144 1.255 . S
H146 C125 0.931 . S
H147 C133 0.931 . S
Co148 N153 2.057 . S
Co148 O165 2.021 . S
Co148 O168 2.062 . S
Co148 O172 2.117 . S
Co148 O173 2.020 . S
C149 O169 1.259 . S
C149 O172 1.258 . S
Co150 N159 2.057 . S
Co150 O166 2.117 . S
Co150 O167 2.020 . S
Co150 O169 2.021 . S
Co150 O174 2.062 . S
C151 N153 1.316 . S
C151 N154 1.347 . S
C151 H156 0.931 . S
C152 N153 1.375 . S
C152 C155 1.350 . S
C152 H157 0.930 . S
N153 Co148 2.057 . S
N153 C151 1.316 . S
N153 C152 1.375 . S
N154 C151 1.347 . S
N154 C155 1.373 . S
C155 C152 1.350 . S
C155 N154 1.373 . S
C155 H176 0.931 . S
H156 C151 0.931 . S
H157 C152 0.930 . S
C158 O165 1.259 . S
C158 O166 1.258 . S
N159 Co150 2.057 . S
N159 C160 1.316 . S
N159 C161 1.375 . S
C160 N159 1.316 . S
C160 N162 1.347 . S
C160 H171 0.931 . S
C161 N159 1.375 . S
C161 C163 1.350 . S
C161 H170 0.930 . S
N162 C160 1.347 . S
N162 C163 1.373 . S
C163 C161 1.350 . S
C163 N162 1.373 . S
C163 H177 0.931 . S
C164 O167 1.256 . S
C164 O168 1.255 . S
O165 Co148 2.021 . S
O165 C158 1.259 . S
O166 Co150 2.117 . S
O166 C158 1.258 . S
O167 Co150 2.020 . S
O167 C164 1.256 . S
O168 Co148 2.062 . S
O168 C164 1.255 . S
O169 C149 1.259 . S
O169 Co150 2.021 . S
H170 C161 0.930 . S
H171 C160 0.931 . S
O172 Co148 2.117 . S
O172 C149 1.258 . S
O173 Co148 2.020 . S
O173 C175 1.256 . S
O174 Co150 2.062 . S
O174 C175 1.255 . S
C175 O173 1.256 . S
C175 O174 1.255 . S
H176 C155 0.931 . S
H177 C163 0.931 . S
Co178 N183 2.057 . S
Co178 O195 2.021 . S
Co178 O198 2.062 1_556 S
Co178 O202 2.117 1_455 S
Co178 O203 2.020 . S
C179 O199 1.259 . S
C179 O202 1.258 1_554 S
Co180 N189 2.057 . S
Co180 O196 2.117 . S
Co180 O197 2.020 . S
Co180 O199 2.021 1_455 S
Co180 O204 2.062 . S
C181 N183 1.316 . S
C181 N184 1.347 . S
C181 H186 0.931 . S
C182 N183 1.375 . S
C182 C185 1.350 . S
C182 H187 0.930 1_455 S
N183 Co178 2.057 . S
N183 C181 1.316 . S
N183 C182 1.375 . S
N184 C181 1.347 . S
N184 C185 1.373 . S
C185 C182 1.350 . S
C185 N184 1.373 . S
C185 H206 0.931 . S
H186 C181 0.931 . S
H187 C182 0.930 1_655 S
C188 O195 1.259 1_554 S
C188 O196 1.258 . S
N189 Co180 2.057 . S
N189 C190 1.316 1_455 S
N189 C191 1.375 . S
C190 N189 1.316 1_655 S
C190 N192 1.347 . S
C190 H201 0.931 . S
C191 N189 1.375 . S
C191 C193 1.350 . S
C191 H200 0.930 . S
N192 C190 1.347 . S
N192 C193 1.373 1_655 S
C193 C191 1.350 . S
C193 N192 1.373 1_455 S
C193 H207 0.931 . S
C194 O197 1.256 . S
C194 O198 1.255 . S
O195 Co178 2.021 . S
O195 C188 1.259 1_556 S
O196 Co180 2.117 . S
O196 C188 1.258 . S
O197 Co180 2.020 . S
O197 C194 1.256 . S
O198 Co178 2.062 1_554 S
O198 C194 1.255 . S
O199 C179 1.259 . S
O199 Co180 2.021 1_655 S
H200 C191 0.930 . S
H201 C190 0.931 . S
O202 Co178 2.117 1_655 S
O202 C179 1.258 1_556 S
O203 Co178 2.020 . S
O203 C205 1.256 . S
O204 Co180 2.062 . S
O204 C205 1.255 1_554 S
C205 O203 1.256 . S
C205 O204 1.255 1_556 S
H206 C185 0.931 . S
H207 C193 0.931 . S
C208 C209 1.369 . S
C208 C210 1.419 . S
C208 H212 0.930 . S
C209 C208 1.369 . S
C209 C218 1.429 . S
C210 C208 1.419 . S
C210 C211 1.363 . S
C210 H213 0.929 . S
C211 C210 1.363 . S
C211 C217 1.428 . S
H212 C208 0.930 . S
H213 C210 0.929 . S
S214 N215 1.613 1_655 S
S214 N216 1.610 . S
N215 S214 1.613 1_455 S
N215 C218 1.350 . S
N216 S214 1.610 . S
N216 C217 1.351 1_655 S
C217 C211 1.428 . S
C217 N216 1.351 1_455 S
C217 C218 1.434 . S
C218 C209 1.429 . S
C218 N215 1.350 . S
C218 C217 1.434 . S
C219 C220 1.369 . S
C219 C221 1.419 . S
C219 H223 0.930 . S
C220 C219 1.369 . S
C220 C229 1.429 . S
C221 C219 1.419 . S
C221 C222 1.363 . S
C221 H224 0.929 . S
C222 C221 1.363 . S
C222 C228 1.428 . S
H223 C219 0.930 . S
H224 C221 0.929 . S
S225 N226 1.613 . S
S225 N227 1.610 . S
N226 S225 1.613 . S
N226 C229 1.350 . S
N227 S225 1.610 . S
N227 C228 1.351 . S
C228 C222 1.428 . S
C228 N227 1.351 . S
C228 C229 1.434 . S
C229 C220 1.429 . S
C229 N226 1.350 . S
C229 C228 1.434 . S
C230 C231 1.369 . S
C230 C232 1.419 . S
C230 H234 0.930 . S
C231 C230 1.369 . S
C231 C240 1.429 . S
C232 C230 1.419 . S
C232 C233 1.363 . S
C232 H235 0.929 . S
C233 C232 1.363 . S
C233 C239 1.428 . S
H234 C230 0.930 . S
H235 C232 0.929 . S
S236 N237 1.613 . S
S236 N238 1.610 . S
N237 S236 1.613 . S
N237 C240 1.350 . S
N238 S236 1.610 . S
N238 C239 1.351 . S
C239 C233 1.428 . S
C239 N238 1.351 . S
C239 C240 1.434 . S
C240 C231 1.429 . S
C240 N237 1.350 . S
C240 C239 1.434 . S
C241 C242 1.369 1_455 S
C241 C243 1.419 1_455 S
C241 H245 0.930 . S
C242 C241 1.369 1_655 S
C242 C251 1.429 . S
C243 C241 1.419 1_655 S
C243 C244 1.363 . S
C243 H246 0.929 1_655 S
C244 C243 1.363 . S
C244 C250 1.428 . S
H245 C241 0.930 . S
H246 C243 0.929 1_455 S
S247 N248 1.613 . S
S247 N249 1.610 . S
N248 S247 1.613 . S
N248 C251 1.350 . S
N249 S247 1.610 . S
N249 C250 1.351 . S
C250 C244 1.428 . S
C250 N249 1.351 . S
C250 C251 1.434 . S
C251 C242 1.429 . S
C251 N248 1.350 . S
C251 C250 1.434 . S
C252 C253 1.369 . S
C252 C254 1.419 . S
C252 H256 0.930 . S
C253 C252 1.369 . S
C253 C262 1.429 . S
C254 C252 1.419 . S
C254 C255 1.363 . S
C254 H257 0.929 . S
C255 C254 1.363 . S
C255 C261 1.428 . S
H256 C252 0.930 . S
H257 C254 0.929 . S
S258 N259 1.613 . S
S258 N260 1.610 . S
N259 S258 1.613 . S
N259 C262 1.350 . S
N260 S258 1.610 . S
N260 C261 1.351 . S
C261 C255 1.428 . S
C261 N260 1.351 . S
C261 C262 1.434 . S
C262 C253 1.429 . S
C262 N259 1.350 . S
C262 C261 1.434 . S
C263 C264 1.369 . S
C263 C265 1.419 . S
C263 H267 0.930 . S
C264 C263 1.369 . S
C264 C273 1.429 1_565 S
C265 C263 1.419 . S
C265 C266 1.363 . S
C265 H268 0.929 . S
C266 C265 1.363 . S
C266 C272 1.428 1_565 S
H267 C263 0.930 . S
H268 C265 0.929 . S
S269 N270 1.613 . S
S269 N271 1.610 . S
N270 S269 1.613 . S
N270 C273 1.350 . S
N271 S269 1.610 . S
N271 C272 1.351 . S
C272 C266 1.428 1_545 S
C272 N271 1.351 . S
C272 C273 1.434 . S
C273 C264 1.429 1_545 S
C273 N270 1.350 . S
C273 C272 1.434 . S
C274 C275 1.369 . S
C274 C276 1.419 . S
C274 H278 0.930 . S
C275 C274 1.369 . S
C275 C284 1.429 . S
C276 C274 1.419 . S
C276 C277 1.363 . S
C276 H279 0.929 . S
C277 C276 1.363 . S
C277 C283 1.428 . S
H278 C274 0.930 . S
H279 C276 0.929 . S
S280 N281 1.613 . S
S280 N282 1.610 . S
N281 S280 1.613 . S
N281 C284 1.350 . S
N282 S280 1.610 . S
N282 C283 1.351 . S
C283 C277 1.428 . S
C283 N282 1.351 . S
C283 C284 1.434 . S
C284 C275 1.429 . S
C284 N281 1.350 . S
C284 C283 1.434 . S
C285 C286 1.369 . S
C285 C287 1.419 . S
C285 H289 0.930 . S
C286 C285 1.369 . S
C286 C295 1.429 . S
C287 C285 1.419 . S
C287 C288 1.363 . S
C287 H290 0.929 . S
C288 C287 1.363 . S
C288 C294 1.428 . S
H289 C285 0.930 . S
H290 C287 0.929 . S
S291 N292 1.613 . S
S291 N293 1.610 . S
N292 S291 1.613 . S
N292 C295 1.350 . S
N293 S291 1.610 . S
N293 C294 1.351 . S
C294 C288 1.428 . S
C294 N293 1.351 . S
C294 C295 1.434 . S
C295 C286 1.429 . S
C295 N292 1.350 . S
C295 C294 1.434 . S
C296 C297 1.369 . S
C296 C298 1.419 . S
C296 H300 0.930 . S
C297 C296 1.369 . S
C297 C306 1.429 . S
C298 C296 1.419 . S
C298 C299 1.363 . S
C298 H301 0.929 . S
C299 C298 1.363 . S
C299 C305 1.428 . S
H300 C296 0.930 . S
H301 C298 0.929 . S
S302 N303 1.613 . S
S302 N304 1.610 . S
N303 S302 1.613 . S
N303 C306 1.350 . S
N304 S302 1.610 . S
N304 C305 1.351 . S
C305 C299 1.428 . S
C305 N304 1.351 . S
C305 C306 1.434 . S
C306 C297 1.429 . S
C306 N303 1.350 . S
C306 C305 1.434 . S
C307 C308 1.369 1_554 S
C307 C309 1.419 . S
C307 H311 0.930 . S
C308 C307 1.369 1_556 S
C308 C317 1.429 . S
C309 C307 1.419 . S
C309 C310 1.363 1_554 S
C309 H312 0.929 . S
C310 C309 1.363 1_556 S
C310 C316 1.428 . S
H311 C307 0.930 . S
H312 C309 0.929 . S
S313 N314 1.613 . S
S313 N315 1.610 . S
N314 S313 1.613 . S
N314 C317 1.350 . S
N315 S313 1.610 . S
N315 C316 1.351 . S
C316 C310 1.428 . S
C316 N315 1.351 . S
C316 C317 1.434 . S
C317 C308 1.429 . S
C317 N314 1.350 . S
C317 C316 1.434 . S
C318 C319 1.369 . S
C318 C320 1.419 . S
C318 H322 0.930 . S
C319 C318 1.369 . S
C319 C328 1.429 1_655 S
C320 C318 1.419 . S
C320 C321 1.363 . S
C320 H323 0.929 . S
C321 C320 1.363 . S
C321 C327 1.428 1_655 S
H322 C318 0.930 . S
H323 C320 0.929 . S
S324 N325 1.613 . S
S324 N326 1.610 . S
N325 S324 1.613 . S
N325 C328 1.350 . S
N326 S324 1.610 . S
N326 C327 1.351 . S
C327 C321 1.428 1_455 S
C327 N326 1.351 . S
C327 C328 1.434 . S
C328 C319 1.429 1_455 S
C328 N325 1.350 . S
C328 C327 1.434 . S
C329 C330 1.369 . S
C329 C331 1.419 . S
C329 H333 0.930 . S
C330 C329 1.369 . S
C330 C339 1.429 . S
C331 C329 1.419 . S
C331 C332 1.363 . S
C331 H334 0.929 . S
C332 C331 1.363 . S
C332 C338 1.428 . S
H333 C329 0.930 . S
H334 C331 0.929 . S
S335 N336 1.613 . S
S335 N337 1.610 . S
N336 S335 1.613 . S
N336 C339 1.350 . S
N337 S335 1.610 . S
N337 C338 1.351 . S
C338 C332 1.428 . S
C338 N337 1.351 . S
C338 C339 1.434 . S
C339 C330 1.429 . S
C339 N336 1.350 . S
C339 C338 1.434 . S
C340 C341 1.369 . S
C340 C342 1.419 . S
C340 H344 0.930 . S
C341 C340 1.369 . S
C341 C350 1.429 1_565 S
C342 C340 1.419 . S
C342 C343 1.363 . S
C342 H345 0.929 . S
C343 C342 1.363 . S
C343 C349 1.428 1_565 S
H344 C340 0.930 . S
H345 C342 0.929 . S
S346 N347 1.613 . S
S346 N348 1.610 . S
N347 S346 1.613 . S
N347 C350 1.350 . S
N348 S346 1.610 . S
N348 C349 1.351 . S
C349 C343 1.428 1_545 S
C349 N348 1.351 . S
C349 C350 1.434 . S
C350 C341 1.429 1_545 S
C350 N347 1.350 . S
C350 C349 1.434 . S
C351 C352 1.369 . S
C351 C353 1.419 . S
C351 H355 0.930 . S
C352 C351 1.369 . S
C352 C361 1.429 . S
C353 C351 1.419 . S
C353 C354 1.363 . S
C353 H356 0.929 . S
C354 C353 1.363 . S
C354 C360 1.428 . S
H355 C351 0.930 . S
H356 C353 0.929 . S
S357 N358 1.613 . S
S357 N359 1.610 . S
N358 S357 1.613 . S
N358 C361 1.350 . S
N359 S357 1.610 . S
N359 C360 1.351 . S
C360 C354 1.428 . S
C360 N359 1.351 . S
C360 C361 1.434 . S
C361 C352 1.429 . S
C361 N358 1.350 . S
C361 C360 1.434 . S
C362 C363 1.369 . S
C362 C364 1.419 . S
C362 H366 0.930 . S
C363 C362 1.369 . S
C363 C372 1.429 . S
C364 C362 1.419 . S
C364 C365 1.363 . S
C364 H367 0.929 . S
C365 C364 1.363 . S
C365 C371 1.428 . S
H366 C362 0.930 . S
H367 C364 0.929 . S
S368 N369 1.613 . S
S368 N370 1.610 . S
N369 S368 1.613 . S
N369 C372 1.350 . S
N370 S368 1.610 . S
N370 C371 1.351 . S
C371 C365 1.428 . S
C371 N370 1.351 . S
C371 C372 1.434 . S
C372 C363 1.429 . S
C372 N369 1.350 . S
C372 C371 1.434 . S
C373 C374 1.369 . S
C373 C375 1.419 . S
C373 H377 0.930 . S
C374 C373 1.369 . S
C374 C383 1.429 . S
C375 C373 1.419 . S
C375 C376 1.363 . S
C375 H378 0.929 . S
C376 C375 1.363 . S
C376 C382 1.428 . S
H377 C373 0.930 . S
H378 C375 0.929 . S
S379 N380 1.613 . S
S379 N381 1.610 . S
N380 S379 1.613 . S
N380 C383 1.350 . S
N381 S379 1.610 . S
N381 C382 1.351 . S
C382 C376 1.428 . S
C382 N381 1.351 . S
C382 C383 1.434 . S
C383 C374 1.429 . S
C383 N380 1.350 . S
C383 C382 1.434 . S
C384 C385 1.369 1_545 S
C384 C386 1.419 1_556 S
C384 H388 0.930 1_556 S
C385 C384 1.369 1_565 S
C385 C394 1.429 . S
C386 C384 1.419 1_554 S
C386 C387 1.363 1_545 S
C386 H389 0.929 . S
C387 C386 1.363 1_565 S
C387 C393 1.428 1_554 S
H388 C384 0.930 1_554 S
H389 C386 0.929 . S
S390 N391 1.613 . S
S390 N392 1.610 . S
N391 S390 1.613 . S
N391 C394 1.350 . S
N392 S390 1.610 . S
N392 C393 1.351 . S
C393 C387 1.428 1_556 S
C393 N392 1.351 . S
C393 C394 1.434 . S
C394 C385 1.429 . S
C394 N391 1.350 . S
C394 C393 1.434 . S
C395 C396 1.369 . S
C395 C397 1.419 . S
C395 H399 0.930 . S
C396 C395 1.369 . S
C396 C405 1.429 . S
C397 C395 1.419 . S
C397 C398 1.363 . S
C397 H400 0.929 . S
C398 C397 1.363 . S
C398 C404 1.428 . S
H399 C395 0.930 . S
H400 C397 0.929 . S
S401 N402 1.613 . S
S401 N403 1.610 . S
N402 S401 1.613 . S
N402 C405 1.350 . S
N403 S401 1.610 . S
N403 C404 1.351 . S
C404 C398 1.428 . S
C404 N403 1.351 . S
C404 C405 1.434 . S
C405 C396 1.429 . S
C405 N402 1.350 . S
C405 C404 1.434 . S
C406 C407 1.369 . S
C406 C408 1.419 . S
C406 H410 0.930 . S
C407 C406 1.369 . S
C407 C416 1.429 . S
C408 C406 1.419 . S
C408 C409 1.363 . S
C408 H411 0.929 . S
C409 C408 1.363 . S
C409 C415 1.428 . S
H410 C406 0.930 . S
H411 C408 0.929 . S
S412 N413 1.613 . S
S412 N414 1.610 . S
N413 S412 1.613 . S
N413 C416 1.350 . S
N414 S412 1.610 . S
N414 C415 1.351 . S
C415 C409 1.428 . S
C415 N414 1.351 . S
C415 C416 1.434 . S
C416 C407 1.429 . S
C416 N413 1.350 . S
C416 C415 1.434 . S
C417 C418 1.369 . S
C417 C419 1.419 . S
C417 H421 0.930 . S
C418 C417 1.369 . S
C418 C427 1.429 . S
C419 C417 1.419 . S
C419 C420 1.363 . S
C419 H422 0.929 . S
C420 C419 1.363 . S
C420 C426 1.428 . S
H421 C417 0.930 . S
H422 C419 0.929 . S
S423 N424 1.613 . S
S423 N425 1.610 . S
N424 S423 1.613 . S
N424 C427 1.350 . S
N425 S423 1.610 . S
N425 C426 1.351 . S
C426 C420 1.428 . S
C426 N425 1.351 . S
C426 C427 1.434 . S
C427 C418 1.429 . S
C427 N424 1.350 . S
C427 C426 1.434 . S
C428 C429 1.369 . S
C428 C430 1.419 . S
C428 H432 0.930 . S
C429 C428 1.369 . S
C429 C438 1.429 . S
C430 C428 1.419 . S
C430 C431 1.363 . S
C430 H433 0.929 . S
C431 C430 1.363 . S
C431 C437 1.428 1_556 S
H432 C428 0.930 . S
H433 C430 0.929 . S
S434 N435 1.613 1_455 S
S434 N436 1.610 . S
N435 S434 1.613 1_655 S
N435 C438 1.350 1_554 S
N436 S434 1.610 . S
N436 C437 1.351 1_455 S
C437 C431 1.428 1_554 S
C437 N436 1.351 1_655 S
C437 C438 1.434 1_554 S
C438 C429 1.429 . S
C438 N435 1.350 1_556 S
C438 C437 1.434 1_556 S
C439 C440 1.369 . S
C439 C441 1.419 . S
C439 H443 0.930 . S
C440 C439 1.369 . S
C440 C449 1.429 . S
C441 C439 1.419 . S
C441 C442 1.363 . S
C441 H444 0.929 . S
C442 C441 1.363 . S
C442 C448 1.428 . S
H443 C439 0.930 . S
H444 C441 0.929 . S
S445 N446 1.613 1_556 S
S445 N447 1.610 1_556 S
N446 S445 1.613 1_554 S
N446 C449 1.350 . S
N447 S445 1.610 1_554 S
N447 C448 1.351 . S
C448 C442 1.428 . S
C448 N447 1.351 . S
C448 C449 1.434 . S
C449 C440 1.429 . S
C449 N446 1.350 . S
C449 C448 1.434 . S
C450 C451 1.369 . S
C450 C452 1.419 . S
C450 H454 0.930 . S
C451 C450 1.369 . S
C451 C460 1.429 . S
C452 C450 1.419 . S
C452 C453 1.363 . S
C452 H455 0.929 . S
C453 C452 1.363 . S
C453 C459 1.428 . S
H454 C450 0.930 . S
H455 C452 0.929 . S
S456 N457 1.613 . S
S456 N458 1.610 . S
N457 S456 1.613 . S
N457 C460 1.350 . S
N458 S456 1.610 . S
N458 C459 1.351 . S
C459 C453 1.428 . S
C459 N458 1.351 . S
C459 C460 1.434 . S
C460 C451 1.429 . S
C460 N457 1.350 . S
C460 C459 1.434 . S
C461 C462 1.369 . S
C461 C463 1.419 . S
C461 H465 0.930 . S
C462 C461 1.369 . S
C462 C471 1.429 . S
C463 C461 1.419 . S
C463 C464 1.363 . S
C463 H466 0.929 . S
C464 C463 1.363 . S
C464 C470 1.428 . S
H465 C461 0.930 . S
H466 C463 0.929 . S
S467 N468 1.613 . S
S467 N469 1.610 . S
N468 S467 1.613 . S
N468 C471 1.350 . S
N469 S467 1.610 . S
N469 C470 1.351 . S
C470 C464 1.428 . S
C470 N469 1.351 . S
C470 C471 1.434 . S
C471 C462 1.429 . S
C471 N468 1.350 . S
C471 C470 1.434 . S
C209 C6 2.282 . S
C211 C104 2.300 . S
C220 C20 1.377 . S
C222 N124 1.371 . S
C233 C158 1.677 . S
C231 N26 1.673 . S
C242 N37 1.235 . S
C244 N192 1.154 . S
C255 C145 2.638 . S
C253 C9 2.626 . S
C266 N102 0.969 . S
C264 N15 0.986 . S
C277 C179 1.919 1_556 S
C275 C31 1.904 . S
C288 N154 0.995 . S
C286 C39 0.998 . S
C297 N4 1.803 . S
C299 C194 1.819 . S
C310 C128 1.786 1_556 S
C308 C28 1.743 . S
C319 C42 1.180 . S
C321 C89 1.194 . S
C330 C17 1.543 . S
C332 C175 1.559 . S
C343 C115 2.364 1_565 S
C341 C50 2.359 . S
C352 C61 1.183 . S
C354 N132 1.183 . S
C363 N70 1.921 . S
C365 C149 1.930 . S
C374 N81 1.134 . S
C376 N184 1.081 . S
C385 N48 2.093 . S
C387 C134 2.117 1_565 S
C398 N94 1.424 . S
C396 C64 1.411 . S
C409 C188 1.947 . S
C407 C75 1.918 . S
C420 N162 1.080 . S
C418 C86 1.064 . S
C429 C53 2.008 . S
C431 C205 2.015 1_655 S
C442 C119 1.503 . S
C440 C72 1.490 . S
C453 C98 1.465 . S
C451 C83 1.457 . S
C462 N59 1.402 . S
C464 C164 1.414 . S
