# Generated by pormake.
# Topology tsx, (6,3)-cn, num edge types: 1
# Building blocks:
#     Node 0, Type 0, BuildingBlock: JUFBIX_clean_sbu_0, # of connection points: 6
#     Node 1, Type 0, BuildingBlock: JUFBIX_clean_sbu_0, # of connection points: 6
#     Node 2, Type 1, BuildingBlock: BETDAH_clean_linker_0, # of connection points: 3
#     Node 3, Type 1, BuildingBlock: BETDAH_clean_linker_0, # of connection points: 3
#     Node 4, Type 1, BuildingBlock: BETDAH_clean_linker_0, # of connection points: 3
#     Node 5, Type 1, BuildingBlock: BETDAH_clean_linker_0, # of connection points: 3
#     Edge 6, Type (0, 1), BuildingBlock: MIFKUJ_clean_linker_0, # of connection points: 2
#     Edge 7, Type (0, 1), BuildingBlock: MIFKUJ_clean_linker_0, # of connection points: 2
#     Edge 8, Type (0, 1), BuildingBlock: MIFKUJ_clean_linker_0, # of connection points: 2
#     Edge 9, Type (0, 1), BuildingBlock: MIFKUJ_clean_linker_0, # of connection points: 2
#     Edge 10, Type (0, 1), BuildingBlock: MIFKUJ_clean_linker_0, # of connection points: 2
#     Edge 11, Type (0, 1), BuildingBlock: MIFKUJ_clean_linker_0, # of connection points: 2
#     Edge 12, Type (0, 1), BuildingBlock: MIFKUJ_clean_linker_0, # of connection points: 2
#     Edge 13, Type (0, 1), BuildingBlock: MIFKUJ_clean_linker_0, # of connection points: 2
#     Edge 14, Type (0, 1), BuildingBlock: MIFKUJ_clean_linker_0, # of connection points: 2
#     Edge 15, Type (0, 1), BuildingBlock: MIFKUJ_clean_linker_0, # of connection points: 2
#     Edge 16, Type (0, 1), BuildingBlock: MIFKUJ_clean_linker_0, # of connection points: 2
#     Edge 17, Type (0, 1), BuildingBlock: MIFKUJ_clean_linker_0, # of connection points: 2
# Relax obj value: 0.101
# Max RMSD: 0.124
# Mean RMSD: 0.113
data_MOF--net-tsx--node1-JUFBIX_clean_sbu_0--node2-BETDAH_clean_linker_0--edge1-MIFKUJ_clean_linker_0
_symmetry_space_group_name_H-M    P1
_symmetry_Int_Tables_number       1
_symmetry_cell_setting            triclinic
loop_
_symmetry_equiv_pos_as_xyz
'x, y, z'
_cell_length_a     26.256389
_cell_length_b     30.832286
_cell_length_c     42.492888
_cell_angle_alpha  91.900269
_cell_angle_beta   99.119323
_cell_angle_gamma 97.266717
loop_
_atom_site_label
_atom_site_type_symbol
_atom_site_fract_x
_atom_site_fract_y
_atom_site_fract_z
_atom_type_partial_charge
Co0 Co 0.04576 0.97466 0.00947 0.0
C1 C 1.00346 0.98898 0.94702 0.0
Co2 Co 0.97598 0.0092 0.00538 0.0
C3 C 0.11766 0.91133 -0.00012 0.0
C4 C 0.15215 0.96628 0.03157 0.0
N5 N 0.10705 0.94903 0.01317 0.0
N6 N 0.1677 0.90444 0.00941 0.0
C7 C 0.18925 0.93932 0.02922 0.0
H8 H 0.08895 0.88915 0.98398 0.0
H9 H 0.15776 0.99664 0.04595 0.0
C10 C 0.01879 0.99662 0.06792 0.0
N11 N 0.91513 0.03495 0.00326 0.0
C12 C 0.90285 0.07323 0.99147 0.0
C13 C 0.87427 0.01933 0.01713 0.0
N14 N 0.85586 0.08189 0.99746 0.0
C15 C 0.83799 0.04783 0.01356 0.0
C16 C 0.95603 0.91755 0.00529 0.0
O17 O 0.05231 0.9792 0.05503 0.0
O18 O 0.98177 0.01115 0.05028 0.0
O19 O 0.93648 0.95313 0.00274 0.0
O20 O 0.0052 0.91867 0.00867 0.0
O21 O 0.97095 0.00726 0.96038 0.0
H22 H 0.87183 0.98984 0.03021 0.0
H23 H 0.92832 0.09461 0.97928 0.0
O24 O 0.03875 0.97125 0.96411 0.0
O25 O 0.08511 0.0308 0.01006 0.0
O26 O 0.01638 0.06496 0.00808 0.0
C27 C 0.06521 0.0663 0.00943 0.0
H28 H 0.22927 0.94547 0.0411 0.0
H29 H 0.80223 0.04452 0.02342 0.0
Co30 Co 0.55553 0.49638 0.50265 0.0
C31 C 0.50665 0.51791 0.44252 0.0
Co32 Co 0.488 0.533 0.50281 0.0
C33 C 0.62319 0.42719 0.5016 0.0
C34 C 0.65785 0.48942 0.48911 0.0
N35 N 0.61484 0.46955 0.49908 0.0
N36 N 0.66939 0.42019 0.49337 0.0
C37 C 0.69128 0.45954 0.48587 0.0
H38 H 0.59499 0.40161 0.50787 0.0
H39 H 0.66408 0.52321 0.48309 0.0
C40 C 0.5379 0.51296 0.56303 0.0
N41 N 0.42946 0.55958 0.506 0.0
C42 C 0.41463 0.59644 0.49322 0.0
C43 C 0.39307 0.54603 0.52389 0.0
N44 N 0.37035 0.60649 0.50253 0.0
C45 C 0.35686 0.57466 0.52185 0.0
C46 C 0.46474 0.44079 0.49879 0.0
O47 O 0.56799 0.49441 0.54783 0.0
O48 O 0.5011 0.53074 0.54775 0.0
O49 O 0.4464 0.47701 0.49926 0.0
O50 O 0.51341 0.44106 0.49975 0.0
O51 O 0.4763 0.53573 0.45788 0.0
H52 H 0.39346 0.51757 0.53811 0.0
H53 H 0.43613 0.61551 0.47753 0.0
O54 O 0.54249 0.49872 0.45752 0.0
O55 O 0.59641 0.55275 0.50611 0.0
O56 O 0.52946 0.58836 0.50643 0.0
C57 C 0.57808 0.58887 0.50743 0.0
H58 H 0.72853 0.46631 0.47794 0.0
H59 H 0.32401 0.57271 0.53446 0.0
H60 H 0.10717 0.97755 0.3981 0.0
H61 H 0.99345 0.05821 0.41955 0.0
H62 H 0.05444 0.97084 0.48852 0.0
C63 C 0.08429 0.98951 0.41482 0.0
C64 C 0.08577 0.97125 0.44462 0.0
C65 C 0.05117 0.02082 0.40549 0.0
C66 C 0.01932 0.0343 0.42668 0.0
C67 C 0.02088 0.01642 0.45689 0.0
C68 C 0.05382 0.98488 0.46546 0.0
N69 N 0.9895 0.02844 0.47919 0.0
C70 C 0.95601 0.06 0.47507 0.0
H71 H 0.93768 0.9787 0.6182 0.0
H72 H 0.07864 0.05772 0.60404 0.0
H73 H 0.99289 0.96777 0.52881 0.0
C74 C 0.96515 0.98986 0.60267 0.0
C75 C 0.95945 0.97025 0.5719 0.0
C76 C 0.00825 0.02103 0.61456 0.0
C77 C 0.04503 0.03405 0.59481 0.0
C78 C 0.03891 0.01526 0.56354 0.0
C79 C 0.99673 0.98295 0.55258 0.0
N80 N 0.07529 0.02652 0.54281 0.0
C81 C 0.11047 0.06465 0.54612 0.0
H82 H 0.6121 0.4533 0.90209 0.0
H83 H 0.48712 0.5302 0.90609 0.0
H84 H 0.53928 0.45485 0.9855 0.0
C85 C 0.58407 0.46563 0.91508 0.0
C86 C 0.58061 0.45161 0.94573 0.0
C87 C 0.54948 0.49272 0.90008 0.0
C88 C 0.5141 0.50937 0.91741 0.0
C89 C 0.511 0.49634 0.94858 0.0
C90 C 0.5432 0.46644 0.96211 0.0
N91 N 0.47411 0.51058 0.96633 0.0
C92 C 0.44942 0.54757 0.96055 0.0
H93 H 0.42436 0.45251 0.11319 0.0
H94 H 0.55293 0.54328 0.09416 0.0
H95 H 0.46035 0.45827 0.01818 0.0
C96 C 0.4477 0.4671 0.0964 0.0
C97 C 0.43684 0.45204 0.06431 0.0
C98 C 0.48959 0.49979 0.10729 0.0
C99 C 0.52035 0.51827 0.08568 0.0
C100 C 0.50971 0.50301 0.0534 0.0
C101 C 0.46813 0.47008 0.04301 0.0
N102 N 0.5403 0.51889 0.03059 0.0
C103 C 0.58429 0.54976 0.03674 0.0
H104 H 0.1646 0.07931 0.99774 0.0
H105 H 0.22304 0.14804 0.00252 0.0
H106 H 0.10179 0.21719 0.02886 0.0
H107 H 0.04221 0.14835 0.0231 0.0
H108 H 0.15711 0.26477 0.99078 0.0
H109 H 0.19516 0.18842 0.08581 0.0
H110 H 0.215 0.12528 0.11747 0.0
H111 H 0.35677 0.1231 0.07942 0.0
H112 H 0.33737 0.18584 0.04713 0.0
H113 H 0.33608 0.44513 0.07422 0.0
H114 H 0.26822 0.38208 0.05977 0.0
H115 H 0.37556 0.31393 0.0166 0.0
H116 H 0.44327 0.37695 0.03066 0.0
H117 H 0.32526 0.26781 0.06369 0.0
H118 H 0.28508 0.34713 0.96914 0.0
H119 H 0.26357 0.41162 0.93957 0.0
H120 H 0.124 0.41063 0.98043 0.0
H121 H 0.14512 0.3465 0.01068 0.0
C122 C 0.15021 0.10916 0.00439 0.0
C123 C 0.0991 0.10843 0.01052 0.0
C124 C 0.18367 0.1484 0.00712 0.0
C125 C 0.16707 0.18753 0.01672 0.0
C126 C 0.11539 0.18727 0.02159 0.0
C127 C 0.08153 0.14797 0.01842 0.0
C128 C 0.20466 0.22806 0.02313 0.0
C129 C 0.19358 0.26565 0.00703 0.0
C130 C 0.25242 0.22902 0.04415 0.0
C131 C 0.26457 0.1916 0.06384 0.0
C132 C 0.2304 0.1743 0.08403 0.0
C133 C 0.24158 0.13859 0.10211 0.0
C134 C 0.28706 0.12012 0.1004 0.0
C135 C 0.32153 0.13741 0.08069 0.0
C136 C 0.31049 0.17307 0.06251 0.0
C137 C 0.34487 0.4168 0.06137 0.0
C138 C 0.39472 0.41569 0.05354 0.0
C139 C 0.30617 0.38105 0.05303 0.0
C140 C 0.31707 0.3436 0.03709 0.0
C141 C 0.36655 0.34271 0.02881 0.0
C142 C 0.40499 0.37866 0.03672 0.0
C143 C 0.27803 0.30417 0.03101 0.0
C144 C 0.28879 0.26686 0.04741 0.0
C145 C 0.22982 0.30381 0.01069 0.0
C146 C 0.217 0.3423 0.99246 0.0
C147 C 0.25007 0.36092 0.97208 0.0
C148 C 0.23789 0.39735 0.95514 0.0
C149 C 0.19253 0.41529 0.95819 0.0
C150 C 0.15918 0.39674 0.97813 0.0
C151 C 0.17121 0.36033 0.99516 0.0
H152 H 0.18316 0.44349 0.94504 0.0
H153 H 0.29564 0.09247 0.11441 0.0
H154 H 0.13845 0.84577 0.95805 0.0
H155 H 0.18419 0.78526 0.94382 0.0
H156 H 0.30164 0.81971 0.0269 0.0
H157 H 0.25604 0.87899 0.04174 0.0
H158 H 0.34457 0.80554 0.97312 0.0
H159 H 0.21042 0.73411 0.02683 0.0
H160 H 0.11992 0.713 0.0351 0.0
H161 H 0.0822 0.64925 0.94139 0.0
H162 H 0.17237 0.67055 0.93239 0.0
H163 H 0.4753 0.62016 -0.00076 0.0
H164 H 0.42564 0.68202 0.00141 0.0
H165 H 0.31335 0.6225 0.92145 0.0
H166 H 0.36277 0.55997 0.9199 0.0
H167 H 0.2646 0.6502 0.96618 0.0
H168 H 0.40064 0.71531 0.91399 0.0
H169 H 0.49108 0.73605 0.90552 0.0
H170 H 0.52536 0.81155 0.99482 0.0
H171 H 0.43525 0.79087 0.00404 0.0
C172 C 0.1737 0.84029 0.97348 0.0
C173 C 0.19349 0.86784 0.00097 0.0
C174 C 0.19996 0.80573 0.96521 0.0
C175 C 0.24653 0.79803 0.98424 0.0
C176 C 0.26614 0.82527 0.01165 0.0
C177 C 0.23988 0.85945 0.02003 0.0
C178 C 0.27513 0.76158 0.97606 0.0
C179 C 0.3272 0.77154 0.97176 0.0
C180 C 0.25208 0.71729 0.97337 0.0
C181 C 0.19794 0.7044 0.97878 0.0
C182 C 0.1827 0.71594 0.00787 0.0
C183 C 0.1315 0.70387 0.01272 0.0
C184 C 0.09528 0.67993 0.98874 0.0
C185 C 0.11026 0.66789 0.95991 0.0
C186 C 0.16141 0.67994 0.95493 0.0
C187 C 0.4404 0.62076 0.98187 0.0
C188 C 0.42284 0.58587 0.95923 0.0
C189 C 0.41209 0.65612 0.98303 0.0
C190 C 0.36592 0.65735 0.96132 0.0
C191 C 0.34883 0.62245 0.93838 0.0
C192 C 0.37713 0.58694 0.93734 0.0
C193 C 0.33449 0.69404 0.96373 0.0
C194 C 0.28188 0.68417 0.96701 0.0
C195 C 0.35701 0.73848 0.96533 0.0
C196 C 0.4112 0.75132 0.95978 0.0
C197 C 0.42752 0.73615 0.93191 0.0
C198 C 0.47871 0.74796 0.92695 0.0
C199 C 0.51392 0.77514 0.9496 0.0
C200 C 0.498 0.79057 0.97727 0.0
C201 C 0.44684 0.77888 0.98235 0.0
H202 H 0.55356 0.78416 0.94575 0.0
H203 H 0.05566 0.67061 0.99254 0.0
H204 H 0.85092 0.90723 0.00195 0.0
H205 H 0.79353 0.8408 0.00777 0.0
H206 H 0.92368 0.76698 0.01582 0.0
H207 H 0.98219 0.83415 0.01085 0.0
H208 H 0.76503 0.76682 0.97501 0.0
H209 H 0.90391 0.68524 0.06698 0.0
H210 H 0.98068 0.70633 0.10874 0.0
H211 H 0.9328 0.83284 0.12218 0.0
H212 H 0.85545 0.81229 0.08082 0.0
H213 H 0.64653 0.55447 0.99284 0.0
H214 H 0.71729 0.61304 0.98886 0.0
H215 H 0.69314 0.67499 0.07691 0.0
H216 H 0.62214 0.61605 0.08089 0.0
H217 H 0.79981 0.67955 0.07033 0.0
H218 H 0.63706 0.70985 0.01284 0.0
H219 H 0.55529 0.69092 0.97486 0.0
H220 H 0.64205 0.67647 0.89844 0.0
H221 H 0.72446 0.69424 0.93618 0.0
C222 C 0.86754 0.87691 0.0048 0.0
C223 C 0.92129 0.87607 0.00616 0.0
C224 C 0.83451 0.83885 0.00801 0.0
C225 C 0.85429 0.79897 0.01256 0.0
C226 C 0.90769 0.79757 0.01283 0.0
C227 C 0.94102 0.83589 0.00983 0.0
C228 C 0.81874 0.75949 0.01789 0.0
C229 C 0.77292 0.74764 0.99575 0.0
C230 C 0.82835 0.7349 0.0453 0.0
C231 C 0.87425 0.74736 0.07057 0.0
C232 C 0.9097 0.71749 0.07895 0.0
C233 C 0.95332 0.72936 0.10253 0.0
C234 C 0.9617 0.77095 0.11803 0.0
C235 C 0.92636 0.80069 0.11008 0.0
C236 C 0.88266 0.78896 0.08655 0.0
C237 C 0.65718 0.58024 0.0116 0.0
C238 C 0.62948 0.58132 0.03711 0.0
C239 C 0.69741 0.61353 0.00933 0.0
C240 C 0.7101 0.64838 0.03249 0.0
C241 C 0.68398 0.64823 0.05891 0.0
C242 C 0.64351 0.61485 0.06112 0.0
C243 C 0.74678 0.68696 0.02732 0.0
C244 C 0.79249 0.69858 0.04946 0.0
C245 C 0.73641 0.71217 0.0004 0.0
C246 C 0.68696 0.70293 0.9774 0.0
C247 C 0.63873 0.70235 0.98798 0.0
C248 C 0.59226 0.69181 0.9665 0.0
C249 C 0.59348 0.68243 0.93426 0.0
C250 C 0.64118 0.6837 0.92343 0.0
C251 C 0.6878 0.69397 0.94486 0.0
H252 H 0.55746 0.67425 0.91767 0.0
H253 H 0.99552 0.78009 0.13624 0.0
H254 H 0.75282 0.08793 0.99161 0.0
H255 H 0.71089 0.1536 0.98495 0.0
H256 H 0.85875 0.22963 0.97989 0.0
H257 H 0.90175 0.16388 0.98824 0.0
H258 H 0.80704 0.27238 0.01678 0.0
H259 H 0.76545 0.20281 0.91259 0.0
H260 H 0.73428 0.14255 0.8718 0.0
H261 H 0.58228 0.13167 0.8984 0.0
H262 H 0.61272 0.19148 0.93969 0.0
H263 H 0.68567 0.45357 0.94995 0.0
H264 H 0.73637 0.39291 0.96196 0.0
H265 H 0.59893 0.31291 0.98128 0.0
H266 H 0.54809 0.37357 0.96934 0.0
H267 H 0.64882 0.2746 0.936 0.0
H268 H 0.69385 0.34609 0.04094 0.0
H269 H 0.72703 0.40846 0.07968 0.0
H270 H 0.87558 0.41847 0.04842 0.0
H271 H 0.84303 0.35654 0.00913 0.0
C272 C 0.7767 0.11854 0.98928 0.0
C273 C 0.83085 0.12047 0.99067 0.0
C274 C 0.75246 0.15613 0.98509 0.0
C275 C 0.78147 0.1966 0.98152 0.0
C276 C 0.8355 0.19875 0.9825 0.0
C277 C 0.85997 0.16102 0.98695 0.0
C278 C 0.75507 0.23651 0.97748 0.0
C279 C 0.77296 0.27311 -0.00124 0.0
C280 C 0.71007 0.23736 0.9543 0.0
C281 C 0.69152 0.20141 0.92943 0.0
C282 C 0.72548 0.18735 0.90992 0.0
C283 C 0.70792 0.15331 0.88667 0.0
C284 C 0.65637 0.13323 0.88256 0.0
C285 C 0.62222 0.14723 0.90164 0.0
C286 C 0.63959 0.18124 0.92494 0.0
C287 C 0.66661 0.4233 0.95741 0.0
C288 C 0.613 0.41818 0.9587 0.0
C289 C 0.69557 0.38875 0.96431 0.0
C290 C 0.67136 0.3484 0.97243 0.0
C291 C 0.61831 0.34381 0.97504 0.0
C292 C 0.58943 0.37854 0.96849 0.0
C293 C 0.70029 0.31 0.97558 0.0
C294 C 0.68296 0.27379 0.95398 0.0
C295 C 0.7461 0.30985 0.99813 0.0
C296 C 0.76582 0.34694 0.02186 0.0
C297 C 0.73345 0.36183 0.04212 0.0
C298 C 0.75217 0.39706 0.06422 0.0
C299 C 0.80333 0.41749 0.06645 0.0
C300 C 0.83593 0.40265 0.04664 0.0
C301 C 0.81738 0.36745 0.02447 0.0
H302 H 0.81776 0.44476 0.08358 0.0
H303 H 0.64285 0.10688 0.86455 0.0
H304 H 0.68201 0.60058 0.50498 0.0
H305 H 0.74168 0.66862 0.5134 0.0
H306 H 0.61502 0.74009 0.52679 0.0
H307 H 0.55439 0.67185 0.5176 0.0
H308 H 0.68038 0.7855 0.49261 0.0
H309 H 0.69537 0.71357 0.5898 0.0
H310 H 0.70567 0.65177 0.62443 0.0
H311 H 0.85893 0.64636 0.60252 0.0
H312 H 0.84892 0.70734 0.56687 0.0
H313 H 0.85615 0.9687 0.57523 0.0
H314 H 0.78688 0.90654 0.56161 0.0
H315 H 0.8974 0.82826 0.5317 0.0
H316 H 0.96663 0.89024 0.54507 0.0
H317 H 0.836 0.78938 0.57647 0.0
H318 H 0.81575 0.86204 0.47691 0.0
H319 H 0.80245 0.92543 0.44415 0.0
H320 H 0.65586 0.93281 0.47532 0.0
H321 H 0.6687 0.86985 0.5087 0.0
C322 C 0.6666 0.63071 0.5095 0.0
C323 C 0.61348 0.6307 0.51091 0.0
C324 C 0.70086 0.66963 0.51439 0.0
C325 C 0.68297 0.70932 0.52128 0.0
C326 C 0.62966 0.70977 0.52162 0.0
C327 C 0.59514 0.67075 0.51649 0.0
C328 C 0.7206 0.74977 0.52929 0.0
C329 C 0.71401 0.78657 0.51124 0.0
C330 C 0.76457 0.75113 0.55359 0.0
C331 C 0.77119 0.71483 0.5754 0.0
C332 C 0.73114 0.69901 0.59214 0.0
C333 C 0.73694 0.66412 0.61199 0.0
C334 C 0.78297 0.64518 0.61574 0.0
C335 C 0.82328 0.66107 0.59959 0.0
C336 C 0.81754 0.69577 0.57951 0.0
C337 C 0.86544 0.93831 0.56547 0.0
C338 C 0.91664 0.93422 0.56111 0.0
C339 C 0.82593 0.90298 0.55765 0.0
C340 C 0.83716 0.86294 0.54566 0.0
C341 C 0.88807 0.85897 0.54091 0.0
C342 C 0.92741 0.89442 0.54831 0.0
C343 C 0.79638 0.82454 0.53929 0.0
C344 C 0.80228 0.78823 0.55788 0.0
C345 C 0.75146 0.82401 0.51593 0.0
C346 C 0.74346 0.86153 0.49558 0.0
C347 C 0.78089 0.87742 0.477 0.0
C348 C 0.7734 0.91323 0.45828 0.0
C349 C 0.72841 0.93322 0.45772 0.0
C350 C 0.69073 0.91733 0.47581 0.0
C351 C 0.69808 0.88157 0.49462 0.0
H352 H 0.72269 0.96095 0.44322 0.0
H353 H 0.78741 0.6182 0.63116 0.0
H354 H 0.65014 0.34668 0.52577 0.0
H355 H 0.68893 0.2787 0.52174 0.0
H356 H 0.7749 0.33361 0.45068 0.0
H357 H 0.73506 0.40018 0.4536 0.0
H358 H 0.73875 0.25147 0.43399 0.0
H359 H 0.83032 0.33151 0.53071 0.0
H360 H 0.83735 0.36806 0.58403 0.0
H361 H 0.77214 0.24821 0.61947 0.0
H362 H 0.76412 0.21108 0.56621 0.0
H363 H 0.95448 0.13254 0.44111 0.0
H364 H 0.89616 0.18856 0.44334 0.0
H365 H 0.81951 0.11478 0.51115 0.0
H366 H 0.87831 0.05917 0.50912 0.0
H367 H 0.84155 0.19973 0.53031 0.0
H368 H 0.75962 0.11788 0.43411 0.0
H369 H 0.75537 0.08203 0.38084 0.0
H370 H 0.80441 0.20584 0.34422 0.0
H371 H 0.80968 0.24237 0.39739 0.0
C372 C 0.67684 0.34399 0.50906 0.0
C373 C 0.69005 0.37925 0.4904 0.0
C374 C 0.6993 0.30527 0.50694 0.0
C375 C 0.73547 0.30124 0.48622 0.0
C376 C 0.74732 0.33589 0.46693 0.0
C377 C 0.7249 0.3743 0.46895 0.0
C378 C 0.76247 0.26175 0.48488 0.0
C379 C 0.76145 0.24031 0.45504 0.0
C380 C 0.79113 0.24642 0.51241 0.0
C381 C 0.79603 0.26869 0.54441 0.0
C382 C 0.81711 0.31305 0.54982 0.0
C383 C 0.82134 0.33386 0.58003 0.0
C384 C 0.80504 0.31051 0.6051 0.0
C385 C 0.78463 0.26627 0.60002 0.0
C386 C 0.78026 0.24533 0.56983 0.0
C387 C 0.92478 0.12832 0.4562 0.0
C388 C 0.92024 0.09182 0.47479 0.0
C389 C 0.89144 0.16012 0.45743 0.0
C390 C 0.85304 0.15565 0.47719 0.0
C391 C 0.84869 0.11889 0.49571 0.0
C392 C 0.88202 0.08714 0.49446 0.0
C393 C 0.81868 0.19008 0.47933 0.0
C394 C 0.81831 0.21051 0.50931 0.0
C395 C 0.78895 0.20461 0.45191 0.0
C396 C 0.78541 0.18281 0.41981 0.0
C397 C 0.76984 0.13742 0.41475 0.0
C398 C 0.7672 0.11698 0.38457 0.0
C399 C 0.77971 0.14162 0.35918 0.0
C400 C 0.79476 0.18679 0.36391 0.0
C401 C 0.79752 0.20738 0.39406 0.0
H402 H 0.77766 0.12574 0.33583 0.0
H403 H 0.80836 0.32667 0.62848 0.0
H404 H 0.35899 0.42689 0.48338 0.0
H405 H 0.30065 0.36115 0.49064 0.0
H406 H 0.43287 0.29573 0.52507 0.0
H407 H 0.49166 0.36108 0.51666 0.0
H408 H 0.35947 0.23934 0.49038 0.0
H409 H 0.36389 0.34425 0.57688 0.0
H410 H 0.35763 0.41663 0.60136 0.0
H411 H 0.19791 0.40762 0.55645 0.0
H412 H 0.20344 0.33544 0.53131 0.0
H413 H 0.21432 0.07424 0.56543 0.0
H414 H 0.277 0.13797 0.55825 0.0
H415 H 0.15051 0.20495 0.51576 0.0
H416 H 0.08798 0.14139 0.52332 0.0
H417 H 0.22354 0.25955 0.55649 0.0
H418 H 0.22108 0.15419 0.46934 0.0
H419 H 0.22788 0.08071 0.44691 0.0
H420 H 0.38546 0.08965 0.49563 0.0
H421 H 0.37934 0.16297 0.51871 0.0
C422 C 0.3757 0.39833 0.49212 0.0
C423 C 0.42993 0.3993 0.49971 0.0
C424 C 0.34228 0.36081 0.49644 0.0
C425 C 0.36227 0.32381 0.50922 0.0
C426 C 0.41648 0.32394 0.51538 0.0
C427 C 0.45005 0.36132 0.51057 0.0
C428 C 0.32656 0.28592 0.5174 0.0
C429 C 0.33023 0.24373 0.50517 0.0
C430 C 0.28793 0.29152 0.53647 0.0
C431 C 0.28421 0.33459 0.55201 0.0
C432 C 0.32751 0.35781 0.57209 0.0
C433 C 0.32409 0.39879 0.58609 0.0
C434 C 0.27743 0.41675 0.58041 0.0
C435 C 0.23404 0.39368 0.5608 0.0
C436 C 0.23728 0.35271 0.5467 0.0
C437 C 0.20014 0.10295 0.55503 0.0
C438 C 0.14677 0.10349 0.54507 0.0
C439 C 0.23582 0.13912 0.55074 0.0
C440 C 0.21846 0.17603 0.53611 0.0
C441 C 0.16476 0.17687 0.52709 0.0
C442 C 0.12914 0.14071 0.53142 0.0
C443 C 0.25616 0.21321 0.52923 0.0
C444 C 0.2529 0.25523 0.54176 0.0
C445 C 0.29532 0.20736 0.51066 0.0
C446 C 0.29961 0.16391 0.49595 0.0
C447 C 0.25712 0.14041 0.47536 0.0
C448 C 0.26084 0.0988 0.46253 0.0
C449 C 0.30704 0.08049 0.4699 0.0
C450 C 0.3497 0.10387 0.48997 0.0
C451 C 0.34614 0.14548 0.5029 0.0
H452 H 0.30981 0.04821 0.46003 0.0
H453 H 0.27488 0.44851 0.59123 0.0
H454 H 0.26941 0.61421 0.50561 0.0
H455 H 0.22552 0.67828 0.49543 0.0
H456 H 0.36508 0.748 0.47016 0.0
H457 H 0.41046 0.68443 0.48202 0.0
H458 H 0.32276 0.7997 0.50653 0.0
H459 H 0.25992 0.70752 0.41268 0.0
H460 H 0.22182 0.63935 0.38105 0.0
H461 H 0.08112 0.63929 0.4206 0.0
H462 H 0.11865 0.70716 0.45282 0.0
H463 H 0.18654 0.96921 0.43616 0.0
H464 H 0.23808 0.90867 0.4455 0.0
H465 H 0.11117 0.8339 0.4812 0.0
H466 H 0.05901 0.89394 0.47129 0.0
H467 H 0.15052 0.78676 0.43672 0.0
H468 H 0.21758 0.87972 0.53187 0.0
H469 H 0.25637 0.94991 0.56056 0.0
H470 H 0.39093 0.95031 0.51477 0.0
H471 H 0.35259 0.88036 0.48546 0.0
C472 C 0.29117 0.64314 0.49818 0.0
C473 C 0.34372 0.64394 0.49477 0.0
C474 C 0.26569 0.67973 0.49197 0.0
C475 C 0.29171 0.71781 0.48157 0.0
C476 C 0.34413 0.71888 0.47804 0.0
C477 C 0.36989 0.6823 0.48452 0.0
C478 C 0.26409 0.75655 0.47497 0.0
C479 C 0.2855 0.797 0.49086 0.0
C480 C 0.21514 0.75302 0.45482 0.0
C481 C 0.19229 0.71226 0.43537 0.0
C482 C 0.22099 0.69281 0.41481 0.0
C483 C 0.19947 0.65424 0.39675 0.0
C484 C 0.14912 0.63495 0.39886 0.0
C485 C 0.12013 0.65425 0.419 0.0
C486 C 0.14149 0.6928 0.43714 0.0
C487 C 0.16971 0.93989 0.44608 0.0
C488 C 0.11872 0.93627 0.45296 0.0
C489 C 0.19929 0.90547 0.45157 0.0
C490 C 0.17849 0.86688 0.46415 0.0
C491 C 0.12791 0.86344 0.47149 0.0
C492 C 0.09836 0.89789 0.4661 0.0
C493 C 0.20876 0.82949 0.4687 0.0
C494 C 0.18787 0.78936 0.45231 0.0
C495 C 0.25838 0.83351 0.48805 0.0
C496 C 0.28201 0.875 0.50626 0.0
C497 C 0.25532 0.89489 0.52779 0.0
C498 C 0.27723 0.93462 0.54417 0.0
C499 C 0.32602 0.95462 0.53943 0.0
C500 C 0.35311 0.9348 0.5184 0.0
C501 C 0.33134 0.89509 0.50192 0.0
H502 H 0.34288 0.98542 0.55208 0.0
H503 H 0.13253 0.60509 0.38486 0.0
H504 H 0.94275 0.01252 0.10175 0.0
H505 H 0.9499 0.02397 0.1594 0.0
H506 H 0.11174 0.00489 0.1712 0.0
H507 H 0.10422 0.99174 0.11334 0.0
H508 H 0.06928 0.96562 0.21529 0.0
H509 H 0.07168 0.10895 0.17663 0.0
H510 H 0.04152 0.16716 0.14285 0.0
H511 H 0.89846 0.15524 0.18071 0.0
H512 H 0.92744 0.09647 0.21439 0.0
H513 H 0.13138 0.04741 0.37397 0.0
H514 H 0.12642 0.05288 0.31634 0.0
H515 H 0.95884 0.03321 0.30448 0.0
H516 H 0.96346 0.02672 0.36222 0.0
H517 H 0.00722 0.09558 0.26124 0.0
H518 H 0.00799 0.94797 0.29825 0.0
H519 H 0.04432 0.89389 0.33376 0.0
H520 H 0.18986 0.91894 0.29934 0.0
H521 H 0.15466 0.97388 0.26408 0.0
C522 C 0.97987 0.01063 0.11661 0.0
C523 C 0.02303 1.00144 0.10301 0.0
C524 C 0.984 0.0175 0.14959 0.0
C525 C 0.03168 0.01634 0.16968 0.0
C526 C 0.0746 0.0062 0.1562 0.0
C527 C 0.07028 0.99867 0.12315 0.0
C528 C 0.03635 0.02514 0.20472 0.0
C529 C 0.05639 0.9944 0.22523 0.0
C530 C 0.01903 0.06247 0.2179 0.0
C531 C 1.00156 0.09802 0.19784 0.0
C532 C 0.03363 0.11852 0.1776 0.0
C533 C 0.01677 0.15165 0.15848 0.0
C534 C 0.96806 0.16482 0.15958 0.0
C535 C 0.93616 0.14497 0.17986 0.0
C536 C 0.95281 0.11178 0.19899 0.0
C537 C 0.09344 0.04524 0.35917 0.0
C538 C 0.04779 0.03585 0.37249 0.0
C539 C 0.09071 0.04851 0.32631 0.0
C540 C 0.0423 0.04276 0.30623 0.0
C541 C 0.99655 0.03769 0.31968 0.0
C542 C 0.99925 0.03412 0.35265 0.0
C543 C 0.03979 0.03602 0.27134 0.0
C544 C 0.02019 0.06701 0.25104 0.0
C545 C 0.05822 0.99933 0.25832 0.0
C546 C 0.07886 0.96533 0.27877 0.0
C547 C 0.04785 0.94216 0.29841 0.0
C548 C 0.06823 0.91135 0.31849 0.0
C549 C 0.11942 0.90307 0.31887 0.0
C550 C 0.15025 0.92545 0.29906 0.0
C551 C 0.1301 0.95642 0.27902 0.0
H552 H 0.13515 0.87923 0.33446 0.0
H553 H 0.95506 0.19047 0.14476 0.0
H554 H 0.07735 0.96787 0.91258 0.0
H555 H 0.08071 0.97989 0.85629 0.0
H556 H 0.93276 0.02917 0.84662 0.0
H557 H 0.92905 0.01739 0.90291 0.0
H558 H 0.94074 0.97226 0.79586 0.0
H559 H 0.03941 0.09953 0.85481 0.0
H560 H 0.10753 0.1383 0.89649 0.0
H561 H 0.22514 0.08468 0.85375 0.0
H562 H 0.1576 0.04495 0.81209 0.0
H563 H 0.9411 0.05708 0.64698 0.0
H564 H 0.94475 0.06113 0.70493 0.0
H565 H 0.09619 0.01767 0.71726 0.0
H566 H 0.09311 0.01464 0.65926 0.0
H567 H 0.08682 0.07357 0.76713 0.0
H568 H 0.99006 0.94425 0.70997 0.0
H569 H 0.92336 0.90464 0.66787 0.0
H570 H 0.80367 0.95971 0.70753 0.0
H571 H 0.86984 1.00041 0.74951 0.0
C572 C 0.04522 0.9808 0.89842 0.0
C573 C 1.00299 0.99181 0.91226 0.0
C574 C 0.04738 0.9879 0.86631 0.0
C575 C 0.00731 0.00596 0.84744 0.0
C576 C 0.96417 0.01537 0.86083 0.0
C577 C 0.96215 0.00862 0.893 0.0
C578 C 0.01082 0.0158 0.81387 0.0
C579 C 0.97226 0.99486 0.78961 0.0
C580 C 0.05264 0.04458 0.80574 0.0
C581 C 0.09339 0.06891 0.8305 0.0
C582 C 0.07976 0.09573 0.85443 0.0
C583 C 0.11827 0.11791 0.87804 0.0
C584 C 0.17062 0.11387 0.87781 0.0
C585 C 0.18456 0.08773 0.85391 0.0
C586 C 0.14619 0.06539 0.83029 0.0
C587 C 0.97589 0.0499 0.66218 0.0
C588 C 0.01666 0.03525 0.64878 0.0
C589 C 0.97786 0.05199 0.69521 0.0
C590 C 0.02015 0.03858 0.71532 0.0
C591 C 0.06309 0.02794 0.70217 0.0
C592 C 0.06138 0.02634 0.66906 0.0
C593 C 0.01655 0.03022 0.74915 0.0
C594 C 0.05516 0.05118 0.77342 0.0
C595 C 0.97497 1.00116 0.75735 0.0
C596 C 0.93495 0.9757 0.73271 0.0
C597 C 0.94954 0.94809 0.70962 0.0
C598 C 0.91185 0.92546 0.68577 0.0
C599 C 0.85932 0.92972 0.68499 0.0
C600 C 0.84438 0.9565 0.70814 0.0
C601 C 0.88197 0.97936 0.73197 0.0
H602 H 0.83019 0.91222 0.66647 0.0
H603 H 0.20037 0.13106 0.89611 0.0
H604 H 0.51127 0.57508 0.60162 0.0
H605 H 0.51736 0.57647 0.65969 0.0
H606 H 0.58479 0.45593 0.66178 0.0
H607 H 0.58016 0.45491 0.60348 0.0
H608 H 0.48833 0.46175 0.69238 0.0
H609 H 0.66227 0.53359 0.68978 0.0
H610 H 0.72712 0.58991 0.67375 0.0
H611 H 0.65699 0.6908 0.71611 0.0
H612 H 0.59118 0.63507 0.73199 0.0
H613 H 0.55537 0.4315 0.85378 0.0
H614 H 0.55471 0.44078 0.79733 0.0
H615 H 0.53416 0.57653 0.81018 0.0
H616 H 0.53777 0.56802 0.86782 0.0
H617 H 0.60327 0.56792 0.77131 0.0
H618 H 0.43234 0.50035 0.77596 0.0
H619 H 0.36397 0.44712 0.79175 0.0
H620 H 0.42099 0.34259 0.74433 0.0
H621 H 0.49025 0.3951 0.72865 0.0
C622 C 0.5279 0.54909 0.61449 0.0
C623 C 0.54508 0.51475 0.59815 0.0
C624 C 0.53153 0.55007 0.64759 0.0
C625 C 0.55158 0.51639 0.66482 0.0
C626 C 0.56939 0.48228 0.64871 0.0
C627 C 0.56684 0.48177 0.61556 0.0
C628 C 0.55053 0.51543 0.69939 0.0
C629 C 0.51392 0.48447 0.70978 0.0
C630 C 0.58223 0.54662 0.72161 0.0
C631 C 0.62142 0.58017 0.71175 0.0
C632 C 0.66027 0.5678 0.69534 0.0
C633 C 0.69733 0.59962 0.68638 0.0
C634 C 0.69614 0.64391 0.69387 0.0
C635 C 0.65785 0.65648 0.71031 0.0
C636 C 0.62069 0.62479 0.71931 0.0
C637 C 0.55151 0.46362 0.84485 0.0
C638 C 0.5473 0.49922 0.86544 0.0
C639 C 0.55035 0.46868 0.81238 0.0
C640 C 0.54355 0.50914 0.7994 0.0
C641 C 0.53922 0.54494 0.81972 0.0
C642 C 0.54089 0.53998 0.85254 0.0
C643 C 0.54177 0.51343 0.7646 0.0
C644 C 0.57748 0.5452 0.75402 0.0
C645 C 0.50849 0.48346 0.74203 0.0
C646 C 0.46677 0.45168 0.75133 0.0
C647 C 0.43057 0.46597 0.7691 0.0
C648 C 0.39161 0.43593 0.778 0.0
C649 C 0.3882 0.39149 0.7691 0.0
C650 C 0.4237 0.37702 0.75122 0.0
C651 C 0.46278 0.40693 0.74228 0.0
H652 H 0.358 0.36828 0.77601 0.0
H653 H 0.72495 0.66849 0.687 0.0
H654 H 0.47094 0.58289 0.40655 0.0
H655 H 0.47389 0.59218 0.34981 0.0
H656 H 0.5358 0.46945 0.34358 0.0
H657 H 0.5356 0.46146 0.40048 0.0
H658 H 0.58793 0.52532 0.31437 0.0
H659 H 0.40288 0.48569 0.31392 0.0
H660 H 0.3181 0.49441 0.32968 0.0
H661 H 0.32536 0.6227 0.29289 0.0
H662 H 0.41049 0.6149 0.27723 0.0
H663 H 0.51565 0.44662 0.15462 0.0
H664 H 0.52583 0.46316 0.21212 0.0
H665 H 0.49969 0.59638 0.19507 0.0
H666 H 0.49002 0.57981 0.13708 0.0
H667 H 0.43558 0.55192 0.2358 0.0
H668 H 0.61565 0.58256 0.22778 0.0
H669 H 0.69769 0.56876 0.21044 0.0
H670 H 0.69691 0.45134 0.26202 0.0
H671 H 0.61445 0.46405 0.2793 0.0
C672 C 0.48461 0.55775 0.39289 0.0
C673 C 0.5029 0.52139 0.40777 0.0
C674 C 0.48625 0.56303 0.36047 0.0
C675 C 0.5047 0.53135 0.34225 0.0
C676 C 0.52175 0.49453 0.3571 0.0
C677 C 0.52132 0.48981 0.38957 0.0
C678 C 0.50755 0.53645 0.30788 0.0
C679 C 0.55443 0.53086 0.29722 0.0
C680 C 0.46456 0.54536 0.28553 0.0
C681 C 0.41328 0.54991 0.29475 0.0
C682 C 0.38653 0.51586 0.30939 0.0
C683 C 0.33841 0.52062 0.31827 0.0
C684 C 0.31644 0.55914 0.31239 0.0
C685 C 0.34247 0.59292 0.29749 0.0
C686 C 0.39063 0.58834 0.28859 0.0
C687 C 0.51304 0.47961 0.16323 0.0
C688 C 0.50223 0.51204 0.14171 0.0
C689 C 0.51892 0.48905 0.19598 0.0
C690 C 0.51372 0.53102 0.20777 0.0
C691 C 0.504 0.56386 0.18633 0.0
C692 C 0.4988 0.55451 0.1534 0.0
C693 C 0.51512 0.53894 0.24242 0.0
C694 C 0.46922 0.54716 0.25312 0.0
C695 C 0.5587 0.53174 0.26478 0.0
C696 C 0.60868 0.5242 0.25472 0.0
C697 C 0.63278 0.55365 0.23527 0.0
C698 C 0.6794 0.54604 0.22547 0.0
C699 C 0.70247 0.50918 0.2351 0.0
C700 C 0.67902 0.4799 0.2546 0.0
C701 C 0.63237 0.48733 0.26445 0.0
H702 H 0.73855 0.50333 0.22747 0.0
H703 H 0.2792 0.56278 0.3193 0.0
loop_
_geom_bond_atom_site_label_1
_geom_bond_atom_site_label_2
_geom_bond_distance
_geom_bond_site_symmetry_2
_ccdc_geom_bond_type
Co0 N5 2.057 . S
Co0 O17 2.021 . S
Co0 O20 2.062 1_455 S
Co0 O24 2.117 1_554 S
Co0 O25 2.020 1_565 S
C1 O21 1.259 1_455 S
C1 O24 1.258 1_545 S
Co2 N11 2.057 . S
Co2 O18 2.117 1_655 S
Co2 O19 2.019 1_545 S
Co2 O21 2.021 1_554 S
Co2 O26 2.062 1_655 S
C3 N5 1.316 . S
C3 N6 1.347 . S
C3 H8 0.931 . S
C4 N5 1.375 1_556 S
C4 C7 1.350 . S
C4 H9 0.930 . S
N5 Co0 2.057 . S
N5 C3 1.316 . S
N5 C4 1.375 1_554 S
N6 C3 1.347 . S
N6 C7 1.373 1_554 S
C7 C4 1.350 . S
C7 N6 1.373 1_556 S
C7 H28 0.931 . S
H8 C3 0.931 . S
H9 C4 0.930 . S
C10 O17 1.259 1_545 S
C10 O18 1.258 . S
N11 Co2 2.057 . S
N11 C12 1.316 1_554 S
N11 C13 1.375 . S
C12 N11 1.316 1_556 S
C12 N14 1.347 1_556 S
C12 H23 0.931 . S
C13 N11 1.375 . S
C13 C15 1.350 . S
C13 H22 0.930 . S
N14 C12 1.347 1_554 S
N14 C15 1.373 . S
C15 C13 1.350 . S
C15 N14 1.373 . S
C15 H29 0.931 . S
C16 O19 1.256 . S
C16 O20 1.255 . S
O17 Co0 2.021 . S
O17 C10 1.259 1_565 S
O18 Co2 2.117 1_455 S
O18 C10 1.258 . S
O19 Co2 2.019 1_565 S
O19 C16 1.256 . S
O20 Co0 2.062 1_655 S
O20 C16 1.255 . S
O21 C1 1.259 1_655 S
O21 Co2 2.021 1_556 S
H22 C13 0.930 . S
H23 C12 0.931 . S
O24 Co0 2.117 1_556 S
O24 C1 1.258 1_565 S
O25 Co0 2.020 1_545 S
O25 C27 1.256 . S
O26 Co2 2.062 1_455 S
O26 C27 1.255 . S
C27 O25 1.256 . S
C27 O26 1.255 . S
H28 C7 0.931 . S
H29 C15 0.931 . S
Co30 N35 2.057 . S
Co30 O47 2.021 . S
Co30 O50 2.062 . S
Co30 O54 2.117 . S
Co30 O55 2.020 . S
C31 O51 1.259 . S
C31 O54 1.258 . S
Co32 N41 2.057 . S
Co32 O48 2.117 . S
Co32 O49 2.020 . S
Co32 O51 2.021 . S
Co32 O56 2.062 . S
C33 N35 1.316 . S
C33 N36 1.347 . S
C33 H38 0.931 . S
C34 N35 1.375 . S
C34 C37 1.350 . S
C34 H39 0.930 . S
N35 Co30 2.057 . S
N35 C33 1.316 . S
N35 C34 1.375 . S
N36 C33 1.347 . S
N36 C37 1.373 . S
C37 C34 1.350 . S
C37 N36 1.373 . S
C37 H58 0.931 . S
H38 C33 0.931 . S
H39 C34 0.930 . S
C40 O47 1.259 . S
C40 O48 1.258 . S
N41 Co32 2.057 . S
N41 C42 1.316 . S
N41 C43 1.375 . S
C42 N41 1.316 . S
C42 N44 1.347 . S
C42 H53 0.931 . S
C43 N41 1.375 . S
C43 C45 1.350 . S
C43 H52 0.930 . S
N44 C42 1.347 . S
N44 C45 1.373 . S
C45 C43 1.350 . S
C45 N44 1.373 . S
C45 H59 0.931 . S
C46 O49 1.256 . S
C46 O50 1.255 . S
O47 Co30 2.021 . S
O47 C40 1.259 . S
O48 Co32 2.117 . S
O48 C40 1.258 . S
O49 Co32 2.020 . S
O49 C46 1.256 . S
O50 Co30 2.062 . S
O50 C46 1.255 . S
O51 C31 1.259 . S
O51 Co32 2.021 . S
H52 C43 0.930 . S
H53 C42 0.931 . S
O54 Co30 2.117 . S
O54 C31 1.258 . S
O55 Co30 2.020 . S
O55 C57 1.256 . S
O56 Co32 2.062 . S
O56 C57 1.255 . S
C57 O55 1.256 . S
C57 O56 1.255 . S
H58 C37 0.931 . S
H59 C45 0.931 . S
H60 C63 0.929 . S
H61 C66 0.929 1_655 S
H62 C68 0.930 . S
C63 H60 0.929 . S
C63 C64 1.398 . S
C63 C65 1.396 . S
C64 C63 1.398 . S
C64 C68 1.407 . S
C65 C63 1.396 . S
C65 C66 1.394 1_565 S
C66 H61 0.929 1_455 S
C66 C65 1.394 1_545 S
C66 C67 1.382 . S
C67 C66 1.382 . S
C67 C68 1.392 1_545 S
C67 N69 1.420 1_455 S
C68 H62 0.930 . S
C68 C64 1.407 . S
C68 C67 1.392 1_565 S
N69 C67 1.420 1_655 S
N69 C70 1.244 . S
C70 N69 1.244 . S
H71 C74 0.929 . S
H72 C77 0.929 . S
H73 C79 0.930 . S
C74 H71 0.929 . S
C74 C75 1.398 . S
C74 C76 1.396 1_565 S
C75 C74 1.398 . S
C75 C79 1.407 . S
C76 C74 1.396 1_545 S
C76 C77 1.394 1_655 S
C77 H72 0.929 . S
C77 C76 1.394 1_455 S
C77 C78 1.382 . S
C78 C77 1.382 . S
C78 C79 1.392 1_445 S
C78 N80 1.420 . S
C79 H73 0.930 . S
C79 C75 1.407 . S
C79 C78 1.392 1_665 S
N80 C78 1.420 . S
N80 C81 1.244 . S
C81 N80 1.244 . S
H82 C85 0.929 . S
H83 C88 0.929 . S
H84 C90 0.930 . S
C85 H82 0.929 . S
C85 C86 1.398 . S
C85 C87 1.396 . S
C86 C85 1.398 . S
C86 C90 1.407 . S
C87 C85 1.396 . S
C87 C88 1.394 . S
C88 H83 0.929 . S
C88 C87 1.394 . S
C88 C89 1.382 . S
C89 C88 1.382 . S
C89 C90 1.392 . S
C89 N91 1.420 . S
C90 H84 0.930 . S
C90 C86 1.407 . S
C90 C89 1.392 . S
N91 C89 1.420 . S
N91 C92 1.244 . S
C92 N91 1.244 . S
H93 C96 0.929 . S
H94 C99 0.929 . S
H95 C101 0.930 . S
C96 H93 0.929 . S
C96 C97 1.398 . S
C96 C98 1.396 . S
C97 C96 1.398 . S
C97 C101 1.407 . S
C98 C96 1.396 . S
C98 C99 1.394 . S
C99 H94 0.929 . S
C99 C98 1.394 . S
C99 C100 1.382 . S
C100 C99 1.382 . S
C100 C101 1.392 . S
C100 N102 1.420 . S
C101 H95 0.930 . S
C101 C97 1.407 . S
C101 C100 1.392 . S
N102 C100 1.420 . S
N102 C103 1.244 . S
C103 N102 1.244 . S
H104 C122 0.951 1_556 S
H105 C124 0.951 . S
H106 C126 0.950 . S
H107 C127 0.950 . S
H108 C129 0.950 . S
H109 C132 0.950 . S
H110 C133 0.950 . S
H111 C135 0.950 . S
H112 C136 0.950 . S
H113 C137 0.951 . S
H114 C139 0.951 . S
H115 C141 0.950 . S
H116 C142 0.950 . S
H117 C144 0.950 . S
H118 C147 0.950 . S
H119 C148 0.950 . S
H120 C150 0.950 . S
H121 C151 0.966 . S
C122 H104 0.951 1_554 S
C122 C123 1.366 . S
C122 C124 1.388 . S
C123 C122 1.366 . S
C123 C127 1.385 . S
C124 H105 0.951 . S
C124 C122 1.388 . S
C124 C125 1.366 . S
C125 C124 1.366 . S
C125 C126 1.414 . S
C125 C128 1.499 . S
C126 H106 0.950 . S
C126 C125 1.414 . S
C126 C127 1.374 . S
C127 H107 0.950 . S
C127 C123 1.385 . S
C127 C126 1.374 . S
C128 C125 1.499 . S
C128 C129 1.373 . S
C128 C130 1.389 . S
C129 H108 0.950 . S
C129 C128 1.373 . S
C129 C145 1.377 . S
C130 C128 1.389 . S
C130 C131 1.524 . S
C130 C144 1.377 . S
C131 C130 1.524 . S
C131 C132 1.397 . S
C131 C136 1.363 . S
C132 H109 0.950 . S
C132 C131 1.397 . S
C132 C133 1.334 . S
C133 H110 0.950 . S
C133 C132 1.334 . S
C133 C134 1.287 . S
C134 C133 1.287 . S
C134 C135 1.524 . S
C134 H153 0.913 . S
C135 H111 0.950 . S
C135 C134 1.524 . S
C135 C136 1.415 . S
C136 H112 0.950 . S
C136 C131 1.363 . S
C136 C135 1.415 . S
C137 H113 0.951 . S
C137 C138 1.366 . S
C137 C139 1.388 . S
C138 C137 1.366 . S
C138 C142 1.385 . S
C139 H114 0.951 . S
C139 C137 1.388 . S
C139 C140 1.366 . S
C140 C139 1.366 . S
C140 C141 1.414 . S
C140 C143 1.499 . S
C141 H115 0.950 . S
C141 C140 1.414 . S
C141 C142 1.374 . S
C142 H116 0.950 . S
C142 C138 1.385 . S
C142 C141 1.374 . S
C143 C140 1.499 . S
C143 C144 1.373 . S
C143 C145 1.389 . S
C144 H117 0.950 . S
C144 C130 1.377 . S
C144 C143 1.373 . S
C145 C129 1.377 . S
C145 C143 1.389 . S
C145 C146 1.524 1_554 S
C146 C145 1.524 1_556 S
C146 C147 1.397 . S
C146 C151 1.357 1_556 S
C147 H118 0.950 . S
C147 C146 1.397 . S
C147 C148 1.334 . S
C148 H119 0.950 . S
C148 C147 1.334 . S
C148 C149 1.287 . S
C149 C148 1.287 . S
C149 C150 1.524 . S
C149 H152 0.999 . S
C150 H120 0.950 . S
C150 C149 1.524 . S
C150 C151 1.405 1_556 S
C151 H121 0.966 . S
C151 C146 1.357 1_554 S
C151 C150 1.405 1_554 S
H152 C149 0.999 . S
H153 C134 0.913 . S
H154 C172 0.951 . S
H155 C174 0.951 . S
H156 C176 0.950 . S
H157 C177 0.950 . S
H158 C179 0.952 . S
H159 C182 0.950 . S
H160 C183 0.950 . S
H161 C185 0.950 . S
H162 C186 0.950 . S
H163 C187 0.951 . S
H164 C189 0.951 . S
H165 C191 0.950 . S
H166 C192 0.950 . S
H167 C194 0.950 . S
H168 C197 0.950 . S
H169 C198 0.950 . S
H170 C200 0.950 . S
H171 C201 0.950 . S
C172 H154 0.951 . S
C172 C173 1.366 1_556 S
C172 C174 1.388 . S
C173 C172 1.366 1_554 S
C173 C177 1.385 . S
C174 H155 0.951 . S
C174 C172 1.388 . S
C174 C175 1.366 1_556 S
C175 C174 1.366 1_554 S
C175 C176 1.414 . S
C175 C178 1.499 . S
C176 H156 0.950 . S
C176 C175 1.414 . S
C176 C177 1.374 . S
C177 H157 0.950 . S
C177 C173 1.385 . S
C177 C176 1.374 . S
C178 C175 1.499 . S
C178 C179 1.382 . S
C178 C180 1.389 1_554 S
C179 H158 0.952 . S
C179 C178 1.382 . S
C179 C195 1.367 1_554 S
C180 C178 1.389 1_556 S
C180 C181 1.518 1_556 S
C180 C194 1.382 . S
C181 C180 1.518 1_554 S
C181 C182 1.397 . S
C181 C186 1.363 1_554 S
C182 H159 0.950 . S
C182 C181 1.397 . S
C182 C183 1.334 . S
C183 H160 0.950 . S
C183 C182 1.334 . S
C183 C184 1.287 . S
C184 C183 1.287 . S
C184 C185 1.524 1_554 S
C184 H203 0.913 . S
C185 H161 0.950 . S
C185 C184 1.524 1_556 S
C185 C186 1.415 . S
C186 H162 0.950 . S
C186 C181 1.363 1_556 S
C186 C185 1.415 . S
C187 H163 0.951 . S
C187 C188 1.366 1_554 S
C187 C189 1.388 . S
C188 C187 1.366 1_556 S
C188 C192 1.385 . S
C189 H164 0.951 . S
C189 C187 1.388 . S
C189 C190 1.366 1_554 S
C190 C189 1.366 1_556 S
C190 C191 1.414 . S
C190 C193 1.499 . S
C191 H165 0.950 . S
C191 C190 1.414 . S
C191 C192 1.374 . S
C192 H166 0.950 . S
C192 C188 1.385 . S
C192 C191 1.374 . S
C193 C190 1.499 . S
C193 C194 1.373 . S
C193 C195 1.389 . S
C194 H167 0.950 . S
C194 C180 1.382 . S
C194 C193 1.373 . S
C195 C179 1.367 1_556 S
C195 C193 1.389 . S
C195 C196 1.524 . S
C196 C195 1.524 . S
C196 C197 1.397 . S
C196 C201 1.363 1_556 S
C197 H168 0.950 . S
C197 C196 1.397 . S
C197 C198 1.334 . S
C198 H169 0.950 . S
C198 C197 1.334 . S
C198 C199 1.287 . S
C199 C198 1.287 . S
C199 C200 1.524 1_556 S
C199 H202 0.999 . S
C200 H170 0.950 . S
C200 C199 1.524 1_554 S
C200 C201 1.415 . S
C201 H171 0.950 . S
C201 C196 1.363 1_554 S
C201 C200 1.415 . S
H202 C199 0.999 . S
H203 C184 0.913 . S
H204 C222 0.951 . S
H205 C224 0.951 . S
H206 C226 0.950 . S
H207 C227 0.950 . S
H208 C229 0.950 . S
H209 C232 0.950 . S
H210 C233 0.950 . S
H211 C235 0.950 . S
H212 C236 0.950 . S
H213 C237 0.944 1_556 S
H214 C239 0.951 . S
H215 C241 0.950 . S
H216 C242 0.950 . S
H217 C244 0.950 . S
H218 C247 0.950 . S
H219 C248 0.950 . S
H220 C250 0.950 . S
H221 C251 0.950 . S
C222 H204 0.951 . S
C222 C223 1.366 . S
C222 C224 1.388 . S
C223 C222 1.366 . S
C223 C227 1.385 1_554 S
C224 H205 0.951 . S
C224 C222 1.388 . S
C224 C225 1.366 . S
C225 C224 1.366 . S
C225 C226 1.414 1_554 S
C225 C228 1.499 . S
C226 H206 0.950 . S
C226 C225 1.414 1_556 S
C226 C227 1.374 . S
C227 H207 0.950 . S
C227 C223 1.385 1_556 S
C227 C226 1.374 . S
C228 C225 1.499 . S
C228 C229 1.373 1_554 S
C228 C230 1.389 . S
C229 H208 0.950 . S
C229 C228 1.373 1_556 S
C229 C245 1.377 . S
C230 C228 1.389 . S
C230 C231 1.524 . S
C230 C244 1.377 . S
C231 C230 1.524 . S
C231 C232 1.397 . S
C231 C236 1.363 . S
C232 H209 0.950 . S
C232 C231 1.397 . S
C232 C233 1.334 . S
C233 H210 0.950 . S
C233 C232 1.334 . S
C233 C234 1.287 . S
C234 C233 1.287 . S
C234 C235 1.524 . S
C234 H253 0.913 . S
C235 H211 0.950 . S
C235 C234 1.524 . S
C235 C236 1.415 . S
C236 H212 0.950 . S
C236 C231 1.363 . S
C236 C235 1.415 . S
C237 H213 0.944 1_554 S
C237 C238 1.375 . S
C237 C239 1.386 1_554 S
C238 C237 1.375 . S
C238 C242 1.385 . S
C239 H214 0.951 . S
C239 C237 1.386 1_556 S
C239 C240 1.366 1_556 S
C240 C239 1.366 1_554 S
C240 C241 1.414 . S
C240 C243 1.499 . S
C241 H215 0.950 . S
C241 C240 1.414 . S
C241 C242 1.374 . S
C242 H216 0.950 . S
C242 C238 1.385 . S
C242 C241 1.374 . S
C243 C240 1.499 . S
C243 C244 1.373 . S
C243 C245 1.387 1_554 S
C244 H217 0.950 . S
C244 C230 1.377 . S
C244 C243 1.373 . S
C245 C229 1.377 . S
C245 C243 1.387 1_556 S
C245 C246 1.526 . S
C246 C245 1.526 . S
C246 C247 1.396 1_556 S
C246 C251 1.363 . S
C247 H218 0.950 . S
C247 C246 1.396 1_554 S
C247 C248 1.334 1_554 S
C248 H219 0.950 . S
C248 C247 1.334 1_556 S
C248 C249 1.287 . S
C249 C248 1.287 . S
C249 C250 1.524 . S
C249 H252 0.999 . S
C250 H220 0.950 . S
C250 C249 1.524 . S
C250 C251 1.415 . S
C251 H221 0.950 . S
C251 C246 1.363 . S
C251 C250 1.415 . S
H252 C249 0.999 . S
H253 C234 0.913 . S
H254 C272 0.951 . S
H255 C274 0.951 . S
H256 C276 0.950 . S
H257 C277 0.950 1_554 S
H258 C279 0.950 . S
H259 C282 0.950 . S
H260 C283 0.950 . S
H261 C285 0.950 . S
H262 C286 0.950 . S
H263 C287 0.951 . S
H264 C289 0.951 . S
H265 C291 0.950 . S
H266 C292 0.950 . S
H267 C294 0.950 . S
H268 C297 0.950 . S
H269 C298 0.950 . S
H270 C300 0.950 . S
H271 C301 0.950 . S
C272 H254 0.951 . S
C272 C273 1.366 . S
C272 C274 1.388 . S
C273 C272 1.366 . S
C273 C277 1.385 . S
C274 H255 0.951 . S
C274 C272 1.388 . S
C274 C275 1.366 . S
C275 C274 1.366 . S
C275 C276 1.414 . S
C275 C278 1.499 . S
C276 H256 0.950 . S
C276 C275 1.414 . S
C276 C277 1.374 . S
C277 H257 0.950 1_556 S
C277 C273 1.385 . S
C277 C276 1.374 . S
C278 C275 1.499 . S
C278 C279 1.373 1_556 S
C278 C280 1.389 . S
C279 H258 0.950 . S
C279 C278 1.373 1_554 S
C279 C295 1.377 . S
C280 C278 1.389 . S
C280 C281 1.524 . S
C280 C294 1.377 . S
C281 C280 1.524 . S
C281 C282 1.397 . S
C281 C286 1.363 . S
C282 H259 0.950 . S
C282 C281 1.397 . S
C282 C283 1.334 . S
C283 H260 0.950 . S
C283 C282 1.334 . S
C283 C284 1.287 . S
C284 C283 1.287 . S
C284 C285 1.524 . S
C284 H303 0.913 . S
C285 H261 0.950 . S
C285 C284 1.524 . S
C285 C286 1.415 . S
C286 H262 0.950 . S
C286 C281 1.363 . S
C286 C285 1.415 . S
C287 H263 0.951 . S
C287 C288 1.366 . S
C287 C289 1.388 . S
C288 C287 1.366 . S
C288 C292 1.385 . S
C289 H264 0.951 . S
C289 C287 1.388 . S
C289 C290 1.366 . S
C290 C289 1.366 . S
C290 C291 1.414 . S
C290 C293 1.499 . S
C291 H265 0.950 . S
C291 C290 1.414 . S
C291 C292 1.374 . S
C292 H266 0.950 . S
C292 C288 1.385 . S
C292 C291 1.374 . S
C293 C290 1.499 . S
C293 C294 1.373 . S
C293 C295 1.389 1_556 S
C294 H267 0.950 . S
C294 C280 1.377 . S
C294 C293 1.373 . S
C295 C279 1.377 . S
C295 C293 1.389 1_554 S
C295 C296 1.524 . S
C296 C295 1.524 . S
C296 C297 1.397 . S
C296 C301 1.363 . S
C297 H268 0.950 . S
C297 C296 1.397 . S
C297 C298 1.334 . S
C298 H269 0.950 . S
C298 C297 1.334 . S
C298 C299 1.287 . S
C299 C298 1.287 . S
C299 C300 1.524 . S
C299 H302 0.999 . S
C300 H270 0.950 . S
C300 C299 1.524 . S
C300 C301 1.415 . S
C301 H271 0.950 . S
C301 C296 1.363 . S
C301 C300 1.415 . S
H302 C299 0.999 . S
H303 C284 0.913 . S
H304 C322 0.951 . S
H305 C324 0.951 . S
H306 C326 0.950 . S
H307 C327 0.950 . S
H308 C329 0.950 . S
H309 C332 0.950 . S
H310 C333 0.950 . S
H311 C335 0.950 . S
H312 C336 0.950 . S
H313 C337 0.951 . S
H314 C339 0.951 . S
H315 C341 0.950 . S
H316 C342 0.950 . S
H317 C344 0.950 . S
H318 C347 0.950 . S
H319 C348 0.950 . S
H320 C350 0.950 . S
H321 C351 0.950 . S
C322 H304 0.951 . S
C322 C323 1.366 . S
C322 C324 1.388 . S
C323 C322 1.366 . S
C323 C327 1.385 . S
C324 H305 0.951 . S
C324 C322 1.388 . S
C324 C325 1.366 . S
C325 C324 1.366 . S
C325 C326 1.414 . S
C325 C328 1.499 . S
C326 H306 0.950 . S
C326 C325 1.414 . S
C326 C327 1.374 . S
C327 H307 0.950 . S
C327 C323 1.385 . S
C327 C326 1.374 . S
C328 C325 1.499 . S
C328 C329 1.373 . S
C328 C330 1.389 . S
C329 H308 0.950 . S
C329 C328 1.373 . S
C329 C345 1.377 . S
C330 C328 1.389 . S
C330 C331 1.524 . S
C330 C344 1.377 . S
C331 C330 1.524 . S
C331 C332 1.397 . S
C331 C336 1.363 . S
C332 H309 0.950 . S
C332 C331 1.397 . S
C332 C333 1.334 . S
C333 H310 0.950 . S
C333 C332 1.334 . S
C333 C334 1.287 . S
C334 C333 1.287 . S
C334 C335 1.524 . S
C334 H353 0.913 . S
C335 H311 0.950 . S
C335 C334 1.524 . S
C335 C336 1.415 . S
C336 H312 0.950 . S
C336 C331 1.363 . S
C336 C335 1.415 . S
C337 H313 0.951 . S
C337 C338 1.366 . S
C337 C339 1.388 . S
C338 C337 1.366 . S
C338 C342 1.385 . S
C339 H314 0.951 . S
C339 C337 1.388 . S
C339 C340 1.366 . S
C340 C339 1.366 . S
C340 C341 1.414 . S
C340 C343 1.499 . S
C341 H315 0.950 . S
C341 C340 1.414 . S
C341 C342 1.374 . S
C342 H316 0.950 . S
C342 C338 1.385 . S
C342 C341 1.374 . S
C343 C340 1.499 . S
C343 C344 1.373 . S
C343 C345 1.389 . S
C344 H317 0.950 . S
C344 C330 1.377 . S
C344 C343 1.373 . S
C345 C329 1.377 . S
C345 C343 1.389 . S
C345 C346 1.524 . S
C346 C345 1.524 . S
C346 C347 1.397 . S
C346 C351 1.363 . S
C347 H318 0.950 . S
C347 C346 1.397 . S
C347 C348 1.334 . S
C348 H319 0.950 . S
C348 C347 1.334 . S
C348 C349 1.287 . S
C349 C348 1.287 . S
C349 C350 1.524 . S
C349 H352 0.999 . S
C350 H320 0.950 . S
C350 C349 1.524 . S
C350 C351 1.415 . S
C351 H321 0.950 . S
C351 C346 1.363 . S
C351 C350 1.415 . S
H352 C349 0.999 . S
H353 C334 0.913 . S
H354 C372 0.951 . S
H355 C374 0.951 . S
H356 C376 0.950 . S
H357 C377 0.950 . S
H358 C379 0.950 . S
H359 C382 0.950 . S
H360 C383 0.950 . S
H361 C385 0.950 . S
H362 C386 0.950 . S
H363 C387 0.951 . S
H364 C389 0.951 . S
H365 C391 0.950 . S
H366 C392 0.950 . S
H367 C394 0.950 . S
H368 C397 0.950 . S
H369 C398 0.950 . S
H370 C400 0.950 . S
H371 C401 0.950 . S
C372 H354 0.951 . S
C372 C373 1.366 . S
C372 C374 1.388 . S
C373 C372 1.366 . S
C373 C377 1.385 . S
C374 H355 0.951 . S
C374 C372 1.388 . S
C374 C375 1.366 . S
C375 C374 1.366 . S
C375 C376 1.414 . S
C375 C378 1.499 . S
C376 H356 0.950 . S
C376 C375 1.414 . S
C376 C377 1.374 . S
C377 H357 0.950 . S
C377 C373 1.385 . S
C377 C376 1.374 . S
C378 C375 1.499 . S
C378 C379 1.373 . S
C378 C380 1.389 . S
C379 H358 0.950 . S
C379 C378 1.373 . S
C379 C395 1.377 . S
C380 C378 1.389 . S
C380 C381 1.524 . S
C380 C394 1.377 . S
C381 C380 1.524 . S
C381 C382 1.397 . S
C381 C386 1.363 . S
C382 H359 0.950 . S
C382 C381 1.397 . S
C382 C383 1.334 . S
C383 H360 0.950 . S
C383 C382 1.334 . S
C383 C384 1.287 . S
C384 C383 1.287 . S
C384 C385 1.524 . S
C384 H403 0.913 . S
C385 H361 0.950 . S
C385 C384 1.524 . S
C385 C386 1.415 . S
C386 H362 0.950 . S
C386 C381 1.363 . S
C386 C385 1.415 . S
C387 H363 0.951 . S
C387 C388 1.366 . S
C387 C389 1.388 . S
C388 C387 1.366 . S
C388 C392 1.385 . S
C389 H364 0.951 . S
C389 C387 1.388 . S
C389 C390 1.366 . S
C390 C389 1.366 . S
C390 C391 1.414 . S
C390 C393 1.499 . S
C391 H365 0.950 . S
C391 C390 1.414 . S
C391 C392 1.374 . S
C392 H366 0.950 . S
C392 C388 1.385 . S
C392 C391 1.374 . S
C393 C390 1.499 . S
C393 C394 1.373 . S
C393 C395 1.389 . S
C394 H367 0.950 . S
C394 C380 1.377 . S
C394 C393 1.373 . S
C395 C379 1.377 . S
C395 C393 1.389 . S
C395 C396 1.524 . S
C396 C395 1.524 . S
C396 C397 1.397 . S
C396 C401 1.363 . S
C397 H368 0.950 . S
C397 C396 1.397 . S
C397 C398 1.334 . S
C398 H369 0.950 . S
C398 C397 1.334 . S
C398 C399 1.287 . S
C399 C398 1.287 . S
C399 C400 1.524 . S
C399 H402 0.999 . S
C400 H370 0.950 . S
C400 C399 1.524 . S
C400 C401 1.415 . S
C401 H371 0.950 . S
C401 C396 1.363 . S
C401 C400 1.415 . S
H402 C399 0.999 . S
H403 C384 0.913 . S
H404 C422 0.951 . S
H405 C424 0.951 . S
H406 C426 0.950 . S
H407 C427 0.950 . S
H408 C429 0.950 . S
H409 C432 0.950 . S
H410 C433 0.950 . S
H411 C435 0.950 . S
H412 C436 0.950 . S
H413 C437 0.951 . S
H414 C439 0.951 . S
H415 C441 0.950 . S
H416 C442 0.950 . S
H417 C444 0.950 . S
H418 C447 0.950 . S
H419 C448 0.950 . S
H420 C450 0.950 . S
H421 C451 0.950 . S
C422 H404 0.951 . S
C422 C423 1.366 . S
C422 C424 1.388 . S
C423 C422 1.366 . S
C423 C427 1.385 . S
C424 H405 0.951 . S
C424 C422 1.388 . S
C424 C425 1.366 . S
C425 C424 1.366 . S
C425 C426 1.414 . S
C425 C428 1.499 . S
C426 H406 0.950 . S
C426 C425 1.414 . S
C426 C427 1.374 . S
C427 H407 0.950 . S
C427 C423 1.385 . S
C427 C426 1.374 . S
C428 C425 1.499 . S
C428 C429 1.373 . S
C428 C430 1.389 . S
C429 H408 0.950 . S
C429 C428 1.373 . S
C429 C445 1.377 . S
C430 C428 1.389 . S
C430 C431 1.524 . S
C430 C444 1.377 . S
C431 C430 1.524 . S
C431 C432 1.397 . S
C431 C436 1.363 . S
C432 H409 0.950 . S
C432 C431 1.397 . S
C432 C433 1.334 . S
C433 H410 0.950 . S
C433 C432 1.334 . S
C433 C434 1.287 . S
C434 C433 1.287 . S
C434 C435 1.524 . S
C434 H453 0.913 . S
C435 H411 0.950 . S
C435 C434 1.524 . S
C435 C436 1.415 . S
C436 H412 0.950 . S
C436 C431 1.363 . S
C436 C435 1.415 . S
C437 H413 0.951 . S
C437 C438 1.366 . S
C437 C439 1.388 . S
C438 C437 1.366 . S
C438 C442 1.385 . S
C439 H414 0.951 . S
C439 C437 1.388 . S
C439 C440 1.366 . S
C440 C439 1.366 . S
C440 C441 1.414 . S
C440 C443 1.499 . S
C441 H415 0.950 . S
C441 C440 1.414 . S
C441 C442 1.374 . S
C442 H416 0.950 . S
C442 C438 1.385 . S
C442 C441 1.374 . S
C443 C440 1.499 . S
C443 C444 1.373 . S
C443 C445 1.389 . S
C444 H417 0.950 . S
C444 C430 1.377 . S
C444 C443 1.373 . S
C445 C429 1.377 . S
C445 C443 1.389 . S
C445 C446 1.524 . S
C446 C445 1.524 . S
C446 C447 1.397 . S
C446 C451 1.363 . S
C447 H418 0.950 . S
C447 C446 1.397 . S
C447 C448 1.334 . S
C448 H419 0.950 . S
C448 C447 1.334 . S
C448 C449 1.287 . S
C449 C448 1.287 . S
C449 C450 1.524 . S
C449 H452 0.999 . S
C450 H420 0.950 . S
C450 C449 1.524 . S
C450 C451 1.415 . S
C451 H421 0.950 . S
C451 C446 1.363 . S
C451 C450 1.415 . S
H452 C449 0.999 . S
H453 C434 0.913 . S
H454 C472 0.951 . S
H455 C474 0.951 . S
H456 C476 0.950 . S
H457 C477 0.950 . S
H458 C479 0.950 . S
H459 C482 0.950 . S
H460 C483 0.950 . S
H461 C485 0.950 . S
H462 C486 0.950 . S
H463 C487 0.951 . S
H464 C489 0.951 . S
H465 C491 0.950 . S
H466 C492 0.950 . S
H467 C494 0.950 . S
H468 C497 0.950 . S
H469 C498 0.950 . S
H470 C500 0.950 . S
H471 C501 0.950 . S
C472 H454 0.951 . S
C472 C473 1.366 . S
C472 C474 1.388 . S
C473 C472 1.366 . S
C473 C477 1.385 . S
C474 H455 0.951 . S
C474 C472 1.388 . S
C474 C475 1.366 . S
C475 C474 1.366 . S
C475 C476 1.414 . S
C475 C478 1.499 . S
C476 H456 0.950 . S
C476 C475 1.414 . S
C476 C477 1.374 . S
C477 H457 0.950 . S
C477 C473 1.385 . S
C477 C476 1.374 . S
C478 C475 1.499 . S
C478 C479 1.373 . S
C478 C480 1.389 . S
C479 H458 0.950 . S
C479 C478 1.373 . S
C479 C495 1.377 . S
C480 C478 1.389 . S
C480 C481 1.524 . S
C480 C494 1.377 . S
C481 C480 1.524 . S
C481 C482 1.397 . S
C481 C486 1.363 . S
C482 H459 0.950 . S
C482 C481 1.397 . S
C482 C483 1.334 . S
C483 H460 0.950 . S
C483 C482 1.334 . S
C483 C484 1.287 . S
C484 C483 1.287 . S
C484 C485 1.524 . S
C484 H503 0.913 . S
C485 H461 0.950 . S
C485 C484 1.524 . S
C485 C486 1.415 . S
C486 H462 0.950 . S
C486 C481 1.363 . S
C486 C485 1.415 . S
C487 H463 0.951 . S
C487 C488 1.366 . S
C487 C489 1.388 . S
C488 C487 1.366 . S
C488 C492 1.385 . S
C489 H464 0.951 . S
C489 C487 1.388 . S
C489 C490 1.366 . S
C490 C489 1.366 . S
C490 C491 1.414 . S
C490 C493 1.499 . S
C491 H465 0.950 . S
C491 C490 1.414 . S
C491 C492 1.374 . S
C492 H466 0.950 . S
C492 C488 1.385 . S
C492 C491 1.374 . S
C493 C490 1.499 . S
C493 C494 1.373 . S
C493 C495 1.389 . S
C494 H467 0.950 . S
C494 C480 1.377 . S
C494 C493 1.373 . S
C495 C479 1.377 . S
C495 C493 1.389 . S
C495 C496 1.524 . S
C496 C495 1.524 . S
C496 C497 1.397 . S
C496 C501 1.363 . S
C497 H468 0.950 . S
C497 C496 1.397 . S
C497 C498 1.334 . S
C498 H469 0.950 . S
C498 C497 1.334 . S
C498 C499 1.287 . S
C499 C498 1.287 . S
C499 C500 1.524 . S
C499 H502 0.999 . S
C500 H470 0.950 . S
C500 C499 1.524 . S
C500 C501 1.415 . S
C501 H471 0.950 . S
C501 C496 1.363 . S
C501 C500 1.415 . S
H502 C499 0.999 . S
H503 C484 0.913 . S
H504 C522 0.952 1_565 S
H505 C524 0.951 1_565 S
H506 C526 0.950 . S
H507 C527 0.950 . S
H508 C529 0.950 . S
H509 C532 0.950 . S
H510 C533 0.950 1_455 S
H511 C535 0.950 . S
H512 C536 0.950 . S
H513 C537 0.951 . S
H514 C539 0.951 . S
H515 C541 0.950 . S
H516 C542 0.950 . S
H517 C544 0.950 1_655 S
H518 C547 0.950 . S
H519 C548 0.950 . S
H520 C550 0.950 . S
H521 C551 0.950 . S
C522 H504 0.952 1_545 S
C522 C523 1.365 1_655 S
C522 C524 1.388 . S
C523 C522 1.365 1_455 S
C523 C527 1.385 . S
C524 H505 0.951 1_545 S
C524 C522 1.388 . S
C524 C525 1.366 1_655 S
C525 C524 1.366 1_455 S
C525 C526 1.414 . S
C525 C528 1.499 . S
C526 H506 0.950 . S
C526 C525 1.414 . S
C526 C527 1.374 . S
C527 H507 0.950 . S
C527 C523 1.385 . S
C527 C526 1.374 . S
C528 C525 1.499 . S
C528 C529 1.373 1_545 S
C528 C530 1.389 . S
C529 H508 0.950 . S
C529 C528 1.373 1_565 S
C529 C545 1.377 . S
C530 C528 1.389 . S
C530 C531 1.524 1_455 S
C530 C544 1.377 . S
C531 C530 1.524 1_655 S
C531 C532 1.397 1_655 S
C531 C536 1.363 . S
C532 H509 0.950 . S
C532 C531 1.397 1_455 S
C532 C533 1.334 1_455 S
C533 H510 0.950 1_655 S
C533 C532 1.334 1_655 S
C533 C534 1.287 . S
C534 C533 1.287 . S
C534 C535 1.524 . S
C534 H553 0.913 . S
C535 H511 0.950 . S
C535 C534 1.524 . S
C535 C536 1.415 . S
C536 H512 0.950 . S
C536 C531 1.363 . S
C536 C535 1.415 . S
C537 H513 0.951 . S
C537 C538 1.366 . S
C537 C539 1.388 . S
C538 C537 1.366 . S
C538 C542 1.385 1_445 S
C539 H514 0.951 . S
C539 C537 1.388 . S
C539 C540 1.366 1_545 S
C540 C539 1.366 1_565 S
C540 C541 1.413 1_455 S
C540 C543 1.499 . S
C541 H515 0.950 . S
C541 C540 1.413 1_655 S
C541 C542 1.374 . S
C542 H516 0.950 . S
C542 C538 1.385 1_665 S
C542 C541 1.374 . S
C543 C540 1.499 . S
C543 C544 1.366 1_565 S
C543 C545 1.395 . S
C544 H517 0.950 1_455 S
C544 C530 1.377 . S
C544 C543 1.366 1_545 S
C545 C529 1.377 . S
C545 C543 1.395 . S
C545 C546 1.524 . S
C546 C545 1.524 . S
C546 C547 1.397 . S
C546 C551 1.363 . S
C547 H518 0.950 . S
C547 C546 1.397 . S
C547 C548 1.334 . S
C548 H519 0.950 . S
C548 C547 1.334 . S
C548 C549 1.287 . S
C549 C548 1.287 . S
C549 C550 1.524 . S
C549 H552 0.999 . S
C550 H520 0.950 . S
C550 C549 1.524 . S
C550 C551 1.415 . S
C551 H521 0.950 . S
C551 C546 1.363 . S
C551 C550 1.415 . S
H552 C549 0.999 . S
H553 C534 0.913 . S
H554 C572 0.951 . S
H555 C574 0.951 . S
H556 C576 0.950 . S
H557 C577 0.950 . S
H558 C579 0.950 1_565 S
H559 C582 0.950 . S
H560 C583 0.950 . S
H561 C585 0.950 . S
H562 C586 0.950 1_565 S
H563 C587 0.951 . S
H564 C589 0.951 . S
H565 C591 0.950 . S
H566 C592 0.950 . S
H567 C594 0.950 . S
H568 C597 0.950 . S
H569 C598 0.950 . S
H570 C600 0.950 1_545 S
H571 C601 0.950 . S
C572 H554 0.951 . S
C572 C573 1.366 1_565 S
C572 C574 1.388 . S
C573 C572 1.366 1_545 S
C573 C577 1.385 1_455 S
C574 H555 0.951 . S
C574 C572 1.388 . S
C574 C575 1.366 1_565 S
C575 C574 1.366 1_545 S
C575 C576 1.414 1_455 S
C575 C578 1.499 . S
C576 H556 0.950 . S
C576 C575 1.414 1_655 S
C576 C577 1.374 . S
C577 H557 0.950 . S
C577 C573 1.385 1_655 S
C577 C576 1.374 . S
C578 C575 1.499 . S
C578 C579 1.373 1_455 S
C578 C580 1.389 . S
C579 H558 0.950 1_545 S
C579 C578 1.373 1_655 S
C579 C595 1.377 1_545 S
C580 C578 1.389 . S
C580 C581 1.524 . S
C580 C594 1.377 . S
C581 C580 1.524 . S
C581 C582 1.397 . S
C581 C586 1.363 . S
C582 H559 0.950 . S
C582 C581 1.397 . S
C582 C583 1.334 . S
C583 H560 0.950 . S
C583 C582 1.334 . S
C583 C584 1.287 . S
C584 C583 1.287 . S
C584 C585 1.524 . S
C584 H603 0.913 . S
C585 H561 0.950 . S
C585 C584 1.524 . S
C585 C586 1.415 . S
C586 H562 0.950 1_545 S
C586 C581 1.363 . S
C586 C585 1.415 . S
C587 H563 0.951 . S
C587 C588 1.366 . S
C587 C589 1.388 . S
C588 C587 1.366 . S
C588 C592 1.385 1_645 S
C589 H564 0.951 . S
C589 C587 1.388 . S
C589 C590 1.366 . S
C590 C589 1.366 . S
C590 C591 1.414 1_645 S
C590 C593 1.499 . S
C591 H565 0.950 . S
C591 C590 1.414 1_465 S
C591 C592 1.374 . S
C592 H566 0.950 . S
C592 C588 1.385 1_465 S
C592 C591 1.374 . S
C593 C590 1.499 . S
C593 C594 1.373 1_655 S
C593 C595 1.389 1_545 S
C594 H567 0.950 . S
C594 C580 1.377 . S
C594 C593 1.373 1_455 S
C595 C579 1.377 1_565 S
C595 C593 1.389 1_565 S
C595 C596 1.524 . S
C596 C595 1.524 . S
C596 C597 1.397 . S
C596 C601 1.363 1_565 S
C597 H568 0.950 . S
C597 C596 1.397 . S
C597 C598 1.334 . S
C598 H569 0.950 . S
C598 C597 1.334 . S
C598 C599 1.287 . S
C599 C598 1.287 . S
C599 C600 1.524 . S
C599 H602 0.999 . S
C600 H570 0.950 1_565 S
C600 C599 1.524 . S
C600 C601 1.415 1_565 S
C601 H571 0.950 . S
C601 C596 1.363 1_545 S
C601 C600 1.415 1_545 S
H602 C599 0.999 . S
H603 C584 0.913 . S
H604 C622 0.951 . S
H605 C624 0.951 . S
H606 C626 0.950 . S
H607 C627 0.950 . S
H608 C629 0.950 . S
H609 C632 0.950 . S
H610 C633 0.950 . S
H611 C635 0.950 . S
H612 C636 0.950 . S
H613 C637 0.951 . S
H614 C639 0.951 . S
H615 C641 0.950 . S
H616 C642 0.950 . S
H617 C644 0.950 . S
H618 C647 0.950 . S
H619 C648 0.950 . S
H620 C650 0.950 . S
H621 C651 0.950 . S
C622 H604 0.951 . S
C622 C623 1.366 . S
C622 C624 1.388 . S
C623 C622 1.366 . S
C623 C627 1.385 . S
C624 H605 0.951 . S
C624 C622 1.388 . S
C624 C625 1.366 . S
C625 C624 1.366 . S
C625 C626 1.414 . S
C625 C628 1.499 . S
C626 H606 0.950 . S
C626 C625 1.414 . S
C626 C627 1.374 . S
C627 H607 0.950 . S
C627 C623 1.385 . S
C627 C626 1.374 . S
C628 C625 1.499 . S
C628 C629 1.373 . S
C628 C630 1.389 . S
C629 H608 0.950 . S
C629 C628 1.373 . S
C629 C645 1.377 . S
C630 C628 1.389 . S
C630 C631 1.524 . S
C630 C644 1.377 . S
C631 C630 1.524 . S
C631 C632 1.397 . S
C631 C636 1.363 . S
C632 H609 0.950 . S
C632 C631 1.397 . S
C632 C633 1.334 . S
C633 H610 0.950 . S
C633 C632 1.334 . S
C633 C634 1.287 . S
C634 C633 1.287 . S
C634 C635 1.524 . S
C634 H653 0.913 . S
C635 H611 0.950 . S
C635 C634 1.524 . S
C635 C636 1.415 . S
C636 H612 0.950 . S
C636 C631 1.363 . S
C636 C635 1.415 . S
C637 H613 0.951 . S
C637 C638 1.366 . S
C637 C639 1.388 . S
C638 C637 1.366 . S
C638 C642 1.385 . S
C639 H614 0.951 . S
C639 C637 1.388 . S
C639 C640 1.366 . S
C640 C639 1.366 . S
C640 C641 1.414 . S
C640 C643 1.499 . S
C641 H615 0.950 . S
C641 C640 1.414 . S
C641 C642 1.374 . S
C642 H616 0.950 . S
C642 C638 1.385 . S
C642 C641 1.374 . S
C643 C640 1.499 . S
C643 C644 1.373 . S
C643 C645 1.389 . S
C644 H617 0.950 . S
C644 C630 1.377 . S
C644 C643 1.373 . S
C645 C629 1.377 . S
C645 C643 1.389 . S
C645 C646 1.524 . S
C646 C645 1.524 . S
C646 C647 1.397 . S
C646 C651 1.363 . S
C647 H618 0.950 . S
C647 C646 1.397 . S
C647 C648 1.334 . S
C648 H619 0.950 . S
C648 C647 1.334 . S
C648 C649 1.287 . S
C649 C648 1.287 . S
C649 C650 1.524 . S
C649 H652 0.999 . S
C650 H620 0.950 . S
C650 C649 1.524 . S
C650 C651 1.415 . S
C651 H621 0.950 . S
C651 C646 1.363 . S
C651 C650 1.415 . S
H652 C649 0.999 . S
H653 C634 0.913 . S
H654 C672 0.951 . S
H655 C674 0.951 . S
H656 C676 0.950 . S
H657 C677 0.950 . S
H658 C679 0.950 . S
H659 C682 0.950 . S
H660 C683 0.950 . S
H661 C685 0.950 . S
H662 C686 0.950 . S
H663 C687 0.951 . S
H664 C689 0.951 . S
H665 C691 0.950 . S
H666 C692 0.950 . S
H667 C694 0.950 . S
H668 C697 0.950 . S
H669 C698 0.950 . S
H670 C700 0.950 . S
H671 C701 0.950 . S
C672 H654 0.951 . S
C672 C673 1.366 . S
C672 C674 1.388 . S
C673 C672 1.366 . S
C673 C677 1.385 . S
C674 H655 0.951 . S
C674 C672 1.388 . S
C674 C675 1.366 . S
C675 C674 1.366 . S
C675 C676 1.414 . S
C675 C678 1.499 . S
C676 H656 0.950 . S
C676 C675 1.414 . S
C676 C677 1.374 . S
C677 H657 0.950 . S
C677 C673 1.385 . S
C677 C676 1.374 . S
C678 C675 1.499 . S
C678 C679 1.373 . S
C678 C680 1.389 . S
C679 H658 0.950 . S
C679 C678 1.373 . S
C679 C695 1.377 . S
C680 C678 1.389 . S
C680 C681 1.524 . S
C680 C694 1.377 . S
C681 C680 1.524 . S
C681 C682 1.397 . S
C681 C686 1.363 . S
C682 H659 0.950 . S
C682 C681 1.397 . S
C682 C683 1.334 . S
C683 H660 0.950 . S
C683 C682 1.334 . S
C683 C684 1.287 . S
C684 C683 1.287 . S
C684 C685 1.524 . S
C684 H703 0.913 . S
C685 H661 0.950 . S
C685 C684 1.524 . S
C685 C686 1.415 . S
C686 H662 0.950 . S
C686 C681 1.363 . S
C686 C685 1.415 . S
C687 H663 0.951 . S
C687 C688 1.366 . S
C687 C689 1.388 . S
C688 C687 1.366 . S
C688 C692 1.385 . S
C689 H664 0.951 . S
C689 C687 1.388 . S
C689 C690 1.366 . S
C690 C689 1.366 . S
C690 C691 1.414 . S
C690 C693 1.499 . S
C691 H665 0.950 . S
C691 C690 1.414 . S
C691 C692 1.374 . S
C692 H666 0.950 . S
C692 C688 1.385 . S
C692 C691 1.374 . S
C693 C690 1.499 . S
C693 C694 1.373 . S
C693 C695 1.389 . S
C694 H667 0.950 . S
C694 C680 1.377 . S
C694 C693 1.373 . S
C695 C679 1.377 . S
C695 C693 1.389 . S
C695 C696 1.524 . S
C696 C695 1.524 . S
C696 C697 1.397 . S
C696 C701 1.363 . S
C697 H668 0.950 . S
C697 C696 1.397 . S
C697 C698 1.334 . S
C698 H669 0.950 . S
C698 C697 1.334 . S
C698 C699 1.287 . S
C699 C698 1.287 . S
C699 C700 1.524 . S
C699 H702 0.999 . S
C700 H670 0.950 . S
C700 C699 1.524 . S
C700 C701 1.415 . S
C701 H671 0.950 . S
C701 C696 1.363 . S
C701 C700 1.415 . S
H702 C699 0.999 . S
H703 C684 0.913 . S
C138 C97 1.435 . S
C123 C27 1.463 . S
C173 N6 1.297 . S
C188 C92 1.321 . S
C223 C16 1.374 . S
C238 C103 1.342 . S
C273 N14 1.422 1_556 S
C288 C86 1.421 . S
C323 C57 1.463 . S
C338 C75 1.435 . S
C373 N36 1.297 . S
C388 C70 1.321 . S
C438 C81 1.341 . S
C423 C46 1.374 . S
C488 C64 1.421 . S
C473 N44 1.422 . S
C523 C10 1.472 . S
C538 C65 1.470 1_545 S
C573 C1 1.541 . S
C588 C76 1.536 . S
C638 C87 1.470 . S
C623 C40 1.473 . S
C673 C31 1.542 . S
C688 C98 1.536 . S
