# Generated by pormake.
# Topology pyr, (3,6)-cn, num edge types: 1
# Building blocks:
#     Node 0, Type 0, BuildingBlock: BELTOD_clean_linker_0, # of connection points: 3
#     Node 1, Type 0, BuildingBlock: BELTOD_clean_linker_0, # of connection points: 3
#     Node 2, Type 0, BuildingBlock: BELTOD_clean_linker_0, # of connection points: 3
#     Node 3, Type 0, BuildingBlock: BELTOD_clean_linker_0, # of connection points: 3
#     Node 4, Type 0, BuildingBlock: BELTOD_clean_linker_0, # of connection points: 3
#     Node 5, Type 0, BuildingBlock: BELTOD_clean_linker_0, # of connection points: 3
#     Node 6, Type 0, BuildingBlock: BELTOD_clean_linker_0, # of connection points: 3
#     Node 7, Type 0, BuildingBlock: BELTOD_clean_linker_0, # of connection points: 3
#     Node 8, Type 1, BuildingBlock: VOLQOD_clean_sbu_1, # of connection points: 6
#     Node 9, Type 1, BuildingBlock: VOLQOD_clean_sbu_1, # of connection points: 6
#     Node 10, Type 1, BuildingBlock: VOLQOD_clean_sbu_1, # of connection points: 6
#     Node 11, Type 1, BuildingBlock: VOLQOD_clean_sbu_1, # of connection points: 6
#     Edge 12, Type (0, 1), BuildingBlock: ZUJKAS_clean_linker_0, # of connection points: 2
#     Edge 13, Type (0, 1), BuildingBlock: ZUJKAS_clean_linker_0, # of connection points: 2
#     Edge 14, Type (0, 1), BuildingBlock: ZUJKAS_clean_linker_0, # of connection points: 2
#     Edge 15, Type (0, 1), BuildingBlock: ZUJKAS_clean_linker_0, # of connection points: 2
#     Edge 16, Type (0, 1), BuildingBlock: ZUJKAS_clean_linker_0, # of connection points: 2
#     Edge 17, Type (0, 1), BuildingBlock: ZUJKAS_clean_linker_0, # of connection points: 2
#     Edge 18, Type (0, 1), BuildingBlock: ZUJKAS_clean_linker_0, # of connection points: 2
#     Edge 19, Type (0, 1), BuildingBlock: ZUJKAS_clean_linker_0, # of connection points: 2
#     Edge 20, Type (0, 1), BuildingBlock: ZUJKAS_clean_linker_0, # of connection points: 2
#     Edge 21, Type (0, 1), BuildingBlock: ZUJKAS_clean_linker_0, # of connection points: 2
#     Edge 22, Type (0, 1), BuildingBlock: ZUJKAS_clean_linker_0, # of connection points: 2
#     Edge 23, Type (0, 1), BuildingBlock: ZUJKAS_clean_linker_0, # of connection points: 2
#     Edge 24, Type (0, 1), BuildingBlock: ZUJKAS_clean_linker_0, # of connection points: 2
#     Edge 25, Type (0, 1), BuildingBlock: ZUJKAS_clean_linker_0, # of connection points: 2
#     Edge 26, Type (0, 1), BuildingBlock: ZUJKAS_clean_linker_0, # of connection points: 2
#     Edge 27, Type (0, 1), BuildingBlock: ZUJKAS_clean_linker_0, # of connection points: 2
#     Edge 28, Type (0, 1), BuildingBlock: ZUJKAS_clean_linker_0, # of connection points: 2
#     Edge 29, Type (0, 1), BuildingBlock: ZUJKAS_clean_linker_0, # of connection points: 2
#     Edge 30, Type (0, 1), BuildingBlock: ZUJKAS_clean_linker_0, # of connection points: 2
#     Edge 31, Type (0, 1), BuildingBlock: ZUJKAS_clean_linker_0, # of connection points: 2
#     Edge 32, Type (0, 1), BuildingBlock: ZUJKAS_clean_linker_0, # of connection points: 2
#     Edge 33, Type (0, 1), BuildingBlock: ZUJKAS_clean_linker_0, # of connection points: 2
#     Edge 34, Type (0, 1), BuildingBlock: ZUJKAS_clean_linker_0, # of connection points: 2
#     Edge 35, Type (0, 1), BuildingBlock: ZUJKAS_clean_linker_0, # of connection points: 2
# Relax obj value: 0.036
# Max RMSD: 0.117
# Mean RMSD: 0.050
data_MOF--net-pry--node1-VOLQOD_clean_sbu_1--node2-BELTOD_clean_linker_0--edge1-ZUJKAS_clean_linker_0
_symmetry_space_group_name_H-M    P1
_symmetry_Int_Tables_number       1
_symmetry_cell_setting            triclinic
loop_
_symmetry_equiv_pos_as_xyz
'x, y, z'
_cell_length_a     52.830622
_cell_length_b     53.214656
_cell_length_c     52.682633
_cell_angle_alpha  89.974567
_cell_angle_beta   90.193998
_cell_angle_gamma 90.15025
loop_
_atom_site_label
_atom_site_type_symbol
_atom_site_fract_x
_atom_site_fract_y
_atom_site_fract_z
_atom_type_partial_charge
P0 P 0.15379 0.17376 0.1832 0.0
H1 H 0.20207 0.18763 0.16083 0.0
H2 H 0.2319 0.16512 0.13378 0.0
H3 H 0.18111 0.10138 0.13163 0.0
H4 H 0.15124 0.12413 0.15861 0.0
H5 H 0.12848 0.22014 0.19715 0.0
H6 H 0.10454 0.25116 0.17278 0.0
H7 H 0.11219 0.20538 0.10554 0.0
H8 H 0.13618 0.17439 0.13008 0.0
H9 H 0.1675 0.12875 0.21116 0.0
H10 H 0.09991 0.17219 0.19785 0.0
O11 O 0.17147 0.19056 0.20331 0.0
H12 H 0.14418 0.10147 0.24019 0.0
H13 H 0.07651 0.14503 0.22703 0.0
C14 C 0.17486 0.15724 0.16231 0.0
C15 C 0.19736 0.16882 0.15452 0.0
C16 C 0.21428 0.15602 0.13889 0.0
C17 C 0.20891 0.13141 0.13076 0.0
C18 C 0.1859 0.12017 0.13795 0.0
C19 C 0.16887 0.13312 0.15339 0.0
C20 C 0.13447 0.19525 0.16532 0.0
C21 C 0.12488 0.21673 0.17719 0.0
C22 C 0.11105 0.23434 0.16328 0.0
C23 C 0.1066 0.23076 0.1372 0.0
C24 C 0.11561 0.20878 0.12553 0.0
C25 C 0.12929 0.19106 0.13955 0.0
C26 C 0.13538 0.15223 0.20201 0.0
C27 C 0.14751 0.13211 0.21411 0.0
C28 C 0.13415 0.1165 0.23065 0.0
C29 C 0.10848 0.12104 0.23578 0.0
C30 C 0.09629 0.14113 0.22347 0.0
C31 C 0.10965 0.1566 0.20669 0.0
P32 P 0.42273 0.90816 0.60576 0.0
H33 H 0.46769 0.92558 0.633 0.0
H34 H 0.47616 0.93384 0.67793 0.0
H35 H 0.39975 0.91114 0.69619 0.0
H36 H 0.39157 0.90263 0.65132 0.0
H37 H 0.44341 0.88514 0.56006 0.0
H38 H 0.45156 0.84148 0.54817 0.0
H39 H 0.42567 0.81704 0.6219 0.0
H40 H 0.41736 0.86069 0.63355 0.0
H41 H 0.39495 0.95511 0.60417 0.0
H42 H 0.3785 0.8764 0.59331 0.0
O43 O 0.44077 0.92741 0.58849 0.0
H44 H 0.35031 0.96515 0.59716 0.0
H45 H 0.33408 0.88629 0.58579 0.0
C46 C 0.42889 0.91397 0.63883 0.0
C47 C 0.45276 0.92248 0.64669 0.0
C48 C 0.45754 0.92726 0.67235 0.0
C49 C 0.43856 0.92332 0.6906 0.0
C50 C 0.4148 0.91423 0.68263 0.0
C51 C 0.41004 0.90956 0.65696 0.0
C52 C 0.43027 0.87617 0.59785 0.0
C53 C 0.43979 0.8704 0.57377 0.0
C54 C 0.44447 0.84545 0.56701 0.0
C55 C 0.43936 0.82583 0.58414 0.0
C56 C 0.42966 0.83172 0.60824 0.0
C57 C 0.42513 0.85669 0.61501 0.0
C58 C 0.3901 0.9151 0.59896 0.0
C59 C 0.38177 0.94004 0.59996 0.0
C60 C 0.35628 0.94574 0.59589 0.0
C61 C 0.33863 0.92652 0.59085 0.0
C62 C 0.34712 0.9015 0.58989 0.0
C63 C 0.37262 0.89584 0.59398 0.0
P64 P 0.65576 0.34541 0.85233 0.0
H65 H 0.70451 0.33094 0.87303 0.0
H66 H 0.73701 0.3538 0.89674 0.0
H67 H 0.68912 0.41951 0.89788 0.0
H68 H 0.65641 0.39624 0.87454 0.0
H69 H 0.62445 0.3031 0.8378 0.0
H70 H 0.59972 0.27258 0.86192 0.0
H71 H 0.62075 0.31011 0.93163 0.0
H72 H 0.64559 0.34066 0.90725 0.0
H73 H 0.66804 0.38336 0.81488 0.0
H74 H 0.60049 0.35403 0.85003 0.0
O75 O 0.67199 0.32841 0.83137 0.0
H76 H 0.64209 0.40872 0.78624 0.0
H77 H 0.57445 0.37933 0.82145 0.0
C78 C 0.67839 0.36211 0.87154 0.0
C79 C 0.70099 0.35024 0.87846 0.0
C80 C 0.71958 0.36337 0.89191 0.0
C81 C 0.71582 0.38861 0.89881 0.0
C82 C 0.69258 0.4001 0.89284 0.0
C83 C 0.67396 0.38689 0.87935 0.0
C84 C 0.63709 0.32386 0.87076 0.0
C85 C 0.62369 0.30478 0.85827 0.0
C86 C 0.60939 0.28749 0.87207 0.0
C87 C 0.60828 0.28896 0.89868 0.0
C88 C 0.62146 0.3084 0.91116 0.0
C89 C 0.63563 0.32585 0.89725 0.0
C90 C 0.63624 0.36664 0.83436 0.0
C91 C 0.64763 0.3827 0.81668 0.0
C92 C 0.63277 0.39727 0.80042 0.0
C93 C 0.60621 0.39591 0.80151 0.0
C94 C 0.59486 0.38052 0.81998 0.0
C95 C 0.60977 0.36607 0.83636 0.0
P96 P 0.85727 0.64569 0.38157 0.0
H97 H 0.87878 0.69474 0.37117 0.0
H98 H 0.90681 0.72237 0.3952 0.0
H99 H 0.91203 0.66658 0.45466 0.0
H100 H 0.88355 0.63902 0.43044 0.0
H101 H 0.8397 0.60844 0.34532 0.0
H102 H 0.86035 0.58702 0.31004 0.0
H103 H 0.93122 0.62279 0.33015 0.0
H104 H 0.91073 0.6432 0.3659 0.0
H105 H 0.81751 0.65882 0.41659 0.0
H106 H 0.8562 0.59136 0.3935 0.0
O107 O 0.83744 0.66446 0.3658 0.0
H108 H 0.78857 0.63384 0.44236 0.0
H109 H 0.82711 0.56612 0.41921 0.0
C110 C 0.87867 0.66519 0.39935 0.0
C111 C 0.88595 0.68846 0.38938 0.0
C112 C 0.90223 0.7041 0.40302 0.0
C113 C 0.91167 0.69664 0.42684 0.0
C114 C 0.90485 0.67292 0.43648 0.0
C115 C 0.88858 0.6572 0.4227 0.0
C116 C 0.87366 0.62729 0.35828 0.0
C117 C 0.85981 0.6112 0.34242 0.0
C118 C 0.8716 0.59916 0.32214 0.0
C119 C 0.8974 0.60337 0.31711 0.0
C120 C 0.91141 0.61887 0.33363 0.0
C121 C 0.89962 0.63073 0.35405 0.0
C122 C 0.83849 0.62688 0.40267 0.0
C123 C 0.8199 0.63862 0.4173 0.0
C124 C 0.80352 0.62432 0.43218 0.0
C125 C 0.8055 0.59799 0.43268 0.0
C126 C 0.82498 0.58636 0.41892 0.0
C127 C 0.84154 0.60076 0.40417 0.0
P128 P 0.91547 0.9366 0.94956 0.0
H129 H 0.88294 0.91919 0.99057 0.0
H130 H 0.83818 0.92563 0.00011 0.0
H131 H 0.83103 0.97249 0.93342 0.0
H132 H 0.87589 0.96653 0.92446 0.0
H133 H 0.96063 0.91274 0.97091 0.0
H134 H 0.97216 0.86875 0.97771 0.0
H135 H 0.90009 0.84553 0.94632 0.0
H136 H 0.88851 0.88948 0.94026 0.0
H137 H 0.95294 0.96888 0.92449 0.0
H138 H 0.8935 0.91757 0.90249 0.0
O139 O 0.93272 0.95535 0.96823 0.0
H140 H 0.96288 0.97633 0.87982 0.0
H141 H 0.9037 0.92439 0.85784 0.0
C142 C 0.88255 0.94179 0.95644 0.0
C143 C 0.87168 0.93077 0.97796 0.0
C144 C 0.84607 0.93439 0.98333 0.0
C145 C 0.83093 0.94935 0.96736 0.0
C146 C 0.84214 0.96095 0.94617 0.0
C147 C 0.86778 0.95733 0.94087 0.0
C148 C 0.92354 0.90433 0.95557 0.0
C149 C 0.94723 0.89816 0.96577 0.0
C150 C 0.95388 0.873 0.96943 0.0
C151 C 0.937 0.8536 0.96267 0.0
C152 C 0.91335 0.85997 0.95219 0.0
C153 C 0.90674 0.88511 0.9486 0.0
C154 C 0.92238 0.9428 0.91675 0.0
C155 C 0.94201 0.95924 0.91005 0.0
C156 C 0.94779 0.96334 0.8845 0.0
C157 C 0.93407 0.95096 0.86525 0.0
C158 C 0.91439 0.9345 0.87215 0.0
C159 C 0.90864 0.93044 0.89767 0.0
P160 P 0.643 0.13173 0.39078 0.0
H161 H 0.65463 0.18056 0.4124 0.0
H162 H 0.62917 0.21169 0.43422 0.0
H163 H 0.56552 0.16037 0.43394 0.0
H164 H 0.59121 0.12944 0.41115 0.0
H165 H 0.67413 0.08949 0.37643 0.0
H166 H 0.70413 0.06371 0.39996 0.0
H167 H 0.68106 0.09954 0.46979 0.0
H168 H 0.65148 0.12579 0.44587 0.0
H169 H 0.62496 0.14782 0.3414 0.0
H170 H 0.61717 0.08255 0.3893 0.0
O171 O 0.66443 0.14869 0.37501 0.0
H172 H 0.60143 0.12653 0.30772 0.0
H173 H 0.59378 0.06087 0.35539 0.0
C174 C 0.6246 0.153 0.40965 0.0
C175 C 0.63523 0.17594 0.41712 0.0
C176 C 0.62067 0.19365 0.42991 0.0
C177 C 0.59518 0.18864 0.43581 0.0
C178 C 0.58494 0.16502 0.42933 0.0
C179 C 0.5996 0.14729 0.41639 0.0
C180 C 0.66051 0.10941 0.40939 0.0
C181 C 0.6751 0.09136 0.39689 0.0
C182 C 0.69219 0.07653 0.41044 0.0
C183 C 0.6951 0.07957 0.43681 0.0
C184 C 0.67952 0.09693 0.44946 0.0
C185 C 0.66244 0.11184 0.43582 0.0
C186 C 0.62338 0.11647 0.36748 0.0
C187 C 0.61814 0.12889 0.34466 0.0
C188 C 0.60475 0.11668 0.32541 0.0
C189 C 0.59619 0.09187 0.32876 0.0
C190 C 0.60021 0.07997 0.35227 0.0
C191 C 0.61371 0.09224 0.37156 0.0
P192 P 0.42521 0.58006 0.08519 0.0
H193 H 0.39882 0.56082 0.04029 0.0
H194 H 0.35396 0.55571 0.03003 0.0
H195 H 0.33432 0.58324 0.10459 0.0
H196 H 0.37922 0.58886 0.11441 0.0
H197 H 0.44635 0.60976 0.04356 0.0
H198 H 0.45253 0.6549 0.03766 0.0
H199 H 0.42185 0.66833 0.11243 0.0
H200 H 0.41494 0.62325 0.11772 0.0
H201 H 0.40568 0.53995 0.11794 0.0
H202 H 0.46335 0.59734 0.12168 0.0
O203 O 0.44315 0.56392 0.06496 0.0
H204 H 0.41601 0.52697 0.16125 0.0
H205 H 0.47331 0.58502 0.16516 0.0
C206 C 0.3923 0.57471 0.07829 0.0
C207 C 0.38485 0.56552 0.0545 0.0
C208 C 0.35918 0.56256 0.04868 0.0
C209 C 0.34052 0.56896 0.06653 0.0
C210 C 0.34816 0.57835 0.09032 0.0
C211 C 0.37382 0.58135 0.09606 0.0
C212 C 0.43076 0.61318 0.0813 0.0
C213 C 0.44113 0.62244 0.05872 0.0
C214 C 0.44472 0.64826 0.05543 0.0
C215 C 0.43788 0.66529 0.07466 0.0
C216 C 0.42714 0.65583 0.09714 0.0
C217 C 0.42341 0.63003 0.10031 0.0
C218 C 0.43312 0.57019 0.11694 0.0
C219 C 0.42036 0.54996 0.12819 0.0
C220 C 0.42626 0.54259 0.15298 0.0
C221 C 0.44528 0.55515 0.16683 0.0
C222 C 0.45864 0.57485 0.15505 0.0
C223 C 0.45276 0.58212 0.13026 0.0
P224 P 0.13372 0.38454 0.63156 0.0
H225 H 0.15004 0.34096 0.60331 0.0
H226 H 0.12802 0.30338 0.58842 0.0
H227 H 0.05719 0.33372 0.61531 0.0
H228 H 0.07935 0.3717 0.62954 0.0
H229 H 0.16026 0.43183 0.63667 0.0
H230 H 0.18476 0.4568 0.60676 0.0
H231 H 0.15876 0.40945 0.5453 0.0
H232 H 0.1343 0.38442 0.57545 0.0
H233 H 0.12303 0.37111 0.68364 0.0
H234 H 0.10398 0.4314 0.63235 0.0
O235 O 0.15913 0.37229 0.64577 0.0
H236 H 0.10188 0.39309 0.7182 0.0
H237 H 0.08316 0.45389 0.66712 0.0
C238 C 0.11638 0.35883 0.61788 0.0
C239 C 0.12973 0.33963 0.60573 0.0
C240 C 0.11714 0.31813 0.59736 0.0
C241 C 0.09094 0.3154 0.60112 0.0
C242 C 0.07737 0.3353 0.61213 0.0
C243 C 0.09004 0.35694 0.62042 0.0
C244 C 0.14551 0.40629 0.60833 0.0
C245 C 0.15917 0.42732 0.61664 0.0
C246 C 0.1731 0.44166 0.59946 0.0
C247 C 0.17381 0.43502 0.57364 0.0
C248 C 0.15875 0.41487 0.56511 0.0
C249 C 0.14472 0.40057 0.58236 0.0
C250 C 0.11568 0.40001 0.65574 0.0
C251 C 0.11427 0.38911 0.67985 0.0
C252 C 0.10226 0.40173 0.69958 0.0
C253 C 0.09134 0.42545 0.69547 0.0
C254 C 0.09149 0.43567 0.67085 0.0
C255 C 0.10353 0.42295 0.65105 0.0
O256 O 0.99591 0.05296 0.55491 0.0
Zn257 Zn 0.98476 0.01678 0.55332 0.0
O258 O 0.00833 0.9965 0.53341 0.0
Zn259 Zn 0.99102 0.98359 0.50318 0.0
Zn260 Zn 0.03687 0.01732 0.52294 0.0
Zn261 Zn 0.02082 0.96852 0.55411 0.0
O262 O 0.99224 0.94593 0.50262 0.0
O263 O 0.01058 0.93518 0.53902 0.0
O264 O 0.9497 0.01592 0.53826 0.0
O265 O 0.9541 0.99309 0.50331 0.0
O266 O 0.00662 0.99679 0.47071 0.0
O267 O 0.03867 0.01982 0.48502 0.0
O268 O 0.07004 0.00327 0.53528 0.0
O269 O 0.98254 0.00407 0.58924 0.0
O270 O 0.05893 0.96894 0.55644 0.0
O271 O 0.00723 0.97038 0.58979 0.0
C272 C 0.01585 0.06425 0.54753 0.0
C273 C -0.00012 0.92923 0.51816 0.0
C274 C 0.02562 0.01103 0.46671 0.0
C275 C 0.94039 0.00581 0.5184 0.0
C276 C 0.07588 0.98388 0.54817 0.0
C277 C 0.99236 0.98555 0.60097 0.0
O278 O 0.03328 0.0526 0.53581 0.0
O279 O 0.4913 0.05127 0.99415 0.0
Zn280 Zn 0.47595 0.01678 0.99839 0.0
O281 O 0.49633 0.99606 0.02137 0.0
Zn282 Zn 0.51037 0.96763 0.00268 0.0
Zn283 Zn 0.52407 0.01627 0.03503 0.0
Zn284 Zn 0.47524 0.98365 0.04933 0.0
O285 O 0.49907 0.93491 0.018 0.0
O286 O 0.47246 0.94575 0.04862 0.0
O287 O 0.4732 0.00105 0.96359 0.0
O288 O 0.49815 0.96766 0.96649 0.0
O289 O 0.54858 0.96832 0.00227 0.0
O290 O 0.55783 0.00197 0.02536 0.0
O291 O 0.52287 0.01744 0.07303 0.0
O292 O 0.44088 0.02175 0.01238 0.0
O293 O 0.48992 0.99366 0.08342 0.0
O294 O 0.44018 0.99848 0.04737 0.0
C295 C 0.50967 0.0626 0.00494 0.0
C296 C 0.48362 0.929 0.03553 0.0
C297 C 0.56476 0.98312 0.01226 0.0
C298 C 0.48339 0.98172 0.9537 0.0
C299 C 0.5087 0.00741 0.08972 0.0
C300 C 0.42936 0.0134 0.03185 0.0
O301 O 0.52332 0.05161 0.0215 0.0
O302 O 0.51165 0.50589 0.56066 0.0
Zn303 Zn 0.51263 0.52014 0.52547 0.0
O304 O 0.49235 0.49989 0.5021 0.0
Zn305 Zn 0.51431 0.48554 0.47609 0.0
Zn306 Zn 0.47559 0.47269 0.52091 0.0
Zn307 Zn 0.46711 0.52147 0.48588 0.0
O308 O 0.50314 0.49582 0.44097 0.0
O309 O 0.47122 0.52195 0.44788 0.0
O310 O 0.5491 0.521 0.51494 0.0
O311 O 0.55044 0.49688 0.48064 0.0
O312 O 0.51392 0.44785 0.47772 0.0
O313 O 0.48554 0.43858 0.50729 0.0
O314 O 0.43763 0.47596 0.51845 0.0
O315 O 0.50031 0.55582 0.52714 0.0
O316 O 0.43203 0.50907 0.49338 0.0
O317 O 0.46913 0.55708 0.49887 0.0
C318 C 0.50036 0.48734 0.57089 0.0
C319 C 0.48604 0.51058 0.43273 0.0
C320 C 0.50146 0.43177 0.49054 0.0
C321 C 0.5614 0.51086 0.49693 0.0
C322 C 0.42312 0.49114 0.50666 0.0
C323 C 0.48306 0.56784 0.51541 0.0
O324 O 0.48577 0.47308 0.55801 0.0
O325 O 0.98211 0.5176 0.0617 0.0
Zn326 Zn 0.98481 0.50286 0.02683 0.0
O327 O 0.00624 0.52362 0.00514 0.0
Zn328 Zn 0.98563 0.53737 0.97744 0.0
Zn329 Zn 0.02088 0.55109 0.02511 0.0
Zn330 Zn 0.03353 0.50299 0.99141 0.0
O331 O -1e-05 0.52755 0.94352 0.0
O332 O 0.03193 0.50221 0.95329 0.0
O333 O 0.94965 0.49935 0.01253 0.0
O334 O 0.94994 0.52368 0.97833 0.0
O335 O 0.98427 0.57528 0.97909 0.0
O336 O 0.01016 0.58457 0.01105 0.0
O337 O 0.05903 0.54996 0.02527 0.0
O338 O 0.99917 0.46815 0.03086 0.0
O339 O 0.06768 0.51683 0.0013 0.0
O340 O 0.03219 0.4675 0.00498 0.0
C341 C 0.99313 0.53577 0.07293 0.0
C342 C 0.01802 0.51316 0.93689 0.0
C343 C 0.99537 0.59137 0.9932 0.0
C344 C 0.93849 0.50869 0.99328 0.0
C345 C 0.07495 0.53531 0.01486 0.0
C346 C 0.01774 0.45663 0.02091 0.0
O347 O 0.00892 0.54978 0.06137 0.0
H348 H 0.10887 0.06995 0.24172 0.0
H349 H 0.09031 0.04554 0.27646 0.0
H350 H 0.06046 0.11367 0.30897 0.0
H351 H 0.07854 0.138 0.27415 0.0
H352 H 0.10249 0.04903 0.32495 0.0
H353 H 0.00022 0.06817 0.31564 0.0
H354 H 0.02242 0.07531 0.29066 0.0
H355 H 0.01805 0.09686 0.31665 0.0
C356 C 0.09801 0.07963 0.25611 0.0
C357 C 0.09509 0.10586 0.2552 0.0
C358 C 0.08737 0.06567 0.27589 0.0
C359 C 0.07364 0.07769 0.29514 0.0
C360 C 0.07029 0.10384 0.29397 0.0
H361 H 0.06294 0.04329 0.45174 0.0
H362 H 0.07374 0.05608 0.40877 0.0
C363 C 0.08073 0.11776 0.27409 0.0
C364 C 0.06504 0.06342 0.31776 0.0
H365 H 0.01458 0.05475 0.35717 0.0
C366 C 0.08316 0.04994 0.33174 0.0
C367 C 0.03973 0.06419 0.32646 0.0
C368 C 0.01896 0.07669 0.31138 0.0
C369 C 0.07699 0.0384 0.35485 0.0
C370 C 0.05219 0.04093 0.36455 0.0
C371 C 0.0337 0.05316 0.34991 0.0
C372 C 0.0456 0.03254 0.39054 0.0
C373 C 0.09721 0.02384 0.36877 0.0
C374 C 0.02566 0.01555 0.39467 0.0
C375 C 0.0192 0.00832 0.41939 0.0
C376 C 0.03252 0.01808 0.44038 0.0
C377 C 0.05239 0.0352 0.43607 0.0
C378 C 0.05874 0.04244 0.41146 0.0
H379 H 0.11175 0.01659 0.35547 0.0
H380 H 0.10689 0.03648 0.38248 0.0
H381 H 0.08902 0.00776 0.3794 0.0
H382 H 0.01514 0.00786 0.37878 0.0
H383 H 0.00375 0.99518 0.42202 0.0
H384 H 0.4629 0.96413 0.71073 0.0
H385 H 0.47052 0.97353 0.75555 0.0
H386 H 0.43268 0.90479 0.77677 0.0
H387 H 0.42496 0.89525 0.73195 0.0
H388 H 0.41714 0.94568 0.80495 0.0
H389 H 0.52196 0.94016 0.8025 0.0
H390 H 0.50883 0.96149 0.77959 0.0
H391 H 0.50221 0.92841 0.7771 0.0
C392 C 0.45648 0.95086 0.72492 0.0
C393 C 0.44344 0.92888 0.71779 0.0
C394 C 0.46085 0.95626 0.75052 0.0
C395 C 0.4525 0.93967 0.76945 0.0
C396 C 0.43933 0.91781 0.76243 0.0
H397 H 0.49917 0.94042 0.92728 0.0
H398 H 0.49071 0.93011 0.88291 0.0
C399 C 0.43487 0.91243 0.73684 0.0
C400 C 0.45701 0.94538 0.79662 0.0
H401 H 0.50369 0.95655 0.84016 0.0
C402 C 0.43605 0.94798 0.8127 0.0
C403 C 0.48172 0.94806 0.80671 0.0
C404 C 0.50499 0.94416 0.79066 0.0
C405 C 0.43912 0.95356 0.83857 0.0
C406 C 0.46381 0.95707 0.84847 0.0
C407 C 0.48477 0.95411 0.83246 0.0
C408 C 0.46838 0.96335 0.8755 0.0
C409 C 0.41595 0.9552 0.85515 0.0
C410 C 0.45879 0.98559 0.88602 0.0
C411 C 0.46349 0.99153 0.91146 0.0
C412 C 0.4781 0.97543 0.92679 0.0
C413 C 0.48783 0.95325 0.91608 0.0
C414 C 0.48304 0.94731 0.89069 0.0
H415 H 0.3994 0.94558 0.84636 0.0
H416 H 0.41954 0.94674 0.87409 0.0
H417 H 0.41092 0.97524 0.85791 0.0
H418 H 0.44788 0.9985 0.87448 0.0
H419 H 0.45585 0.00883 0.91902 0.0
H420 H 0.56581 0.3771 0.77517 0.0
H421 H 0.54371 0.39646 0.73932 0.0
H422 H 0.58932 0.46327 0.74786 0.0
H423 H 0.61162 0.44397 0.78371 0.0
H424 H 0.51633 0.44152 0.73229 0.0
H425 H 0.6048 0.43956 0.67554 0.0
H426 H 0.60156 0.42283 0.70514 0.0
H427 H 0.60739 0.45612 0.70512 0.0
C428 C 0.57079 0.39611 0.76976 0.0
C429 C 0.59063 0.40894 0.78209 0.0
C430 C 0.5582 0.40711 0.74922 0.0
C431 C 0.56522 0.43108 0.74067 0.0
C432 C 0.584 0.44452 0.75385 0.0
H433 H 0.52902 0.51455 0.60433 0.0
H434 H 0.54206 0.50252 0.64709 0.0
C435 C 0.5967 0.43349 0.7743 0.0
C436 C 0.55408 0.44126 0.717 0.0
H437 H 0.56924 0.45865 0.65658 0.0
C438 C 0.52785 0.44534 0.71573 0.0
C439 C 0.56918 0.446 0.69539 0.0
C440 C 0.59725 0.44071 0.69517 0.0
C441 C 0.51637 0.45439 0.69343 0.0
C442 C 0.53152 0.45914 0.67188 0.0
C443 C 0.55772 0.45514 0.67323 0.0
C444 C 0.52076 0.46776 0.64741 0.0
C445 C 0.48823 0.45907 0.69318 0.0
C446 C 0.50417 0.45232 0.63354 0.0
C447 C 0.49665 0.45913 0.60899 0.0
C448 C 0.50578 0.48141 0.59786 0.0
C449 C 0.52169 0.49722 0.61223 0.0
C450 C 0.52916 0.49041 0.63671 0.0
H451 H 0.48049 0.46061 0.7127 0.0
H452 H 0.48367 0.47653 0.68257 0.0
H453 H 0.47857 0.44316 0.68356 0.0
H454 H 0.49785 0.43453 0.64127 0.0
H455 H 0.48444 0.44648 0.59845 0.0
H456 H 0.87624 0.60036 0.26989 0.0
H457 H 0.89607 0.58645 0.23068 0.0
H458 H 0.96545 0.5715 0.27126 0.0
H459 H 0.94534 0.58434 0.311 0.0
H460 H 0.93757 0.60824 0.20859 0.0
H461 H 0.95543 0.50744 0.22962 0.0
H462 H 0.93429 0.52641 0.24838 0.0
H463 H 0.96795 0.52921 0.25254 0.0
C464 C 0.8955 0.59349 0.27069 0.0
C465 C 0.90914 0.5933 0.29366 0.0
C466 C 0.90689 0.58579 0.24818 0.0
C467 C 0.93214 0.57778 0.24812 0.0
C468 C 0.94581 0.57726 0.27099 0.0
H469 H 0.01555 0.56997 0.10482 0.0
H470 H 0.00362 0.57985 0.14852 0.0
C471 C 0.93437 0.58485 0.29361 0.0
C472 C 0.9443 0.57127 0.22376 0.0
H473 H 0.97109 0.52312 0.19069 0.0
C474 C 0.94501 0.58966 0.20468 0.0
C475 C 0.95384 0.54698 0.21876 0.0
C476 C 0.95271 0.52626 0.23829 0.0
C477 C 0.95455 0.58432 0.1805 0.0
C478 C 0.96419 0.56006 0.1755 0.0
C479 C 0.96387 0.54176 0.19471 0.0
C480 C 0.97296 0.55283 0.14991 0.0
C481 C 0.95329 0.60439 0.16027 0.0
C482 C 0.96027 0.53376 0.13661 0.0
C483 C 0.96716 0.5279 0.11178 0.0
C484 C 0.98689 0.54107 0.09975 0.0
C485 C 9e-05 0.55967 0.11342 0.0
C486 C 0.99327 0.5654 0.13836 0.0
H487 H 0.94015 0.6198 0.16552 0.0
H488 H 0.97239 0.61268 0.15765 0.0
H489 H 0.94703 0.59635 0.14184 0.0
H490 H 0.94458 0.52381 0.14524 0.0
H491 H 0.95664 0.5134 0.10186 0.0
H492 H 0.23619 0.14784 0.08995 0.0
H493 H 0.27016 0.12564 0.06788 0.0
H494 H 0.25893 0.06127 0.11641 0.0
H495 H 0.22474 0.08321 0.13824 0.0
H496 H 0.31359 0.1103 0.08898 0.0
H497 H 0.26414 0.02777 0.0481 0.0
H498 H 0.24737 0.05471 0.06023 0.0
H499 H 0.25891 0.03089 0.08157 0.0
C500 C 0.24079 0.12883 0.09568 0.0
C501 C 0.22782 0.11723 0.11579 0.0
C502 C 0.26012 0.11615 0.08302 0.0
C503 C 0.26686 0.09165 0.09024 0.0
C504 C 0.25361 0.07987 0.11002 0.0
H505 H 0.39776 0.99825 0.0701 0.0
H506 H 0.35711 0.01669 0.08198 0.0
C507 C 0.23414 0.09247 0.12255 0.0
C508 C 0.28922 0.07938 0.07872 0.0
H509 H 0.3095 0.02549 0.05004 0.0
C510 C 0.31261 0.0919 0.08016 0.0
C511 C 0.28793 0.05533 0.06729 0.0
C512 C 0.26318 0.0415 0.06396 0.0
C513 C 0.33484 0.08076 0.07115 0.0
C514 C 0.33362 0.05654 0.06026 0.0
C515 C 0.31027 0.04407 0.05848 0.0
C516 C 0.35671 0.04372 0.05134 0.0
C517 C 0.35964 0.09466 0.07395 0.0
C518 C 0.36952 0.05247 0.02981 0.0
C519 C 0.39271 0.04197 0.0229 0.0
C520 C 0.40353 0.02259 0.03751 0.0
C521 C 0.39006 0.01323 0.05851 0.0
C522 C 0.36681 0.02367 0.06531 0.0
H523 H 0.35793 0.11145 0.08635 0.0
H524 H 0.37438 0.08207 0.08195 0.0
H525 H 0.36615 0.10096 0.05497 0.0
H526 H 0.36186 0.06785 0.01873 0.0
H527 H 0.40249 0.0496 0.00658 0.0
H528 H 0.31844 0.96552 0.56367 0.0
H529 H 0.27367 0.97563 0.55758 0.0
H530 H 0.25264 0.91081 0.60198 0.0
H531 H 0.29734 0.90102 0.60887 0.0
H532 H 0.23609 0.94602 0.53501 0.0
H533 H 0.21256 0.96759 0.6353 0.0
H534 H 0.24475 0.96565 0.62408 0.0
H535 H 0.22708 0.93748 0.63063 0.0
C536 C 0.30429 0.9536 0.57242 0.0
C537 C 0.31146 0.93253 0.58686 0.0
C538 C 0.27874 0.95932 0.56879 0.0
C539 C 0.25988 0.94418 0.57964 0.0
C540 C 0.26692 0.923 0.59383 0.0
H541 H 0.09575 0.94459 0.57529 0.0
H542 H 0.14044 0.93501 0.58257 0.0
C543 C 0.29247 0.91726 0.59749 0.0
C544 C 0.23283 0.9502 0.57551 0.0
H545 H 0.17813 0.96514 0.60632 0.0
C546 C 0.22342 0.95033 0.55057 0.0
C547 C 0.21638 0.95574 0.59588 0.0
C548 C 0.22569 0.95686 0.62297 0.0
C549 C 0.19787 0.95547 0.54546 0.0
C550 C 0.18144 0.96101 0.56583 0.0
C551 C 0.19082 0.96085 0.59077 0.0
C552 C 0.15443 0.9671 0.5616 0.0
C553 C 0.18856 0.95442 0.51837 0.0
C554 C 0.14754 0.98854 0.54775 0.0
C555 C 0.12204 0.99409 0.54354 0.0
C556 C 0.10292 0.97835 0.55322 0.0
C557 C 0.10995 0.95709 0.56748 0.0
C558 C 0.13547 0.95158 0.57169 0.0
H559 H 0.20182 0.94397 0.50593 0.0
H560 H 0.16962 0.94537 0.51724 0.0
H561 H 0.18684 0.97384 0.51087 0.0
H562 H 0.16191 0.00101 0.54022 0.0
H563 H 0.11734 0.01069 0.5326 0.0
H564 H 0.76594 0.38833 0.88682 0.0
H565 H 0.80035 0.41122 0.90747 0.0
H566 H 0.74724 0.44486 0.95922 0.0
H567 H 0.71248 0.42183 0.9386 0.0
H568 H 0.78239 0.47916 0.93908 0.0
H569 H 0.83032 0.39471 0.97719 0.0
H570 H 0.82447 0.39266 0.94368 0.0
H571 H 0.79823 0.39398 0.96533 0.0
C572 C 0.76157 0.40035 0.90279 0.0
C573 C 0.73652 0.403 0.9113 0.0
C574 C 0.78126 0.41344 0.91455 0.0
C575 C 0.7764 0.42933 0.93518 0.0
C576 C 0.75138 0.43253 0.94342 0.0
H577 H 0.90602 0.48215 0.02356 0.0
H578 H 0.86426 0.46568 0.01234 0.0
C579 C 0.73157 0.41944 0.93159 0.0
C580 C 0.79761 0.44265 0.94783 0.0
H581 H 0.85493 0.4325 0.97591 0.0
C582 C 0.79814 0.46902 0.94745 0.0
C583 C 0.81788 0.42939 0.95915 0.0
C584 C 0.81764 0.40113 0.96163 0.0
C585 C 0.81902 0.48245 0.95702 0.0
C586 C 0.84005 0.46909 0.96677 0.0
C587 C 0.83894 0.44276 0.9682 0.0
C588 C 0.86389 0.48173 0.97459 0.0
C589 C 0.81833 0.51078 0.95655 0.0
C590 C 0.87749 0.49647 0.9572 0.0
C591 C 0.90132 0.50607 0.96361 0.0
C592 C 0.9122 0.50078 0.98742 0.0
C593 C 0.89826 0.48651 0.00502 0.0
C594 C 0.87436 0.47709 0.99866 0.0
H595 H 0.79856 0.51786 0.9567 0.0
H596 H 0.82867 0.51893 0.973 0.0
H597 H 0.82741 0.51759 0.93886 0.0
H598 H 0.87013 0.49977 0.93829 0.0
H599 H 0.91159 0.51685 0.94954 0.0
H600 H 0.78495 0.60579 0.47961 0.0
H601 H 0.74706 0.58575 0.49707 0.0
H602 H 0.74301 0.53686 0.43189 0.0
H603 H 0.78084 0.55671 0.41441 0.0
H604 H 0.70211 0.5887 0.47173 0.0
H605 H 0.72566 0.4888 0.48929 0.0
H606 H 0.74962 0.51278 0.48546 0.0
H607 H 0.73432 0.49926 0.45811 0.0
C608 C 0.77627 0.5904 0.46929 0.0
C609 C 0.78576 0.58289 0.44559 0.0
C610 C 0.75472 0.57891 0.47933 0.0
C611 C 0.74235 0.55969 0.46588 0.0
C612 C 0.75258 0.55124 0.44288 0.0
H613 H 0.59342 0.49567 0.45916 0.0
H614 H 0.63814 0.5065 0.45415 0.0
C615 C 0.77419 0.56265 0.43288 0.0
C616 C 0.71695 0.55109 0.47391 0.0
H617 H 0.68143 0.4989 0.48652 0.0
C618 C 0.69767 0.56911 0.47538 0.0
C619 C 0.7112 0.52551 0.47838 0.0
C620 C 0.73135 0.5055 0.47797 0.0
C621 C 0.67258 0.56218 0.48036 0.0
C622 C 0.66673 0.53656 0.48443 0.0
C623 C 0.68605 0.51853 0.4834 0.0
C624 C 0.64041 0.52819 0.4888 0.0
C625 C 0.6524 0.58222 0.48023 0.0
C626 C 0.62712 0.53637 0.51023 0.0
C627 C 0.60155 0.53038 0.51309 0.0
C628 C 0.58886 0.51594 0.49462 0.0
C629 C 0.60255 0.50695 0.47366 0.0
C630 C 0.62813 0.51302 0.4708 0.0
H631 H 0.65912 0.59991 0.47127 0.0
H632 H 0.63524 0.57565 0.46995 0.0
H633 H 0.64692 0.58654 0.50007 0.0
H634 H 0.63643 0.54778 0.52452 0.0
H635 H 0.59167 0.53739 0.52961 0.0
H636 H 0.06411 0.25719 0.14976 0.0
H637 H 0.04539 0.29259 0.1268 0.0
H638 H 0.10164 0.28492 0.06817 0.0
H639 H 0.1203 0.24941 0.09092 0.0
H640 H 0.06953 0.3365 0.11667 0.0
H641 H 0.03755 0.29291 0.02649 0.0
H642 H 0.04585 0.27457 0.05412 0.0
H643 H 0.07019 0.28689 0.03376 0.0
C644 C 0.07231 0.26289 0.13184 0.0
C645 C 0.09367 0.25053 0.12214 0.0
C646 C 0.06155 0.28304 0.1187 0.0
C647 C 0.07192 0.2912 0.09561 0.0
C648 C 0.09292 0.27855 0.08561 0.0
H649 H 0.05647 0.42616 0.00518 0.0
H650 H 0.06825 0.38506 0.02241 0.0
C651 C 0.10361 0.2583 0.09867 0.0
C652 C 0.06219 0.3143 0.08326 0.0
H653 H 0.03866 0.33781 0.02762 0.0
C654 C 0.06254 0.33671 0.09729 0.0
C655 C 0.05325 0.31457 0.0579 0.0
C656 C 0.05143 0.2909 0.04224 0.0
C657 C 0.05463 0.35948 0.08654 0.0
C658 C 0.04584 0.35979 0.06117 0.0
C659 C 0.04542 0.33743 0.04708 0.0
C660 C 0.03725 0.38336 0.04906 0.0
C661 C 0.05625 0.38318 0.10222 0.0
C662 C 0.01554 0.3956 0.0579 0.0
C663 C 0.00874 0.41903 0.04814 0.0
C664 C 0.02354 0.43068 0.02931 0.0
C665 C 0.04471 0.41781 0.01974 0.0
C666 C 0.05146 0.39431 0.02951 0.0
H667 H 0.06824 0.38066 0.11939 0.0
H668 H 0.06405 0.39893 0.09081 0.0
H669 H 0.03697 0.38854 0.10849 0.0
H670 H 0.00417 0.38725 0.07278 0.0
H671 H 0.99222 0.42828 0.05586 0.0
H672 H 0.62364 0.26422 0.94153 0.0
H673 H 0.60267 0.22867 0.96232 0.0
H674 H 0.5405 0.23418 0.90938 0.0
H675 H 0.56134 0.26968 0.88848 0.0
H676 H 0.55384 0.22191 0.98459 0.0
H677 H 0.56761 0.16248 0.89901 0.0
H678 H 0.58369 0.19213 0.90334 0.0
H679 H 0.55112 0.19144 0.8934 0.0
C680 C 0.60529 0.25814 0.93461 0.0
C681 C 0.59426 0.26953 0.91318 0.0
C682 C 0.59338 0.2378 0.94646 0.0
C683 C 0.5703 0.22854 0.93706 0.0
C684 C 0.55858 0.24073 0.91656 0.0
H685 H 0.48581 0.09187 0.96942 0.0
H686 H 0.49833 0.13365 0.95471 0.0
C687 C 0.5705 0.26098 0.90465 0.0
C688 C 0.55921 0.20528 0.94776 0.0
H689 H 0.54471 0.14453 0.93281 0.0
C690 C 0.55177 0.20498 0.97331 0.0
C691 C 0.55664 0.18324 0.93296 0.0
C692 C 0.56537 0.18214 0.90572 0.0
C693 C 0.54159 0.18319 0.98441 0.0
C694 C 0.53919 0.16112 0.96963 0.0
C695 C 0.54643 0.16154 0.94404 0.0
C696 C 0.53018 0.13702 0.98041 0.0
C697 C 0.53324 0.18404 0.01175 0.0
C698 C 0.5439 0.12512 -0.0002 0.0
C699 C 0.53684 0.10123 0.00825 0.0
C700 C 0.51599 0.08869 0.99732 0.0
C701 C 0.50196 0.10093 0.97825 0.0
C702 C 0.50906 0.12483 0.96982 0.0
H703 H 0.52968 0.20361 0.01813 0.0
H704 H 0.51578 0.17275 0.01463 0.0
H705 H 0.54839 0.17607 0.02394 0.0
H706 H 0.56058 0.13395 0.00784 0.0
H707 H 0.54811 0.09236 0.02292 0.0
H708 H 0.90809 0.70693 0.47759 0.0
H709 H 0.92861 0.7414 0.50062 0.0
H710 H 0.96993 0.7616 0.43313 0.0
H711 H 0.95023 0.7267 0.41026 0.0
H712 H 0.99803 0.76795 0.47895 0.0
H713 H 0.90252 0.81198 0.48216 0.0
H714 H 0.90528 0.78153 0.49664 0.0
H715 H 0.90912 0.78477 0.46293 0.0
C716 C 0.92211 0.71824 0.46788 0.0
C717 C 0.92722 0.71441 0.44198 0.0
C718 C 0.93366 0.73802 0.48101 0.0
C719 C 0.95035 0.75429 0.46839 0.0
C720 C 0.95697 0.74931 0.44314 0.0
H721 H 0.97878 0.90985 0.47506 0.0
H722 H 0.96885 0.86604 0.46593 0.0
C723 C 0.94552 0.72953 0.43005 0.0
C724 C 0.95864 0.77813 0.48019 0.0
H725 H 0.9366 0.83586 0.49736 0.0
C726 C 0.98464 0.78272 0.48337 0.0
C727 C 0.94105 0.7974 0.48557 0.0
C728 C 0.91294 0.79388 0.48152 0.0
C729 C 0.99356 0.80639 0.49118 0.0
C730 C 0.97595 0.82572 0.49603 0.0
C731 C 0.94997 0.82087 0.49366 0.0
C732 C 0.98393 0.85182 0.50134 0.0
C733 C 0.02169 0.81097 0.49305 0.0
C734 C 0.99588 0.85824 0.52424 0.0
C735 C 0.00162 0.88338 0.52958 0.0
C736 C 0.99536 0.90243 0.51211 0.0
C737 C 0.98381 0.89573 0.48899 0.0
C738 C 0.97812 0.87069 0.48371 0.0
H739 H 0.03282 0.79506 0.48528 0.0
H740 H 0.02692 0.82839 0.48269 0.0
H741 H 0.02705 0.81358 0.51326 0.0
H742 H 0.0002 0.84392 0.5382 0.0
H743 H 0.01048 0.8879 0.54758 0.0
H744 H 0.48023 0.80629 0.55935 0.0
H745 H 0.48721 0.76255 0.54691 0.0
H746 H 0.41544 0.74172 0.57966 0.0
H747 H 0.4084 0.78539 0.59228 0.0
H748 H 0.45333 0.70953 0.59315 0.0
H749 H 0.45336 0.72466 0.48899 0.0
H750 H 0.47585 0.74395 0.50564 0.0
H751 H 0.44254 0.7482 0.51106 0.0
C752 C 0.46584 0.79242 0.56368 0.0
C753 C 0.44373 0.79929 0.57672 0.0
C754 C 0.46982 0.76746 0.55652 0.0
C755 C 0.45164 0.74897 0.56197 0.0
C756 C 0.42967 0.75572 0.57519 0.0
H757 H 0.44508 0.59846 0.49817 0.0
H758 H 0.43723 0.64224 0.50977 0.0
C759 C 0.42573 0.78064 0.58248 0.0
C760 C 0.45579 0.72246 0.55449 0.0
H761 H 0.46665 0.68442 0.50351 0.0
C762 C 0.45615 0.70401 0.57354 0.0
C763 C 0.4591 0.71527 0.52886 0.0
C764 C 0.45746 0.73401 0.50742 0.0
C765 C 0.46016 0.67861 0.56772 0.0
C766 C 0.46445 0.67156 0.5422 0.0
C767 C 0.46364 0.68993 0.52309 0.0
C768 C 0.46957 0.64517 0.53492 0.0
C769 C 0.45932 0.65952 0.5889 0.0
C770 C 0.49061 0.63245 0.54486 0.0
C771 C 0.4951 0.60741 0.53838 0.0
C772 C 0.47876 0.59465 0.5216 0.0
C773 C 0.45802 0.60767 0.51118 0.0
C774 C 0.4535 0.6327 0.51778 0.0
H775 H 0.44903 0.6668 0.60571 0.0
H776 H 0.45005 0.64185 0.58256 0.0
H777 H 0.47894 0.65504 0.59494 0.0
H778 H 0.5036 0.64191 0.55764 0.0
H779 H 0.51137 0.59805 0.54659 0.0
H780 H 0.90142 0.95651 0.82517 0.0
H781 H 0.91199 0.96188 0.78033 0.0
H782 H 0.9915 0.9601 0.79897 0.0
H783 H 0.98114 0.95442 0.84386 0.0
H784 H 0.97748 -0.00048 0.76573 0.0
H785 H 0.94075 0.90705 0.73322 0.0
H786 H 0.91855 0.92541 0.75107 0.0
H787 H 0.9468 0.91401 0.76623 0.0
C788 C 0.92116 0.95701 0.81972 0.0
C789 C 0.94044 0.9549 0.83808 0.0
C790 C 0.92716 0.96009 0.7941 0.0
C791 C 0.95251 0.96102 0.78635 0.0
C792 C 0.97181 0.95935 0.80461 0.0
H793 H 0.00915 0.94795 0.63231 0.0
H794 H 0.0001 0.94233 0.67745 0.0
C795 C 0.96584 0.95624 0.83025 0.0
C796 C 0.95891 0.96404 0.75919 0.0
H797 H 0.95272 0.9361 0.70117 0.0
C798 C 0.97215 0.98564 0.7516 0.0
C799 C 0.95219 0.94572 0.74091 0.0
C800 C 0.93899 0.92161 0.74821 0.0
C801 C 0.97843 0.98967 0.72606 0.0
C802 C 0.97099 0.97174 0.70766 0.0
C803 C 0.95819 0.9499 0.71532 0.0
C804 C 0.97639 0.97527 0.68034 0.0
C805 C 0.99325 0.01292 0.71901 0.0
C806 C 0.96575 0.99547 0.66698 0.0
C807 C 0.97085 0.99876 0.64119 0.0
C808 C 0.98662 0.98181 0.62824 0.0
C809 C 0.99699 0.9614 0.64167 0.0
C810 C 0.99184 0.95813 0.66747 0.0
H811 H 0.00284 0.02138 0.73576 0.0
H812 H 0.00772 0.00859 0.70442 0.0
H813 H 0.98013 0.02713 0.71099 0.0
H814 H 0.95338 0.00863 0.67649 0.0
H815 H 0.96244 0.01461 0.63145 0.0
H816 H 0.55361 0.06203 0.32881 0.0
H817 H 0.5345 0.04012 0.29231 0.0
H818 H 0.59329 0.06926 0.24386 0.0
H819 H 0.61253 0.09075 0.27997 0.0
H820 H 0.51746 0.06317 0.24544 0.0
H821 H 0.59275 0.99295 0.22914 0.0
H822 H 0.58915 0.00933 0.25895 0.0
H823 H 0.60493 0.02427 0.23273 0.0
C824 C 0.56253 0.06351 0.31039 0.0
C825 C 0.58448 0.07818 0.30718 0.0
C826 C 0.55158 0.05108 0.28962 0.0
C827 C 0.56272 0.05283 0.26552 0.0
C828 C 0.58465 0.06736 0.26238 0.0
H829 H 0.54868 0.03334 0.10966 0.0
H830 H 0.5585 0.04076 0.15424 0.0
C831 C 0.59546 0.07985 0.28298 0.0
C832 C 0.55112 0.04062 0.2431 0.0
H833 H 0.56596 0.00254 0.19329 0.0
C834 C 0.52768 0.04943 0.23428 0.0
C835 C 0.56452 0.02264 0.22873 0.0
C836 C 0.58912 0.01154 0.23799 0.0
C837 C 0.51821 0.04215 0.21043 0.0
C838 C 0.53252 0.02549 0.19532 0.0
C839 C 0.55514 0.01546 0.20489 0.0
C840 C 0.52596 0.02052 0.16848 0.0
C841 C 0.49387 0.05352 0.20082 0.0
C842 C 0.5044 0.00655 0.16175 0.0
C843 C 0.49867 0.00222 0.13614 0.0
C844 C 0.51445 0.01181 0.11692 0.0
C845 C 0.53606 0.02571 0.12389 0.0
C846 C 0.54176 0.02994 0.14938 0.0
H847 H 0.48653 0.06827 0.21375 0.0
H848 H 0.49675 0.06187 0.18172 0.0
H849 H 0.47928 0.03858 0.19899 0.0
H850 H 0.49213 0.99891 0.17628 0.0
H851 H 0.48192 0.99138 0.13144 0.0
H852 H 0.49159 0.55212 0.19036 0.0
H853 H 0.50029 0.5427 0.23501 0.0
H854 H 0.42044 0.53283 0.2485 0.0
H855 H 0.41147 0.54268 0.20406 0.0
H856 H 0.4811 0.56945 0.27764 0.0
H857 H 0.45312 0.46879 0.27898 0.0
H858 H 0.45988 0.48557 0.24995 0.0
H859 H 0.42993 0.48957 0.26547 0.0
C860 C 0.47586 0.548 0.20282 0.0
C861 C 0.45082 0.54815 0.1936 0.0
C862 C 0.48089 0.54249 0.22828 0.0
C863 C 0.46103 0.53679 0.24493 0.0
C864 C 0.43607 0.5367 0.23581 0.0
H865 H 0.45443 0.54339 0.40826 0.0
H866 H 0.44964 0.5496 0.36253 0.0
C867 C 0.43099 0.54229 0.21039 0.0
C868 C 0.46629 0.53211 0.27213 0.0
H869 H 0.46027 0.48826 0.31905 0.0
C870 C 0.4767 0.55167 0.28669 0.0
C871 C 0.46074 0.5088 0.28376 0.0
C872 C 0.45051 0.48686 0.26874 0.0
C873 C 0.48111 0.54873 0.3128 0.0
C874 C 0.47471 0.52573 0.32461 0.0
C875 C 0.46494 0.50594 0.30993 0.0
C876 C 0.47776 0.52197 0.35227 0.0
C877 C 0.49265 0.57022 0.32755 0.0
C878 C 0.49486 0.50407 0.36157 0.0
C879 C 0.49768 0.50045 0.38771 0.0
C880 C 0.48323 0.51452 0.40501 0.0
C881 C 0.46592 0.53228 0.39552 0.0
C882 C 0.46322 0.53596 0.3694 0.0
H883 H 0.50188 0.58415 0.31486 0.0
H884 H 0.47756 0.57999 0.33827 0.0
H885 H 0.50688 0.56323 0.34141 0.0
H886 H 0.50615 0.49302 0.3486 0.0
H887 H 0.5111 0.48654 0.39433 0.0
H888 H 0.04709 0.45238 0.69807 0.0
H889 H 0.03058 0.47537 0.73494 0.0
H890 H 0.09616 0.45349 0.77857 0.0
H891 H 0.11292 0.43118 0.74198 0.0
H892 H 0.01925 0.45491 0.7828 0.0
H893 H 0.09225 0.52902 0.79143 0.0
H894 H 0.08781 0.51088 0.76277 0.0
H895 H 0.10606 0.49838 0.78878 0.0
C896 C 0.05809 0.45281 0.71546 0.0
C897 C 0.08122 0.43989 0.71722 0.0
C898 C 0.04863 0.46586 0.73645 0.0
C899 C 0.06238 0.46646 0.75929 0.0
C900 C 0.08551 0.45371 0.76096 0.0
H901 H 0.05736 0.48756 0.91566 0.0
H902 H 0.06507 0.47987 0.8707 0.0
C903 C 0.09489 0.44067 0.74013 0.0
C904 C 0.05216 0.47885 0.78216 0.0
H905 H 0.06939 0.51875 0.82988 0.0
C906 C 0.0298 0.46934 0.79284 0.0
C907 C 0.06595 0.49776 0.79509 0.0
C908 C 0.08921 0.50979 0.78378 0.0
C909 C 0.02194 0.47688 0.81709 0.0
C910 C 0.03677 0.49444 0.83073 0.0
C911 C 0.05821 0.50511 0.81938 0.0
C912 C 0.03191 0.49993 0.85773 0.0
C913 C 0.99877 0.46491 0.82866 0.0
C914 C 0.01079 0.51395 0.86518 0.0
C915 C 0.00631 0.51846 0.89093 0.0
C916 C 0.02288 0.50893 0.90957 0.0
C917 C 0.04415 0.49509 0.90187 0.0
C918 C 0.04864 0.49072 0.87618 0.0
H919 H 0.99072 0.44982 0.81647 0.0
H920 H 0.00348 0.45683 0.84752 0.0
H921 H 0.98403 0.47944 0.83154 0.0
H922 H 0.9978 0.52136 0.85111 0.0
H923 H 0.98977 0.52922 0.89621 0.0
H924 H 0.80275 0.99235 0.96311 0.0
H925 H 0.7575 0.99747 0.9713 0.0
H926 H 0.75188 0.91925 0.99194 0.0
H927 H 0.79701 0.91381 0.98344 0.0
H928 H 0.71643 0.97104 0.9482 0.0
H929 H 0.72008 0.95699 0.05268 0.0
H930 H 0.74789 0.96396 0.03408 0.0
H931 H 0.73489 0.93274 0.03427 0.0
C932 C 0.79188 0.97618 0.96925 0.0
C933 C 0.80354 0.95268 0.9727 0.0
C934 C 0.76606 0.97918 0.97403 0.0
C935 C 0.75147 0.95881 0.98251 0.0
C936 C 0.76295 0.93531 0.98587 0.0
H937 H 0.58711 0.94675 0.98311 0.0
H938 H 0.63238 0.94047 0.9758 0.0
C939 C 0.78875 0.93227 0.98105 0.0
C940 C 0.72409 0.96204 0.98731 0.0
H941 H 0.67935 0.95952 0.03385 0.0
C942 C 0.70828 0.96855 0.96691 0.0
C943 C 0.71365 0.95899 0.0118 0.0
C944 C 0.72998 0.95299 0.03456 0.0
C945 C 0.68216 0.97183 0.9703 0.0
C946 C 0.67163 0.96823 0.99468 0.0
C947 C 0.68749 0.96201 0.01514 0.0
C948 C 0.64427 0.97157 -0.00053 0.0
C949 C 0.66611 0.97956 0.94789 0.0
C950 C 0.63606 0.99076 0.01567 0.0
C951 C 0.61025 0.99438 0.01995 0.0
C952 C 0.59215 0.97874 0.00823 0.0
C953 C 0.60051 0.9592 0.99236 0.0
C954 C 0.62636 0.95565 0.98805 0.0
H955 H 0.67777 0.98691 0.93201 0.0
H956 H 0.65538 0.963 0.94086 0.0
H957 H 0.65224 0.99418 0.95347 0.0
H958 H 0.64963 0.00317 0.02474 0.0
H959 H 0.60453 0.00955 0.03235 0.0
H960 H 0.72638 0.09888 0.47345 0.0
H961 H 0.76485 0.08006 0.49072 0.0
H962 H 0.75089 0.01277 0.44734 0.0
H963 H 0.71185 0.03114 0.4304 0.0
H964 H 0.77487 0.02833 0.51582 0.0
H965 H 0.82055 0.04611 0.42224 0.0
H966 H 0.79236 0.06254 0.43203 0.0
H967 H 0.79039 0.03026 0.42248 0.0
C968 C 0.73097 0.07978 0.46815 0.0
C969 C 0.71609 0.0666 0.45034 0.0
C970 C 0.75307 0.06912 0.47795 0.0
C971 C 0.76073 0.0452 0.47006 0.0
C972 C 0.74529 0.03138 0.45346 0.0
H973 H 0.91202 0.98124 0.48255 0.0
H974 H 0.86734 0.98765 0.47231 0.0
C975 C 0.7231 0.04196 0.44372 0.0
C976 C 0.78604 0.03586 0.47732 0.0
H977 H 0.84598 0.02927 0.45451 0.0
C978 C 0.79044 0.0283 0.50244 0.0
C979 C 0.80616 0.03584 0.45973 0.0
C980 C 0.80236 0.04422 0.4326 0.0
C981 C 0.81464 0.02081 0.51051 0.0
C982 C 0.83502 0.02162 0.49311 0.0
C983 C 0.83038 0.02866 0.46784 0.0
C984 C 0.86151 0.01635 0.50079 0.0
C985 C 0.81807 0.01192 0.53749 0.0
C986 C 0.87313 0.03041 0.52014 0.0
C987 C 0.89862 0.02668 0.52616 0.0
C988 C 0.91313 0.0091 0.51264 0.0
C989 C 0.90143 0.99499 0.49329 0.0
C990 C 0.87587 0.99858 0.48745 0.0
H991 H 0.80006 0.00453 0.54542 0.0
H992 H 0.83268 0.997 0.5388 0.0
H993 H 0.82416 0.02799 0.54948 0.0
H994 H 0.86267 0.04475 0.53019 0.0
H995 H 0.90708 0.038 0.54104 0.0
H996 H 0.31748 0.53027 0.04101 0.0
H997 H 0.27255 0.52563 0.03064 0.0
H998 H 0.25667 0.59566 0.06847 0.0
H999 H 0.30166 0.60095 0.07807 0.0
H1000 H 0.23223 0.52245 0.06368 0.0
H1001 H 0.22156 0.605 0.00019 0.0
H1002 H 0.25209 0.5927 0.00929 0.0
H1003 H 0.23473 0.61244 0.03074 0.0
C1004 C 0.3045 0.54489 0.04678 0.0
C1005 C 0.3132 0.56604 0.06028 0.0
C1006 C 0.27881 0.54212 0.04098 0.0
C1007 C 0.26134 0.56048 0.04845 0.0
C1008 C 0.2699 0.58151 0.06208 0.0
H1009 H 0.09792 0.57354 0.04121 0.0
H1010 H 0.14322 0.57942 0.04912 0.0
C1011 C 0.29558 0.58433 0.06785 0.0
C1012 C 0.23405 0.55717 0.04276 0.0
H1013 H 0.18364 0.58437 0.01281 0.0
C1014 C 0.22163 0.53589 0.05243 0.0
C1015 C 0.22028 0.57478 0.02811 0.0
C1016 C 0.23286 0.5974 0.01626 0.0
C1017 C 0.19568 0.53197 0.04823 0.0
C1018 C 0.18191 0.54964 0.03369 0.0
C1019 C 0.19429 0.57091 0.02399 0.0
C1020 C 0.15459 0.54631 0.02834 0.0
C1021 C 0.18308 0.50923 0.05981 0.0
C1022 C 0.14609 0.52597 0.01367 0.0
C1023 C 0.12025 0.52255 0.00907 0.0
C1024 C 0.10241 0.53946 0.01903 0.0
C1025 C 0.11109 0.5601 0.03334 0.0
C1026 C 0.13696 0.56353 0.03787 0.0
H1027 H 0.19481 0.50077 0.07511 0.0
H1028 H 0.1643 0.5142 0.06775 0.0
H1029 H 0.18012 0.4948 0.04489 0.0
H1030 H 0.15946 0.51272 0.00579 0.0
H1031 H 0.11428 0.50652 0.99787 0.0
H1032 H 0.18711 0.48477 0.56984 0.0
H1033 H 0.2255 0.5016 0.55014 0.0
H1034 H 0.24309 0.42795 0.52107 0.0
H1035 H 0.20499 0.4111 0.54054 0.0
H1036 H 0.27078 0.48527 0.56614 0.0
H1037 H 0.26477 0.47165 0.46238 0.0
H1038 H 0.23716 0.47097 0.48253 0.0
H1039 H 0.25659 0.44341 0.47906 0.0
C1040 C 0.19882 0.47235 0.55864 0.0
C1041 C 0.1931 0.44658 0.55688 0.0
C1042 C 0.22068 0.482 0.54733 0.0
C1043 C 0.23708 0.46607 0.53399 0.0
C1044 C 0.23044 0.44074 0.53071 0.0
H1045 H 0.39693 0.45693 0.5352 0.0
H1046 H 0.35111 0.4536 0.54026 0.0
C1047 C 0.20859 0.4311 0.54193 0.0
C1048 C 0.26295 0.47457 0.52742 0.0
H1049 H 0.3072 0.47304 0.48037 0.0
C1050 C 0.27858 0.48311 0.54724 0.0
C1051 C 0.27311 0.47187 0.50277 0.0
C1052 C 0.25692 0.46422 0.48044 0.0
C1053 C 0.3044 0.48763 0.54341 0.0
C1054 C 0.31492 0.48312 0.51924 0.0
C1055 C 0.29909 0.47605 0.49901 0.0
C1056 C 0.34252 0.48456 0.51505 0.0
C1057 C 0.32032 0.4967 0.56543 0.0
C1058 C 0.35272 0.50261 0.49864 0.0
C1059 C 0.37892 0.50457 0.49565 0.0
C1060 C 0.39533 0.48835 0.50892 0.0
C1061 C 0.3849 0.46982 0.52482 0.0
C1062 C 0.35873 0.46794 0.52781 0.0
H1063 H 0.30856 0.50568 0.58032 0.0
H1064 H 0.33018 0.48044 0.57414 0.0
H1065 H 0.33487 0.51038 0.55902 0.0
H1066 H 0.34044 0.5155 0.48853 0.0
H1067 H 0.3863 0.51898 0.48315 0.0
H1068 H 0.907 0.81505 0.97952 0.0
H1069 H 0.9183 0.77082 0.98434 0.0
H1070 H 0.99428 0.78726 0.95957 0.0
H1071 H 0.98288 0.83143 0.95374 0.0
H1072 H 0.974 0.74537 0.93628 0.0
H1073 H 0.96131 0.74012 0.04059 0.0
H1074 H 0.93395 0.75169 0.02407 0.0
H1075 H 0.96287 0.76959 0.02369 0.0
C1076 C 0.92608 0.80926 0.97494 0.0
C1077 C 0.94406 0.82681 0.96629 0.0
C1078 C 0.93259 0.78402 0.978 0.0
C1079 C 0.95724 0.77585 0.97271 0.0
C1080 C 0.9752 0.79324 0.96394 0.0
H1081 H 0.01846 0.631 0.01699 0.0
H1082 H 0.01027 0.67574 0.01094 0.0
C1083 C 0.9687 0.8185 0.96082 0.0
C1084 C 0.96409 0.74903 0.97572 0.0
H1085 H 0.96632 0.70124 0.01887 0.0
C1086 C 0.97246 0.73572 0.95435 0.0
C1087 C 0.96238 0.73661 -0.0006 0.0
C1088 C 0.95488 0.75027 0.02331 0.0
C1089 C 0.97868 0.71013 0.95591 0.0
C1090 C 0.97599 0.69747 0.97937 0.0
C1091 C 0.96812 0.71092 0.00084 0.0
C1092 C 0.98143 0.6703 0.98219 0.0
C1093 C 0.98842 0.69701 0.93253 0.0
C1094 C 0.96784 0.65237 0.96811 0.0
C1095 C 0.97255 0.62674 0.97141 0.0
C1096 C 0.99077 0.61854 0.9891 0.0
C1097 C 0.00429 0.63661 0.00321 0.0
C1098 C -0.00036 0.66221 -0.0002 0.0
H1099 H 0.99599 0.7106 0.91843 0.0
H1100 H 0.00356 0.6834 0.93744 0.0
H1101 H 0.97265 0.68654 0.9234 0.0
H1102 H 0.9533 0.65819 0.95482 0.0
H1103 H 0.96167 0.61335 0.96036 0.0
H1104 H 0.47817 0.68911 0.05239 0.0
H1105 H 0.48448 0.73428 0.04651 0.0
H1106 H 0.41353 0.74893 0.08377 0.0
H1107 H 0.40663 0.70377 0.08914 0.0
H1108 H 0.44809 0.76919 0.02085 0.0
H1109 H 0.46898 0.79279 0.12176 0.0
H1110 H 0.47249 0.76136 0.10929 0.0
H1111 H 0.44154 0.77361 0.11553 0.0
C1112 C 0.46376 0.70188 0.05913 0.0
C1113 C 0.44189 0.69276 0.07126 0.0
C1114 C 0.46749 0.72768 0.05589 0.0
C1115 C 0.44959 0.74484 0.06495 0.0
C1116 C 0.42773 0.73592 0.07701 0.0
H1117 H 0.44708 0.90858 0.06621 0.0
H1118 H 0.43784 0.86398 0.07301 0.0
C1119 C 0.42389 0.71012 0.08013 0.0
C1120 C 0.45356 0.77208 0.06123 0.0
H1121 H 0.46723 0.82649 0.09273 0.0
C1122 C 0.45229 0.78177 0.03652 0.0
C1123 C 0.45879 0.78834 0.08179 0.0
C1124 C 0.46072 0.77862 0.10863 0.0
C1125 C 0.45602 0.80746 0.03178 0.0
C1126 C 0.46187 0.8237 0.05228 0.0
C1127 C 0.46282 0.814 0.07706 0.0
C1128 C 0.46759 0.85069 0.04831 0.0
C1129 C 0.45322 0.81699 0.00493 0.0
C1130 C 0.48767 0.85798 0.03257 0.0
C1131 C 0.49289 0.88339 0.02851 0.0
C1132 C 0.47834 0.90207 0.04041 0.0
C1133 C 0.45862 0.8947 0.05671 0.0
C1134 C 0.4533 0.86923 0.06061 0.0
H1135 H 0.4414 0.80413 0.99322 0.0
H1136 H 0.44457 0.83598 0.00454 0.0
H1137 H 0.47218 0.81817 0.99602 0.0
H1138 H 0.49939 0.844 0.02344 0.0
H1139 H 0.5084 0.88836 0.01607 0.0
H1140 H 0.10859 0.26844 0.6109 0.0
H1141 H 0.08864 0.22831 0.60085 0.0
H1142 H 0.02437 0.26704 0.56892 0.0
H1143 H 0.04465 0.3076 0.57834 0.0
H1144 H 0.04096 0.21012 0.61741 0.0
H1145 H 0.04734 0.21805 0.51214 0.0
H1146 H 0.06555 0.23792 0.53317 0.0
H1147 H 0.03232 0.2434 0.52887 0.0
C1148 C 0.09036 0.26849 0.60142 0.0
C1149 C 0.07834 0.29119 0.59508 0.0
C1150 C 0.07889 0.24554 0.59592 0.0
C1151 C 0.05517 0.24476 0.58397 0.0
C1152 C 0.04284 0.26731 0.5779 0.0
H1153 H 0.98209 0.09622 0.57018 0.0
H1154 H 0.98758 0.14119 0.57843 0.0
C1155 C 0.05435 0.29041 0.58343 0.0
C1156 C 0.04381 0.22007 0.57793 0.0
H1157 H 0.03194 0.18002 0.52873 0.0
C1158 C 0.03858 0.20359 0.59804 0.0
C1159 C 0.04096 0.21171 0.55262 0.0
C1160 C 0.04695 0.22855 0.53036 0.0
C1161 C 0.03154 0.17856 0.59354 0.0
C1162 C 0.02933 0.17 0.56822 0.0
C1163 C 0.03359 0.18676 0.5481 0.0
C1164 C 0.02512 0.14316 0.56228 0.0
C1165 C 0.02787 0.16115 0.61586 0.0
C1166 C 0.0442 0.1296 0.54998 0.0
C1167 C 0.04113 0.10401 0.54515 0.0
C1168 C 0.01885 0.09147 0.55249 0.0
C1169 C -0.00044 0.10525 0.56446 0.0
C1170 C 0.00266 0.13092 0.56924 0.0
H1171 H 0.03473 0.16959 0.63391 0.0
H1172 H 0.00742 0.15686 0.61798 0.0
H1173 H 0.03797 0.14314 0.61276 0.0
H1174 H 0.06168 0.13875 0.54448 0.0
H1175 H 0.05633 0.09405 0.53582 0.0
H1176 H 0.54564 0.19982 0.42468 0.0
H1177 H 0.52189 0.23689 0.43786 0.0
H1178 H 0.58517 0.2611 0.48373 0.0
H1179 H 0.6084 0.22334 0.47201 0.0
H1180 H 0.54087 0.27265 0.50603 0.0
H1181 H 0.53954 0.30293 0.405 0.0
H1182 H 0.52383 0.27361 0.41103 0.0
H1183 H 0.55748 0.27619 0.41574 0.0
C1184 C 0.55426 0.21262 0.43816 0.0
C1185 C 0.57918 0.20882 0.44687 0.0
C1186 C 0.54076 0.234 0.4454 0.0
C1187 C 0.55207 0.25216 0.46112 0.0
C1188 C 0.57617 0.2475 0.47131 0.0
H1189 H 0.53985 0.41075 0.46345 0.0
H1190 H 0.54887 0.36631 0.45747 0.0
C1191 C 0.58954 0.22601 0.46437 0.0
C1192 C 0.53997 0.27693 0.46541 0.0
H1193 H 0.52154 0.33035 0.43465 0.0
C1194 C 0.5364 0.28522 0.49044 0.0
C1195 C 0.53446 0.2934 0.44501 0.0
C1196 C 0.5392 0.28625 0.41769 0.0
C1197 C 0.52822 0.30978 0.49568 0.0
C1198 C 0.52286 0.32625 0.47526 0.0
C1199 C 0.52557 0.31765 0.45025 0.0
C1200 C 0.51676 0.35317 0.47921 0.0
C1201 C 0.52667 0.31822 0.52297 0.0
C1202 C 0.49553 0.36062 0.49327 0.0
C1203 C 0.49044 0.38617 0.49699 0.0
C1204 C 0.50627 0.40467 0.48634 0.0
C1205 C 0.5272 0.39706 0.47187 0.0
C1206 C 0.5324 0.37162 0.46842 0.0
H1207 H 0.53689 0.30527 0.53596 0.0
H1208 H 0.53467 0.3374 0.52529 0.0
H1209 H 0.50653 0.31869 0.52886 0.0
H1210 H 0.48286 0.34673 0.50129 0.0
H1211 H 0.47405 0.39141 0.50807 0.0
loop_
_geom_bond_atom_site_label_1
_geom_bond_atom_site_label_2
_geom_bond_distance
_geom_bond_site_symmetry_2
_ccdc_geom_bond_type
P0 O11 1.490 . S
P0 C14 1.812 . S
P0 C20 1.803 . S
P0 C26 1.819 . S
H1 C15 0.941 . S
H2 C16 0.939 . S
H3 C18 0.940 . S
H4 C19 0.940 . S
H5 C21 0.939 . S
H6 C22 0.942 . S
H7 C24 0.940 . S
H8 C25 0.939 . S
H9 C27 0.941 . S
H10 C31 0.939 . S
O11 P0 1.490 . S
H12 C28 0.939 . S
H13 C30 0.940 . S
C14 P0 1.812 . S
C14 C15 1.389 . S
C14 C19 1.391 . S
C15 H1 0.941 . S
C15 C14 1.389 . S
C15 C16 1.397 . S
C16 H2 0.939 . S
C16 C15 1.397 . S
C16 C17 1.378 . S
C17 C16 1.378 . S
C17 C18 1.378 . S
C18 H3 0.940 . S
C18 C17 1.378 . S
C18 C19 1.396 . S
C19 H4 0.940 . S
C19 C14 1.391 . S
C19 C18 1.396 . S
C20 P0 1.803 . S
C20 C21 1.378 . S
C20 C25 1.400 . S
C21 H5 0.939 . S
C21 C20 1.378 . S
C21 C22 1.361 . S
C22 H6 0.942 . S
C22 C21 1.361 . S
C22 C23 1.369 . S
C23 C22 1.369 . S
C23 C24 1.404 . S
C24 H7 0.940 . S
C24 C23 1.404 . S
C24 C25 1.389 . S
C25 H8 0.939 . S
C25 C20 1.400 . S
C25 C24 1.389 . S
C26 P0 1.819 . S
C26 C27 1.391 . S
C26 C31 1.391 . S
C27 H9 0.941 . S
C27 C26 1.391 . S
C27 C28 1.396 . S
C28 H12 0.939 . S
C28 C27 1.396 . S
C28 C29 1.397 . S
C29 C28 1.397 . S
C29 C30 1.385 . S
C30 H13 0.940 . S
C30 C29 1.385 . S
C30 C31 1.388 . S
C31 H10 0.939 . S
C31 C26 1.391 . S
C31 C30 1.388 . S
P32 O43 1.490 . S
P32 C46 1.812 . S
P32 C52 1.803 . S
P32 C58 1.819 . S
H33 C47 0.941 . S
H34 C48 0.939 . S
H35 C50 0.940 . S
H36 C51 0.940 . S
H37 C53 0.939 . S
H38 C54 0.942 . S
H39 C56 0.940 . S
H40 C57 0.939 . S
H41 C59 0.941 . S
H42 C63 0.939 . S
O43 P32 1.490 . S
H44 C60 0.939 . S
H45 C62 0.940 . S
C46 P32 1.812 . S
C46 C47 1.389 . S
C46 C51 1.391 . S
C47 H33 0.941 . S
C47 C46 1.389 . S
C47 C48 1.397 . S
C48 H34 0.939 . S
C48 C47 1.397 . S
C48 C49 1.378 . S
C49 C48 1.378 . S
C49 C50 1.378 . S
C50 H35 0.940 . S
C50 C49 1.378 . S
C50 C51 1.396 . S
C51 H36 0.940 . S
C51 C46 1.391 . S
C51 C50 1.396 . S
C52 P32 1.803 . S
C52 C53 1.378 . S
C52 C57 1.400 . S
C53 H37 0.939 . S
C53 C52 1.378 . S
C53 C54 1.361 . S
C54 H38 0.942 . S
C54 C53 1.361 . S
C54 C55 1.369 . S
C55 C54 1.369 . S
C55 C56 1.404 . S
C56 H39 0.940 . S
C56 C55 1.404 . S
C56 C57 1.389 . S
C57 H40 0.939 . S
C57 C52 1.400 . S
C57 C56 1.389 . S
C58 P32 1.819 . S
C58 C59 1.391 . S
C58 C63 1.391 . S
C59 H41 0.941 . S
C59 C58 1.391 . S
C59 C60 1.396 . S
C60 H44 0.939 . S
C60 C59 1.396 . S
C60 C61 1.397 . S
C61 C60 1.397 . S
C61 C62 1.385 . S
C62 H45 0.940 . S
C62 C61 1.385 . S
C62 C63 1.388 . S
C63 H42 0.939 . S
C63 C58 1.391 . S
C63 C62 1.388 . S
P64 O75 1.490 . S
P64 C78 1.812 . S
P64 C84 1.803 . S
P64 C90 1.819 . S
H65 C79 0.941 . S
H66 C80 0.939 . S
H67 C82 0.940 . S
H68 C83 0.940 . S
H69 C85 0.939 . S
H70 C86 0.942 . S
H71 C88 0.940 . S
H72 C89 0.939 . S
H73 C91 0.941 . S
H74 C95 0.939 . S
O75 P64 1.490 . S
H76 C92 0.939 . S
H77 C94 0.940 . S
C78 P64 1.812 . S
C78 C79 1.389 . S
C78 C83 1.391 . S
C79 H65 0.941 . S
C79 C78 1.389 . S
C79 C80 1.397 . S
C80 H66 0.939 . S
C80 C79 1.397 . S
C80 C81 1.378 . S
C81 C80 1.378 . S
C81 C82 1.378 . S
C82 H67 0.940 . S
C82 C81 1.378 . S
C82 C83 1.396 . S
C83 H68 0.940 . S
C83 C78 1.391 . S
C83 C82 1.396 . S
C84 P64 1.803 . S
C84 C85 1.378 . S
C84 C89 1.400 . S
C85 H69 0.939 . S
C85 C84 1.378 . S
C85 C86 1.361 . S
C86 H70 0.942 . S
C86 C85 1.361 . S
C86 C87 1.369 . S
C87 C86 1.369 . S
C87 C88 1.404 . S
C88 H71 0.940 . S
C88 C87 1.404 . S
C88 C89 1.389 . S
C89 H72 0.939 . S
C89 C84 1.400 . S
C89 C88 1.389 . S
C90 P64 1.819 . S
C90 C91 1.391 . S
C90 C95 1.391 . S
C91 H73 0.941 . S
C91 C90 1.391 . S
C91 C92 1.396 . S
C92 H76 0.939 . S
C92 C91 1.396 . S
C92 C93 1.397 . S
C93 C92 1.397 . S
C93 C94 1.385 . S
C94 H77 0.940 . S
C94 C93 1.385 . S
C94 C95 1.388 . S
C95 H74 0.939 . S
C95 C90 1.391 . S
C95 C94 1.388 . S
P96 O107 1.490 . S
P96 C110 1.812 . S
P96 C116 1.803 . S
P96 C122 1.819 . S
H97 C111 0.941 . S
H98 C112 0.939 . S
H99 C114 0.940 . S
H100 C115 0.940 . S
H101 C117 0.939 . S
H102 C118 0.942 . S
H103 C120 0.940 . S
H104 C121 0.939 . S
H105 C123 0.941 . S
H106 C127 0.939 . S
O107 P96 1.490 . S
H108 C124 0.939 . S
H109 C126 0.940 . S
C110 P96 1.812 . S
C110 C111 1.389 . S
C110 C115 1.391 . S
C111 H97 0.941 . S
C111 C110 1.389 . S
C111 C112 1.397 . S
C112 H98 0.939 . S
C112 C111 1.397 . S
C112 C113 1.378 . S
C113 C112 1.378 . S
C113 C114 1.378 . S
C114 H99 0.940 . S
C114 C113 1.378 . S
C114 C115 1.396 . S
C115 H100 0.940 . S
C115 C110 1.391 . S
C115 C114 1.396 . S
C116 P96 1.803 . S
C116 C117 1.378 . S
C116 C121 1.400 . S
C117 H101 0.939 . S
C117 C116 1.378 . S
C117 C118 1.361 . S
C118 H102 0.942 . S
C118 C117 1.361 . S
C118 C119 1.369 . S
C119 C118 1.369 . S
C119 C120 1.404 . S
C120 H103 0.940 . S
C120 C119 1.404 . S
C120 C121 1.389 . S
C121 H104 0.939 . S
C121 C116 1.400 . S
C121 C120 1.389 . S
C122 P96 1.819 . S
C122 C123 1.391 . S
C122 C127 1.391 . S
C123 H105 0.941 . S
C123 C122 1.391 . S
C123 C124 1.396 . S
C124 H108 0.939 . S
C124 C123 1.396 . S
C124 C125 1.397 . S
C125 C124 1.397 . S
C125 C126 1.385 . S
C126 H109 0.940 . S
C126 C125 1.385 . S
C126 C127 1.388 . S
C127 H106 0.939 . S
C127 C122 1.391 . S
C127 C126 1.388 . S
P128 O139 1.490 . S
P128 C142 1.812 . S
P128 C148 1.803 . S
P128 C154 1.819 . S
H129 C143 0.941 . S
H130 C144 0.939 . S
H131 C146 0.940 . S
H132 C147 0.940 . S
H133 C149 0.939 . S
H134 C150 0.942 . S
H135 C152 0.940 . S
H136 C153 0.939 . S
H137 C155 0.941 . S
H138 C159 0.939 . S
O139 P128 1.490 . S
H140 C156 0.939 . S
H141 C158 0.940 . S
C142 P128 1.812 . S
C142 C143 1.389 . S
C142 C147 1.391 . S
C143 H129 0.941 . S
C143 C142 1.389 . S
C143 C144 1.397 . S
C144 H130 0.939 . S
C144 C143 1.397 . S
C144 C145 1.378 . S
C145 C144 1.378 . S
C145 C146 1.378 . S
C146 H131 0.940 . S
C146 C145 1.378 . S
C146 C147 1.396 . S
C147 H132 0.940 . S
C147 C142 1.391 . S
C147 C146 1.396 . S
C148 P128 1.803 . S
C148 C149 1.378 . S
C148 C153 1.400 . S
C149 H133 0.939 . S
C149 C148 1.378 . S
C149 C150 1.361 . S
C150 H134 0.942 . S
C150 C149 1.361 . S
C150 C151 1.369 . S
C151 C150 1.369 . S
C151 C152 1.404 . S
C152 H135 0.940 . S
C152 C151 1.404 . S
C152 C153 1.389 . S
C153 H136 0.939 . S
C153 C148 1.400 . S
C153 C152 1.389 . S
C154 P128 1.819 . S
C154 C155 1.391 . S
C154 C159 1.391 . S
C155 H137 0.941 . S
C155 C154 1.391 . S
C155 C156 1.396 . S
C156 H140 0.939 . S
C156 C155 1.396 . S
C156 C157 1.397 . S
C157 C156 1.397 . S
C157 C158 1.385 . S
C158 H141 0.940 . S
C158 C157 1.385 . S
C158 C159 1.388 . S
C159 H138 0.939 . S
C159 C154 1.391 . S
C159 C158 1.388 . S
P160 O171 1.490 . S
P160 C174 1.812 . S
P160 C180 1.803 . S
P160 C186 1.819 . S
H161 C175 0.941 . S
H162 C176 0.939 . S
H163 C178 0.940 . S
H164 C179 0.940 . S
H165 C181 0.939 . S
H166 C182 0.942 . S
H167 C184 0.940 . S
H168 C185 0.939 . S
H169 C187 0.941 . S
H170 C191 0.939 . S
O171 P160 1.490 . S
H172 C188 0.939 . S
H173 C190 0.940 . S
C174 P160 1.812 . S
C174 C175 1.389 . S
C174 C179 1.391 . S
C175 H161 0.941 . S
C175 C174 1.389 . S
C175 C176 1.397 . S
C176 H162 0.939 . S
C176 C175 1.397 . S
C176 C177 1.378 . S
C177 C176 1.378 . S
C177 C178 1.378 . S
C178 H163 0.940 . S
C178 C177 1.378 . S
C178 C179 1.396 . S
C179 H164 0.940 . S
C179 C174 1.391 . S
C179 C178 1.396 . S
C180 P160 1.803 . S
C180 C181 1.378 . S
C180 C185 1.400 . S
C181 H165 0.939 . S
C181 C180 1.378 . S
C181 C182 1.361 . S
C182 H166 0.942 . S
C182 C181 1.361 . S
C182 C183 1.369 . S
C183 C182 1.369 . S
C183 C184 1.404 . S
C184 H167 0.940 . S
C184 C183 1.404 . S
C184 C185 1.389 . S
C185 H168 0.939 . S
C185 C180 1.400 . S
C185 C184 1.389 . S
C186 P160 1.819 . S
C186 C187 1.391 . S
C186 C191 1.391 . S
C187 H169 0.941 . S
C187 C186 1.391 . S
C187 C188 1.396 . S
C188 H172 0.939 . S
C188 C187 1.396 . S
C188 C189 1.397 . S
C189 C188 1.397 . S
C189 C190 1.385 . S
C190 H173 0.940 . S
C190 C189 1.385 . S
C190 C191 1.388 . S
C191 H170 0.939 . S
C191 C186 1.391 . S
C191 C190 1.388 . S
P192 O203 1.490 . S
P192 C206 1.812 . S
P192 C212 1.803 . S
P192 C218 1.819 . S
H193 C207 0.941 . S
H194 C208 0.939 . S
H195 C210 0.940 . S
H196 C211 0.940 . S
H197 C213 0.939 . S
H198 C214 0.942 . S
H199 C216 0.940 . S
H200 C217 0.939 . S
H201 C219 0.941 . S
H202 C223 0.939 . S
O203 P192 1.490 . S
H204 C220 0.939 . S
H205 C222 0.940 . S
C206 P192 1.812 . S
C206 C207 1.389 . S
C206 C211 1.391 . S
C207 H193 0.941 . S
C207 C206 1.389 . S
C207 C208 1.397 . S
C208 H194 0.939 . S
C208 C207 1.397 . S
C208 C209 1.378 . S
C209 C208 1.378 . S
C209 C210 1.378 . S
C210 H195 0.940 . S
C210 C209 1.378 . S
C210 C211 1.396 . S
C211 H196 0.940 . S
C211 C206 1.391 . S
C211 C210 1.396 . S
C212 P192 1.803 . S
C212 C213 1.378 . S
C212 C217 1.400 . S
C213 H197 0.939 . S
C213 C212 1.378 . S
C213 C214 1.361 . S
C214 H198 0.942 . S
C214 C213 1.361 . S
C214 C215 1.369 . S
C215 C214 1.369 . S
C215 C216 1.404 . S
C216 H199 0.940 . S
C216 C215 1.404 . S
C216 C217 1.389 . S
C217 H200 0.939 . S
C217 C212 1.400 . S
C217 C216 1.389 . S
C218 P192 1.819 . S
C218 C219 1.391 . S
C218 C223 1.391 . S
C219 H201 0.941 . S
C219 C218 1.391 . S
C219 C220 1.396 . S
C220 H204 0.939 . S
C220 C219 1.396 . S
C220 C221 1.397 . S
C221 C220 1.397 . S
C221 C222 1.385 . S
C222 H205 0.940 . S
C222 C221 1.385 . S
C222 C223 1.388 . S
C223 H202 0.939 . S
C223 C218 1.391 . S
C223 C222 1.388 . S
P224 O235 1.490 . S
P224 C238 1.812 . S
P224 C244 1.803 . S
P224 C250 1.819 . S
H225 C239 0.941 . S
H226 C240 0.939 . S
H227 C242 0.940 . S
H228 C243 0.940 . S
H229 C245 0.939 . S
H230 C246 0.942 . S
H231 C248 0.940 . S
H232 C249 0.939 . S
H233 C251 0.941 . S
H234 C255 0.939 . S
O235 P224 1.490 . S
H236 C252 0.939 . S
H237 C254 0.940 . S
C238 P224 1.812 . S
C238 C239 1.389 . S
C238 C243 1.391 . S
C239 H225 0.941 . S
C239 C238 1.389 . S
C239 C240 1.397 . S
C240 H226 0.939 . S
C240 C239 1.397 . S
C240 C241 1.378 . S
C241 C240 1.378 . S
C241 C242 1.378 . S
C242 H227 0.940 . S
C242 C241 1.378 . S
C242 C243 1.396 . S
C243 H228 0.940 . S
C243 C238 1.391 . S
C243 C242 1.396 . S
C244 P224 1.803 . S
C244 C245 1.378 . S
C244 C249 1.400 . S
C245 H229 0.939 . S
C245 C244 1.378 . S
C245 C246 1.361 . S
C246 H230 0.942 . S
C246 C245 1.361 . S
C246 C247 1.369 . S
C247 C246 1.369 . S
C247 C248 1.404 . S
C248 H231 0.940 . S
C248 C247 1.404 . S
C248 C249 1.389 . S
C249 H232 0.939 . S
C249 C244 1.400 . S
C249 C248 1.389 . S
C250 P224 1.819 . S
C250 C251 1.391 . S
C250 C255 1.391 . S
C251 H233 0.941 . S
C251 C250 1.391 . S
C251 C252 1.396 . S
C252 H236 0.939 . S
C252 C251 1.396 . S
C252 C253 1.397 . S
C253 C252 1.397 . S
C253 C254 1.385 . S
C254 H237 0.940 . S
C254 C253 1.385 . S
C254 C255 1.388 . S
C255 H234 0.939 . S
C255 C250 1.391 . S
C255 C254 1.388 . S
O256 Zn257 1.953 . S
O256 C272 1.225 1_655 S
Zn257 O256 1.953 . S
Zn257 O258 1.949 1_655 S
Zn257 O264 1.919 . S
Zn257 O269 1.924 . S
O258 Zn257 1.949 1_455 S
O258 Zn259 1.923 1_445 S
O258 Zn260 1.950 . S
O258 Zn261 1.945 1_545 S
Zn259 O258 1.923 1_665 S
Zn259 O262 1.933 . S
Zn259 O265 1.941 1_565 S
Zn259 O266 1.965 1_665 S
Zn260 O258 1.950 . S
Zn260 O267 1.938 . S
Zn260 O268 1.906 1_545 S
Zn260 O278 1.953 . S
Zn261 O258 1.945 1_565 S
Zn261 O263 1.932 1_455 S
Zn261 O270 1.977 . S
Zn261 O271 1.910 1_455 S
O262 Zn259 1.933 . S
O262 C273 1.226 . S
O263 Zn261 1.932 1_655 S
O263 C273 1.307 . S
O264 Zn257 1.919 . S
O264 C275 1.253 . S
O265 Zn259 1.941 1_545 S
O265 C275 1.283 . S
O266 Zn259 1.965 1_445 S
O266 C274 1.303 . S
O267 Zn260 1.938 . S
O267 C274 1.247 . S
O268 Zn260 1.906 1_565 S
O268 C276 1.304 . S
O269 Zn257 1.924 . S
O269 C277 1.311 1_545 S
O270 Zn261 1.977 . S
O270 C276 1.272 . S
O271 Zn261 1.910 1_655 S
O271 C277 1.231 . S
C272 O256 1.225 1_455 S
C272 O278 1.298 . S
C273 O262 1.226 . S
C273 O263 1.307 . S
C274 O266 1.303 . S
C274 O267 1.247 . S
C275 O264 1.253 . S
C275 O265 1.283 . S
C276 O268 1.304 . S
C276 O270 1.272 . S
C277 O269 1.311 1_565 S
C277 O271 1.231 . S
O278 Zn260 1.953 . S
O278 C272 1.298 . S
O279 Zn280 1.953 . S
O279 C295 1.225 1_556 S
Zn280 O279 1.953 . S
Zn280 O281 1.949 1_556 S
Zn280 O287 1.919 . S
Zn280 O292 1.924 1_556 S
O281 Zn280 1.949 1_554 S
O281 Zn282 1.923 1_545 S
O281 Zn283 1.950 . S
O281 Zn284 1.944 1_545 S
Zn282 O281 1.923 1_565 S
Zn282 O285 1.933 . S
Zn282 O288 1.941 1_554 S
Zn282 O289 1.965 . S
Zn283 O281 1.950 . S
Zn283 O290 1.938 . S
Zn283 O291 1.906 . S
Zn283 O301 1.953 . S
Zn284 O281 1.944 1_565 S
Zn284 O286 1.934 . S
Zn284 O293 1.976 1_565 S
Zn284 O294 1.909 1_565 S
O285 Zn282 1.933 . S
O285 C296 1.226 . S
O286 Zn284 1.934 . S
O286 C296 1.307 . S
O287 Zn280 1.919 . S
O287 C298 1.253 1_545 S
O288 Zn282 1.941 1_556 S
O288 C298 1.283 . S
O289 Zn282 1.965 . S
O289 C297 1.303 . S
O290 Zn283 1.938 . S
O290 C297 1.247 1_545 S
O291 Zn283 1.906 . S
O291 C299 1.304 . S
O292 Zn280 1.924 1_554 S
O292 C300 1.311 . S
O293 Zn284 1.976 1_545 S
O293 C299 1.272 . S
O294 Zn284 1.909 1_545 S
O294 C300 1.231 . S
C295 O279 1.225 1_554 S
C295 O301 1.298 . S
C296 O285 1.226 . S
C296 O286 1.307 . S
C297 O289 1.303 . S
C297 O290 1.247 1_565 S
C298 O287 1.253 1_565 S
C298 O288 1.283 . S
C299 O291 1.304 . S
C299 O293 1.272 . S
C300 O292 1.311 . S
C300 O294 1.231 . S
O301 Zn283 1.953 . S
O301 C295 1.298 . S
O302 Zn303 1.953 . S
O302 C318 1.225 . S
Zn303 O302 1.953 . S
Zn303 O304 1.949 . S
Zn303 O310 1.919 . S
Zn303 O315 1.924 . S
O304 Zn303 1.949 . S
O304 Zn305 1.923 . S
O304 Zn306 1.950 . S
O304 Zn307 1.945 . S
Zn305 O304 1.923 . S
Zn305 O308 1.933 . S
Zn305 O311 1.941 . S
Zn305 O312 1.965 . S
Zn306 O304 1.950 . S
Zn306 O313 1.938 . S
Zn306 O314 1.906 . S
Zn306 O324 1.953 . S
Zn307 O304 1.945 . S
Zn307 O309 1.932 . S
Zn307 O316 1.977 . S
Zn307 O317 1.910 . S
O308 Zn305 1.933 . S
O308 C319 1.226 . S
O309 Zn307 1.932 . S
O309 C319 1.307 . S
O310 Zn303 1.919 . S
O310 C321 1.253 . S
O311 Zn305 1.941 . S
O311 C321 1.283 . S
O312 Zn305 1.965 . S
O312 C320 1.303 . S
O313 Zn306 1.938 . S
O313 C320 1.247 . S
O314 Zn306 1.906 . S
O314 C322 1.304 . S
O315 Zn303 1.924 . S
O315 C323 1.311 . S
O316 Zn307 1.977 . S
O316 C322 1.272 . S
O317 Zn307 1.910 . S
O317 C323 1.231 . S
C318 O302 1.225 . S
C318 O324 1.298 . S
C319 O308 1.226 . S
C319 O309 1.307 . S
C320 O312 1.303 . S
C320 O313 1.247 . S
C321 O310 1.253 . S
C321 O311 1.283 . S
C322 O314 1.304 . S
C322 O316 1.272 . S
C323 O315 1.311 . S
C323 O317 1.231 . S
O324 Zn306 1.953 . S
O324 C318 1.298 . S
O325 Zn326 1.953 . S
O325 C341 1.225 . S
Zn326 O325 1.953 . S
Zn326 O327 1.949 1_655 S
Zn326 O333 1.919 . S
Zn326 O338 1.924 . S
O327 Zn326 1.949 1_455 S
O327 Zn328 1.923 1_454 S
O327 Zn329 1.950 . S
O327 Zn330 1.945 1_554 S
Zn328 O327 1.923 1_656 S
Zn328 O331 1.933 1_655 S
Zn328 O334 1.941 . S
Zn328 O335 1.965 . S
Zn329 O327 1.950 . S
Zn329 O336 1.938 . S
Zn329 O337 1.906 . S
Zn329 O347 1.953 . S
Zn330 O327 1.945 1_556 S
Zn330 O332 1.932 . S
Zn330 O339 1.977 1_556 S
Zn330 O340 1.910 1_556 S
O331 Zn328 1.933 1_455 S
O331 C342 1.226 . S
O332 Zn330 1.932 . S
O332 C342 1.307 . S
O333 Zn326 1.919 . S
O333 C344 1.253 1_554 S
O334 Zn328 1.941 . S
O334 C344 1.283 . S
O335 Zn328 1.965 . S
O335 C343 1.303 . S
O336 Zn329 1.938 . S
O336 C343 1.247 1_454 S
O337 Zn329 1.906 . S
O337 C345 1.304 . S
O338 Zn326 1.924 . S
O338 C346 1.311 1_655 S
O339 Zn330 1.977 1_554 S
O339 C345 1.272 . S
O340 Zn330 1.910 1_554 S
O340 C346 1.231 . S
C341 O325 1.225 . S
C341 O347 1.298 1_655 S
C342 O331 1.226 . S
C342 O332 1.307 . S
C343 O335 1.303 . S
C343 O336 1.247 1_656 S
C344 O333 1.253 1_556 S
C344 O334 1.283 . S
C345 O337 1.304 . S
C345 O339 1.272 . S
C346 O338 1.311 1_455 S
C346 O340 1.231 . S
O347 Zn329 1.953 . S
O347 C341 1.298 1_455 S
H348 C356 0.929 . S
H349 C358 0.930 . S
H350 C360 0.930 . S
H351 C363 0.929 . S
H352 C366 0.930 . S
H353 C368 0.960 . S
H354 C368 0.960 . S
H355 C368 0.960 . S
C356 H348 0.929 . S
C356 C357 1.377 . S
C356 C358 1.384 . S
C357 C356 1.377 . S
C357 C363 1.390 . S
C358 H349 0.930 . S
C358 C356 1.384 . S
C358 C359 1.372 . S
C359 C358 1.372 . S
C359 C360 1.400 . S
C359 C364 1.490 . S
C360 H350 0.930 . S
C360 C359 1.400 . S
C360 C363 1.386 . S
H361 C377 0.930 . S
H362 C378 0.931 . S
C363 H351 0.929 . S
C363 C357 1.390 . S
C363 C360 1.386 . S
C364 C359 1.490 . S
C364 C366 1.395 . S
C364 C367 1.403 . S
H365 C371 0.930 . S
C366 H352 0.930 . S
C366 C364 1.395 . S
C366 C369 1.403 . S
C367 C364 1.403 . S
C367 C368 1.524 . S
C367 C371 1.400 . S
C368 H353 0.960 . S
C368 H354 0.960 . S
C368 H355 0.960 . S
C368 C367 1.524 . S
C369 C366 1.403 . S
C369 C370 1.392 . S
C369 C373 1.495 . S
C370 C369 1.392 . S
C370 C371 1.385 . S
C370 C372 1.478 . S
C371 H365 0.930 . S
C371 C367 1.400 . S
C371 C370 1.385 . S
C372 C370 1.478 . S
C372 C374 1.381 . S
C372 C378 1.383 . S
C373 C369 1.495 . S
C373 H379 0.959 . S
C373 H380 0.961 . S
C373 H381 0.960 . S
C374 C372 1.381 . S
C374 C375 1.394 . S
C374 H382 0.930 . S
C375 C374 1.394 . S
C375 C376 1.383 . S
C375 H383 0.929 . S
C376 C375 1.383 . S
C376 C377 1.377 . S
C377 H361 0.930 . S
C377 C376 1.377 . S
C377 C378 1.379 . S
C378 H362 0.931 . S
C378 C372 1.383 . S
C378 C377 1.379 . S
H379 C373 0.959 . S
H380 C373 0.961 . S
H381 C373 0.960 . S
H382 C374 0.930 . S
H383 C375 0.929 . S
H384 C392 0.929 . S
H385 C394 0.930 . S
H386 C396 0.930 . S
H387 C399 0.929 . S
H388 C402 0.930 . S
H389 C404 0.960 . S
H390 C404 0.960 . S
H391 C404 0.960 . S
C392 H384 0.929 . S
C392 C393 1.377 . S
C392 C394 1.384 . S
C393 C392 1.377 . S
C393 C399 1.390 . S
C394 H385 0.930 . S
C394 C392 1.384 . S
C394 C395 1.372 . S
C395 C394 1.372 . S
C395 C396 1.400 . S
C395 C400 1.490 . S
C396 H386 0.930 . S
C396 C395 1.400 . S
C396 C399 1.386 . S
H397 C413 0.930 . S
H398 C414 0.931 . S
C399 H387 0.929 . S
C399 C393 1.390 . S
C399 C396 1.386 . S
C400 C395 1.490 . S
C400 C402 1.395 . S
C400 C403 1.403 . S
H401 C407 0.930 . S
C402 H388 0.930 . S
C402 C400 1.395 . S
C402 C405 1.403 . S
C403 C400 1.403 . S
C403 C404 1.524 . S
C403 C407 1.400 . S
C404 H389 0.960 . S
C404 H390 0.960 . S
C404 H391 0.960 . S
C404 C403 1.524 . S
C405 C402 1.403 . S
C405 C406 1.392 . S
C405 C409 1.495 . S
C406 C405 1.392 . S
C406 C407 1.385 . S
C406 C408 1.478 . S
C407 H401 0.930 . S
C407 C403 1.400 . S
C407 C406 1.385 . S
C408 C406 1.478 . S
C408 C410 1.381 . S
C408 C414 1.383 . S
C409 C405 1.495 . S
C409 H415 0.959 . S
C409 H416 0.961 . S
C409 H417 0.960 . S
C410 C408 1.381 . S
C410 C411 1.394 . S
C410 H418 0.930 . S
C411 C410 1.394 . S
C411 C412 1.383 . S
C411 H419 0.929 1_565 S
C412 C411 1.383 . S
C412 C413 1.377 . S
C413 H397 0.930 . S
C413 C412 1.377 . S
C413 C414 1.379 . S
C414 H398 0.931 . S
C414 C408 1.383 . S
C414 C413 1.379 . S
H415 C409 0.959 . S
H416 C409 0.961 . S
H417 C409 0.960 . S
H418 C410 0.930 . S
H419 C411 0.929 1_545 S
H420 C428 0.929 . S
H421 C430 0.930 . S
H422 C432 0.930 . S
H423 C435 0.929 . S
H424 C438 0.930 . S
H425 C440 0.960 . S
H426 C440 0.960 . S
H427 C440 0.960 . S
C428 H420 0.929 . S
C428 C429 1.377 . S
C428 C430 1.384 . S
C429 C428 1.377 . S
C429 C435 1.390 . S
C430 H421 0.930 . S
C430 C428 1.384 . S
C430 C431 1.372 . S
C431 C430 1.372 . S
C431 C432 1.400 . S
C431 C436 1.490 . S
C432 H422 0.930 . S
C432 C431 1.400 . S
C432 C435 1.386 . S
H433 C449 0.930 . S
H434 C450 0.931 . S
C435 H423 0.929 . S
C435 C429 1.390 . S
C435 C432 1.386 . S
C436 C431 1.490 . S
C436 C438 1.395 . S
C436 C439 1.403 . S
H437 C443 0.930 . S
C438 H424 0.930 . S
C438 C436 1.395 . S
C438 C441 1.403 . S
C439 C436 1.403 . S
C439 C440 1.524 . S
C439 C443 1.400 . S
C440 H425 0.960 . S
C440 H426 0.960 . S
C440 H427 0.960 . S
C440 C439 1.524 . S
C441 C438 1.403 . S
C441 C442 1.392 . S
C441 C445 1.495 . S
C442 C441 1.392 . S
C442 C443 1.385 . S
C442 C444 1.478 . S
C443 H437 0.930 . S
C443 C439 1.400 . S
C443 C442 1.385 . S
C444 C442 1.478 . S
C444 C446 1.381 . S
C444 C450 1.383 . S
C445 C441 1.495 . S
C445 H451 0.959 . S
C445 H452 0.961 . S
C445 H453 0.960 . S
C446 C444 1.381 . S
C446 C447 1.394 . S
C446 H454 0.930 . S
C447 C446 1.394 . S
C447 C448 1.383 . S
C447 H455 0.929 . S
C448 C447 1.383 . S
C448 C449 1.377 . S
C449 H433 0.930 . S
C449 C448 1.377 . S
C449 C450 1.379 . S
C450 H434 0.931 . S
C450 C444 1.383 . S
C450 C449 1.379 . S
H451 C445 0.959 . S
H452 C445 0.961 . S
H453 C445 0.960 . S
H454 C446 0.930 . S
H455 C447 0.929 . S
H456 C464 0.929 . S
H457 C466 0.930 . S
H458 C468 0.930 . S
H459 C471 0.929 . S
H460 C474 0.930 . S
H461 C476 0.960 . S
H462 C476 0.960 . S
H463 C476 0.960 . S
C464 H456 0.929 . S
C464 C465 1.377 . S
C464 C466 1.384 . S
C465 C464 1.377 . S
C465 C471 1.390 . S
C466 H457 0.930 . S
C466 C464 1.384 . S
C466 C467 1.372 . S
C467 C466 1.372 . S
C467 C468 1.400 . S
C467 C472 1.490 . S
C468 H458 0.930 . S
C468 C467 1.400 . S
C468 C471 1.386 . S
H469 C485 0.930 1_455 S
H470 C486 0.931 . S
C471 H459 0.929 . S
C471 C465 1.390 . S
C471 C468 1.386 . S
C472 C467 1.490 . S
C472 C474 1.395 . S
C472 C475 1.403 . S
H473 C479 0.930 . S
C474 H460 0.930 . S
C474 C472 1.395 . S
C474 C477 1.403 . S
C475 C472 1.403 . S
C475 C476 1.524 . S
C475 C479 1.400 . S
C476 H461 0.960 . S
C476 H462 0.960 . S
C476 H463 0.960 . S
C476 C475 1.524 . S
C477 C474 1.403 . S
C477 C478 1.392 . S
C477 C481 1.495 . S
C478 C477 1.392 . S
C478 C479 1.385 . S
C478 C480 1.478 . S
C479 H473 0.930 . S
C479 C475 1.400 . S
C479 C478 1.385 . S
C480 C478 1.478 . S
C480 C482 1.381 . S
C480 C486 1.383 . S
C481 C477 1.495 . S
C481 H487 0.959 . S
C481 H488 0.961 . S
C481 H489 0.960 . S
C482 C480 1.381 . S
C482 C483 1.394 . S
C482 H490 0.930 . S
C483 C482 1.394 . S
C483 C484 1.383 . S
C483 H491 0.929 . S
C484 C483 1.383 . S
C484 C485 1.377 . S
C485 H469 0.930 1_655 S
C485 C484 1.377 . S
C485 C486 1.379 . S
C486 H470 0.931 . S
C486 C480 1.383 . S
C486 C485 1.379 . S
H487 C481 0.959 . S
H488 C481 0.961 . S
H489 C481 0.960 . S
H490 C482 0.930 . S
H491 C483 0.929 . S
H492 C500 0.929 . S
H493 C502 0.930 . S
H494 C504 0.930 . S
H495 C507 0.929 . S
H496 C510 0.930 . S
H497 C512 0.960 . S
H498 C512 0.960 . S
H499 C512 0.960 . S
C500 H492 0.929 . S
C500 C501 1.377 . S
C500 C502 1.384 . S
C501 C500 1.377 . S
C501 C507 1.390 . S
C502 H493 0.930 . S
C502 C500 1.384 . S
C502 C503 1.372 . S
C503 C502 1.372 . S
C503 C504 1.400 . S
C503 C508 1.490 . S
C504 H494 0.930 . S
C504 C503 1.400 . S
C504 C507 1.386 . S
H505 C521 0.930 . S
H506 C522 0.931 . S
C507 H495 0.929 . S
C507 C501 1.390 . S
C507 C504 1.386 . S
C508 C503 1.490 . S
C508 C510 1.395 . S
C508 C511 1.403 . S
H509 C515 0.930 . S
C510 H496 0.930 . S
C510 C508 1.395 . S
C510 C513 1.403 . S
C511 C508 1.403 . S
C511 C512 1.524 . S
C511 C515 1.400 . S
C512 H497 0.960 . S
C512 H498 0.960 . S
C512 H499 0.960 . S
C512 C511 1.524 . S
C513 C510 1.403 . S
C513 C514 1.392 . S
C513 C517 1.495 . S
C514 C513 1.392 . S
C514 C515 1.385 . S
C514 C516 1.478 . S
C515 H509 0.930 . S
C515 C511 1.400 . S
C515 C514 1.385 . S
C516 C514 1.478 . S
C516 C518 1.381 . S
C516 C522 1.383 . S
C517 C513 1.495 . S
C517 H523 0.959 . S
C517 H524 0.961 . S
C517 H525 0.960 . S
C518 C516 1.381 . S
C518 C519 1.394 . S
C518 H526 0.930 . S
C519 C518 1.394 . S
C519 C520 1.383 . S
C519 H527 0.929 . S
C520 C519 1.383 . S
C520 C521 1.377 . S
C521 H505 0.930 . S
C521 C520 1.377 . S
C521 C522 1.379 . S
C522 H506 0.931 . S
C522 C516 1.383 . S
C522 C521 1.379 . S
H523 C517 0.959 . S
H524 C517 0.961 . S
H525 C517 0.960 . S
H526 C518 0.930 . S
H527 C519 0.929 . S
H528 C536 0.929 . S
H529 C538 0.930 . S
H530 C540 0.930 . S
H531 C543 0.929 . S
H532 C546 0.930 . S
H533 C548 0.960 . S
H534 C548 0.960 . S
H535 C548 0.960 . S
C536 H528 0.929 . S
C536 C537 1.377 . S
C536 C538 1.384 . S
C537 C536 1.377 . S
C537 C543 1.390 . S
C538 H529 0.930 . S
C538 C536 1.384 . S
C538 C539 1.372 . S
C539 C538 1.372 . S
C539 C540 1.400 . S
C539 C544 1.490 . S
C540 H530 0.930 . S
C540 C539 1.400 . S
C540 C543 1.386 . S
H541 C557 0.930 . S
H542 C558 0.931 . S
C543 H531 0.929 . S
C543 C537 1.390 . S
C543 C540 1.386 . S
C544 C539 1.490 . S
C544 C546 1.395 . S
C544 C547 1.403 . S
H545 C551 0.930 . S
C546 H532 0.930 . S
C546 C544 1.395 . S
C546 C549 1.403 . S
C547 C544 1.403 . S
C547 C548 1.524 . S
C547 C551 1.400 . S
C548 H533 0.960 . S
C548 H534 0.960 . S
C548 H535 0.960 . S
C548 C547 1.524 . S
C549 C546 1.403 . S
C549 C550 1.392 . S
C549 C553 1.495 . S
C550 C549 1.392 . S
C550 C551 1.385 . S
C550 C552 1.478 . S
C551 H545 0.930 . S
C551 C547 1.400 . S
C551 C550 1.385 . S
C552 C550 1.478 . S
C552 C554 1.381 . S
C552 C558 1.383 . S
C553 C549 1.495 . S
C553 H559 0.959 . S
C553 H560 0.961 . S
C553 H561 0.960 . S
C554 C552 1.381 . S
C554 C555 1.394 . S
C554 H562 0.930 . S
C555 C554 1.394 . S
C555 C556 1.383 . S
C555 H563 0.929 . S
C556 C555 1.383 . S
C556 C557 1.377 . S
C557 H541 0.930 . S
C557 C556 1.377 . S
C557 C558 1.379 . S
C558 H542 0.931 . S
C558 C552 1.383 . S
C558 C557 1.379 . S
H559 C553 0.959 . S
H560 C553 0.961 . S
H561 C553 0.960 . S
H562 C554 0.930 . S
H563 C555 0.929 . S
H564 C572 0.929 . S
H565 C574 0.930 . S
H566 C576 0.930 . S
H567 C579 0.929 . S
H568 C582 0.930 . S
H569 C584 0.960 . S
H570 C584 0.960 . S
H571 C584 0.960 . S
C572 H564 0.929 . S
C572 C573 1.377 . S
C572 C574 1.384 . S
C573 C572 1.377 . S
C573 C579 1.390 . S
C574 H565 0.930 . S
C574 C572 1.384 . S
C574 C575 1.372 . S
C575 C574 1.372 . S
C575 C576 1.400 . S
C575 C580 1.490 . S
C576 H566 0.930 . S
C576 C575 1.400 . S
C576 C579 1.386 . S
H577 C593 0.930 . S
H578 C594 0.931 . S
C579 H567 0.929 . S
C579 C573 1.390 . S
C579 C576 1.386 . S
C580 C575 1.490 . S
C580 C582 1.395 . S
C580 C583 1.403 . S
H581 C587 0.930 . S
C582 H568 0.930 . S
C582 C580 1.395 . S
C582 C585 1.403 . S
C583 C580 1.403 . S
C583 C584 1.524 . S
C583 C587 1.400 . S
C584 H569 0.960 . S
C584 H570 0.960 . S
C584 H571 0.960 . S
C584 C583 1.524 . S
C585 C582 1.403 . S
C585 C586 1.392 . S
C585 C589 1.495 . S
C586 C585 1.392 . S
C586 C587 1.385 . S
C586 C588 1.478 . S
C587 H581 0.930 . S
C587 C583 1.400 . S
C587 C586 1.385 . S
C588 C586 1.478 . S
C588 C590 1.381 . S
C588 C594 1.383 . S
C589 C585 1.495 . S
C589 H595 0.959 . S
C589 H596 0.961 . S
C589 H597 0.960 . S
C590 C588 1.381 . S
C590 C591 1.394 . S
C590 H598 0.930 . S
C591 C590 1.394 . S
C591 C592 1.383 . S
C591 H599 0.929 . S
C592 C591 1.383 . S
C592 C593 1.377 . S
C593 H577 0.930 . S
C593 C592 1.377 . S
C593 C594 1.379 . S
C594 H578 0.931 . S
C594 C588 1.383 . S
C594 C593 1.379 . S
H595 C589 0.959 . S
H596 C589 0.961 . S
H597 C589 0.960 . S
H598 C590 0.930 . S
H599 C591 0.929 . S
H600 C608 0.929 . S
H601 C610 0.930 . S
H602 C612 0.930 . S
H603 C615 0.929 . S
H604 C618 0.930 . S
H605 C620 0.960 . S
H606 C620 0.960 . S
H607 C620 0.960 . S
C608 H600 0.929 . S
C608 C609 1.377 . S
C608 C610 1.384 . S
C609 C608 1.377 . S
C609 C615 1.390 . S
C610 H601 0.930 . S
C610 C608 1.384 . S
C610 C611 1.372 . S
C611 C610 1.372 . S
C611 C612 1.400 . S
C611 C616 1.490 . S
C612 H602 0.930 . S
C612 C611 1.400 . S
C612 C615 1.386 . S
H613 C629 0.930 . S
H614 C630 0.931 . S
C615 H603 0.929 . S
C615 C609 1.390 . S
C615 C612 1.386 . S
C616 C611 1.490 . S
C616 C618 1.395 . S
C616 C619 1.403 . S
H617 C623 0.930 . S
C618 H604 0.930 . S
C618 C616 1.395 . S
C618 C621 1.403 . S
C619 C616 1.403 . S
C619 C620 1.524 . S
C619 C623 1.400 . S
C620 H605 0.960 . S
C620 H606 0.960 . S
C620 H607 0.960 . S
C620 C619 1.524 . S
C621 C618 1.403 . S
C621 C622 1.392 . S
C621 C625 1.495 . S
C622 C621 1.392 . S
C622 C623 1.385 . S
C622 C624 1.478 . S
C623 H617 0.930 . S
C623 C619 1.400 . S
C623 C622 1.385 . S
C624 C622 1.478 . S
C624 C626 1.381 . S
C624 C630 1.383 . S
C625 C621 1.495 . S
C625 H631 0.959 . S
C625 H632 0.961 . S
C625 H633 0.960 . S
C626 C624 1.381 . S
C626 C627 1.394 . S
C626 H634 0.930 . S
C627 C626 1.394 . S
C627 C628 1.383 . S
C627 H635 0.929 . S
C628 C627 1.383 . S
C628 C629 1.377 . S
C629 H613 0.930 . S
C629 C628 1.377 . S
C629 C630 1.379 . S
C630 H614 0.931 . S
C630 C624 1.383 . S
C630 C629 1.379 . S
H631 C625 0.959 . S
H632 C625 0.961 . S
H633 C625 0.960 . S
H634 C626 0.930 . S
H635 C627 0.929 . S
H636 C644 0.929 . S
H637 C646 0.930 . S
H638 C648 0.930 . S
H639 C651 0.929 . S
H640 C654 0.930 . S
H641 C656 0.960 . S
H642 C656 0.960 . S
H643 C656 0.960 . S
C644 H636 0.929 . S
C644 C645 1.377 . S
C644 C646 1.384 . S
C645 C644 1.377 . S
C645 C651 1.390 . S
C646 H637 0.930 . S
C646 C644 1.384 . S
C646 C647 1.372 . S
C647 C646 1.372 . S
C647 C648 1.400 . S
C647 C652 1.490 . S
C648 H638 0.930 . S
C648 C647 1.400 . S
C648 C651 1.386 . S
H649 C665 0.930 . S
H650 C666 0.931 . S
C651 H639 0.929 . S
C651 C645 1.390 . S
C651 C648 1.386 . S
C652 C647 1.490 . S
C652 C654 1.395 . S
C652 C655 1.403 . S
H653 C659 0.930 . S
C654 H640 0.930 . S
C654 C652 1.395 . S
C654 C657 1.403 . S
C655 C652 1.403 . S
C655 C656 1.524 . S
C655 C659 1.400 . S
C656 H641 0.960 . S
C656 H642 0.960 . S
C656 H643 0.960 . S
C656 C655 1.524 . S
C657 C654 1.403 . S
C657 C658 1.392 . S
C657 C661 1.495 . S
C658 C657 1.392 . S
C658 C659 1.385 . S
C658 C660 1.478 . S
C659 H653 0.930 . S
C659 C655 1.400 . S
C659 C658 1.385 . S
C660 C658 1.478 . S
C660 C662 1.381 . S
C660 C666 1.383 . S
C661 C657 1.495 . S
C661 H667 0.959 . S
C661 H668 0.961 . S
C661 H669 0.960 . S
C662 C660 1.381 . S
C662 C663 1.394 . S
C662 H670 0.930 . S
C663 C662 1.394 . S
C663 C664 1.383 . S
C663 H671 0.952 . S
C664 C663 1.383 . S
C664 C665 1.377 . S
C665 H649 0.930 . S
C665 C664 1.377 . S
C665 C666 1.379 . S
C666 H650 0.931 . S
C666 C660 1.383 . S
C666 C665 1.379 . S
H667 C661 0.959 . S
H668 C661 0.961 . S
H669 C661 0.960 . S
H670 C662 0.930 . S
H671 C663 0.952 . S
H672 C680 0.929 . S
H673 C682 0.930 . S
H674 C684 0.930 . S
H675 C687 0.929 . S
H676 C690 0.930 . S
H677 C692 0.960 . S
H678 C692 0.960 . S
H679 C692 0.960 . S
C680 H672 0.929 . S
C680 C681 1.377 . S
C680 C682 1.384 . S
C681 C680 1.377 . S
C681 C687 1.390 . S
C682 H673 0.930 . S
C682 C680 1.384 . S
C682 C683 1.372 . S
C683 C682 1.372 . S
C683 C684 1.400 . S
C683 C688 1.490 . S
C684 H674 0.930 . S
C684 C683 1.400 . S
C684 C687 1.386 . S
H685 C701 0.930 . S
H686 C702 0.931 . S
C687 H675 0.929 . S
C687 C681 1.390 . S
C687 C684 1.386 . S
C688 C683 1.490 . S
C688 C690 1.395 . S
C688 C691 1.403 . S
H689 C695 0.930 . S
C690 H676 0.930 . S
C690 C688 1.395 . S
C690 C693 1.403 . S
C691 C688 1.403 . S
C691 C692 1.524 . S
C691 C695 1.400 . S
C692 H677 0.960 . S
C692 H678 0.960 . S
C692 H679 0.960 . S
C692 C691 1.524 . S
C693 C690 1.403 . S
C693 C694 1.392 . S
C693 C697 1.495 . S
C694 C693 1.392 . S
C694 C695 1.385 . S
C694 C696 1.478 . S
C695 H689 0.930 . S
C695 C691 1.400 . S
C695 C694 1.385 . S
C696 C694 1.478 . S
C696 C698 1.381 1_556 S
C696 C702 1.383 . S
C697 C693 1.495 . S
C697 H703 0.959 . S
C697 H704 0.961 . S
C697 H705 0.960 1_556 S
C698 C696 1.381 1_554 S
C698 C699 1.394 . S
C698 H706 0.930 . S
C699 C698 1.394 . S
C699 C700 1.383 1_554 S
C699 H707 0.929 . S
C700 C699 1.383 1_556 S
C700 C701 1.377 . S
C701 H685 0.930 . S
C701 C700 1.377 . S
C701 C702 1.379 . S
C702 H686 0.931 . S
C702 C696 1.383 . S
C702 C701 1.379 . S
H703 C697 0.959 . S
H704 C697 0.961 . S
H705 C697 0.960 1_554 S
H706 C698 0.930 . S
H707 C699 0.929 . S
H708 C716 0.929 . S
H709 C718 0.930 . S
H710 C720 0.930 . S
H711 C723 0.929 . S
H712 C726 0.930 . S
H713 C728 0.960 . S
H714 C728 0.960 . S
H715 C728 0.960 . S
C716 H708 0.929 . S
C716 C717 1.377 . S
C716 C718 1.384 . S
C717 C716 1.377 . S
C717 C723 1.390 . S
C718 H709 0.930 . S
C718 C716 1.384 . S
C718 C719 1.372 . S
C719 C718 1.372 . S
C719 C720 1.400 . S
C719 C724 1.490 . S
C720 H710 0.930 . S
C720 C719 1.400 . S
C720 C723 1.386 . S
H721 C737 0.930 1_455 S
H722 C738 0.931 . S
C723 H711 0.929 . S
C723 C717 1.390 . S
C723 C720 1.386 . S
C724 C719 1.490 . S
C724 C726 1.395 . S
C724 C727 1.403 . S
H725 C731 0.930 . S
C726 H712 0.930 . S
C726 C724 1.395 . S
C726 C729 1.403 . S
C727 C724 1.403 . S
C727 C728 1.524 . S
C727 C731 1.400 . S
C728 H713 0.960 . S
C728 H714 0.960 . S
C728 H715 0.960 . S
C728 C727 1.524 . S
C729 C726 1.403 . S
C729 C730 1.392 . S
C729 C733 1.495 . S
C730 C729 1.392 . S
C730 C731 1.385 . S
C730 C732 1.478 . S
C731 H725 0.930 . S
C731 C727 1.400 . S
C731 C730 1.385 . S
C732 C730 1.478 . S
C732 C734 1.381 . S
C732 C738 1.383 . S
C733 C729 1.495 . S
C733 H739 0.959 . S
C733 H740 0.961 . S
C733 H741 0.960 . S
C734 C732 1.381 . S
C734 C735 1.394 . S
C734 H742 0.930 . S
C735 C734 1.394 . S
C735 C736 1.383 . S
C735 H743 0.929 . S
C736 C735 1.383 . S
C736 C737 1.377 . S
C737 H721 0.930 1_655 S
C737 C736 1.377 . S
C737 C738 1.379 . S
C738 H722 0.931 . S
C738 C732 1.383 . S
C738 C737 1.379 . S
H739 C733 0.959 . S
H740 C733 0.961 . S
H741 C733 0.960 . S
H742 C734 0.930 . S
H743 C735 0.929 . S
H744 C752 0.929 . S
H745 C754 0.930 . S
H746 C756 0.930 . S
H747 C759 0.929 . S
H748 C762 0.930 . S
H749 C764 0.960 . S
H750 C764 0.960 . S
H751 C764 0.960 . S
C752 H744 0.929 . S
C752 C753 1.377 . S
C752 C754 1.384 . S
C753 C752 1.377 . S
C753 C759 1.390 . S
C754 H745 0.930 . S
C754 C752 1.384 . S
C754 C755 1.372 . S
C755 C754 1.372 . S
C755 C756 1.400 . S
C755 C760 1.490 . S
C756 H746 0.930 . S
C756 C755 1.400 . S
C756 C759 1.386 . S
H757 C773 0.930 . S
H758 C774 0.931 . S
C759 H747 0.929 . S
C759 C753 1.390 . S
C759 C756 1.386 . S
C760 C755 1.490 . S
C760 C762 1.395 . S
C760 C763 1.403 . S
H761 C767 0.930 . S
C762 H748 0.930 . S
C762 C760 1.395 . S
C762 C765 1.403 . S
C763 C760 1.403 . S
C763 C764 1.524 . S
C763 C767 1.400 . S
C764 H749 0.960 . S
C764 H750 0.960 . S
C764 H751 0.960 . S
C764 C763 1.524 . S
C765 C762 1.403 . S
C765 C766 1.392 . S
C765 C769 1.495 . S
C766 C765 1.392 . S
C766 C767 1.385 . S
C766 C768 1.478 . S
C767 H761 0.930 . S
C767 C763 1.400 . S
C767 C766 1.385 . S
C768 C766 1.478 . S
C768 C770 1.381 . S
C768 C774 1.383 . S
C769 C765 1.495 . S
C769 H775 0.959 . S
C769 H776 0.961 . S
C769 H777 0.960 . S
C770 C768 1.381 . S
C770 C771 1.394 . S
C770 H778 0.930 . S
C771 C770 1.394 . S
C771 C772 1.383 . S
C771 H779 0.929 . S
C772 C771 1.383 . S
C772 C773 1.377 . S
C773 H757 0.930 . S
C773 C772 1.377 . S
C773 C774 1.379 . S
C774 H758 0.931 . S
C774 C768 1.383 . S
C774 C773 1.379 . S
H775 C769 0.959 . S
H776 C769 0.961 . S
H777 C769 0.960 . S
H778 C770 0.930 . S
H779 C771 0.929 . S
H780 C788 0.929 . S
H781 C790 0.930 . S
H782 C792 0.930 . S
H783 C795 0.929 . S
H784 C798 0.922 1_545 S
H785 C800 0.960 1_455 S
H786 C800 0.960 . S
H787 C800 0.973 . S
C788 H780 0.929 . S
C788 C789 1.377 . S
C788 C790 1.384 . S
C789 C788 1.377 . S
C789 C795 1.390 . S
C790 H781 0.930 . S
C790 C788 1.384 . S
C790 C791 1.372 . S
C791 C790 1.372 . S
C791 C792 1.400 . S
C791 C796 1.490 . S
C792 H782 0.930 . S
C792 C791 1.400 . S
C792 C795 1.386 . S
H793 C809 0.930 1_455 S
H794 C810 0.928 1_455 S
C795 H783 0.929 . S
C795 C789 1.390 . S
C795 C792 1.386 . S
C796 C791 1.490 . S
C796 C798 1.395 . S
C796 C799 1.403 . S
H797 C803 0.930 . S
C798 H784 0.922 1_565 S
C798 C796 1.395 . S
C798 C801 1.403 . S
C799 C796 1.403 . S
C799 C800 1.524 . S
C799 C803 1.400 . S
C800 H785 0.960 1_655 S
C800 H786 0.960 . S
C800 H787 0.973 . S
C800 C799 1.524 . S
C801 C798 1.403 . S
C801 C802 1.392 . S
C801 C805 1.495 1_565 S
C802 C801 1.392 . S
C802 C803 1.385 . S
C802 C804 1.478 . S
C803 H797 0.930 . S
C803 C799 1.400 . S
C803 C802 1.385 . S
C804 C802 1.478 . S
C804 C806 1.381 . S
C804 C810 1.383 1_565 S
C805 C801 1.495 1_545 S
C805 H811 0.959 . S
C805 H812 0.961 . S
C805 H813 0.960 . S
C806 C804 1.381 . S
C806 C807 1.394 . S
C806 H814 0.930 . S
C807 C806 1.394 . S
C807 C808 1.383 . S
C807 H815 0.929 . S
C808 C807 1.383 . S
C808 C809 1.377 1_565 S
C809 H793 0.930 1_655 S
C809 C808 1.377 1_545 S
C809 C810 1.379 . S
C810 H794 0.928 1_655 S
C810 C804 1.383 1_545 S
C810 C809 1.379 . S
H811 C805 0.959 . S
H812 C805 0.961 . S
H813 C805 0.960 . S
H814 C806 0.930 . S
H815 C807 0.929 . S
H816 C824 0.929 . S
H817 C826 0.930 . S
H818 C828 0.930 . S
H819 C831 0.929 . S
H820 C834 0.930 . S
H821 C836 0.960 . S
H822 C836 0.960 . S
H823 C836 0.960 . S
C824 H816 0.929 . S
C824 C825 1.377 . S
C824 C826 1.384 . S
C825 C824 1.377 . S
C825 C831 1.390 . S
C826 H817 0.930 . S
C826 C824 1.384 . S
C826 C827 1.372 . S
C827 C826 1.372 . S
C827 C828 1.400 . S
C827 C832 1.490 . S
C828 H818 0.930 . S
C828 C827 1.400 . S
C828 C831 1.386 . S
H829 C845 0.930 . S
H830 C846 0.931 . S
C831 H819 0.929 . S
C831 C825 1.390 . S
C831 C828 1.386 . S
C832 C827 1.490 . S
C832 C834 1.395 . S
C832 C835 1.403 . S
H833 C839 0.930 . S
C834 H820 0.930 . S
C834 C832 1.395 . S
C834 C837 1.403 . S
C835 C832 1.403 . S
C835 C836 1.524 . S
C835 C839 1.400 . S
C836 H821 0.960 . S
C836 H822 0.960 . S
C836 H823 0.960 . S
C836 C835 1.524 . S
C837 C834 1.403 . S
C837 C838 1.392 . S
C837 C841 1.495 . S
C838 C837 1.392 . S
C838 C839 1.385 . S
C838 C840 1.478 . S
C839 H833 0.930 . S
C839 C835 1.400 . S
C839 C838 1.385 . S
C840 C838 1.478 . S
C840 C842 1.381 . S
C840 C846 1.383 . S
C841 C837 1.495 . S
C841 H847 0.959 . S
C841 H848 0.961 . S
C841 H849 0.960 . S
C842 C840 1.381 . S
C842 C843 1.394 1_545 S
C842 H850 0.930 1_545 S
C843 C842 1.394 1_565 S
C843 C844 1.383 1_565 S
C843 H851 0.929 . S
C844 C843 1.383 1_545 S
C844 C845 1.377 . S
C845 H829 0.930 . S
C845 C844 1.377 . S
C845 C846 1.379 . S
C846 H830 0.931 . S
C846 C840 1.383 . S
C846 C845 1.379 . S
H847 C841 0.959 . S
H848 C841 0.961 . S
H849 C841 0.960 . S
H850 C842 0.930 1_565 S
H851 C843 0.929 . S
H852 C860 0.929 . S
H853 C862 0.930 . S
H854 C864 0.930 . S
H855 C867 0.929 . S
H856 C870 0.930 . S
H857 C872 0.960 . S
H858 C872 0.960 . S
H859 C872 0.960 . S
C860 H852 0.929 . S
C860 C861 1.377 . S
C860 C862 1.384 . S
C861 C860 1.377 . S
C861 C867 1.390 . S
C862 H853 0.930 . S
C862 C860 1.384 . S
C862 C863 1.372 . S
C863 C862 1.372 . S
C863 C864 1.400 . S
C863 C868 1.490 . S
C864 H854 0.930 . S
C864 C863 1.400 . S
C864 C867 1.386 . S
H865 C881 0.930 . S
H866 C882 0.931 . S
C867 H855 0.929 . S
C867 C861 1.390 . S
C867 C864 1.386 . S
C868 C863 1.490 . S
C868 C870 1.395 . S
C868 C871 1.403 . S
H869 C875 0.930 . S
C870 H856 0.930 . S
C870 C868 1.395 . S
C870 C873 1.403 . S
C871 C868 1.403 . S
C871 C872 1.524 . S
C871 C875 1.400 . S
C872 H857 0.960 . S
C872 H858 0.960 . S
C872 H859 0.960 . S
C872 C871 1.524 . S
C873 C870 1.403 . S
C873 C874 1.392 . S
C873 C877 1.495 . S
C874 C873 1.392 . S
C874 C875 1.385 . S
C874 C876 1.478 . S
C875 H869 0.930 . S
C875 C871 1.400 . S
C875 C874 1.385 . S
C876 C874 1.478 . S
C876 C878 1.381 . S
C876 C882 1.383 . S
C877 C873 1.495 . S
C877 H883 0.959 . S
C877 H884 0.961 . S
C877 H885 0.960 . S
C878 C876 1.381 . S
C878 C879 1.394 . S
C878 H886 0.930 . S
C879 C878 1.394 . S
C879 C880 1.383 . S
C879 H887 0.929 . S
C880 C879 1.383 . S
C880 C881 1.377 . S
C881 H865 0.930 . S
C881 C880 1.377 . S
C881 C882 1.379 . S
C882 H866 0.931 . S
C882 C876 1.383 . S
C882 C881 1.379 . S
H883 C877 0.959 . S
H884 C877 0.961 . S
H885 C877 0.960 . S
H886 C878 0.930 . S
H887 C879 0.929 . S
H888 C896 0.929 . S
H889 C898 0.930 . S
H890 C900 0.930 . S
H891 C903 0.929 . S
H892 C906 0.930 . S
H893 C908 0.960 . S
H894 C908 0.960 . S
H895 C908 0.960 . S
C896 H888 0.929 . S
C896 C897 1.377 . S
C896 C898 1.384 . S
C897 C896 1.377 . S
C897 C903 1.390 . S
C898 H889 0.930 . S
C898 C896 1.384 . S
C898 C899 1.372 . S
C899 C898 1.372 . S
C899 C900 1.400 . S
C899 C904 1.490 . S
C900 H890 0.930 . S
C900 C899 1.400 . S
C900 C903 1.386 . S
H901 C917 0.930 . S
H902 C918 0.931 . S
C903 H891 0.929 . S
C903 C897 1.390 . S
C903 C900 1.386 . S
C904 C899 1.490 . S
C904 C906 1.395 . S
C904 C907 1.403 . S
H905 C911 0.930 . S
C906 H892 0.930 . S
C906 C904 1.395 . S
C906 C909 1.403 . S
C907 C904 1.403 . S
C907 C908 1.524 . S
C907 C911 1.400 . S
C908 H893 0.960 . S
C908 H894 0.960 . S
C908 H895 0.960 . S
C908 C907 1.524 . S
C909 C906 1.403 . S
C909 C910 1.392 . S
C909 C913 1.460 1_455 S
C910 C909 1.392 . S
C910 C911 1.385 . S
C910 C912 1.478 . S
C911 H905 0.930 . S
C911 C907 1.400 . S
C911 C910 1.385 . S
C912 C910 1.478 . S
C912 C914 1.381 . S
C912 C918 1.383 . S
C913 C909 1.460 1_655 S
C913 H919 0.980 . S
C913 H920 0.977 . S
C913 H921 0.961 . S
C914 C912 1.381 . S
C914 C915 1.394 . S
C914 H922 0.930 . S
C915 C914 1.394 . S
C915 C916 1.383 . S
C915 H923 0.929 . S
C916 C915 1.383 . S
C916 C917 1.377 . S
C917 H901 0.930 . S
C917 C916 1.377 . S
C917 C918 1.379 . S
C918 H902 0.931 . S
C918 C912 1.383 . S
C918 C917 1.379 . S
H919 C913 0.980 . S
H920 C913 0.977 . S
H921 C913 0.961 . S
H922 C914 0.930 . S
H923 C915 0.929 . S
H924 C932 0.943 . S
H925 C934 0.930 1_545 S
H926 C936 0.930 . S
H927 C939 0.929 . S
H928 C942 0.930 . S
H929 C944 0.960 . S
H930 C944 0.960 . S
H931 C944 0.960 . S
C932 H924 0.943 . S
C932 C933 1.377 . S
C932 C934 1.384 . S
C933 C932 1.377 . S
C933 C939 1.390 . S
C934 H925 0.930 1_565 S
C934 C932 1.384 . S
C934 C935 1.372 . S
C935 C934 1.372 . S
C935 C936 1.400 . S
C935 C940 1.490 . S
C936 H926 0.930 . S
C936 C935 1.400 . S
C936 C939 1.386 . S
H937 C953 0.922 1_554 S
H938 C954 0.931 . S
C939 H927 0.929 . S
C939 C933 1.390 . S
C939 C936 1.386 . S
C940 C935 1.490 . S
C940 C942 1.395 . S
C940 C943 1.403 . S
H941 C947 0.930 1_554 S
C942 H928 0.930 . S
C942 C940 1.395 . S
C942 C945 1.403 . S
C943 C940 1.403 . S
C943 C944 1.524 1_556 S
C943 C947 1.400 . S
C944 H929 0.960 . S
C944 H930 0.960 . S
C944 H931 0.960 . S
C944 C943 1.524 1_554 S
C945 C942 1.403 . S
C945 C946 1.392 . S
C945 C949 1.495 . S
C946 C945 1.392 . S
C946 C947 1.385 . S
C946 C948 1.478 . S
C947 H941 0.930 1_556 S
C947 C943 1.400 . S
C947 C946 1.385 . S
C948 C946 1.478 . S
C948 C950 1.381 1_565 S
C948 C954 1.383 . S
C949 C945 1.495 . S
C949 H955 0.959 . S
C949 H956 0.961 . S
C949 H957 0.934 1_565 S
C950 C948 1.381 1_545 S
C950 C951 1.394 . S
C950 H958 0.930 . S
C951 C950 1.394 . S
C951 C952 1.383 1_545 S
C951 H959 0.929 . S
C952 C951 1.383 1_565 S
C952 C953 1.380 . S
C953 H937 0.922 1_556 S
C953 C952 1.380 . S
C953 C954 1.383 . S
C954 H938 0.931 . S
C954 C948 1.383 . S
C954 C953 1.383 . S
H955 C949 0.959 . S
H956 C949 0.961 . S
H957 C949 0.934 1_545 S
H958 C950 0.930 . S
H959 C951 0.929 . S
H960 C968 0.929 . S
H961 C970 0.930 . S
H962 C972 0.930 . S
H963 C975 0.929 . S
H964 C978 0.930 . S
H965 C980 0.960 1_565 S
H966 C980 0.960 . S
H967 C980 0.960 1_565 S
C968 H960 0.929 . S
C968 C969 1.377 . S
C968 C970 1.384 . S
C969 C968 1.377 . S
C969 C975 1.390 . S
C970 H961 0.930 . S
C970 C968 1.384 . S
C970 C971 1.372 . S
C971 C970 1.372 . S
C971 C972 1.400 . S
C971 C976 1.490 . S
C972 H962 0.930 . S
C972 C971 1.400 . S
C972 C975 1.386 . S
H973 C989 0.930 1_565 S
H974 C990 0.931 1_565 S
C975 H963 0.929 . S
C975 C969 1.390 . S
C975 C972 1.386 . S
C976 C971 1.490 . S
C976 C978 1.395 . S
C976 C979 1.403 . S
H977 C983 0.930 . S
C978 H964 0.930 . S
C978 C976 1.395 . S
C978 C981 1.403 . S
C979 C976 1.403 . S
C979 C980 1.524 . S
C979 C983 1.400 . S
C980 H965 0.960 1_545 S
C980 H966 0.960 . S
C980 H967 0.960 1_545 S
C980 C979 1.524 . S
C981 C978 1.403 . S
C981 C982 1.392 . S
C981 C985 1.495 . S
C982 C981 1.392 . S
C982 C983 1.385 . S
C982 C984 1.478 . S
C983 H977 0.930 . S
C983 C979 1.400 . S
C983 C982 1.385 . S
C984 C982 1.478 . S
C984 C986 1.381 . S
C984 C990 1.383 . S
C985 C981 1.495 . S
C985 H991 0.959 . S
C985 H992 0.961 . S
C985 H993 0.960 . S
C986 C984 1.381 . S
C986 C987 1.394 . S
C986 H994 0.930 . S
C987 C986 1.394 . S
C987 C988 1.383 . S
C987 H995 0.929 . S
C988 C987 1.383 . S
C988 C989 1.377 . S
C989 H973 0.930 1_545 S
C989 C988 1.377 . S
C989 C990 1.379 . S
C990 H974 0.931 1_545 S
C990 C984 1.383 . S
C990 C989 1.379 . S
H991 C985 0.959 . S
H992 C985 0.961 . S
H993 C985 0.960 . S
H994 C986 0.930 . S
H995 C987 0.929 . S
H996 C1004 0.929 . S
H997 C1006 0.930 . S
H998 C1008 0.930 . S
H999 C1011 0.929 . S
H1000 C1014 0.930 . S
H1001 C1016 0.960 . S
H1002 C1016 0.960 . S
H1003 C1016 0.960 . S
C1004 H996 0.929 . S
C1004 C1005 1.377 . S
C1004 C1006 1.384 . S
C1005 C1004 1.377 . S
C1005 C1011 1.390 . S
C1006 H997 0.930 . S
C1006 C1004 1.384 . S
C1006 C1007 1.372 . S
C1007 C1006 1.372 . S
C1007 C1008 1.400 . S
C1007 C1012 1.490 . S
C1008 H998 0.930 . S
C1008 C1007 1.400 . S
C1008 C1011 1.386 . S
H1009 C1025 0.930 . S
H1010 C1026 0.931 . S
C1011 H999 0.929 . S
C1011 C1005 1.390 . S
C1011 C1008 1.386 . S
C1012 C1007 1.490 . S
C1012 C1014 1.395 . S
C1012 C1015 1.403 . S
H1013 C1019 0.930 . S
C1014 H1000 0.930 . S
C1014 C1012 1.395 . S
C1014 C1017 1.403 . S
C1015 C1012 1.403 . S
C1015 C1016 1.524 . S
C1015 C1019 1.400 . S
C1016 H1001 0.960 . S
C1016 H1002 0.960 . S
C1016 H1003 0.960 . S
C1016 C1015 1.524 . S
C1017 C1014 1.403 . S
C1017 C1018 1.392 . S
C1017 C1021 1.495 . S
C1018 C1017 1.392 . S
C1018 C1019 1.385 . S
C1018 C1020 1.478 . S
C1019 H1013 0.930 . S
C1019 C1015 1.400 . S
C1019 C1018 1.385 . S
C1020 C1018 1.478 . S
C1020 C1022 1.381 . S
C1020 C1026 1.383 . S
C1021 C1017 1.495 . S
C1021 H1027 0.959 . S
C1021 H1028 0.961 . S
C1021 H1029 0.960 . S
C1022 C1020 1.381 . S
C1022 C1023 1.394 . S
C1022 H1030 0.930 . S
C1023 C1022 1.394 . S
C1023 C1024 1.383 . S
C1023 H1031 0.928 1_554 S
C1024 C1023 1.383 . S
C1024 C1025 1.377 . S
C1025 H1009 0.930 . S
C1025 C1024 1.377 . S
C1025 C1026 1.379 . S
C1026 H1010 0.931 . S
C1026 C1020 1.383 . S
C1026 C1025 1.379 . S
H1027 C1021 0.959 . S
H1028 C1021 0.961 . S
H1029 C1021 0.960 . S
H1030 C1022 0.930 . S
H1031 C1023 0.928 1_556 S
H1032 C1040 0.929 . S
H1033 C1042 0.930 . S
H1034 C1044 0.930 . S
H1035 C1047 0.929 . S
H1036 C1050 0.930 . S
H1037 C1052 0.960 . S
H1038 C1052 0.960 . S
H1039 C1052 0.960 . S
C1040 H1032 0.929 . S
C1040 C1041 1.377 . S
C1040 C1042 1.384 . S
C1041 C1040 1.377 . S
C1041 C1047 1.390 . S
C1042 H1033 0.930 . S
C1042 C1040 1.384 . S
C1042 C1043 1.372 . S
C1043 C1042 1.372 . S
C1043 C1044 1.400 . S
C1043 C1048 1.490 . S
C1044 H1034 0.930 . S
C1044 C1043 1.400 . S
C1044 C1047 1.386 . S
H1045 C1061 0.930 . S
H1046 C1062 0.931 . S
C1047 H1035 0.929 . S
C1047 C1041 1.390 . S
C1047 C1044 1.386 . S
C1048 C1043 1.490 . S
C1048 C1050 1.395 . S
C1048 C1051 1.403 . S
H1049 C1055 0.930 . S
C1050 H1036 0.930 . S
C1050 C1048 1.395 . S
C1050 C1053 1.403 . S
C1051 C1048 1.403 . S
C1051 C1052 1.524 . S
C1051 C1055 1.400 . S
C1052 H1037 0.960 . S
C1052 H1038 0.960 . S
C1052 H1039 0.960 . S
C1052 C1051 1.524 . S
C1053 C1050 1.403 . S
C1053 C1054 1.392 . S
C1053 C1057 1.495 . S
C1054 C1053 1.392 . S
C1054 C1055 1.385 . S
C1054 C1056 1.478 . S
C1055 H1049 0.930 . S
C1055 C1051 1.400 . S
C1055 C1054 1.385 . S
C1056 C1054 1.478 . S
C1056 C1058 1.381 . S
C1056 C1062 1.383 . S
C1057 C1053 1.495 . S
C1057 H1063 0.959 . S
C1057 H1064 0.961 . S
C1057 H1065 0.960 . S
C1058 C1056 1.381 . S
C1058 C1059 1.394 . S
C1058 H1066 0.930 . S
C1059 C1058 1.394 . S
C1059 C1060 1.383 . S
C1059 H1067 0.929 . S
C1060 C1059 1.383 . S
C1060 C1061 1.377 . S
C1061 H1045 0.930 . S
C1061 C1060 1.377 . S
C1061 C1062 1.379 . S
C1062 H1046 0.931 . S
C1062 C1056 1.383 . S
C1062 C1061 1.379 . S
H1063 C1057 0.959 . S
H1064 C1057 0.961 . S
H1065 C1057 0.960 . S
H1066 C1058 0.930 . S
H1067 C1059 0.929 . S
H1068 C1076 0.929 . S
H1069 C1078 0.930 . S
H1070 C1080 0.930 . S
H1071 C1083 0.929 . S
H1072 C1086 0.930 . S
H1073 C1088 0.960 . S
H1074 C1088 0.960 . S
H1075 C1088 0.960 . S
C1076 H1068 0.929 . S
C1076 C1077 1.377 . S
C1076 C1078 1.384 . S
C1077 C1076 1.377 . S
C1077 C1083 1.390 . S
C1078 H1069 0.930 . S
C1078 C1076 1.384 . S
C1078 C1079 1.372 . S
C1079 C1078 1.372 . S
C1079 C1080 1.400 . S
C1079 C1084 1.490 . S
C1080 H1070 0.930 . S
C1080 C1079 1.400 . S
C1080 C1083 1.386 . S
H1081 C1097 0.930 1_455 S
H1082 C1098 0.931 1_455 S
C1083 H1071 0.929 . S
C1083 C1077 1.390 . S
C1083 C1080 1.386 . S
C1084 C1079 1.490 . S
C1084 C1086 1.395 . S
C1084 C1087 1.403 . S
H1085 C1091 0.930 1_554 S
C1086 H1072 0.930 . S
C1086 C1084 1.395 . S
C1086 C1089 1.403 . S
C1087 C1084 1.403 . S
C1087 C1088 1.524 1_556 S
C1087 C1091 1.400 . S
C1088 H1073 0.960 . S
C1088 H1074 0.960 . S
C1088 H1075 0.960 . S
C1088 C1087 1.524 1_554 S
C1089 C1086 1.403 . S
C1089 C1090 1.392 . S
C1089 C1093 1.495 . S
C1090 C1089 1.392 . S
C1090 C1091 1.385 . S
C1090 C1092 1.478 . S
C1091 H1085 0.930 1_556 S
C1091 C1087 1.400 . S
C1091 C1090 1.385 . S
C1092 C1090 1.478 . S
C1092 C1094 1.381 . S
C1092 C1098 1.383 . S
C1093 C1089 1.495 . S
C1093 H1099 0.959 . S
C1093 H1100 0.961 . S
C1093 H1101 0.960 . S
C1094 C1092 1.381 . S
C1094 C1095 1.394 . S
C1094 H1102 0.930 . S
C1095 C1094 1.394 . S
C1095 C1096 1.383 . S
C1095 H1103 0.929 . S
C1096 C1095 1.383 . S
C1096 C1097 1.377 . S
C1097 H1081 0.930 1_655 S
C1097 C1096 1.377 . S
C1097 C1098 1.379 . S
C1098 H1082 0.931 1_655 S
C1098 C1092 1.383 . S
C1098 C1097 1.379 . S
H1099 C1093 0.959 . S
H1100 C1093 0.961 . S
H1101 C1093 0.960 . S
H1102 C1094 0.930 . S
H1103 C1095 0.929 . S
H1104 C1112 0.929 . S
H1105 C1114 0.930 . S
H1106 C1116 0.930 . S
H1107 C1119 0.929 . S
H1108 C1122 0.930 . S
H1109 C1124 0.960 . S
H1110 C1124 0.960 . S
H1111 C1124 0.960 . S
C1112 H1104 0.929 . S
C1112 C1113 1.377 . S
C1112 C1114 1.384 . S
C1113 C1112 1.377 . S
C1113 C1119 1.390 . S
C1114 H1105 0.930 . S
C1114 C1112 1.384 . S
C1114 C1115 1.372 . S
C1115 C1114 1.372 . S
C1115 C1116 1.400 . S
C1115 C1120 1.490 . S
C1116 H1106 0.930 . S
C1116 C1115 1.400 . S
C1116 C1119 1.386 . S
H1117 C1133 0.930 . S
H1118 C1134 0.931 . S
C1119 H1107 0.929 . S
C1119 C1113 1.390 . S
C1119 C1116 1.386 . S
C1120 C1115 1.490 . S
C1120 C1122 1.395 . S
C1120 C1123 1.403 . S
H1121 C1127 0.930 . S
C1122 H1108 0.930 . S
C1122 C1120 1.395 . S
C1122 C1125 1.403 . S
C1123 C1120 1.403 . S
C1123 C1124 1.524 . S
C1123 C1127 1.400 . S
C1124 H1109 0.960 . S
C1124 H1110 0.960 . S
C1124 H1111 0.960 . S
C1124 C1123 1.524 . S
C1125 C1122 1.403 . S
C1125 C1126 1.392 . S
C1125 C1129 1.495 . S
C1126 C1125 1.392 . S
C1126 C1127 1.385 . S
C1126 C1128 1.478 . S
C1127 H1121 0.930 . S
C1127 C1123 1.400 . S
C1127 C1126 1.385 . S
C1128 C1126 1.478 . S
C1128 C1130 1.381 . S
C1128 C1134 1.383 . S
C1129 C1125 1.495 . S
C1129 H1135 0.959 . S
C1129 H1136 0.961 . S
C1129 H1137 0.960 . S
C1130 C1128 1.381 . S
C1130 C1131 1.394 . S
C1130 H1138 0.930 . S
C1131 C1130 1.394 . S
C1131 C1132 1.383 . S
C1131 H1139 0.929 . S
C1132 C1131 1.383 . S
C1132 C1133 1.377 . S
C1133 H1117 0.930 . S
C1133 C1132 1.377 . S
C1133 C1134 1.379 . S
C1134 H1118 0.931 . S
C1134 C1128 1.383 . S
C1134 C1133 1.379 . S
H1135 C1129 0.959 . S
H1136 C1129 0.961 . S
H1137 C1129 0.960 . S
H1138 C1130 0.930 . S
H1139 C1131 0.929 . S
H1140 C1148 0.929 . S
H1141 C1150 0.930 . S
H1142 C1152 0.930 . S
H1143 C1155 0.929 . S
H1144 C1158 0.930 . S
H1145 C1160 0.960 . S
H1146 C1160 0.960 . S
H1147 C1160 0.960 . S
C1148 H1140 0.929 . S
C1148 C1149 1.377 . S
C1148 C1150 1.384 . S
C1149 C1148 1.377 . S
C1149 C1155 1.390 . S
C1150 H1141 0.930 . S
C1150 C1148 1.384 . S
C1150 C1151 1.372 . S
C1151 C1150 1.372 . S
C1151 C1152 1.400 . S
C1151 C1156 1.490 . S
C1152 H1142 0.930 . S
C1152 C1151 1.400 . S
C1152 C1155 1.386 . S
H1153 C1169 0.930 1_655 S
H1154 C1170 0.931 . S
C1155 H1143 0.929 . S
C1155 C1149 1.390 . S
C1155 C1152 1.386 . S
C1156 C1151 1.490 . S
C1156 C1158 1.395 . S
C1156 C1159 1.403 . S
H1157 C1163 0.930 . S
C1158 H1144 0.930 . S
C1158 C1156 1.395 . S
C1158 C1161 1.403 . S
C1159 C1156 1.403 . S
C1159 C1160 1.524 . S
C1159 C1163 1.400 . S
C1160 H1145 0.960 . S
C1160 H1146 0.960 . S
C1160 H1147 0.960 . S
C1160 C1159 1.524 . S
C1161 C1158 1.403 . S
C1161 C1162 1.392 . S
C1161 C1165 1.495 . S
C1162 C1161 1.392 . S
C1162 C1163 1.385 . S
C1162 C1164 1.478 . S
C1163 H1157 0.930 . S
C1163 C1159 1.400 . S
C1163 C1162 1.385 . S
C1164 C1162 1.478 . S
C1164 C1166 1.381 . S
C1164 C1170 1.383 . S
C1165 C1161 1.495 . S
C1165 H1171 0.959 . S
C1165 H1172 0.961 . S
C1165 H1173 0.960 . S
C1166 C1164 1.381 . S
C1166 C1167 1.394 . S
C1166 H1174 0.930 . S
C1167 C1166 1.394 . S
C1167 C1168 1.383 . S
C1167 H1175 0.929 . S
C1168 C1167 1.383 . S
C1168 C1169 1.377 . S
C1169 H1153 0.930 1_455 S
C1169 C1168 1.377 . S
C1169 C1170 1.379 . S
C1170 H1154 0.931 . S
C1170 C1164 1.383 . S
C1170 C1169 1.379 . S
H1171 C1165 0.959 . S
H1172 C1165 0.961 . S
H1173 C1165 0.960 . S
H1174 C1166 0.930 . S
H1175 C1167 0.929 . S
H1176 C1184 0.929 . S
H1177 C1186 0.930 . S
H1178 C1188 0.930 . S
H1179 C1191 0.929 . S
H1180 C1194 0.930 . S
H1181 C1196 0.960 . S
H1182 C1196 0.960 . S
H1183 C1196 0.960 . S
C1184 H1176 0.929 . S
C1184 C1185 1.377 . S
C1184 C1186 1.384 . S
C1185 C1184 1.377 . S
C1185 C1191 1.390 . S
C1186 H1177 0.930 . S
C1186 C1184 1.384 . S
C1186 C1187 1.372 . S
C1187 C1186 1.372 . S
C1187 C1188 1.400 . S
C1187 C1192 1.490 . S
C1188 H1178 0.930 . S
C1188 C1187 1.400 . S
C1188 C1191 1.386 . S
H1189 C1205 0.930 . S
H1190 C1206 0.931 . S
C1191 H1179 0.929 . S
C1191 C1185 1.390 . S
C1191 C1188 1.386 . S
C1192 C1187 1.490 . S
C1192 C1194 1.395 . S
C1192 C1195 1.403 . S
H1193 C1199 0.930 . S
C1194 H1180 0.930 . S
C1194 C1192 1.395 . S
C1194 C1197 1.403 . S
C1195 C1192 1.403 . S
C1195 C1196 1.524 . S
C1195 C1199 1.400 . S
C1196 H1181 0.960 . S
C1196 H1182 0.960 . S
C1196 H1183 0.960 . S
C1196 C1195 1.524 . S
C1197 C1194 1.403 . S
C1197 C1198 1.392 . S
C1197 C1201 1.495 . S
C1198 C1197 1.392 . S
C1198 C1199 1.385 . S
C1198 C1200 1.478 . S
C1199 H1193 0.930 . S
C1199 C1195 1.400 . S
C1199 C1198 1.385 . S
C1200 C1198 1.478 . S
C1200 C1202 1.381 . S
C1200 C1206 1.383 . S
C1201 C1197 1.495 . S
C1201 H1207 0.959 . S
C1201 H1208 0.961 . S
C1201 H1209 0.960 . S
C1202 C1200 1.381 . S
C1202 C1203 1.394 . S
C1202 H1210 0.930 . S
C1203 C1202 1.394 . S
C1203 C1204 1.383 . S
C1203 H1211 0.929 . S
C1204 C1203 1.383 . S
C1204 C1205 1.377 . S
C1205 H1189 0.930 . S
C1205 C1204 1.377 . S
C1205 C1206 1.379 . S
C1206 H1190 0.931 . S
C1206 C1200 1.383 . S
C1206 C1205 1.379 . S
H1207 C1201 0.959 . S
H1208 C1201 0.961 . S
H1209 C1201 0.960 . S
H1210 C1202 0.930 . S
H1211 C1203 0.929 . S
C357 C29 1.596 . S
C376 C274 1.616 . S
C393 C49 1.549 . S
C412 C298 1.526 . S
C448 C318 1.425 . S
C429 C93 1.343 . S
C465 C119 1.288 . S
C484 C341 1.358 . S
C520 C300 1.683 . S
C501 C17 1.658 . S
C556 C276 1.723 . S
C537 C61 1.737 . S
C592 C344 1.546 . S
C573 C81 1.505 . S
C628 C321 1.608 . S
C609 C125 1.547 . S
C645 C23 1.290 . S
C664 C346 1.317 . S
C700 C295 1.616 1_556 S
C681 C87 1.543 . S
C717 C113 1.601 . S
C736 C273 1.673 . S
C753 C55 1.330 . S
C772 C323 1.328 . S
C808 C277 1.622 . S
C789 C157 1.638 . S
C825 C189 1.508 . S
C844 C299 1.578 . S
C861 C221 1.802 . S
C880 C319 1.802 . S
C897 C253 1.693 . S
C916 C342 1.807 . S
C933 C145 1.602 . S
C952 C297 1.575 1_556 S
C988 C275 1.487 . S
C969 C183 1.397 . S
C1024 C345 1.439 . S
C1005 C209 1.505 . S
C1060 C322 1.442 . S
C1041 C247 1.424 . S
C1077 C151 1.931 . S
C1096 C343 1.871 . S
C1132 C296 1.515 . S
C1113 C215 1.536 . S
C1168 C272 1.578 . S
C1149 C241 1.475 . S
C1185 C177 1.824 . S
C1204 C320 1.883 . S
