# Generated by pormake.
# Topology sqc, (4,8)-cn, num edge types: 1
# Building blocks:
#     Node 0, Type 0, BuildingBlock: GIZVER_clean_linker_0, # of connection points: 4
#     Node 1, Type 0, BuildingBlock: GIZVER_clean_linker_0, # of connection points: 4
#     Node 2, Type 0, BuildingBlock: GIZVER_clean_linker_0, # of connection points: 4
#     Node 3, Type 0, BuildingBlock: GIZVER_clean_linker_0, # of connection points: 4
#     Node 4, Type 0, BuildingBlock: GIZVER_clean_linker_0, # of connection points: 4
#     Node 5, Type 0, BuildingBlock: GIZVER_clean_linker_0, # of connection points: 4
#     Node 6, Type 0, BuildingBlock: GIZVER_clean_linker_0, # of connection points: 4
#     Node 7, Type 0, BuildingBlock: GIZVER_clean_linker_0, # of connection points: 4
#     Node 8, Type 1, BuildingBlock: TAGTUT_clean_sbu_3, # of connection points: 8
#     Node 9, Type 1, BuildingBlock: TAGTUT_clean_sbu_3, # of connection points: 8
#     Node 10, Type 1, BuildingBlock: TAGTUT_clean_sbu_3, # of connection points: 8
#     Node 11, Type 1, BuildingBlock: TAGTUT_clean_sbu_3, # of connection points: 8
#     Edge 12, Type (0, 1), BuildingBlock: KIFKEQ_clean_linker_1, # of connection points: 2
#     Edge 13, Type (0, 1), BuildingBlock: KIFKEQ_clean_linker_1, # of connection points: 2
#     Edge 14, Type (0, 1), BuildingBlock: KIFKEQ_clean_linker_1, # of connection points: 2
#     Edge 15, Type (0, 1), BuildingBlock: KIFKEQ_clean_linker_1, # of connection points: 2
#     Edge 16, Type (0, 1), BuildingBlock: KIFKEQ_clean_linker_1, # of connection points: 2
#     Edge 17, Type (0, 1), BuildingBlock: KIFKEQ_clean_linker_1, # of connection points: 2
#     Edge 18, Type (0, 1), BuildingBlock: KIFKEQ_clean_linker_1, # of connection points: 2
#     Edge 19, Type (0, 1), BuildingBlock: KIFKEQ_clean_linker_1, # of connection points: 2
#     Edge 20, Type (0, 1), BuildingBlock: KIFKEQ_clean_linker_1, # of connection points: 2
#     Edge 21, Type (0, 1), BuildingBlock: KIFKEQ_clean_linker_1, # of connection points: 2
#     Edge 22, Type (0, 1), BuildingBlock: KIFKEQ_clean_linker_1, # of connection points: 2
#     Edge 23, Type (0, 1), BuildingBlock: KIFKEQ_clean_linker_1, # of connection points: 2
#     Edge 24, Type (0, 1), BuildingBlock: KIFKEQ_clean_linker_1, # of connection points: 2
#     Edge 25, Type (0, 1), BuildingBlock: KIFKEQ_clean_linker_1, # of connection points: 2
#     Edge 26, Type (0, 1), BuildingBlock: KIFKEQ_clean_linker_1, # of connection points: 2
#     Edge 27, Type (0, 1), BuildingBlock: KIFKEQ_clean_linker_1, # of connection points: 2
#     Edge 28, Type (0, 1), BuildingBlock: KIFKEQ_clean_linker_1, # of connection points: 2
#     Edge 29, Type (0, 1), BuildingBlock: KIFKEQ_clean_linker_1, # of connection points: 2
#     Edge 30, Type (0, 1), BuildingBlock: KIFKEQ_clean_linker_1, # of connection points: 2
#     Edge 31, Type (0, 1), BuildingBlock: KIFKEQ_clean_linker_1, # of connection points: 2
#     Edge 32, Type (0, 1), BuildingBlock: KIFKEQ_clean_linker_1, # of connection points: 2
#     Edge 33, Type (0, 1), BuildingBlock: KIFKEQ_clean_linker_1, # of connection points: 2
#     Edge 34, Type (0, 1), BuildingBlock: KIFKEQ_clean_linker_1, # of connection points: 2
#     Edge 35, Type (0, 1), BuildingBlock: KIFKEQ_clean_linker_1, # of connection points: 2
#     Edge 36, Type (0, 1), BuildingBlock: KIFKEQ_clean_linker_1, # of connection points: 2
#     Edge 37, Type (0, 1), BuildingBlock: KIFKEQ_clean_linker_1, # of connection points: 2
#     Edge 38, Type (0, 1), BuildingBlock: KIFKEQ_clean_linker_1, # of connection points: 2
#     Edge 39, Type (0, 1), BuildingBlock: KIFKEQ_clean_linker_1, # of connection points: 2
#     Edge 40, Type (0, 1), BuildingBlock: KIFKEQ_clean_linker_1, # of connection points: 2
#     Edge 41, Type (0, 1), BuildingBlock: KIFKEQ_clean_linker_1, # of connection points: 2
#     Edge 42, Type (0, 1), BuildingBlock: KIFKEQ_clean_linker_1, # of connection points: 2
#     Edge 43, Type (0, 1), BuildingBlock: KIFKEQ_clean_linker_1, # of connection points: 2
# Relax obj value: 0.180
# Max RMSD: 0.272
# Mean RMSD: 0.223
data_MOF--net-sqc--node1-TAGTUT_clean_sbu_3--node2-GIZVER_clean_linker_0--edge1-KIFKEQ_clean_linker_1
_symmetry_space_group_name_H-M    P1
_symmetry_Int_Tables_number       1
_symmetry_cell_setting            triclinic
loop_
_symmetry_equiv_pos_as_xyz
'x, y, z'
_cell_length_a     24.840273
_cell_length_b     24.844085
_cell_length_c     74.000448
_cell_angle_alpha  90.740725
_cell_angle_beta   90.215371
_cell_angle_gamma 89.910489
loop_
_atom_site_label
_atom_site_type_symbol
_atom_site_fract_x
_atom_site_fract_y
_atom_site_fract_z
_atom_type_partial_charge
H0 H 0.9899 0.03481 0.43472 0.0
H1 H 1.00739 0.10782 0.4876 0.0
H2 H 0.86644 0.01519 0.47451 0.0
H3 H 0.05667 0.10352 0.43966 0.0
H4 H 0.05926 0.13995 0.46052 0.0
H5 H 0.10701 0.01621 0.4359 0.0
H6 H 0.2445 0.99956 0.47069 0.0
H7 H 0.12246 0.11611 0.48374 0.0
C8 C 0.97555 0.04092 0.44841 0.0
C9 C 0.92515 0.02041 0.45335 0.0
C10 C 1.00629 0.07146 0.46082 0.0
C11 C 0.98554 0.08189 0.47825 0.0
C12 C 0.93542 0.06059 0.4833 0.0
C13 C 0.90635 0.0291 0.47092 0.0
C14 C 0.05728 0.0986 0.45459 0.0
C15 C 0.10736 0.06763 0.45978 0.0
C16 C 0.12798 0.02672 0.44832 0.0
C17 C 0.17713 1.00138 0.45247 0.0
C18 C 0.20513 0.01688 0.46811 0.0
C19 C 0.18631 0.05868 0.47926 0.0
C20 C 0.13685 0.08327 0.47526 0.0
H21 H 0.46827 0.75781 0.71135 0.0
H22 H 0.39147 0.78317 0.76286 0.0
H23 H 0.34521 0.87812 0.71729 0.0
H24 H 0.50998 0.7263 0.7405 0.0
H25 H 0.47263 0.72995 0.76108 0.0
H26 H 0.47484 0.66461 0.71478 0.0
H27 H 0.40148 0.51929 0.73304 0.0
H28 H 0.42039 0.65306 0.76994 0.0
C29 C 0.43769 0.77734 0.71952 0.0
C30 C 0.40547 0.81773 0.71189 0.0
C31 C 0.43187 0.76353 0.73782 0.0
C32 C 0.39452 0.79182 0.74858 0.0
C33 C 0.363 0.83307 0.74116 0.0
C34 C 0.3677 0.84459 0.72277 0.0
C35 C 0.46888 0.72243 0.74627 0.0
C36 C 0.4492 0.66578 0.74271 0.0
C37 C 0.4558 0.64228 0.72547 0.0
C38 C 0.4375 0.59 0.72192 0.0
C39 C 0.41485 0.56014 0.73583 0.0
C40 C 0.40939 0.58194 0.75324 0.0
C41 C 0.4253 0.63551 0.75657 0.0
H42 H 0.70819 0.04884 0.01443 0.0
H43 H 0.72669 0.14386 0.96667 0.0
H44 H 0.83339 0.01103 -0.02358 0.0
H45 H 0.669 0.14305 0.01206 0.0
H46 H 0.6684 0.17561 -0.00943 0.0
H47 H 0.606 0.07172 0.01854 0.0
H48 H 0.48393 0.03176 -0.02077 0.0
H49 H 0.61392 0.13645 0.96496 0.0
C50 C 0.72904 0.05677 0.00191 0.0
C51 C 0.77167 0.02336 -0.00362 0.0
C52 C 0.71302 0.10052 -0.00871 0.0
C53 C 0.73962 0.11058 -0.02503 0.0
C54 C 0.78261 0.07779 0.96934 0.0
C55 C 0.79835 0.0346 -0.01981 0.0
C56 C 0.66682 0.1357 -0.0028 0.0
C57 C 0.61478 0.10807 -0.00759 0.0
C58 C 0.58906 0.0754 0.00509 0.0
C59 C 0.54199 0.04723 0.00043 0.0
C60 C 0.52138 0.05161 -0.01719 0.0
C61 C 0.54699 0.08353 0.96995 0.0
C62 C 0.59366 0.1119 0.97484 0.0
H63 H 0.18933 0.25365 0.21734 0.0
H64 H 0.27849 0.26596 0.26742 0.0
H65 H 0.27122 0.11552 0.23883 0.0
H66 H 0.17865 0.3323 0.23659 0.0
H67 H 0.20592 0.33294 0.25891 0.0
H68 H 0.21536 0.39344 0.21584 0.0
H69 H 0.35919 0.48105 0.22906 0.0
H70 H 0.31004 0.35012 0.26233 0.0
C71 C 0.21525 0.23579 0.22745 0.0
C72 C 0.22724 0.18041 0.22642 0.0
C73 C 0.23428 0.26748 0.24211 0.0
C74 C 0.26585 0.24319 0.25559 0.0
C75 C 0.27955 0.18876 0.25417 0.0
C76 C 0.26056 0.15786 0.23964 0.0
C77 C 0.21617 0.32527 0.24449 0.0
C78 C 0.25912 0.36523 0.23917 0.0
C79 C 0.25098 0.39863 0.22418 0.0
C80 C 0.28729 0.44033 0.2204 0.0
C81 C 0.3328 0.44715 0.2314 0.0
C82 C 0.34174 0.41452 0.24645 0.0
C83 C 0.30459 0.3737 0.25029 0.0
H84 H 0.71585 0.2608 0.23502 0.0
H85 H 0.78527 0.25176 0.18174 0.0
H86 H 0.81325 0.39047 0.21545 0.0
H87 H 0.68776 0.19037 0.21387 0.0
H88 H 0.7116 0.18951 0.19108 0.0
H89 H 0.71999 0.12104 0.23279 0.0
H90 H 0.85977 0.02865 0.21819 0.0
H91 H 0.81411 0.16463 0.18646 0.0
C92 C 0.74094 0.27778 0.22459 0.0
C93 C 0.76371 0.32906 0.22719 0.0
C94 C 0.74973 0.24883 0.20838 0.0
C95 C 0.78038 0.27235 0.19462 0.0
C96 C 0.80464 0.32262 0.1974 0.0
C97 C 0.79653 0.3504 0.21371 0.0
C98 C 0.72451 0.19417 0.20543 0.0
C99 C 0.76395 0.14958 0.20965 0.0
C100 C 0.75493 0.11499 0.22427 0.0
C101 C 0.78908 0.07072 0.22722 0.0
C102 C 0.83372 0.06301 0.21599 0.0
C103 C 0.84326 0.09678 0.20133 0.0
C104 C 0.808 0.13978 0.19816 0.0
H105 H 0.71445 0.74797 0.71794 0.0
H106 H 0.7959 0.76437 0.76929 0.0
H107 H 0.81107 0.61822 0.73849 0.0
H108 H 0.69303 0.82306 0.73833 0.0
H109 H 0.72093 0.82595 0.76061 0.0
H110 H 0.72478 0.88562 0.71709 0.0
H111 H 0.86394 0.98219 0.72862 0.0
H112 H 0.82323 0.85232 0.76373 0.0
C113 C 0.74113 0.73192 0.72817 0.0
C114 C 0.76152 0.67922 0.72622 0.0
C115 C 0.75457 0.76361 0.7435 0.0
C116 C 0.78742 0.74161 0.75703 0.0
C117 C 0.80882 0.68987 0.75493 0.0
C118 C 0.79618 0.65921 0.73954 0.0
C119 C 0.73122 0.81931 0.74613 0.0
C120 C 0.77059 0.86256 0.74065 0.0
C121 C 0.76012 0.8938 0.72531 0.0
C122 C 0.79406 0.93676 0.72087 0.0
C123 C 0.83939 0.94739 0.7316 0.0
C124 C 0.85065 0.91703 0.74701 0.0
C125 C 0.81585 0.87472 0.75153 0.0
H126 H 0.50559 0.47984 0.01489 0.0
H127 H 0.5106 0.40785 0.9616 0.0
H128 H 0.37868 0.51027 -0.02318 0.0
H129 H 0.56578 0.40553 0.00879 0.0
H130 H 0.56131 0.36943 -0.01211 0.0
H131 H 0.61623 0.49711 0.0093 0.0
H132 H 0.76009 0.49009 -0.02261 0.0
H133 H 0.63305 0.37678 0.96707 0.0
C134 C 0.48908 0.47559 0.00137 0.0
C135 C 0.4398 0.50041 -0.00286 0.0
C136 C 0.51572 0.44307 -0.01155 0.0
C137 C 0.49204 0.43516 0.97128 0.0
C138 C 0.44293 0.46023 0.96698 0.0
C139 C 0.41804 0.49355 -0.02018 0.0
C140 C 0.56462 0.41063 -0.00613 0.0
C141 C 0.61696 0.43619 -0.01192 0.0
C142 C 0.63845 0.48008 -0.00199 0.0
C143 C 0.68982 0.5001 -0.00607 0.0
C144 C 0.71962 0.47589 -0.01993 0.0
C145 C 0.70011 0.43087 0.97062 0.0
C146 C 0.64799 0.41209 0.97422 0.0
H147 H 0.20477 0.56021 0.51888 0.0
H148 H 0.20464 0.65113 0.46985 0.0
H149 H 0.32755 0.53263 0.4791 0.0
H150 H 0.1556 0.6492 0.51644 0.0
H151 H 0.15114 0.68191 0.49507 0.0
H152 H 0.1051 0.56647 0.52214 0.0
H153 H 0.9712 0.53084 0.48717 0.0
H154 H 0.08758 0.64934 0.47168 0.0
C155 C 0.22268 0.56902 0.50593 0.0
C156 C 0.26767 0.53953 0.49992 0.0
C157 C 0.20041 0.60983 0.49517 0.0
C158 C 0.22279 0.6206 0.47825 0.0
C159 C 0.26834 0.59241 0.47221 0.0
C160 C 0.29066 0.55248 0.48323 0.0
C161 C 0.15257 0.64184 0.50161 0.0
C162 C 0.1018 0.61123 0.49739 0.0
C163 C 0.08322 0.573 0.50966 0.0
C164 C 0.03641 0.54355 0.50599 0.0
C165 C 1.00818 0.55266 0.48987 0.0
C166 C 0.02576 0.59104 0.47748 0.0
C167 C 0.07344 0.61959 0.48113 0.0
C168 C 0.16634 0.68664 0.12596 0.0
C169 C 0.9763 0.59754 0.12023 0.0
C170 C 0.9709 0.6751 0.06922 0.0
Mg171 Mg 0.21314 0.79528 0.10811 0.0
Mg172 Mg 0.13969 0.88659 0.087 0.0
O173 O 0.15376 0.81394 0.09088 0.0
Mg174 Mg 0.09883 0.76283 0.09969 0.0
O175 O 0.0488 0.70713 0.10884 0.0
Mg176 Mg 0.08001 0.64384 0.09543 0.0
Mg177 Mg 0.97426 0.71671 0.10812 0.0
C178 C 0.03487 0.83701 0.06921 0.0
O179 O 0.05639 0.82484 0.11783 0.0
O180 O 0.26811 0.85151 0.09104 0.0
O181 O 0.97132 0.7951 0.12153 0.0
O182 O 0.19181 0.86784 0.12758 0.0
O183 O 0.21473 0.90593 0.07474 0.0
O184 O 0.13639 0.9236 0.11301 0.0
O185 O 0.14003 0.70048 0.08131 0.0
O186 O 0.22486 0.72472 0.08874 0.0
C187 C 0.19148 0.69336 0.08051 0.0
C188 C 0.2613 0.88788 0.07903 0.0
O189 O 0.04113 0.79218 0.07739 0.0
O190 O 0.02103 0.59137 0.11179 0.0
O191 O 0.06633 0.87747 0.07144 0.0
O192 O 0.01391 0.64815 0.07263 0.0
O193 O 0.95151 0.64283 0.12102 0.0
O194 O 0.95171 0.70937 0.08045 0.0
O195 O 0.15553 0.73614 0.12234 0.0
O196 O 0.14206 0.64716 0.11808 0.0
C197 C 0.16241 0.91044 0.12715 0.0
C198 C 1.00855 0.83028 0.12401 0.0
C199 C 0.68393 0.82655 0.36946 0.0
C200 C 0.76528 0.63799 0.37458 0.0
C201 C 0.68118 0.60685 0.32318 0.0
Mg202 Mg 0.57389 0.86885 0.35167 0.0
Mg203 Mg 0.47478 0.79041 0.33722 0.0
O204 O 0.54872 0.80332 0.33799 0.0
Mg205 Mg 0.60039 0.75044 0.34834 0.0
O206 O 0.6563 0.70267 0.35864 0.0
Mg207 Mg 0.71836 0.7254 0.34333 0.0
Mg208 Mg 0.64602 0.62904 0.36217 0.0
C209 C 0.51719 0.67795 0.32239 0.0
O210 O 0.54211 0.7194 0.36967 0.0
O211 O 0.51516 0.91786 0.33387 0.0
O212 O 0.56694 0.63325 0.37459 0.0
O213 O 0.50426 0.86261 0.37302 0.0
O214 O 0.45086 0.86217 0.32324 0.0
O215 O 0.44612 0.79866 0.36425 0.0
O216 O 0.65987 0.77935 0.32689 0.0
O217 O 0.63983 0.8675 0.33041 0.0
C218 C 0.66782 0.82933 0.32325 0.0
C219 C 0.47257 0.90888 0.32442 0.0
O220 O 0.56397 0.68527 0.32943 0.0
O221 O 0.77201 0.67491 0.36278 0.0
O222 O 0.47825 0.71165 0.3242 0.0
O223 O 0.70815 0.65091 0.32374 0.0
O224 O 0.71954 0.61532 0.37701 0.0
O225 O 0.65166 0.59237 0.33627 0.0
O226 O 0.63366 0.81568 0.3673 0.0
O227 O 0.72111 0.79732 0.36239 0.0
C228 C 0.46167 0.83444 0.37562 0.0
C229 C 0.53461 0.67318 0.37674 0.0
C230 C 0.66336 0.17425 0.62424 0.0
C231 C 0.48031 0.0827 0.6173 0.0
C232 C 0.46787 0.17576 0.56791 0.0
Mg233 Mg 0.71126 0.28542 0.61007 0.0
Mg234 Mg 0.64113 0.38413 0.59144 0.0
O235 O 0.65144 0.31062 0.59393 0.0
Mg236 Mg 0.59549 0.25735 0.60034 0.0
O237 O 0.54597 0.19848 0.60723 0.0
Mg238 Mg 0.57856 0.13932 0.59219 0.0
Mg239 Mg 0.47124 0.20402 0.60837 0.0
C240 C 0.53441 0.34223 0.57216 0.0
O241 O 0.55084 0.31284 0.62035 0.0
O242 O 0.7678 0.34319 0.59475 0.0
O243 O 0.46669 0.27973 0.62333 0.0
O244 O 0.69398 0.3543 0.63149 0.0
O245 O 0.71676 0.40157 0.5792 0.0
O246 O 0.64234 0.41626 0.61819 0.0
O247 O 0.63713 0.20094 0.57976 0.0
O248 O 0.72191 0.22075 0.58844 0.0
C249 C 0.68845 0.19361 0.57875 0.0
C250 C 0.76254 0.38136 0.58336 0.0
O251 O 0.53882 0.29479 0.57878 0.0
O252 O 0.52255 0.08069 0.60737 0.0
O253 O 0.56729 0.38069 0.57582 0.0
O254 O 0.51242 0.14987 0.5697 0.0
O255 O 0.45445 0.1267 0.62016 0.0
O256 O 0.44701 0.20264 0.58091 0.0
O257 O 0.65178 0.22436 0.62224 0.0
O258 O 0.64054 0.13691 0.61484 0.0
C259 C 0.6678 0.39901 0.63195 0.0
C260 C 0.50272 0.31563 0.6266 0.0
C261 C 0.19699 0.3244 0.87278 0.0
C262 C 0.2901 0.13981 0.86899 0.0
C263 C 0.20399 0.12283 0.81808 0.0
Mg264 Mg 0.08447 0.3676 0.85673 0.0
Mg265 Mg 0.98815 0.293 0.83811 0.0
O266 O 0.06152 0.30541 0.84108 0.0
Mg267 Mg 0.11602 0.25155 0.84903 0.0
O268 O 0.17554 0.20389 0.85705 0.0
Mg269 Mg 0.23553 0.23575 0.84252 0.0
Mg270 Mg 0.17006 0.12905 0.85767 0.0
C271 C 0.03431 0.18482 0.82063 0.0
O272 O 0.0604 0.20801 0.8692 0.0
O273 O 0.02451 0.42036 0.84067 0.0
O274 O 0.09431 0.1241 0.87206 0.0
O275 O 0.01648 0.35055 0.87795 0.0
O276 O 0.96482 0.36755 0.82602 0.0
O277 O 0.95647 0.29569 0.86464 0.0
O278 O 0.17339 0.29143 0.82883 0.0
O279 O 0.1483 0.37676 0.83518 0.0
C280 C 0.17794 0.34265 0.82666 0.0
C281 C 0.98438 0.41396 0.82989 0.0
O282 O 0.08103 0.1914 0.82787 0.0
O283 O 0.29332 0.18186 0.85913 0.0
O284 O 0.99467 0.21724 0.82328 0.0
O285 O 0.22909 0.16752 0.82049 0.0
O286 O 0.24607 0.11354 0.87076 0.0
O287 O 0.17435 0.10275 0.83029 0.0
O288 O 0.14714 0.31184 0.87037 0.0
O289 O 0.23521 0.30026 0.86435 0.0
C290 C 0.9728 0.32288 0.87832 0.0
C291 C 0.05829 0.15993 0.87545 0.0
H292 H 0.20963 0.02657 0.41873 0.0
H293 H 0.21313 0.89894 0.45767 0.0
H294 H 0.28012 0.9808 0.40131 0.0
H295 H 0.28311 0.85249 0.44006 0.0
H296 H 0.37794 0.77596 0.38923 0.0
H297 H 0.30302 0.81023 0.40744 0.0
H298 H 0.38093 0.96501 0.41149 0.0
H299 H 0.45645 0.93071 0.39375 0.0
C300 C 0.22393 0.98764 0.42314 0.0
C301 C 0.20568 0.96597 0.43942 0.0
C302 C 0.26483 0.96191 0.41336 0.0
C303 C 0.28765 0.91368 0.41956 0.0
C304 C 0.26631 0.88972 0.43504 0.0
C305 C 0.22603 0.91597 0.445 0.0
C306 C 0.37988 0.81684 0.39445 0.0
C307 C 0.42331 0.85058 0.39003 0.0
C308 C 0.33676 0.83649 0.40475 0.0
C309 C 0.33569 0.89057 0.41046 0.0
C310 C 0.38036 0.9234 0.40693 0.0
C311 C 0.42395 0.90349 0.39698 0.0
H312 H 0.50229 0.84181 0.69669 0.0
H313 H 0.33137 0.84219 0.68588 0.0
H314 H 0.51713 0.8967 0.67014 0.0
H315 H 0.34616 0.89716 0.65923 0.0
H316 H 0.53222 0.98532 0.6181 0.0
H317 H 0.51196 0.9088 0.6372 0.0
H318 H 0.37209 0.9924 0.65785 0.0
H319 H 0.39179 0.06859 0.63867 0.0
C320 C 0.4681 0.85193 0.68826 0.0
C321 C 0.41562 0.83826 0.69347 0.0
C322 C 0.47656 0.88356 0.67304 0.0
C323 C 0.43268 0.90206 0.66276 0.0
C324 C 0.38065 0.88443 0.6671 0.0
C325 C 0.37222 0.85279 0.68229 0.0
C326 C 0.49659 0.98709 0.62648 0.0
C327 C 0.46395 0.03348 0.62698 0.0
C328 C 0.48516 0.94324 0.63747 0.0
C329 C 0.44064 0.9446 0.6491 0.0
C330 C 0.4064 0.98975 0.64889 0.0
C331 C 0.41794 0.03369 0.63798 0.0
H332 H 0.52592 0.17578 0.95162 0.0
H333 H 0.51273 1.00287 0.94747 0.0
H334 H 0.47212 0.18481 0.92418 0.0
H335 H 0.45999 0.01156 0.91977 0.0
H336 H 0.29772 0.05701 0.89285 0.0
H337 H 0.36932 0.04061 0.91446 0.0
H338 H 0.46174 0.1707 0.89197 0.0
H339 H 0.38925 0.18817 0.87054 0.0
C340 C 0.51275 0.1397 0.94453 0.0
C341 C 0.52279 0.08869 0.95175 0.0
C342 C 0.48204 0.14478 0.92877 0.0
C343 C 0.46115 0.09887 0.91989 0.0
C344 C 0.47447 0.04773 0.92649 0.0
C345 C 0.50478 0.04272 0.9423 0.0
C346 C 0.33361 0.08168 0.89228 0.0
C347 C 0.33731 0.12438 0.88008 0.0
C348 C 0.37495 0.07198 0.90463 0.0
C349 C 0.42118 0.1046 0.90505 0.0
C350 C 0.42627 0.1454 0.89219 0.0
C351 C 0.3848 0.15519 0.87983 0.0
H352 H 0.18153 0.08197 0.23077 0.0
H353 H 0.22184 0.1974 0.18986 0.0
H354 H 0.15793 0.01613 0.20738 0.0
H355 H 0.1974 0.13139 0.16633 0.0
H356 H 0.11429 0.00935 0.12909 0.0
H357 H 0.12048 0.076 0.15339 0.0
H358 H 0.21513 0.96527 0.1849 0.0
H359 H 0.20887 0.89806 0.1606 0.0
C360 C 0.1849 0.09341 0.21674 0.0
C361 C 0.20453 0.14452 0.21212 0.0
C362 C 0.1714 0.05567 0.20338 0.0
C363 C 0.17663 0.06831 0.18506 0.0
C364 C 0.19288 0.12059 0.18038 0.0
C365 C 0.20677 0.15841 0.19381 0.0
C366 C 0.13594 0.99875 0.14127 0.0
C367 C 0.16146 0.94828 0.14282 0.0
C368 C 0.13968 0.03722 0.15514 0.0
C369 C 0.16863 0.02605 0.17095 0.0
C370 C 0.19226 0.9749 0.17287 0.0
C371 C 0.18886 0.93645 0.15893 0.0
H372 H 0.2151 0.16352 0.4847 0.0
H373 H 0.24221 1.00328 0.50474 0.0
H374 H 0.2885 0.19744 0.50374 0.0
H375 H 0.3151 0.03703 0.52389 0.0
H376 H 0.38351 0.2376 0.55692 0.0
H377 H 0.31437 0.21253 0.53511 0.0
H378 H 0.40649 0.07147 0.51995 0.0
H379 H 0.47539 0.09593 0.54217 0.0
C380 C 0.23585 0.13587 0.49354 0.0
C381 C 0.22297 0.08082 0.4933 0.0
C382 C 0.27819 0.15515 0.5043 0.0
C383 C 0.30836 0.11969 0.51502 0.0
C384 C 0.2937 0.06509 0.51538 0.0
C385 C 0.25152 0.04587 0.50462 0.0
C386 C 0.38967 0.20182 0.54867 0.0
C387 C 0.43453 0.16823 0.55149 0.0
C388 C 0.34997 0.18751 0.53613 0.0
C389 C 0.35431 0.13931 0.52614 0.0
C390 C 0.4014 0.10815 0.52783 0.0
C391 C 0.44125 0.12254 0.54037 0.0
H392 H 0.25944 0.86799 0.73635 0.0
H393 H 0.39755 0.8846 0.77157 0.0
H394 H 0.21494 0.94269 0.7524 0.0
H395 H 0.35333 0.95896 0.7875 0.0
H396 H 0.2934 0.12704 0.79686 0.0
H397 H 0.32723 0.05489 0.77731 0.0
H398 H 0.17997 0.96609 0.7848 0.0
H399 H 0.14598 0.03806 0.80447 0.0
C400 C 0.27974 0.887 0.74773 0.0
C401 C 0.33176 0.87046 0.75281 0.0
C402 C 0.25446 0.92974 0.75682 0.0
C403 C 0.28125 0.95712 0.77091 0.0
C404 C 0.33229 0.93911 0.77644 0.0
C405 C 0.35719 0.89602 0.76754 0.0
C406 C 0.26749 0.09299 0.79391 0.0
C407 C 0.21731 0.08793 0.8024 0.0
C408 C 0.28714 0.05143 0.78289 0.0
C409 C 0.25666 1.00451 0.77995 0.0
C410 C 0.20438 1.0017 0.78698 0.0
C411 C 0.18496 0.04296 0.79819 0.0
H412 H 0.49206 0.95013 -0.00456 0.0
H413 H 0.52431 0.07248 0.03614 0.0
H414 H 0.42934 0.90671 0.01592 0.0
H415 H 0.46304 0.02733 0.05683 0.0
H416 H 0.36701 0.89285 0.08997 0.0
H417 H 0.44391 0.92571 0.07238 0.0
H418 H 0.33758 0.95781 0.02754 0.0
H419 H 0.26116 0.92661 0.04501 0.0
C420 C 0.48645 0.9673 0.00883 0.0
C421 C 0.5123 0.01543 0.01401 0.0
C422 C 0.45095 0.94217 0.02056 0.0
C423 C 0.44139 0.96407 0.03781 0.0
C424 C 0.47022 0.00966 0.04359 0.0
C425 C 0.50528 0.03535 0.03175 0.0
C426 C 0.36027 0.907 0.07636 0.0
C427 C 0.30815 0.90746 0.06887 0.0
C428 C 0.40407 0.92573 0.06637 0.0
C429 C 0.39634 0.94366 0.04864 0.0
C430 C 0.34444 0.9436 0.04115 0.0
C431 C 0.30074 0.92616 0.0512 0.0
H432 H 0.38801 0.17819 0.25633 0.0
H433 H 0.23989 0.1354 0.28263 0.0
H434 H 0.43725 0.114 0.27514 0.0
H435 H 0.2887 0.07167 0.30161 0.0
H436 H 0.37545 0.90923 0.30702 0.0
H437 H 0.33083 0.98463 0.29265 0.0
H438 H 0.46486 0.08775 0.30661 0.0
H439 H 0.51015 0.01201 0.32097 0.0
C440 C 0.36656 0.15635 0.26663 0.0
C441 C 0.31062 0.16164 0.26829 0.0
C442 C 0.39451 0.11962 0.27733 0.0
C443 C 0.36661 0.08741 0.28965 0.0
C444 C 0.31103 0.09543 0.29203 0.0
C445 C 0.28324 0.13219 0.28138 0.0
C446 C 0.3956 0.94786 0.30703 0.0
C447 C 0.44641 0.9545 0.31516 0.0
C448 C 0.36974 0.99123 0.29895 0.0
C449 C 0.39411 0.0422 0.29872 0.0
C450 C 0.44519 0.04887 0.30661 0.0
C451 C 0.47101 1.00549 0.31484 0.0
H452 H 0.90577 0.16151 0.49347 0.0
H453 H 0.89851 0.99575 0.50987 0.0
H454 H 0.839 0.18562 0.51649 0.0
H455 H 0.83214 0.0198 0.53306 0.0
H456 H 0.76089 0.11457 0.58431 0.0
H457 H 0.82391 0.07855 0.56189 0.0
H458 H 0.73781 0.16199 0.51988 0.0
H459 H 0.67421 0.19737 0.54239 0.0
C460 C 0.89121 0.13066 0.50243 0.0
C461 C 0.9077 0.077 0.50013 0.0
C462 C 0.85228 0.14416 0.51533 0.0
C463 C 0.82966 0.10431 0.52628 0.0
C464 C 0.84871 0.05121 0.52473 0.0
C465 C 0.88702 0.03758 0.51165 0.0
C466 C 0.75415 0.12317 0.57015 0.0
C467 C 0.71244 0.15803 0.56497 0.0
C468 C 0.79046 0.10304 0.55737 0.0
C469 C 0.78632 0.11841 0.53924 0.0
C470 C 0.7423 0.15023 0.53385 0.0
C471 C 0.70534 0.1696 0.54662 0.0
H472 H 0.79241 0.96131 0.22344 0.0
H473 H 0.758 0.08782 0.2623 0.0
H474 H 0.77697 0.89382 0.24643 0.0
H475 H 0.74043 0.02018 0.28517 0.0
H476 H 0.74965 0.89917 0.32726 0.0
H477 H 0.78704 0.9539 0.30332 0.0
H478 H 0.70264 0.85658 0.26357 0.0
H479 H 0.66673 0.80083 0.28771 0.0
C480 C 0.78174 0.97471 0.23694 0.0
C481 C 0.77697 0.02999 0.24113 0.0
C482 C 0.77251 0.93596 0.25007 0.0
C483 C 0.75818 0.95153 0.26769 0.0
C484 C 0.75267 1.00682 0.27182 0.0
C485 C 0.76191 0.04562 0.25867 0.0
C486 C 0.74138 0.88794 0.31335 0.0
C487 C 0.70578 0.84572 0.30925 0.0
C488 C 0.76187 0.91988 0.29965 0.0
C489 C 0.74647 0.91062 0.2816 0.0
C490 C 0.71524 0.86485 0.27735 0.0
C491 C 0.69508 0.8325 0.29112 0.0
H492 H 0.78448 0.02431 0.03318 0.0
H493 H 0.80603 0.92319 -0.01424 0.0
H494 H 0.83762 0.96124 0.05088 0.0
H495 H 0.86101 0.86138 0.00343 0.0
H496 H 0.93014 0.82686 0.07872 0.0
H497 H 0.85164 0.85778 0.06133 0.0
H498 H 0.95585 0.89551 0.01668 0.0
H499 H 0.03395 0.86646 0.03424 0.0
C500 C 0.79894 0.98782 0.02666 0.0
C501 C 0.79212 0.9794 0.00797 0.0
C502 C 0.82937 0.9517 0.03682 0.0
C503 C 0.85375 0.90698 0.0284 0.0
C504 C 0.84288 0.8959 0.01014 0.0
C505 C 0.81183 0.93151 5e-05 0.0
C506 C 0.93571 0.84039 0.06499 0.0
C507 C 0.98756 0.84435 0.05766 0.0
C508 C 0.89107 0.85813 0.05513 0.0
C509 C 0.89791 0.87865 0.0377 0.0
C510 C 0.94951 0.8791 0.03 0.0
C511 C 0.99411 0.86276 0.04001 0.0
H512 H 0.84849 0.92788 0.78391 0.0
H513 H 0.95188 0.94946 0.73773 0.0
H514 H 0.90961 0.98287 0.80234 0.0
H515 H 0.01144 1.00633 0.75608 0.0
H516 H 0.05645 0.0802 0.82854 0.0
H517 H 0.02545 0.99991 0.81159 0.0
H518 H 0.95893 0.10229 0.77045 0.0
H519 H 0.98773 0.18198 0.78762 0.0
C520 C 0.88526 0.94241 0.77786 0.0
C521 C 0.89476 0.93527 0.75926 0.0
C522 C 0.92016 0.97398 0.78843 0.0
C523 C 0.96469 0.999 0.7805 0.0
C524 C 0.9772 0.9874 0.76242 0.0
C525 C 0.94291 0.9552 0.75195 0.0
C526 C 0.03618 0.08518 0.81568 0.0
C527 C 0.02435 0.13691 0.80928 0.0
C528 C 0.01843 0.03951 0.80608 0.0
C529 C 0.99026 0.0453 0.78974 0.0
C530 C 0.98114 0.097 0.78294 0.0
C531 C 0.99741 0.14244 0.79274 0.0
H532 H 0.89658 0.06066 0.42067 0.0
H533 H 0.86811 0.92749 0.45626 0.0
H534 H 0.82587 0.02759 0.40037 0.0
H535 H 0.79829 0.89361 0.43586 0.0
H536 H 0.6539 0.8558 0.40366 0.0
H537 H 0.70817 0.91177 0.42432 0.0
H538 H 0.81242 0.95337 0.37998 0.0
H539 H 0.75801 0.89874 0.35967 0.0
C540 C 0.87589 0.02369 0.42392 0.0
C541 C 0.88811 0.99619 0.43987 0.0
C542 C 0.83504 1.00508 0.41243 0.0
C543 C 0.80586 0.95841 0.41664 0.0
C544 C 0.81889 0.9305 0.43247 0.0
C545 C 0.85946 0.9493 0.44399 0.0
C546 C 0.68692 0.87907 0.3983 0.0
C547 C 0.70209 0.87312 0.38018 0.0
C548 C 0.71852 0.91031 0.41011 0.0
C549 C 0.76534 0.93598 0.40385 0.0
C550 C 0.77671 0.93438 0.38529 0.0
C551 C 0.74543 0.90314 0.3736 0.0
H552 H 0.94613 0.06329 0.20825 0.0
H553 H 0.83446 0.09281 0.16454 0.0
H554 H 1.00069 1.00724 0.18801 0.0
H555 H 0.89033 0.03856 0.14427 0.0
H556 H 0.02686 0.93432 0.11487 0.0
H557 H 1.00208 0.01558 0.1324 0.0
H558 H 0.93908 0.91539 0.17455 0.0
H559 H 0.96209 0.83472 0.15688 0.0
C560 C 0.93446 0.05966 0.19416 0.0
C561 C 0.88526 0.0811 0.18809 0.0
C562 C 0.96583 0.02794 0.18262 0.0
C563 C 0.94902 0.01842 0.16477 0.0
C564 C 0.90399 0.04578 0.15801 0.0
C565 C 0.87211 0.07689 0.16963 0.0
C566 C 1.00828 0.93003 0.12799 0.0
C567 C 0.99613 0.87877 0.13465 0.0
C568 C 0.99428 0.9762 0.13793 0.0
C569 C 0.96962 0.97123 0.15483 0.0
C570 C 0.95896 0.91989 0.16165 0.0
C571 C 0.97154 0.87397 0.15153 0.0
H572 H 0.81332 0.17647 0.95679 0.0
H573 H 0.82272 1.00609 0.94448 0.0
H574 H 0.87518 0.19456 0.93204 0.0
H575 H 0.88599 0.0243 0.9202 0.0
H576 H 0.95765 0.20357 0.87635 0.0
H577 H 0.88471 0.18349 0.89733 0.0
H578 H 0.98299 0.06053 0.92159 0.0
H579 H 0.05621 0.08143 0.90091 0.0
C580 C 0.82768 0.143 0.94861 0.0
C581 C 0.8137 0.08976 0.95278 0.0
C582 C 0.86327 0.15337 0.93451 0.0
C583 C 0.88585 0.11067 0.92446 0.0
C584 C 0.86983 0.05777 0.92799 0.0
C585 C 0.83375 0.04745 0.94191 0.0
C586 C 0.96397 0.17318 0.88639 0.0
C587 C 0.01309 0.14536 0.88733 0.0
C588 C 0.92219 0.16139 0.89825 0.0
C589 C 0.9286 0.12102 0.91113 0.0
C590 C 0.97699 0.09174 0.91169 0.0
C591 C 0.01888 0.1038 0.89989 0.0
H592 H 0.69706 0.98436 0.71439 0.0
H593 H 0.86042 0.97567 0.6948 0.0
H594 H 0.67628 0.05275 0.69197 0.0
H595 H 0.8399 0.04475 0.67255 0.0
H596 H 0.74396 0.10242 0.6208 0.0
H597 H 0.78228 0.04905 0.64507 0.0
H598 H 0.69964 0.14878 0.68439 0.0
H599 H 0.66128 0.20246 0.65989 0.0
C600 C 0.72833 0.99674 0.70517 0.0
C601 C 0.78018 0.97442 0.70621 0.0
C602 C 0.71677 0.0366 0.69259 0.0
C603 C 0.75674 0.05466 0.68071 0.0
C604 C 0.8084 0.03176 0.68159 0.0
C605 C 0.82006 0.99219 0.69426 0.0
C606 C 0.73589 0.11425 0.63468 0.0
C607 C 0.6999 0.15639 0.63857 0.0
C608 C 0.75762 0.08362 0.64857 0.0
C609 C 0.74311 0.09418 0.66658 0.0
C610 C 0.71079 0.13936 0.67057 0.0
C611 C 0.68956 0.17057 0.65662 0.0
H612 H 0.68402 0.40078 0.93525 0.0
H613 H 0.80043 0.39526 -0.02139 0.0
H614 H 0.75187 0.36549 0.91425 0.0
H615 H 0.86792 0.35954 0.95783 0.0
H616 H 0.9862 0.38184 0.90974 0.0
H617 H 0.91899 0.3985 0.93313 0.0
H618 H 0.80941 0.2892 0.90599 0.0
H619 H 0.87549 0.27377 0.88242 0.0
C620 C 0.72372 0.39085 0.94032 0.0
C621 C 0.73733 0.40144 0.95841 0.0
C622 C 0.76261 0.37064 0.92836 0.0
C623 C 0.81558 0.36046 0.93435 0.0
C624 C 0.82794 0.36808 0.95272 0.0
C625 C 0.78926 0.3883 0.96461 0.0
C626 C 0.94814 0.3607 0.90891 0.0
C627 C 0.93635 0.32669 0.89412 0.0
C628 C 0.90962 0.37009 0.92235 0.0
C629 C 0.85857 0.34557 0.92129 0.0
C630 C 0.8479 0.30947 0.90702 0.0
C631 C 0.88619 0.30027 0.89359 0.0
H632 H 0.76949 0.34735 0.16367 0.0
H633 H 0.90714 0.35976 0.1992 0.0
H634 H 0.81313 0.40815 0.14239 0.0
H635 H 0.95098 0.42003 0.17796 0.0
H636 H 0.02641 0.50385 0.12966 0.0
H637 H 0.98757 0.42777 0.14566 0.0
H638 H 0.83381 0.50889 0.14713 0.0
H639 H 0.87238 0.58505 0.13127 0.0
C640 C 0.80974 0.36183 0.16662 0.0
C641 C 0.83514 0.34918 0.18299 0.0
C642 C 0.83444 0.39684 0.15457 0.0
C643 C 0.88517 0.41897 0.15864 0.0
C644 C 0.91204 0.40325 0.17445 0.0
C645 C 0.88702 0.36895 0.18659 0.0
C646 C 0.98421 0.50528 0.13328 0.0
C647 C 0.95253 0.55064 0.12932 0.0
C648 C 0.9621 0.46177 0.14243 0.0
C649 C 0.90771 0.46244 0.14751 0.0
C650 C 0.87569 0.50708 0.14314 0.0
C651 C 0.89794 0.55089 0.13423 0.0
H652 H 0.91761 0.60628 0.47654 0.0
H653 H 0.05747 0.60135 0.44207 0.0
H654 H 0.85962 0.61436 0.45021 0.0
H655 H 0.99879 0.61001 0.41542 0.0
H656 H 0.8652 0.68524 0.37673 0.0
H657 H 0.93231 0.67457 0.40067 0.0
H658 H 0.83386 0.55238 0.42499 0.0
H659 H 0.76672 0.56308 0.40132 0.0
C660 C 0.93596 0.60685 0.46328 0.0
C661 C 0.99203 0.60215 0.46134 0.0
C662 C 0.9027 0.61133 0.44819 0.0
C663 C 0.92455 0.61158 0.43073 0.0
C664 C 0.98086 0.60963 0.42874 0.0
C665 C 0.01438 0.60488 0.44395 0.0
C666 C 0.85824 0.65544 0.38701 0.0
C667 C 0.81009 0.62553 0.3872 0.0
C668 C 0.8968 0.64932 0.4007 0.0
C669 C 0.88785 0.61337 0.41486 0.0
C670 C 0.84131 0.58127 0.41445 0.0
C671 C 0.80294 0.58722 0.40079 0.0
H672 H 0.65937 0.66052 0.71347 0.0
H673 H 0.82519 0.61375 0.70559 0.0
H674 H 0.63085 0.58962 0.69221 0.0
H675 H 0.79691 0.54317 0.6845 0.0
H676 H 0.73064 0.38757 0.66237 0.0
H677 H 0.74956 0.45626 0.68545 0.0
H678 H 0.63594 0.56353 0.66012 0.0
H679 H 0.61701 0.49542 0.6372 0.0
C680 C 0.68974 0.63582 0.70693 0.0
C681 C 0.7445 0.64257 0.71124 0.0
C682 C 0.67342 0.59493 0.69489 0.0
C683 C 0.71156 0.56 0.68697 0.0
C684 C 0.7664 0.56832 0.69076 0.0
C685 C 0.78265 0.60911 0.7027 0.0
C686 C 0.70889 0.42535 0.66193 0.0
C687 C 0.67242 0.43585 0.64785 0.0
C688 C 0.72009 0.46493 0.67506 0.0
C689 C 0.69486 0.51571 0.67444 0.0
C690 C 0.65599 0.5249 0.66104 0.0
C691 C 0.64508 0.4856 0.64788 0.0
H692 H 0.73195 0.59709 -0.01536 0.0
H693 H 0.71573 0.48801 0.02916 0.0
H694 H 0.80251 0.64637 0.00125 0.0
H695 H 0.78684 0.53641 0.04557 0.0
H696 H 0.96577 0.57642 0.05288 0.0
H697 H 0.89106 0.54145 0.03473 0.0
H698 H 0.81932 0.6996 0.03368 0.0
H699 H 0.8936 0.73473 0.0522 0.0
C700 C 0.74215 0.58504 -0.00175 0.0
C701 C 0.71816 0.53924 0.00576 0.0
C702 C 0.78274 0.6128 0.00764 0.0
C703 C 0.80061 0.59437 0.02447 0.0
C704 C 0.77409 0.55086 0.03248 0.0
C705 C 0.73289 0.52376 0.02325 0.0
C706 C 0.93505 0.60418 0.04834 0.0
C707 C 0.93551 0.65831 0.05405 0.0
C708 C 0.89191 0.58397 0.03818 0.0
C709 C 0.84903 0.61769 0.03323 0.0
C710 C 0.85173 0.67278 0.03751 0.0
C711 C 0.89439 0.69285 0.04799 0.0
H712 H 0.66388 0.35152 0.24048 0.0
H713 H 0.83248 0.38569 0.24893 0.0
H714 H 0.6403 0.42076 0.26284 0.0
H715 H 0.80924 0.45418 0.2715 0.0
H716 H 0.75164 0.61271 0.29477 0.0
H717 H 0.76941 0.54334 0.27191 0.0
H718 H 0.64437 0.44423 0.2945 0.0
H719 H 0.62577 0.51362 0.31697 0.0
C720 C 0.69588 0.3729 0.24749 0.0
C721 C 0.74996 0.36339 0.243 0.0
C722 C 0.68244 0.41277 0.2602 0.0
C723 C 0.72289 0.44366 0.26872 0.0
C724 C 0.77707 0.43216 0.26482 0.0
C725 C 0.79044 0.39256 0.25208 0.0
C726 C 0.72742 0.57649 0.29468 0.0
C727 C 0.68761 0.56865 0.30781 0.0
C728 C 0.73797 0.53647 0.28171 0.0
C729 C 0.70891 0.48784 0.28158 0.0
C730 C 0.66742 0.48117 0.29417 0.0
C731 C 0.6569 0.52106 0.30711 0.0
H732 H 0.99238 0.44423 0.50018 0.0
H733 H 0.02748 0.561 0.5424 0.0
H734 H 0.93338 0.39628 0.52079 0.0
H735 H 0.96976 0.51176 0.5631 0.0
H736 H 0.86781 0.37965 0.59459 0.0
H737 H 0.94693 0.40895 0.57741 0.0
H738 H 0.84352 0.45117 0.53278 0.0
H739 H 0.76497 0.42353 0.54985 0.0
C740 C 0.98869 0.45874 0.51399 0.0
C741 C 0.0134 0.50703 0.51957 0.0
C742 C 0.95533 0.43114 0.52576 0.0
C743 C 0.94694 0.45094 0.54335 0.0
C744 C 0.97606 0.49579 0.54958 0.0
C745 C 0.00905 0.52384 0.53773 0.0
C746 C 0.86222 0.39529 0.58111 0.0
C747 C 0.81037 0.39973 0.57356 0.0
C748 C 0.90727 0.41179 0.57135 0.0
C749 C 0.90091 0.43137 0.55378 0.0
C750 C 0.84924 0.43536 0.54623 0.0
C751 C 0.80436 0.42013 0.55607 0.0
H752 H 0.91203 0.65489 0.75303 0.0
H753 H 0.77537 0.66602 0.78869 0.0
H754 H 0.95754 0.59536 0.77437 0.0
H755 H 0.82038 0.60554 0.80993 0.0
H756 H 0.88181 0.42514 0.81743 0.0
H757 H 0.84251 0.50305 0.80252 0.0
H758 H 0.99287 0.58849 0.80834 0.0
H759 H 0.03225 0.51076 0.8236 0.0
C760 C 0.89261 0.64574 0.76571 0.0
C761 C 0.84056 0.6648 0.76937 0.0
C762 C 0.91851 0.61189 0.77788 0.0
C763 C 0.89216 0.59585 0.79367 0.0
C764 C 0.8413 0.61741 0.79779 0.0
C765 C 0.81581 0.65209 0.78577 0.0
C766 C 0.90636 0.46068 0.81567 0.0
C767 C 0.96013 0.46185 0.82157 0.0
C768 C 0.88372 0.50537 0.80732 0.0
C769 C 0.9147 0.55165 0.80444 0.0
C770 C 0.96826 0.55321 0.81051 0.0
C771 C 0.99064 0.50884 0.8192 0.0
H772 H 0.38646 0.59594 -0.00539 0.0
H773 H 0.41482 0.46359 0.03068 0.0
H774 H 0.31804 0.63169 0.01506 0.0
H775 H 0.3462 0.49932 0.05121 0.0
H776 H 0.27265 0.62896 0.09083 0.0
H777 H 0.33175 0.57714 0.07114 0.0
H778 H 0.22646 0.60918 0.02591 0.0
H779 H 0.16707 0.6618 0.04588 0.0
C780 C 0.37838 0.57485 0.00703 0.0
C781 C 0.40612 0.52716 0.0111 0.0
C782 C 0.33866 0.59482 0.0186 0.0
C783 C 0.32587 0.56765 0.03454 0.0
C784 C 0.35506 0.52105 0.03898 0.0
C785 C 0.39481 0.50097 0.02736 0.0
C786 C 0.26109 0.62323 0.07681 0.0
C787 C 0.21546 0.64929 0.06982 0.0
C788 C 0.29505 0.59364 0.06551 0.0
C789 C 0.28433 0.58993 0.04692 0.0
C790 C 0.23618 0.61225 0.04017 0.0
C791 C 0.20175 0.64158 0.05159 0.0
H792 H 0.32602 0.60675 0.77582 0.0
H793 H 0.4376 0.47953 0.76202 0.0
H794 H 0.27439 0.54377 0.79402 0.0
H795 H 0.38538 0.41619 0.77982 0.0
H796 H 0.28775 0.33053 0.82599 0.0
H797 H 0.35095 0.38994 0.81023 0.0
H798 H 0.21677 0.46842 0.78412 0.0
H799 H 0.15463 0.4101 0.79992 0.0
C800 C 0.34018 0.56569 0.77705 0.0
C801 C 0.38532 0.54784 0.76737 0.0
C802 C 0.31033 0.52941 0.78725 0.0
C803 C 0.32516 0.47468 0.78798 0.0
C804 C 0.37279 0.45792 0.77947 0.0
C805 C 0.40253 0.49415 0.76924 0.0
C806 C 0.27231 0.35935 0.8164 0.0
C807 C 0.21663 0.36565 0.81397 0.0
C808 C 0.30822 0.39374 0.80757 0.0
C809 C 0.28865 0.43485 0.79634 0.0
C810 C 0.23305 0.43834 0.79311 0.0
C811 C 0.19752 0.40433 0.80188 0.0
H812 H 0.28295 0.53925 0.53678 0.0
H813 H 0.31069 0.44351 0.48849 0.0
H814 H 0.33907 0.47711 0.55403 0.0
H815 H 0.36878 0.38337 0.50565 0.0
H816 H 0.53861 0.38916 0.53953 0.0
H817 H 0.46314 0.42465 0.52201 0.0
H818 H 0.35176 0.36361 0.56135 0.0
H819 H 0.42772 0.32602 0.57864 0.0
C820 C 0.29973 0.50435 0.52992 0.0
C821 C 0.29318 0.49709 0.51115 0.0
C822 C 0.33186 0.46884 0.53981 0.0
C823 C 0.35828 0.42588 0.53107 0.0
C824 C 0.34889 0.41642 0.51263 0.0
C825 C 0.31611 0.45123 0.50282 0.0
C826 C 0.49791 0.38203 0.54413 0.0
C827 C 0.48866 0.35476 0.56029 0.0
C828 C 0.45486 0.40223 0.53415 0.0
C829 C 0.40192 0.39679 0.54041 0.0
C830 C 0.39235 0.36806 0.5563 0.0
C831 C 0.43555 0.34642 0.56607 0.0
H832 H 0.44518 0.44369 0.2387 0.0
H833 H 0.33605 0.42188 0.28335 0.0
H834 H 0.50392 0.49796 0.25821 0.0
H835 H 0.39611 0.47426 0.3029 0.0
H836 H 0.47554 0.67346 0.28878 0.0
H837 H 0.45034 0.59315 0.27135 0.0
H838 H 0.50854 0.49243 0.31432 0.0
H839 H 0.53596 0.57351 0.33161 0.0
C840 C 0.43483 0.44863 0.25283 0.0
C841 C 0.38527 0.42973 0.25936 0.0
C842 C 0.46864 0.47931 0.26398 0.0
C843 C 0.45405 0.49041 0.28192 0.0
C844 C 0.40825 0.46574 0.28911 0.0
C845 C 0.37391 0.4357 0.27789 0.0
C846 C 0.48396 0.63414 0.29431 0.0
C847 C 0.50749 0.62928 0.31144 0.0
C848 C 0.46996 0.58834 0.28433 0.0
C849 C 0.47797 0.53693 0.29151 0.0
C850 C 0.50254 0.5318 0.30852 0.0
C851 C 0.5181 0.57789 0.31833 0.0
H852 H 0.39781 0.52782 0.94244 0.0
H853 H 0.4142 0.35993 0.95568 0.0
H854 H 0.32787 0.50502 0.92021 0.0
H855 H 0.34448 0.33703 0.93348 0.0
H856 H 0.18209 0.31618 0.90884 0.0
H857 H 0.24325 0.35452 0.93163 0.0
H858 H 0.31674 0.45256 0.89078 0.0
H859 H 0.25589 0.4139 0.86811 0.0
C860 C 0.38733 0.48593 0.94022 0.0
C861 C 0.4116 0.44552 0.95062 0.0
C862 C 0.34707 0.47298 0.92767 0.0
C863 C 0.32988 0.41947 0.92548 0.0
C864 C 0.35607 0.3788 0.93523 0.0
C865 C 0.39674 0.39169 0.94764 0.0
C866 C 0.20938 0.348 0.905 0.0
C867 C 0.21409 0.36268 0.88686 0.0
C868 C 0.24512 0.36908 0.91791 0.0
C869 C 0.28552 0.4055 0.91283 0.0
C870 C 0.28613 0.42449 0.89506 0.0
C871 C 0.25093 0.4029 0.88214 0.0
H872 H 0.52928 0.5765 0.70238 0.0
H873 H 0.35857 0.54464 0.70156 0.0
H874 H 0.54133 0.51566 0.67645 0.0
H875 H 0.37013 0.48466 0.67548 0.0
H876 H 0.43045 0.31915 0.65411 0.0
H877 H 0.41106 0.39506 0.67426 0.0
H878 H 0.52119 0.49423 0.64436 0.0
H879 H 0.54111 0.41772 0.62433 0.0
C880 C 0.49422 0.55786 0.69622 0.0
C881 C 0.44317 0.56448 0.70396 0.0
C882 C 0.501 0.52307 0.68142 0.0
C883 C 0.45671 0.49472 0.67418 0.0
C884 C 0.40507 0.50507 0.68105 0.0
C885 C 0.3984 0.53955 0.69585 0.0
C886 C 0.45022 0.35727 0.65179 0.0
C887 C 0.48832 0.36236 0.63799 0.0
C888 C 0.43892 0.40084 0.66322 0.0
C889 C 0.46507 0.45046 0.66093 0.0
C890 C 0.50155 0.45608 0.64667 0.0
C891 C 0.51312 0.41235 0.6353 0.0
H892 H 0.31572 0.52345 0.44799 0.0
H893 H 0.28057 0.69213 0.45706 0.0
H894 H 0.37297 0.54619 0.42299 0.0
H895 H 0.33341 0.71471 0.43066 0.0
H896 H 0.49739 0.73933 0.40327 0.0
H897 H 0.4234 0.72211 0.42385 0.0
H898 H 0.38701 0.57484 0.39429 0.0
H899 H 0.46416 0.59043 0.37482 0.0
C900 C 0.31948 0.56544 0.44445 0.0
C901 C 0.29473 0.606 0.45489 0.0
C902 C 0.35161 0.57854 0.42979 0.0
C903 C 0.35865 0.63253 0.42482 0.0
C904 C 0.33025 0.67281 0.43437 0.0
C905 C 0.29909 0.65976 0.44936 0.0
C906 C 0.47325 0.70343 0.40126 0.0
C907 C 0.48669 0.66555 0.38784 0.0
C908 C 0.43042 0.6937 0.4129 0.0
C909 C 0.39927 0.6466 0.41095 0.0
C910 C 0.41096 0.61064 0.39663 0.0
C911 C 0.45489 0.61956 0.3854 0.0
H912 H 0.19166 0.4908 0.21364 0.0
H913 H 0.35702 0.48311 0.19595 0.0
H914 H 0.1742 0.56282 0.19229 0.0
H915 H 0.34004 0.5564 0.17501 0.0
H916 H 0.25289 0.62235 0.12303 0.0
H917 H 0.28927 0.56752 0.14714 0.0
H918 H 0.19525 0.65801 0.18607 0.0
H919 H 0.15861 0.71289 0.16161 0.0
C920 C 0.22416 0.50422 0.20509 0.0
C921 C 0.27556 0.48091 0.20635 0.0
C922 C 0.21449 0.54629 0.19314 0.0
C923 C 0.25598 0.56593 0.18215 0.0
C924 C 0.30728 0.54228 0.18331 0.0
C925 C 0.31696 0.50029 0.19528 0.0
C926 C 0.24225 0.63229 0.13685 0.0
C927 C 0.20343 0.67197 0.14054 0.0
C928 C 0.26274 0.60061 0.15069 0.0
C929 C 0.24426 0.60766 0.16848 0.0
C930 C 0.20947 0.65106 0.17242 0.0
C931 C 0.1893 0.68317 0.15852 0.0
loop_
_geom_bond_atom_site_label_1
_geom_bond_atom_site_label_2
_geom_bond_distance
_geom_bond_site_symmetry_2
_ccdc_geom_bond_type
H0 C8 0.930 . S
H1 C11 0.930 . S
H2 C13 0.930 1_565 S
H3 C14 0.970 . S
H4 C14 0.970 . S
H5 C16 0.930 1_565 S
H6 C18 0.930 . S
H7 C20 0.930 . S
C8 H0 0.930 . S
C8 C9 1.382 1_545 S
C8 C10 1.426 . S
C9 C8 1.382 1_565 S
C9 C13 1.389 1_565 S
C10 C8 1.426 . S
C10 C11 1.375 . S
C10 C14 1.532 1_655 S
C11 H1 0.930 . S
C11 C10 1.375 . S
C11 C12 1.416 . S
C12 C11 1.416 . S
C12 C13 1.371 . S
C13 H2 0.930 1_545 S
C13 C9 1.389 1_545 S
C13 C12 1.371 . S
C14 H3 0.970 . S
C14 H4 0.970 . S
C14 C10 1.532 1_455 S
C14 C15 1.499 . S
C15 C14 1.499 . S
C15 C16 1.370 . S
C15 C20 1.415 . S
C16 H5 0.930 1_545 S
C16 C15 1.370 . S
C16 C17 1.407 1_545 S
C17 C16 1.407 1_565 S
C17 C18 1.364 . S
C18 H6 0.930 . S
C18 C17 1.364 . S
C18 C19 1.394 1_565 S
C19 C18 1.394 1_545 S
C19 C20 1.387 . S
C20 H7 0.930 . S
C20 C15 1.415 . S
C20 C19 1.387 . S
H21 C29 0.930 . S
H22 C32 0.930 . S
H23 C34 0.930 . S
H24 C35 0.970 . S
H25 C35 0.970 . S
H26 C37 0.930 . S
H27 C39 0.930 . S
H28 C41 0.930 . S
C29 H21 0.930 . S
C29 C30 1.382 . S
C29 C31 1.426 . S
C30 C29 1.382 . S
C30 C34 1.389 . S
C31 C29 1.426 . S
C31 C32 1.375 . S
C31 C35 1.532 . S
C32 H22 0.930 . S
C32 C31 1.375 . S
C32 C33 1.416 . S
C33 C32 1.416 . S
C33 C34 1.371 . S
C34 H23 0.930 . S
C34 C30 1.389 . S
C34 C33 1.371 . S
C35 H24 0.970 . S
C35 H25 0.970 . S
C35 C31 1.532 . S
C35 C36 1.499 . S
C36 C35 1.499 . S
C36 C37 1.370 . S
C36 C41 1.415 . S
C37 H26 0.930 . S
C37 C36 1.370 . S
C37 C38 1.407 . S
C38 C37 1.407 . S
C38 C39 1.365 . S
C39 H27 0.930 . S
C39 C38 1.365 . S
C39 C40 1.393 . S
C40 C39 1.393 . S
C40 C41 1.387 . S
C41 H28 0.930 . S
C41 C36 1.415 . S
C41 C40 1.387 . S
H42 C50 0.930 1_565 S
H43 C53 0.930 . S
H44 C55 0.914 1_556 S
H45 C56 0.970 . S
H46 C56 0.970 . S
H47 C58 0.930 1_565 S
H48 C60 0.932 . S
H49 C62 0.930 . S
C50 H42 0.930 1_545 S
C50 C51 1.382 1_545 S
C50 C52 1.426 . S
C51 C50 1.382 1_565 S
C51 C55 1.441 . S
C52 C50 1.426 . S
C52 C53 1.375 1_554 S
C52 C56 1.532 . S
C53 H43 0.930 . S
C53 C52 1.375 1_556 S
C53 C54 1.416 . S
C54 C53 1.416 . S
C54 C55 1.338 1_546 S
C55 H44 0.914 1_554 S
C55 C51 1.441 . S
C55 C54 1.338 1_564 S
C56 H45 0.970 . S
C56 H46 0.970 . S
C56 C52 1.532 . S
C56 C57 1.499 . S
C57 C56 1.499 . S
C57 C58 1.370 . S
C57 C62 1.415 1_554 S
C58 H47 0.930 1_545 S
C58 C57 1.370 . S
C58 C59 1.407 1_545 S
C59 C58 1.407 1_565 S
C59 C60 1.359 1_554 S
C60 H48 0.932 . S
C60 C59 1.359 1_556 S
C60 C61 1.397 1_565 S
C61 C60 1.397 1_545 S
C61 C62 1.387 . S
C62 H49 0.930 . S
C62 C57 1.415 1_556 S
C62 C61 1.387 . S
H63 C71 0.930 . S
H64 C74 0.930 . S
H65 C76 0.930 . S
H66 C77 0.970 . S
H67 C77 0.970 . S
H68 C79 0.930 . S
H69 C81 0.930 . S
H70 C83 0.930 . S
C71 H63 0.930 . S
C71 C72 1.382 . S
C71 C73 1.426 . S
C72 C71 1.382 . S
C72 C76 1.389 . S
C73 C71 1.426 . S
C73 C74 1.375 . S
C73 C77 1.532 . S
C74 H64 0.930 . S
C74 C73 1.375 . S
C74 C75 1.416 . S
C75 C74 1.416 . S
C75 C76 1.371 . S
C76 H65 0.930 . S
C76 C72 1.389 . S
C76 C75 1.371 . S
C77 H66 0.970 . S
C77 H67 0.970 . S
C77 C73 1.532 . S
C77 C78 1.499 . S
C78 C77 1.499 . S
C78 C79 1.370 . S
C78 C83 1.415 . S
C79 H68 0.930 . S
C79 C78 1.370 . S
C79 C80 1.407 . S
C80 C79 1.407 . S
C80 C81 1.365 . S
C81 H69 0.930 . S
C81 C80 1.365 . S
C81 C82 1.393 . S
C82 C81 1.393 . S
C82 C83 1.387 . S
C83 H70 0.930 . S
C83 C78 1.415 . S
C83 C82 1.387 . S
H84 C92 0.930 . S
H85 C95 0.930 . S
H86 C97 0.930 . S
H87 C98 0.970 . S
H88 C98 0.970 . S
H89 C100 0.930 . S
H90 C102 0.930 . S
H91 C104 0.930 . S
C92 H84 0.930 . S
C92 C93 1.382 . S
C92 C94 1.426 . S
C93 C92 1.382 . S
C93 C97 1.389 . S
C94 C92 1.426 . S
C94 C95 1.375 . S
C94 C98 1.532 . S
C95 H85 0.930 . S
C95 C94 1.375 . S
C95 C96 1.416 . S
C96 C95 1.416 . S
C96 C97 1.371 . S
C97 H86 0.930 . S
C97 C93 1.389 . S
C97 C96 1.371 . S
C98 H87 0.970 . S
C98 H88 0.970 . S
C98 C94 1.532 . S
C98 C99 1.499 . S
C99 C98 1.499 . S
C99 C100 1.370 . S
C99 C104 1.415 . S
C100 H89 0.930 . S
C100 C99 1.370 . S
C100 C101 1.407 . S
C101 C100 1.407 . S
C101 C102 1.365 . S
C102 H90 0.930 . S
C102 C101 1.365 . S
C102 C103 1.393 . S
C103 C102 1.393 . S
C103 C104 1.387 . S
C104 H91 0.930 . S
C104 C99 1.415 . S
C104 C103 1.387 . S
H105 C113 0.930 . S
H106 C116 0.930 . S
H107 C118 0.930 . S
H108 C119 0.970 . S
H109 C119 0.970 . S
H110 C121 0.930 . S
H111 C123 0.930 . S
H112 C125 0.930 . S
C113 H105 0.930 . S
C113 C114 1.382 . S
C113 C115 1.426 . S
C114 C113 1.382 . S
C114 C118 1.389 . S
C115 C113 1.426 . S
C115 C116 1.375 . S
C115 C119 1.532 . S
C116 H106 0.930 . S
C116 C115 1.375 . S
C116 C117 1.416 . S
C117 C116 1.416 . S
C117 C118 1.371 . S
C118 H107 0.930 . S
C118 C114 1.389 . S
C118 C117 1.371 . S
C119 H108 0.970 . S
C119 H109 0.970 . S
C119 C115 1.532 . S
C119 C120 1.499 . S
C120 C119 1.499 . S
C120 C121 1.370 . S
C120 C125 1.415 . S
C121 H110 0.930 . S
C121 C120 1.370 . S
C121 C122 1.407 . S
C122 C121 1.407 . S
C122 C123 1.365 . S
C123 H111 0.930 . S
C123 C122 1.365 . S
C123 C124 1.393 . S
C124 C123 1.393 . S
C124 C125 1.387 . S
C125 H112 0.930 . S
C125 C120 1.415 . S
C125 C124 1.387 . S
H126 C134 0.930 . S
H127 C137 0.930 . S
H128 C139 0.930 1_556 S
H129 C140 0.970 . S
H130 C140 0.970 . S
H131 C142 0.930 . S
H132 C144 0.925 1_556 S
H133 C146 0.930 . S
C134 H126 0.930 . S
C134 C135 1.382 . S
C134 C136 1.426 . S
C135 C134 1.382 . S
C135 C139 1.389 . S
C136 C134 1.426 . S
C136 C137 1.375 1_554 S
C136 C140 1.532 . S
C137 H127 0.930 . S
C137 C136 1.375 1_556 S
C137 C138 1.416 . S
C138 C137 1.416 . S
C138 C139 1.371 1_556 S
C139 H128 0.930 1_554 S
C139 C135 1.389 . S
C139 C138 1.371 1_554 S
C140 H129 0.970 . S
C140 H130 0.970 . S
C140 C136 1.532 . S
C140 C141 1.499 . S
C141 C140 1.499 . S
C141 C142 1.370 . S
C141 C146 1.415 1_554 S
C142 H131 0.930 . S
C142 C141 1.370 . S
C142 C143 1.407 . S
C143 C142 1.407 . S
C143 C144 1.377 . S
C144 H132 0.925 1_554 S
C144 C143 1.377 . S
C144 C145 1.386 1_554 S
C145 C144 1.386 1_556 S
C145 C146 1.387 . S
C146 H133 0.930 . S
C146 C141 1.415 1_556 S
C146 C145 1.387 . S
H147 C155 0.930 . S
H148 C158 0.930 . S
H149 C160 0.930 . S
H150 C161 0.970 . S
H151 C161 0.970 . S
H152 C163 0.930 . S
H153 C165 0.930 1_655 S
H154 C167 0.930 . S
C155 H147 0.930 . S
C155 C156 1.382 . S
C155 C157 1.426 . S
C156 C155 1.382 . S
C156 C160 1.389 . S
C157 C155 1.426 . S
C157 C158 1.375 . S
C157 C161 1.532 . S
C158 H148 0.930 . S
C158 C157 1.375 . S
C158 C159 1.416 . S
C159 C158 1.416 . S
C159 C160 1.371 . S
C160 H149 0.930 . S
C160 C156 1.389 . S
C160 C159 1.371 . S
C161 H150 0.970 . S
C161 H151 0.970 . S
C161 C157 1.532 . S
C161 C162 1.499 . S
C162 C161 1.499 . S
C162 C163 1.370 . S
C162 C167 1.415 . S
C163 H152 0.930 . S
C163 C162 1.370 . S
C163 C164 1.407 . S
C164 C163 1.407 . S
C164 C165 1.365 . S
C165 H153 0.930 1_455 S
C165 C164 1.365 . S
C165 C166 1.393 . S
C166 C165 1.393 . S
C166 C167 1.387 . S
C167 H154 0.930 . S
C167 C162 1.415 . S
C167 C166 1.387 . S
C168 O195 1.312 . S
C168 O196 1.208 . S
C169 O190 1.331 1_655 S
C169 O193 1.244 . S
C170 O192 1.264 1_655 S
C170 O194 1.273 . S
Mg171 O173 1.936 . S
Mg171 O180 2.081 . S
Mg171 O182 2.023 . S
Mg171 O186 2.031 . S
Mg171 O195 2.291 . S
Mg172 O173 1.963 . S
Mg172 O183 1.942 . S
Mg172 O184 1.955 . S
Mg172 O191 1.986 . S
O173 Mg171 1.936 . S
O173 Mg172 1.963 . S
O173 Mg174 1.915 . S
Mg174 O173 1.915 . S
Mg174 O175 1.915 . S
Mg174 O179 2.013 . S
Mg174 O185 2.114 . S
Mg174 O189 2.013 . S
Mg174 O195 2.114 . S
O175 Mg174 1.915 . S
O175 Mg176 1.936 . S
O175 Mg177 1.963 1_455 S
Mg176 O175 1.936 . S
Mg176 O185 2.291 . S
Mg176 O190 2.081 . S
Mg176 O192 2.023 . S
Mg176 O196 2.031 . S
Mg177 O175 1.963 1_655 S
Mg177 O181 1.986 . S
Mg177 O193 1.942 . S
Mg177 O194 1.955 . S
C178 O189 1.191 . S
C178 O191 1.307 . S
O179 Mg174 2.013 . S
O179 C198 1.191 . S
O180 Mg171 2.081 . S
O180 C188 1.331 . S
O181 Mg177 1.986 . S
O181 C198 1.307 1_655 S
O182 Mg171 2.023 . S
O182 C197 1.264 . S
O183 Mg172 1.942 . S
O183 C188 1.244 . S
O184 Mg172 1.955 . S
O184 C197 1.273 . S
O185 Mg174 2.114 . S
O185 Mg176 2.291 . S
O185 C187 1.312 . S
O186 Mg171 2.031 . S
O186 C187 1.208 . S
C187 O185 1.312 . S
C187 O186 1.208 . S
C188 O180 1.331 . S
C188 O183 1.244 . S
O189 Mg174 2.013 . S
O189 C178 1.191 . S
O190 C169 1.331 1_455 S
O190 Mg176 2.081 . S
O191 Mg172 1.986 . S
O191 C178 1.307 . S
O192 C170 1.264 1_455 S
O192 Mg176 2.023 . S
O193 C169 1.244 . S
O193 Mg177 1.942 . S
O194 C170 1.273 . S
O194 Mg177 1.955 . S
O195 C168 1.312 . S
O195 Mg171 2.291 . S
O195 Mg174 2.114 . S
O196 C168 1.208 . S
O196 Mg176 2.031 . S
C197 O182 1.264 . S
C197 O184 1.273 . S
C198 O179 1.191 . S
C198 O181 1.307 1_455 S
C199 O226 1.312 . S
C199 O227 1.208 . S
C200 O221 1.331 . S
C200 O224 1.244 . S
C201 O223 1.264 . S
C201 O225 1.273 . S
Mg202 O204 1.936 . S
Mg202 O211 2.081 . S
Mg202 O213 2.023 . S
Mg202 O217 2.031 . S
Mg202 O226 2.291 . S
Mg203 O204 1.963 . S
Mg203 O214 1.942 . S
Mg203 O215 1.955 . S
Mg203 O222 1.986 . S
O204 Mg202 1.936 . S
O204 Mg203 1.963 . S
O204 Mg205 1.915 . S
Mg205 O204 1.915 . S
Mg205 O206 1.915 . S
Mg205 O210 2.013 . S
Mg205 O216 2.114 . S
Mg205 O220 2.013 . S
Mg205 O226 2.114 . S
O206 Mg205 1.915 . S
O206 Mg207 1.936 . S
O206 Mg208 1.963 . S
Mg207 O206 1.936 . S
Mg207 O216 2.291 . S
Mg207 O221 2.081 . S
Mg207 O223 2.023 . S
Mg207 O227 2.031 . S
Mg208 O206 1.963 . S
Mg208 O212 1.986 . S
Mg208 O224 1.942 . S
Mg208 O225 1.955 . S
C209 O220 1.191 . S
C209 O222 1.307 . S
O210 Mg205 2.013 . S
O210 C229 1.191 . S
O211 Mg202 2.081 . S
O211 C219 1.331 . S
O212 Mg208 1.986 . S
O212 C229 1.307 . S
O213 Mg202 2.023 . S
O213 C228 1.264 . S
O214 Mg203 1.942 . S
O214 C219 1.244 . S
O215 Mg203 1.955 . S
O215 C228 1.273 . S
O216 Mg205 2.114 . S
O216 Mg207 2.291 . S
O216 C218 1.312 . S
O217 Mg202 2.031 . S
O217 C218 1.208 . S
C218 O216 1.312 . S
C218 O217 1.208 . S
C219 O211 1.331 . S
C219 O214 1.244 . S
O220 Mg205 2.013 . S
O220 C209 1.191 . S
O221 C200 1.331 . S
O221 Mg207 2.081 . S
O222 Mg203 1.986 . S
O222 C209 1.307 . S
O223 C201 1.264 . S
O223 Mg207 2.023 . S
O224 C200 1.244 . S
O224 Mg208 1.942 . S
O225 C201 1.273 . S
O225 Mg208 1.955 . S
O226 C199 1.312 . S
O226 Mg202 2.291 . S
O226 Mg205 2.114 . S
O227 C199 1.208 . S
O227 Mg207 2.031 . S
C228 O213 1.264 . S
C228 O215 1.273 . S
C229 O210 1.191 . S
C229 O212 1.307 . S
C230 O257 1.312 . S
C230 O258 1.208 . S
C231 O252 1.331 . S
C231 O255 1.244 . S
C232 O254 1.264 . S
C232 O256 1.273 . S
Mg233 O235 1.936 . S
Mg233 O242 2.081 . S
Mg233 O244 2.023 . S
Mg233 O248 2.031 . S
Mg233 O257 2.291 . S
Mg234 O235 1.963 . S
Mg234 O245 1.942 . S
Mg234 O246 1.955 . S
Mg234 O253 1.986 . S
O235 Mg233 1.936 . S
O235 Mg234 1.963 . S
O235 Mg236 1.915 . S
Mg236 O235 1.915 . S
Mg236 O237 1.915 . S
Mg236 O241 2.013 . S
Mg236 O247 2.114 . S
Mg236 O251 2.013 . S
Mg236 O257 2.114 . S
O237 Mg236 1.915 . S
O237 Mg238 1.936 . S
O237 Mg239 1.963 . S
Mg238 O237 1.936 . S
Mg238 O247 2.291 . S
Mg238 O252 2.081 . S
Mg238 O254 2.023 . S
Mg238 O258 2.031 . S
Mg239 O237 1.963 . S
Mg239 O243 1.986 . S
Mg239 O255 1.942 . S
Mg239 O256 1.955 . S
C240 O251 1.191 . S
C240 O253 1.307 . S
O241 Mg236 2.013 . S
O241 C260 1.191 . S
O242 Mg233 2.081 . S
O242 C250 1.331 . S
O243 Mg239 1.986 . S
O243 C260 1.307 . S
O244 Mg233 2.023 . S
O244 C259 1.264 . S
O245 Mg234 1.942 . S
O245 C250 1.244 . S
O246 Mg234 1.955 . S
O246 C259 1.273 . S
O247 Mg236 2.114 . S
O247 Mg238 2.291 . S
O247 C249 1.312 . S
O248 Mg233 2.031 . S
O248 C249 1.208 . S
C249 O247 1.312 . S
C249 O248 1.208 . S
C250 O242 1.331 . S
C250 O245 1.244 . S
O251 Mg236 2.013 . S
O251 C240 1.191 . S
O252 C231 1.331 . S
O252 Mg238 2.081 . S
O253 Mg234 1.986 . S
O253 C240 1.307 . S
O254 C232 1.264 . S
O254 Mg238 2.023 . S
O255 C231 1.244 . S
O255 Mg239 1.942 . S
O256 C232 1.273 . S
O256 Mg239 1.955 . S
O257 C230 1.312 . S
O257 Mg233 2.291 . S
O257 Mg236 2.114 . S
O258 C230 1.208 . S
O258 Mg238 2.031 . S
C259 O244 1.264 . S
C259 O246 1.273 . S
C260 O241 1.191 . S
C260 O243 1.307 . S
C261 O288 1.312 . S
C261 O289 1.208 . S
C262 O283 1.331 . S
C262 O286 1.244 . S
C263 O285 1.264 . S
C263 O287 1.273 . S
Mg264 O266 1.936 . S
Mg264 O273 2.081 . S
Mg264 O275 2.023 . S
Mg264 O279 2.031 . S
Mg264 O288 2.291 . S
Mg265 O266 1.963 1_655 S
Mg265 O276 1.942 . S
Mg265 O277 1.955 . S
Mg265 O284 1.986 . S
O266 Mg264 1.936 . S
O266 Mg265 1.963 1_455 S
O266 Mg267 1.915 . S
Mg267 O266 1.915 . S
Mg267 O268 1.915 . S
Mg267 O272 2.013 . S
Mg267 O278 2.114 . S
Mg267 O282 2.013 . S
Mg267 O288 2.114 . S
O268 Mg267 1.915 . S
O268 Mg269 1.936 . S
O268 Mg270 1.963 . S
Mg269 O268 1.936 . S
Mg269 O278 2.291 . S
Mg269 O283 2.081 . S
Mg269 O285 2.023 . S
Mg269 O289 2.031 . S
Mg270 O268 1.963 . S
Mg270 O274 1.986 . S
Mg270 O286 1.942 . S
Mg270 O287 1.955 . S
C271 O282 1.191 . S
C271 O284 1.307 1_455 S
O272 Mg267 2.013 . S
O272 C291 1.191 . S
O273 Mg264 2.081 . S
O273 C281 1.331 1_455 S
O274 Mg270 1.986 . S
O274 C291 1.307 . S
O275 Mg264 2.023 . S
O275 C290 1.264 1_455 S
O276 Mg265 1.942 . S
O276 C281 1.244 . S
O277 Mg265 1.955 . S
O277 C290 1.273 . S
O278 Mg267 2.114 . S
O278 Mg269 2.291 . S
O278 C280 1.312 . S
O279 Mg264 2.031 . S
O279 C280 1.208 . S
C280 O278 1.312 . S
C280 O279 1.208 . S
C281 O273 1.331 1_655 S
C281 O276 1.244 . S
O282 Mg267 2.013 . S
O282 C271 1.191 . S
O283 C262 1.331 . S
O283 Mg269 2.081 . S
O284 Mg265 1.986 . S
O284 C271 1.307 1_655 S
O285 C263 1.264 . S
O285 Mg269 2.023 . S
O286 C262 1.244 . S
O286 Mg270 1.942 . S
O287 C263 1.273 . S
O287 Mg270 1.955 . S
O288 C261 1.312 . S
O288 Mg264 2.291 . S
O288 Mg267 2.114 . S
O289 C261 1.208 . S
O289 Mg269 2.031 . S
C290 O275 1.264 1_655 S
C290 O277 1.273 . S
C291 O272 1.191 . S
C291 O274 1.307 . S
H292 C300 0.950 . S
H293 C305 0.950 . S
H294 C302 0.950 . S
H295 C304 0.950 . S
H296 C306 0.950 . S
H297 C308 0.950 . S
H298 C310 0.950 . S
H299 C311 0.950 . S
C300 H292 0.950 . S
C300 C301 1.386 . S
C300 C302 1.391 . S
C301 C300 1.386 . S
C301 C305 1.393 . S
C302 H294 0.950 . S
C302 C300 1.391 . S
C302 C303 1.400 . S
C303 C302 1.400 . S
C303 C304 1.398 . S
C303 C309 1.491 . S
C304 H295 0.950 . S
C304 C303 1.398 . S
C304 C305 1.391 . S
C305 H293 0.950 . S
C305 C301 1.393 . S
C305 C304 1.391 . S
C306 H296 0.950 . S
C306 C307 1.386 . S
C306 C308 1.391 . S
C307 C306 1.386 . S
C307 C311 1.393 . S
C308 H297 0.950 . S
C308 C306 1.391 . S
C308 C309 1.400 . S
C309 C303 1.491 . S
C309 C308 1.400 . S
C309 C310 1.398 . S
C310 H298 0.950 . S
C310 C309 1.398 . S
C310 C311 1.391 . S
C311 H299 0.950 . S
C311 C307 1.393 . S
C311 C310 1.391 . S
H312 C320 0.950 . S
H313 C325 0.950 . S
H314 C322 0.950 . S
H315 C324 0.950 . S
H316 C326 0.950 . S
H317 C328 0.950 . S
H318 C330 0.950 . S
H319 C331 0.950 . S
C320 H312 0.950 . S
C320 C321 1.386 . S
C320 C322 1.391 . S
C321 C320 1.386 . S
C321 C325 1.393 . S
C322 H314 0.950 . S
C322 C320 1.391 . S
C322 C323 1.400 . S
C323 C322 1.400 . S
C323 C324 1.398 . S
C323 C329 1.491 . S
C324 H315 0.950 . S
C324 C323 1.398 . S
C324 C325 1.391 . S
C325 H313 0.950 . S
C325 C321 1.393 . S
C325 C324 1.391 . S
C326 H316 0.950 . S
C326 C327 1.386 . S
C326 C328 1.391 1_545 S
C327 C326 1.386 . S
C327 C331 1.393 . S
C328 H317 0.950 . S
C328 C326 1.391 1_565 S
C328 C329 1.400 . S
C329 C323 1.491 . S
C329 C328 1.400 . S
C329 C330 1.398 1_565 S
C330 H318 0.950 . S
C330 C329 1.398 1_545 S
C330 C331 1.391 . S
C331 H319 0.950 . S
C331 C327 1.393 . S
C331 C330 1.391 . S
H332 C340 0.950 . S
H333 C345 0.950 . S
H334 C342 0.950 . S
H335 C344 0.950 . S
H336 C346 0.950 . S
H337 C348 0.950 . S
H338 C350 0.950 . S
H339 C351 0.950 . S
C340 H332 0.950 . S
C340 C341 1.386 . S
C340 C342 1.391 . S
C341 C340 1.386 . S
C341 C345 1.393 . S
C342 H334 0.950 . S
C342 C340 1.391 . S
C342 C343 1.400 . S
C343 C342 1.400 . S
C343 C344 1.398 . S
C343 C349 1.491 . S
C344 H335 0.950 . S
C344 C343 1.398 . S
C344 C345 1.391 . S
C345 H333 0.950 . S
C345 C341 1.393 . S
C345 C344 1.391 . S
C346 H336 0.950 . S
C346 C347 1.386 . S
C346 C348 1.391 . S
C347 C346 1.386 . S
C347 C351 1.393 . S
C348 H337 0.950 . S
C348 C346 1.391 . S
C348 C349 1.400 . S
C349 C343 1.491 . S
C349 C348 1.400 . S
C349 C350 1.398 . S
C350 H338 0.950 . S
C350 C349 1.398 . S
C350 C351 1.391 . S
C351 H339 0.950 . S
C351 C347 1.393 . S
C351 C350 1.391 . S
H352 C360 0.950 . S
H353 C365 0.950 . S
H354 C362 0.950 . S
H355 C364 0.950 . S
H356 C366 0.950 . S
H357 C368 0.950 . S
H358 C370 0.950 . S
H359 C371 0.950 . S
C360 H352 0.950 . S
C360 C361 1.386 . S
C360 C362 1.391 . S
C361 C360 1.386 . S
C361 C365 1.393 . S
C362 H354 0.950 . S
C362 C360 1.391 . S
C362 C363 1.400 . S
C363 C362 1.400 . S
C363 C364 1.398 . S
C363 C369 1.491 . S
C364 H355 0.950 . S
C364 C363 1.398 . S
C364 C365 1.391 . S
C365 H353 0.950 . S
C365 C361 1.393 . S
C365 C364 1.391 . S
C366 H356 0.950 . S
C366 C367 1.386 . S
C366 C368 1.391 1_565 S
C367 C366 1.386 . S
C367 C371 1.393 . S
C368 H357 0.950 . S
C368 C366 1.391 1_545 S
C368 C369 1.400 . S
C369 C363 1.491 . S
C369 C368 1.400 . S
C369 C370 1.398 1_545 S
C370 H358 0.950 . S
C370 C369 1.398 1_565 S
C370 C371 1.391 . S
C371 H359 0.950 . S
C371 C367 1.393 . S
C371 C370 1.391 . S
H372 C380 0.950 . S
H373 C385 0.950 . S
H374 C382 0.950 . S
H375 C384 0.950 . S
H376 C386 0.950 . S
H377 C388 0.950 . S
H378 C390 0.950 . S
H379 C391 0.950 . S
C380 H372 0.950 . S
C380 C381 1.386 . S
C380 C382 1.391 . S
C381 C380 1.386 . S
C381 C385 1.393 . S
C382 H374 0.950 . S
C382 C380 1.391 . S
C382 C383 1.400 . S
C383 C382 1.400 . S
C383 C384 1.398 . S
C383 C389 1.491 . S
C384 H375 0.950 . S
C384 C383 1.398 . S
C384 C385 1.391 . S
C385 H373 0.950 . S
C385 C381 1.393 . S
C385 C384 1.391 . S
C386 H376 0.950 . S
C386 C387 1.386 . S
C386 C388 1.391 . S
C387 C386 1.386 . S
C387 C391 1.393 . S
C388 H377 0.950 . S
C388 C386 1.391 . S
C388 C389 1.400 . S
C389 C383 1.491 . S
C389 C388 1.400 . S
C389 C390 1.398 . S
C390 H378 0.950 . S
C390 C389 1.398 . S
C390 C391 1.391 . S
C391 H379 0.950 . S
C391 C387 1.393 . S
C391 C390 1.391 . S
H392 C400 0.950 . S
H393 C405 0.950 . S
H394 C402 0.950 . S
H395 C404 0.950 . S
H396 C406 0.950 . S
H397 C408 0.950 . S
H398 C410 0.950 1_565 S
H399 C411 0.950 . S
C400 H392 0.950 . S
C400 C401 1.386 . S
C400 C402 1.391 . S
C401 C400 1.386 . S
C401 C405 1.393 . S
C402 H394 0.950 . S
C402 C400 1.391 . S
C402 C403 1.400 . S
C403 C402 1.400 . S
C403 C404 1.398 . S
C403 C409 1.491 . S
C404 H395 0.950 . S
C404 C403 1.398 . S
C404 C405 1.391 . S
C405 H393 0.950 . S
C405 C401 1.393 . S
C405 C404 1.391 . S
C406 H396 0.950 . S
C406 C407 1.386 . S
C406 C408 1.391 . S
C407 C406 1.386 . S
C407 C411 1.393 . S
C408 H397 0.950 . S
C408 C406 1.391 . S
C408 C409 1.400 1_545 S
C409 C403 1.491 . S
C409 C408 1.400 1_565 S
C409 C410 1.398 1_565 S
C410 H398 0.950 1_545 S
C410 C409 1.398 1_545 S
C410 C411 1.391 . S
C411 H399 0.950 . S
C411 C407 1.393 . S
C411 C410 1.391 . S
H412 C420 0.950 . S
H413 C425 0.950 . S
H414 C422 0.950 . S
H415 C424 0.950 . S
H416 C426 0.950 . S
H417 C428 0.950 . S
H418 C430 0.950 . S
H419 C431 0.950 . S
C420 H412 0.950 . S
C420 C421 1.386 . S
C420 C422 1.391 . S
C421 C420 1.386 . S
C421 C425 1.393 . S
C422 H414 0.950 . S
C422 C420 1.391 . S
C422 C423 1.400 . S
C423 C422 1.400 . S
C423 C424 1.398 . S
C423 C429 1.491 . S
C424 H415 0.950 . S
C424 C423 1.398 . S
C424 C425 1.391 . S
C425 H413 0.950 . S
C425 C421 1.393 . S
C425 C424 1.391 . S
C426 H416 0.950 . S
C426 C427 1.386 . S
C426 C428 1.391 . S
C427 C426 1.386 . S
C427 C431 1.393 . S
C428 H417 0.950 . S
C428 C426 1.391 . S
C428 C429 1.400 . S
C429 C423 1.491 . S
C429 C428 1.400 . S
C429 C430 1.398 . S
C430 H418 0.950 . S
C430 C429 1.398 . S
C430 C431 1.391 . S
C431 H419 0.950 . S
C431 C427 1.393 . S
C431 C430 1.391 . S
H432 C440 0.950 . S
H433 C445 0.950 . S
H434 C442 0.950 . S
H435 C444 0.950 . S
H436 C446 0.950 . S
H437 C448 0.950 . S
H438 C450 0.950 . S
H439 C451 0.950 . S
C440 H432 0.950 . S
C440 C441 1.386 . S
C440 C442 1.391 . S
C441 C440 1.386 . S
C441 C445 1.393 . S
C442 H434 0.950 . S
C442 C440 1.391 . S
C442 C443 1.400 . S
C443 C442 1.400 . S
C443 C444 1.398 . S
C443 C449 1.491 . S
C444 H435 0.950 . S
C444 C443 1.398 . S
C444 C445 1.391 . S
C445 H433 0.950 . S
C445 C441 1.393 . S
C445 C444 1.391 . S
C446 H436 0.950 . S
C446 C447 1.386 . S
C446 C448 1.391 . S
C447 C446 1.386 . S
C447 C451 1.393 . S
C448 H437 0.950 . S
C448 C446 1.391 . S
C448 C449 1.400 1_565 S
C449 C443 1.491 . S
C449 C448 1.400 1_545 S
C449 C450 1.398 . S
C450 H438 0.950 . S
C450 C449 1.398 . S
C450 C451 1.391 1_545 S
C451 H439 0.950 . S
C451 C447 1.393 . S
C451 C450 1.391 1_565 S
H452 C460 0.950 . S
H453 C465 0.950 . S
H454 C462 0.950 . S
H455 C464 0.950 . S
H456 C466 0.950 . S
H457 C468 0.950 . S
H458 C470 0.950 . S
H459 C471 0.950 . S
C460 H452 0.950 . S
C460 C461 1.386 . S
C460 C462 1.391 . S
C461 C460 1.386 . S
C461 C465 1.393 . S
C462 H454 0.950 . S
C462 C460 1.391 . S
C462 C463 1.400 . S
C463 C462 1.400 . S
C463 C464 1.398 . S
C463 C469 1.491 . S
C464 H455 0.950 . S
C464 C463 1.398 . S
C464 C465 1.391 . S
C465 H453 0.950 . S
C465 C461 1.393 . S
C465 C464 1.391 . S
C466 H456 0.950 . S
C466 C467 1.386 . S
C466 C468 1.391 . S
C467 C466 1.386 . S
C467 C471 1.393 . S
C468 H457 0.950 . S
C468 C466 1.391 . S
C468 C469 1.400 . S
C469 C463 1.491 . S
C469 C468 1.400 . S
C469 C470 1.398 . S
C470 H458 0.950 . S
C470 C469 1.398 . S
C470 C471 1.391 . S
C471 H459 0.950 . S
C471 C467 1.393 . S
C471 C470 1.391 . S
H472 C480 0.950 . S
H473 C485 0.950 . S
H474 C482 0.950 . S
H475 C484 0.950 . S
H476 C486 0.950 . S
H477 C488 0.950 . S
H478 C490 0.950 . S
H479 C491 0.950 . S
C480 H472 0.950 . S
C480 C481 1.386 1_565 S
C480 C482 1.391 . S
C481 C480 1.386 1_545 S
C481 C485 1.393 . S
C482 H474 0.950 . S
C482 C480 1.391 . S
C482 C483 1.400 . S
C483 C482 1.400 . S
C483 C484 1.398 1_565 S
C483 C489 1.491 . S
C484 H475 0.950 . S
C484 C483 1.398 1_545 S
C484 C485 1.391 . S
C485 H473 0.950 . S
C485 C481 1.393 . S
C485 C484 1.391 . S
C486 H476 0.950 . S
C486 C487 1.386 . S
C486 C488 1.391 . S
C487 C486 1.386 . S
C487 C491 1.393 . S
C488 H477 0.950 . S
C488 C486 1.391 . S
C488 C489 1.400 . S
C489 C483 1.491 . S
C489 C488 1.400 . S
C489 C490 1.398 . S
C490 H478 0.950 . S
C490 C489 1.398 . S
C490 C491 1.391 . S
C491 H479 0.950 . S
C491 C487 1.393 . S
C491 C490 1.391 . S
H492 C500 0.950 1_545 S
H493 C505 0.950 . S
H494 C502 0.950 . S
H495 C504 0.950 . S
H496 C506 0.950 . S
H497 C508 0.950 . S
H498 C510 0.950 . S
H499 C511 0.950 . S
C500 H492 0.950 1_565 S
C500 C501 1.386 . S
C500 C502 1.391 . S
C501 C500 1.386 . S
C501 C505 1.393 . S
C502 H494 0.950 . S
C502 C500 1.391 . S
C502 C503 1.400 . S
C503 C502 1.400 . S
C503 C504 1.398 . S
C503 C509 1.491 . S
C504 H495 0.950 . S
C504 C503 1.398 . S
C504 C505 1.391 . S
C505 H493 0.950 . S
C505 C501 1.393 . S
C505 C504 1.391 . S
C506 H496 0.950 . S
C506 C507 1.386 1_655 S
C506 C508 1.391 . S
C507 C506 1.386 1_455 S
C507 C511 1.393 . S
C508 H497 0.950 . S
C508 C506 1.391 . S
C508 C509 1.400 . S
C509 C503 1.491 . S
C509 C508 1.400 . S
C509 C510 1.398 . S
C510 H498 0.950 . S
C510 C509 1.398 . S
C510 C511 1.391 1_655 S
C511 H499 0.950 . S
C511 C507 1.393 . S
C511 C510 1.391 1_455 S
H512 C520 0.950 . S
H513 C525 0.950 . S
H514 C522 0.950 . S
H515 C524 0.950 . S
H516 C526 0.950 . S
H517 C528 0.947 1_455 S
H518 C530 0.950 . S
H519 C531 0.950 . S
C520 H512 0.950 . S
C520 C521 1.386 1_545 S
C520 C522 1.391 . S
C521 C520 1.386 1_565 S
C521 C525 1.393 . S
C522 H514 0.950 . S
C522 C520 1.391 . S
C522 C523 1.400 . S
C523 C522 1.400 . S
C523 C524 1.398 1_545 S
C523 C529 1.491 . S
C524 H515 0.950 . S
C524 C523 1.398 1_565 S
C524 C525 1.391 . S
C525 H513 0.950 . S
C525 C521 1.393 . S
C525 C524 1.391 . S
C526 H516 0.950 . S
C526 C527 1.386 . S
C526 C528 1.387 1_455 S
C527 C526 1.386 . S
C527 C531 1.393 1_455 S
C528 H517 0.947 1_655 S
C528 C526 1.387 1_655 S
C528 C529 1.407 . S
C529 C523 1.491 . S
C529 C528 1.407 . S
C529 C530 1.398 . S
C530 H518 0.950 . S
C530 C529 1.398 . S
C530 C531 1.391 . S
C531 H519 0.950 . S
C531 C527 1.393 1_655 S
C531 C530 1.391 . S
H532 C540 0.950 1_545 S
H533 C545 0.950 . S
H534 C542 0.950 . S
H535 C544 0.950 . S
H536 C546 0.950 . S
H537 C548 0.950 . S
H538 C550 0.950 . S
H539 C551 0.950 . S
C540 H532 0.950 1_565 S
C540 C541 1.386 . S
C540 C542 1.391 . S
C541 C540 1.386 . S
C541 C545 1.393 . S
C542 H534 0.950 . S
C542 C540 1.391 . S
C542 C543 1.400 . S
C543 C542 1.400 . S
C543 C544 1.398 . S
C543 C549 1.491 . S
C544 H535 0.950 . S
C544 C543 1.398 . S
C544 C545 1.391 . S
C545 H533 0.950 . S
C545 C541 1.393 . S
C545 C544 1.391 . S
C546 H536 0.950 . S
C546 C547 1.386 . S
C546 C548 1.391 . S
C547 C546 1.386 . S
C547 C551 1.393 . S
C548 H537 0.950 . S
C548 C546 1.391 . S
C548 C549 1.400 . S
C549 C543 1.491 . S
C549 C548 1.400 . S
C549 C550 1.398 . S
C550 H538 0.950 . S
C550 C549 1.398 . S
C550 C551 1.391 . S
C551 H539 0.950 . S
C551 C547 1.393 . S
C551 C550 1.391 . S
H552 C560 0.950 . S
H553 C565 0.950 . S
H554 C562 0.950 . S
H555 C564 0.950 . S
H556 C566 0.950 . S
H557 C568 0.950 . S
H558 C570 0.950 . S
H559 C571 0.950 . S
C560 H552 0.950 . S
C560 C561 1.386 1_565 S
C560 C562 1.391 . S
C561 C560 1.386 1_545 S
C561 C565 1.393 . S
C562 H554 0.950 . S
C562 C560 1.391 . S
C562 C563 1.400 . S
C563 C562 1.400 . S
C563 C564 1.398 . S
C563 C569 1.491 . S
C564 H555 0.950 . S
C564 C563 1.398 . S
C564 C565 1.391 1_565 S
C565 H553 0.950 . S
C565 C561 1.393 . S
C565 C564 1.391 1_545 S
C566 H556 0.950 . S
C566 C567 1.386 1_655 S
C566 C568 1.391 . S
C567 C566 1.386 1_455 S
C567 C571 1.393 . S
C568 H557 0.950 . S
C568 C566 1.391 . S
C568 C569 1.400 . S
C569 C563 1.491 . S
C569 C568 1.400 . S
C569 C570 1.398 . S
C570 H558 0.950 . S
C570 C569 1.398 . S
C570 C571 1.391 1_655 S
C571 H559 0.950 . S
C571 C567 1.393 . S
C571 C570 1.391 1_455 S
H572 C580 0.950 . S
H573 C585 0.950 . S
H574 C582 0.950 . S
H575 C584 0.950 . S
H576 C586 0.950 . S
H577 C588 0.950 . S
H578 C590 0.950 . S
H579 C591 0.950 . S
C580 H572 0.950 . S
C580 C581 1.386 . S
C580 C582 1.391 . S
C581 C580 1.386 . S
C581 C585 1.393 . S
C582 H574 0.950 . S
C582 C580 1.391 . S
C582 C583 1.400 . S
C583 C582 1.400 . S
C583 C584 1.398 . S
C583 C589 1.491 . S
C584 H575 0.950 . S
C584 C583 1.398 . S
C584 C585 1.391 . S
C585 H573 0.950 . S
C585 C581 1.393 . S
C585 C584 1.391 . S
C586 H576 0.950 . S
C586 C587 1.386 1_655 S
C586 C588 1.391 . S
C587 C586 1.386 1_455 S
C587 C591 1.393 . S
C588 H577 0.950 . S
C588 C586 1.391 . S
C588 C589 1.400 . S
C589 C583 1.491 . S
C589 C588 1.400 . S
C589 C590 1.398 . S
C590 H578 0.950 . S
C590 C589 1.398 . S
C590 C591 1.391 1_655 S
C591 H579 0.950 . S
C591 C587 1.393 . S
C591 C590 1.391 1_455 S
H592 C600 0.950 . S
H593 C605 0.949 1_565 S
H594 C602 0.950 . S
H595 C604 0.950 . S
H596 C606 0.950 . S
H597 C608 0.950 . S
H598 C610 0.950 . S
H599 C611 0.950 . S
C600 H592 0.950 . S
C600 C601 1.386 . S
C600 C602 1.391 1_565 S
C601 C600 1.386 . S
C601 C605 1.393 1_565 S
C602 H594 0.950 . S
C602 C600 1.391 1_545 S
C602 C603 1.400 . S
C603 C602 1.400 . S
C603 C604 1.398 . S
C603 C609 1.491 . S
C604 H595 0.950 . S
C604 C603 1.398 . S
C604 C605 1.391 . S
C605 H593 0.949 1_545 S
C605 C601 1.393 1_545 S
C605 C604 1.391 . S
C606 H596 0.950 . S
C606 C607 1.386 . S
C606 C608 1.391 . S
C607 C606 1.386 . S
C607 C611 1.393 . S
C608 H597 0.950 . S
C608 C606 1.391 . S
C608 C609 1.400 . S
C609 C603 1.491 . S
C609 C608 1.400 . S
C609 C610 1.398 . S
C610 H598 0.950 . S
C610 C609 1.398 . S
C610 C611 1.391 . S
C611 H599 0.950 . S
C611 C607 1.393 . S
C611 C610 1.391 . S
H612 C620 0.950 . S
H613 C625 0.950 . S
H614 C622 0.950 . S
H615 C624 0.950 . S
H616 C626 0.950 . S
H617 C628 0.950 . S
H618 C630 0.950 . S
H619 C631 0.950 . S
C620 H612 0.950 . S
C620 C621 1.386 . S
C620 C622 1.391 . S
C621 C620 1.386 . S
C621 C625 1.393 . S
C622 H614 0.950 . S
C622 C620 1.391 . S
C622 C623 1.400 . S
C623 C622 1.400 . S
C623 C624 1.398 . S
C623 C629 1.491 . S
C624 H615 0.950 . S
C624 C623 1.398 . S
C624 C625 1.391 . S
C625 H613 0.950 . S
C625 C621 1.393 . S
C625 C624 1.391 . S
C626 H616 0.950 . S
C626 C627 1.386 . S
C626 C628 1.391 . S
C627 C626 1.386 . S
C627 C631 1.393 . S
C628 H617 0.950 . S
C628 C626 1.391 . S
C628 C629 1.400 . S
C629 C623 1.491 . S
C629 C628 1.400 . S
C629 C630 1.398 . S
C630 H618 0.950 . S
C630 C629 1.398 . S
C630 C631 1.391 . S
C631 H619 0.950 . S
C631 C627 1.393 . S
C631 C630 1.391 . S
H632 C640 0.950 . S
H633 C645 0.950 . S
H634 C642 0.950 . S
H635 C644 0.950 . S
H636 C646 0.950 1_455 S
H637 C648 0.950 . S
H638 C650 0.950 . S
H639 C651 0.950 . S
C640 H632 0.950 . S
C640 C641 1.386 . S
C640 C642 1.391 . S
C641 C640 1.386 . S
C641 C645 1.393 . S
C642 H634 0.950 . S
C642 C640 1.391 . S
C642 C643 1.400 . S
C643 C642 1.400 . S
C643 C644 1.398 . S
C643 C649 1.491 . S
C644 H635 0.950 . S
C644 C643 1.398 . S
C644 C645 1.391 . S
C645 H633 0.950 . S
C645 C641 1.393 . S
C645 C644 1.391 . S
C646 H636 0.950 1_655 S
C646 C647 1.386 . S
C646 C648 1.391 . S
C647 C646 1.386 . S
C647 C651 1.393 . S
C648 H637 0.950 . S
C648 C646 1.391 . S
C648 C649 1.400 . S
C649 C643 1.491 . S
C649 C648 1.400 . S
C649 C650 1.398 . S
C650 H638 0.950 . S
C650 C649 1.398 . S
C650 C651 1.391 . S
C651 H639 0.950 . S
C651 C647 1.393 . S
C651 C650 1.391 . S
H652 C660 0.950 . S
H653 C665 0.950 1_455 S
H654 C662 0.950 . S
H655 C664 0.950 . S
H656 C666 0.950 . S
H657 C668 0.950 . S
H658 C670 0.950 . S
H659 C671 0.950 . S
C660 H652 0.950 . S
C660 C661 1.386 . S
C660 C662 1.391 . S
C661 C660 1.386 . S
C661 C665 1.393 . S
C662 H654 0.950 . S
C662 C660 1.391 . S
C662 C663 1.400 . S
C663 C662 1.400 . S
C663 C664 1.398 . S
C663 C669 1.491 . S
C664 H655 0.950 . S
C664 C663 1.398 . S
C664 C665 1.391 . S
C665 H653 0.950 1_655 S
C665 C661 1.393 . S
C665 C664 1.391 . S
C666 H656 0.950 . S
C666 C667 1.386 . S
C666 C668 1.391 . S
C667 C666 1.386 . S
C667 C671 1.393 . S
C668 H657 0.950 . S
C668 C666 1.391 . S
C668 C669 1.400 . S
C669 C663 1.491 . S
C669 C668 1.400 . S
C669 C670 1.398 . S
C670 H658 0.950 . S
C670 C669 1.398 . S
C670 C671 1.391 . S
C671 H659 0.950 . S
C671 C667 1.393 . S
C671 C670 1.391 . S
H672 C680 0.950 . S
H673 C685 0.950 . S
H674 C682 0.950 . S
H675 C684 0.950 . S
H676 C686 0.950 . S
H677 C688 0.950 . S
H678 C690 0.950 . S
H679 C691 0.950 . S
C680 H672 0.950 . S
C680 C681 1.386 . S
C680 C682 1.391 . S
C681 C680 1.386 . S
C681 C685 1.393 . S
C682 H674 0.950 . S
C682 C680 1.391 . S
C682 C683 1.400 . S
C683 C682 1.400 . S
C683 C684 1.398 . S
C683 C689 1.491 . S
C684 H675 0.950 . S
C684 C683 1.398 . S
C684 C685 1.391 . S
C685 H673 0.950 . S
C685 C681 1.393 . S
C685 C684 1.391 . S
C686 H676 0.950 . S
C686 C687 1.386 . S
C686 C688 1.391 . S
C687 C686 1.386 . S
C687 C691 1.393 . S
C688 H677 0.950 . S
C688 C686 1.391 . S
C688 C689 1.400 . S
C689 C683 1.491 . S
C689 C688 1.400 . S
C689 C690 1.398 . S
C690 H678 0.950 . S
C690 C689 1.398 . S
C690 C691 1.391 . S
C691 H679 0.950 . S
C691 C687 1.393 . S
C691 C690 1.391 . S
H692 C700 0.950 . S
H693 C705 0.950 . S
H694 C702 0.950 . S
H695 C704 0.950 . S
H696 C706 0.950 . S
H697 C708 0.950 . S
H698 C710 0.950 . S
H699 C711 0.950 . S
C700 H692 0.950 . S
C700 C701 1.386 . S
C700 C702 1.391 . S
C701 C700 1.386 . S
C701 C705 1.393 . S
C702 H694 0.950 . S
C702 C700 1.391 . S
C702 C703 1.400 . S
C703 C702 1.400 . S
C703 C704 1.398 . S
C703 C709 1.491 . S
C704 H695 0.950 . S
C704 C703 1.398 . S
C704 C705 1.391 . S
C705 H693 0.950 . S
C705 C701 1.393 . S
C705 C704 1.391 . S
C706 H696 0.950 . S
C706 C707 1.386 . S
C706 C708 1.391 . S
C707 C706 1.386 . S
C707 C711 1.393 . S
C708 H697 0.950 . S
C708 C706 1.391 . S
C708 C709 1.400 . S
C709 C703 1.491 . S
C709 C708 1.400 . S
C709 C710 1.398 . S
C710 H698 0.950 . S
C710 C709 1.398 . S
C710 C711 1.391 . S
C711 H699 0.950 . S
C711 C707 1.393 . S
C711 C710 1.391 . S
H712 C720 0.950 . S
H713 C725 0.950 . S
H714 C722 0.950 . S
H715 C724 0.950 . S
H716 C726 0.950 . S
H717 C728 0.950 . S
H718 C730 0.950 . S
H719 C731 0.950 . S
C720 H712 0.950 . S
C720 C721 1.386 . S
C720 C722 1.391 . S
C721 C720 1.386 . S
C721 C725 1.393 . S
C722 H714 0.950 . S
C722 C720 1.391 . S
C722 C723 1.400 . S
C723 C722 1.400 . S
C723 C724 1.398 . S
C723 C729 1.491 . S
C724 H715 0.950 . S
C724 C723 1.398 . S
C724 C725 1.391 . S
C725 H713 0.950 . S
C725 C721 1.393 . S
C725 C724 1.391 . S
C726 H716 0.950 . S
C726 C727 1.386 . S
C726 C728 1.391 . S
C727 C726 1.386 . S
C727 C731 1.393 . S
C728 H717 0.950 . S
C728 C726 1.391 . S
C728 C729 1.400 . S
C729 C723 1.491 . S
C729 C728 1.400 . S
C729 C730 1.398 . S
C730 H718 0.950 . S
C730 C729 1.398 . S
C730 C731 1.391 . S
C731 H719 0.950 . S
C731 C727 1.393 . S
C731 C730 1.391 . S
H732 C740 0.950 . S
H733 C745 0.950 1_455 S
H734 C742 0.950 . S
H735 C744 0.950 . S
H736 C746 0.950 . S
H737 C748 0.950 . S
H738 C750 0.950 . S
H739 C751 0.950 . S
C740 H732 0.950 . S
C740 C741 1.386 1_655 S
C740 C742 1.391 . S
C741 C740 1.386 1_455 S
C741 C745 1.393 1_455 S
C742 H734 0.950 . S
C742 C740 1.391 . S
C742 C743 1.400 . S
C743 C742 1.400 . S
C743 C744 1.398 . S
C743 C749 1.491 . S
C744 H735 0.950 . S
C744 C743 1.398 . S
C744 C745 1.391 . S
C745 H733 0.950 1_655 S
C745 C741 1.393 1_655 S
C745 C744 1.391 . S
C746 H736 0.950 . S
C746 C747 1.386 . S
C746 C748 1.391 . S
C747 C746 1.386 . S
C747 C751 1.393 . S
C748 H737 0.950 . S
C748 C746 1.391 . S
C748 C749 1.400 . S
C749 C743 1.491 . S
C749 C748 1.400 . S
C749 C750 1.398 . S
C750 H738 0.950 . S
C750 C749 1.398 . S
C750 C751 1.391 . S
C751 H739 0.950 . S
C751 C747 1.393 . S
C751 C750 1.391 . S
H752 C760 0.950 . S
H753 C765 0.950 . S
H754 C762 0.950 . S
H755 C764 0.950 . S
H756 C766 0.950 . S
H757 C768 0.950 . S
H758 C770 0.950 . S
H759 C771 0.950 1_455 S
C760 H752 0.950 . S
C760 C761 1.386 . S
C760 C762 1.391 . S
C761 C760 1.386 . S
C761 C765 1.393 . S
C762 H754 0.950 . S
C762 C760 1.391 . S
C762 C763 1.400 . S
C763 C762 1.400 . S
C763 C764 1.398 . S
C763 C769 1.491 . S
C764 H755 0.950 . S
C764 C763 1.398 . S
C764 C765 1.391 . S
C765 H753 0.950 . S
C765 C761 1.393 . S
C765 C764 1.391 . S
C766 H756 0.950 . S
C766 C767 1.386 . S
C766 C768 1.391 . S
C767 C766 1.386 . S
C767 C771 1.393 . S
C768 H757 0.950 . S
C768 C766 1.391 . S
C768 C769 1.400 . S
C769 C763 1.491 . S
C769 C768 1.400 . S
C769 C770 1.398 . S
C770 H758 0.950 . S
C770 C769 1.398 . S
C770 C771 1.391 . S
C771 H759 0.950 1_655 S
C771 C767 1.393 . S
C771 C770 1.391 . S
H772 C780 0.950 . S
H773 C785 0.950 . S
H774 C782 0.950 . S
H775 C784 0.950 . S
H776 C786 0.950 . S
H777 C788 0.950 . S
H778 C790 0.950 . S
H779 C791 0.950 . S
C780 H772 0.950 . S
C780 C781 1.386 . S
C780 C782 1.391 . S
C781 C780 1.386 . S
C781 C785 1.393 . S
C782 H774 0.950 . S
C782 C780 1.391 . S
C782 C783 1.400 . S
C783 C782 1.400 . S
C783 C784 1.398 . S
C783 C789 1.491 . S
C784 H775 0.950 . S
C784 C783 1.398 . S
C784 C785 1.391 . S
C785 H773 0.950 . S
C785 C781 1.393 . S
C785 C784 1.391 . S
C786 H776 0.950 . S
C786 C787 1.386 . S
C786 C788 1.391 . S
C787 C786 1.386 . S
C787 C791 1.393 . S
C788 H777 0.950 . S
C788 C786 1.391 . S
C788 C789 1.400 . S
C789 C783 1.491 . S
C789 C788 1.400 . S
C789 C790 1.398 . S
C790 H778 0.950 . S
C790 C789 1.398 . S
C790 C791 1.391 . S
C791 H779 0.950 . S
C791 C787 1.393 . S
C791 C790 1.391 . S
H792 C800 0.950 . S
H793 C805 0.950 . S
H794 C802 0.950 . S
H795 C804 0.950 . S
H796 C806 0.950 . S
H797 C808 0.950 . S
H798 C810 0.950 . S
H799 C811 0.950 . S
C800 H792 0.950 . S
C800 C801 1.386 . S
C800 C802 1.391 . S
C801 C800 1.386 . S
C801 C805 1.393 . S
C802 H794 0.950 . S
C802 C800 1.391 . S
C802 C803 1.400 . S
C803 C802 1.400 . S
C803 C804 1.398 . S
C803 C809 1.491 . S
C804 H795 0.950 . S
C804 C803 1.398 . S
C804 C805 1.391 . S
C805 H793 0.950 . S
C805 C801 1.393 . S
C805 C804 1.391 . S
C806 H796 0.950 . S
C806 C807 1.386 . S
C806 C808 1.391 . S
C807 C806 1.386 . S
C807 C811 1.393 . S
C808 H797 0.950 . S
C808 C806 1.391 . S
C808 C809 1.400 . S
C809 C803 1.491 . S
C809 C808 1.400 . S
C809 C810 1.398 . S
C810 H798 0.950 . S
C810 C809 1.398 . S
C810 C811 1.391 . S
C811 H799 0.950 . S
C811 C807 1.393 . S
C811 C810 1.391 . S
H812 C820 0.950 . S
H813 C825 0.950 . S
H814 C822 0.950 . S
H815 C824 0.950 . S
H816 C826 0.950 . S
H817 C828 0.950 . S
H818 C830 0.950 . S
H819 C831 0.950 . S
C820 H812 0.950 . S
C820 C821 1.386 . S
C820 C822 1.391 . S
C821 C820 1.386 . S
C821 C825 1.393 . S
C822 H814 0.950 . S
C822 C820 1.391 . S
C822 C823 1.400 . S
C823 C822 1.400 . S
C823 C824 1.398 . S
C823 C829 1.491 . S
C824 H815 0.950 . S
C824 C823 1.398 . S
C824 C825 1.391 . S
C825 H813 0.950 . S
C825 C821 1.393 . S
C825 C824 1.391 . S
C826 H816 0.950 . S
C826 C827 1.386 . S
C826 C828 1.391 . S
C827 C826 1.386 . S
C827 C831 1.393 . S
C828 H817 0.950 . S
C828 C826 1.391 . S
C828 C829 1.400 . S
C829 C823 1.491 . S
C829 C828 1.400 . S
C829 C830 1.398 . S
C830 H818 0.950 . S
C830 C829 1.398 . S
C830 C831 1.391 . S
C831 H819 0.950 . S
C831 C827 1.393 . S
C831 C830 1.391 . S
H832 C840 0.950 . S
H833 C845 0.950 . S
H834 C842 0.950 . S
H835 C844 0.950 . S
H836 C846 0.950 . S
H837 C848 0.950 . S
H838 C850 0.950 . S
H839 C851 0.950 . S
C840 H832 0.950 . S
C840 C841 1.386 . S
C840 C842 1.391 . S
C841 C840 1.386 . S
C841 C845 1.393 . S
C842 H834 0.950 . S
C842 C840 1.391 . S
C842 C843 1.400 . S
C843 C842 1.400 . S
C843 C844 1.398 . S
C843 C849 1.491 . S
C844 H835 0.950 . S
C844 C843 1.398 . S
C844 C845 1.391 . S
C845 H833 0.950 . S
C845 C841 1.393 . S
C845 C844 1.391 . S
C846 H836 0.950 . S
C846 C847 1.386 . S
C846 C848 1.391 . S
C847 C846 1.386 . S
C847 C851 1.393 . S
C848 H837 0.950 . S
C848 C846 1.391 . S
C848 C849 1.400 . S
C849 C843 1.491 . S
C849 C848 1.400 . S
C849 C850 1.398 . S
C850 H838 0.950 . S
C850 C849 1.398 . S
C850 C851 1.391 . S
C851 H839 0.950 . S
C851 C847 1.393 . S
C851 C850 1.391 . S
H852 C860 0.950 . S
H853 C865 0.950 . S
H854 C862 0.950 . S
H855 C864 0.950 . S
H856 C866 0.950 . S
H857 C868 0.950 . S
H858 C870 0.950 . S
H859 C871 0.950 . S
C860 H852 0.950 . S
C860 C861 1.386 . S
C860 C862 1.391 . S
C861 C860 1.386 . S
C861 C865 1.393 . S
C862 H854 0.950 . S
C862 C860 1.391 . S
C862 C863 1.400 . S
C863 C862 1.400 . S
C863 C864 1.398 . S
C863 C869 1.491 . S
C864 H855 0.950 . S
C864 C863 1.398 . S
C864 C865 1.391 . S
C865 H853 0.950 . S
C865 C861 1.393 . S
C865 C864 1.391 . S
C866 H856 0.950 . S
C866 C867 1.386 . S
C866 C868 1.391 . S
C867 C866 1.386 . S
C867 C871 1.393 . S
C868 H857 0.950 . S
C868 C866 1.391 . S
C868 C869 1.400 . S
C869 C863 1.491 . S
C869 C868 1.400 . S
C869 C870 1.398 . S
C870 H858 0.950 . S
C870 C869 1.398 . S
C870 C871 1.391 . S
C871 H859 0.950 . S
C871 C867 1.393 . S
C871 C870 1.391 . S
H872 C880 0.950 . S
H873 C885 0.950 . S
H874 C882 0.950 . S
H875 C884 0.950 . S
H876 C886 0.950 . S
H877 C888 0.950 . S
H878 C890 0.950 . S
H879 C891 0.950 . S
C880 H872 0.950 . S
C880 C881 1.386 . S
C880 C882 1.391 . S
C881 C880 1.386 . S
C881 C885 1.393 . S
C882 H874 0.950 . S
C882 C880 1.391 . S
C882 C883 1.400 . S
C883 C882 1.400 . S
C883 C884 1.398 . S
C883 C889 1.491 . S
C884 H875 0.950 . S
C884 C883 1.398 . S
C884 C885 1.391 . S
C885 H873 0.950 . S
C885 C881 1.393 . S
C885 C884 1.391 . S
C886 H876 0.950 . S
C886 C887 1.386 . S
C886 C888 1.391 . S
C887 C886 1.386 . S
C887 C891 1.393 . S
C888 H877 0.950 . S
C888 C886 1.391 . S
C888 C889 1.400 . S
C889 C883 1.491 . S
C889 C888 1.400 . S
C889 C890 1.398 . S
C890 H878 0.950 . S
C890 C889 1.398 . S
C890 C891 1.391 . S
C891 H879 0.950 . S
C891 C887 1.393 . S
C891 C890 1.391 . S
H892 C900 0.950 . S
H893 C905 0.950 . S
H894 C902 0.950 . S
H895 C904 0.950 . S
H896 C906 0.950 . S
H897 C908 0.950 . S
H898 C910 0.950 . S
H899 C911 0.950 . S
C900 H892 0.950 . S
C900 C901 1.386 . S
C900 C902 1.391 . S
C901 C900 1.386 . S
C901 C905 1.393 . S
C902 H894 0.950 . S
C902 C900 1.391 . S
C902 C903 1.400 . S
C903 C902 1.400 . S
C903 C904 1.398 . S
C903 C909 1.491 . S
C904 H895 0.950 . S
C904 C903 1.398 . S
C904 C905 1.391 . S
C905 H893 0.950 . S
C905 C901 1.393 . S
C905 C904 1.391 . S
C906 H896 0.950 . S
C906 C907 1.386 . S
C906 C908 1.391 . S
C907 C906 1.386 . S
C907 C911 1.393 . S
C908 H897 0.950 . S
C908 C906 1.391 . S
C908 C909 1.400 . S
C909 C903 1.491 . S
C909 C908 1.400 . S
C909 C910 1.398 . S
C910 H898 0.950 . S
C910 C909 1.398 . S
C910 C911 1.391 . S
C911 H899 0.950 . S
C911 C907 1.393 . S
C911 C910 1.391 . S
H912 C920 0.950 . S
H913 C925 0.950 . S
H914 C922 0.950 . S
H915 C924 0.950 . S
H916 C926 0.950 . S
H917 C928 0.950 . S
H918 C930 0.950 . S
H919 C931 0.950 . S
C920 H912 0.950 . S
C920 C921 1.386 . S
C920 C922 1.391 . S
C921 C920 1.386 . S
C921 C925 1.393 . S
C922 H914 0.950 . S
C922 C920 1.391 . S
C922 C923 1.400 . S
C923 C922 1.400 . S
C923 C924 1.398 . S
C923 C929 1.491 . S
C924 H915 0.950 . S
C924 C923 1.398 . S
C924 C925 1.391 . S
C925 H913 0.950 . S
C925 C921 1.393 . S
C925 C924 1.391 . S
C926 H916 0.950 . S
C926 C927 1.386 . S
C926 C928 1.391 . S
C927 C926 1.386 . S
C927 C931 1.393 . S
C928 H917 0.950 . S
C928 C926 1.391 . S
C928 C929 1.400 . S
C929 C923 1.491 . S
C929 C928 1.400 . S
C929 C930 1.398 . S
C930 H918 0.950 . S
C930 C929 1.398 . S
C930 C931 1.391 . S
C931 H919 0.950 . S
C931 C927 1.393 . S
C931 C930 1.391 . S
C307 C228 1.768 . S
C301 C17 1.721 . S
C321 C30 1.670 . S
C327 C231 1.686 . S
C341 C61 1.652 . S
C347 C262 1.658 . S
C367 C197 1.756 . S
C361 C72 1.755 . S
C387 C232 1.770 . S
C381 C19 1.780 . S
C407 C263 1.787 . S
C401 C33 1.721 . S
C427 C188 1.727 . S
C421 C59 1.676 . S
C447 C219 1.714 . S
C441 C75 1.628 . S
C461 C12 1.339 . S
C467 C249 1.279 . S
C481 C101 1.337 . S
C487 C218 1.271 . S
C501 C51 1.237 . S
C507 C178 1.253 . S
C527 C271 1.269 . S
C521 C124 1.257 . S
C547 C199 1.311 . S
C541 C9 1.364 . S
C561 C103 1.279 . S
C567 C198 1.292 . S
C581 C54 1.286 . S
C587 C291 1.312 . S
C607 C230 1.290 . S
C601 C122 1.355 . S
C621 C145 1.740 . S
C627 C290 1.730 . S
C641 C96 1.623 . S
C647 C169 1.698 . S
C661 C166 1.672 1_655 S
C667 C200 1.677 . S
C681 C114 1.732 . S
C687 C259 1.732 . S
C707 C170 1.813 . S
C701 C143 1.773 . S
C721 C93 1.756 . S
C727 C201 1.755 . S
C741 C164 1.648 . S
C747 C250 1.701 . S
C767 C281 1.753 . S
C761 C117 1.680 . S
C781 C135 1.337 . S
C787 C187 1.256 . S
C801 C40 1.315 . S
C807 C280 1.230 . S
C821 C156 1.281 . S
C827 C240 1.269 . S
C847 C209 1.281 . S
C841 C82 1.298 . S
C867 C261 1.345 . S
C861 C138 1.389 . S
C887 C260 1.317 . S
C881 C38 1.294 . S
C907 C229 1.263 . S
C901 C159 1.246 . S
C927 C168 1.262 . S
C921 C80 1.331 . S
