# Generated by pormake.
# Topology wbl, (4,4)-cn, num edge types: 1
# Building blocks:
#     Node 0, Type 0, BuildingBlock: MUDLON_clean_linker_0, # of connection points: 4
#     Node 1, Type 0, BuildingBlock: MUDLON_clean_linker_0, # of connection points: 4
#     Node 2, Type 0, BuildingBlock: MUDLON_clean_linker_0, # of connection points: 4
#     Node 3, Type 0, BuildingBlock: MUDLON_clean_linker_0, # of connection points: 4
#     Node 4, Type 0, BuildingBlock: MUDLON_clean_linker_0, # of connection points: 4
#     Node 5, Type 0, BuildingBlock: MUDLON_clean_linker_0, # of connection points: 4
#     Node 6, Type 0, BuildingBlock: MUDLON_clean_linker_0, # of connection points: 4
#     Node 7, Type 0, BuildingBlock: MUDLON_clean_linker_0, # of connection points: 4
#     Node 8, Type 1, BuildingBlock: TATPOV_clean_sbu_0, # of connection points: 4
#     Node 9, Type 1, BuildingBlock: TATPOV_clean_sbu_0, # of connection points: 4
#     Node 10, Type 1, BuildingBlock: TATPOV_clean_sbu_0, # of connection points: 4
#     Node 11, Type 1, BuildingBlock: TATPOV_clean_sbu_0, # of connection points: 4
#     Node 12, Type 1, BuildingBlock: TATPOV_clean_sbu_0, # of connection points: 4
#     Node 13, Type 1, BuildingBlock: TATPOV_clean_sbu_0, # of connection points: 4
#     Node 14, Type 1, BuildingBlock: TATPOV_clean_sbu_0, # of connection points: 4
#     Node 15, Type 1, BuildingBlock: TATPOV_clean_sbu_0, # of connection points: 4
#     Edge 16, Type (0, 1), BuildingBlock: ZUJKAS_clean_linker_0, # of connection points: 2
#     Edge 17, Type (0, 1), BuildingBlock: ZUJKAS_clean_linker_0, # of connection points: 2
#     Edge 18, Type (0, 1), BuildingBlock: ZUJKAS_clean_linker_0, # of connection points: 2
#     Edge 19, Type (0, 1), BuildingBlock: ZUJKAS_clean_linker_0, # of connection points: 2
#     Edge 20, Type (0, 1), BuildingBlock: ZUJKAS_clean_linker_0, # of connection points: 2
#     Edge 21, Type (0, 1), BuildingBlock: ZUJKAS_clean_linker_0, # of connection points: 2
#     Edge 22, Type (0, 1), BuildingBlock: ZUJKAS_clean_linker_0, # of connection points: 2
#     Edge 23, Type (0, 1), BuildingBlock: ZUJKAS_clean_linker_0, # of connection points: 2
#     Edge 24, Type (0, 1), BuildingBlock: ZUJKAS_clean_linker_0, # of connection points: 2
#     Edge 25, Type (0, 1), BuildingBlock: ZUJKAS_clean_linker_0, # of connection points: 2
#     Edge 26, Type (0, 1), BuildingBlock: ZUJKAS_clean_linker_0, # of connection points: 2
#     Edge 27, Type (0, 1), BuildingBlock: ZUJKAS_clean_linker_0, # of connection points: 2
#     Edge 28, Type (0, 1), BuildingBlock: ZUJKAS_clean_linker_0, # of connection points: 2
#     Edge 29, Type (0, 1), BuildingBlock: ZUJKAS_clean_linker_0, # of connection points: 2
#     Edge 30, Type (0, 1), BuildingBlock: ZUJKAS_clean_linker_0, # of connection points: 2
#     Edge 31, Type (0, 1), BuildingBlock: ZUJKAS_clean_linker_0, # of connection points: 2
#     Edge 32, Type (0, 1), BuildingBlock: ZUJKAS_clean_linker_0, # of connection points: 2
#     Edge 33, Type (0, 1), BuildingBlock: ZUJKAS_clean_linker_0, # of connection points: 2
#     Edge 34, Type (0, 1), BuildingBlock: ZUJKAS_clean_linker_0, # of connection points: 2
#     Edge 35, Type (0, 1), BuildingBlock: ZUJKAS_clean_linker_0, # of connection points: 2
#     Edge 36, Type (0, 1), BuildingBlock: ZUJKAS_clean_linker_0, # of connection points: 2
#     Edge 37, Type (0, 1), BuildingBlock: ZUJKAS_clean_linker_0, # of connection points: 2
#     Edge 38, Type (0, 1), BuildingBlock: ZUJKAS_clean_linker_0, # of connection points: 2
#     Edge 39, Type (0, 1), BuildingBlock: ZUJKAS_clean_linker_0, # of connection points: 2
#     Edge 40, Type (0, 1), BuildingBlock: ZUJKAS_clean_linker_0, # of connection points: 2
#     Edge 41, Type (0, 1), BuildingBlock: ZUJKAS_clean_linker_0, # of connection points: 2
#     Edge 42, Type (0, 1), BuildingBlock: ZUJKAS_clean_linker_0, # of connection points: 2
#     Edge 43, Type (0, 1), BuildingBlock: ZUJKAS_clean_linker_0, # of connection points: 2
#     Edge 44, Type (0, 1), BuildingBlock: ZUJKAS_clean_linker_0, # of connection points: 2
#     Edge 45, Type (0, 1), BuildingBlock: ZUJKAS_clean_linker_0, # of connection points: 2
#     Edge 46, Type (0, 1), BuildingBlock: ZUJKAS_clean_linker_0, # of connection points: 2
#     Edge 47, Type (0, 1), BuildingBlock: ZUJKAS_clean_linker_0, # of connection points: 2
# Relax obj value: 0.127
# Max RMSD: 0.125
# Mean RMSD: 0.116
data_MOF--net-wbl--node1-TATPOV_clean_sbu_0--node2-MUDLON_clean_linker_0--edge1-ZUJKAS_clean_linker_0
_symmetry_space_group_name_H-M    P1
_symmetry_Int_Tables_number       1
_symmetry_cell_setting            triclinic
loop_
_symmetry_equiv_pos_as_xyz
'x, y, z'
_cell_length_a     65.162287
_cell_length_b     65.158498
_cell_length_c     91.928472
_cell_angle_alpha  91.344198
_cell_angle_beta   91.345274
_cell_angle_gamma 89.991113
loop_
_atom_site_label
_atom_site_type_symbol
_atom_site_fract_x
_atom_site_fract_y
_atom_site_fract_z
_atom_type_partial_charge
H0 H 0.13727 0.00846 0.33821 0.0
N1 N 0.11329 0.99483 0.3163 0.0
H2 H 0.1443 0.99191 0.36151 0.0
H3 H 0.0961 0.95914 0.32546 0.0
H4 H 0.10318 0.94246 0.34846 0.0
H5 H 0.09208 0.96529 0.30055 0.0
H6 H 0.10641 0.94261 0.28159 0.0
H7 H 0.14914 0.9986 0.3038 0.0
H8 H 0.16333 0.97659 0.28462 0.0
H9 H 0.11433 0.03227 0.30581 0.0
H10 H 0.07297 0.98743 0.32251 0.0
H11 H 0.08646 0.05725 0.30467 0.0
H12 H 0.04539 0.01262 0.32247 0.0
H13 H 0.00431 0.13575 0.33635 0.0
H14 H 0.99316 0.14365 0.36109 0.0
H15 H 0.97926 0.07953 0.3668 0.0
H16 H 0.99046 0.07181 0.34202 0.0
H17 H 0.96632 0.07852 0.32215 0.0
H18 H 0.93508 0.08747 0.3088 0.0
H19 H 0.96805 0.13467 0.28673 0.0
H20 H -0.00073 0.12596 0.3006 0.0
H21 H 0.04286 0.10407 0.32437 0.0
H22 H 0.06904 0.07777 0.32131 0.0
H23 H 0.02175 0.03325 0.30987 0.0
N24 N 0.00265 0.09983 0.32223 0.0
H25 H 0.99567 0.05947 0.31381 0.0
C26 C 0.11622 0.98511 0.33011 0.0
C27 C 0.12969 0.99413 0.34049 0.0
C28 C 0.13375 0.98461 0.35371 0.0
C29 C 0.12431 0.96586 0.35681 0.0
C30 C 0.1105 0.95702 0.34649 0.0
C31 C 0.10653 0.96651 0.33325 0.0
C32 C 0.11981 0.98333 0.30372 0.0
C33 C 0.10758 0.96787 0.29704 0.0
C34 C 0.11571 0.95504 0.28618 0.0
C35 C 0.13596 0.95787 0.28164 0.0
C36 C 0.1476 0.9742 0.28775 0.0
C37 C 0.13961 0.98671 0.29873 0.0
C38 C 0.09591 0.00822 0.31453 0.0
C39 C 0.09919 0.02786 0.30923 0.0
C40 C 0.08327 0.04215 0.30875 0.0
C41 C 0.06371 0.03719 0.31382 0.0
C42 C 0.06018 0.01705 0.31843 0.0
C43 C 0.07607 0.00261 0.31863 0.0
C44 C 0.99815 0.10332 0.33735 0.0
C45 C 0.99918 0.1234 0.34306 0.0
C46 C 0.99288 0.12783 0.35719 0.0
C47 C 0.98529 0.1122 0.36587 0.0
C48 C 0.98486 0.09191 0.3603 0.0
C49 C 0.99132 0.08747 0.34617 0.0
C50 C 0.98517 0.10176 0.31246 0.0
C51 C 0.96701 0.09051 0.31425 0.0
C52 C 0.9491 0.09559 0.30651 0.0
C53 C 0.94898 0.11198 0.29682 0.0
C54 C 0.96753 0.12222 0.29432 0.0
C55 C 0.98541 0.11716 0.30211 0.0
C56 C 0.01738 0.08391 0.31921 0.0
C57 C 0.03822 0.08865 0.32109 0.0
C58 C 0.05315 0.07358 0.31921 0.0
C59 C 0.0476 0.05332 0.31518 0.0
C60 C 0.02663 0.0486 0.3131 0.0
C61 C 0.01163 0.0637 0.31522 0.0
H62 H 0.97319 0.40749 0.58588 0.0
N63 N 0.97549 0.44158 0.57087 0.0
H64 H 0.95312 0.40152 0.6075 0.0
H65 H 0.95166 0.46996 0.58495 0.0
H66 H 0.93189 0.46438 0.60687 0.0
H67 H 0.93862 0.45604 0.56053 0.0
H68 H 0.91868 0.4416 0.53986 0.0
H69 H 0.98811 0.41424 0.55126 0.0
H70 H 0.96828 0.39959 0.53063 0.0
H71 H 0.01208 0.4436 0.58382 0.0
H72 H 0.9694 0.4789 0.55808 0.0
H73 H 0.03603 0.47231 0.5847 0.0
H74 H 0.99379 0.50726 0.55799 0.0
H75 H 0.11154 0.56094 0.59133 0.0
H76 H 0.11884 0.5757 0.61554 0.0
H77 H 0.05377 0.58418 0.62178 0.0
H78 H 0.04681 0.57052 0.59735 0.0
H79 H 0.05256 0.59279 0.57513 0.0
H80 H 0.06054 0.62202 0.56009 0.0
H81 H 0.11162 0.58834 0.54216 0.0
H82 H 0.10308 0.55902 0.55695 0.0
H83 H 0.08355 0.51828 0.57415 0.0
H84 H 0.05913 0.49007 0.57095 0.0
H85 H 0.00902 0.53365 0.57209 0.0
N86 N 0.0755 0.5578 0.57757 0.0
H87 H 0.0337 0.56169 0.57413 0.0
C88 C 0.96401 0.4391 0.58391 0.0
C89 C 0.96426 0.41996 0.59049 0.0
C90 C 0.95288 0.41666 0.60288 0.0
C91 C 0.94099 0.43253 0.609 0.0
C92 C 0.94075 0.45179 0.60237 0.0
C93 C 0.95214 0.45506 0.58991 0.0
C94 C 0.96476 0.43593 0.55751 0.0
C95 C 0.94535 0.44402 0.55388 0.0
C96 C 0.93397 0.43575 0.54207 0.0
C97 C 0.94184 0.41936 0.53368 0.0
C98 C 0.96186 0.41236 0.53676 0.0
C99 C 0.97316 0.42058 0.54858 0.0
C100 C 0.98915 0.45893 0.57076 0.0
C101 C 0.00806 0.4575 0.57817 0.0
C102 C 0.0218 0.47389 0.57852 0.0
C103 C 0.01707 0.49211 0.57122 0.0
C104 C 0.99795 0.49358 0.56384 0.0
C105 C 0.98401 0.47724 0.56374 0.0
C106 C 0.07873 0.56441 0.59252 0.0
C107 C 0.09889 0.56577 0.59804 0.0
C108 C 0.10298 0.5741 0.61192 0.0
C109 C 0.08688 0.58113 0.62069 0.0
C110 C 0.06657 0.5792 0.61528 0.0
C111 C 0.06253 0.57111 0.60129 0.0
C112 C 0.07729 0.57371 0.5671 0.0
C113 C 0.06505 0.59146 0.56763 0.0
C114 C 0.06979 0.60826 0.55913 0.0
C115 C 0.08686 0.60762 0.55003 0.0
C116 C 0.09824 0.58933 0.54891 0.0
C117 C 0.09345 0.57256 0.55737 0.0
C118 C 0.0605 0.54197 0.57464 0.0
C119 C 0.06728 0.52166 0.57351 0.0
C120 C 0.05325 0.50557 0.57185 0.0
C121 C 0.03199 0.50946 0.57158 0.0
C122 C 0.02523 0.52999 0.57219 0.0
C123 C 0.03936 0.54611 0.57354 0.0
H124 H 0.6225 0.46971 0.84041 0.0
N125 N 0.58883 0.47447 0.82411 0.0
H126 H 0.6266 0.44962 0.86243 0.0
H127 H 0.55892 0.45183 0.83667 0.0
H128 H 0.56265 0.43208 0.85889 0.0
H129 H 0.57184 0.43894 0.8127 0.0
H130 H 0.58412 0.41932 0.79163 0.0
H131 H 0.61637 0.48621 0.80528 0.0
H132 H 0.62883 0.4667 0.78422 0.0
H133 H 0.59057 0.5114 0.83655 0.0
H134 H 0.55024 0.47085 0.81166 0.0
H135 H 0.56336 0.53697 0.83803 0.0
H136 H 0.52318 0.49675 0.81234 0.0
H137 H 0.47412 0.61761 0.84464 0.0
H138 H 0.45992 0.62683 0.86818 0.0
H139 H 0.45869 0.56265 0.87913 0.0
H140 H 0.47177 0.55359 0.85533 0.0
H141 H 0.44268 0.55892 0.83483 0.0
H142 H 0.41078 0.56669 0.82175 0.0
H143 H 0.44282 0.61097 0.79635 0.0
H144 H 0.47463 0.60349 0.80989 0.0
H145 H 0.51801 0.58661 0.82852 0.0
H146 H 0.54476 0.56096 0.82459 0.0
H147 H 0.49961 0.51275 0.82809 0.0
N148 N 0.47866 0.58033 0.83311 0.0
H149 H 0.47291 0.53859 0.83111 0.0
C150 C 0.59048 0.46236 0.83699 0.0
C151 C 0.60942 0.46149 0.84442 0.0
C152 C 0.61166 0.45013 0.85703 0.0
C153 C 0.5949 0.43938 0.8625 0.0
C154 C 0.5759 0.44006 0.85492 0.0
C155 C 0.5737 0.45144 0.84226 0.0
C156 C 0.59346 0.46395 0.81064 0.0
C157 C 0.58403 0.44527 0.8064 0.0
C158 C 0.59107 0.43406 0.79436 0.0
C159 C 0.60752 0.4414 0.78631 0.0
C160 C 0.61598 0.46071 0.79007 0.0
C161 C 0.609 0.47183 0.80213 0.0
C162 C 0.57257 0.4894 0.82389 0.0
C163 C 0.5759 0.50822 0.83118 0.0
C164 C 0.56034 0.52285 0.83191 0.0
C165 C 0.54105 0.51907 0.82518 0.0
C166 C 0.53775 0.50014 0.81777 0.0
C167 C 0.55331 0.48536 0.81722 0.0
C168 C 0.47411 0.58501 0.84813 0.0
C169 C 0.47119 0.6056 0.85227 0.0
C170 C 0.46313 0.61081 0.86579 0.0
C171 C 0.45799 0.59547 0.8756 0.0
C172 C 0.46207 0.57486 0.87177 0.0
C173 C 0.46986 0.56964 0.85813 0.0
C174 C 0.46101 0.58087 0.82341 0.0
C175 C 0.44299 0.56988 0.82618 0.0
C176 C 0.42472 0.57432 0.81865 0.0
C177 C 0.42418 0.58972 0.80818 0.0
C178 C 0.44264 0.59934 0.80457 0.0
C179 C 0.46085 0.59497 0.81217 0.0
C180 C 0.49361 0.56457 0.8303 0.0
C181 C 0.51395 0.57048 0.82831 0.0
C182 C 0.5292 0.55577 0.82619 0.0
C183 C 0.52445 0.5347 0.82624 0.0
C184 C 0.50386 0.52879 0.82786 0.0
C185 C 0.48854 0.54359 0.82975 0.0
H186 H 0.51621 0.88687 0.09543 0.0
N187 N 0.50867 0.9214 0.08164 0.0
H188 H 0.50299 0.87669 0.1189 0.0
H189 H 0.48894 0.94669 0.10121 0.0
H190 H 0.47535 0.93657 0.12438 0.0
H191 H 0.46868 0.93412 0.07984 0.0
H192 H 0.44186 0.91883 0.06422 0.0
H193 H 0.51398 0.896 0.0591 0.0
H194 H 0.48747 0.88152 0.04265 0.0
H195 H 0.54816 0.92072 0.07593 0.0
H196 H 0.49652 0.96152 0.07973 0.0
H197 H 0.57006 0.94947 0.06996 0.0
H198 H 0.51857 0.9908 0.0752 0.0
H199 H 0.63701 0.04772 0.07695 0.0
H200 H 0.64568 0.06449 0.10045 0.0
H201 H 0.58124 0.07481 0.10785 0.0
H202 H 0.5727 0.05773 0.08443 0.0
H203 H 0.57186 0.07263 0.06114 0.0
H204 H 0.57414 0.09998 0.04363 0.0
H205 H 0.62708 0.07045 0.02495 0.0
H206 H 0.62439 0.04285 0.0424 0.0
H207 H 0.60949 0.0059 0.0761 0.0
H208 H 0.587 0.97701 0.08015 0.0
H209 H 0.53703 0.00902 0.05867 0.0
N210 N 0.59996 0.04175 0.06504 0.0
H211 H 0.55929 0.03844 0.05572 0.0
C212 C 0.50363 0.91746 0.0965 0.0
C213 C 0.50773 0.89792 0.1019 0.0
C214 C 0.49999 0.89209 0.11522 0.0
C215 C 0.48789 0.90574 0.12343 0.0
C216 C 0.48474 0.92574 0.11839 0.0
C217 C 0.49251 0.93155 0.10505 0.0
C218 C 0.49325 0.91571 0.07086 0.0
C219 C 0.47293 0.92277 0.07169 0.0
C220 C 0.45759 0.91412 0.0626 0.0
C221 C 0.46239 0.89858 0.05234 0.0
C222 C 0.48309 0.89297 0.05072 0.0
C223 C 0.49831 0.90134 0.05999 0.0
C224 C 0.52097 0.93905 0.0787 0.0
C225 C 0.54171 0.93604 0.07579 0.0
C226 C 0.55421 0.95258 0.07248 0.0
C227 C 0.5463 0.97269 0.07234 0.0
C228 C 0.52529 0.97561 0.07509 0.0
C229 C 0.51267 0.9589 0.07802 0.0
C230 C 0.60434 0.05164 0.07894 0.0
C231 C 0.62481 0.05357 0.08369 0.0
C232 C 0.62969 0.06302 0.0971 0.0
C233 C 0.6141 0.07089 0.10596 0.0
C234 C 0.59353 0.06901 0.10117 0.0
C235 C 0.58865 0.05932 0.08781 0.0
C236 C 0.59807 0.05565 0.05311 0.0
C237 C 0.58361 0.07168 0.05305 0.0
C238 C 0.585 0.08741 0.04306 0.0
C239 C 0.60096 0.08755 0.03302 0.0
C240 C 0.61449 0.07075 0.03244 0.0
C241 C 0.61303 0.05498 0.04242 0.0
C242 C 0.58631 0.02435 0.06557 0.0
C243 C 0.5937 0.00659 0.07219 0.0
C244 C 0.58077 0.98999 0.07439 0.0
C245 C 0.56007 0.99046 0.06968 0.0
C246 C 0.55274 0.00814 0.0627 0.0
C247 C 0.56563 0.02502 0.06083 0.0
H248 H 0.11579 0.54501 0.93625 0.0
N249 N 0.08074 0.54465 0.95023 0.0
H250 H 0.12428 0.56507 0.91506 0.0
H251 H 0.05431 0.56927 0.93509 0.0
H252 H 0.06258 0.58943 0.91376 0.0
H253 H 0.06293 0.58022 0.96011 0.0
H254 H 0.07559 0.6019 0.98041 0.0
H255 H 0.10884 0.5348 0.97015 0.0
H256 H 0.12201 0.55655 0.99025 0.0
H257 H 0.08035 0.50848 0.93666 0.0
H258 H 0.04244 0.54926 0.96204 0.0
H259 H 0.0524 0.48375 0.93463 0.0
H260 H 0.01487 0.52404 0.961 0.0
H261 H 0.96388 0.40504 0.92575 0.0
H262 H 0.94957 0.39807 0.90138 0.0
H263 H 0.94455 0.46335 0.89455 0.0
H264 H 0.95763 0.47005 0.91912 0.0
H265 H 0.93135 0.46165 0.93983 0.0
H266 H 0.90143 0.45204 0.95364 0.0
H267 H 0.93771 0.40609 0.97562 0.0
H268 H 0.96737 0.4154 0.96133 0.0
H269 H 0.00764 0.43436 0.94335 0.0
H270 H 0.03485 0.45966 0.94747 0.0
H271 H 0.98954 0.50823 0.94635 0.0
N272 N 0.96795 0.44108 0.93942 0.0
H273 H 0.96243 0.48256 0.94341 0.0
C274 C 0.08453 0.55568 0.93719 0.0
C275 C 0.10408 0.55453 0.93127 0.0
C276 C 0.10884 0.56593 0.91915 0.0
C277 C 0.09407 0.57881 0.9127 0.0
C278 C 0.07432 0.57978 0.91856 0.0
C279 C 0.06955 0.56825 0.93069 0.0
C280 C 0.08511 0.55591 0.9636 0.0
C281 C 0.07544 0.57469 0.96689 0.0
C282 C 0.08276 0.58712 0.97847 0.0
C283 C 0.09995 0.58108 0.98687 0.0
C284 C 0.10859 0.56161 0.98415 0.0
C285 C 0.1012 0.54918 0.97262 0.0
C286 C 0.0637 0.53057 0.94961 0.0
C287 C 0.06605 0.51193 0.94197 0.0
C288 C 0.05007 0.49772 0.94097 0.0
C289 C 0.03137 0.50164 0.94786 0.0
C290 C 0.02894 0.52049 0.95545 0.0
C291 C 0.04487 0.53493 0.95619 0.0
C292 C 0.96203 0.43796 0.92431 0.0
C293 C 0.95994 0.4178 0.91888 0.0
C294 C 0.95186 0.41389 0.90489 0.0
C295 C 0.94586 0.43016 0.89592 0.0
C296 C 0.94868 0.45043 0.9012 0.0
C297 C 0.95647 0.45431 0.91529 0.0
C298 C 0.95152 0.439 0.94947 0.0
C299 C 0.93298 0.44985 0.94786 0.0
C300 C 0.91588 0.44435 0.95581 0.0
C301 C 0.91708 0.42803 0.96556 0.0
C302 C 0.93614 0.4184 0.96796 0.0
C303 C 0.95315 0.42381 0.95994 0.0
C304 C 0.98316 0.45656 0.94281 0.0
C305 C 0.00366 0.45048 0.94418 0.0
C306 C 0.01918 0.46503 0.94636 0.0
C307 C 0.01454 0.48614 0.94691 0.0
C308 C 0.99379 0.49217 0.94605 0.0
C309 C 0.97821 0.47749 0.9442 0.0
H310 H 0.53049 0.37918 0.18709 0.0
N311 N 0.52477 0.41596 0.19926 0.0
H312 H 0.54908 0.37067 0.16504 0.0
H313 H 0.54207 0.44349 0.18096 0.0
H314 H 0.55946 0.43535 0.15842 0.0
H315 H 0.56142 0.43499 0.2058 0.0
H316 H 0.58608 0.42496 0.22474 0.0
H317 H 0.51815 0.3907 0.22082 0.0
H318 H 0.5429 0.38005 0.23952 0.0
H319 H 0.48553 0.41343 0.19142 0.0
H320 H 0.53171 0.45646 0.20706 0.0
H321 H 0.46066 0.44143 0.18942 0.0
H322 H 0.50703 0.48449 0.20499 0.0
H323 H 0.38609 0.53184 0.17588 0.0
H324 H 0.37825 0.54844 0.1528 0.0
H325 H 0.44269 0.56194 0.14819 0.0
H326 H 0.4504 0.5446 0.17094 0.0
H327 H 0.453 0.55795 0.19492 0.0
H328 H 0.45038 0.58982 0.20926 0.0
H329 H 0.38901 0.57294 0.22129 0.0
H330 H 0.39195 0.54094 0.20707 0.0
H331 H 0.43052 0.49847 0.17102 0.0
H332 H 0.45572 0.47133 0.1739 0.0
H333 H 0.47434 0.49715 0.2158 0.0
N334 N 0.42223 0.52981 0.18976 0.0
H335 H 0.44934 0.52432 0.21307 0.0
C336 C 0.53463 0.41188 0.18561 0.0
C337 C 0.5367 0.39147 0.18079 0.0
C338 C 0.54722 0.38669 0.16811 0.0
C339 C 0.55572 0.40232 0.1598 0.0
C340 C 0.55339 0.42286 0.16458 0.0
C341 C 0.54317 0.42759 0.17743 0.0
C342 C 0.53792 0.41348 0.21191 0.0
C343 C 0.557 0.42349 0.21343 0.0
C344 C 0.57117 0.4176 0.2242 0.0
C345 C 0.56659 0.40151 0.23355 0.0
C346 C 0.5469 0.39263 0.23264 0.0
C347 C 0.53274 0.39861 0.22192 0.0
C348 C 0.51037 0.43274 0.19945 0.0
C349 C 0.49021 0.4289 0.19454 0.0
C350 C 0.47612 0.44491 0.19329 0.0
C351 C 0.48196 0.46518 0.19695 0.0
C352 C 0.50207 0.469 0.2022 0.0
C353 C 0.5162 0.45294 0.20339 0.0
C354 C 0.41871 0.5371 0.17518 0.0
C355 C 0.39851 0.53803 0.1697 0.0
C356 C 0.39408 0.54771 0.15661 0.0
C357 C 0.40981 0.55681 0.14875 0.0
C358 C 0.43021 0.55502 0.15391 0.0
C359 C 0.43464 0.54525 0.167 0.0
C360 C 0.42256 0.54707 0.19992 0.0
C361 C 0.4391 0.56099 0.2008 0.0
C362 C 0.43756 0.57923 0.20898 0.0
C363 C 0.41943 0.584 0.21633 0.0
C364 C 0.4033 0.56964 0.21593 0.0
C365 C 0.40489 0.55138 0.20779 0.0
C366 C 0.43853 0.51463 0.1913 0.0
C367 C 0.44034 0.49879 0.18069 0.0
C368 C 0.45459 0.48301 0.18243 0.0
C369 C 0.46717 0.48226 0.195 0.0
C370 C 0.4652 0.49763 0.20581 0.0
C371 C 0.45085 0.5134 0.20413 0.0
H372 H 0.39435 0.0075 0.43722 0.0
N373 N 0.42891 0.00621 0.45306 0.0
H374 H 0.38602 0.9883 0.41463 0.0
H375 H 0.45452 0.98003 0.4384 0.0
H376 H 0.44617 0.96029 0.41624 0.0
H377 H 0.44243 0.96815 0.46126 0.0
H378 H 0.42641 0.947 0.47916 0.0
H379 H 0.40453 0.01937 0.47401 0.0
H380 H 0.38927 0.99869 0.4928 0.0
H381 H 0.42967 0.04486 0.44519 0.0
H382 H 0.46843 0.99644 0.46129 0.0
H383 H 0.45975 0.06669 0.44239 0.0
H384 H 0.49876 0.01806 0.45828 0.0
H385 H 0.55051 0.13348 0.42573 0.0
H386 H 0.56516 0.13975 0.40198 0.0
H387 H 0.57832 0.07499 0.39684 0.0
H388 H 0.56288 0.06883 0.42033 0.0
H389 H 0.57718 0.06734 0.44409 0.0
H390 H 0.60994 0.07051 0.45749 0.0
H391 H 0.59457 0.13296 0.46988 0.0
H392 H 0.5618 0.12949 0.4566 0.0
H393 H 0.51703 0.08928 0.42164 0.0
H394 H 0.48864 0.06633 0.42585 0.0
H395 H 0.51557 0.05074 0.46746 0.0
N396 N 0.54935 0.09826 0.43964 0.0
H397 H 0.54417 0.07347 0.46335 0.0
C398 C 0.42494 0.99521 0.4395 0.0
C399 C 0.40573 0.99732 0.43258 0.0
C400 C 0.40098 0.98623 0.41975 0.0
C401 C 0.4154 0.97267 0.41365 0.0
C402 C 0.4348 0.97079 0.42052 0.0
C403 C 0.43956 0.98199 0.43329 0.0
C404 C 0.42415 0.99523 0.46598 0.0
C405 C 0.43111 0.97509 0.46823 0.0
C406 C 0.42202 0.963 0.47866 0.0
C407 C 0.40608 0.97093 0.48722 0.0
C408 C 0.401 0.99185 0.48609 0.0
C409 C 0.40984 0.00379 0.47547 0.0
C410 C 0.4468 0.01915 0.45342 0.0
C411 C 0.4447 0.03909 0.44828 0.0
C412 C 0.4619 0.0514 0.44654 0.0
C413 C 0.48165 0.04396 0.44989 0.0
C414 C 0.48373 0.02421 0.45562 0.0
C415 C 0.46642 0.01184 0.45735 0.0
C416 C 0.55574 0.10081 0.42484 0.0
C417 C 0.55624 0.12064 0.41932 0.0
C418 C 0.5648 0.12418 0.40584 0.0
C419 C 0.5732 0.10791 0.3976 0.0
C420 C 0.57191 0.08785 0.40286 0.0
C421 C 0.56324 0.08432 0.41636 0.0
C422 C 0.5671 0.09831 0.44933 0.0
C423 C 0.58077 0.08159 0.44987 0.0
C424 C 0.5995 0.08344 0.4575 0.0
C425 C 0.60493 0.10203 0.46467 0.0
C426 C 0.59078 0.11833 0.46466 0.0
C427 C 0.57207 0.11644 0.45705 0.0
C428 C 0.53378 0.08261 0.44169 0.0
C429 C 0.51737 0.08052 0.43151 0.0
C430 C 0.50085 0.06758 0.43402 0.0
C431 C 0.49991 0.05667 0.44697 0.0
C432 C 0.51608 0.05866 0.45725 0.0
C433 C 0.53264 0.07168 0.45477 0.0
H434 H 0.0609 0.90212 0.68252 0.0
N435 N 0.05961 0.93709 0.69778 0.0
H436 H 0.07896 0.89508 0.65992 0.0
H437 H 0.08243 0.96465 0.68288 0.0
H438 H 0.09991 0.95805 0.66008 0.0
H439 H 0.0963 0.95374 0.70715 0.0
H440 H 0.11712 0.94242 0.72802 0.0
H441 H 0.04853 0.91147 0.71805 0.0
H442 H 0.06908 0.90015 0.73894 0.0
H443 H 0.01972 0.9324 0.69311 0.0
H444 H 0.06584 0.97793 0.70388 0.0
H445 H 0.99327 0.95896 0.69308 0.0
H446 H 0.03972 0.00491 0.7031 0.0
H447 H 0.91565 0.04897 0.67874 0.0
H448 H 0.90911 0.06665 0.65588 0.0
H449 H 0.97393 0.0794 0.65293 0.0
H450 H 0.98034 0.06145 0.67571 0.0
H451 H 0.97703 0.07812 0.69947 0.0
H452 H 0.96811 0.10918 0.71328 0.0
H453 H 0.91066 0.08129 0.72468 0.0
H454 H 0.92002 0.05015 0.71114 0.0
H455 H 0.95533 0.01183 0.67706 0.0
H456 H 0.98215 0.98605 0.67841 0.0
H457 H 0.01032 0.01904 0.71499 0.0
N458 N 0.95112 0.04577 0.69329 0.0
H459 H 0.98403 0.04522 0.7133 0.0
C460 C 0.07015 0.93385 0.68433 0.0
C461 C 0.06938 0.91436 0.67762 0.0
C462 C 0.07961 0.91044 0.66467 0.0
C463 C 0.09081 0.92604 0.65811 0.0
C464 C 0.09161 0.94562 0.6649 0.0
C465 C 0.08144 0.94948 0.67791 0.0
C466 C 0.07101 0.9331 0.71097 0.0
C467 C 0.09015 0.94228 0.71417 0.0
C468 C 0.10201 0.93583 0.72611 0.0
C469 C 0.09476 0.92036 0.73509 0.0
C470 C 0.07501 0.91228 0.73236 0.0
C471 C 0.0633 0.91858 0.72039 0.0
C472 C 0.04464 0.95324 0.69828 0.0
C473 C 0.02408 0.94822 0.69537 0.0
C474 C 0.00907 0.96345 0.69524 0.0
C475 C 0.01439 0.98416 0.69787 0.0
C476 C 0.03505 0.98913 0.70111 0.0
C477 C 0.05006 0.97376 0.7014 0.0
C478 C 0.94837 0.05394 0.67891 0.0
C479 C 0.92844 0.05529 0.673 0.0
C480 C 0.92475 0.06551 0.66005 0.0
C481 C 0.941 0.07458 0.65273 0.0
C482 C 0.96114 0.07247 0.65831 0.0
C483 C 0.9648 0.0623 0.67134 0.0
C484 C 0.9491 0.06178 0.70428 0.0
C485 C 0.96283 0.07846 0.70533 0.0
C486 C 0.95762 0.09628 0.71314 0.0
C487 C 0.93852 0.09787 0.71989 0.0
C488 C 0.92558 0.08058 0.71975 0.0
C489 C 0.93087 0.06273 0.71202 0.0
C490 C 0.96767 0.03099 0.69469 0.0
C491 C 0.96742 0.0137 0.68527 0.0
C492 C 0.98268 0.9988 0.68617 0.0
C493 C 0.99844 0.00042 0.69683 0.0
C494 C 0.99863 0.01751 0.70647 0.0
C495 C 0.98342 0.03261 0.70546 0.0
Zn496 Zn 0.29671 0.7185 0.98786 0.0
Zn497 Zn 0.31545 0.7004 0.01125 0.0
O498 O 0.28505 0.69434 0.01396 0.0
O499 O 0.26938 0.70851 0.99525 0.0
O500 O 0.3289 0.68656 0.02839 0.0
O501 O 0.3087 0.74569 0.99506 0.0
O502 O 0.32385 0.73059 0.01363 0.0
C503 C 0.26862 0.69839 0.00683 0.0
C504 C 0.32612 0.6872 0.97998 0.0
O505 O 0.32798 0.68563 0.99372 0.0
O506 O 0.31376 0.70016 0.9746 0.0
C507 C 0.34732 0.68013 0.02819 0.0
O508 O 0.35833 0.68319 0.01665 0.0
C509 C 0.32009 0.74669 0.00642 0.0
Zn510 Zn 0.32265 0.80597 0.28517 0.0
Zn511 Zn 0.3436 0.82589 0.26438 0.0
O512 O 0.3137 0.83263 0.25907 0.0
O513 O 0.29636 0.81647 0.27561 0.0
O514 O 0.36001 0.83967 0.24907 0.0
O515 O 0.33519 0.77901 0.27857 0.0
O516 O 0.35204 0.7957 0.26208 0.0
C517 C 0.29665 0.82783 0.2646 0.0
C518 C 0.35001 0.83767 0.29666 0.0
O519 O 0.35364 0.84014 0.28326 0.0
O520 O 0.33759 0.8239 0.3004 0.0
C521 C 0.36115 0.83163 0.23638 0.0
O522 O 0.35097 0.81462 0.23329 0.0
C523 C 0.34772 0.77899 0.26825 0.0
Zn524 Zn 0.22089 0.80877 0.48491 0.0
Zn525 Zn 0.20176 0.83103 0.50602 0.0
O526 O 0.23236 0.83669 0.51009 0.0
O527 O 0.24839 0.8176 0.49388 0.0
O528 O 0.18742 0.84597 0.52233 0.0
O529 O 0.20656 0.78297 0.49123 0.0
O530 O 0.19167 0.80149 0.50829 0.0
C531 C 0.24898 0.83033 0.50453 0.0
C532 C 0.19448 0.84154 0.47416 0.0
O533 O 0.19095 0.84472 0.4876 0.0
O534 O 0.2066 0.8273 0.47027 0.0
C535 C 0.19417 0.86236 0.52852 0.0
O536 O 0.21122 0.87059 0.52402 0.0
C537 C 0.19447 0.78427 0.5018 0.0
Zn538 Zn 0.21534 0.71866 0.74833 0.0
Zn539 Zn 0.19286 0.70276 0.76984 0.0
O540 O 0.19051 0.73387 0.77352 0.0
O541 O 0.20915 0.7471 0.75641 0.0
O542 O 0.17664 0.69053 0.78586 0.0
O543 O 0.24006 0.70293 0.75558 0.0
O544 O 0.22144 0.68997 0.77281 0.0
C545 C 0.19782 0.74948 0.76734 0.0
C546 C 0.18066 0.69436 0.73787 0.0
O547 O 0.17762 0.69239 0.7514 0.0
O548 O 0.19573 0.70483 0.7337 0.0
C549 C 0.17906 0.69666 0.79902 0.0
O550 O 0.19224 0.71146 0.80215 0.0
C551 C 0.23847 0.69133 0.76636 0.0
Zn552 Zn 0.8216 0.21591 0.52877 0.0
Zn553 Zn 0.84256 0.19727 0.5069 0.0
O554 O 0.84534 0.22786 0.50273 0.0
O555 O 0.82788 0.24341 0.51998 0.0
O556 O 0.85854 0.18378 0.4909 0.0
O557 O 0.79645 0.19969 0.52208 0.0
O558 O 0.81371 0.18511 0.5043 0.0
C559 C 0.83871 0.24429 0.50874 0.0
C560 C 0.85604 0.19169 0.53875 0.0
O561 O 0.85797 0.18805 0.52519 0.0
O562 O 0.84179 0.20333 0.54319 0.0
C563 C 0.87738 0.1884 0.48979 0.0
O564 O 0.88563 0.20183 0.49908 0.0
C565 C 0.79712 0.18738 0.51122 0.0
Zn566 Zn 0.80006 0.30698 0.77031 0.0
Zn567 Zn 0.81782 0.32722 0.7484 0.0
O568 O 0.787 0.33194 0.74463 0.0
O569 O 0.77223 0.31519 0.76208 0.0
O570 O 0.83146 0.34154 0.73201 0.0
O571 O 0.81379 0.28072 0.76372 0.0
O572 O 0.82843 0.2976 0.74628 0.0
C573 C 0.77083 0.32628 0.75096 0.0
C574 C 0.827 0.34016 0.78008 0.0
O575 O 0.82923 0.34251 0.76649 0.0
O576 O 0.81543 0.32609 0.78452 0.0
C577 C 0.82512 0.35859 0.72718 0.0
O578 O 0.80891 0.36728 0.73291 0.0
C579 C 0.82572 0.281 0.75304 0.0
Zn580 Zn 0.71145 0.30196 0.03086 0.0
Zn581 Zn 0.68838 0.32064 0.01007 0.0
O582 O 0.68347 0.28987 0.00574 0.0
O583 O 0.70312 0.27445 0.02192 0.0
O584 O 0.67256 0.33483 0.99413 0.0
O585 O 0.73673 0.31692 0.02422 0.0
O586 O 0.71756 0.33144 0.00733 0.0
C587 C 0.69038 0.27345 0.0113 0.0
C588 C 0.67855 0.32734 0.04215 0.0
O589 O 0.67514 0.33116 0.02878 0.0
O590 O 0.69293 0.31527 0.04583 0.0
C591 C 0.65615 0.32785 0.98813 0.0
O592 O 0.64847 0.31048 0.99253 0.0
C593 C 0.73497 0.32897 0.01364 0.0
Zn594 Zn 0.72619 0.22081 0.23681 0.0
Zn595 Zn 0.707 0.2001 0.25788 0.0
O596 O 0.69904 0.2303 0.26151 0.0
O597 O 0.71518 0.24759 0.24498 0.0
O598 O 0.69276 0.18599 0.27414 0.0
O599 O 0.75326 0.20929 0.24413 0.0
O600 O 0.73735 0.19262 0.26112 0.0
C601 C 0.70335 0.24729 0.25571 0.0
C602 C 0.69665 0.19074 0.22573 0.0
O603 O 0.69435 0.18729 0.23918 0.0
O604 O 0.7091 0.20443 0.2219 0.0
C605 C 0.68552 0.16787 0.27321 0.0
O606 O 0.68745 0.15711 0.26106 0.0
C607 C 0.75384 0.19728 0.25477 0.0
H608 H 0.15943 0.96512 0.25803 0.0
H609 H 0.18265 0.94079 0.24614 0.0
H610 H 0.15952 0.89224 0.27237 0.0
H611 H 0.13605 0.91635 0.28397 0.0
H612 H 0.21211 0.92427 0.26187 0.0
H613 H 0.16856 0.86082 0.23511 0.0
H614 H 0.15671 0.885 0.24001 0.0
H615 H 0.16 0.86528 0.25329 0.0
C616 C 0.15885 0.94909 0.26087 0.0
C617 C 0.14605 0.94262 0.27197 0.0
C618 C 0.17207 0.9352 0.25406 0.0
C619 C 0.17278 0.91462 0.25828 0.0
C620 C 0.15892 0.90786 0.26862 0.0
H621 H 0.25804 0.82242 0.27483 0.0
H622 H 0.22756 0.84273 0.26923 0.0
C623 C 0.14555 0.92171 0.27532 0.0
C624 C 0.19036 0.9014 0.25413 0.0
H625 H 0.20316 0.85241 0.24388 0.0
C626 C 0.21019 0.90874 0.25754 0.0
C627 C 0.18785 0.8811 0.24857 0.0
C628 C 0.16711 0.87269 0.2439 0.0
C629 C 0.22741 0.89598 0.25652 0.0
C630 C 0.22479 0.87534 0.25171 0.0
C631 C 0.20511 0.86824 0.24757 0.0
C632 C 0.24194 0.8605 0.2527 0.0
C633 C 0.24808 0.90431 0.26157 0.0
C634 C 0.25987 0.86315 0.24479 0.0
C635 C 0.27746 0.85166 0.24806 0.0
C636 C 0.27731 0.83727 0.25923 0.0
C637 C 0.25878 0.83352 0.26627 0.0
C638 C 0.24128 0.84505 0.26303 0.0
H639 H 0.24681 0.91947 0.26727 0.0
H640 H 0.25588 0.89349 0.26904 0.0
H641 H 0.25793 0.90623 0.25202 0.0
H642 H 0.26057 0.8748 0.2366 0.0
H643 H 0.2914 0.85477 0.24231 0.0
H644 H 0.10267 0.61114 0.52275 0.0
H645 H 0.11926 0.6413 0.51279 0.0
H646 H 0.10435 0.67676 0.55128 0.0
H647 H 0.08812 0.64672 0.56146 0.0
H648 H 0.09808 0.6973 0.5234 0.0
H649 H 0.17541 0.66216 0.53072 0.0
H650 H 0.15654 0.64701 0.52073 0.0
H651 H 0.15308 0.65272 0.53971 0.0
C652 C 0.10282 0.62539 0.52907 0.0
C653 C 0.09418 0.62646 0.54295 0.0
C654 C 0.11228 0.64258 0.52335 0.0
C655 C 0.11325 0.66111 0.53141 0.0
C656 C 0.10375 0.66256 0.54491 0.0
H657 H 0.16884 0.78093 0.52479 0.0
H658 H 0.1488 0.75101 0.53142 0.0
C659 C 0.09435 0.64538 0.55066 0.0
C660 C 0.12511 0.6787 0.5262 0.0
H661 H 0.17399 0.69487 0.52041 0.0
C662 C 0.11467 0.69681 0.52268 0.0
C663 C 0.14673 0.67792 0.52531 0.0
C664 C 0.15871 0.659 0.5294 0.0
C665 C 0.12532 0.7142 0.5182 0.0
C666 C 0.147 0.71354 0.51757 0.0
C667 C 0.15738 0.69533 0.52092 0.0
C668 C 0.15926 0.73165 0.51363 0.0
C669 C 0.11323 0.73299 0.51398 0.0
C670 C 0.17237 0.73045 0.50176 0.0
C671 C 0.18406 0.74744 0.49804 0.0
C672 C 0.18288 0.76595 0.50617 0.0
C673 C 0.17 0.76696 0.51824 0.0
C674 C 0.1584 0.74993 0.52197 0.0
H675 H 0.09704 0.7291 0.51102 0.0
H676 H 0.11311 0.74402 0.52336 0.0
H677 H 0.12023 0.74069 0.50466 0.0
H678 H 0.17339 0.71642 0.49526 0.0
H679 H 0.19382 0.74612 0.48869 0.0
H680 H 0.41308 0.62959 0.80445 0.0
H681 H 0.3795 0.64292 0.79732 0.0
H682 H 0.35597 0.58122 0.7926 0.0
H683 H 0.38992 0.56758 0.79938 0.0
H684 H 0.34384 0.60828 0.76972 0.0
H685 H 0.32989 0.64198 0.82452 0.0
H686 H 0.35405 0.64947 0.81728 0.0
H687 H 0.34952 0.62297 0.82122 0.0
C688 C 0.40094 0.61877 0.80161 0.0
C689 C 0.40421 0.59749 0.80246 0.0
C690 C 0.38167 0.62645 0.79774 0.0
C691 C 0.36521 0.61306 0.79474 0.0
C692 C 0.36849 0.59179 0.79504 0.0
H693 H 0.24049 0.66334 0.78819 0.0
H694 H 0.26981 0.64181 0.79508 0.0
C695 C 0.38783 0.58405 0.79894 0.0
C696 C 0.34463 0.62151 0.79141 0.0
H697 H 0.30834 0.65394 0.80504 0.0
C698 C 0.33591 0.61805 0.77748 0.0
C699 C 0.33418 0.63392 0.80166 0.0
C700 C 0.34227 0.63716 0.81706 0.0
C701 C 0.31748 0.62761 0.77328 0.0
C702 C 0.30778 0.64117 0.78321 0.0
C703 C 0.31594 0.64373 0.79739 0.0
C704 C 0.28986 0.65377 0.77887 0.0
C705 C 0.30866 0.62327 0.7582 0.0
C706 C 0.2916 0.66788 0.76769 0.0
C707 C 0.27497 0.6802 0.76375 0.0
C708 C 0.25627 0.67876 0.771 0.0
C709 C 0.25466 0.66482 0.78238 0.0
C710 C 0.27136 0.65247 0.78631 0.0
H711 H 0.31405 0.60825 0.75376 0.0
H712 H 0.29162 0.62325 0.75816 0.0
H713 H 0.31379 0.63538 0.75081 0.0
H714 H 0.30593 0.66951 0.76208 0.0
H715 H 0.2768 0.69084 0.755 0.0
H716 H 0.46147 0.85745 0.04591 0.0
H717 H 0.4334 0.83741 0.03505 0.0
H718 H 0.39684 0.89218 0.03102 0.0
H719 H 0.42533 0.91278 0.04141 0.0
H720 H 0.37868 0.8569 0.04635 0.0
H721 H 0.40915 0.83595 0.99214 0.0
H722 H 0.42726 0.83314 0.00701 0.0
H723 H 0.41788 0.85823 0.00262 0.0
C724 C 0.44778 0.86547 0.04232 0.0
C725 C 0.4458 0.88683 0.04447 0.0
C726 C 0.43168 0.85391 0.03618 0.0
C727 C 0.41319 0.86337 0.03214 0.0
C728 C 0.41109 0.88467 0.03404 0.0
H729 H 0.3197 0.78257 0.99155 0.0
H730 H 0.33905 0.81392 0.99753 0.0
C731 C 0.42734 0.89636 0.04005 0.0
C732 C 0.39574 0.8505 0.02698 0.0
H733 H 0.38241 0.81456 0.00092 0.0
C734 C 0.37921 0.84794 0.03627 0.0
C735 C 0.39648 0.83898 0.0138 0.0
C736 C 0.41355 0.8418 0.00323 0.0
C737 C 0.36402 0.83312 0.03313 0.0
C738 C 0.36557 0.82059 0.02045 0.0
C739 C 0.38137 0.82411 0.0107 0.0
C740 C 0.35207 0.80264 0.01767 0.0
C741 C 0.34675 0.83061 0.04359 0.0
C742 C 0.35294 0.786 0.02707 0.0
C743 C 0.34203 0.76801 0.02366 0.0
C744 C 0.33006 0.76636 0.01076 0.0
C745 C 0.32874 0.78334 0.00158 0.0
C746 C 0.33977 0.80127 0.00497 0.0
H747 H 0.34443 0.84478 0.05031 0.0
H748 H 0.33216 0.82669 0.03768 0.0
H749 H 0.35055 0.81793 0.05104 0.0
H750 H 0.36266 0.78664 0.03679 0.0
H751 H 0.3434 0.75524 0.03095 0.0
H752 H 0.11845 0.57422 0.01354 0.0
H753 H 0.14301 0.59688 0.02656 0.0
H754 H 0.13117 0.64393 0.99521 0.0
H755 H 0.1069 0.62158 0.98224 0.0
H756 H 0.17691 0.6079 0.01328 0.0
H757 H 0.13821 0.67866 0.0316 0.0
H758 H 0.12424 0.65531 0.02713 0.0
H759 H 0.13095 0.67276 0.01306 0.0
C760 C 0.12069 0.58961 0.00968 0.0
C761 C 0.11081 0.59602 0.99678 0.0
C762 C 0.13462 0.60258 0.01718 0.0
C763 C 0.1388 0.6222 0.01197 0.0
C764 C 0.12782 0.62912 -0.00028 0.0
H765 H 0.23102 0.70236 0.99342 0.0
H766 H 0.19932 0.68472 0.99917 0.0
C767 C 0.11392 0.61622 0.99224 0.0
C768 C 0.15714 0.63381 0.0173 0.0
H769 H 0.17405 0.68271 0.02428 0.0
C770 C 0.1763 0.62412 0.01617 0.0
C771 C 0.15633 0.65496 0.02106 0.0
C772 C 0.13627 0.66593 0.02343 0.0
C773 C 0.19462 0.63536 0.01732 0.0
C774 C 0.19373 0.65683 0.01991 0.0
C775 C 0.17467 0.66627 0.02219 0.0
C776 C 0.21202 0.6699 0.01817 0.0
C777 C 0.21465 0.62444 0.01455 0.0
C778 C 0.22948 0.66792 0.02725 0.0
C779 C 0.24774 0.67786 0.02392 0.0
C780 C 0.24876 0.69002 0.0115 0.0
C781 C 0.23084 0.69298 0.00299 0.0
C782 C 0.21266 0.683 0.0063 0.0
H783 H 0.21231 0.60834 0.01061 0.0
H784 H 0.2236 0.63267 0.00637 0.0
H785 H 0.22396 0.62414 0.0248 0.0
H786 H 0.22918 0.6581 0.03658 0.0
H787 H 0.26121 0.67544 0.03079 0.0
H788 H 0.43094 0.62118 0.20609 0.0
H789 H 0.42296 0.65518 0.21614 0.0
H790 H 0.39234 0.62749 0.25184 0.0
H791 H 0.40092 0.59336 0.24215 0.0
H792 H 0.38357 0.66913 0.21957 0.0
H793 H 0.42636 0.67245 0.27243 0.0
H794 H 0.43202 0.65382 0.25823 0.0
H795 H 0.41068 0.64994 0.26992 0.0
C796 C 0.42305 0.62229 0.21631 0.0
C797 C 0.41658 0.60454 0.22334 0.0
C798 C 0.41837 0.64175 0.22198 0.0
C799 C 0.40724 0.64385 0.23479 0.0
C800 C 0.40128 0.62621 0.24208 0.0
H801 H 0.34252 0.74077 0.27927 0.0
H802 H 0.35805 0.70857 0.27094 0.0
C803 C 0.40598 0.60672 0.23644 0.0
C804 C 0.40017 0.66438 0.23975 0.0
H805 H 0.40051 0.69797 0.26881 0.0
C806 C 0.38746 0.67555 0.23027 0.0
C807 C 0.4052 0.67264 0.25374 0.0
C808 C 0.41947 0.66169 0.26413 0.0
C809 C 0.37916 0.69454 0.23455 0.0
C810 C 0.38397 0.70267 0.24861 0.0
C811 C 0.39687 0.69164 0.25804 0.0
C812 C 0.37522 0.72235 0.25385 0.0
C813 C 0.36479 0.70542 0.22418 0.0
C814 C 0.37997 0.74077 0.24708 0.0
C815 C 0.37108 0.75921 0.25177 0.0
C816 C 0.35736 0.75953 0.26337 0.0
C817 C 0.35294 0.74106 0.27027 0.0
C818 C 0.36185 0.72265 0.26557 0.0
H819 H 0.35914 0.69507 0.21518 0.0
H820 H 0.35137 0.71179 0.22999 0.0
H821 H 0.37304 0.71838 0.21931 0.0
H822 H 0.39051 0.74087 0.23815 0.0
H823 H 0.37491 0.77317 0.24627 0.0
H824 H 0.36448 0.97293 0.48986 0.0
H825 H 0.3418 0.94677 0.49876 0.0
H826 H 0.39394 0.90966 0.51082 0.0
H827 H 0.41713 0.93635 0.50247 0.0
H828 H 0.34469 0.90709 0.48462 0.0
H829 H 0.35209 0.90358 0.54501 0.0
H830 H 0.35796 0.92656 0.53527 0.0
H831 H 0.3752 0.90515 0.5347 0.0
C832 C 0.37133 0.95969 0.49496 0.0
C833 C 0.39275 0.95681 0.49536 0.0
C834 C 0.35825 0.94463 0.49995 0.0
C835 C 0.36619 0.92631 0.50543 0.0
C836 C 0.38753 0.9238 0.50674 0.0
H837 H 0.28763 0.81836 0.49695 0.0
H838 H 0.31906 0.83872 0.49963 0.0
C839 C 0.40073 0.93899 0.50181 0.0
C840 C 0.35203 0.90895 0.50755 0.0
H841 H 0.32935 0.87996 0.53316 0.0
C842 C 0.34146 0.901 0.49522 0.0
C843 C 0.34791 0.90117 0.52139 0.0
C844 C 0.35875 0.90953 0.53492 0.0
C845 C 0.32638 0.88589 0.49635 0.0
C846 C 0.32205 0.87813 0.5102 0.0
C847 C 0.33291 0.88578 0.52256 0.0
C848 C 0.30499 0.86345 0.51193 0.0
C849 C 0.31456 0.87904 0.48275 0.0
C850 C 0.28708 0.86998 0.51883 0.0
C851 C 0.26912 0.85829 0.51744 0.0
C852 C 0.26879 0.83997 0.50902 0.0
C853 C 0.28728 0.83255 0.50331 0.0
C854 C 0.30527 0.84416 0.50483 0.0
H855 H 0.31694 0.8895 0.47357 0.0
H856 H 0.31979 0.86349 0.47933 0.0
H857 H 0.29786 0.87824 0.48481 0.0
H858 H 0.28659 0.8848 0.52441 0.0
H859 H 0.2552 0.86437 0.52209 0.0
H860 H 0.13445 0.90867 0.73155 0.0
H861 H 0.15408 0.88496 0.74654 0.0
H862 H 0.10596 0.88543 0.77796 0.0
H863 H 0.086 0.9091 0.76286 0.0
H864 H 0.16879 0.8812 0.77572 0.0
H865 H 0.10515 0.8266 0.76132 0.0
H866 H 0.10719 0.85119 0.7529 0.0
H867 H 0.09845 0.84962 0.77123 0.0
C868 C 0.12832 0.90433 0.74189 0.0
C869 C 0.10854 0.91048 0.74592 0.0
C870 C 0.13956 0.89072 0.75045 0.0
C871 C 0.13126 0.8831 0.76319 0.0
C872 C 0.11244 0.89083 0.76801 0.0
H873 H 0.17053 0.76064 0.78839 0.0
H874 H 0.15593 0.7948 0.79273 0.0
C875 C 0.10108 0.90434 0.75938 0.0
C876 C 0.14089 0.86495 0.76992 0.0
H877 H 0.13496 0.81307 0.77156 0.0
C878 C 0.16128 0.86634 0.77513 0.0
C879 C 0.13102 0.84558 0.76917 0.0
C880 C 0.10931 0.84299 0.76329 0.0
C881 C 0.17242 0.84869 0.77887 0.0
C882 C 0.16299 0.82921 0.7771 0.0
C883 C 0.14217 0.82801 0.77293 0.0
C884 C 0.1749 0.80982 0.77715 0.0
C885 C 0.19435 0.85105 0.78424 0.0
C886 C 0.19074 0.807 0.76722 0.0
C887 C 0.19907 0.78756 0.76471 0.0
C888 C 0.19157 0.77044 0.77196 0.0
C889 C 0.17659 0.77348 0.78257 0.0
C890 C 0.16827 0.793 0.7851 0.0
H891 H 0.19657 0.86585 0.79033 0.0
H892 H 0.19905 0.83829 0.79139 0.0
H893 H 0.20459 0.85113 0.77477 0.0
H894 H 0.19576 0.81957 0.76067 0.0
H895 H 0.21064 0.78581 0.7565 0.0
H896 H 0.61679 0.40084 0.78853 0.0
H897 H 0.63969 0.38071 0.77324 0.0
H898 H 0.64467 0.43137 0.74417 0.0
H899 H 0.62176 0.45181 0.75957 0.0
H900 H 0.64256 0.36817 0.74371 0.0
H901 H 0.70301 0.42499 0.76073 0.0
H902 H 0.6782 0.42475 0.76898 0.0
H903 H 0.68093 0.4347 0.75107 0.0
C904 C 0.62221 0.40753 0.77865 0.0
C905 C 0.61769 0.42802 0.77536 0.0
C906 C 0.63536 0.39599 0.76992 0.0
C907 C 0.64419 0.40469 0.75774 0.0
C908 C 0.63832 0.42452 0.7537 0.0
H909 H 0.76236 0.35556 0.73071 0.0
H910 H 0.7298 0.37365 0.72701 0.0
C911 C 0.62526 0.43616 0.76249 0.0
C912 C 0.66143 0.39388 0.75066 0.0
H913 H 0.71366 0.39483 0.74922 0.0
C914 C 0.65809 0.37414 0.74461 0.0
C915 C 0.68167 0.40174 0.7518 0.0
C916 C 0.68632 0.42263 0.75857 0.0
C917 C 0.67458 0.36162 0.74041 0.0
C918 C 0.69488 0.36896 0.74255 0.0
C919 C 0.69809 0.38923 0.74758 0.0
C920 C 0.71299 0.35521 0.74197 0.0
C921 C 0.67013 0.34044 0.73417 0.0
C922 C 0.71421 0.3385 0.75131 0.0
C923 C 0.73276 0.32818 0.75346 0.0
C924 C 0.75053 0.33449 0.74643 0.0
C925 C 0.74897 0.35034 0.73633 0.0
C926 C 0.73036 0.36069 0.73418 0.0
H927 H 0.65518 0.3401 0.7281 0.0
H928 H 0.68237 0.33513 0.72678 0.0
H929 H 0.66909 0.3295 0.7432 0.0
H930 H 0.7012 0.33428 0.75771 0.0
H931 H 0.73338 0.316 0.76128 0.0
H932 H 0.59961 0.1272 0.0428 0.0
H933 H 0.61108 0.15762 0.03061 0.0
H934 H 0.62419 0.12103 0.99222 0.0
H935 H 0.61279 0.09016 0.00454 0.0
H936 H 0.65595 0.14396 -0.00028 0.0
H937 H 0.58841 0.19438 0.00019 0.0
H938 H 0.59282 0.18517 0.01819 0.0
H939 H 0.5865 0.16724 0.0035 0.0
C940 C 0.60427 0.12564 0.03159 0.0
C941 C 0.60514 0.10624 0.02461 0.0
C942 C 0.6108 0.14313 0.02459 0.0
C943 C 0.61811 0.14175 0.01036 0.0
C944 C 0.61843 0.1225 0.00315 0.0
H945 H 0.66131 0.26501 0.98983 0.0
H946 H 0.64441 0.23201 0.98447 0.0
C947 C 0.61199 0.10489 0.01021 0.0
C948 C 0.6277 0.16005 0.00398 0.0
H949 H 0.62186 0.21194 0.0024 0.0
C950 C 0.64831 0.15875 -9e-05 0.0
C951 C 0.61769 0.17931 0.00375 0.0
C952 C 0.59506 0.18152 0.00648 0.0
C953 C 0.65969 0.17646 0.99711 0.0
C954 C 0.65037 0.19595 0.99885 0.0
C955 C 0.62922 0.19706 0.0014 0.0
C956 C 0.66262 0.21516 0.00015 0.0
C957 C 0.68177 0.17407 0.99282 0.0
C958 C 0.67866 0.21664 0.01059 0.0
C959 C 0.6884 0.23536 0.0136 0.0
C960 C 0.6821 0.25318 0.00641 0.0
C961 C 0.66654 0.25158 0.99556 0.0
C962 C 0.65685 0.23273 0.99249 0.0
H963 H 0.68386 0.15979 0.98617 0.0
H964 H 0.68709 0.18732 0.98653 0.0
H965 H 0.69161 0.17278 0.00277 0.0
H966 H 0.68301 0.20353 0.01699 0.0
H967 H 0.70025 0.236 0.02205 0.0
H968 H 0.91603 0.08957 0.28599 0.0
H969 H 0.88231 0.10265 0.27835 0.0
H970 H 0.90365 0.16471 0.28591 0.0
H971 H 0.93703 0.15184 0.29403 0.0
H972 H 0.86663 0.15632 0.29911 0.0
H973 H 0.86481 0.13163 0.24079 0.0
H974 H 0.87046 0.11171 0.25347 0.0
H975 H 0.88824 0.13251 0.25167 0.0
C976 C 0.91357 0.106 0.28594 0.0
C977 C 0.92927 0.11965 0.29057 0.0
C978 C 0.89436 0.11345 0.28146 0.0
C979 C 0.89057 0.13465 0.28145 0.0
C980 C 0.90631 0.14829 0.28578 0.0
H981 H 0.79171 0.2044 0.2438 0.0
H982 H 0.82426 0.18847 0.25078 0.0
C983 C 0.92546 0.14089 0.29027 0.0
C984 C 0.86994 0.14275 0.27771 0.0
H985 H 0.83449 0.14656 0.24999 0.0
C986 C 0.85956 0.15417 0.28838 0.0
C987 C 0.86087 0.13998 0.26368 0.0
C988 C 0.87169 0.12844 0.25168 0.0
C989 C 0.84036 0.16304 0.28537 0.0
C990 C 0.8312 0.16014 0.27139 0.0
C991 C 0.84153 0.14862 0.26073 0.0
C992 C 0.81133 0.16972 0.26738 0.0
C993 C 0.83031 0.17593 0.29706 0.0
C994 C 0.79326 0.16441 0.27441 0.0
C995 C 0.77458 0.17357 0.27049 0.0
C996 C 0.77366 0.1881 0.25941 0.0
C997 C 0.79184 0.19332 0.2524 0.0
C998 C 0.81047 0.18418 0.25634 0.0
H999 H 0.84134 0.1804 0.30598 0.0
H1000 H 0.82355 0.19008 0.29244 0.0
H1001 H 0.81774 0.167 0.30183 0.0
H1002 H 0.79357 0.15304 0.28281 0.0
H1003 H 0.76085 0.16909 0.27603 0.0
H1004 H 0.90234 0.40762 0.53757 0.0
H1005 H 0.88303 0.38174 0.52351 0.0
H1006 H 0.93144 0.37788 0.49236 0.0
H1007 H 0.9511 0.40381 0.50656 0.0
H1008 H 0.86839 0.3741 0.49481 0.0
H1009 H 0.93219 0.32139 0.51062 0.0
H1010 H 0.93031 0.34705 0.5182 0.0
H1011 H 0.93871 0.343 0.49988 0.0
C1012 C 0.90863 0.40183 0.52747 0.0
C1013 C 0.92839 0.40754 0.52328 0.0
C1014 C 0.89756 0.38697 0.51944 0.0
C1015 C 0.906 0.37759 0.50707 0.0
C1016 C 0.92486 0.38465 0.50206 0.0
H1017 H 0.86541 0.25223 0.48695 0.0
H1018 H 0.88017 0.28549 0.48114 0.0
C1019 C 0.93605 0.39944 0.51017 0.0
C1020 C 0.89635 0.35859 0.50098 0.0
H1021 H 0.90206 0.30659 0.50139 0.0
C1022 C 0.87587 0.35933 0.49591 0.0
C1023 C 0.90618 0.33933 0.50239 0.0
C1024 C 0.928 0.33748 0.50814 0.0
C1025 C 0.86459 0.34127 0.49306 0.0
C1026 C 0.87398 0.32206 0.49556 0.0
C1027 C 0.89489 0.32134 0.49949 0.0
C1028 C 0.86198 0.30284 0.49651 0.0
C1029 C 0.84253 0.34294 0.4879 0.0
C1030 C 0.84655 0.30161 0.50685 0.0
C1031 C 0.83814 0.28267 0.51022 0.0
C1032 C 0.84513 0.26452 0.50341 0.0
C1033 C 0.85973 0.2659 0.49243 0.0
C1034 C 0.86814 0.28491 0.48906 0.0
H1035 H 0.84014 0.35686 0.48132 0.0
H1036 H 0.83766 0.32923 0.48129 0.0
H1037 H 0.83254 0.34434 0.49749 0.0
H1038 H 0.84191 0.31513 0.51302 0.0
H1039 H 0.82689 0.28218 0.5187 0.0
H1040 H 0.61608 0.1222 0.49014 0.0
H1041 H 0.65079 0.13205 0.49831 0.0
H1042 H 0.67592 0.09868 0.46179 0.0
H1043 H 0.6413 0.08937 0.45325 0.0
H1044 H 0.68716 0.10937 0.50505 0.0
H1045 H 0.69546 0.15811 0.45662 0.0
H1046 H 0.67106 0.14782 0.4618 0.0
H1047 H 0.68934 0.13163 0.45276 0.0
C1048 C 0.629 0.11687 0.48389 0.0
C1049 C 0.62591 0.10522 0.47095 0.0
C1050 C 0.64881 0.12239 0.48862 0.0
C1051 C 0.66582 0.11639 0.48049 0.0
C1052 C 0.66291 0.10372 0.46808 0.0
H1053 H 0.79255 0.15998 0.48829 0.0
H1054 H 0.76172 0.14046 0.48104 0.0
C1055 C 0.64312 0.09824 0.46331 0.0
C1056 C 0.6864 0.12455 0.4845 0.0
H1057 H 0.7236 0.15691 0.47308 0.0
C1058 C 0.69521 0.11967 0.49805 0.0
C1059 C 0.69681 0.13799 0.4753 0.0
C1060 C 0.68767 0.14438 0.46086 0.0
C1061 C 0.71418 0.128 0.5027 0.0
C1062 C 0.72434 0.1418 0.49365 0.0
C1063 C 0.71576 0.14628 0.47996 0.0
C1064 C 0.74328 0.15272 0.49847 0.0
C1065 C 0.72319 0.12197 0.51725 0.0
C1066 C 0.74298 0.16624 0.51055 0.0
C1067 C 0.76048 0.17745 0.51469 0.0
C1068 C 0.77861 0.17544 0.50677 0.0
C1069 C 0.77885 0.16188 0.49464 0.0
C1070 C 0.76129 0.15068 0.49049 0.0
H1071 H 0.71681 0.10714 0.52081 0.0
H1072 H 0.74016 0.12066 0.51687 0.0
H1073 H 0.71938 0.13392 0.52556 0.0
H1074 H 0.72908 0.1684 0.51664 0.0
H1075 H 0.75973 0.18779 0.52406 0.0
H1076 H 0.94325 0.13521 0.70752 0.0
H1077 H 0.92676 0.16751 0.71427 0.0
H1078 H 0.89863 0.13849 0.75047 0.0
H1079 H 0.91577 0.1062 0.74415 0.0
H1080 H 0.88497 0.17227 0.71435 0.0
H1081 H 0.91871 0.19262 0.76875 0.0
H1082 H 0.93024 0.17395 0.75663 0.0
H1083 H 0.90869 0.16697 0.76733 0.0
C1084 C 0.93414 0.1358 0.71723 0.0
C1085 C 0.93089 0.11808 0.72533 0.0
C1086 C 0.92456 0.15427 0.72098 0.0
C1087 C 0.91158 0.15544 0.73291 0.0
C1088 C 0.90886 0.13802 0.74136 0.0
H1089 H 0.8243 0.24354 0.76574 0.0
H1090 H 0.84521 0.21334 0.76031 0.0
C1091 C 0.9185 0.11952 0.73764 0.0
C1092 C 0.89944 0.17429 0.73565 0.0
H1093 H 0.88888 0.21121 0.76134 0.0
C1094 C 0.88596 0.1809 0.72458 0.0
C1095 C 0.9007 0.18543 0.74902 0.0
C1096 C 0.9155 0.17952 0.76108 0.0
C1097 C 0.87336 0.19813 0.72662 0.0
C1098 C 0.87449 0.20916 0.74003 0.0
C1099 C 0.88805 0.20265 0.75108 0.0
C1100 C 0.8615 0.22736 0.74288 0.0
C1101 C 0.85855 0.20406 0.71457 0.0
C1102 C 0.86372 0.24522 0.73483 0.0
C1103 C 0.85175 0.26253 0.73787 0.0
C1104 C 0.83742 0.26229 0.74907 0.0
C1105 C 0.83513 0.24426 0.75701 0.0
C1106 C 0.84711 0.227 0.75397 0.0
H1107 H 0.85624 0.19142 0.70637 0.0
H1108 H 0.84341 0.20841 0.71901 0.0
H1109 H 0.86473 0.21753 0.70893 0.0
H1110 H 0.87496 0.24587 0.72636 0.0
H1111 H 0.85399 0.2762 0.73161 0.0
H1112 H 0.90694 0.38777 0.96852 0.0
H1113 H 0.87503 0.37363 0.97727 0.0
H1114 H 0.85191 0.43479 0.98514 0.0
H1115 H 0.88425 0.44921 0.97677 0.0
H1116 H 0.84426 0.40672 0.00779 0.0
H1117 H 0.82075 0.37504 0.95342 0.0
H1118 H 0.84603 0.36731 0.95923 0.0
H1119 H 0.84086 0.39394 0.95596 0.0
C1120 C 0.89528 0.39828 0.97237 0.0
C1121 C 0.89818 0.41966 0.97196 0.0
C1122 C 0.87693 0.39014 0.97718 0.0
C1123 C 0.86101 0.40317 0.98158 0.0
C1124 C 0.86399 0.4245 0.98165 0.0
H1125 H 0.7364 0.35755 0.99231 0.0
H1126 H 0.76617 0.37727 0.98491 0.0
C1127 C 0.88241 0.4327 0.97682 0.0
C1128 C 0.84122 0.39433 0.98593 0.0
H1129 H 0.80219 0.36311 0.97362 0.0
C1130 C 0.83493 0.39733 0.00031 0.0
C1131 C 0.82895 0.38238 0.97606 0.0
C1132 C 0.83435 0.37961 0.96026 0.0
C1133 C 0.81705 0.388 0.00525 0.0
C1134 C 0.8054 0.37512 0.99559 0.0
C1135 C 0.81128 0.37279 0.98106 0.0
C1136 C 0.78729 0.36354 0.00037 0.0
C1137 C 0.81078 0.39205 0.02075 0.0
C1138 C 0.78938 0.34905 0.01136 0.0
C1139 C 0.77242 0.33776 0.01562 0.0
C1140 C 0.75305 0.34061 0.00888 0.0
C1141 C 0.75108 0.35497 0.99774 0.0
C1142 C 0.76806 0.36628 0.99351 0.0
H1143 H 0.8176 0.40654 0.02527 0.0
H1144 H 0.79382 0.39298 0.02153 0.0
H1145 H 0.8163 0.3793 0.02761 0.0
H1146 H 0.80419 0.34632 0.01654 0.0
H1147 H 0.77452 0.32676 0.02418 0.0
H1148 H 0.60633 0.39428 0.22627 0.0
H1149 H 0.63115 0.3726 0.23875 0.0
H1150 H 0.58898 0.36443 0.27358 0.0
H1151 H 0.56391 0.38646 0.26119 0.0
H1152 H 0.65027 0.37089 0.26749 0.0
H1153 H 0.59582 0.30651 0.25477 0.0
H1154 H 0.59278 0.33133 0.24671 0.0
H1155 H 0.58652 0.32791 0.26541 0.0
C1156 C 0.6025 0.38852 0.23683 0.0
C1157 C 0.58299 0.39195 0.24265 0.0
C1158 C 0.61674 0.37603 0.24393 0.0
C1159 C 0.61176 0.36667 0.25695 0.0
C1160 C 0.59297 0.37129 0.26341 0.0
H1161 H 0.6753 0.25233 0.27731 0.0
H1162 H 0.65452 0.28284 0.28243 0.0
C1163 C 0.57866 0.38382 0.2563 0.0
C1164 C 0.62521 0.35016 0.26251 0.0
H1165 H 0.62884 0.29796 0.26268 0.0
C1166 C 0.64551 0.35494 0.26676 0.0
C1167 C 0.61892 0.32938 0.2616 0.0
C1168 C 0.59738 0.32332 0.25681 0.0
C1169 C 0.65998 0.3394 0.26942 0.0
C1170 C 0.65404 0.31862 0.26744 0.0
C1171 C 0.6334 0.3139 0.26418 0.0
C1172 C 0.6692 0.30166 0.26661 0.0
C1173 C 0.68158 0.34543 0.27393 0.0
C1174 C 0.68463 0.30221 0.25622 0.0
C1175 C 0.69653 0.28486 0.25329 0.0
C1176 C 0.69307 0.26647 0.26055 0.0
C1177 C 0.67832 0.26623 0.27149 0.0
C1178 C 0.66645 0.28366 0.27445 0.0
H1179 H 0.68171 0.36011 0.28034 0.0
H1180 H 0.68917 0.33341 0.28052 0.0
H1181 H 0.69068 0.34781 0.26406 0.0
H1182 H 0.6867 0.31568 0.24974 0.0
H1183 H 0.70774 0.28562 0.24481 0.0
H1184 H 0.09805 0.94638 0.3748 0.0
H1185 H 0.10691 0.92699 0.39657 0.0
H1186 H 0.17089 0.94127 0.39127 0.0
H1187 H 0.16217 0.96068 0.36957 0.0
H1188 H 0.13121 0.89316 0.39818 0.0
H1189 H 0.16338 0.95514 0.43407 0.0
H1190 H 0.1484 0.96027 0.41778 0.0
H1191 H 0.17523 0.95399 0.41665 0.0
C1192 C 0.11399 0.94547 0.37833 0.0
C1193 C 0.12941 0.95512 0.3705 0.0
C1194 C 0.11901 0.93446 0.39079 0.0
C1195 C 0.13951 0.93297 0.39567 0.0
C1196 C 0.15491 0.94269 0.38793 0.0
H1197 H 0.19963 0.83967 0.44475 0.0
H1198 H 0.1844 0.86184 0.42642 0.0
C1199 C 0.14991 0.95375 0.37551 0.0
C1200 C 0.14502 0.92012 0.40827 0.0
H1201 H 0.1715 0.92063 0.44077 0.0
C1202 C 0.1398 0.89921 0.40758 0.0
C1203 C 0.15596 0.92809 0.42062 0.0
C1204 C 0.16089 0.95065 0.42242 0.0
C1205 C 0.14597 0.88589 0.41862 0.0
C1206 C 0.15801 0.89363 0.43052 0.0
C1207 C 0.16248 0.91469 0.43154 0.0
C1208 C 0.16682 0.87998 0.44172 0.0
C1209 C 0.13958 0.86365 0.41741 0.0
C1210 C 0.16237 0.88312 0.45646 0.0
C1211 C 0.17119 0.87054 0.46703 0.0
C1212 C 0.18472 0.85466 0.46302 0.0
C1213 C 0.18917 0.85164 0.44822 0.0
C1214 C 0.18038 0.86423 0.4377 0.0
H1215 H 0.12562 0.86159 0.41035 0.0
H1216 H 0.15213 0.85455 0.41246 0.0
H1217 H 0.13652 0.85737 0.42827 0.0
H1218 H 0.15204 0.8953 0.45979 0.0
H1219 H 0.16748 0.87333 0.47832 0.0
H1220 H 0.11713 0.57183 0.64076 0.0
H1221 H 0.12721 0.59151 0.6626 0.0
H1222 H 0.0765 0.63293 0.65548 0.0
H1223 H 0.0672 0.61424 0.63301 0.0
H1224 H 0.10962 0.6538 0.66048 0.0
H1225 H 0.10626 0.59539 0.70277 0.0
H1226 H 0.12223 0.58653 0.68833 0.0
H1227 H 0.09529 0.59108 0.68475 0.0
C1228 C 0.10808 0.58512 0.64381 0.0
C1229 C 0.09142 0.59148 0.63501 0.0
C1230 C 0.11365 0.59615 0.65649 0.0
C1231 C 0.1024 0.61351 0.66086 0.0
C1232 C 0.08532 0.61949 0.6524 0.0
H1233 H 0.14351 0.67604 0.74222 0.0
H1234 H 0.12152 0.6581 0.72407 0.0
C1235 C 0.07991 0.60864 0.63959 0.0
C1236 C 0.10976 0.62655 0.67337 0.0
H1237 H 0.12867 0.6245 0.70823 0.0
C1238 C 0.11342 0.64744 0.67101 0.0
C1239 C 0.11434 0.61846 0.68723 0.0
C1240 C 0.10908 0.59669 0.69095 0.0
C1241 C 0.1226 0.66014 0.68182 0.0
C1242 C 0.12894 0.65155 0.69519 0.0
C1243 C 0.12418 0.63099 0.69788 0.0
C1244 C 0.14164 0.66325 0.7061 0.0
C1245 C 0.1255 0.68259 0.67873 0.0
C1246 C 0.16031 0.67193 0.70207 0.0
C1247 C 0.17275 0.68236 0.71234 0.0
C1248 C 0.16698 0.68396 0.72696 0.0
C1249 C 0.14836 0.67509 0.73104 0.0
C1250 C 0.13579 0.66484 0.72069 0.0
H1251 H 0.11363 0.68805 0.67086 0.0
H1252 H 0.12482 0.69224 0.68883 0.0
H1253 H 0.14069 0.68479 0.67379 0.0
H1254 H 0.16548 0.67034 0.69099 0.0
H1255 H 0.1871 0.68879 0.70886 0.0
H1256 H 0.46296 0.62958 0.89354 0.0
H1257 H 0.441 0.64076 0.91329 0.0
H1258 H 0.40625 0.58455 0.90858 0.0
H1259 H 0.42711 0.57393 0.8881 0.0
H1260 H 0.38144 0.61549 0.90915 0.0
H1261 H 0.43693 0.62654 0.95493 0.0
H1262 H 0.44455 0.64094 0.93959 0.0
H1263 H 0.44364 0.6133 0.93825 0.0
C1264 C 0.45069 0.61953 0.8967 0.0
C1265 C 0.44679 0.60088 0.8891 0.0
C1266 C 0.43834 0.62581 0.9082 0.0
C1267 C 0.42213 0.61337 0.9126 0.0
C1268 C 0.41873 0.59437 0.90544 0.0
H1269 H 0.34963 0.65396 0.98718 0.0
H1270 H 0.37179 0.63366 0.97123 0.0
C1271 C 0.43087 0.58822 0.8938 0.0
C1272 C 0.4075 0.62109 0.92359 0.0
H1273 H 0.40472 0.64471 0.95702 0.0
C1274 C 0.38653 0.62158 0.91971 0.0
C1275 C 0.414 0.62873 0.93749 0.0
C1276 C 0.43599 0.62713 0.94286 0.0
C1277 C 0.37204 0.63026 0.92905 0.0
C1278 C 0.37877 0.63937 0.94245 0.0
C1279 C 0.39959 0.63805 0.94664 0.0
C1280 C 0.36465 0.65104 0.95198 0.0
C1281 C 0.34966 0.62953 0.92444 0.0
C1282 C 0.35335 0.66762 0.94649 0.0
C1283 C 0.34049 0.67906 0.95551 0.0
C1284 C 0.33898 0.67441 0.9703 0.0
C1285 C 0.35042 0.6579 0.97583 0.0
C1286 C 0.36312 0.64631 0.96674 0.0
H1287 H 0.34642 0.61628 0.91691 0.0
H1288 H 0.33957 0.6284 0.93396 0.0
H1289 H 0.34567 0.64372 0.91857 0.0
H1290 H 0.35475 0.67198 0.93526 0.0
H1291 H 0.3321 0.69183 0.95095 0.0
H1292 H 0.48252 0.92645 0.14947 0.0
H1293 H 0.46296 0.91511 0.17029 0.0
H1294 H 0.44914 0.85797 0.14754 0.0
H1295 H 0.46849 0.86913 0.12678 0.0
H1296 H 0.42179 0.90474 0.17069 0.0
H1297 H 0.46967 0.83853 0.18696 0.0
H1298 H 0.47866 0.8579 0.1749 0.0
H1299 H 0.4623 0.83744 0.16803 0.0
C1300 C 0.4754 0.91142 0.14895 0.0
C1301 C 0.47724 0.89861 0.13651 0.0
C1302 C 0.46429 0.90495 0.16086 0.0
C1303 C 0.45491 0.88555 0.16056 0.0
C1304 C 0.45673 0.87276 0.14818 0.0
H1305 H 0.36952 0.8164 0.20922 0.0
H1306 H 0.3925 0.83081 0.19147 0.0
C1307 C 0.46783 0.87917 0.13631 0.0
C1308 C 0.44226 0.87898 0.17282 0.0
H1309 H 0.43572 0.83991 0.19638 0.0
C1310 C 0.42497 0.89072 0.17646 0.0
C1311 C 0.44647 0.86068 0.18032 0.0
C1312 C 0.4654 0.84802 0.17747 0.0
C1313 C 0.41131 0.8842 0.187 0.0
C1314 C 0.41519 0.86558 0.19415 0.0
C1315 C 0.43274 0.85411 0.19078 0.0
C1316 C 0.40091 0.85736 0.20487 0.0
C1317 C 0.39243 0.89686 0.19005 0.0
C1318 C 0.39809 0.86752 0.21829 0.0
C1319 C 0.38498 0.85931 0.22849 0.0
C1320 C 0.37449 0.84077 0.22543 0.0
C1321 C 0.3773 0.83072 0.21192 0.0
C1322 C 0.39046 0.8389 0.20177 0.0
H1323 H 0.38969 0.90869 0.18172 0.0
H1324 H 0.37865 0.88688 0.19044 0.0
H1325 H 0.39438 0.90477 0.20081 0.0
H1326 H 0.40624 0.88165 0.22095 0.0
H1327 H 0.38321 0.86741 0.23881 0.0
H1328 H 0.11634 0.5674 0.88902 0.0
H1329 H 0.12849 0.58931 0.86978 0.0
H1330 H 0.09674 0.641 0.88886 0.0
H1331 H 0.08459 0.61919 0.90825 0.0
H1332 H 0.09286 0.63761 0.85782 0.0
H1333 H 0.17386 0.63277 0.87751 0.0
H1334 H 0.16175 0.60828 0.87425 0.0
H1335 H 0.15255 0.6252 0.88838 0.0
C1336 C 0.11194 0.58343 0.88913 0.0
C1337 C 0.09969 0.59162 0.90025 0.0
C1338 C 0.11888 0.59592 0.87814 0.0
C1339 C 0.11382 0.61683 0.87808 0.0
C1340 C 0.10089 0.6249 0.88878 0.0
H1341 H 0.18074 0.70588 0.82821 0.0
H1342 H 0.16336 0.68819 0.84761 0.0
C1343 C 0.09389 0.6124 0.8998 0.0
C1344 C 0.12257 0.63034 0.86707 0.0
H1345 H 0.16807 0.64772 0.85445 0.0
C1346 C 0.10929 0.63995 0.85711 0.0
C1347 C 0.14397 0.63362 0.86635 0.0
C1348 C 0.15888 0.6246 0.87727 0.0
C1349 C 0.11694 0.65226 0.84612 0.0
C1350 C 0.13841 0.65476 0.845 0.0
C1351 C 0.15162 0.64564 0.85525 0.0
C1352 C 0.14765 0.66639 0.83313 0.0
C1353 C 0.10198 0.66258 0.83588 0.0
C1354 C 0.1446 0.65999 0.81856 0.0
C1355 C 0.15449 0.67007 0.80745 0.0
C1356 C 0.16777 0.68665 0.81072 0.0
C1357 C 0.17062 0.69316 0.82531 0.0
C1358 C 0.1607 0.68308 0.83642 0.0
H1359 H 0.08651 0.66401 0.84063 0.0
H1360 H 0.10744 0.67811 0.83308 0.0
H1361 H 0.10043 0.65322 0.82567 0.0
H1362 H 0.13496 0.64686 0.81581 0.0
H1363 H 0.15201 0.6646 0.79633 0.0
H1364 H 0.43057 0.55854 0.1231 0.0
H1365 H 0.42286 0.58037 0.10231 0.0
H1366 H 0.36975 0.60435 0.12407 0.0
H1367 H 0.37773 0.58331 0.14503 0.0
H1368 H 0.38807 0.58159 0.08438 0.0
H1369 H 0.39977 0.65636 0.1133 0.0
H1370 H 0.40838 0.63239 0.1208 0.0
H1371 H 0.38197 0.6401 0.12218 0.0
C1372 C 0.41736 0.56861 0.12351 0.0
C1373 C 0.40479 0.56919 0.13576 0.0
C1374 C 0.41293 0.58098 0.1116 0.0
C1375 C 0.39596 0.59425 0.11177 0.0
C1376 C 0.38318 0.59455 0.12384 0.0
H1377 H 0.32957 0.67312 0.05427 0.0
H1378 H 0.34302 0.65235 0.07415 0.0
C1379 C 0.3876 0.58226 0.13573 0.0
C1380 C 0.39122 0.60749 0.09925 0.0
H1381 H 0.38216 0.65726 0.09019 0.0
C1382 C 0.38702 0.59816 0.08558 0.0
C1383 C 0.38996 0.6291 0.10086 0.0
C1384 C 0.39546 0.64011 0.11504 0.0
C1385 C 0.38075 0.60982 0.07362 0.0
C1386 C 0.37884 0.63134 0.07538 0.0
C1387 C 0.38354 0.64073 0.08893 0.0
C1388 C 0.3712 0.64431 0.06343 0.0
C1389 C 0.37549 0.599 0.05932 0.0
C1390 C 0.38279 0.64692 0.05094 0.0
C1391 C 0.37519 0.65885 0.03957 0.0
C1392 C 0.35585 0.66835 0.04051 0.0
C1393 C 0.34447 0.66597 0.05317 0.0
C1394 C 0.35213 0.65413 0.06455 0.0
H1395 H 0.37432 0.58211 0.06046 0.0
H1396 H 0.36074 0.60481 0.05474 0.0
H1397 H 0.38764 0.60216 0.05142 0.0
H1398 H 0.39767 0.63967 0.04998 0.0
H1399 H 0.38436 0.6604 0.02998 0.0
H1400 H 0.43988 0.96284 0.3906 0.0
H1401 H 0.43124 0.94089 0.36934 0.0
H1402 H 0.37027 0.9323 0.38535 0.0
H1403 H 0.37885 0.9537 0.4068 0.0
H1404 H 0.41636 0.89843 0.37014 0.0
H1405 H 0.36219 0.95134 0.3423 0.0
H1406 H 0.38085 0.96008 0.35593 0.0
H1407 H 0.35766 0.94776 0.3613 0.0
C1408 C 0.42465 0.95621 0.38965 0.0
C1409 C 0.41003 0.96008 0.40041 0.0
C1410 C 0.41974 0.94378 0.37746 0.0
C1411 C 0.40008 0.93522 0.37575 0.0
C1412 C 0.38542 0.93909 0.38639 0.0
H1413 H 0.34918 0.83413 0.32621 0.0
H1414 H 0.36354 0.85785 0.34475 0.0
C1415 C 0.39034 0.95139 0.39861 0.0
C1416 C 0.395 0.92159 0.36311 0.0
H1417 H 0.36282 0.91675 0.33342 0.0
C1418 C 0.40481 0.90247 0.36202 0.0
C1419 C 0.38006 0.92706 0.35251 0.0
C1420 C 0.36967 0.94774 0.35293 0.0
C1421 C 0.39949 0.8883 0.35084 0.0
C1422 C 0.38393 0.89344 0.34059 0.0
C1423 C 0.37467 0.91285 0.34137 0.0
C1424 C 0.3764 0.87855 0.32933 0.0
C1425 C 0.41041 0.86791 0.3501 0.0
C1426 C 0.37881 0.88246 0.31453 0.0
C1427 C 0.37066 0.86892 0.30389 0.0
C1428 C 0.35973 0.85138 0.30789 0.0
C1429 C 0.35752 0.84747 0.32275 0.0
C1430 C 0.36579 0.86094 0.33337 0.0
H1431 H 0.42508 0.86825 0.35651 0.0
H1432 H 0.40044 0.85594 0.35462 0.0
H1433 H 0.41365 0.86341 0.33865 0.0
H1434 H 0.38686 0.89607 0.31124 0.0
H1435 H 0.37257 0.87242 0.29254 0.0
H1436 H 0.07753 0.90264 0.6346 0.0
H1437 H 0.09604 0.89432 0.61244 0.0
H1438 H 0.14666 0.93227 0.62774 0.0
H1439 H 0.12868 0.93991 0.65027 0.0
H1440 H 0.11019 0.91909 0.59124 0.0
H1441 H 0.1751 0.87845 0.61822 0.0
H1442 H 0.15192 0.88512 0.62757 0.0
H1443 H 0.17127 0.90425 0.62487 0.0
C1444 C 0.09271 0.90902 0.63336 0.0
C1445 C 0.10169 0.92177 0.64431 0.0
C1446 C 0.1032 0.90438 0.62062 0.0
C1447 C 0.12287 0.91239 0.61854 0.0
C1448 C 0.13167 0.92558 0.62925 0.0
H1449 H 0.2072 0.89367 0.54685 0.0
H1450 H 0.18987 0.90754 0.56831 0.0
C1451 C 0.12124 0.93014 0.64205 0.0
C1452 C 0.13405 0.90686 0.60515 0.0
H1453 H 0.17734 0.88321 0.59288 0.0
C1454 C 0.12488 0.91127 0.5916 0.0
C1455 C 0.15323 0.89665 0.60564 0.0
C1456 C 0.16341 0.89065 0.61984 0.0
C1457 C 0.13435 0.90569 0.57853 0.0
C1458 C 0.15339 0.89532 0.57905 0.0
C1459 C 0.16276 0.89125 0.59256 0.0
C1460 C 0.16339 0.88768 0.56569 0.0
C1461 C 0.12397 0.91095 0.56426 0.0
C1462 C 0.15423 0.87189 0.5572 0.0
C1463 C 0.16411 0.86386 0.545 0.0
C1464 C 0.18334 0.8715 0.54108 0.0
C1465 C 0.19237 0.8875 0.54954 0.0
C1466 C 0.18252 0.89543 0.56181 0.0
H1467 H 0.11209 0.92301 0.56568 0.0
H1468 H 0.13536 0.9163 0.55639 0.0
H1469 H 0.11638 0.89701 0.55951 0.0
H1470 H 0.1396 0.86551 0.56016 0.0
H1471 H 0.15674 0.85152 0.53874 0.0
H1472 H 0.57927 0.4014 0.86832 0.0
H1473 H 0.58449 0.38167 0.89046 0.0
H1474 H 0.622 0.43051 0.90915 0.0
H1475 H 0.61622 0.45061 0.88739 0.0
H1476 H 0.62088 0.36778 0.90168 0.0
H1477 H 0.58404 0.41903 0.94216 0.0
H1478 H 0.58009 0.42181 0.9228 0.0
H1479 H 0.60269 0.43229 0.93184 0.0
C1480 C 0.58829 0.40811 0.87726 0.0
C1481 C 0.59734 0.42759 0.87608 0.0
C1482 C 0.59135 0.39676 0.88987 0.0
C1483 C 0.60336 0.40475 0.90154 0.0
C1484 C 0.61229 0.42422 0.90042 0.0
H1485 H 0.66627 0.36551 0.97801 0.0
H1486 H 0.65117 0.38302 0.95713 0.0
C1487 C 0.60921 0.43557 0.88787 0.0
C1488 C 0.60777 0.3923 0.91454 0.0
H1489 H 0.60757 0.39395 0.95169 0.0
C1490 C 0.61766 0.37332 0.91261 0.0
C1491 C 0.60349 0.39954 0.92878 0.0
C1492 C 0.5918 0.41919 0.93153 0.0
C1493 C 0.6243 0.36187 0.92457 0.0
C1494 C 0.62079 0.36956 0.9388 0.0
C1495 C 0.61031 0.38818 0.94074 0.0
C1496 C 0.62906 0.35911 0.95178 0.0
C1497 C 0.63581 0.34208 0.92196 0.0
C1498 C 0.62137 0.34001 0.95579 0.0
C1499 C 0.62992 0.32995 0.96777 0.0
C1500 C 0.64635 0.33884 0.97589 0.0
C1501 C 0.65371 0.35818 0.97196 0.0
C1502 C 0.64508 0.36825 0.96006 0.0
H1503 H 0.63992 0.33982 0.91037 0.0
H1504 H 0.65009 0.34179 0.92879 0.0
H1505 H 0.62612 0.32897 0.92508 0.0
H1506 H 0.60885 0.33284 0.9496 0.0
H1507 H 0.62387 0.31509 0.97052 0.0
H1508 H 0.64061 0.05771 0.12713 0.0
H1509 H 0.65162 0.07619 0.14944 0.0
H1510 H 0.61134 0.12637 0.13849 0.0
H1511 H 0.59998 0.10773 0.11632 0.0
H1512 H 0.67144 0.11174 0.15071 0.0
H1513 H 0.59935 0.12015 0.18096 0.0
H1514 H 0.60173 0.10267 0.16556 0.0
H1515 H 0.59703 0.12954 0.16281 0.0
C1516 C 0.63395 0.07259 0.12959 0.0
C1517 C 0.61948 0.08133 0.12001 0.0
C1518 C 0.64019 0.08309 0.14234 0.0
C1519 C 0.63212 0.10255 0.14574 0.0
C1520 C 0.61737 0.11115 0.13631 0.0
H1521 H 0.69439 0.19712 0.19651 0.0
H1522 H 0.67783 0.17542 0.1777 0.0
C1523 C 0.61097 0.10055 0.12361 0.0
C1524 C 0.64056 0.11458 0.15839 0.0
H1525 H 0.62736 0.14187 0.18894 0.0
C1526 C 0.6618 0.11815 0.15914 0.0
C1527 C 0.62802 0.12275 0.16948 0.0
C1528 C 0.6053 0.11841 0.16977 0.0
C1529 C 0.6708 0.13009 0.17044 0.0
C1530 C 0.65814 0.13916 0.18109 0.0
C1531 C 0.63697 0.13513 0.18063 0.0
C1532 C 0.66669 0.15307 0.19266 0.0
C1533 C 0.69383 0.13273 0.1709 0.0
C1534 C 0.66513 0.14815 0.20737 0.0
C1535 C 0.67442 0.16066 0.21821 0.0
C1536 C 0.68542 0.17828 0.21448 0.0
C1537 C 0.68627 0.18352 0.19975 0.0
C1538 C 0.67688 0.1711 0.18897 0.0
H1539 H 0.70159 0.12027 0.16467 0.0
H1540 H 0.69779 0.14752 0.16593 0.0
H1541 H 0.69997 0.13293 0.18228 0.0
H1542 H 0.6572 0.13435 0.21044 0.0
H1543 H 0.67342 0.15624 0.22946 0.0
H1544 H 0.94943 0.09846 0.37694 0.0
H1545 H 0.9332 0.10996 0.39944 0.0
H1546 H 0.98505 0.14925 0.40972 0.0
H1547 H 0.00134 0.1379 0.38718 0.0
H1548 H 0.94544 0.1094 0.42876 0.0
H1549 H 0.93671 0.18917 0.40945 0.0
H1550 H 0.94365 0.16804 0.39752 0.0
H1551 H 0.96261 0.17976 0.40957 0.0
C1552 C 0.95753 0.10929 0.38412 0.0
C1553 C 0.97659 0.11742 0.38025 0.0
C1554 C 0.9482 0.1159 0.39692 0.0
C1555 C 0.95775 0.13075 0.40608 0.0
C1556 C 0.97722 0.13814 0.40262 0.0
H1557 H 0.91716 0.19696 0.48338 0.0
H1558 H 0.93742 0.182 0.46374 0.0
C1559 C 0.98651 0.13162 0.38977 0.0
C1560 C 0.94694 0.13902 0.41893 0.0
H1561 H 0.92678 0.18305 0.43352 0.0
C1562 C 0.94136 0.1255 0.42982 0.0
C1563 C 0.94157 0.16002 0.42023 0.0
C1564 C 0.94625 0.17509 0.40852 0.0
C1565 C 0.93069 0.13248 0.44208 0.0
C1566 C 0.92531 0.15345 0.44334 0.0
C1567 C 0.93103 0.16699 0.43252 0.0
C1568 C 0.91331 0.16167 0.45563 0.0
C1569 C 0.92545 0.11744 0.45366 0.0
C1570 C 0.89301 0.15526 0.45748 0.0
C1571 C 0.88135 0.16383 0.46864 0.0
C1572 C 0.8898 0.179 0.47814 0.0
C1573 C 0.9102 0.18529 0.47628 0.0
C1574 C 0.92181 0.17677 0.46508 0.0
H1575 H 0.93485 0.10325 0.45284 0.0
H1576 H 0.92777 0.12446 0.4647 0.0
H1577 H 0.90905 0.11302 0.45235 0.0
H1578 H 0.88607 0.1439 0.45012 0.0
H1579 H 0.86567 0.15868 0.46976 0.0
H1580 H 0.90194 0.44575 0.61475 0.0
H1581 H 0.88126 0.4378 0.63579 0.0
H1582 H 0.93111 0.40183 0.65344 0.0
H1583 H 0.95214 0.41045 0.63287 0.0
H1584 H 0.86856 0.40036 0.64383 0.0
H1585 H 0.91546 0.43562 0.68868 0.0
H1586 H 0.91946 0.44129 0.66983 0.0
H1587 H 0.93031 0.41848 0.6776 0.0
C1588 C 0.90867 0.43655 0.62328 0.0
C1589 C 0.92872 0.42874 0.62211 0.0
C1590 C 0.89678 0.4319 0.63524 0.0
C1591 C 0.90473 0.41947 0.6463 0.0
C1592 C 0.92479 0.41184 0.64522 0.0
H1593 H 0.86173 0.34734 0.71549 0.0
H1594 H 0.87983 0.36387 0.69591 0.0
C1595 C 0.9367 0.41654 0.63333 0.0
C1596 C 0.89171 0.41326 0.65846 0.0
H1597 H 0.89099 0.41007 0.69549 0.0
C1598 C 0.87329 0.40278 0.65513 0.0
C1599 C 0.89786 0.41649 0.67321 0.0
C1600 C 0.91675 0.42878 0.67755 0.0
C1601 C 0.86135 0.39465 0.66614 0.0
C1602 C 0.86802 0.39711 0.6808 0.0
C1603 C 0.88606 0.40811 0.68419 0.0
C1604 C 0.85696 0.38748 0.69271 0.0
C1605 C 0.8421 0.38281 0.66205 0.0
C1606 C 0.83819 0.39543 0.6974 0.0
C1607 C 0.82782 0.38609 0.70865 0.0
C1608 C 0.83605 0.36859 0.71531 0.0
C1609 C 0.85492 0.36074 0.71056 0.0
C1610 C 0.86532 0.37017 0.69941 0.0
H1611 H 0.84011 0.38055 0.65008 0.0
H1612 H 0.84244 0.36755 0.66719 0.0
H1613 H 0.82855 0.39123 0.66619 0.0
H1614 H 0.83159 0.40887 0.69238 0.0
H1615 H 0.81333 0.39252 0.71206 0.0
H1616 H 0.59928 0.13965 0.39265 0.0
H1617 H 0.61782 0.14656 0.37055 0.0
H1618 H 0.59194 0.09203 0.34994 0.0
H1619 H 0.57261 0.08538 0.3719 0.0
H1620 H 0.64679 0.12197 0.35706 0.0
H1621 H 0.5799 0.13608 0.31991 0.0
H1622 H 0.57765 0.13565 0.33943 0.0
H1623 H 0.57968 0.11204 0.32908 0.0
C1624 C 0.59718 0.1293 0.38334 0.0
C1625 C 0.58425 0.11208 0.384 0.0
C1626 C 0.60796 0.13318 0.37076 0.0
C1627 C 0.60607 0.11995 0.35855 0.0
C1628 C 0.59334 0.10263 0.35916 0.0
H1629 H 0.66466 0.13141 0.27411 0.0
H1630 H 0.64599 0.11777 0.29461 0.0
C1631 C 0.58247 0.09875 0.37176 0.0
C1632 C 0.61787 0.12426 0.34538 0.0
H1633 H 0.61277 0.13749 0.30974 0.0
C1634 C 0.63936 0.12528 0.34669 0.0
C1635 C 0.60813 0.12845 0.33185 0.0
C1636 C 0.58507 0.12819 0.32993 0.0
C1637 C 0.65136 0.1307 0.33491 0.0
C1638 C 0.64159 0.13547 0.32153 0.0
C1639 C 0.62017 0.13382 0.32004 0.0
C1640 C 0.65326 0.14338 0.30922 0.0
C1641 C 0.67441 0.13137 0.33689 0.0
C1642 C 0.66334 0.16236 0.31064 0.0
C1643 C 0.67393 0.17022 0.29897 0.0
C1644 C 0.67462 0.15925 0.28563 0.0
C1645 C 0.6645 0.1402 0.28425 0.0
C1646 C 0.6538 0.13239 0.29593 0.0
H1647 H 0.67971 0.12214 0.34628 0.0
H1648 H 0.68208 0.12559 0.32695 0.0
H1649 H 0.67933 0.14749 0.339 0.0
H1650 H 0.6628 0.17123 0.32074 0.0
H1651 H 0.68149 0.18496 0.30041 0.0
H1652 H 0.91117 0.1034 0.64956 0.0
H1653 H 0.90338 0.124 0.62828 0.0
H1654 H 0.9535 0.09553 0.60559 0.0
H1655 H 0.9613 0.07455 0.62691 0.0
H1656 H 0.9323 0.15158 0.61301 0.0
H1657 H 0.89987 0.08679 0.57903 0.0
H1658 H 0.90195 0.08555 0.59861 0.0
H1659 H 0.92455 0.08354 0.58792 0.0
C1660 C 0.92044 0.10138 0.64001 0.0
C1661 C 0.93669 0.0872 0.63981 0.0
C1662 C 0.91609 0.11328 0.62792 0.0
C1663 C 0.9278 0.11115 0.61539 0.0
C1664 C 0.94424 0.09725 0.61517 0.0
H1665 H 0.88855 0.16625 0.53317 0.0
H1666 H 0.90996 0.14799 0.55087 0.0
C1667 C 0.9487 0.08537 0.62734 0.0
C1668 C 0.92225 0.12331 0.60255 0.0
H1669 H 0.89653 0.11991 0.56985 0.0
C1670 C 0.92476 0.14468 0.60345 0.0
C1671 C 0.91259 0.11418 0.5901 0.0
C1672 C 0.90943 0.09126 0.58876 0.0
C1673 C 0.91714 0.15729 0.59241 0.0
C1674 C 0.90631 0.14826 0.58038 0.0
C1675 C 0.90478 0.12679 0.57912 0.0
C1676 C 0.8948 0.16076 0.56971 0.0
C1677 C 0.92049 0.18016 0.59386 0.0
C1678 C 0.87918 0.17397 0.57444 0.0
C1679 C 0.86696 0.18443 0.5644 0.0
C1680 C 0.86996 0.1817 0.54938 0.0
C1681 C 0.88583 0.16868 0.54466 0.0
C1682 C 0.89809 0.15825 0.55474 0.0
H1683 H 0.93454 0.18379 0.60051 0.0
H1684 H 0.92187 0.18723 0.58306 0.0
H1685 H 0.90725 0.18726 0.59945 0.0
H1686 H 0.876 0.17572 0.58592 0.0
H1687 H 0.85483 0.19425 0.56842 0.0
H1688 H 0.95365 0.39892 0.87622 0.0
H1689 H 0.93354 0.38938 0.85445 0.0
H1690 H 0.89516 0.44266 0.86073 0.0
H1691 H 0.91416 0.45146 0.88314 0.0
H1692 H 0.87237 0.41088 0.85626 0.0
H1693 H 0.93088 0.40892 0.81392 0.0
H1694 H 0.9387 0.39291 0.82862 0.0
H1695 H 0.9359 0.42019 0.83177 0.0
C1696 C 0.94094 0.40865 0.873 0.0
C1697 C 0.93549 0.4259 0.88156 0.0
C1698 C 0.92968 0.40337 0.86035 0.0
C1699 C 0.91303 0.41549 0.85577 0.0
C1700 C 0.90804 0.43315 0.86398 0.0
H1701 H 0.84787 0.37575 0.77508 0.0
H1702 H 0.86734 0.39704 0.79286 0.0
C1703 C 0.91908 0.43827 0.87675 0.0
C1704 C 0.89956 0.4085 0.84338 0.0
H1705 H 0.9004 0.38825 0.80883 0.0
C1706 C 0.87848 0.4063 0.8458 0.0
C1707 C 0.90735 0.40289 0.8296 0.0
C1708 C 0.92941 0.40659 0.82579 0.0
C1709 C 0.86522 0.3976 0.83513 0.0
C1710 C 0.87338 0.39023 0.82188 0.0
C1711 C 0.89421 0.39352 0.81911 0.0
C1712 C 0.86087 0.37797 0.81116 0.0
C1713 C 0.84263 0.39632 0.83826 0.0
C1714 C 0.85093 0.3601 0.81552 0.0
C1715 C 0.83963 0.34808 0.80546 0.0
C1716 C 0.83838 0.35344 0.79075 0.0
C1717 C 0.84852 0.37123 0.78635 0.0
C1718 C 0.85965 0.3834 0.79648 0.0
H1719 H 0.83796 0.4088 0.84593 0.0
H1720 H 0.83305 0.39728 0.82815 0.0
H1721 H 0.83942 0.3815 0.84346 0.0
H1722 H 0.85219 0.35522 0.82669 0.0
H1723 H 0.83223 0.33434 0.80919 0.0
H1724 H 0.54822 0.37116 0.13973 0.0
H1725 H 0.56921 0.36074 0.11926 0.0
H1726 H 0.60968 0.41208 0.12827 0.0
H1727 H 0.58981 0.42166 0.1495 0.0
H1728 H 0.57901 0.37789 0.09487 0.0
H1729 H 0.65024 0.36637 0.12784 0.0
H1730 H 0.62578 0.37113 0.136 0.0
H1731 H 0.64062 0.39209 0.12932 0.0
C1732 C 0.56178 0.38008 0.13755 0.0
C1733 C 0.56745 0.39707 0.1465 0.0
C1734 C 0.57364 0.37423 0.12571 0.0
C1735 C 0.5913 0.38534 0.12241 0.0
C1736 C 0.59646 0.40291 0.13084 0.0
H1737 H 0.65496 0.36201 0.04042 0.0
H1738 H 0.63392 0.37745 0.05949 0.0
C1739 C 0.58482 0.40857 0.14287 0.0
C1740 C 0.60441 0.37825 0.1103 0.0
H1741 H 0.65322 0.36364 0.10227 0.0
C1742 C 0.59525 0.37475 0.09648 0.0
C1743 C 0.62554 0.37388 0.11246 0.0
C1744 C 0.63609 0.37585 0.12723 0.0
C1745 C 0.60654 0.3668 0.08481 0.0
C1746 C 0.62778 0.36297 0.08688 0.0
C1747 C 0.63698 0.36673 0.10065 0.0
C1748 C 0.64061 0.35398 0.07522 0.0
C1749 C 0.59537 0.36187 0.07059 0.0
C1750 C 0.65196 0.33608 0.07786 0.0
C1751 C 0.66438 0.32757 0.06714 0.0
C1752 C 0.66553 0.33664 0.05347 0.0
C1753 C 0.65419 0.35456 0.0508 0.0
C1754 C 0.64204 0.36331 0.06166 0.0
H1755 H 0.5786 0.36005 0.07209 0.0
H1756 H 0.59757 0.37465 0.06301 0.0
H1757 H 0.60133 0.34755 0.06544 0.0
H1758 H 0.65114 0.32859 0.08823 0.0
H1759 H 0.67288 0.3137 0.06951 0.0
loop_
_geom_bond_atom_site_label_1
_geom_bond_atom_site_label_2
_geom_bond_distance
_geom_bond_site_symmetry_2
_ccdc_geom_bond_type
H0 C27 0.929 . S
N1 C26 1.433 . S
N1 C32 1.435 . S
N1 C38 1.423 . S
H2 C28 0.930 . S
H3 C31 0.931 . S
H4 C30 0.929 . S
H5 C33 0.930 . S
H6 C34 0.932 . S
H7 C37 0.929 . S
H8 C36 0.931 . S
H9 C39 0.936 . S
H10 C43 0.932 . S
H11 C40 0.931 . S
H12 C42 0.929 . S
H13 C45 0.929 . S
H14 C46 0.930 . S
H15 C48 0.929 . S
H16 C49 0.931 . S
H17 C51 0.930 . S
H18 C52 0.932 . S
H19 C54 0.931 . S
H20 C55 0.929 . S
H21 C57 0.929 . S
H22 C58 0.931 . S
H23 C60 0.929 . S
N24 C44 1.433 . S
N24 C50 1.435 . S
N24 C56 1.423 . S
H25 C61 0.932 . S
C26 N1 1.433 . S
C26 C27 1.363 . S
C26 C31 1.370 . S
C27 H0 0.929 . S
C27 C26 1.363 . S
C27 C28 1.385 . S
C28 H2 0.930 . S
C28 C27 1.385 . S
C28 C29 1.357 . S
C29 C28 1.357 . S
C29 C30 1.406 . S
C30 H4 0.929 . S
C30 C29 1.406 . S
C30 C31 1.391 . S
C31 H3 0.931 . S
C31 C26 1.370 . S
C31 C30 1.391 . S
C32 N1 1.435 . S
C32 C33 1.358 . S
C32 C37 1.371 . S
C33 H5 0.930 . S
C33 C32 1.358 . S
C33 C34 1.405 . S
C34 H6 0.932 . S
C34 C33 1.405 . S
C34 C35 1.383 . S
C35 C34 1.383 . S
C35 C36 1.393 . S
C36 H8 0.931 . S
C36 C35 1.393 . S
C36 C37 1.382 . S
C37 H7 0.929 . S
C37 C32 1.371 . S
C37 C36 1.382 . S
C38 N1 1.423 . S
C38 C39 1.327 1_565 S
C38 C43 1.388 . S
C39 H9 0.936 . S
C39 C38 1.327 1_545 S
C39 C40 1.407 . S
C40 H11 0.931 . S
C40 C39 1.407 . S
C40 C41 1.396 . S
C41 C40 1.396 . S
C41 C42 1.348 1_545 S
C41 C59 1.472 . S
C42 H12 0.929 . S
C42 C41 1.348 1_565 S
C42 C43 1.443 . S
C43 H10 0.932 . S
C43 C38 1.388 . S
C43 C42 1.443 . S
C44 N24 1.433 . S
C44 C45 1.363 . S
C44 C49 1.370 . S
C45 H13 0.929 . S
C45 C44 1.363 . S
C45 C46 1.385 . S
C46 H14 0.930 . S
C46 C45 1.385 . S
C46 C47 1.357 . S
C47 C46 1.357 . S
C47 C48 1.406 . S
C48 H15 0.929 . S
C48 C47 1.406 . S
C48 C49 1.391 . S
C49 H16 0.931 . S
C49 C44 1.370 . S
C49 C48 1.391 . S
C50 N24 1.435 . S
C50 C51 1.358 . S
C50 C55 1.371 . S
C51 H17 0.930 . S
C51 C50 1.358 . S
C51 C52 1.405 . S
C52 H18 0.932 . S
C52 C51 1.405 . S
C52 C53 1.383 . S
C53 C52 1.383 . S
C53 C54 1.393 . S
C54 H19 0.931 . S
C54 C53 1.393 . S
C54 C55 1.382 . S
C55 H20 0.929 . S
C55 C50 1.371 . S
C55 C54 1.382 . S
C56 N24 1.423 . S
C56 C57 1.362 1_655 S
C56 C61 1.388 . S
C57 H21 0.929 . S
C57 C56 1.362 1_455 S
C57 C58 1.376 . S
C58 H22 0.931 . S
C58 C57 1.376 . S
C58 C59 1.396 . S
C59 C41 1.472 . S
C59 C58 1.396 . S
C59 C60 1.348 . S
C60 H23 0.929 . S
C60 C59 1.348 . S
C60 C61 1.443 1_455 S
C61 H25 0.932 . S
C61 C56 1.388 . S
C61 C60 1.443 1_655 S
H62 C89 0.929 . S
N63 C88 1.433 . S
N63 C94 1.435 . S
N63 C100 1.423 . S
H64 C90 0.930 . S
H65 C93 0.931 . S
H66 C92 0.929 . S
H67 C95 0.930 . S
H68 C96 0.932 . S
H69 C99 0.929 . S
H70 C98 0.931 . S
H71 C101 0.932 . S
H72 C105 0.932 . S
H73 C102 0.931 . S
H74 C104 0.929 . S
H75 C107 0.929 . S
H76 C108 0.930 . S
H77 C110 0.929 . S
H78 C111 0.931 . S
H79 C113 0.930 . S
H80 C114 0.932 . S
H81 C116 0.931 . S
H82 C117 0.929 . S
H83 C119 0.929 . S
H84 C120 0.931 . S
H85 C122 0.929 . S
N86 C106 1.433 . S
N86 C112 1.435 . S
N86 C118 1.423 . S
H87 C123 0.932 . S
C88 N63 1.433 . S
C88 C89 1.363 . S
C88 C93 1.370 . S
C89 H62 0.929 . S
C89 C88 1.363 . S
C89 C90 1.385 . S
C90 H64 0.930 . S
C90 C89 1.385 . S
C90 C91 1.357 . S
C91 C90 1.357 . S
C91 C92 1.406 . S
C92 H66 0.929 . S
C92 C91 1.406 . S
C92 C93 1.391 . S
C93 H65 0.931 . S
C93 C88 1.370 . S
C93 C92 1.391 . S
C94 N63 1.435 . S
C94 C95 1.358 . S
C94 C99 1.371 . S
C95 H67 0.930 . S
C95 C94 1.358 . S
C95 C96 1.405 . S
C96 H68 0.932 . S
C96 C95 1.405 . S
C96 C97 1.383 . S
C97 C96 1.383 . S
C97 C98 1.393 . S
C98 H70 0.931 . S
C98 C97 1.393 . S
C98 C99 1.382 . S
C99 H69 0.929 . S
C99 C94 1.371 . S
C99 C98 1.382 . S
C100 N63 1.423 . S
C100 C101 1.333 1_655 S
C100 C105 1.388 . S
C101 H71 0.932 . S
C101 C100 1.333 1_455 S
C101 C102 1.403 . S
C102 H73 0.931 . S
C102 C101 1.403 . S
C102 C103 1.396 . S
C103 C102 1.396 . S
C103 C104 1.348 1_455 S
C103 C121 1.472 . S
C104 H74 0.929 . S
C104 C103 1.348 1_655 S
C104 C105 1.443 . S
C105 H72 0.932 . S
C105 C100 1.388 . S
C105 C104 1.443 . S
C106 N86 1.433 . S
C106 C107 1.363 . S
C106 C111 1.370 . S
C107 H75 0.929 . S
C107 C106 1.363 . S
C107 C108 1.385 . S
C108 H76 0.930 . S
C108 C107 1.385 . S
C108 C109 1.357 . S
C109 C108 1.357 . S
C109 C110 1.406 . S
C110 H77 0.929 . S
C110 C109 1.406 . S
C110 C111 1.391 . S
C111 H78 0.931 . S
C111 C106 1.370 . S
C111 C110 1.391 . S
C112 N86 1.435 . S
C112 C113 1.358 . S
C112 C117 1.371 . S
C113 H79 0.930 . S
C113 C112 1.358 . S
C113 C114 1.405 . S
C114 H80 0.932 . S
C114 C113 1.405 . S
C114 C115 1.383 . S
C115 C114 1.383 . S
C115 C116 1.393 . S
C116 H81 0.931 . S
C116 C115 1.393 . S
C116 C117 1.382 . S
C117 H82 0.929 . S
C117 C112 1.371 . S
C117 C116 1.382 . S
C118 N86 1.423 . S
C118 C119 1.362 . S
C118 C123 1.388 . S
C119 H83 0.929 . S
C119 C118 1.362 . S
C119 C120 1.376 . S
C120 H84 0.931 . S
C120 C119 1.376 . S
C120 C121 1.396 . S
C121 C103 1.472 . S
C121 C120 1.396 . S
C121 C122 1.348 . S
C122 H85 0.929 . S
C122 C121 1.348 . S
C122 C123 1.443 . S
C123 H87 0.932 . S
C123 C118 1.388 . S
C123 C122 1.443 . S
H124 C151 0.929 . S
N125 C150 1.433 . S
N125 C156 1.435 . S
N125 C162 1.423 . S
H126 C152 0.930 . S
H127 C155 0.931 . S
H128 C154 0.929 . S
H129 C157 0.930 . S
H130 C158 0.932 . S
H131 C161 0.929 . S
H132 C160 0.931 . S
H133 C163 0.929 . S
H134 C167 0.932 . S
H135 C164 0.931 . S
H136 C166 0.929 . S
H137 C169 0.929 . S
H138 C170 0.930 . S
H139 C172 0.929 . S
H140 C173 0.931 . S
H141 C175 0.930 . S
H142 C176 0.932 . S
H143 C178 0.931 . S
H144 C179 0.929 . S
H145 C181 0.929 . S
H146 C182 0.931 . S
H147 C184 0.929 . S
N148 C168 1.433 . S
N148 C174 1.435 . S
N148 C180 1.423 . S
H149 C185 0.932 . S
C150 N125 1.433 . S
C150 C151 1.363 . S
C150 C155 1.370 . S
C151 H124 0.929 . S
C151 C150 1.363 . S
C151 C152 1.385 . S
C152 H126 0.930 . S
C152 C151 1.385 . S
C152 C153 1.357 . S
C153 C152 1.357 . S
C153 C154 1.406 . S
C154 H128 0.929 . S
C154 C153 1.406 . S
C154 C155 1.391 . S
C155 H127 0.931 . S
C155 C150 1.370 . S
C155 C154 1.391 . S
C156 N125 1.435 . S
C156 C157 1.358 . S
C156 C161 1.371 . S
C157 H129 0.930 . S
C157 C156 1.358 . S
C157 C158 1.405 . S
C158 H130 0.932 . S
C158 C157 1.405 . S
C158 C159 1.383 . S
C159 C158 1.383 . S
C159 C160 1.393 . S
C160 H132 0.931 . S
C160 C159 1.393 . S
C160 C161 1.382 . S
C161 H131 0.929 . S
C161 C156 1.371 . S
C161 C160 1.382 . S
C162 N125 1.423 . S
C162 C163 1.362 . S
C162 C167 1.388 . S
C163 H133 0.929 . S
C163 C162 1.362 . S
C163 C164 1.376 . S
C164 H135 0.931 . S
C164 C163 1.376 . S
C164 C165 1.396 . S
C165 C164 1.396 . S
C165 C166 1.348 . S
C165 C183 1.472 . S
C166 H136 0.929 . S
C166 C165 1.348 . S
C166 C167 1.443 . S
C167 H134 0.932 . S
C167 C162 1.388 . S
C167 C166 1.443 . S
C168 N148 1.433 . S
C168 C169 1.363 . S
C168 C173 1.370 . S
C169 H137 0.929 . S
C169 C168 1.363 . S
C169 C170 1.385 . S
C170 H138 0.930 . S
C170 C169 1.385 . S
C170 C171 1.357 . S
C171 C170 1.357 . S
C171 C172 1.406 . S
C172 H139 0.929 . S
C172 C171 1.406 . S
C172 C173 1.391 . S
C173 H140 0.931 . S
C173 C168 1.370 . S
C173 C172 1.391 . S
C174 N148 1.435 . S
C174 C175 1.358 . S
C174 C179 1.371 . S
C175 H141 0.930 . S
C175 C174 1.358 . S
C175 C176 1.405 . S
C176 H142 0.932 . S
C176 C175 1.405 . S
C176 C177 1.383 . S
C177 C176 1.383 . S
C177 C178 1.393 . S
C178 H143 0.931 . S
C178 C177 1.393 . S
C178 C179 1.382 . S
C179 H144 0.929 . S
C179 C174 1.371 . S
C179 C178 1.382 . S
C180 N148 1.423 . S
C180 C181 1.362 . S
C180 C185 1.388 . S
C181 H145 0.929 . S
C181 C180 1.362 . S
C181 C182 1.376 . S
C182 H146 0.931 . S
C182 C181 1.376 . S
C182 C183 1.396 . S
C183 C165 1.472 . S
C183 C182 1.396 . S
C183 C184 1.348 . S
C184 H147 0.929 . S
C184 C183 1.348 . S
C184 C185 1.443 . S
C185 H149 0.932 . S
C185 C180 1.388 . S
C185 C184 1.443 . S
H186 C213 0.929 . S
N187 C212 1.433 . S
N187 C218 1.435 . S
N187 C224 1.423 . S
H188 C214 0.930 . S
H189 C217 0.931 . S
H190 C216 0.929 . S
H191 C219 0.930 . S
H192 C220 0.932 . S
H193 C223 0.929 . S
H194 C222 0.931 . S
H195 C225 0.929 . S
H196 C229 0.932 . S
H197 C226 0.931 . S
H198 C228 0.929 . S
H199 C231 0.929 . S
H200 C232 0.930 . S
H201 C234 0.929 . S
H202 C235 0.931 . S
H203 C237 0.930 . S
H204 C238 0.932 . S
H205 C240 0.931 . S
H206 C241 0.929 . S
H207 C243 0.929 . S
H208 C244 0.931 1_565 S
H209 C246 0.929 . S
N210 C230 1.433 . S
N210 C236 1.435 . S
N210 C242 1.423 . S
H211 C247 0.932 . S
C212 N187 1.433 . S
C212 C213 1.363 . S
C212 C217 1.370 . S
C213 H186 0.929 . S
C213 C212 1.363 . S
C213 C214 1.385 . S
C214 H188 0.930 . S
C214 C213 1.385 . S
C214 C215 1.357 . S
C215 C214 1.357 . S
C215 C216 1.406 . S
C216 H190 0.929 . S
C216 C215 1.406 . S
C216 C217 1.391 . S
C217 H189 0.931 . S
C217 C212 1.370 . S
C217 C216 1.391 . S
C218 N187 1.435 . S
C218 C219 1.358 . S
C218 C223 1.371 . S
C219 H191 0.930 . S
C219 C218 1.358 . S
C219 C220 1.405 . S
C220 H192 0.932 . S
C220 C219 1.405 . S
C220 C221 1.383 . S
C221 C220 1.383 . S
C221 C222 1.393 . S
C222 H194 0.931 . S
C222 C221 1.393 . S
C222 C223 1.382 . S
C223 H193 0.929 . S
C223 C218 1.371 . S
C223 C222 1.382 . S
C224 N187 1.423 . S
C224 C225 1.362 . S
C224 C229 1.388 . S
C225 H195 0.929 . S
C225 C224 1.362 . S
C225 C226 1.376 . S
C226 H197 0.931 . S
C226 C225 1.376 . S
C226 C227 1.396 . S
C227 C226 1.396 . S
C227 C228 1.348 . S
C227 C245 1.472 1_565 S
C228 H198 0.929 . S
C228 C227 1.348 . S
C228 C229 1.443 . S
C229 H196 0.932 . S
C229 C224 1.388 . S
C229 C228 1.443 . S
C230 N210 1.433 . S
C230 C231 1.363 . S
C230 C235 1.370 . S
C231 H199 0.929 . S
C231 C230 1.363 . S
C231 C232 1.385 . S
C232 H200 0.930 . S
C232 C231 1.385 . S
C232 C233 1.357 . S
C233 C232 1.357 . S
C233 C234 1.406 . S
C234 H201 0.929 . S
C234 C233 1.406 . S
C234 C235 1.391 . S
C235 H202 0.931 . S
C235 C230 1.370 . S
C235 C234 1.391 . S
C236 N210 1.435 . S
C236 C237 1.358 . S
C236 C241 1.371 . S
C237 H203 0.930 . S
C237 C236 1.358 . S
C237 C238 1.405 . S
C238 H204 0.932 . S
C238 C237 1.405 . S
C238 C239 1.383 . S
C239 C238 1.383 . S
C239 C240 1.393 . S
C240 H205 0.931 . S
C240 C239 1.393 . S
C240 C241 1.382 . S
C241 H206 0.929 . S
C241 C236 1.371 . S
C241 C240 1.382 . S
C242 N210 1.423 . S
C242 C243 1.362 . S
C242 C247 1.388 . S
C243 H207 0.929 . S
C243 C242 1.362 . S
C243 C244 1.376 . S
C244 H208 0.931 1_545 S
C244 C243 1.376 . S
C244 C245 1.396 . S
C245 C227 1.472 1_545 S
C245 C244 1.396 . S
C245 C246 1.348 . S
C246 H209 0.929 . S
C246 C245 1.348 . S
C246 C247 1.443 . S
C247 H211 0.932 . S
C247 C242 1.388 . S
C247 C246 1.443 . S
H248 C275 0.929 . S
N249 C274 1.433 . S
N249 C280 1.435 . S
N249 C286 1.423 . S
H250 C276 0.930 . S
H251 C279 0.931 . S
H252 C278 0.929 . S
H253 C281 0.930 . S
H254 C282 0.932 . S
H255 C285 0.929 . S
H256 C284 0.931 . S
H257 C287 0.929 . S
H258 C291 0.932 . S
H259 C288 0.931 . S
H260 C290 0.929 . S
H261 C293 0.929 . S
H262 C294 0.930 . S
H263 C296 0.929 . S
H264 C297 0.931 . S
H265 C299 0.930 . S
H266 C300 0.932 . S
H267 C302 0.931 . S
H268 C303 0.929 . S
H269 C305 0.929 . S
H270 C306 0.931 1_455 S
H271 C308 0.929 . S
N272 C292 1.433 . S
N272 C298 1.435 . S
N272 C304 1.423 . S
H273 C309 0.932 . S
C274 N249 1.433 . S
C274 C275 1.363 . S
C274 C279 1.370 . S
C275 H248 0.929 . S
C275 C274 1.363 . S
C275 C276 1.385 . S
C276 H250 0.930 . S
C276 C275 1.385 . S
C276 C277 1.357 . S
C277 C276 1.357 . S
C277 C278 1.406 . S
C278 H252 0.929 . S
C278 C277 1.406 . S
C278 C279 1.391 . S
C279 H251 0.931 . S
C279 C274 1.370 . S
C279 C278 1.391 . S
C280 N249 1.435 . S
C280 C281 1.358 . S
C280 C285 1.371 . S
C281 H253 0.930 . S
C281 C280 1.358 . S
C281 C282 1.405 . S
C282 H254 0.932 . S
C282 C281 1.405 . S
C282 C283 1.383 . S
C283 C282 1.383 . S
C283 C284 1.393 . S
C284 H256 0.931 . S
C284 C283 1.393 . S
C284 C285 1.382 . S
C285 H255 0.929 . S
C285 C280 1.371 . S
C285 C284 1.382 . S
C286 N249 1.423 . S
C286 C287 1.362 . S
C286 C291 1.388 . S
C287 H257 0.929 . S
C287 C286 1.362 . S
C287 C288 1.376 . S
C288 H259 0.931 . S
C288 C287 1.376 . S
C288 C289 1.396 . S
C289 C288 1.396 . S
C289 C290 1.348 . S
C289 C307 1.515 . S
C290 H260 0.929 . S
C290 C289 1.348 . S
C290 C291 1.443 . S
C291 H258 0.932 . S
C291 C286 1.388 . S
C291 C290 1.443 . S
C292 N272 1.433 . S
C292 C293 1.363 . S
C292 C297 1.370 . S
C293 H261 0.929 . S
C293 C292 1.363 . S
C293 C294 1.385 . S
C294 H262 0.930 . S
C294 C293 1.385 . S
C294 C295 1.357 . S
C295 C294 1.357 . S
C295 C296 1.406 . S
C296 H263 0.929 . S
C296 C295 1.406 . S
C296 C297 1.391 . S
C297 H264 0.931 . S
C297 C292 1.370 . S
C297 C296 1.391 . S
C298 N272 1.435 . S
C298 C299 1.358 . S
C298 C303 1.371 . S
C299 H265 0.930 . S
C299 C298 1.358 . S
C299 C300 1.405 . S
C300 H266 0.932 . S
C300 C299 1.405 . S
C300 C301 1.383 . S
C301 C300 1.383 . S
C301 C302 1.393 . S
C302 H267 0.931 . S
C302 C301 1.393 . S
C302 C303 1.382 . S
C303 H268 0.929 . S
C303 C298 1.371 . S
C303 C302 1.382 . S
C304 N272 1.423 . S
C304 C305 1.362 . S
C304 C309 1.388 . S
C305 H269 0.929 . S
C305 C304 1.362 . S
C305 C306 1.376 . S
C306 H270 0.931 1_655 S
C306 C305 1.376 . S
C306 C307 1.391 1_655 S
C307 C289 1.515 . S
C307 C306 1.391 1_455 S
C307 C308 1.308 1_455 S
C308 H271 0.929 . S
C308 C307 1.308 1_655 S
C308 C309 1.443 . S
C309 H273 0.932 . S
C309 C304 1.388 . S
C309 C308 1.443 . S
H310 C337 0.929 . S
N311 C336 1.433 . S
N311 C342 1.435 . S
N311 C348 1.423 . S
H312 C338 0.930 . S
H313 C341 0.931 . S
H314 C340 0.929 . S
H315 C343 0.930 . S
H316 C344 0.932 . S
H317 C347 0.929 . S
H318 C346 0.931 . S
H319 C349 0.929 . S
H320 C353 0.932 . S
H321 C350 0.931 . S
H322 C352 0.929 . S
H323 C355 0.929 . S
H324 C356 0.930 . S
H325 C358 0.929 . S
H326 C359 0.931 . S
H327 C361 0.930 . S
H328 C362 0.932 . S
H329 C364 0.931 . S
H330 C365 0.929 . S
H331 C367 0.929 . S
H332 C368 0.931 . S
H333 C370 0.929 . S
N334 C354 1.433 . S
N334 C360 1.435 . S
N334 C366 1.423 . S
H335 C371 0.932 . S
C336 N311 1.433 . S
C336 C337 1.363 . S
C336 C341 1.370 . S
C337 H310 0.929 . S
C337 C336 1.363 . S
C337 C338 1.385 . S
C338 H312 0.930 . S
C338 C337 1.385 . S
C338 C339 1.357 . S
C339 C338 1.357 . S
C339 C340 1.406 . S
C340 H314 0.929 . S
C340 C339 1.406 . S
C340 C341 1.391 . S
C341 H313 0.931 . S
C341 C336 1.370 . S
C341 C340 1.391 . S
C342 N311 1.435 . S
C342 C343 1.358 . S
C342 C347 1.371 . S
C343 H315 0.930 . S
C343 C342 1.358 . S
C343 C344 1.405 . S
C344 H316 0.932 . S
C344 C343 1.405 . S
C344 C345 1.383 . S
C345 C344 1.383 . S
C345 C346 1.393 . S
C346 H318 0.931 . S
C346 C345 1.393 . S
C346 C347 1.382 . S
C347 H317 0.929 . S
C347 C342 1.371 . S
C347 C346 1.382 . S
C348 N311 1.423 . S
C348 C349 1.362 . S
C348 C353 1.388 . S
C349 H319 0.929 . S
C349 C348 1.362 . S
C349 C350 1.376 . S
C350 H321 0.931 . S
C350 C349 1.376 . S
C350 C351 1.396 . S
C351 C350 1.396 . S
C351 C352 1.348 . S
C351 C369 1.472 . S
C352 H322 0.929 . S
C352 C351 1.348 . S
C352 C353 1.443 . S
C353 H320 0.932 . S
C353 C348 1.388 . S
C353 C352 1.443 . S
C354 N334 1.433 . S
C354 C355 1.363 . S
C354 C359 1.370 . S
C355 H323 0.929 . S
C355 C354 1.363 . S
C355 C356 1.385 . S
C356 H324 0.930 . S
C356 C355 1.385 . S
C356 C357 1.357 . S
C357 C356 1.357 . S
C357 C358 1.406 . S
C358 H325 0.929 . S
C358 C357 1.406 . S
C358 C359 1.391 . S
C359 H326 0.931 . S
C359 C354 1.370 . S
C359 C358 1.391 . S
C360 N334 1.435 . S
C360 C361 1.358 . S
C360 C365 1.371 . S
C361 H327 0.930 . S
C361 C360 1.358 . S
C361 C362 1.405 . S
C362 H328 0.932 . S
C362 C361 1.405 . S
C362 C363 1.383 . S
C363 C362 1.383 . S
C363 C364 1.393 . S
C364 H329 0.931 . S
C364 C363 1.393 . S
C364 C365 1.382 . S
C365 H330 0.929 . S
C365 C360 1.371 . S
C365 C364 1.382 . S
C366 N334 1.423 . S
C366 C367 1.362 . S
C366 C371 1.388 . S
C367 H331 0.929 . S
C367 C366 1.362 . S
C367 C368 1.376 . S
C368 H332 0.931 . S
C368 C367 1.376 . S
C368 C369 1.396 . S
C369 C351 1.472 . S
C369 C368 1.396 . S
C369 C370 1.348 . S
C370 H333 0.929 . S
C370 C369 1.348 . S
C370 C371 1.443 . S
C371 H335 0.932 . S
C371 C366 1.388 . S
C371 C370 1.443 . S
H372 C399 0.929 . S
N373 C398 1.433 . S
N373 C404 1.435 . S
N373 C410 1.423 . S
H374 C400 0.930 . S
H375 C403 0.931 . S
H376 C402 0.929 . S
H377 C405 0.930 . S
H378 C406 0.932 . S
H379 C409 0.929 . S
H380 C408 0.931 . S
H381 C411 0.936 . S
H382 C415 0.932 . S
H383 C412 0.931 . S
H384 C414 0.929 . S
H385 C417 0.929 . S
H386 C418 0.930 . S
H387 C420 0.929 . S
H388 C421 0.931 . S
H389 C423 0.930 . S
H390 C424 0.932 . S
H391 C426 0.931 . S
H392 C427 0.929 . S
H393 C429 0.929 . S
H394 C430 0.931 . S
H395 C432 0.929 . S
N396 C416 1.433 . S
N396 C422 1.435 . S
N396 C428 1.423 . S
H397 C433 0.932 . S
C398 N373 1.433 . S
C398 C399 1.363 . S
C398 C403 1.370 . S
C399 H372 0.929 . S
C399 C398 1.363 . S
C399 C400 1.385 . S
C400 H374 0.930 . S
C400 C399 1.385 . S
C400 C401 1.357 . S
C401 C400 1.357 . S
C401 C402 1.406 . S
C402 H376 0.929 . S
C402 C401 1.406 . S
C402 C403 1.391 . S
C403 H375 0.931 . S
C403 C398 1.370 . S
C403 C402 1.391 . S
C404 N373 1.435 . S
C404 C405 1.358 . S
C404 C409 1.371 . S
C405 H377 0.930 . S
C405 C404 1.358 . S
C405 C406 1.405 . S
C406 H378 0.932 . S
C406 C405 1.405 . S
C406 C407 1.383 . S
C407 C406 1.383 . S
C407 C408 1.393 . S
C408 H380 0.931 . S
C408 C407 1.393 . S
C408 C409 1.382 . S
C409 H379 0.929 . S
C409 C404 1.371 . S
C409 C408 1.382 . S
C410 N373 1.423 . S
C410 C411 1.322 1_565 S
C410 C415 1.388 . S
C411 H381 0.936 . S
C411 C410 1.322 1_545 S
C411 C412 1.412 . S
C412 H383 0.931 . S
C412 C411 1.412 . S
C412 C413 1.396 . S
C413 C412 1.396 . S
C413 C414 1.348 1_545 S
C413 C431 1.472 . S
C414 H384 0.929 . S
C414 C413 1.348 1_565 S
C414 C415 1.443 . S
C415 H382 0.932 . S
C415 C410 1.388 . S
C415 C414 1.443 . S
C416 N396 1.433 . S
C416 C417 1.363 . S
C416 C421 1.370 . S
C417 H385 0.929 . S
C417 C416 1.363 . S
C417 C418 1.385 . S
C418 H386 0.930 . S
C418 C417 1.385 . S
C418 C419 1.357 . S
C419 C418 1.357 . S
C419 C420 1.406 . S
C420 H387 0.929 . S
C420 C419 1.406 . S
C420 C421 1.391 . S
C421 H388 0.931 . S
C421 C416 1.370 . S
C421 C420 1.391 . S
C422 N396 1.435 . S
C422 C423 1.358 . S
C422 C427 1.371 . S
C423 H389 0.930 . S
C423 C422 1.358 . S
C423 C424 1.405 . S
C424 H390 0.932 . S
C424 C423 1.405 . S
C424 C425 1.383 . S
C425 C424 1.383 . S
C425 C426 1.393 . S
C426 H391 0.931 . S
C426 C425 1.393 . S
C426 C427 1.382 . S
C427 H392 0.929 . S
C427 C422 1.371 . S
C427 C426 1.382 . S
C428 N396 1.423 . S
C428 C429 1.362 . S
C428 C433 1.388 . S
C429 H393 0.929 . S
C429 C428 1.362 . S
C429 C430 1.376 . S
C430 H394 0.931 . S
C430 C429 1.376 . S
C430 C431 1.396 . S
C431 C413 1.472 . S
C431 C430 1.396 . S
C431 C432 1.348 . S
C432 H395 0.929 . S
C432 C431 1.348 . S
C432 C433 1.443 . S
C433 H397 0.932 . S
C433 C428 1.388 . S
C433 C432 1.443 . S
H434 C461 0.929 . S
N435 C460 1.433 . S
N435 C466 1.435 . S
N435 C472 1.423 . S
H436 C462 0.930 . S
H437 C465 0.931 . S
H438 C464 0.929 . S
H439 C467 0.930 . S
H440 C468 0.932 . S
H441 C471 0.929 . S
H442 C470 0.931 . S
H443 C473 0.929 . S
H444 C477 0.932 . S
H445 C474 0.931 . S
H446 C476 0.929 . S
H447 C479 0.929 . S
H448 C480 0.930 . S
H449 C482 0.929 . S
H450 C483 0.931 . S
H451 C485 0.930 . S
H452 C486 0.932 . S
H453 C488 0.931 . S
H454 C489 0.929 . S
H455 C491 0.929 . S
H456 C492 0.931 . S
H457 C494 0.929 . S
N458 C478 1.433 . S
N458 C484 1.435 . S
N458 C490 1.423 . S
H459 C495 0.932 . S
C460 N435 1.433 . S
C460 C461 1.363 . S
C460 C465 1.370 . S
C461 H434 0.929 . S
C461 C460 1.363 . S
C461 C462 1.385 . S
C462 H436 0.930 . S
C462 C461 1.385 . S
C462 C463 1.357 . S
C463 C462 1.357 . S
C463 C464 1.406 . S
C464 H438 0.929 . S
C464 C463 1.406 . S
C464 C465 1.391 . S
C465 H437 0.931 . S
C465 C460 1.370 . S
C465 C464 1.391 . S
C466 N435 1.435 . S
C466 C467 1.358 . S
C466 C471 1.371 . S
C467 H439 0.930 . S
C467 C466 1.358 . S
C467 C468 1.405 . S
C468 H440 0.932 . S
C468 C467 1.405 . S
C468 C469 1.383 . S
C469 C468 1.383 . S
C469 C470 1.393 . S
C470 H442 0.931 . S
C470 C469 1.393 . S
C470 C471 1.382 . S
C471 H441 0.929 . S
C471 C466 1.371 . S
C471 C470 1.382 . S
C472 N435 1.423 . S
C472 C473 1.362 . S
C472 C477 1.388 . S
C473 H443 0.929 . S
C473 C472 1.362 . S
C473 C474 1.376 . S
C474 H445 0.931 . S
C474 C473 1.376 . S
C474 C475 1.396 1_565 S
C475 C474 1.396 1_545 S
C475 C476 1.348 . S
C475 C493 1.472 . S
C476 H446 0.929 . S
C476 C475 1.348 . S
C476 C477 1.443 1_545 S
C477 H444 0.932 . S
C477 C472 1.388 . S
C477 C476 1.443 1_565 S
C478 N458 1.433 . S
C478 C479 1.363 . S
C478 C483 1.370 . S
C479 H447 0.929 . S
C479 C478 1.363 . S
C479 C480 1.385 . S
C480 H448 0.930 . S
C480 C479 1.385 . S
C480 C481 1.357 . S
C481 C480 1.357 . S
C481 C482 1.406 . S
C482 H449 0.929 . S
C482 C481 1.406 . S
C482 C483 1.391 . S
C483 H450 0.931 . S
C483 C478 1.370 . S
C483 C482 1.391 . S
C484 N458 1.435 . S
C484 C485 1.358 . S
C484 C489 1.371 . S
C485 H451 0.930 . S
C485 C484 1.358 . S
C485 C486 1.405 . S
C486 H452 0.932 . S
C486 C485 1.405 . S
C486 C487 1.383 . S
C487 C486 1.383 . S
C487 C488 1.393 . S
C488 H453 0.931 . S
C488 C487 1.393 . S
C488 C489 1.382 . S
C489 H454 0.929 . S
C489 C484 1.371 . S
C489 C488 1.382 . S
C490 N458 1.423 . S
C490 C491 1.362 . S
C490 C495 1.388 . S
C491 H455 0.929 . S
C491 C490 1.362 . S
C491 C492 1.376 . S
C492 H456 0.931 . S
C492 C491 1.376 . S
C492 C493 1.396 1_655 S
C493 C475 1.472 . S
C493 C492 1.396 1_455 S
C493 C494 1.348 . S
C494 H457 0.929 . S
C494 C493 1.348 . S
C494 C495 1.443 1_455 S
C495 H459 0.932 . S
C495 C490 1.388 . S
C495 C494 1.443 1_655 S
Zn496 O499 2.031 . S
Zn496 O501 2.049 1_556 S
Zn496 O506 2.067 . S
Zn497 O498 1.962 . S
Zn497 O500 1.986 . S
Zn497 O502 1.996 . S
Zn497 O505 1.943 . S
O498 Zn497 1.962 . S
O498 C503 1.254 . S
O499 Zn496 2.031 . S
O499 C503 1.269 1_556 S
O500 Zn497 1.986 . S
O500 C507 1.262 . S
O501 Zn496 2.049 1_554 S
O501 C509 1.260 . S
O502 Zn497 1.996 . S
O502 C509 1.257 . S
C503 O498 1.254 . S
C503 O499 1.269 1_554 S
C504 O505 1.249 1_556 S
C504 O506 1.270 . S
O505 Zn497 1.943 . S
O505 C504 1.249 1_554 S
O506 Zn496 2.067 . S
O506 C504 1.270 . S
C507 O500 1.262 . S
C507 O508 1.232 . S
O508 C507 1.232 . S
C509 O501 1.260 . S
C509 O502 1.257 . S
Zn510 O513 2.031 . S
Zn510 O515 2.049 . S
Zn510 O520 2.067 . S
Zn511 O512 1.962 . S
Zn511 O514 1.986 . S
Zn511 O516 1.996 . S
Zn511 O519 1.943 . S
O512 Zn511 1.962 . S
O512 C517 1.254 . S
O513 Zn510 2.031 . S
O513 C517 1.269 . S
O514 Zn511 1.986 . S
O514 C521 1.262 . S
O515 Zn510 2.049 . S
O515 C523 1.260 . S
O516 Zn511 1.996 . S
O516 C523 1.257 . S
C517 O512 1.254 . S
C517 O513 1.269 . S
C518 O519 1.249 . S
C518 O520 1.270 . S
O519 Zn511 1.943 . S
O519 C518 1.249 . S
O520 Zn510 2.067 . S
O520 C518 1.270 . S
C521 O514 1.262 . S
C521 O522 1.232 . S
O522 C521 1.232 . S
C523 O515 1.260 . S
C523 O516 1.257 . S
Zn524 O527 2.031 . S
Zn524 O529 2.049 . S
Zn524 O534 2.067 . S
Zn525 O526 1.962 . S
Zn525 O528 1.986 . S
Zn525 O530 1.996 . S
Zn525 O533 1.943 . S
O526 Zn525 1.962 . S
O526 C531 1.254 . S
O527 Zn524 2.031 . S
O527 C531 1.269 . S
O528 Zn525 1.986 . S
O528 C535 1.262 . S
O529 Zn524 2.049 . S
O529 C537 1.260 . S
O530 Zn525 1.996 . S
O530 C537 1.257 . S
C531 O526 1.254 . S
C531 O527 1.269 . S
C532 O533 1.249 . S
C532 O534 1.270 . S
O533 Zn525 1.943 . S
O533 C532 1.249 . S
O534 Zn524 2.067 . S
O534 C532 1.270 . S
C535 O528 1.262 . S
C535 O536 1.232 . S
O536 C535 1.232 . S
C537 O529 1.260 . S
C537 O530 1.257 . S
Zn538 O541 2.031 . S
Zn538 O543 2.049 . S
Zn538 O548 2.067 . S
Zn539 O540 1.962 . S
Zn539 O542 1.986 . S
Zn539 O544 1.996 . S
Zn539 O547 1.943 . S
O540 Zn539 1.962 . S
O540 C545 1.254 . S
O541 Zn538 2.031 . S
O541 C545 1.269 . S
O542 Zn539 1.986 . S
O542 C549 1.262 . S
O543 Zn538 2.049 . S
O543 C551 1.260 . S
O544 Zn539 1.996 . S
O544 C551 1.257 . S
C545 O540 1.254 . S
C545 O541 1.269 . S
C546 O547 1.249 . S
C546 O548 1.270 . S
O547 Zn539 1.943 . S
O547 C546 1.249 . S
O548 Zn538 2.067 . S
O548 C546 1.270 . S
C549 O542 1.262 . S
C549 O550 1.232 . S
O550 C549 1.232 . S
C551 O543 1.260 . S
C551 O544 1.257 . S
Zn552 O555 2.031 . S
Zn552 O557 2.049 . S
Zn552 O562 2.067 . S
Zn553 O554 1.962 . S
Zn553 O556 1.986 . S
Zn553 O558 1.996 . S
Zn553 O561 1.943 . S
O554 Zn553 1.962 . S
O554 C559 1.254 . S
O555 Zn552 2.031 . S
O555 C559 1.269 . S
O556 Zn553 1.986 . S
O556 C563 1.262 . S
O557 Zn552 2.049 . S
O557 C565 1.260 . S
O558 Zn553 1.996 . S
O558 C565 1.257 . S
C559 O554 1.254 . S
C559 O555 1.269 . S
C560 O561 1.249 . S
C560 O562 1.270 . S
O561 Zn553 1.943 . S
O561 C560 1.249 . S
O562 Zn552 2.067 . S
O562 C560 1.270 . S
C563 O556 1.262 . S
C563 O564 1.232 . S
O564 C563 1.232 . S
C565 O557 1.260 . S
C565 O558 1.257 . S
Zn566 O569 2.031 . S
Zn566 O571 2.049 . S
Zn566 O576 2.067 . S
Zn567 O568 1.962 . S
Zn567 O570 1.986 . S
Zn567 O572 1.996 . S
Zn567 O575 1.943 . S
O568 Zn567 1.962 . S
O568 C573 1.254 . S
O569 Zn566 2.031 . S
O569 C573 1.269 . S
O570 Zn567 1.986 . S
O570 C577 1.262 . S
O571 Zn566 2.049 . S
O571 C579 1.260 . S
O572 Zn567 1.996 . S
O572 C579 1.257 . S
C573 O568 1.254 . S
C573 O569 1.269 . S
C574 O575 1.249 . S
C574 O576 1.270 . S
O575 Zn567 1.943 . S
O575 C574 1.249 . S
O576 Zn566 2.067 . S
O576 C574 1.270 . S
C577 O570 1.262 . S
C577 O578 1.232 . S
O578 C577 1.232 . S
C579 O571 1.260 . S
C579 O572 1.257 . S
Zn580 O583 2.031 . S
Zn580 O585 2.049 . S
Zn580 O590 2.067 . S
Zn581 O582 1.962 . S
Zn581 O584 1.986 . S
Zn581 O586 2.006 . S
Zn581 O589 1.943 1_556 S
O582 Zn581 1.962 . S
O582 C587 1.254 1_556 S
O583 Zn580 2.031 . S
O583 C587 1.269 . S
O584 Zn581 1.986 . S
O584 C591 1.262 . S
O585 Zn580 2.049 . S
O585 C593 1.260 . S
O586 Zn581 2.006 . S
O586 C593 1.232 1_556 S
C587 O582 1.254 1_554 S
C587 O583 1.269 . S
C588 O589 1.249 . S
C588 O590 1.270 . S
O589 Zn581 1.943 1_554 S
O589 C588 1.249 . S
O590 Zn580 2.067 . S
O590 C588 1.270 . S
C591 O584 1.262 . S
C591 O592 1.232 . S
O592 C591 1.232 . S
C593 O585 1.260 . S
C593 O586 1.232 1_554 S
Zn594 O597 2.031 . S
Zn594 O599 2.049 . S
Zn594 O604 2.067 . S
Zn595 O596 1.962 . S
Zn595 O598 1.986 . S
Zn595 O600 1.996 . S
Zn595 O603 1.943 . S
O596 Zn595 1.962 . S
O596 C601 1.254 . S
O597 Zn594 2.031 . S
O597 C601 1.269 . S
O598 Zn595 1.986 . S
O598 C605 1.262 . S
O599 Zn594 2.049 . S
O599 C607 1.260 . S
O600 Zn595 1.996 . S
O600 C607 1.257 . S
C601 O596 1.254 . S
C601 O597 1.269 . S
C602 O603 1.249 . S
C602 O604 1.270 . S
O603 Zn595 1.943 . S
O603 C602 1.249 . S
O604 Zn594 2.067 . S
O604 C602 1.270 . S
C605 O598 1.262 . S
C605 O606 1.232 . S
O606 C605 1.232 . S
C607 O599 1.260 . S
C607 O600 1.257 . S
H608 C616 0.929 . S
H609 C618 0.930 . S
H610 C620 0.930 . S
H611 C623 0.929 . S
H612 C626 0.930 . S
H613 C628 0.960 . S
H614 C628 0.960 . S
H615 C628 0.960 . S
C616 H608 0.929 . S
C616 C617 1.377 . S
C616 C618 1.384 . S
C617 C616 1.377 . S
C617 C623 1.390 . S
C618 H609 0.930 . S
C618 C616 1.384 . S
C618 C619 1.372 . S
C619 C618 1.372 . S
C619 C620 1.400 . S
C619 C624 1.490 . S
C620 H610 0.930 . S
C620 C619 1.400 . S
C620 C623 1.386 . S
H621 C637 0.930 . S
H622 C638 0.931 . S
C623 H611 0.929 . S
C623 C617 1.390 . S
C623 C620 1.386 . S
C624 C619 1.490 . S
C624 C626 1.395 . S
C624 C627 1.403 . S
H625 C631 0.930 . S
C626 H612 0.930 . S
C626 C624 1.395 . S
C626 C629 1.403 . S
C627 C624 1.403 . S
C627 C628 1.524 . S
C627 C631 1.400 . S
C628 H613 0.960 . S
C628 H614 0.960 . S
C628 H615 0.960 . S
C628 C627 1.524 . S
C629 C626 1.403 . S
C629 C630 1.392 . S
C629 C633 1.495 . S
C630 C629 1.392 . S
C630 C631 1.385 . S
C630 C632 1.478 . S
C631 H625 0.930 . S
C631 C627 1.400 . S
C631 C630 1.385 . S
C632 C630 1.478 . S
C632 C634 1.381 . S
C632 C638 1.383 . S
C633 C629 1.495 . S
C633 H639 0.959 . S
C633 H640 0.961 . S
C633 H641 0.960 . S
C634 C632 1.381 . S
C634 C635 1.394 . S
C634 H642 0.930 . S
C635 C634 1.394 . S
C635 C636 1.383 . S
C635 H643 0.929 . S
C636 C635 1.383 . S
C636 C637 1.377 . S
C637 H621 0.930 . S
C637 C636 1.377 . S
C637 C638 1.379 . S
C638 H622 0.931 . S
C638 C632 1.383 . S
C638 C637 1.379 . S
H639 C633 0.959 . S
H640 C633 0.961 . S
H641 C633 0.960 . S
H642 C634 0.930 . S
H643 C635 0.929 . S
H644 C652 0.929 . S
H645 C654 0.930 . S
H646 C656 0.930 . S
H647 C659 0.929 . S
H648 C662 0.930 . S
H649 C664 0.960 . S
H650 C664 0.960 . S
H651 C664 0.960 . S
C652 H644 0.929 . S
C652 C653 1.377 . S
C652 C654 1.384 . S
C653 C652 1.377 . S
C653 C659 1.390 . S
C654 H645 0.930 . S
C654 C652 1.384 . S
C654 C655 1.372 . S
C655 C654 1.372 . S
C655 C656 1.400 . S
C655 C660 1.490 . S
C656 H646 0.930 . S
C656 C655 1.400 . S
C656 C659 1.386 . S
H657 C673 0.930 . S
H658 C674 0.931 . S
C659 H647 0.929 . S
C659 C653 1.390 . S
C659 C656 1.386 . S
C660 C655 1.490 . S
C660 C662 1.395 . S
C660 C663 1.403 . S
H661 C667 0.930 . S
C662 H648 0.930 . S
C662 C660 1.395 . S
C662 C665 1.403 . S
C663 C660 1.403 . S
C663 C664 1.524 . S
C663 C667 1.400 . S
C664 H649 0.960 . S
C664 H650 0.960 . S
C664 H651 0.960 . S
C664 C663 1.524 . S
C665 C662 1.403 . S
C665 C666 1.392 . S
C665 C669 1.495 . S
C666 C665 1.392 . S
C666 C667 1.385 . S
C666 C668 1.478 . S
C667 H661 0.930 . S
C667 C663 1.400 . S
C667 C666 1.385 . S
C668 C666 1.478 . S
C668 C670 1.381 . S
C668 C674 1.383 . S
C669 C665 1.495 . S
C669 H675 0.959 . S
C669 H676 0.961 . S
C669 H677 0.960 . S
C670 C668 1.381 . S
C670 C671 1.394 . S
C670 H678 0.930 . S
C671 C670 1.394 . S
C671 C672 1.383 . S
C671 H679 0.929 . S
C672 C671 1.383 . S
C672 C673 1.377 . S
C673 H657 0.930 . S
C673 C672 1.377 . S
C673 C674 1.379 . S
C674 H658 0.931 . S
C674 C668 1.383 . S
C674 C673 1.379 . S
H675 C669 0.959 . S
H676 C669 0.961 . S
H677 C669 0.960 . S
H678 C670 0.930 . S
H679 C671 0.929 . S
H680 C688 0.929 . S
H681 C690 0.930 . S
H682 C692 0.930 . S
H683 C695 0.929 . S
H684 C698 0.930 . S
H685 C700 0.960 . S
H686 C700 0.960 . S
H687 C700 0.960 . S
C688 H680 0.929 . S
C688 C689 1.377 . S
C688 C690 1.384 . S
C689 C688 1.377 . S
C689 C695 1.390 . S
C690 H681 0.930 . S
C690 C688 1.384 . S
C690 C691 1.372 . S
C691 C690 1.372 . S
C691 C692 1.400 . S
C691 C696 1.490 . S
C692 H682 0.930 . S
C692 C691 1.400 . S
C692 C695 1.386 . S
H693 C709 0.930 . S
H694 C710 0.931 . S
C695 H683 0.929 . S
C695 C689 1.390 . S
C695 C692 1.386 . S
C696 C691 1.490 . S
C696 C698 1.395 . S
C696 C699 1.403 . S
H697 C703 0.930 . S
C698 H684 0.930 . S
C698 C696 1.395 . S
C698 C701 1.403 . S
C699 C696 1.403 . S
C699 C700 1.524 . S
C699 C703 1.400 . S
C700 H685 0.960 . S
C700 H686 0.960 . S
C700 H687 0.960 . S
C700 C699 1.524 . S
C701 C698 1.403 . S
C701 C702 1.392 . S
C701 C705 1.495 . S
C702 C701 1.392 . S
C702 C703 1.385 . S
C702 C704 1.478 . S
C703 H697 0.930 . S
C703 C699 1.400 . S
C703 C702 1.385 . S
C704 C702 1.478 . S
C704 C706 1.381 . S
C704 C710 1.383 . S
C705 C701 1.495 . S
C705 H711 0.959 . S
C705 H712 0.961 . S
C705 H713 0.960 . S
C706 C704 1.381 . S
C706 C707 1.394 . S
C706 H714 0.930 . S
C707 C706 1.394 . S
C707 C708 1.383 . S
C707 H715 0.929 . S
C708 C707 1.383 . S
C708 C709 1.377 . S
C709 H693 0.930 . S
C709 C708 1.377 . S
C709 C710 1.379 . S
C710 H694 0.931 . S
C710 C704 1.383 . S
C710 C709 1.379 . S
H711 C705 0.959 . S
H712 C705 0.961 . S
H713 C705 0.960 . S
H714 C706 0.930 . S
H715 C707 0.929 . S
H716 C724 0.929 . S
H717 C726 0.930 . S
H718 C728 0.930 . S
H719 C731 0.929 . S
H720 C734 0.930 . S
H721 C736 0.960 . S
H722 C736 0.960 . S
H723 C736 0.960 . S
C724 H716 0.929 . S
C724 C725 1.377 . S
C724 C726 1.384 . S
C725 C724 1.377 . S
C725 C731 1.390 . S
C726 H717 0.930 . S
C726 C724 1.384 . S
C726 C727 1.372 . S
C727 C726 1.372 . S
C727 C728 1.400 . S
C727 C732 1.490 . S
C728 H718 0.930 . S
C728 C727 1.400 . S
C728 C731 1.386 . S
H729 C745 0.930 . S
H730 C746 0.931 . S
C731 H719 0.929 . S
C731 C725 1.390 . S
C731 C728 1.386 . S
C732 C727 1.490 . S
C732 C734 1.395 . S
C732 C735 1.403 . S
H733 C739 0.930 . S
C734 H720 0.930 . S
C734 C732 1.395 . S
C734 C737 1.403 . S
C735 C732 1.403 . S
C735 C736 1.524 . S
C735 C739 1.400 . S
C736 H721 0.960 . S
C736 H722 0.960 . S
C736 H723 0.960 . S
C736 C735 1.524 . S
C737 C734 1.403 . S
C737 C738 1.392 . S
C737 C741 1.495 . S
C738 C737 1.392 . S
C738 C739 1.385 . S
C738 C740 1.478 . S
C739 H733 0.930 . S
C739 C735 1.400 . S
C739 C738 1.385 . S
C740 C738 1.478 . S
C740 C742 1.381 . S
C740 C746 1.383 . S
C741 C737 1.495 . S
C741 H747 0.959 . S
C741 H748 0.961 . S
C741 H749 0.960 . S
C742 C740 1.381 . S
C742 C743 1.394 . S
C742 H750 0.930 . S
C743 C742 1.394 . S
C743 C744 1.383 . S
C743 H751 0.929 . S
C744 C743 1.383 . S
C744 C745 1.377 . S
C745 H729 0.930 . S
C745 C744 1.377 . S
C745 C746 1.379 . S
C746 H730 0.931 . S
C746 C740 1.383 . S
C746 C745 1.379 . S
H747 C741 0.959 . S
H748 C741 0.961 . S
H749 C741 0.960 . S
H750 C742 0.930 . S
H751 C743 0.929 . S
H752 C760 0.929 . S
H753 C762 0.930 . S
H754 C764 0.930 . S
H755 C767 0.929 . S
H756 C770 0.930 . S
H757 C772 0.960 . S
H758 C772 0.960 . S
H759 C772 0.960 . S
C760 H752 0.929 . S
C760 C761 1.377 1_554 S
C760 C762 1.384 . S
C761 C760 1.377 1_556 S
C761 C767 1.390 . S
C762 H753 0.930 . S
C762 C760 1.384 . S
C762 C763 1.378 . S
C763 C762 1.378 . S
C763 C764 1.392 1_554 S
C763 C768 1.491 . S
C764 H754 0.930 . S
C764 C763 1.392 1_556 S
C764 C767 1.386 . S
H765 C781 0.930 . S
H766 C782 0.931 . S
C767 H755 0.929 . S
C767 C761 1.390 . S
C767 C764 1.386 . S
C768 C763 1.491 . S
C768 C770 1.395 1_554 S
C768 C771 1.403 . S
H769 C775 0.930 . S
C770 H756 0.930 . S
C770 C768 1.395 1_556 S
C770 C773 1.403 . S
C771 C768 1.403 . S
C771 C772 1.524 . S
C771 C775 1.400 . S
C772 H757 0.960 . S
C772 H758 0.960 . S
C772 H759 0.960 . S
C772 C771 1.524 . S
C773 C770 1.403 . S
C773 C774 1.392 1_556 S
C773 C777 1.495 . S
C774 C773 1.392 1_554 S
C774 C775 1.385 . S
C774 C776 1.478 . S
C775 H769 0.930 . S
C775 C771 1.400 . S
C775 C774 1.385 . S
C776 C774 1.478 . S
C776 C778 1.381 . S
C776 C782 1.383 1_554 S
C777 C773 1.495 . S
C777 H783 0.959 . S
C777 H784 0.961 . S
C777 H785 0.902 1_556 S
C778 C776 1.381 . S
C778 C779 1.394 . S
C778 H786 0.930 . S
C779 C778 1.394 . S
C779 C780 1.383 . S
C779 H787 0.929 . S
C780 C779 1.383 . S
C780 C781 1.377 1_554 S
C781 H765 0.930 . S
C781 C780 1.377 1_556 S
C781 C782 1.379 . S
C782 H766 0.931 . S
C782 C776 1.383 1_556 S
C782 C781 1.379 . S
H783 C777 0.959 . S
H784 C777 0.961 . S
H785 C777 0.902 1_554 S
H786 C778 0.930 . S
H787 C779 0.929 . S
H788 C796 0.929 . S
H789 C798 0.930 . S
H790 C800 0.930 . S
H791 C803 0.929 . S
H792 C806 0.930 . S
H793 C808 0.960 . S
H794 C808 0.960 . S
H795 C808 0.960 . S
C796 H788 0.929 . S
C796 C797 1.377 . S
C796 C798 1.384 . S
C797 C796 1.377 . S
C797 C803 1.390 . S
C798 H789 0.930 . S
C798 C796 1.384 . S
C798 C799 1.372 . S
C799 C798 1.372 . S
C799 C800 1.400 . S
C799 C804 1.490 . S
C800 H790 0.930 . S
C800 C799 1.400 . S
C800 C803 1.386 . S
H801 C817 0.930 . S
H802 C818 0.931 . S
C803 H791 0.929 . S
C803 C797 1.390 . S
C803 C800 1.386 . S
C804 C799 1.490 . S
C804 C806 1.395 . S
C804 C807 1.403 . S
H805 C811 0.930 . S
C806 H792 0.930 . S
C806 C804 1.395 . S
C806 C809 1.403 . S
C807 C804 1.403 . S
C807 C808 1.524 . S
C807 C811 1.400 . S
C808 H793 0.960 . S
C808 H794 0.960 . S
C808 H795 0.960 . S
C808 C807 1.524 . S
C809 C806 1.403 . S
C809 C810 1.392 . S
C809 C813 1.495 . S
C810 C809 1.392 . S
C810 C811 1.385 . S
C810 C812 1.478 . S
C811 H805 0.930 . S
C811 C807 1.400 . S
C811 C810 1.385 . S
C812 C810 1.478 . S
C812 C814 1.381 . S
C812 C818 1.383 . S
C813 C809 1.495 . S
C813 H819 0.959 . S
C813 H820 0.961 . S
C813 H821 0.960 . S
C814 C812 1.381 . S
C814 C815 1.394 . S
C814 H822 0.930 . S
C815 C814 1.394 . S
C815 C816 1.383 . S
C815 H823 0.929 . S
C816 C815 1.383 . S
C816 C817 1.377 . S
C817 H801 0.930 . S
C817 C816 1.377 . S
C817 C818 1.379 . S
C818 H802 0.931 . S
C818 C812 1.383 . S
C818 C817 1.379 . S
H819 C813 0.959 . S
H820 C813 0.961 . S
H821 C813 0.960 . S
H822 C814 0.930 . S
H823 C815 0.929 . S
H824 C832 0.929 . S
H825 C834 0.930 . S
H826 C836 0.930 . S
H827 C839 0.929 . S
H828 C842 0.930 . S
H829 C844 0.960 . S
H830 C844 0.960 . S
H831 C844 0.960 . S
C832 H824 0.929 . S
C832 C833 1.377 . S
C832 C834 1.384 . S
C833 C832 1.377 . S
C833 C839 1.390 . S
C834 H825 0.930 . S
C834 C832 1.384 . S
C834 C835 1.372 . S
C835 C834 1.372 . S
C835 C836 1.400 . S
C835 C840 1.490 . S
C836 H826 0.930 . S
C836 C835 1.400 . S
C836 C839 1.386 . S
H837 C853 0.930 . S
H838 C854 0.931 . S
C839 H827 0.929 . S
C839 C833 1.390 . S
C839 C836 1.386 . S
C840 C835 1.490 . S
C840 C842 1.395 . S
C840 C843 1.403 . S
H841 C847 0.930 . S
C842 H828 0.930 . S
C842 C840 1.395 . S
C842 C845 1.403 . S
C843 C840 1.403 . S
C843 C844 1.524 . S
C843 C847 1.400 . S
C844 H829 0.960 . S
C844 H830 0.960 . S
C844 H831 0.960 . S
C844 C843 1.524 . S
C845 C842 1.403 . S
C845 C846 1.392 . S
C845 C849 1.495 . S
C846 C845 1.392 . S
C846 C847 1.385 . S
C846 C848 1.478 . S
C847 H841 0.930 . S
C847 C843 1.400 . S
C847 C846 1.385 . S
C848 C846 1.478 . S
C848 C850 1.381 . S
C848 C854 1.383 . S
C849 C845 1.495 . S
C849 H855 0.959 . S
C849 H856 0.961 . S
C849 H857 0.960 . S
C850 C848 1.381 . S
C850 C851 1.394 . S
C850 H858 0.930 . S
C851 C850 1.394 . S
C851 C852 1.383 . S
C851 H859 0.929 . S
C852 C851 1.383 . S
C852 C853 1.377 . S
C853 H837 0.930 . S
C853 C852 1.377 . S
C853 C854 1.379 . S
C854 H838 0.931 . S
C854 C848 1.383 . S
C854 C853 1.379 . S
H855 C849 0.959 . S
H856 C849 0.961 . S
H857 C849 0.960 . S
H858 C850 0.930 . S
H859 C851 0.929 . S
H860 C868 0.929 . S
H861 C870 0.930 . S
H862 C872 0.930 . S
H863 C875 0.929 . S
H864 C878 0.930 . S
H865 C880 0.960 . S
H866 C880 0.960 . S
H867 C880 0.960 . S
C868 H860 0.929 . S
C868 C869 1.377 . S
C868 C870 1.384 . S
C869 C868 1.377 . S
C869 C875 1.390 . S
C870 H861 0.930 . S
C870 C868 1.384 . S
C870 C871 1.372 . S
C871 C870 1.372 . S
C871 C872 1.400 . S
C871 C876 1.490 . S
C872 H862 0.930 . S
C872 C871 1.400 . S
C872 C875 1.386 . S
H873 C889 0.930 . S
H874 C890 0.931 . S
C875 H863 0.929 . S
C875 C869 1.390 . S
C875 C872 1.386 . S
C876 C871 1.490 . S
C876 C878 1.395 . S
C876 C879 1.403 . S
H877 C883 0.930 . S
C878 H864 0.930 . S
C878 C876 1.395 . S
C878 C881 1.403 . S
C879 C876 1.403 . S
C879 C880 1.524 . S
C879 C883 1.400 . S
C880 H865 0.960 . S
C880 H866 0.960 . S
C880 H867 0.960 . S
C880 C879 1.524 . S
C881 C878 1.403 . S
C881 C882 1.392 . S
C881 C885 1.495 . S
C882 C881 1.392 . S
C882 C883 1.385 . S
C882 C884 1.478 . S
C883 H877 0.930 . S
C883 C879 1.400 . S
C883 C882 1.385 . S
C884 C882 1.478 . S
C884 C886 1.381 . S
C884 C890 1.383 . S
C885 C881 1.495 . S
C885 H891 0.959 . S
C885 H892 0.961 . S
C885 H893 0.960 . S
C886 C884 1.381 . S
C886 C887 1.394 . S
C886 H894 0.930 . S
C887 C886 1.394 . S
C887 C888 1.383 . S
C887 H895 0.929 . S
C888 C887 1.383 . S
C888 C889 1.377 . S
C889 H873 0.930 . S
C889 C888 1.377 . S
C889 C890 1.379 . S
C890 H874 0.931 . S
C890 C884 1.383 . S
C890 C889 1.379 . S
H891 C885 0.959 . S
H892 C885 0.961 . S
H893 C885 0.960 . S
H894 C886 0.930 . S
H895 C887 0.929 . S
H896 C904 0.929 . S
H897 C906 0.930 . S
H898 C908 0.930 . S
H899 C911 0.929 . S
H900 C914 0.930 . S
H901 C916 0.960 . S
H902 C916 0.960 . S
H903 C916 0.960 . S
C904 H896 0.929 . S
C904 C905 1.377 . S
C904 C906 1.384 . S
C905 C904 1.377 . S
C905 C911 1.390 . S
C906 H897 0.930 . S
C906 C904 1.384 . S
C906 C907 1.372 . S
C907 C906 1.372 . S
C907 C908 1.400 . S
C907 C912 1.490 . S
C908 H898 0.930 . S
C908 C907 1.400 . S
C908 C911 1.386 . S
H909 C925 0.930 . S
H910 C926 0.931 . S
C911 H899 0.929 . S
C911 C905 1.390 . S
C911 C908 1.386 . S
C912 C907 1.490 . S
C912 C914 1.395 . S
C912 C915 1.403 . S
H913 C919 0.930 . S
C914 H900 0.930 . S
C914 C912 1.395 . S
C914 C917 1.403 . S
C915 C912 1.403 . S
C915 C916 1.524 . S
C915 C919 1.400 . S
C916 H901 0.960 . S
C916 H902 0.960 . S
C916 H903 0.960 . S
C916 C915 1.524 . S
C917 C914 1.403 . S
C917 C918 1.392 . S
C917 C921 1.495 . S
C918 C917 1.392 . S
C918 C919 1.385 . S
C918 C920 1.478 . S
C919 H913 0.930 . S
C919 C915 1.400 . S
C919 C918 1.385 . S
C920 C918 1.478 . S
C920 C922 1.381 . S
C920 C926 1.383 . S
C921 C917 1.495 . S
C921 H927 0.959 . S
C921 H928 0.961 . S
C921 H929 0.960 . S
C922 C920 1.381 . S
C922 C923 1.394 . S
C922 H930 0.930 . S
C923 C922 1.394 . S
C923 C924 1.383 . S
C923 H931 0.929 . S
C924 C923 1.383 . S
C924 C925 1.377 . S
C925 H909 0.930 . S
C925 C924 1.377 . S
C925 C926 1.379 . S
C926 H910 0.931 . S
C926 C920 1.383 . S
C926 C925 1.379 . S
H927 C921 0.959 . S
H928 C921 0.961 . S
H929 C921 0.960 . S
H930 C922 0.930 . S
H931 C923 0.929 . S
H932 C940 0.929 . S
H933 C942 0.930 . S
H934 C944 0.930 . S
H935 C947 0.929 . S
H936 C950 0.930 . S
H937 C952 0.960 . S
H938 C952 0.960 . S
H939 C952 0.960 . S
C940 H932 0.929 . S
C940 C941 1.377 . S
C940 C942 1.384 . S
C941 C940 1.377 . S
C941 C947 1.390 . S
C942 H933 0.930 . S
C942 C940 1.384 . S
C942 C943 1.372 . S
C943 C942 1.372 . S
C943 C944 1.400 . S
C943 C948 1.490 . S
C944 H934 0.930 . S
C944 C943 1.400 . S
C944 C947 1.386 . S
H945 C961 0.930 . S
H946 C962 0.931 1_556 S
C947 H935 0.929 . S
C947 C941 1.390 . S
C947 C944 1.386 . S
C948 C943 1.490 . S
C948 C950 1.395 . S
C948 C951 1.403 . S
H949 C955 0.930 . S
C950 H936 0.930 . S
C950 C948 1.395 . S
C950 C953 1.403 . S
C951 C948 1.403 . S
C951 C952 1.524 . S
C951 C955 1.400 . S
C952 H937 0.960 . S
C952 H938 0.960 . S
C952 H939 0.960 . S
C952 C951 1.524 . S
C953 C950 1.403 . S
C953 C954 1.392 . S
C953 C957 1.495 . S
C954 C953 1.392 . S
C954 C955 1.385 . S
C954 C956 1.478 . S
C955 H949 0.930 . S
C955 C951 1.400 . S
C955 C954 1.385 . S
C956 C954 1.478 . S
C956 C958 1.381 . S
C956 C962 1.383 . S
C957 C953 1.495 . S
C957 H963 0.959 . S
C957 H964 0.961 . S
C957 H965 0.960 . S
C958 C956 1.381 . S
C958 C959 1.394 . S
C958 H966 0.930 . S
C959 C958 1.394 . S
C959 C960 1.383 . S
C959 H967 0.929 . S
C960 C959 1.383 . S
C960 C961 1.377 1_554 S
C961 H945 0.930 . S
C961 C960 1.377 1_556 S
C961 C962 1.379 1_556 S
C962 H946 0.931 1_554 S
C962 C956 1.383 . S
C962 C961 1.379 1_554 S
H963 C957 0.959 . S
H964 C957 0.961 . S
H965 C957 0.960 . S
H966 C958 0.930 . S
H967 C959 0.929 . S
H968 C976 0.929 . S
H969 C978 0.930 . S
H970 C980 0.930 . S
H971 C983 0.929 . S
H972 C986 0.930 . S
H973 C988 0.960 . S
H974 C988 0.960 . S
H975 C988 0.960 . S
C976 H968 0.929 . S
C976 C977 1.377 . S
C976 C978 1.384 . S
C977 C976 1.377 . S
C977 C983 1.390 . S
C978 H969 0.930 . S
C978 C976 1.384 . S
C978 C979 1.372 . S
C979 C978 1.372 . S
C979 C980 1.400 . S
C979 C984 1.490 . S
C980 H970 0.930 . S
C980 C979 1.400 . S
C980 C983 1.386 . S
H981 C997 0.930 . S
H982 C998 0.931 . S
C983 H971 0.929 . S
C983 C977 1.390 . S
C983 C980 1.386 . S
C984 C979 1.490 . S
C984 C986 1.395 . S
C984 C987 1.403 . S
H985 C991 0.930 . S
C986 H972 0.930 . S
C986 C984 1.395 . S
C986 C989 1.403 . S
C987 C984 1.403 . S
C987 C988 1.524 . S
C987 C991 1.400 . S
C988 H973 0.960 . S
C988 H974 0.960 . S
C988 H975 0.960 . S
C988 C987 1.524 . S
C989 C986 1.403 . S
C989 C990 1.392 . S
C989 C993 1.495 . S
C990 C989 1.392 . S
C990 C991 1.385 . S
C990 C992 1.478 . S
C991 H985 0.930 . S
C991 C987 1.400 . S
C991 C990 1.385 . S
C992 C990 1.478 . S
C992 C994 1.381 . S
C992 C998 1.383 . S
C993 C989 1.495 . S
C993 H999 0.959 . S
C993 H1000 0.961 . S
C993 H1001 0.960 . S
C994 C992 1.381 . S
C994 C995 1.394 . S
C994 H1002 0.930 . S
C995 C994 1.394 . S
C995 C996 1.383 . S
C995 H1003 0.929 . S
C996 C995 1.383 . S
C996 C997 1.377 . S
C997 H981 0.930 . S
C997 C996 1.377 . S
C997 C998 1.379 . S
C998 H982 0.931 . S
C998 C992 1.383 . S
C998 C997 1.379 . S
H999 C993 0.959 . S
H1000 C993 0.961 . S
H1001 C993 0.960 . S
H1002 C994 0.930 . S
H1003 C995 0.929 . S
H1004 C1012 0.929 . S
H1005 C1014 0.930 . S
H1006 C1016 0.930 . S
H1007 C1019 0.929 . S
H1008 C1022 0.930 . S
H1009 C1024 0.960 . S
H1010 C1024 0.960 . S
H1011 C1024 0.960 . S
C1012 H1004 0.929 . S
C1012 C1013 1.377 . S
C1012 C1014 1.384 . S
C1013 C1012 1.377 . S
C1013 C1019 1.390 . S
C1014 H1005 0.930 . S
C1014 C1012 1.384 . S
C1014 C1015 1.372 . S
C1015 C1014 1.372 . S
C1015 C1016 1.400 . S
C1015 C1020 1.490 . S
C1016 H1006 0.930 . S
C1016 C1015 1.400 . S
C1016 C1019 1.386 . S
H1017 C1033 0.930 . S
H1018 C1034 0.931 . S
C1019 H1007 0.929 . S
C1019 C1013 1.390 . S
C1019 C1016 1.386 . S
C1020 C1015 1.490 . S
C1020 C1022 1.395 . S
C1020 C1023 1.403 . S
H1021 C1027 0.930 . S
C1022 H1008 0.930 . S
C1022 C1020 1.395 . S
C1022 C1025 1.403 . S
C1023 C1020 1.403 . S
C1023 C1024 1.524 . S
C1023 C1027 1.400 . S
C1024 H1009 0.960 . S
C1024 H1010 0.960 . S
C1024 H1011 0.960 . S
C1024 C1023 1.524 . S
C1025 C1022 1.403 . S
C1025 C1026 1.392 . S
C1025 C1029 1.495 . S
C1026 C1025 1.392 . S
C1026 C1027 1.385 . S
C1026 C1028 1.478 . S
C1027 H1021 0.930 . S
C1027 C1023 1.400 . S
C1027 C1026 1.385 . S
C1028 C1026 1.478 . S
C1028 C1030 1.381 . S
C1028 C1034 1.383 . S
C1029 C1025 1.495 . S
C1029 H1035 0.959 . S
C1029 H1036 0.961 . S
C1029 H1037 0.960 . S
C1030 C1028 1.381 . S
C1030 C1031 1.394 . S
C1030 H1038 0.930 . S
C1031 C1030 1.394 . S
C1031 C1032 1.383 . S
C1031 H1039 0.929 . S
C1032 C1031 1.383 . S
C1032 C1033 1.377 . S
C1033 H1017 0.930 . S
C1033 C1032 1.377 . S
C1033 C1034 1.379 . S
C1034 H1018 0.931 . S
C1034 C1028 1.383 . S
C1034 C1033 1.379 . S
H1035 C1029 0.959 . S
H1036 C1029 0.961 . S
H1037 C1029 0.960 . S
H1038 C1030 0.930 . S
H1039 C1031 0.929 . S
H1040 C1048 0.929 . S
H1041 C1050 0.930 . S
H1042 C1052 0.930 . S
H1043 C1055 0.929 . S
H1044 C1058 0.930 . S
H1045 C1060 0.960 . S
H1046 C1060 0.960 . S
H1047 C1060 0.960 . S
C1048 H1040 0.929 . S
C1048 C1049 1.377 . S
C1048 C1050 1.384 . S
C1049 C1048 1.377 . S
C1049 C1055 1.390 . S
C1050 H1041 0.930 . S
C1050 C1048 1.384 . S
C1050 C1051 1.372 . S
C1051 C1050 1.372 . S
C1051 C1052 1.400 . S
C1051 C1056 1.490 . S
C1052 H1042 0.930 . S
C1052 C1051 1.400 . S
C1052 C1055 1.386 . S
H1053 C1069 0.930 . S
H1054 C1070 0.931 . S
C1055 H1043 0.929 . S
C1055 C1049 1.390 . S
C1055 C1052 1.386 . S
C1056 C1051 1.490 . S
C1056 C1058 1.395 . S
C1056 C1059 1.403 . S
H1057 C1063 0.930 . S
C1058 H1044 0.930 . S
C1058 C1056 1.395 . S
C1058 C1061 1.403 . S
C1059 C1056 1.403 . S
C1059 C1060 1.524 . S
C1059 C1063 1.400 . S
C1060 H1045 0.960 . S
C1060 H1046 0.960 . S
C1060 H1047 0.960 . S
C1060 C1059 1.524 . S
C1061 C1058 1.403 . S
C1061 C1062 1.392 . S
C1061 C1065 1.495 . S
C1062 C1061 1.392 . S
C1062 C1063 1.385 . S
C1062 C1064 1.478 . S
C1063 H1057 0.930 . S
C1063 C1059 1.400 . S
C1063 C1062 1.385 . S
C1064 C1062 1.478 . S
C1064 C1066 1.381 . S
C1064 C1070 1.383 . S
C1065 C1061 1.495 . S
C1065 H1071 0.959 . S
C1065 H1072 0.961 . S
C1065 H1073 0.960 . S
C1066 C1064 1.381 . S
C1066 C1067 1.394 . S
C1066 H1074 0.930 . S
C1067 C1066 1.394 . S
C1067 C1068 1.383 . S
C1067 H1075 0.929 . S
C1068 C1067 1.383 . S
C1068 C1069 1.377 . S
C1069 H1053 0.930 . S
C1069 C1068 1.377 . S
C1069 C1070 1.379 . S
C1070 H1054 0.931 . S
C1070 C1064 1.383 . S
C1070 C1069 1.379 . S
H1071 C1065 0.959 . S
H1072 C1065 0.961 . S
H1073 C1065 0.960 . S
H1074 C1066 0.930 . S
H1075 C1067 0.929 . S
H1076 C1084 0.929 . S
H1077 C1086 0.930 . S
H1078 C1088 0.930 . S
H1079 C1091 0.929 . S
H1080 C1094 0.930 . S
H1081 C1096 0.960 . S
H1082 C1096 0.960 . S
H1083 C1096 0.960 . S
C1084 H1076 0.929 . S
C1084 C1085 1.377 . S
C1084 C1086 1.384 . S
C1085 C1084 1.377 . S
C1085 C1091 1.390 . S
C1086 H1077 0.930 . S
C1086 C1084 1.384 . S
C1086 C1087 1.372 . S
C1087 C1086 1.372 . S
C1087 C1088 1.400 . S
C1087 C1092 1.490 . S
C1088 H1078 0.930 . S
C1088 C1087 1.400 . S
C1088 C1091 1.386 . S
H1089 C1105 0.930 . S
H1090 C1106 0.931 . S
C1091 H1079 0.929 . S
C1091 C1085 1.390 . S
C1091 C1088 1.386 . S
C1092 C1087 1.490 . S
C1092 C1094 1.395 . S
C1092 C1095 1.403 . S
H1093 C1099 0.930 . S
C1094 H1080 0.930 . S
C1094 C1092 1.395 . S
C1094 C1097 1.403 . S
C1095 C1092 1.403 . S
C1095 C1096 1.524 . S
C1095 C1099 1.400 . S
C1096 H1081 0.960 . S
C1096 H1082 0.960 . S
C1096 H1083 0.960 . S
C1096 C1095 1.524 . S
C1097 C1094 1.403 . S
C1097 C1098 1.392 . S
C1097 C1101 1.495 . S
C1098 C1097 1.392 . S
C1098 C1099 1.385 . S
C1098 C1100 1.478 . S
C1099 H1093 0.930 . S
C1099 C1095 1.400 . S
C1099 C1098 1.385 . S
C1100 C1098 1.478 . S
C1100 C1102 1.381 . S
C1100 C1106 1.383 . S
C1101 C1097 1.495 . S
C1101 H1107 0.959 . S
C1101 H1108 0.961 . S
C1101 H1109 0.960 . S
C1102 C1100 1.381 . S
C1102 C1103 1.394 . S
C1102 H1110 0.930 . S
C1103 C1102 1.394 . S
C1103 C1104 1.383 . S
C1103 H1111 0.929 . S
C1104 C1103 1.383 . S
C1104 C1105 1.377 . S
C1105 H1089 0.930 . S
C1105 C1104 1.377 . S
C1105 C1106 1.379 . S
C1106 H1090 0.931 . S
C1106 C1100 1.383 . S
C1106 C1105 1.379 . S
H1107 C1101 0.959 . S
H1108 C1101 0.961 . S
H1109 C1101 0.960 . S
H1110 C1102 0.930 . S
H1111 C1103 0.929 . S
H1112 C1120 0.929 . S
H1113 C1122 0.898 1_554 S
H1114 C1124 0.930 . S
H1115 C1127 0.929 . S
H1116 C1130 0.930 . S
H1117 C1132 0.960 . S
H1118 C1132 0.960 . S
H1119 C1132 0.960 . S
C1120 H1112 0.929 . S
C1120 C1121 1.377 . S
C1120 C1122 1.384 . S
C1121 C1120 1.377 . S
C1121 C1127 1.390 . S
C1122 H1113 0.898 1_556 S
C1122 C1120 1.384 . S
C1122 C1123 1.372 . S
C1123 C1122 1.372 . S
C1123 C1124 1.400 . S
C1123 C1128 1.490 . S
C1124 H1114 0.930 . S
C1124 C1123 1.400 . S
C1124 C1127 1.386 . S
H1125 C1141 0.930 . S
H1126 C1142 0.931 . S
C1127 H1115 0.929 . S
C1127 C1121 1.390 . S
C1127 C1124 1.386 . S
C1128 C1123 1.490 . S
C1128 C1130 1.395 1_556 S
C1128 C1131 1.403 . S
H1129 C1135 0.930 . S
C1130 H1116 0.930 . S
C1130 C1128 1.395 1_554 S
C1130 C1133 1.403 . S
C1131 C1128 1.403 . S
C1131 C1132 1.524 . S
C1131 C1135 1.400 . S
C1132 H1117 0.960 . S
C1132 H1118 0.960 . S
C1132 H1119 0.960 . S
C1132 C1131 1.524 . S
C1133 C1130 1.403 . S
C1133 C1134 1.392 1_554 S
C1133 C1137 1.495 . S
C1134 C1133 1.392 1_556 S
C1134 C1135 1.385 . S
C1134 C1136 1.484 . S
C1135 H1129 0.930 . S
C1135 C1131 1.400 . S
C1135 C1134 1.385 . S
C1136 C1134 1.484 . S
C1136 C1138 1.366 1_556 S
C1136 C1142 1.396 . S
C1137 C1133 1.495 . S
C1137 H1143 0.959 . S
C1137 H1144 0.961 . S
C1137 H1145 0.960 . S
C1138 C1136 1.366 1_554 S
C1138 C1139 1.394 . S
C1138 H1146 0.930 . S
C1139 C1138 1.394 . S
C1139 C1140 1.384 1_554 S
C1139 H1147 0.929 . S
C1140 C1139 1.384 1_556 S
C1140 C1141 1.376 . S
C1141 H1125 0.930 . S
C1141 C1140 1.376 . S
C1141 C1142 1.379 . S
C1142 H1126 0.931 . S
C1142 C1136 1.396 . S
C1142 C1141 1.379 . S
H1143 C1137 0.959 . S
H1144 C1137 0.961 . S
H1145 C1137 0.960 . S
H1146 C1138 0.930 . S
H1147 C1139 0.929 . S
H1148 C1156 0.929 . S
H1149 C1158 0.930 . S
H1150 C1160 0.930 . S
H1151 C1163 0.929 . S
H1152 C1166 0.930 . S
H1153 C1168 0.960 . S
H1154 C1168 0.960 . S
H1155 C1168 0.960 . S
C1156 H1148 0.929 . S
C1156 C1157 1.377 . S
C1156 C1158 1.384 . S
C1157 C1156 1.377 . S
C1157 C1163 1.390 . S
C1158 H1149 0.930 . S
C1158 C1156 1.384 . S
C1158 C1159 1.372 . S
C1159 C1158 1.372 . S
C1159 C1160 1.400 . S
C1159 C1164 1.490 . S
C1160 H1150 0.930 . S
C1160 C1159 1.400 . S
C1160 C1163 1.386 . S
H1161 C1177 0.930 . S
H1162 C1178 0.931 . S
C1163 H1151 0.929 . S
C1163 C1157 1.390 . S
C1163 C1160 1.386 . S
C1164 C1159 1.490 . S
C1164 C1166 1.395 . S
C1164 C1167 1.403 . S
H1165 C1171 0.930 . S
C1166 H1152 0.930 . S
C1166 C1164 1.395 . S
C1166 C1169 1.403 . S
C1167 C1164 1.403 . S
C1167 C1168 1.524 . S
C1167 C1171 1.400 . S
C1168 H1153 0.960 . S
C1168 H1154 0.960 . S
C1168 H1155 0.960 . S
C1168 C1167 1.524 . S
C1169 C1166 1.403 . S
C1169 C1170 1.392 . S
C1169 C1173 1.495 . S
C1170 C1169 1.392 . S
C1170 C1171 1.385 . S
C1170 C1172 1.478 . S
C1171 H1165 0.930 . S
C1171 C1167 1.400 . S
C1171 C1170 1.385 . S
C1172 C1170 1.478 . S
C1172 C1174 1.381 . S
C1172 C1178 1.383 . S
C1173 C1169 1.495 . S
C1173 H1179 0.959 . S
C1173 H1180 0.961 . S
C1173 H1181 0.960 . S
C1174 C1172 1.381 . S
C1174 C1175 1.394 . S
C1174 H1182 0.930 . S
C1175 C1174 1.394 . S
C1175 C1176 1.383 . S
C1175 H1183 0.929 . S
C1176 C1175 1.383 . S
C1176 C1177 1.377 . S
C1177 H1161 0.930 . S
C1177 C1176 1.377 . S
C1177 C1178 1.379 . S
C1178 H1162 0.931 . S
C1178 C1172 1.383 . S
C1178 C1177 1.379 . S
H1179 C1173 0.959 . S
H1180 C1173 0.961 . S
H1181 C1173 0.960 . S
H1182 C1174 0.930 . S
H1183 C1175 0.929 . S
H1184 C1192 0.929 . S
H1185 C1194 0.930 . S
H1186 C1196 0.930 . S
H1187 C1199 0.929 . S
H1188 C1202 0.930 . S
H1189 C1204 0.960 . S
H1190 C1204 0.960 . S
H1191 C1204 0.960 . S
C1192 H1184 0.929 . S
C1192 C1193 1.377 . S
C1192 C1194 1.384 . S
C1193 C1192 1.377 . S
C1193 C1199 1.390 . S
C1194 H1185 0.930 . S
C1194 C1192 1.384 . S
C1194 C1195 1.372 . S
C1195 C1194 1.372 . S
C1195 C1196 1.400 . S
C1195 C1200 1.490 . S
C1196 H1186 0.930 . S
C1196 C1195 1.400 . S
C1196 C1199 1.386 . S
H1197 C1213 0.930 . S
H1198 C1214 0.931 . S
C1199 H1187 0.929 . S
C1199 C1193 1.390 . S
C1199 C1196 1.386 . S
C1200 C1195 1.490 . S
C1200 C1202 1.395 . S
C1200 C1203 1.403 . S
H1201 C1207 0.930 . S
C1202 H1188 0.930 . S
C1202 C1200 1.395 . S
C1202 C1205 1.403 . S
C1203 C1200 1.403 . S
C1203 C1204 1.524 . S
C1203 C1207 1.400 . S
C1204 H1189 0.960 . S
C1204 H1190 0.960 . S
C1204 H1191 0.960 . S
C1204 C1203 1.524 . S
C1205 C1202 1.403 . S
C1205 C1206 1.392 . S
C1205 C1209 1.495 . S
C1206 C1205 1.392 . S
C1206 C1207 1.385 . S
C1206 C1208 1.478 . S
C1207 H1201 0.930 . S
C1207 C1203 1.400 . S
C1207 C1206 1.385 . S
C1208 C1206 1.478 . S
C1208 C1210 1.381 . S
C1208 C1214 1.383 . S
C1209 C1205 1.495 . S
C1209 H1215 0.959 . S
C1209 H1216 0.961 . S
C1209 H1217 0.960 . S
C1210 C1208 1.381 . S
C1210 C1211 1.394 . S
C1210 H1218 0.930 . S
C1211 C1210 1.394 . S
C1211 C1212 1.383 . S
C1211 H1219 0.929 . S
C1212 C1211 1.383 . S
C1212 C1213 1.377 . S
C1213 H1197 0.930 . S
C1213 C1212 1.377 . S
C1213 C1214 1.379 . S
C1214 H1198 0.931 . S
C1214 C1208 1.383 . S
C1214 C1213 1.379 . S
H1215 C1209 0.959 . S
H1216 C1209 0.961 . S
H1217 C1209 0.960 . S
H1218 C1210 0.930 . S
H1219 C1211 0.929 . S
H1220 C1228 0.929 . S
H1221 C1230 0.930 . S
H1222 C1232 0.930 . S
H1223 C1235 0.929 . S
H1224 C1238 0.930 . S
H1225 C1240 0.960 . S
H1226 C1240 0.960 . S
H1227 C1240 0.960 . S
C1228 H1220 0.929 . S
C1228 C1229 1.377 . S
C1228 C1230 1.384 . S
C1229 C1228 1.377 . S
C1229 C1235 1.390 . S
C1230 H1221 0.930 . S
C1230 C1228 1.384 . S
C1230 C1231 1.372 . S
C1231 C1230 1.372 . S
C1231 C1232 1.400 . S
C1231 C1236 1.490 . S
C1232 H1222 0.930 . S
C1232 C1231 1.400 . S
C1232 C1235 1.386 . S
H1233 C1249 0.930 . S
H1234 C1250 0.931 . S
C1235 H1223 0.929 . S
C1235 C1229 1.390 . S
C1235 C1232 1.386 . S
C1236 C1231 1.490 . S
C1236 C1238 1.395 . S
C1236 C1239 1.403 . S
H1237 C1243 0.930 . S
C1238 H1224 0.930 . S
C1238 C1236 1.395 . S
C1238 C1241 1.403 . S
C1239 C1236 1.403 . S
C1239 C1240 1.524 . S
C1239 C1243 1.400 . S
C1240 H1225 0.960 . S
C1240 H1226 0.960 . S
C1240 H1227 0.960 . S
C1240 C1239 1.524 . S
C1241 C1238 1.403 . S
C1241 C1242 1.392 . S
C1241 C1245 1.495 . S
C1242 C1241 1.392 . S
C1242 C1243 1.385 . S
C1242 C1244 1.478 . S
C1243 H1237 0.930 . S
C1243 C1239 1.400 . S
C1243 C1242 1.385 . S
C1244 C1242 1.478 . S
C1244 C1246 1.381 . S
C1244 C1250 1.383 . S
C1245 C1241 1.495 . S
C1245 H1251 0.959 . S
C1245 H1252 0.961 . S
C1245 H1253 0.960 . S
C1246 C1244 1.381 . S
C1246 C1247 1.394 . S
C1246 H1254 0.930 . S
C1247 C1246 1.394 . S
C1247 C1248 1.383 . S
C1247 H1255 0.929 . S
C1248 C1247 1.383 . S
C1248 C1249 1.377 . S
C1249 H1233 0.930 . S
C1249 C1248 1.377 . S
C1249 C1250 1.379 . S
C1250 H1234 0.931 . S
C1250 C1244 1.383 . S
C1250 C1249 1.379 . S
H1251 C1245 0.959 . S
H1252 C1245 0.961 . S
H1253 C1245 0.960 . S
H1254 C1246 0.930 . S
H1255 C1247 0.929 . S
H1256 C1264 0.929 . S
H1257 C1266 0.930 . S
H1258 C1268 0.930 . S
H1259 C1271 0.929 . S
H1260 C1274 0.930 . S
H1261 C1276 0.960 . S
H1262 C1276 0.960 . S
H1263 C1276 0.960 . S
C1264 H1256 0.929 . S
C1264 C1265 1.377 . S
C1264 C1266 1.384 . S
C1265 C1264 1.377 . S
C1265 C1271 1.390 . S
C1266 H1257 0.930 . S
C1266 C1264 1.384 . S
C1266 C1267 1.372 . S
C1267 C1266 1.372 . S
C1267 C1268 1.400 . S
C1267 C1272 1.490 . S
C1268 H1258 0.930 . S
C1268 C1267 1.400 . S
C1268 C1271 1.386 . S
H1269 C1285 0.930 . S
H1270 C1286 0.931 . S
C1271 H1259 0.929 . S
C1271 C1265 1.390 . S
C1271 C1268 1.386 . S
C1272 C1267 1.490 . S
C1272 C1274 1.395 . S
C1272 C1275 1.403 . S
H1273 C1279 0.930 . S
C1274 H1260 0.930 . S
C1274 C1272 1.395 . S
C1274 C1277 1.403 . S
C1275 C1272 1.403 . S
C1275 C1276 1.524 . S
C1275 C1279 1.400 . S
C1276 H1261 0.960 . S
C1276 H1262 0.960 . S
C1276 H1263 0.960 . S
C1276 C1275 1.524 . S
C1277 C1274 1.403 . S
C1277 C1278 1.392 . S
C1277 C1281 1.495 . S
C1278 C1277 1.392 . S
C1278 C1279 1.385 . S
C1278 C1280 1.478 . S
C1279 H1273 0.930 . S
C1279 C1275 1.400 . S
C1279 C1278 1.385 . S
C1280 C1278 1.478 . S
C1280 C1282 1.381 . S
C1280 C1286 1.383 . S
C1281 C1277 1.495 . S
C1281 H1287 0.959 . S
C1281 H1288 0.961 . S
C1281 H1289 0.960 . S
C1282 C1280 1.381 . S
C1282 C1283 1.394 . S
C1282 H1290 0.930 . S
C1283 C1282 1.394 . S
C1283 C1284 1.383 . S
C1283 H1291 0.929 . S
C1284 C1283 1.383 . S
C1284 C1285 1.377 . S
C1285 H1269 0.930 . S
C1285 C1284 1.377 . S
C1285 C1286 1.379 . S
C1286 H1270 0.931 . S
C1286 C1280 1.383 . S
C1286 C1285 1.379 . S
H1287 C1281 0.959 . S
H1288 C1281 0.961 . S
H1289 C1281 0.960 . S
H1290 C1282 0.930 . S
H1291 C1283 0.929 . S
H1292 C1300 0.929 . S
H1293 C1302 0.930 . S
H1294 C1304 0.930 . S
H1295 C1307 0.929 . S
H1296 C1310 0.930 . S
H1297 C1312 0.960 . S
H1298 C1312 0.960 . S
H1299 C1312 0.960 . S
C1300 H1292 0.929 . S
C1300 C1301 1.377 . S
C1300 C1302 1.384 . S
C1301 C1300 1.377 . S
C1301 C1307 1.390 . S
C1302 H1293 0.930 . S
C1302 C1300 1.384 . S
C1302 C1303 1.372 . S
C1303 C1302 1.372 . S
C1303 C1304 1.400 . S
C1303 C1308 1.490 . S
C1304 H1294 0.930 . S
C1304 C1303 1.400 . S
C1304 C1307 1.386 . S
H1305 C1321 0.930 . S
H1306 C1322 0.931 . S
C1307 H1295 0.929 . S
C1307 C1301 1.390 . S
C1307 C1304 1.386 . S
C1308 C1303 1.490 . S
C1308 C1310 1.395 . S
C1308 C1311 1.403 . S
H1309 C1315 0.930 . S
C1310 H1296 0.930 . S
C1310 C1308 1.395 . S
C1310 C1313 1.403 . S
C1311 C1308 1.403 . S
C1311 C1312 1.524 . S
C1311 C1315 1.400 . S
C1312 H1297 0.960 . S
C1312 H1298 0.960 . S
C1312 H1299 0.960 . S
C1312 C1311 1.524 . S
C1313 C1310 1.403 . S
C1313 C1314 1.392 . S
C1313 C1317 1.495 . S
C1314 C1313 1.392 . S
C1314 C1315 1.385 . S
C1314 C1316 1.478 . S
C1315 H1309 0.930 . S
C1315 C1311 1.400 . S
C1315 C1314 1.385 . S
C1316 C1314 1.478 . S
C1316 C1318 1.381 . S
C1316 C1322 1.383 . S
C1317 C1313 1.495 . S
C1317 H1323 0.959 . S
C1317 H1324 0.961 . S
C1317 H1325 0.960 . S
C1318 C1316 1.381 . S
C1318 C1319 1.394 . S
C1318 H1326 0.930 . S
C1319 C1318 1.394 . S
C1319 C1320 1.383 . S
C1319 H1327 0.929 . S
C1320 C1319 1.383 . S
C1320 C1321 1.377 . S
C1321 H1305 0.930 . S
C1321 C1320 1.377 . S
C1321 C1322 1.379 . S
C1322 H1306 0.931 . S
C1322 C1316 1.383 . S
C1322 C1321 1.379 . S
H1323 C1317 0.959 . S
H1324 C1317 0.961 . S
H1325 C1317 0.960 . S
H1326 C1318 0.930 . S
H1327 C1319 0.929 . S
H1328 C1336 0.929 . S
H1329 C1338 0.930 . S
H1330 C1340 0.930 . S
H1331 C1343 0.929 . S
H1332 C1346 0.930 . S
H1333 C1348 0.960 . S
H1334 C1348 0.960 . S
H1335 C1348 0.960 . S
C1336 H1328 0.929 . S
C1336 C1337 1.377 . S
C1336 C1338 1.384 . S
C1337 C1336 1.377 . S
C1337 C1343 1.390 . S
C1338 H1329 0.930 . S
C1338 C1336 1.384 . S
C1338 C1339 1.372 . S
C1339 C1338 1.372 . S
C1339 C1340 1.400 . S
C1339 C1344 1.490 . S
C1340 H1330 0.930 . S
C1340 C1339 1.400 . S
C1340 C1343 1.386 . S
H1341 C1357 0.930 . S
H1342 C1358 0.931 . S
C1343 H1331 0.929 . S
C1343 C1337 1.390 . S
C1343 C1340 1.386 . S
C1344 C1339 1.490 . S
C1344 C1346 1.395 . S
C1344 C1347 1.403 . S
H1345 C1351 0.930 . S
C1346 H1332 0.930 . S
C1346 C1344 1.395 . S
C1346 C1349 1.403 . S
C1347 C1344 1.403 . S
C1347 C1348 1.524 . S
C1347 C1351 1.400 . S
C1348 H1333 0.960 . S
C1348 H1334 0.960 . S
C1348 H1335 0.960 . S
C1348 C1347 1.524 . S
C1349 C1346 1.403 . S
C1349 C1350 1.392 . S
C1349 C1353 1.495 . S
C1350 C1349 1.392 . S
C1350 C1351 1.385 . S
C1350 C1352 1.478 . S
C1351 H1345 0.930 . S
C1351 C1347 1.400 . S
C1351 C1350 1.385 . S
C1352 C1350 1.478 . S
C1352 C1354 1.381 . S
C1352 C1358 1.383 . S
C1353 C1349 1.495 . S
C1353 H1359 0.959 . S
C1353 H1360 0.961 . S
C1353 H1361 0.960 . S
C1354 C1352 1.381 . S
C1354 C1355 1.394 . S
C1354 H1362 0.930 . S
C1355 C1354 1.394 . S
C1355 C1356 1.383 . S
C1355 H1363 0.929 . S
C1356 C1355 1.383 . S
C1356 C1357 1.377 . S
C1357 H1341 0.930 . S
C1357 C1356 1.377 . S
C1357 C1358 1.379 . S
C1358 H1342 0.931 . S
C1358 C1352 1.383 . S
C1358 C1357 1.379 . S
H1359 C1353 0.959 . S
H1360 C1353 0.961 . S
H1361 C1353 0.960 . S
H1362 C1354 0.930 . S
H1363 C1355 0.929 . S
H1364 C1372 0.929 . S
H1365 C1374 0.930 . S
H1366 C1376 0.930 . S
H1367 C1379 0.929 . S
H1368 C1382 0.930 . S
H1369 C1384 0.960 . S
H1370 C1384 0.960 . S
H1371 C1384 0.960 . S
C1372 H1364 0.929 . S
C1372 C1373 1.377 . S
C1372 C1374 1.384 . S
C1373 C1372 1.377 . S
C1373 C1379 1.390 . S
C1374 H1365 0.930 . S
C1374 C1372 1.384 . S
C1374 C1375 1.372 . S
C1375 C1374 1.372 . S
C1375 C1376 1.400 . S
C1375 C1380 1.490 . S
C1376 H1366 0.930 . S
C1376 C1375 1.400 . S
C1376 C1379 1.386 . S
H1377 C1393 0.930 . S
H1378 C1394 0.931 . S
C1379 H1367 0.929 . S
C1379 C1373 1.390 . S
C1379 C1376 1.386 . S
C1380 C1375 1.490 . S
C1380 C1382 1.395 . S
C1380 C1383 1.403 . S
H1381 C1387 0.930 . S
C1382 H1368 0.930 . S
C1382 C1380 1.395 . S
C1382 C1385 1.403 . S
C1383 C1380 1.403 . S
C1383 C1384 1.524 . S
C1383 C1387 1.400 . S
C1384 H1369 0.960 . S
C1384 H1370 0.960 . S
C1384 H1371 0.960 . S
C1384 C1383 1.524 . S
C1385 C1382 1.403 . S
C1385 C1386 1.392 . S
C1385 C1389 1.495 . S
C1386 C1385 1.392 . S
C1386 C1387 1.385 . S
C1386 C1388 1.478 . S
C1387 H1381 0.930 . S
C1387 C1383 1.400 . S
C1387 C1386 1.385 . S
C1388 C1386 1.478 . S
C1388 C1390 1.381 . S
C1388 C1394 1.383 . S
C1389 C1385 1.495 . S
C1389 H1395 0.959 . S
C1389 H1396 0.961 . S
C1389 H1397 0.960 . S
C1390 C1388 1.381 . S
C1390 C1391 1.394 . S
C1390 H1398 0.930 . S
C1391 C1390 1.394 . S
C1391 C1392 1.383 . S
C1391 H1399 0.929 . S
C1392 C1391 1.383 . S
C1392 C1393 1.377 . S
C1393 H1377 0.930 . S
C1393 C1392 1.377 . S
C1393 C1394 1.379 . S
C1394 H1378 0.931 . S
C1394 C1388 1.383 . S
C1394 C1393 1.379 . S
H1395 C1389 0.959 . S
H1396 C1389 0.961 . S
H1397 C1389 0.960 . S
H1398 C1390 0.930 . S
H1399 C1391 0.929 . S
H1400 C1408 0.929 . S
H1401 C1410 0.930 . S
H1402 C1412 0.930 . S
H1403 C1415 0.929 . S
H1404 C1418 0.930 . S
H1405 C1420 0.960 . S
H1406 C1420 0.960 . S
H1407 C1420 0.960 . S
C1408 H1400 0.929 . S
C1408 C1409 1.377 . S
C1408 C1410 1.384 . S
C1409 C1408 1.377 . S
C1409 C1415 1.390 . S
C1410 H1401 0.930 . S
C1410 C1408 1.384 . S
C1410 C1411 1.372 . S
C1411 C1410 1.372 . S
C1411 C1412 1.400 . S
C1411 C1416 1.490 . S
C1412 H1402 0.930 . S
C1412 C1411 1.400 . S
C1412 C1415 1.386 . S
H1413 C1429 0.930 . S
H1414 C1430 0.931 . S
C1415 H1403 0.929 . S
C1415 C1409 1.390 . S
C1415 C1412 1.386 . S
C1416 C1411 1.490 . S
C1416 C1418 1.395 . S
C1416 C1419 1.403 . S
H1417 C1423 0.930 . S
C1418 H1404 0.930 . S
C1418 C1416 1.395 . S
C1418 C1421 1.403 . S
C1419 C1416 1.403 . S
C1419 C1420 1.524 . S
C1419 C1423 1.400 . S
C1420 H1405 0.960 . S
C1420 H1406 0.960 . S
C1420 H1407 0.960 . S
C1420 C1419 1.524 . S
C1421 C1418 1.403 . S
C1421 C1422 1.392 . S
C1421 C1425 1.495 . S
C1422 C1421 1.392 . S
C1422 C1423 1.385 . S
C1422 C1424 1.478 . S
C1423 H1417 0.930 . S
C1423 C1419 1.400 . S
C1423 C1422 1.385 . S
C1424 C1422 1.478 . S
C1424 C1426 1.381 . S
C1424 C1430 1.383 . S
C1425 C1421 1.495 . S
C1425 H1431 0.959 . S
C1425 H1432 0.961 . S
C1425 H1433 0.960 . S
C1426 C1424 1.381 . S
C1426 C1427 1.394 . S
C1426 H1434 0.930 . S
C1427 C1426 1.394 . S
C1427 C1428 1.383 . S
C1427 H1435 0.929 . S
C1428 C1427 1.383 . S
C1428 C1429 1.377 . S
C1429 H1413 0.930 . S
C1429 C1428 1.377 . S
C1429 C1430 1.379 . S
C1430 H1414 0.931 . S
C1430 C1424 1.383 . S
C1430 C1429 1.379 . S
H1431 C1425 0.959 . S
H1432 C1425 0.961 . S
H1433 C1425 0.960 . S
H1434 C1426 0.930 . S
H1435 C1427 0.929 . S
H1436 C1444 0.929 . S
H1437 C1446 0.930 . S
H1438 C1448 0.930 . S
H1439 C1451 0.929 . S
H1440 C1454 0.930 . S
H1441 C1456 0.960 . S
H1442 C1456 0.960 . S
H1443 C1456 0.960 . S
C1444 H1436 0.929 . S
C1444 C1445 1.377 . S
C1444 C1446 1.384 . S
C1445 C1444 1.377 . S
C1445 C1451 1.390 . S
C1446 H1437 0.930 . S
C1446 C1444 1.384 . S
C1446 C1447 1.372 . S
C1447 C1446 1.372 . S
C1447 C1448 1.400 . S
C1447 C1452 1.490 . S
C1448 H1438 0.930 . S
C1448 C1447 1.400 . S
C1448 C1451 1.386 . S
H1449 C1465 0.930 . S
H1450 C1466 0.931 . S
C1451 H1439 0.929 . S
C1451 C1445 1.390 . S
C1451 C1448 1.386 . S
C1452 C1447 1.490 . S
C1452 C1454 1.395 . S
C1452 C1455 1.403 . S
H1453 C1459 0.930 . S
C1454 H1440 0.930 . S
C1454 C1452 1.395 . S
C1454 C1457 1.403 . S
C1455 C1452 1.403 . S
C1455 C1456 1.524 . S
C1455 C1459 1.400 . S
C1456 H1441 0.960 . S
C1456 H1442 0.960 . S
C1456 H1443 0.960 . S
C1456 C1455 1.524 . S
C1457 C1454 1.403 . S
C1457 C1458 1.392 . S
C1457 C1461 1.495 . S
C1458 C1457 1.392 . S
C1458 C1459 1.385 . S
C1458 C1460 1.478 . S
C1459 H1453 0.930 . S
C1459 C1455 1.400 . S
C1459 C1458 1.385 . S
C1460 C1458 1.478 . S
C1460 C1462 1.381 . S
C1460 C1466 1.383 . S
C1461 C1457 1.495 . S
C1461 H1467 0.959 . S
C1461 H1468 0.961 . S
C1461 H1469 0.960 . S
C1462 C1460 1.381 . S
C1462 C1463 1.394 . S
C1462 H1470 0.930 . S
C1463 C1462 1.394 . S
C1463 C1464 1.383 . S
C1463 H1471 0.929 . S
C1464 C1463 1.383 . S
C1464 C1465 1.377 . S
C1465 H1449 0.930 . S
C1465 C1464 1.377 . S
C1465 C1466 1.379 . S
C1466 H1450 0.931 . S
C1466 C1460 1.383 . S
C1466 C1465 1.379 . S
H1467 C1461 0.959 . S
H1468 C1461 0.961 . S
H1469 C1461 0.960 . S
H1470 C1462 0.930 . S
H1471 C1463 0.929 . S
H1472 C1480 0.929 . S
H1473 C1482 0.930 . S
H1474 C1484 0.930 . S
H1475 C1487 0.929 . S
H1476 C1490 0.930 . S
H1477 C1492 0.960 . S
H1478 C1492 0.960 . S
H1479 C1492 0.960 . S
C1480 H1472 0.929 . S
C1480 C1481 1.377 . S
C1480 C1482 1.384 . S
C1481 C1480 1.377 . S
C1481 C1487 1.390 . S
C1482 H1473 0.930 . S
C1482 C1480 1.384 . S
C1482 C1483 1.372 . S
C1483 C1482 1.372 . S
C1483 C1484 1.400 . S
C1483 C1488 1.490 . S
C1484 H1474 0.930 . S
C1484 C1483 1.400 . S
C1484 C1487 1.386 . S
H1485 C1501 0.930 . S
H1486 C1502 0.931 . S
C1487 H1475 0.929 . S
C1487 C1481 1.390 . S
C1487 C1484 1.386 . S
C1488 C1483 1.490 . S
C1488 C1490 1.395 . S
C1488 C1491 1.403 . S
H1489 C1495 0.930 . S
C1490 H1476 0.930 . S
C1490 C1488 1.395 . S
C1490 C1493 1.403 . S
C1491 C1488 1.403 . S
C1491 C1492 1.524 . S
C1491 C1495 1.400 . S
C1492 H1477 0.960 . S
C1492 H1478 0.960 . S
C1492 H1479 0.960 . S
C1492 C1491 1.524 . S
C1493 C1490 1.403 . S
C1493 C1494 1.392 . S
C1493 C1497 1.495 . S
C1494 C1493 1.392 . S
C1494 C1495 1.385 . S
C1494 C1496 1.478 . S
C1495 H1489 0.930 . S
C1495 C1491 1.400 . S
C1495 C1494 1.385 . S
C1496 C1494 1.478 . S
C1496 C1498 1.381 . S
C1496 C1502 1.383 . S
C1497 C1493 1.495 . S
C1497 H1503 0.959 . S
C1497 H1504 0.961 . S
C1497 H1505 0.960 . S
C1498 C1496 1.381 . S
C1498 C1499 1.394 . S
C1498 H1506 0.930 . S
C1499 C1498 1.394 . S
C1499 C1500 1.383 . S
C1499 H1507 0.929 . S
C1500 C1499 1.383 . S
C1500 C1501 1.377 . S
C1501 H1485 0.930 . S
C1501 C1500 1.377 . S
C1501 C1502 1.379 . S
C1502 H1486 0.931 . S
C1502 C1496 1.383 . S
C1502 C1501 1.379 . S
H1503 C1497 0.959 . S
H1504 C1497 0.961 . S
H1505 C1497 0.960 . S
H1506 C1498 0.930 . S
H1507 C1499 0.929 . S
H1508 C1516 0.929 . S
H1509 C1518 0.930 . S
H1510 C1520 0.930 . S
H1511 C1523 0.929 . S
H1512 C1526 0.930 . S
H1513 C1528 0.960 . S
H1514 C1528 0.960 . S
H1515 C1528 0.960 . S
C1516 H1508 0.929 . S
C1516 C1517 1.377 . S
C1516 C1518 1.384 . S
C1517 C1516 1.377 . S
C1517 C1523 1.390 . S
C1518 H1509 0.930 . S
C1518 C1516 1.384 . S
C1518 C1519 1.372 . S
C1519 C1518 1.372 . S
C1519 C1520 1.400 . S
C1519 C1524 1.490 . S
C1520 H1510 0.930 . S
C1520 C1519 1.400 . S
C1520 C1523 1.386 . S
H1521 C1537 0.930 . S
H1522 C1538 0.931 . S
C1523 H1511 0.929 . S
C1523 C1517 1.390 . S
C1523 C1520 1.386 . S
C1524 C1519 1.490 . S
C1524 C1526 1.395 . S
C1524 C1527 1.403 . S
H1525 C1531 0.930 . S
C1526 H1512 0.930 . S
C1526 C1524 1.395 . S
C1526 C1529 1.403 . S
C1527 C1524 1.403 . S
C1527 C1528 1.524 . S
C1527 C1531 1.400 . S
C1528 H1513 0.960 . S
C1528 H1514 0.960 . S
C1528 H1515 0.960 . S
C1528 C1527 1.524 . S
C1529 C1526 1.403 . S
C1529 C1530 1.392 . S
C1529 C1533 1.495 . S
C1530 C1529 1.392 . S
C1530 C1531 1.385 . S
C1530 C1532 1.478 . S
C1531 H1525 0.930 . S
C1531 C1527 1.400 . S
C1531 C1530 1.385 . S
C1532 C1530 1.478 . S
C1532 C1534 1.381 . S
C1532 C1538 1.383 . S
C1533 C1529 1.495 . S
C1533 H1539 0.959 . S
C1533 H1540 0.961 . S
C1533 H1541 0.960 . S
C1534 C1532 1.381 . S
C1534 C1535 1.394 . S
C1534 H1542 0.930 . S
C1535 C1534 1.394 . S
C1535 C1536 1.383 . S
C1535 H1543 0.929 . S
C1536 C1535 1.383 . S
C1536 C1537 1.377 . S
C1537 H1521 0.930 . S
C1537 C1536 1.377 . S
C1537 C1538 1.379 . S
C1538 H1522 0.931 . S
C1538 C1532 1.383 . S
C1538 C1537 1.379 . S
H1539 C1533 0.959 . S
H1540 C1533 0.961 . S
H1541 C1533 0.960 . S
H1542 C1534 0.930 . S
H1543 C1535 0.929 . S
H1544 C1552 0.929 . S
H1545 C1554 0.930 . S
H1546 C1556 0.930 . S
H1547 C1559 0.929 . S
H1548 C1562 0.930 . S
H1549 C1564 0.960 . S
H1550 C1564 0.960 . S
H1551 C1564 0.960 . S
C1552 H1544 0.929 . S
C1552 C1553 1.377 . S
C1552 C1554 1.384 . S
C1553 C1552 1.377 . S
C1553 C1559 1.390 . S
C1554 H1545 0.930 . S
C1554 C1552 1.384 . S
C1554 C1555 1.372 . S
C1555 C1554 1.372 . S
C1555 C1556 1.400 . S
C1555 C1560 1.490 . S
C1556 H1546 0.930 . S
C1556 C1555 1.400 . S
C1556 C1559 1.386 . S
H1557 C1573 0.930 . S
H1558 C1574 0.931 . S
C1559 H1547 0.929 . S
C1559 C1553 1.390 . S
C1559 C1556 1.386 . S
C1560 C1555 1.490 . S
C1560 C1562 1.395 . S
C1560 C1563 1.403 . S
H1561 C1567 0.930 . S
C1562 H1548 0.930 . S
C1562 C1560 1.395 . S
C1562 C1565 1.403 . S
C1563 C1560 1.403 . S
C1563 C1564 1.524 . S
C1563 C1567 1.400 . S
C1564 H1549 0.960 . S
C1564 H1550 0.960 . S
C1564 H1551 0.960 . S
C1564 C1563 1.524 . S
C1565 C1562 1.403 . S
C1565 C1566 1.392 . S
C1565 C1569 1.495 . S
C1566 C1565 1.392 . S
C1566 C1567 1.385 . S
C1566 C1568 1.478 . S
C1567 H1561 0.930 . S
C1567 C1563 1.400 . S
C1567 C1566 1.385 . S
C1568 C1566 1.478 . S
C1568 C1570 1.381 . S
C1568 C1574 1.383 . S
C1569 C1565 1.495 . S
C1569 H1575 0.959 . S
C1569 H1576 0.961 . S
C1569 H1577 0.960 . S
C1570 C1568 1.381 . S
C1570 C1571 1.394 . S
C1570 H1578 0.930 . S
C1571 C1570 1.394 . S
C1571 C1572 1.383 . S
C1571 H1579 0.929 . S
C1572 C1571 1.383 . S
C1572 C1573 1.377 . S
C1573 H1557 0.930 . S
C1573 C1572 1.377 . S
C1573 C1574 1.379 . S
C1574 H1558 0.931 . S
C1574 C1568 1.383 . S
C1574 C1573 1.379 . S
H1575 C1569 0.959 . S
H1576 C1569 0.961 . S
H1577 C1569 0.960 . S
H1578 C1570 0.930 . S
H1579 C1571 0.929 . S
H1580 C1588 0.929 . S
H1581 C1590 0.930 . S
H1582 C1592 0.930 . S
H1583 C1595 0.929 . S
H1584 C1598 0.930 . S
H1585 C1600 0.960 . S
H1586 C1600 0.960 . S
H1587 C1600 0.960 . S
C1588 H1580 0.929 . S
C1588 C1589 1.377 . S
C1588 C1590 1.384 . S
C1589 C1588 1.377 . S
C1589 C1595 1.390 . S
C1590 H1581 0.930 . S
C1590 C1588 1.384 . S
C1590 C1591 1.372 . S
C1591 C1590 1.372 . S
C1591 C1592 1.400 . S
C1591 C1596 1.490 . S
C1592 H1582 0.930 . S
C1592 C1591 1.400 . S
C1592 C1595 1.386 . S
H1593 C1609 0.930 . S
H1594 C1610 0.931 . S
C1595 H1583 0.929 . S
C1595 C1589 1.390 . S
C1595 C1592 1.386 . S
C1596 C1591 1.490 . S
C1596 C1598 1.395 . S
C1596 C1599 1.403 . S
H1597 C1603 0.930 . S
C1598 H1584 0.930 . S
C1598 C1596 1.395 . S
C1598 C1601 1.403 . S
C1599 C1596 1.403 . S
C1599 C1600 1.524 . S
C1599 C1603 1.400 . S
C1600 H1585 0.960 . S
C1600 H1586 0.960 . S
C1600 H1587 0.960 . S
C1600 C1599 1.524 . S
C1601 C1598 1.403 . S
C1601 C1602 1.392 . S
C1601 C1605 1.495 . S
C1602 C1601 1.392 . S
C1602 C1603 1.385 . S
C1602 C1604 1.478 . S
C1603 H1597 0.930 . S
C1603 C1599 1.400 . S
C1603 C1602 1.385 . S
C1604 C1602 1.478 . S
C1604 C1606 1.381 . S
C1604 C1610 1.383 . S
C1605 C1601 1.495 . S
C1605 H1611 0.959 . S
C1605 H1612 0.961 . S
C1605 H1613 0.960 . S
C1606 C1604 1.381 . S
C1606 C1607 1.394 . S
C1606 H1614 0.930 . S
C1607 C1606 1.394 . S
C1607 C1608 1.383 . S
C1607 H1615 0.929 . S
C1608 C1607 1.383 . S
C1608 C1609 1.377 . S
C1609 H1593 0.930 . S
C1609 C1608 1.377 . S
C1609 C1610 1.379 . S
C1610 H1594 0.931 . S
C1610 C1604 1.383 . S
C1610 C1609 1.379 . S
H1611 C1605 0.959 . S
H1612 C1605 0.961 . S
H1613 C1605 0.960 . S
H1614 C1606 0.930 . S
H1615 C1607 0.929 . S
H1616 C1624 0.929 . S
H1617 C1626 0.930 . S
H1618 C1628 0.930 . S
H1619 C1631 0.929 . S
H1620 C1634 0.930 . S
H1621 C1636 0.960 . S
H1622 C1636 0.960 . S
H1623 C1636 0.960 . S
C1624 H1616 0.929 . S
C1624 C1625 1.377 . S
C1624 C1626 1.384 . S
C1625 C1624 1.377 . S
C1625 C1631 1.390 . S
C1626 H1617 0.930 . S
C1626 C1624 1.384 . S
C1626 C1627 1.372 . S
C1627 C1626 1.372 . S
C1627 C1628 1.400 . S
C1627 C1632 1.490 . S
C1628 H1618 0.930 . S
C1628 C1627 1.400 . S
C1628 C1631 1.386 . S
H1629 C1645 0.930 . S
H1630 C1646 0.931 . S
C1631 H1619 0.929 . S
C1631 C1625 1.390 . S
C1631 C1628 1.386 . S
C1632 C1627 1.490 . S
C1632 C1634 1.395 . S
C1632 C1635 1.403 . S
H1633 C1639 0.930 . S
C1634 H1620 0.930 . S
C1634 C1632 1.395 . S
C1634 C1637 1.403 . S
C1635 C1632 1.403 . S
C1635 C1636 1.524 . S
C1635 C1639 1.400 . S
C1636 H1621 0.960 . S
C1636 H1622 0.960 . S
C1636 H1623 0.960 . S
C1636 C1635 1.524 . S
C1637 C1634 1.403 . S
C1637 C1638 1.392 . S
C1637 C1641 1.495 . S
C1638 C1637 1.392 . S
C1638 C1639 1.385 . S
C1638 C1640 1.478 . S
C1639 H1633 0.930 . S
C1639 C1635 1.400 . S
C1639 C1638 1.385 . S
C1640 C1638 1.478 . S
C1640 C1642 1.381 . S
C1640 C1646 1.383 . S
C1641 C1637 1.495 . S
C1641 H1647 0.959 . S
C1641 H1648 0.961 . S
C1641 H1649 0.960 . S
C1642 C1640 1.381 . S
C1642 C1643 1.394 . S
C1642 H1650 0.930 . S
C1643 C1642 1.394 . S
C1643 C1644 1.383 . S
C1643 H1651 0.929 . S
C1644 C1643 1.383 . S
C1644 C1645 1.377 . S
C1645 H1629 0.930 . S
C1645 C1644 1.377 . S
C1645 C1646 1.379 . S
C1646 H1630 0.931 . S
C1646 C1640 1.383 . S
C1646 C1645 1.379 . S
H1647 C1641 0.959 . S
H1648 C1641 0.961 . S
H1649 C1641 0.960 . S
H1650 C1642 0.930 . S
H1651 C1643 0.929 . S
H1652 C1660 0.929 . S
H1653 C1662 0.930 . S
H1654 C1664 0.930 . S
H1655 C1667 0.929 . S
H1656 C1670 0.930 . S
H1657 C1672 0.960 . S
H1658 C1672 0.960 . S
H1659 C1672 0.960 . S
C1660 H1652 0.929 . S
C1660 C1661 1.377 . S
C1660 C1662 1.384 . S
C1661 C1660 1.377 . S
C1661 C1667 1.390 . S
C1662 H1653 0.930 . S
C1662 C1660 1.384 . S
C1662 C1663 1.372 . S
C1663 C1662 1.372 . S
C1663 C1664 1.400 . S
C1663 C1668 1.490 . S
C1664 H1654 0.930 . S
C1664 C1663 1.400 . S
C1664 C1667 1.386 . S
H1665 C1681 0.930 . S
H1666 C1682 0.931 . S
C1667 H1655 0.929 . S
C1667 C1661 1.390 . S
C1667 C1664 1.386 . S
C1668 C1663 1.490 . S
C1668 C1670 1.395 . S
C1668 C1671 1.403 . S
H1669 C1675 0.930 . S
C1670 H1656 0.930 . S
C1670 C1668 1.395 . S
C1670 C1673 1.403 . S
C1671 C1668 1.403 . S
C1671 C1672 1.524 . S
C1671 C1675 1.400 . S
C1672 H1657 0.960 . S
C1672 H1658 0.960 . S
C1672 H1659 0.960 . S
C1672 C1671 1.524 . S
C1673 C1670 1.403 . S
C1673 C1674 1.392 . S
C1673 C1677 1.495 . S
C1674 C1673 1.392 . S
C1674 C1675 1.385 . S
C1674 C1676 1.478 . S
C1675 H1669 0.930 . S
C1675 C1671 1.400 . S
C1675 C1674 1.385 . S
C1676 C1674 1.478 . S
C1676 C1678 1.381 . S
C1676 C1682 1.383 . S
C1677 C1673 1.495 . S
C1677 H1683 0.959 . S
C1677 H1684 0.961 . S
C1677 H1685 0.960 . S
C1678 C1676 1.381 . S
C1678 C1679 1.394 . S
C1678 H1686 0.930 . S
C1679 C1678 1.394 . S
C1679 C1680 1.383 . S
C1679 H1687 0.929 . S
C1680 C1679 1.383 . S
C1680 C1681 1.377 . S
C1681 H1665 0.930 . S
C1681 C1680 1.377 . S
C1681 C1682 1.379 . S
C1682 H1666 0.931 . S
C1682 C1676 1.383 . S
C1682 C1681 1.379 . S
H1683 C1677 0.959 . S
H1684 C1677 0.961 . S
H1685 C1677 0.960 . S
H1686 C1678 0.930 . S
H1687 C1679 0.929 . S
H1688 C1696 0.929 . S
H1689 C1698 0.930 . S
H1690 C1700 0.930 . S
H1691 C1703 0.929 . S
H1692 C1706 0.930 . S
H1693 C1708 0.960 . S
H1694 C1708 0.960 . S
H1695 C1708 0.960 . S
C1696 H1688 0.929 . S
C1696 C1697 1.377 . S
C1696 C1698 1.384 . S
C1697 C1696 1.377 . S
C1697 C1703 1.390 . S
C1698 H1689 0.930 . S
C1698 C1696 1.384 . S
C1698 C1699 1.372 . S
C1699 C1698 1.372 . S
C1699 C1700 1.400 . S
C1699 C1704 1.490 . S
C1700 H1690 0.930 . S
C1700 C1699 1.400 . S
C1700 C1703 1.386 . S
H1701 C1717 0.930 . S
H1702 C1718 0.931 . S
C1703 H1691 0.929 . S
C1703 C1697 1.390 . S
C1703 C1700 1.386 . S
C1704 C1699 1.490 . S
C1704 C1706 1.395 . S
C1704 C1707 1.403 . S
H1705 C1711 0.930 . S
C1706 H1692 0.930 . S
C1706 C1704 1.395 . S
C1706 C1709 1.403 . S
C1707 C1704 1.403 . S
C1707 C1708 1.524 . S
C1707 C1711 1.400 . S
C1708 H1693 0.960 . S
C1708 H1694 0.960 . S
C1708 H1695 0.960 . S
C1708 C1707 1.524 . S
C1709 C1706 1.403 . S
C1709 C1710 1.392 . S
C1709 C1713 1.495 . S
C1710 C1709 1.392 . S
C1710 C1711 1.385 . S
C1710 C1712 1.478 . S
C1711 H1705 0.930 . S
C1711 C1707 1.400 . S
C1711 C1710 1.385 . S
C1712 C1710 1.478 . S
C1712 C1714 1.381 . S
C1712 C1718 1.383 . S
C1713 C1709 1.495 . S
C1713 H1719 0.959 . S
C1713 H1720 0.961 . S
C1713 H1721 0.960 . S
C1714 C1712 1.381 . S
C1714 C1715 1.394 . S
C1714 H1722 0.930 . S
C1715 C1714 1.394 . S
C1715 C1716 1.383 . S
C1715 H1723 0.929 . S
C1716 C1715 1.383 . S
C1716 C1717 1.377 . S
C1717 H1701 0.930 . S
C1717 C1716 1.377 . S
C1717 C1718 1.379 . S
C1718 H1702 0.931 . S
C1718 C1712 1.383 . S
C1718 C1717 1.379 . S
H1719 C1713 0.959 . S
H1720 C1713 0.961 . S
H1721 C1713 0.960 . S
H1722 C1714 0.930 . S
H1723 C1715 0.929 . S
H1724 C1732 0.929 . S
H1725 C1734 0.930 . S
H1726 C1736 0.930 . S
H1727 C1739 0.929 . S
H1728 C1742 0.930 . S
H1729 C1744 0.960 . S
H1730 C1744 0.960 . S
H1731 C1744 0.960 . S
C1732 H1724 0.929 . S
C1732 C1733 1.377 . S
C1732 C1734 1.384 . S
C1733 C1732 1.377 . S
C1733 C1739 1.390 . S
C1734 H1725 0.930 . S
C1734 C1732 1.384 . S
C1734 C1735 1.372 . S
C1735 C1734 1.372 . S
C1735 C1736 1.400 . S
C1735 C1740 1.490 . S
C1736 H1726 0.930 . S
C1736 C1735 1.400 . S
C1736 C1739 1.386 . S
H1737 C1753 0.930 . S
H1738 C1754 0.931 . S
C1739 H1727 0.929 . S
C1739 C1733 1.390 . S
C1739 C1736 1.386 . S
C1740 C1735 1.490 . S
C1740 C1742 1.395 . S
C1740 C1743 1.403 . S
H1741 C1747 0.930 . S
C1742 H1728 0.930 . S
C1742 C1740 1.395 . S
C1742 C1745 1.403 . S
C1743 C1740 1.403 . S
C1743 C1744 1.524 . S
C1743 C1747 1.400 . S
C1744 H1729 0.960 . S
C1744 H1730 0.960 . S
C1744 H1731 0.960 . S
C1744 C1743 1.524 . S
C1745 C1742 1.403 . S
C1745 C1746 1.392 . S
C1745 C1749 1.495 . S
C1746 C1745 1.392 . S
C1746 C1747 1.385 . S
C1746 C1748 1.478 . S
C1747 H1741 0.930 . S
C1747 C1743 1.400 . S
C1747 C1746 1.385 . S
C1748 C1746 1.478 . S
C1748 C1750 1.381 . S
C1748 C1754 1.383 . S
C1749 C1745 1.495 . S
C1749 H1755 0.959 . S
C1749 H1756 0.961 . S
C1749 H1757 0.960 . S
C1750 C1748 1.381 . S
C1750 C1751 1.394 . S
C1750 H1758 0.930 . S
C1751 C1750 1.394 . S
C1751 C1752 1.383 . S
C1751 H1759 0.929 . S
C1752 C1751 1.383 . S
C1752 C1753 1.377 . S
C1753 H1737 0.930 . S
C1753 C1752 1.377 . S
C1753 C1754 1.379 . S
C1754 H1738 0.931 . S
C1754 C1748 1.383 . S
C1754 C1753 1.379 . S
H1755 C1749 0.959 . S
H1756 C1749 0.961 . S
H1757 C1749 0.960 . S
H1758 C1750 0.930 . S
H1759 C1751 0.929 . S
C636 C517 1.315 . S
C617 C35 1.225 . S
C672 C537 1.262 . S
C653 C115 1.219 . S
C708 C551 1.279 . S
C689 C177 1.239 . S
C725 C221 1.323 . S
C744 C509 1.417 . S
C761 C283 1.395 . S
C780 C503 1.538 . S
C797 C363 1.351 . S
C816 C523 1.445 . S
C852 C531 1.356 . S
C833 C407 1.264 . S
C888 C545 1.492 . S
C869 C469 1.338 . S
C905 C159 1.340 . S
C924 C573 1.491 . S
C960 C587 1.371 . S
C941 C239 1.257 . S
C977 C53 1.361 . S
C996 C607 1.454 . S
C1032 C559 1.544 . S
C1013 C97 1.377 . S
C1049 C425 1.322 . S
C1068 C565 1.372 . S
C1085 C487 1.247 . S
C1104 C579 1.329 . S
C1140 C593 1.244 1_556 S
C1121 C301 1.211 . S
C1157 C345 1.209 . S
C1176 C601 1.328 . S
C1212 C532 1.866 . S
C1193 C29 1.858 . S
C1248 C546 1.857 . S
C1229 C109 1.805 . S
C1265 C171 1.726 . S
C1284 C504 1.778 . S
C1301 C215 1.557 . S
C1320 C521 1.585 . S
C1337 C277 1.491 . S
C1356 C549 1.515 . S
C1392 C507 1.493 . S
C1373 C357 1.448 . S
C1428 C518 1.771 . S
C1409 C401 1.759 . S
C1464 C535 1.590 . S
C1445 C463 1.563 . S
C1500 C591 1.597 . S
C1481 C153 1.570 . S
C1536 C602 1.763 . S
C1517 C233 1.736 . S
C1553 C47 1.442 . S
C1572 C563 1.489 . S
C1608 C577 1.523 . S
C1589 C91 1.495 . S
C1644 C605 1.591 . S
C1625 C419 1.525 . S
C1661 C481 1.724 . S
C1680 C560 1.790 . S
C1716 C574 1.855 . S
C1697 C295 1.805 . S
C1752 C588 1.878 . S
C1733 C339 1.854 . S
