# Generated by pormake.
# Topology eea, (3,6)-cn, num edge types: 1
# Building blocks:
#     Node 0, Type 0, BuildingBlock: PAMTOO_clean_linker_0, # of connection points: 3
#     Node 1, Type 0, BuildingBlock: PAMTOO_clean_linker_0, # of connection points: 3
#     Node 2, Type 0, BuildingBlock: PAMTOO_clean_linker_0, # of connection points: 3
#     Node 3, Type 0, BuildingBlock: PAMTOO_clean_linker_0, # of connection points: 3
#     Node 4, Type 0, BuildingBlock: PAMTOO_clean_linker_0, # of connection points: 3
#     Node 5, Type 0, BuildingBlock: PAMTOO_clean_linker_0, # of connection points: 3
#     Node 6, Type 0, BuildingBlock: PAMTOO_clean_linker_0, # of connection points: 3
#     Node 7, Type 0, BuildingBlock: PAMTOO_clean_linker_0, # of connection points: 3
#     Node 8, Type 0, BuildingBlock: PAMTOO_clean_linker_0, # of connection points: 3
#     Node 9, Type 0, BuildingBlock: PAMTOO_clean_linker_0, # of connection points: 3
#     Node 10, Type 0, BuildingBlock: PAMTOO_clean_linker_0, # of connection points: 3
#     Node 11, Type 0, BuildingBlock: PAMTOO_clean_linker_0, # of connection points: 3
#     Node 12, Type 0, BuildingBlock: PAMTOO_clean_linker_0, # of connection points: 3
#     Node 13, Type 0, BuildingBlock: PAMTOO_clean_linker_0, # of connection points: 3
#     Node 14, Type 0, BuildingBlock: PAMTOO_clean_linker_0, # of connection points: 3
#     Node 15, Type 0, BuildingBlock: PAMTOO_clean_linker_0, # of connection points: 3
#     Node 16, Type 0, BuildingBlock: PAMTOO_clean_linker_0, # of connection points: 3
#     Node 17, Type 0, BuildingBlock: PAMTOO_clean_linker_0, # of connection points: 3
#     Node 18, Type 1, BuildingBlock: CUKXOW_clean_sbu_0, # of connection points: 6
#     Node 19, Type 1, BuildingBlock: CUKXOW_clean_sbu_0, # of connection points: 6
#     Node 20, Type 1, BuildingBlock: CUKXOW_clean_sbu_0, # of connection points: 6
#     Node 21, Type 1, BuildingBlock: CUKXOW_clean_sbu_0, # of connection points: 6
#     Node 22, Type 1, BuildingBlock: CUKXOW_clean_sbu_0, # of connection points: 6
#     Node 23, Type 1, BuildingBlock: CUKXOW_clean_sbu_0, # of connection points: 6
#     Node 24, Type 1, BuildingBlock: CUKXOW_clean_sbu_0, # of connection points: 6
#     Node 25, Type 1, BuildingBlock: CUKXOW_clean_sbu_0, # of connection points: 6
#     Node 26, Type 1, BuildingBlock: CUKXOW_clean_sbu_0, # of connection points: 6
#     Edge 27, Type (0, 1), BuildingBlock: CIFDUS_clean_linker_0, # of connection points: 2
#     Edge 28, Type (0, 1), BuildingBlock: CIFDUS_clean_linker_0, # of connection points: 2
#     Edge 29, Type (0, 1), BuildingBlock: CIFDUS_clean_linker_0, # of connection points: 2
#     Edge 30, Type (0, 1), BuildingBlock: CIFDUS_clean_linker_0, # of connection points: 2
#     Edge 31, Type (0, 1), BuildingBlock: CIFDUS_clean_linker_0, # of connection points: 2
#     Edge 32, Type (0, 1), BuildingBlock: CIFDUS_clean_linker_0, # of connection points: 2
#     Edge 33, Type (0, 1), BuildingBlock: CIFDUS_clean_linker_0, # of connection points: 2
#     Edge 34, Type (0, 1), BuildingBlock: CIFDUS_clean_linker_0, # of connection points: 2
#     Edge 35, Type (0, 1), BuildingBlock: CIFDUS_clean_linker_0, # of connection points: 2
#     Edge 36, Type (0, 1), BuildingBlock: CIFDUS_clean_linker_0, # of connection points: 2
#     Edge 37, Type (0, 1), BuildingBlock: CIFDUS_clean_linker_0, # of connection points: 2
#     Edge 38, Type (0, 1), BuildingBlock: CIFDUS_clean_linker_0, # of connection points: 2
#     Edge 39, Type (0, 1), BuildingBlock: CIFDUS_clean_linker_0, # of connection points: 2
#     Edge 40, Type (0, 1), BuildingBlock: CIFDUS_clean_linker_0, # of connection points: 2
#     Edge 41, Type (0, 1), BuildingBlock: CIFDUS_clean_linker_0, # of connection points: 2
#     Edge 42, Type (0, 1), BuildingBlock: CIFDUS_clean_linker_0, # of connection points: 2
#     Edge 43, Type (0, 1), BuildingBlock: CIFDUS_clean_linker_0, # of connection points: 2
#     Edge 44, Type (0, 1), BuildingBlock: CIFDUS_clean_linker_0, # of connection points: 2
#     Edge 45, Type (0, 1), BuildingBlock: CIFDUS_clean_linker_0, # of connection points: 2
#     Edge 46, Type (0, 1), BuildingBlock: CIFDUS_clean_linker_0, # of connection points: 2
#     Edge 47, Type (0, 1), BuildingBlock: CIFDUS_clean_linker_0, # of connection points: 2
#     Edge 48, Type (0, 1), BuildingBlock: CIFDUS_clean_linker_0, # of connection points: 2
#     Edge 49, Type (0, 1), BuildingBlock: CIFDUS_clean_linker_0, # of connection points: 2
#     Edge 50, Type (0, 1), BuildingBlock: CIFDUS_clean_linker_0, # of connection points: 2
#     Edge 51, Type (0, 1), BuildingBlock: CIFDUS_clean_linker_0, # of connection points: 2
#     Edge 52, Type (0, 1), BuildingBlock: CIFDUS_clean_linker_0, # of connection points: 2
#     Edge 53, Type (0, 1), BuildingBlock: CIFDUS_clean_linker_0, # of connection points: 2
#     Edge 54, Type (0, 1), BuildingBlock: CIFDUS_clean_linker_0, # of connection points: 2
#     Edge 55, Type (0, 1), BuildingBlock: CIFDUS_clean_linker_0, # of connection points: 2
#     Edge 56, Type (0, 1), BuildingBlock: CIFDUS_clean_linker_0, # of connection points: 2
#     Edge 57, Type (0, 1), BuildingBlock: CIFDUS_clean_linker_0, # of connection points: 2
#     Edge 58, Type (0, 1), BuildingBlock: CIFDUS_clean_linker_0, # of connection points: 2
#     Edge 59, Type (0, 1), BuildingBlock: CIFDUS_clean_linker_0, # of connection points: 2
#     Edge 60, Type (0, 1), BuildingBlock: CIFDUS_clean_linker_0, # of connection points: 2
#     Edge 61, Type (0, 1), BuildingBlock: CIFDUS_clean_linker_0, # of connection points: 2
#     Edge 62, Type (0, 1), BuildingBlock: CIFDUS_clean_linker_0, # of connection points: 2
#     Edge 63, Type (0, 1), BuildingBlock: CIFDUS_clean_linker_0, # of connection points: 2
#     Edge 64, Type (0, 1), BuildingBlock: CIFDUS_clean_linker_0, # of connection points: 2
#     Edge 65, Type (0, 1), BuildingBlock: CIFDUS_clean_linker_0, # of connection points: 2
#     Edge 66, Type (0, 1), BuildingBlock: CIFDUS_clean_linker_0, # of connection points: 2
#     Edge 67, Type (0, 1), BuildingBlock: CIFDUS_clean_linker_0, # of connection points: 2
#     Edge 68, Type (0, 1), BuildingBlock: CIFDUS_clean_linker_0, # of connection points: 2
#     Edge 69, Type (0, 1), BuildingBlock: CIFDUS_clean_linker_0, # of connection points: 2
#     Edge 70, Type (0, 1), BuildingBlock: CIFDUS_clean_linker_0, # of connection points: 2
#     Edge 71, Type (0, 1), BuildingBlock: CIFDUS_clean_linker_0, # of connection points: 2
#     Edge 72, Type (0, 1), BuildingBlock: CIFDUS_clean_linker_0, # of connection points: 2
#     Edge 73, Type (0, 1), BuildingBlock: CIFDUS_clean_linker_0, # of connection points: 2
#     Edge 74, Type (0, 1), BuildingBlock: CIFDUS_clean_linker_0, # of connection points: 2
#     Edge 75, Type (0, 1), BuildingBlock: CIFDUS_clean_linker_0, # of connection points: 2
#     Edge 76, Type (0, 1), BuildingBlock: CIFDUS_clean_linker_0, # of connection points: 2
#     Edge 77, Type (0, 1), BuildingBlock: CIFDUS_clean_linker_0, # of connection points: 2
#     Edge 78, Type (0, 1), BuildingBlock: CIFDUS_clean_linker_0, # of connection points: 2
#     Edge 79, Type (0, 1), BuildingBlock: CIFDUS_clean_linker_0, # of connection points: 2
#     Edge 80, Type (0, 1), BuildingBlock: CIFDUS_clean_linker_0, # of connection points: 2
# Relax obj value: 0.033
# Max RMSD: 0.159
# Mean RMSD: 0.089
data_MOF--net-eea--node1-CUKXOW_clean_sbu_0--node2-PAMTOO_clean_linker_0--edge1-CIFDUS_clean_linker_0
_symmetry_space_group_name_H-M    P1
_symmetry_Int_Tables_number       1
_symmetry_cell_setting            triclinic
loop_
_symmetry_equiv_pos_as_xyz
'x, y, z'
_cell_length_a     52.917016
_cell_length_b     49.028157
_cell_length_c     43.075897
_cell_angle_alpha  93.490357
_cell_angle_beta   93.379508
_cell_angle_gamma 119.83732
loop_
_atom_site_label
_atom_site_type_symbol
_atom_site_fract_x
_atom_site_fract_y
_atom_site_fract_z
_atom_type_partial_charge
H0 H 0.26565 0.08205 0.44685 0.0
H1 H 0.27277 0.17374 0.45706 0.0
H2 H 0.2274 0.11031 0.37384 0.0
H3 H 0.25794 0.17573 0.36025 0.0
C4 C 0.26083 0.18786 0.38394 0.0
O5 O 0.24319 0.166 0.40318 0.0
H6 H 0.2842 0.19872 0.39351 0.0
C7 C 0.2613 0.09965 0.43781 0.0
C8 C 0.24553 0.09283 0.40836 0.0
C9 C 0.2715 0.12884 0.45562 0.0
C10 C 0.26513 0.15109 0.44375 0.0
C11 C 0.24934 0.14447 0.41427 0.0
C12 C 0.23961 0.11536 0.39657 0.0
H13 H 0.93825 0.20079 0.46037 0.0
H14 H 0.86083 0.10827 0.4531 0.0
H15 H 0.92584 0.12723 0.39034 0.0
H16 H 0.86922 0.08158 0.35909 0.0
C17 C 0.85668 0.07677 0.37984 0.0
O18 O 0.87566 0.08476 0.40658 0.0
H19 H 0.84598 0.09143 0.38028 0.0
C20 C 0.92518 0.17685 0.44911 0.0
C21 C 0.93516 0.16697 0.4235 0.0
C22 C 0.89847 0.15576 0.46036 0.0
C23 C 0.88168 0.12482 0.44531 0.0
C24 C 0.89163 0.11478 0.42022 0.0
C25 C 0.91831 0.13564 0.40955 0.0
H26 H 0.83967 0.75529 0.47178 0.0
H27 H 0.92468 0.76444 0.46677 0.0
H28 H 0.89411 0.80727 0.40227 0.0
H29 H 0.92199 0.77594 0.37004 0.0
C30 C 0.93317 0.77295 0.39114 0.0
O31 O 0.93449 0.79286 0.41606 0.0
H32 H 0.92018 0.74777 0.39593 0.0
C33 C 0.86045 0.76512 0.46202 0.0
C34 C 0.86479 0.78364 0.4371 0.0
C35 C 0.88216 0.75885 0.47413 0.0
C36 C 0.90754 0.76902 0.4586 0.0
C37 C 0.9111 0.78533 0.4321 0.0
C38 C 0.89027 0.79343 0.42194 0.0
H39 H 0.08502 0.28336 0.56215 0.0
H40 H 0.16646 0.28245 0.56934 0.0
H41 H 0.10553 0.23999 0.63607 0.0
H42 H 0.16416 0.27195 0.66308 0.0
C43 C 0.17563 0.26967 0.64309 0.0
O44 O 0.15544 0.25137 0.61809 0.0
H45 H 0.19046 0.29385 0.63659 0.0
C46 C 0.09986 0.2771 0.57369 0.0
C47 C 0.09241 0.26184 0.60122 0.0
C48 C 0.12642 0.28444 0.5613 0.0
C49 C 0.14539 0.27627 0.57723 0.0
C50 C 0.1376 0.26015 0.60384 0.0
C51 C 0.1112 0.25276 0.61556 0.0
H52 H 0.75667 0.81747 0.56328 0.0
H53 H 0.76221 0.90881 0.56707 0.0
H54 H 0.80537 0.88815 0.64082 0.0
H55 H 0.78191 0.92705 0.66645 0.0
C56 C 0.7761 0.93334 0.64382 0.0
O57 O 0.792 0.92944 0.62138 0.0
H58 H 0.75219 0.91714 0.63724 0.0
C59 C 0.76425 0.84089 0.5747 0.0
C60 C 0.78238 0.85049 0.60318 0.0
C61 C 0.75663 0.86159 0.5608 0.0
C62 C 0.76671 0.89173 0.57695 0.0
C63 C 0.7835 0.90083 0.60594 0.0
C64 C 0.79179 0.88054 0.61867 0.0
H65 H 0.20038 0.9307 0.57527 0.0
H66 H 0.11115 0.8538 0.55991 0.0
H67 H 0.13879 0.92256 0.64001 0.0
H68 H 0.10315 0.85578 0.6515 0.0
C69 C 0.08741 0.84664 0.62998 0.0
O70 O 0.09475 0.87041 0.61065 0.0
H71 H 0.08911 0.82698 0.61787 0.0
C72 C 0.17856 0.91789 0.58269 0.0
C73 C 0.17242 0.92965 0.60994 0.0
C74 C 0.15674 0.89068 0.56426 0.0
C75 C 0.12826 0.87501 0.57358 0.0
C76 C 0.1219 0.88629 0.6011 0.0
C77 C 0.14387 0.91386 0.61894 0.0
H78 H 0.91144 0.40711 0.79502 0.0
H79 H 0.90252 0.48986 0.80263 0.0
H80 H 0.86187 0.42211 0.72173 0.0
H81 H 0.88485 0.48629 0.70479 0.0
C82 C 0.88742 0.49865 0.72826 0.0
O83 O 0.87182 0.47659 0.74837 0.0
H84 H 0.91112 0.51176 0.73708 0.0
C85 C 0.90335 0.42149 0.78517 0.0
C86 C 0.88593 0.41097 0.75622 0.0
C87 C 0.90901 0.44966 0.8023 0.0
C88 C 0.89807 0.46796 0.78979 0.0
C89 C 0.88158 0.45831 0.76055 0.0
C90 C 0.87509 0.42962 0.7441 0.0
H91 H 0.61022 0.51803 0.80532 0.0
H92 H 0.5346 0.42405 0.79568 0.0
H93 H 0.59994 0.4484 0.73232 0.0
H94 H 0.547 0.39736 0.70203 0.0
C95 C 0.53389 0.39448 0.72209 0.0
O96 O 0.55194 0.40289 0.74961 0.0
H97 H 0.52449 0.41029 0.71991 0.0
C98 C 0.59738 0.49449 0.79318 0.0
C99 C 0.60773 0.48656 0.76679 0.0
C100 C 0.5708 0.47253 0.80394 0.0
C101 C 0.55541 0.44155 0.78865 0.0
C102 C 0.56655 0.43284 0.76363 0.0
C103 C 0.59249 0.45528 0.75266 0.0
H104 H 0.49624 0.07884 0.79389 0.0
H105 H 0.57481 0.0731 0.80257 0.0
H106 H 0.55947 0.11816 0.72724 0.0
H107 H 0.58685 0.07914 0.7111 0.0
C108 C 0.59941 0.08275 0.73411 0.0
O109 O 0.5963 0.1036 0.75429 0.0
H110 H 0.59033 0.05938 0.74352 0.0
C111 C 0.51644 0.08296 0.78495 0.0
C112 C 0.52511 0.09892 0.75812 0.0
C113 C 0.53384 0.07314 0.80106 0.0
C114 C 0.56093 0.08039 0.79055 0.0
C115 C 0.5701 0.09664 0.76403 0.0
C116 C 0.55224 0.10588 0.74785 0.0
H117 H 0.75395 0.60722 0.88382 0.0
H118 H 0.83138 0.59892 0.89667 0.0
H119 H 0.76487 0.55666 0.95737 0.0
H120 H 0.82612 0.58262 0.99031 0.0
C121 C 0.83691 0.58528 0.96842 0.0
O122 O 0.81581 0.56689 0.94404 0.0
H123 H 0.84806 0.61072 0.96434 0.0
C124 C 0.76668 0.59885 0.89626 0.0
C125 C 0.75482 0.57959 0.92081 0.0
C126 C 0.79493 0.60709 0.88772 0.0
C127 C 0.8105 0.59481 0.9035 0.0
C128 C 0.79972 0.57719 0.92858 0.0
C129 C 0.77233 0.56997 0.93743 0.0
H130 H 0.42562 0.16067 0.90755 0.0
H131 H 0.45657 0.26081 0.91188 0.0
H132 H 0.49655 0.22679 0.97559 0.0
H133 H 0.50643 0.28846 0.00528 0.0
C134 C 0.4917 0.28864 0.98594 0.0
O135 O 0.49633 0.27666 0.95832 0.0
H136 H 0.4687 0.27343 0.99142 0.0
C137 C 0.44024 0.18465 0.918 0.0
C138 C 0.46151 0.19036 0.94284 0.0
C139 C 0.43798 0.20984 0.90648 0.0
C140 C 0.4572 0.24084 0.92049 0.0
C141 C 0.4781 0.2467 0.94521 0.0
C142 C 0.48035 0.22167 0.95616 0.0
H143 H 0.87156 0.26762 0.90191 0.0
H144 H 0.78228 0.19292 0.90123 0.0
H145 H 0.82549 0.25787 0.98366 0.0
H146 H 0.78392 0.1942 1.00066 0.0
C147 C 0.7728 0.18382 0.9767 0.0
O148 O 0.77692 0.20785 0.9588 0.0
H149 H 0.78277 0.17028 0.96676 0.0
C150 C 0.85219 0.25521 0.91404 0.0
C151 C 0.85192 0.26632 0.94487 0.0
C152 C 0.82715 0.22894 0.8981 0.0
C153 C 0.80169 0.21333 0.91322 0.0
C154 C 0.80132 0.22361 0.94412 0.0
C155 C 0.82621 0.25016 0.95978 0.0
H156 H 0.59838 0.75579 0.11555 0.0
H157 H 0.58795 0.83753 0.11403 0.0
H158 H 0.5538 0.76712 0.03497 0.0
H159 H 0.56887 0.82855 0.01274 0.0
C160 C 0.57615 0.84154 0.03653 0.0
O161 O 0.56023 0.82128 0.05788 0.0
H162 H 0.59992 0.84981 0.0416 0.0
C163 C 0.59086 0.76965 0.10354 0.0
C164 C 0.57613 0.75827 0.07332 0.0
C165 C 0.59508 0.79806 0.11877 0.0
C166 C 0.58451 0.81528 0.1031 0.0
C167 C 0.56973 0.80413 0.07296 0.0
C168 C 0.56515 0.77546 0.05832 0.0
H169 H 0.27922 0.85746 0.13763 0.0
H170 H 0.20472 0.76264 0.12018 0.0
H171 H 0.26734 0.79736 0.05399 0.0
H172 H 0.209 0.75024 0.02179 0.0
C173 C 0.19833 0.74285 0.04362 0.0
O174 O 0.21945 0.74908 0.0678 0.0
H175 H 0.18721 0.7566 0.04883 0.0
C176 C 0.26674 0.83515 0.12315 0.0
C177 C 0.27619 0.8311 0.09403 0.0
C178 C 0.24111 0.81036 0.1334 0.0
C179 C 0.22499 0.78178 0.11375 0.0
C180 C 0.23456 0.77729 0.08545 0.0
C181 C 0.26011 0.80163 0.07584 0.0
H182 H 0.16054 0.40127 0.1255 0.0
H183 H 0.23799 0.39306 0.13511 0.0
H184 H 0.22877 0.44708 0.06563 0.0
H185 H 0.25524 0.40756 0.04708 0.0
C186 C 0.26763 0.41035 0.06998 0.0
O187 O 0.26305 0.42893 0.09161 0.0
H188 H 0.25946 0.38639 0.07776 0.0
C189 C 0.18149 0.40634 0.11821 0.0
C190 C 0.19214 0.42501 0.09332 0.0
C191 C 0.19758 0.39454 0.13392 0.0
C192 C 0.22499 0.40192 0.12409 0.0
C193 C 0.23607 0.42082 0.09963 0.0
C194 C 0.21967 0.43219 0.08422 0.0
H195 H 0.40835 0.93231 0.21101 0.0
H196 H 0.48713 0.92739 0.22806 0.0
H197 H 0.41565 0.87831 0.28254 0.0
H198 H 0.47257 0.90303 0.31878 0.0
C199 C 0.48613 0.90587 0.29912 0.0
O200 O 0.46805 0.89006 0.272 0.0
H201 H 0.49958 0.93162 0.29674 0.0
C202 C 0.42092 0.92383 0.22369 0.0
C203 C 0.40876 0.9048 0.2479 0.0
C204 C 0.44924 0.93235 0.21612 0.0
C205 C 0.46507 0.92088 0.23286 0.0
C206 C 0.45282 0.90132 0.25652 0.0
C207 C 0.42481 0.89337 0.26406 0.0
H208 H 0.10093 0.48975 0.24114 0.0
H209 H 0.1016 0.57808 0.24894 0.0
H210 H 0.15567 0.56276 0.31544 0.0
H211 H 0.13832 0.60837 0.34532 0.0
C212 C 0.12711 0.60907 0.32299 0.0
O213 O 0.13973 0.60293 0.29833 0.0
H214 H 0.10355 0.5906 0.32214 0.0
C215 C 0.10869 0.51292 0.2534 0.0
C216 C 0.12932 0.52356 0.27997 0.0
C217 C 0.09869 0.53254 0.2421 0.0
C218 C 0.10901 0.56269 0.25765 0.0
C219 C 0.12946 0.57349 0.28404 0.0
C220 C 0.13977 0.5541 0.29501 0.0
H221 H 0.53391 0.60007 0.23108 0.0
H222 H 0.44498 0.52224 0.2231 0.0
H223 H 0.48092 0.5863 0.30693 0.0
H224 H 0.4479 0.51639 0.31451 0.0
C225 C 0.43008 0.50891 0.29523 0.0
O226 O 0.43522 0.53459 0.27947 0.0
H227 H 0.43018 0.49044 0.27899 0.0
C228 C 0.51311 0.58687 0.24054 0.0
C229 C 0.51006 0.59703 0.27057 0.0
C230 C 0.48983 0.56016 0.22272 0.0
C231 C 0.46348 0.5427 0.23622 0.0
C232 C 0.46061 0.55173 0.26676 0.0
C233 C 0.48379 0.57892 0.28382 0.0
Tb234 Tb 0.55046 0.04329 0.02211 0.0
C235 C 0.52562 0.97053 0.02565 0.0
Tb236 Tb 0.48306 0.99973 0.02497 0.0
O237 O 0.55914 0.03724 0.07052 0.0
O238 O 0.51981 0.03407 0.0551 0.0
O239 O 0.54765 0.99737 0.01797 0.0
C240 C 0.43236 0.96335 0.04874 0.0
O241 O 0.49972 0.96711 0.0312 0.0
C242 C 0.49925 0.01017 0.96857 0.0
C243 C 0.50667 0.06983 0.01058 0.0
O244 O 0.4369 0.96162 0.01953 0.0
O245 O 0.45622 0.98573 0.06431 0.0
O246 O 0.47271 1.00125 0.97524 0.0
O247 O 0.51375 1.00885 0.99218 0.0
O248 O 0.48509 0.04518 0.02208 0.0
O249 O 0.53217 0.07187 0.00582 0.0
C250 C 0.60543 0.08458 0.01191 0.0
O251 O 0.58952 0.09038 0.02997 0.0
O252 O 0.5904 0.05544 0.99947 0.0
C253 C 0.53339 0.03026 0.0779 0.0
Tb254 Tb 0.99436 0.51439 0.01866 0.0
C255 C 0.06044 0.56653 0.01252 0.0
Tb256 Tb 0.03991 0.49382 0.0128 0.0
O257 O 0.99395 0.50646 0.06871 0.0
O258 O 0.03115 0.51997 0.04619 0.0
O259 O 0.03243 0.55887 0.00926 0.0
C260 C 0.07534 0.4736 0.03438 0.0
O261 O 0.06852 0.54532 0.01783 0.0
C262 C 0.01676 0.49773 0.95908 0.0
C263 C 0.97204 0.44138 0.01374 0.0
O264 O 0.0757 0.48377 0.00708 0.0
O265 O 0.0547 0.4741 0.04868 0.0
O266 O 0.04245 0.50016 0.96329 0.0
O267 O 1.00413 0.48942 0.98367 0.0
O268 O 0.99979 0.44788 0.01572 0.0
O269 O 0.96488 0.46362 0.01154 0.0
C270 C 0.95622 0.53493 0.01201 0.0
O271 O 0.96383 0.52719 0.03766 0.0
O272 O 0.97035 0.53144 0.9899 0.0
C273 C 0.02047 0.5114 0.07138 0.0
Tb274 Tb 0.48485 0.50785 0.0072 0.0
C275 C 0.50844 0.46098 0.00484 0.0
Tb276 Tb 0.5503 0.53451 0.99745 0.0
O277 O 0.47225 0.4795 0.96187 0.0
O278 O 0.51131 0.52248 0.96967 0.0
O279 O 0.48891 0.46721 0.01637 0.0
C280 C 0.60036 0.54954 0.97262 0.0
O281 O 0.53211 0.48277 0.99297 0.0
C282 C 0.53994 0.54247 0.05504 0.0
C283 C 0.52702 0.58201 0.00672 0.0
O284 O 0.59147 0.53378 0.99672 0.0
O285 O 0.58107 0.55678 0.96251 0.0
O286 O 0.56486 0.56031 0.04429 0.0
O287 O 0.52394 0.51954 0.03488 0.0
O288 O 0.54787 0.57761 0.99581 0.0
O289 O 0.50225 0.55871 0.01492 0.0
C290 C 0.43171 0.49281 0.02292 0.0
O291 O 0.44248 0.50475 0.99754 0.0
O292 O 0.45103 0.4895 0.0398 0.0
C293 C 0.49624 0.49849 0.95033 0.0
Tb294 Tb 0.21138 0.37292 0.35174 0.0
C295 C 0.19484 0.30292 0.36258 0.0
Tb296 Tb 0.1465 0.32358 0.35737 0.0
O297 O 0.22198 0.37571 0.40206 0.0
O298 O 0.18036 0.36423 0.38421 0.0
O299 O 0.21364 0.32934 0.3508 0.0
C300 C 0.09674 0.28507 0.3811 0.0
O301 O 0.16845 0.29712 0.36913 0.0
C302 C 0.1621 0.32954 0.30043 0.0
C303 C 0.16153 0.39168 0.34183 0.0
O304 O 0.10075 0.28506 0.35164 0.0
O305 O 0.1208 0.30651 0.39713 0.0
O306 O 0.13543 0.31995 0.3069 0.0
O307 O 0.17758 0.33208 0.32498 0.0
O308 O 0.14218 0.36499 0.35251 0.0
O309 O 0.18912 0.39909 0.33884 0.0
C310 C 0.26319 0.41422 0.33302 0.0
O311 O 0.23806 0.40167 0.31639 0.0
O312 O 0.25908 0.40384 0.3603 0.0
C313 C 0.19547 0.36611 0.40879 0.0
Tb314 Tb 0.65289 0.8474 0.337 0.0
C315 C 0.7182 0.9011 0.35008 0.0
Tb316 Tb 0.69929 0.82816 0.34483 0.0
O317 O 0.66099 0.86628 0.38592 0.0
O318 O 0.66809 0.82915 0.37298 0.0
O319 O 0.69165 0.89345 0.33793 0.0
C320 C 0.74354 0.81861 0.36169 0.0
O321 O 0.72513 0.87951 0.35738 0.0
C322 C 0.68063 0.82606 0.28669 0.0
C323 C 0.63436 0.77518 0.32655 0.0
O324 O 0.7392 0.82748 0.33519 0.0
O325 O 0.72297 0.81507 0.37879 0.0
O326 O 0.69102 0.80869 0.29624 0.0
O327 O 0.68392 0.84602 0.30893 0.0
O328 O 0.65968 0.78144 0.34155 0.0
O329 O 0.62868 0.79763 0.31934 0.0
C330 C 0.611 0.85986 0.31811 0.0
O331 O 0.60904 0.84128 0.33921 0.0
O332 O 0.63641 0.87121 0.30763 0.0
C333 C 0.67135 0.84888 0.39542 0.0
Tb334 Tb 0.14722 0.83863 0.33275 0.0
C335 C 0.17135 0.79176 0.33107 0.0
Tb336 Tb 0.21383 0.8672 0.33921 0.0
O337 O 0.14553 0.8217 0.28395 0.0
O338 O 0.18182 0.86331 0.30495 0.0
O339 O 0.14814 0.79488 0.33484 0.0
C340 C 0.26696 0.88253 0.32373 0.0
O341 O 0.19806 0.81641 0.33029 0.0
C342 C 0.19145 0.86253 0.39231 0.0
C343 C 0.18993 0.91317 0.34855 0.0
O344 O 0.25983 0.88185 0.35211 0.0
O345 O 0.24436 0.87507 0.30425 0.0
O346 O 0.2187 0.88243 0.38896 0.0
O347 O 0.17947 0.84375 0.36766 0.0
O348 O 0.21223 0.91072 0.33905 0.0
O349 O 0.16394 0.88801 0.35105 0.0
C350 C 0.09166 0.82196 0.33922 0.0
O351 O 0.10721 0.83947 0.31854 0.0
O352 O 0.10727 0.81349 0.35598 0.0
C353 C 0.17167 0.84433 0.28049 0.0
Tb354 Tb 0.86704 0.70464 0.67678 0.0
C355 C 0.85559 0.63816 0.69237 0.0
Tb356 Tb 0.80252 0.64987 0.67572 0.0
O357 O 0.87435 0.70478 0.72779 0.0
O358 O 0.83278 0.68987 0.70603 0.0
O359 O 0.87389 0.66475 0.68084 0.0
C360 C 0.75201 0.60226 0.68984 0.0
O361 O 0.82815 0.63027 0.69647 0.0
C362 C 0.82184 0.66226 0.62067 0.0
C363 C 0.81444 0.7185 0.66483 0.0
O364 O 0.77212 0.59925 0.67692 0.0
O365 O 0.76008 0.63198 0.69423 0.0
O366 O 0.7943 0.64803 0.62519 0.0
O367 O 0.83622 0.66479 0.64614 0.0
O368 O 0.79532 0.68992 0.67246 0.0
O369 O 0.84275 0.72828 0.66342 0.0
C370 C 0.91806 0.74582 0.65663 0.0
O371 O 0.89649 0.7215 0.64007 0.0
O372 O 0.91082 0.74732 0.68478 0.0
C373 C 0.84662 0.69192 0.73163 0.0
Tb374 Tb 0.31945 0.18029 0.68899 0.0
C375 C 0.38695 0.22601 0.70252 0.0
Tb376 Tb 0.36024 0.15187 0.68769 0.0
O377 O 0.33062 0.1947 0.73957 0.0
O378 O 0.33359 0.15696 0.71946 0.0
O379 O 0.36159 0.22297 0.69195 0.0
C380 C 0.39754 0.13126 0.70075 0.0
O381 O 0.39056 0.20137 0.70615 0.0
C382 C 0.34024 0.15632 0.6323 0.0
C383 C 0.2918 0.1064 0.67534 0.0
O384 O 0.40402 0.15711 0.68831 0.0
O385 O 0.3702 0.11717 0.70583 0.0
O386 O 0.35077 0.13792 0.63732 0.0
O387 O 0.34579 0.17455 0.65688 0.0
O388 O 0.31724 0.10906 0.68565 0.0
O389 O 0.28874 0.13129 0.6714 0.0
C390 C 0.28569 0.20454 0.67344 0.0
O391 O 0.27938 0.18291 0.69246 0.0
O392 O 0.31078 0.2123 0.66345 0.0
C393 C 0.33964 0.17488 0.74431 0.0
Tb394 Tb 0.81857 0.17286 0.67608 0.0
C395 C 0.83726 0.11974 0.67685 0.0
Tb396 Tb 0.88347 0.19243 0.6779 0.0
O397 O 0.8188 0.18182 0.62614 0.0
O398 O 0.84611 0.16799 0.64616 0.0
O399 O 0.81621 0.12692 0.6801 0.0
C400 C 0.9341 0.21217 0.65349 0.0
O401 O 0.86464 0.1413 0.67294 0.0
C402 C 0.86331 0.18438 0.73241 0.0
C403 C 0.86554 0.24592 0.68481 0.0
O404 O 0.93054 0.20882 0.68296 0.0
O405 O 0.90933 0.20465 0.63813 0.0
O406 O 0.88568 0.18151 0.7257 0.0
O407 O 0.85575 0.19515 0.70995 0.0
O408 O 0.88599 0.23874 0.67825 0.0
O409 O 0.83825 0.22377 0.68816 0.0
C410 C 0.76277 0.15223 0.68617 0.0
O411 O 0.77512 0.1656 0.66198 0.0
O412 O 0.78186 0.15022 0.70485 0.0
C413 C 0.84053 0.17727 0.62179 0.0
H414 H 0.32947 0.87434 0.12623 0.0
H415 H 0.28212 0.84675 0.03414 0.0
H416 H 0.32588 0.88479 0.01215 0.0
H417 H 0.37831 0.92449 0.01827 0.0
H418 H 0.42554 0.95454 0.11019 0.0
H419 H 0.38134 0.91744 0.13298 0.0
C420 C 0.32859 0.87697 0.10145 0.0
C421 C 0.30251 0.8571 0.08188 0.0
C422 C 0.35396 0.89933 0.08881 0.0
C423 C 0.30198 0.861 0.04975 0.0
C424 C 0.32701 0.88292 0.03707 0.0
C425 C 0.37884 0.92299 0.04329 0.0
C426 C 0.40514 0.94207 0.06249 0.0
C427 C 0.35325 0.90186 0.05624 0.0
C428 C 0.4055 0.94011 0.09493 0.0
C429 C 0.38023 0.91883 0.10796 0.0
H430 H 0.15863 0.44602 0.11975 0.0
H431 H 0.18528 0.43081 0.03058 0.0
H432 H 0.15269 0.44613 1.00425 0.0
H433 H 0.11408 0.46088 0.00642 0.0
H434 H 0.08478 0.47032 0.09574 0.0
H435 H 0.12021 0.45926 0.12194 0.0
C436 C 0.1571 0.44553 0.09449 0.0
C437 C 0.17418 0.43676 0.07724 0.0
C438 C 0.13749 0.45302 0.07943 0.0
C439 C 0.17259 0.43761 0.04459 0.0
C440 C 0.15371 0.44607 0.02945 0.0
C441 C 0.11554 0.46044 0.03158 0.0
C442 C 0.09681 0.46626 0.04912 0.0
C443 C 0.13567 0.45334 0.04658 0.0
C444 C 0.09882 0.46567 0.0817 0.0
C445 C 0.11915 0.45946 0.09675 0.0
H446 H 0.52584 0.70747 0.04527 0.0
H447 H 0.61798 0.74199 0.06715 0.0
H448 H 0.61153 0.6914 0.04541 0.0
H449 H 0.57904 0.63603 0.02352 0.0
H450 H 0.48637 0.60052 0.00494 0.0
H451 H 0.49365 0.6527 0.02155 0.0
C452 C 0.54452 0.704 0.04482 0.0
C453 C 0.57231 0.72836 0.05782 0.0
C454 C 0.54053 0.6746 0.0329 0.0
C455 C 0.59632 0.72346 0.05749 0.0
C456 C 0.59266 0.69457 0.04501 0.0
C457 C 0.56057 0.63993 0.02252 0.0
C458 C 0.53225 0.61453 0.01282 0.0
C459 C 0.56479 0.66979 0.03309 0.0
C460 C 0.5084 0.61973 0.01229 0.0
C461 C 0.51252 0.64954 0.02186 0.0
H462 H 0.85265 0.31444 0.98068 0.0
H463 H 0.90993 0.28414 0.94428 0.0
H464 H 0.95266 0.3346 0.96535 0.0
H465 H 0.97355 0.38917 0.99027 0.0
H466 H 0.91565 0.41918 0.02553 0.0
H467 H 0.87357 0.36682 0.00954 0.0
C468 C 0.87447 0.31855 0.9779 0.0
C469 C 0.87798 0.29556 0.96065 0.0
C470 C 0.89893 0.34768 0.9899 0.0
C471 C 0.90652 0.3016 0.95697 0.0
C472 C 0.931 0.33042 0.96914 0.0
C473 C 0.9518 0.38401 0.99505 0.0
C474 C 0.94776 0.40812 0.00893 0.0
C475 C 0.92747 0.35393 0.9851 0.0
C476 C 0.91937 0.40113 0.01469 0.0
C477 C 0.89524 0.37119 0.00547 0.0
H478 H 0.72309 0.61066 0.91787 0.0
H479 H 0.71665 0.52329 0.94221 0.0
H480 H 0.66964 0.50728 0.9614 0.0
H481 H 0.63038 0.51815 0.97288 0.0
H482 H 0.63294 0.60154 0.94269 0.0
H483 H 0.68086 0.61857 0.92368 0.0
C484 C 0.71133 0.58789 0.92686 0.0
C485 C 0.72436 0.5689 0.92939 0.0
C486 C 0.68338 0.57798 0.93692 0.0
C487 C 0.70823 0.53934 0.94112 0.0
C488 C 0.68098 0.52983 0.95187 0.0
C489 C 0.64145 0.54 0.96205 0.0
C490 C 0.62844 0.5588 0.95955 0.0
C491 C 0.66852 0.54912 0.95033 0.0
C492 C 0.64266 0.58675 0.94496 0.0
C493 C 0.67007 0.5965 0.93414 0.0
H494 H 0.51181 0.1904 0.96017 0.0
H495 H 0.41783 0.1309 0.95288 0.0
H496 H 0.42315 0.08868 0.97432 0.0
H497 H 0.45486 0.06861 0.9953 0.0
H498 H 0.54879 0.1294 1.00246 0.0
H499 H 0.54301 0.17124 0.98178 0.0
C500 C 0.49241 0.16836 0.96357 0.0
C501 C 0.46446 0.16403 0.95499 0.0
C502 C 0.49561 0.14438 0.9762 0.0
C503 C 0.43965 0.13489 0.95893 0.0
C504 C 0.44268 0.11079 0.97145 0.0
C505 C 0.47402 0.09115 0.99269 0.0
C506 C 0.50222 0.09576 1.00056 0.0
C507 C 0.47059 0.11527 0.98029 0.0
C508 C 0.52681 0.12504 0.99658 0.0
C509 C 0.52356 0.14906 0.98467 0.0
H510 H 0.73687 0.19331 0.01279 0.0
H511 H 0.73676 0.12606 0.94352 0.0
H512 H 0.68474 0.08961 0.94763 0.0
H513 H 0.63971 0.07615 0.97246 0.0
H514 H 0.63978 0.14383 0.04132 0.0
H515 H 0.69127 0.18084 0.03591 0.0
C516 C 0.72532 0.17065 0.99864 0.0
C517 C 0.74057 0.162 0.97836 0.0
C518 C 0.69548 0.14991 1.00113 0.0
C519 C 0.72546 0.1329 0.95966 0.0
C520 C 0.69577 0.11212 0.96199 0.0
C521 C 0.65103 0.09905 0.98617 0.0
C522 C 0.63611 0.10724 0.00738 0.0
C523 C 0.68063 0.12022 0.98291 0.0
C524 C 0.65088 0.13702 0.02489 0.0
C525 C 0.68031 0.15817 0.02183 0.0
H526 H 0.85729 0.57034 0.02052 0.0
H527 H 0.86832 0.57974 0.92272 0.0
H528 H 0.90646 0.56525 0.92725 0.0
H529 H 0.93664 0.54975 0.95934 0.0
H530 H 0.92569 0.54131 0.05739 0.0
H531 H 0.88767 0.55562 0.05256 0.0
C532 C 0.86796 0.56902 1.00021 0.0
C533 C 0.85975 0.57553 0.97122 0.0
C534 C 0.88996 0.56097 1.00309 0.0
C535 C 0.87406 0.57431 0.94515 0.0
C536 C 0.89589 0.56616 0.94777 0.0
C537 C 0.92594 0.55117 0.9796 0.0
C538 C 0.93392 0.54454 0.00867 0.0
C539 C 0.90402 0.55942 0.97665 0.0
C540 C 0.91992 0.54637 0.03477 0.0
C541 C 0.89815 0.5545 0.03203 0.0
H542 H 0.46524 0.31667 0.0149 0.0
H543 H 0.5339 0.33625 0.95562 0.0
H544 H 0.54549 0.39134 0.9564 0.0
H545 H 0.53602 0.43406 0.9743 0.0
H546 H 0.46758 0.41357 0.03457 0.0
H547 H 0.45613 0.35894 0.03303 0.0
C548 C 0.48251 0.33294 1.00185 0.0
C549 C 0.49808 0.32218 0.98449 0.0
C550 C 0.48927 0.36454 1.00277 0.0
C551 C 0.52105 0.34374 0.96848 0.0
C552 C 0.5278 0.37528 0.96909 0.0
C553 C 0.51873 0.4177 0.98725 0.0
C554 C 0.50276 0.42809 0.00454 0.0
C555 C 0.51207 0.38599 0.98623 0.0
C556 C 0.48026 0.40639 0.02098 0.0
C557 C 0.47362 0.37503 0.02013 0.0
H558 H 0.14005 0.71541 0.02528 0.0
H559 H 0.20698 0.6922 0.04856 0.0
H560 H 0.17062 0.63578 0.03967 0.0
H561 H 0.11951 0.5931 0.02676 0.0
H562 H 0.05272 0.6166 1.00271 0.0
H563 H 0.08931 0.67271 0.01017 0.0
C564 C 0.14658 0.69795 0.02861 0.0
C565 C 0.17595 0.70795 0.03857 0.0
C566 C 0.12561 0.66559 0.02315 0.0
C567 C 0.18434 0.68511 0.04179 0.0
C568 C 0.16359 0.65285 0.03654 0.0
C569 C 0.11294 0.61043 0.02288 0.0
C570 C 0.08327 0.60047 0.0143 0.0
C571 C 0.13411 0.64281 0.02743 0.0
C572 C 0.0753 0.62343 0.00941 0.0
C573 C 0.09623 0.65561 0.01374 0.0
H574 H 0.29792 0.44864 0.02633 0.0
H575 H 0.30935 0.40647 0.10686 0.0
H576 H 0.36169 0.42977 0.10081 0.0
H577 H 0.40374 0.46019 0.07086 0.0
H578 H 0.39159 0.5014 0.98971 0.0
H579 H 0.34014 0.48062 0.99771 0.0
C580 C 0.31195 0.44458 0.04246 0.0
C581 C 0.29987 0.42538 0.06657 0.0
C582 C 0.34186 0.45787 0.03869 0.0
C583 C 0.31824 0.42076 0.08781 0.0
C584 C 0.34809 0.43409 0.08437 0.0
C585 C 0.38982 0.46478 0.05514 0.0
C586 C 0.40134 0.48217 0.02969 0.0
C587 C 0.3601 0.45239 0.05965 0.0
C588 C 0.38316 0.48799 0.00943 0.0
C589 C 0.35373 0.47607 0.01394 0.0
H590 H 0.52428 0.84134 0.03446 0.0
H591 H 0.61751 0.9041 0.03799 0.0
H592 H 0.61017 0.9493 0.03475 0.0
H593 H 0.57729 0.97091 0.02997 0.0
H594 H 0.48393 0.90851 0.02748 0.0
H595 H 0.49127 0.86339 0.03144 0.0
C596 C 0.54294 0.865 0.03491 0.0
C597 C 0.57141 0.86947 0.03693 0.0
C598 C 0.53853 0.89092 0.03305 0.0
C599 C 0.59542 0.90013 0.03688 0.0
C600 C 0.59123 0.92596 0.03491 0.0
C601 C 0.5585 0.94744 0.03018 0.0
C602 C 0.53009 0.94314 0.02813 0.0
C603 C 0.56288 0.92162 0.03278 0.0
C604 C 0.50606 0.91257 0.02893 0.0
C605 C 0.51023 0.8867 0.03119 0.0
H606 H 0.98799 0.20842 0.45637 0.0
H607 H 0.94504 0.17456 0.36247 0.0
H608 H 0.99124 0.20751 0.34117 0.0
H609 H 0.044 0.24535 0.34898 0.0
H610 H 0.08725 0.28042 0.44254 0.0
H611 H 0.04088 0.24777 0.46423 0.0
C612 C 0.98871 0.20858 0.43128 0.0
C613 C 0.96312 0.18888 0.41106 0.0
C614 C 0.01544 0.22766 0.41911 0.0
C615 C 0.96449 0.18913 0.37856 0.0
C616 C 0.99088 0.20803 0.36633 0.0
C617 C 0.04324 0.24576 0.37411 0.0
C618 C 0.06891 0.26506 0.39415 0.0
C619 C 0.01653 0.22717 0.38635 0.0
C620 C 0.06769 0.26562 0.42666 0.0
C621 C 0.04119 0.24701 0.43906 0.0
H622 H 0.84611 0.78857 0.37796 0.0
H623 H 0.83365 0.7996 0.47518 0.0
H624 H 0.79469 0.81042 0.46043 0.0
H625 H 0.76333 0.81588 0.41999 0.0
H626 H 0.77793 0.8091 0.32318 0.0
H627 H 0.81715 0.79806 0.3377 0.0
C628 C 0.83521 0.79379 0.39597 0.0
C629 C 0.84256 0.79261 0.42762 0.0
C630 C 0.81313 0.80074 0.38741 0.0
C631 C 0.82797 0.79937 0.45056 0.0
C632 C 0.80577 0.80582 0.4422 0.0
C633 C 0.77514 0.81197 0.40214 0.0
C634 C 0.7677 0.81296 0.37062 0.0
C635 C 0.79795 0.80623 0.41071 0.0
C636 C 0.78335 0.80836 0.34764 0.0
C637 C 0.80572 0.80202 0.35592 0.0
H638 H 0.20109 0.03598 0.41902 0.0
H639 H 0.26896 0.08107 0.35837 0.0
H640 H 0.25743 0.02924 0.33343 0.0
H641 H 0.22995 0.97084 0.33154 0.0
H642 H 0.16081 0.92631 0.39133 0.0
H643 H 0.17071 0.97793 0.41379 0.0
C644 C 0.21291 0.0343 0.39995 0.0
C645 C 0.23568 0.06202 0.39032 0.0
C646 C 0.20608 1.00452 0.38578 0.0
C647 C 0.25114 0.05987 0.36582 0.0
C648 C 0.24467 0.03029 0.35177 0.0
C649 C 0.21693 0.9725 0.34929 0.0
C650 C 0.19476 0.94474 0.35979 0.0
C651 C 0.22251 1.0024 0.36194 0.0
C652 C 0.17789 0.94725 0.38265 0.0
C653 C 0.18361 0.9768 0.39565 0.0
H654 H 0.53879 0.65196 0.24517 0.0
H655 H 0.53412 0.61126 0.33203 0.0
H656 H 0.57377 0.66247 0.35723 0.0
H657 H 0.6096 0.71965 0.35427 0.0
H658 H 0.61145 0.7589 0.26691 0.0
H659 H 0.57368 0.70736 0.242 0.0
C660 C 0.54665 0.65415 0.26955 0.0
C661 C 0.53375 0.6278 0.28662 0.0
C662 C 0.56914 0.68345 0.28373 0.0
C663 C 0.54368 0.63125 0.3184 0.0
C664 C 0.56643 0.66047 0.33274 0.0
C665 C 0.60184 0.71663 0.32975 0.0
C666 C 0.61323 0.74288 0.31236 0.0
C667 C 0.57937 0.68683 0.31562 0.0
C668 C 0.60286 0.73897 0.28072 0.0
C669 C 0.58125 0.70955 0.26646 0.0
H670 H 0.3942 0.90891 0.30651 0.0
H671 H 0.35868 0.88609 0.20962 0.0
H672 H 0.31172 0.87786 0.22461 0.0
H673 H 0.281 0.87761 0.26527 0.0
H674 H 0.31631 0.89987 0.36219 0.0
H675 H 0.36325 0.90784 0.34722 0.0
C676 C 0.37605 0.90174 0.28874 0.0
C677 C 0.37983 0.89806 0.25705 0.0
C678 C 0.34923 0.89719 0.29752 0.0
C679 C 0.35632 0.8893 0.23417 0.0
C680 C 0.32949 0.88456 0.24272 0.0
C681 C 0.29905 0.88433 0.28307 0.0
C682 C 0.29543 0.88833 0.31474 0.0
C683 C 0.32579 0.88864 0.2743 0.0
C684 C 0.31877 0.8968 0.33765 0.0
C685 C 0.34552 0.90128 0.32911 0.0
H686 H 0.09703 0.46287 0.2934 0.0
H687 H 0.18609 0.53847 0.29342 0.0
H688 H 0.2042 0.50473 0.31282 0.0
H689 H 0.19459 0.45331 0.32929 0.0
H690 H 0.10514 0.37866 0.33117 0.0
H691 H 0.08745 0.41237 0.31175 0.0
C692 C 0.12039 0.47186 0.29756 0.0
C693 C 0.1402 0.50301 0.29184 0.0
C694 C 0.13061 0.45251 0.30921 0.0
C695 C 0.17042 0.51457 0.29776 0.0
C696 C 0.18077 0.49527 0.30879 0.0
C697 C 0.17124 0.44445 0.32559 0.0
C698 C 0.15132 0.4134 0.33177 0.0
C699 C 0.16107 0.46415 0.31459 0.0
C700 C 0.12109 0.40246 0.32689 0.0
C701 C 0.11087 0.4217 0.3156 0.0
H702 H 0.37647 0.48694 0.26297 0.0
H703 H 0.41797 0.49864 0.3558 0.0
H704 H 0.37012 0.47171 0.37591 0.0
H705 H 0.31637 0.44243 0.36665 0.0
H706 H 0.27449 0.4305 0.27393 0.0
H707 H 0.32241 0.46007 0.25423 0.0
C708 C 0.37491 0.48389 0.28765 0.0
C709 C 0.40064 0.49487 0.30792 0.0
C710 C 0.34727 0.46824 0.29902 0.0
C711 C 0.39847 0.49055 0.3398 0.0
C712 C 0.37112 0.47508 0.35129 0.0
C713 C 0.31778 0.44657 0.34219 0.0
C714 C 0.29202 0.43428 0.32174 0.0
C715 C 0.34537 0.46349 0.33106 0.0
C716 C 0.29407 0.4398 0.29012 0.0
C717 C 0.32145 0.45662 0.27884 0.0
H718 H 0.53446 0.91767 0.27075 0.0
H719 H 0.4818 0.86445 0.34135 0.0
H720 H 0.51501 0.84418 0.3525 0.0
H721 H 0.56016 0.84328 0.34341 0.0
H722 H 0.61298 0.89693 0.27295 0.0
H723 H 0.57862 0.91525 0.26031 0.0
C724 C 0.53041 0.90166 0.28857 0.0
C725 C 0.50618 0.89297 0.30564 0.0
C726 C 0.54958 0.8902 0.29482 0.0
C727 C 0.50064 0.87178 0.3283 0.0
C728 C 0.51956 0.86017 0.33461 0.0
C729 C 0.56397 0.8588 0.32515 0.0
C730 C 0.58905 0.86889 0.30921 0.0
C731 C 0.54426 0.86946 0.31822 0.0
C732 C 0.59383 0.88897 0.2856 0.0
C733 C 0.57423 0.89948 0.2784 0.0
H734 H 0.17755 0.66587 0.32627 0.0
H735 H 0.08374 0.62437 0.31853 0.0
H736 H 0.08901 0.67695 0.32004 0.0
H737 H 0.12036 0.73482 0.32477 0.0
H738 H 0.21437 0.77627 0.3317 0.0
H739 H 0.20893 0.7238 0.32913 0.0
C740 C 0.15833 0.66847 0.32472 0.0
C741 C 0.13034 0.64139 0.3223 0.0
C742 C 0.16154 0.69876 0.32554 0.0
C743 C 0.10553 0.64491 0.32039 0.0
C744 C 0.10853 0.67495 0.32129 0.0
C745 C 0.13968 0.73243 0.32572 0.0
C746 C 0.16773 0.75961 0.32864 0.0
C747 C 0.13644 0.70208 0.32409 0.0
C748 C 0.19247 0.75589 0.32952 0.0
C749 C 0.18942 0.72583 0.32808 0.0
H750 H 0.7978 0.0498 0.36574 0.0
H751 H 0.86503 0.02641 0.38625 0.0
H752 H 0.82822 0.96995 0.37964 0.0
H753 H 0.7769 0.92732 0.36711 0.0
H754 H 0.71018 0.95151 0.34524 0.0
H755 H 0.74678 1.00747 0.35333 0.0
C756 C 0.80431 0.03231 0.36901 0.0
C757 C 0.83392 0.04215 0.37705 0.0
C758 C 0.78314 1.00004 0.3648 0.0
C759 C 0.84222 0.01929 0.38059 0.0
C760 C 0.82123 0.98708 0.3767 0.0
C761 C 0.77034 0.94482 0.36421 0.0
C762 C 0.74077 0.93508 0.35551 0.0
C763 C 0.7916 0.97716 0.36871 0.0
C764 C 0.73275 0.95818 0.35177 0.0
C765 C 0.75367 0.99028 0.35644 0.0
H766 H 0.96533 0.80367 0.34434 0.0
H767 H 0.96884 0.75874 0.42608 0.0
H768 H 0.01816 0.76946 0.41714 0.0
H769 H 0.06003 0.79138 0.38573 0.0
H770 H 0.05656 0.83665 0.30412 0.0
H771 H 1.00735 0.82588 0.3131 0.0
C772 C 0.97696 0.79623 0.36009 0.0
C773 C 0.96357 0.78017 0.38562 0.0
C774 C 1.00515 0.80241 0.35472 0.0
C775 C 0.97882 0.7709 0.40615 0.0
C776 C 1.00691 0.77701 0.40103 0.0
C777 C 0.0484 0.79872 0.36987 0.0
C778 C 0.06172 0.81461 0.34423 0.0
C779 C 0.02023 0.79262 0.3753 0.0
C780 C 0.04662 0.82428 0.32396 0.0
C781 C 0.01854 0.81818 0.32911 0.0
H782 H 0.20671 0.18304 0.38397 0.0
H783 H 0.29734 0.2496 0.3753 0.0
H784 H 0.28527 0.29099 0.36744 0.0
H785 H 0.24882 0.30826 0.36289 0.0
H786 H 0.15833 0.24166 0.373 0.0
H787 H 0.17053 0.20058 0.38071 0.0
C788 C 0.22387 0.20672 0.38083 0.0
C789 C 0.25303 0.21346 0.38104 0.0
C790 C 0.21678 0.23044 0.37647 0.0
C791 C 0.27485 0.24404 0.37593 0.0
C792 C 0.26794 0.26767 0.37131 0.0
C793 C 0.23176 0.28475 0.36671 0.0
C794 C 0.20268 0.27815 0.3672 0.0
C795 C 0.23896 0.26115 0.3715 0.0
C796 C 0.18092 0.24755 0.37249 0.0
C797 C 0.18785 0.22394 0.3769 0.0
H798 H 0.65127 0.48161 0.74018 0.0
H799 H 0.62167 0.54765 0.76203 0.0
H800 H 0.6635 0.58896 0.74013 0.0
H801 H 0.70854 0.60663 0.71484 0.0
H802 H 0.73724 0.54055 0.69035 0.0
H803 H 0.69527 0.49872 0.71246 0.0
C804 C 0.65376 0.50491 0.73988 0.0
C805 C 0.63345 0.51148 0.75318 0.0
C806 C 0.67758 0.52852 0.72654 0.0
C807 C 0.6373 0.54202 0.75277 0.0
C808 C 0.66108 0.56565 0.73994 0.0
C809 C 0.70545 0.58299 0.71417 0.0
C810 C 0.72577 0.57654 0.70104 0.0
C811 C 0.68136 0.55919 0.72683 0.0
C812 C 0.72168 0.54593 0.70027 0.0
C813 C 0.69779 0.52209 0.71301 0.0
H814 H 0.46601 0.06444 0.74617 0.0
H815 H 0.54028 0.15479 0.73322 0.0
H816 H 0.50727 0.17216 0.712 0.0
H817 H 0.45696 0.16304 0.70128 0.0
H818 H 0.38343 0.07381 0.71837 0.0
H819 H 0.41648 0.05485 0.73441 0.0
C820 C 0.47505 0.08801 0.73882 0.0
C821 C 0.50559 0.10842 0.7417 0.0
C822 C 0.45602 0.09815 0.72771 0.0
C823 C 0.51688 0.13853 0.73117 0.0
C824 C 0.498 0.14858 0.7193 0.0
C825 C 0.44827 0.13939 0.70831 0.0
C826 C 0.41787 0.11983 0.70878 0.0
C827 C 0.4675 0.12882 0.71809 0.0
C828 C 0.40678 0.0893 0.71799 0.0
C829 C 0.42565 0.07843 0.72712 0.0
H830 H 0.92217 0.3885 0.74154 0.0
H831 H 0.83142 0.36355 0.73342 0.0
H832 H 0.81717 0.31099 0.70871 0.0
H833 H 0.83021 0.2711 0.6921 0.0
H834 H 0.92114 0.29635 0.69886 0.0
H835 H 0.93557 0.34974 0.72093 0.0
C836 C 0.8993 0.37153 0.73423 0.0
C837 C 0.87785 0.37982 0.73947 0.0
C838 C 0.89129 0.3414 0.71972 0.0
C839 C 0.84834 0.35778 0.72952 0.0
C840 C 0.84018 0.32769 0.71549 0.0
C841 C 0.85322 0.28835 0.69807 0.0
C842 C 0.87449 0.27951 0.69395 0.0
C843 C 0.86142 0.3191 0.7108 0.0
C844 C 0.90423 0.30237 0.70164 0.0
C845 C 0.91253 0.33293 0.71448 0.0
H846 H 0.1715 0.98333 0.62711 0.0
H847 H 0.22664 0.94188 0.632 0.0
H848 H 0.26821 0.99252 0.65485 0.0
H849 H 0.28983 0.04956 0.66938 0.0
H850 H 0.23498 0.09147 0.66218 0.0
H851 H 0.19254 0.03988 0.64449 0.0
C852 C 0.19249 0.98533 0.6338 0.0
C853 C 0.19607 0.95903 0.62795 0.0
C854 C 0.21648 0.01473 0.64617 0.0
C855 C 0.22346 0.96193 0.63626 0.0
C856 C 0.24723 0.99087 0.64922 0.0
C857 C 0.26855 0.04739 0.66428 0.0
C858 C 0.26576 0.07449 0.66695 0.0
C859 C 0.24418 0.01762 0.65363 0.0
C860 C 0.23794 0.07113 0.66012 0.0
C861 C 0.21356 0.04157 0.65002 0.0
H862 H 0.03789 0.2414 0.57163 0.0
H863 H 0.08615 0.2684 0.66319 0.0
H864 H 0.04158 0.25525 0.68747 0.0
H865 H 0.98856 0.23507 0.68295 0.0
H866 H 0.9406 0.21026 0.59153 0.0
H867 H 0.98535 0.22399 0.567 0.0
C868 C 0.03875 0.24484 0.59686 0.0
C869 C 0.06533 0.25553 0.6155 0.0
C870 C 0.01305 0.23759 0.61076 0.0
C871 C 0.0659 0.25954 0.64824 0.0
C872 C 0.04044 0.25222 0.6622 0.0
C873 C 0.98801 0.23279 0.65768 0.0
C874 C 0.96144 0.22159 0.63907 0.0
C875 C 0.01385 0.24095 0.64373 0.0
C876 C 0.9609 0.21887 0.60634 0.0
C877 C 0.98646 0.22667 0.59229 0.0
H878 H 0.74946 0.78859 0.61402 0.0
H879 H 0.83839 0.86622 0.6215 0.0
H880 H 0.85614 0.83272 0.64204 0.0
H881 H 0.84658 0.78113 0.65682 0.0
H882 H 0.75753 0.70365 0.65106 0.0
H883 H 0.7397 0.73729 0.63123 0.0
C884 C 0.77271 0.79807 0.62014 0.0
C885 C 0.7926 0.8298 0.61617 0.0
C886 C 0.78275 0.77874 0.63238 0.0
C887 C 0.82264 0.84193 0.62452 0.0
C888 C 0.8328 0.82276 0.63619 0.0
C889 C 0.82324 0.77159 0.65146 0.0
C890 C 0.80348 0.73981 0.65549 0.0
C891 C 0.81308 0.79111 0.64015 0.0
C892 C 0.7733 0.72803 0.64845 0.0
C893 C 0.76305 0.74723 0.6369 0.0
H894 H 0.03633 0.80708 0.59375 0.0
H895 H 0.06963 0.85817 0.6854 0.0
H896 H 0.01991 0.83327 0.7013 0.0
H897 H 0.96726 0.79362 0.69032 0.0
H898 H 0.93418 0.74231 0.59858 0.0
H899 H 0.9832 0.7706 0.58147 0.0
C900 C 0.03253 0.81292 0.61706 0.0
C901 C 0.05653 0.834 0.63853 0.0
C902 C 1.00392 0.79829 0.62608 0.0
C903 C 0.05147 0.84173 0.6686 0.0
C904 C 0.02307 0.82745 0.6777 0.0
C905 C 0.97079 0.78896 0.6665 0.0
C906 C 0.94721 0.76575 0.64583 0.0
C907 C 0.99917 0.80518 0.65685 0.0
C908 C 0.95202 0.75996 0.615 0.0
C909 C 0.98007 0.7761 0.60519 0.0
H910 H 0.22637 0.27905 0.62193 0.0
H911 H 0.16285 0.22513 0.6841 0.0
H912 H 0.19086 0.1995 0.69884 0.0
H913 H 0.23406 0.19316 0.69439 0.0
H914 H 0.2974 0.24756 0.632 0.0
H915 H 0.26899 0.27233 0.61701 0.0
C916 C 0.21887 0.26184 0.63886 0.0
C917 C 0.19308 0.25441 0.6525 0.0
C918 C 0.23505 0.24731 0.64712 0.0
C919 C 0.18303 0.23156 0.67383 0.0
C920 C 0.19897 0.21689 0.68216 0.0
C921 C 0.24153 0.21041 0.67751 0.0
C922 C 0.26776 0.21863 0.66439 0.0
C923 C 0.22511 0.2247 0.66906 0.0
C924 C 0.27728 0.24094 0.64249 0.0
C925 C 0.26106 0.25512 0.63389 0.0
H926 H 0.82806 0.98575 0.66563 0.0
H927 H 0.7392 0.95651 0.63141 0.0
H928 H 0.74962 0.01108 0.64025 0.0
H929 H 0.78425 0.06741 0.65742 0.0
H930 H 0.87369 0.09682 0.68981 0.0
H931 H 0.86283 0.04214 0.68229 0.0
C932 C 0.8111 0.99148 0.66004 0.0
C933 C 0.78295 0.96724 0.64793 0.0
C934 C 0.8173 0.02294 0.66508 0.0
C935 C 0.76105 0.97481 0.64075 0.0
C936 C 0.76698 1.00599 0.64588 0.0
C937 C 0.80125 0.06178 0.66316 0.0
C938 C 0.82969 0.08616 0.67436 0.0
C939 C 0.79501 0.03027 0.65814 0.0
C940 C 0.85161 0.07852 0.68117 0.0
C941 C 0.84545 0.04724 0.67682 0.0
H942 H 0.4762 0.37222 0.72835 0.0
H943 H 0.53808 0.34123 0.71318 0.0
H944 H 0.49845 0.28582 0.70806 0.0
H945 H 0.44555 0.24644 0.70477 0.0
H946 H 0.38409 0.27873 0.71808 0.0
H947 H 0.42408 0.33323 0.72714 0.0
C948 C 0.48094 0.35328 0.72402 0.0
C949 C 0.50979 0.36058 0.72071 0.0
C950 C 0.4581 0.32173 0.72066 0.0
C951 C 0.51586 0.33595 0.71549 0.0
C952 C 0.49325 0.30438 0.71256 0.0
C953 C 0.44101 0.26541 0.70997 0.0
C954 C 0.41188 0.25853 0.71047 0.0
C955 C 0.46418 0.29697 0.71464 0.0
C956 C 0.40629 0.28338 0.71716 0.0
C957 C 0.42915 0.3146 0.7224 0.0
H958 H 0.62927 0.11158 0.68531 0.0
H959 H 0.64091 0.08267 0.77493 0.0
H960 H 0.69267 0.10183 0.76854 0.0
H961 H 0.7344 0.12581 0.7366 0.0
H962 H 0.72211 0.15443 0.64687 0.0
H963 H 0.67092 0.13632 0.65399 0.0
C964 C 0.6432 0.10949 0.70337 0.0
C965 C 0.63136 0.09538 0.73033 0.0
C966 C 0.67278 0.1204 0.69943 0.0
C967 C 0.64962 0.09317 0.75383 0.0
C968 C 0.67914 0.1041 0.75017 0.0
C969 C 0.72045 0.12803 0.71867 0.0
C970 C 0.73194 0.1413 0.69121 0.0
C971 C 0.69093 0.11754 0.72293 0.0
C972 C 0.71373 0.14422 0.66819 0.0
C973 C 0.68446 0.13389 0.67223 0.0
H974 H 0.91939 0.56066 0.71911 0.0
H975 H 0.83088 0.48768 0.7278 0.0
H976 H 0.81343 0.52466 0.71883 0.0
H977 H 0.82323 0.57737 0.70686 0.0
H978 H 0.91181 0.6496 0.69618 0.0
H979 H 0.92927 0.61338 0.70771 0.0
C980 C 0.89634 0.55303 0.71947 0.0
C981 C 0.87659 0.52176 0.725 0.0
C982 C 0.88644 0.57425 0.71377 0.0
C983 C 0.84663 0.51185 0.72442 0.0
C984 C 0.83664 0.53295 0.71912 0.0
C985 C 0.84639 0.58529 0.70724 0.0
C986 C 0.86612 0.61625 0.70059 0.0
C987 C 0.85633 0.56418 0.71359 0.0
C988 C 0.89604 0.62594 0.70105 0.0
C989 C 0.9061 0.60522 0.70768 0.0
H990 H 0.48503 0.92976 0.17454 0.0
H991 H 0.44295 0.98259 0.2012 0.0
H992 H 0.46393 0.01651 0.1598 0.0
H993 H 0.4954 0.03214 0.11645 0.0
H994 H 0.54123 0.98254 0.09414 0.0
H995 H 0.51818 0.9469 0.13379 0.0
C996 C 0.48075 0.94896 0.17174 0.0
C997 C 0.46228 0.95336 0.19105 0.0
C998 C 0.49367 0.96911 0.14862 0.0
C999 C 0.45657 0.97808 0.18639 0.0
C1000 C 0.46882 0.99778 0.16288 0.0
C1001 C 0.50019 0.01347 0.1204 0.0
C1002 C 0.51953 0.00955 0.1023 0.0
C1003 C 0.48746 0.99357 0.14388 0.0
C1004 C 0.52615 0.98574 0.10774 0.0
C1005 C 0.51299 0.96536 0.13037 0.0
H1006 H 0.11457 0.53809 0.18375 0.0
H1007 H 0.03944 0.50679 0.23545 0.0
H1008 H 1.00775 0.49582 0.18679 0.0
H1009 H 1.00216 0.49782 0.1295 0.0
H1010 H 0.07868 0.53249 0.07917 0.0
H1011 H 0.10896 0.5392 0.12694 0.0
C1012 C 0.09117 0.52844 0.18413 0.0
C1013 C 0.07911 0.52286 0.21277 0.0
C1014 C 0.07339 0.52296 0.15629 0.0
C1015 C 0.04895 0.51089 0.21341 0.0
C1016 C 0.03094 0.5048 0.18568 0.0
C1017 C 0.02542 0.50666 0.12907 0.0
C1018 C 0.03804 0.5143 0.10074 0.0
C1019 C 0.04299 0.51115 0.15696 0.0
C1020 C 0.06828 0.52603 0.10054 0.0
C1021 C 0.08571 0.53003 0.12792 0.0
H1022 H 0.52067 0.59947 0.17983 0.0
H1023 H 0.46665 0.50045 0.19164 0.0
H1024 H 0.47498 0.48623 0.13945 0.0
H1025 H 0.50077 0.50195 0.09175 0.0
H1026 H 0.55931 0.6008 0.08383 0.0
H1027 H 0.54667 0.61503 0.1335 0.0
C1028 C 0.51103 0.5747 0.17141 0.0
C1029 C 0.49335 0.55115 0.19014 0.0
C1030 C 0.51697 0.56664 0.14203 0.0
C1031 C 0.48018 0.51922 0.17789 0.0
C1032 C 0.48516 0.51101 0.14808 0.0
C1033 C 0.51056 0.52655 0.10097 0.0
C1034 C 0.53101 0.55034 0.08442 0.0
C1035 C 0.50392 0.53451 0.13014 0.0
C1036 C 0.54374 0.58214 0.09643 0.0
C1037 C 0.53646 0.59027 0.12475 0.0
H1038 H 0.96533 0.46502 0.81707 0.0
H1039 H 0.88959 0.45661 0.85757 0.0
H1040 H 0.91626 0.4715 0.90996 0.0
H1041 H 0.96087 0.48522 0.94436 0.0
H1042 H 0.03756 0.49697 0.90309 0.0
H1043 H 0.01099 0.48268 0.85104 0.0
C1044 C 0.9548 0.46652 0.83745 0.0
C1045 C 0.92558 0.45951 0.83371 0.0
C1046 C 0.97046 0.47574 0.86733 0.0
C1047 C 0.91211 0.46188 0.86008 0.0
C1048 C 0.92733 0.47035 0.88996 0.0
C1049 C 0.97183 0.48505 0.92393 0.0
C1050 C 1.00111 0.49203 0.92762 0.0
C1051 C 0.9565 0.47718 0.89391 0.0
C1052 C 0.01502 0.49165 0.90092 0.0
C1053 C 0.99982 0.48338 0.87111 0.0
H1054 H 0.53715 0.43635 0.84783 0.0
H1055 H 0.57736 0.53116 0.81992 0.0
H1056 H 0.56 0.54788 0.86396 0.0
H1057 H 0.53214 0.53561 0.9099 0.0
H1058 H 0.48598 0.43949 0.93299 0.0
H1059 H 0.50623 0.42315 0.89092 0.0
C1060 C 0.54177 0.46055 0.85084 0.0
C1061 C 0.55909 0.48237 0.83048 0.0
C1062 C 0.53042 0.46983 0.87537 0.0
C1063 C 0.56503 0.51382 0.83554 0.0
C1064 C 0.55477 0.52346 0.8606 0.0
C1065 C 0.52654 0.51111 0.90553 0.0
C1066 C 0.50777 0.48877 0.92433 0.0
C1067 C 0.53741 0.50169 0.88063 0.0
C1068 C 0.50033 0.45702 0.91854 0.0
C1069 C 0.51195 0.44771 0.89459 0.0
H1070 H 0.56585 0.08082 0.85627 0.0
H1071 H 0.47843 0.0266 0.8088 0.0
H1072 H 0.46004 1.00214 0.85631 0.0
H1073 H 0.46835 0.99785 0.91217 0.0
H1074 H 0.55556 0.05079 0.95896 0.0
H1075 H 0.57468 0.07364 0.91102 0.0
C1076 C 0.54288 0.06324 0.85613 0.0
C1077 C 0.52353 0.05591 0.8291 0.0
C1078 C 0.53242 0.04903 0.88349 0.0
C1079 C 0.49374 0.03322 0.82948 0.0
C1080 C 0.48318 0.01909 0.8566 0.0
C1081 C 0.49157 0.01421 0.91171 0.0
C1082 C 0.51075 0.02247 0.939 0.0
C1083 C 0.50223 0.02718 0.88389 0.0
C1084 C 0.54068 0.0436 0.93814 0.0
C1085 C 0.55149 0.05688 0.91073 0.0
H1086 H 0.15858 0.27789 0.51703 0.0
H1087 H 0.11284 0.32797 0.53909 0.0
H1088 H 0.12784 0.35542 0.49243 0.0
H1089 H 0.15676 0.3679 0.44668 0.0
H1090 H 0.20804 0.3233 0.43033 0.0
H1091 H 0.18886 0.29188 0.47391 0.0
C1092 C 0.15226 0.29524 0.51227 0.0
C1093 C 0.13468 0.30076 0.53214 0.0
C1094 C 0.16224 0.31226 0.48635 0.0
C1095 C 0.12595 0.32259 0.52431 0.0
C1096 C 0.13482 0.33869 0.49769 0.0
C1097 C 0.16361 0.35125 0.45281 0.0
C1098 C 0.18356 0.34766 0.43534 0.0
C1099 C 0.15332 0.33406 0.47876 0.0
C1100 C 0.19262 0.32634 0.44348 0.0
C1101 C 0.18165 0.30836 0.46835 0.0
H1102 H 0.72005 0.88215 0.53771 0.0
H1103 H 0.75334 0.82022 0.51162 0.0
H1104 H 0.72657 0.80739 0.46008 0.0
H1105 H 0.69564 0.81601 0.42096 0.0
H1106 H 0.67175 0.88626 0.44443 0.0
H1107 H 0.69285 0.89356 0.49819 0.0
C1108 C 0.72227 0.86639 0.52081 0.0
C1109 C 0.73918 0.85251 0.52924 0.0
C1110 C 0.70842 0.86063 0.49035 0.0
C1111 C 0.74025 0.83104 0.50669 0.0
C1112 C 0.72517 0.8239 0.47679 0.0
C1113 C 0.69586 0.83352 0.43754 0.0
C1114 C 0.68294 0.85119 0.42829 0.0
C1115 C 0.70959 0.83898 0.46816 0.0
C1116 C 0.68186 0.87256 0.45072 0.0
C1117 C 0.69399 0.87682 0.48152 0.0
H1118 H 0.12571 0.87156 0.50639 0.0
H1119 H 0.20495 0.88553 0.55661 0.0
H1120 H 0.22188 0.87631 0.50778 0.0
H1121 H 0.21632 0.86909 0.45044 0.0
H1122 H 0.13747 0.85485 0.3998 0.0
H1123 H 0.11793 0.85874 0.4489 0.0
C1124 C 0.14636 0.87187 0.50668 0.0
C1125 C 0.16424 0.87975 0.53507 0.0
C1126 C 0.15607 0.8666 0.47838 0.0
C1127 C 0.19103 0.88017 0.53501 0.0
C1128 C 0.20073 0.87486 0.50711 0.0
C1129 C 0.19466 0.86635 0.45028 0.0
C1130 C 0.17808 0.86115 0.42166 0.0
C1131 C 0.18381 0.86891 0.4786 0.0
C1132 C 0.15016 0.85779 0.42156 0.0
C1133 C 0.13919 0.86048 0.44968 0.0
H1134 H 0.64337 0.79707 0.14209 0.0
H1135 H 0.58079 0.8241 0.16818 0.0
H1136 H 0.60346 0.8382 0.22227 0.0
H1137 H 0.63864 0.83837 0.263 0.0
H1138 H 0.69887 0.80827 0.23651 0.0
H1139 H 0.67928 0.79929 0.18187 0.0
C1140 C 0.63458 0.80595 0.15959 0.0
C1141 C 0.61023 0.8092 0.15109 0.0
C1142 C 0.64725 0.81329 0.19066 0.0
C1143 C 0.59963 0.82151 0.17399 0.0
C1144 C 0.61245 0.82937 0.20499 0.0
C1145 C 0.64789 0.83069 0.24515 0.0
C1146 C 0.67037 0.82441 0.25369 0.0
C1147 C 0.63601 0.82488 0.21371 0.0
C1148 C 0.68158 0.81335 0.23044 0.0
C1149 C 0.67038 0.80817 0.1992 0.0
H1150 H 0.24368 0.86312 0.16391 0.0
H1151 H 0.21493 0.7649 0.17317 0.0
H1152 H 0.19053 0.76664 0.21859 0.0
H1153 H 0.17454 0.79483 0.25411 0.0
H1154 H 0.2075 0.89424 0.24966 0.0
H1155 H 0.23342 0.89343 0.20442 0.0
C1156 C 0.23259 0.84223 0.17612 0.0
C1157 C 0.23039 0.8136 0.16411 0.0
C1158 C 0.21911 0.84352 0.20308 0.0
C1159 C 0.21603 0.78695 0.18077 0.0
C1160 C 0.20218 0.78792 0.20703 0.0
C1161 C 0.18745 0.81628 0.24317 0.0
C1162 C 0.18868 0.84438 0.25454 0.0
C1163 C 0.20293 0.8158 0.21792 0.0
C1164 C 0.20606 0.87227 0.24091 0.0
C1165 C 0.22086 0.87178 0.21511 0.0
H1166 H 0.22873 0.39017 0.18525 0.0
H1167 H 0.13994 0.35523 0.1445 0.0
H1168 H 0.12139 0.33269 0.19233 0.0
H1169 H 0.13033 0.32588 0.24717 0.0
H1170 H 0.21728 0.35017 0.2838 0.0
H1171 H 0.23654 0.37323 0.23569 0.0
C1172 C 0.20526 0.37699 0.18616 0.0
C1173 C 0.18608 0.37594 0.16127 0.0
C1174 C 0.19436 0.36236 0.21324 0.0
C1175 C 0.15566 0.35834 0.16359 0.0
C1176 C 0.14483 0.34489 0.1909 0.0
C1177 C 0.15346 0.33597 0.24449 0.0
C1178 C 0.17277 0.33828 0.26964 0.0
C1179 C 0.16402 0.34747 0.21616 0.0
C1180 C 0.20239 0.35009 0.26542 0.0
C1181 C 0.2133 0.36284 0.23777 0.0
H1182 H 0.76805 0.61419 0.83417 0.0
H1183 H 0.85337 0.64888 0.88433 0.0
H1184 H 0.87676 0.67708 0.84068 0.0
H1185 H 0.87349 0.69019 0.78684 0.0
H1186 H 0.78915 0.66463 0.74109 0.0
H1187 H 0.76497 0.63493 0.78424 0.0
C1188 C 0.79172 0.62833 0.83602 0.0
C1189 C 0.80865 0.628 0.86239 0.0
C1190 C 0.80535 0.64596 0.81125 0.0
C1191 C 0.83945 0.64701 0.86392 0.0
C1192 C 0.85304 0.66363 0.83901 0.0
C1193 C 0.84984 0.67829 0.78646 0.0
C1194 C 0.8329 0.67799 0.75997 0.0
C1195 C 0.83626 0.6628 0.81227 0.0
C1196 C 0.8024 0.66338 0.76028 0.0
C1197 C 0.78865 0.64688 0.78526 0.0
H1198 H 0.4199 0.16725 0.85405 0.0
H1199 H 0.40673 0.24016 0.89802 0.0
H1200 H 0.37555 0.23589 0.85199 0.0
H1201 H 0.3534 0.21306 0.79826 0.0
H1202 H 0.36257 0.13705 0.75605 0.0
H1203 H 0.3936 0.14066 0.80228 0.0
C1204 C 0.40982 0.18183 0.85391 0.0
C1205 C 0.41629 0.20443 0.87949 0.0
C1206 C 0.39131 0.17888 0.82745 0.0
C1207 C 0.40299 0.22318 0.87848 0.0
C1208 C 0.38491 0.22063 0.85218 0.0
C1209 C 0.36207 0.19717 0.79927 0.0
C1210 C 0.35636 0.17532 0.77337 0.0
C1211 C 0.37927 0.19891 0.82633 0.0
C1212 C 0.36737 0.15462 0.77524 0.0
C1213 C 0.38493 0.15655 0.80183 0.0
H1214 H 0.86251 0.20847 0.87739 0.0
H1215 H 0.79308 0.2253 0.84631 0.0
H1216 H 0.79685 0.21132 0.79175 0.0
H1217 H 0.8223 0.19748 0.75285 0.0
H1218 H 0.89022 0.17836 0.78489 0.0
H1219 H 0.8845 0.18973 0.83907 0.0
C1220 C 0.84813 0.20883 0.85859 0.0
C1221 C 0.82778 0.21811 0.86554 0.0
C1222 C 0.85019 0.2004 0.82752 0.0
C1223 C 0.80893 0.21821 0.84126 0.0
C1224 C 0.81114 0.21031 0.81016 0.0
C1225 C 0.83553 0.19541 0.77174 0.0
C1226 C 0.85685 0.18742 0.7649 0.0
C1227 C 0.832 0.20179 0.80298 0.0
C1228 C 0.87377 0.18465 0.78955 0.0
C1229 C 0.87059 0.19123 0.82056 0.0
H1230 H 0.26557 0.15431 0.51112 0.0
H1231 H 0.31687 0.11877 0.46886 0.0
H1232 H 0.34344 0.12563 0.5196 0.0
H1233 H 0.35048 0.13909 0.57627 0.0
H1234 H 0.29859 0.17288 0.61939 0.0
H1235 H 0.27431 0.17011 0.56821 0.0
C1236 C 0.28285 0.14851 0.51302 0.0
C1237 C 0.28904 0.13575 0.48629 0.0
C1238 C 0.29801 0.15236 0.54243 0.0
C1239 C 0.31135 0.12813 0.48914 0.0
C1240 C 0.32663 0.13214 0.51813 0.0
C1241 C 0.33406 0.14617 0.5744 0.0
C1242 C 0.32683 0.15701 0.60151 0.0
C1243 C 0.31984 0.14376 0.54496 0.0
C1244 C 0.30537 0.1658 0.59882 0.0
C1245 C 0.29116 0.16368 0.56953 0.0
H1246 H 0.87527 0.12128 0.50835 0.0
H1247 H 0.89927 0.21162 0.47565 0.0
H1248 H 0.88173 0.22601 0.52185 0.0
H1249 H 0.85984 0.21271 0.57244 0.0
H1250 H 0.83713 0.12217 0.60391 0.0
H1251 H 0.85306 0.10773 0.55698 0.0
C1252 C 0.87632 0.14398 0.51103 0.0
C1253 C 0.88834 0.1652 0.48843 0.0
C1254 C 0.86613 0.15194 0.5374 0.0
C1255 C 0.89027 0.19488 0.4928 0.0
C1256 C 0.88005 0.20303 0.51911 0.0
C1257 C 0.85799 0.18969 0.56857 0.0
C1258 C 0.8471 0.16839 0.59132 0.0
C1259 C 0.86787 0.18171 0.54162 0.0
C1260 C 0.84534 0.13887 0.58658 0.0
C1261 C 0.85454 0.13062 0.55983 0.0
H1262 H 0.85111 0.75946 0.52218 0.0
H1263 H 0.90389 0.72011 0.49198 0.0
H1264 H 0.89327 0.69011 0.53736 0.0
H1265 H 0.86467 0.67083 0.5832 0.0
H1266 H 0.8023 0.70034 0.60221 0.0
H1267 H 0.82002 0.73741 0.5631 0.0
C1268 C 0.85974 0.74368 0.52457 0.0
C1269 C 0.87773 0.74175 0.50277 0.0
C1270 C 0.8516 0.72447 0.54897 0.0
C1271 C 0.89002 0.72247 0.50812 0.0
C1272 C 0.88368 0.70489 0.53398 0.0
C1273 C 0.85524 0.6856 0.57873 0.0
C1274 C 0.8331 0.68394 0.59638 0.0
C1275 C 0.86388 0.70511 0.55417 0.0
C1276 C 0.82022 0.70225 0.58984 0.0
C1277 C 0.83012 0.72322 0.56723 0.0
loop_
_geom_bond_atom_site_label_1
_geom_bond_atom_site_label_2
_geom_bond_distance
_geom_bond_site_symmetry_2
_ccdc_geom_bond_type
H0 C7 0.929 . S
H1 C10 0.930 . S
H2 C12 0.929 . S
H3 C4 0.969 . S
C4 H3 0.969 . S
C4 O5 1.550 . S
C4 H6 0.973 . S
O5 C4 1.550 . S
O5 C11 1.412 . S
H6 C4 0.973 . S
C7 H0 0.929 . S
C7 C8 1.400 . S
C7 C9 1.364 . S
C8 C7 1.400 . S
C8 C12 1.377 . S
C9 C7 1.364 . S
C9 C10 1.374 . S
C10 H1 0.930 . S
C10 C9 1.374 . S
C10 C11 1.383 . S
C11 O5 1.412 . S
C11 C10 1.383 . S
C11 C12 1.394 . S
C12 H2 0.929 . S
C12 C8 1.377 . S
C12 C11 1.394 . S
H13 C20 0.929 . S
H14 C23 0.930 . S
H15 C25 0.929 . S
H16 C17 0.969 . S
C17 H16 0.969 . S
C17 O18 1.550 . S
C17 H19 0.973 . S
O18 C17 1.550 . S
O18 C24 1.412 . S
H19 C17 0.973 . S
C20 H13 0.929 . S
C20 C21 1.400 . S
C20 C22 1.364 . S
C21 C20 1.400 . S
C21 C25 1.377 . S
C22 C20 1.364 . S
C22 C23 1.374 . S
C23 H14 0.930 . S
C23 C22 1.374 . S
C23 C24 1.383 . S
C24 O18 1.412 . S
C24 C23 1.383 . S
C24 C25 1.394 . S
C25 H15 0.929 . S
C25 C21 1.377 . S
C25 C24 1.394 . S
H26 C33 0.929 . S
H27 C36 0.930 . S
H28 C38 0.929 . S
H29 C30 0.969 . S
C30 H29 0.969 . S
C30 O31 1.550 . S
C30 H32 0.973 . S
O31 C30 1.550 . S
O31 C37 1.412 . S
H32 C30 0.973 . S
C33 H26 0.929 . S
C33 C34 1.400 . S
C33 C35 1.364 . S
C34 C33 1.400 . S
C34 C38 1.377 . S
C35 C33 1.364 . S
C35 C36 1.374 . S
C36 H27 0.930 . S
C36 C35 1.374 . S
C36 C37 1.383 . S
C37 O31 1.412 . S
C37 C36 1.383 . S
C37 C38 1.394 . S
C38 H28 0.929 . S
C38 C34 1.377 . S
C38 C37 1.394 . S
H39 C46 0.929 . S
H40 C49 0.930 . S
H41 C51 0.929 . S
H42 C43 0.969 . S
C43 H42 0.969 . S
C43 O44 1.550 . S
C43 H45 0.973 . S
O44 C43 1.550 . S
O44 C50 1.412 . S
H45 C43 0.973 . S
C46 H39 0.929 . S
C46 C47 1.400 . S
C46 C48 1.364 . S
C47 C46 1.400 . S
C47 C51 1.377 . S
C48 C46 1.364 . S
C48 C49 1.374 . S
C49 H40 0.930 . S
C49 C48 1.374 . S
C49 C50 1.383 . S
C50 O44 1.412 . S
C50 C49 1.383 . S
C50 C51 1.394 . S
C51 H41 0.929 . S
C51 C47 1.377 . S
C51 C50 1.394 . S
H52 C59 0.929 . S
H53 C62 0.930 . S
H54 C64 0.929 . S
H55 C56 0.969 . S
C56 H55 0.969 . S
C56 O57 1.550 . S
C56 H58 0.973 . S
O57 C56 1.550 . S
O57 C63 1.412 . S
H58 C56 0.973 . S
C59 H52 0.929 . S
C59 C60 1.400 . S
C59 C61 1.364 . S
C60 C59 1.400 . S
C60 C64 1.377 . S
C61 C59 1.364 . S
C61 C62 1.374 . S
C62 H53 0.930 . S
C62 C61 1.374 . S
C62 C63 1.383 . S
C63 O57 1.412 . S
C63 C62 1.383 . S
C63 C64 1.394 . S
C64 H54 0.929 . S
C64 C60 1.377 . S
C64 C63 1.394 . S
H65 C72 0.929 . S
H66 C75 0.930 . S
H67 C77 0.929 . S
H68 C69 0.969 . S
C69 H68 0.969 . S
C69 O70 1.550 . S
C69 H71 0.973 . S
O70 C69 1.550 . S
O70 C76 1.412 . S
H71 C69 0.973 . S
C72 H65 0.929 . S
C72 C73 1.400 . S
C72 C74 1.364 . S
C73 C72 1.400 . S
C73 C77 1.377 . S
C74 C72 1.364 . S
C74 C75 1.374 . S
C75 H66 0.930 . S
C75 C74 1.374 . S
C75 C76 1.383 . S
C76 O70 1.412 . S
C76 C75 1.383 . S
C76 C77 1.394 . S
C77 H67 0.929 . S
C77 C73 1.377 . S
C77 C76 1.394 . S
H78 C85 0.929 . S
H79 C88 0.930 . S
H80 C90 0.929 . S
H81 C82 0.969 . S
C82 H81 0.969 . S
C82 O83 1.550 . S
C82 H84 0.973 . S
O83 C82 1.550 . S
O83 C89 1.412 . S
H84 C82 0.973 . S
C85 H78 0.929 . S
C85 C86 1.400 . S
C85 C87 1.364 . S
C86 C85 1.400 . S
C86 C90 1.377 . S
C87 C85 1.364 . S
C87 C88 1.374 . S
C88 H79 0.930 . S
C88 C87 1.374 . S
C88 C89 1.383 . S
C89 O83 1.412 . S
C89 C88 1.383 . S
C89 C90 1.394 . S
C90 H80 0.929 . S
C90 C86 1.377 . S
C90 C89 1.394 . S
H91 C98 0.929 . S
H92 C101 0.930 . S
H93 C103 0.929 . S
H94 C95 0.969 . S
C95 H94 0.969 . S
C95 O96 1.550 . S
C95 H97 0.973 . S
O96 C95 1.550 . S
O96 C102 1.412 . S
H97 C95 0.973 . S
C98 H91 0.929 . S
C98 C99 1.400 . S
C98 C100 1.364 . S
C99 C98 1.400 . S
C99 C103 1.377 . S
C100 C98 1.364 . S
C100 C101 1.374 . S
C101 H92 0.930 . S
C101 C100 1.374 . S
C101 C102 1.383 . S
C102 O96 1.412 . S
C102 C101 1.383 . S
C102 C103 1.394 . S
C103 H93 0.929 . S
C103 C99 1.377 . S
C103 C102 1.394 . S
H104 C111 0.929 . S
H105 C114 0.930 . S
H106 C116 0.929 . S
H107 C108 0.969 . S
C108 H107 0.969 . S
C108 O109 1.550 . S
C108 H110 0.973 . S
O109 C108 1.550 . S
O109 C115 1.412 . S
H110 C108 0.973 . S
C111 H104 0.929 . S
C111 C112 1.400 . S
C111 C113 1.364 . S
C112 C111 1.400 . S
C112 C116 1.377 . S
C113 C111 1.364 . S
C113 C114 1.374 . S
C114 H105 0.930 . S
C114 C113 1.374 . S
C114 C115 1.383 . S
C115 O109 1.412 . S
C115 C114 1.383 . S
C115 C116 1.394 . S
C116 H106 0.929 . S
C116 C112 1.377 . S
C116 C115 1.394 . S
H117 C124 0.929 . S
H118 C127 0.930 . S
H119 C129 0.929 . S
H120 C121 0.969 . S
C121 H120 0.969 . S
C121 O122 1.550 . S
C121 H123 0.973 . S
O122 C121 1.550 . S
O122 C128 1.412 . S
H123 C121 0.973 . S
C124 H117 0.929 . S
C124 C125 1.400 . S
C124 C126 1.364 . S
C125 C124 1.400 . S
C125 C129 1.377 . S
C126 C124 1.364 . S
C126 C127 1.374 . S
C127 H118 0.930 . S
C127 C126 1.374 . S
C127 C128 1.383 . S
C128 O122 1.412 . S
C128 C127 1.383 . S
C128 C129 1.394 . S
C129 H119 0.929 . S
C129 C125 1.377 . S
C129 C128 1.394 . S
H130 C137 0.929 . S
H131 C140 0.930 . S
H132 C142 0.929 . S
H133 C134 0.969 . S
C134 H133 0.969 . S
C134 O135 1.550 . S
C134 H136 0.973 . S
O135 C134 1.550 . S
O135 C141 1.412 . S
H136 C134 0.973 . S
C137 H130 0.929 . S
C137 C138 1.400 . S
C137 C139 1.364 . S
C138 C137 1.400 . S
C138 C142 1.377 . S
C139 C137 1.364 . S
C139 C140 1.374 . S
C140 H131 0.930 . S
C140 C139 1.374 . S
C140 C141 1.383 . S
C141 O135 1.412 . S
C141 C140 1.383 . S
C141 C142 1.394 . S
C142 H132 0.929 . S
C142 C138 1.377 . S
C142 C141 1.394 . S
H143 C150 0.929 . S
H144 C153 0.930 . S
H145 C155 0.929 . S
H146 C147 0.969 . S
C147 H146 0.969 . S
C147 O148 1.550 . S
C147 H149 0.973 . S
O148 C147 1.550 . S
O148 C154 1.412 . S
H149 C147 0.973 . S
C150 H143 0.929 . S
C150 C151 1.400 . S
C150 C152 1.364 . S
C151 C150 1.400 . S
C151 C155 1.377 . S
C152 C150 1.364 . S
C152 C153 1.374 . S
C153 H144 0.930 . S
C153 C152 1.374 . S
C153 C154 1.383 . S
C154 O148 1.412 . S
C154 C153 1.383 . S
C154 C155 1.394 . S
C155 H145 0.929 . S
C155 C151 1.377 . S
C155 C154 1.394 . S
H156 C163 0.929 . S
H157 C166 0.930 . S
H158 C168 0.929 . S
H159 C160 0.969 . S
C160 H159 0.969 . S
C160 O161 1.550 . S
C160 H162 0.973 . S
O161 C160 1.550 . S
O161 C167 1.412 . S
H162 C160 0.973 . S
C163 H156 0.929 . S
C163 C164 1.400 . S
C163 C165 1.364 . S
C164 C163 1.400 . S
C164 C168 1.377 . S
C165 C163 1.364 . S
C165 C166 1.374 . S
C166 H157 0.930 . S
C166 C165 1.374 . S
C166 C167 1.383 . S
C167 O161 1.412 . S
C167 C166 1.383 . S
C167 C168 1.394 . S
C168 H158 0.929 . S
C168 C164 1.377 . S
C168 C167 1.394 . S
H169 C176 0.929 . S
H170 C179 0.930 . S
H171 C181 0.929 . S
H172 C173 0.969 . S
C173 H172 0.969 . S
C173 O174 1.550 . S
C173 H175 0.973 . S
O174 C173 1.550 . S
O174 C180 1.412 . S
H175 C173 0.973 . S
C176 H169 0.929 . S
C176 C177 1.400 . S
C176 C178 1.364 . S
C177 C176 1.400 . S
C177 C181 1.377 . S
C178 C176 1.364 . S
C178 C179 1.374 . S
C179 H170 0.930 . S
C179 C178 1.374 . S
C179 C180 1.383 . S
C180 O174 1.412 . S
C180 C179 1.383 . S
C180 C181 1.394 . S
C181 H171 0.929 . S
C181 C177 1.377 . S
C181 C180 1.394 . S
H182 C189 0.929 . S
H183 C192 0.930 . S
H184 C194 0.929 . S
H185 C186 0.969 . S
C186 H185 0.969 . S
C186 O187 1.550 . S
C186 H188 0.973 . S
O187 C186 1.550 . S
O187 C193 1.412 . S
H188 C186 0.973 . S
C189 H182 0.929 . S
C189 C190 1.400 . S
C189 C191 1.364 . S
C190 C189 1.400 . S
C190 C194 1.377 . S
C191 C189 1.364 . S
C191 C192 1.374 . S
C192 H183 0.930 . S
C192 C191 1.374 . S
C192 C193 1.383 . S
C193 O187 1.412 . S
C193 C192 1.383 . S
C193 C194 1.394 . S
C194 H184 0.929 . S
C194 C190 1.377 . S
C194 C193 1.394 . S
H195 C202 0.929 . S
H196 C205 0.930 . S
H197 C207 0.929 . S
H198 C199 0.969 . S
C199 H198 0.969 . S
C199 O200 1.550 . S
C199 H201 0.973 . S
O200 C199 1.550 . S
O200 C206 1.412 . S
H201 C199 0.973 . S
C202 H195 0.929 . S
C202 C203 1.400 . S
C202 C204 1.364 . S
C203 C202 1.400 . S
C203 C207 1.377 . S
C204 C202 1.364 . S
C204 C205 1.374 . S
C205 H196 0.930 . S
C205 C204 1.374 . S
C205 C206 1.383 . S
C206 O200 1.412 . S
C206 C205 1.383 . S
C206 C207 1.394 . S
C207 H197 0.929 . S
C207 C203 1.377 . S
C207 C206 1.394 . S
H208 C215 0.929 . S
H209 C218 0.930 . S
H210 C220 0.929 . S
H211 C212 0.969 . S
C212 H211 0.969 . S
C212 O213 1.550 . S
C212 H214 0.973 . S
O213 C212 1.550 . S
O213 C219 1.412 . S
H214 C212 0.973 . S
C215 H208 0.929 . S
C215 C216 1.400 . S
C215 C217 1.364 . S
C216 C215 1.400 . S
C216 C220 1.377 . S
C217 C215 1.364 . S
C217 C218 1.374 . S
C218 H209 0.930 . S
C218 C217 1.374 . S
C218 C219 1.383 . S
C219 O213 1.412 . S
C219 C218 1.383 . S
C219 C220 1.394 . S
C220 H210 0.929 . S
C220 C216 1.377 . S
C220 C219 1.394 . S
H221 C228 0.929 . S
H222 C231 0.930 . S
H223 C233 0.929 . S
H224 C225 0.969 . S
C225 H224 0.969 . S
C225 O226 1.550 . S
C225 H227 0.973 . S
O226 C225 1.550 . S
O226 C232 1.412 . S
H227 C225 0.973 . S
C228 H221 0.929 . S
C228 C229 1.400 . S
C228 C230 1.364 . S
C229 C228 1.400 . S
C229 C233 1.377 . S
C230 C228 1.364 . S
C230 C231 1.374 . S
C231 H222 0.930 . S
C231 C230 1.374 . S
C231 C232 1.383 . S
C232 O226 1.412 . S
C232 C231 1.383 . S
C232 C233 1.394 . S
C233 H223 0.929 . S
C233 C229 1.377 . S
C233 C232 1.394 . S
Tb234 O237 2.453 . S
Tb234 O238 2.596 1_545 S
Tb234 O239 2.374 1_545 S
Tb234 O247 2.343 1_554 S
Tb234 O249 2.353 . S
Tb234 O251 2.427 . S
Tb234 O252 2.513 1_554 S
C235 O239 1.251 . S
C235 O241 1.263 1_554 S
Tb236 O238 2.343 1_556 S
Tb236 O241 2.353 . S
Tb236 O244 2.427 1_556 S
Tb236 O245 2.513 1_556 S
Tb236 O246 2.453 . S
Tb236 O247 2.596 1_565 S
Tb236 O248 2.374 1_565 S
O237 Tb234 2.453 . S
O237 C253 1.245 1_545 S
O238 Tb234 2.596 1_565 S
O238 Tb236 2.343 1_554 S
O238 C253 1.259 . S
O239 Tb234 2.374 1_565 S
O239 C235 1.251 . S
C240 O244 1.275 . S
C240 O245 1.246 . S
O241 C235 1.263 1_556 S
O241 Tb236 2.353 . S
C242 O246 1.245 1_545 S
C242 O247 1.259 . S
C243 O248 1.250 1_554 S
C243 O249 1.263 . S
O244 Tb236 2.427 1_554 S
O244 C240 1.275 . S
O245 Tb236 2.513 1_554 S
O245 C240 1.246 . S
O246 Tb236 2.453 . S
O246 C242 1.245 1_565 S
O247 Tb234 2.343 1_556 S
O247 Tb236 2.596 1_545 S
O247 C242 1.259 . S
O248 Tb236 2.374 1_545 S
O248 C243 1.250 1_556 S
O249 Tb234 2.353 . S
O249 C243 1.263 . S
C250 O251 1.275 1_556 S
C250 O252 1.246 . S
O251 Tb234 2.427 . S
O251 C250 1.275 1_554 S
O252 Tb234 2.513 1_556 S
O252 C250 1.246 . S
C253 O237 1.245 1_565 S
C253 O238 1.259 . S
Tb254 O257 2.453 . S
Tb254 O258 2.596 1_655 S
Tb254 O259 2.374 1_655 S
Tb254 O267 2.343 1_554 S
Tb254 O269 2.353 . S
Tb254 O271 2.427 1_554 S
Tb254 O272 2.513 1_554 S
C255 O259 1.251 . S
C255 O261 1.255 1_554 S
Tb256 O258 2.343 1_556 S
Tb256 O261 2.355 . S
Tb256 O264 2.427 1_556 S
Tb256 O265 2.513 1_556 S
Tb256 O266 2.453 . S
Tb256 O267 2.596 1_455 S
Tb256 O268 2.374 1_455 S
O257 Tb254 2.453 . S
O257 C273 1.245 1_655 S
O258 Tb254 2.596 1_455 S
O258 Tb256 2.343 1_554 S
O258 C273 1.259 . S
O259 Tb254 2.374 1_455 S
O259 C255 1.251 . S
C260 O264 1.275 . S
C260 O265 1.246 . S
O261 C255 1.255 1_556 S
O261 Tb256 2.355 . S
C262 O266 1.245 1_655 S
C262 O267 1.259 . S
C263 O268 1.250 . S
C263 O269 1.263 1_556 S
O264 Tb256 2.427 1_554 S
O264 C260 1.275 . S
O265 Tb256 2.513 1_554 S
O265 C260 1.246 . S
O266 Tb256 2.453 . S
O266 C262 1.245 1_455 S
O267 Tb254 2.343 1_556 S
O267 Tb256 2.596 1_655 S
O267 C262 1.259 . S
O268 Tb256 2.374 1_655 S
O268 C263 1.250 . S
O269 Tb254 2.353 . S
O269 C263 1.263 1_554 S
C270 O271 1.275 . S
C270 O272 1.246 . S
O271 Tb254 2.427 1_556 S
O271 C270 1.275 . S
O272 Tb254 2.513 1_556 S
O272 C270 1.246 . S
C273 O257 1.245 1_455 S
C273 O258 1.259 . S
Tb274 O277 2.453 . S
Tb274 O278 2.596 . S
Tb274 O279 2.374 . S
Tb274 O287 2.343 1_556 S
Tb274 O289 2.353 1_556 S
Tb274 O291 2.427 1_556 S
Tb274 O292 2.513 1_556 S
C275 O279 1.251 1_554 S
C275 O281 1.263 . S
Tb276 O278 2.343 1_554 S
Tb276 O281 2.353 . S
Tb276 O284 2.434 . S
Tb276 O285 2.513 1_554 S
Tb276 O286 2.453 . S
Tb276 O287 2.596 . S
Tb276 O288 2.374 . S
O277 Tb274 2.453 . S
O277 C293 1.245 . S
O278 Tb274 2.596 . S
O278 Tb276 2.343 1_556 S
O278 C293 1.259 . S
O279 Tb274 2.374 . S
O279 C275 1.251 1_556 S
C280 O284 1.268 1_556 S
C280 O285 1.246 . S
O281 C275 1.263 . S
O281 Tb276 2.353 . S
C282 O286 1.245 . S
C282 O287 1.259 . S
C283 O288 1.250 . S
C283 O289 1.269 . S
O284 Tb276 2.434 . S
O284 C280 1.268 1_554 S
O285 Tb276 2.513 1_556 S
O285 C280 1.246 . S
O286 Tb276 2.453 . S
O286 C282 1.245 . S
O287 Tb274 2.343 1_554 S
O287 Tb276 2.596 . S
O287 C282 1.259 . S
O288 Tb276 2.374 . S
O288 C283 1.250 . S
O289 Tb274 2.353 1_554 S
O289 C283 1.269 . S
C290 O291 1.275 . S
C290 O292 1.246 . S
O291 Tb274 2.427 1_554 S
O291 C290 1.275 . S
O292 Tb274 2.513 1_554 S
O292 C290 1.246 . S
C293 O277 1.245 . S
C293 O278 1.259 . S
Tb294 O297 2.453 . S
Tb294 O298 2.596 . S
Tb294 O299 2.374 . S
Tb294 O307 2.343 . S
Tb294 O309 2.353 . S
Tb294 O311 2.427 . S
Tb294 O312 2.513 . S
C295 O299 1.251 . S
C295 O301 1.263 . S
Tb296 O298 2.343 . S
Tb296 O301 2.353 . S
Tb296 O304 2.427 . S
Tb296 O305 2.513 . S
Tb296 O306 2.453 . S
Tb296 O307 2.596 . S
Tb296 O308 2.374 . S
O297 Tb294 2.453 . S
O297 C313 1.245 . S
O298 Tb294 2.596 . S
O298 Tb296 2.343 . S
O298 C313 1.259 . S
O299 Tb294 2.374 . S
O299 C295 1.251 . S
C300 O304 1.275 . S
C300 O305 1.246 . S
O301 C295 1.263 . S
O301 Tb296 2.353 . S
C302 O306 1.245 . S
C302 O307 1.259 . S
C303 O308 1.250 . S
C303 O309 1.263 . S
O304 Tb296 2.427 . S
O304 C300 1.275 . S
O305 Tb296 2.513 . S
O305 C300 1.246 . S
O306 Tb296 2.453 . S
O306 C302 1.245 . S
O307 Tb294 2.343 . S
O307 Tb296 2.596 . S
O307 C302 1.259 . S
O308 Tb296 2.374 . S
O308 C303 1.250 . S
O309 Tb294 2.353 . S
O309 C303 1.263 . S
C310 O311 1.275 . S
C310 O312 1.246 . S
O311 Tb294 2.427 . S
O311 C310 1.275 . S
O312 Tb294 2.513 . S
O312 C310 1.246 . S
C313 O297 1.245 . S
C313 O298 1.259 . S
Tb314 O317 2.453 . S
Tb314 O318 2.596 . S
Tb314 O319 2.374 . S
Tb314 O327 2.343 . S
Tb314 O329 2.353 . S
Tb314 O331 2.427 . S
Tb314 O332 2.513 . S
C315 O319 1.251 . S
C315 O321 1.263 . S
Tb316 O318 2.343 . S
Tb316 O321 2.353 . S
Tb316 O324 2.427 . S
Tb316 O325 2.513 . S
Tb316 O326 2.453 . S
Tb316 O327 2.596 . S
Tb316 O328 2.374 . S
O317 Tb314 2.453 . S
O317 C333 1.245 . S
O318 Tb314 2.596 . S
O318 Tb316 2.343 . S
O318 C333 1.259 . S
O319 Tb314 2.374 . S
O319 C315 1.251 . S
C320 O324 1.275 . S
C320 O325 1.246 . S
O321 C315 1.263 . S
O321 Tb316 2.353 . S
C322 O326 1.245 . S
C322 O327 1.259 . S
C323 O328 1.250 . S
C323 O329 1.263 . S
O324 Tb316 2.427 . S
O324 C320 1.275 . S
O325 Tb316 2.513 . S
O325 C320 1.246 . S
O326 Tb316 2.453 . S
O326 C322 1.245 . S
O327 Tb314 2.343 . S
O327 Tb316 2.596 . S
O327 C322 1.259 . S
O328 Tb316 2.374 . S
O328 C323 1.250 . S
O329 Tb314 2.353 . S
O329 C323 1.263 . S
C330 O331 1.275 . S
C330 O332 1.246 . S
O331 Tb314 2.427 . S
O331 C330 1.275 . S
O332 Tb314 2.513 . S
O332 C330 1.246 . S
C333 O317 1.245 . S
C333 O318 1.259 . S
Tb334 O337 2.453 . S
Tb334 O338 2.596 . S
Tb334 O339 2.374 . S
Tb334 O347 2.343 . S
Tb334 O349 2.353 . S
Tb334 O351 2.427 . S
Tb334 O352 2.513 . S
C335 O339 1.251 . S
C335 O341 1.263 . S
Tb336 O338 2.343 . S
Tb336 O341 2.353 . S
Tb336 O344 2.427 . S
Tb336 O345 2.513 . S
Tb336 O346 2.453 . S
Tb336 O347 2.596 . S
Tb336 O348 2.374 . S
O337 Tb334 2.453 . S
O337 C353 1.245 . S
O338 Tb334 2.596 . S
O338 Tb336 2.343 . S
O338 C353 1.259 . S
O339 Tb334 2.374 . S
O339 C335 1.251 . S
C340 O344 1.275 . S
C340 O345 1.246 . S
O341 C335 1.263 . S
O341 Tb336 2.353 . S
C342 O346 1.245 . S
C342 O347 1.259 . S
C343 O348 1.250 . S
C343 O349 1.263 . S
O344 Tb336 2.427 . S
O344 C340 1.275 . S
O345 Tb336 2.513 . S
O345 C340 1.246 . S
O346 Tb336 2.453 . S
O346 C342 1.245 . S
O347 Tb334 2.343 . S
O347 Tb336 2.596 . S
O347 C342 1.259 . S
O348 Tb336 2.374 . S
O348 C343 1.250 . S
O349 Tb334 2.353 . S
O349 C343 1.263 . S
C350 O351 1.275 . S
C350 O352 1.246 . S
O351 Tb334 2.427 . S
O351 C350 1.275 . S
O352 Tb334 2.513 . S
O352 C350 1.246 . S
C353 O337 1.245 . S
C353 O338 1.259 . S
Tb354 O357 2.453 . S
Tb354 O358 2.596 . S
Tb354 O359 2.374 . S
Tb354 O367 2.343 . S
Tb354 O369 2.353 . S
Tb354 O371 2.427 . S
Tb354 O372 2.513 . S
C355 O359 1.251 . S
C355 O361 1.263 . S
Tb356 O358 2.343 . S
Tb356 O361 2.353 . S
Tb356 O364 2.427 . S
Tb356 O365 2.513 . S
Tb356 O366 2.453 . S
Tb356 O367 2.596 . S
Tb356 O368 2.374 . S
O357 Tb354 2.453 . S
O357 C373 1.245 . S
O358 Tb354 2.596 . S
O358 Tb356 2.343 . S
O358 C373 1.259 . S
O359 Tb354 2.374 . S
O359 C355 1.251 . S
C360 O364 1.275 . S
C360 O365 1.246 . S
O361 C355 1.263 . S
O361 Tb356 2.353 . S
C362 O366 1.245 . S
C362 O367 1.259 . S
C363 O368 1.250 . S
C363 O369 1.263 . S
O364 Tb356 2.427 . S
O364 C360 1.275 . S
O365 Tb356 2.513 . S
O365 C360 1.246 . S
O366 Tb356 2.453 . S
O366 C362 1.245 . S
O367 Tb354 2.343 . S
O367 Tb356 2.596 . S
O367 C362 1.259 . S
O368 Tb356 2.374 . S
O368 C363 1.250 . S
O369 Tb354 2.353 . S
O369 C363 1.263 . S
C370 O371 1.275 . S
C370 O372 1.246 . S
O371 Tb354 2.427 . S
O371 C370 1.275 . S
O372 Tb354 2.513 . S
O372 C370 1.246 . S
C373 O357 1.245 . S
C373 O358 1.259 . S
Tb374 O377 2.453 . S
Tb374 O378 2.596 . S
Tb374 O379 2.374 . S
Tb374 O387 2.343 . S
Tb374 O389 2.353 . S
Tb374 O391 2.427 . S
Tb374 O392 2.513 . S
C375 O379 1.251 . S
C375 O381 1.263 . S
Tb376 O378 2.343 . S
Tb376 O381 2.353 . S
Tb376 O384 2.427 . S
Tb376 O385 2.513 . S
Tb376 O386 2.453 . S
Tb376 O387 2.596 . S
Tb376 O388 2.374 . S
O377 Tb374 2.453 . S
O377 C393 1.245 . S
O378 Tb374 2.596 . S
O378 Tb376 2.343 . S
O378 C393 1.259 . S
O379 Tb374 2.374 . S
O379 C375 1.251 . S
C380 O384 1.275 . S
C380 O385 1.246 . S
O381 C375 1.263 . S
O381 Tb376 2.353 . S
C382 O386 1.245 . S
C382 O387 1.259 . S
C383 O388 1.250 . S
C383 O389 1.263 . S
O384 Tb376 2.427 . S
O384 C380 1.275 . S
O385 Tb376 2.513 . S
O385 C380 1.246 . S
O386 Tb376 2.453 . S
O386 C382 1.245 . S
O387 Tb374 2.343 . S
O387 Tb376 2.596 . S
O387 C382 1.259 . S
O388 Tb376 2.374 . S
O388 C383 1.250 . S
O389 Tb374 2.353 . S
O389 C383 1.263 . S
C390 O391 1.275 . S
C390 O392 1.246 . S
O391 Tb374 2.427 . S
O391 C390 1.275 . S
O392 Tb374 2.513 . S
O392 C390 1.246 . S
C393 O377 1.245 . S
C393 O378 1.259 . S
Tb394 O397 2.453 . S
Tb394 O398 2.596 . S
Tb394 O399 2.374 . S
Tb394 O407 2.343 . S
Tb394 O409 2.353 . S
Tb394 O411 2.427 . S
Tb394 O412 2.513 . S
C395 O399 1.251 . S
C395 O401 1.263 . S
Tb396 O398 2.343 . S
Tb396 O401 2.353 . S
Tb396 O404 2.427 . S
Tb396 O405 2.513 . S
Tb396 O406 2.453 . S
Tb396 O407 2.596 . S
Tb396 O408 2.374 . S
O397 Tb394 2.453 . S
O397 C413 1.245 . S
O398 Tb394 2.596 . S
O398 Tb396 2.343 . S
O398 C413 1.259 . S
O399 Tb394 2.374 . S
O399 C395 1.251 . S
C400 O404 1.275 . S
C400 O405 1.246 . S
O401 C395 1.263 . S
O401 Tb396 2.353 . S
C402 O406 1.245 . S
C402 O407 1.259 . S
C403 O408 1.250 . S
C403 O409 1.263 . S
O404 Tb396 2.427 . S
O404 C400 1.275 . S
O405 Tb396 2.513 . S
O405 C400 1.246 . S
O406 Tb396 2.453 . S
O406 C402 1.245 . S
O407 Tb394 2.343 . S
O407 Tb396 2.596 . S
O407 C402 1.259 . S
O408 Tb396 2.374 . S
O408 C403 1.250 . S
O409 Tb394 2.353 . S
O409 C403 1.263 . S
C410 O411 1.275 . S
C410 O412 1.246 . S
O411 Tb394 2.427 . S
O411 C410 1.275 . S
O412 Tb394 2.513 . S
O412 C410 1.246 . S
C413 O397 1.245 . S
C413 O398 1.259 . S
H414 C420 0.930 . S
H415 C423 0.930 . S
H416 C424 0.930 1_556 S
H417 C425 0.965 . S
H418 C428 0.930 . S
H419 C429 0.930 . S
C420 H414 0.930 . S
C420 C421 1.355 . S
C420 C422 1.415 . S
C421 C420 1.355 . S
C421 C423 1.419 . S
C422 C420 1.415 . S
C422 C427 1.425 . S
C422 C429 1.409 . S
C423 H415 0.930 . S
C423 C421 1.419 . S
C423 C424 1.362 . S
C424 H416 0.930 1_554 S
C424 C423 1.362 . S
C424 C427 1.409 . S
C425 H417 0.965 . S
C425 C426 1.355 . S
C425 C427 1.415 . S
C426 C425 1.355 . S
C426 C428 1.419 . S
C427 C422 1.425 . S
C427 C424 1.409 . S
C427 C425 1.415 . S
C428 H418 0.930 . S
C428 C426 1.419 . S
C428 C429 1.362 . S
C429 H419 0.930 . S
C429 C422 1.409 . S
C429 C428 1.362 . S
H430 C436 0.930 . S
H431 C439 0.930 . S
H432 C440 0.930 . S
H433 C441 0.930 . S
H434 C444 0.930 . S
H435 C445 0.930 . S
C436 H430 0.930 . S
C436 C437 1.355 . S
C436 C438 1.415 . S
C437 C436 1.355 . S
C437 C439 1.419 . S
C438 C436 1.415 . S
C438 C443 1.425 . S
C438 C445 1.409 . S
C439 H431 0.930 . S
C439 C437 1.419 . S
C439 C440 1.362 . S
C440 H432 0.930 . S
C440 C439 1.362 . S
C440 C443 1.409 . S
C441 H433 0.930 . S
C441 C442 1.355 . S
C441 C443 1.415 . S
C442 C441 1.355 . S
C442 C444 1.419 . S
C443 C438 1.425 . S
C443 C440 1.409 . S
C443 C441 1.415 . S
C444 H434 0.930 . S
C444 C442 1.419 . S
C444 C445 1.362 . S
C445 H435 0.930 . S
C445 C438 1.409 . S
C445 C444 1.362 . S
H446 C452 0.930 . S
H447 C455 0.930 . S
H448 C456 0.930 . S
H449 C457 0.930 . S
H450 C460 0.930 1_556 S
H451 C461 0.930 1_556 S
C452 H446 0.930 . S
C452 C453 1.355 . S
C452 C454 1.415 . S
C453 C452 1.355 . S
C453 C455 1.419 . S
C454 C452 1.415 . S
C454 C459 1.425 . S
C454 C461 1.409 . S
C455 H447 0.930 . S
C455 C453 1.419 . S
C455 C456 1.362 . S
C456 H448 0.930 . S
C456 C455 1.362 . S
C456 C459 1.409 . S
C457 H449 0.930 . S
C457 C458 1.355 . S
C457 C459 1.415 . S
C458 C457 1.355 . S
C458 C460 1.419 . S
C459 C454 1.425 . S
C459 C456 1.409 . S
C459 C457 1.415 . S
C460 H450 0.930 1_554 S
C460 C458 1.419 . S
C460 C461 1.362 . S
C461 H451 0.930 1_554 S
C461 C454 1.409 . S
C461 C460 1.362 . S
H462 C468 0.930 . S
H463 C471 0.930 . S
H464 C472 0.930 . S
H465 C473 0.930 . S
H466 C476 0.930 1_554 S
H467 C477 0.930 . S
C468 H462 0.930 . S
C468 C469 1.355 . S
C468 C470 1.415 . S
C469 C468 1.355 . S
C469 C471 1.419 . S
C470 C468 1.415 . S
C470 C475 1.425 . S
C470 C477 1.409 . S
C471 H463 0.930 . S
C471 C469 1.419 . S
C471 C472 1.362 . S
C472 H464 0.930 . S
C472 C471 1.362 . S
C472 C475 1.409 . S
C473 H465 0.930 . S
C473 C474 1.355 . S
C473 C475 1.415 . S
C474 C473 1.355 . S
C474 C476 1.419 . S
C475 C470 1.425 . S
C475 C472 1.409 . S
C475 C473 1.415 . S
C476 H466 0.930 1_556 S
C476 C474 1.419 . S
C476 C477 1.362 . S
C477 H467 0.930 . S
C477 C470 1.409 . S
C477 C476 1.362 . S
H478 C484 0.930 . S
H479 C487 0.930 . S
H480 C488 0.930 . S
H481 C489 0.930 . S
H482 C492 0.930 . S
H483 C493 0.930 . S
C484 H478 0.930 . S
C484 C485 1.355 . S
C484 C486 1.415 . S
C485 C484 1.355 . S
C485 C487 1.419 . S
C486 C484 1.415 . S
C486 C491 1.425 . S
C486 C493 1.409 . S
C487 H479 0.930 . S
C487 C485 1.419 . S
C487 C488 1.362 . S
C488 H480 0.930 . S
C488 C487 1.362 . S
C488 C491 1.409 . S
C489 H481 0.930 . S
C489 C490 1.355 . S
C489 C491 1.415 . S
C490 C489 1.355 . S
C490 C492 1.419 . S
C491 C486 1.425 . S
C491 C488 1.409 . S
C491 C489 1.415 . S
C492 H482 0.930 . S
C492 C490 1.419 . S
C492 C493 1.362 . S
C493 H483 0.930 . S
C493 C486 1.409 . S
C493 C492 1.362 . S
H494 C500 0.930 1_554 S
H495 C503 0.930 . S
H496 C504 0.930 . S
H497 C505 0.930 . S
H498 C508 0.930 . S
H499 C509 0.930 . S
C500 H494 0.930 1_556 S
C500 C501 1.355 . S
C500 C502 1.415 . S
C501 C500 1.355 . S
C501 C503 1.419 . S
C502 C500 1.415 . S
C502 C507 1.425 . S
C502 C509 1.409 1_556 S
C503 H495 0.930 . S
C503 C501 1.419 . S
C503 C504 1.362 . S
C504 H496 0.930 . S
C504 C503 1.362 . S
C504 C507 1.409 . S
C505 H497 0.930 . S
C505 C506 1.355 . S
C505 C507 1.415 . S
C506 C505 1.355 . S
C506 C508 1.419 1_556 S
C507 C502 1.425 . S
C507 C504 1.409 . S
C507 C505 1.415 . S
C508 H498 0.930 . S
C508 C506 1.419 1_554 S
C508 C509 1.362 . S
C509 H499 0.930 . S
C509 C502 1.409 1_554 S
C509 C508 1.362 . S
H510 C516 0.930 . S
H511 C519 0.930 . S
H512 C520 0.930 . S
H513 C521 0.930 . S
H514 C524 0.930 . S
H515 C525 0.930 . S
C516 H510 0.930 . S
C516 C517 1.355 . S
C516 C518 1.415 . S
C517 C516 1.355 . S
C517 C519 1.419 . S
C518 C516 1.415 . S
C518 C523 1.425 . S
C518 C525 1.409 1_556 S
C519 H511 0.930 . S
C519 C517 1.419 . S
C519 C520 1.362 . S
C520 H512 0.930 . S
C520 C519 1.362 . S
C520 C523 1.409 . S
C521 H513 0.930 . S
C521 C522 1.355 . S
C521 C523 1.415 . S
C522 C521 1.355 . S
C522 C524 1.419 1_556 S
C523 C518 1.425 . S
C523 C520 1.409 . S
C523 C521 1.415 . S
C524 H514 0.930 . S
C524 C522 1.419 1_554 S
C524 C525 1.362 . S
C525 H515 0.930 . S
C525 C518 1.409 1_554 S
C525 C524 1.362 . S
H526 C532 0.930 . S
H527 C535 0.930 . S
H528 C536 0.930 . S
H529 C537 0.930 . S
H530 C540 0.930 . S
H531 C541 0.930 . S
C532 H526 0.930 . S
C532 C533 1.355 . S
C532 C534 1.415 . S
C533 C532 1.355 . S
C533 C535 1.419 . S
C534 C532 1.415 . S
C534 C539 1.425 . S
C534 C541 1.409 . S
C535 H527 0.930 . S
C535 C533 1.419 . S
C535 C536 1.362 . S
C536 H528 0.930 . S
C536 C535 1.362 . S
C536 C539 1.409 . S
C537 H529 0.930 . S
C537 C538 1.355 . S
C537 C539 1.415 . S
C538 C537 1.355 . S
C538 C540 1.419 . S
C539 C534 1.425 . S
C539 C536 1.409 . S
C539 C537 1.415 . S
C540 H530 0.930 . S
C540 C538 1.419 . S
C540 C541 1.362 . S
C541 H531 0.930 . S
C541 C534 1.409 . S
C541 C540 1.362 . S
H542 C548 0.925 1_554 S
H543 C551 0.930 . S
H544 C552 0.930 . S
H545 C553 0.930 . S
H546 C556 0.930 . S
H547 C557 0.930 . S
C548 H542 0.925 1_556 S
C548 C549 1.355 . S
C548 C550 1.415 . S
C549 C548 1.355 . S
C549 C551 1.419 . S
C550 C548 1.415 . S
C550 C555 1.425 . S
C550 C557 1.409 1_556 S
C551 H543 0.930 . S
C551 C549 1.419 . S
C551 C552 1.362 . S
C552 H544 0.930 . S
C552 C551 1.362 . S
C552 C555 1.409 . S
C553 H545 0.930 . S
C553 C554 1.355 . S
C553 C555 1.415 . S
C554 C553 1.355 . S
C554 C556 1.419 1_556 S
C555 C550 1.425 . S
C555 C552 1.409 . S
C555 C553 1.415 . S
C556 H546 0.930 . S
C556 C554 1.419 1_554 S
C556 C557 1.362 . S
C557 H547 0.930 . S
C557 C550 1.409 1_554 S
C557 C556 1.362 . S
H558 C564 0.930 . S
H559 C567 0.930 . S
H560 C568 0.930 . S
H561 C569 0.930 . S
H562 C572 0.930 1_556 S
H563 C573 0.930 1_556 S
C564 H558 0.930 . S
C564 C565 1.355 . S
C564 C566 1.415 . S
C565 C564 1.355 . S
C565 C567 1.419 . S
C566 C564 1.415 . S
C566 C571 1.425 . S
C566 C573 1.409 . S
C567 H559 0.930 . S
C567 C565 1.419 . S
C567 C568 1.362 . S
C568 H560 0.930 . S
C568 C567 1.362 . S
C568 C571 1.409 . S
C569 H561 0.930 . S
C569 C570 1.355 . S
C569 C571 1.415 . S
C570 C569 1.355 . S
C570 C572 1.419 . S
C571 C566 1.425 . S
C571 C568 1.409 . S
C571 C569 1.415 . S
C572 H562 0.930 1_554 S
C572 C570 1.419 . S
C572 C573 1.362 . S
C573 H563 0.930 1_554 S
C573 C566 1.409 . S
C573 C572 1.362 . S
H574 C580 0.930 . S
H575 C583 0.930 . S
H576 C584 0.930 . S
H577 C585 0.930 . S
H578 C588 0.930 . S
H579 C589 0.930 . S
C580 H574 0.930 . S
C580 C581 1.355 . S
C580 C582 1.415 . S
C581 C580 1.355 . S
C581 C583 1.419 . S
C582 C580 1.415 . S
C582 C587 1.425 . S
C582 C589 1.409 . S
C583 H575 0.930 . S
C583 C581 1.419 . S
C583 C584 1.362 . S
C584 H576 0.930 . S
C584 C583 1.362 . S
C584 C587 1.409 . S
C585 H577 0.930 . S
C585 C586 1.355 . S
C585 C587 1.415 . S
C586 C585 1.355 . S
C586 C588 1.419 . S
C587 C582 1.425 . S
C587 C584 1.409 . S
C587 C585 1.415 . S
C588 H578 0.930 . S
C588 C586 1.419 . S
C588 C589 1.362 . S
C589 H579 0.930 . S
C589 C582 1.409 . S
C589 C588 1.362 . S
H590 C596 0.930 . S
H591 C599 0.930 . S
H592 C600 0.930 1_556 S
H593 C601 0.912 1_556 S
H594 C604 0.930 . S
H595 C605 0.930 . S
C596 H590 0.930 . S
C596 C597 1.355 . S
C596 C598 1.415 . S
C597 C596 1.355 . S
C597 C599 1.419 . S
C598 C596 1.415 . S
C598 C603 1.425 . S
C598 C605 1.409 . S
C599 H591 0.930 . S
C599 C597 1.419 . S
C599 C600 1.362 . S
C600 H592 0.930 1_554 S
C600 C599 1.362 . S
C600 C603 1.409 . S
C601 H593 0.912 1_554 S
C601 C602 1.355 . S
C601 C603 1.415 . S
C602 C601 1.355 . S
C602 C604 1.419 . S
C603 C598 1.425 . S
C603 C600 1.409 . S
C603 C601 1.415 . S
C604 H594 0.930 . S
C604 C602 1.419 . S
C604 C605 1.362 . S
C605 H595 0.930 . S
C605 C598 1.409 . S
C605 C604 1.362 . S
H606 C612 0.930 . S
H607 C615 0.930 . S
H608 C616 0.930 . S
H609 C617 0.930 . S
H610 C620 0.930 . S
H611 C621 0.930 . S
C612 H606 0.930 . S
C612 C613 1.355 . S
C612 C614 1.415 . S
C613 C612 1.355 . S
C613 C615 1.419 . S
C614 C612 1.415 . S
C614 C619 1.425 . S
C614 C621 1.409 1_655 S
C615 H607 0.930 . S
C615 C613 1.419 . S
C615 C616 1.362 . S
C616 H608 0.930 . S
C616 C615 1.362 . S
C616 C619 1.409 . S
C617 H609 0.930 . S
C617 C618 1.355 . S
C617 C619 1.415 1_455 S
C618 C617 1.355 . S
C618 C620 1.419 . S
C619 C614 1.425 . S
C619 C616 1.409 . S
C619 C617 1.415 1_655 S
C620 H610 0.930 . S
C620 C618 1.419 . S
C620 C621 1.362 . S
C621 H611 0.930 . S
C621 C614 1.409 1_455 S
C621 C620 1.362 . S
H622 C628 0.930 . S
H623 C631 0.930 . S
H624 C632 0.930 . S
H625 C633 0.930 . S
H626 C636 0.930 . S
H627 C637 0.930 . S
C628 H622 0.930 . S
C628 C629 1.355 . S
C628 C630 1.415 . S
C629 C628 1.355 . S
C629 C631 1.419 . S
C630 C628 1.415 . S
C630 C635 1.425 . S
C630 C637 1.409 . S
C631 H623 0.930 . S
C631 C629 1.419 . S
C631 C632 1.362 . S
C632 H624 0.930 . S
C632 C631 1.362 . S
C632 C635 1.409 . S
C633 H625 0.930 . S
C633 C634 1.355 . S
C633 C635 1.415 . S
C634 C633 1.355 . S
C634 C636 1.419 . S
C635 C630 1.425 . S
C635 C632 1.409 . S
C635 C633 1.415 . S
C636 H626 0.930 . S
C636 C634 1.419 . S
C636 C637 1.362 . S
C637 H627 0.930 . S
C637 C630 1.409 . S
C637 C636 1.362 . S
H638 C644 0.930 . S
H639 C647 0.930 . S
H640 C648 0.930 . S
H641 C649 0.930 . S
H642 C652 0.930 . S
H643 C653 0.930 . S
C644 H638 0.930 . S
C644 C645 1.355 . S
C644 C646 1.415 . S
C645 C644 1.355 . S
C645 C647 1.419 . S
C646 C644 1.415 . S
C646 C651 1.422 1_545 S
C646 C653 1.409 1_545 S
C647 H639 0.930 . S
C647 C645 1.419 . S
C647 C648 1.362 . S
C648 H640 0.930 . S
C648 C647 1.362 . S
C648 C651 1.382 1_545 S
C649 H641 0.930 . S
C649 C650 1.355 . S
C649 C651 1.446 . S
C650 C649 1.355 . S
C650 C652 1.419 . S
C651 C646 1.422 1_565 S
C651 C648 1.382 1_565 S
C651 C649 1.446 . S
C652 H642 0.930 . S
C652 C650 1.419 . S
C652 C653 1.362 . S
C653 H643 0.930 . S
C653 C646 1.409 1_565 S
C653 C652 1.362 . S
H654 C660 0.930 . S
H655 C663 0.930 . S
H656 C664 0.930 . S
H657 C665 0.930 . S
H658 C668 0.930 . S
H659 C669 0.930 . S
C660 H654 0.930 . S
C660 C661 1.355 . S
C660 C662 1.415 . S
C661 C660 1.355 . S
C661 C663 1.419 . S
C662 C660 1.415 . S
C662 C667 1.425 . S
C662 C669 1.409 . S
C663 H655 0.930 . S
C663 C661 1.419 . S
C663 C664 1.362 . S
C664 H656 0.930 . S
C664 C663 1.362 . S
C664 C667 1.409 . S
C665 H657 0.930 . S
C665 C666 1.355 . S
C665 C667 1.415 . S
C666 C665 1.355 . S
C666 C668 1.419 . S
C667 C662 1.425 . S
C667 C664 1.409 . S
C667 C665 1.415 . S
C668 H658 0.930 . S
C668 C666 1.419 . S
C668 C669 1.362 . S
C669 H659 0.930 . S
C669 C662 1.409 . S
C669 C668 1.362 . S
H670 C676 0.930 . S
H671 C679 0.930 . S
H672 C680 0.930 . S
H673 C681 0.930 . S
H674 C684 0.930 . S
H675 C685 0.930 . S
C676 H670 0.930 . S
C676 C677 1.355 . S
C676 C678 1.415 . S
C677 C676 1.355 . S
C677 C679 1.419 . S
C678 C676 1.415 . S
C678 C683 1.425 . S
C678 C685 1.409 . S
C679 H671 0.930 . S
C679 C677 1.419 . S
C679 C680 1.362 . S
C680 H672 0.930 . S
C680 C679 1.362 . S
C680 C683 1.409 . S
C681 H673 0.930 . S
C681 C682 1.355 . S
C681 C683 1.415 . S
C682 C681 1.355 . S
C682 C684 1.419 . S
C683 C678 1.425 . S
C683 C680 1.409 . S
C683 C681 1.415 . S
C684 H674 0.930 . S
C684 C682 1.419 . S
C684 C685 1.362 . S
C685 H675 0.930 . S
C685 C678 1.409 . S
C685 C684 1.362 . S
H686 C692 0.930 . S
H687 C695 0.930 . S
H688 C696 0.930 . S
H689 C697 0.930 . S
H690 C700 0.930 . S
H691 C701 0.930 . S
C692 H686 0.930 . S
C692 C693 1.355 . S
C692 C694 1.415 . S
C693 C692 1.355 . S
C693 C695 1.419 . S
C694 C692 1.415 . S
C694 C699 1.425 . S
C694 C701 1.409 . S
C695 H687 0.930 . S
C695 C693 1.419 . S
C695 C696 1.362 . S
C696 H688 0.930 . S
C696 C695 1.362 . S
C696 C699 1.409 . S
C697 H689 0.930 . S
C697 C698 1.355 . S
C697 C699 1.415 . S
C698 C697 1.355 . S
C698 C700 1.419 . S
C699 C694 1.425 . S
C699 C696 1.409 . S
C699 C697 1.415 . S
C700 H690 0.930 . S
C700 C698 1.419 . S
C700 C701 1.362 . S
C701 H691 0.930 . S
C701 C694 1.409 . S
C701 C700 1.362 . S
H702 C708 0.930 . S
H703 C711 0.930 . S
H704 C712 0.930 . S
H705 C713 0.930 . S
H706 C716 0.930 . S
H707 C717 0.930 . S
C708 H702 0.930 . S
C708 C709 1.355 . S
C708 C710 1.415 . S
C709 C708 1.355 . S
C709 C711 1.419 . S
C710 C708 1.415 . S
C710 C715 1.425 . S
C710 C717 1.409 . S
C711 H703 0.930 . S
C711 C709 1.419 . S
C711 C712 1.362 . S
C712 H704 0.930 . S
C712 C711 1.362 . S
C712 C715 1.409 . S
C713 H705 0.930 . S
C713 C714 1.355 . S
C713 C715 1.415 . S
C714 C713 1.355 . S
C714 C716 1.419 . S
C715 C710 1.425 . S
C715 C712 1.409 . S
C715 C713 1.415 . S
C716 H706 0.930 . S
C716 C714 1.419 . S
C716 C717 1.362 . S
C717 H707 0.930 . S
C717 C710 1.409 . S
C717 C716 1.362 . S
H718 C724 0.930 . S
H719 C727 0.930 . S
H720 C728 0.930 . S
H721 C729 0.930 . S
H722 C732 0.930 . S
H723 C733 0.930 . S
C724 H718 0.930 . S
C724 C725 1.355 . S
C724 C726 1.415 . S
C725 C724 1.355 . S
C725 C727 1.419 . S
C726 C724 1.415 . S
C726 C731 1.425 . S
C726 C733 1.409 . S
C727 H719 0.930 . S
C727 C725 1.419 . S
C727 C728 1.362 . S
C728 H720 0.930 . S
C728 C727 1.362 . S
C728 C731 1.409 . S
C729 H721 0.930 . S
C729 C730 1.355 . S
C729 C731 1.415 . S
C730 C729 1.355 . S
C730 C732 1.419 . S
C731 C726 1.425 . S
C731 C728 1.409 . S
C731 C729 1.415 . S
C732 H722 0.930 . S
C732 C730 1.419 . S
C732 C733 1.362 . S
C733 H723 0.930 . S
C733 C726 1.409 . S
C733 C732 1.362 . S
H734 C740 0.930 . S
H735 C743 0.930 . S
H736 C744 0.930 . S
H737 C745 0.930 . S
H738 C748 0.930 . S
H739 C749 0.930 . S
C740 H734 0.930 . S
C740 C741 1.355 . S
C740 C742 1.415 . S
C741 C740 1.355 . S
C741 C743 1.419 . S
C742 C740 1.415 . S
C742 C747 1.425 . S
C742 C749 1.409 . S
C743 H735 0.930 . S
C743 C741 1.419 . S
C743 C744 1.362 . S
C744 H736 0.930 . S
C744 C743 1.362 . S
C744 C747 1.409 . S
C745 H737 0.930 . S
C745 C746 1.355 . S
C745 C747 1.415 . S
C746 C745 1.355 . S
C746 C748 1.419 . S
C747 C742 1.425 . S
C747 C744 1.409 . S
C747 C745 1.415 . S
C748 H738 0.930 . S
C748 C746 1.419 . S
C748 C749 1.362 . S
C749 H739 0.930 . S
C749 C742 1.409 . S
C749 C748 1.362 . S
H750 C756 0.930 . S
H751 C759 0.930 . S
H752 C760 0.930 . S
H753 C761 0.930 . S
H754 C764 0.930 . S
H755 C765 0.930 . S
C756 H750 0.930 . S
C756 C757 1.355 . S
C756 C758 1.415 1_545 S
C757 C756 1.355 . S
C757 C759 1.419 . S
C758 C756 1.415 1_565 S
C758 C763 1.425 . S
C758 C765 1.409 . S
C759 H751 0.930 . S
C759 C757 1.419 . S
C759 C760 1.362 1_545 S
C760 H752 0.930 . S
C760 C759 1.362 1_565 S
C760 C763 1.409 . S
C761 H753 0.930 . S
C761 C762 1.355 . S
C761 C763 1.415 . S
C762 C761 1.355 . S
C762 C764 1.419 . S
C763 C758 1.425 . S
C763 C760 1.409 . S
C763 C761 1.415 . S
C764 H754 0.930 . S
C764 C762 1.419 . S
C764 C765 1.362 . S
C765 H755 0.930 . S
C765 C758 1.409 . S
C765 C764 1.362 . S
H766 C772 0.930 . S
H767 C775 0.930 . S
H768 C776 0.930 . S
H769 C777 0.930 . S
H770 C780 0.930 . S
H771 C781 0.930 . S
C772 H766 0.930 . S
C772 C773 1.355 . S
C772 C774 1.415 1_655 S
C773 C772 1.355 . S
C773 C775 1.419 . S
C774 C772 1.415 1_455 S
C774 C779 1.425 . S
C774 C781 1.409 . S
C775 H767 0.930 . S
C775 C773 1.419 . S
C775 C776 1.362 1_655 S
C776 H768 0.930 . S
C776 C775 1.362 1_455 S
C776 C779 1.409 . S
C777 H769 0.930 . S
C777 C778 1.355 . S
C777 C779 1.415 . S
C778 C777 1.355 . S
C778 C780 1.419 . S
C779 C774 1.425 . S
C779 C776 1.409 . S
C779 C777 1.415 . S
C780 H770 0.930 . S
C780 C778 1.419 . S
C780 C781 1.362 . S
C781 H771 0.930 . S
C781 C774 1.409 . S
C781 C780 1.362 . S
H782 C788 0.930 . S
H783 C791 0.930 . S
H784 C792 0.930 . S
H785 C793 0.930 . S
H786 C796 0.930 . S
H787 C797 0.930 . S
C788 H782 0.930 . S
C788 C789 1.355 . S
C788 C790 1.415 . S
C789 C788 1.355 . S
C789 C791 1.419 . S
C790 C788 1.415 . S
C790 C795 1.425 . S
C790 C797 1.409 . S
C791 H783 0.930 . S
C791 C789 1.419 . S
C791 C792 1.362 . S
C792 H784 0.930 . S
C792 C791 1.362 . S
C792 C795 1.409 . S
C793 H785 0.930 . S
C793 C794 1.355 . S
C793 C795 1.415 . S
C794 C793 1.355 . S
C794 C796 1.419 . S
C795 C790 1.425 . S
C795 C792 1.409 . S
C795 C793 1.415 . S
C796 H786 0.930 . S
C796 C794 1.419 . S
C796 C797 1.362 . S
C797 H787 0.930 . S
C797 C790 1.409 . S
C797 C796 1.362 . S
H798 C804 0.930 . S
H799 C807 0.930 . S
H800 C808 0.930 . S
H801 C809 0.930 . S
H802 C812 0.930 . S
H803 C813 0.930 . S
C804 H798 0.930 . S
C804 C805 1.355 . S
C804 C806 1.415 . S
C805 C804 1.355 . S
C805 C807 1.419 . S
C806 C804 1.415 . S
C806 C811 1.425 . S
C806 C813 1.409 . S
C807 H799 0.930 . S
C807 C805 1.419 . S
C807 C808 1.362 . S
C808 H800 0.930 . S
C808 C807 1.362 . S
C808 C811 1.409 . S
C809 H801 0.930 . S
C809 C810 1.355 . S
C809 C811 1.415 . S
C810 C809 1.355 . S
C810 C812 1.419 . S
C811 C806 1.425 . S
C811 C808 1.409 . S
C811 C809 1.415 . S
C812 H802 0.930 . S
C812 C810 1.419 . S
C812 C813 1.362 . S
C813 H803 0.930 . S
C813 C806 1.409 . S
C813 C812 1.362 . S
H814 C820 0.930 . S
H815 C823 0.930 . S
H816 C824 0.930 . S
H817 C825 0.930 . S
H818 C828 0.930 . S
H819 C829 0.930 . S
C820 H814 0.930 . S
C820 C821 1.355 . S
C820 C822 1.415 . S
C821 C820 1.355 . S
C821 C823 1.419 . S
C822 C820 1.415 . S
C822 C827 1.425 . S
C822 C829 1.409 . S
C823 H815 0.930 . S
C823 C821 1.419 . S
C823 C824 1.362 . S
C824 H816 0.930 . S
C824 C823 1.362 . S
C824 C827 1.409 . S
C825 H817 0.930 . S
C825 C826 1.355 . S
C825 C827 1.415 . S
C826 C825 1.355 . S
C826 C828 1.419 . S
C827 C822 1.425 . S
C827 C824 1.409 . S
C827 C825 1.415 . S
C828 H818 0.930 . S
C828 C826 1.419 . S
C828 C829 1.362 . S
C829 H819 0.930 . S
C829 C822 1.409 . S
C829 C828 1.362 . S
H830 C836 0.930 . S
H831 C839 0.930 . S
H832 C840 0.930 . S
H833 C841 0.930 . S
H834 C844 0.930 . S
H835 C845 0.930 . S
C836 H830 0.930 . S
C836 C837 1.355 . S
C836 C838 1.415 . S
C837 C836 1.355 . S
C837 C839 1.419 . S
C838 C836 1.415 . S
C838 C843 1.425 . S
C838 C845 1.409 . S
C839 H831 0.930 . S
C839 C837 1.419 . S
C839 C840 1.362 . S
C840 H832 0.930 . S
C840 C839 1.362 . S
C840 C843 1.409 . S
C841 H833 0.930 . S
C841 C842 1.355 . S
C841 C843 1.415 . S
C842 C841 1.355 . S
C842 C844 1.419 . S
C843 C838 1.425 . S
C843 C840 1.409 . S
C843 C841 1.415 . S
C844 H834 0.930 . S
C844 C842 1.419 . S
C844 C845 1.362 . S
C845 H835 0.930 . S
C845 C838 1.409 . S
C845 C844 1.362 . S
H846 C852 0.930 . S
H847 C855 0.930 . S
H848 C856 0.930 . S
H849 C857 0.930 . S
H850 C860 0.930 . S
H851 C861 0.930 . S
C852 H846 0.930 . S
C852 C853 1.355 . S
C852 C854 1.415 . S
C853 C852 1.355 . S
C853 C855 1.419 . S
C854 C852 1.415 . S
C854 C859 1.425 1_565 S
C854 C861 1.409 1_565 S
C855 H847 0.930 . S
C855 C853 1.419 . S
C855 C856 1.362 . S
C856 H848 0.930 . S
C856 C855 1.362 . S
C856 C859 1.409 1_565 S
C857 H849 0.930 . S
C857 C858 1.355 . S
C857 C859 1.415 . S
C858 C857 1.355 . S
C858 C860 1.419 . S
C859 C854 1.425 1_545 S
C859 C856 1.409 1_545 S
C859 C857 1.415 . S
C860 H850 0.930 . S
C860 C858 1.419 . S
C860 C861 1.362 . S
C861 H851 0.930 . S
C861 C854 1.409 1_545 S
C861 C860 1.362 . S
H862 C868 0.930 . S
H863 C871 0.930 . S
H864 C872 0.930 . S
H865 C873 0.930 . S
H866 C876 0.930 . S
H867 C877 0.930 . S
C868 H862 0.930 . S
C868 C869 1.355 . S
C868 C870 1.415 . S
C869 C868 1.355 . S
C869 C871 1.419 . S
C870 C868 1.415 . S
C870 C875 1.425 . S
C870 C877 1.409 1_455 S
C871 H863 0.930 . S
C871 C869 1.419 . S
C871 C872 1.362 . S
C872 H864 0.930 . S
C872 C871 1.362 . S
C872 C875 1.409 . S
C873 H865 0.930 . S
C873 C874 1.355 . S
C873 C875 1.415 1_655 S
C874 C873 1.355 . S
C874 C876 1.419 . S
C875 C870 1.425 . S
C875 C872 1.409 . S
C875 C873 1.415 1_455 S
C876 H866 0.930 . S
C876 C874 1.419 . S
C876 C877 1.362 . S
C877 H867 0.930 . S
C877 C870 1.409 1_655 S
C877 C876 1.362 . S
H878 C884 0.930 . S
H879 C887 0.930 . S
H880 C888 0.930 . S
H881 C889 0.930 . S
H882 C892 0.930 . S
H883 C893 0.930 . S
C884 H878 0.930 . S
C884 C885 1.355 . S
C884 C886 1.415 . S
C885 C884 1.355 . S
C885 C887 1.419 . S
C886 C884 1.415 . S
C886 C891 1.425 . S
C886 C893 1.409 . S
C887 H879 0.930 . S
C887 C885 1.419 . S
C887 C888 1.362 . S
C888 H880 0.930 . S
C888 C887 1.362 . S
C888 C891 1.409 . S
C889 H881 0.930 . S
C889 C890 1.355 . S
C889 C891 1.415 . S
C890 C889 1.355 . S
C890 C892 1.419 . S
C891 C886 1.425 . S
C891 C888 1.409 . S
C891 C889 1.415 . S
C892 H882 0.930 . S
C892 C890 1.419 . S
C892 C893 1.362 . S
C893 H883 0.930 . S
C893 C886 1.409 . S
C893 C892 1.362 . S
H894 C900 0.930 . S
H895 C903 0.930 . S
H896 C904 0.930 . S
H897 C905 0.930 . S
H898 C908 0.930 . S
H899 C909 0.930 . S
C900 H894 0.930 . S
C900 C901 1.355 . S
C900 C902 1.415 1_455 S
C901 C900 1.355 . S
C901 C903 1.419 . S
C902 C900 1.415 1_655 S
C902 C907 1.425 . S
C902 C909 1.409 . S
C903 H895 0.930 . S
C903 C901 1.419 . S
C903 C904 1.362 . S
C904 H896 0.930 . S
C904 C903 1.362 . S
C904 C907 1.409 1_455 S
C905 H897 0.930 . S
C905 C906 1.355 . S
C905 C907 1.415 . S
C906 C905 1.355 . S
C906 C908 1.419 . S
C907 C902 1.425 . S
C907 C904 1.409 1_655 S
C907 C905 1.415 . S
C908 H898 0.930 . S
C908 C906 1.419 . S
C908 C909 1.362 . S
C909 H899 0.930 . S
C909 C902 1.409 . S
C909 C908 1.362 . S
H910 C916 0.930 . S
H911 C919 0.930 . S
H912 C920 0.930 . S
H913 C921 0.930 . S
H914 C924 0.930 . S
H915 C925 0.930 . S
C916 H910 0.930 . S
C916 C917 1.355 . S
C916 C918 1.415 . S
C917 C916 1.355 . S
C917 C919 1.419 . S
C918 C916 1.415 . S
C918 C923 1.425 . S
C918 C925 1.409 . S
C919 H911 0.930 . S
C919 C917 1.419 . S
C919 C920 1.362 . S
C920 H912 0.930 . S
C920 C919 1.362 . S
C920 C923 1.409 . S
C921 H913 0.930 . S
C921 C922 1.355 . S
C921 C923 1.415 . S
C922 C921 1.355 . S
C922 C924 1.419 . S
C923 C918 1.425 . S
C923 C920 1.409 . S
C923 C921 1.415 . S
C924 H914 0.930 . S
C924 C922 1.419 . S
C924 C925 1.362 . S
C925 H915 0.930 . S
C925 C918 1.409 . S
C925 C924 1.362 . S
H926 C932 0.930 1_565 S
H927 C935 0.930 . S
H928 C936 0.930 . S
H929 C937 0.930 . S
H930 C940 0.930 . S
H931 C941 0.930 . S
C932 H926 0.930 1_545 S
C932 C933 1.355 1_545 S
C932 C934 1.415 . S
C933 C932 1.355 1_565 S
C933 C935 1.419 . S
C934 C932 1.415 . S
C934 C939 1.425 . S
C934 C941 1.409 . S
C935 H927 0.930 . S
C935 C933 1.419 . S
C935 C936 1.362 1_565 S
C936 H928 0.930 . S
C936 C935 1.362 1_545 S
C936 C939 1.409 . S
C937 H929 0.930 . S
C937 C938 1.355 . S
C937 C939 1.415 . S
C938 C937 1.355 . S
C938 C940 1.419 . S
C939 C934 1.425 . S
C939 C936 1.409 . S
C939 C937 1.415 . S
C940 H930 0.930 . S
C940 C938 1.419 . S
C940 C941 1.362 . S
C941 H931 0.930 . S
C941 C934 1.409 . S
C941 C940 1.362 . S
H942 C948 0.930 . S
H943 C951 0.930 . S
H944 C952 0.930 . S
H945 C953 0.930 . S
H946 C956 0.930 . S
H947 C957 0.930 . S
C948 H942 0.930 . S
C948 C949 1.355 . S
C948 C950 1.415 . S
C949 C948 1.355 . S
C949 C951 1.419 . S
C950 C948 1.415 . S
C950 C955 1.425 . S
C950 C957 1.409 . S
C951 H943 0.930 . S
C951 C949 1.419 . S
C951 C952 1.362 . S
C952 H944 0.930 . S
C952 C951 1.362 . S
C952 C955 1.409 . S
C953 H945 0.930 . S
C953 C954 1.355 . S
C953 C955 1.415 . S
C954 C953 1.355 . S
C954 C956 1.419 . S
C955 C950 1.425 . S
C955 C952 1.409 . S
C955 C953 1.415 . S
C956 H946 0.930 . S
C956 C954 1.419 . S
C956 C957 1.362 . S
C957 H947 0.930 . S
C957 C950 1.409 . S
C957 C956 1.362 . S
H958 C964 0.930 . S
H959 C967 0.930 . S
H960 C968 0.930 . S
H961 C969 0.930 . S
H962 C972 0.930 . S
H963 C973 0.930 . S
C964 H958 0.930 . S
C964 C965 1.355 . S
C964 C966 1.415 . S
C965 C964 1.355 . S
C965 C967 1.419 . S
C966 C964 1.415 . S
C966 C971 1.425 . S
C966 C973 1.409 . S
C967 H959 0.930 . S
C967 C965 1.419 . S
C967 C968 1.362 . S
C968 H960 0.930 . S
C968 C967 1.362 . S
C968 C971 1.409 . S
C969 H961 0.930 . S
C969 C970 1.355 . S
C969 C971 1.415 . S
C970 C969 1.355 . S
C970 C972 1.419 . S
C971 C966 1.425 . S
C971 C968 1.409 . S
C971 C969 1.415 . S
C972 H962 0.930 . S
C972 C970 1.419 . S
C972 C973 1.362 . S
C973 H963 0.930 . S
C973 C966 1.409 . S
C973 C972 1.362 . S
H974 C980 0.930 . S
H975 C983 0.930 . S
H976 C984 0.930 . S
H977 C985 0.930 . S
H978 C988 0.930 . S
H979 C989 0.930 . S
C980 H974 0.930 . S
C980 C981 1.355 . S
C980 C982 1.415 . S
C981 C980 1.355 . S
C981 C983 1.419 . S
C982 C980 1.415 . S
C982 C987 1.425 . S
C982 C989 1.409 . S
C983 H975 0.930 . S
C983 C981 1.419 . S
C983 C984 1.362 . S
C984 H976 0.930 . S
C984 C983 1.362 . S
C984 C987 1.409 . S
C985 H977 0.930 . S
C985 C986 1.355 . S
C985 C987 1.415 . S
C986 C985 1.355 . S
C986 C988 1.419 . S
C987 C982 1.425 . S
C987 C984 1.409 . S
C987 C985 1.415 . S
C988 H978 0.930 . S
C988 C986 1.419 . S
C988 C989 1.362 . S
C989 H979 0.930 . S
C989 C982 1.409 . S
C989 C988 1.362 . S
H990 C996 0.930 . S
H991 C999 0.930 . S
H992 C1000 0.930 . S
H993 C1001 0.930 1_545 S
H994 C1004 0.930 . S
H995 C1005 0.930 . S
C996 H990 0.930 . S
C996 C997 1.355 . S
C996 C998 1.415 . S
C997 C996 1.355 . S
C997 C999 1.419 . S
C998 C996 1.415 . S
C998 C1003 1.425 . S
C998 C1005 1.409 . S
C999 H991 0.930 . S
C999 C997 1.419 . S
C999 C1000 1.362 . S
C1000 H992 0.930 . S
C1000 C999 1.362 . S
C1000 C1003 1.409 . S
C1001 H993 0.930 1_565 S
C1001 C1002 1.355 . S
C1001 C1003 1.415 . S
C1002 C1001 1.355 . S
C1002 C1004 1.419 . S
C1003 C998 1.425 . S
C1003 C1000 1.409 . S
C1003 C1001 1.415 . S
C1004 H994 0.930 . S
C1004 C1002 1.419 . S
C1004 C1005 1.362 . S
C1005 H995 0.930 . S
C1005 C998 1.409 . S
C1005 C1004 1.362 . S
H1006 C1012 0.930 . S
H1007 C1015 0.930 . S
H1008 C1016 0.930 . S
H1009 C1017 0.930 . S
H1010 C1020 0.930 . S
H1011 C1021 0.930 . S
C1012 H1006 0.930 . S
C1012 C1013 1.355 . S
C1012 C1014 1.415 . S
C1013 C1012 1.355 . S
C1013 C1015 1.419 . S
C1014 C1012 1.415 . S
C1014 C1019 1.425 . S
C1014 C1021 1.409 . S
C1015 H1007 0.930 . S
C1015 C1013 1.419 . S
C1015 C1016 1.362 . S
C1016 H1008 0.930 . S
C1016 C1015 1.362 . S
C1016 C1019 1.409 . S
C1017 H1009 0.930 . S
C1017 C1018 1.355 . S
C1017 C1019 1.415 . S
C1018 C1017 1.355 . S
C1018 C1020 1.419 . S
C1019 C1014 1.425 . S
C1019 C1016 1.409 . S
C1019 C1017 1.415 . S
C1020 H1010 0.930 . S
C1020 C1018 1.419 . S
C1020 C1021 1.362 . S
C1021 H1011 0.930 . S
C1021 C1014 1.409 . S
C1021 C1020 1.362 . S
H1022 C1028 0.930 . S
H1023 C1031 0.930 . S
H1024 C1032 0.930 . S
H1025 C1033 0.930 . S
H1026 C1036 0.930 . S
H1027 C1037 0.930 . S
C1028 H1022 0.930 . S
C1028 C1029 1.355 . S
C1028 C1030 1.415 . S
C1029 C1028 1.355 . S
C1029 C1031 1.419 . S
C1030 C1028 1.415 . S
C1030 C1035 1.425 . S
C1030 C1037 1.409 . S
C1031 H1023 0.930 . S
C1031 C1029 1.419 . S
C1031 C1032 1.362 . S
C1032 H1024 0.930 . S
C1032 C1031 1.362 . S
C1032 C1035 1.409 . S
C1033 H1025 0.930 . S
C1033 C1034 1.355 . S
C1033 C1035 1.415 . S
C1034 C1033 1.355 . S
C1034 C1036 1.419 . S
C1035 C1030 1.425 . S
C1035 C1032 1.409 . S
C1035 C1033 1.415 . S
C1036 H1026 0.930 . S
C1036 C1034 1.419 . S
C1036 C1037 1.362 . S
C1037 H1027 0.930 . S
C1037 C1030 1.409 . S
C1037 C1036 1.362 . S
H1038 C1044 0.930 . S
H1039 C1047 0.930 . S
H1040 C1048 0.930 . S
H1041 C1049 0.930 . S
H1042 C1052 0.930 . S
H1043 C1053 0.930 . S
C1044 H1038 0.930 . S
C1044 C1045 1.355 . S
C1044 C1046 1.415 . S
C1045 C1044 1.355 . S
C1045 C1047 1.419 . S
C1046 C1044 1.415 . S
C1046 C1051 1.425 . S
C1046 C1053 1.409 . S
C1047 H1039 0.930 . S
C1047 C1045 1.419 . S
C1047 C1048 1.362 . S
C1048 H1040 0.930 . S
C1048 C1047 1.362 . S
C1048 C1051 1.409 . S
C1049 H1041 0.930 . S
C1049 C1050 1.355 . S
C1049 C1051 1.415 . S
C1050 C1049 1.355 . S
C1050 C1052 1.419 . S
C1051 C1046 1.425 . S
C1051 C1048 1.409 . S
C1051 C1049 1.415 . S
C1052 H1042 0.930 . S
C1052 C1050 1.419 . S
C1052 C1053 1.362 . S
C1053 H1043 0.930 . S
C1053 C1046 1.409 . S
C1053 C1052 1.362 . S
H1054 C1060 0.930 . S
H1055 C1063 0.930 . S
H1056 C1064 0.930 . S
H1057 C1065 0.930 . S
H1058 C1068 0.930 . S
H1059 C1069 0.930 . S
C1060 H1054 0.930 . S
C1060 C1061 1.355 . S
C1060 C1062 1.415 . S
C1061 C1060 1.355 . S
C1061 C1063 1.419 . S
C1062 C1060 1.415 . S
C1062 C1067 1.425 . S
C1062 C1069 1.409 . S
C1063 H1055 0.930 . S
C1063 C1061 1.419 . S
C1063 C1064 1.362 . S
C1064 H1056 0.930 . S
C1064 C1063 1.362 . S
C1064 C1067 1.409 . S
C1065 H1057 0.930 . S
C1065 C1066 1.355 . S
C1065 C1067 1.415 . S
C1066 C1065 1.355 . S
C1066 C1068 1.419 . S
C1067 C1062 1.425 . S
C1067 C1064 1.409 . S
C1067 C1065 1.415 . S
C1068 H1058 0.930 . S
C1068 C1066 1.419 . S
C1068 C1069 1.362 . S
C1069 H1059 0.930 . S
C1069 C1062 1.409 . S
C1069 C1068 1.362 . S
H1070 C1076 0.930 . S
H1071 C1079 0.930 . S
H1072 C1080 0.930 1_565 S
H1073 C1081 0.930 1_565 S
H1074 C1084 0.930 . S
H1075 C1085 0.930 . S
C1076 H1070 0.930 . S
C1076 C1077 1.355 . S
C1076 C1078 1.415 . S
C1077 C1076 1.355 . S
C1077 C1079 1.419 . S
C1078 C1076 1.415 . S
C1078 C1083 1.425 . S
C1078 C1085 1.409 . S
C1079 H1071 0.930 . S
C1079 C1077 1.419 . S
C1079 C1080 1.362 . S
C1080 H1072 0.930 1_545 S
C1080 C1079 1.362 . S
C1080 C1083 1.409 . S
C1081 H1073 0.930 1_545 S
C1081 C1082 1.355 . S
C1081 C1083 1.415 . S
C1082 C1081 1.355 . S
C1082 C1084 1.419 . S
C1083 C1078 1.425 . S
C1083 C1080 1.409 . S
C1083 C1081 1.415 . S
C1084 H1074 0.930 . S
C1084 C1082 1.419 . S
C1084 C1085 1.362 . S
C1085 H1075 0.930 . S
C1085 C1078 1.409 . S
C1085 C1084 1.362 . S
H1086 C1092 0.930 . S
H1087 C1095 0.930 . S
H1088 C1096 0.930 . S
H1089 C1097 0.930 . S
H1090 C1100 0.930 . S
H1091 C1101 0.930 . S
C1092 H1086 0.930 . S
C1092 C1093 1.355 . S
C1092 C1094 1.415 . S
C1093 C1092 1.355 . S
C1093 C1095 1.419 . S
C1094 C1092 1.415 . S
C1094 C1099 1.425 . S
C1094 C1101 1.409 . S
C1095 H1087 0.930 . S
C1095 C1093 1.419 . S
C1095 C1096 1.362 . S
C1096 H1088 0.930 . S
C1096 C1095 1.362 . S
C1096 C1099 1.409 . S
C1097 H1089 0.930 . S
C1097 C1098 1.355 . S
C1097 C1099 1.415 . S
C1098 C1097 1.355 . S
C1098 C1100 1.419 . S
C1099 C1094 1.425 . S
C1099 C1096 1.409 . S
C1099 C1097 1.415 . S
C1100 H1090 0.930 . S
C1100 C1098 1.419 . S
C1100 C1101 1.362 . S
C1101 H1091 0.930 . S
C1101 C1094 1.409 . S
C1101 C1100 1.362 . S
H1102 C1108 0.930 . S
H1103 C1111 0.930 . S
H1104 C1112 0.930 . S
H1105 C1113 0.930 . S
H1106 C1116 0.930 . S
H1107 C1117 0.930 . S
C1108 H1102 0.930 . S
C1108 C1109 1.355 . S
C1108 C1110 1.415 . S
C1109 C1108 1.355 . S
C1109 C1111 1.419 . S
C1110 C1108 1.415 . S
C1110 C1115 1.425 . S
C1110 C1117 1.409 . S
C1111 H1103 0.930 . S
C1111 C1109 1.419 . S
C1111 C1112 1.362 . S
C1112 H1104 0.930 . S
C1112 C1111 1.362 . S
C1112 C1115 1.409 . S
C1113 H1105 0.930 . S
C1113 C1114 1.355 . S
C1113 C1115 1.415 . S
C1114 C1113 1.355 . S
C1114 C1116 1.419 . S
C1115 C1110 1.425 . S
C1115 C1112 1.409 . S
C1115 C1113 1.415 . S
C1116 H1106 0.930 . S
C1116 C1114 1.419 . S
C1116 C1117 1.362 . S
C1117 H1107 0.930 . S
C1117 C1110 1.409 . S
C1117 C1116 1.362 . S
H1118 C1124 0.930 . S
H1119 C1127 0.930 . S
H1120 C1128 0.930 . S
H1121 C1129 0.930 . S
H1122 C1132 0.930 . S
H1123 C1133 0.930 . S
C1124 H1118 0.930 . S
C1124 C1125 1.355 . S
C1124 C1126 1.415 . S
C1125 C1124 1.355 . S
C1125 C1127 1.419 . S
C1126 C1124 1.415 . S
C1126 C1131 1.425 . S
C1126 C1133 1.409 . S
C1127 H1119 0.930 . S
C1127 C1125 1.419 . S
C1127 C1128 1.362 . S
C1128 H1120 0.930 . S
C1128 C1127 1.362 . S
C1128 C1131 1.409 . S
C1129 H1121 0.930 . S
C1129 C1130 1.355 . S
C1129 C1131 1.415 . S
C1130 C1129 1.355 . S
C1130 C1132 1.419 . S
C1131 C1126 1.425 . S
C1131 C1128 1.409 . S
C1131 C1129 1.415 . S
C1132 H1122 0.930 . S
C1132 C1130 1.419 . S
C1132 C1133 1.362 . S
C1133 H1123 0.930 . S
C1133 C1126 1.409 . S
C1133 C1132 1.362 . S
H1134 C1140 0.930 . S
H1135 C1143 0.930 . S
H1136 C1144 0.930 . S
H1137 C1145 0.930 . S
H1138 C1148 0.930 . S
H1139 C1149 0.930 . S
C1140 H1134 0.930 . S
C1140 C1141 1.355 . S
C1140 C1142 1.415 . S
C1141 C1140 1.355 . S
C1141 C1143 1.419 . S
C1142 C1140 1.415 . S
C1142 C1147 1.425 . S
C1142 C1149 1.409 . S
C1143 H1135 0.930 . S
C1143 C1141 1.419 . S
C1143 C1144 1.362 . S
C1144 H1136 0.930 . S
C1144 C1143 1.362 . S
C1144 C1147 1.409 . S
C1145 H1137 0.930 . S
C1145 C1146 1.355 . S
C1145 C1147 1.415 . S
C1146 C1145 1.355 . S
C1146 C1148 1.419 . S
C1147 C1142 1.425 . S
C1147 C1144 1.409 . S
C1147 C1145 1.415 . S
C1148 H1138 0.930 . S
C1148 C1146 1.419 . S
C1148 C1149 1.362 . S
C1149 H1139 0.930 . S
C1149 C1142 1.409 . S
C1149 C1148 1.362 . S
H1150 C1156 0.930 . S
H1151 C1159 0.930 . S
H1152 C1160 0.930 . S
H1153 C1161 0.930 . S
H1154 C1164 0.930 . S
H1155 C1165 0.930 . S
C1156 H1150 0.930 . S
C1156 C1157 1.355 . S
C1156 C1158 1.415 . S
C1157 C1156 1.355 . S
C1157 C1159 1.419 . S
C1158 C1156 1.415 . S
C1158 C1163 1.425 . S
C1158 C1165 1.409 . S
C1159 H1151 0.930 . S
C1159 C1157 1.419 . S
C1159 C1160 1.362 . S
C1160 H1152 0.930 . S
C1160 C1159 1.362 . S
C1160 C1163 1.409 . S
C1161 H1153 0.930 . S
C1161 C1162 1.355 . S
C1161 C1163 1.415 . S
C1162 C1161 1.355 . S
C1162 C1164 1.419 . S
C1163 C1158 1.425 . S
C1163 C1160 1.409 . S
C1163 C1161 1.415 . S
C1164 H1154 0.930 . S
C1164 C1162 1.419 . S
C1164 C1165 1.362 . S
C1165 H1155 0.930 . S
C1165 C1158 1.409 . S
C1165 C1164 1.362 . S
H1166 C1172 0.930 . S
H1167 C1175 0.930 . S
H1168 C1176 0.930 . S
H1169 C1177 0.930 . S
H1170 C1180 0.930 . S
H1171 C1181 0.930 . S
C1172 H1166 0.930 . S
C1172 C1173 1.355 . S
C1172 C1174 1.415 . S
C1173 C1172 1.355 . S
C1173 C1175 1.419 . S
C1174 C1172 1.415 . S
C1174 C1179 1.425 . S
C1174 C1181 1.409 . S
C1175 H1167 0.930 . S
C1175 C1173 1.419 . S
C1175 C1176 1.362 . S
C1176 H1168 0.930 . S
C1176 C1175 1.362 . S
C1176 C1179 1.409 . S
C1177 H1169 0.930 . S
C1177 C1178 1.355 . S
C1177 C1179 1.415 . S
C1178 C1177 1.355 . S
C1178 C1180 1.419 . S
C1179 C1174 1.425 . S
C1179 C1176 1.409 . S
C1179 C1177 1.415 . S
C1180 H1170 0.930 . S
C1180 C1178 1.419 . S
C1180 C1181 1.362 . S
C1181 H1171 0.930 . S
C1181 C1174 1.409 . S
C1181 C1180 1.362 . S
H1182 C1188 0.930 . S
H1183 C1191 0.930 . S
H1184 C1192 0.930 . S
H1185 C1193 0.930 . S
H1186 C1196 0.930 . S
H1187 C1197 0.930 . S
C1188 H1182 0.930 . S
C1188 C1189 1.355 . S
C1188 C1190 1.415 . S
C1189 C1188 1.355 . S
C1189 C1191 1.419 . S
C1190 C1188 1.415 . S
C1190 C1195 1.425 . S
C1190 C1197 1.409 . S
C1191 H1183 0.930 . S
C1191 C1189 1.419 . S
C1191 C1192 1.362 . S
C1192 H1184 0.930 . S
C1192 C1191 1.362 . S
C1192 C1195 1.409 . S
C1193 H1185 0.930 . S
C1193 C1194 1.355 . S
C1193 C1195 1.415 . S
C1194 C1193 1.355 . S
C1194 C1196 1.419 . S
C1195 C1190 1.425 . S
C1195 C1192 1.409 . S
C1195 C1193 1.415 . S
C1196 H1186 0.930 . S
C1196 C1194 1.419 . S
C1196 C1197 1.362 . S
C1197 H1187 0.930 . S
C1197 C1190 1.409 . S
C1197 C1196 1.362 . S
H1198 C1204 0.930 . S
H1199 C1207 0.930 . S
H1200 C1208 0.930 . S
H1201 C1209 0.930 . S
H1202 C1212 0.930 . S
H1203 C1213 0.930 . S
C1204 H1198 0.930 . S
C1204 C1205 1.355 . S
C1204 C1206 1.415 . S
C1205 C1204 1.355 . S
C1205 C1207 1.419 . S
C1206 C1204 1.415 . S
C1206 C1211 1.425 . S
C1206 C1213 1.409 . S
C1207 H1199 0.930 . S
C1207 C1205 1.419 . S
C1207 C1208 1.362 . S
C1208 H1200 0.930 . S
C1208 C1207 1.362 . S
C1208 C1211 1.409 . S
C1209 H1201 0.930 . S
C1209 C1210 1.355 . S
C1209 C1211 1.415 . S
C1210 C1209 1.355 . S
C1210 C1212 1.419 . S
C1211 C1206 1.425 . S
C1211 C1208 1.409 . S
C1211 C1209 1.415 . S
C1212 H1202 0.930 . S
C1212 C1210 1.419 . S
C1212 C1213 1.362 . S
C1213 H1203 0.930 . S
C1213 C1206 1.409 . S
C1213 C1212 1.362 . S
H1214 C1220 0.930 . S
H1215 C1223 0.930 . S
H1216 C1224 0.930 . S
H1217 C1225 0.930 . S
H1218 C1228 0.930 . S
H1219 C1229 0.930 . S
C1220 H1214 0.930 . S
C1220 C1221 1.355 . S
C1220 C1222 1.415 . S
C1221 C1220 1.355 . S
C1221 C1223 1.419 . S
C1222 C1220 1.415 . S
C1222 C1227 1.425 . S
C1222 C1229 1.409 . S
C1223 H1215 0.930 . S
C1223 C1221 1.419 . S
C1223 C1224 1.362 . S
C1224 H1216 0.930 . S
C1224 C1223 1.362 . S
C1224 C1227 1.409 . S
C1225 H1217 0.930 . S
C1225 C1226 1.355 . S
C1225 C1227 1.415 . S
C1226 C1225 1.355 . S
C1226 C1228 1.419 . S
C1227 C1222 1.425 . S
C1227 C1224 1.409 . S
C1227 C1225 1.415 . S
C1228 H1218 0.930 . S
C1228 C1226 1.419 . S
C1228 C1229 1.362 . S
C1229 H1219 0.930 . S
C1229 C1222 1.409 . S
C1229 C1228 1.362 . S
H1230 C1236 0.930 . S
H1231 C1239 0.930 . S
H1232 C1240 0.930 . S
H1233 C1241 0.930 . S
H1234 C1244 0.930 . S
H1235 C1245 0.930 . S
C1236 H1230 0.930 . S
C1236 C1237 1.355 . S
C1236 C1238 1.415 . S
C1237 C1236 1.355 . S
C1237 C1239 1.419 . S
C1238 C1236 1.415 . S
C1238 C1243 1.425 . S
C1238 C1245 1.409 . S
C1239 H1231 0.930 . S
C1239 C1237 1.419 . S
C1239 C1240 1.362 . S
C1240 H1232 0.930 . S
C1240 C1239 1.362 . S
C1240 C1243 1.409 . S
C1241 H1233 0.930 . S
C1241 C1242 1.355 . S
C1241 C1243 1.415 . S
C1242 C1241 1.355 . S
C1242 C1244 1.419 . S
C1243 C1238 1.425 . S
C1243 C1240 1.409 . S
C1243 C1241 1.415 . S
C1244 H1234 0.930 . S
C1244 C1242 1.419 . S
C1244 C1245 1.362 . S
C1245 H1235 0.930 . S
C1245 C1238 1.409 . S
C1245 C1244 1.362 . S
H1246 C1252 0.930 . S
H1247 C1255 0.930 . S
H1248 C1256 0.930 . S
H1249 C1257 0.930 . S
H1250 C1260 0.930 . S
H1251 C1261 0.930 . S
C1252 H1246 0.930 . S
C1252 C1253 1.355 . S
C1252 C1254 1.415 . S
C1253 C1252 1.355 . S
C1253 C1255 1.419 . S
C1254 C1252 1.415 . S
C1254 C1259 1.425 . S
C1254 C1261 1.409 . S
C1255 H1247 0.930 . S
C1255 C1253 1.419 . S
C1255 C1256 1.362 . S
C1256 H1248 0.930 . S
C1256 C1255 1.362 . S
C1256 C1259 1.409 . S
C1257 H1249 0.930 . S
C1257 C1258 1.355 . S
C1257 C1259 1.415 . S
C1258 C1257 1.355 . S
C1258 C1260 1.419 . S
C1259 C1254 1.425 . S
C1259 C1256 1.409 . S
C1259 C1257 1.415 . S
C1260 H1250 0.930 . S
C1260 C1258 1.419 . S
C1260 C1261 1.362 . S
C1261 H1251 0.930 . S
C1261 C1254 1.409 . S
C1261 C1260 1.362 . S
H1262 C1268 0.930 . S
H1263 C1271 0.930 . S
H1264 C1272 0.930 . S
H1265 C1273 0.930 . S
H1266 C1276 0.930 . S
H1267 C1277 0.930 . S
C1268 H1262 0.930 . S
C1268 C1269 1.355 . S
C1268 C1270 1.415 . S
C1269 C1268 1.355 . S
C1269 C1271 1.419 . S
C1270 C1268 1.415 . S
C1270 C1275 1.425 . S
C1270 C1277 1.409 . S
C1271 H1263 0.930 . S
C1271 C1269 1.419 . S
C1271 C1272 1.362 . S
C1272 H1264 0.930 . S
C1272 C1271 1.362 . S
C1272 C1275 1.409 . S
C1273 H1265 0.930 . S
C1273 C1274 1.355 . S
C1273 C1275 1.415 . S
C1274 C1273 1.355 . S
C1274 C1276 1.419 . S
C1275 C1270 1.425 . S
C1275 C1272 1.409 . S
C1275 C1273 1.415 . S
C1276 H1266 0.930 . S
C1276 C1274 1.419 . S
C1276 C1277 1.362 . S
C1277 H1267 0.930 . S
C1277 C1270 1.409 . S
C1277 C1276 1.362 . S
C421 C177 1.557 . S
C426 C240 1.550 . S
C437 C190 1.508 . S
C442 C260 1.501 . S
C453 C164 1.488 . S
C458 C283 1.501 . S
C469 C151 1.419 . S
C474 C263 1.427 . S
C490 C280 1.436 . S
C485 C125 1.452 . S
C501 C138 1.470 . S
C506 C243 1.476 1_556 S
C522 C250 1.507 . S
C517 C147 1.513 . S
C538 C270 1.439 . S
C533 C121 1.376 . S
C549 C134 1.474 . S
C554 C275 1.525 1_556 S
C565 C173 1.393 . S
C570 C255 1.439 . S
C581 C186 1.391 . S
C586 C290 1.420 . S
C602 C235 1.563 . S
C597 C160 1.514 . S
C618 C300 1.549 . S
C613 C21 1.556 . S
C629 C34 1.489 . S
C634 C320 1.450 . S
C645 C8 1.522 . S
C650 C343 1.524 . S
C661 C229 1.439 . S
C666 C323 1.442 . S
C677 C203 1.450 . S
C682 C340 1.421 . S
C693 C216 1.482 . S
C698 C303 1.476 . S
C709 C225 1.532 . S
C714 C310 1.566 . S
C725 C199 1.428 . S
C730 C330 1.410 . S
C746 C335 1.571 . S
C741 C212 1.489 . S
C757 C17 1.436 . S
C762 C315 1.450 . S
C778 C350 1.436 . S
C773 C30 1.394 . S
C789 C4 1.487 . S
C794 C295 1.564 . S
C810 C360 1.542 . S
C805 C99 1.555 . S
C821 C112 1.508 . S
C826 C380 1.496 . S
C842 C403 1.499 . S
C837 C86 1.495 . S
C858 C383 1.423 . S
C853 C73 1.415 . S
C874 C400 1.456 . S
C869 C47 1.455 . S
C885 C60 1.468 . S
C890 C363 1.473 . S
C901 C69 1.542 . S
C906 C370 1.568 . S
C917 C43 1.429 . S
C922 C390 1.410 . S
C938 C395 1.570 . S
C933 C56 1.505 . S
C949 C95 1.445 . S
C954 C375 1.460 . S
C965 C108 1.410 . S
C970 C410 1.454 . S
C981 C82 1.478 . S
C986 C355 1.527 . S
C997 C204 1.377 . S
C1002 C253 1.346 . S
C1018 C273 1.641 . S
C1013 C217 1.697 . S
C1029 C230 1.525 . S
C1034 C282 1.463 . S
C1045 C87 1.654 . S
C1050 C262 1.574 . S
C1061 C100 1.574 . S
C1066 C293 1.516 . S
C1082 C242 1.359 . S
C1077 C113 1.355 . S
C1093 C48 1.376 . S
C1098 C313 1.344 . S
C1109 C61 1.675 . S
C1114 C333 1.567 . S
C1125 C74 1.505 . S
C1130 C342 1.507 . S
C1141 C165 1.645 . S
C1146 C322 1.568 . S
C1162 C353 1.506 . S
C1157 C178 1.575 . S
C1173 C191 1.339 . S
C1178 C302 1.357 . S
C1189 C126 1.387 . S
C1194 C373 1.366 . S
C1205 C139 1.699 . S
C1210 C393 1.644 . S
C1226 C402 1.451 . S
C1221 C152 1.494 . S
C1237 C9 1.665 . S
C1242 C382 1.626 . S
C1253 C22 1.580 . S
C1258 C413 1.533 . S
C1269 C35 1.369 . S
C1274 C362 1.314 . S
