# Generated by pormake.
# Topology pyr, (3,6)-cn, num edge types: 1
# Building blocks:
#     Node 0, Type 0, BuildingBlock: QEWDON_clean_linker_0, # of connection points: 3
#     Node 1, Type 0, BuildingBlock: QEWDON_clean_linker_0, # of connection points: 3
#     Node 2, Type 0, BuildingBlock: QEWDON_clean_linker_0, # of connection points: 3
#     Node 3, Type 0, BuildingBlock: QEWDON_clean_linker_0, # of connection points: 3
#     Node 4, Type 0, BuildingBlock: QEWDON_clean_linker_0, # of connection points: 3
#     Node 5, Type 0, BuildingBlock: QEWDON_clean_linker_0, # of connection points: 3
#     Node 6, Type 0, BuildingBlock: QEWDON_clean_linker_0, # of connection points: 3
#     Node 7, Type 0, BuildingBlock: QEWDON_clean_linker_0, # of connection points: 3
#     Node 8, Type 1, BuildingBlock: FUNLAD_clean_sbu_0, # of connection points: 6
#     Node 9, Type 1, BuildingBlock: FUNLAD_clean_sbu_0, # of connection points: 6
#     Node 10, Type 1, BuildingBlock: FUNLAD_clean_sbu_0, # of connection points: 6
#     Node 11, Type 1, BuildingBlock: FUNLAD_clean_sbu_0, # of connection points: 6
#     Edge 12, Type (0, 1), BuildingBlock: KIFKEQ_clean_linker_1, # of connection points: 2
#     Edge 13, Type (0, 1), BuildingBlock: KIFKEQ_clean_linker_1, # of connection points: 2
#     Edge 14, Type (0, 1), BuildingBlock: KIFKEQ_clean_linker_1, # of connection points: 2
#     Edge 15, Type (0, 1), BuildingBlock: KIFKEQ_clean_linker_1, # of connection points: 2
#     Edge 16, Type (0, 1), BuildingBlock: KIFKEQ_clean_linker_1, # of connection points: 2
#     Edge 17, Type (0, 1), BuildingBlock: KIFKEQ_clean_linker_1, # of connection points: 2
#     Edge 18, Type (0, 1), BuildingBlock: KIFKEQ_clean_linker_1, # of connection points: 2
#     Edge 19, Type (0, 1), BuildingBlock: KIFKEQ_clean_linker_1, # of connection points: 2
#     Edge 20, Type (0, 1), BuildingBlock: KIFKEQ_clean_linker_1, # of connection points: 2
#     Edge 21, Type (0, 1), BuildingBlock: KIFKEQ_clean_linker_1, # of connection points: 2
#     Edge 22, Type (0, 1), BuildingBlock: KIFKEQ_clean_linker_1, # of connection points: 2
#     Edge 23, Type (0, 1), BuildingBlock: KIFKEQ_clean_linker_1, # of connection points: 2
#     Edge 24, Type (0, 1), BuildingBlock: KIFKEQ_clean_linker_1, # of connection points: 2
#     Edge 25, Type (0, 1), BuildingBlock: KIFKEQ_clean_linker_1, # of connection points: 2
#     Edge 26, Type (0, 1), BuildingBlock: KIFKEQ_clean_linker_1, # of connection points: 2
#     Edge 27, Type (0, 1), BuildingBlock: KIFKEQ_clean_linker_1, # of connection points: 2
#     Edge 28, Type (0, 1), BuildingBlock: KIFKEQ_clean_linker_1, # of connection points: 2
#     Edge 29, Type (0, 1), BuildingBlock: KIFKEQ_clean_linker_1, # of connection points: 2
#     Edge 30, Type (0, 1), BuildingBlock: KIFKEQ_clean_linker_1, # of connection points: 2
#     Edge 31, Type (0, 1), BuildingBlock: KIFKEQ_clean_linker_1, # of connection points: 2
#     Edge 32, Type (0, 1), BuildingBlock: KIFKEQ_clean_linker_1, # of connection points: 2
#     Edge 33, Type (0, 1), BuildingBlock: KIFKEQ_clean_linker_1, # of connection points: 2
#     Edge 34, Type (0, 1), BuildingBlock: KIFKEQ_clean_linker_1, # of connection points: 2
#     Edge 35, Type (0, 1), BuildingBlock: KIFKEQ_clean_linker_1, # of connection points: 2
# Relax obj value: 0.264
# Max RMSD: 0.292
# Mean RMSD: 0.188
data_MOF--net-pry--node1-FUNLAD_clean_sbu_0--node2-QEWDON_clean_linker_0--edge1-KIFKEQ_clean_linker_1
_symmetry_space_group_name_H-M    P1
_symmetry_Int_Tables_number       1
_symmetry_cell_setting            triclinic
loop_
_symmetry_equiv_pos_as_xyz
'x, y, z'
_cell_length_a     35.319997
_cell_length_b     38.059428
_cell_length_c     40.816016
_cell_angle_alpha  90.024639
_cell_angle_beta   90.302958
_cell_angle_gamma 92.205542
loop_
_atom_site_label
_atom_site_type_symbol
_atom_site_fract_x
_atom_site_fract_y
_atom_site_fract_z
_atom_type_partial_charge
H0 H 0.21841 0.24847 0.19848 0.0
C1 C 0.20472 0.23419 0.21838 0.0
C2 C 0.21764 0.20068 0.22776 0.0
C3 C 0.17536 0.25026 0.23554 0.0
H4 H 0.21117 0.15888 0.26353 0.0
C5 C 0.20026 0.1835 0.25512 0.0
C6 C 0.1707 0.19884 0.27295 0.0
C7 C 0.15809 0.23167 0.26194 0.0
C8 C 0.16772 0.28891 0.2315 0.0
H9 H 0.1353 0.24388 0.2748 0.0
C10 C 0.15787 0.3058 0.20137 0.0
C11 C 0.15099 0.34271 0.2008 0.0
C12 C 0.17071 0.30959 0.26006 0.0
H13 H 0.17874 0.29806 0.28324 0.0
C14 C 0.16373 0.34523 0.25951 0.0
H15 H 0.15565 0.29064 0.17895 0.0
C16 C 0.15389 0.36152 0.23044 0.0
H17 H 0.14841 0.38934 0.23118 0.0
H18 H 0.16602 0.36042 0.28191 0.0
H19 H 0.36252 0.94667 0.8138 0.0
C20 C 0.37922 0.92812 0.80051 0.0
C21 C 0.41469 0.91874 0.81321 0.0
C22 C 0.36359 0.91264 0.77193 0.0
H23 H 0.46123 0.88376 0.80597 0.0
C24 C 0.43427 0.89198 0.79651 0.0
C25 C 0.41939 0.87649 0.76702 0.0
C26 C 0.38416 0.88757 0.75507 0.0
C27 C 0.32285 0.91774 0.76395 0.0
H28 H 0.37148 0.87494 0.73364 0.0
C29 C 0.31034 0.93486 0.73513 0.0
C30 C 0.27115 0.9405 0.73035 0.0
C31 C 0.29588 0.90561 0.78687 0.0
H32 H 0.30467 0.89229 0.80895 0.0
C33 C 0.25744 0.91043 0.78176 0.0
H34 H 0.33079 0.94467 0.71735 0.0
C35 C 0.24518 0.92787 0.75392 0.0
H36 H 0.21512 0.93168 0.7508 0.0
H37 H 0.23702 0.9009 0.79968 0.0
H38 H 0.66318 0.56467 0.0358 0.0
C39 C 0.65319 0.5374 0.03692 0.0
C40 C 0.67931 0.5105 0.03648 0.0
C41 C 0.61414 0.5292 0.03673 0.0
H42 H 0.68599 0.4544 0.03545 0.0
C43 C 0.666 0.47529 0.03647 0.0
C44 C 0.62698 0.46686 0.03634 0.0
C45 C 0.60118 0.49392 0.03677 0.0
C46 C 0.58741 0.55696 1.02964 0.0
H47 H 0.57102 0.4876 0.03521 0.0
C48 C 0.56913 0.55652 0.99916 0.0
C49 C 0.54766 0.58478 0.98908 0.0
C50 C 0.58297 0.58541 0.05093 0.0
H51 H 0.5973 0.58632 0.07446 0.0
C52 C 0.56034 0.61314 0.04156 0.0
H53 H 0.57404 0.53519 0.98223 0.0
C54 C 0.54317 0.61315 1.01054 0.0
H55 H 0.52708 0.63548 1.00307 0.0
H56 H 0.55701 0.63514 0.05796 0.0
H57 H 0.96522 0.64297 0.46808 0.0
C58 C 0.94035 0.63976 0.48342 0.0
C59 C 0.93253 0.66593 0.50619 0.0
C60 C 0.91545 0.61045 0.47916 0.0
H61 H 0.89379 0.6827 0.54299 0.0
C62 C 0.90027 0.66201 0.52587 0.0
C63 C 0.87463 0.63321 0.52171 0.0
C64 C 0.88281 0.60707 0.49868 0.0
C65 C 0.92153 0.58586 0.45169 0.0
H66 H 0.8625 0.58551 0.49422 0.0
C67 C 0.93132 0.59928 0.42066 0.0
C68 C 0.93781 0.57671 0.39426 0.0
C69 C 0.91756 0.54932 0.45602 0.0
H70 H 0.90998 0.53835 0.47968 0.0
C71 C 0.92407 0.52666 0.42986 0.0
H72 H 0.93399 0.62748 0.41702 0.0
C73 C 0.93432 0.54018 0.39917 0.0
H74 H 0.93891 0.52214 0.37918 0.0
H75 H 0.92118 0.4985 0.43338 0.0
H76 H 0.86523 0.87921 0.90101 0.0
C77 C 0.87975 0.8922 0.88081 0.0
C78 C 0.91564 0.88087 0.87063 0.0
C79 C 0.86063 0.91821 0.86365 0.0
H80 H 0.95946 0.88872 0.83365 0.0
C81 C 0.93211 0.89682 0.84202 0.0
C82 C 0.91362 0.92386 0.82459 0.0
C83 C 0.87798 0.93389 0.83603 0.0
C84 C 0.81984 0.92475 0.87053 0.0
H85 H 0.86248 0.95316 0.8224 0.0
C86 C 0.80637 0.93634 0.90139 0.0
C87 C 0.76702 0.94138 0.90603 0.0
C88 C 0.79364 0.91853 0.84495 0.0
H89 H 0.80294 0.90942 0.82127 0.0
C90 C 0.7552 0.92342 0.84953 0.0
H91 H 0.82611 0.94132 0.9214 0.0
C92 C 0.742 0.93467 0.87967 0.0
H93 H 0.71192 0.93851 0.88232 0.0
H94 H 0.73545 0.91844 0.82953 0.0
H95 H 0.69951 0.22719 0.45379 0.0
C96 C 0.69206 0.21955 0.42896 0.0
C97 C 0.71422 0.19512 0.41192 0.0
C98 C 0.65832 0.23213 0.41542 0.0
H99 H 0.71842 0.16616 0.36634 0.0
C100 C 0.70157 0.18393 0.38028 0.0
C101 C 0.66748 0.19557 0.36612 0.0
C102 C 0.6465 0.21987 0.38412 0.0
C103 C 0.63079 0.25125 0.4364 0.0
H104 H 0.61952 0.228 0.37458 0.0
C105 C 0.63672 0.28643 0.44826 0.0
C106 C 0.608 0.30268 0.4669 0.0
C107 C 0.59672 0.23298 0.44421 0.0
H108 H 0.59142 0.20621 0.43581 0.0
C109 C 0.56911 0.24864 0.46285 0.0
H110 H 0.66264 0.30114 0.44236 0.0
C111 C 0.57456 0.28306 0.47393 0.0
H112 H 0.5523 0.2946 0.48805 0.0
H113 H 0.54308 0.23403 0.46857 0.0
H114 H 0.46502 0.64718 0.1685 0.0
C115 C 0.44013 0.64196 0.15334 0.0
C116 C 0.42715 0.66855 0.13297 0.0
C117 C 0.42034 0.60937 0.15545 0.0
H118 H 0.38378 0.68318 0.09893 0.0
C119 C 0.39488 0.66201 0.11344 0.0
C120 C 0.37457 0.62963 0.11526 0.0
C121 C 0.38777 0.6032 0.13604 0.0
C122 C 0.43134 0.58364 0.1807 0.0
H123 H 0.37155 0.57858 0.13839 0.0
C124 C 0.44042 0.59537 0.21257 0.0
C125 C 0.45 0.5716 0.23724 0.0
C126 C 0.43184 0.54755 0.17368 0.0
H127 H 0.42504 0.53783 0.14932 0.0
C128 C 0.44149 0.52371 0.19811 0.0
H129 H 0.43872 0.62303 0.21853 0.0
C130 C 0.45044 0.53557 0.22974 0.0
H131 H 0.45784 0.51664 0.24828 0.0
H132 H 0.44196 0.49593 0.19252 0.0
H133 H 0.15879 0.56668 0.60382 0.0
C134 C 0.14973 0.5392 0.60202 0.0
C135 C 0.17668 0.51295 0.60328 0.0
C136 C 0.11088 0.53012 0.60143 0.0
H137 H 0.18451 0.45691 0.60364 0.0
C138 C 0.16411 0.47747 0.60309 0.0
C139 C 0.12531 0.46819 0.60238 0.0
C140 C 0.09883 0.49462 0.60132 0.0
C141 C 0.08326 0.55725 0.60787 0.0
H142 H 0.06878 0.48766 0.60221 0.0
C143 C 0.06464 0.55657 0.63801 0.0
C144 C 0.04211 0.58427 0.64749 0.0
C145 C 0.07812 0.58531 0.58626 0.0
H146 H 0.09267 0.58639 0.56296 0.0
C147 C 0.05444 0.61243 0.595 0.0
H148 H 0.07006 0.53558 0.6552 0.0
C149 C 0.03692 0.61226 0.62571 0.0
H150 H 1.02002 0.63417 0.63272 0.0
H151 H 0.05056 0.63414 0.57835 0.0
C152 C 0.05559 0.0929 0.48584 0.0
N153 N 0.03791 0.14221 0.57712 0.0
C154 C 0.07266 0.15744 0.57134 0.0
C155 C 0.08106 0.1918 0.58134 0.0
C156 C 0.05351 0.21078 0.59764 0.0
C157 C 1.01824 0.19398 0.60434 0.0
C158 C 1.01097 0.15945 0.59373 0.0
Zn159 Zn 0.02657 0.09413 0.55718 0.0
C160 C 0.95084 0.09242 0.52064 0.0
N161 N 1.00477 0.99449 0.51381 0.0
C162 C 0.034 0.97651 0.5014 0.0
C163 C 0.9701 0.97867 0.51858 0.0
C164 C 0.96454 0.94274 0.51302 0.0
C165 C 0.99511 0.92285 0.50295 0.0
C166 C 0.0298 0.94039 0.49582 0.0
Zn167 Zn 1.015 0.04298 0.53319 0.0
O168 O 0.05348 0.11219 0.51129 0.0
C169 C 0.08992 0.04566 0.57038 0.0
O170 O 0.04171 0.06149 0.48747 0.0
H171 H 0.94736 0.99347 0.52863 0.0
H172 H 0.0936 0.14327 0.55799 0.0
H173 H 0.06133 0.98971 0.49784 0.0
O174 O 0.07962 0.07677 0.57568 0.0
O175 O 0.06893 0.02567 0.55233 0.0
H176 H 0.98354 0.14672 0.59801 0.0
O177 O 0.98949 0.02416 0.57913 0.0
O178 O 1.00072 0.07477 0.60328 0.0
O179 O 0.96049 0.06105 0.51479 0.0
O180 O 0.97281 0.11188 0.5384 0.0
C181 C 0.98869 0.04273 0.60511 0.0
H182 H 0.10836 0.20379 0.57507 0.0
H183 H 0.99633 0.20753 0.61714 0.0
H184 H 0.93704 0.93039 0.51805 0.0
H185 H 0.05414 0.9261 0.48812 0.0
C186 C 0.58669 0.04548 0.06653 0.0
N187 N 0.53444 0.14222 0.05836 0.0
C188 C 0.56945 0.15716 0.06389 0.0
C189 C 0.57801 0.19141 0.05378 0.0
C190 C 0.55036 0.21062 0.03762 0.0
C191 C 0.51479 0.19412 1.03116 0.0
C192 C 0.50737 0.15965 0.04186 0.0
Zn193 Zn 0.52327 0.09449 0.07904 0.0
C194 C 0.48519 0.04201 1.03221 0.0
N195 N 0.50262 0.99599 0.12472 0.0
C196 C 0.53221 0.97874 0.1377 0.0
C197 C 0.46768 0.98008 0.12145 0.0
C198 C 0.46194 0.94478 0.12984 0.0
C199 C 0.49262 0.92576 0.14118 0.0
C200 C 0.52787 0.94326 0.14591 0.0
Zn201 Zn 0.51249 0.04388 0.10407 0.0
O202 O 0.57654 0.0766 0.06084 0.0
C203 C 0.55335 0.09477 0.1504 0.0
O204 O 0.56582 0.02601 0.08493 0.0
H205 H 0.44473 0.99423 0.1107 0.0
H206 H 0.59045 0.14291 0.07725 0.0
H207 H 0.55971 0.992 0.14014 0.0
O208 O 0.55028 0.11383 0.12488 0.0
O209 O 0.54022 0.06313 0.14897 0.0
H210 H 0.47971 0.14717 0.0378 0.0
O211 O 0.45861 0.06261 0.12284 0.0
O212 O 0.46916 0.11239 0.09709 0.0
O213 O 0.48594 0.0241 0.05861 0.0
O214 O 0.49737 0.07404 0.0334 0.0
C215 C 0.44809 0.09348 0.1159 0.0
H216 H 0.60555 0.20317 0.05992 0.0
H217 H 0.49277 0.20786 1.01851 0.0
H218 H 0.43443 0.93197 0.12558 0.0
H219 H 0.55206 0.92935 0.15479 0.0
C220 C 0.5506 0.53375 0.58046 0.0
N221 N 0.54837 0.57146 0.67867 0.0
C222 C 0.52979 0.54334 0.69265 0.0
C223 C 0.53032 0.53914 0.72669 0.0
C224 C 0.55015 0.56414 0.7463 0.0
C225 C 0.57116 0.59139 0.73086 0.0
C226 C 0.56986 0.59457 0.69695 0.0
Zn227 Zn 0.53672 0.58687 0.63208 0.0
C228 C 0.60569 0.62117 0.59999 0.0
N229 N 0.5122 0.62633 0.53708 0.0
C230 C 0.48945 0.60246 0.52075 0.0
C231 C 0.52687 0.65551 0.52166 0.0
C232 C 0.51902 0.66109 0.48832 0.0
C233 C 0.49538 0.6367 0.47128 0.0
C234 C 0.48034 0.60735 0.48804 0.0
Zn235 Zn 0.52537 0.61161 0.58402 0.0
O236 O 0.55029 0.53592 0.61166 0.0
C237 C 0.45641 0.57641 0.61432 0.0
O238 O 0.54147 0.56067 0.56401 0.0
H239 H 0.54542 0.67387 0.53489 0.0
H240 H 0.51268 0.52541 0.67765 0.0
H241 H 0.47917 0.57869 0.53271 0.0
O242 O 0.47856 0.56966 0.63791 0.0
O243 O 0.46937 0.59322 0.58983 0.0
H244 H 0.58379 0.61713 0.6855 0.0
O245 O 0.50971 0.66225 0.60513 0.0
O246 O 0.52322 0.63813 0.6522 0.0
O247 O 0.58158 0.62982 0.57856 0.0
O248 O 0.59463 0.60368 0.62497 0.0
C249 C 0.51221 0.66471 0.63632 0.0
H250 H 0.51416 0.51744 0.7376 0.0
H251 H 0.58638 0.61161 0.74487 0.0
H252 H 0.53147 0.68387 0.47596 0.0
H253 H 0.46291 0.58741 0.47557 0.0
C254 C 1.01062 0.66691 0.9992 0.0
N255 N 1.01356 0.63007 0.09866 0.0
C256 C 0.02844 0.65957 0.11357 0.0
C257 C 0.02085 0.66596 0.14674 0.0
C258 C 0.99714 0.6421 0.16405 0.0
C259 C 0.98187 0.6124 0.14787 0.0
C260 C 0.99088 0.60662 0.11534 0.0
Zn261 Zn 0.02612 0.61477 0.05189 0.0
C262 C 0.95681 0.57785 1.02243 0.0
N263 N 0.04719 0.57336 0.95757 0.0
C264 C 0.06778 0.59666 0.93897 0.0
C265 C 0.02894 0.54476 0.94394 0.0
C266 C 0.02888 0.54018 0.90993 0.0
C267 C 0.04778 0.56529 0.89 0.0
C268 C 0.06848 0.59311 0.90509 0.0
Zn269 Zn 0.03625 0.58921 1.00407 0.0
O270 O 1.01006 0.66514 1.03047 0.0
C271 C 0.10576 0.62491 0.03549 0.0
O272 O 0.02062 0.6399 0.98341 0.0
H273 H 1.01253 0.5267 0.95919 0.0
H274 H 0.04689 0.67761 0.10006 0.0
H275 H 0.08141 0.61962 0.95014 0.0
O276 O 0.08201 0.63336 0.05707 0.0
O277 O 0.0943 0.60732 1.01056 0.0
H278 H 0.98051 0.58258 0.1038 0.0
O279 O 0.05142 0.53868 1.02505 0.0
O280 O 0.0433 0.56436 0.07234 0.0
O281 O 0.97862 0.57076 0.99892 0.0
O282 O 0.96989 0.59565 0.04642 0.0
C283 C 0.05255 0.53725 0.05628 0.0
H284 H 0.03347 0.68896 0.15876 0.0
H285 H 0.9643 0.59297 0.1607 0.0
H286 H 1.01297 0.51807 0.8993 0.0
H287 H 0.08297 0.61344 0.89083 0.0
H288 H 0.16022 0.12784 0.28958 0.0
H289 H 0.1443 0.23158 0.32871 0.0
H290 H 0.13475 0.10204 0.33999 0.0
H291 H 0.11659 0.20604 0.37763 0.0
H292 H 0.09621 0.1554 0.47672 0.0
H293 H 0.1248 0.17915 0.42694 0.0
H294 H 0.08331 0.08752 0.37333 0.0
H295 H 0.05611 0.06319 0.42378 0.0
C296 C 0.15126 0.14534 0.3087 0.0
C297 C 0.15442 0.18216 0.30418 0.0
C298 C 0.13599 0.13038 0.33779 0.0
C299 C 0.12314 0.15155 0.36369 0.0
C300 C 0.12641 0.18832 0.35906 0.0
C301 C 0.14187 0.2032 0.33022 0.0
C302 C 0.0932 0.14017 0.45437 0.0
C303 C 0.07357 0.10721 0.4547 0.0
C304 C 0.10947 0.15404 0.42538 0.0
C305 C 0.10651 0.13579 0.3952 0.0
C306 C 0.08702 0.1026 0.39567 0.0
C307 C 0.07103 0.08856 0.42482 0.0
H308 H 0.41118 0.98855 0.8302 0.0
H309 H 0.45111 0.8907 0.86765 0.0
H310 H 0.42687 1.01729 0.88185 0.0
H311 H 0.46845 0.91998 0.91947 0.0
H312 H 0.45971 0.97341 1.02095 0.0
H313 H 0.44542 0.94406 0.96886 0.0
H314 H 0.47269 0.04085 0.91757 0.0
H315 H 0.48602 0.07025 0.96973 0.0
C316 C 0.42362 0.97303 0.84939 0.0
C317 C 0.42937 0.93689 0.84431 0.0
C318 C 0.4331 0.98982 0.87927 0.0
C319 C 0.44898 0.97137 0.90563 0.0
C320 C 0.45575 0.93535 0.90032 0.0
C321 C 0.44627 0.91848 0.87021 0.0
C322 C 0.46232 0.98863 0.99861 0.0
C323 C 0.47378 0.02458 1.00004 0.0
C324 C 0.4545 0.97154 0.96842 0.0
C325 C 0.4578 0.98963 0.93828 0.0
C326 C 0.46907 0.0257 0.93983 0.0
C327 C 0.47686 0.04277 0.97002 0.0
H328 H 0.56287 0.63696 0.94532 0.0
H329 H 0.50716 0.53454 0.95473 0.0
H330 H 0.55921 0.6319 0.88568 0.0
H331 H 0.50353 0.52943 0.89501 0.0
H332 H 0.60485 0.58021 0.79217 0.0
H333 H 0.59632 0.58874 0.85076 0.0
H334 H 0.47819 0.55677 0.84139 0.0
H335 H 0.48625 0.54925 0.78236 0.0
C336 C 0.54858 0.61398 0.93461 0.0
C337 C 0.5354 0.58609 0.95448 0.0
C338 C 0.54694 0.61087 0.90056 0.0
C339 C 0.53175 0.57999 0.88589 0.0
C340 C 0.51543 0.55346 0.90575 0.0
C341 C 0.51744 0.55641 0.93982 0.0
C342 C 0.577 0.5751 0.8025 0.0
C343 C 0.54619 0.56431 0.78249 0.0
C344 C 0.5721 0.58014 0.83601 0.0
C345 C 0.53642 0.57409 0.85037 0.0
C346 C 0.50593 0.56178 0.8308 0.0
C347 C 0.51071 0.55712 0.7971 0.0
H348 H 0.90548 0.63115 0.36235 0.0
H349 H 0.99341 0.55605 0.35293 0.0
H350 H 0.92237 0.65588 0.30896 0.0
H351 H 1.00978 0.58032 0.2992 0.0
H352 H 0.92905 0.64436 0.19408 0.0
H353 H 0.91632 0.63376 0.25199 0.0
H354 H 0.03666 0.63458 0.27169 0.0
H355 H 0.04924 0.6451 0.21341 0.0
C356 C 0.9286 0.6201 0.34895 0.0
C357 C 0.94807 0.59158 0.36176 0.0
C358 C 0.93814 0.63417 0.31836 0.0
C359 C 0.96753 0.62018 0.3 0.0
C360 C 0.98739 0.59202 0.31302 0.0
C361 C 0.97766 0.57778 0.34353 0.0
C362 C 0.9527 0.64342 0.21104 0.0
C363 C 0.99007 0.64555 0.19948 0.0
C364 C 0.94546 0.63732 0.24416 0.0
C365 C 0.97551 0.63289 0.26628 0.0
C366 C 1.01297 0.63745 0.25506 0.0
C367 C 0.0202 0.64392 0.22189 0.0
H368 H 0.22848 0.13073 0.21269 0.0
H369 H 0.28295 0.23358 0.20332 0.0
H370 H 0.28194 0.10477 0.18534 0.0
H371 H 0.33654 0.20774 0.17641 0.0
H372 H 0.41612 0.15728 0.10411 0.0
H373 H 0.36086 0.1821 0.12953 0.0
H374 H 0.34515 0.08845 0.18837 0.0
H375 H 0.39984 0.06328 0.16206 0.0
C376 C 0.25191 0.14793 0.20504 0.0
C377 C 0.25075 0.18453 0.21035 0.0
C378 C 0.28293 0.13291 0.18928 0.0
C379 C 0.31425 0.15382 0.17826 0.0
C380 C 0.31304 0.19044 0.18366 0.0
C381 C 0.28197 0.20545 0.19928 0.0
C382 C 0.4008 0.14179 0.12232 0.0
C383 C 0.41283 0.10805 0.13078 0.0
C384 C 0.36901 0.15627 0.13728 0.0
C385 C 0.34794 0.13771 0.1615 0.0
C386 C 0.35983 0.10373 0.16967 0.0
C387 C 0.39158 0.0892 0.15459 0.0
H388 H 0.26813 0.92223 0.66506 0.0
H389 H 0.23639 1.00257 0.73281 0.0
H390 H 0.22963 0.94905 0.62209 0.0
H391 H 0.19766 0.029 0.69071 0.0
H392 H 0.11347 0.97754 0.5741 0.0
H393 H 0.16341 0.95474 0.60888 0.0
H394 H 0.19348 0.06035 0.64096 0.0
H395 H 0.14301 0.0829 0.60697 0.0
C396 C 0.25383 0.94621 0.67045 0.0
C397 C 0.25573 0.9606 0.70217 0.0
C398 C 0.23124 0.96133 0.64601 0.0
C399 C 0.21012 0.99126 0.65272 0.0
C400 C 0.21372 1.0064 0.68415 0.0
C401 C 0.23602 0.99125 0.70844 0.0
C402 C 0.13109 0.99597 0.5882 0.0
C403 C 0.12382 0.03211 0.58781 0.0
C404 C 0.15997 0.98287 0.60814 0.0
C405 C 0.18253 1.00553 0.62824 0.0
C406 C 0.17636 0.04186 0.6265 0.0
C407 C 0.14745 0.0549 0.60673 0.0
H408 H 0.73669 0.48408 0.07264 0.0
H409 H 0.71436 0.55535 0.99317 0.0
H410 H 0.80468 0.49755 0.06733 0.0
H411 H 0.7824 0.56887 0.98789 0.0
H412 H 0.91171 0.55543 0.97082 0.0
H413 H 0.84425 0.53717 0.97294 0.0
H414 H 0.84487 0.55374 0.07759 0.0
H415 H 0.91146 0.57211 0.07558 0.0
C416 C 0.7464 0.50254 0.05402 0.0
C417 C 0.72038 0.51896 0.03355 0.0
C418 C 0.78518 0.51027 0.051 0.0
C419 C 0.79867 0.53419 1.02717 0.0
C420 C 0.77271 0.55011 1.00627 0.0
C421 C 0.73386 0.54273 1.00957 0.0
C422 C 0.89737 0.55496 0.99422 0.0
C423 C 0.91675 0.56533 1.02298 0.0
C424 C 0.85887 0.54469 0.99541 0.0
C425 C 0.83953 0.54401 1.02546 0.0
C426 C 0.85919 0.55371 0.05418 0.0
C427 C 0.89728 0.56445 0.05294 0.0
H428 H 0.83504 0.57762 0.54997 0.0
H429 H 0.829 0.68871 0.52972 0.0
H430 H 0.77114 0.57752 0.57294 0.0
H431 H 0.76626 0.68884 0.55368 0.0
H432 H 0.63798 0.66112 0.5515 0.0
H433 H 0.70441 0.66521 0.53623 0.0
H434 H 0.73262 0.60002 0.61879 0.0
H435 H 0.66574 0.5955 0.63396 0.0
C436 C 0.82029 0.60203 0.55078 0.0
C437 C 0.83718 0.63314 0.53813 0.0
C438 C 0.78391 0.60207 0.56422 0.0
C439 C 0.76367 0.63319 0.56506 0.0
C440 C 0.78098 0.6644 0.55313 0.0
C441 C 0.81719 0.66437 0.53975 0.0
C442 C 0.65836 0.64807 0.56673 0.0
C443 C 0.64655 0.62788 0.59387 0.0
C444 C 0.6965 0.65051 0.55803 0.0
C445 C 0.72374 0.63277 0.57622 0.0
C446 C 0.71218 0.61361 0.60408 0.0
C447 C 0.67395 0.61131 0.61292 0.0
H448 H 0.08992 0.33384 0.15763 0.0
H449 H 0.1878 0.40164 0.17773 0.0
H450 H 0.06582 0.37844 0.11967 0.0
H451 H 0.16348 0.44608 0.141 0.0
H452 H 0.07861 0.53365 0.11944 0.0
H453 H 0.1036 0.48365 0.14879 0.0
H454 H 0.08265 0.41766 0.06431 0.0
H455 H 0.05839 0.46839 0.03423 0.0
C456 C 0.10695 0.3576 0.15316 0.0
C457 C 0.14101 0.36385 0.1708 0.0
C458 C 0.09294 0.38341 0.13163 0.0
C459 C 0.11232 0.41631 0.12761 0.0
C460 C 0.14741 0.42144 0.14372 0.0
C461 C 0.16158 0.39567 0.16461 0.0
C462 C 0.07914 0.50856 0.10693 0.0
C463 C 0.06638 0.50542 0.07424 0.0
C464 C 0.0937 0.47978 0.12384 0.0
C465 C 0.09538 0.44641 0.10904 0.0
C466 C 0.08176 0.44284 0.0766 0.0
C467 C 0.06795 0.47202 0.0593 0.0
H468 H 0.57448 0.43177 0.07392 0.0
H469 H 0.64797 0.41923 0.99098 0.0
H470 H 0.55313 0.3702 0.06945 0.0
H471 H 0.62563 0.35811 0.98539 0.0
H472 H 0.61621 0.24181 1.01502 0.0
H473 H 0.63249 0.30422 1.01226 0.0
H474 H 0.51772 0.32758 0.03862 0.0
H475 H 0.5022 0.26496 0.04364 0.0
C476 C 0.58567 0.41582 0.05451 0.0
C477 C 0.61318 0.42991 0.03309 0.0
C478 C 0.57324 0.38066 0.05169 0.0
C479 C 0.58769 0.35908 1.02706 0.0
C480 C 0.61445 0.37369 1.00505 0.0
C481 C 0.62725 0.40867 1.00819 0.0
C482 C 0.59442 0.26025 1.02021 0.0
C483 C 0.55809 0.24835 1.03009 0.0
C484 C 0.60362 0.29613 1.01821 0.0
C485 C 0.57654 0.32105 1.02559 0.0
C486 C 0.53951 0.30913 0.03346 0.0
C487 C 0.53042 0.27318 0.03582 0.0
H488 H 0.96171 0.70351 0.55816 0.0
H489 H 0.95001 0.70568 0.45285 0.0
H490 H 0.98497 0.7648 0.55759 0.0
H491 H 0.97201 0.76697 0.45221 0.0
H492 H 0.02486 0.8765 0.45919 0.0
H493 H 1.02007 0.8123 0.46102 0.0
H494 H 0.95222 0.81752 0.54862 0.0
H495 H 0.95878 0.88104 0.54783 0.0
C496 C 0.96479 0.71698 0.53489 0.0
C497 C 0.9539 0.70006 0.50561 0.0
C498 C 0.97783 0.75207 0.53452 0.0
C499 C 0.97964 0.77097 0.5049 0.0
C500 C 0.97128 0.75319 0.47541 0.0
C501 C 0.95864 0.71802 0.47577 0.0
C502 C 1.00932 0.86383 0.47901 0.0
C503 C 0.99178 0.8839 0.5031 0.0
C504 C 1.00641 0.82709 0.47997 0.0
C505 C 0.9859 0.80974 0.50504 0.0
C506 C 0.96882 0.82991 0.52929 0.0
C507 C 0.97189 0.86646 0.52842 0.0
H508 H 0.44643 0.81403 0.79068 0.0
H509 H 0.43485 0.8727 0.70129 0.0
H510 H 0.46903 0.76425 0.75957 0.0
H511 H 0.45933 0.82412 0.67011 0.0
H512 H 0.46964 0.72021 0.61528 0.0
H513 H 0.44946 0.77068 0.64662 0.0
H514 H 0.51221 0.73475 0.73062 0.0
H515 H 0.53027 0.68351 0.69968 0.0
C516 C 0.44962 0.81666 0.76441 0.0
C517 C 0.43874 0.84764 0.7487 0.0
C518 C 0.46274 0.78791 0.74627 0.0
C519 C 0.4661 0.78918 0.71167 0.0
C520 C 0.45645 0.82092 0.69631 0.0
C521 C 0.44275 0.8493 0.71438 0.0
C522 C 0.47923 0.72316 0.64041 0.0
C523 C 0.50166 0.69741 0.6547 0.0
C524 C 0.4678 0.75251 0.65862 0.0
C525 C 0.47887 0.75771 0.69178 0.0
C526 C 0.502 0.73207 0.70569 0.0
C527 C 0.51284 0.70249 0.68765 0.0
H528 H 0.91243 0.99376 0.80702 0.0
H529 H 0.95042 0.89459 0.77132 0.0
H530 H 0.92945 0.02157 0.75537 0.0
H531 H 0.96909 0.92287 0.71956 0.0
H532 H 0.96251 0.97461 0.61726 0.0
H533 H 0.94741 0.94645 0.66956 0.0
H534 H 0.97544 0.04397 0.71971 0.0
H535 H 0.98958 0.07222 0.66725 0.0
C536 C 0.92477 0.97775 0.78824 0.0
C537 C 0.92954 0.94152 0.7938 0.0
C538 C 0.935 0.99399 0.75835 0.0
C539 C 0.95069 0.97487 0.73243 0.0
C540 C 0.95657 0.93877 0.7383 0.0
C541 C 0.94633 0.92246 0.7684 0.0
C542 C 0.96517 0.99025 0.63938 0.0
C543 C 0.97706 0.02606 0.63751 0.0
C544 C 0.95685 0.97384 0.66972 0.0
C545 C 0.96009 0.99247 0.69963 0.0
C546 C 0.97184 0.0284 0.69764 0.0
C547 C 0.98012 0.04481 0.66728 0.0
H548 H 0.67224 0.12828 0.34042 0.0
H549 H 0.62814 0.22946 0.31704 0.0
H550 H 0.64682 0.10467 0.28895 0.0
H551 H 0.60134 0.20548 0.26626 0.0
H552 H 0.58399 0.16157 0.16218 0.0
H553 H 0.61242 0.18547 0.21254 0.0
H554 H 0.59142 0.08555 0.26043 0.0
H555 H 0.56376 0.06157 0.20983 0.0
C556 C 0.65735 0.14573 0.32434 0.0
C557 C 0.65261 0.18108 0.33349 0.0
C558 C 0.64213 0.1319 0.29474 0.0
C559 C 0.62154 0.15282 0.27287 0.0
C560 C 0.61718 0.18828 0.28185 0.0
C561 C 0.63232 0.20208 0.31148 0.0
C562 C 0.58547 0.14458 0.18339 0.0
C563 C 0.57137 0.10944 0.18152 0.0
C564 C 0.60167 0.15845 0.21261 0.0
C565 C 0.60451 0.13776 0.24121 0.0
C566 C 0.59053 0.10251 0.23918 0.0
C567 C 0.5743 0.08867 0.20998 0.0
H568 H 0.42313 0.54414 0.29463 0.0
H569 H 0.49461 0.62865 0.25581 0.0
H570 H 0.43385 0.56687 0.3499 0.0
H571 H 0.50489 0.65181 0.31127 0.0
H572 H 0.54734 0.64584 0.42238 0.0
H573 H 0.53657 0.63384 0.36401 0.0
H574 H 0.41655 0.61959 0.3819 0.0
H575 H 0.42737 0.63145 0.44 0.0
C576 C 0.44133 0.56744 0.29796 0.0
C577 C 0.45805 0.58458 0.27093 0.0
C578 C 0.44707 0.58075 0.32954 0.0
C579 C 0.46984 0.61139 0.33483 0.0
C580 C 0.48718 0.6282 0.30789 0.0
C581 C 0.48116 0.61503 0.27621 0.0
C582 C 0.51858 0.64134 0.41355 0.0
C583 C 0.48822 0.63919 0.43563 0.0
C584 C 0.51242 0.63428 0.38022 0.0
C585 C 0.47582 0.62497 0.36861 0.0
C586 C 0.44516 0.62584 0.39032 0.0
C587 C 0.4513 0.6329 0.42347 0.0
H588 H 0.05554 0.63718 0.69101 0.0
H589 H 1.00287 0.5334 0.68169 0.0
H590 H 0.05237 0.63234 0.75064 0.0
H591 H 0.9997 0.52853 0.74143 0.0
H592 H 0.10135 0.58177 0.8438 0.0
H593 H 0.09153 0.58976 0.78523 0.0
H594 H 0.97418 0.55578 0.79527 0.0
H595 H 0.9835 0.54883 0.85431 0.0
C596 C 0.04194 0.61393 0.70172 0.0
C597 C 0.02957 0.5856 0.6819 0.0
C598 C 0.04059 0.61097 0.73577 0.0
C599 C 0.02648 0.57979 0.75047 0.0
C600 C 1.01078 0.55279 0.73065 0.0
C601 C 1.01251 0.5556 0.69657 0.0
C602 C 0.07339 0.5761 0.83363 0.0
C603 C 0.04315 0.56496 0.85383 0.0
C604 C 0.06776 0.58083 0.80013 0.0
C605 C 0.0319 0.5741 0.78597 0.0
C606 C 1.00203 0.56135 0.80572 0.0
C607 C 1.00753 0.55701 0.83942 0.0
H608 H 0.71146 0.90885 0.94201 0.0
H609 H 0.78258 1.0033 0.93946 0.0
H610 H 0.67284 0.93418 0.98446 0.0
H611 H 0.74426 0.02889 0.98282 0.0
H612 H 0.63367 0.07837 1.0215 0.0
H613 H 0.68258 0.05264 0.98816 0.0
H614 H 0.66486 0.95384 0.03884 0.0
H615 H 0.61527 0.9794 0.07158 0.0
C616 C 0.71955 0.93473 0.95134 0.0
C617 C 0.7503 0.95392 0.93742 0.0
C618 C 0.69733 0.94938 0.97582 0.0
C619 C 0.70493 0.9839 0.98722 0.0
C620 C 0.73701 1.00247 0.97447 0.0
C621 C 0.75945 0.98762 0.94995 0.0
C622 C 0.6405 0.05127 1.02589 0.0
C623 C 0.62013 0.03102 0.04925 0.0
C624 C 0.66886 0.03647 1.00678 0.0
C625 C 0.67784 1.00089 1.01037 0.0
C626 C 0.6585 0.9811 0.03475 0.0
C627 C 0.63011 0.99588 0.05381 0.0
H628 H 0.74577 0.12982 0.4024 0.0
H629 H 0.76359 0.22546 0.45834 0.0
H630 H 0.80175 0.10625 0.42708 0.0
H631 H 0.81726 0.20047 0.4855 0.0
H632 H 0.93313 0.16157 0.51294 0.0
H633 H 0.87827 0.18585 0.48646 0.0
H634 H 0.83205 0.08057 0.46906 0.0
H635 H 0.88849 0.05658 0.49378 0.0
C636 C 0.76142 0.14613 0.41989 0.0
C637 C 0.74934 0.18008 0.42776 0.0
C638 C 0.79361 0.13205 0.43483 0.0
C639 C 0.81496 0.15093 0.45886 0.0
C640 C 0.80269 0.18479 0.4669 0.0
C641 C 0.77093 0.19912 0.45152 0.0
C642 C 0.91123 0.14354 0.50351 0.0
C643 C 0.91557 0.10697 0.50569 0.0
C644 C 0.87921 0.15756 0.48834 0.0
C645 C 0.84964 0.13562 0.47523 0.0
C646 C 0.85393 0.09888 0.47792 0.0
C647 C 0.88641 0.08487 0.49254 0.0
H648 H 0.35457 0.64674 0.05238 0.0
H649 H 0.30892 0.60538 0.14309 0.0
H650 H 0.29022 0.64817 1.02949 0.0
H651 H 0.24514 0.60658 0.12025 0.0
H652 H 0.13857 0.65803 0.08817 0.0
H653 H 0.2049 0.65845 0.10442 0.0
H654 H 0.23254 0.60561 1.01458 0.0
H655 H 0.16571 0.60494 0.99807 0.0
C656 C 0.33086 0.6375 0.06719 0.0
C657 C 0.33673 0.62586 0.09947 0.0
C658 C 0.29417 0.63828 0.05411 0.0
C659 C 0.2628 0.62795 0.0733 0.0
C660 C 0.26884 0.61517 0.1051 0.0
C661 C 0.30539 0.61403 0.11802 0.0
C662 C 0.15874 0.64698 0.07153 0.0
C663 C 0.14674 0.63107 0.04197 0.0
C664 C 0.19671 0.64702 0.08099 0.0
C665 C 0.22361 0.63143 0.06103 0.0
C666 C 0.21225 0.61766 1.03044 0.0
C667 C 0.17404 0.61735 1.02102 0.0
H668 H 0.21665 0.56644 0.57283 0.0
H669 H 0.22951 0.48137 0.64164 0.0
H670 H 0.28383 0.58199 0.57811 0.0
H671 H 0.29722 0.49567 0.64543 0.0
H672 H 0.40887 0.57383 0.56211 0.0
H673 H 0.34185 0.55823 0.56093 0.0
H674 H 0.34425 0.53885 0.66526 0.0
H675 H 0.41246 0.55361 0.66625 0.0
C676 C 0.23379 0.55105 0.58908 0.0
C677 C 0.21772 0.52247 0.60655 0.0
C678 C 0.27243 0.5597 0.59185 0.0
C679 C 0.29602 0.53982 0.61193 0.0
C680 C 0.27985 0.51163 0.62988 0.0
C681 C 0.24112 0.50311 0.62729 0.0
C682 C 0.39525 0.56623 0.58489 0.0
C683 C 0.41592 0.56522 0.61437 0.0
C684 C 0.35666 0.55751 0.58422 0.0
C685 C 0.33749 0.54786 0.61307 0.0
C686 C 0.35825 0.54607 0.64256 0.0
C687 C 0.39722 0.55459 0.64319 0.0
H688 H 0.96118 0.82753 0.84815 0.0
H689 H 0.91264 0.86662 0.93718 0.0
H690 H 0.98647 0.7785 0.87867 0.0
H691 H 0.93505 0.81661 0.96697 0.0
H692 H 0.9987 0.73399 1.0228 0.0
H693 H 0.98033 0.78593 0.99245 0.0
H694 H 0.97595 0.72499 0.90305 0.0
H695 H 0.99621 0.67392 0.93325 0.0
C696 C 0.95583 0.82593 0.8742 0.0
C697 C 0.93414 0.85148 0.88966 0.0
C698 C 0.96993 0.79714 0.89187 0.0
C699 C 0.9628 0.79248 0.92577 0.0
C700 C 0.94191 0.81862 0.94124 0.0
C701 C 0.92827 0.84747 0.92372 0.0
C702 C 0.99396 0.7317 0.99663 0.0
C703 C 0.99909 0.69937 0.98076 0.0
C704 C 0.98302 0.76168 0.97899 0.0
C705 C 0.97615 0.76051 0.94474 0.0
C706 C 0.9814 0.72796 0.92902 0.0
C707 C 0.99283 0.6982 0.94658 0.0
H708 H 0.44971 0.71271 0.08345 0.0
H709 H 0.44076 0.7058 0.18875 0.0
H710 H 0.47072 0.77466 0.08838 0.0
H711 H 0.46148 0.7676 0.19363 0.0
H712 H 0.43826 0.88786 0.17451 0.0
H713 H 0.42763 0.82389 0.17437 0.0
H714 H 0.52659 0.81318 0.11405 0.0
H715 H 0.5374 0.87709 0.11443 0.0
C716 C 0.45276 0.72437 0.10758 0.0
C717 C 0.44381 0.70462 0.1357 0.0
C718 C 0.46489 0.75961 0.11043 0.0
C719 C 0.46758 0.77571 0.14139 0.0
C720 C 0.45949 0.75572 0.16952 0.0
C721 C 0.44794 0.7204 0.16672 0.0
C722 C 0.45799 0.87171 0.16169 0.0
C723 C 0.48865 0.88721 0.14457 0.0
C724 C 0.45204 0.83524 0.1617 0.0
C725 C 0.4763 0.81382 0.14411 0.0
C726 C 0.50748 0.82925 0.12766 0.0
C727 C 0.51379 0.86567 0.12811 0.0
H728 H 0.07348 0.43268 0.56393 0.0
H729 H 0.14779 0.42019 0.64702 0.0
H730 H 0.0536 0.37069 0.5673 0.0
H731 H 0.127 0.35854 0.6514 0.0
H732 H 0.1195 0.24263 0.61988 0.0
H733 H 0.13482 0.30523 0.62333 0.0
H734 H 1.01915 0.32725 0.59781 0.0
H735 H 1.00452 0.26454 0.59214 0.0
C736 C 0.08516 0.41665 0.58314 0.0
C737 C 0.11243 0.43093 0.60496 0.0
C738 C 0.0736 0.38124 0.5853 0.0
C739 C 0.08872 0.35955 0.60963 0.0
C740 C 0.11531 0.37426 0.63198 0.0
C741 C 0.12721 0.40953 0.62953 0.0
C742 C 0.09732 0.26082 0.615 0.0
C743 C 0.06095 0.24855 0.60524 0.0
C744 C 0.10597 0.29679 0.6174 0.0
C745 C 0.07831 0.32137 0.61051 0.0
C746 C 0.04133 0.30906 0.60262 0.0
C747 C 0.03278 0.27304 0.59988 0.0
H748 H 0.64607 0.33076 0.52055 0.0
H749 H 0.57027 0.35793 0.44253 0.0
H750 H 0.63512 0.38711 0.54755 0.0
H751 H 0.55837 0.41358 0.46942 0.0
H752 H 0.55784 0.52263 0.51421 0.0
H753 H 0.5775 0.47031 0.48559 0.0
H754 H 0.5893 0.41691 0.57819 0.0
H755 H 0.57059 0.46991 0.60689 0.0
C756 C 0.62805 0.3493 0.50859 0.0
C757 C 0.60999 0.34014 0.47879 0.0
C758 C 0.62103 0.38146 0.52443 0.0
C759 C 0.59548 0.40545 0.5111 0.0
C760 C 0.57865 0.39659 0.48058 0.0
C761 C 0.58565 0.36455 0.46487 0.0
C762 C 0.56461 0.49979 0.52861 0.0
C763 C 0.5623 0.50084 0.56309 0.0
C764 C 0.57583 0.46943 0.51204 0.0
C765 C 0.58511 0.43868 0.5292 0.0
C766 C 0.58305 0.43986 0.56378 0.0
C767 C 0.5719 0.47035 0.58039 0.0
loop_
_geom_bond_atom_site_label_1
_geom_bond_atom_site_label_2
_geom_bond_distance
_geom_bond_site_symmetry_2
_ccdc_geom_bond_type
H0 C1 0.949 . S
C1 H0 0.949 . S
C1 C2 1.395 . S
C1 C3 1.391 . S
C2 C1 1.395 . S
C2 C5 1.390 . S
C3 C1 1.391 . S
C3 C7 1.387 . S
C3 C8 1.491 . S
H4 C5 0.950 . S
C5 C2 1.390 . S
C5 H4 0.950 . S
C5 C6 1.378 . S
C6 C5 1.378 . S
C6 C7 1.409 . S
C7 C3 1.387 . S
C7 C6 1.409 . S
C7 H9 0.951 . S
C8 C3 1.491 . S
C8 C10 1.382 . S
C8 C12 1.404 . S
H9 C7 0.951 . S
C10 C8 1.382 . S
C10 C11 1.390 . S
C10 H15 0.949 . S
C11 C10 1.390 . S
C11 C16 1.399 . S
C12 C8 1.404 . S
C12 H13 0.950 . S
C12 C14 1.375 . S
H13 C12 0.950 . S
C14 C12 1.375 . S
C14 C16 1.382 . S
C14 H18 0.950 . S
H15 C10 0.949 . S
C16 C11 1.399 . S
C16 C14 1.382 . S
C16 H17 0.952 . S
H17 C16 0.952 . S
H18 C14 0.950 . S
H19 C20 0.949 . S
C20 H19 0.949 . S
C20 C21 1.395 . S
C20 C22 1.391 . S
C21 C20 1.395 . S
C21 C24 1.390 . S
C22 C20 1.391 . S
C22 C26 1.387 . S
C22 C27 1.491 . S
H23 C24 0.950 . S
C24 C21 1.390 . S
C24 H23 0.950 . S
C24 C25 1.378 . S
C25 C24 1.378 . S
C25 C26 1.409 . S
C26 C22 1.387 . S
C26 C25 1.409 . S
C26 H28 0.951 . S
C27 C22 1.491 . S
C27 C29 1.382 . S
C27 C31 1.404 . S
H28 C26 0.951 . S
C29 C27 1.382 . S
C29 C30 1.390 . S
C29 H34 0.949 . S
C30 C29 1.390 . S
C30 C35 1.399 . S
C31 C27 1.404 . S
C31 H32 0.950 . S
C31 C33 1.375 . S
H32 C31 0.950 . S
C33 C31 1.375 . S
C33 C35 1.382 . S
C33 H37 0.950 . S
H34 C29 0.949 . S
C35 C30 1.399 . S
C35 C33 1.382 . S
C35 H36 0.952 . S
H36 C35 0.952 . S
H37 C33 0.950 . S
H38 C39 0.949 . S
C39 H38 0.949 . S
C39 C40 1.395 . S
C39 C41 1.391 . S
C40 C39 1.395 . S
C40 C43 1.390 . S
C41 C39 1.391 . S
C41 C45 1.387 . S
C41 C46 1.491 . S
H42 C43 0.950 . S
C43 C40 1.390 . S
C43 H42 0.950 . S
C43 C44 1.378 . S
C44 C43 1.378 . S
C44 C45 1.409 . S
C45 C41 1.387 . S
C45 C44 1.409 . S
C45 H47 0.951 . S
C46 C41 1.491 . S
C46 C48 1.382 . S
C46 C50 1.404 . S
H47 C45 0.951 . S
C48 C46 1.382 . S
C48 C49 1.390 . S
C48 H53 0.949 . S
C49 C48 1.390 . S
C49 C54 1.399 . S
C50 C46 1.404 . S
C50 H51 0.950 . S
C50 C52 1.375 . S
H51 C50 0.950 . S
C52 C50 1.375 . S
C52 C54 1.382 . S
C52 H56 0.950 . S
H53 C48 0.949 . S
C54 C49 1.399 . S
C54 C52 1.382 . S
C54 H55 0.952 . S
H55 C54 0.952 . S
H56 C52 0.950 . S
H57 C58 0.949 . S
C58 H57 0.949 . S
C58 C59 1.395 . S
C58 C60 1.391 . S
C59 C58 1.395 . S
C59 C62 1.390 . S
C60 C58 1.391 . S
C60 C64 1.387 . S
C60 C65 1.491 . S
H61 C62 0.950 . S
C62 C59 1.390 . S
C62 H61 0.950 . S
C62 C63 1.378 . S
C63 C62 1.378 . S
C63 C64 1.409 . S
C64 C60 1.387 . S
C64 C63 1.409 . S
C64 H66 0.951 . S
C65 C60 1.491 . S
C65 C67 1.382 . S
C65 C69 1.404 . S
H66 C64 0.951 . S
C67 C65 1.382 . S
C67 C68 1.390 . S
C67 H72 0.949 . S
C68 C67 1.390 . S
C68 C73 1.399 . S
C69 C65 1.404 . S
C69 H70 0.950 . S
C69 C71 1.375 . S
H70 C69 0.950 . S
C71 C69 1.375 . S
C71 C73 1.382 . S
C71 H75 0.950 . S
H72 C67 0.949 . S
C73 C68 1.399 . S
C73 C71 1.382 . S
C73 H74 0.952 . S
H74 C73 0.952 . S
H75 C71 0.950 . S
H76 C77 0.949 . S
C77 H76 0.949 . S
C77 C78 1.395 . S
C77 C79 1.391 . S
C78 C77 1.395 . S
C78 C81 1.390 . S
C79 C77 1.391 . S
C79 C83 1.387 . S
C79 C84 1.491 . S
H80 C81 0.950 . S
C81 C78 1.390 . S
C81 H80 0.950 . S
C81 C82 1.378 . S
C82 C81 1.378 . S
C82 C83 1.409 . S
C83 C79 1.387 . S
C83 C82 1.409 . S
C83 H85 0.951 . S
C84 C79 1.491 . S
C84 C86 1.382 . S
C84 C88 1.404 . S
H85 C83 0.951 . S
C86 C84 1.382 . S
C86 C87 1.390 . S
C86 H91 0.949 . S
C87 C86 1.390 . S
C87 C92 1.399 . S
C88 C84 1.404 . S
C88 H89 0.950 . S
C88 C90 1.375 . S
H89 C88 0.950 . S
C90 C88 1.375 . S
C90 C92 1.382 . S
C90 H94 0.950 . S
H91 C86 0.949 . S
C92 C87 1.399 . S
C92 C90 1.382 . S
C92 H93 0.952 . S
H93 C92 0.952 . S
H94 C90 0.950 . S
H95 C96 0.949 . S
C96 H95 0.949 . S
C96 C97 1.395 . S
C96 C98 1.391 . S
C97 C96 1.395 . S
C97 C100 1.390 . S
C98 C96 1.391 . S
C98 C102 1.387 . S
C98 C103 1.491 . S
H99 C100 0.950 . S
C100 C97 1.390 . S
C100 H99 0.950 . S
C100 C101 1.378 . S
C101 C100 1.378 . S
C101 C102 1.409 . S
C102 C98 1.387 . S
C102 C101 1.409 . S
C102 H104 0.951 . S
C103 C98 1.491 . S
C103 C105 1.382 . S
C103 C107 1.404 . S
H104 C102 0.951 . S
C105 C103 1.382 . S
C105 C106 1.390 . S
C105 H110 0.949 . S
C106 C105 1.390 . S
C106 C111 1.399 . S
C107 C103 1.404 . S
C107 H108 0.950 . S
C107 C109 1.375 . S
H108 C107 0.950 . S
C109 C107 1.375 . S
C109 C111 1.382 . S
C109 H113 0.950 . S
H110 C105 0.949 . S
C111 C106 1.399 . S
C111 C109 1.382 . S
C111 H112 0.952 . S
H112 C111 0.952 . S
H113 C109 0.950 . S
H114 C115 0.949 . S
C115 H114 0.949 . S
C115 C116 1.395 . S
C115 C117 1.391 . S
C116 C115 1.395 . S
C116 C119 1.390 . S
C117 C115 1.391 . S
C117 C121 1.387 . S
C117 C122 1.491 . S
H118 C119 0.950 . S
C119 C116 1.390 . S
C119 H118 0.950 . S
C119 C120 1.378 . S
C120 C119 1.378 . S
C120 C121 1.409 . S
C121 C117 1.387 . S
C121 C120 1.409 . S
C121 H123 0.951 . S
C122 C117 1.491 . S
C122 C124 1.382 . S
C122 C126 1.404 . S
H123 C121 0.951 . S
C124 C122 1.382 . S
C124 C125 1.390 . S
C124 H129 0.949 . S
C125 C124 1.390 . S
C125 C130 1.399 . S
C126 C122 1.404 . S
C126 H127 0.950 . S
C126 C128 1.375 . S
H127 C126 0.950 . S
C128 C126 1.375 . S
C128 C130 1.382 . S
C128 H132 0.950 . S
H129 C124 0.949 . S
C130 C125 1.399 . S
C130 C128 1.382 . S
C130 H131 0.952 . S
H131 C130 0.952 . S
H132 C128 0.950 . S
H133 C134 0.949 . S
C134 H133 0.949 . S
C134 C135 1.395 . S
C134 C136 1.391 . S
C135 C134 1.395 . S
C135 C138 1.390 . S
C136 C134 1.391 . S
C136 C140 1.387 . S
C136 C141 1.491 . S
H137 C138 0.950 . S
C138 C135 1.390 . S
C138 H137 0.950 . S
C138 C139 1.378 . S
C139 C138 1.378 . S
C139 C140 1.409 . S
C140 C136 1.387 . S
C140 C139 1.409 . S
C140 H142 0.951 . S
C141 C136 1.491 . S
C141 C143 1.382 . S
C141 C145 1.404 . S
H142 C140 0.951 . S
C143 C141 1.382 . S
C143 C144 1.390 . S
C143 H148 0.949 . S
C144 C143 1.390 . S
C144 C149 1.399 . S
C145 C141 1.404 . S
C145 H146 0.950 . S
C145 C147 1.375 . S
H146 C145 0.950 . S
C147 C145 1.375 . S
C147 C149 1.382 . S
C147 H151 0.950 . S
H148 C143 0.949 . S
C149 C144 1.399 . S
C149 C147 1.382 . S
C149 H150 0.952 . S
H150 C149 0.952 . S
H151 C147 0.950 . S
C152 O168 1.251 . S
C152 O170 1.254 . S
N153 C154 1.333 . S
N153 C158 1.307 . S
N153 Zn159 2.020 . S
C154 N153 1.333 . S
C154 C155 1.379 . S
C154 H172 0.952 . S
C155 C154 1.379 . S
C155 C156 1.390 . S
C155 H182 0.949 . S
C156 C155 1.390 . S
C156 C157 1.357 . S
C157 C156 1.357 . S
C157 C158 1.370 . S
C157 H183 0.950 . S
C158 N153 1.307 . S
C158 C157 1.370 . S
C158 H176 0.948 1_455 S
Zn159 N153 2.020 . S
Zn159 O168 2.039 . S
Zn159 O174 2.034 . S
Zn159 O178 2.025 1_455 S
Zn159 O180 2.024 1_455 S
C160 O179 1.246 . S
C160 O180 1.249 . S
N161 C162 1.307 . S
N161 C163 1.333 . S
N161 Zn167 2.020 1_565 S
C162 N161 1.307 . S
C162 C166 1.370 . S
C162 H173 0.948 1_655 S
C163 N161 1.333 . S
C163 C164 1.379 . S
C163 H171 0.952 . S
C164 C163 1.379 . S
C164 C165 1.390 . S
C164 H184 0.949 . S
C165 C164 1.390 . S
C165 C166 1.357 . S
C166 C162 1.370 . S
C166 C165 1.357 . S
C166 H185 0.950 . S
Zn167 N161 2.020 1_545 S
Zn167 O170 2.025 1_655 S
Zn167 O175 2.024 1_655 S
Zn167 O177 2.039 . S
Zn167 O179 2.034 . S
O168 C152 1.251 . S
O168 Zn159 2.039 . S
C169 O174 1.246 . S
C169 O175 1.249 . S
O170 C152 1.254 . S
O170 Zn167 2.025 1_455 S
H171 C163 0.952 . S
H172 C154 0.952 . S
H173 C162 0.948 1_455 S
O174 Zn159 2.034 . S
O174 C169 1.246 . S
O175 Zn167 2.024 1_455 S
O175 C169 1.249 . S
H176 C158 0.948 1_655 S
O177 Zn167 2.039 . S
O177 C181 1.251 . S
O178 Zn159 2.025 1_655 S
O178 C181 1.254 . S
O179 C160 1.246 . S
O179 Zn167 2.034 . S
O180 Zn159 2.024 1_655 S
O180 C160 1.249 . S
C181 O177 1.251 . S
C181 O178 1.254 . S
H182 C155 0.949 . S
H183 C157 0.950 . S
H184 C164 0.949 . S
H185 C166 0.950 . S
C186 O202 1.251 . S
C186 O204 1.254 . S
N187 C188 1.333 . S
N187 C192 1.307 . S
N187 Zn193 2.020 . S
C188 N187 1.333 . S
C188 C189 1.379 . S
C188 H206 0.952 . S
C189 C188 1.379 . S
C189 C190 1.390 . S
C189 H216 0.949 . S
C190 C189 1.390 . S
C190 C191 1.357 . S
C191 C190 1.357 . S
C191 C192 1.370 . S
C191 H217 0.950 . S
C192 N187 1.307 . S
C192 C191 1.370 . S
C192 H210 0.948 . S
Zn193 N187 2.020 . S
Zn193 O202 2.039 . S
Zn193 O208 2.034 . S
Zn193 O212 2.025 . S
Zn193 O214 2.024 . S
C194 O213 1.252 . S
C194 O214 1.250 . S
N195 C196 1.307 . S
N195 C197 1.333 . S
N195 Zn201 2.020 1_565 S
C196 N195 1.307 . S
C196 C200 1.370 . S
C196 H207 0.948 . S
C197 N195 1.333 . S
C197 C198 1.379 . S
C197 H205 0.952 . S
C198 C197 1.379 . S
C198 C199 1.390 . S
C198 H218 0.949 . S
C199 C198 1.390 . S
C199 C200 1.357 . S
C200 C196 1.370 . S
C200 C199 1.357 . S
C200 H219 0.950 . S
Zn201 N195 2.020 1_545 S
Zn201 O204 2.025 . S
Zn201 O209 2.024 . S
Zn201 O211 2.039 . S
Zn201 O213 2.034 . S
O202 C186 1.251 . S
O202 Zn193 2.039 . S
C203 O208 1.246 . S
C203 O209 1.249 . S
O204 C186 1.254 . S
O204 Zn201 2.025 . S
H205 C197 0.952 . S
H206 C188 0.952 . S
H207 C196 0.948 . S
O208 Zn193 2.034 . S
O208 C203 1.246 . S
O209 Zn201 2.024 . S
O209 C203 1.249 . S
H210 C192 0.948 . S
O211 Zn201 2.039 . S
O211 C215 1.251 . S
O212 Zn193 2.025 . S
O212 C215 1.254 . S
O213 C194 1.252 . S
O213 Zn201 2.034 . S
O214 Zn193 2.024 . S
O214 C194 1.250 . S
C215 O211 1.251 . S
C215 O212 1.254 . S
H216 C189 0.949 . S
H217 C191 0.950 . S
H218 C198 0.949 . S
H219 C200 0.950 . S
C220 O236 1.251 . S
C220 O238 1.254 . S
N221 C222 1.333 . S
N221 C226 1.307 . S
N221 Zn227 2.020 . S
C222 N221 1.333 . S
C222 C223 1.379 . S
C222 H240 0.952 . S
C223 C222 1.379 . S
C223 C224 1.390 . S
C223 H250 0.949 . S
C224 C223 1.390 . S
C224 C225 1.357 . S
C225 C224 1.357 . S
C225 C226 1.370 . S
C225 H251 0.950 . S
C226 N221 1.307 . S
C226 C225 1.370 . S
C226 H244 0.948 . S
Zn227 N221 2.020 . S
Zn227 O236 2.039 . S
Zn227 O242 2.034 . S
Zn227 O246 2.025 . S
Zn227 O248 2.024 . S
C228 O247 1.246 . S
C228 O248 1.249 . S
N229 C230 1.307 . S
N229 C231 1.333 . S
N229 Zn235 2.020 . S
C230 N229 1.307 . S
C230 C234 1.370 . S
C230 H241 0.948 . S
C231 N229 1.333 . S
C231 C232 1.379 . S
C231 H239 0.952 . S
C232 C231 1.379 . S
C232 C233 1.390 . S
C232 H252 0.949 . S
C233 C232 1.390 . S
C233 C234 1.357 . S
C234 C230 1.370 . S
C234 C233 1.357 . S
C234 H253 0.950 . S
Zn235 N229 2.020 . S
Zn235 O238 2.025 . S
Zn235 O243 2.024 . S
Zn235 O245 2.039 . S
Zn235 O247 2.034 . S
O236 C220 1.251 . S
O236 Zn227 2.039 . S
C237 O242 1.246 . S
C237 O243 1.249 . S
O238 C220 1.254 . S
O238 Zn235 2.025 . S
H239 C231 0.952 . S
H240 C222 0.952 . S
H241 C230 0.948 . S
O242 Zn227 2.034 . S
O242 C237 1.246 . S
O243 Zn235 2.024 . S
O243 C237 1.249 . S
H244 C226 0.948 . S
O245 Zn235 2.039 . S
O245 C249 1.251 . S
O246 Zn227 2.025 . S
O246 C249 1.254 . S
O247 C228 1.246 . S
O247 Zn235 2.034 . S
O248 Zn227 2.024 . S
O248 C228 1.249 . S
C249 O245 1.251 . S
C249 O246 1.254 . S
H250 C223 0.949 . S
H251 C225 0.950 . S
H252 C232 0.949 . S
H253 C234 0.950 . S
C254 O270 1.256 . S
C254 O272 1.250 1_654 S
N255 C256 1.333 . S
N255 C260 1.307 . S
N255 Zn261 2.020 . S
C256 N255 1.333 . S
C256 C257 1.379 . S
C256 H274 0.952 . S
C257 C256 1.379 . S
C257 C258 1.390 . S
C257 H284 0.949 . S
C258 C257 1.390 . S
C258 C259 1.357 . S
C259 C258 1.357 . S
C259 C260 1.370 . S
C259 H285 0.950 . S
C260 N255 1.307 . S
C260 C259 1.370 . S
C260 H278 0.948 . S
Zn261 N255 2.020 . S
Zn261 O270 2.039 . S
Zn261 O276 2.034 1_655 S
Zn261 O280 2.025 1_655 S
Zn261 O282 2.024 . S
C262 O281 1.246 . S
C262 O282 1.249 1_556 S
N263 C264 1.307 . S
N263 C265 1.333 . S
N263 Zn269 2.020 . S
C264 N263 1.307 . S
C264 C268 1.370 . S
C264 H275 0.948 . S
C265 N263 1.333 . S
C265 C266 1.379 . S
C265 H273 0.952 . S
C266 C265 1.379 . S
C266 C267 1.390 . S
C266 H286 0.949 . S
C267 C266 1.390 . S
C267 C268 1.357 . S
C268 C264 1.370 . S
C268 C267 1.357 . S
C268 H287 0.950 . S
Zn269 N263 2.020 . S
Zn269 O272 2.025 . S
Zn269 O277 2.024 1_556 S
Zn269 O279 2.039 1_556 S
Zn269 O281 2.034 1_455 S
O270 C254 1.256 . S
O270 Zn261 2.039 . S
C271 O276 1.246 . S
C271 O277 1.249 . S
O272 C254 1.250 1_456 S
O272 Zn269 2.025 . S
H273 C265 0.952 . S
H274 C256 0.952 . S
H275 C264 0.948 . S
O276 Zn261 2.034 1_455 S
O276 C271 1.246 . S
O277 Zn269 2.024 1_554 S
O277 C271 1.249 . S
H278 C260 0.948 . S
O279 Zn269 2.039 1_554 S
O279 C283 1.251 . S
O280 Zn261 2.025 1_455 S
O280 C283 1.254 . S
O281 C262 1.246 . S
O281 Zn269 2.034 1_655 S
O282 Zn261 2.024 . S
O282 C262 1.249 1_554 S
C283 O279 1.251 . S
C283 O280 1.254 . S
H284 C257 0.949 . S
H285 C259 0.950 . S
H286 C266 0.949 . S
H287 C268 0.950 . S
H288 C296 0.950 . S
H289 C301 0.950 . S
H290 C298 0.950 . S
H291 C300 0.950 . S
H292 C302 0.950 . S
H293 C304 0.950 . S
H294 C306 0.950 . S
H295 C307 0.950 . S
C296 H288 0.950 . S
C296 C297 1.386 . S
C296 C298 1.391 . S
C297 C296 1.386 . S
C297 C301 1.393 . S
C298 H290 0.950 . S
C298 C296 1.391 . S
C298 C299 1.400 . S
C299 C298 1.400 . S
C299 C300 1.398 . S
C299 C305 1.491 . S
C300 H291 0.950 . S
C300 C299 1.398 . S
C300 C301 1.391 . S
C301 H289 0.950 . S
C301 C297 1.393 . S
C301 C300 1.391 . S
C302 H292 0.950 . S
C302 C303 1.386 . S
C302 C304 1.391 . S
C303 C302 1.386 . S
C303 C307 1.393 . S
C304 H293 0.950 . S
C304 C302 1.391 . S
C304 C305 1.400 . S
C305 C299 1.491 . S
C305 C304 1.400 . S
C305 C306 1.398 . S
C306 H294 0.950 . S
C306 C305 1.398 . S
C306 C307 1.391 . S
C307 H295 0.950 . S
C307 C303 1.393 . S
C307 C306 1.391 . S
H308 C316 0.950 1_545 S
H309 C321 0.950 . S
H310 C318 0.950 1_545 S
H311 C320 0.950 . S
H312 C322 0.950 . S
H313 C324 0.950 . S
H314 C326 0.950 . S
H315 C327 0.950 . S
C316 H308 0.950 1_565 S
C316 C317 1.386 . S
C316 C318 1.391 . S
C317 C316 1.386 . S
C317 C321 1.393 . S
C318 H310 0.950 1_565 S
C318 C316 1.391 . S
C318 C319 1.400 . S
C319 C318 1.400 . S
C319 C320 1.398 . S
C319 C325 1.491 . S
C320 H311 0.950 . S
C320 C319 1.398 . S
C320 C321 1.391 . S
C321 H309 0.950 . S
C321 C317 1.393 . S
C321 C320 1.391 . S
C322 H312 0.950 . S
C322 C323 1.386 1_565 S
C322 C324 1.391 . S
C323 C322 1.386 1_545 S
C323 C327 1.393 . S
C324 H313 0.950 . S
C324 C322 1.391 . S
C324 C325 1.400 . S
C325 C319 1.491 . S
C325 C324 1.400 . S
C325 C326 1.398 1_565 S
C326 H314 0.950 . S
C326 C325 1.398 1_545 S
C326 C327 1.391 . S
C327 H315 0.950 . S
C327 C323 1.393 . S
C327 C326 1.391 . S
H328 C336 0.950 . S
H329 C341 0.950 . S
H330 C338 0.950 . S
H331 C340 0.950 . S
H332 C342 0.950 . S
H333 C344 0.950 . S
H334 C346 0.950 . S
H335 C347 0.950 . S
C336 H328 0.950 . S
C336 C337 1.386 . S
C336 C338 1.391 . S
C337 C336 1.386 . S
C337 C341 1.393 . S
C338 H330 0.950 . S
C338 C336 1.391 . S
C338 C339 1.400 . S
C339 C338 1.400 . S
C339 C340 1.398 . S
C339 C345 1.491 . S
C340 H331 0.950 . S
C340 C339 1.398 . S
C340 C341 1.391 . S
C341 H329 0.950 . S
C341 C337 1.393 . S
C341 C340 1.391 . S
C342 H332 0.950 . S
C342 C343 1.386 . S
C342 C344 1.391 . S
C343 C342 1.386 . S
C343 C347 1.393 . S
C344 H333 0.950 . S
C344 C342 1.391 . S
C344 C345 1.400 . S
C345 C339 1.491 . S
C345 C344 1.400 . S
C345 C346 1.398 . S
C346 H334 0.950 . S
C346 C345 1.398 . S
C346 C347 1.391 . S
C347 H335 0.950 . S
C347 C343 1.393 . S
C347 C346 1.391 . S
H348 C356 0.950 . S
H349 C361 0.950 . S
H350 C358 0.950 . S
H351 C360 0.950 . S
H352 C362 0.950 . S
H353 C364 0.950 . S
H354 C366 0.950 . S
H355 C367 0.950 . S
C356 H348 0.950 . S
C356 C357 1.386 . S
C356 C358 1.391 . S
C357 C356 1.386 . S
C357 C361 1.393 . S
C358 H350 0.950 . S
C358 C356 1.391 . S
C358 C359 1.400 . S
C359 C358 1.400 . S
C359 C360 1.398 . S
C359 C365 1.491 . S
C360 H351 0.950 . S
C360 C359 1.398 . S
C360 C361 1.391 . S
C361 H349 0.950 . S
C361 C357 1.393 . S
C361 C360 1.391 . S
C362 H352 0.950 . S
C362 C363 1.386 . S
C362 C364 1.391 . S
C363 C362 1.386 . S
C363 C367 1.393 . S
C364 H353 0.950 . S
C364 C362 1.391 . S
C364 C365 1.400 . S
C365 C359 1.491 . S
C365 C364 1.400 . S
C365 C366 1.398 . S
C366 H354 0.950 . S
C366 C365 1.398 . S
C366 C367 1.391 . S
C367 H355 0.950 . S
C367 C363 1.393 . S
C367 C366 1.391 . S
H368 C376 0.950 . S
H369 C381 0.950 . S
H370 C378 0.950 . S
H371 C380 0.950 . S
H372 C382 0.950 . S
H373 C384 0.950 . S
H374 C386 0.950 . S
H375 C387 0.950 . S
C376 H368 0.950 . S
C376 C377 1.386 . S
C376 C378 1.391 . S
C377 C376 1.386 . S
C377 C381 1.393 . S
C378 H370 0.950 . S
C378 C376 1.391 . S
C378 C379 1.400 . S
C379 C378 1.400 . S
C379 C380 1.398 . S
C379 C385 1.491 . S
C380 H371 0.950 . S
C380 C379 1.398 . S
C380 C381 1.391 . S
C381 H369 0.950 . S
C381 C377 1.393 . S
C381 C380 1.391 . S
C382 H372 0.950 . S
C382 C383 1.386 . S
C382 C384 1.391 . S
C383 C382 1.386 . S
C383 C387 1.393 . S
C384 H373 0.950 . S
C384 C382 1.391 . S
C384 C385 1.400 . S
C385 C379 1.491 . S
C385 C384 1.400 . S
C385 C386 1.398 . S
C386 H374 0.950 . S
C386 C385 1.398 . S
C386 C387 1.391 . S
C387 H375 0.950 . S
C387 C383 1.393 . S
C387 C386 1.391 . S
H388 C396 0.950 . S
H389 C401 0.950 . S
H390 C398 0.950 . S
H391 C400 0.950 . S
H392 C402 0.950 . S
H393 C404 0.950 . S
H394 C406 0.950 . S
H395 C407 0.950 . S
C396 H388 0.950 . S
C396 C397 1.386 1_545 S
C396 C398 1.391 . S
C397 C396 1.386 1_565 S
C397 C401 1.393 . S
C398 H390 0.950 . S
C398 C396 1.391 . S
C398 C399 1.400 . S
C399 C398 1.400 . S
C399 C400 1.398 1_545 S
C399 C405 1.491 . S
C400 H391 0.950 . S
C400 C399 1.398 1_565 S
C400 C401 1.391 . S
C401 H389 0.950 . S
C401 C397 1.393 . S
C401 C400 1.391 . S
C402 H392 0.950 . S
C402 C403 1.386 1_565 S
C402 C404 1.391 . S
C403 C402 1.386 1_545 S
C403 C407 1.393 . S
C404 H393 0.950 . S
C404 C402 1.391 . S
C404 C405 1.400 1_565 S
C405 C399 1.491 . S
C405 C404 1.400 1_545 S
C405 C406 1.398 . S
C406 H394 0.950 . S
C406 C405 1.398 . S
C406 C407 1.391 . S
C407 H395 0.950 . S
C407 C403 1.393 . S
C407 C406 1.391 . S
H408 C416 0.950 1_554 S
H409 C421 0.950 . S
H410 C418 0.950 . S
H411 C420 0.950 . S
H412 C422 0.950 . S
H413 C424 0.950 . S
H414 C426 0.950 . S
H415 C427 0.950 . S
C416 H408 0.950 1_556 S
C416 C417 1.386 . S
C416 C418 1.391 1_556 S
C417 C416 1.386 . S
C417 C421 1.393 . S
C418 H410 0.950 . S
C418 C416 1.391 1_554 S
C418 C419 1.400 1_554 S
C419 C418 1.400 1_556 S
C419 C420 1.398 . S
C419 C425 1.491 . S
C420 H411 0.950 . S
C420 C419 1.398 . S
C420 C421 1.391 . S
C421 H409 0.950 . S
C421 C417 1.393 . S
C421 C420 1.391 . S
C422 H412 0.950 . S
C422 C423 1.386 . S
C422 C424 1.391 . S
C423 C422 1.386 . S
C423 C427 1.393 1_556 S
C424 H413 0.950 . S
C424 C422 1.391 . S
C424 C425 1.400 . S
C425 C419 1.491 . S
C425 C424 1.400 . S
C425 C426 1.398 1_556 S
C426 H414 0.950 . S
C426 C425 1.398 1_554 S
C426 C427 1.391 . S
C427 H415 0.950 . S
C427 C423 1.393 1_554 S
C427 C426 1.391 . S
H428 C436 0.950 . S
H429 C441 0.950 . S
H430 C438 0.950 . S
H431 C440 0.950 . S
H432 C442 0.950 . S
H433 C444 0.950 . S
H434 C446 0.950 . S
H435 C447 0.950 . S
C436 H428 0.950 . S
C436 C437 1.386 . S
C436 C438 1.391 . S
C437 C436 1.386 . S
C437 C441 1.393 . S
C438 H430 0.950 . S
C438 C436 1.391 . S
C438 C439 1.400 . S
C439 C438 1.400 . S
C439 C440 1.398 . S
C439 C445 1.491 . S
C440 H431 0.950 . S
C440 C439 1.398 . S
C440 C441 1.391 . S
C441 H429 0.950 . S
C441 C437 1.393 . S
C441 C440 1.391 . S
C442 H432 0.950 . S
C442 C443 1.386 . S
C442 C444 1.391 . S
C443 C442 1.386 . S
C443 C447 1.393 . S
C444 H433 0.950 . S
C444 C442 1.391 . S
C444 C445 1.400 . S
C445 C439 1.491 . S
C445 C444 1.400 . S
C445 C446 1.398 . S
C446 H434 0.950 . S
C446 C445 1.398 . S
C446 C447 1.391 . S
C447 H435 0.950 . S
C447 C443 1.393 . S
C447 C446 1.391 . S
H448 C456 0.950 . S
H449 C461 0.950 . S
H450 C458 0.950 . S
H451 C460 0.950 . S
H452 C462 0.950 . S
H453 C464 0.950 . S
H454 C466 0.950 . S
H455 C467 0.950 . S
C456 H448 0.950 . S
C456 C457 1.386 . S
C456 C458 1.391 . S
C457 C456 1.386 . S
C457 C461 1.393 . S
C458 H450 0.950 . S
C458 C456 1.391 . S
C458 C459 1.400 . S
C459 C458 1.400 . S
C459 C460 1.398 . S
C459 C465 1.491 . S
C460 H451 0.950 . S
C460 C459 1.398 . S
C460 C461 1.391 . S
C461 H449 0.950 . S
C461 C457 1.393 . S
C461 C460 1.391 . S
C462 H452 0.950 . S
C462 C463 1.386 . S
C462 C464 1.391 . S
C463 C462 1.386 . S
C463 C467 1.393 . S
C464 H453 0.950 . S
C464 C462 1.391 . S
C464 C465 1.400 . S
C465 C459 1.491 . S
C465 C464 1.400 . S
C465 C466 1.398 . S
C466 H454 0.950 . S
C466 C465 1.398 . S
C466 C467 1.391 . S
C467 H455 0.950 . S
C467 C463 1.393 . S
C467 C466 1.391 . S
H468 C476 0.950 . S
H469 C481 0.950 . S
H470 C478 0.950 . S
H471 C480 0.950 . S
H472 C482 0.950 . S
H473 C484 0.950 . S
H474 C486 0.950 . S
H475 C487 0.950 . S
C476 H468 0.950 . S
C476 C477 1.386 1_554 S
C476 C478 1.391 . S
C477 C476 1.386 1_556 S
C477 C481 1.393 . S
C478 H470 0.950 . S
C478 C476 1.391 . S
C478 C479 1.400 1_554 S
C479 C478 1.400 1_556 S
C479 C480 1.398 . S
C479 C485 1.491 . S
C480 H471 0.950 . S
C480 C479 1.398 . S
C480 C481 1.391 . S
C481 H469 0.950 . S
C481 C477 1.393 . S
C481 C480 1.391 . S
C482 H472 0.950 . S
C482 C483 1.386 1_556 S
C482 C484 1.391 . S
C483 C482 1.386 1_554 S
C483 C487 1.393 . S
C484 H473 0.950 . S
C484 C482 1.391 . S
C484 C485 1.400 . S
C485 C479 1.491 . S
C485 C484 1.400 . S
C485 C486 1.398 1_556 S
C486 H474 0.950 . S
C486 C485 1.398 1_554 S
C486 C487 1.391 . S
C487 H475 0.950 . S
C487 C483 1.393 . S
C487 C486 1.391 . S
H488 C496 0.950 . S
H489 C501 0.950 . S
H490 C498 0.950 . S
H491 C500 0.950 . S
H492 C502 0.950 . S
H493 C504 0.950 . S
H494 C506 0.950 . S
H495 C507 0.950 . S
C496 H488 0.950 . S
C496 C497 1.386 . S
C496 C498 1.391 . S
C497 C496 1.386 . S
C497 C501 1.393 . S
C498 H490 0.950 . S
C498 C496 1.391 . S
C498 C499 1.400 . S
C499 C498 1.400 . S
C499 C500 1.398 . S
C499 C505 1.491 . S
C500 H491 0.950 . S
C500 C499 1.398 . S
C500 C501 1.391 . S
C501 H489 0.950 . S
C501 C497 1.393 . S
C501 C500 1.391 . S
C502 H492 0.950 . S
C502 C503 1.386 . S
C502 C504 1.391 . S
C503 C502 1.386 . S
C503 C507 1.393 . S
C504 H493 0.950 . S
C504 C502 1.391 . S
C504 C505 1.400 . S
C505 C499 1.491 . S
C505 C504 1.400 . S
C505 C506 1.398 . S
C506 H494 0.950 . S
C506 C505 1.398 . S
C506 C507 1.391 . S
C507 H495 0.950 . S
C507 C503 1.393 . S
C507 C506 1.391 . S
H508 C516 0.950 . S
H509 C521 0.950 . S
H510 C518 0.950 . S
H511 C520 0.950 . S
H512 C522 0.950 . S
H513 C524 0.950 . S
H514 C526 0.950 . S
H515 C527 0.950 . S
C516 H508 0.950 . S
C516 C517 1.386 . S
C516 C518 1.391 . S
C517 C516 1.386 . S
C517 C521 1.393 . S
C518 H510 0.950 . S
C518 C516 1.391 . S
C518 C519 1.400 . S
C519 C518 1.400 . S
C519 C520 1.398 . S
C519 C525 1.491 . S
C520 H511 0.950 . S
C520 C519 1.398 . S
C520 C521 1.391 . S
C521 H509 0.950 . S
C521 C517 1.393 . S
C521 C520 1.391 . S
C522 H512 0.950 . S
C522 C523 1.386 . S
C522 C524 1.391 . S
C523 C522 1.386 . S
C523 C527 1.393 . S
C524 H513 0.950 . S
C524 C522 1.391 . S
C524 C525 1.400 . S
C525 C519 1.491 . S
C525 C524 1.400 . S
C525 C526 1.398 . S
C526 H514 0.950 . S
C526 C525 1.398 . S
C526 C527 1.391 . S
C527 H515 0.950 . S
C527 C523 1.393 . S
C527 C526 1.391 . S
H528 C536 0.950 1_545 S
H529 C541 0.950 . S
H530 C538 0.950 . S
H531 C540 0.950 . S
H532 C542 0.950 . S
H533 C544 0.950 . S
H534 C546 0.950 . S
H535 C547 0.950 . S
C536 H528 0.950 1_565 S
C536 C537 1.386 . S
C536 C538 1.391 1_565 S
C537 C536 1.386 . S
C537 C541 1.393 . S
C538 H530 0.950 . S
C538 C536 1.391 1_545 S
C538 C539 1.400 1_545 S
C539 C538 1.400 1_565 S
C539 C540 1.398 . S
C539 C545 1.491 . S
C540 H531 0.950 . S
C540 C539 1.398 . S
C540 C541 1.391 . S
C541 H529 0.950 . S
C541 C537 1.393 . S
C541 C540 1.391 . S
C542 H532 0.950 . S
C542 C543 1.386 1_565 S
C542 C544 1.391 . S
C543 C542 1.386 1_545 S
C543 C547 1.393 . S
C544 H533 0.950 . S
C544 C542 1.391 . S
C544 C545 1.400 . S
C545 C539 1.491 . S
C545 C544 1.400 . S
C545 C546 1.398 1_565 S
C546 H534 0.950 . S
C546 C545 1.398 1_545 S
C546 C547 1.391 . S
C547 H535 0.950 . S
C547 C543 1.393 . S
C547 C546 1.391 . S
H548 C556 0.950 . S
H549 C561 0.950 . S
H550 C558 0.950 . S
H551 C560 0.950 . S
H552 C562 0.950 . S
H553 C564 0.950 . S
H554 C566 0.950 . S
H555 C567 0.950 . S
C556 H548 0.950 . S
C556 C557 1.386 . S
C556 C558 1.391 . S
C557 C556 1.386 . S
C557 C561 1.393 . S
C558 H550 0.950 . S
C558 C556 1.391 . S
C558 C559 1.400 . S
C559 C558 1.400 . S
C559 C560 1.398 . S
C559 C565 1.491 . S
C560 H551 0.950 . S
C560 C559 1.398 . S
C560 C561 1.391 . S
C561 H549 0.950 . S
C561 C557 1.393 . S
C561 C560 1.391 . S
C562 H552 0.950 . S
C562 C563 1.386 . S
C562 C564 1.391 . S
C563 C562 1.386 . S
C563 C567 1.393 . S
C564 H553 0.950 . S
C564 C562 1.391 . S
C564 C565 1.400 . S
C565 C559 1.491 . S
C565 C564 1.400 . S
C565 C566 1.398 . S
C566 H554 0.950 . S
C566 C565 1.398 . S
C566 C567 1.391 . S
C567 H555 0.950 . S
C567 C563 1.393 . S
C567 C566 1.391 . S
H568 C576 0.950 . S
H569 C581 0.950 . S
H570 C578 0.950 . S
H571 C580 0.950 . S
H572 C582 0.950 . S
H573 C584 0.950 . S
H574 C586 0.950 . S
H575 C587 0.950 . S
C576 H568 0.950 . S
C576 C577 1.386 . S
C576 C578 1.391 . S
C577 C576 1.386 . S
C577 C581 1.393 . S
C578 H570 0.950 . S
C578 C576 1.391 . S
C578 C579 1.400 . S
C579 C578 1.400 . S
C579 C580 1.398 . S
C579 C585 1.491 . S
C580 H571 0.950 . S
C580 C579 1.398 . S
C580 C581 1.391 . S
C581 H569 0.950 . S
C581 C577 1.393 . S
C581 C580 1.391 . S
C582 H572 0.950 . S
C582 C583 1.386 . S
C582 C584 1.391 . S
C583 C582 1.386 . S
C583 C587 1.393 . S
C584 H573 0.950 . S
C584 C582 1.391 . S
C584 C585 1.400 . S
C585 C579 1.491 . S
C585 C584 1.400 . S
C585 C586 1.398 . S
C586 H574 0.950 . S
C586 C585 1.398 . S
C586 C587 1.391 . S
C587 H575 0.950 . S
C587 C583 1.393 . S
C587 C586 1.391 . S
H588 C596 0.950 . S
H589 C601 0.950 . S
H590 C598 0.950 . S
H591 C600 0.950 . S
H592 C602 0.950 . S
H593 C604 0.950 . S
H594 C606 0.950 . S
H595 C607 0.950 . S
C596 H588 0.950 . S
C596 C597 1.386 . S
C596 C598 1.391 . S
C597 C596 1.386 . S
C597 C601 1.393 . S
C598 H590 0.950 . S
C598 C596 1.391 . S
C598 C599 1.400 . S
C599 C598 1.400 . S
C599 C600 1.398 . S
C599 C605 1.491 . S
C600 H591 0.950 . S
C600 C599 1.398 . S
C600 C601 1.391 . S
C601 H589 0.950 . S
C601 C597 1.393 . S
C601 C600 1.391 . S
C602 H592 0.950 . S
C602 C603 1.386 . S
C602 C604 1.391 . S
C603 C602 1.386 . S
C603 C607 1.393 . S
C604 H593 0.950 . S
C604 C602 1.391 . S
C604 C605 1.400 . S
C605 C599 1.491 . S
C605 C604 1.400 . S
C605 C606 1.398 . S
C606 H594 0.950 . S
C606 C605 1.398 . S
C606 C607 1.391 . S
C607 H595 0.950 . S
C607 C603 1.393 . S
C607 C606 1.391 . S
H608 C616 0.967 . S
H609 C621 0.950 . S
H610 C618 0.969 . S
H611 C620 0.950 . S
H612 C622 0.950 . S
H613 C624 0.950 . S
H614 C626 0.950 . S
H615 C627 0.950 . S
C616 H608 0.967 . S
C616 C617 1.386 . S
C616 C618 1.383 1_556 S
C617 C616 1.386 . S
C617 C621 1.393 1_565 S
C618 H610 0.969 . S
C618 C616 1.383 1_554 S
C618 C619 1.390 1_554 S
C619 C618 1.390 1_556 S
C619 C620 1.398 1_565 S
C619 C625 1.491 1_565 S
C620 H611 0.950 . S
C620 C619 1.398 1_545 S
C620 C621 1.391 . S
C621 H609 0.950 . S
C621 C617 1.393 1_545 S
C621 C620 1.391 . S
C622 H612 0.950 . S
C622 C623 1.386 1_556 S
C622 C624 1.391 . S
C623 C622 1.386 1_554 S
C623 C627 1.393 1_545 S
C624 H613 0.950 . S
C624 C622 1.391 . S
C624 C625 1.400 . S
C625 C619 1.491 1_545 S
C625 C624 1.400 . S
C625 C626 1.398 1_546 S
C626 H614 0.950 . S
C626 C625 1.398 1_564 S
C626 C627 1.391 . S
C627 H615 0.950 . S
C627 C623 1.393 1_565 S
C627 C626 1.391 . S
H628 C636 0.950 . S
H629 C641 0.950 . S
H630 C638 0.950 . S
H631 C640 0.950 . S
H632 C642 0.950 . S
H633 C644 0.950 . S
H634 C646 0.950 . S
H635 C647 0.950 . S
C636 H628 0.950 . S
C636 C637 1.386 . S
C636 C638 1.391 . S
C637 C636 1.386 . S
C637 C641 1.393 . S
C638 H630 0.950 . S
C638 C636 1.391 . S
C638 C639 1.400 . S
C639 C638 1.400 . S
C639 C640 1.398 . S
C639 C645 1.491 . S
C640 H631 0.950 . S
C640 C639 1.398 . S
C640 C641 1.391 . S
C641 H629 0.950 . S
C641 C637 1.393 . S
C641 C640 1.391 . S
C642 H632 0.950 . S
C642 C643 1.386 . S
C642 C644 1.391 . S
C643 C642 1.386 . S
C643 C647 1.393 . S
C644 H633 0.950 . S
C644 C642 1.391 . S
C644 C645 1.400 . S
C645 C639 1.491 . S
C645 C644 1.400 . S
C645 C646 1.398 . S
C646 H634 0.950 . S
C646 C645 1.398 . S
C646 C647 1.391 . S
C647 H635 0.950 . S
C647 C643 1.393 . S
C647 C646 1.391 . S
H648 C656 0.950 . S
H649 C661 0.950 . S
H650 C658 0.950 . S
H651 C660 0.950 . S
H652 C662 0.950 . S
H653 C664 0.950 . S
H654 C666 0.950 . S
H655 C667 0.950 . S
C656 H648 0.950 . S
C656 C657 1.386 . S
C656 C658 1.391 . S
C657 C656 1.386 . S
C657 C661 1.393 . S
C658 H650 0.950 . S
C658 C656 1.391 . S
C658 C659 1.400 . S
C659 C658 1.400 . S
C659 C660 1.398 . S
C659 C665 1.491 . S
C660 H651 0.950 . S
C660 C659 1.398 . S
C660 C661 1.391 . S
C661 H649 0.950 . S
C661 C657 1.393 . S
C661 C660 1.391 . S
C662 H652 0.950 . S
C662 C663 1.386 . S
C662 C664 1.391 . S
C663 C662 1.386 . S
C663 C667 1.393 . S
C664 H653 0.950 . S
C664 C662 1.391 . S
C664 C665 1.400 . S
C665 C659 1.491 . S
C665 C664 1.400 . S
C665 C666 1.398 . S
C666 H654 0.950 . S
C666 C665 1.398 . S
C666 C667 1.391 . S
C667 H655 0.950 . S
C667 C663 1.393 . S
C667 C666 1.391 . S
H668 C676 0.950 . S
H669 C681 0.950 . S
H670 C678 0.950 . S
H671 C680 0.950 . S
H672 C682 0.950 . S
H673 C684 0.950 . S
H674 C686 0.950 . S
H675 C687 0.950 . S
C676 H668 0.950 . S
C676 C677 1.386 . S
C676 C678 1.391 . S
C677 C676 1.386 . S
C677 C681 1.393 . S
C678 H670 0.950 . S
C678 C676 1.391 . S
C678 C679 1.400 . S
C679 C678 1.400 . S
C679 C680 1.398 . S
C679 C685 1.491 . S
C680 H671 0.950 . S
C680 C679 1.398 . S
C680 C681 1.391 . S
C681 H669 0.950 . S
C681 C677 1.393 . S
C681 C680 1.391 . S
C682 H672 0.950 . S
C682 C683 1.386 . S
C682 C684 1.391 . S
C683 C682 1.386 . S
C683 C687 1.393 . S
C684 H673 0.950 . S
C684 C682 1.391 . S
C684 C685 1.400 . S
C685 C679 1.491 . S
C685 C684 1.400 . S
C685 C686 1.398 . S
C686 H674 0.950 . S
C686 C685 1.398 . S
C686 C687 1.391 . S
C687 H675 0.950 . S
C687 C683 1.393 . S
C687 C686 1.391 . S
H688 C696 0.950 . S
H689 C701 0.950 . S
H690 C698 0.950 . S
H691 C700 0.950 . S
H692 C702 0.950 1_554 S
H693 C704 0.950 . S
H694 C706 0.950 . S
H695 C707 0.950 1_455 S
C696 H688 0.950 . S
C696 C697 1.386 . S
C696 C698 1.391 . S
C697 C696 1.386 . S
C697 C701 1.393 . S
C698 H690 0.950 . S
C698 C696 1.391 . S
C698 C699 1.400 . S
C699 C698 1.400 . S
C699 C700 1.398 . S
C699 C705 1.491 . S
C700 H691 0.950 . S
C700 C699 1.398 . S
C700 C701 1.391 . S
C701 H689 0.950 . S
C701 C697 1.393 . S
C701 C700 1.391 . S
C702 H692 0.950 1_556 S
C702 C703 1.386 . S
C702 C704 1.391 . S
C703 C702 1.386 . S
C703 C707 1.393 . S
C704 H693 0.950 . S
C704 C702 1.391 . S
C704 C705 1.400 . S
C705 C699 1.491 . S
C705 C704 1.400 . S
C705 C706 1.398 . S
C706 H694 0.950 . S
C706 C705 1.398 . S
C706 C707 1.391 . S
C707 H695 0.950 1_655 S
C707 C703 1.393 . S
C707 C706 1.391 . S
H708 C716 0.950 . S
H709 C721 0.950 . S
H710 C718 0.950 . S
H711 C720 0.950 . S
H712 C722 0.950 . S
H713 C724 0.950 . S
H714 C726 0.950 . S
H715 C727 0.950 . S
C716 H708 0.950 . S
C716 C717 1.386 . S
C716 C718 1.391 . S
C717 C716 1.386 . S
C717 C721 1.393 . S
C718 H710 0.950 . S
C718 C716 1.391 . S
C718 C719 1.400 . S
C719 C718 1.400 . S
C719 C720 1.398 . S
C719 C725 1.491 . S
C720 H711 0.950 . S
C720 C719 1.398 . S
C720 C721 1.391 . S
C721 H709 0.950 . S
C721 C717 1.393 . S
C721 C720 1.391 . S
C722 H712 0.950 . S
C722 C723 1.386 . S
C722 C724 1.391 . S
C723 C722 1.386 . S
C723 C727 1.393 . S
C724 H713 0.950 . S
C724 C722 1.391 . S
C724 C725 1.400 . S
C725 C719 1.491 . S
C725 C724 1.400 . S
C725 C726 1.398 . S
C726 H714 0.950 . S
C726 C725 1.398 . S
C726 C727 1.391 . S
C727 H715 0.950 . S
C727 C723 1.393 . S
C727 C726 1.391 . S
H728 C736 0.950 . S
H729 C741 0.950 . S
H730 C738 0.950 . S
H731 C740 0.950 . S
H732 C742 0.950 . S
H733 C744 0.950 . S
H734 C746 0.950 . S
H735 C747 0.950 . S
C736 H728 0.950 . S
C736 C737 1.386 . S
C736 C738 1.391 . S
C737 C736 1.386 . S
C737 C741 1.393 . S
C738 H730 0.950 . S
C738 C736 1.391 . S
C738 C739 1.400 . S
C739 C738 1.400 . S
C739 C740 1.398 . S
C739 C745 1.491 . S
C740 H731 0.950 . S
C740 C739 1.398 . S
C740 C741 1.391 . S
C741 H729 0.950 . S
C741 C737 1.393 . S
C741 C740 1.391 . S
C742 H732 0.950 . S
C742 C743 1.386 . S
C742 C744 1.391 . S
C743 C742 1.386 . S
C743 C747 1.393 . S
C744 H733 0.950 . S
C744 C742 1.391 . S
C744 C745 1.400 . S
C745 C739 1.491 . S
C745 C744 1.400 . S
C745 C746 1.398 . S
C746 H734 0.950 . S
C746 C745 1.398 . S
C746 C747 1.391 . S
C747 H735 0.950 . S
C747 C743 1.393 . S
C747 C746 1.391 . S
H748 C756 0.950 . S
H749 C761 0.950 . S
H750 C758 0.950 . S
H751 C760 0.950 . S
H752 C762 0.950 . S
H753 C764 0.950 . S
H754 C766 0.950 . S
H755 C767 0.950 . S
C756 H748 0.950 . S
C756 C757 1.386 . S
C756 C758 1.391 . S
C757 C756 1.386 . S
C757 C761 1.393 . S
C758 H750 0.950 . S
C758 C756 1.391 . S
C758 C759 1.400 . S
C759 C758 1.400 . S
C759 C760 1.398 . S
C759 C765 1.491 . S
C760 H751 0.950 . S
C760 C759 1.398 . S
C760 C761 1.391 . S
C761 H749 0.950 . S
C761 C757 1.393 . S
C761 C760 1.391 . S
C762 H752 0.950 . S
C762 C763 1.386 . S
C762 C764 1.391 . S
C763 C762 1.386 . S
C763 C767 1.393 . S
C764 H753 0.950 . S
C764 C762 1.391 . S
C764 C765 1.400 . S
C765 C759 1.491 . S
C765 C764 1.400 . S
C765 C766 1.398 . S
C766 H754 0.950 . S
C766 C765 1.398 . S
C766 C767 1.391 . S
C767 H755 0.950 . S
C767 C763 1.393 . S
C767 C766 1.391 . S
C297 C6 2.613 . S
C303 C152 2.634 . S
C317 C21 2.871 . S
C323 C194 2.877 1_556 S
C343 C224 0.503 . S
C337 C49 0.584 . S
C357 C68 0.865 . S
C363 C258 0.887 . S
C383 C215 2.549 . S
C377 C2 2.531 . S
C403 C169 1.640 . S
C397 C30 1.412 . S
C423 C262 1.036 . S
C417 C40 1.018 . S
C443 C228 1.050 . S
C437 C63 1.027 . S
C457 C11 1.995 . S
C463 C283 2.221 . S
C483 C190 1.267 . S
C477 C44 1.246 . S
C497 C59 0.857 . S
C503 C165 0.851 . S
C517 C25 2.462 . S
C523 C249 2.489 . S
C543 C181 2.821 . S
C537 C82 2.802 . S
C557 C101 2.573 . S
C563 C203 2.584 . S
C577 C125 0.824 . S
C583 C233 0.833 . S
C597 C144 0.656 . S
C603 C267 0.587 . S
C617 C87 1.496 . S
C623 C186 1.652 . S
C643 C160 2.513 . S
C637 C97 2.497 . S
C663 C271 0.977 . S
C657 C120 0.968 . S
C683 C237 1.138 . S
C677 C135 1.117 . S
C697 C78 2.592 . S
C703 C254 2.595 1_556 S
C723 C199 0.822 . S
C717 C116 0.814 . S
C743 C156 1.257 . S
C737 C139 1.238 . S
C757 C106 2.075 . S
C763 C220 2.186 . S
