# Generated by pormake.
# Topology anh, (6,3)-cn, num edge types: 1
# Building blocks:
#     Node 0, Type 0, BuildingBlock: BETGAK_clean_sbu_0, # of connection points: 6
#     Node 1, Type 0, BuildingBlock: BETGAK_clean_sbu_0, # of connection points: 6
#     Node 2, Type 0, BuildingBlock: BETGAK_clean_sbu_0, # of connection points: 6
#     Node 3, Type 1, BuildingBlock: VETTIZ_charged_linker_0, # of connection points: 3
#     Node 4, Type 1, BuildingBlock: VETTIZ_charged_linker_0, # of connection points: 3
#     Node 5, Type 1, BuildingBlock: VETTIZ_charged_linker_0, # of connection points: 3
#     Node 6, Type 1, BuildingBlock: VETTIZ_charged_linker_0, # of connection points: 3
#     Node 7, Type 1, BuildingBlock: VETTIZ_charged_linker_0, # of connection points: 3
#     Node 8, Type 1, BuildingBlock: VETTIZ_charged_linker_0, # of connection points: 3
#     Edge 9, Type (0, 1), BuildingBlock: XUDNAN_clean_linker_2, # of connection points: 2
#     Edge 10, Type (0, 1), BuildingBlock: XUDNAN_clean_linker_2, # of connection points: 2
#     Edge 11, Type (0, 1), BuildingBlock: XUDNAN_clean_linker_2, # of connection points: 2
#     Edge 12, Type (0, 1), BuildingBlock: XUDNAN_clean_linker_2, # of connection points: 2
#     Edge 13, Type (0, 1), BuildingBlock: XUDNAN_clean_linker_2, # of connection points: 2
#     Edge 14, Type (0, 1), BuildingBlock: XUDNAN_clean_linker_2, # of connection points: 2
#     Edge 15, Type (0, 1), BuildingBlock: XUDNAN_clean_linker_2, # of connection points: 2
#     Edge 16, Type (0, 1), BuildingBlock: XUDNAN_clean_linker_2, # of connection points: 2
#     Edge 17, Type (0, 1), BuildingBlock: XUDNAN_clean_linker_2, # of connection points: 2
#     Edge 18, Type (0, 1), BuildingBlock: XUDNAN_clean_linker_2, # of connection points: 2
#     Edge 19, Type (0, 1), BuildingBlock: XUDNAN_clean_linker_2, # of connection points: 2
#     Edge 20, Type (0, 1), BuildingBlock: XUDNAN_clean_linker_2, # of connection points: 2
#     Edge 21, Type (0, 1), BuildingBlock: XUDNAN_clean_linker_2, # of connection points: 2
#     Edge 22, Type (0, 1), BuildingBlock: XUDNAN_clean_linker_2, # of connection points: 2
#     Edge 23, Type (0, 1), BuildingBlock: XUDNAN_clean_linker_2, # of connection points: 2
#     Edge 24, Type (0, 1), BuildingBlock: XUDNAN_clean_linker_2, # of connection points: 2
#     Edge 25, Type (0, 1), BuildingBlock: XUDNAN_clean_linker_2, # of connection points: 2
#     Edge 26, Type (0, 1), BuildingBlock: XUDNAN_clean_linker_2, # of connection points: 2
# Relax obj value: 0.188
# Max RMSD: 0.209
# Mean RMSD: 0.159
data_MOF--net-anh--node1-BETGAK_clean_sbu_0--node2-VETTIZ_charged_linker_0--edge1-XUDNAN_clean_linker_2
_symmetry_space_group_name_H-M    P1
_symmetry_Int_Tables_number       1
_symmetry_cell_setting            triclinic
loop_
_symmetry_equiv_pos_as_xyz
'x, y, z'
_cell_length_a     37.720486
_cell_length_b     43.372904
_cell_length_c     67.061754
_cell_angle_alpha  92.170864
_cell_angle_beta   89.493614
_cell_angle_gamma 129.00644
loop_
_atom_site_label
_atom_site_type_symbol
_atom_site_fract_x
_atom_site_fract_y
_atom_site_fract_z
_atom_type_partial_charge
La0 La 0.08664 0.51239 0.14398 0.0
La1 La 1.04047 0.54655 0.15342 0.0
C2 C 0.13727 0.49817 0.13009 0.0
C3 C 0.184 0.51466 0.13568 0.0
C4 C 0.1915 0.48878 0.14207 0.0
C5 C 0.2333 0.50376 0.15066 0.0
C6 C 0.26855 0.54493 0.15285 0.0
C7 C 0.26197 0.57093 0.14559 0.0
C8 C 0.21979 0.5559 0.1372 0.0
C9 C 0.07763 0.52089 0.18251 0.0
C10 C 0.14557 0.60859 0.14801 0.0
C11 C 0.99009 0.55796 0.17063 0.0
C12 C 0.94372 0.52882 0.17812 0.0
C13 C 0.91104 0.53372 0.17475 0.0
C14 C 0.86512 0.50281 0.17824 0.0
C15 C 0.85116 0.46635 0.18497 0.0
C16 C 0.88422 0.46224 0.18937 0.0
C17 C 0.93025 0.49342 0.18618 0.0
C18 C 0.05486 0.54353 0.11539 0.0
C19 C 0.98191 0.45117 0.14849 0.0
O20 O 0.10727 0.4775 0.14388 0.0
O21 O 0.13194 0.52189 0.12176 0.0
O22 O 0.07742 0.493 0.17489 0.0
O23 O 0.08681 0.54396 0.16905 0.0
O24 O 0.14303 0.57754 0.14203 0.0
O25 O 0.10945 0.6035 0.1552 0.0
O26 O 0.99346 0.55715 0.15119 0.0
O27 O 1.02214 0.56025 0.17986 0.0
O28 O 0.05737 0.57207 0.12417 0.0
O29 O 1.04213 0.51683 0.12751 0.0
O30 O 0.98533 0.48168 0.15604 0.0
O31 O 1.01707 0.45689 0.13979 0.0
H32 H 0.16438 0.45692 0.14109 0.0
H33 H 0.23801 0.4831 0.15573 0.0
H34 H 0.28889 0.60277 0.14696 0.0
H35 H 0.21486 0.57656 0.13249 0.0
H36 H 0.92071 0.56065 0.16844 0.0
H37 H 0.84023 0.50659 0.17444 0.0
H38 H 0.87433 0.43451 0.1946 0.0
H39 H 0.95495 0.48906 0.18916 0.0
La40 La 0.61677 0.02472 0.47469 0.0
La41 La 0.56401 0.05379 0.47107 0.0
C42 C 0.64888 0.9918 0.48618 0.0
C43 C 0.63485 0.95172 0.48853 0.0
C44 C 0.61956 0.92437 0.47228 0.0
C45 C 0.6098 0.8878 0.47489 0.0
C46 C 0.61516 0.8779 0.49377 0.0
C47 C 0.6292 0.90496 0.51005 0.0
C48 C 0.63909 0.94144 0.50742 0.0
C49 C 0.60398 0.03574 0.4377 0.0
C50 C 0.50716 0.96141 0.47151 0.0
C51 C 0.53209 0.08777 0.46118 0.0
C52 C 0.53681 0.12258 0.46882 0.0
C53 C 0.54147 0.13194 0.48941 0.0
C54 C 0.54052 0.16198 0.49675 0.0
C55 C 0.53556 0.18365 0.48366 0.0
C56 C 0.53346 0.17579 0.463 0.0
C57 C 0.5338 0.14527 0.45564 0.0
C58 C 0.57866 0.04544 0.50825 0.0
C59 C 0.67415 0.11689 0.47276 0.0
O60 O 0.65295 1.00373 0.46805 0.0
O61 O 0.62995 1.00211 0.49807 0.0
O62 O 0.64036 0.04204 0.44421 0.0
O63 O 0.57529 0.02115 0.45144 0.0
O64 O 0.54561 0.96873 0.47704 0.0
O65 O 0.50757 0.99036 0.46545 0.0
O66 O 0.51167 0.05786 0.47295 0.0
O67 O 0.56793 0.09464 0.45299 0.0
O68 O 0.54361 0.04169 0.50235 0.0
O69 O 0.60591 0.05784 0.49408 0.0
O70 O 0.63525 0.10914 0.46757 0.0
O71 O 0.67431 0.08822 0.47881 0.0
H72 H 0.6159 0.93143 0.45751 0.0
H73 H 0.59931 0.86781 0.46201 0.0
H74 H 0.63273 0.89805 0.52489 0.0
H75 H 0.65071 0.96196 0.52019 0.0
H76 H 0.54441 0.11521 0.49989 0.0
H77 H 0.54275 0.16778 0.51274 0.0
H78 H 0.52952 0.19201 0.45261 0.0
H79 H 0.53033 0.1386 0.43971 0.0
La80 La 0.60612 0.56995 0.84188 0.0
La81 La 0.54672 0.48184 0.84144 0.0
C82 C 0.64348 0.63947 0.83115 0.0
C83 C 0.63397 0.66763 0.82916 0.0
C84 C 0.62202 0.68053 0.8455 0.0
C85 C 0.61607 0.70907 0.84314 0.0
C86 C 0.62177 0.72521 0.8244 0.0
C87 C 0.63298 0.71166 0.80808 0.0
C88 C 0.63909 0.68335 0.81045 0.0
C89 C 0.58705 0.53969 0.87715 0.0
C90 C 0.49387 0.51987 0.843 0.0
C91 C 0.50957 0.41069 0.84873 0.0
C92 C 0.5144 0.38082 0.84134 0.0
C93 C 0.51246 0.37197 0.82079 0.0
C94 C 0.51297 0.34136 0.81403 0.0
C95 C 0.51591 0.31907 0.82759 0.0
C96 C 0.52001 0.32908 0.8481 0.0
C97 C 0.51897 0.35953 0.85491 0.0
C98 C 0.56728 0.51162 0.8058 0.0
C99 C 0.65934 0.53258 0.84236 0.0
O100 O 0.64806 0.63129 0.84912 0.0
O101 O 0.6206 0.60798 0.81904 0.0
O102 O 0.62531 0.57399 0.87315 0.0
O103 O 0.56024 0.52571 0.86232 0.0
O104 O 0.53577 0.5547 0.84066 0.0
O105 O 0.49087 0.48752 0.84531 0.0
O106 O 0.49322 0.4212 0.83597 0.0
O107 O 0.54353 0.44119 0.85941 0.0
O108 O 0.52976 0.47721 0.80984 0.0
O109 O 0.59321 0.52581 0.82094 0.0
O110 O 0.61731 0.49777 0.84456 0.0
O111 O 0.66247 0.56479 0.83938 0.0
H112 H 0.61772 0.66893 0.86012 0.0
H113 H 0.60698 0.7185 0.856 0.0
H114 H 0.63835 0.72376 0.7935 0.0
H115 H 0.64862 0.67417 0.79764 0.0
H116 H 0.50953 0.3881 0.80989 0.0
H117 H 0.51041 0.33472 0.79812 0.0
H118 H 0.52218 0.31234 0.85889 0.0
H119 H 0.52067 0.36584 0.87081 0.0
C120 C 0.6759 0.14024 0.16719 0.0
C121 C 0.71459 0.17471 0.17739 0.0
C122 C 0.71996 0.17288 0.19794 0.0
C123 C 0.6486 0.1053 0.19831 0.0
C124 C 0.64366 0.10552 0.17792 0.0
C125 C 0.60152 0.06495 0.16993 0.0
H126 H 0.4048 0.87969 0.19428 0.0
C127 C 0.60823 0.06675 0.20566 0.0
C128 C 0.57973 0.04241 0.18914 0.0
H129 H 0.45469 0.91592 0.13468 0.0
H130 H 0.51941 0.98188 0.14801 0.0
H131 H 0.49755 0.9134 0.2133 0.0
H132 H 0.4231 0.95713 0.2093 0.0
H133 H 0.45351 0.97815 0.23201 0.0
H134 H 0.41217 0.92472 0.22852 0.0
H135 H 0.44606 0.8937 0.22649 0.0
H136 H 0.50117 0.93355 0.23706 0.0
C137 C 0.6178 0.04624 0.15678 0.0
C138 C 0.57007 0.06974 0.15856 0.0
C139 C 0.59182 0.04369 0.28073 0.0
C140 C 0.55502 0.0133 0.2921 0.0
C141 C 0.51271 0.98435 0.28227 0.0
C142 C 0.50797 0.98341 0.26162 0.0
C143 C 0.54561 1.01208 0.25033 0.0
C144 C 0.58601 0.04269 0.2599 0.0
C145 C 0.62026 0.07286 0.24534 0.0
C146 C 0.59433 0.05375 0.22547 0.0
C147 C 0.55124 0.01766 0.2286 0.0
C148 C 0.66303 0.07542 0.24638 0.0
C149 C 0.62964 0.11265 0.25054 0.0
C150 C 0.42899 0.90169 0.18388 0.0
C151 C 0.42384 0.89206 0.16336 0.0
C152 C 0.45755 0.92204 0.15064 0.0
C153 C 0.49532 0.96032 0.15838 0.0
C154 C 0.50027 0.96881 0.17916 0.0
C155 C 0.46691 0.93927 0.19133 0.0
C156 C 0.47712 0.95124 0.21298 0.0
C157 C 0.52295 0.99232 0.2122 0.0
C158 C 0.53686 1.0037 0.1924 0.0
C159 C 0.48046 0.92153 0.22317 0.0
C160 C 0.43956 0.9527 0.22128 0.0
H161 H 0.69359 0.14 0.22405 0.0
H162 H 0.67111 0.14036 0.15131 0.0
H163 H 0.56248 0.08645 0.16806 0.0
H164 H 0.53714 0.04076 0.15427 0.0
H165 H 0.58651 0.08628 0.14477 0.0
H166 H 0.6458 0.04906 0.16446 0.0
H167 H 0.63094 0.06133 0.1424 0.0
H168 H 0.59058 0.01424 0.15359 0.0
H169 H 0.62456 0.06712 0.28771 0.0
H170 H 0.4829 0.96182 0.29051 0.0
H171 H 0.47519 0.95969 0.25524 0.0
H172 H 0.65295 0.04524 0.2471 0.0
H173 H 0.68429 0.09303 0.25986 0.0
H174 H 0.68444 0.08836 0.23306 0.0
H175 H 0.60142 0.10802 0.25919 0.0
H176 H 0.63185 0.12777 0.23709 0.0
H177 H 0.66145 0.13323 0.25965 0.0
H178 H 0.74896 0.19858 0.2062 0.0
C179 C 0.68739 0.13879 0.20838 0.0
C180 C 0.59219 0.6246 0.53269 0.0
C181 C 0.59981 0.65847 0.54141 0.0
C182 C 0.60805 0.666 0.56218 0.0
C183 C 0.60031 0.6066 0.56525 0.0
C184 C 0.59276 0.5992 0.54486 0.0
C185 C 0.58537 0.56185 0.53823 0.0
H186 H 0.5563 0.39733 0.56436 0.0
C187 C 0.59728 0.57415 0.5738 0.0
C188 C 0.58857 0.5477 0.55806 0.0
H189 H 0.55411 0.43038 0.50473 0.0
H190 H 0.57176 0.49168 0.51809 0.0
H191 H 0.64578 0.4847 0.5796 0.0
H192 H 0.50134 0.42004 0.58421 0.0
H193 H 0.52525 0.44738 0.60688 0.0
H194 H 0.53167 0.41057 0.5998 0.0
H195 H 0.61034 0.44336 0.59536 0.0
H196 H 0.63608 0.49337 0.60407 0.0
C197 C 0.62451 0.5734 0.52421 0.0
C198 C 0.53722 0.53246 0.52851 0.0
C199 C 0.6113 0.57164 0.64915 0.0
C200 C 0.60531 0.54325 0.66148 0.0
C201 C 0.59589 0.50871 0.65273 0.0
C202 C 0.59225 0.50234 0.63198 0.0
C203 C 0.59752 0.53056 0.61977 0.0
C204 C 0.60676 0.56446 0.62837 0.0
C205 C 0.60892 0.59005 0.61304 0.0
C206 C 0.60007 0.56614 0.59384 0.0
C207 C 0.59372 0.53153 0.59792 0.0
C208 C 0.65761 0.63065 0.61386 0.0
C209 C 0.57021 0.59248 0.61729 0.0
C210 C 0.5595 0.4177 0.55415 0.0
C211 C 0.55322 0.40885 0.53352 0.0
C212 C 0.55872 0.43658 0.5207 0.0
C213 C 0.56872 0.47199 0.52851 0.0
C214 C 0.5736 0.47979 0.54932 0.0
C215 C 0.56967 0.45299 0.56166 0.0
C216 C 0.5765 0.46584 0.5833 0.0
C217 C 0.58502 0.50479 0.5821 0.0
C218 C 0.58296 0.5129 0.56222 0.0
C219 C 0.61914 0.47196 0.59119 0.0
C220 C 0.53169 0.4344 0.59428 0.0
H221 H 0.61462 0.64786 0.58976 0.0
H222 H 0.5862 0.61814 0.51676 0.0
H223 H 0.5119 0.53189 0.53751 0.0
H224 H 0.52453 0.50157 0.52763 0.0
H225 H 0.53668 0.54128 0.51325 0.0
H226 H 0.65724 0.60237 0.5292 0.0
H227 H 0.61718 0.57625 0.50868 0.0
H228 H 0.63131 0.55209 0.52417 0.0
H229 H 0.61795 0.59818 0.65555 0.0
H230 H 0.59136 0.48659 0.66201 0.0
H231 H 0.58498 0.47541 0.62629 0.0
H232 H 0.68358 0.62668 0.6165 0.0
H233 H 0.66121 0.6504 0.62615 0.0
H234 H 0.66737 0.64616 0.59971 0.0
H235 H 0.54029 0.56483 0.62394 0.0
H236 H 0.5563 0.59514 0.60363 0.0
H237 H 0.58191 0.61764 0.62792 0.0
H238 H 0.61329 0.69141 0.56938 0.0
C239 C 0.60843 0.64043 0.57408 0.0
C240 C 0.18518 0.52183 0.84452 0.0
C241 C 0.22425 0.53004 0.85558 0.0
C242 C 0.22838 0.54329 0.87554 0.0
C243 C 0.15799 0.53637 0.87415 0.0
C244 C 0.1531 0.52654 0.85407 0.0
C245 C 0.11061 0.5225 0.8462 0.0
H246 H 0.91902 0.51349 0.88061 0.0
C247 C 0.11841 0.53451 0.88131 0.0
C248 C 0.08976 0.52824 0.86517 0.0
H249 H 0.9638 0.5409 0.82009 0.0
H250 H 1.02657 0.53855 0.82765 0.0
H251 H 0.93789 0.45135 0.88785 0.0
H252 H 1.01157 0.5764 0.89696 0.0
H253 H 1.02666 0.5635 0.91765 0.0
H254 H 0.96763 0.54097 0.91338 0.0
H255 H 0.92573 0.47227 0.90763 0.0
H256 H 0.96635 0.46363 0.9109 0.0
C257 C 0.07508 0.48123 0.83623 0.0
C258 C 0.12706 0.55506 0.83142 0.0
C259 C 0.10498 0.53731 0.95687 0.0
C260 C 0.07082 0.52974 0.96969 0.0
C261 C 1.02985 0.51825 0.96123 0.0
C262 C 1.02373 0.51572 0.94043 0.0
C263 C 0.05894 0.52476 0.92771 0.0
C264 C 0.09808 0.53427 0.93612 0.0
C265 C 0.13071 0.54051 0.92064 0.0
C266 C 0.1052 0.53381 0.90133 0.0
C267 C 0.06382 0.52592 0.90552 0.0
C268 C 0.13678 0.50853 0.92334 0.0
C269 C 0.17509 0.5843 0.92322 0.0
C270 C 0.94085 0.51802 0.8685 0.0
C271 C 0.93346 0.52659 0.84954 0.0
C272 C 0.96633 0.53379 0.83503 0.0
C273 C 1.0032 0.53225 0.83934 0.0
C274 C 1.00996 0.5241 0.8587 0.0
C275 C 0.97848 0.51817 0.87267 0.0
C276 C 0.99177 0.5162 0.89314 0.0
C277 C 1.03604 0.52257 0.88991 0.0
C278 C 1.04816 0.5253 0.86944 0.0
C279 C 0.95349 0.47389 0.90046 0.0
C280 C 0.99957 0.55066 0.90611 0.0
H281 H 0.20358 0.55575 0.89992 0.0
H282 H 0.18002 0.51238 0.82892 0.0
H283 H 0.15245 0.58491 0.83877 0.0
H284 H 0.09809 0.5531 0.82582 0.0
H285 H 0.14341 0.55211 0.81844 0.0
H286 H 0.06363 0.45777 0.84695 0.0
H287 H 0.08974 0.47664 0.82312 0.0
H288 H 1.04478 0.47783 0.83113 0.0
H289 H 0.13656 0.54543 0.96286 0.0
H290 H 1.003 0.5124 0.97073 0.0
H291 H 0.99206 0.50768 0.93515 0.0
H292 H 0.1081 0.48279 0.93159 0.0
H293 H 0.16865 0.52091 0.93181 0.0
H294 H 0.13663 0.49502 0.90899 0.0
H295 H 0.16758 0.60415 0.92873 0.0
H296 H 0.19263 0.59691 0.90894 0.0
H297 H 0.19919 0.58728 0.93411 0.0
H298 H 0.25603 0.55019 0.88487 0.0
C299 C 0.19667 0.54626 0.88454 0.0
C300 C 0.98034 0.42888 0.45465 0.0
C301 C 0.94297 0.39338 0.44443 0.0
C302 C 0.94067 0.39321 0.42348 0.0
C303 C 1.01085 0.46133 0.42301 0.0
C304 C 1.01375 0.46276 0.4436 0.0
C305 C 0.05514 0.504 0.45138 0.0
H306 H 0.25174 0.68936 0.42642 0.0
C307 C 1.05073 0.49994 0.41554 0.0
C308 C 0.07771 0.52566 0.43201 0.0
H309 H 0.20014 0.65464 0.48585 0.0
H310 H 0.13595 0.58808 0.47278 0.0
H311 H 0.22811 0.60698 0.40984 0.0
H312 H 0.16245 0.65921 0.40899 0.0
H313 H 0.14607 0.63207 0.38626 0.0
H314 H 0.20577 0.67213 0.39158 0.0
H315 H 0.24612 0.6475 0.39457 0.0
H316 H 0.20406 0.59647 0.38578 0.0
C317 C 0.0864 0.50027 0.46373 0.0
C318 C 1.03777 0.52288 0.4635 0.0
C319 C 0.06603 0.51823 0.34034 0.0
C320 C 0.0992 0.55043 0.32879 0.0
C321 C 0.13891 0.58422 0.33833 0.0
C322 C 0.14486 0.5867 0.35902 0.0
C323 C 0.1106 0.55517 0.37054 0.0
C324 C 0.0724 0.52139 0.36117 0.0
C325 C 1.03998 0.49085 0.37592 0.0
C326 C 0.06444 0.51247 0.39569 0.0
C327 C 0.10558 0.55008 0.39237 0.0
C328 C 1.03686 0.45372 0.37183 0.0
C329 C 0.99401 0.48314 0.37389 0.0
C330 C 0.22734 0.66733 0.43677 0.0
C331 C 0.23183 0.67731 0.45721 0.0
C332 C 0.19785 0.6478 0.46998 0.0
C333 C 0.16044 0.60927 0.46238 0.0
C334 C 0.15597 0.60026 0.44166 0.0
C335 C 0.18937 0.62963 0.42941 0.0
C336 C 0.17828 0.61775 0.40777 0.0
C337 C 0.13317 0.57625 0.40871 0.0
C338 C 0.11962 0.56497 0.42856 0.0
C339 C 0.21609 0.61734 0.39884 0.0
C340 C 0.17312 0.64673 0.39798 0.0
H341 H 0.9697 0.42359 0.39696 0.0
H342 H 0.98316 0.4303 0.47076 0.0
H343 H 1.01013 0.5195 0.4551 0.0
H344 H 0.06469 0.555 0.46651 0.0
H345 H 1.02384 0.50833 0.47796 0.0
H346 H 0.09471 0.48333 0.45498 0.0
H347 H 0.06941 0.4844 0.47762 0.0
H348 H 0.11901 0.52955 0.46795 0.0
H349 H 1.03518 0.4918 0.33342 0.0
H350 H 0.1654 0.60907 0.32972 0.0
H351 H 0.17574 0.61349 0.36522 0.0
H352 H 0.06875 0.46186 0.36517 0.0
H353 H 1.00831 0.432 0.36128 0.0
H354 H 1.03304 0.43873 0.38561 0.0
H355 H 0.99984 0.51098 0.37063 0.0
H356 H 0.97426 0.47308 0.38776 0.0
H357 H 0.9725 0.46109 0.36154 0.0
H358 H 0.91331 0.36664 0.41509 0.0
C359 C 0.97402 0.42651 0.41286 0.0
C360 C 0.59454 0.95068 0.78319 0.0
C361 C 0.60234 0.92521 0.77457 0.0
C362 C 0.60896 0.92594 0.75379 0.0
C363 C 0.59821 0.97506 0.75052 0.0
C364 C 0.59263 0.97529 0.77091 0.0
C365 C 0.58453 1.00414 0.77742 0.0
H366 H 0.54584 0.13082 0.75038 0.0
C367 C 0.59303 1.00291 0.74183 0.0
C368 C 0.58494 0.02019 0.75751 0.0
H369 H 0.55184 0.10125 0.81032 0.0
H370 H 0.5703 0.05971 0.79733 0.0
H371 H 0.63557 0.14358 0.73547 0.0
H372 H 0.49169 0.04646 0.73093 0.0
H373 H 0.5144 0.04554 0.7082 0.0
H374 H 0.51905 0.08848 0.71548 0.0
H375 H 0.59779 0.14321 0.7192 0.0
H376 H 0.62495 0.12251 0.71122 0.0
C377 C 0.6247 0.03688 0.79127 0.0
C378 C 0.5374 0.98064 0.7873 0.0
C379 C 0.60221 0.01806 0.66642 0.0
C380 C 0.59518 0.03924 0.65394 0.0
C381 C 0.58418 0.06229 0.66261 0.0
C382 C 0.58048 0.0645 0.68331 0.0
C383 C 0.58747 0.04318 0.69563 0.0
C384 C 0.59776 0.02018 0.68715 0.0
C385 C 0.60208 0.9983 0.70259 0.0
C386 C 0.59359 1.01263 0.72173 0.0
C387 C 0.58536 0.03905 0.71752 0.0
C388 C 0.65133 1.01234 0.70205 0.0
C389 C 0.5642 0.95313 0.69821 0.0
C390 C 0.55116 0.11544 0.76074 0.0
C391 C 0.54691 0.11891 0.78135 0.0
C392 C 0.55494 0.09898 0.79436 0.0
C393 C 0.56539 0.07477 0.78677 0.0
C394 C 0.56825 0.07078 0.76597 0.0
C395 C 0.56192 0.09165 0.75345 0.0
C396 C 0.5671 0.08512 0.73187 0.0
C397 C 0.57723 0.05658 0.73327 0.0
C398 C 0.57754 0.04776 0.75323 0.0
C399 C 0.6082 0.12558 0.72382 0.0
C400 C 0.52096 0.06566 0.72088 0.0
H401 H 0.61216 0.9494 0.72615 0.0
H402 H 0.58934 0.95106 0.79907 0.0
H403 H 0.51151 0.95295 0.77832 0.0
H404 H 0.52423 0.99723 0.78837 0.0
H405 H 0.53878 0.97211 0.80251 0.0
H406 H 0.65747 0.04486 0.78594 0.0
H407 H 0.61979 0.02676 0.80675 0.0
H408 H 0.62977 0.06488 0.79154 0.0
H409 H 0.61017 0.99971 0.66016 0.0
H410 H 0.57899 0.07911 0.65332 0.0
H411 H 0.57223 0.08276 0.68889 0.0
H412 H 0.67627 0.04467 0.69939 0.0
H413 H 0.65488 0.9964 0.68988 0.0
H414 H 0.66254 1.00876 0.71631 0.0
H415 H 0.53311 0.94681 0.69166 0.0
H416 H 0.55216 0.93573 0.7118 0.0
H417 H 0.57584 0.94121 0.68744 0.0
H418 H 0.61634 0.90773 0.74671 0.0
C419 C 0.60689 0.95051 0.74181 0.0
C420 C 0.54913 0.3748 0.14205 0.0
C421 C 0.56924 0.35917 0.13347 0.0
C422 C 0.57257 0.35859 0.11245 0.0
C423 C 0.54691 0.39744 0.10995 0.0
C424 C 0.54142 0.39605 0.13037 0.0
C425 C 0.53637 0.42582 0.13845 0.0
H426 H 0.49823 0.55397 0.12148 0.0
C427 C 0.54262 0.42673 0.10267 0.0
C428 C 0.53733 0.44391 0.11938 0.0
H429 H 0.52127 0.52434 0.17845 0.0
H430 H 0.53588 0.48399 0.16145 0.0
H431 H 0.58763 0.5745 0.10325 0.0
H432 H 0.44668 0.47102 0.09785 0.0
H433 H 0.47033 0.48237 0.07384 0.0
H434 H 0.47018 0.51829 0.08802 0.0
H435 H 0.55035 0.57058 0.08505 0.0
H436 H 0.58203 0.55295 0.0796 0.0
C437 C 0.57819 0.45667 0.15237 0.0
C438 C 0.48977 0.40306 0.14878 0.0
C439 C 0.54407 0.44674 0.02823 0.0
C440 C 0.54196 0.47281 0.01755 0.0
C441 C 0.53742 0.49892 0.02792 0.0
C442 C 0.53467 0.49898 0.04872 0.0
C443 C 0.53707 0.47299 0.0593 0.0
C444 C 0.54205 0.44763 0.04912 0.0
C445 C 0.54706 0.42411 0.06309 0.0
C446 C 0.54275 0.43871 0.08322 0.0
C447 C 0.53689 0.46729 0.08083 0.0
C448 C 0.59504 0.43587 0.06041 0.0
C449 C 0.50726 0.37949 0.05886 0.0
C450 C 0.50771 0.54004 0.13055 0.0
C451 C 0.50678 0.54173 0.15162 0.0
C452 C 0.51952 0.52251 0.16231 0.0
C453 C 0.52859 0.49925 0.15238 0.0
C454 C 0.52669 0.49618 0.13145 0.0
C455 C 0.51853 0.51786 0.1209 0.0
C456 C 0.52177 0.51366 0.09871 0.0
C457 C 0.53148 0.48457 0.09775 0.0
C458 C 0.53306 0.47372 0.11693 0.0
C459 C 0.56224 0.55494 0.09111 0.0
C460 C 0.47498 0.49559 0.08894 0.0
H461 H 0.56569 0.37707 0.08486 0.0
H462 H 0.54493 0.37511 0.15803 0.0
H463 H 0.46222 0.37779 0.13897 0.0
H464 H 0.47965 0.42162 0.15216 0.0
H465 H 0.4903 0.39085 0.16295 0.0
H466 H 0.60744 0.45685 0.14956 0.0
H467 H 0.56944 0.45032 0.16834 0.0
H468 H 0.59226 0.48758 0.14984 0.0
H469 H 0.54825 0.42684 0.02051 0.0
H470 H 0.53555 0.51905 0.01984 0.0
H471 H 0.53084 0.51931 0.05575 0.0
H472 H 0.6197 0.46624 0.05467 0.0
H473 H 0.59383 0.41505 0.04968 0.0
H474 H 0.61051 0.43721 0.07469 0.0
H475 H 0.47423 0.37398 0.05817 0.0
H476 H 0.50383 0.36061 0.07055 0.0
H477 H 0.51167 0.36917 0.04433 0.0
H478 H 0.58785 0.34691 0.10519 0.0
C479 C 0.5607 0.37705 0.10063 0.0
H480 H 0.35365 0.59694 0.13791 0.0
H481 H 0.28044 0.52452 0.1885 0.0
H482 H 0.34943 0.5356 0.20019 0.0
H483 H 0.40045 0.55917 0.12477 0.0
H484 H 0.45605 0.60263 0.11769 0.0
H485 H 0.40887 0.60294 0.11745 0.0
H486 H 0.45282 0.66526 0.14135 0.0
H487 H 0.5008 0.66547 0.14151 0.0
H488 H 0.47585 0.66488 0.16469 0.0
H489 H 0.41154 0.53338 0.19951 0.0
H490 H 0.4614 0.51972 0.18737 0.0
H491 H 0.50402 0.60053 0.13934 0.0
C492 C 0.35326 0.58545 0.15204 0.0
C493 C 0.31217 0.55999 0.16236 0.0
C494 C 0.31183 0.54409 0.18042 0.0
C495 C 0.351 0.55058 0.18726 0.0
C496 C 0.39038 0.57349 0.17601 0.0
C497 C 0.39227 0.59159 0.15898 0.0
C498 C 0.43534 0.60801 0.14754 0.0
C499 C 0.42447 0.59219 0.1256 0.0
C500 C 0.46815 0.65362 0.14886 0.0
C501 C 0.45402 0.59173 0.1593 0.0
C502 C 0.42856 0.57328 0.17609 0.0
C503 C 0.43308 0.54916 0.18694 0.0
C504 C 0.46205 0.54166 0.17984 0.0
C505 C 0.48684 0.55859 0.16207 0.0
C506 C 0.48505 0.58627 0.15268 0.0
H507 H 0.69396 0.18096 0.45277 0.0
H508 H 0.75507 0.148 0.49197 0.0
H509 H 0.82825 0.21631 0.49148 0.0
H510 H 0.79152 0.2421 0.42217 0.0
H511 H 0.78333 0.27822 0.41852 0.0
H512 H 0.73506 0.2276 0.42315 0.0
H513 H 0.71358 0.25181 0.4532 0.0
H514 H 0.762 0.30254 0.44873 0.0
H515 H 0.7552 0.28264 0.47286 0.0
H516 H 0.89672 0.28946 0.48611 0.0
H517 H 0.95434 0.35723 0.47382 0.0
H518 H 0.84959 0.34221 0.43746 0.0
C519 C 0.72257 0.18817 0.46143 0.0
C520 C 0.71826 0.15876 0.47254 0.0
C521 C 0.7571 0.16965 0.48334 0.0
C522 C 0.79895 0.20861 0.48323 0.0
C523 C 0.80209 0.2368 0.47211 0.0
C524 C 0.76494 0.22692 0.46126 0.0
C525 C 0.77801 0.26206 0.4496 0.0
C526 C 0.7716 0.25188 0.42702 0.0
C527 C 0.75056 0.27556 0.45651 0.0
C528 C 0.82829 0.29309 0.4554 0.0
C529 C 0.84147 0.2782 0.46862 0.0
C530 C 0.88657 0.30133 0.47579 0.0
C531 C 0.91914 0.34007 0.46886 0.0
C532 C 0.90691 0.35546 0.45466 0.0
C533 C 0.8604 0.33157 0.44827 0.0
H534 H 0.58197 0.73367 0.79311 0.0
H535 H 0.6534 0.78944 0.84976 0.0
H536 H 0.65173 0.84461 0.84444 0.0
H537 H 0.64022 0.82141 0.76651 0.0
H538 H 0.59108 0.8059 0.75198 0.0
H539 H 0.59456 0.76935 0.76107 0.0
H540 H 0.51708 0.73462 0.77855 0.0
H541 H 0.51329 0.77104 0.76946 0.0
H542 H 0.50964 0.76295 0.79582 0.0
H543 H 0.64723 0.89663 0.83151 0.0
H544 H 0.63961 0.93988 0.81237 0.0
H545 H 0.56988 0.84913 0.76457 0.0
C546 C 0.5971 0.75736 0.80447 0.0
C547 C 0.61777 0.75704 0.82189 0.0
C548 C 0.63677 0.78858 0.83643 0.0
C549 C 0.63619 0.82021 0.83348 0.0
C550 C 0.61617 0.81985 0.81599 0.0
C551 C 0.59668 0.78904 0.8018 0.0
C552 C 0.57867 0.79625 0.78398 0.0
C553 C 0.60257 0.79836 0.76476 0.0
C554 C 0.52657 0.76432 0.78183 0.0
C555 C 0.59203 0.83637 0.79011 0.0
C556 C 0.61334 0.84944 0.80867 0.0
C557 C 0.63011 0.88642 0.81705 0.0
C558 C 0.62539 0.91075 0.8061 0.0
C559 C 0.60421 0.89816 0.78689 0.0
C560 C 0.58678 0.86008 0.77907 0.0
H561 H 0.78245 0.46356 0.20025 0.0
H562 H 0.80989 0.39261 0.16801 0.0
H563 H 0.72845 0.34325 0.15847 0.0
H564 H 0.6558 0.37617 0.21323 0.0
H565 H 0.64123 0.40785 0.20909 0.0
H566 H 0.69631 0.42856 0.21964 0.0
H567 H 0.73561 0.47925 0.19161 0.0
H568 H 0.68117 0.45886 0.1811 0.0
H569 H 0.72246 0.46126 0.1659 0.0
H570 H 0.65194 0.3141 0.14411 0.0
H571 H 0.58963 0.30801 0.12739 0.0
H572 H 0.61413 0.3999 0.16832 0.0
C573 C 0.77065 0.43656 0.19203 0.0
C574 C 0.80206 0.43174 0.18482 0.0
C575 C 0.78606 0.3965 0.17386 0.0
C576 C 0.73979 0.3683 0.16839 0.0
C577 C 0.70997 0.37551 0.17435 0.0
C578 C 0.72473 0.40848 0.18638 0.0
C579 C 0.68909 0.41406 0.18758 0.0
C580 C 0.66943 0.40617 0.20864 0.0
C581 C 0.70822 0.45575 0.18113 0.0
C582 C 0.65409 0.38174 0.17276 0.0
C583 C 0.6656 0.35872 0.16584 0.0
C584 C 0.64183 0.33114 0.14986 0.0
C585 C 0.60672 0.32818 0.14028 0.0
C586 C 0.59639 0.35331 0.14644 0.0
C587 C 0.61931 0.37897 0.16349 0.0
H588 H 0.48588 0.88954 0.45867 0.0
H589 H 0.42704 0.94013 0.48563 0.0
H590 H 0.35254 0.87289 0.48752 0.0
H591 H 0.38702 0.81703 0.42745 0.0
H592 H 0.39301 0.77913 0.42917 0.0
H593 H 0.4426 0.83075 0.43153 0.0
H594 H 0.46243 0.81869 0.46571 0.0
H595 H 0.41268 0.76705 0.46351 0.0
H596 H 0.42059 0.79702 0.48507 0.0
H597 H 0.28383 0.7992 0.48702 0.0
H598 H 0.22439 0.72704 0.47966 0.0
H599 H 0.32463 0.72387 0.44997 0.0
C600 C 0.45734 0.88632 0.46513 0.0
C601 C 0.46253 0.92023 0.47225 0.0
C602 C 0.42403 0.91475 0.48015 0.0
C603 C 0.38155 0.87655 0.48137 0.0
C604 C 0.37742 0.84372 0.47424 0.0
C605 C 0.41407 0.84826 0.4659 0.0
C606 C 0.39934 0.80832 0.45784 0.0
C607 C 0.40588 0.80885 0.43515 0.0
C608 C 0.42531 0.79712 0.46868 0.0
C609 C 0.34886 0.78071 0.46297 0.0
C610 C 0.33718 0.80166 0.4728 0.0
C611 C 0.29268 0.78261 0.47926 0.0
C612 C 0.25909 0.74144 0.47516 0.0
C613 C 0.26958 0.71949 0.46433 0.0
C614 C 0.3154 0.73964 0.45835 0.0
H615 H 0.56999 0.29855 0.83688 0.0
H616 H 0.45172 0.26021 0.80157 0.0
H617 H 0.44414 0.20262 0.78809 0.0
H618 H 0.61712 0.27334 0.79975 0.0
H619 H 0.63759 0.25655 0.81698 0.0
H620 H 0.63217 0.29344 0.82509 0.0
H621 H 0.5804 0.24921 0.85382 0.0
H622 H 0.58558 0.2121 0.84576 0.0
H623 H 0.52993 0.19891 0.84817 0.0
H624 H 0.45078 0.15133 0.77716 0.0
H625 H 0.47296 0.10991 0.76838 0.0
H626 H 0.58739 0.18004 0.81027 0.0
C627 C 0.54221 0.27768 0.82651 0.0
C628 C 0.51143 0.2839 0.82024 0.0
C629 C 0.4759 0.25627 0.80643 0.0
C630 C 0.47113 0.22331 0.79879 0.0
C631 C 0.50218 0.21822 0.80506 0.0
C632 C 0.53714 0.24458 0.81855 0.0
C633 C 0.56718 0.233 0.82188 0.0
C634 C 0.61643 0.26605 0.81554 0.0
C635 C 0.56567 0.22269 0.84371 0.0
C636 C 0.54385 0.19632 0.80798 0.0
C637 C 0.50623 0.18833 0.79859 0.0
C638 C 0.47999 0.15712 0.7845 0.0
C639 C 0.49289 0.13381 0.77958 0.0
C640 C 0.53176 0.14169 0.78866 0.0
C641 C 0.55714 0.173 0.80332 0.0
H642 H 0.66513 0.86658 0.51715 0.0
H643 H 0.54761 0.80357 0.47681 0.0
H644 H 0.5342 0.74092 0.48238 0.0
H645 H 0.70353 0.81006 0.5041 0.0
H646 H 0.71998 0.81112 0.52943 0.0
H647 H 0.72206 0.85119 0.52102 0.0
H648 H 0.66969 0.84064 0.54989 0.0
H649 H 0.66757 0.80068 0.55842 0.0
H650 H 0.61539 0.79222 0.55272 0.0
H651 H 0.53151 0.68416 0.49409 0.0
H652 H 0.53835 0.63879 0.51157 0.0
H653 H 0.65724 0.7398 0.54425 0.0
C654 C 0.63644 0.83966 0.50949 0.0
C655 C 0.6074 0.84012 0.49654 0.0
C656 C 0.57071 0.80416 0.48661 0.0
C657 C 0.56273 0.76838 0.48974 0.0
C658 C 0.59183 0.76904 0.50278 0.0
C659 C 0.62795 0.80383 0.51248 0.0
C660 C 0.65312 0.79656 0.52641 0.0
C661 C 0.7026 0.81854 0.51984 0.0
C662 C 0.65131 0.80821 0.54814 0.0
C663 C 0.6251 0.75209 0.52335 0.0
C664 C 0.59014 0.73668 0.50954 0.0
C665 C 0.55901 0.69601 0.50481 0.0
C666 C 0.56331 0.67048 0.51472 0.0
C667 C 0.59827 0.68569 0.52931 0.0
C668 C 0.6299 0.72715 0.53331 0.0
H669 H 0.68333 0.48662 0.86042 0.0
H670 H 0.74037 0.58621 0.8226 0.0
H671 H 0.81077 0.59373 0.81969 0.0
H672 H 0.79274 0.53064 0.88718 0.0
H673 H 0.78215 0.48418 0.88937 0.0
H674 H 0.73496 0.48492 0.88798 0.0
H675 H 0.70134 0.43504 0.85782 0.0
H676 H 0.74848 0.43422 0.85911 0.0
H677 H 0.73592 0.44645 0.83624 0.0
H678 H 0.87878 0.58924 0.8195 0.0
H679 H 0.93466 0.57817 0.82493 0.0
H680 H 0.84154 0.48559 0.8655 0.0
C681 C 0.71042 0.51009 0.85142 0.0
C682 C 0.70388 0.53563 0.84158 0.0
C683 C 0.74224 0.56585 0.83039 0.0
C684 C 0.78324 0.57036 0.82858 0.0
C685 C 0.78839 0.5451 0.83831 0.0
C686 C 0.753 0.51579 0.84985 0.0
C687 C 0.76864 0.49387 0.85953 0.0
C688 C 0.76966 0.49867 0.88238 0.0
C689 C 0.73667 0.44976 0.85279 0.0
C690 C 0.8177 0.5149 0.85162 0.0
C691 C 0.82798 0.54408 0.83911 0.0
C692 C 0.87037 0.56652 0.82946 0.0
C693 C 0.90258 0.55973 0.8326 0.0
C694 C 0.89482 0.5309 0.84574 0.0
C695 C 0.85061 0.5083 0.85538 0.0
H696 H 0.17395 0.67805 0.16829 0.0
H697 H 0.21885 0.63319 0.12477 0.0
H698 H 0.29271 0.70063 0.12254 0.0
H699 H 0.22867 0.77373 0.14656 0.0
H700 H 0.24429 0.80038 0.17036 0.0
H701 H 0.19443 0.7488 0.1681 0.0
H702 H 0.22614 0.73248 0.19625 0.0
H703 H 0.27597 0.784 0.19865 0.0
H704 H 0.2822 0.74644 0.19402 0.0
H705 H 0.36329 0.7745 0.12521 0.0
H706 H 0.42458 0.84558 0.13429 0.0
H707 H 0.33421 0.84256 0.17617 0.0
C708 C 0.19919 0.6824 0.15819 0.0
C709 C 0.19024 0.64986 0.14674 0.0
C710 C 0.22469 0.65718 0.13389 0.0
C711 C 0.26683 0.69563 0.13241 0.0
C712 C 0.27459 0.72695 0.14392 0.0
C713 C 0.24174 0.72066 0.15667 0.0
C714 C 0.25923 0.75911 0.16795 0.0
C715 C 0.2299 0.77121 0.16294 0.0
C716 C 0.26099 0.75527 0.19056 0.0
C717 C 0.30698 0.78796 0.15964 0.0
C718 C 0.31512 0.76896 0.14566 0.0
C719 C 0.35706 0.78957 0.13612 0.0
C720 C 0.39173 0.83021 0.14126 0.0
C721 C 0.38479 0.85022 0.15598 0.0
C722 C 0.34124 0.82849 0.16497 0.0
H723 H 0.58117 0.26158 0.474 0.0
H724 H 0.47528 0.16954 0.51176 0.0
H725 H 0.46436 0.21603 0.52636 0.0
H726 H 0.63081 0.34035 0.51076 0.0
H727 H 0.64404 0.37731 0.4937 0.0
H728 H 0.64116 0.33603 0.4849 0.0
H729 H 0.5812 0.3177 0.45796 0.0
H730 H 0.58381 0.3589 0.46674 0.0
H731 H 0.52983 0.3094 0.46539 0.0
H732 H 0.46681 0.27213 0.53798 0.0
H733 H 0.48522 0.33631 0.54739 0.0
H734 H 0.59075 0.39389 0.5029 0.0
C735 C 0.55533 0.25124 0.48516 0.0
C736 C 0.529 0.212 0.49178 0.0
C737 C 0.49598 0.19956 0.50661 0.0
C738 C 0.48932 0.22565 0.51488 0.0
C739 C 0.51603 0.26419 0.50821 0.0
C740 C 0.54855 0.27716 0.49377 0.0
C741 C 0.57455 0.32095 0.49029 0.0
C742 C 0.62566 0.34508 0.49521 0.0
C743 C 0.56687 0.32709 0.46882 0.0
C744 C 0.55193 0.33057 0.50523 0.0
C745 C 0.51794 0.29716 0.51521 0.0
C746 C 0.49319 0.29848 0.53023 0.0
C747 C 0.50399 0.33508 0.53551 0.0
C748 C 0.53942 0.37002 0.52591 0.0
C749 C 0.56311 0.36755 0.51029 0.0
H750 H 0.47628 0.57478 0.85567 0.0
H751 H 0.40581 0.45607 0.82995 0.0
H752 H 0.3344 0.44727 0.82815 0.0
H753 H 0.37941 0.54787 0.88681 0.0
H754 H 0.39029 0.59436 0.88424 0.0
H755 H 0.43657 0.5924 0.88253 0.0
H756 H 0.4567 0.6234 0.84807 0.0
H757 H 0.4103 0.62525 0.84964 0.0
H758 H 0.41349 0.60004 0.82858 0.0
H759 H 0.26549 0.45214 0.82802 0.0
H760 H 0.21188 0.4665 0.83379 0.0
H761 H 0.32181 0.57926 0.86256 0.0
C762 C 0.44602 0.54681 0.84954 0.0
C763 C 0.44899 0.51626 0.84273 0.0
C764 C 0.40669 0.48041 0.83529 0.0
C765 C 0.36508 0.47511 0.83414 0.0
C766 C 0.36345 0.50541 0.84086 0.0
C767 C 0.40305 0.54048 0.84882 0.0
C768 C 0.39133 0.56753 0.85615 0.0
C769 C 0.39993 0.57607 0.87878 0.0
C770 C 0.41966 0.60638 0.84495 0.0
C771 C 0.33963 0.5428 0.85099 0.0
C772 C 0.32428 0.50716 0.84185 0.0
C773 C 0.27804 0.48009 0.83533 0.0
C774 C 0.24718 0.48876 0.83852 0.0
C775 C 0.26058 0.52434 0.84858 0.0
C776 C 0.30861 0.55158 0.85472 0.0
H777 H 0.96478 0.38254 0.16048 0.0
H778 H 0.89726 0.42727 0.13931 0.0
H779 H 0.82245 0.35996 0.14098 0.0
H780 H 0.88867 0.28271 0.13707 0.0
H781 H 0.88949 0.25904 0.15838 0.0
H782 H 0.93801 0.30953 0.15354 0.0
H783 H 0.93305 0.33225 0.18898 0.0
H784 H 0.88477 0.28183 0.19396 0.0
H785 H 0.88015 0.32066 0.19683 0.0
H786 H 0.75369 0.28675 0.1456 0.0
H787 H 0.69774 0.21741 0.15626 0.0
H788 H 0.80878 0.22154 0.17758 0.0
C789 C 0.93424 0.37798 0.15596 0.0
C790 C 0.93706 0.41014 0.14933 0.0
C791 C 0.8961 0.40313 0.14419 0.0
C792 C 0.85339 0.36491 0.14511 0.0
C793 C 0.85164 0.33385 0.15179 0.0
C794 C 0.89101 0.34017 0.15746 0.0
C795 C 0.87941 0.30261 0.16574 0.0
C796 C 0.90014 0.28759 0.15291 0.0
C797 C 0.89528 0.30977 0.18768 0.0
C798 C 0.82752 0.2742 0.16384 0.0
C799 C 0.81217 0.29256 0.15541 0.0
C800 C 0.76552 0.2722 0.15218 0.0
C801 C 0.73386 0.2326 0.15813 0.0
C802 C 0.74859 0.21366 0.16761 0.0
C803 C 0.79628 0.23492 0.17023 0.0
H804 H 1.005 0.4872 0.08514 0.0
H805 H 0.13395 0.60332 0.09886 0.0
H806 H 0.15479 0.60966 0.06331 0.0
H807 H 1.04429 0.45592 0.0441 0.0
H808 H 0.99295 0.43281 0.02935 0.0
H809 H 0.99097 0.43477 0.0562 0.0
H810 H 0.95496 0.46939 0.05412 0.0
H811 H 0.9571 0.46781 0.02731 0.0
H812 H 0.98398 0.51457 0.0408 0.0
H813 H 0.1598 0.60529 0.02626 0.0
H814 H 0.14706 0.59254 0.98982 0.0
H815 H 1.01245 0.48113 -0.00068 0.0
C816 C 1.03808 0.51337 0.08062 0.0
C817 C 0.06843 0.54451 0.09463 0.0
C818 C 0.11066 0.57905 0.08826 0.0
C819 C 0.12275 0.58284 0.06815 0.0
C820 C 0.0918 0.55206 0.05454 0.0
C821 C 1.05018 0.51807 0.06044 0.0
C822 C 1.02135 0.49135 0.04248 0.0
C823 C 1.01184 0.45134 0.04307 0.0
C824 C 0.97672 0.48545 0.0411 0.0
C825 C 1.05301 0.51586 0.02561 0.0
C826 C 0.09375 0.55043 0.03295 0.0
C827 C 0.12815 0.5782 0.02033 0.0
C828 C 0.12067 0.57063 -0.00035 0.0
C829 C 0.07886 0.53582 0.9917 0.0
C830 C 1.04471 0.50806 0.00494 0.0
H831 H 0.63791 0.08655 0.40681 0.0
H832 H 0.53983 0.96264 0.42114 0.0
H833 H 0.51954 0.9439 0.38534 0.0
H834 H 0.56675 0.08102 0.36787 0.0
H835 H 0.6142 0.11565 0.35232 0.0
H836 H 0.62218 0.11936 0.379 0.0
H837 H 0.6871 0.11492 0.37438 0.0
H838 H 0.67901 0.11077 0.34768 0.0
H839 H 0.67591 0.07323 0.36034 0.0
H840 H 0.51405 0.93813 0.34849 0.0
H841 H 0.51364 0.94521 0.31249 0.0
H842 H 0.60838 0.07378 0.32132 0.0
C843 C 0.61207 0.05557 0.40228 0.0
C844 C 0.59039 0.02585 0.41651 0.0
C845 C 0.55654 0.98564 0.41032 0.0
C846 C 0.54505 0.97478 0.39007 0.0
C847 C 0.56721 1.00462 0.3763 0.0
C848 C 0.59929 0.04426 0.38208 0.0
C849 C 0.61606 0.0703 0.36415 0.0
C850 C 0.60407 0.09823 0.36594 0.0
C851 C 0.66758 0.09368 0.36149 0.0
C852 C 0.58869 0.03898 0.34742 0.0
C853 C 0.56139 1.00138 0.35487 0.0
C854 C 0.53437 0.96743 0.34251 0.0
C855 C 0.53411 0.97191 0.322 0.0
C856 C 0.5597 1.01012 0.3139 0.0
C857 C 0.5881 0.04413 0.32688 0.0
H858 H 0.51771 0.47432 0.77156 0.0
H859 H 0.6491 0.57984 0.79385 0.0
H860 H 0.67171 0.60228 0.75927 0.0
H861 H 0.56124 0.45722 0.72929 0.0
H862 H 0.51273 0.43868 0.71338 0.0
H863 H 0.50583 0.43319 0.73992 0.0
H864 H 0.47119 0.46926 0.74081 0.0
H865 H 0.47805 0.47491 0.71425 0.0
H866 H 0.50289 0.51791 0.7308 0.0
H867 H 0.67961 0.61241 0.72175 0.0
H868 H 0.67472 0.60635 0.68472 0.0
H869 H 0.54035 0.49178 0.68761 0.0
C870 C 0.55109 0.50237 0.7692 0.0
C871 C 0.58133 0.52582 0.78537 0.0
C872 C 0.62504 0.56191 0.78167 0.0
C873 C 0.63819 0.5748 0.76209 0.0
C874 C 0.60742 0.5509 0.74644 0.0
C875 C 0.56496 0.51523 0.74982 0.0
C876 C 0.53927 0.4936 0.73048 0.0
C877 C 0.5292 0.4533 0.72813 0.0
C878 C 0.49525 0.48865 0.72901 0.0
C879 C 0.57394 0.52251 0.71561 0.0
C880 C 0.6128 0.5557 0.72504 0.0
C881 C 0.64937 0.5865 0.71424 0.0
C882 C 0.6463 0.58293 0.69328 0.0
C883 C 0.60731 0.54854 0.68346 0.0
C884 C 0.57066 0.51823 0.69481 0.0
H885 H 0.52553 0.0288 0.54046 0.0
H886 H 0.65587 0.06088 0.52359 0.0
H887 H 0.67238 0.05841 0.55889 0.0
H888 H 0.56671 0.08927 0.58531 0.0
H889 H 0.5153 0.0548 0.5989 0.0
H890 H 0.51258 0.05613 0.57219 0.0
H891 H 0.47275 0.98097 0.56891 0.0
H892 H 0.47545 0.97942 0.59563 0.0
H893 H 0.49967 0.96274 0.57975 0.0
H894 H 0.67445 0.05278 0.59643 0.0
H895 H 0.66486 0.05008 0.63311 0.0
H896 H 0.53518 0.0256 0.62523 0.0
C897 C 0.55741 0.03501 0.54417 0.0
C898 C 0.58907 0.04424 0.52927 0.0
C899 C 0.63073 0.05287 0.53474 0.0
C900 C 0.64043 0.05166 0.55475 0.0
C901 C 0.60834 0.04228 0.56911 0.0
C902 C 0.56787 0.03452 0.56407 0.0
C903 C 0.54022 0.02747 0.58237 0.0
C904 C 0.53332 0.05879 0.58483 0.0
C905 C 0.49431 0.98513 0.58161 0.0
C906 C 0.57151 0.03269 0.59856 0.0
C907 C 0.61037 0.04069 0.59064 0.0
C908 C 0.64416 0.04656 0.60278 0.0
C909 C 0.63837 0.0448 0.62356 0.0
C910 C 0.59941 0.03779 0.63196 0.0
C911 C 0.56548 0.03132 0.61921 0.0
H912 H 0.63332 0.57369 0.91272 0.0
H913 H 0.51168 0.46509 0.88575 0.0
H914 H 0.49056 0.43392 0.91842 0.0
H915 H 0.65784 0.52937 0.94949 0.0
H916 H 0.67439 0.56663 0.96871 0.0
H917 H 0.6825 0.57905 0.94284 0.0
H918 H 0.63536 0.60355 0.94717 0.0
H919 H 0.62728 0.59136 0.97304 0.0
H920 H 0.57851 0.57061 0.95686 0.0
H921 H 0.48231 0.41484 0.95413 0.0
H922 H 0.48284 0.412 0.991 0.0
H923 H 0.60587 0.53478 0.99501 0.0
C924 C 0.60257 0.5432 0.91369 0.0
C925 C 0.57466 0.52138 0.89669 0.0
C926 C 0.53403 0.48194 0.89856 0.0
C927 C 0.52175 0.46402 0.91704 0.0
C928 C 0.55006 0.48625 0.93354 0.0
C929 C 0.58926 0.52518 0.93211 0.0
C930 C 0.61158 0.54365 0.95241 0.0
C931 C 0.65941 0.55535 0.95341 0.0
C932 C 0.61325 0.57939 0.95767 0.0
C933 C 0.57865 0.50914 0.96547 0.0
C934 C 0.54388 0.47605 0.95427 0.0
C935 C 0.50934 0.44055 0.96307 0.0
C936 C 0.50995 0.43911 0.98392 0.0
C937 C 0.54435 0.47316 0.99561 0.0
C938 C 0.57927 0.50841 0.98627 0.0
H939 H 0.06031 0.47462 0.21409 0.0
H940 H 0.09905 0.58872 0.19943 0.0
H941 H 0.10278 0.60592 0.23517 0.0
H942 H 0.99153 0.45857 0.25768 0.0
H943 H 1.01072 0.43682 0.27179 0.0
H944 H 1.0076 0.43179 0.24492 0.0
H945 H 0.09279 0.46263 0.24407 0.0
H946 H 0.09616 0.46768 0.2709 0.0
H947 H 0.135 0.51054 0.25627 0.0
H948 H 0.10634 0.61265 0.27201 0.0
H949 H 0.11147 0.60931 0.30836 0.0
H950 H 0.07188 0.49152 0.3001 0.0
C951 C 0.06909 0.50301 0.21847 0.0
C952 C 0.07866 0.53011 0.20401 0.0
C953 C 0.09066 0.5672 0.21024 0.0
C954 C 0.09301 0.5773 0.23052 0.0
C955 C 0.0834 0.55004 0.24442 0.0
C956 C 0.07176 0.51368 0.23876 0.0
C957 C 0.06532 0.49081 0.2569 0.0
C958 C 1.01584 0.45221 0.25788 0.0
C959 C 0.09935 0.48244 0.25704 0.0
C960 C 0.07602 0.52036 0.27358 0.0
C961 C 0.08598 0.55415 0.26595 0.0
C962 C 0.09846 0.58631 0.27819 0.0
C963 C 0.1015 0.58422 0.2988 0.0
C964 C 0.09229 0.55027 0.30702 0.0
C965 C 0.07866 0.51766 0.29423 0.0
loop_
_geom_bond_atom_site_label_1
_geom_bond_atom_site_label_2
_geom_bond_distance
_geom_bond_site_symmetry_2
_ccdc_geom_bond_type
La0 C2 2.928 . S
La0 O20 2.521 . S
La0 O21 2.628 . S
La0 O22 2.554 . S
La0 O23 2.757 . S
La0 O24 2.470 . S
La0 O29 2.482 . S
La0 O31 2.503 1_455 S
La1 C11 2.928 . S
La1 O23 2.482 1_655 S
La1 O25 2.503 1_655 S
La1 O26 2.521 . S
La1 O27 2.628 . S
La1 O28 2.554 . S
La1 O29 2.757 1_655 S
La1 O30 2.470 . S
C2 La0 2.928 . S
C2 C3 1.503 . S
C2 O20 1.261 . S
C2 O21 1.243 . S
C3 C2 1.503 . S
C3 C4 1.394 . S
C3 C8 1.373 . S
C4 C3 1.394 . S
C4 C5 1.380 . S
C4 H32 0.930 . S
C5 C4 1.380 . S
C5 C6 1.376 . S
C5 H33 0.930 . S
C6 C5 1.376 . S
C6 C7 1.370 . S
C7 C6 1.370 . S
C7 C8 1.396 . S
C7 H34 0.929 . S
C8 C3 1.373 . S
C8 C7 1.396 . S
C8 H35 0.929 . S
C9 O22 1.240 . S
C9 O23 1.289 . S
C10 O24 1.258 . S
C10 O25 1.256 . S
C11 La1 2.928 . S
C11 C12 1.503 . S
C11 O26 1.261 . S
C11 O27 1.243 . S
C12 C11 1.503 . S
C12 C13 1.394 . S
C12 C17 1.373 . S
C13 C12 1.394 . S
C13 C14 1.380 . S
C13 H36 0.930 . S
C14 C13 1.380 . S
C14 C15 1.376 . S
C14 H37 0.930 . S
C15 C14 1.376 . S
C15 C16 1.370 . S
C16 C15 1.370 . S
C16 C17 1.396 . S
C16 H38 0.929 . S
C17 C12 1.373 . S
C17 C16 1.396 . S
C17 H39 0.929 . S
C18 O28 1.240 1_455 S
C18 O29 1.289 . S
C19 O30 1.258 . S
C19 O31 1.256 . S
O20 La0 2.521 . S
O20 C2 1.261 . S
O21 La0 2.628 . S
O21 C2 1.243 . S
O22 La0 2.554 . S
O22 C9 1.240 . S
O23 La0 2.757 . S
O23 La1 2.482 1_455 S
O23 C9 1.289 . S
O24 La0 2.470 . S
O24 C10 1.258 . S
O25 La1 2.503 1_455 S
O25 C10 1.256 . S
O26 La1 2.521 . S
O26 C11 1.261 . S
O27 La1 2.628 . S
O27 C11 1.243 . S
O28 La1 2.554 . S
O28 C18 1.240 1_655 S
O29 La0 2.482 . S
O29 La1 2.757 1_455 S
O29 C18 1.289 . S
O30 La1 2.470 . S
O30 C19 1.258 . S
O31 La0 2.503 1_655 S
O31 C19 1.256 . S
H32 C4 0.930 . S
H33 C5 0.930 . S
H34 C7 0.929 . S
H35 C8 0.929 . S
H36 C13 0.930 . S
H37 C14 0.930 . S
H38 C16 0.929 . S
H39 C17 0.929 . S
La40 C42 2.928 . S
La40 O60 2.521 . S
La40 O61 2.628 . S
La40 O62 2.554 . S
La40 O63 2.757 1_565 S
La40 O64 2.470 . S
La40 O69 2.482 . S
La40 O71 2.503 1_565 S
La41 C51 2.928 . S
La41 O63 2.482 . S
La41 O65 2.503 1_545 S
La41 O66 2.521 . S
La41 O67 2.628 . S
La41 O68 2.554 . S
La41 O69 2.757 1_545 S
La41 O70 2.470 . S
C42 La40 2.928 . S
C42 C43 1.503 . S
C42 O60 1.261 . S
C42 O61 1.243 . S
C43 C42 1.503 . S
C43 C44 1.394 . S
C43 C48 1.373 . S
C44 C43 1.394 . S
C44 C45 1.380 . S
C44 H72 0.930 . S
C45 C44 1.380 . S
C45 C46 1.376 . S
C45 H73 0.930 . S
C46 C45 1.376 . S
C46 C47 1.370 . S
C47 C46 1.370 . S
C47 C48 1.396 . S
C47 H74 0.929 . S
C48 C43 1.373 . S
C48 C47 1.396 . S
C48 H75 0.929 . S
C49 O62 1.240 1_545 S
C49 O63 1.289 . S
C50 O64 1.258 . S
C50 O65 1.256 . S
C51 La41 2.928 . S
C51 C52 1.503 . S
C51 O66 1.261 . S
C51 O67 1.243 . S
C52 C51 1.503 . S
C52 C53 1.394 . S
C52 C57 1.373 . S
C53 C52 1.394 . S
C53 C54 1.380 . S
C53 H76 0.930 . S
C54 C53 1.380 . S
C54 C55 1.376 . S
C54 H77 0.930 . S
C55 C54 1.376 . S
C55 C56 1.370 . S
C56 C55 1.370 . S
C56 C57 1.396 . S
C56 H78 0.929 . S
C57 C52 1.373 . S
C57 C56 1.396 . S
C57 H79 0.929 . S
C58 O68 1.240 . S
C58 O69 1.289 1_545 S
C59 O70 1.258 . S
C59 O71 1.256 . S
O60 La40 2.521 . S
O60 C42 1.261 . S
O61 La40 2.628 . S
O61 C42 1.243 . S
O62 La40 2.554 . S
O62 C49 1.240 1_565 S
O63 La40 2.757 1_545 S
O63 La41 2.482 . S
O63 C49 1.289 . S
O64 La40 2.470 . S
O64 C50 1.258 . S
O65 La41 2.503 1_565 S
O65 C50 1.256 . S
O66 La41 2.521 . S
O66 C51 1.261 . S
O67 La41 2.628 . S
O67 C51 1.243 . S
O68 La41 2.554 . S
O68 C58 1.240 . S
O69 La40 2.482 . S
O69 La41 2.757 1_565 S
O69 C58 1.289 1_565 S
O70 La41 2.470 . S
O70 C59 1.258 . S
O71 La40 2.503 1_545 S
O71 C59 1.256 . S
H72 C44 0.930 . S
H73 C45 0.930 . S
H74 C47 0.929 . S
H75 C48 0.929 . S
H76 C53 0.930 . S
H77 C54 0.930 . S
H78 C56 0.929 . S
H79 C57 0.929 . S
La80 C82 2.928 . S
La80 O100 2.521 . S
La80 O101 2.628 . S
La80 O102 2.554 . S
La80 O103 2.757 . S
La80 O104 2.470 . S
La80 O109 2.482 . S
La80 O111 2.503 . S
La81 C91 2.928 . S
La81 O103 2.482 . S
La81 O105 2.503 . S
La81 O106 2.521 . S
La81 O107 2.628 . S
La81 O108 2.554 . S
La81 O109 2.757 . S
La81 O110 2.470 . S
C82 La80 2.928 . S
C82 C83 1.503 . S
C82 O100 1.261 . S
C82 O101 1.243 . S
C83 C82 1.503 . S
C83 C84 1.394 . S
C83 C88 1.373 . S
C84 C83 1.394 . S
C84 C85 1.380 . S
C84 H112 0.930 . S
C85 C84 1.380 . S
C85 C86 1.376 . S
C85 H113 0.930 . S
C86 C85 1.376 . S
C86 C87 1.370 . S
C87 C86 1.370 . S
C87 C88 1.396 . S
C87 H114 0.929 . S
C88 C83 1.373 . S
C88 C87 1.396 . S
C88 H115 0.929 . S
C89 O102 1.240 . S
C89 O103 1.289 . S
C90 O104 1.258 . S
C90 O105 1.256 . S
C91 La81 2.928 . S
C91 C92 1.503 . S
C91 O106 1.261 . S
C91 O107 1.243 . S
C92 C91 1.503 . S
C92 C93 1.394 . S
C92 C97 1.373 . S
C93 C92 1.394 . S
C93 C94 1.380 . S
C93 H116 0.930 . S
C94 C93 1.380 . S
C94 C95 1.376 . S
C94 H117 0.930 . S
C95 C94 1.376 . S
C95 C96 1.370 . S
C96 C95 1.370 . S
C96 C97 1.396 . S
C96 H118 0.929 . S
C97 C92 1.373 . S
C97 C96 1.396 . S
C97 H119 0.929 . S
C98 O108 1.240 . S
C98 O109 1.289 . S
C99 O110 1.258 . S
C99 O111 1.256 . S
O100 La80 2.521 . S
O100 C82 1.261 . S
O101 La80 2.628 . S
O101 C82 1.243 . S
O102 La80 2.554 . S
O102 C89 1.240 . S
O103 La80 2.757 . S
O103 La81 2.482 . S
O103 C89 1.289 . S
O104 La80 2.470 . S
O104 C90 1.258 . S
O105 La81 2.503 . S
O105 C90 1.256 . S
O106 La81 2.521 . S
O106 C91 1.261 . S
O107 La81 2.628 . S
O107 C91 1.243 . S
O108 La81 2.554 . S
O108 C98 1.240 . S
O109 La80 2.482 . S
O109 La81 2.757 . S
O109 C98 1.289 . S
O110 La81 2.470 . S
O110 C99 1.258 . S
O111 La80 2.503 . S
O111 C99 1.256 . S
H112 C84 0.930 . S
H113 C85 0.930 . S
H114 C87 0.929 . S
H115 C88 0.929 . S
H116 C93 0.930 . S
H117 C94 0.930 . S
H118 C96 0.929 . S
H119 C97 0.929 . S
C120 C121 1.391 . S
C120 C124 1.391 . S
C120 H162 0.948 . S
C121 C120 1.391 . S
C121 C122 1.391 . S
C122 C121 1.391 . S
C122 H178 0.947 . S
C122 C179 1.392 . S
C123 C124 1.391 . S
C123 C127 1.397 . S
C123 C179 1.419 . S
C124 C120 1.391 . S
C124 C123 1.391 . S
C124 C125 1.399 . S
C125 C124 1.399 . S
C125 C128 1.396 . S
C125 C137 1.453 . S
C125 C138 1.684 . S
H126 C150 0.948 . S
C127 C123 1.397 . S
C127 C128 1.394 . S
C127 C146 1.723 . S
C128 C125 1.396 . S
C128 C127 1.394 . S
C128 C158 1.723 1_545 S
H129 C152 0.947 . S
H130 C153 0.948 . S
H131 C159 0.982 . S
H132 C160 0.979 . S
H133 C160 0.980 . S
H134 C160 0.983 . S
H135 C159 0.979 . S
H136 C159 0.977 . S
C137 C125 1.453 . S
C137 H166 0.982 . S
C137 H167 0.979 . S
C137 H168 0.977 1_545 S
C138 C125 1.684 . S
C138 H163 0.979 . S
C138 H164 0.980 . S
C138 H165 0.983 . S
C139 C140 1.391 . S
C139 C144 1.391 . S
C139 H169 0.948 . S
C140 C139 1.391 . S
C140 C141 1.391 1_545 S
C141 C140 1.391 1_565 S
C141 C142 1.392 . S
C141 H170 0.947 . S
C142 C141 1.392 . S
C142 C143 1.419 1_565 S
C142 H171 0.948 . S
C143 C142 1.419 1_545 S
C143 C144 1.391 . S
C143 C147 1.397 . S
C144 C139 1.391 . S
C144 C143 1.391 . S
C144 C145 1.399 . S
C145 C144 1.399 . S
C145 C146 1.396 . S
C145 C148 1.453 . S
C145 C149 1.684 . S
C146 C127 1.723 . S
C146 C145 1.396 . S
C146 C147 1.394 . S
C147 C143 1.397 . S
C147 C146 1.394 . S
C147 C157 1.723 1_545 S
C148 C145 1.453 . S
C148 H172 0.982 . S
C148 H173 0.979 . S
C148 H174 0.977 . S
C149 C145 1.684 . S
C149 H175 0.979 . S
C149 H176 0.980 . S
C149 H177 0.983 . S
C150 H126 0.948 . S
C150 C151 1.391 . S
C150 C155 1.391 . S
C151 C150 1.391 . S
C151 C152 1.391 . S
C152 H129 0.947 . S
C152 C151 1.391 . S
C152 C153 1.392 . S
C153 H130 0.948 . S
C153 C152 1.392 . S
C153 C154 1.419 . S
C154 C153 1.419 . S
C154 C155 1.391 . S
C154 C158 1.397 . S
C155 C150 1.391 . S
C155 C154 1.391 . S
C155 C156 1.399 . S
C156 C155 1.399 . S
C156 C157 1.396 . S
C156 C159 1.453 . S
C156 C160 1.684 . S
C157 C147 1.723 1_565 S
C157 C156 1.396 . S
C157 C158 1.394 . S
C158 C128 1.723 1_565 S
C158 C154 1.397 . S
C158 C157 1.394 . S
C159 H131 0.982 . S
C159 H135 0.979 . S
C159 H136 0.977 . S
C159 C156 1.453 . S
C160 H132 0.979 . S
C160 H133 0.980 . S
C160 H134 0.983 . S
C160 C156 1.684 . S
H161 C179 0.948 . S
H162 C120 0.948 . S
H163 C138 0.979 . S
H164 C138 0.980 . S
H165 C138 0.983 . S
H166 C137 0.982 . S
H167 C137 0.979 . S
H168 C137 0.977 1_565 S
H169 C139 0.948 . S
H170 C141 0.947 . S
H171 C142 0.948 . S
H172 C148 0.982 . S
H173 C148 0.979 . S
H174 C148 0.977 . S
H175 C149 0.979 . S
H176 C149 0.980 . S
H177 C149 0.983 . S
H178 C122 0.947 . S
C179 C122 1.392 . S
C179 C123 1.419 . S
C179 H161 0.948 . S
C180 C181 1.391 . S
C180 C184 1.391 . S
C180 H222 0.948 . S
C181 C180 1.391 . S
C181 C182 1.391 . S
C182 C181 1.391 . S
C182 H238 0.947 . S
C182 C239 1.392 . S
C183 C184 1.391 . S
C183 C187 1.397 . S
C183 C239 1.419 . S
C184 C180 1.391 . S
C184 C183 1.391 . S
C184 C185 1.399 . S
C185 C184 1.399 . S
C185 C188 1.396 . S
C185 C197 1.453 . S
C185 C198 1.684 . S
H186 C210 0.948 . S
C187 C183 1.397 . S
C187 C188 1.394 . S
C187 C206 1.723 . S
C188 C185 1.396 . S
C188 C187 1.394 . S
C188 C218 1.723 . S
H189 C212 0.947 . S
H190 C213 0.948 . S
H191 C219 0.982 . S
H192 C220 0.979 . S
H193 C220 0.980 . S
H194 C220 0.983 . S
H195 C219 0.979 . S
H196 C219 0.977 . S
C197 C185 1.453 . S
C197 H226 0.982 . S
C197 H227 0.979 . S
C197 H228 0.977 . S
C198 C185 1.684 . S
C198 H223 0.979 . S
C198 H224 0.980 . S
C198 H225 0.983 . S
C199 C200 1.391 . S
C199 C204 1.391 . S
C199 H229 0.948 . S
C200 C199 1.391 . S
C200 C201 1.391 . S
C201 C200 1.391 . S
C201 C202 1.392 . S
C201 H230 0.947 . S
C202 C201 1.392 . S
C202 C203 1.419 . S
C202 H231 0.948 . S
C203 C202 1.419 . S
C203 C204 1.391 . S
C203 C207 1.397 . S
C204 C199 1.391 . S
C204 C203 1.391 . S
C204 C205 1.399 . S
C205 C204 1.399 . S
C205 C206 1.396 . S
C205 C208 1.453 . S
C205 C209 1.684 . S
C206 C187 1.723 . S
C206 C205 1.396 . S
C206 C207 1.394 . S
C207 C203 1.397 . S
C207 C206 1.394 . S
C207 C217 1.723 . S
C208 C205 1.453 . S
C208 H232 0.982 . S
C208 H233 0.979 . S
C208 H234 0.977 . S
C209 C205 1.684 . S
C209 H235 0.979 . S
C209 H236 0.980 . S
C209 H237 0.983 . S
C210 H186 0.948 . S
C210 C211 1.391 . S
C210 C215 1.391 . S
C211 C210 1.391 . S
C211 C212 1.391 . S
C212 H189 0.947 . S
C212 C211 1.391 . S
C212 C213 1.392 . S
C213 H190 0.948 . S
C213 C212 1.392 . S
C213 C214 1.419 . S
C214 C213 1.419 . S
C214 C215 1.391 . S
C214 C218 1.397 . S
C215 C210 1.391 . S
C215 C214 1.391 . S
C215 C216 1.399 . S
C216 C215 1.399 . S
C216 C217 1.396 . S
C216 C219 1.453 . S
C216 C220 1.684 . S
C217 C207 1.723 . S
C217 C216 1.396 . S
C217 C218 1.394 . S
C218 C188 1.723 . S
C218 C214 1.397 . S
C218 C217 1.394 . S
C219 H191 0.982 . S
C219 H195 0.979 . S
C219 H196 0.977 . S
C219 C216 1.453 . S
C220 H192 0.979 . S
C220 H193 0.980 . S
C220 H194 0.983 . S
C220 C216 1.684 . S
H221 C239 0.948 . S
H222 C180 0.948 . S
H223 C198 0.979 . S
H224 C198 0.980 . S
H225 C198 0.983 . S
H226 C197 0.982 . S
H227 C197 0.979 . S
H228 C197 0.977 . S
H229 C199 0.948 . S
H230 C201 0.947 . S
H231 C202 0.948 . S
H232 C208 0.982 . S
H233 C208 0.979 . S
H234 C208 0.977 . S
H235 C209 0.979 . S
H236 C209 0.980 . S
H237 C209 0.983 . S
H238 C182 0.947 . S
C239 C182 1.392 . S
C239 C183 1.419 . S
C239 H221 0.948 . S
C240 C241 1.391 . S
C240 C244 1.391 . S
C240 H282 0.948 . S
C241 C240 1.391 . S
C241 C242 1.391 . S
C242 C241 1.391 . S
C242 H298 0.947 . S
C242 C299 1.392 . S
C243 C244 1.391 . S
C243 C247 1.397 . S
C243 C299 1.419 . S
C244 C240 1.391 . S
C244 C243 1.391 . S
C244 C245 1.399 . S
C245 C244 1.399 . S
C245 C248 1.396 . S
C245 C257 1.453 . S
C245 C258 1.684 . S
H246 C270 0.948 . S
C247 C243 1.397 . S
C247 C248 1.394 . S
C247 C266 1.723 . S
C248 C245 1.396 . S
C248 C247 1.394 . S
C248 C278 1.723 . S
H249 C272 0.947 . S
H250 C273 0.948 1_455 S
H251 C279 0.982 . S
H252 C280 0.979 . S
H253 C280 0.980 . S
H254 C280 0.983 . S
H255 C279 0.979 . S
H256 C279 0.977 . S
C257 C245 1.453 . S
C257 H286 0.982 . S
C257 H287 0.979 . S
C257 H288 0.977 . S
C258 C245 1.684 . S
C258 H283 0.979 . S
C258 H284 0.980 . S
C258 H285 0.983 . S
C259 C260 1.391 . S
C259 C264 1.391 . S
C259 H289 0.948 . S
C260 C259 1.391 . S
C260 C261 1.391 . S
C261 C260 1.391 . S
C261 C262 1.392 . S
C261 H290 0.947 1_455 S
C262 C261 1.392 . S
C262 C263 1.419 . S
C262 H291 0.948 1_455 S
C263 C262 1.419 . S
C263 C264 1.391 . S
C263 C267 1.397 . S
C264 C259 1.391 . S
C264 C263 1.391 . S
C264 C265 1.399 . S
C265 C264 1.399 . S
C265 C266 1.396 . S
C265 C268 1.453 . S
C265 C269 1.684 . S
C266 C247 1.723 . S
C266 C265 1.396 . S
C266 C267 1.394 . S
C267 C263 1.397 . S
C267 C266 1.394 . S
C267 C277 1.723 . S
C268 C265 1.453 . S
C268 H292 0.982 . S
C268 H293 0.979 . S
C268 H294 0.977 . S
C269 C265 1.684 . S
C269 H295 0.979 . S
C269 H296 0.980 . S
C269 H297 0.983 . S
C270 H246 0.948 . S
C270 C271 1.391 . S
C270 C275 1.391 . S
C271 C270 1.391 . S
C271 C272 1.391 . S
C272 H249 0.947 . S
C272 C271 1.391 . S
C272 C273 1.392 . S
C273 H250 0.948 1_655 S
C273 C272 1.392 . S
C273 C274 1.419 . S
C274 C273 1.419 . S
C274 C275 1.391 . S
C274 C278 1.397 1_655 S
C275 C270 1.391 . S
C275 C274 1.391 . S
C275 C276 1.399 . S
C276 C275 1.399 . S
C276 C277 1.396 1_655 S
C276 C279 1.453 . S
C276 C280 1.684 . S
C277 C267 1.723 . S
C277 C276 1.396 1_455 S
C277 C278 1.394 . S
C278 C248 1.723 . S
C278 C274 1.397 1_455 S
C278 C277 1.394 . S
C279 H251 0.982 . S
C279 H255 0.979 . S
C279 H256 0.977 . S
C279 C276 1.453 . S
C280 H252 0.979 . S
C280 H253 0.980 . S
C280 H254 0.983 . S
C280 C276 1.684 . S
H281 C299 0.948 . S
H282 C240 0.948 . S
H283 C258 0.979 . S
H284 C258 0.980 . S
H285 C258 0.983 . S
H286 C257 0.982 . S
H287 C257 0.979 . S
H288 C257 0.977 . S
H289 C259 0.948 . S
H290 C261 0.947 1_655 S
H291 C262 0.948 1_655 S
H292 C268 0.982 . S
H293 C268 0.979 . S
H294 C268 0.977 . S
H295 C269 0.979 . S
H296 C269 0.980 . S
H297 C269 0.983 . S
H298 C242 0.947 . S
C299 C242 1.392 . S
C299 C243 1.419 . S
C299 H281 0.948 . S
C300 C301 1.391 . S
C300 C304 1.391 . S
C300 H342 0.948 . S
C301 C300 1.391 . S
C301 C302 1.391 . S
C302 C301 1.391 . S
C302 H358 0.947 . S
C302 C359 1.392 . S
C303 C304 1.391 . S
C303 C307 1.397 . S
C303 C359 1.419 . S
C304 C300 1.391 . S
C304 C303 1.391 . S
C304 C305 1.399 . S
C305 C304 1.399 . S
C305 C308 1.396 . S
C305 C317 1.453 . S
C305 C318 1.684 . S
H306 C330 0.948 . S
C307 C303 1.397 . S
C307 C308 1.394 . S
C307 C326 1.723 . S
C308 C305 1.396 . S
C308 C307 1.394 . S
C308 C338 1.723 1_655 S
H309 C332 0.947 . S
H310 C333 0.948 . S
H311 C339 0.982 . S
H312 C340 0.979 . S
H313 C340 0.980 . S
H314 C340 0.983 . S
H315 C339 0.979 . S
H316 C339 0.977 . S
C317 C305 1.453 . S
C317 H346 0.982 1_655 S
C317 H347 0.979 . S
C317 H348 0.977 1_655 S
C318 C305 1.684 . S
C318 H343 0.979 . S
C318 H344 0.980 . S
C318 H345 0.983 . S
C319 C320 1.391 1_655 S
C319 C324 1.391 . S
C319 H349 0.948 . S
C320 C319 1.391 1_455 S
C320 C321 1.391 . S
C321 C320 1.391 . S
C321 C322 1.392 . S
C321 H350 0.947 . S
C322 C321 1.392 . S
C322 C323 1.419 . S
C322 H351 0.948 . S
C323 C322 1.419 . S
C323 C324 1.391 1_455 S
C323 C327 1.397 . S
C324 C319 1.391 . S
C324 C323 1.391 1_655 S
C324 C325 1.399 . S
C325 C324 1.399 . S
C325 C326 1.396 . S
C325 C328 1.453 . S
C325 C329 1.684 . S
C326 C307 1.723 . S
C326 C325 1.396 . S
C326 C327 1.394 1_655 S
C327 C323 1.397 . S
C327 C326 1.394 1_455 S
C327 C337 1.723 . S
C328 C325 1.453 . S
C328 H352 0.982 . S
C328 H353 0.979 . S
C328 H354 0.977 . S
C329 C325 1.684 . S
C329 H355 0.979 . S
C329 H356 0.980 . S
C329 H357 0.983 . S
C330 H306 0.948 . S
C330 C331 1.391 . S
C330 C335 1.391 . S
C331 C330 1.391 . S
C331 C332 1.391 . S
C332 H309 0.947 . S
C332 C331 1.391 . S
C332 C333 1.392 . S
C333 H310 0.948 . S
C333 C332 1.392 . S
C333 C334 1.419 . S
C334 C333 1.419 . S
C334 C335 1.391 . S
C334 C338 1.397 . S
C335 C330 1.391 . S
C335 C334 1.391 . S
C335 C336 1.399 . S
C336 C335 1.399 . S
C336 C337 1.396 . S
C336 C339 1.453 . S
C336 C340 1.684 . S
C337 C327 1.723 . S
C337 C336 1.396 . S
C337 C338 1.394 . S
C338 C308 1.723 1_455 S
C338 C334 1.397 . S
C338 C337 1.394 . S
C339 H311 0.982 . S
C339 H315 0.979 . S
C339 H316 0.977 . S
C339 C336 1.453 . S
C340 H312 0.979 . S
C340 H313 0.980 . S
C340 H314 0.983 . S
C340 C336 1.684 . S
H341 C359 0.948 . S
H342 C300 0.948 . S
H343 C318 0.979 . S
H344 C318 0.980 . S
H345 C318 0.983 . S
H346 C317 0.982 1_455 S
H347 C317 0.979 . S
H348 C317 0.977 1_455 S
H349 C319 0.948 . S
H350 C321 0.947 . S
H351 C322 0.948 . S
H352 C328 0.982 . S
H353 C328 0.979 . S
H354 C328 0.977 . S
H355 C329 0.979 . S
H356 C329 0.980 . S
H357 C329 0.983 . S
H358 C302 0.947 . S
C359 C302 1.392 . S
C359 C303 1.419 . S
C359 H341 0.948 . S
C360 C361 1.391 . S
C360 C364 1.391 . S
C360 H402 0.948 . S
C361 C360 1.391 . S
C361 C362 1.391 . S
C362 C361 1.391 . S
C362 H418 0.947 . S
C362 C419 1.392 . S
C363 C364 1.391 . S
C363 C367 1.397 . S
C363 C419 1.419 . S
C364 C360 1.391 . S
C364 C363 1.391 . S
C364 C365 1.399 . S
C365 C364 1.399 . S
C365 C368 1.396 . S
C365 C377 1.453 1_565 S
C365 C378 1.684 . S
H366 C390 0.948 . S
C367 C363 1.397 . S
C367 C368 1.394 . S
C367 C386 1.723 . S
C368 C365 1.396 . S
C368 C367 1.394 . S
C368 C398 1.723 1_565 S
H369 C392 0.947 . S
H370 C393 0.948 . S
H371 C399 0.982 . S
H372 C400 0.979 . S
H373 C400 0.980 . S
H374 C400 0.983 . S
H375 C399 0.979 . S
H376 C399 0.977 . S
C377 C365 1.453 1_545 S
C377 H406 0.982 . S
C377 H407 0.979 1_545 S
C377 H408 0.977 . S
C378 C365 1.684 . S
C378 H403 0.979 . S
C378 H404 0.980 . S
C378 H405 0.983 . S
C379 C380 1.391 . S
C379 C384 1.391 . S
C379 H409 0.948 . S
C380 C379 1.391 . S
C380 C381 1.391 1_565 S
C381 C380 1.391 1_545 S
C381 C382 1.392 . S
C381 H410 0.947 . S
C382 C381 1.392 . S
C382 C383 1.419 . S
C382 H411 0.948 . S
C383 C382 1.419 . S
C383 C384 1.391 1_545 S
C383 C387 1.397 . S
C384 C379 1.391 . S
C384 C383 1.391 1_565 S
C384 C385 1.399 . S
C385 C384 1.399 . S
C385 C386 1.396 . S
C385 C388 1.453 . S
C385 C389 1.684 . S
C386 C367 1.723 . S
C386 C385 1.396 . S
C386 C387 1.394 1_565 S
C387 C383 1.397 . S
C387 C386 1.394 1_545 S
C387 C397 1.723 . S
C388 C385 1.453 . S
C388 H412 0.982 . S
C388 H413 0.979 . S
C388 H414 0.977 . S
C389 C385 1.684 . S
C389 H415 0.979 . S
C389 H416 0.980 . S
C389 H417 0.983 . S
C390 H366 0.948 . S
C390 C391 1.391 . S
C390 C395 1.391 . S
C391 C390 1.391 . S
C391 C392 1.391 . S
C392 H369 0.947 . S
C392 C391 1.391 . S
C392 C393 1.392 . S
C393 H370 0.948 . S
C393 C392 1.392 . S
C393 C394 1.419 . S
C394 C393 1.419 . S
C394 C395 1.391 . S
C394 C398 1.397 . S
C395 C390 1.391 . S
C395 C394 1.391 . S
C395 C396 1.399 . S
C396 C395 1.399 . S
C396 C397 1.396 . S
C396 C399 1.453 . S
C396 C400 1.684 . S
C397 C387 1.723 . S
C397 C396 1.396 . S
C397 C398 1.394 . S
C398 C368 1.723 1_545 S
C398 C394 1.397 . S
C398 C397 1.394 . S
C399 H371 0.982 . S
C399 H375 0.979 . S
C399 H376 0.977 . S
C399 C396 1.453 . S
C400 H372 0.979 . S
C400 H373 0.980 . S
C400 H374 0.983 . S
C400 C396 1.684 . S
H401 C419 0.948 . S
H402 C360 0.948 . S
H403 C378 0.979 . S
H404 C378 0.980 . S
H405 C378 0.983 . S
H406 C377 0.982 . S
H407 C377 0.979 1_565 S
H408 C377 0.977 . S
H409 C379 0.948 . S
H410 C381 0.947 . S
H411 C382 0.948 . S
H412 C388 0.982 . S
H413 C388 0.979 . S
H414 C388 0.977 . S
H415 C389 0.979 . S
H416 C389 0.980 . S
H417 C389 0.983 . S
H418 C362 0.947 . S
C419 C362 1.392 . S
C419 C363 1.419 . S
C419 H401 0.948 . S
C420 C421 1.391 . S
C420 C424 1.391 . S
C420 H462 0.948 . S
C421 C420 1.391 . S
C421 C422 1.391 . S
C422 C421 1.391 . S
C422 H478 0.947 . S
C422 C479 1.392 . S
C423 C424 1.391 . S
C423 C427 1.397 . S
C423 C479 1.419 . S
C424 C420 1.391 . S
C424 C423 1.391 . S
C424 C425 1.399 . S
C425 C424 1.399 . S
C425 C428 1.396 . S
C425 C437 1.453 . S
C425 C438 1.684 . S
H426 C450 0.948 . S
C427 C423 1.397 . S
C427 C428 1.394 . S
C427 C446 1.723 . S
C428 C425 1.396 . S
C428 C427 1.394 . S
C428 C458 1.723 . S
H429 C452 0.947 . S
H430 C453 0.948 . S
H431 C459 0.982 . S
H432 C460 0.979 . S
H433 C460 0.980 . S
H434 C460 0.983 . S
H435 C459 0.979 . S
H436 C459 0.977 . S
C437 C425 1.453 . S
C437 H466 0.982 . S
C437 H467 0.979 . S
C437 H468 0.977 . S
C438 C425 1.684 . S
C438 H463 0.979 . S
C438 H464 0.980 . S
C438 H465 0.983 . S
C439 C440 1.391 . S
C439 C444 1.391 . S
C439 H469 0.948 . S
C440 C439 1.391 . S
C440 C441 1.391 . S
C441 C440 1.391 . S
C441 C442 1.392 . S
C441 H470 0.947 . S
C442 C441 1.392 . S
C442 C443 1.419 . S
C442 H471 0.948 . S
C443 C442 1.419 . S
C443 C444 1.391 . S
C443 C447 1.397 . S
C444 C439 1.391 . S
C444 C443 1.391 . S
C444 C445 1.399 . S
C445 C444 1.399 . S
C445 C446 1.396 . S
C445 C448 1.453 . S
C445 C449 1.684 . S
C446 C427 1.723 . S
C446 C445 1.396 . S
C446 C447 1.394 . S
C447 C443 1.397 . S
C447 C446 1.394 . S
C447 C457 1.723 . S
C448 C445 1.453 . S
C448 H472 0.982 . S
C448 H473 0.979 . S
C448 H474 0.977 . S
C449 C445 1.684 . S
C449 H475 0.979 . S
C449 H476 0.980 . S
C449 H477 0.983 . S
C450 H426 0.948 . S
C450 C451 1.391 . S
C450 C455 1.391 . S
C451 C450 1.391 . S
C451 C452 1.391 . S
C452 H429 0.947 . S
C452 C451 1.391 . S
C452 C453 1.392 . S
C453 H430 0.948 . S
C453 C452 1.392 . S
C453 C454 1.419 . S
C454 C453 1.419 . S
C454 C455 1.391 . S
C454 C458 1.397 . S
C455 C450 1.391 . S
C455 C454 1.391 . S
C455 C456 1.399 . S
C456 C455 1.399 . S
C456 C457 1.396 . S
C456 C459 1.453 . S
C456 C460 1.684 . S
C457 C447 1.723 . S
C457 C456 1.396 . S
C457 C458 1.394 . S
C458 C428 1.723 . S
C458 C454 1.397 . S
C458 C457 1.394 . S
C459 H431 0.982 . S
C459 H435 0.979 . S
C459 H436 0.977 . S
C459 C456 1.453 . S
C460 H432 0.979 . S
C460 H433 0.980 . S
C460 H434 0.983 . S
C460 C456 1.684 . S
H461 C479 0.948 . S
H462 C420 0.948 . S
H463 C438 0.979 . S
H464 C438 0.980 . S
H465 C438 0.983 . S
H466 C437 0.982 . S
H467 C437 0.979 . S
H468 C437 0.977 . S
H469 C439 0.948 . S
H470 C441 0.947 . S
H471 C442 0.948 . S
H472 C448 0.982 . S
H473 C448 0.979 . S
H474 C448 0.977 . S
H475 C449 0.979 . S
H476 C449 0.980 . S
H477 C449 0.983 . S
H478 C422 0.947 . S
C479 C422 1.392 . S
C479 C423 1.419 . S
C479 H461 0.948 . S
H480 C492 0.930 . S
H481 C494 0.930 . S
H482 C495 0.930 . S
H483 C499 0.959 . S
H484 C499 0.959 . S
H485 C499 0.961 . S
H486 C500 0.960 . S
H487 C500 0.961 . S
H488 C500 0.959 . S
H489 C503 0.929 . S
H490 C504 0.931 . S
H491 C506 0.930 . S
C492 H480 0.930 . S
C492 C493 1.399 . S
C492 C497 1.399 . S
C493 C492 1.399 . S
C493 C494 1.376 . S
C494 H481 0.930 . S
C494 C493 1.376 . S
C494 C495 1.388 . S
C495 H482 0.930 . S
C495 C494 1.388 . S
C495 C496 1.390 . S
C496 C495 1.390 . S
C496 C497 1.394 . S
C496 C502 1.465 . S
C497 C492 1.399 . S
C497 C496 1.394 . S
C497 C498 1.516 . S
C498 C497 1.516 . S
C498 C499 1.502 . S
C498 C500 1.561 . S
C498 C501 1.526 . S
C499 H483 0.959 . S
C499 H484 0.959 . S
C499 H485 0.961 . S
C499 C498 1.502 . S
C500 H486 0.960 . S
C500 H487 0.961 . S
C500 H488 0.959 . S
C500 C498 1.561 . S
C501 C498 1.526 . S
C501 C502 1.396 . S
C501 C506 1.390 . S
C502 C496 1.465 . S
C502 C501 1.396 . S
C502 C503 1.399 . S
C503 H489 0.929 . S
C503 C502 1.399 . S
C503 C504 1.385 . S
C504 H490 0.931 . S
C504 C503 1.385 . S
C504 C505 1.389 . S
C505 C504 1.389 . S
C505 C506 1.387 . S
C506 H491 0.930 . S
C506 C501 1.390 . S
C506 C505 1.387 . S
H507 C519 0.930 . S
H508 C521 0.930 . S
H509 C522 0.930 . S
H510 C526 0.959 . S
H511 C526 0.959 . S
H512 C526 0.961 . S
H513 C527 0.960 . S
H514 C527 0.961 . S
H515 C527 0.959 . S
H516 C530 0.929 . S
H517 C531 0.931 . S
H518 C533 0.930 . S
C519 H507 0.930 . S
C519 C520 1.399 . S
C519 C524 1.399 . S
C520 C519 1.399 . S
C520 C521 1.376 . S
C521 H508 0.930 . S
C521 C520 1.376 . S
C521 C522 1.388 . S
C522 H509 0.930 . S
C522 C521 1.388 . S
C522 C523 1.390 . S
C523 C522 1.390 . S
C523 C524 1.394 . S
C523 C529 1.465 . S
C524 C519 1.399 . S
C524 C523 1.394 . S
C524 C525 1.516 . S
C525 C524 1.516 . S
C525 C526 1.502 . S
C525 C527 1.561 . S
C525 C528 1.526 . S
C526 H510 0.959 . S
C526 H511 0.959 . S
C526 H512 0.961 . S
C526 C525 1.502 . S
C527 H513 0.960 . S
C527 H514 0.961 . S
C527 H515 0.959 . S
C527 C525 1.561 . S
C528 C525 1.526 . S
C528 C529 1.396 . S
C528 C533 1.390 . S
C529 C523 1.465 . S
C529 C528 1.396 . S
C529 C530 1.399 . S
C530 H516 0.929 . S
C530 C529 1.399 . S
C530 C531 1.385 . S
C531 H517 0.931 . S
C531 C530 1.385 . S
C531 C532 1.389 . S
C532 C531 1.389 . S
C532 C533 1.387 . S
C533 H518 0.930 . S
C533 C528 1.390 . S
C533 C532 1.387 . S
H534 C546 0.930 . S
H535 C548 0.930 . S
H536 C549 0.930 . S
H537 C553 0.959 . S
H538 C553 0.959 . S
H539 C553 0.961 . S
H540 C554 0.960 . S
H541 C554 0.961 . S
H542 C554 0.959 . S
H543 C557 0.929 . S
H544 C558 0.931 . S
H545 C560 0.930 . S
C546 H534 0.930 . S
C546 C547 1.399 . S
C546 C551 1.399 . S
C547 C546 1.399 . S
C547 C548 1.376 . S
C548 H535 0.930 . S
C548 C547 1.376 . S
C548 C549 1.388 . S
C549 H536 0.930 . S
C549 C548 1.388 . S
C549 C550 1.390 . S
C550 C549 1.390 . S
C550 C551 1.394 . S
C550 C556 1.465 . S
C551 C546 1.399 . S
C551 C550 1.394 . S
C551 C552 1.516 . S
C552 C551 1.516 . S
C552 C553 1.502 . S
C552 C554 1.561 . S
C552 C555 1.526 . S
C553 H537 0.959 . S
C553 H538 0.959 . S
C553 H539 0.961 . S
C553 C552 1.502 . S
C554 H540 0.960 . S
C554 H541 0.961 . S
C554 H542 0.959 . S
C554 C552 1.561 . S
C555 C552 1.526 . S
C555 C556 1.396 . S
C555 C560 1.390 . S
C556 C550 1.465 . S
C556 C555 1.396 . S
C556 C557 1.399 . S
C557 H543 0.929 . S
C557 C556 1.399 . S
C557 C558 1.385 . S
C558 H544 0.931 . S
C558 C557 1.385 . S
C558 C559 1.389 . S
C559 C558 1.389 . S
C559 C560 1.387 . S
C560 H545 0.930 . S
C560 C555 1.390 . S
C560 C559 1.387 . S
H561 C573 0.930 . S
H562 C575 0.930 . S
H563 C576 0.930 . S
H564 C580 0.959 . S
H565 C580 0.959 . S
H566 C580 0.961 . S
H567 C581 0.960 . S
H568 C581 0.961 . S
H569 C581 0.959 . S
H570 C584 0.929 . S
H571 C585 0.931 . S
H572 C587 0.930 . S
C573 H561 0.930 . S
C573 C574 1.399 . S
C573 C578 1.399 . S
C574 C573 1.399 . S
C574 C575 1.376 . S
C575 H562 0.930 . S
C575 C574 1.376 . S
C575 C576 1.388 . S
C576 H563 0.930 . S
C576 C575 1.388 . S
C576 C577 1.390 . S
C577 C576 1.390 . S
C577 C578 1.394 . S
C577 C583 1.465 . S
C578 C573 1.399 . S
C578 C577 1.394 . S
C578 C579 1.516 . S
C579 C578 1.516 . S
C579 C580 1.502 . S
C579 C581 1.561 . S
C579 C582 1.526 . S
C580 H564 0.959 . S
C580 H565 0.959 . S
C580 H566 0.961 . S
C580 C579 1.502 . S
C581 H567 0.960 . S
C581 H568 0.961 . S
C581 H569 0.959 . S
C581 C579 1.561 . S
C582 C579 1.526 . S
C582 C583 1.396 . S
C582 C587 1.390 . S
C583 C577 1.465 . S
C583 C582 1.396 . S
C583 C584 1.399 . S
C584 H570 0.929 . S
C584 C583 1.399 . S
C584 C585 1.385 . S
C585 H571 0.931 . S
C585 C584 1.385 . S
C585 C586 1.389 . S
C586 C585 1.389 . S
C586 C587 1.387 . S
C587 H572 0.930 . S
C587 C582 1.390 . S
C587 C586 1.387 . S
H588 C600 0.930 . S
H589 C602 0.930 . S
H590 C603 0.930 . S
H591 C607 0.959 . S
H592 C607 0.959 . S
H593 C607 0.961 . S
H594 C608 0.960 . S
H595 C608 0.961 . S
H596 C608 0.959 . S
H597 C611 0.929 . S
H598 C612 0.931 . S
H599 C614 0.930 . S
C600 H588 0.930 . S
C600 C601 1.399 . S
C600 C605 1.399 . S
C601 C600 1.399 . S
C601 C602 1.376 . S
C602 H589 0.930 . S
C602 C601 1.376 . S
C602 C603 1.388 . S
C603 H590 0.930 . S
C603 C602 1.388 . S
C603 C604 1.390 . S
C604 C603 1.390 . S
C604 C605 1.394 . S
C604 C610 1.465 . S
C605 C600 1.399 . S
C605 C604 1.394 . S
C605 C606 1.516 . S
C606 C605 1.516 . S
C606 C607 1.502 . S
C606 C608 1.561 . S
C606 C609 1.526 . S
C607 H591 0.959 . S
C607 H592 0.959 . S
C607 H593 0.961 . S
C607 C606 1.502 . S
C608 H594 0.960 . S
C608 H595 0.961 . S
C608 H596 0.959 . S
C608 C606 1.561 . S
C609 C606 1.526 . S
C609 C610 1.396 . S
C609 C614 1.390 . S
C610 C604 1.465 . S
C610 C609 1.396 . S
C610 C611 1.399 . S
C611 H597 0.929 . S
C611 C610 1.399 . S
C611 C612 1.385 . S
C612 H598 0.931 . S
C612 C611 1.385 . S
C612 C613 1.389 . S
C613 C612 1.389 . S
C613 C614 1.387 . S
C614 H599 0.930 . S
C614 C609 1.390 . S
C614 C613 1.387 . S
H615 C627 0.930 . S
H616 C629 0.930 . S
H617 C630 0.930 . S
H618 C634 0.959 . S
H619 C634 0.959 . S
H620 C634 0.961 . S
H621 C635 0.960 . S
H622 C635 0.961 . S
H623 C635 0.959 . S
H624 C638 0.929 . S
H625 C639 0.931 . S
H626 C641 0.930 . S
C627 H615 0.930 . S
C627 C628 1.399 . S
C627 C632 1.399 . S
C628 C627 1.399 . S
C628 C629 1.376 . S
C629 H616 0.930 . S
C629 C628 1.376 . S
C629 C630 1.388 . S
C630 H617 0.930 . S
C630 C629 1.388 . S
C630 C631 1.390 . S
C631 C630 1.390 . S
C631 C632 1.394 . S
C631 C637 1.465 . S
C632 C627 1.399 . S
C632 C631 1.394 . S
C632 C633 1.516 . S
C633 C632 1.516 . S
C633 C634 1.502 . S
C633 C635 1.561 . S
C633 C636 1.526 . S
C634 H618 0.959 . S
C634 H619 0.959 . S
C634 H620 0.961 . S
C634 C633 1.502 . S
C635 H621 0.960 . S
C635 H622 0.961 . S
C635 H623 0.959 . S
C635 C633 1.561 . S
C636 C633 1.526 . S
C636 C637 1.396 . S
C636 C641 1.390 . S
C637 C631 1.465 . S
C637 C636 1.396 . S
C637 C638 1.399 . S
C638 H624 0.929 . S
C638 C637 1.399 . S
C638 C639 1.385 . S
C639 H625 0.931 . S
C639 C638 1.385 . S
C639 C640 1.389 . S
C640 C639 1.389 . S
C640 C641 1.387 . S
C641 H626 0.930 . S
C641 C636 1.390 . S
C641 C640 1.387 . S
H642 C654 0.930 . S
H643 C656 0.930 . S
H644 C657 0.930 . S
H645 C661 0.959 . S
H646 C661 0.959 . S
H647 C661 0.961 . S
H648 C662 0.960 . S
H649 C662 0.961 . S
H650 C662 0.959 . S
H651 C665 0.929 . S
H652 C666 0.931 . S
H653 C668 0.930 . S
C654 H642 0.930 . S
C654 C655 1.399 . S
C654 C659 1.399 . S
C655 C654 1.399 . S
C655 C656 1.376 . S
C656 H643 0.930 . S
C656 C655 1.376 . S
C656 C657 1.388 . S
C657 H644 0.930 . S
C657 C656 1.388 . S
C657 C658 1.390 . S
C658 C657 1.390 . S
C658 C659 1.394 . S
C658 C664 1.465 . S
C659 C654 1.399 . S
C659 C658 1.394 . S
C659 C660 1.516 . S
C660 C659 1.516 . S
C660 C661 1.502 . S
C660 C662 1.561 . S
C660 C663 1.526 . S
C661 H645 0.959 . S
C661 H646 0.959 . S
C661 H647 0.961 . S
C661 C660 1.502 . S
C662 H648 0.960 . S
C662 H649 0.961 . S
C662 H650 0.959 . S
C662 C660 1.561 . S
C663 C660 1.526 . S
C663 C664 1.396 . S
C663 C668 1.390 . S
C664 C658 1.465 . S
C664 C663 1.396 . S
C664 C665 1.399 . S
C665 H651 0.929 . S
C665 C664 1.399 . S
C665 C666 1.385 . S
C666 H652 0.931 . S
C666 C665 1.385 . S
C666 C667 1.389 . S
C667 C666 1.389 . S
C667 C668 1.387 . S
C668 H653 0.930 . S
C668 C663 1.390 . S
C668 C667 1.387 . S
H669 C681 0.930 . S
H670 C683 0.930 . S
H671 C684 0.930 . S
H672 C688 0.959 . S
H673 C688 0.959 . S
H674 C688 0.961 . S
H675 C689 0.960 . S
H676 C689 0.961 . S
H677 C689 0.959 . S
H678 C692 0.929 . S
H679 C693 0.931 . S
H680 C695 0.930 . S
C681 H669 0.930 . S
C681 C682 1.399 . S
C681 C686 1.399 . S
C682 C681 1.399 . S
C682 C683 1.376 . S
C683 H670 0.930 . S
C683 C682 1.376 . S
C683 C684 1.388 . S
C684 H671 0.930 . S
C684 C683 1.388 . S
C684 C685 1.390 . S
C685 C684 1.390 . S
C685 C686 1.394 . S
C685 C691 1.465 . S
C686 C681 1.399 . S
C686 C685 1.394 . S
C686 C687 1.516 . S
C687 C686 1.516 . S
C687 C688 1.502 . S
C687 C689 1.561 . S
C687 C690 1.526 . S
C688 H672 0.959 . S
C688 H673 0.959 . S
C688 H674 0.961 . S
C688 C687 1.502 . S
C689 H675 0.960 . S
C689 H676 0.961 . S
C689 H677 0.959 . S
C689 C687 1.561 . S
C690 C687 1.526 . S
C690 C691 1.396 . S
C690 C695 1.390 . S
C691 C685 1.465 . S
C691 C690 1.396 . S
C691 C692 1.399 . S
C692 H678 0.929 . S
C692 C691 1.399 . S
C692 C693 1.385 . S
C693 H679 0.931 . S
C693 C692 1.385 . S
C693 C694 1.389 . S
C694 C693 1.389 . S
C694 C695 1.387 . S
C695 H680 0.930 . S
C695 C690 1.390 . S
C695 C694 1.387 . S
H696 C708 0.930 . S
H697 C710 0.930 . S
H698 C711 0.930 . S
H699 C715 0.959 . S
H700 C715 0.959 . S
H701 C715 0.961 . S
H702 C716 0.960 . S
H703 C716 0.961 . S
H704 C716 0.959 . S
H705 C719 0.929 . S
H706 C720 0.931 . S
H707 C722 0.930 . S
C708 H696 0.930 . S
C708 C709 1.399 . S
C708 C713 1.399 . S
C709 C708 1.399 . S
C709 C710 1.376 . S
C710 H697 0.930 . S
C710 C709 1.376 . S
C710 C711 1.388 . S
C711 H698 0.930 . S
C711 C710 1.388 . S
C711 C712 1.390 . S
C712 C711 1.390 . S
C712 C713 1.394 . S
C712 C718 1.465 . S
C713 C708 1.399 . S
C713 C712 1.394 . S
C713 C714 1.516 . S
C714 C713 1.516 . S
C714 C715 1.502 . S
C714 C716 1.561 . S
C714 C717 1.526 . S
C715 H699 0.959 . S
C715 H700 0.959 . S
C715 H701 0.961 . S
C715 C714 1.502 . S
C716 H702 0.960 . S
C716 H703 0.961 . S
C716 H704 0.959 . S
C716 C714 1.561 . S
C717 C714 1.526 . S
C717 C718 1.396 . S
C717 C722 1.390 . S
C718 C712 1.465 . S
C718 C717 1.396 . S
C718 C719 1.399 . S
C719 H705 0.929 . S
C719 C718 1.399 . S
C719 C720 1.385 . S
C720 H706 0.931 . S
C720 C719 1.385 . S
C720 C721 1.389 . S
C721 C720 1.389 . S
C721 C722 1.387 . S
C722 H707 0.930 . S
C722 C717 1.390 . S
C722 C721 1.387 . S
H723 C735 0.930 . S
H724 C737 0.930 . S
H725 C738 0.930 . S
H726 C742 0.959 . S
H727 C742 0.959 . S
H728 C742 0.961 . S
H729 C743 0.960 . S
H730 C743 0.961 . S
H731 C743 0.959 . S
H732 C746 0.929 . S
H733 C747 0.931 . S
H734 C749 0.930 . S
C735 H723 0.930 . S
C735 C736 1.399 . S
C735 C740 1.399 . S
C736 C735 1.399 . S
C736 C737 1.376 . S
C737 H724 0.930 . S
C737 C736 1.376 . S
C737 C738 1.388 . S
C738 H725 0.930 . S
C738 C737 1.388 . S
C738 C739 1.390 . S
C739 C738 1.390 . S
C739 C740 1.394 . S
C739 C745 1.465 . S
C740 C735 1.399 . S
C740 C739 1.394 . S
C740 C741 1.516 . S
C741 C740 1.516 . S
C741 C742 1.502 . S
C741 C743 1.561 . S
C741 C744 1.526 . S
C742 H726 0.959 . S
C742 H727 0.959 . S
C742 H728 0.961 . S
C742 C741 1.502 . S
C743 H729 0.960 . S
C743 H730 0.961 . S
C743 H731 0.959 . S
C743 C741 1.561 . S
C744 C741 1.526 . S
C744 C745 1.396 . S
C744 C749 1.390 . S
C745 C739 1.465 . S
C745 C744 1.396 . S
C745 C746 1.399 . S
C746 H732 0.929 . S
C746 C745 1.399 . S
C746 C747 1.385 . S
C747 H733 0.931 . S
C747 C746 1.385 . S
C747 C748 1.389 . S
C748 C747 1.389 . S
C748 C749 1.387 . S
C749 H734 0.930 . S
C749 C744 1.390 . S
C749 C748 1.387 . S
H750 C762 0.930 . S
H751 C764 0.930 . S
H752 C765 0.930 . S
H753 C769 0.959 . S
H754 C769 0.959 . S
H755 C769 0.961 . S
H756 C770 0.960 . S
H757 C770 0.961 . S
H758 C770 0.959 . S
H759 C773 0.929 . S
H760 C774 0.931 . S
H761 C776 0.930 . S
C762 H750 0.930 . S
C762 C763 1.399 . S
C762 C767 1.399 . S
C763 C762 1.399 . S
C763 C764 1.376 . S
C764 H751 0.930 . S
C764 C763 1.376 . S
C764 C765 1.388 . S
C765 H752 0.930 . S
C765 C764 1.388 . S
C765 C766 1.390 . S
C766 C765 1.390 . S
C766 C767 1.394 . S
C766 C772 1.465 . S
C767 C762 1.399 . S
C767 C766 1.394 . S
C767 C768 1.516 . S
C768 C767 1.516 . S
C768 C769 1.502 . S
C768 C770 1.561 . S
C768 C771 1.526 . S
C769 H753 0.959 . S
C769 H754 0.959 . S
C769 H755 0.961 . S
C769 C768 1.502 . S
C770 H756 0.960 . S
C770 H757 0.961 . S
C770 H758 0.959 . S
C770 C768 1.561 . S
C771 C768 1.526 . S
C771 C772 1.396 . S
C771 C776 1.390 . S
C772 C766 1.465 . S
C772 C771 1.396 . S
C772 C773 1.399 . S
C773 H759 0.929 . S
C773 C772 1.399 . S
C773 C774 1.385 . S
C774 H760 0.931 . S
C774 C773 1.385 . S
C774 C775 1.389 . S
C775 C774 1.389 . S
C775 C776 1.387 . S
C776 H761 0.930 . S
C776 C771 1.390 . S
C776 C775 1.387 . S
H777 C789 0.930 . S
H778 C791 0.930 . S
H779 C792 0.930 . S
H780 C796 0.959 . S
H781 C796 0.959 . S
H782 C796 0.961 . S
H783 C797 0.960 . S
H784 C797 0.961 . S
H785 C797 0.959 . S
H786 C800 0.929 . S
H787 C801 0.931 . S
H788 C803 0.930 . S
C789 H777 0.930 . S
C789 C790 1.399 . S
C789 C794 1.399 . S
C790 C789 1.399 . S
C790 C791 1.376 . S
C791 H778 0.930 . S
C791 C790 1.376 . S
C791 C792 1.388 . S
C792 H779 0.930 . S
C792 C791 1.388 . S
C792 C793 1.390 . S
C793 C792 1.390 . S
C793 C794 1.394 . S
C793 C799 1.465 . S
C794 C789 1.399 . S
C794 C793 1.394 . S
C794 C795 1.516 . S
C795 C794 1.516 . S
C795 C796 1.502 . S
C795 C797 1.561 . S
C795 C798 1.526 . S
C796 H780 0.959 . S
C796 H781 0.959 . S
C796 H782 0.961 . S
C796 C795 1.502 . S
C797 H783 0.960 . S
C797 H784 0.961 . S
C797 H785 0.959 . S
C797 C795 1.561 . S
C798 C795 1.526 . S
C798 C799 1.396 . S
C798 C803 1.390 . S
C799 C793 1.465 . S
C799 C798 1.396 . S
C799 C800 1.399 . S
C800 H786 0.929 . S
C800 C799 1.399 . S
C800 C801 1.385 . S
C801 H787 0.931 . S
C801 C800 1.385 . S
C801 C802 1.389 . S
C802 C801 1.389 . S
C802 C803 1.387 . S
C803 H788 0.930 . S
C803 C798 1.390 . S
C803 C802 1.387 . S
H804 C816 0.930 . S
H805 C818 0.930 . S
H806 C819 0.929 . S
H807 C823 0.959 . S
H808 C823 0.959 . S
H809 C823 0.961 . S
H810 C824 0.960 . S
H811 C824 0.961 . S
H812 C824 0.959 1_655 S
H813 C827 0.929 . S
H814 C828 0.931 1_556 S
H815 C830 0.930 . S
C816 H804 0.930 . S
C816 C817 1.399 . S
C816 C821 1.399 . S
C817 C816 1.399 . S
C817 C818 1.376 . S
C818 H805 0.930 . S
C818 C817 1.376 . S
C818 C819 1.388 . S
C819 H806 0.929 . S
C819 C818 1.388 . S
C819 C820 1.390 . S
C820 C819 1.390 . S
C820 C821 1.394 . S
C820 C826 1.465 . S
C821 C816 1.399 . S
C821 C820 1.394 . S
C821 C822 1.516 . S
C822 C821 1.516 . S
C822 C823 1.502 . S
C822 C824 1.561 . S
C822 C825 1.526 . S
C823 H807 0.959 . S
C823 H808 0.959 . S
C823 H809 0.961 . S
C823 C822 1.502 . S
C824 H810 0.960 . S
C824 H811 0.961 . S
C824 H812 0.959 1_455 S
C824 C822 1.561 . S
C825 C822 1.526 . S
C825 C826 1.396 . S
C825 C830 1.390 . S
C826 C820 1.465 . S
C826 C825 1.396 . S
C826 C827 1.399 . S
C827 H813 0.929 . S
C827 C826 1.399 . S
C827 C828 1.385 . S
C828 H814 0.931 1_554 S
C828 C827 1.385 . S
C828 C829 1.387 1_554 S
C829 C828 1.387 1_556 S
C829 C830 1.382 1_556 S
C830 H815 0.930 . S
C830 C825 1.390 . S
C830 C829 1.382 1_554 S
H831 C843 0.930 . S
H832 C845 0.930 . S
H833 C846 0.930 . S
H834 C850 0.959 . S
H835 C850 0.959 . S
H836 C850 0.961 . S
H837 C851 0.960 . S
H838 C851 0.961 . S
H839 C851 0.959 . S
H840 C854 0.929 . S
H841 C855 0.931 . S
H842 C857 0.930 . S
C843 H831 0.930 . S
C843 C844 1.399 . S
C843 C848 1.399 . S
C844 C843 1.399 . S
C844 C845 1.376 1_545 S
C845 H832 0.930 . S
C845 C844 1.376 1_565 S
C845 C846 1.388 . S
C846 H833 0.930 . S
C846 C845 1.388 . S
C846 C847 1.392 . S
C847 C846 1.392 . S
C847 C848 1.391 1_565 S
C847 C853 1.465 1_565 S
C848 C843 1.399 . S
C848 C847 1.391 1_545 S
C848 C849 1.516 . S
C849 C848 1.516 . S
C849 C850 1.502 . S
C849 C851 1.561 . S
C849 C852 1.526 . S
C850 H834 0.959 . S
C850 H835 0.959 . S
C850 H836 0.961 . S
C850 C849 1.502 . S
C851 H837 0.960 . S
C851 H838 0.961 . S
C851 H839 0.959 . S
C851 C849 1.561 . S
C852 C849 1.526 . S
C852 C853 1.396 . S
C852 C857 1.390 . S
C853 C847 1.465 1_545 S
C853 C852 1.396 . S
C853 C854 1.399 1_545 S
C854 H840 0.929 . S
C854 C853 1.399 1_565 S
C854 C855 1.385 . S
C855 H841 0.931 . S
C855 C854 1.385 . S
C855 C856 1.389 1_565 S
C856 C855 1.389 1_545 S
C856 C857 1.387 . S
C857 H842 0.930 . S
C857 C852 1.390 . S
C857 C856 1.387 . S
H858 C870 0.930 . S
H859 C872 0.930 . S
H860 C873 0.930 . S
H861 C877 0.959 . S
H862 C877 0.959 . S
H863 C877 0.961 . S
H864 C878 0.960 . S
H865 C878 0.961 . S
H866 C878 0.959 . S
H867 C881 0.929 . S
H868 C882 0.931 . S
H869 C884 0.930 . S
C870 H858 0.930 . S
C870 C871 1.399 . S
C870 C875 1.399 . S
C871 C870 1.399 . S
C871 C872 1.376 . S
C872 H859 0.930 . S
C872 C871 1.376 . S
C872 C873 1.388 . S
C873 H860 0.930 . S
C873 C872 1.388 . S
C873 C874 1.390 . S
C874 C873 1.390 . S
C874 C875 1.394 . S
C874 C880 1.465 . S
C875 C870 1.399 . S
C875 C874 1.394 . S
C875 C876 1.516 . S
C876 C875 1.516 . S
C876 C877 1.502 . S
C876 C878 1.561 . S
C876 C879 1.526 . S
C877 H861 0.959 . S
C877 H862 0.959 . S
C877 H863 0.961 . S
C877 C876 1.502 . S
C878 H864 0.960 . S
C878 H865 0.961 . S
C878 H866 0.959 . S
C878 C876 1.561 . S
C879 C876 1.526 . S
C879 C880 1.396 . S
C879 C884 1.390 . S
C880 C874 1.465 . S
C880 C879 1.396 . S
C880 C881 1.399 . S
C881 H867 0.929 . S
C881 C880 1.399 . S
C881 C882 1.385 . S
C882 H868 0.931 . S
C882 C881 1.385 . S
C882 C883 1.389 . S
C883 C882 1.389 . S
C883 C884 1.387 . S
C884 H869 0.930 . S
C884 C879 1.390 . S
C884 C883 1.387 . S
H885 C897 0.930 . S
H886 C899 0.930 . S
H887 C900 0.930 . S
H888 C904 0.959 . S
H889 C904 0.959 . S
H890 C904 0.961 . S
H891 C905 0.960 . S
H892 C905 0.961 . S
H893 C905 0.959 . S
H894 C908 0.929 . S
H895 C909 0.931 . S
H896 C911 0.930 . S
C897 H885 0.930 . S
C897 C898 1.399 1_565 S
C897 C902 1.399 . S
C898 C897 1.399 1_545 S
C898 C899 1.376 . S
C899 H886 0.930 . S
C899 C898 1.376 . S
C899 C900 1.388 . S
C900 H887 0.930 . S
C900 C899 1.388 . S
C900 C901 1.390 . S
C901 C900 1.390 . S
C901 C902 1.394 1_545 S
C901 C907 1.465 . S
C902 C897 1.399 . S
C902 C901 1.394 1_565 S
C902 C903 1.516 . S
C903 C902 1.516 . S
C903 C904 1.502 . S
C903 C905 1.561 . S
C903 C906 1.526 . S
C904 H888 0.959 . S
C904 H889 0.959 . S
C904 H890 0.961 . S
C904 C903 1.502 . S
C905 H891 0.960 . S
C905 H892 0.961 . S
C905 H893 0.959 . S
C905 C903 1.561 . S
C906 C903 1.526 . S
C906 C907 1.396 1_565 S
C906 C911 1.390 . S
C907 C901 1.465 . S
C907 C906 1.396 1_545 S
C907 C908 1.399 . S
C908 H894 0.929 . S
C908 C907 1.399 . S
C908 C909 1.385 . S
C909 H895 0.931 . S
C909 C908 1.385 . S
C909 C910 1.382 1_545 S
C910 C909 1.382 1_565 S
C910 C911 1.392 . S
C911 H896 0.930 . S
C911 C906 1.390 . S
C911 C910 1.392 . S
H912 C924 0.930 . S
H913 C926 0.930 . S
H914 C927 0.930 . S
H915 C931 0.959 . S
H916 C931 0.959 . S
H917 C931 0.961 . S
H918 C932 0.960 . S
H919 C932 0.961 . S
H920 C932 0.959 . S
H921 C935 0.929 . S
H922 C936 0.931 . S
H923 C938 0.930 . S
C924 H912 0.930 . S
C924 C925 1.399 . S
C924 C929 1.399 . S
C925 C924 1.399 . S
C925 C926 1.376 . S
C926 H913 0.930 . S
C926 C925 1.376 . S
C926 C927 1.388 . S
C927 H914 0.930 . S
C927 C926 1.388 . S
C927 C928 1.390 . S
C928 C927 1.390 . S
C928 C929 1.394 . S
C928 C934 1.465 . S
C929 C924 1.399 . S
C929 C928 1.394 . S
C929 C930 1.516 . S
C930 C929 1.516 . S
C930 C931 1.502 . S
C930 C932 1.561 . S
C930 C933 1.526 . S
C931 H915 0.959 . S
C931 H916 0.959 . S
C931 H917 0.961 . S
C931 C930 1.502 . S
C932 H918 0.960 . S
C932 H919 0.961 . S
C932 H920 0.959 . S
C932 C930 1.561 . S
C933 C930 1.526 . S
C933 C934 1.396 . S
C933 C938 1.390 . S
C934 C928 1.465 . S
C934 C933 1.396 . S
C934 C935 1.399 . S
C935 H921 0.929 . S
C935 C934 1.399 . S
C935 C936 1.385 . S
C936 H922 0.931 . S
C936 C935 1.385 . S
C936 C937 1.389 . S
C937 C936 1.389 . S
C937 C938 1.387 . S
C938 H923 0.930 . S
C938 C933 1.390 . S
C938 C937 1.387 . S
H939 C951 0.930 . S
H940 C953 0.930 . S
H941 C954 0.930 . S
H942 C958 0.959 . S
H943 C958 0.959 . S
H944 C958 0.961 . S
H945 C959 0.960 . S
H946 C959 0.961 . S
H947 C959 0.959 1_455 S
H948 C962 0.929 . S
H949 C963 0.931 . S
H950 C965 0.930 . S
C951 H939 0.930 . S
C951 C952 1.399 1_655 S
C951 C956 1.399 . S
C952 C951 1.399 1_455 S
C952 C953 1.376 . S
C953 H940 0.930 . S
C953 C952 1.376 . S
C953 C954 1.388 . S
C954 H941 0.930 . S
C954 C953 1.388 . S
C954 C955 1.390 . S
C955 C954 1.390 . S
C955 C956 1.394 1_455 S
C955 C961 1.465 . S
C956 C951 1.399 . S
C956 C955 1.394 1_655 S
C956 C957 1.516 . S
C957 C956 1.516 . S
C957 C958 1.502 . S
C957 C959 1.561 . S
C957 C960 1.526 . S
C958 H942 0.959 . S
C958 H943 0.959 . S
C958 H944 0.961 . S
C958 C957 1.502 . S
C959 H945 0.960 . S
C959 H946 0.961 . S
C959 H947 0.959 1_655 S
C959 C957 1.561 . S
C960 C957 1.526 . S
C960 C961 1.396 1_655 S
C960 C965 1.390 . S
C961 C955 1.465 . S
C961 C960 1.396 1_455 S
C961 C962 1.399 . S
C962 H948 0.929 . S
C962 C961 1.399 . S
C962 C963 1.385 . S
C963 H949 0.931 . S
C963 C962 1.385 . S
C963 C964 1.389 . S
C964 C963 1.389 . S
C964 C965 1.387 1_455 S
C965 H950 0.930 . S
C965 C960 1.390 . S
C965 C964 1.387 1_655 S
C493 C6 0.658 . S
C505 C451 0.521 . S
C520 C59 1.915 . S
C532 C301 1.747 . S
C547 C86 1.212 . S
C559 C361 1.174 . S
C574 C15 0.343 . S
C586 C421 0.287 . S
C613 C331 2.015 . S
C601 C50 2.001 . S
C640 C391 1.308 . S
C628 C95 1.278 . S
C655 C46 1.225 . S
C667 C181 1.197 . S
C682 C99 3.102 . S
C694 C271 3.116 . S
C709 C10 2.058 . S
C721 C151 2.080 . S
C748 C211 1.292 . S
C736 C55 1.260 . S
C775 C241 2.865 . S
C763 C90 3.003 . S
C790 C19 1.917 . S
C802 C121 1.785 . S
C829 C260 1.734 . S
C817 C18 1.666 . S
C844 C49 1.279 . S
C856 C140 1.335 . S
C871 C98 1.470 . S
C883 C200 1.499 . S
C910 C380 1.448 . S
C898 C58 1.447 . S
C937 C440 1.054 1_556 S
C925 C89 1.085 . S
C952 C9 1.307 . S
C964 C320 1.303 . S
