# Generated by pormake.
# Topology nom, (4,4)-cn, num edge types: 1
# Building blocks:
#     Node 0, Type 0, BuildingBlock: NAWXER_clean_linker_0, # of connection points: 4
#     Node 1, Type 0, BuildingBlock: NAWXER_clean_linker_0, # of connection points: 4
#     Node 2, Type 0, BuildingBlock: NAWXER_clean_linker_0, # of connection points: 4
#     Node 3, Type 0, BuildingBlock: NAWXER_clean_linker_0, # of connection points: 4
#     Node 4, Type 0, BuildingBlock: NAWXER_clean_linker_0, # of connection points: 4
#     Node 5, Type 0, BuildingBlock: NAWXER_clean_linker_0, # of connection points: 4
#     Node 6, Type 1, BuildingBlock: CEKHIL_clean_sbu_0, # of connection points: 4
#     Node 7, Type 1, BuildingBlock: CEKHIL_clean_sbu_0, # of connection points: 4
#     Node 8, Type 1, BuildingBlock: CEKHIL_clean_sbu_0, # of connection points: 4
#     Node 9, Type 1, BuildingBlock: CEKHIL_clean_sbu_0, # of connection points: 4
#     Node 10, Type 1, BuildingBlock: CEKHIL_clean_sbu_0, # of connection points: 4
#     Node 11, Type 1, BuildingBlock: CEKHIL_clean_sbu_0, # of connection points: 4
#     Edge 12, Type (0, 1), BuildingBlock: AJUNOK_clean_linker_0, # of connection points: 2
#     Edge 13, Type (0, 1), BuildingBlock: AJUNOK_clean_linker_0, # of connection points: 2
#     Edge 14, Type (0, 1), BuildingBlock: AJUNOK_clean_linker_0, # of connection points: 2
#     Edge 15, Type (0, 1), BuildingBlock: AJUNOK_clean_linker_0, # of connection points: 2
#     Edge 16, Type (0, 1), BuildingBlock: AJUNOK_clean_linker_0, # of connection points: 2
#     Edge 17, Type (0, 1), BuildingBlock: AJUNOK_clean_linker_0, # of connection points: 2
#     Edge 18, Type (0, 1), BuildingBlock: AJUNOK_clean_linker_0, # of connection points: 2
#     Edge 19, Type (0, 1), BuildingBlock: AJUNOK_clean_linker_0, # of connection points: 2
#     Edge 20, Type (0, 1), BuildingBlock: AJUNOK_clean_linker_0, # of connection points: 2
#     Edge 21, Type (0, 1), BuildingBlock: AJUNOK_clean_linker_0, # of connection points: 2
#     Edge 22, Type (0, 1), BuildingBlock: AJUNOK_clean_linker_0, # of connection points: 2
#     Edge 23, Type (0, 1), BuildingBlock: AJUNOK_clean_linker_0, # of connection points: 2
#     Edge 24, Type (0, 1), BuildingBlock: AJUNOK_clean_linker_0, # of connection points: 2
#     Edge 25, Type (0, 1), BuildingBlock: AJUNOK_clean_linker_0, # of connection points: 2
#     Edge 26, Type (0, 1), BuildingBlock: AJUNOK_clean_linker_0, # of connection points: 2
#     Edge 27, Type (0, 1), BuildingBlock: AJUNOK_clean_linker_0, # of connection points: 2
#     Edge 28, Type (0, 1), BuildingBlock: AJUNOK_clean_linker_0, # of connection points: 2
#     Edge 29, Type (0, 1), BuildingBlock: AJUNOK_clean_linker_0, # of connection points: 2
#     Edge 30, Type (0, 1), BuildingBlock: AJUNOK_clean_linker_0, # of connection points: 2
#     Edge 31, Type (0, 1), BuildingBlock: AJUNOK_clean_linker_0, # of connection points: 2
#     Edge 32, Type (0, 1), BuildingBlock: AJUNOK_clean_linker_0, # of connection points: 2
#     Edge 33, Type (0, 1), BuildingBlock: AJUNOK_clean_linker_0, # of connection points: 2
#     Edge 34, Type (0, 1), BuildingBlock: AJUNOK_clean_linker_0, # of connection points: 2
#     Edge 35, Type (0, 1), BuildingBlock: AJUNOK_clean_linker_0, # of connection points: 2
# Relax obj value: 0.006
# Max RMSD: 0.110
# Mean RMSD: 0.075
data_MOF--net-nom--node1-CEKHIL_clean_sbu_0--node2-NAWXER_clean_linker_0--edge1-AJUNOK_clean_linker_0
_symmetry_space_group_name_H-M    P1
_symmetry_Int_Tables_number       1
_symmetry_cell_setting            triclinic
loop_
_symmetry_equiv_pos_as_xyz
'x, y, z'
_cell_length_a     41.083374
_cell_length_b     40.585113
_cell_length_c     44.789395
_cell_angle_alpha  90.069578
_cell_angle_beta   89.859196
_cell_angle_gamma 121.23287
loop_
_atom_site_label
_atom_site_type_symbol
_atom_site_fract_x
_atom_site_fract_y
_atom_site_fract_z
_atom_type_partial_charge
C0 C 0.8773 0.51806 0.35195 0.0
C1 C 0.85876 0.48681 0.37172 0.0
C2 C 0.91566 0.53347 0.34473 0.0
C3 C 0.93623 0.51797 0.35722 0.0
C4 C 0.87946 0.47162 0.38451 0.0
C5 C 0.91802 0.4874 0.3776 0.0
C6 C 0.97662 0.53368 0.34888 0.0
C7 C 0.90981 0.46509 0.26937 0.0
C8 C 0.91521 0.48625 0.24312 0.0
C9 C 0.93299 0.48247 0.2942 0.0
C10 C 0.962 0.52151 0.29343 0.0
C11 C 0.94382 0.52546 0.2424 0.0
C12 C 0.96722 0.54287 0.2673 0.0
C13 C 0.98881 0.53883 0.31884 0.0
C14 C 0.15905 0.60384 0.32926 0.0
C15 C 0.17102 0.63065 0.30571 0.0
C16 C 0.12094 0.58344 0.33846 0.0
C17 C 0.09426 0.59088 0.32545 0.0
C18 C 0.14392 0.63695 0.29204 0.0
C19 C 0.10616 0.61749 0.30188 0.0
C20 C 0.05362 0.57033 0.33492 0.0
C21 C 0.12257 0.62289 0.41873 0.0
C22 C 0.11797 0.59496 0.43969 0.0
C23 C 0.09749 0.61287 0.39465 0.0
C24 C 0.06751 0.57463 0.39088 0.0
C25 C 0.0874 0.5569 0.43623 0.0
C26 C 0.06236 0.54689 0.41213 0.0
C27 C 0.04121 0.56316 0.3651 0.0
H28 H 0.86189 0.53006 0.34162 0.0
H29 H 0.92925 0.55744 0.32929 0.0
H30 H 0.86575 0.44755 0.39986 0.0
H31 H 0.93337 0.47514 0.38759 0.0
H32 H 0.8881 0.43477 0.27045 0.0
H33 H 0.92901 0.46494 0.31366 0.0
H34 H 0.94898 0.54223 0.22226 0.0
H35 H 0.98974 0.57287 0.26602 0.0
H36 H 0.17908 0.59869 0.34085 0.0
H37 H 0.11252 0.56188 0.35574 0.0
H38 H 0.1518 0.65682 0.27352 0.0
H39 H 0.08617 0.62339 0.29102 0.0
H40 H 0.14569 0.65251 0.42091 0.0
H41 H 0.10162 0.63495 0.37888 0.0
H42 H 0.08245 0.53497 0.45242 0.0
H43 H 0.03914 0.51731 0.40988 0.0
N44 N 1.00318 0.54531 0.37085 0.0
N45 N 0.02677 0.55752 0.31308 0.0
C46 C 0.38425 0.86122 0.51002 0.0
C47 C 0.40086 0.84525 0.52758 0.0
C48 C 0.40568 0.89964 0.50085 0.0
C49 C 0.44402 0.92286 0.50932 0.0
C50 C 0.43929 0.86828 0.53583 0.0
C51 C 0.46059 0.90695 0.52704 0.0
C52 C 0.46563 0.96436 0.5017 0.0
C53 C 0.45892 0.90551 0.41501 0.0
C54 C 0.43548 0.90765 0.39324 0.0
C55 C 0.46831 0.92769 0.44106 0.0
C56 C 0.45446 0.9525 0.44593 0.0
C57 C 0.42098 0.93189 0.39855 0.0
C58 C 0.43084 0.95448 0.42439 0.0
C59 C 0.46651 0.97798 0.47253 0.0
C60 C 0.56551 0.15003 0.48309 0.0
C61 C 0.54236 0.16169 0.46931 0.0
C62 C 0.55077 0.11138 0.49062 0.0
C63 C 0.51262 0.08362 0.48445 0.0
C64 C 0.50419 0.13376 0.46315 0.0
C65 C 0.48956 0.09509 0.47048 0.0
C66 C 0.49699 0.04237 0.49115 0.0
C67 C 0.51808 0.09984 0.58253 0.0
C68 C 0.55092 0.10337 0.59559 0.0
C69 C 0.50123 0.07615 0.55757 0.0
C70 C 0.51644 0.05496 0.54562 0.0
C71 C 0.56609 0.08223 0.58319 0.0
C72 C 0.54875 0.05795 0.55875 0.0
C73 C 0.4985 0.02894 0.51987 0.0
H74 H 0.35462 0.84399 0.50353 0.0
H75 H 0.39199 0.91151 0.48779 0.0
H76 H 0.45252 0.85659 0.54965 0.0
H77 H 0.48996 0.92447 0.53413 0.0
H78 H 0.4707 0.88731 0.41162 0.0
H79 H 0.48723 0.92618 0.45706 0.0
H80 H 0.40185 0.93335 0.38277 0.0
H81 H 0.41977 0.97334 0.42766 0.0
H82 H 0.59533 0.17057 0.48729 0.0
H83 H 0.56944 0.10305 0.50059 0.0
H84 H 0.48564 0.14182 0.45256 0.0
H85 H 0.46013 0.07409 0.46533 0.0
H86 H 0.5049 0.11472 0.5919 0.0
H87 H 0.47596 0.0738 0.5479 0.0
H88 H 0.59157 0.08452 0.59232 0.0
H89 H 0.5609 0.04184 0.5498 0.0
N90 N 0.48238 0.9904 0.52417 0.0
N91 N 0.48141 0.01643 0.46846 0.0
C92 C 0.54406 0.43804 0.5774 0.0
C93 C 0.518 0.41303 0.55588 0.0
C94 C 0.53124 0.44551 0.60409 0.0
C95 C 0.49209 0.42835 0.60976 0.0
C96 C 0.47877 0.39514 0.56209 0.0
C97 C 0.466 0.40329 0.58848 0.0
C98 C 0.4785 0.43846 0.63695 0.0
C99 C 0.51797 0.36002 0.66847 0.0
C100 C 0.54456 0.37353 0.69176 0.0
C101 C 0.50081 0.3806 0.6598 0.0
C102 C 0.5109 0.4159 0.67354 0.0
C103 C 0.55439 0.4084 0.70583 0.0
C104 C 0.53782 0.42942 0.69676 0.0
C105 C 0.49097 0.43684 0.66606 0.0
C106 C 0.41557 0.49613 0.7472 0.0
C107 C 0.44779 0.52637 0.76147 0.0
C108 C 0.41964 0.478 0.72199 0.0
C109 C 0.456 0.48969 0.71073 0.0
C110 C 0.48401 0.53852 0.74947 0.0
C111 C 0.48807 0.51998 0.72473 0.0
C112 C 0.46139 0.47024 0.68487 0.0
C113 C 0.41319 0.53981 0.64712 0.0
C114 C 0.37679 0.51641 0.63457 0.0
C115 C 0.43561 0.52435 0.65468 0.0
C116 C 0.42212 0.48516 0.64984 0.0
C117 C 0.36322 0.47702 0.63018 0.0
C118 C 0.38587 0.4617 0.63739 0.0
C119 C 0.44625 0.46881 0.65633 0.0
H120 H 0.57442 0.45246 0.57338 0.0
H121 H 0.55193 0.46544 0.62001 0.0
H122 H 0.45781 0.37461 0.54665 0.0
H123 H 0.43567 0.38969 0.59243 0.0
H124 H 0.50963 0.33292 0.65758 0.0
H125 H 0.47879 0.36809 0.64298 0.0
H126 H 0.57491 0.41936 0.72385 0.0
H127 H 0.54586 0.45616 0.70812 0.0
H128 H 0.38727 0.4861 0.75579 0.0
H129 H 0.3945 0.45448 0.71161 0.0
H130 H 0.50937 0.56265 0.75905 0.0
H131 H 0.51635 0.52969 0.71622 0.0
H132 H 0.42468 0.57031 0.65057 0.0
H133 H 0.46378 0.54316 0.66376 0.0
H134 H 0.33499 0.45792 0.62134 0.0
H135 H 0.37494 0.43137 0.63347 0.0
N136 N 0.45581 0.45345 0.63336 0.0
N137 N 0.48267 0.45373 0.68872 0.0
C138 C 0.87831 0.37274 0.82681 0.0
C139 C 0.86356 0.38951 0.80803 0.0
C140 C 0.91609 0.3941 0.83642 0.0
C141 C 0.93984 0.43255 0.82727 0.0
C142 C 0.8869 0.42824 0.79955 0.0
C143 C 0.92492 0.44946 0.80879 0.0
C144 C 0.98098 0.45358 0.83444 0.0
C145 C 0.92572 0.45321 0.92093 0.0
C146 C 0.92235 0.42504 0.94111 0.0
C147 C 0.94882 0.46262 0.89557 0.0
C148 C 0.96977 0.44475 0.89012 0.0
C149 C 0.94351 0.40724 0.9355 0.0
C150 C 0.96732 0.41735 0.91046 0.0
C151 C 0.99482 0.45557 0.86355 0.0
C152 C 0.16617 0.55275 0.84653 0.0
C153 C 0.17707 0.53404 0.86709 0.0
C154 C 0.12787 0.53756 0.83942 0.0
C155 C 0.09948 0.50212 0.85142 0.0
C156 C 0.14862 0.49888 0.87946 0.0
C157 C 0.11033 0.48313 0.8717 0.0
C158 C 0.05839 0.48552 0.84446 0.0
C159 C 0.11333 0.50354 0.75191 0.0
C160 C 0.11312 0.53371 0.73655 0.0
C161 C 0.09147 0.48784 0.77788 0.0
C162 C 0.06897 0.50199 0.78881 0.0
C163 C 0.09111 0.54819 0.74813 0.0
C164 C 0.0688 0.53206 0.77362 0.0
C165 C 0.04446 0.48524 0.81545 0.0
H166 H 0.86075 0.34289 0.83359 0.0
H167 H 0.92713 0.3801 0.85009 0.0
H168 H 0.87608 0.44163 0.78494 0.0
H169 H 0.94283 0.47892 0.80122 0.0
H170 H 0.91113 0.46861 0.92496 0.0
H171 H 0.95091 0.48445 0.88044 0.0
H172 H 0.94152 0.38527 0.95039 0.0
H173 H 0.98334 0.40332 0.90672 0.0
H174 H 0.18722 0.57935 0.83589 0.0
H175 H 0.12067 0.55409 0.8249 0.0
H176 H 0.15586 0.48378 0.89554 0.0
H177 H 0.0891 0.45604 0.88167 0.0
H178 H 0.13 0.49175 0.74365 0.0
H179 H 0.09174 0.46442 0.78921 0.0
H180 H 0.09135 0.57236 0.73768 0.0
H181 H 0.05182 0.54354 0.78182 0.0
N182 N 0.00634 0.46906 0.81162 0.0
N183 N 0.03287 0.47085 0.86744 0.0
C184 C 0.51442 0.86956 0.98568 0.0
C185 C 0.49023 0.85473 0.96089 0.0
C186 C 0.52879 0.90761 0.99478 0.0
C187 C 0.51814 0.93112 0.97989 0.0
C188 C 0.48031 0.87838 0.94549 0.0
C189 C 0.49415 0.91624 0.95491 0.0
C190 C 0.53379 0.97183 0.98901 0.0
C191 C 0.46724 0.90139 0.06859 0.0
C192 C 0.48723 0.90976 0.09559 0.0
C193 C 0.48382 0.9252 0.04369 0.0
C194 C 0.52127 0.95716 0.04503 0.0
C195 C 0.52434 0.94186 0.09721 0.0
C196 C 0.54124 0.96526 0.07214 0.0
C197 C 0.53868 0.98395 0.01922 0.0
C198 C 0.60789 0.15535 0.01496 0.0
C199 C 0.64119 0.16745 0.03171 0.0
C200 C 0.58577 0.1171 0.00524 0.0
C201 C 0.59656 0.09039 0.01224 0.0
C202 C 0.65225 0.14068 0.03792 0.0
C203 C 0.62985 0.10244 0.02868 0.0
C204 C 0.57325 0.04962 1.00315 0.0
C205 C 0.62991 0.1188 0.91996 0.0
C206 C 0.60456 0.11371 0.89686 0.0
C207 C 0.6174 0.09441 0.94481 0.0
C208 C 0.57905 0.06489 0.94748 0.0
C209 C 0.56611 0.08445 0.89967 0.0
C210 C 0.55356 0.06012 0.92463 0.0
C211 C 0.56565 0.03763 0.97306 0.0
H212 H 0.52278 0.85192 0.99763 0.0
H213 H 0.54854 0.91869 0.01329 0.0
H214 H 0.4616 0.86742 0.92633 0.0
H215 H 0.48593 0.93386 0.94276 0.0
H216 H 0.43828 0.87716 0.06708 0.0
H217 H 0.46695 0.91902 0.02365 0.0
H218 H 0.54009 0.94898 0.11795 0.0
H219 H 0.5699 0.98995 0.07402 0.0
H220 H 0.59858 0.17525 0.00985 0.0
H221 H 0.56001 0.10824 0.99268 0.0
H222 H 0.67835 0.14928 0.04988 0.0
H223 H 0.63878 0.08228 0.03406 0.0
H224 H 0.65963 0.14135 0.91858 0.0
H225 H 0.63799 0.09817 0.96158 0.0
H226 H 0.546 0.07969 0.88214 0.0
H227 H 0.52391 0.03736 0.92604 0.0
N228 N 0.54658 0.99915 0.96719 0.0
N229 N 0.55909 0.02242 0.02498 0.0
C230 C 0.51917 0.65171 0.17229 0.0
C231 C 0.48672 0.63481 0.19065 0.0
C232 C 0.53626 0.63091 0.16393 0.0
C233 C 0.52134 0.59287 0.17391 0.0
C234 C 0.47203 0.59692 0.20089 0.0
C235 C 0.4894 0.57627 0.1928 0.0
C236 C 0.54021 0.57122 0.16591 0.0
C237 C 0.4865 0.57947 0.0815 0.0
C238 C 0.51217 0.60169 0.05877 0.0
C239 C 0.49916 0.5691 0.10678 0.0
C240 C 0.5378 0.58081 0.10991 0.0
C241 C 0.55058 0.61253 0.06156 0.0
C242 C 0.56321 0.60204 0.08678 0.0
C243 C 0.55128 0.56914 0.13638 0.0
C244 C 0.61722 0.46743 0.14642 0.0
C245 C 0.65361 0.49076 0.13374 0.0
C246 C 0.59427 0.48262 0.15299 0.0
C247 C 0.60715 0.52143 0.14692 0.0
C248 C 0.66594 0.52933 0.12692 0.0
C249 C 0.64283 0.54444 0.13332 0.0
C250 C 0.58352 0.53816 0.15437 0.0
C251 C 0.61793 0.50681 0.24053 0.0
C252 C 0.58627 0.4786 0.25663 0.0
C253 C 0.61308 0.52668 0.21701 0.0
C254 C 0.57647 0.51861 0.20924 0.0
C255 C 0.54996 0.47177 0.24955 0.0
C256 C 0.54516 0.49166 0.22622 0.0
C257 C 0.57 0.53766 0.18356 0.0
H258 H 0.53111 0.68091 0.16422 0.0
H259 H 0.56145 0.64476 0.14996 0.0
H260 H 0.44736 0.58345 0.21543 0.0
H261 H 0.47769 0.54719 0.2011 0.0
H262 H 0.45672 0.57049 0.07986 0.0
H263 H 0.47862 0.55157 0.12377 0.0
H264 H 0.57086 0.62897 0.04408 0.0
H265 H 0.59295 0.61082 0.08834 0.0
H266 H 0.6063 0.43727 0.15102 0.0
H267 H 0.56641 0.46403 0.16276 0.0
H268 H 0.69371 0.54801 0.11706 0.0
H269 H 0.65316 0.57436 0.12819 0.0
H270 H 0.64624 0.51281 0.24569 0.0
H271 H 0.63785 0.54806 0.20475 0.0
H272 H 0.52515 0.45073 0.26199 0.0
H273 H 0.51673 0.48527 0.22095 0.0
N274 N 0.54917 0.55456 0.18821 0.0
N275 N 0.57333 0.55354 0.13187 0.0
Co276 Co 0.63369 0.37982 0.40858 0.0
O277 O 0.67292 0.37987 0.38485 0.0
O278 O 0.68178 0.42756 0.41432 0.0
C279 C 0.60929 0.31968 0.4271 0.0
O280 O 0.60129 0.38922 0.43814 0.0
Co281 Co 0.54836 0.32261 0.39603 0.0
O282 O 0.5397 0.34224 0.43389 0.0
C283 C 0.59243 0.38816 0.35523 0.0
C284 C 0.69629 0.41356 0.39609 0.0
C285 C 0.56632 0.37196 0.44685 0.0
O286 O 0.62023 0.40301 0.37401 0.0
O287 O 0.56268 0.3548 0.35893 0.0
O288 O 0.63927 0.3487 0.43904 0.0
O289 O 0.59716 0.32736 0.40305 0.0
Co290 Co 0.26833 0.62731 0.58736 0.0
O291 O 0.3039 0.62451 0.61363 0.0
O292 O 0.2667 0.57915 0.58144 0.0
C293 C 0.30888 0.68798 0.57122 0.0
O294 O 0.2294 0.62081 0.55561 0.0
Co295 Co 0.24309 0.68616 0.59853 0.0
O296 O 0.22222 0.67198 0.55766 0.0
C297 C 0.21025 0.61578 0.63529 0.0
C298 C 0.29315 0.59127 0.60168 0.0
C299 C 0.2163 0.64124 0.54497 0.0
O300 O 0.2277 0.60322 0.6194 0.0
O301 O 0.21398 0.64882 0.63152 0.0
O302 O 0.3093 0.65896 0.55943 0.0
O303 O 0.28645 0.67984 0.59393 0.0
Co304 Co 0.64921 0.26108 0.74445 0.0
O305 O 0.64886 0.29802 0.71759 0.0
O306 O 0.60327 0.26267 0.75012 0.0
C307 C 0.7098 0.29945 0.76053 0.0
O308 O 0.64031 0.2213 0.77681 0.0
Co309 Co 0.70292 0.23015 0.73377 0.0
O310 O 0.68849 0.21038 0.77495 0.0
C311 C 0.63438 0.20081 0.69673 0.0
C312 C 0.61642 0.28901 0.72945 0.0
C313 C 0.65895 0.20644 0.78769 0.0
O314 O 0.62346 0.21973 0.71272 0.0
O315 O 0.66605 0.20252 0.70058 0.0
O316 O 0.68227 0.30225 0.77202 0.0
O317 O 0.70047 0.27635 0.73797 0.0
Co318 Co 0.40031 0.63394 0.90836 0.0
O319 O 0.36238 0.63384 0.88324 0.0
O320 O 0.35089 0.58786 0.91562 0.0
C321 C 0.42612 0.69592 0.92286 0.0
O322 O 0.43196 0.6258 0.93972 0.0
Co323 Co 0.48606 0.68777 0.8953 0.0
O324 O 0.49151 0.67698 0.93748 0.0
C325 C 0.44215 0.61626 0.86033 0.0
C326 C 0.33781 0.60179 0.89606 0.0
C327 C 0.46563 0.64707 0.95081 0.0
O328 O 0.41233 0.6065 0.87626 0.0
O329 O 0.47377 0.64807 0.8636 0.0
O330 O 0.39606 0.66858 0.93612 0.0
O331 O 0.43801 0.68539 0.90013 0.0
Co332 Co 0.77037 0.38738 0.08925 0.0
O333 O 0.73366 0.38799 0.1157 0.0
O334 O 0.76894 0.43399 0.08325 0.0
C335 C 0.73223 0.32592 0.07382 0.0
O336 O 0.80984 0.39584 0.05733 0.0
Co337 Co 0.79982 0.33199 0.10074 0.0
O338 O 0.82616 0.35095 0.06192 0.0
C339 C 0.8257 0.40009 0.13932 0.0
C340 C 0.7428 0.42085 0.10388 0.0
C341 C 0.8278 0.37934 0.04835 0.0
O342 O 0.81077 0.41325 0.12123 0.0
O343 O 0.8215 0.36672 0.13628 0.0
O344 O 0.73004 0.35365 0.06144 0.0
O345 O 0.75499 0.33578 0.09631 0.0
Co346 Co 0.38689 0.75288 0.24326 0.0
O347 O 0.38341 0.71427 0.21612 0.0
O348 O 0.43188 0.74903 0.24632 0.0
C349 C 0.32724 0.71685 0.26161 0.0
O350 O 0.39971 0.79362 0.27567 0.0
Co351 Co 0.33516 0.78719 0.23588 0.0
O352 O 0.35695 0.81258 0.2745 0.0
C353 C 0.40178 0.8141 0.19644 0.0
C354 C 0.4161 0.72186 0.22637 0.0
C355 C 0.38539 0.81302 0.28617 0.0
O356 O 0.41201 0.79365 0.21106 0.0
O357 O 0.37109 0.81392 0.20179 0.0
O358 O 0.35447 0.71266 0.27174 0.0
O359 O 0.336 0.74 0.23918 0.0
C360 C 0.22892 0.69147 0.2873 0.0
C361 C 0.21148 0.65225 0.29529 0.0
C362 C 0.26636 0.7122 0.27639 0.0
C363 C 0.28821 0.69486 0.27379 0.0
H364 H 0.21356 0.70642 0.28953 0.0
H365 H 0.27843 0.74215 0.27028 0.0
S366 S 0.25619 0.5929 0.2899 0.0
N367 N 0.21893 0.59654 0.29792 0.0
N368 N 0.28997 0.63632 0.27915 0.0
C369 C 0.27158 0.65598 0.28191 0.0
C370 C 0.23311 0.6345 0.29227 0.0
C371 C 0.55091 0.21053 0.43099 0.0
C372 C 0.55841 0.20243 0.45984 0.0
C373 C 0.56685 0.24853 0.42092 0.0
C374 C 0.59121 0.28001 0.43918 0.0
H375 H 0.53323 0.18729 0.41575 0.0
H376 H 0.56069 0.25318 0.39834 0.0
S377 S 0.61699 0.27463 0.51763 0.0
N378 N 0.58948 0.22919 0.50739 0.0
N379 N 0.62018 0.30066 0.48821 0.0
C380 C 0.59828 0.27243 0.46834 0.0
C381 C 0.58176 0.23367 0.4787 0.0
C382 C 0.35117 0.5595 0.64549 0.0
C383 C 0.35335 0.53332 0.62615 0.0
C384 C 0.33095 0.57735 0.6376 0.0
C385 C 0.31166 0.5695 0.61018 0.0
H386 H 0.36537 0.56641 0.66693 0.0
H387 H 0.33061 0.59766 0.65313 0.0
S388 S 0.30901 0.50402 0.55111 0.0
N389 N 0.33508 0.50125 0.57786 0.0
N390 N 0.29612 0.53393 0.56351 0.0
C391 C 0.31293 0.5429 0.59081 0.0
C392 C 0.33396 0.52504 0.59867 0.0
C393 C 0.79697 0.37567 0.80251 0.0
C394 C 0.82448 0.36602 0.79604 0.0
C395 C 0.75983 0.35361 0.79122 0.0
C396 C 0.74913 0.32162 0.77252 0.0
H397 H 0.80416 0.40024 0.81661 0.0
H398 H 0.73952 0.36205 0.79689 0.0
S399 S 0.81151 0.28534 0.74847 0.0
N400 N 0.83899 0.32278 0.76987 0.0
N401 N 0.76968 0.28191 0.74792 0.0
C402 C 0.77668 0.31203 0.7657 0.0
C403 C 0.81423 0.33407 0.77766 0.0
C404 C 0.45296 0.78379 0.97056 0.0
C405 C 0.47538 0.81457 0.95109 0.0
C406 C 0.43743 0.74547 0.96132 0.0
C407 C 0.44441 0.73663 0.93248 0.0
H408 H 0.44677 0.78941 0.99288 0.0
H409 H 0.41977 0.72261 0.97688 0.0
S410 S 0.503 0.80728 0.87368 0.0
N411 N 0.50475 0.83405 0.90215 0.0
N412 N 0.47629 0.76211 0.88484 0.0
C413 C 0.46764 0.7673 0.91309 0.0
C414 C 0.4829 0.80626 0.92237 0.0
C415 C 0.69715 0.48173 0.09954 0.0
C416 C 0.67839 0.47475 0.12727 0.0
C417 C 0.71909 0.46532 0.09247 0.0
C418 C 0.72285 0.44108 0.11277 0.0
H419 H 0.69402 0.49915 0.08282 0.0
H420 H 0.73212 0.47064 0.07057 0.0
S421 S 0.68382 0.41786 0.18981 0.0
N422 N 0.66848 0.4452 0.17625 0.0
N423 N 0.70877 0.41367 0.16272 0.0
C424 C 0.70543 0.43504 0.14095 0.0
C425 C 0.68344 0.452 0.14825 0.0
C426 C 0.34508 0.79345 0.55563 0.0
C427 C 0.37767 0.80492 0.5381 0.0
C428 C 0.32306 0.7556 0.56636 0.0
C429 C 0.33245 0.72768 0.55943 0.0
H430 H 0.33687 0.81408 0.56145 0.0
H431 H 0.29838 0.74814 0.58002 0.0
S432 S 0.41467 0.74324 0.51353 0.0
N433 N 0.41818 0.78566 0.51398 0.0
N434 N 0.37652 0.71425 0.53355 0.0
C435 C 0.36476 0.73876 0.54153 0.0
C436 C 0.38747 0.77746 0.53104 0.0
C437 C 0.58473 0.34485 0.68197 0.0
C438 C 0.56164 0.35095 0.70161 0.0
C439 C 0.60208 0.3245 0.69114 0.0
C440 C 0.59623 0.30875 0.72006 0.0
H441 H 0.58996 0.35651 0.65954 0.0
H442 H 0.62015 0.32101 0.67542 0.0
S443 S 0.53697 0.31569 0.77948 0.0
N444 N 0.53324 0.33931 0.75097 0.0
N445 N 0.56497 0.30017 0.76805 0.0
C446 C 0.57243 0.31393 0.73965 0.0
C447 C 0.55541 0.33532 0.73048 0.0
C448 C 0.23407 0.52823 0.87878 0.0
C449 C 0.21787 0.55141 0.87584 0.0
C450 C 0.27274 0.54435 0.88607 0.0
C451 C 0.29669 0.58427 0.8901 0.0
H452 H 0.21696 0.49749 0.87483 0.0
H453 H 0.28418 0.52564 0.88771 0.0
S454 S 0.26795 0.65707 0.88886 0.0
N455 N 0.22853 0.61603 0.88103 0.0
N456 N 0.30124 0.64624 0.89303 0.0
C457 C 0.28082 0.6076 0.88799 0.0
C458 C 0.24144 0.59123 0.88128 0.0
C459 C 0.67276 0.23901 0.02411 0.0
C460 C 0.6642 0.20774 0.04294 0.0
C461 C 0.69478 0.27719 0.03423 0.0
C462 C 0.70937 0.28552 0.06344 0.0
H463 H 0.66275 0.23397 1.00125 0.0
H464 H 0.70077 0.30034 0.01893 0.0
S465 S 0.69267 0.21418 0.12237 0.0
N466 N 0.66992 0.18783 0.09291 0.0
N467 N 0.71229 0.25942 0.11151 0.0
C468 C 0.70078 0.25459 0.08257 0.0
C469 C 0.67797 0.21577 0.07243 0.0
C470 C 0.48965 0.69298 0.21316 0.0
C471 C 0.46836 0.65679 0.19921 0.0
C472 C 0.47259 0.71385 0.2219 0.0
C473 C 0.43376 0.69963 0.21652 0.0
H474 H 0.51961 0.70497 0.21775 0.0
H475 H 0.49003 0.74141 0.23284 0.0
S476 S 0.36594 0.60666 0.17979 0.0
N477 N 0.40674 0.60789 0.17995 0.0
N478 N 0.37466 0.64703 0.19594 0.0
C479 C 0.41232 0.66364 0.20219 0.0
C480 C 0.42961 0.64224 0.19368 0.0
C481 C 0.79244 0.42971 0.37268 0.0
C482 C 0.81755 0.46914 0.37817 0.0
C483 C 0.75327 0.41233 0.37805 0.0
C484 C 0.73772 0.43355 0.3896 0.0
H485 H 0.80314 0.41223 0.36386 0.0
H486 H 0.73515 0.38182 0.37349 0.0
S487 S 0.79167 0.53781 0.40804 0.0
N488 N 0.82437 0.52906 0.39568 0.0
N489 N 0.75079 0.49632 0.40632 0.0
C490 C 0.76261 0.47304 0.3953 0.0
C491 C 0.80249 0.49086 0.38941 0.0
C492 C 0.15176 0.63856 0.48287 0.0
C493 C 0.14386 0.60611 0.46592 0.0
C494 C 0.17525 0.64951 0.50806 0.0
C495 C 0.19209 0.62856 0.51756 0.0
H496 H 0.13915 0.65538 0.47693 0.0
H497 H 0.17986 0.67461 0.52029 0.0
S498 S 0.18206 0.54228 0.47967 0.0
N499 N 0.15588 0.55386 0.45946 0.0
N500 N 0.19992 0.57419 0.50699 0.0
C501 C 0.18479 0.5962 0.50052 0.0
C502 C 0.16071 0.58503 0.47474 0.0
C503 C 0.5831 0.11483 0.64532 0.0
C504 C 0.5692 0.12808 0.62243 0.0
C505 C 0.60325 0.13826 0.66963 0.0
C506 C 0.60951 0.17556 0.67256 0.0
H507 H 0.57884 0.08619 0.6443 0.0
H508 H 0.61431 0.12718 0.68621 0.0
S509 S 0.5792 0.22446 0.61952 0.0
N510 N 0.56375 0.18168 0.60445 0.0
N511 N 0.59999 0.22481 0.65114 0.0
C512 C 0.59471 0.18888 0.65064 0.0
C513 C 0.5749 0.16535 0.62538 0.0
C514 C 0.41609 0.55619 0.78961 0.0
C515 C 0.44393 0.54576 0.78846 0.0
C516 C 0.41433 0.57751 0.81371 0.0
C517 C 0.44065 0.58953 0.83723 0.0
H518 H 0.39639 0.54906 0.77128 0.0
H519 H 0.39335 0.58607 0.81329 0.0
S520 S 0.51525 0.56522 0.84739 0.0
N521 N 0.49518 0.54517 0.81521 0.0
N522 N 0.49292 0.58676 0.85947 0.0
C523 C 0.46746 0.57801 0.83704 0.0
C524 C 0.46884 0.55575 0.81294 0.0
C525 C 0.91089 0.40893 0.99577 0.0
C526 C 0.89788 0.4149 0.96839 0.0
C527 C 0.88824 0.39814 0.02156 0.0
C528 C 0.85197 0.39371 0.0213 0.0
H529 H 0.93887 0.41256 0.99736 0.0
H530 H 0.89926 0.39323 0.04195 0.0
S531 S 0.80349 0.40433 0.95567 0.0
N532 N 0.84514 0.41384 0.94263 0.0
N533 N 0.80356 0.39539 0.99163 0.0
C534 C 0.83869 0.40018 0.99442 0.0
C535 C 0.86139 0.41035 0.96788 0.0
C536 C 0.45815 0.84764 0.12411 0.0
C537 C 0.46823 0.88644 0.12252 0.0
C538 C 0.43805 0.82463 0.14884 0.0
C539 C 0.42655 0.8395 0.17225 0.0
H540 H 0.46555 0.83499 0.10601 0.0
H541 H 0.43022 0.7947 0.14912 0.0
S542 S 0.4471 0.93957 0.17901 0.0
N543 N 0.46667 0.93906 0.14688 0.0
N544 N 0.42783 0.89558 0.19279 0.0
C545 C 0.43698 0.87836 0.17104 0.0
C546 C 0.45812 0.90192 0.14629 0.0
C547 C 0.61525 0.47327 0.30457 0.0
C548 C 0.59046 0.45539 0.28031 0.0
C549 C 0.61677 0.45141 0.32834 0.0
C550 C 0.59357 0.41087 0.32865 0.0
H551 H 0.63264 0.50441 0.30567 0.0
H552 H 0.63534 0.46648 0.34701 0.0
S553 S 0.52815 0.35026 0.26792 0.0
N554 N 0.54537 0.39494 0.25644 0.0
N555 N 0.54805 0.35383 0.30068 0.0
C556 C 0.57014 0.39274 0.30364 0.0
C557 C 0.56863 0.41498 0.27962 0.0
C558 C 0.41568 0.84556 0.36602 0.0
C559 C 0.42608 0.88461 0.36515 0.0
C560 C 0.4044 0.82276 0.34004 0.0
C561 C 0.40281 0.83816 0.3124 0.0
H562 H 0.41502 0.83213 0.38708 0.0
H563 H 0.39528 0.79255 0.34182 0.0
S564 S 0.43185 0.93949 0.297 0.0
N565 N 0.43812 0.9384 0.33331 0.0
N566 N 0.41538 0.89511 0.285 0.0
C567 C 0.41449 0.87731 0.31095 0.0
C568 C 0.4265 0.90065 0.33717 0.0
C569 C 0.5628 0.39961 0.52718 0.0
C570 C 0.5317 0.40531 0.52726 0.0
C571 C 0.57503 0.39051 0.50077 0.0
C572 C 0.55625 0.38618 0.47358 0.0
H573 H 0.57718 0.40109 0.54782 0.0
H574 H 0.59834 0.38531 0.50187 0.0
S575 S 0.47671 0.40252 0.46054 0.0
N576 N 0.48532 0.41003 0.49667 0.0
N577 N 0.50711 0.39088 0.4476 0.0
C578 C 0.52599 0.39284 0.47305 0.0
C579 C 0.51401 0.40289 0.49972 0.0
C580 C 0.17431 0.55946 0.70758 0.0
C581 C 0.13638 0.55088 0.70897 0.0
C582 C 0.19777 0.57899 0.68295 0.0
C583 C 0.18424 0.59107 0.65914 0.0
H584 H 0.18644 0.55233 0.7261 0.0
H585 H 0.2271 0.58614 0.68314 0.0
S586 S 0.08611 0.57105 0.64952 0.0
N587 N 0.08534 0.55187 0.68221 0.0
N588 N 0.13009 0.59027 0.63692 0.0
C589 C 0.14616 0.58137 0.65958 0.0
C590 C 0.12206 0.56084 0.68424 0.0
C591 C 0.60037 0.15587 0.85759 0.0
C592 C 0.61868 0.13743 0.86918 0.0
C593 C 0.61355 0.17827 0.83142 0.0
C594 C 0.64544 0.18289 0.81566 0.0
H595 H 0.57586 0.15327 0.86901 0.0
H596 H 0.59857 0.19202 0.82353 0.0
S597 S 0.70184 0.13811 0.83604 0.0
N598 N 0.66904 0.12364 0.86232 0.0
N599 N 0.69416 0.16558 0.81362 0.0
C600 C 0.66367 0.16406 0.82704 0.0
C601 C 0.65023 0.14141 0.85362 0.0
C602 C 0.46748 0.58672 0.01546 0.0
C603 C 0.4991 0.61384 0.03227 0.0
C604 C 0.45607 0.59765 0.98955 0.0
C605 C 0.47588 0.63613 0.9795 0.0
H606 H 0.45203 0.55666 0.02197 0.0
H607 H 0.43222 0.57562 0.97691 0.0
S608 S 0.55734 0.71897 0.01807 0.0
N609 N 0.54763 0.68126 0.03869 0.0
N610 N 0.52654 0.70195 0.9903 0.0
C611 C 0.50659 0.66371 0.99692 0.0
C612 C 0.51811 0.65255 0.02317 0.0
C613 C 0.89189 0.4327 0.20628 0.0
C614 C 0.89303 0.46619 0.21596 0.0
C615 C 0.87056 0.41217 0.18135 0.0
C616 C 0.84919 0.42408 0.16493 0.0
H617 H 0.90775 0.42223 0.2181 0.0
H618 H 0.87085 0.38655 0.17505 0.0
S619 S 0.84227 0.50998 0.18156 0.0
N620 N 0.87106 0.51061 0.20755 0.0
N621 N 0.83058 0.47195 0.16055 0.0
C622 C 0.85036 0.4579 0.17426 0.0
C623 C 0.87237 0.47896 0.19975 0.0
loop_
_geom_bond_atom_site_label_1
_geom_bond_atom_site_label_2
_geom_bond_distance
_geom_bond_site_symmetry_2
_ccdc_geom_bond_type
C0 C1 1.384 . S
C0 C2 1.384 . S
C0 H28 0.931 . S
C1 C0 1.384 . S
C1 C4 1.382 . S
C2 C0 1.384 . S
C2 C3 1.381 . S
C2 H29 0.930 . S
C3 C2 1.381 . S
C3 C5 1.381 . S
C3 C6 1.487 . S
C4 C1 1.382 . S
C4 C5 1.387 . S
C4 H30 0.930 . S
C5 C3 1.381 . S
C5 C4 1.387 . S
C5 H31 0.931 . S
C6 C3 1.487 . S
C6 C13 1.399 . S
C6 N44 1.344 . S
C7 C8 1.384 . S
C7 C9 1.384 . S
C7 H32 0.931 . S
C8 C7 1.384 . S
C8 C11 1.382 . S
C9 C7 1.384 . S
C9 C10 1.381 . S
C9 H33 0.930 . S
C10 C9 1.381 . S
C10 C12 1.381 . S
C10 C13 1.487 . S
C11 C8 1.382 . S
C11 C12 1.387 . S
C11 H34 0.930 . S
C12 C10 1.381 . S
C12 C11 1.387 . S
C12 H35 0.931 . S
C13 C6 1.399 . S
C13 C10 1.487 . S
C13 N45 1.343 1_655 S
C14 C15 1.384 . S
C14 C16 1.384 . S
C14 H36 0.931 . S
C15 C14 1.384 . S
C15 C18 1.382 . S
C16 C14 1.384 . S
C16 C17 1.381 . S
C16 H37 0.930 . S
C17 C16 1.381 . S
C17 C19 1.381 . S
C17 C20 1.487 . S
C18 C15 1.382 . S
C18 C19 1.387 . S
C18 H38 0.930 . S
C19 C17 1.381 . S
C19 C18 1.387 . S
C19 H39 0.931 . S
C20 C17 1.487 . S
C20 C27 1.399 . S
C20 N45 1.343 . S
C21 C22 1.384 . S
C21 C23 1.384 . S
C21 H40 0.931 . S
C22 C21 1.384 . S
C22 C25 1.382 . S
C23 C21 1.384 . S
C23 C24 1.381 . S
C23 H41 0.930 . S
C24 C23 1.381 . S
C24 C26 1.381 . S
C24 C27 1.487 . S
C25 C22 1.382 . S
C25 C26 1.387 . S
C25 H42 0.930 . S
C26 C24 1.381 . S
C26 C25 1.387 . S
C26 H43 0.931 . S
C27 C20 1.399 . S
C27 C24 1.487 . S
C27 N44 1.341 1_455 S
H28 C0 0.931 . S
H29 C2 0.930 . S
H30 C4 0.930 . S
H31 C5 0.931 . S
H32 C7 0.931 . S
H33 C9 0.930 . S
H34 C11 0.930 . S
H35 C12 0.931 . S
H36 C14 0.931 . S
H37 C16 0.930 . S
H38 C18 0.930 . S
H39 C19 0.931 . S
H40 C21 0.931 . S
H41 C23 0.930 . S
H42 C25 0.930 . S
H43 C26 0.931 . S
N44 C6 1.344 . S
N44 C27 1.341 1_655 S
N45 C13 1.343 1_455 S
N45 C20 1.343 . S
C46 C47 1.384 . S
C46 C48 1.384 . S
C46 H74 0.931 . S
C47 C46 1.384 . S
C47 C50 1.382 . S
C48 C46 1.384 . S
C48 C49 1.381 . S
C48 H75 0.930 . S
C49 C48 1.381 . S
C49 C51 1.381 . S
C49 C52 1.487 . S
C50 C47 1.382 . S
C50 C51 1.387 . S
C50 H76 0.930 . S
C51 C49 1.381 . S
C51 C50 1.387 . S
C51 H77 0.931 . S
C52 C49 1.487 . S
C52 C59 1.399 . S
C52 N90 1.343 . S
C53 C54 1.384 . S
C53 C55 1.384 . S
C53 H78 0.931 . S
C54 C53 1.384 . S
C54 C57 1.382 . S
C55 C53 1.384 . S
C55 C56 1.381 . S
C55 H79 0.930 . S
C56 C55 1.381 . S
C56 C58 1.381 . S
C56 C59 1.487 . S
C57 C54 1.382 . S
C57 C58 1.387 . S
C57 H80 0.930 . S
C58 C56 1.381 . S
C58 C57 1.387 . S
C58 H81 0.931 . S
C59 C52 1.399 . S
C59 C56 1.487 . S
C59 N91 1.343 1_565 S
C60 C61 1.384 . S
C60 C62 1.384 . S
C60 H82 0.931 . S
C61 C60 1.384 . S
C61 C64 1.382 . S
C62 C60 1.384 . S
C62 C63 1.381 . S
C62 H83 0.930 . S
C63 C62 1.381 . S
C63 C65 1.381 . S
C63 C66 1.487 . S
C64 C61 1.382 . S
C64 C65 1.387 . S
C64 H84 0.930 . S
C65 C63 1.381 . S
C65 C64 1.387 . S
C65 H85 0.931 . S
C66 C63 1.487 . S
C66 C73 1.399 . S
C66 N91 1.343 . S
C67 C68 1.384 . S
C67 C69 1.384 . S
C67 H86 0.931 . S
C68 C67 1.384 . S
C68 C71 1.382 . S
C69 C67 1.384 . S
C69 C70 1.381 . S
C69 H87 0.930 . S
C70 C69 1.381 . S
C70 C72 1.381 . S
C70 C73 1.487 . S
C71 C68 1.382 . S
C71 C72 1.387 . S
C71 H88 0.930 . S
C72 C70 1.381 . S
C72 C71 1.387 . S
C72 H89 0.931 . S
C73 C66 1.399 . S
C73 C70 1.487 . S
C73 N90 1.343 1_545 S
H74 C46 0.931 . S
H75 C48 0.930 . S
H76 C50 0.930 . S
H77 C51 0.931 . S
H78 C53 0.931 . S
H79 C55 0.930 . S
H80 C57 0.930 . S
H81 C58 0.931 . S
H82 C60 0.931 . S
H83 C62 0.930 . S
H84 C64 0.930 . S
H85 C65 0.931 . S
H86 C67 0.931 . S
H87 C69 0.930 . S
H88 C71 0.930 . S
H89 C72 0.931 . S
N90 C52 1.343 . S
N90 C73 1.343 1_565 S
N91 C59 1.343 1_545 S
N91 C66 1.343 . S
C92 C93 1.384 . S
C92 C94 1.384 . S
C92 H120 0.931 . S
C93 C92 1.384 . S
C93 C96 1.382 . S
C94 C92 1.384 . S
C94 C95 1.381 . S
C94 H121 0.930 . S
C95 C94 1.381 . S
C95 C97 1.381 . S
C95 C98 1.487 . S
C96 C93 1.382 . S
C96 C97 1.387 . S
C96 H122 0.930 . S
C97 C95 1.381 . S
C97 C96 1.387 . S
C97 H123 0.931 . S
C98 C95 1.487 . S
C98 C105 1.399 . S
C98 N136 1.343 . S
C99 C100 1.384 . S
C99 C101 1.384 . S
C99 H124 0.931 . S
C100 C99 1.384 . S
C100 C103 1.382 . S
C101 C99 1.384 . S
C101 C102 1.381 . S
C101 H125 0.930 . S
C102 C101 1.381 . S
C102 C104 1.381 . S
C102 C105 1.487 . S
C103 C100 1.382 . S
C103 C104 1.387 . S
C103 H126 0.930 . S
C104 C102 1.381 . S
C104 C103 1.387 . S
C104 H127 0.931 . S
C105 C98 1.399 . S
C105 C102 1.487 . S
C105 N137 1.343 . S
C106 C107 1.384 . S
C106 C108 1.384 . S
C106 H128 0.931 . S
C107 C106 1.384 . S
C107 C110 1.382 . S
C108 C106 1.384 . S
C108 C109 1.381 . S
C108 H129 0.930 . S
C109 C108 1.381 . S
C109 C111 1.381 . S
C109 C112 1.487 . S
C110 C107 1.382 . S
C110 C111 1.387 . S
C110 H130 0.930 . S
C111 C109 1.381 . S
C111 C110 1.387 . S
C111 H131 0.931 . S
C112 C109 1.487 . S
C112 C119 1.399 . S
C112 N137 1.343 . S
C113 C114 1.384 . S
C113 C115 1.384 . S
C113 H132 0.931 . S
C114 C113 1.384 . S
C114 C117 1.382 . S
C115 C113 1.384 . S
C115 C116 1.381 . S
C115 H133 0.930 . S
C116 C115 1.381 . S
C116 C118 1.381 . S
C116 C119 1.487 . S
C117 C114 1.382 . S
C117 C118 1.387 . S
C117 H134 0.930 . S
C118 C116 1.381 . S
C118 C117 1.387 . S
C118 H135 0.931 . S
C119 C112 1.399 . S
C119 C116 1.487 . S
C119 N136 1.343 . S
H120 C92 0.931 . S
H121 C94 0.930 . S
H122 C96 0.930 . S
H123 C97 0.931 . S
H124 C99 0.931 . S
H125 C101 0.930 . S
H126 C103 0.930 . S
H127 C104 0.931 . S
H128 C106 0.931 . S
H129 C108 0.930 . S
H130 C110 0.930 . S
H131 C111 0.931 . S
H132 C113 0.931 . S
H133 C115 0.930 . S
H134 C117 0.930 . S
H135 C118 0.931 . S
N136 C98 1.343 . S
N136 C119 1.343 . S
N137 C105 1.343 . S
N137 C112 1.343 . S
C138 C139 1.384 . S
C138 C140 1.384 . S
C138 H166 0.931 . S
C139 C138 1.384 . S
C139 C142 1.382 . S
C140 C138 1.384 . S
C140 C141 1.381 . S
C140 H167 0.930 . S
C141 C140 1.381 . S
C141 C143 1.381 . S
C141 C144 1.487 . S
C142 C139 1.382 . S
C142 C143 1.387 . S
C142 H168 0.930 . S
C143 C141 1.381 . S
C143 C142 1.387 . S
C143 H169 0.931 . S
C144 C141 1.487 . S
C144 C151 1.399 . S
C144 N182 1.343 . S
C145 C146 1.384 . S
C145 C147 1.384 . S
C145 H170 0.931 . S
C146 C145 1.384 . S
C146 C149 1.382 . S
C147 C145 1.384 . S
C147 C148 1.381 . S
C147 H171 0.930 . S
C148 C147 1.381 . S
C148 C150 1.381 . S
C148 C151 1.487 . S
C149 C146 1.382 . S
C149 C150 1.387 . S
C149 H172 0.930 . S
C150 C148 1.381 . S
C150 C149 1.387 . S
C150 H173 0.931 . S
C151 C144 1.399 . S
C151 C148 1.487 . S
C151 N183 1.343 1_655 S
C152 C153 1.384 . S
C152 C154 1.384 . S
C152 H174 0.931 . S
C153 C152 1.384 . S
C153 C156 1.382 . S
C154 C152 1.384 . S
C154 C155 1.381 . S
C154 H175 0.930 . S
C155 C154 1.381 . S
C155 C157 1.381 . S
C155 C158 1.487 . S
C156 C153 1.382 . S
C156 C157 1.387 . S
C156 H176 0.930 . S
C157 C155 1.381 . S
C157 C156 1.387 . S
C157 H177 0.931 . S
C158 C155 1.487 . S
C158 C165 1.399 . S
C158 N183 1.343 . S
C159 C160 1.384 . S
C159 C161 1.384 . S
C159 H178 0.931 . S
C160 C159 1.384 . S
C160 C163 1.382 . S
C161 C159 1.384 . S
C161 C162 1.381 . S
C161 H179 0.930 . S
C162 C161 1.381 . S
C162 C164 1.381 . S
C162 C165 1.487 . S
C163 C160 1.382 . S
C163 C164 1.387 . S
C163 H180 0.930 . S
C164 C162 1.381 . S
C164 C163 1.387 . S
C164 H181 0.931 . S
C165 C158 1.399 . S
C165 C162 1.487 . S
C165 N182 1.343 1_455 S
H166 C138 0.931 . S
H167 C140 0.930 . S
H168 C142 0.930 . S
H169 C143 0.931 . S
H170 C145 0.931 . S
H171 C147 0.930 . S
H172 C149 0.930 . S
H173 C150 0.931 . S
H174 C152 0.931 . S
H175 C154 0.930 . S
H176 C156 0.930 . S
H177 C157 0.931 . S
H178 C159 0.931 . S
H179 C161 0.930 . S
H180 C163 0.930 . S
H181 C164 0.931 . S
N182 C144 1.343 . S
N182 C165 1.343 1_655 S
N183 C151 1.343 1_455 S
N183 C158 1.343 . S
C184 C185 1.384 . S
C184 C186 1.384 . S
C184 H212 0.931 . S
C185 C184 1.384 . S
C185 C188 1.382 . S
C186 C184 1.384 . S
C186 C187 1.381 . S
C186 H213 0.930 1_556 S
C187 C186 1.381 . S
C187 C189 1.381 . S
C187 C190 1.487 . S
C188 C185 1.382 . S
C188 C189 1.387 . S
C188 H214 0.930 . S
C189 C187 1.381 . S
C189 C188 1.387 . S
C189 H215 0.931 . S
C190 C187 1.487 . S
C190 C197 1.399 1_556 S
C190 N228 1.343 . S
C191 C192 1.384 . S
C191 C193 1.384 . S
C191 H216 0.931 . S
C192 C191 1.384 . S
C192 C195 1.382 . S
C193 C191 1.384 . S
C193 C194 1.381 . S
C193 H217 0.930 . S
C194 C193 1.381 . S
C194 C196 1.381 . S
C194 C197 1.487 . S
C195 C192 1.382 . S
C195 C196 1.387 . S
C195 H218 0.930 . S
C196 C194 1.381 . S
C196 C195 1.387 . S
C196 H219 0.931 . S
C197 C190 1.399 1_554 S
C197 C194 1.487 . S
C197 N229 1.343 1_565 S
C198 C199 1.384 . S
C198 C200 1.381 1_554 S
C198 H220 0.931 . S
C199 C198 1.384 . S
C199 C202 1.382 . S
C200 C198 1.381 1_556 S
C200 C201 1.378 1_556 S
C200 H221 0.937 . S
C201 C200 1.378 1_554 S
C201 C203 1.381 . S
C201 C204 1.487 . S
C202 C199 1.382 . S
C202 C203 1.387 . S
C202 H222 0.930 . S
C203 C201 1.381 . S
C203 C202 1.387 . S
C203 H223 0.931 . S
C204 C201 1.487 . S
C204 C211 1.399 1_554 S
C204 N229 1.343 . S
C205 C206 1.384 . S
C205 C207 1.384 . S
C205 H224 0.931 . S
C206 C205 1.384 . S
C206 C209 1.382 . S
C207 C205 1.384 . S
C207 C208 1.381 . S
C207 H225 0.930 . S
C208 C207 1.381 . S
C208 C210 1.381 . S
C208 C211 1.487 . S
C209 C206 1.382 . S
C209 C210 1.387 . S
C209 H226 0.930 . S
C210 C208 1.381 . S
C210 C209 1.387 . S
C210 H227 0.931 . S
C211 C204 1.399 1_556 S
C211 C208 1.487 . S
C211 N228 1.343 1_545 S
H212 C184 0.931 . S
H213 C186 0.930 1_554 S
H214 C188 0.930 . S
H215 C189 0.931 . S
H216 C191 0.931 . S
H217 C193 0.930 . S
H218 C195 0.930 . S
H219 C196 0.931 . S
H220 C198 0.931 . S
H221 C200 0.937 . S
H222 C202 0.930 . S
H223 C203 0.931 . S
H224 C205 0.931 . S
H225 C207 0.930 . S
H226 C209 0.930 . S
H227 C210 0.931 . S
N228 C190 1.343 . S
N228 C211 1.343 1_565 S
N229 C197 1.343 1_545 S
N229 C204 1.343 . S
C230 C231 1.384 . S
C230 C232 1.384 . S
C230 H258 0.931 . S
C231 C230 1.384 . S
C231 C234 1.382 . S
C232 C230 1.384 . S
C232 C233 1.381 . S
C232 H259 0.930 . S
C233 C232 1.381 . S
C233 C235 1.381 . S
C233 C236 1.487 . S
C234 C231 1.382 . S
C234 C235 1.387 . S
C234 H260 0.930 . S
C235 C233 1.381 . S
C235 C234 1.387 . S
C235 H261 0.931 . S
C236 C233 1.487 . S
C236 C243 1.399 . S
C236 N274 1.343 . S
C237 C238 1.384 . S
C237 C239 1.384 . S
C237 H262 0.931 . S
C238 C237 1.384 . S
C238 C241 1.382 . S
C239 C237 1.384 . S
C239 C240 1.381 . S
C239 H263 0.930 . S
C240 C239 1.381 . S
C240 C242 1.381 . S
C240 C243 1.487 . S
C241 C238 1.382 . S
C241 C242 1.387 . S
C241 H264 0.930 . S
C242 C240 1.381 . S
C242 C241 1.387 . S
C242 H265 0.931 . S
C243 C236 1.399 . S
C243 C240 1.487 . S
C243 N275 1.343 . S
C244 C245 1.384 . S
C244 C246 1.384 . S
C244 H266 0.931 . S
C245 C244 1.384 . S
C245 C248 1.382 . S
C246 C244 1.384 . S
C246 C247 1.381 . S
C246 H267 0.930 . S
C247 C246 1.381 . S
C247 C249 1.381 . S
C247 C250 1.487 . S
C248 C245 1.382 . S
C248 C249 1.387 . S
C248 H268 0.930 . S
C249 C247 1.381 . S
C249 C248 1.387 . S
C249 H269 0.931 . S
C250 C247 1.487 . S
C250 C257 1.399 . S
C250 N275 1.343 . S
C251 C252 1.384 . S
C251 C253 1.384 . S
C251 H270 0.931 . S
C252 C251 1.384 . S
C252 C255 1.382 . S
C253 C251 1.384 . S
C253 C254 1.381 . S
C253 H271 0.930 . S
C254 C253 1.381 . S
C254 C256 1.381 . S
C254 C257 1.487 . S
C255 C252 1.382 . S
C255 C256 1.387 . S
C255 H272 0.930 . S
C256 C254 1.381 . S
C256 C255 1.387 . S
C256 H273 0.931 . S
C257 C250 1.399 . S
C257 C254 1.487 . S
C257 N274 1.343 . S
H258 C230 0.931 . S
H259 C232 0.930 . S
H260 C234 0.930 . S
H261 C235 0.931 . S
H262 C237 0.931 . S
H263 C239 0.930 . S
H264 C241 0.930 . S
H265 C242 0.931 . S
H266 C244 0.931 . S
H267 C246 0.930 . S
H268 C248 0.930 . S
H269 C249 0.931 . S
H270 C251 0.931 . S
H271 C253 0.930 . S
H272 C255 0.930 . S
H273 C256 0.931 . S
N274 C236 1.343 . S
N274 C257 1.343 . S
N275 C243 1.343 . S
N275 C250 1.343 . S
Co276 O277 2.216 . S
Co276 O278 2.091 . S
Co276 O280 2.004 . S
Co276 O286 2.021 . S
Co276 O288 2.137 . S
Co276 O289 2.244 . S
O277 Co276 2.216 . S
O277 C284 1.247 . S
O278 Co276 2.091 . S
O278 C284 1.261 . S
C279 O288 1.247 . S
C279 O289 1.272 . S
O280 Co276 2.004 . S
O280 C285 1.259 . S
Co281 O282 2.061 . S
Co281 O287 2.052 . S
Co281 O289 2.135 . S
O282 Co281 2.061 . S
O282 C285 1.235 . S
C283 O286 1.238 . S
C283 O287 1.241 . S
C284 O277 1.247 . S
C284 O278 1.261 . S
C285 O280 1.259 . S
C285 O282 1.235 . S
O286 Co276 2.021 . S
O286 C283 1.238 . S
O287 Co281 2.052 . S
O287 C283 1.241 . S
O288 Co276 2.137 . S
O288 C279 1.247 . S
O289 Co276 2.244 . S
O289 C279 1.272 . S
O289 Co281 2.135 . S
Co290 O291 2.216 . S
Co290 O292 2.091 . S
Co290 O294 2.004 . S
Co290 O300 2.021 . S
Co290 O302 2.137 . S
Co290 O303 2.244 . S
O291 Co290 2.216 . S
O291 C298 1.247 . S
O292 Co290 2.091 . S
O292 C298 1.261 . S
C293 O302 1.247 . S
C293 O303 1.272 . S
O294 Co290 2.004 . S
O294 C299 1.259 . S
Co295 O296 2.061 . S
Co295 O301 2.052 . S
Co295 O303 2.135 . S
O296 Co295 2.061 . S
O296 C299 1.235 . S
C297 O300 1.238 . S
C297 O301 1.241 . S
C298 O291 1.247 . S
C298 O292 1.261 . S
C299 O294 1.259 . S
C299 O296 1.235 . S
O300 Co290 2.021 . S
O300 C297 1.238 . S
O301 Co295 2.052 . S
O301 C297 1.241 . S
O302 Co290 2.137 . S
O302 C293 1.247 . S
O303 Co290 2.244 . S
O303 C293 1.272 . S
O303 Co295 2.135 . S
Co304 O305 2.216 . S
Co304 O306 2.091 . S
Co304 O308 2.004 . S
Co304 O314 2.021 . S
Co304 O316 2.137 . S
Co304 O317 2.244 . S
O305 Co304 2.216 . S
O305 C312 1.247 . S
O306 Co304 2.091 . S
O306 C312 1.261 . S
C307 O316 1.247 . S
C307 O317 1.272 . S
O308 Co304 2.004 . S
O308 C313 1.259 . S
Co309 O310 2.061 . S
Co309 O315 2.052 . S
Co309 O317 2.135 . S
O310 Co309 2.061 . S
O310 C313 1.235 . S
C311 O314 1.238 . S
C311 O315 1.241 . S
C312 O305 1.247 . S
C312 O306 1.261 . S
C313 O308 1.259 . S
C313 O310 1.235 . S
O314 Co304 2.021 . S
O314 C311 1.238 . S
O315 Co309 2.052 . S
O315 C311 1.241 . S
O316 Co304 2.137 . S
O316 C307 1.247 . S
O317 Co304 2.244 . S
O317 C307 1.272 . S
O317 Co309 2.135 . S
Co318 O319 2.216 . S
Co318 O320 2.091 . S
Co318 O322 2.004 . S
Co318 O328 2.021 . S
Co318 O330 2.137 . S
Co318 O331 2.244 . S
O319 Co318 2.216 . S
O319 C326 1.247 . S
O320 Co318 2.091 . S
O320 C326 1.261 . S
C321 O330 1.247 . S
C321 O331 1.272 . S
O322 Co318 2.004 . S
O322 C327 1.259 . S
Co323 O324 2.061 . S
Co323 O329 2.052 . S
Co323 O331 2.135 . S
O324 Co323 2.061 . S
O324 C327 1.235 . S
C325 O328 1.238 . S
C325 O329 1.241 . S
C326 O319 1.247 . S
C326 O320 1.261 . S
C327 O322 1.259 . S
C327 O324 1.235 . S
O328 Co318 2.021 . S
O328 C325 1.238 . S
O329 Co323 2.052 . S
O329 C325 1.241 . S
O330 Co318 2.137 . S
O330 C321 1.247 . S
O331 Co318 2.244 . S
O331 C321 1.272 . S
O331 Co323 2.135 . S
Co332 O333 2.216 . S
Co332 O334 2.091 . S
Co332 O336 2.004 . S
Co332 O342 2.021 . S
Co332 O344 2.137 . S
Co332 O345 2.244 . S
O333 Co332 2.216 . S
O333 C340 1.247 . S
O334 Co332 2.091 . S
O334 C340 1.261 . S
C335 O344 1.247 . S
C335 O345 1.272 . S
O336 Co332 2.004 . S
O336 C341 1.259 . S
Co337 O338 2.061 . S
Co337 O343 2.052 . S
Co337 O345 2.135 . S
O338 Co337 2.061 . S
O338 C341 1.235 . S
C339 O342 1.238 . S
C339 O343 1.241 . S
C340 O333 1.247 . S
C340 O334 1.261 . S
C341 O336 1.259 . S
C341 O338 1.235 . S
O342 Co332 2.021 . S
O342 C339 1.238 . S
O343 Co337 2.052 . S
O343 C339 1.241 . S
O344 Co332 2.137 . S
O344 C335 1.247 . S
O345 Co332 2.244 . S
O345 C335 1.272 . S
O345 Co337 2.135 . S
Co346 O347 2.216 . S
Co346 O348 2.091 . S
Co346 O350 2.004 . S
Co346 O356 2.021 . S
Co346 O358 2.137 . S
Co346 O359 2.244 . S
O347 Co346 2.216 . S
O347 C354 1.247 . S
O348 Co346 2.091 . S
O348 C354 1.261 . S
C349 O358 1.247 . S
C349 O359 1.272 . S
O350 Co346 2.004 . S
O350 C355 1.259 . S
Co351 O352 2.061 . S
Co351 O357 2.052 . S
Co351 O359 2.135 . S
O352 Co351 2.061 . S
O352 C355 1.235 . S
C353 O356 1.238 . S
C353 O357 1.241 . S
C354 O347 1.247 . S
C354 O348 1.261 . S
C355 O350 1.259 . S
C355 O352 1.235 . S
O356 Co346 2.021 . S
O356 C353 1.238 . S
O357 Co351 2.052 . S
O357 C353 1.241 . S
O358 Co346 2.137 . S
O358 C349 1.247 . S
O359 Co346 2.244 . S
O359 C349 1.272 . S
O359 Co351 2.135 . S
C360 C361 1.369 . S
C360 C362 1.419 . S
C360 H364 0.930 . S
C361 C360 1.369 . S
C361 C370 1.429 . S
C362 C360 1.419 . S
C362 C363 1.363 . S
C362 H365 0.929 . S
C363 C362 1.363 . S
C363 C369 1.428 . S
H364 C360 0.930 . S
H365 C362 0.929 . S
S366 N367 1.613 . S
S366 N368 1.610 . S
N367 S366 1.613 . S
N367 C370 1.350 . S
N368 S366 1.610 . S
N368 C369 1.351 . S
C369 C363 1.428 . S
C369 N368 1.351 . S
C369 C370 1.434 . S
C370 C361 1.429 . S
C370 N367 1.350 . S
C370 C369 1.434 . S
C371 C372 1.369 . S
C371 C373 1.419 . S
C371 H375 0.930 . S
C372 C371 1.369 . S
C372 C381 1.429 . S
C373 C371 1.419 . S
C373 C374 1.363 . S
C373 H376 0.929 . S
C374 C373 1.363 . S
C374 C380 1.428 . S
H375 C371 0.930 . S
H376 C373 0.929 . S
S377 N378 1.613 . S
S377 N379 1.610 . S
N378 S377 1.613 . S
N378 C381 1.350 . S
N379 S377 1.610 . S
N379 C380 1.351 . S
C380 C374 1.428 . S
C380 N379 1.351 . S
C380 C381 1.434 . S
C381 C372 1.429 . S
C381 N378 1.350 . S
C381 C380 1.434 . S
C382 C383 1.369 . S
C382 C384 1.419 . S
C382 H386 0.930 . S
C383 C382 1.369 . S
C383 C392 1.429 . S
C384 C382 1.419 . S
C384 C385 1.363 . S
C384 H387 0.929 . S
C385 C384 1.363 . S
C385 C391 1.428 . S
H386 C382 0.930 . S
H387 C384 0.929 . S
S388 N389 1.613 . S
S388 N390 1.610 . S
N389 S388 1.613 . S
N389 C392 1.350 . S
N390 S388 1.610 . S
N390 C391 1.351 . S
C391 C385 1.428 . S
C391 N390 1.351 . S
C391 C392 1.434 . S
C392 C383 1.429 . S
C392 N389 1.350 . S
C392 C391 1.434 . S
C393 C394 1.369 . S
C393 C395 1.419 . S
C393 H397 0.930 . S
C394 C393 1.369 . S
C394 C403 1.429 . S
C395 C393 1.419 . S
C395 C396 1.363 . S
C395 H398 0.929 . S
C396 C395 1.363 . S
C396 C402 1.428 . S
H397 C393 0.930 . S
H398 C395 0.929 . S
S399 N400 1.613 . S
S399 N401 1.610 . S
N400 S399 1.613 . S
N400 C403 1.350 . S
N401 S399 1.610 . S
N401 C402 1.351 . S
C402 C396 1.428 . S
C402 N401 1.351 . S
C402 C403 1.434 . S
C403 C394 1.429 . S
C403 N400 1.350 . S
C403 C402 1.434 . S
C404 C405 1.369 . S
C404 C406 1.419 . S
C404 H408 0.930 . S
C405 C404 1.369 . S
C405 C414 1.429 . S
C406 C404 1.419 . S
C406 C407 1.363 . S
C406 H409 0.929 . S
C407 C406 1.363 . S
C407 C413 1.428 . S
H408 C404 0.930 . S
H409 C406 0.929 . S
S410 N411 1.613 . S
S410 N412 1.610 . S
N411 S410 1.613 . S
N411 C414 1.350 . S
N412 S410 1.610 . S
N412 C413 1.351 . S
C413 C407 1.428 . S
C413 N412 1.351 . S
C413 C414 1.434 . S
C414 C405 1.429 . S
C414 N411 1.350 . S
C414 C413 1.434 . S
C415 C416 1.369 . S
C415 C417 1.419 . S
C415 H419 0.930 . S
C416 C415 1.369 . S
C416 C425 1.429 . S
C417 C415 1.419 . S
C417 C418 1.363 . S
C417 H420 0.929 . S
C418 C417 1.363 . S
C418 C424 1.428 . S
H419 C415 0.930 . S
H420 C417 0.929 . S
S421 N422 1.613 . S
S421 N423 1.610 . S
N422 S421 1.613 . S
N422 C425 1.350 . S
N423 S421 1.610 . S
N423 C424 1.351 . S
C424 C418 1.428 . S
C424 N423 1.351 . S
C424 C425 1.434 . S
C425 C416 1.429 . S
C425 N422 1.350 . S
C425 C424 1.434 . S
C426 C427 1.369 . S
C426 C428 1.419 . S
C426 H430 0.930 . S
C427 C426 1.369 . S
C427 C436 1.429 . S
C428 C426 1.419 . S
C428 C429 1.363 . S
C428 H431 0.929 . S
C429 C428 1.363 . S
C429 C435 1.428 . S
H430 C426 0.930 . S
H431 C428 0.929 . S
S432 N433 1.613 . S
S432 N434 1.610 . S
N433 S432 1.613 . S
N433 C436 1.350 . S
N434 S432 1.610 . S
N434 C435 1.351 . S
C435 C429 1.428 . S
C435 N434 1.351 . S
C435 C436 1.434 . S
C436 C427 1.429 . S
C436 N433 1.350 . S
C436 C435 1.434 . S
C437 C438 1.369 . S
C437 C439 1.419 . S
C437 H441 0.930 . S
C438 C437 1.369 . S
C438 C447 1.429 . S
C439 C437 1.419 . S
C439 C440 1.363 . S
C439 H442 0.929 . S
C440 C439 1.363 . S
C440 C446 1.428 . S
H441 C437 0.930 . S
H442 C439 0.929 . S
S443 N444 1.613 . S
S443 N445 1.610 . S
N444 S443 1.613 . S
N444 C447 1.350 . S
N445 S443 1.610 . S
N445 C446 1.351 . S
C446 C440 1.428 . S
C446 N445 1.351 . S
C446 C447 1.434 . S
C447 C438 1.429 . S
C447 N444 1.350 . S
C447 C446 1.434 . S
C448 C449 1.369 . S
C448 C450 1.419 . S
C448 H452 0.930 . S
C449 C448 1.369 . S
C449 C458 1.429 . S
C450 C448 1.419 . S
C450 C451 1.363 . S
C450 H453 0.929 . S
C451 C450 1.363 . S
C451 C457 1.428 . S
H452 C448 0.930 . S
H453 C450 0.929 . S
S454 N455 1.613 . S
S454 N456 1.610 . S
N455 S454 1.613 . S
N455 C458 1.350 . S
N456 S454 1.610 . S
N456 C457 1.351 . S
C457 C451 1.428 . S
C457 N456 1.351 . S
C457 C458 1.434 . S
C458 C449 1.429 . S
C458 N455 1.350 . S
C458 C457 1.434 . S
C459 C460 1.369 . S
C459 C461 1.419 . S
C459 H463 0.930 . S
C460 C459 1.369 . S
C460 C469 1.429 . S
C461 C459 1.419 . S
C461 C462 1.363 . S
C461 H464 0.929 . S
C462 C461 1.363 . S
C462 C468 1.428 . S
H463 C459 0.930 . S
H464 C461 0.929 . S
S465 N466 1.613 . S
S465 N467 1.610 . S
N466 S465 1.613 . S
N466 C469 1.350 . S
N467 S465 1.610 . S
N467 C468 1.351 . S
C468 C462 1.428 . S
C468 N467 1.351 . S
C468 C469 1.434 . S
C469 C460 1.429 . S
C469 N466 1.350 . S
C469 C468 1.434 . S
C470 C471 1.369 . S
C470 C472 1.419 . S
C470 H474 0.930 . S
C471 C470 1.369 . S
C471 C480 1.429 . S
C472 C470 1.419 . S
C472 C473 1.363 . S
C472 H475 0.929 . S
C473 C472 1.363 . S
C473 C479 1.428 . S
H474 C470 0.930 . S
H475 C472 0.929 . S
S476 N477 1.613 . S
S476 N478 1.610 . S
N477 S476 1.613 . S
N477 C480 1.350 . S
N478 S476 1.610 . S
N478 C479 1.351 . S
C479 C473 1.428 . S
C479 N478 1.351 . S
C479 C480 1.434 . S
C480 C471 1.429 . S
C480 N477 1.350 . S
C480 C479 1.434 . S
C481 C482 1.369 . S
C481 C483 1.419 . S
C481 H485 0.930 . S
C482 C481 1.369 . S
C482 C491 1.429 . S
C483 C481 1.419 . S
C483 C484 1.363 . S
C483 H486 0.929 . S
C484 C483 1.363 . S
C484 C490 1.428 . S
H485 C481 0.930 . S
H486 C483 0.929 . S
S487 N488 1.613 . S
S487 N489 1.610 . S
N488 S487 1.613 . S
N488 C491 1.350 . S
N489 S487 1.610 . S
N489 C490 1.351 . S
C490 C484 1.428 . S
C490 N489 1.351 . S
C490 C491 1.434 . S
C491 C482 1.429 . S
C491 N488 1.350 . S
C491 C490 1.434 . S
C492 C493 1.369 . S
C492 C494 1.419 . S
C492 H496 0.930 . S
C493 C492 1.369 . S
C493 C502 1.429 . S
C494 C492 1.419 . S
C494 C495 1.363 . S
C494 H497 0.929 . S
C495 C494 1.363 . S
C495 C501 1.428 . S
H496 C492 0.930 . S
H497 C494 0.929 . S
S498 N499 1.613 . S
S498 N500 1.610 . S
N499 S498 1.613 . S
N499 C502 1.350 . S
N500 S498 1.610 . S
N500 C501 1.351 . S
C501 C495 1.428 . S
C501 N500 1.351 . S
C501 C502 1.434 . S
C502 C493 1.429 . S
C502 N499 1.350 . S
C502 C501 1.434 . S
C503 C504 1.369 . S
C503 C505 1.419 . S
C503 H507 0.930 . S
C504 C503 1.369 . S
C504 C513 1.429 . S
C505 C503 1.419 . S
C505 C506 1.363 . S
C505 H508 0.929 . S
C506 C505 1.363 . S
C506 C512 1.428 . S
H507 C503 0.930 . S
H508 C505 0.929 . S
S509 N510 1.613 . S
S509 N511 1.610 . S
N510 S509 1.613 . S
N510 C513 1.350 . S
N511 S509 1.610 . S
N511 C512 1.351 . S
C512 C506 1.428 . S
C512 N511 1.351 . S
C512 C513 1.434 . S
C513 C504 1.429 . S
C513 N510 1.350 . S
C513 C512 1.434 . S
C514 C515 1.369 . S
C514 C516 1.419 . S
C514 H518 0.930 . S
C515 C514 1.369 . S
C515 C524 1.429 . S
C516 C514 1.419 . S
C516 C517 1.363 . S
C516 H519 0.929 . S
C517 C516 1.363 . S
C517 C523 1.428 . S
H518 C514 0.930 . S
H519 C516 0.929 . S
S520 N521 1.613 . S
S520 N522 1.610 . S
N521 S520 1.613 . S
N521 C524 1.350 . S
N522 S520 1.610 . S
N522 C523 1.351 . S
C523 C517 1.428 . S
C523 N522 1.351 . S
C523 C524 1.434 . S
C524 C515 1.429 . S
C524 N521 1.350 . S
C524 C523 1.434 . S
C525 C526 1.369 . S
C525 C527 1.419 1_556 S
C525 H529 0.930 . S
C526 C525 1.369 . S
C526 C535 1.429 . S
C527 C525 1.419 1_554 S
C527 C528 1.363 . S
C527 H530 0.929 . S
C528 C527 1.363 . S
C528 C534 1.428 1_554 S
H529 C525 0.930 . S
H530 C527 0.929 . S
S531 N532 1.613 . S
S531 N533 1.610 . S
N532 S531 1.613 . S
N532 C535 1.350 . S
N533 S531 1.610 . S
N533 C534 1.351 . S
C534 C528 1.428 1_556 S
C534 N533 1.351 . S
C534 C535 1.434 . S
C535 C526 1.429 . S
C535 N532 1.350 . S
C535 C534 1.434 . S
C536 C537 1.369 . S
C536 C538 1.419 . S
C536 H540 0.930 . S
C537 C536 1.369 . S
C537 C546 1.429 . S
C538 C536 1.419 . S
C538 C539 1.363 . S
C538 H541 0.929 . S
C539 C538 1.363 . S
C539 C545 1.428 . S
H540 C536 0.930 . S
H541 C538 0.929 . S
S542 N543 1.613 . S
S542 N544 1.610 . S
N543 S542 1.613 . S
N543 C546 1.350 . S
N544 S542 1.610 . S
N544 C545 1.351 . S
C545 C539 1.428 . S
C545 N544 1.351 . S
C545 C546 1.434 . S
C546 C537 1.429 . S
C546 N543 1.350 . S
C546 C545 1.434 . S
C547 C548 1.369 . S
C547 C549 1.419 . S
C547 H551 0.930 . S
C548 C547 1.369 . S
C548 C557 1.429 . S
C549 C547 1.419 . S
C549 C550 1.363 . S
C549 H552 0.929 . S
C550 C549 1.363 . S
C550 C556 1.428 . S
H551 C547 0.930 . S
H552 C549 0.929 . S
S553 N554 1.613 . S
S553 N555 1.610 . S
N554 S553 1.613 . S
N554 C557 1.350 . S
N555 S553 1.610 . S
N555 C556 1.351 . S
C556 C550 1.428 . S
C556 N555 1.351 . S
C556 C557 1.434 . S
C557 C548 1.429 . S
C557 N554 1.350 . S
C557 C556 1.434 . S
C558 C559 1.369 . S
C558 C560 1.419 . S
C558 H562 0.930 . S
C559 C558 1.369 . S
C559 C568 1.429 . S
C560 C558 1.419 . S
C560 C561 1.363 . S
C560 H563 0.929 . S
C561 C560 1.363 . S
C561 C567 1.428 . S
H562 C558 0.930 . S
H563 C560 0.929 . S
S564 N565 1.613 . S
S564 N566 1.610 . S
N565 S564 1.613 . S
N565 C568 1.350 . S
N566 S564 1.610 . S
N566 C567 1.351 . S
C567 C561 1.428 . S
C567 N566 1.351 . S
C567 C568 1.434 . S
C568 C559 1.429 . S
C568 N565 1.350 . S
C568 C567 1.434 . S
C569 C570 1.369 . S
C569 C571 1.419 . S
C569 H573 0.930 . S
C570 C569 1.369 . S
C570 C579 1.429 . S
C571 C569 1.419 . S
C571 C572 1.363 . S
C571 H574 0.929 . S
C572 C571 1.363 . S
C572 C578 1.428 . S
H573 C569 0.930 . S
H574 C571 0.929 . S
S575 N576 1.613 . S
S575 N577 1.610 . S
N576 S575 1.613 . S
N576 C579 1.350 . S
N577 S575 1.610 . S
N577 C578 1.351 . S
C578 C572 1.428 . S
C578 N577 1.351 . S
C578 C579 1.434 . S
C579 C570 1.429 . S
C579 N576 1.350 . S
C579 C578 1.434 . S
C580 C581 1.369 . S
C580 C582 1.419 . S
C580 H584 0.930 . S
C581 C580 1.369 . S
C581 C590 1.429 . S
C582 C580 1.419 . S
C582 C583 1.363 . S
C582 H585 0.929 . S
C583 C582 1.363 . S
C583 C589 1.428 . S
H584 C580 0.930 . S
H585 C582 0.929 . S
S586 N587 1.613 . S
S586 N588 1.610 . S
N587 S586 1.613 . S
N587 C590 1.350 . S
N588 S586 1.610 . S
N588 C589 1.351 . S
C589 C583 1.428 . S
C589 N588 1.351 . S
C589 C590 1.434 . S
C590 C581 1.429 . S
C590 N587 1.350 . S
C590 C589 1.434 . S
C591 C592 1.369 . S
C591 C593 1.419 . S
C591 H595 0.930 . S
C592 C591 1.369 . S
C592 C601 1.429 . S
C593 C591 1.419 . S
C593 C594 1.363 . S
C593 H596 0.929 . S
C594 C593 1.363 . S
C594 C600 1.428 . S
H595 C591 0.930 . S
H596 C593 0.929 . S
S597 N598 1.613 . S
S597 N599 1.610 . S
N598 S597 1.613 . S
N598 C601 1.350 . S
N599 S597 1.610 . S
N599 C600 1.351 . S
C600 C594 1.428 . S
C600 N599 1.351 . S
C600 C601 1.434 . S
C601 C592 1.429 . S
C601 N598 1.350 . S
C601 C600 1.434 . S
C602 C603 1.369 . S
C602 C604 1.419 1_554 S
C602 H606 0.930 . S
C603 C602 1.369 . S
C603 C612 1.429 . S
C604 C602 1.419 1_556 S
C604 C605 1.363 . S
C604 H607 0.929 . S
C605 C604 1.363 . S
C605 C611 1.428 . S
H606 C602 0.930 . S
H607 C604 0.929 . S
S608 N609 1.613 . S
S608 N610 1.610 1_554 S
N609 S608 1.613 . S
N609 C612 1.350 . S
N610 S608 1.610 1_556 S
N610 C611 1.351 . S
C611 C605 1.428 . S
C611 N610 1.351 . S
C611 C612 1.434 1_556 S
C612 C603 1.429 . S
C612 N609 1.350 . S
C612 C611 1.434 1_554 S
C613 C614 1.369 . S
C613 C615 1.419 . S
C613 H617 0.930 . S
C614 C613 1.369 . S
C614 C623 1.429 . S
C615 C613 1.419 . S
C615 C616 1.363 . S
C615 H618 0.929 . S
C616 C615 1.363 . S
C616 C622 1.428 . S
H617 C613 0.930 . S
H618 C615 0.929 . S
S619 N620 1.613 . S
S619 N621 1.610 . S
N620 S619 1.613 . S
N620 C623 1.350 . S
N621 S619 1.610 . S
N621 C622 1.351 . S
C622 C616 1.428 . S
C622 N621 1.351 . S
C622 C623 1.434 . S
C623 C614 1.429 . S
C623 N620 1.350 . S
C623 C622 1.434 . S
C363 C349 1.624 . S
C361 C15 1.596 . S
C372 C61 1.594 . S
C374 C279 1.614 . S
C383 C114 1.614 . S
C385 C298 1.644 . S
C394 C139 1.610 . S
C396 C307 1.627 . S
C407 C321 1.614 . S
C405 C185 1.610 . S
C416 C245 1.611 . S
C418 C340 1.646 . S
C427 C47 1.586 . S
C429 C293 1.594 . S
C438 C100 1.609 . S
C440 C312 1.625 . S
C449 C153 1.591 . S
C451 C326 1.616 . S
C462 C335 1.596 . S
C460 C199 1.572 . S
C473 C354 1.624 . S
C471 C231 1.611 . S
C484 C284 1.618 . S
C482 C1 1.601 . S
C493 C22 1.491 . S
C495 C299 1.482 . S
C504 C68 1.492 . S
C506 C311 1.483 . S
C517 C325 1.470 . S
C515 C107 1.493 . S
C526 C146 1.494 . S
C528 C341 1.482 . S
C539 C353 1.483 . S
C537 C192 1.497 . S
C550 C283 1.467 . S
C548 C252 1.493 . S
C561 C355 1.488 . S
C559 C54 1.504 . S
C570 C93 1.503 . S
C572 C285 1.493 . S
C583 C297 1.479 . S
C581 C160 1.498 . S
C592 C206 1.501 . S
C594 C313 1.487 . S
C603 C238 1.501 . S
C605 C327 1.492 . S
C614 C8 1.498 . S
C616 C339 1.480 . S
