# Generated by pormake.
# Topology cml, (3,6)-cn, num edge types: 1
# Building blocks:
#     Node 0, Type 0, BuildingBlock: MIDCAF_clean_linker_0, # of connection points: 3
#     Node 1, Type 0, BuildingBlock: MIDCAF_clean_linker_0, # of connection points: 3
#     Node 2, Type 0, BuildingBlock: MIDCAF_clean_linker_0, # of connection points: 3
#     Node 3, Type 0, BuildingBlock: MIDCAF_clean_linker_0, # of connection points: 3
#     Node 4, Type 0, BuildingBlock: MIDCAF_clean_linker_0, # of connection points: 3
#     Node 5, Type 0, BuildingBlock: MIDCAF_clean_linker_0, # of connection points: 3
#     Node 6, Type 0, BuildingBlock: MIDCAF_clean_linker_0, # of connection points: 3
#     Node 7, Type 0, BuildingBlock: MIDCAF_clean_linker_0, # of connection points: 3
#     Node 8, Type 1, BuildingBlock: IZENUY_clean_sbu_0, # of connection points: 6
#     Node 9, Type 1, BuildingBlock: IZENUY_clean_sbu_0, # of connection points: 6
#     Node 10, Type 1, BuildingBlock: IZENUY_clean_sbu_0, # of connection points: 6
#     Node 11, Type 1, BuildingBlock: IZENUY_clean_sbu_0, # of connection points: 6
#     Edge 12, Type (0, 1), BuildingBlock: MIFKUJ_clean_linker_0, # of connection points: 2
#     Edge 13, Type (0, 1), BuildingBlock: MIFKUJ_clean_linker_0, # of connection points: 2
#     Edge 14, Type (0, 1), BuildingBlock: MIFKUJ_clean_linker_0, # of connection points: 2
#     Edge 15, Type (0, 1), BuildingBlock: MIFKUJ_clean_linker_0, # of connection points: 2
#     Edge 16, Type (0, 1), BuildingBlock: MIFKUJ_clean_linker_0, # of connection points: 2
#     Edge 17, Type (0, 1), BuildingBlock: MIFKUJ_clean_linker_0, # of connection points: 2
#     Edge 18, Type (0, 1), BuildingBlock: MIFKUJ_clean_linker_0, # of connection points: 2
#     Edge 19, Type (0, 1), BuildingBlock: MIFKUJ_clean_linker_0, # of connection points: 2
#     Edge 20, Type (0, 1), BuildingBlock: MIFKUJ_clean_linker_0, # of connection points: 2
#     Edge 21, Type (0, 1), BuildingBlock: MIFKUJ_clean_linker_0, # of connection points: 2
#     Edge 22, Type (0, 1), BuildingBlock: MIFKUJ_clean_linker_0, # of connection points: 2
#     Edge 23, Type (0, 1), BuildingBlock: MIFKUJ_clean_linker_0, # of connection points: 2
#     Edge 24, Type (0, 1), BuildingBlock: MIFKUJ_clean_linker_0, # of connection points: 2
#     Edge 25, Type (0, 1), BuildingBlock: MIFKUJ_clean_linker_0, # of connection points: 2
#     Edge 26, Type (0, 1), BuildingBlock: MIFKUJ_clean_linker_0, # of connection points: 2
#     Edge 27, Type (0, 1), BuildingBlock: MIFKUJ_clean_linker_0, # of connection points: 2
#     Edge 28, Type (0, 1), BuildingBlock: MIFKUJ_clean_linker_0, # of connection points: 2
#     Edge 29, Type (0, 1), BuildingBlock: MIFKUJ_clean_linker_0, # of connection points: 2
#     Edge 30, Type (0, 1), BuildingBlock: MIFKUJ_clean_linker_0, # of connection points: 2
#     Edge 31, Type (0, 1), BuildingBlock: MIFKUJ_clean_linker_0, # of connection points: 2
#     Edge 32, Type (0, 1), BuildingBlock: MIFKUJ_clean_linker_0, # of connection points: 2
#     Edge 33, Type (0, 1), BuildingBlock: MIFKUJ_clean_linker_0, # of connection points: 2
#     Edge 34, Type (0, 1), BuildingBlock: MIFKUJ_clean_linker_0, # of connection points: 2
#     Edge 35, Type (0, 1), BuildingBlock: MIFKUJ_clean_linker_0, # of connection points: 2
# Relax obj value: 0.057
# Max RMSD: 0.072
# Mean RMSD: 0.069
data_MOF--net-cml--node1-IZENUY_clean_sbu_0--node2-MIDCAF_clean_linker_0--edge1-MIFKUJ_clean_linker_0
_symmetry_space_group_name_H-M    P1
_symmetry_Int_Tables_number       1
_symmetry_cell_setting            triclinic
loop_
_symmetry_equiv_pos_as_xyz
'x, y, z'
_cell_length_a     53.576891
_cell_length_b     62.294334
_cell_length_c     58.030234
_cell_angle_alpha  89.997564
_cell_angle_beta   90.018554
_cell_angle_gamma 90.199798
loop_
_atom_site_label
_atom_site_type_symbol
_atom_site_fract_x
_atom_site_fract_y
_atom_site_fract_z
_atom_type_partial_charge
C0 C 0.32755 0.38451 0.08478 0.0
C1 C 0.31719 0.36754 0.09758 0.0
C2 C 0.29695 0.35603 0.08823 0.0
C3 C 0.28721 0.36152 0.0666 0.0
H4 H 0.22825 0.34991 0.01873 0.0
H5 H 0.19726 0.32767 0.99931 0.0
H6 H 0.21967 0.35454 0.93377 0.0
H7 H 0.24977 0.37739 0.95327 0.0
H8 H 0.26998 0.43196 0.96359 0.0
H9 H 0.28957 0.4628 0.9444 0.0
H10 H 0.35525 0.45487 0.98657 0.0
H11 H 0.33578 0.42442 0.00593 0.0
H12 H 0.32655 0.40315 0.05405 0.0
H13 H 0.3435 0.39342 0.09119 0.0
H14 H 0.28847 0.34294 0.09773 0.0
H15 H 0.27158 0.3524 0.05989 0.0
N16 N 0.26925 0.37312 0.02058 0.0
N17 N 0.27117 0.39575 0.98819 0.0
N18 N 0.2979 0.40158 0.01949 0.0
C19 C 0.26088 0.37858 0.99921 0.0
C20 C 0.28968 0.40733 0.99829 0.0
C21 C 0.28781 0.3846 0.03083 0.0
C22 C 0.24151 0.36544 0.98758 0.0
C23 C 0.22646 0.35114 0.00018 0.0
C24 C 0.20877 0.33827 0.989 0.0
C25 C 0.20595 0.33918 0.9649 0.0
C26 C 0.22093 0.35363 0.95236 0.0
C27 C 0.23835 0.36669 0.96357 0.0
C28 C 0.30132 0.42577 0.98628 0.0
C29 C 0.28861 0.43679 0.96871 0.0
C30 C 0.29972 0.45447 0.95782 0.0
C31 C 0.3239 0.46108 0.964 0.0
C32 C 0.33665 0.44996 0.98139 0.0
C33 C 0.32542 0.4326 0.99254 0.0
C34 C 0.29759 0.3786 0.05388 0.0
C35 C 0.31787 0.39 0.06331 0.0
C36 C 0.67692 0.61313 0.5862 0.0
C37 C 0.68102 0.63371 0.59538 0.0
C38 C 0.69739 0.64775 0.58385 0.0
C39 C 0.70874 0.64157 0.56318 0.0
H40 H 0.7666 0.65585 0.51757 0.0
H41 H 0.79579 0.67976 0.49827 0.0
H42 H 0.78468 0.64512 0.43455 0.0
H43 H 0.75598 0.62075 0.454 0.0
H44 H 0.73334 0.56913 0.46229 0.0
H45 H 0.7145 0.53818 0.44262 0.0
H46 H 0.65115 0.54131 0.48837 0.0
H47 H 0.66981 0.57183 0.50814 0.0
H48 H 0.68418 0.59109 0.55889 0.0
H49 H 0.66487 0.60174 0.59492 0.0
H50 H 0.70083 0.66377 0.5904 0.0
H51 H 0.72078 0.65295 0.55444 0.0
N52 N 0.73168 0.62747 0.52027 0.0
N53 N 0.73144 0.60435 0.48829 0.0
N54 N 0.70539 0.5974 0.51987 0.0
C55 C 0.74045 0.62221 0.49902 0.0
C56 C 0.71388 0.59187 0.49867 0.0
C57 C 0.71421 0.61509 0.53085 0.0
C58 C 0.75885 0.63635 0.48735 0.0
C59 C 0.77039 0.65324 0.49945 0.0
C60 C 0.78704 0.66709 0.48834 0.0
C61 C 0.79248 0.66449 0.46481 0.0
C62 C 0.78115 0.64746 0.45275 0.0
C63 C 0.76459 0.63351 0.46391 0.0
C64 C 0.70308 0.57296 0.48677 0.0
C65 C 0.71542 0.56317 0.46816 0.0
C66 C 0.70474 0.54543 0.45698 0.0
C67 C 0.68136 0.53751 0.46395 0.0
C68 C 0.6691 0.54725 0.48255 0.0
C69 C 0.6799 0.56467 0.49393 0.0
C70 C 0.70388 0.62123 0.55359 0.0
C71 C 0.68813 0.60699 0.56556 0.0
C72 C 0.67 0.3861 0.0789 0.0
C73 C 0.67987 0.36913 0.09193 0.0
C74 C 0.70058 0.35788 0.08338 0.0
C75 C 0.71086 0.36323 0.06194 0.0
H76 H 0.76338 0.34467 0.01365 0.0
H77 H 0.79337 0.32111 0.99509 0.0
H78 H 0.78429 0.35592 0.93125 0.0
H79 H 0.75477 0.37987 0.94989 0.0
H80 H 0.72595 0.42562 0.95182 0.0
H81 H 0.70775 0.45613 0.93153 0.0
H82 H 0.65153 0.46161 0.98457 0.0
H83 H 0.66996 0.43177 0.00508 0.0
H84 H 0.67203 0.40463 0.04809 0.0
H85 H 0.65432 0.39531 0.08523 0.0
H86 H 0.70851 0.34469 0.09305 0.0
H87 H 0.72663 0.35409 0.05569 0.0
N88 N 0.7289 0.37333 0.01579 0.0
N89 N 0.7282 0.39532 0.98291 0.0
N90 N 0.70176 0.40265 0.01403 0.0
C91 C 0.73763 0.37809 0.99436 0.0
C92 C 0.71027 0.40771 0.99269 0.0
C93 C 0.71095 0.38556 0.02574 0.0
C94 C 0.75654 0.36418 0.98328 0.0
C95 C 0.7678 0.34739 0.99567 0.0
C96 C 0.78492 0.33377 0.98499 0.0
C97 C 0.79113 0.33653 0.96164 0.0
C98 C 0.78014 0.35348 0.94933 0.0
C99 C 0.76309 0.36717 0.96003 0.0
C100 C 0.69951 0.42624 0.98015 0.0
C101 C 0.70975 0.43339 0.95918 0.0
C102 C 0.69926 0.45083 0.94748 0.0
C103 C 0.67825 0.46141 0.95647 0.0
C104 C 0.66801 0.45416 0.97737 0.0
C105 C 0.67854 0.43689 0.98909 0.0
C106 C 0.70075 0.38006 0.04876 0.0
C107 C 0.68032 0.39152 0.05763 0.0
C108 C 0.33062 0.61545 0.57992 0.0
C109 C 0.3169 0.62773 0.59565 0.0
C110 C 0.29229 0.63356 0.59028 0.0
C111 C 0.28177 0.62758 0.56913 0.0
H112 H 0.22909 0.6473 0.51843 0.0
H113 H 0.19952 0.67079 0.49906 0.0
H114 H 0.21797 0.64142 0.43379 0.0
H115 H 0.24679 0.61746 0.4532 0.0
H116 H 0.28486 0.57851 0.4515 0.0
H117 H 0.30542 0.54931 0.43108 0.0
H118 H 0.33157 0.52378 0.49599 0.0
H119 H 0.31187 0.55332 0.51625 0.0
H120 H 0.33116 0.59972 0.54724 0.0
H121 H 0.3496 0.61069 0.58381 0.0
H122 H 0.28142 0.64306 0.60224 0.0
H123 H 0.26287 0.63249 0.56519 0.0
N124 N 0.26716 0.62138 0.52053 0.0
N125 N 0.26849 0.59934 0.48772 0.0
N126 N 0.29434 0.59199 0.51927 0.0
C127 C 0.25884 0.61656 0.49898 0.0
C128 C 0.28607 0.58687 0.49786 0.0
C129 C 0.28502 0.60918 0.5307 0.0
C130 C 0.24034 0.63049 0.48739 0.0
C131 C 0.22677 0.6458 0.49995 0.0
C132 C 0.20991 0.65937 0.48882 0.0
C133 C 0.20641 0.65809 0.46482 0.0
C134 C 0.21987 0.64266 0.45232 0.0
C135 C 0.23653 0.62896 0.46348 0.0
C136 C 0.29694 0.56837 0.48548 0.0
C137 C 0.29489 0.56659 0.46141 0.0
C138 C 0.30659 0.54978 0.44971 0.0
C139 C 0.32037 0.53428 0.46186 0.0
C140 C 0.32164 0.53571 0.48601 0.0
C141 C 0.31021 0.55261 0.49766 0.0
C142 C 0.29555 0.61525 0.55334 0.0
C143 C 0.31999 0.60909 0.55907 0.0
C144 C 0.82819 0.8907 0.08351 0.0
C145 C 0.82188 0.87129 0.09442 0.0
C146 C 0.80388 0.85789 0.08417 0.0
C147 C 0.79289 0.86355 0.06317 0.0
H148 H 0.75356 0.83781 0.00785 0.0
H149 H 0.72515 0.81328 0.98841 0.0
H150 H 0.70135 0.86469 0.94349 0.0
H151 H 0.7306 0.88897 0.96231 0.0
H152 H 0.77251 0.9264 0.95452 0.0
H153 H 0.78943 0.95684 0.93324 0.0
H154 H 0.84046 0.97 0.98917 0.0
H155 H 0.82329 0.93994 0.01069 0.0
H156 H 0.82278 0.91137 0.05459 0.0
H157 H 0.84169 0.90155 0.09116 0.0
H158 H 0.79877 0.84274 0.09205 0.0
H159 H 0.7794 0.85266 0.05559 0.0
N160 N 0.77194 0.87519 0.01894 0.0
N161 N 0.77012 0.89817 0.98697 0.0
N162 N 0.7965 0.90638 0.01798 0.0
C163 C 0.7624 0.88004 0.99789 0.0
C164 C 0.78722 0.91142 0.99687 0.0
C165 C 0.7889 0.88835 0.02919 0.0
C166 C 0.74439 0.86534 0.98661 0.0
C167 C 0.74221 0.8439 0.99386 0.0
C168 C 0.7258 0.82983 0.98276 0.0
C169 C 0.71089 0.83694 0.96433 0.0
C170 C 0.71286 0.8585 0.9573 0.0
C171 C 0.72953 0.87249 0.96821 0.0
C172 C 0.79656 0.9306 0.98434 0.0
C173 C 0.78723 0.93585 0.96239 0.0
C174 C 0.79701 0.95324 0.9501 0.0
C175 C 0.81635 0.96582 0.95946 0.0
C176 C 0.82535 0.96083 0.98157 0.0
C177 C 0.81557 0.94346 0.99387 0.0
C178 C 0.79964 0.88276 0.05197 0.0
C179 C 0.81723 0.89637 0.06255 0.0
C180 C 0.17382 0.11421 0.58174 0.0
C181 C 0.18716 0.12721 0.59721 0.0
C182 C 0.21123 0.13426 0.5913 0.0
C183 C 0.22163 0.12868 0.57002 0.0
H184 H 0.25631 0.15892 0.5108 0.0
H185 H 0.28496 0.18294 0.49103 0.0
H186 H 0.30684 0.13117 0.44577 0.0
H187 H 0.2773 0.10738 0.46496 0.0
H188 H 0.22847 0.07386 0.45525 0.0
H189 H 0.21045 0.04313 0.43504 0.0
H190 H 0.17181 0.02424 0.49714 0.0
H191 H 0.18986 0.0547 0.51743 0.0
H192 H 0.1736 0.09821 0.54915 0.0
H193 H 0.15528 0.10848 0.58602 0.0
H194 H 0.22181 0.14435 0.60299 0.0
H195 H 0.24016 0.13446 0.56578 0.0
N196 N 0.23669 0.12213 0.52187 0.0
N197 N 0.2378 0.09889 0.49004 0.0
N198 N 0.21095 0.09165 0.52098 0.0
C199 C 0.2461 0.11692 0.50086 0.0
C200 C 0.22024 0.08614 0.50004 0.0
C201 C 0.21913 0.10954 0.53203 0.0
C202 C 0.26446 0.13122 0.48944 0.0
C203 C 0.26729 0.15261 0.49669 0.0
C204 C 0.28387 0.16639 0.48539 0.0
C205 C 0.2983 0.15906 0.46675 0.0
C206 C 0.29572 0.13753 0.45975 0.0
C207 C 0.27888 0.12382 0.47086 0.0
C208 C 0.21053 0.06686 0.48796 0.0
C209 C 0.2163 0.06307 0.46467 0.0
C210 C 0.20589 0.04553 0.45304 0.0
C211 C 0.18969 0.03131 0.46449 0.0
C212 C 0.18443 0.03478 0.4879 0.0
C213 C 0.19467 0.05237 0.49948 0.0
C214 C 0.20832 0.11555 0.55456 0.0
C215 C 0.18438 0.10826 0.56072 0.0
C216 C 0.18259 0.89346 0.08567 0.0
C217 C 0.18628 0.87256 0.09404 0.0
C218 C 0.20045 0.85809 0.08092 0.0
C219 C 0.21068 0.8644 0.0598 0.0
H220 H 0.25212 0.84277 0.00471 0.0
H221 H 0.2802 0.81911 0.9837 0.0
H222 H 0.30105 0.87151 0.93891 0.0
H223 H 0.27288 0.89533 0.95985 0.0
H224 H 0.23999 0.94022 0.96323 0.0
H225 H 0.2224 0.97141 0.94331 0.0
H226 H 0.15716 0.96811 0.98673 0.0
H227 H 0.17468 0.93731 0.00691 0.0
H228 H 0.1892 0.91591 0.05852 0.0
H229 H 0.1715 0.90488 0.09528 0.0
H230 H 0.20374 0.84192 0.08705 0.0
H231 H 0.22143 0.85282 0.05008 0.0
N232 N 0.23349 0.87922 0.01729 0.0
N233 N 0.23515 0.90396 0.98682 0.0
N234 N 0.20931 0.91045 0.01865 0.0
C235 C 0.24276 0.88519 0.99644 0.0
C236 C 0.21834 0.91662 0.99781 0.0
C237 C 0.2169 0.89186 0.02859 0.0
C238 C 0.26024 0.87097 0.98397 0.0
C239 C 0.26271 0.84932 0.99043 0.0
C240 C 0.27864 0.8357 0.97831 0.0
C241 C 0.29267 0.84348 0.95965 0.0
C242 C 0.29049 0.86515 0.95331 0.0
C243 C 0.27429 0.87873 0.96525 0.0
C244 C 0.2087 0.93625 0.9866 0.0
C245 C 0.22199 0.94626 0.96864 0.0
C246 C 0.21203 0.96413 0.95732 0.0
C247 C 0.18844 0.97197 0.96348 0.0
C248 C 0.17534 0.96222 0.98162 0.0
C249 C 0.18546 0.94466 0.99321 0.0
C250 C 0.20671 0.88525 0.05126 0.0
C251 C 0.19261 0.89972 0.06449 0.0
C252 C 0.81559 0.10374 0.58739 0.0
C253 C 0.81586 0.12478 0.5962 0.0
C254 C 0.80614 0.14143 0.58252 0.0
C255 C 0.79703 0.13721 0.56037 0.0
H256 H 0.75208 0.16183 0.50792 0.0
H257 H 0.72519 0.18669 0.48722 0.0
H258 H 0.72271 0.14311 0.42934 0.0
H259 H 0.75002 0.11851 0.44968 0.0
H260 H 0.7922 0.08243 0.44754 0.0
H261 H 0.81128 0.05248 0.42741 0.0
H262 H 0.8321 0.02431 0.49269 0.0
H263 H 0.81379 0.05468 0.51283 0.0
H264 H 0.80726 0.08322 0.55886 0.0
H265 H 0.82234 0.09042 0.5976 0.0
H266 H 0.8063 0.15787 0.58859 0.0
H267 H 0.79023 0.15048 0.55011 0.0
N268 N 0.77566 0.12633 0.51553 0.0
N269 N 0.77742 0.10462 0.48256 0.0
N270 N 0.7979 0.09397 0.51632 0.0
C271 C 0.76916 0.12267 0.49322 0.0
C272 C 0.79179 0.0902 0.49396 0.0
C273 C 0.78996 0.112 0.52722 0.0
C274 C 0.75321 0.1381 0.48054 0.0
C275 C 0.7459 0.15756 0.49075 0.0
C276 C 0.73038 0.17179 0.47891 0.0
C277 C 0.72175 0.16688 0.45663 0.0
C278 C 0.7293 0.14755 0.44633 0.0
C279 C 0.74486 0.13336 0.45812 0.0
C280 C 0.80164 0.07109 0.48182 0.0
C281 C 0.80068 0.06979 0.45764 0.0
C282 C 0.81152 0.05251 0.44607 0.0
C283 C 0.82339 0.036 0.45839 0.0
C284 C 0.82358 0.03695 0.48261 0.0
C285 C 0.81295 0.05433 0.49419 0.0
C286 C 0.79771 0.1163 0.5513 0.0
C287 C 0.80679 0.09958 0.56518 0.0
Fe288 Fe 0.00345 0.8128 0.31999 0.0
Fe289 Fe 0.00426 0.83829 0.36531 0.0
O290 O 0.00439 0.83765 0.33484 0.0
Fe291 Fe 0.00544 0.862 0.31916 0.0
O292 O 0.98757 0.85187 0.29443 0.0
O293 O 0.97466 0.82 0.30539 0.0
O294 O 0.9841 0.79911 0.34164 0.0
C295 C 0.97016 0.80639 0.35743 0.0
C296 C 0.03802 0.83779 0.29429 0.0
O297 O 0.97453 0.8244 0.36652 0.0
C298 C 0.03796 0.87011 0.35666 0.0
O299 O 0.03202 0.80379 0.33354 0.0
O300 O 0.02179 0.81331 0.36879 0.0
O301 O 0.03474 0.8546 0.30598 0.0
O302 O 0.02286 0.82214 0.29575 0.0
C303 C 0.97273 0.87295 0.353 0.0
O304 O 0.034 0.85225 0.36621 0.0
O305 O 0.02372 0.87672 0.34079 0.0
C306 C 0.0357 0.80317 0.35498 0.0
O307 O 0.98678 0.86348 0.3673 0.0
O308 O 0.97611 0.87088 0.33159 0.0
C309 C 0.97249 0.83629 0.29269 0.0
Fe310 Fe 0.00014 0.16101 0.8654 0.0
Fe311 Fe 0.00243 0.13618 0.82002 0.0
O312 O 0.00099 0.16089 0.83496 0.0
Fe313 Fe 0.00046 0.18533 0.8193 0.0
O314 O 0.0289 0.19471 0.83302 0.0
O315 O 0.01803 0.186 0.86841 0.0
O316 O 0.02975 0.14703 0.86727 0.0
C317 C 0.03381 0.12899 0.85827 0.0
C318 C 0.96667 0.19285 0.85606 0.0
O319 O 0.01978 0.1219 0.84248 0.0
C320 C 0.96967 0.16079 0.79264 0.0
O321 O 0.98196 0.13599 0.86768 0.0
O322 O 0.97277 0.12755 0.83184 0.0
O323 O 0.98092 0.19967 0.84024 0.0
O324 O 0.97064 0.17505 0.86567 0.0
C325 C 0.03557 0.1599 0.79517 0.0
O326 O 0.98524 0.14568 0.79471 0.0
O327 O 0.97183 0.1776 0.80459 0.0
C328 C 0.96817 0.12642 0.85313 0.0
O329 O 0.03221 0.14345 0.80746 0.0
O330 O 0.02014 0.17531 0.7956 0.0
C331 C 0.03226 0.19582 0.85451 0.0
Fe332 Fe 0.50339 0.31364 0.32124 0.0
Fe333 Fe 0.50436 0.3373 0.36774 0.0
O334 O 0.50334 0.33787 0.33727 0.0
Fe335 Fe 0.5024 0.36286 0.32287 0.0
O336 O 0.48415 0.3531 0.29832 0.0
O337 O 0.47392 0.32004 0.30743 0.0
O338 O 0.48515 0.29842 0.34265 0.0
C339 C 0.47149 0.30463 0.35922 0.0
C340 C 0.53566 0.34119 0.29599 0.0
O341 O 0.47548 0.32231 0.36916 0.0
C342 C 0.53589 0.37075 0.35966 0.0
O343 O 0.53288 0.30542 0.33375 0.0
O344 O 0.52295 0.31274 0.36958 0.0
O345 O 0.5316 0.3574 0.30845 0.0
O346 O 0.52163 0.32476 0.2971 0.0
C347 C 0.4704 0.3709 0.35807 0.0
O348 O 0.53352 0.35227 0.36826 0.0
O349 O 0.52054 0.37743 0.34473 0.0
C350 C 0.53701 0.3037 0.35505 0.0
O351 O 0.48571 0.36177 0.37151 0.0
O352 O 0.4731 0.36972 0.33653 0.0
C353 C 0.46989 0.33699 0.29621 0.0
Fe354 Fe 0.49951 0.66219 0.86745 0.0
Fe355 Fe 0.49783 0.63829 0.82141 0.0
O356 O 0.4989 0.66269 0.83699 0.0
Fe357 Fe 0.49924 0.68743 0.822 0.0
O358 O 0.51882 0.70148 0.84324 0.0
O359 O 0.5289 0.67648 0.86831 0.0
O360 O 0.51773 0.63731 0.86919 0.0
C361 C 0.53168 0.62808 0.85459 0.0
C362 C 0.46747 0.69709 0.85736 0.0
O363 O 0.52752 0.62982 0.83325 0.0
C364 C 0.46457 0.66205 0.79692 0.0
O365 O 0.47 0.64777 0.8688 0.0
O366 O 0.48056 0.62333 0.84347 0.0
O367 O 0.47068 0.69607 0.83586 0.0
O368 O 0.48167 0.68705 0.87104 0.0
C369 C 0.53001 0.66415 0.79441 0.0
O370 O 0.46803 0.64536 0.8088 0.0
O371 O 0.47967 0.67774 0.79806 0.0
C372 C 0.46663 0.62964 0.85967 0.0
O373 O 0.51497 0.64855 0.79632 0.0
O374 O 0.52788 0.68046 0.80709 0.0
C375 C 0.533 0.69441 0.85896 0.0
H376 H 0.19377 0.29744 0.97536 0.0
H377 H 0.16479 0.27381 0.95523 0.0
H378 H 0.14948 0.32391 0.90592 0.0
H379 H 0.1771 0.34821 0.92693 0.0
H380 H 0.10822 0.30473 0.91575 0.0
H381 H 0.18896 0.28031 0.89369 0.0
H382 H 0.2322 0.26788 0.89918 0.0
H383 H 0.20552 0.21277 0.93629 0.0
H384 H 0.16212 0.22503 0.9313 0.0
H385 H 0.05301 0.23143 0.83436 0.0
H386 H 0.08357 0.25621 0.85146 0.0
H387 H 0.08628 0.21711 0.91272 0.0
H388 H 0.05545 0.19256 0.89601 0.0
H389 H 0.13463 0.23118 0.894 0.0
H390 H 0.05332 0.25808 0.91652 0.0
H391 H 0.01062 0.27078 0.9086 0.0
H392 H 0.03999 0.32198 0.86701 0.0
H393 H 0.08288 0.30936 0.87439 0.0
C394 C 0.18395 0.30363 0.96048 0.0
C395 C 0.18793 0.32479 0.95278 0.0
C396 C 0.16764 0.28993 0.94873 0.0
C397 C 0.15534 0.29689 0.92872 0.0
C398 C 0.1589 0.31809 0.9212 0.0
C399 C 0.17495 0.33191 0.93312 0.0
C400 C 0.1386 0.28209 0.91578 0.0
C401 C 0.1142 0.28879 0.91069 0.0
C402 C 0.14621 0.26116 0.90929 0.0
C403 C 0.17229 0.2537 0.91229 0.0
C404 C 0.19232 0.26562 0.90317 0.0
C405 C 0.21686 0.2586 0.90617 0.0
C406 C 0.22161 0.23957 0.91812 0.0
C407 C 0.20182 0.22751 0.92706 0.0
C408 C 0.17724 0.23448 0.92413 0.0
C409 C 0.06026 0.22806 0.8514 0.0
C410 C 0.05176 0.21016 0.86393 0.0
C411 C 0.07763 0.24222 0.86114 0.0
C412 C 0.08703 0.23846 0.88335 0.0
C413 C 0.0792 0.22024 0.89556 0.0
C414 C 0.06152 0.20632 0.88604 0.0
C415 C 0.10445 0.25385 0.89428 0.0
C416 C 0.12889 0.24722 0.89896 0.0
C417 C 0.09702 0.27492 0.90005 0.0
C418 C 0.07128 0.28262 0.89578 0.0
C419 C 0.05066 0.27192 0.90551 0.0
C420 C 0.02643 0.27913 0.90115 0.0
C421 C 0.02259 0.29713 0.88725 0.0
C422 C 0.04299 0.30801 0.87774 0.0
C423 C 0.06726 0.30084 0.88201 0.0
H424 H 0.00382 0.30269 0.8839 0.0
H425 H 0.24062 0.23416 0.92042 0.0
H426 H 0.82782 0.65507 0.43218 0.0
H427 H 0.85642 0.67983 0.41294 0.0
H428 H 0.82587 0.73257 0.45187 0.0
H429 H 0.79635 0.70807 0.47036 0.0
H430 H 0.83317 0.74441 0.40861 0.0
H431 H 0.88194 0.70953 0.46659 0.0
H432 H 0.89959 0.67895 0.48801 0.0
H433 H 0.93595 0.6568 0.42657 0.0
H434 H 0.91823 0.6871 0.40469 0.0
H435 H 0.93499 0.81692 0.38978 0.0
H436 H 0.90355 0.79331 0.407 0.0
H437 H 0.92871 0.74104 0.36428 0.0
H438 H 0.96024 0.76442 0.34702 0.0
H439 H 0.92409 0.72956 0.40976 0.0
H440 H 0.8747 0.76525 0.35205 0.0
H441 H 0.85795 0.79685 0.33174 0.0
H442 H 0.82379 0.8187 0.39437 0.0
H443 H 0.84058 0.78732 0.41513 0.0
C444 C 0.82693 0.67197 0.43645 0.0
C445 C 0.80985 0.67954 0.45293 0.0
C446 C 0.84349 0.68609 0.42561 0.0
C447 C 0.84357 0.70802 0.43123 0.0
C448 C 0.82625 0.7157 0.44734 0.0
C449 C 0.80956 0.70162 0.45809 0.0
C450 C 0.86187 0.72289 0.42047 0.0
C451 C 0.85307 0.74129 0.40912 0.0
C452 C 0.88783 0.7187 0.42084 0.0
C453 C 0.89854 0.70046 0.43395 0.0
C454 C 0.89353 0.69804 0.4576 0.0
C455 C 0.90358 0.68077 0.46983 0.0
C456 C 0.91883 0.66591 0.45864 0.0
C457 C 0.92411 0.66831 0.4352 0.0
C458 C 0.91408 0.68553 0.42288 0.0
C459 C 0.93377 0.80043 0.38395 0.0
C460 C 0.9502 0.79255 0.36706 0.0
C461 C 0.91573 0.78699 0.39376 0.0
C462 C 0.91377 0.76546 0.38684 0.0
C463 C 0.92996 0.75761 0.36986 0.0
C464 C 0.94791 0.77103 0.35997 0.0
C465 C 0.89535 0.7509 0.39778 0.0
C466 C 0.90417 0.73262 0.40924 0.0
C467 C 0.86948 0.75531 0.39767 0.0
C468 C 0.85906 0.77403 0.38518 0.0
C469 C 0.86374 0.77686 0.36152 0.0
C470 C 0.85422 0.79471 0.34992 0.0
C471 C 0.83984 0.80978 0.36176 0.0
C472 C 0.83492 0.80701 0.38523 0.0
C473 C 0.8444 0.78917 0.39691 0.0
H474 H 0.83247 0.82358 0.35273 0.0
H475 H 0.92659 0.65255 0.46815 0.0
H476 H 0.79412 0.29293 0.96667 0.0
H477 H 0.82323 0.26839 0.94796 0.0
H478 H 0.85657 0.32148 0.91137 0.0
H479 H 0.8278 0.34625 0.93033 0.0
H480 H 0.84763 0.28649 0.88326 0.0
H481 H 0.88607 0.30087 0.95658 0.0
H482 H 0.8877 0.30329 0.99897 0.0
H483 H 0.87188 0.23586 0.00432 0.0
H484 H 0.8698 0.23309 0.96194 0.0
H485 H 0.95855 0.23514 0.84593 0.0
H486 H 0.92751 0.25897 0.86287 0.0
H487 H 0.89875 0.20649 0.90362 0.0
H488 H 0.93013 0.18262 0.88714 0.0
H489 H 0.90472 0.24101 0.92945 0.0
H490 H 0.8669 0.22607 0.85643 0.0
H491 H 0.86499 0.22326 0.81408 0.0
H492 H 0.87889 0.29095 0.808 0.0
H493 H 0.88126 0.29412 0.85032 0.0
C494 C 0.80783 0.29945 0.95485 0.0
C495 C 0.80872 0.32159 0.95011 0.0
C496 C 0.82436 0.28538 0.94409 0.0
C497 C 0.84216 0.29316 0.92843 0.0
C498 C 0.84292 0.31517 0.92338 0.0
C499 C 0.82642 0.32928 0.93418 0.0
C500 C 0.86009 0.2783 0.91742 0.0
C501 C 0.86035 0.27672 0.8933 0.0
C502 C 0.87619 0.2652 0.93061 0.0
C503 C 0.87753 0.26682 0.95609 0.0
C504 C 0.88273 0.28659 0.9668 0.0
C505 C 0.88378 0.28802 0.99082 0.0
C506 C 0.87983 0.26975 0.00433 0.0
C507 C 0.8749 0.25 0.99383 0.0
C508 C 0.8738 0.24849 0.96981 0.0
C509 C 0.9455 0.2286 0.85835 0.0
C510 C 0.94685 0.20697 0.86521 0.0
C511 C 0.92769 0.24224 0.86797 0.0
C512 C 0.91064 0.23447 0.88436 0.0
C513 C 0.91174 0.21283 0.89102 0.0
C514 C 0.92965 0.1992 0.88154 0.0
C515 C 0.89229 0.2491 0.89522 0.0
C516 C 0.89196 0.25069 0.91934 0.0
C517 C 0.87606 0.26212 0.88202 0.0
C518 C 0.87448 0.26029 0.85655 0.0
C519 C 0.86974 0.24033 0.84606 0.0
C520 C 0.86855 0.23868 0.82206 0.0
C521 C 0.87188 0.25691 0.80836 0.0
C522 C 0.87634 0.27684 0.81863 0.0
C523 C 0.87759 0.27858 0.84263 0.0
H524 H 0.87095 0.2556 0.78978 0.0
H525 H 0.88065 0.27089 0.02292 0.0
H526 H 0.19859 0.70076 0.47373 0.0
H527 H 0.16998 0.72513 0.45409 0.0
H528 H 0.14719 0.67402 0.40855 0.0
H529 H 0.17509 0.64926 0.42856 0.0
H530 H 0.15845 0.71381 0.38602 0.0
H531 H 0.10947 0.68655 0.44957 0.0
H532 H 0.10135 0.67853 0.49051 0.0
H533 H 0.10785 0.7455 0.50707 0.0
H534 H 0.11637 0.75388 0.46626 0.0
H535 H 0.05263 0.76534 0.33713 0.0
H536 H 0.08238 0.74057 0.35477 0.0
H537 H 0.09276 0.78469 0.41141 0.0
H538 H 0.06199 0.80883 0.39445 0.0
H539 H 0.08814 0.74753 0.42804 0.0
H540 H 0.13763 0.77597 0.3663 0.0
H541 H 0.14763 0.78544 0.32607 0.0
H542 H 0.14297 0.71901 0.30672 0.0
H543 H 0.13261 0.70917 0.34679 0.0
C544 C 0.18726 0.69457 0.45976 0.0
C545 C 0.18909 0.67299 0.45282 0.0
C546 C 0.17107 0.70858 0.44846 0.0
C547 C 0.15648 0.70131 0.42995 0.0
C548 C 0.15842 0.67992 0.42274 0.0
C549 C 0.17445 0.66583 0.43417 0.0
C550 C 0.13893 0.71604 0.41833 0.0
C551 C 0.14286 0.72104 0.39505 0.0
C552 C 0.1191 0.72583 0.43039 0.0
C553 C 0.11379 0.72081 0.4549 0.0
C554 C 0.10936 0.69955 0.46197 0.0
C555 C 0.10465 0.69494 0.48515 0.0
C556 C 0.10415 0.71149 0.50139 0.0
C557 C 0.10828 0.73269 0.49448 0.0
C558 C 0.11302 0.73738 0.47133 0.0
C559 C 0.06145 0.76977 0.35325 0.0
C560 C 0.05503 0.78893 0.36448 0.0
C561 C 0.07855 0.75567 0.36327 0.0
C562 C 0.09011 0.76084 0.38433 0.0
C563 C 0.08405 0.78026 0.39524 0.0
C564 C 0.06653 0.79407 0.38552 0.0
C565 C 0.10768 0.74568 0.39559 0.0
C566 C 0.10372 0.74046 0.41887 0.0
C567 C 0.12775 0.736 0.38359 0.0
C568 C 0.13411 0.74186 0.35951 0.0
C569 C 0.13857 0.7634 0.35343 0.0
C570 C 0.14433 0.76883 0.33067 0.0
C571 C 0.14587 0.75284 0.31384 0.0
C572 C 0.14174 0.73138 0.31977 0.0
C573 C 0.13595 0.72587 0.34251 0.0
H574 H 0.15033 0.75708 0.29623 0.0
H575 H 0.1005 0.70789 0.51933 0.0
H576 H 0.69947 0.83513 0.91821 0.0
H577 H 0.67032 0.81079 0.89895 0.0
H578 H 0.65455 0.77974 0.96373 0.0
H579 H 0.68279 0.80456 0.98341 0.0
H580 H 0.6648 0.75115 0.92567 0.0
H581 H 0.61364 0.81242 0.94516 0.0
H582 H 0.60305 0.85091 0.9454 0.0
H583 H 0.60129 0.85133 0.87143 0.0
H584 H 0.61224 0.81288 0.87074 0.0
H585 H 0.55664 0.69103 0.90047 0.0
H586 H 0.58835 0.7149 0.91644 0.0
H587 H 0.58716 0.75267 0.85408 0.0
H588 H 0.55459 0.72927 0.83835 0.0
H589 H 0.58741 0.77819 0.88891 0.0
H590 H 0.63639 0.71755 0.86803 0.0
H591 H 0.64809 0.67934 0.86619 0.0
H592 H 0.65609 0.6777 0.93979 0.0
H593 H 0.64409 0.71584 0.94212 0.0
C594 C 0.68957 0.82335 0.92848 0.0
C595 C 0.69347 0.82192 0.95244 0.0
C596 C 0.67307 0.80935 0.91738 0.0
C597 C 0.66033 0.79354 0.92996 0.0
C598 C 0.66437 0.7918 0.95374 0.0
C599 C 0.68062 0.80595 0.96492 0.0
C600 C 0.64248 0.77897 0.91837 0.0
C601 C 0.64773 0.75695 0.91781 0.0
C602 C 0.62071 0.78676 0.90749 0.0
C603 C 0.61403 0.80984 0.9079 0.0
C604 C 0.61122 0.82077 0.92894 0.0
C605 C 0.60511 0.84256 0.92916 0.0
C606 C 0.60157 0.85357 0.90844 0.0
C607 C 0.60408 0.84279 0.88746 0.0
C608 C 0.61022 0.82099 0.88715 0.0
C609 C 0.56324 0.70433 0.89008 0.0
C610 C 0.55312 0.70827 0.86813 0.0
C611 C 0.58149 0.71792 0.89919 0.0
C612 C 0.59048 0.73542 0.88634 0.0
C613 C 0.58054 0.73927 0.86433 0.0
C614 C 0.56197 0.72587 0.85534 0.0
C615 C 0.60952 0.75013 0.89627 0.0
C616 C 0.60453 0.77225 0.89656 0.0
C617 C 0.63174 0.74244 0.90659 0.0
C618 C 0.63914 0.71952 0.90526 0.0
C619 C 0.64048 0.70901 0.88384 0.0
C620 C 0.64719 0.68737 0.88271 0.0
C621 C 0.65278 0.67609 0.90286 0.0
C622 C 0.65174 0.68645 0.92419 0.0
C623 C 0.64501 0.70809 0.92543 0.0
H624 H 0.65796 0.65933 0.90195 0.0
H625 H 0.59683 0.87045 0.90865 0.0
H626 H 0.30894 0.16071 0.42045 0.0
H627 H 0.33759 0.18512 0.40064 0.0
H628 H 0.35497 0.21601 0.46517 0.0
H629 H 0.32727 0.19113 0.48536 0.0
H630 H 0.34307 0.24468 0.42779 0.0
H631 H 0.39572 0.18373 0.445 0.0
H632 H 0.40689 0.14537 0.44437 0.0
H633 H 0.40632 0.14594 0.37038 0.0
H634 H 0.39478 0.18426 0.37058 0.0
H635 H 0.44926 0.30646 0.40147 0.0
H636 H 0.41864 0.2817 0.41761 0.0
H637 H 0.41879 0.24529 0.35432 0.0
H638 H 0.45031 0.26964 0.33834 0.0
H639 H 0.4197 0.219 0.38865 0.0
H640 H 0.36937 0.27939 0.37 0.0
H641 H 0.35705 0.31748 0.36905 0.0
H642 H 0.35097 0.31798 0.44283 0.0
H643 H 0.3636 0.27996 0.44426 0.0
C644 C 0.31912 0.17245 0.43055 0.0
C645 C 0.31576 0.17387 0.45457 0.0
C646 C 0.33534 0.18649 0.41913 0.0
C647 C 0.34833 0.20232 0.43147 0.0
C648 C 0.34494 0.20395 0.45535 0.0
C649 C 0.32899 0.18976 0.46683 0.0
C650 C 0.36557 0.2172 0.41952 0.0
C651 C 0.35997 0.23916 0.4194 0.0
C652 C 0.38709 0.2098 0.40794 0.0
C653 C 0.39411 0.18679 0.40781 0.0
C654 C 0.39775 0.17562 0.4286 0.0
C655 C 0.40419 0.1539 0.42832 0.0
C656 C 0.40724 0.1432 0.40735 0.0
C657 C 0.40391 0.15423 0.38661 0.0
C658 C 0.39743 0.17596 0.3868 0.0
C659 C 0.44269 0.29327 0.3909 0.0
C660 C 0.45218 0.29003 0.36859 0.0
C661 C 0.42505 0.27916 0.40013 0.0
C662 C 0.41603 0.26182 0.38706 0.0
C663 C 0.42542 0.25858 0.36473 0.0
C664 C 0.44339 0.27252 0.3556 0.0
C665 C 0.39744 0.24671 0.39706 0.0
C666 C 0.40273 0.22464 0.39683 0.0
C667 C 0.37541 0.254 0.40802 0.0
C668 C 0.36763 0.27685 0.40724 0.0
C669 C 0.36557 0.28765 0.38604 0.0
C670 C 0.35851 0.30923 0.38541 0.0
C671 C 0.35328 0.32015 0.40587 0.0
C672 C 0.35504 0.3095 0.427 0.0
C673 C 0.36212 0.28793 0.42772 0.0
H674 H 0.34783 0.33686 0.40535 0.0
H675 H 0.41223 0.12639 0.40717 0.0
H676 H 0.28242 0.80347 0.94302 0.0
H677 H 0.31106 0.77885 0.92368 0.0
H678 H 0.37004 0.82598 0.92895 0.0
H679 H 0.34121 0.85086 0.94775 0.0
H680 H 0.37265 0.80716 0.88889 0.0
H681 H 0.36507 0.78318 0.96707 0.0
H682 H 0.34288 0.77141 0.00211 0.0
H683 H 0.31257 0.7174 0.96546 0.0
H684 H 0.33433 0.72903 0.9301 0.0
H685 H 0.46186 0.70953 0.90213 0.0
H686 H 0.43156 0.73466 0.91783 0.0
H687 H 0.39919 0.74262 0.85028 0.0
H688 H 0.43 0.71786 0.83424 0.0
H689 H 0.38342 0.73409 0.92137 0.0
H690 H 0.37675 0.79346 0.84486 0.0
H691 H 0.40292 0.80683 0.81291 0.0
H692 H 0.46908 0.79281 0.8518 0.0
H693 H 0.44331 0.77963 0.88407 0.0
C694 C 0.30149 0.80855 0.93999 0.0
C695 C 0.30969 0.82898 0.94701 0.0
C696 C 0.31784 0.79449 0.92897 0.0
C697 C 0.34282 0.80042 0.92521 0.0
C698 C 0.35085 0.82105 0.93166 0.0
C699 C 0.33441 0.83524 0.94241 0.0
C700 C 0.36078 0.78493 0.91518 0.0
C701 C 0.37495 0.79116 0.89595 0.0
C702 C 0.36415 0.76418 0.92463 0.0
C703 C 0.35113 0.7571 0.94589 0.0
C704 C 0.35353 0.76888 0.96645 0.0
C705 C 0.34105 0.76223 0.98637 0.0
C706 C 0.32627 0.7437 0.986 0.0
C707 C 0.324 0.73177 0.96571 0.0
C708 C 0.33641 0.73837 0.94573 0.0
C709 C 0.44831 0.7166 0.89057 0.0
C710 C 0.44846 0.71179 0.86689 0.0
C711 C 0.43093 0.73093 0.8996 0.0
C712 C 0.41325 0.74071 0.88522 0.0
C713 C 0.41296 0.73558 0.86164 0.0
C714 C 0.43052 0.72137 0.85252 0.0
C715 C 0.39526 0.75628 0.89503 0.0
C716 C 0.38102 0.75004 0.91421 0.0
C717 C 0.39241 0.77723 0.88596 0.0
C718 C 0.40809 0.78534 0.86676 0.0
C719 C 0.39688 0.7933 0.8466 0.0
C720 C 0.41164 0.80084 0.82844 0.0
C721 C 0.43765 0.8006 0.83029 0.0
C722 C 0.44894 0.79291 0.85035 0.0
C723 C 0.43427 0.78538 0.86857 0.0
H724 H 0.44904 0.80643 0.8162 0.0
H725 H 0.31662 0.73857 0.00144 0.0
H726 H 0.68236 0.1889 0.47484 0.0
H727 H 0.65261 0.2117 0.45465 0.0
H728 H 0.69093 0.20004 0.39052 0.0
H729 H 0.72149 0.17784 0.41081 0.0
H730 H 0.67739 0.24136 0.39373 0.0
H731 H 0.6373 0.17362 0.40248 0.0
H732 H 0.62236 0.14126 0.42276 0.0
H733 H 0.57577 0.18015 0.46597 0.0
H734 H 0.59071 0.2128 0.44617 0.0
H735 H 0.57283 0.28293 0.32964 0.0
H736 H 0.60548 0.25891 0.34399 0.0
H737 H 0.57924 0.26831 0.41351 0.0
H738 H 0.54665 0.29213 0.39946 0.0
H739 H 0.58707 0.22576 0.40315 0.0
H740 H 0.63092 0.29383 0.39526 0.0
H741 H 0.64501 0.32543 0.37312 0.0
H742 H 0.68359 0.28433 0.3257 0.0
H743 H 0.66952 0.25246 0.34747 0.0
C744 C 0.68474 0.19144 0.45651 0.0
C745 C 0.70427 0.18147 0.44444 0.0
C746 C 0.66754 0.20429 0.44494 0.0
C747 C 0.6693 0.20726 0.42101 0.0
C748 C 0.68914 0.19784 0.40896 0.0
C749 C 0.70644 0.18502 0.42056 0.0
C750 C 0.65013 0.21995 0.40866 0.0
C751 C 0.65766 0.23775 0.39549 0.0
C752 C 0.62437 0.21528 0.41098 0.0
C753 C 0.61529 0.19568 0.42295 0.0
C754 C 0.62401 0.17529 0.41643 0.0
C755 C 0.61552 0.15689 0.42782 0.0
C756 C 0.59817 0.15865 0.44568 0.0
C757 C 0.58923 0.17882 0.45215 0.0
C758 C 0.59769 0.19727 0.44083 0.0
C759 C 0.57402 0.27988 0.34798 0.0
C760 C 0.5571 0.28943 0.36339 0.0
C761 C 0.59272 0.26622 0.35614 0.0
C762 C 0.59477 0.26191 0.37981 0.0
C763 C 0.57791 0.27139 0.39518 0.0
C764 C 0.55934 0.28507 0.38709 0.0
C765 C 0.61432 0.24744 0.38884 0.0
C766 C 0.60682 0.22924 0.40128 0.0
C767 C 0.64005 0.25163 0.38563 0.0
C768 C 0.64899 0.27078 0.37287 0.0
C769 C 0.64231 0.29154 0.38005 0.0
C770 C 0.65032 0.30949 0.36758 0.0
C771 C 0.66514 0.30688 0.34798 0.0
C772 C 0.6721 0.28632 0.34088 0.0
C773 C 0.66415 0.26831 0.3533 0.0
H774 H 0.67128 0.32079 0.33832 0.0
H775 H 0.59161 0.14439 0.45447 0.0
H776 H 0.36972 0.46209 0.94406 0.0
H777 H 0.39114 0.49297 0.92713 0.0
H778 H 0.32729 0.53277 0.94188 0.0
H779 H 0.30542 0.50153 0.95808 0.0
H780 H 0.34516 0.54343 0.90193 0.0
H781 H 0.38104 0.53333 0.97595 0.0
H782 H 0.40095 0.51409 0.00816 0.0
H783 H 0.46481 0.50091 0.96584 0.0
H784 H 0.44511 0.51973 0.93322 0.0
H785 H 0.42481 0.63787 0.88546 0.0
H786 H 0.39726 0.61134 0.90408 0.0
H787 H 0.44278 0.56008 0.87742 0.0
H788 H 0.46985 0.5862 0.85847 0.0
H789 H 0.4319 0.55915 0.92693 0.0
H790 H 0.39222 0.56713 0.85198 0.0
H791 H 0.37209 0.58817 0.82121 0.0
H792 H 0.31497 0.60809 0.86841 0.0
H793 H 0.33502 0.58741 0.89958 0.0
C794 C 0.36026 0.47743 0.94358 0.0
C795 C 0.33605 0.47954 0.9525 0.0
C796 C 0.37253 0.49509 0.93404 0.0
C797 C 0.3611 0.51535 0.93377 0.0
C798 C 0.33656 0.51734 0.94203 0.0
C799 C 0.32408 0.49953 0.95125 0.0
C800 C 0.37494 0.53436 0.92496 0.0
C801 C 0.36396 0.54707 0.90773 0.0
C802 C 0.39952 0.53919 0.93246 0.0
C803 C 0.41145 0.52778 0.95205 0.0
C804 C 0.39923 0.52617 0.97343 0.0
C805 C 0.4105 0.51535 0.99178 0.0
C806 C 0.4341 0.50623 0.98903 0.0
C807 C 0.44651 0.50794 0.96793 0.0
C808 C 0.4353 0.51869 0.94951 0.0
C809 C 0.42878 0.62093 0.8835 0.0
C810 C 0.44937 0.61409 0.87044 0.0
C811 C 0.41307 0.60586 0.89407 0.0
C812 C 0.41807 0.58384 0.89203 0.0
C813 C 0.43864 0.57703 0.87912 0.0
C814 C 0.454 0.59198 0.86822 0.0
C815 C 0.40232 0.56764 0.90366 0.0
C816 C 0.41297 0.55557 0.92145 0.0
C817 C 0.37739 0.56364 0.89694 0.0
C818 C 0.36529 0.57596 0.87818 0.0
C819 C 0.37551 0.57617 0.85586 0.0
C820 C 0.36409 0.58799 0.83833 0.0
C821 C 0.34231 0.59952 0.84287 0.0
C822 C 0.33187 0.59919 0.86493 0.0
C823 C 0.34325 0.58742 0.88253 0.0
H824 H 0.33349 0.60866 0.82927 0.0
H825 H 0.4428 0.49789 0.00326 0.0
H826 H 0.70115 0.49812 0.45421 0.0
H827 H 0.67969 0.46728 0.43676 0.0
H828 H 0.61322 0.50553 0.42854 0.0
H829 H 0.63432 0.53597 0.44667 0.0
H830 H 0.60079 0.4689 0.44527 0.0
H831 H 0.65371 0.49147 0.38255 0.0
H832 H 0.69359 0.50048 0.3636 0.0
H833 H 0.72055 0.43679 0.37663 0.0
H834 H 0.68093 0.42749 0.39593 0.0
H835 H 0.53345 0.41433 0.35903 0.0
H836 H 0.56184 0.43985 0.37734 0.0
H837 H 0.60797 0.3877 0.40092 0.0
H838 H 0.57916 0.36178 0.38298 0.0
H839 H 0.63325 0.42728 0.37889 0.0
H840 H 0.57686 0.40464 0.43848 0.0
H841 H 0.5355 0.39662 0.45499 0.0
H842 H 0.5139 0.46238 0.44616 0.0
H843 H 0.55482 0.47066 0.42873 0.0
C844 C 0.68203 0.4999 0.44844 0.0
C845 C 0.66932 0.51933 0.45181 0.0
C846 C 0.6698 0.48232 0.43844 0.0
C847 C 0.64484 0.48408 0.43119 0.0
C848 C 0.63239 0.50369 0.43413 0.0
C849 C 0.64446 0.52109 0.44442 0.0
C850 C 0.6312 0.46544 0.42121 0.0
C851 C 0.60787 0.45996 0.43064 0.0
C852 C 0.64066 0.4533 0.40251 0.0
C853 C 0.66448 0.45887 0.39092 0.0
C854 C 0.66823 0.47945 0.38154 0.0
C855 C 0.69077 0.48459 0.3707 0.0
C856 C 0.70962 0.46924 0.36898 0.0
C857 C 0.70595 0.44868 0.37802 0.0
C858 C 0.68345 0.44346 0.3889 0.0
C859 C 0.54973 0.40823 0.36793 0.0
C860 C 0.55406 0.38603 0.36964 0.0
C861 C 0.5659 0.42284 0.37839 0.0
C862 C 0.58688 0.41559 0.39046 0.0
C863 C 0.59182 0.39352 0.39162 0.0
C864 C 0.57533 0.37878 0.38149 0.0
C865 C 0.60283 0.43129 0.40267 0.0
C866 C 0.62646 0.43616 0.39369 0.0
C867 C 0.59355 0.44309 0.42158 0.0
C868 C 0.56886 0.43821 0.43203 0.0
C869 C 0.56318 0.41733 0.43971 0.0
C870 C 0.53979 0.41274 0.44923 0.0
C871 C 0.52201 0.42895 0.45144 0.0
C872 C 0.52761 0.44981 0.4442 0.0
C873 C 0.5509 0.45445 0.43449 0.0
H874 H 0.50394 0.42539 0.45887 0.0
H875 H 0.72706 0.47325 0.36057 0.0
H876 H 0.67096 0.46616 0.90988 0.0
H877 H 0.64907 0.49529 0.89011 0.0
H878 H 0.63671 0.52681 0.95524 0.0
H879 H 0.65913 0.4982 0.97506 0.0
H880 H 0.59337 0.52154 0.92891 0.0
H881 H 0.67812 0.54699 0.91956 0.0
H882 H 0.72205 0.54415 0.90731 0.0
H883 H 0.69868 0.53456 0.83726 0.0
H884 H 0.65457 0.53704 0.84916 0.0
H885 H 0.5472 0.62199 0.89881 0.0
H886 H 0.57473 0.59405 0.91335 0.0
H887 H 0.58617 0.57084 0.84414 0.0
H888 H 0.55874 0.59903 0.82929 0.0
H889 H 0.62934 0.57 0.8696 0.0
H890 H 0.54537 0.54603 0.87742 0.0
H891 H 0.50102 0.5482 0.88851 0.0
H892 H 0.52187 0.55309 0.95977 0.0
H893 H 0.56639 0.5514 0.94908 0.0
C894 C 0.66402 0.47949 0.91996 0.0
C895 C 0.66663 0.47974 0.9441 0.0
C896 C 0.65142 0.49606 0.90863 0.0
C897 C 0.64123 0.51312 0.92126 0.0
C898 C 0.64429 0.51367 0.94524 0.0
C899 C 0.657 0.49725 0.95653 0.0
C900 C 0.62638 0.52999 0.90973 0.0
C901 C 0.60129 0.5323 0.91613 0.0
C902 C 0.63653 0.54344 0.89245 0.0
C903 C 0.66304 0.54195 0.8853 0.0
C904 C 0.68234 0.54407 0.90158 0.0
C905 C 0.70728 0.54257 0.89469 0.0
C906 C 0.71315 0.53911 0.87154 0.0
C907 C 0.6941 0.5372 0.8552 0.0
C908 C 0.66913 0.53867 0.86201 0.0
C909 C 0.55569 0.61108 0.8866 0.0
C910 C 0.55047 0.61255 0.86291 0.0
C911 C 0.5714 0.59509 0.89496 0.0
C912 C 0.58206 0.58013 0.87986 0.0
C913 C 0.57797 0.58217 0.85608 0.0
C914 C 0.56226 0.59826 0.84764 0.0
C915 C 0.59649 0.56187 0.88919 0.0
C916 C 0.62139 0.55919 0.88231 0.0
C917 C 0.58608 0.54786 0.90586 0.0
C918 C 0.55927 0.54878 0.91241 0.0
C919 C 0.54052 0.54776 0.89545 0.0
C920 C 0.51535 0.54888 0.90166 0.0
C921 C 0.50863 0.55081 0.92483 0.0
C922 C 0.5271 0.55161 0.94182 0.0
C923 C 0.55231 0.55057 0.9357 0.0
H924 H 0.48913 0.55164 0.92961 0.0
H925 H 0.73247 0.53797 0.86624 0.0
H926 H 0.30558 0.51158 0.42352 0.0
H927 H 0.32891 0.48384 0.40302 0.0
H928 H 0.38899 0.4898 0.45218 0.0
H929 H 0.36655 0.51829 0.47188 0.0
H930 H 0.4074 0.48741 0.41095 0.0
H931 H 0.34526 0.44781 0.45353 0.0
H932 H 0.30263 0.438 0.46572 0.0
H933 H 0.28362 0.42201 0.3959 0.0
H934 H 0.32607 0.432 0.38324 0.0
H935 H 0.47061 0.38912 0.40073 0.0
H936 H 0.44237 0.41656 0.41546 0.0
H937 H 0.40024 0.41432 0.35219 0.0
H938 H 0.42876 0.38698 0.33701 0.0
H939 H 0.37121 0.41529 0.39605 0.0
H940 H 0.43658 0.45167 0.35518 0.0
H941 H 0.48032 0.45968 0.34517 0.0
H942 H 0.49409 0.4813 0.41424 0.0
H943 H 0.45068 0.47257 0.42499 0.0
C944 C 0.32387 0.50714 0.42982 0.0
C945 C 0.3341 0.5171 0.44946 0.0
C946 C 0.33707 0.49111 0.41823 0.0
C947 C 0.36057 0.48453 0.42623 0.0
C948 C 0.37086 0.49455 0.44571 0.0
C949 C 0.35783 0.51068 0.45714 0.0
C950 C 0.37473 0.46735 0.41438 0.0
C951 C 0.39951 0.4716 0.40788 0.0
C952 C 0.36427 0.44686 0.40983 0.0
C953 C 0.33874 0.4409 0.4174 0.0
C954 C 0.33192 0.44238 0.44075 0.0
C955 C 0.3078 0.43675 0.44775 0.0
C956 C 0.2904 0.42946 0.43158 0.0
C957 C 0.2971 0.42771 0.40839 0.0
C958 C 0.32119 0.43334 0.4013 0.0
C959 C 0.45518 0.39425 0.39 0.0
C960 C 0.45196 0.386 0.36765 0.0
C961 C 0.43913 0.40995 0.39844 0.0
C962 C 0.41942 0.41748 0.38481 0.0
C963 C 0.41542 0.40866 0.36289 0.0
C964 C 0.43175 0.39315 0.35425 0.0
C965 C 0.40385 0.43532 0.39322 0.0
C966 C 0.3789 0.4312 0.39897 0.0
C967 C 0.41423 0.45585 0.39737 0.0
C968 C 0.4404 0.46119 0.39097 0.0
C969 C 0.44901 0.45781 0.36836 0.0
C970 C 0.47377 0.46246 0.36256 0.0
C971 C 0.49004 0.47081 0.37913 0.0
C972 C 0.48154 0.4746 0.40151 0.0
C973 C 0.45686 0.46978 0.40747 0.0
H974 H 0.50919 0.47445 0.3746 0.0
H975 H 0.27174 0.4251 0.43704 0.0
H976 H 0.83085 0.00546 0.975 0.0
H977 H 0.85234 0.03365 0.95347 0.0
H978 H 0.84853 0.99507 0.89181 0.0
H979 H 0.82789 0.96641 0.91348 0.0
H980 H 0.89397 0.01075 0.89727 0.0
H981 H 0.81204 0.03998 0.89825 0.0
H982 H 0.77209 0.05157 0.91515 0.0
H983 H 0.81065 0.09793 0.95691 0.0
H984 H 0.8509 0.0864 0.94051 0.0
H985 H 0.94244 0.09594 0.82852 0.0
H986 H 0.91214 0.06989 0.84335 0.0
H987 H 0.91869 0.09764 0.91117 0.0
H988 H 0.94902 0.12368 0.89659 0.0
H989 H 0.86908 0.0874 0.89857 0.0
H990 H 0.95108 0.05501 0.89997 0.0
H991 H 0.99082 0.04359 0.88247 0.0
H992 H 0.95094 0.00306 0.83515 0.0
H993 H 0.91091 0.01453 0.85214 0.0
C994 C 0.8346 0.00295 0.95686 0.0
C995 C 0.8277 0.98365 0.94599 0.0
C996 C 0.84664 0.0192 0.9445 0.0
C997 C 0.85181 0.01659 0.92094 0.0
C998 C 0.84463 0.99747 0.90995 0.0
C999 C 0.83265 0.98118 0.92232 0.0
C1000 C 0.86595 0.03333 0.90819 0.0
C1001 C 0.88822 0.02743 0.89717 0.0
C1002 C 0.8587 0.05517 0.90836 0.0
C1003 C 0.83452 0.06219 0.91827 0.0
C1004 C 0.81203 0.05253 0.91117 0.0
C1005 C 0.78932 0.05911 0.92064 0.0
C1006 C 0.78883 0.07545 0.93713 0.0
C1007 C 0.81106 0.08526 0.94415 0.0
C1008 C 0.83383 0.07873 0.93475 0.0
C1009 C 0.93728 0.09663 0.84655 0.0
C1010 C 0.94838 0.11171 0.86146 0.0
C1011 C 0.91998 0.08173 0.85498 0.0
C1012 C 0.91338 0.08176 0.87838 0.0
C1013 C 0.92357 0.09737 0.89306 0.0
C1014 C 0.94102 0.11214 0.88472 0.0
C1015 C 0.89707 0.06476 0.88798 0.0
C1016 C 0.87451 0.07064 0.89844 0.0
C1017 C 0.90395 0.04288 0.88721 0.0
C1018 C 0.928 0.03582 0.87714 0.0
C1019 C 0.95078 0.0438 0.8857 0.0
C1020 C 0.97335 0.0373 0.8759 0.0
C1021 C 0.9734 0.02265 0.85767 0.0
C1022 C 0.95087 0.01443 0.84925 0.0
C1023 C 0.92824 0.02093 0.85896 0.0
H1024 H 0.9909 0.01763 0.8501 0.0
H1025 H 0.77123 0.08052 0.94443 0.0
H1026 H 0.1834 0.98977 0.47877 0.0
H1027 H 0.16024 0.96113 0.45922 0.0
H1028 H 0.145 0.0038 0.40243 0.0
H1029 H 0.16778 0.03261 0.42204 0.0
H1030 H 0.103 0.98317 0.41804 0.0
H1031 H 0.18669 0.96429 0.3962 0.0
H1032 H 0.23093 0.95556 0.40302 0.0
H1033 H 0.20927 0.90104 0.44373 0.0
H1034 H 0.16487 0.90962 0.43741 0.0
H1035 H 0.05172 0.90936 0.34002 0.0
H1036 H 0.08017 0.93525 0.35755 0.0
H1037 H 0.09566 0.89065 0.41254 0.0
H1038 H 0.06736 0.8644 0.39494 0.0
H1039 H 0.13774 0.91171 0.39845 0.0
H1040 H 0.05472 0.92997 0.42096 0.0
H1041 H 0.01019 0.93825 0.41516 0.0
H1042 H 0.03001 0.99367 0.37506 0.0
H1043 H 0.0747 0.98549 0.38026 0.0
C1044 C 0.17518 0.99301 0.46208 0.0
C1045 C 0.17739 0.01343 0.45193 0.0
C1046 C 0.16211 0.9766 0.45087 0.0
C1047 C 0.15102 0.98033 0.42933 0.0
C1048 C 0.15347 0.0006 0.41902 0.0
C1049 C 0.16665 0.01698 0.43016 0.0
C1050 C 0.1359 0.9634 0.41801 0.0
C1051 C 0.11068 0.96766 0.41343 0.0
C1052 C 0.14576 0.94293 0.41273 0.0
C1053 C 0.17245 0.93773 0.41652 0.0
C1054 C 0.19136 0.95055 0.40677 0.0
C1055 C 0.21647 0.9456 0.41052 0.0
C1056 C 0.22291 0.92779 0.42386 0.0
C1057 C 0.20425 0.91485 0.43343 0.0
C1058 C 0.17911 0.91973 0.42975 0.0
C1059 C 0.06128 0.90493 0.35576 0.0
C1060 C 0.057 0.8849 0.36625 0.0
C1061 C 0.07751 0.91979 0.36578 0.0
C1062 C 0.08964 0.91501 0.38656 0.0
C1063 C 0.08634 0.89468 0.39655 0.0
C1064 C 0.07013 0.87973 0.38649 0.0
C1065 C 0.10494 0.9316 0.39825 0.0
C1066 C 0.1301 0.92725 0.40301 0.0
C1067 C 0.09498 0.95196 0.40389 0.0
C1068 C 0.06809 0.95699 0.40081 0.0
C1069 C 0.0496 0.94382 0.41074 0.0
C1070 C 0.02432 0.94851 0.40758 0.0
C1071 C 0.01727 0.96645 0.39472 0.0
C1072 C 0.0355 0.97976 0.385 0.0
C1073 C 0.06081 0.97511 0.38805 0.0
H1074 H 0.99769 0.97007 0.39232 0.0
H1075 H 0.24236 0.92399 0.42673 0.0
H1076 H 0.20739 0.01206 0.95534 0.0
H1077 H 0.18663 0.04187 0.93518 0.0
H1078 H 0.12298 0.00111 0.92191 0.0
H1079 H 0.14336 0.97158 0.94237 0.0
H1080 H 0.14159 0.02663 0.88267 0.0
H1081 H 0.11773 0.0325 0.96383 0.0
H1082 H 0.12733 0.03652 0.00517 0.0
H1083 H 0.16581 0.09572 0.99136 0.0
H1084 H 0.15673 0.09186 0.94985 0.0
H1085 H 0.03548 0.08546 0.85643 0.0
H1086 H 0.06725 0.06186 0.87221 0.0
H1087 H 0.10873 0.11689 0.89665 0.0
H1088 H 0.07609 0.14068 0.88172 0.0
H1089 H 0.10924 0.08804 0.92805 0.0
H1090 H 0.12761 0.08617 0.84819 0.0
H1091 H 0.11955 0.08279 0.80648 0.0
H1092 H 0.09489 0.01776 0.81617 0.0
H1093 H 0.10239 0.02083 0.85795 0.0
C1094 C 0.18904 0.00953 0.94796 0.0
C1095 C 0.17683 0.98968 0.95045 0.0
C1096 C 0.17725 0.02649 0.93652 0.0
C1097 C 0.15333 0.0236 0.92712 0.0
C1098 C 0.14148 0.00358 0.92902 0.0
C1099 C 0.15302 0.98681 0.94079 0.0
C1100 C 0.13994 0.04153 0.91604 0.0
C1101 C 0.13444 0.04009 0.89249 0.0
C1102 C 0.13152 0.05941 0.9288 0.0
C1103 C 0.13685 0.06175 0.95373 0.0
C1104 C 0.12845 0.04626 0.96959 0.0
C1105 C 0.13375 0.04853 0.99305 0.0
C1106 C 0.14725 0.06633 0.00088 0.0
C1107 C 0.15541 0.08192 0.98527 0.0
C1108 C 0.15019 0.0797 0.96178 0.0
C1109 C 0.05142 0.09257 0.86506 0.0
C1110 C 0.05339 0.11492 0.86775 0.0
C1111 C 0.06971 0.07905 0.87393 0.0
C1112 C 0.09079 0.08758 0.8851 0.0
C1113 C 0.09275 0.10993 0.88795 0.0
C1114 C 0.07411 0.1235 0.87944 0.0
C1115 C 0.11006 0.07293 0.8946 0.0
C1116 C 0.11674 0.07494 0.91791 0.0
C1117 C 0.11992 0.05573 0.88147 0.0
C1118 C 0.11548 0.05377 0.85627 0.0
C1119 C 0.12032 0.07119 0.84145 0.0
C1120 C 0.11586 0.06932 0.81779 0.0
C1121 C 0.10671 0.05007 0.80871 0.0
C1122 C 0.102 0.03265 0.82324 0.0
C1123 C 0.10639 0.03444 0.84691 0.0
H1124 H 0.1033 0.04862 0.7904 0.0
H1125 H 0.15133 0.06806 0.01906 0.0
H1126 H 0.86775 0.01716 0.46983 0.0
H1127 H 0.89016 0.98936 0.44896 0.0
H1128 H 0.83229 0.98797 0.39727 0.0
H1129 H 0.80896 0.01507 0.41879 0.0
H1130 H 0.84721 0.94843 0.40646 0.0
H1131 H 0.88776 0.01415 0.3878 0.0
H1132 H 0.9084 0.049 0.39462 0.0
H1133 H 0.96733 0.0175 0.43149 0.0
H1134 H 0.94684 0.98247 0.42525 0.0
H1135 H 0.93237 0.89043 0.33071 0.0
H1136 H 0.90394 0.9181 0.34557 0.0
H1137 H 0.94507 0.91969 0.40945 0.0
H1138 H 0.97309 0.89208 0.39505 0.0
H1139 H 0.93668 0.9606 0.38845 0.0
H1140 H 0.89271 0.89521 0.40956 0.0
H1141 H 0.87197 0.86063 0.40137 0.0
H1142 H 0.81956 0.89247 0.35716 0.0
H1143 H 0.84025 0.92721 0.3648 0.0
C1144 C 0.85949 0.01072 0.45426 0.0
C1145 C 0.83653 0.01844 0.446 0.0
C1146 C 0.87253 0.995 0.44215 0.0
C1147 C 0.86317 0.9869 0.42128 0.0
C1148 C 0.83997 0.99413 0.41323 0.0
C1149 C 0.82677 0.00976 0.42546 0.0
C1150 C 0.87781 0.97098 0.40795 0.0
C1151 C 0.86664 0.95126 0.40215 0.0
C1152 C 0.90322 0.97461 0.40237 0.0
C1153 C 0.91561 0.99568 0.40623 0.0
C1154 C 0.905 0.01466 0.39754 0.0
C1155 C 0.9167 0.03445 0.40128 0.0
C1156 C 0.93913 0.03547 0.41353 0.0
C1157 C 0.94993 0.01669 0.42204 0.0
C1158 C 0.93829 0.99686 0.41839 0.0
C1159 C 0.93522 0.89664 0.34795 0.0
C1160 C 0.95491 0.88906 0.36172 0.0
C1161 C 0.91898 0.91236 0.3564 0.0
C1162 C 0.92249 0.92085 0.37858 0.0
C1163 C 0.9421 0.9133 0.39229 0.0
C1164 C 0.95801 0.89745 0.38404 0.0
C1165 C 0.90625 0.93801 0.38763 0.0
C1166 C 0.91714 0.95797 0.39252 0.0
C1167 C 0.88061 0.93466 0.39213 0.0
C1168 C 0.86822 0.91377 0.38752 0.0
C1169 C 0.87694 0.89481 0.39789 0.0
C1170 C 0.86515 0.87518 0.3934 0.0
C1171 C 0.8445 0.87435 0.37871 0.0
C1172 C 0.83558 0.89314 0.3685 0.0
C1173 C 0.84732 0.9128 0.37291 0.0
H1174 H 0.83535 0.85917 0.37531 0.0
H1175 H 0.94816 0.05081 0.41639 0.0
H1176 H 0.32606 0.32739 0.11544 0.0
H1177 H 0.34839 0.31866 0.15115 0.0
H1178 H 0.3558 0.38612 0.1664 0.0
H1179 H 0.33303 0.39496 0.13129 0.0
H1180 H 0.40114 0.36351 0.16622 0.0
H1181 H 0.31757 0.35715 0.19736 0.0
H1182 H 0.27484 0.3424 0.19903 0.0
H1183 H 0.30421 0.279 0.2088 0.0
H1184 H 0.34715 0.29335 0.20687 0.0
H1185 H 0.45008 0.3723 0.27591 0.0
H1186 H 0.42091 0.37368 0.24377 0.0
H1187 H 0.41615 0.30454 0.24338 0.0
H1188 H 0.44517 0.30301 0.27611 0.0
H1189 H 0.37066 0.32315 0.23443 0.0
H1190 H 0.45356 0.3286 0.20566 0.0
H1191 H 0.49678 0.34221 0.20368 0.0
H1192 H 0.46974 0.40531 0.18783 0.0
H1193 H 0.42632 0.39217 0.1901 0.0
C1194 C 0.33195 0.34034 0.12667 0.0
C1195 C 0.32806 0.36189 0.12036 0.0
C1196 C 0.34477 0.33531 0.147 0.0
C1197 C 0.35386 0.35177 0.16128 0.0
C1198 C 0.34911 0.37321 0.15549 0.0
C1199 C 0.3362 0.37822 0.13535 0.0
C1200 C 0.36988 0.34696 0.18141 0.0
C1201 C 0.39442 0.35485 0.18122 0.0
C1202 C 0.36136 0.33489 0.20052 0.0
C1203 C 0.33557 0.32628 0.20169 0.0
C1204 C 0.31492 0.34003 0.19963 0.0
C1205 C 0.29066 0.33175 0.20068 0.0
C1206 C 0.28681 0.30976 0.20394 0.0
C1207 C 0.30722 0.29602 0.20623 0.0
C1208 C 0.33152 0.30422 0.20517 0.0
C1209 C 0.44272 0.35736 0.26914 0.0
C1210 C 0.45025 0.33753 0.27831 0.0
C1211 C 0.42605 0.35818 0.25075 0.0
C1212 C 0.41682 0.3392 0.24086 0.0
C1213 C 0.42321 0.31937 0.25069 0.0
C1214 C 0.43981 0.31853 0.26933 0.0
C1215 C 0.40166 0.34034 0.21951 0.0
C1216 C 0.37744 0.33166 0.21936 0.0
C1217 C 0.41053 0.35146 0.19985 0.0
C1218 C 0.43665 0.35942 0.19821 0.0
C1219 C 0.45681 0.34541 0.2019 0.0
C1220 C 0.48135 0.35304 0.20072 0.0
C1221 C 0.486 0.37461 0.19567 0.0
C1222 C 0.46611 0.3886 0.19175 0.0
C1223 C 0.44153 0.38107 0.19296 0.0
H1224 H 0.50501 0.38049 0.19476 0.0
H1225 H 0.26802 0.30338 0.20475 0.0
H1226 H 0.69889 0.65725 0.63198 0.0
H1227 H 0.67612 0.668 0.66673 0.0
H1228 H 0.61009 0.63606 0.64119 0.0
H1229 H 0.6323 0.62607 0.60622 0.0
H1230 H 0.5983 0.67366 0.65918 0.0
H1231 H 0.649 0.61291 0.68174 0.0
H1232 H 0.68848 0.59329 0.68719 0.0
H1233 H 0.71549 0.64328 0.73174 0.0
H1234 H 0.67626 0.66333 0.72631 0.0
H1235 H 0.52659 0.64165 0.75441 0.0
H1236 H 0.55526 0.64236 0.72177 0.0
H1237 H 0.60245 0.68755 0.75764 0.0
H1238 H 0.5734 0.68728 0.79047 0.0
H1239 H 0.62745 0.65024 0.73633 0.0
H1240 H 0.57184 0.70721 0.71866 0.0
H1241 H 0.5312 0.72496 0.7136 0.0
H1242 H 0.51247 0.68099 0.6593 0.0
H1243 H 0.55257 0.66234 0.66466 0.0
C1244 C 0.67945 0.65273 0.63369 0.0
C1245 C 0.66748 0.64062 0.61643 0.0
C1246 C 0.66652 0.65874 0.65362 0.0
C1247 C 0.64147 0.65264 0.65666 0.0
C1248 C 0.62941 0.64093 0.63925 0.0
C1249 C 0.64223 0.635 0.61936 0.0
C1250 C 0.62765 0.65794 0.67805 0.0
C1251 C 0.60463 0.66848 0.67604 0.0
C1252 C 0.63629 0.65177 0.70013 0.0
C1253 C 0.65986 0.63974 0.70338 0.0
C1254 C 0.66345 0.6198 0.69254 0.0
C1255 C 0.68576 0.60859 0.69565 0.0
C1256 C 0.70451 0.61707 0.70973 0.0
C1257 C 0.70097 0.63676 0.72079 0.0
C1258 C 0.67871 0.64805 0.7177 0.0
C1259 C 0.54309 0.65171 0.75544 0.0
C1260 C 0.54779 0.66442 0.775 0.0
C1261 C 0.55938 0.65215 0.73673 0.0
C1262 C 0.58083 0.66508 0.73732 0.0
C1263 C 0.58591 0.67752 0.75694 0.0
C1264 C 0.56931 0.6774 0.77557 0.0
C1265 C 0.59781 0.66528 0.71727 0.0
C1266 C 0.62138 0.6558 0.71953 0.0
C1267 C 0.58956 0.67222 0.69537 0.0
C1268 C 0.5652 0.68322 0.69224 0.0
C1269 C 0.55892 0.70107 0.70588 0.0
C1270 C 0.53594 0.71129 0.70297 0.0
C1271 C 0.51918 0.70399 0.68626 0.0
C1272 C 0.52538 0.68647 0.6724 0.0
C1273 C 0.54822 0.67605 0.67539 0.0
H1274 H 0.50144 0.71197 0.68397 0.0
H1275 H 0.72177 0.60836 0.71213 0.0
H1276 H 0.63036 0.36462 0.1013 0.0
H1277 H 0.61079 0.35843 0.1387 0.0
H1278 H 0.68338 0.35436 0.17055 0.0
H1279 H 0.70318 0.3605 0.13296 0.0
H1280 H 0.65077 0.32475 0.18858 0.0
H1281 H 0.65232 0.40008 0.17441 0.0
H1282 H 0.64592 0.43332 0.15214 0.0
H1283 H 0.56699 0.42122 0.15029 0.0
H1284 H 0.57296 0.38771 0.17225 0.0
H1285 H 0.56974 0.37335 0.28925 0.0
H1286 H 0.59997 0.3767 0.25799 0.0
H1287 H 0.5759 0.31565 0.23061 0.0
H1288 H 0.54585 0.31199 0.26201 0.0
H1289 H 0.59023 0.38008 0.21385 0.0
H1290 H 0.62395 0.29188 0.20211 0.0
H1291 H 0.63293 0.26031 0.22636 0.0
H1292 H 0.64663 0.30142 0.28444 0.0
H1293 H 0.6381 0.33324 0.26046 0.0
C1294 C 0.64217 0.36236 0.11625 0.0
C1295 C 0.66829 0.36335 0.11429 0.0
C1296 C 0.63097 0.35877 0.13759 0.0
C1297 C 0.64564 0.35632 0.15744 0.0
C1298 C 0.67175 0.35628 0.15542 0.0
C1299 C 0.68301 0.35977 0.13398 0.0
C1300 C 0.63348 0.35495 0.18032 0.0
C1301 C 0.63759 0.33684 0.19419 0.0
C1302 C 0.61684 0.37107 0.18791 0.0
C1303 C 0.61312 0.39129 0.17483 0.0
C1304 C 0.63361 0.40442 0.16911 0.0
C1305 C 0.63006 0.42332 0.15656 0.0
C1306 C 0.60607 0.42935 0.14977 0.0
C1307 C 0.58557 0.41652 0.15555 0.0
C1308 C 0.58902 0.39758 0.16807 0.0
C1309 C 0.57101 0.36052 0.27672 0.0
C1310 C 0.55522 0.34247 0.27803 0.0
C1311 C 0.58833 0.36247 0.25887 0.0
C1312 C 0.59027 0.3464 0.24203 0.0
C1313 C 0.57499 0.32811 0.24361 0.0
C1314 C 0.5577 0.3261 0.2615 0.0
C1315 C 0.60685 0.34953 0.22185 0.0
C1316 C 0.60355 0.36802 0.20843 0.0
C1317 C 0.62462 0.33401 0.21504 0.0
C1318 C 0.63017 0.31495 0.2295 0.0
C1319 C 0.62901 0.2942 0.22002 0.0
C1320 C 0.634 0.27625 0.23373 0.0
C1321 C 0.64028 0.27886 0.25694 0.0
C1322 C 0.64168 0.29942 0.26647 0.0
C1323 C 0.63673 0.31741 0.25284 0.0
H1324 H 0.6441 0.26495 0.26752 0.0
H1325 H 0.60336 0.444 0.14005 0.0
H1326 H 0.30122 0.61913 0.63937 0.0
H1327 H 0.32336 0.62718 0.67535 0.0
H1328 H 0.38078 0.66013 0.63672 0.0
H1329 H 0.35926 0.65111 0.6008 0.0
H1330 H 0.40187 0.63561 0.66542 0.0
H1331 H 0.33547 0.68652 0.6719 0.0
H1332 H 0.29186 0.69903 0.67264 0.0
H1333 H 0.27669 0.65843 0.7308 0.0
H1334 H 0.32014 0.64545 0.73023 0.0
H1335 H 0.46281 0.68675 0.75816 0.0
H1336 H 0.43397 0.68319 0.72575 0.0
H1337 H 0.394 0.63329 0.76183 0.0
H1338 H 0.4231 0.63644 0.79431 0.0
H1339 H 0.36349 0.66631 0.73586 0.0
H1340 H 0.43212 0.61645 0.72829 0.0
H1341 H 0.4768 0.60717 0.72779 0.0
H1342 H 0.48836 0.64913 0.67009 0.0
H1343 H 0.44392 0.65933 0.6708 0.0
C1344 C 0.31842 0.62831 0.63872 0.0
C1345 C 0.32864 0.63452 0.61748 0.0
C1346 C 0.33101 0.633 0.65924 0.0
C1347 C 0.35369 0.64445 0.65882 0.0
C1348 C 0.36342 0.6512 0.63753 0.0
C1349 C 0.35111 0.64613 0.61704 0.0
C1350 C 0.36811 0.64836 0.68032 0.0
C1351 C 0.39345 0.64262 0.68066 0.0
C1352 C 0.35713 0.65708 0.70047 0.0
C1353 C 0.331 0.66486 0.70087 0.0
C1354 C 0.32278 0.68013 0.68474 0.0
C1355 C 0.2981 0.68733 0.68515 0.0
C1356 C 0.2815 0.67949 0.70171 0.0
C1357 C 0.28956 0.66447 0.71795 0.0
C1358 C 0.31422 0.6572 0.71761 0.0
C1359 C 0.44766 0.67525 0.75941 0.0
C1360 C 0.44535 0.66171 0.77868 0.0
C1361 C 0.43122 0.67326 0.74088 0.0
C1362 C 0.41202 0.65793 0.74145 0.0
C1363 C 0.40873 0.64523 0.76117 0.0
C1364 C 0.42543 0.64697 0.7796 0.0
C1365 C 0.39699 0.65381 0.72059 0.0
C1366 C 0.37168 0.65937 0.72048 0.0
C1367 C 0.40803 0.64526 0.70049 0.0
C1368 C 0.43472 0.63888 0.69982 0.0
C1369 C 0.44424 0.62394 0.7157 0.0
C1370 C 0.46955 0.61853 0.71539 0.0
C1371 C 0.48547 0.62772 0.69904 0.0
C1372 C 0.47607 0.64223 0.68289 0.0
C1373 C 0.45082 0.64784 0.68326 0.0
H1374 H 0.50505 0.6235 0.69881 0.0
H1375 H 0.2624 0.68508 0.702 0.0
H1376 H 0.80149 0.85271 0.13306 0.0
H1377 H 0.82328 0.84175 0.1683 0.0
H1378 H 0.89286 0.86445 0.13973 0.0
H1379 H 0.87145 0.87482 0.10438 0.0
H1380 H 0.89809 0.82565 0.15945 0.0
H1381 H 0.86015 0.89384 0.17925 0.0
H1382 H 0.82483 0.91866 0.18448 0.0
H1383 H 0.79147 0.87525 0.23312 0.0
H1384 H 0.82647 0.85004 0.22794 0.0
H1385 H 0.97847 0.85455 0.25061 0.0
H1386 H 0.94911 0.8545 0.21839 0.0
H1387 H 0.8965 0.81795 0.25886 0.0
H1388 H 0.92632 0.81737 0.29117 0.0
H1389 H 0.8774 0.85703 0.23562 0.0
H1390 H 0.92143 0.79273 0.22123 0.0
H1391 H 0.9572 0.76861 0.2156 0.0
H1392 H 0.97923 0.80426 0.15561 0.0
H1393 H 0.94444 0.82932 0.16156 0.0
C1394 C 0.82147 0.85521 0.13426 0.0
C1395 C 0.83473 0.86475 0.11598 0.0
C1396 C 0.83384 0.84908 0.15445 0.0
C1397 C 0.85966 0.85242 0.15669 0.0
C1398 C 0.87292 0.86174 0.13838 0.0
C1399 C 0.86061 0.86786 0.11827 0.0
C1400 C 0.87317 0.8464 0.17802 0.0
C1401 C 0.89371 0.8326 0.1761 0.0
C1402 C 0.86675 0.85481 0.19988 0.0
C1403 C 0.84574 0.86994 0.20298 0.0
C1404 C 0.84517 0.88951 0.1909 0.0
C1405 C 0.82523 0.90366 0.19389 0.0
C1406 C 0.80587 0.8985 0.20906 0.0
C1407 C 0.80645 0.8792 0.22133 0.0
C1408 C 0.82633 0.86498 0.21838 0.0
C1409 C 0.96066 0.84647 0.25267 0.0
C1410 C 0.95457 0.83602 0.27339 0.0
C1411 C 0.94399 0.84637 0.23422 0.0
C1412 C 0.92074 0.83616 0.23628 0.0
C1413 C 0.91443 0.82585 0.257 0.0
C1414 C 0.93143 0.82549 0.27534 0.0
C1415 C 0.90297 0.83702 0.2168 0.0
C1416 C 0.8816 0.84979 0.21907 0.0
C1417 C 0.90875 0.82778 0.1952 0.0
C1418 C 0.93038 0.81315 0.19206 0.0
C1419 C 0.93419 0.79576 0.20713 0.0
C1420 C 0.95434 0.78189 0.20387 0.0
C1421 C 0.97062 0.78499 0.18537 0.0
C1422 C 0.96676 0.80197 0.17007 0.0
C1423 C 0.94688 0.81608 0.17345 0.0
H1424 H 0.98614 0.77417 0.1828 0.0
H1425 H 0.79046 0.90948 0.21136 0.0
H1426 H 0.14234 0.14643 0.60395 0.0
H1427 H 0.12222 0.15481 0.64079 0.0
H1428 H 0.18578 0.1295 0.67728 0.0
H1429 H 0.20626 0.12149 0.64034 0.0
H1430 H 0.13585 0.11277 0.69031 0.0
H1431 H 0.18093 0.17887 0.68049 0.0
H1432 H 0.19504 0.2109 0.65913 0.0
H1433 H 0.11917 0.23199 0.65239 0.0
H1434 H 0.10456 0.1999 0.67341 0.0
H1435 H 0.07976 0.13837 0.7968 0.0
H1436 H 0.11119 0.1357 0.76637 0.0
H1437 H 0.06679 0.17699 0.72299 0.0
H1438 H 0.0361 0.18063 0.75382 0.0
H1439 H 0.11261 0.18602 0.71594 0.0
H1440 H 0.06628 0.11963 0.71924 0.0
H1441 H 0.04927 0.08712 0.73784 0.0
H1442 H 0.12354 0.06596 0.75359 0.0
H1443 H 0.14097 0.09849 0.73532 0.0
C1444 C 0.15206 0.14285 0.61985 0.0
C1445 C 0.17578 0.13334 0.61943 0.0
C1446 C 0.14064 0.14769 0.64081 0.0
C1447 C 0.1526 0.14282 0.66166 0.0
C1448 C 0.17636 0.13343 0.66131 0.0
C1449 C 0.18802 0.12895 0.6403 0.0
C1450 C 0.13954 0.14662 0.6837 0.0
C1451 C 0.13119 0.12878 0.69626 0.0
C1452 C 0.13291 0.16749 0.69091 0.0
C1453 C 0.14164 0.18688 0.67837 0.0
C1454 C 0.16723 0.19024 0.67428 0.0
C1455 C 0.17533 0.20843 0.66227 0.0
C1456 C 0.15801 0.22345 0.65437 0.0
C1457 C 0.13257 0.22033 0.65851 0.0
C1458 C 0.12437 0.20216 0.6705 0.0
C1459 C 0.0769 0.14704 0.78083 0.0
C1460 C 0.05542 0.15956 0.77757 0.0
C1461 C 0.09479 0.14543 0.76341 0.0
C1462 C 0.09111 0.15572 0.74213 0.0
C1463 C 0.07007 0.16885 0.73921 0.0
C1464 C 0.05249 0.17089 0.75682 0.0
C1465 C 0.10843 0.15212 0.7225 0.0
C1466 C 0.11755 0.16999 0.7103 0.0
C1467 C 0.11532 0.13122 0.71529 0.0
C1468 C 0.1049 0.11158 0.72614 0.0
C1469 C 0.07896 0.1081 0.7268 0.0
C1470 C 0.06925 0.08967 0.73727 0.0
C1471 C 0.0853 0.07451 0.74695 0.0
C1472 C 0.11112 0.07773 0.74613 0.0
C1473 C 0.12093 0.09615 0.73571 0.0
H1474 H 0.07773 0.06024 0.75501 0.0
H1475 H 0.16431 0.23752 0.64508 0.0
H1476 H 0.18546 0.89462 0.13471 0.0
H1477 H 0.16395 0.88462 0.17033 0.0
H1478 H 0.13967 0.82534 0.13896 0.0
H1479 H 0.16088 0.8354 0.10313 0.0
H1480 H 0.1014 0.84715 0.15965 0.0
H1481 H 0.18378 0.82416 0.17962 0.0
H1482 H 0.22933 0.82777 0.18441 0.0
H1483 H 0.2185 0.87901 0.23284 0.0
H1484 H 0.17288 0.87591 0.22809 0.0
H1485 H 0.04625 0.80734 0.26114 0.0
H1486 H 0.07565 0.80933 0.22901 0.0
H1487 H 0.10334 0.86996 0.25443 0.0
H1488 H 0.0742 0.86807 0.28673 0.0
H1489 H 0.14109 0.84436 0.2369 0.0
H1490 H 0.06026 0.87037 0.21434 0.0
H1491 H 0.01451 0.86777 0.2104 0.0
H1492 H 0.02262 0.8124 0.16698 0.0
H1493 H 0.06836 0.81448 0.17099 0.0
C1494 C 0.1756 0.87943 0.13544 0.0
C1495 C 0.17479 0.86581 0.11614 0.0
C1496 C 0.16352 0.87365 0.15584 0.0
C1497 C 0.15039 0.85416 0.15731 0.0
C1498 C 0.1498 0.8404 0.13818 0.0
C1499 C 0.16203 0.84611 0.1178 0.0
C1500 C 0.13609 0.8488 0.17839 0.0
C1501 C 0.11016 0.8461 0.17647 0.0
C1502 C 0.14746 0.84804 0.2004 0.0
C1503 C 0.1749 0.84991 0.20335 0.0
C1504 C 0.19111 0.83632 0.19115 0.0
C1505 C 0.21694 0.83825 0.19389 0.0
C1506 C 0.2268 0.85364 0.20888 0.0
C1507 C 0.21084 0.8671 0.22122 0.0
C1508 C 0.18499 0.86525 0.21853 0.0
C1509 C 0.05881 0.82097 0.2601 0.0
C1510 C 0.0576 0.83771 0.27631 0.0
C1511 C 0.0756 0.82207 0.24173 0.0
C1512 C 0.09141 0.83993 0.23922 0.0
C1513 C 0.09125 0.85606 0.25606 0.0
C1514 C 0.07446 0.855 0.27442 0.0
C1515 C 0.10651 0.84273 0.21807 0.0
C1516 C 0.13247 0.84509 0.22 0.0
C1517 C 0.09519 0.84341 0.19606 0.0
C1518 C 0.0677 0.84245 0.19315 0.0
C1519 C 0.05226 0.85757 0.20406 0.0
C1520 C 0.02632 0.8562 0.20182 0.0
C1521 C 0.01563 0.83991 0.1885 0.0
C1522 C 0.03087 0.82501 0.17733 0.0
C1523 C 0.05681 0.82627 0.17957 0.0
H1524 H 0.99555 0.83892 0.18681 0.0
H1525 H 0.24681 0.85511 0.21098 0.0
H1526 H 0.80068 0.1539 0.62908 0.0
H1527 H 0.82108 0.16227 0.66583 0.0
H1528 H 0.87695 0.11433 0.65203 0.0
H1529 H 0.85737 0.10636 0.61514 0.0
H1530 H 0.85805 0.11254 0.69708 0.0
H1531 H 0.88981 0.16545 0.6423 0.0
H1532 H 0.88497 0.195 0.61439 0.0
H1533 H 0.84953 0.23352 0.66621 0.0
H1534 H 0.85388 0.20405 0.69435 0.0
H1535 H 0.96624 0.13071 0.75882 0.0
H1536 H 0.93433 0.12712 0.72935 0.0
H1537 H 0.89675 0.18309 0.75577 0.0
H1538 H 0.92926 0.18715 0.78535 0.0
H1539 H 0.89814 0.18358 0.70938 0.0
H1540 H 0.87289 0.1335 0.76611 0.0
H1541 H 0.87804 0.10446 0.79457 0.0
H1542 H 0.89931 0.061 0.74069 0.0
H1543 H 0.89473 0.08986 0.71193 0.0
C1544 C 0.8174 0.14522 0.63379 0.0
C1545 C 0.82732 0.12941 0.61908 0.0
C1546 C 0.82892 0.14995 0.65485 0.0
C1547 C 0.8505 0.1389 0.66161 0.0
C1548 C 0.86018 0.1229 0.64721 0.0
C1549 C 0.84884 0.1183 0.62614 0.0
C1550 C 0.86373 0.14426 0.6833 0.0
C1551 C 0.86685 0.12805 0.69981 0.0
C1552 C 0.87436 0.16476 0.68721 0.0
C1553 C 0.87188 0.18247 0.67033 0.0
C1554 C 0.88079 0.18015 0.64768 0.0
C1555 C 0.87818 0.1969 0.63183 0.0
C1556 C 0.86687 0.2161 0.6385 0.0
C1557 C 0.85823 0.21862 0.66105 0.0
C1558 C 0.86077 0.20191 0.67696 0.0
C1559 C 0.95122 0.1423 0.75849 0.0
C1560 C 0.95024 0.15917 0.77456 0.0
C1561 C 0.93288 0.14014 0.74165 0.0
C1562 C 0.91284 0.15455 0.74065 0.0
C1563 C 0.91196 0.17169 0.75635 0.0
C1564 C 0.93052 0.17398 0.77322 0.0
C1565 C 0.89328 0.15158 0.72281 0.0
C1566 C 0.88889 0.16821 0.70702 0.0
C1567 C 0.88124 0.1315 0.71967 0.0
C1568 C 0.88356 0.11391 0.73685 0.0
C1569 C 0.87878 0.11778 0.76033 0.0
C1570 C 0.8816 0.10135 0.77652 0.0
C1571 C 0.88901 0.08091 0.76945 0.0
C1572 C 0.89355 0.07684 0.74614 0.0
C1573 C 0.89082 0.09323 0.72988 0.0
H1574 H 0.89122 0.06821 0.78202 0.0
H1575 H 0.86487 0.22905 0.6262 0.0
loop_
_geom_bond_atom_site_label_1
_geom_bond_atom_site_label_2
_geom_bond_distance
_geom_bond_site_symmetry_2
_ccdc_geom_bond_type
C0 C1 1.384 . S
C0 H13 0.947 . S
C0 C35 1.382 . S
C1 C0 1.384 . S
C1 C2 1.378 . S
C2 C1 1.378 . S
C2 C3 1.378 . S
C2 H14 0.952 . S
C3 C2 1.378 . S
C3 H15 0.950 . S
C3 C34 1.383 . S
H4 C23 0.947 . S
H5 C24 0.946 1_554 S
H6 C26 0.953 . S
H7 C27 0.945 . S
H8 C29 0.952 . S
H9 C30 0.949 . S
H10 C32 0.950 . S
H11 C33 0.948 1_554 S
H12 C35 0.951 . S
H13 C0 0.947 . S
H14 C2 0.952 . S
H15 C3 0.950 . S
N16 C19 1.382 1_554 S
N16 C21 1.363 . S
N17 C19 1.371 . S
N17 C20 1.372 . S
N18 C20 1.361 1_554 S
N18 C21 1.377 . S
C19 N16 1.382 1_556 S
C19 N17 1.371 . S
C19 C22 1.480 . S
C20 N17 1.372 . S
C20 N18 1.361 1_556 S
C20 C28 1.457 . S
C21 N16 1.363 . S
C21 N18 1.377 . S
C21 C34 1.479 . S
C22 C19 1.480 . S
C22 C23 1.383 1_556 S
C22 C27 1.385 . S
C23 H4 0.947 . S
C23 C22 1.383 1_554 S
C23 C24 1.388 1_554 S
C24 H5 0.946 1_556 S
C24 C23 1.388 1_556 S
C24 C25 1.384 . S
C25 C24 1.384 . S
C25 C26 1.377 . S
C26 H6 0.953 . S
C26 C25 1.377 . S
C26 C27 1.369 . S
C27 H7 0.945 . S
C27 C22 1.385 . S
C27 C26 1.369 . S
C28 C20 1.457 . S
C28 C29 1.372 . S
C28 C33 1.364 . S
C29 H8 0.952 . S
C29 C28 1.372 . S
C29 C30 1.389 . S
C30 H9 0.949 . S
C30 C29 1.389 . S
C30 C31 1.387 . S
C31 C30 1.387 . S
C31 C32 1.372 . S
C32 H10 0.950 . S
C32 C31 1.372 . S
C32 C33 1.379 . S
C33 H11 0.948 1_556 S
C33 C28 1.364 . S
C33 C32 1.379 . S
C34 C3 1.383 . S
C34 C21 1.479 . S
C34 C35 1.398 . S
C35 C0 1.382 . S
C35 H12 0.951 . S
C35 C34 1.398 . S
C36 C37 1.384 . S
C36 H49 0.947 . S
C36 C71 1.382 . S
C37 C36 1.384 . S
C37 C38 1.378 . S
C38 C37 1.378 . S
C38 C39 1.378 . S
C38 H50 0.952 . S
C39 C38 1.378 . S
C39 H51 0.950 . S
C39 C70 1.383 . S
H40 C59 0.947 . S
H41 C60 0.946 . S
H42 C62 0.953 . S
H43 C63 0.945 . S
H44 C65 0.952 . S
H45 C66 0.949 . S
H46 C68 0.950 . S
H47 C69 0.948 . S
H48 C71 0.951 . S
H49 C36 0.947 . S
H50 C38 0.952 . S
H51 C39 0.950 . S
N52 C55 1.382 . S
N52 C57 1.363 . S
N53 C55 1.371 . S
N53 C56 1.372 . S
N54 C56 1.361 . S
N54 C57 1.377 . S
C55 N52 1.382 . S
C55 N53 1.371 . S
C55 C58 1.480 . S
C56 N53 1.372 . S
C56 N54 1.361 . S
C56 C64 1.457 . S
C57 N52 1.363 . S
C57 N54 1.377 . S
C57 C70 1.479 . S
C58 C55 1.480 . S
C58 C59 1.383 . S
C58 C63 1.385 . S
C59 H40 0.947 . S
C59 C58 1.383 . S
C59 C60 1.388 . S
C60 H41 0.946 . S
C60 C59 1.388 . S
C60 C61 1.384 . S
C61 C60 1.384 . S
C61 C62 1.377 . S
C62 H42 0.953 . S
C62 C61 1.377 . S
C62 C63 1.369 . S
C63 H43 0.945 . S
C63 C58 1.385 . S
C63 C62 1.369 . S
C64 C56 1.457 . S
C64 C65 1.372 . S
C64 C69 1.364 . S
C65 H44 0.952 . S
C65 C64 1.372 . S
C65 C66 1.389 . S
C66 H45 0.949 . S
C66 C65 1.389 . S
C66 C67 1.387 . S
C67 C66 1.387 . S
C67 C68 1.372 . S
C68 H46 0.950 . S
C68 C67 1.372 . S
C68 C69 1.379 . S
C69 H47 0.948 . S
C69 C64 1.364 . S
C69 C68 1.379 . S
C70 C39 1.383 . S
C70 C57 1.479 . S
C70 C71 1.398 . S
C71 C36 1.382 . S
C71 H48 0.951 . S
C71 C70 1.398 . S
C72 C73 1.384 . S
C72 H85 0.947 . S
C72 C107 1.382 . S
C73 C72 1.384 . S
C73 C74 1.378 . S
C74 C73 1.378 . S
C74 C75 1.378 . S
C74 H86 0.952 . S
C75 C74 1.378 . S
C75 H87 0.950 . S
C75 C106 1.383 . S
H76 C95 0.947 . S
H77 C96 0.946 . S
H78 C98 0.953 . S
H79 C99 0.945 . S
H80 C101 0.952 . S
H81 C102 0.949 . S
H82 C104 0.950 . S
H83 C105 0.948 1_554 S
H84 C107 0.951 . S
H85 C72 0.947 . S
H86 C74 0.952 . S
H87 C75 0.950 . S
N88 C91 1.424 . S
N88 C93 1.363 . S
N89 C91 1.345 1_556 S
N89 C92 1.372 . S
N90 C92 1.361 1_554 S
N90 C93 1.377 . S
C91 N88 1.424 . S
C91 N89 1.345 1_554 S
C91 C94 1.461 1_554 S
C92 N89 1.372 . S
C92 N90 1.361 1_556 S
C92 C100 1.457 . S
C93 N88 1.363 . S
C93 N90 1.377 . S
C93 C106 1.479 . S
C94 C91 1.461 1_556 S
C94 C95 1.383 1_556 S
C94 C99 1.385 . S
C95 H76 0.947 . S
C95 C94 1.383 1_554 S
C95 C96 1.388 1_554 S
C96 H77 0.946 . S
C96 C95 1.388 1_556 S
C96 C97 1.384 . S
C97 C96 1.384 . S
C97 C98 1.377 . S
C98 H78 0.953 . S
C98 C97 1.377 . S
C98 C99 1.369 . S
C99 H79 0.945 . S
C99 C94 1.385 . S
C99 C98 1.369 . S
C100 C92 1.457 . S
C100 C101 1.372 . S
C100 C105 1.364 . S
C101 H80 0.952 . S
C101 C100 1.372 . S
C101 C102 1.389 . S
C102 H81 0.949 . S
C102 C101 1.389 . S
C102 C103 1.387 . S
C103 C102 1.387 . S
C103 C104 1.372 . S
C104 H82 0.950 . S
C104 C103 1.372 . S
C104 C105 1.379 . S
C105 H83 0.948 1_556 S
C105 C100 1.364 . S
C105 C104 1.379 . S
C106 C75 1.383 . S
C106 C93 1.479 . S
C106 C107 1.398 . S
C107 C72 1.382 . S
C107 H84 0.951 . S
C107 C106 1.398 . S
C108 C109 1.384 . S
C108 H121 0.947 . S
C108 C143 1.382 . S
C109 C108 1.384 . S
C109 C110 1.378 . S
C110 C109 1.378 . S
C110 C111 1.378 . S
C110 H122 0.952 . S
C111 C110 1.378 . S
C111 H123 0.950 . S
C111 C142 1.383 . S
H112 C131 0.947 . S
H113 C132 0.946 . S
H114 C134 0.953 . S
H115 C135 0.945 . S
H116 C137 0.952 . S
H117 C138 0.949 . S
H118 C140 0.950 . S
H119 C141 0.948 . S
H120 C143 0.951 . S
H121 C108 0.947 . S
H122 C110 0.952 . S
H123 C111 0.950 . S
N124 C127 1.382 . S
N124 C129 1.363 . S
N125 C127 1.371 . S
N125 C128 1.372 . S
N126 C128 1.361 . S
N126 C129 1.377 . S
C127 N124 1.382 . S
C127 N125 1.371 . S
C127 C130 1.480 . S
C128 N125 1.372 . S
C128 N126 1.361 . S
C128 C136 1.457 . S
C129 N124 1.363 . S
C129 N126 1.377 . S
C129 C142 1.479 . S
C130 C127 1.480 . S
C130 C131 1.383 . S
C130 C135 1.385 . S
C131 H112 0.947 . S
C131 C130 1.383 . S
C131 C132 1.388 . S
C132 H113 0.946 . S
C132 C131 1.388 . S
C132 C133 1.384 . S
C133 C132 1.384 . S
C133 C134 1.377 . S
C134 H114 0.953 . S
C134 C133 1.377 . S
C134 C135 1.369 . S
C135 H115 0.945 . S
C135 C130 1.385 . S
C135 C134 1.369 . S
C136 C128 1.457 . S
C136 C137 1.372 . S
C136 C141 1.364 . S
C137 H116 0.952 . S
C137 C136 1.372 . S
C137 C138 1.389 . S
C138 H117 0.949 . S
C138 C137 1.389 . S
C138 C139 1.387 . S
C139 C138 1.387 . S
C139 C140 1.372 . S
C140 H118 0.950 . S
C140 C139 1.372 . S
C140 C141 1.379 . S
C141 H119 0.948 . S
C141 C136 1.364 . S
C141 C140 1.379 . S
C142 C111 1.383 . S
C142 C129 1.479 . S
C142 C143 1.398 . S
C143 C108 1.382 . S
C143 H120 0.951 . S
C143 C142 1.398 . S
C144 C145 1.384 . S
C144 H157 0.947 . S
C144 C179 1.382 . S
C145 C144 1.384 . S
C145 C146 1.378 . S
C146 C145 1.378 . S
C146 C147 1.378 . S
C146 H158 0.952 . S
C147 C146 1.378 . S
C147 H159 0.950 . S
C147 C178 1.383 . S
H148 C167 0.947 . S
H149 C168 0.946 1_554 S
H150 C170 0.953 . S
H151 C171 0.945 . S
H152 C173 0.952 . S
H153 C174 0.949 . S
H154 C176 0.950 . S
H155 C177 0.948 1_554 S
H156 C179 0.951 . S
H157 C144 0.947 . S
H158 C146 0.952 . S
H159 C147 0.950 . S
N160 C163 1.382 1_554 S
N160 C165 1.363 . S
N161 C163 1.371 . S
N161 C164 1.372 . S
N162 C164 1.361 1_554 S
N162 C165 1.377 . S
C163 N160 1.382 1_556 S
C163 N161 1.371 . S
C163 C166 1.480 . S
C164 N161 1.372 . S
C164 N162 1.361 1_556 S
C164 C172 1.457 . S
C165 N160 1.363 . S
C165 N162 1.377 . S
C165 C178 1.479 . S
C166 C163 1.480 . S
C166 C167 1.383 1_556 S
C166 C171 1.385 . S
C167 H148 0.947 . S
C167 C166 1.383 1_554 S
C167 C168 1.388 1_554 S
C168 H149 0.946 1_556 S
C168 C167 1.388 1_556 S
C168 C169 1.384 . S
C169 C168 1.384 . S
C169 C170 1.377 . S
C170 H150 0.953 . S
C170 C169 1.377 . S
C170 C171 1.369 . S
C171 H151 0.945 . S
C171 C166 1.385 . S
C171 C170 1.369 . S
C172 C164 1.457 . S
C172 C173 1.372 . S
C172 C177 1.364 . S
C173 H152 0.952 . S
C173 C172 1.372 . S
C173 C174 1.389 . S
C174 H153 0.949 . S
C174 C173 1.389 . S
C174 C175 1.387 . S
C175 C174 1.387 . S
C175 C176 1.372 . S
C176 H154 0.950 . S
C176 C175 1.372 . S
C176 C177 1.379 . S
C177 H155 0.948 1_556 S
C177 C172 1.364 . S
C177 C176 1.379 . S
C178 C147 1.383 . S
C178 C165 1.479 . S
C178 C179 1.398 . S
C179 C144 1.382 . S
C179 H156 0.951 . S
C179 C178 1.398 . S
C180 C181 1.384 . S
C180 H193 0.947 . S
C180 C215 1.382 . S
C181 C180 1.384 . S
C181 C182 1.378 . S
C182 C181 1.378 . S
C182 C183 1.378 . S
C182 H194 0.952 . S
C183 C182 1.378 . S
C183 H195 0.950 . S
C183 C214 1.383 . S
H184 C203 0.947 . S
H185 C204 0.946 . S
H186 C206 0.953 . S
H187 C207 0.945 . S
H188 C209 0.952 . S
H189 C210 0.949 . S
H190 C212 0.950 . S
H191 C213 0.948 . S
H192 C215 0.951 . S
H193 C180 0.947 . S
H194 C182 0.952 . S
H195 C183 0.950 . S
N196 C199 1.382 . S
N196 C201 1.363 . S
N197 C199 1.371 . S
N197 C200 1.372 . S
N198 C200 1.361 . S
N198 C201 1.377 . S
C199 N196 1.382 . S
C199 N197 1.371 . S
C199 C202 1.480 . S
C200 N197 1.372 . S
C200 N198 1.361 . S
C200 C208 1.457 . S
C201 N196 1.363 . S
C201 N198 1.377 . S
C201 C214 1.479 . S
C202 C199 1.480 . S
C202 C203 1.383 . S
C202 C207 1.385 . S
C203 H184 0.947 . S
C203 C202 1.383 . S
C203 C204 1.388 . S
C204 H185 0.946 . S
C204 C203 1.388 . S
C204 C205 1.384 . S
C205 C204 1.384 . S
C205 C206 1.377 . S
C206 H186 0.953 . S
C206 C205 1.377 . S
C206 C207 1.369 . S
C207 H187 0.945 . S
C207 C202 1.385 . S
C207 C206 1.369 . S
C208 C200 1.457 . S
C208 C209 1.372 . S
C208 C213 1.364 . S
C209 H188 0.952 . S
C209 C208 1.372 . S
C209 C210 1.389 . S
C210 H189 0.949 . S
C210 C209 1.389 . S
C210 C211 1.387 . S
C211 C210 1.387 . S
C211 C212 1.372 . S
C212 H190 0.950 . S
C212 C211 1.372 . S
C212 C213 1.379 . S
C213 H191 0.948 . S
C213 C208 1.364 . S
C213 C212 1.379 . S
C214 C183 1.383 . S
C214 C201 1.479 . S
C214 C215 1.398 . S
C215 C180 1.382 . S
C215 H192 0.951 . S
C215 C214 1.398 . S
C216 C217 1.384 . S
C216 H229 0.947 . S
C216 C251 1.382 . S
C217 C216 1.384 . S
C217 C218 1.378 . S
C218 C217 1.378 . S
C218 C219 1.378 . S
C218 H230 0.952 . S
C219 C218 1.378 . S
C219 H231 0.950 . S
C219 C250 1.383 . S
H220 C239 0.947 . S
H221 C240 0.946 . S
H222 C242 0.953 . S
H223 C243 0.945 . S
H224 C245 0.952 . S
H225 C246 0.949 . S
H226 C248 0.950 . S
H227 C249 0.948 1_554 S
H228 C251 0.951 . S
H229 C216 0.947 . S
H230 C218 0.952 . S
H231 C219 0.950 . S
N232 C235 1.423 . S
N232 C237 1.363 . S
N233 C235 1.346 1_556 S
N233 C236 1.372 . S
N234 C236 1.361 1_554 S
N234 C237 1.377 . S
C235 N232 1.423 . S
C235 N233 1.346 1_554 S
C235 C238 1.462 1_554 S
C236 N233 1.372 . S
C236 N234 1.361 1_556 S
C236 C244 1.457 . S
C237 N232 1.363 . S
C237 N234 1.377 . S
C237 C250 1.479 . S
C238 C235 1.462 1_556 S
C238 C239 1.383 1_556 S
C238 C243 1.385 . S
C239 H220 0.947 . S
C239 C238 1.383 1_554 S
C239 C240 1.388 1_554 S
C240 H221 0.946 . S
C240 C239 1.388 1_556 S
C240 C241 1.384 . S
C241 C240 1.384 . S
C241 C242 1.377 . S
C242 H222 0.953 . S
C242 C241 1.377 . S
C242 C243 1.369 . S
C243 H223 0.945 . S
C243 C238 1.385 . S
C243 C242 1.369 . S
C244 C236 1.457 . S
C244 C245 1.372 . S
C244 C249 1.364 . S
C245 H224 0.952 . S
C245 C244 1.372 . S
C245 C246 1.389 . S
C246 H225 0.949 . S
C246 C245 1.389 . S
C246 C247 1.387 . S
C247 C246 1.387 . S
C247 C248 1.372 . S
C248 H226 0.950 . S
C248 C247 1.372 . S
C248 C249 1.379 . S
C249 H227 0.948 1_556 S
C249 C244 1.364 . S
C249 C248 1.379 . S
C250 C219 1.383 . S
C250 C237 1.479 . S
C250 C251 1.398 . S
C251 C216 1.382 . S
C251 H228 0.951 . S
C251 C250 1.398 . S
C252 C253 1.384 . S
C252 H265 0.947 . S
C252 C287 1.382 . S
C253 C252 1.384 . S
C253 C254 1.378 . S
C254 C253 1.378 . S
C254 C255 1.378 . S
C254 H266 0.952 . S
C255 C254 1.378 . S
C255 H267 0.950 . S
C255 C286 1.383 . S
H256 C275 0.947 . S
H257 C276 0.946 . S
H258 C278 0.953 . S
H259 C279 0.945 . S
H260 C281 0.952 . S
H261 C282 0.949 . S
H262 C284 0.950 . S
H263 C285 0.948 . S
H264 C287 0.951 . S
H265 C252 0.947 . S
H266 C254 0.952 . S
H267 C255 0.950 . S
N268 C271 1.382 . S
N268 C273 1.363 . S
N269 C271 1.371 . S
N269 C272 1.372 . S
N270 C272 1.361 . S
N270 C273 1.377 . S
C271 N268 1.382 . S
C271 N269 1.371 . S
C271 C274 1.480 . S
C272 N269 1.372 . S
C272 N270 1.361 . S
C272 C280 1.457 . S
C273 N268 1.363 . S
C273 N270 1.377 . S
C273 C286 1.479 . S
C274 C271 1.480 . S
C274 C275 1.383 . S
C274 C279 1.385 . S
C275 H256 0.947 . S
C275 C274 1.383 . S
C275 C276 1.388 . S
C276 H257 0.946 . S
C276 C275 1.388 . S
C276 C277 1.384 . S
C277 C276 1.384 . S
C277 C278 1.377 . S
C278 H258 0.953 . S
C278 C277 1.377 . S
C278 C279 1.369 . S
C279 H259 0.945 . S
C279 C274 1.385 . S
C279 C278 1.369 . S
C280 C272 1.457 . S
C280 C281 1.372 . S
C280 C285 1.364 . S
C281 H260 0.952 . S
C281 C280 1.372 . S
C281 C282 1.389 . S
C282 H261 0.949 . S
C282 C281 1.389 . S
C282 C283 1.387 . S
C283 C282 1.387 . S
C283 C284 1.372 . S
C284 H262 0.950 . S
C284 C283 1.372 . S
C284 C285 1.379 . S
C285 H263 0.948 . S
C285 C280 1.364 . S
C285 C284 1.379 . S
C286 C255 1.383 . S
C286 C273 1.479 . S
C286 C287 1.398 . S
C287 C252 1.382 . S
C287 H264 0.951 . S
C287 C286 1.398 . S
Fe288 O290 1.918 . S
Fe288 O293 1.997 1_455 S
Fe288 O294 2.002 1_455 S
Fe288 O299 1.976 . S
Fe288 O302 1.996 . S
Fe289 O290 1.918 . S
Fe289 O297 1.997 1_455 S
Fe289 O300 1.996 . S
Fe289 O304 1.976 . S
Fe289 O307 2.002 1_455 S
O290 Fe288 1.918 . S
O290 Fe289 1.918 . S
O290 Fe291 1.918 . S
Fe291 O290 1.918 . S
Fe291 O292 2.002 1_455 S
Fe291 O301 1.976 . S
Fe291 O305 1.996 . S
Fe291 O308 1.997 1_455 S
O292 Fe291 2.002 1_655 S
O292 C309 1.295 . S
O293 Fe288 1.997 1_655 S
O293 C309 1.235 . S
O294 Fe288 2.002 1_655 S
O294 C295 1.295 . S
C295 O294 1.295 . S
C295 O297 1.235 . S
C296 O301 1.287 . S
C296 O302 1.255 . S
O297 Fe289 1.997 1_655 S
O297 C295 1.235 . S
C298 O304 1.287 . S
C298 O305 1.255 . S
O299 Fe288 1.976 . S
O299 C306 1.287 . S
O300 Fe289 1.996 . S
O300 C306 1.255 . S
O301 Fe291 1.976 . S
O301 C296 1.287 . S
O302 Fe288 1.996 . S
O302 C296 1.255 . S
C303 O307 1.295 . S
C303 O308 1.235 . S
O304 Fe289 1.976 . S
O304 C298 1.287 . S
O305 Fe291 1.996 . S
O305 C298 1.255 . S
C306 O299 1.287 . S
C306 O300 1.255 . S
O307 Fe289 2.002 1_655 S
O307 C303 1.295 . S
O308 Fe291 1.997 1_655 S
O308 C303 1.235 . S
C309 O292 1.295 . S
C309 O293 1.235 . S
Fe310 O312 1.919 . S
Fe310 O315 1.981 1_655 S
Fe310 O316 1.987 1_655 S
Fe310 O321 1.991 . S
Fe310 O324 2.011 . S
Fe311 O312 1.919 . S
Fe311 O319 1.981 1_655 S
Fe311 O322 2.011 . S
Fe311 O326 1.991 . S
Fe311 O329 1.987 1_655 S
O312 Fe310 1.919 . S
O312 Fe311 1.919 . S
O312 Fe313 1.919 . S
Fe313 O312 1.919 . S
Fe313 O314 1.988 1_655 S
Fe313 O323 1.990 . S
Fe313 O327 2.010 . S
Fe313 O330 1.982 1_655 S
O314 Fe313 1.988 1_455 S
O314 C331 1.295 . S
O315 Fe310 1.981 1_455 S
O315 C331 1.235 . S
O316 Fe310 1.987 1_455 S
O316 C317 1.295 . S
C317 O316 1.295 . S
C317 O319 1.235 . S
C318 O323 1.287 . S
C318 O324 1.255 . S
O319 Fe311 1.981 1_455 S
O319 C317 1.235 . S
C320 O326 1.287 . S
C320 O327 1.255 . S
O321 Fe310 1.991 . S
O321 C328 1.287 . S
O322 Fe311 2.011 . S
O322 C328 1.255 . S
O323 Fe313 1.990 . S
O323 C318 1.287 . S
O324 Fe310 2.011 . S
O324 C318 1.255 . S
C325 O329 1.295 . S
C325 O330 1.235 . S
O326 Fe311 1.991 . S
O326 C320 1.287 . S
O327 Fe313 2.010 . S
O327 C320 1.255 . S
C328 O321 1.287 . S
C328 O322 1.255 . S
O329 Fe311 1.987 1_455 S
O329 C325 1.295 . S
O330 Fe313 1.982 1_455 S
O330 C325 1.235 . S
C331 O314 1.295 . S
C331 O315 1.235 . S
Fe332 O334 1.918 . S
Fe332 O337 1.997 . S
Fe332 O338 2.002 . S
Fe332 O343 1.976 . S
Fe332 O346 1.996 . S
Fe333 O334 1.918 . S
Fe333 O341 1.997 . S
Fe333 O344 1.996 . S
Fe333 O348 1.976 . S
Fe333 O351 2.002 . S
O334 Fe332 1.918 . S
O334 Fe333 1.918 . S
O334 Fe335 1.918 . S
Fe335 O334 1.918 . S
Fe335 O336 2.002 . S
Fe335 O345 1.976 . S
Fe335 O349 1.996 . S
Fe335 O352 1.997 . S
O336 Fe335 2.002 . S
O336 C353 1.295 . S
O337 Fe332 1.997 . S
O337 C353 1.235 . S
O338 Fe332 2.002 . S
O338 C339 1.295 . S
C339 O338 1.295 . S
C339 O341 1.235 . S
C340 O345 1.287 . S
C340 O346 1.255 . S
O341 Fe333 1.997 . S
O341 C339 1.235 . S
C342 O348 1.287 . S
C342 O349 1.255 . S
O343 Fe332 1.976 . S
O343 C350 1.287 . S
O344 Fe333 1.996 . S
O344 C350 1.255 . S
O345 Fe335 1.976 . S
O345 C340 1.287 . S
O346 Fe332 1.996 . S
O346 C340 1.255 . S
C347 O351 1.295 . S
C347 O352 1.235 . S
O348 Fe333 1.976 . S
O348 C342 1.287 . S
O349 Fe335 1.996 . S
O349 C342 1.255 . S
C350 O343 1.287 . S
C350 O344 1.255 . S
O351 Fe333 2.002 . S
O351 C347 1.295 . S
O352 Fe335 1.997 . S
O352 C347 1.235 . S
C353 O336 1.295 . S
C353 O337 1.235 . S
Fe354 O356 1.918 . S
Fe354 O359 1.997 . S
Fe354 O360 2.002 . S
Fe354 O365 1.976 . S
Fe354 O368 1.996 . S
Fe355 O356 1.918 . S
Fe355 O363 1.997 . S
Fe355 O366 1.996 . S
Fe355 O370 1.976 . S
Fe355 O373 2.002 . S
O356 Fe354 1.918 . S
O356 Fe355 1.918 . S
O356 Fe357 1.918 . S
Fe357 O356 1.918 . S
Fe357 O358 2.002 . S
Fe357 O367 1.976 . S
Fe357 O371 1.996 . S
Fe357 O374 1.997 . S
O358 Fe357 2.002 . S
O358 C375 1.295 . S
O359 Fe354 1.997 . S
O359 C375 1.235 . S
O360 Fe354 2.002 . S
O360 C361 1.295 . S
C361 O360 1.295 . S
C361 O363 1.235 . S
C362 O367 1.287 . S
C362 O368 1.255 . S
O363 Fe355 1.997 . S
O363 C361 1.235 . S
C364 O370 1.287 . S
C364 O371 1.255 . S
O365 Fe354 1.976 . S
O365 C372 1.287 . S
O366 Fe355 1.996 . S
O366 C372 1.255 . S
O367 Fe357 1.976 . S
O367 C362 1.287 . S
O368 Fe354 1.996 . S
O368 C362 1.255 . S
C369 O373 1.295 . S
C369 O374 1.235 . S
O370 Fe355 1.976 . S
O370 C364 1.287 . S
O371 Fe357 1.996 . S
O371 C364 1.255 . S
C372 O365 1.287 . S
C372 O366 1.255 . S
O373 Fe355 2.002 . S
O373 C369 1.295 . S
O374 Fe357 1.997 . S
O374 C369 1.235 . S
C375 O358 1.295 . S
C375 O359 1.235 . S
H376 C394 0.951 . S
H377 C396 0.951 . S
H378 C398 0.950 . S
H379 C399 0.950 . S
H380 C401 0.950 . S
H381 C404 0.950 . S
H382 C405 0.950 . S
H383 C407 0.950 . S
H384 C408 0.950 . S
H385 C409 0.951 . S
H386 C411 0.951 . S
H387 C413 0.950 . S
H388 C414 0.950 . S
H389 C416 0.950 . S
H390 C419 0.950 . S
H391 C420 0.950 . S
H392 C422 0.950 . S
H393 C423 0.950 . S
C394 H376 0.951 . S
C394 C395 1.366 . S
C394 C396 1.388 . S
C395 C394 1.366 . S
C395 C399 1.385 . S
C396 H377 0.951 . S
C396 C394 1.388 . S
C396 C397 1.366 . S
C397 C396 1.366 . S
C397 C398 1.414 . S
C397 C400 1.499 . S
C398 H378 0.950 . S
C398 C397 1.414 . S
C398 C399 1.374 . S
C399 H379 0.950 . S
C399 C395 1.385 . S
C399 C398 1.374 . S
C400 C397 1.499 . S
C400 C401 1.373 . S
C400 C402 1.389 . S
C401 H380 0.950 . S
C401 C400 1.373 . S
C401 C417 1.377 . S
C402 C400 1.389 . S
C402 C403 1.524 . S
C402 C416 1.377 . S
C403 C402 1.524 . S
C403 C404 1.397 . S
C403 C408 1.363 . S
C404 H381 0.950 . S
C404 C403 1.397 . S
C404 C405 1.334 . S
C405 H382 0.950 . S
C405 C404 1.334 . S
C405 C406 1.287 . S
C406 C405 1.287 . S
C406 C407 1.524 . S
C406 H425 0.913 . S
C407 H383 0.950 . S
C407 C406 1.524 . S
C407 C408 1.415 . S
C408 H384 0.950 . S
C408 C403 1.363 . S
C408 C407 1.415 . S
C409 H385 0.951 . S
C409 C410 1.366 . S
C409 C411 1.388 . S
C410 C409 1.366 . S
C410 C414 1.385 . S
C411 H386 0.951 . S
C411 C409 1.388 . S
C411 C412 1.366 . S
C412 C411 1.366 . S
C412 C413 1.414 . S
C412 C415 1.499 . S
C413 H387 0.950 . S
C413 C412 1.414 . S
C413 C414 1.374 . S
C414 H388 0.950 . S
C414 C410 1.385 . S
C414 C413 1.374 . S
C415 C412 1.499 . S
C415 C416 1.373 . S
C415 C417 1.389 . S
C416 H389 0.950 . S
C416 C402 1.377 . S
C416 C415 1.373 . S
C417 C401 1.377 . S
C417 C415 1.389 . S
C417 C418 1.524 . S
C418 C417 1.524 . S
C418 C419 1.397 . S
C418 C423 1.363 . S
C419 H390 0.950 . S
C419 C418 1.397 . S
C419 C420 1.334 . S
C420 H391 0.950 . S
C420 C419 1.334 . S
C420 C421 1.287 . S
C421 C420 1.287 . S
C421 C422 1.524 . S
C421 H424 0.999 1_455 S
C422 H392 0.950 . S
C422 C421 1.524 . S
C422 C423 1.415 . S
C423 H393 0.950 . S
C423 C418 1.363 . S
C423 C422 1.415 . S
H424 C421 0.999 1_655 S
H425 C406 0.913 . S
H426 C444 0.951 . S
H427 C446 0.951 . S
H428 C448 0.950 . S
H429 C449 0.950 . S
H430 C451 0.950 . S
H431 C454 0.950 . S
H432 C455 0.950 . S
H433 C457 0.950 . S
H434 C458 0.950 . S
H435 C459 0.951 . S
H436 C461 0.951 . S
H437 C463 0.950 . S
H438 C464 0.950 . S
H439 C466 0.950 . S
H440 C469 0.950 . S
H441 C470 0.950 . S
H442 C472 0.950 . S
H443 C473 0.950 . S
C444 H426 0.951 . S
C444 C445 1.366 . S
C444 C446 1.388 . S
C445 C444 1.366 . S
C445 C449 1.385 . S
C446 H427 0.951 . S
C446 C444 1.388 . S
C446 C447 1.366 . S
C447 C446 1.366 . S
C447 C448 1.414 . S
C447 C450 1.499 . S
C448 H428 0.950 . S
C448 C447 1.414 . S
C448 C449 1.374 . S
C449 H429 0.950 . S
C449 C445 1.385 . S
C449 C448 1.374 . S
C450 C447 1.499 . S
C450 C451 1.373 . S
C450 C452 1.389 . S
C451 H430 0.950 . S
C451 C450 1.373 . S
C451 C467 1.377 . S
C452 C450 1.389 . S
C452 C453 1.524 . S
C452 C466 1.377 . S
C453 C452 1.524 . S
C453 C454 1.397 . S
C453 C458 1.363 . S
C454 H431 0.950 . S
C454 C453 1.397 . S
C454 C455 1.334 . S
C455 H432 0.950 . S
C455 C454 1.334 . S
C455 C456 1.287 . S
C456 C455 1.287 . S
C456 C457 1.524 . S
C456 H475 0.913 . S
C457 H433 0.950 . S
C457 C456 1.524 . S
C457 C458 1.415 . S
C458 H434 0.950 . S
C458 C453 1.363 . S
C458 C457 1.415 . S
C459 H435 0.951 . S
C459 C460 1.366 . S
C459 C461 1.388 . S
C460 C459 1.366 . S
C460 C464 1.385 . S
C461 H436 0.951 . S
C461 C459 1.388 . S
C461 C462 1.366 . S
C462 C461 1.366 . S
C462 C463 1.414 . S
C462 C465 1.499 . S
C463 H437 0.950 . S
C463 C462 1.414 . S
C463 C464 1.374 . S
C464 H438 0.950 . S
C464 C460 1.385 . S
C464 C463 1.374 . S
C465 C462 1.499 . S
C465 C466 1.373 . S
C465 C467 1.389 . S
C466 H439 0.950 . S
C466 C452 1.377 . S
C466 C465 1.373 . S
C467 C451 1.377 . S
C467 C465 1.389 . S
C467 C468 1.524 . S
C468 C467 1.524 . S
C468 C469 1.397 . S
C468 C473 1.363 . S
C469 H440 0.950 . S
C469 C468 1.397 . S
C469 C470 1.334 . S
C470 H441 0.950 . S
C470 C469 1.334 . S
C470 C471 1.287 . S
C471 C470 1.287 . S
C471 C472 1.524 . S
C471 H474 0.999 . S
C472 H442 0.950 . S
C472 C471 1.524 . S
C472 C473 1.415 . S
C473 H443 0.950 . S
C473 C468 1.363 . S
C473 C472 1.415 . S
H474 C471 0.999 . S
H475 C456 0.913 . S
H476 C494 0.951 . S
H477 C496 0.951 . S
H478 C498 0.950 . S
H479 C499 0.950 . S
H480 C501 0.950 . S
H481 C504 0.950 . S
H482 C505 0.950 1_554 S
H483 C507 0.950 . S
H484 C508 0.950 . S
H485 C509 0.951 . S
H486 C511 0.951 . S
H487 C513 0.950 . S
H488 C514 0.950 . S
H489 C516 0.950 . S
H490 C519 0.950 . S
H491 C520 0.950 . S
H492 C522 0.950 . S
H493 C523 0.950 . S
C494 H476 0.951 . S
C494 C495 1.366 . S
C494 C496 1.388 . S
C495 C494 1.366 . S
C495 C499 1.385 . S
C496 H477 0.951 . S
C496 C494 1.388 . S
C496 C497 1.366 . S
C497 C496 1.366 . S
C497 C498 1.414 . S
C497 C500 1.499 . S
C498 H478 0.950 . S
C498 C497 1.414 . S
C498 C499 1.374 . S
C499 H479 0.950 . S
C499 C495 1.385 . S
C499 C498 1.374 . S
C500 C497 1.499 . S
C500 C501 1.373 . S
C500 C502 1.389 . S
C501 H480 0.950 . S
C501 C500 1.373 . S
C501 C517 1.377 . S
C502 C500 1.389 . S
C502 C503 1.524 . S
C502 C516 1.377 . S
C503 C502 1.524 . S
C503 C504 1.397 . S
C503 C508 1.363 . S
C504 H481 0.950 . S
C504 C503 1.397 . S
C504 C505 1.334 . S
C505 H482 0.950 1_556 S
C505 C504 1.334 . S
C505 C506 1.287 1_556 S
C506 C505 1.287 1_554 S
C506 C507 1.524 1_554 S
C506 H525 0.913 . S
C507 H483 0.950 . S
C507 C506 1.524 1_556 S
C507 C508 1.415 . S
C508 H484 0.950 . S
C508 C503 1.363 . S
C508 C507 1.415 . S
C509 H485 0.951 . S
C509 C510 1.366 . S
C509 C511 1.388 . S
C510 C509 1.366 . S
C510 C514 1.385 . S
C511 H486 0.951 . S
C511 C509 1.388 . S
C511 C512 1.366 . S
C512 C511 1.366 . S
C512 C513 1.414 . S
C512 C515 1.499 . S
C513 H487 0.950 . S
C513 C512 1.414 . S
C513 C514 1.374 . S
C514 H488 0.950 . S
C514 C510 1.385 . S
C514 C513 1.374 . S
C515 C512 1.499 . S
C515 C516 1.373 . S
C515 C517 1.389 . S
C516 H489 0.950 . S
C516 C502 1.377 . S
C516 C515 1.373 . S
C517 C501 1.377 . S
C517 C515 1.389 . S
C517 C518 1.524 . S
C518 C517 1.524 . S
C518 C519 1.397 . S
C518 C523 1.363 . S
C519 H490 0.950 . S
C519 C518 1.397 . S
C519 C520 1.334 . S
C520 H491 0.950 . S
C520 C519 1.334 . S
C520 C521 1.287 . S
C521 C520 1.287 . S
C521 C522 1.524 . S
C521 H524 0.999 . S
C522 H492 0.950 . S
C522 C521 1.524 . S
C522 C523 1.415 . S
C523 H493 0.950 . S
C523 C518 1.363 . S
C523 C522 1.415 . S
H524 C521 0.999 . S
H525 C506 0.913 . S
H526 C544 0.951 . S
H527 C546 0.951 . S
H528 C548 0.950 . S
H529 C549 0.950 . S
H530 C551 0.950 . S
H531 C554 0.950 . S
H532 C555 0.950 . S
H533 C557 0.950 . S
H534 C558 0.950 . S
H535 C559 0.951 . S
H536 C561 0.951 . S
H537 C563 0.950 . S
H538 C564 0.950 . S
H539 C566 0.950 . S
H540 C569 0.950 . S
H541 C570 0.950 . S
H542 C572 0.950 . S
H543 C573 0.950 . S
C544 H526 0.951 . S
C544 C545 1.366 . S
C544 C546 1.388 . S
C545 C544 1.366 . S
C545 C549 1.385 . S
C546 H527 0.951 . S
C546 C544 1.388 . S
C546 C547 1.366 . S
C547 C546 1.366 . S
C547 C548 1.414 . S
C547 C550 1.499 . S
C548 H528 0.950 . S
C548 C547 1.414 . S
C548 C549 1.374 . S
C549 H529 0.950 . S
C549 C545 1.385 . S
C549 C548 1.374 . S
C550 C547 1.499 . S
C550 C551 1.373 . S
C550 C552 1.389 . S
C551 H530 0.950 . S
C551 C550 1.373 . S
C551 C567 1.377 . S
C552 C550 1.389 . S
C552 C553 1.524 . S
C552 C566 1.377 . S
C553 C552 1.524 . S
C553 C554 1.397 . S
C553 C558 1.363 . S
C554 H531 0.950 . S
C554 C553 1.397 . S
C554 C555 1.334 . S
C555 H532 0.950 . S
C555 C554 1.334 . S
C555 C556 1.287 . S
C556 C555 1.287 . S
C556 C557 1.524 . S
C556 H575 0.913 . S
C557 H533 0.950 . S
C557 C556 1.524 . S
C557 C558 1.415 . S
C558 H534 0.950 . S
C558 C553 1.363 . S
C558 C557 1.415 . S
C559 H535 0.951 . S
C559 C560 1.366 . S
C559 C561 1.388 . S
C560 C559 1.366 . S
C560 C564 1.385 . S
C561 H536 0.951 . S
C561 C559 1.388 . S
C561 C562 1.366 . S
C562 C561 1.366 . S
C562 C563 1.414 . S
C562 C565 1.499 . S
C563 H537 0.950 . S
C563 C562 1.414 . S
C563 C564 1.374 . S
C564 H538 0.950 . S
C564 C560 1.385 . S
C564 C563 1.374 . S
C565 C562 1.499 . S
C565 C566 1.373 . S
C565 C567 1.389 . S
C566 H539 0.950 . S
C566 C552 1.377 . S
C566 C565 1.373 . S
C567 C551 1.377 . S
C567 C565 1.389 . S
C567 C568 1.524 . S
C568 C567 1.524 . S
C568 C569 1.397 . S
C568 C573 1.363 . S
C569 H540 0.950 . S
C569 C568 1.397 . S
C569 C570 1.334 . S
C570 H541 0.950 . S
C570 C569 1.334 . S
C570 C571 1.287 . S
C571 C570 1.287 . S
C571 C572 1.524 . S
C571 H574 0.999 . S
C572 H542 0.950 . S
C572 C571 1.524 . S
C572 C573 1.415 . S
C573 H543 0.950 . S
C573 C568 1.363 . S
C573 C572 1.415 . S
H574 C571 0.999 . S
H575 C556 0.913 . S
H576 C594 0.951 . S
H577 C596 0.951 . S
H578 C598 0.950 . S
H579 C599 0.950 . S
H580 C601 0.950 . S
H581 C604 0.950 . S
H582 C605 0.950 . S
H583 C607 0.950 . S
H584 C608 0.950 . S
H585 C609 0.951 . S
H586 C611 0.951 . S
H587 C613 0.950 . S
H588 C614 0.950 . S
H589 C616 0.950 . S
H590 C619 0.950 . S
H591 C620 0.950 . S
H592 C622 0.950 . S
H593 C623 0.950 . S
C594 H576 0.951 . S
C594 C595 1.366 . S
C594 C596 1.388 . S
C595 C594 1.366 . S
C595 C599 1.385 . S
C596 H577 0.951 . S
C596 C594 1.388 . S
C596 C597 1.366 . S
C597 C596 1.366 . S
C597 C598 1.414 . S
C597 C600 1.499 . S
C598 H578 0.950 . S
C598 C597 1.414 . S
C598 C599 1.374 . S
C599 H579 0.950 . S
C599 C595 1.385 . S
C599 C598 1.374 . S
C600 C597 1.499 . S
C600 C601 1.373 . S
C600 C602 1.389 . S
C601 H580 0.950 . S
C601 C600 1.373 . S
C601 C617 1.377 . S
C602 C600 1.389 . S
C602 C603 1.524 . S
C602 C616 1.377 . S
C603 C602 1.524 . S
C603 C604 1.397 . S
C603 C608 1.363 . S
C604 H581 0.950 . S
C604 C603 1.397 . S
C604 C605 1.334 . S
C605 H582 0.950 . S
C605 C604 1.334 . S
C605 C606 1.287 . S
C606 C605 1.287 . S
C606 C607 1.524 . S
C606 H625 0.913 . S
C607 H583 0.950 . S
C607 C606 1.524 . S
C607 C608 1.415 . S
C608 H584 0.950 . S
C608 C603 1.363 . S
C608 C607 1.415 . S
C609 H585 0.951 . S
C609 C610 1.366 . S
C609 C611 1.388 . S
C610 C609 1.366 . S
C610 C614 1.385 . S
C611 H586 0.951 . S
C611 C609 1.388 . S
C611 C612 1.366 . S
C612 C611 1.366 . S
C612 C613 1.414 . S
C612 C615 1.499 . S
C613 H587 0.950 . S
C613 C612 1.414 . S
C613 C614 1.374 . S
C614 H588 0.950 . S
C614 C610 1.385 . S
C614 C613 1.374 . S
C615 C612 1.499 . S
C615 C616 1.373 . S
C615 C617 1.389 . S
C616 H589 0.950 . S
C616 C602 1.377 . S
C616 C615 1.373 . S
C617 C601 1.377 . S
C617 C615 1.389 . S
C617 C618 1.524 . S
C618 C617 1.524 . S
C618 C619 1.397 . S
C618 C623 1.363 . S
C619 H590 0.950 . S
C619 C618 1.397 . S
C619 C620 1.334 . S
C620 H591 0.950 . S
C620 C619 1.334 . S
C620 C621 1.287 . S
C621 C620 1.287 . S
C621 C622 1.524 . S
C621 H624 0.999 . S
C622 H592 0.950 . S
C622 C621 1.524 . S
C622 C623 1.415 . S
C623 H593 0.950 . S
C623 C618 1.363 . S
C623 C622 1.415 . S
H624 C621 0.999 . S
H625 C606 0.913 . S
H626 C644 0.951 . S
H627 C646 0.951 . S
H628 C648 0.950 . S
H629 C649 0.950 . S
H630 C651 0.950 . S
H631 C654 0.950 . S
H632 C655 0.950 . S
H633 C657 0.950 . S
H634 C658 0.950 . S
H635 C659 0.951 . S
H636 C661 0.951 . S
H637 C663 0.950 . S
H638 C664 0.950 . S
H639 C666 0.950 . S
H640 C669 0.950 . S
H641 C670 0.950 . S
H642 C672 0.950 . S
H643 C673 0.950 . S
C644 H626 0.951 . S
C644 C645 1.366 . S
C644 C646 1.388 . S
C645 C644 1.366 . S
C645 C649 1.385 . S
C646 H627 0.951 . S
C646 C644 1.388 . S
C646 C647 1.366 . S
C647 C646 1.366 . S
C647 C648 1.414 . S
C647 C650 1.499 . S
C648 H628 0.950 . S
C648 C647 1.414 . S
C648 C649 1.374 . S
C649 H629 0.950 . S
C649 C645 1.385 . S
C649 C648 1.374 . S
C650 C647 1.499 . S
C650 C651 1.373 . S
C650 C652 1.389 . S
C651 H630 0.950 . S
C651 C650 1.373 . S
C651 C667 1.377 . S
C652 C650 1.389 . S
C652 C653 1.524 . S
C652 C666 1.377 . S
C653 C652 1.524 . S
C653 C654 1.397 . S
C653 C658 1.363 . S
C654 H631 0.950 . S
C654 C653 1.397 . S
C654 C655 1.334 . S
C655 H632 0.950 . S
C655 C654 1.334 . S
C655 C656 1.287 . S
C656 C655 1.287 . S
C656 C657 1.524 . S
C656 H675 0.913 . S
C657 H633 0.950 . S
C657 C656 1.524 . S
C657 C658 1.415 . S
C658 H634 0.950 . S
C658 C653 1.363 . S
C658 C657 1.415 . S
C659 H635 0.951 . S
C659 C660 1.366 . S
C659 C661 1.388 . S
C660 C659 1.366 . S
C660 C664 1.385 . S
C661 H636 0.951 . S
C661 C659 1.388 . S
C661 C662 1.366 . S
C662 C661 1.366 . S
C662 C663 1.414 . S
C662 C665 1.499 . S
C663 H637 0.950 . S
C663 C662 1.414 . S
C663 C664 1.374 . S
C664 H638 0.950 . S
C664 C660 1.385 . S
C664 C663 1.374 . S
C665 C662 1.499 . S
C665 C666 1.373 . S
C665 C667 1.389 . S
C666 H639 0.950 . S
C666 C652 1.377 . S
C666 C665 1.373 . S
C667 C651 1.377 . S
C667 C665 1.389 . S
C667 C668 1.524 . S
C668 C667 1.524 . S
C668 C669 1.397 . S
C668 C673 1.363 . S
C669 H640 0.950 . S
C669 C668 1.397 . S
C669 C670 1.334 . S
C670 H641 0.950 . S
C670 C669 1.334 . S
C670 C671 1.287 . S
C671 C670 1.287 . S
C671 C672 1.524 . S
C671 H674 0.999 . S
C672 H642 0.950 . S
C672 C671 1.524 . S
C672 C673 1.415 . S
C673 H643 0.950 . S
C673 C668 1.363 . S
C673 C672 1.415 . S
H674 C671 0.999 . S
H675 C656 0.913 . S
H676 C694 0.951 . S
H677 C696 0.951 . S
H678 C698 0.950 . S
H679 C699 0.950 . S
H680 C701 0.950 . S
H681 C704 0.950 . S
H682 C705 0.950 . S
H683 C707 0.950 . S
H684 C708 0.950 . S
H685 C709 0.951 . S
H686 C711 0.951 . S
H687 C713 0.950 . S
H688 C714 0.950 . S
H689 C716 0.950 . S
H690 C719 0.950 . S
H691 C720 0.950 . S
H692 C722 0.950 . S
H693 C723 0.950 . S
C694 H676 0.951 . S
C694 C695 1.366 . S
C694 C696 1.388 . S
C695 C694 1.366 . S
C695 C699 1.385 . S
C696 H677 0.951 . S
C696 C694 1.388 . S
C696 C697 1.366 . S
C697 C696 1.366 . S
C697 C698 1.414 . S
C697 C700 1.499 . S
C698 H678 0.950 . S
C698 C697 1.414 . S
C698 C699 1.374 . S
C699 H679 0.950 . S
C699 C695 1.385 . S
C699 C698 1.374 . S
C700 C697 1.499 . S
C700 C701 1.373 . S
C700 C702 1.389 . S
C701 H680 0.950 . S
C701 C700 1.373 . S
C701 C717 1.377 . S
C702 C700 1.389 . S
C702 C703 1.524 . S
C702 C716 1.377 . S
C703 C702 1.524 . S
C703 C704 1.397 . S
C703 C708 1.363 . S
C704 H681 0.950 . S
C704 C703 1.397 . S
C704 C705 1.334 . S
C705 H682 0.950 . S
C705 C704 1.334 . S
C705 C706 1.287 . S
C706 C705 1.287 . S
C706 C707 1.524 . S
C706 H725 0.913 . S
C707 H683 0.950 . S
C707 C706 1.524 . S
C707 C708 1.415 . S
C708 H684 0.950 . S
C708 C703 1.363 . S
C708 C707 1.415 . S
C709 H685 0.951 . S
C709 C710 1.366 . S
C709 C711 1.388 . S
C710 C709 1.366 . S
C710 C714 1.385 . S
C711 H686 0.951 . S
C711 C709 1.388 . S
C711 C712 1.366 . S
C712 C711 1.366 . S
C712 C713 1.414 . S
C712 C715 1.499 . S
C713 H687 0.950 . S
C713 C712 1.414 . S
C713 C714 1.374 . S
C714 H688 0.950 . S
C714 C710 1.385 . S
C714 C713 1.374 . S
C715 C712 1.499 . S
C715 C716 1.373 . S
C715 C717 1.389 . S
C716 H689 0.950 . S
C716 C702 1.377 . S
C716 C715 1.373 . S
C717 C701 1.377 . S
C717 C715 1.389 . S
C717 C718 1.524 . S
C718 C717 1.524 . S
C718 C719 1.397 . S
C718 C723 1.363 . S
C719 H690 0.950 . S
C719 C718 1.397 . S
C719 C720 1.334 . S
C720 H691 0.950 . S
C720 C719 1.334 . S
C720 C721 1.287 . S
C721 C720 1.287 . S
C721 C722 1.524 . S
C721 H724 0.999 . S
C722 H692 0.950 . S
C722 C721 1.524 . S
C722 C723 1.415 . S
C723 H693 0.950 . S
C723 C718 1.363 . S
C723 C722 1.415 . S
H724 C721 0.999 . S
H725 C706 0.913 . S
H726 C744 0.951 . S
H727 C746 0.951 . S
H728 C748 0.950 . S
H729 C749 0.950 . S
H730 C751 0.950 . S
H731 C754 0.950 . S
H732 C755 0.950 . S
H733 C757 0.950 . S
H734 C758 0.950 . S
H735 C759 0.951 . S
H736 C761 0.951 . S
H737 C763 0.950 . S
H738 C764 0.950 . S
H739 C766 0.950 . S
H740 C769 0.950 . S
H741 C770 0.950 . S
H742 C772 0.950 . S
H743 C773 0.950 . S
C744 H726 0.951 . S
C744 C745 1.366 . S
C744 C746 1.388 . S
C745 C744 1.366 . S
C745 C749 1.385 . S
C746 H727 0.951 . S
C746 C744 1.388 . S
C746 C747 1.366 . S
C747 C746 1.366 . S
C747 C748 1.414 . S
C747 C750 1.499 . S
C748 H728 0.950 . S
C748 C747 1.414 . S
C748 C749 1.374 . S
C749 H729 0.950 . S
C749 C745 1.385 . S
C749 C748 1.374 . S
C750 C747 1.499 . S
C750 C751 1.373 . S
C750 C752 1.389 . S
C751 H730 0.950 . S
C751 C750 1.373 . S
C751 C767 1.377 . S
C752 C750 1.389 . S
C752 C753 1.524 . S
C752 C766 1.377 . S
C753 C752 1.524 . S
C753 C754 1.397 . S
C753 C758 1.363 . S
C754 H731 0.950 . S
C754 C753 1.397 . S
C754 C755 1.334 . S
C755 H732 0.950 . S
C755 C754 1.334 . S
C755 C756 1.287 . S
C756 C755 1.287 . S
C756 C757 1.524 . S
C756 H775 0.913 . S
C757 H733 0.950 . S
C757 C756 1.524 . S
C757 C758 1.415 . S
C758 H734 0.950 . S
C758 C753 1.363 . S
C758 C757 1.415 . S
C759 H735 0.951 . S
C759 C760 1.366 . S
C759 C761 1.388 . S
C760 C759 1.366 . S
C760 C764 1.385 . S
C761 H736 0.951 . S
C761 C759 1.388 . S
C761 C762 1.366 . S
C762 C761 1.366 . S
C762 C763 1.414 . S
C762 C765 1.499 . S
C763 H737 0.950 . S
C763 C762 1.414 . S
C763 C764 1.374 . S
C764 H738 0.950 . S
C764 C760 1.385 . S
C764 C763 1.374 . S
C765 C762 1.499 . S
C765 C766 1.373 . S
C765 C767 1.389 . S
C766 H739 0.950 . S
C766 C752 1.377 . S
C766 C765 1.373 . S
C767 C751 1.377 . S
C767 C765 1.389 . S
C767 C768 1.524 . S
C768 C767 1.524 . S
C768 C769 1.397 . S
C768 C773 1.363 . S
C769 H740 0.950 . S
C769 C768 1.397 . S
C769 C770 1.334 . S
C770 H741 0.950 . S
C770 C769 1.334 . S
C770 C771 1.287 . S
C771 C770 1.287 . S
C771 C772 1.524 . S
C771 H774 0.999 . S
C772 H742 0.950 . S
C772 C771 1.524 . S
C772 C773 1.415 . S
C773 H743 0.950 . S
C773 C768 1.363 . S
C773 C772 1.415 . S
H774 C771 0.999 . S
H775 C756 0.913 . S
H776 C794 0.951 . S
H777 C796 0.951 . S
H778 C798 0.950 . S
H779 C799 0.950 . S
H780 C801 0.950 . S
H781 C804 0.950 . S
H782 C805 0.950 1_554 S
H783 C807 0.950 . S
H784 C808 0.950 . S
H785 C809 0.951 . S
H786 C811 0.951 . S
H787 C813 0.950 . S
H788 C814 0.950 . S
H789 C816 0.950 . S
H790 C819 0.950 . S
H791 C820 0.950 . S
H792 C822 0.950 . S
H793 C823 0.950 . S
C794 H776 0.951 . S
C794 C795 1.366 . S
C794 C796 1.388 . S
C795 C794 1.366 . S
C795 C799 1.385 . S
C796 H777 0.951 . S
C796 C794 1.388 . S
C796 C797 1.366 . S
C797 C796 1.366 . S
C797 C798 1.414 . S
C797 C800 1.499 . S
C798 H778 0.950 . S
C798 C797 1.414 . S
C798 C799 1.374 . S
C799 H779 0.950 . S
C799 C795 1.385 . S
C799 C798 1.374 . S
C800 C797 1.499 . S
C800 C801 1.373 . S
C800 C802 1.389 . S
C801 H780 0.950 . S
C801 C800 1.373 . S
C801 C817 1.377 . S
C802 C800 1.389 . S
C802 C803 1.524 . S
C802 C816 1.377 . S
C803 C802 1.524 . S
C803 C804 1.397 . S
C803 C808 1.363 . S
C804 H781 0.950 . S
C804 C803 1.397 . S
C804 C805 1.334 . S
C805 H782 0.950 1_556 S
C805 C804 1.334 . S
C805 C806 1.287 . S
C806 C805 1.287 . S
C806 C807 1.524 . S
C806 H825 0.877 1_556 S
C807 H783 0.950 . S
C807 C806 1.524 . S
C807 C808 1.415 . S
C808 H784 0.950 . S
C808 C803 1.363 . S
C808 C807 1.415 . S
C809 H785 0.951 . S
C809 C810 1.366 . S
C809 C811 1.388 . S
C810 C809 1.366 . S
C810 C814 1.385 . S
C811 H786 0.951 . S
C811 C809 1.388 . S
C811 C812 1.366 . S
C812 C811 1.366 . S
C812 C813 1.414 . S
C812 C815 1.499 . S
C813 H787 0.950 . S
C813 C812 1.414 . S
C813 C814 1.374 . S
C814 H788 0.950 . S
C814 C810 1.385 . S
C814 C813 1.374 . S
C815 C812 1.499 . S
C815 C816 1.373 . S
C815 C817 1.389 . S
C816 H789 0.950 . S
C816 C802 1.377 . S
C816 C815 1.373 . S
C817 C801 1.377 . S
C817 C815 1.389 . S
C817 C818 1.524 . S
C818 C817 1.524 . S
C818 C819 1.397 . S
C818 C823 1.363 . S
C819 H790 0.950 . S
C819 C818 1.397 . S
C819 C820 1.334 . S
C820 H791 0.950 . S
C820 C819 1.334 . S
C820 C821 1.287 . S
C821 C820 1.287 . S
C821 C822 1.524 . S
C821 H824 0.999 . S
C822 H792 0.950 . S
C822 C821 1.524 . S
C822 C823 1.415 . S
C823 H793 0.950 . S
C823 C818 1.363 . S
C823 C822 1.415 . S
H824 C821 0.999 . S
H825 C806 0.877 1_554 S
H826 C844 0.951 . S
H827 C846 0.951 . S
H828 C848 0.950 . S
H829 C849 0.950 . S
H830 C851 0.950 . S
H831 C854 0.950 . S
H832 C855 0.950 . S
H833 C857 0.950 . S
H834 C858 0.950 . S
H835 C859 0.951 . S
H836 C861 0.951 . S
H837 C863 0.950 . S
H838 C864 0.950 . S
H839 C866 0.950 . S
H840 C869 0.950 . S
H841 C870 0.950 . S
H842 C872 0.950 . S
H843 C873 0.950 . S
C844 H826 0.951 . S
C844 C845 1.366 . S
C844 C846 1.388 . S
C845 C844 1.366 . S
C845 C849 1.385 . S
C846 H827 0.951 . S
C846 C844 1.388 . S
C846 C847 1.366 . S
C847 C846 1.366 . S
C847 C848 1.414 . S
C847 C850 1.499 . S
C848 H828 0.950 . S
C848 C847 1.414 . S
C848 C849 1.374 . S
C849 H829 0.950 . S
C849 C845 1.385 . S
C849 C848 1.374 . S
C850 C847 1.499 . S
C850 C851 1.373 . S
C850 C852 1.389 . S
C851 H830 0.950 . S
C851 C850 1.373 . S
C851 C867 1.377 . S
C852 C850 1.389 . S
C852 C853 1.524 . S
C852 C866 1.377 . S
C853 C852 1.524 . S
C853 C854 1.397 . S
C853 C858 1.363 . S
C854 H831 0.950 . S
C854 C853 1.397 . S
C854 C855 1.334 . S
C855 H832 0.950 . S
C855 C854 1.334 . S
C855 C856 1.287 . S
C856 C855 1.287 . S
C856 C857 1.524 . S
C856 H875 0.913 . S
C857 H833 0.950 . S
C857 C856 1.524 . S
C857 C858 1.415 . S
C858 H834 0.950 . S
C858 C853 1.363 . S
C858 C857 1.415 . S
C859 H835 0.951 . S
C859 C860 1.366 . S
C859 C861 1.388 . S
C860 C859 1.366 . S
C860 C864 1.385 . S
C861 H836 0.951 . S
C861 C859 1.388 . S
C861 C862 1.366 . S
C862 C861 1.366 . S
C862 C863 1.414 . S
C862 C865 1.499 . S
C863 H837 0.950 . S
C863 C862 1.414 . S
C863 C864 1.374 . S
C864 H838 0.950 . S
C864 C860 1.385 . S
C864 C863 1.374 . S
C865 C862 1.499 . S
C865 C866 1.373 . S
C865 C867 1.389 . S
C866 H839 0.950 . S
C866 C852 1.377 . S
C866 C865 1.373 . S
C867 C851 1.377 . S
C867 C865 1.389 . S
C867 C868 1.524 . S
C868 C867 1.524 . S
C868 C869 1.397 . S
C868 C873 1.363 . S
C869 H840 0.950 . S
C869 C868 1.397 . S
C869 C870 1.334 . S
C870 H841 0.950 . S
C870 C869 1.334 . S
C870 C871 1.287 . S
C871 C870 1.287 . S
C871 C872 1.524 . S
C871 H874 0.999 . S
C872 H842 0.950 . S
C872 C871 1.524 . S
C872 C873 1.415 . S
C873 H843 0.950 . S
C873 C868 1.363 . S
C873 C872 1.415 . S
H874 C871 0.999 . S
H875 C856 0.913 . S
H876 C894 0.951 . S
H877 C896 0.951 . S
H878 C898 0.950 . S
H879 C899 0.950 . S
H880 C901 0.950 . S
H881 C904 0.950 . S
H882 C905 0.950 . S
H883 C907 0.950 . S
H884 C908 0.950 . S
H885 C909 0.951 . S
H886 C911 0.951 . S
H887 C913 0.950 . S
H888 C914 0.950 . S
H889 C916 0.950 . S
H890 C919 0.950 . S
H891 C920 0.950 . S
H892 C922 0.950 . S
H893 C923 0.950 . S
C894 H876 0.951 . S
C894 C895 1.366 . S
C894 C896 1.388 . S
C895 C894 1.366 . S
C895 C899 1.385 . S
C896 H877 0.951 . S
C896 C894 1.388 . S
C896 C897 1.366 . S
C897 C896 1.366 . S
C897 C898 1.414 . S
C897 C900 1.499 . S
C898 H878 0.950 . S
C898 C897 1.414 . S
C898 C899 1.374 . S
C899 H879 0.950 . S
C899 C895 1.385 . S
C899 C898 1.374 . S
C900 C897 1.499 . S
C900 C901 1.373 . S
C900 C902 1.389 . S
C901 H880 0.950 . S
C901 C900 1.373 . S
C901 C917 1.377 . S
C902 C900 1.389 . S
C902 C903 1.524 . S
C902 C916 1.377 . S
C903 C902 1.524 . S
C903 C904 1.397 . S
C903 C908 1.363 . S
C904 H881 0.950 . S
C904 C903 1.397 . S
C904 C905 1.334 . S
C905 H882 0.950 . S
C905 C904 1.334 . S
C905 C906 1.287 . S
C906 C905 1.287 . S
C906 C907 1.524 . S
C906 H925 0.913 . S
C907 H883 0.950 . S
C907 C906 1.524 . S
C907 C908 1.415 . S
C908 H884 0.950 . S
C908 C903 1.363 . S
C908 C907 1.415 . S
C909 H885 0.951 . S
C909 C910 1.366 . S
C909 C911 1.388 . S
C910 C909 1.366 . S
C910 C914 1.385 . S
C911 H886 0.951 . S
C911 C909 1.388 . S
C911 C912 1.366 . S
C912 C911 1.366 . S
C912 C913 1.414 . S
C912 C915 1.499 . S
C913 H887 0.950 . S
C913 C912 1.414 . S
C913 C914 1.374 . S
C914 H888 0.950 . S
C914 C910 1.385 . S
C914 C913 1.374 . S
C915 C912 1.499 . S
C915 C916 1.373 . S
C915 C917 1.389 . S
C916 H889 0.950 . S
C916 C902 1.377 . S
C916 C915 1.373 . S
C917 C901 1.377 . S
C917 C915 1.389 . S
C917 C918 1.524 . S
C918 C917 1.524 . S
C918 C919 1.397 . S
C918 C923 1.363 . S
C919 H890 0.950 . S
C919 C918 1.397 . S
C919 C920 1.334 . S
C920 H891 0.950 . S
C920 C919 1.334 . S
C920 C921 1.287 . S
C921 C920 1.287 . S
C921 C922 1.524 . S
C921 H924 0.999 . S
C922 H892 0.950 . S
C922 C921 1.524 . S
C922 C923 1.415 . S
C923 H893 0.950 . S
C923 C918 1.363 . S
C923 C922 1.415 . S
H924 C921 0.999 . S
H925 C906 0.913 . S
H926 C944 0.951 . S
H927 C946 0.951 . S
H928 C948 0.950 . S
H929 C949 0.950 . S
H930 C951 0.950 . S
H931 C954 0.950 . S
H932 C955 0.950 . S
H933 C957 0.950 . S
H934 C958 0.950 . S
H935 C959 0.951 . S
H936 C961 0.951 . S
H937 C963 0.950 . S
H938 C964 0.950 . S
H939 C966 0.950 . S
H940 C969 0.950 . S
H941 C970 0.950 . S
H942 C972 0.950 . S
H943 C973 0.950 . S
C944 H926 0.951 . S
C944 C945 1.366 . S
C944 C946 1.388 . S
C945 C944 1.366 . S
C945 C949 1.385 . S
C946 H927 0.951 . S
C946 C944 1.388 . S
C946 C947 1.366 . S
C947 C946 1.366 . S
C947 C948 1.414 . S
C947 C950 1.499 . S
C948 H928 0.950 . S
C948 C947 1.414 . S
C948 C949 1.374 . S
C949 H929 0.950 . S
C949 C945 1.385 . S
C949 C948 1.374 . S
C950 C947 1.499 . S
C950 C951 1.373 . S
C950 C952 1.389 . S
C951 H930 0.950 . S
C951 C950 1.373 . S
C951 C967 1.377 . S
C952 C950 1.389 . S
C952 C953 1.524 . S
C952 C966 1.377 . S
C953 C952 1.524 . S
C953 C954 1.397 . S
C953 C958 1.363 . S
C954 H931 0.950 . S
C954 C953 1.397 . S
C954 C955 1.334 . S
C955 H932 0.950 . S
C955 C954 1.334 . S
C955 C956 1.287 . S
C956 C955 1.287 . S
C956 C957 1.524 . S
C956 H975 0.913 . S
C957 H933 0.950 . S
C957 C956 1.524 . S
C957 C958 1.415 . S
C958 H934 0.950 . S
C958 C953 1.363 . S
C958 C957 1.415 . S
C959 H935 0.951 . S
C959 C960 1.366 . S
C959 C961 1.388 . S
C960 C959 1.366 . S
C960 C964 1.385 . S
C961 H936 0.951 . S
C961 C959 1.388 . S
C961 C962 1.366 . S
C962 C961 1.366 . S
C962 C963 1.414 . S
C962 C965 1.499 . S
C963 H937 0.950 . S
C963 C962 1.414 . S
C963 C964 1.374 . S
C964 H938 0.950 . S
C964 C960 1.385 . S
C964 C963 1.374 . S
C965 C962 1.499 . S
C965 C966 1.373 . S
C965 C967 1.389 . S
C966 H939 0.950 . S
C966 C952 1.377 . S
C966 C965 1.373 . S
C967 C951 1.377 . S
C967 C965 1.389 . S
C967 C968 1.524 . S
C968 C967 1.524 . S
C968 C969 1.397 . S
C968 C973 1.363 . S
C969 H940 0.950 . S
C969 C968 1.397 . S
C969 C970 1.334 . S
C970 H941 0.950 . S
C970 C969 1.334 . S
C970 C971 1.287 . S
C971 C970 1.287 . S
C971 C972 1.524 . S
C971 H974 0.999 . S
C972 H942 0.950 . S
C972 C971 1.524 . S
C972 C973 1.415 . S
C973 H943 0.950 . S
C973 C968 1.363 . S
C973 C972 1.415 . S
H974 C971 0.999 . S
H975 C956 0.913 . S
H976 C994 0.951 . S
H977 C996 0.951 . S
H978 C998 0.950 . S
H979 C999 0.950 . S
H980 C1001 0.950 . S
H981 C1004 0.950 . S
H982 C1005 0.950 . S
H983 C1007 0.950 . S
H984 C1008 0.950 . S
H985 C1009 0.951 . S
H986 C1011 0.951 . S
H987 C1013 0.950 . S
H988 C1014 0.950 . S
H989 C1016 0.950 . S
H990 C1019 0.950 . S
H991 C1020 0.950 . S
H992 C1022 0.950 . S
H993 C1023 0.950 . S
C994 H976 0.951 . S
C994 C995 1.366 1_545 S
C994 C996 1.388 . S
C995 C994 1.366 1_565 S
C995 C999 1.385 . S
C996 H977 0.951 . S
C996 C994 1.388 . S
C996 C997 1.366 . S
C997 C996 1.366 . S
C997 C998 1.414 1_545 S
C997 C1000 1.499 . S
C998 H978 0.950 . S
C998 C997 1.414 1_565 S
C998 C999 1.374 . S
C999 H979 0.950 . S
C999 C995 1.385 . S
C999 C998 1.374 . S
C1000 C997 1.499 . S
C1000 C1001 1.373 . S
C1000 C1002 1.389 . S
C1001 H980 0.950 . S
C1001 C1000 1.373 . S
C1001 C1017 1.377 . S
C1002 C1000 1.389 . S
C1002 C1003 1.524 . S
C1002 C1016 1.377 . S
C1003 C1002 1.524 . S
C1003 C1004 1.397 . S
C1003 C1008 1.363 . S
C1004 H981 0.950 . S
C1004 C1003 1.397 . S
C1004 C1005 1.334 . S
C1005 H982 0.950 . S
C1005 C1004 1.334 . S
C1005 C1006 1.287 . S
C1006 C1005 1.287 . S
C1006 C1007 1.524 . S
C1006 H1025 0.913 . S
C1007 H983 0.950 . S
C1007 C1006 1.524 . S
C1007 C1008 1.415 . S
C1008 H984 0.950 . S
C1008 C1003 1.363 . S
C1008 C1007 1.415 . S
C1009 H985 0.951 . S
C1009 C1010 1.366 . S
C1009 C1011 1.388 . S
C1010 C1009 1.366 . S
C1010 C1014 1.385 . S
C1011 H986 0.951 . S
C1011 C1009 1.388 . S
C1011 C1012 1.366 . S
C1012 C1011 1.366 . S
C1012 C1013 1.414 . S
C1012 C1015 1.499 . S
C1013 H987 0.950 . S
C1013 C1012 1.414 . S
C1013 C1014 1.374 . S
C1014 H988 0.950 . S
C1014 C1010 1.385 . S
C1014 C1013 1.374 . S
C1015 C1012 1.499 . S
C1015 C1016 1.373 . S
C1015 C1017 1.389 . S
C1016 H989 0.950 . S
C1016 C1002 1.377 . S
C1016 C1015 1.373 . S
C1017 C1001 1.377 . S
C1017 C1015 1.389 . S
C1017 C1018 1.524 . S
C1018 C1017 1.524 . S
C1018 C1019 1.397 . S
C1018 C1023 1.363 . S
C1019 H990 0.950 . S
C1019 C1018 1.397 . S
C1019 C1020 1.334 . S
C1020 H991 0.950 . S
C1020 C1019 1.334 . S
C1020 C1021 1.287 . S
C1021 C1020 1.287 . S
C1021 C1022 1.524 . S
C1021 H1024 1.006 . S
C1022 H992 0.950 . S
C1022 C1021 1.524 . S
C1022 C1023 1.415 . S
C1023 H993 0.950 . S
C1023 C1018 1.363 . S
C1023 C1022 1.415 . S
H1024 C1021 1.006 . S
H1025 C1006 0.913 . S
H1026 C1044 0.950 1_565 S
H1027 C1046 0.951 . S
H1028 C1048 0.950 . S
H1029 C1049 0.950 . S
H1030 C1051 0.950 . S
H1031 C1054 0.950 . S
H1032 C1055 0.950 . S
H1033 C1057 0.950 . S
H1034 C1058 0.950 . S
H1035 C1059 0.951 . S
H1036 C1061 0.951 . S
H1037 C1063 0.950 . S
H1038 C1064 0.950 . S
H1039 C1066 0.950 . S
H1040 C1069 0.950 . S
H1041 C1070 0.950 . S
H1042 C1072 0.950 1_545 S
H1043 C1073 0.950 . S
C1044 H1026 0.950 1_545 S
C1044 C1045 1.376 . S
C1044 C1046 1.378 1_545 S
C1045 C1044 1.376 . S
C1045 C1049 1.385 . S
C1046 H1027 0.951 . S
C1046 C1044 1.378 1_565 S
C1046 C1047 1.366 . S
C1047 C1046 1.366 . S
C1047 C1048 1.414 1_565 S
C1047 C1050 1.499 . S
C1048 H1028 0.950 . S
C1048 C1047 1.414 1_545 S
C1048 C1049 1.374 . S
C1049 H1029 0.950 . S
C1049 C1045 1.385 . S
C1049 C1048 1.374 . S
C1050 C1047 1.499 . S
C1050 C1051 1.373 . S
C1050 C1052 1.389 . S
C1051 H1030 0.950 . S
C1051 C1050 1.373 . S
C1051 C1067 1.377 . S
C1052 C1050 1.389 . S
C1052 C1053 1.524 . S
C1052 C1066 1.377 . S
C1053 C1052 1.524 . S
C1053 C1054 1.397 . S
C1053 C1058 1.363 . S
C1054 H1031 0.950 . S
C1054 C1053 1.397 . S
C1054 C1055 1.334 . S
C1055 H1032 0.950 . S
C1055 C1054 1.334 . S
C1055 C1056 1.287 . S
C1056 C1055 1.287 . S
C1056 C1057 1.524 . S
C1056 H1075 0.913 . S
C1057 H1033 0.950 . S
C1057 C1056 1.524 . S
C1057 C1058 1.415 . S
C1058 H1034 0.950 . S
C1058 C1053 1.363 . S
C1058 C1057 1.415 . S
C1059 H1035 0.951 . S
C1059 C1060 1.366 . S
C1059 C1061 1.388 . S
C1060 C1059 1.366 . S
C1060 C1064 1.385 . S
C1061 H1036 0.951 . S
C1061 C1059 1.388 . S
C1061 C1062 1.366 . S
C1062 C1061 1.366 . S
C1062 C1063 1.414 . S
C1062 C1065 1.499 . S
C1063 H1037 0.950 . S
C1063 C1062 1.414 . S
C1063 C1064 1.374 . S
C1064 H1038 0.950 . S
C1064 C1060 1.385 . S
C1064 C1063 1.374 . S
C1065 C1062 1.499 . S
C1065 C1066 1.373 . S
C1065 C1067 1.389 . S
C1066 H1039 0.950 . S
C1066 C1052 1.377 . S
C1066 C1065 1.373 . S
C1067 C1051 1.377 . S
C1067 C1065 1.389 . S
C1067 C1068 1.524 . S
C1068 C1067 1.524 . S
C1068 C1069 1.397 . S
C1068 C1073 1.363 . S
C1069 H1040 0.950 . S
C1069 C1068 1.397 . S
C1069 C1070 1.334 . S
C1070 H1041 0.950 . S
C1070 C1069 1.334 . S
C1070 C1071 1.287 . S
C1071 C1070 1.287 . S
C1071 C1072 1.524 . S
C1071 H1074 0.999 . S
C1072 H1042 0.950 1_565 S
C1072 C1071 1.524 . S
C1072 C1073 1.415 . S
C1073 H1043 0.950 . S
C1073 C1068 1.363 . S
C1073 C1072 1.415 . S
H1074 C1071 0.999 . S
H1075 C1056 0.913 . S
H1076 C1094 0.951 . S
H1077 C1096 0.951 . S
H1078 C1098 0.950 . S
H1079 C1099 0.950 . S
H1080 C1101 0.950 . S
H1081 C1104 0.950 . S
H1082 C1105 0.950 . S
H1083 C1107 0.950 . S
H1084 C1108 0.950 . S
H1085 C1109 0.951 . S
H1086 C1111 0.951 . S
H1087 C1113 0.950 . S
H1088 C1114 0.950 . S
H1089 C1116 0.950 . S
H1090 C1119 0.950 . S
H1091 C1120 0.950 . S
H1092 C1122 0.950 1_565 S
H1093 C1123 0.950 . S
C1094 H1076 0.951 . S
C1094 C1095 1.366 1_545 S
C1094 C1096 1.388 . S
C1095 C1094 1.366 1_565 S
C1095 C1099 1.385 . S
C1096 H1077 0.951 . S
C1096 C1094 1.388 . S
C1096 C1097 1.366 . S
C1097 C1096 1.366 . S
C1097 C1098 1.414 1_545 S
C1097 C1100 1.499 . S
C1098 H1078 0.950 . S
C1098 C1097 1.414 1_565 S
C1098 C1099 1.374 . S
C1099 H1079 0.950 . S
C1099 C1095 1.385 . S
C1099 C1098 1.374 . S
C1100 C1097 1.499 . S
C1100 C1101 1.373 . S
C1100 C1102 1.389 . S
C1101 H1080 0.950 . S
C1101 C1100 1.373 . S
C1101 C1117 1.377 . S
C1102 C1100 1.389 . S
C1102 C1103 1.524 . S
C1102 C1116 1.377 . S
C1103 C1102 1.524 . S
C1103 C1104 1.397 . S
C1103 C1108 1.363 . S
C1104 H1081 0.950 . S
C1104 C1103 1.397 . S
C1104 C1105 1.334 . S
C1105 H1082 0.950 . S
C1105 C1104 1.334 . S
C1105 C1106 1.287 . S
C1106 C1105 1.287 . S
C1106 C1107 1.524 . S
C1106 H1125 0.913 . S
C1107 H1083 0.950 . S
C1107 C1106 1.524 . S
C1107 C1108 1.415 . S
C1108 H1084 0.950 . S
C1108 C1103 1.363 . S
C1108 C1107 1.415 . S
C1109 H1085 0.951 . S
C1109 C1110 1.366 . S
C1109 C1111 1.388 . S
C1110 C1109 1.366 . S
C1110 C1114 1.385 . S
C1111 H1086 0.951 . S
C1111 C1109 1.388 . S
C1111 C1112 1.366 . S
C1112 C1111 1.366 . S
C1112 C1113 1.414 . S
C1112 C1115 1.499 . S
C1113 H1087 0.950 . S
C1113 C1112 1.414 . S
C1113 C1114 1.374 . S
C1114 H1088 0.950 . S
C1114 C1110 1.385 . S
C1114 C1113 1.374 . S
C1115 C1112 1.499 . S
C1115 C1116 1.373 . S
C1115 C1117 1.389 . S
C1116 H1089 0.950 . S
C1116 C1102 1.377 . S
C1116 C1115 1.373 . S
C1117 C1101 1.377 . S
C1117 C1115 1.389 . S
C1117 C1118 1.524 . S
C1118 C1117 1.524 . S
C1118 C1119 1.397 . S
C1118 C1123 1.363 . S
C1119 H1090 0.950 . S
C1119 C1118 1.397 . S
C1119 C1120 1.334 . S
C1120 H1091 0.950 . S
C1120 C1119 1.334 . S
C1120 C1121 1.287 . S
C1121 C1120 1.287 . S
C1121 C1122 1.524 . S
C1121 H1124 0.999 . S
C1122 H1092 0.950 1_545 S
C1122 C1121 1.524 . S
C1122 C1123 1.415 . S
C1123 H1093 0.950 . S
C1123 C1118 1.363 . S
C1123 C1122 1.415 . S
H1124 C1121 0.999 . S
H1125 C1106 0.913 . S
H1126 C1144 0.951 . S
H1127 C1146 0.951 . S
H1128 C1148 0.950 . S
H1129 C1149 0.950 . S
H1130 C1151 0.950 . S
H1131 C1154 0.950 . S
H1132 C1155 0.950 . S
H1133 C1157 0.950 . S
H1134 C1158 0.950 . S
H1135 C1159 0.951 . S
H1136 C1161 0.951 . S
H1137 C1163 0.950 . S
H1138 C1164 0.950 . S
H1139 C1166 0.950 . S
H1140 C1169 0.950 . S
H1141 C1170 0.950 . S
H1142 C1172 0.950 . S
H1143 C1173 0.950 . S
C1144 H1126 0.951 . S
C1144 C1145 1.366 . S
C1144 C1146 1.388 1_545 S
C1145 C1144 1.366 . S
C1145 C1149 1.385 . S
C1146 H1127 0.951 . S
C1146 C1144 1.388 1_565 S
C1146 C1147 1.366 . S
C1147 C1146 1.366 . S
C1147 C1148 1.414 . S
C1147 C1150 1.499 . S
C1148 H1128 0.950 . S
C1148 C1147 1.414 . S
C1148 C1149 1.374 1_565 S
C1149 H1129 0.950 . S
C1149 C1145 1.385 . S
C1149 C1148 1.374 1_545 S
C1150 C1147 1.499 . S
C1150 C1151 1.373 . S
C1150 C1152 1.389 . S
C1151 H1130 0.950 . S
C1151 C1150 1.373 . S
C1151 C1167 1.377 . S
C1152 C1150 1.389 . S
C1152 C1153 1.524 . S
C1152 C1166 1.377 . S
C1153 C1152 1.524 . S
C1153 C1154 1.397 1_565 S
C1153 C1158 1.363 . S
C1154 H1131 0.950 . S
C1154 C1153 1.397 1_545 S
C1154 C1155 1.334 . S
C1155 H1132 0.950 . S
C1155 C1154 1.334 . S
C1155 C1156 1.287 . S
C1156 C1155 1.287 . S
C1156 C1157 1.524 . S
C1156 H1175 0.913 . S
C1157 H1133 0.950 . S
C1157 C1156 1.524 . S
C1157 C1158 1.415 1_545 S
C1158 H1134 0.950 . S
C1158 C1153 1.363 . S
C1158 C1157 1.415 1_565 S
C1159 H1135 0.951 . S
C1159 C1160 1.366 . S
C1159 C1161 1.388 . S
C1160 C1159 1.366 . S
C1160 C1164 1.385 . S
C1161 H1136 0.951 . S
C1161 C1159 1.388 . S
C1161 C1162 1.366 . S
C1162 C1161 1.366 . S
C1162 C1163 1.414 . S
C1162 C1165 1.499 . S
C1163 H1137 0.950 . S
C1163 C1162 1.414 . S
C1163 C1164 1.374 . S
C1164 H1138 0.950 . S
C1164 C1160 1.385 . S
C1164 C1163 1.374 . S
C1165 C1162 1.499 . S
C1165 C1166 1.373 . S
C1165 C1167 1.389 . S
C1166 H1139 0.950 . S
C1166 C1152 1.377 . S
C1166 C1165 1.373 . S
C1167 C1151 1.377 . S
C1167 C1165 1.389 . S
C1167 C1168 1.524 . S
C1168 C1167 1.524 . S
C1168 C1169 1.397 . S
C1168 C1173 1.363 . S
C1169 H1140 0.950 . S
C1169 C1168 1.397 . S
C1169 C1170 1.334 . S
C1170 H1141 0.950 . S
C1170 C1169 1.334 . S
C1170 C1171 1.287 . S
C1171 C1170 1.287 . S
C1171 C1172 1.524 . S
C1171 H1174 0.999 . S
C1172 H1142 0.950 . S
C1172 C1171 1.524 . S
C1172 C1173 1.415 . S
C1173 H1143 0.950 . S
C1173 C1168 1.363 . S
C1173 C1172 1.415 . S
H1174 C1171 0.999 . S
H1175 C1156 0.913 . S
H1176 C1194 0.951 . S
H1177 C1196 0.951 . S
H1178 C1198 0.950 . S
H1179 C1199 0.950 . S
H1180 C1201 0.950 . S
H1181 C1204 0.950 . S
H1182 C1205 0.950 . S
H1183 C1207 0.950 . S
H1184 C1208 0.950 . S
H1185 C1209 0.951 . S
H1186 C1211 0.951 . S
H1187 C1213 0.950 . S
H1188 C1214 0.950 . S
H1189 C1216 0.950 . S
H1190 C1219 0.950 . S
H1191 C1220 0.950 . S
H1192 C1222 0.950 . S
H1193 C1223 0.950 . S
C1194 H1176 0.951 . S
C1194 C1195 1.366 . S
C1194 C1196 1.388 . S
C1195 C1194 1.366 . S
C1195 C1199 1.385 . S
C1196 H1177 0.951 . S
C1196 C1194 1.388 . S
C1196 C1197 1.366 . S
C1197 C1196 1.366 . S
C1197 C1198 1.414 . S
C1197 C1200 1.499 . S
C1198 H1178 0.950 . S
C1198 C1197 1.414 . S
C1198 C1199 1.374 . S
C1199 H1179 0.950 . S
C1199 C1195 1.385 . S
C1199 C1198 1.374 . S
C1200 C1197 1.499 . S
C1200 C1201 1.373 . S
C1200 C1202 1.389 . S
C1201 H1180 0.950 . S
C1201 C1200 1.373 . S
C1201 C1217 1.377 . S
C1202 C1200 1.389 . S
C1202 C1203 1.524 . S
C1202 C1216 1.377 . S
C1203 C1202 1.524 . S
C1203 C1204 1.397 . S
C1203 C1208 1.363 . S
C1204 H1181 0.950 . S
C1204 C1203 1.397 . S
C1204 C1205 1.334 . S
C1205 H1182 0.950 . S
C1205 C1204 1.334 . S
C1205 C1206 1.287 . S
C1206 C1205 1.287 . S
C1206 C1207 1.524 . S
C1206 H1225 0.913 . S
C1207 H1183 0.950 . S
C1207 C1206 1.524 . S
C1207 C1208 1.415 . S
C1208 H1184 0.950 . S
C1208 C1203 1.363 . S
C1208 C1207 1.415 . S
C1209 H1185 0.951 . S
C1209 C1210 1.366 . S
C1209 C1211 1.388 . S
C1210 C1209 1.366 . S
C1210 C1214 1.385 . S
C1211 H1186 0.951 . S
C1211 C1209 1.388 . S
C1211 C1212 1.366 . S
C1212 C1211 1.366 . S
C1212 C1213 1.414 . S
C1212 C1215 1.499 . S
C1213 H1187 0.950 . S
C1213 C1212 1.414 . S
C1213 C1214 1.374 . S
C1214 H1188 0.950 . S
C1214 C1210 1.385 . S
C1214 C1213 1.374 . S
C1215 C1212 1.499 . S
C1215 C1216 1.373 . S
C1215 C1217 1.389 . S
C1216 H1189 0.950 . S
C1216 C1202 1.377 . S
C1216 C1215 1.373 . S
C1217 C1201 1.377 . S
C1217 C1215 1.389 . S
C1217 C1218 1.524 . S
C1218 C1217 1.524 . S
C1218 C1219 1.397 . S
C1218 C1223 1.363 . S
C1219 H1190 0.950 . S
C1219 C1218 1.397 . S
C1219 C1220 1.334 . S
C1220 H1191 0.950 . S
C1220 C1219 1.334 . S
C1220 C1221 1.287 . S
C1221 C1220 1.287 . S
C1221 C1222 1.524 . S
C1221 H1224 0.999 . S
C1222 H1192 0.950 . S
C1222 C1221 1.524 . S
C1222 C1223 1.415 . S
C1223 H1193 0.950 . S
C1223 C1218 1.363 . S
C1223 C1222 1.415 . S
H1224 C1221 0.999 . S
H1225 C1206 0.913 . S
H1226 C1244 0.951 . S
H1227 C1246 0.951 . S
H1228 C1248 0.950 . S
H1229 C1249 0.950 . S
H1230 C1251 0.950 . S
H1231 C1254 0.950 . S
H1232 C1255 0.950 . S
H1233 C1257 0.950 . S
H1234 C1258 0.950 . S
H1235 C1259 0.951 . S
H1236 C1261 0.951 . S
H1237 C1263 0.950 . S
H1238 C1264 0.950 . S
H1239 C1266 0.950 . S
H1240 C1269 0.950 . S
H1241 C1270 0.950 . S
H1242 C1272 0.950 . S
H1243 C1273 0.950 . S
C1244 H1226 0.951 . S
C1244 C1245 1.366 . S
C1244 C1246 1.388 . S
C1245 C1244 1.366 . S
C1245 C1249 1.385 . S
C1246 H1227 0.951 . S
C1246 C1244 1.388 . S
C1246 C1247 1.366 . S
C1247 C1246 1.366 . S
C1247 C1248 1.414 . S
C1247 C1250 1.499 . S
C1248 H1228 0.950 . S
C1248 C1247 1.414 . S
C1248 C1249 1.374 . S
C1249 H1229 0.950 . S
C1249 C1245 1.385 . S
C1249 C1248 1.374 . S
C1250 C1247 1.499 . S
C1250 C1251 1.373 . S
C1250 C1252 1.389 . S
C1251 H1230 0.950 . S
C1251 C1250 1.373 . S
C1251 C1267 1.377 . S
C1252 C1250 1.389 . S
C1252 C1253 1.524 . S
C1252 C1266 1.377 . S
C1253 C1252 1.524 . S
C1253 C1254 1.397 . S
C1253 C1258 1.363 . S
C1254 H1231 0.950 . S
C1254 C1253 1.397 . S
C1254 C1255 1.334 . S
C1255 H1232 0.950 . S
C1255 C1254 1.334 . S
C1255 C1256 1.287 . S
C1256 C1255 1.287 . S
C1256 C1257 1.524 . S
C1256 H1275 0.913 . S
C1257 H1233 0.950 . S
C1257 C1256 1.524 . S
C1257 C1258 1.415 . S
C1258 H1234 0.950 . S
C1258 C1253 1.363 . S
C1258 C1257 1.415 . S
C1259 H1235 0.951 . S
C1259 C1260 1.366 . S
C1259 C1261 1.388 . S
C1260 C1259 1.366 . S
C1260 C1264 1.385 . S
C1261 H1236 0.951 . S
C1261 C1259 1.388 . S
C1261 C1262 1.366 . S
C1262 C1261 1.366 . S
C1262 C1263 1.414 . S
C1262 C1265 1.499 . S
C1263 H1237 0.950 . S
C1263 C1262 1.414 . S
C1263 C1264 1.374 . S
C1264 H1238 0.950 . S
C1264 C1260 1.385 . S
C1264 C1263 1.374 . S
C1265 C1262 1.499 . S
C1265 C1266 1.373 . S
C1265 C1267 1.389 . S
C1266 H1239 0.950 . S
C1266 C1252 1.377 . S
C1266 C1265 1.373 . S
C1267 C1251 1.377 . S
C1267 C1265 1.389 . S
C1267 C1268 1.524 . S
C1268 C1267 1.524 . S
C1268 C1269 1.397 . S
C1268 C1273 1.363 . S
C1269 H1240 0.950 . S
C1269 C1268 1.397 . S
C1269 C1270 1.334 . S
C1270 H1241 0.950 . S
C1270 C1269 1.334 . S
C1270 C1271 1.287 . S
C1271 C1270 1.287 . S
C1271 C1272 1.524 . S
C1271 H1274 0.999 . S
C1272 H1242 0.950 . S
C1272 C1271 1.524 . S
C1272 C1273 1.415 . S
C1273 H1243 0.950 . S
C1273 C1268 1.363 . S
C1273 C1272 1.415 . S
H1274 C1271 0.999 . S
H1275 C1256 0.913 . S
H1276 C1294 0.951 . S
H1277 C1296 0.951 . S
H1278 C1298 0.950 . S
H1279 C1299 0.950 . S
H1280 C1301 0.950 . S
H1281 C1304 0.950 . S
H1282 C1305 0.950 . S
H1283 C1307 0.950 . S
H1284 C1308 0.950 . S
H1285 C1309 0.951 . S
H1286 C1311 0.951 . S
H1287 C1313 0.950 . S
H1288 C1314 0.950 . S
H1289 C1316 0.950 . S
H1290 C1319 0.950 . S
H1291 C1320 0.950 . S
H1292 C1322 0.950 . S
H1293 C1323 0.950 . S
C1294 H1276 0.951 . S
C1294 C1295 1.366 . S
C1294 C1296 1.388 . S
C1295 C1294 1.366 . S
C1295 C1299 1.385 . S
C1296 H1277 0.951 . S
C1296 C1294 1.388 . S
C1296 C1297 1.366 . S
C1297 C1296 1.366 . S
C1297 C1298 1.414 . S
C1297 C1300 1.499 . S
C1298 H1278 0.950 . S
C1298 C1297 1.414 . S
C1298 C1299 1.374 . S
C1299 H1279 0.950 . S
C1299 C1295 1.385 . S
C1299 C1298 1.374 . S
C1300 C1297 1.499 . S
C1300 C1301 1.373 . S
C1300 C1302 1.389 . S
C1301 H1280 0.950 . S
C1301 C1300 1.373 . S
C1301 C1317 1.377 . S
C1302 C1300 1.389 . S
C1302 C1303 1.524 . S
C1302 C1316 1.377 . S
C1303 C1302 1.524 . S
C1303 C1304 1.397 . S
C1303 C1308 1.363 . S
C1304 H1281 0.950 . S
C1304 C1303 1.397 . S
C1304 C1305 1.334 . S
C1305 H1282 0.950 . S
C1305 C1304 1.334 . S
C1305 C1306 1.287 . S
C1306 C1305 1.287 . S
C1306 C1307 1.524 . S
C1306 H1325 0.913 . S
C1307 H1283 0.950 . S
C1307 C1306 1.524 . S
C1307 C1308 1.415 . S
C1308 H1284 0.950 . S
C1308 C1303 1.363 . S
C1308 C1307 1.415 . S
C1309 H1285 0.951 . S
C1309 C1310 1.366 . S
C1309 C1311 1.388 . S
C1310 C1309 1.366 . S
C1310 C1314 1.385 . S
C1311 H1286 0.951 . S
C1311 C1309 1.388 . S
C1311 C1312 1.366 . S
C1312 C1311 1.366 . S
C1312 C1313 1.414 . S
C1312 C1315 1.499 . S
C1313 H1287 0.950 . S
C1313 C1312 1.414 . S
C1313 C1314 1.374 . S
C1314 H1288 0.950 . S
C1314 C1310 1.385 . S
C1314 C1313 1.374 . S
C1315 C1312 1.499 . S
C1315 C1316 1.373 . S
C1315 C1317 1.389 . S
C1316 H1289 0.950 . S
C1316 C1302 1.377 . S
C1316 C1315 1.373 . S
C1317 C1301 1.377 . S
C1317 C1315 1.389 . S
C1317 C1318 1.524 . S
C1318 C1317 1.524 . S
C1318 C1319 1.397 . S
C1318 C1323 1.363 . S
C1319 H1290 0.950 . S
C1319 C1318 1.397 . S
C1319 C1320 1.334 . S
C1320 H1291 0.950 . S
C1320 C1319 1.334 . S
C1320 C1321 1.287 . S
C1321 C1320 1.287 . S
C1321 C1322 1.524 . S
C1321 H1324 0.999 . S
C1322 H1292 0.950 . S
C1322 C1321 1.524 . S
C1322 C1323 1.415 . S
C1323 H1293 0.950 . S
C1323 C1318 1.363 . S
C1323 C1322 1.415 . S
H1324 C1321 0.999 . S
H1325 C1306 0.913 . S
H1326 C1344 0.951 . S
H1327 C1346 0.951 . S
H1328 C1348 0.950 . S
H1329 C1349 0.950 . S
H1330 C1351 0.950 . S
H1331 C1354 0.950 . S
H1332 C1355 0.950 . S
H1333 C1357 0.950 . S
H1334 C1358 0.950 . S
H1335 C1359 0.951 . S
H1336 C1361 0.951 . S
H1337 C1363 0.950 . S
H1338 C1364 0.950 . S
H1339 C1366 0.950 . S
H1340 C1369 0.950 . S
H1341 C1370 0.950 . S
H1342 C1372 0.950 . S
H1343 C1373 0.950 . S
C1344 H1326 0.951 . S
C1344 C1345 1.366 . S
C1344 C1346 1.388 . S
C1345 C1344 1.366 . S
C1345 C1349 1.385 . S
C1346 H1327 0.951 . S
C1346 C1344 1.388 . S
C1346 C1347 1.366 . S
C1347 C1346 1.366 . S
C1347 C1348 1.414 . S
C1347 C1350 1.499 . S
C1348 H1328 0.950 . S
C1348 C1347 1.414 . S
C1348 C1349 1.374 . S
C1349 H1329 0.950 . S
C1349 C1345 1.385 . S
C1349 C1348 1.374 . S
C1350 C1347 1.499 . S
C1350 C1351 1.373 . S
C1350 C1352 1.389 . S
C1351 H1330 0.950 . S
C1351 C1350 1.373 . S
C1351 C1367 1.377 . S
C1352 C1350 1.389 . S
C1352 C1353 1.524 . S
C1352 C1366 1.377 . S
C1353 C1352 1.524 . S
C1353 C1354 1.397 . S
C1353 C1358 1.363 . S
C1354 H1331 0.950 . S
C1354 C1353 1.397 . S
C1354 C1355 1.334 . S
C1355 H1332 0.950 . S
C1355 C1354 1.334 . S
C1355 C1356 1.287 . S
C1356 C1355 1.287 . S
C1356 C1357 1.524 . S
C1356 H1375 0.913 . S
C1357 H1333 0.950 . S
C1357 C1356 1.524 . S
C1357 C1358 1.415 . S
C1358 H1334 0.950 . S
C1358 C1353 1.363 . S
C1358 C1357 1.415 . S
C1359 H1335 0.951 . S
C1359 C1360 1.366 . S
C1359 C1361 1.388 . S
C1360 C1359 1.366 . S
C1360 C1364 1.385 . S
C1361 H1336 0.951 . S
C1361 C1359 1.388 . S
C1361 C1362 1.366 . S
C1362 C1361 1.366 . S
C1362 C1363 1.414 . S
C1362 C1365 1.499 . S
C1363 H1337 0.950 . S
C1363 C1362 1.414 . S
C1363 C1364 1.374 . S
C1364 H1338 0.950 . S
C1364 C1360 1.385 . S
C1364 C1363 1.374 . S
C1365 C1362 1.499 . S
C1365 C1366 1.373 . S
C1365 C1367 1.389 . S
C1366 H1339 0.950 . S
C1366 C1352 1.377 . S
C1366 C1365 1.373 . S
C1367 C1351 1.377 . S
C1367 C1365 1.389 . S
C1367 C1368 1.524 . S
C1368 C1367 1.524 . S
C1368 C1369 1.397 . S
C1368 C1373 1.363 . S
C1369 H1340 0.950 . S
C1369 C1368 1.397 . S
C1369 C1370 1.334 . S
C1370 H1341 0.950 . S
C1370 C1369 1.334 . S
C1370 C1371 1.287 . S
C1371 C1370 1.287 . S
C1371 C1372 1.524 . S
C1371 H1374 0.999 . S
C1372 H1342 0.950 . S
C1372 C1371 1.524 . S
C1372 C1373 1.415 . S
C1373 H1343 0.950 . S
C1373 C1368 1.363 . S
C1373 C1372 1.415 . S
H1374 C1371 0.999 . S
H1375 C1356 0.913 . S
H1376 C1394 0.951 . S
H1377 C1396 0.951 . S
H1378 C1398 0.950 . S
H1379 C1399 0.950 . S
H1380 C1401 0.950 . S
H1381 C1404 0.950 . S
H1382 C1405 0.950 . S
H1383 C1407 0.950 . S
H1384 C1408 0.950 . S
H1385 C1409 0.951 . S
H1386 C1411 0.951 . S
H1387 C1413 0.950 . S
H1388 C1414 0.950 . S
H1389 C1416 0.950 . S
H1390 C1419 0.950 . S
H1391 C1420 0.950 . S
H1392 C1422 0.950 . S
H1393 C1423 0.950 . S
C1394 H1376 0.951 . S
C1394 C1395 1.366 . S
C1394 C1396 1.388 . S
C1395 C1394 1.366 . S
C1395 C1399 1.385 . S
C1396 H1377 0.951 . S
C1396 C1394 1.388 . S
C1396 C1397 1.366 . S
C1397 C1396 1.366 . S
C1397 C1398 1.414 . S
C1397 C1400 1.499 . S
C1398 H1378 0.950 . S
C1398 C1397 1.414 . S
C1398 C1399 1.374 . S
C1399 H1379 0.950 . S
C1399 C1395 1.385 . S
C1399 C1398 1.374 . S
C1400 C1397 1.499 . S
C1400 C1401 1.373 . S
C1400 C1402 1.389 . S
C1401 H1380 0.950 . S
C1401 C1400 1.373 . S
C1401 C1417 1.377 . S
C1402 C1400 1.389 . S
C1402 C1403 1.524 . S
C1402 C1416 1.377 . S
C1403 C1402 1.524 . S
C1403 C1404 1.397 . S
C1403 C1408 1.363 . S
C1404 H1381 0.950 . S
C1404 C1403 1.397 . S
C1404 C1405 1.334 . S
C1405 H1382 0.950 . S
C1405 C1404 1.334 . S
C1405 C1406 1.287 . S
C1406 C1405 1.287 . S
C1406 C1407 1.524 . S
C1406 H1425 0.913 . S
C1407 H1383 0.950 . S
C1407 C1406 1.524 . S
C1407 C1408 1.415 . S
C1408 H1384 0.950 . S
C1408 C1403 1.363 . S
C1408 C1407 1.415 . S
C1409 H1385 0.951 . S
C1409 C1410 1.366 . S
C1409 C1411 1.388 . S
C1410 C1409 1.366 . S
C1410 C1414 1.385 . S
C1411 H1386 0.951 . S
C1411 C1409 1.388 . S
C1411 C1412 1.366 . S
C1412 C1411 1.366 . S
C1412 C1413 1.414 . S
C1412 C1415 1.499 . S
C1413 H1387 0.950 . S
C1413 C1412 1.414 . S
C1413 C1414 1.374 . S
C1414 H1388 0.950 . S
C1414 C1410 1.385 . S
C1414 C1413 1.374 . S
C1415 C1412 1.499 . S
C1415 C1416 1.373 . S
C1415 C1417 1.389 . S
C1416 H1389 0.950 . S
C1416 C1402 1.377 . S
C1416 C1415 1.373 . S
C1417 C1401 1.377 . S
C1417 C1415 1.389 . S
C1417 C1418 1.524 . S
C1418 C1417 1.524 . S
C1418 C1419 1.397 . S
C1418 C1423 1.363 . S
C1419 H1390 0.950 . S
C1419 C1418 1.397 . S
C1419 C1420 1.334 . S
C1420 H1391 0.950 . S
C1420 C1419 1.334 . S
C1420 C1421 1.287 . S
C1421 C1420 1.287 . S
C1421 C1422 1.524 . S
C1421 H1424 0.999 . S
C1422 H1392 0.950 . S
C1422 C1421 1.524 . S
C1422 C1423 1.415 . S
C1423 H1393 0.950 . S
C1423 C1418 1.363 . S
C1423 C1422 1.415 . S
H1424 C1421 0.999 . S
H1425 C1406 0.913 . S
H1426 C1444 0.951 . S
H1427 C1446 0.951 . S
H1428 C1448 0.950 . S
H1429 C1449 0.950 . S
H1430 C1451 0.950 . S
H1431 C1454 0.950 . S
H1432 C1455 0.950 . S
H1433 C1457 0.950 . S
H1434 C1458 0.950 . S
H1435 C1459 0.951 . S
H1436 C1461 0.951 . S
H1437 C1463 0.950 . S
H1438 C1464 0.950 . S
H1439 C1466 0.950 . S
H1440 C1469 0.950 . S
H1441 C1470 0.950 . S
H1442 C1472 0.950 . S
H1443 C1473 0.950 . S
C1444 H1426 0.951 . S
C1444 C1445 1.366 . S
C1444 C1446 1.388 . S
C1445 C1444 1.366 . S
C1445 C1449 1.385 . S
C1446 H1427 0.951 . S
C1446 C1444 1.388 . S
C1446 C1447 1.366 . S
C1447 C1446 1.366 . S
C1447 C1448 1.414 . S
C1447 C1450 1.499 . S
C1448 H1428 0.950 . S
C1448 C1447 1.414 . S
C1448 C1449 1.374 . S
C1449 H1429 0.950 . S
C1449 C1445 1.385 . S
C1449 C1448 1.374 . S
C1450 C1447 1.499 . S
C1450 C1451 1.373 . S
C1450 C1452 1.389 . S
C1451 H1430 0.950 . S
C1451 C1450 1.373 . S
C1451 C1467 1.377 . S
C1452 C1450 1.389 . S
C1452 C1453 1.524 . S
C1452 C1466 1.377 . S
C1453 C1452 1.524 . S
C1453 C1454 1.397 . S
C1453 C1458 1.363 . S
C1454 H1431 0.950 . S
C1454 C1453 1.397 . S
C1454 C1455 1.334 . S
C1455 H1432 0.950 . S
C1455 C1454 1.334 . S
C1455 C1456 1.287 . S
C1456 C1455 1.287 . S
C1456 C1457 1.524 . S
C1456 H1475 0.913 . S
C1457 H1433 0.950 . S
C1457 C1456 1.524 . S
C1457 C1458 1.415 . S
C1458 H1434 0.950 . S
C1458 C1453 1.363 . S
C1458 C1457 1.415 . S
C1459 H1435 0.951 . S
C1459 C1460 1.366 . S
C1459 C1461 1.388 . S
C1460 C1459 1.366 . S
C1460 C1464 1.385 . S
C1461 H1436 0.951 . S
C1461 C1459 1.388 . S
C1461 C1462 1.366 . S
C1462 C1461 1.366 . S
C1462 C1463 1.414 . S
C1462 C1465 1.499 . S
C1463 H1437 0.950 . S
C1463 C1462 1.414 . S
C1463 C1464 1.374 . S
C1464 H1438 0.950 . S
C1464 C1460 1.385 . S
C1464 C1463 1.374 . S
C1465 C1462 1.499 . S
C1465 C1466 1.373 . S
C1465 C1467 1.389 . S
C1466 H1439 0.950 . S
C1466 C1452 1.377 . S
C1466 C1465 1.373 . S
C1467 C1451 1.377 . S
C1467 C1465 1.389 . S
C1467 C1468 1.524 . S
C1468 C1467 1.524 . S
C1468 C1469 1.397 . S
C1468 C1473 1.363 . S
C1469 H1440 0.950 . S
C1469 C1468 1.397 . S
C1469 C1470 1.334 . S
C1470 H1441 0.950 . S
C1470 C1469 1.334 . S
C1470 C1471 1.287 . S
C1471 C1470 1.287 . S
C1471 C1472 1.524 . S
C1471 H1474 0.999 . S
C1472 H1442 0.950 . S
C1472 C1471 1.524 . S
C1472 C1473 1.415 . S
C1473 H1443 0.950 . S
C1473 C1468 1.363 . S
C1473 C1472 1.415 . S
H1474 C1471 0.999 . S
H1475 C1456 0.913 . S
H1476 C1494 0.951 . S
H1477 C1496 0.951 . S
H1478 C1498 0.950 . S
H1479 C1499 0.950 . S
H1480 C1501 0.950 . S
H1481 C1504 0.950 . S
H1482 C1505 0.950 . S
H1483 C1507 0.950 . S
H1484 C1508 0.950 . S
H1485 C1509 0.951 . S
H1486 C1511 0.951 . S
H1487 C1513 0.950 . S
H1488 C1514 0.950 . S
H1489 C1516 0.950 . S
H1490 C1519 0.950 . S
H1491 C1520 0.950 . S
H1492 C1522 0.950 . S
H1493 C1523 0.950 . S
C1494 H1476 0.951 . S
C1494 C1495 1.366 . S
C1494 C1496 1.388 . S
C1495 C1494 1.366 . S
C1495 C1499 1.385 . S
C1496 H1477 0.951 . S
C1496 C1494 1.388 . S
C1496 C1497 1.366 . S
C1497 C1496 1.366 . S
C1497 C1498 1.414 . S
C1497 C1500 1.499 . S
C1498 H1478 0.950 . S
C1498 C1497 1.414 . S
C1498 C1499 1.374 . S
C1499 H1479 0.950 . S
C1499 C1495 1.385 . S
C1499 C1498 1.374 . S
C1500 C1497 1.499 . S
C1500 C1501 1.373 . S
C1500 C1502 1.389 . S
C1501 H1480 0.950 . S
C1501 C1500 1.373 . S
C1501 C1517 1.377 . S
C1502 C1500 1.389 . S
C1502 C1503 1.524 . S
C1502 C1516 1.377 . S
C1503 C1502 1.524 . S
C1503 C1504 1.397 . S
C1503 C1508 1.363 . S
C1504 H1481 0.950 . S
C1504 C1503 1.397 . S
C1504 C1505 1.334 . S
C1505 H1482 0.950 . S
C1505 C1504 1.334 . S
C1505 C1506 1.287 . S
C1506 C1505 1.287 . S
C1506 C1507 1.524 . S
C1506 H1525 0.913 . S
C1507 H1483 0.950 . S
C1507 C1506 1.524 . S
C1507 C1508 1.415 . S
C1508 H1484 0.950 . S
C1508 C1503 1.363 . S
C1508 C1507 1.415 . S
C1509 H1485 0.951 . S
C1509 C1510 1.366 . S
C1509 C1511 1.388 . S
C1510 C1509 1.366 . S
C1510 C1514 1.385 . S
C1511 H1486 0.951 . S
C1511 C1509 1.388 . S
C1511 C1512 1.366 . S
C1512 C1511 1.366 . S
C1512 C1513 1.414 . S
C1512 C1515 1.499 . S
C1513 H1487 0.950 . S
C1513 C1512 1.414 . S
C1513 C1514 1.374 . S
C1514 H1488 0.950 . S
C1514 C1510 1.385 . S
C1514 C1513 1.374 . S
C1515 C1512 1.499 . S
C1515 C1516 1.373 . S
C1515 C1517 1.389 . S
C1516 H1489 0.950 . S
C1516 C1502 1.377 . S
C1516 C1515 1.373 . S
C1517 C1501 1.377 . S
C1517 C1515 1.389 . S
C1517 C1518 1.524 . S
C1518 C1517 1.524 . S
C1518 C1519 1.397 . S
C1518 C1523 1.363 . S
C1519 H1490 0.950 . S
C1519 C1518 1.397 . S
C1519 C1520 1.334 . S
C1520 H1491 0.950 . S
C1520 C1519 1.334 . S
C1520 C1521 1.287 . S
C1521 C1520 1.287 . S
C1521 C1522 1.524 . S
C1521 H1524 0.999 . S
C1522 H1492 0.950 . S
C1522 C1521 1.524 . S
C1522 C1523 1.415 . S
C1523 H1493 0.950 . S
C1523 C1518 1.363 . S
C1523 C1522 1.415 . S
H1524 C1521 0.999 . S
H1525 C1506 0.913 . S
H1526 C1544 0.951 . S
H1527 C1546 0.951 . S
H1528 C1548 0.950 . S
H1529 C1549 0.950 . S
H1530 C1551 0.950 . S
H1531 C1554 0.950 . S
H1532 C1555 0.950 . S
H1533 C1557 0.950 . S
H1534 C1558 0.950 . S
H1535 C1559 0.951 . S
H1536 C1561 0.951 . S
H1537 C1563 0.950 . S
H1538 C1564 0.950 . S
H1539 C1566 0.950 . S
H1540 C1569 0.950 . S
H1541 C1570 0.950 . S
H1542 C1572 0.950 . S
H1543 C1573 0.950 . S
C1544 H1526 0.951 . S
C1544 C1545 1.366 . S
C1544 C1546 1.388 . S
C1545 C1544 1.366 . S
C1545 C1549 1.385 . S
C1546 H1527 0.951 . S
C1546 C1544 1.388 . S
C1546 C1547 1.366 . S
C1547 C1546 1.366 . S
C1547 C1548 1.414 . S
C1547 C1550 1.499 . S
C1548 H1528 0.950 . S
C1548 C1547 1.414 . S
C1548 C1549 1.374 . S
C1549 H1529 0.950 . S
C1549 C1545 1.385 . S
C1549 C1548 1.374 . S
C1550 C1547 1.499 . S
C1550 C1551 1.373 . S
C1550 C1552 1.389 . S
C1551 H1530 0.950 . S
C1551 C1550 1.373 . S
C1551 C1567 1.377 . S
C1552 C1550 1.389 . S
C1552 C1553 1.524 . S
C1552 C1566 1.377 . S
C1553 C1552 1.524 . S
C1553 C1554 1.397 . S
C1553 C1558 1.363 . S
C1554 H1531 0.950 . S
C1554 C1553 1.397 . S
C1554 C1555 1.334 . S
C1555 H1532 0.950 . S
C1555 C1554 1.334 . S
C1555 C1556 1.287 . S
C1556 C1555 1.287 . S
C1556 C1557 1.524 . S
C1556 H1575 0.913 . S
C1557 H1533 0.950 . S
C1557 C1556 1.524 . S
C1557 C1558 1.415 . S
C1558 H1534 0.950 . S
C1558 C1553 1.363 . S
C1558 C1557 1.415 . S
C1559 H1535 0.951 . S
C1559 C1560 1.366 . S
C1559 C1561 1.388 . S
C1560 C1559 1.366 . S
C1560 C1564 1.385 . S
C1561 H1536 0.951 . S
C1561 C1559 1.388 . S
C1561 C1562 1.366 . S
C1562 C1561 1.366 . S
C1562 C1563 1.414 . S
C1562 C1565 1.499 . S
C1563 H1537 0.950 . S
C1563 C1562 1.414 . S
C1563 C1564 1.374 . S
C1564 H1538 0.950 . S
C1564 C1560 1.385 . S
C1564 C1563 1.374 . S
C1565 C1562 1.499 . S
C1565 C1566 1.373 . S
C1565 C1567 1.389 . S
C1566 H1539 0.950 . S
C1566 C1552 1.377 . S
C1566 C1565 1.373 . S
C1567 C1551 1.377 . S
C1567 C1565 1.389 . S
C1567 C1568 1.524 . S
C1568 C1567 1.524 . S
C1568 C1569 1.397 . S
C1568 C1573 1.363 . S
C1569 H1540 0.950 . S
C1569 C1568 1.397 . S
C1569 C1570 1.334 . S
C1570 H1541 0.950 . S
C1570 C1569 1.334 . S
C1570 C1571 1.287 . S
C1571 C1570 1.287 . S
C1571 C1572 1.524 . S
C1571 H1574 0.999 . S
C1572 H1542 0.950 . S
C1572 C1571 1.524 . S
C1572 C1573 1.415 . S
C1573 H1543 0.950 . S
C1573 C1568 1.363 . S
C1573 C1572 1.415 . S
H1574 C1571 0.999 . S
H1575 C1556 0.913 . S
C395 C25 1.523 . S
C410 C331 1.529 . S
C460 C295 1.528 . S
C445 C61 1.522 . S
C510 C318 1.516 . S
C495 C97 1.524 . S
C560 C306 1.515 . S
C545 C133 1.523 . S
C610 C375 1.528 . S
C595 C169 1.522 . S
C660 C339 1.528 . S
C645 C205 1.522 . S
C695 C241 1.524 . S
C710 C362 1.516 . S
C760 C350 1.516 . S
C745 C277 1.524 . S
C795 C31 1.469 . S
C810 C372 1.501 . S
C860 C342 1.501 . S
C845 C67 1.469 . S
C895 C103 1.527 . S
C910 C361 1.532 . S
C945 C139 1.527 . S
C960 C347 1.532 . S
C1010 C328 1.501 . S
C995 C175 1.468 . S
C1045 C211 1.468 . S
C1060 C298 1.501 . S
C1110 C317 1.532 . S
C1095 C247 1.527 . S
C1160 C303 1.532 . S
C1145 C283 1.528 . S
C1210 C353 1.496 . S
C1195 C1 1.486 . S
C1260 C369 1.496 . S
C1245 C37 1.487 . S
C1295 C73 1.460 . S
C1310 C340 1.463 . S
C1360 C364 1.463 . S
C1345 C109 1.460 . S
C1410 C309 1.496 . S
C1395 C145 1.487 . S
C1445 C181 1.487 . S
C1460 C325 1.496 . S
C1495 C217 1.460 . S
C1510 C296 1.463 . S
C1545 C253 1.460 . S
C1560 C320 1.463 . S
