# Generated by pormake.
# Topology zzz, (3,6)-cn, num edge types: 1
# Building blocks:
#     Node 0, Type 0, BuildingBlock: BETDIP_clean_linker_0, # of connection points: 3
#     Node 1, Type 0, BuildingBlock: BETDIP_clean_linker_0, # of connection points: 3
#     Node 2, Type 0, BuildingBlock: BETDIP_clean_linker_0, # of connection points: 3
#     Node 3, Type 0, BuildingBlock: BETDIP_clean_linker_0, # of connection points: 3
#     Node 4, Type 0, BuildingBlock: BETDIP_clean_linker_0, # of connection points: 3
#     Node 5, Type 0, BuildingBlock: BETDIP_clean_linker_0, # of connection points: 3
#     Node 6, Type 0, BuildingBlock: BETDIP_clean_linker_0, # of connection points: 3
#     Node 7, Type 0, BuildingBlock: BETDIP_clean_linker_0, # of connection points: 3
#     Node 8, Type 1, BuildingBlock: KUMJIN_clean_sbu_1, # of connection points: 6
#     Node 9, Type 1, BuildingBlock: KUMJIN_clean_sbu_1, # of connection points: 6
#     Node 10, Type 1, BuildingBlock: KUMJIN_clean_sbu_1, # of connection points: 6
#     Node 11, Type 1, BuildingBlock: KUMJIN_clean_sbu_1, # of connection points: 6
#     Edge 12, Type (0, 1), BuildingBlock: EZIPEK_clean_linker_0, # of connection points: 2
#     Edge 13, Type (0, 1), BuildingBlock: EZIPEK_clean_linker_0, # of connection points: 2
#     Edge 14, Type (0, 1), BuildingBlock: EZIPEK_clean_linker_0, # of connection points: 2
#     Edge 15, Type (0, 1), BuildingBlock: EZIPEK_clean_linker_0, # of connection points: 2
#     Edge 16, Type (0, 1), BuildingBlock: EZIPEK_clean_linker_0, # of connection points: 2
#     Edge 17, Type (0, 1), BuildingBlock: EZIPEK_clean_linker_0, # of connection points: 2
#     Edge 18, Type (0, 1), BuildingBlock: EZIPEK_clean_linker_0, # of connection points: 2
#     Edge 19, Type (0, 1), BuildingBlock: EZIPEK_clean_linker_0, # of connection points: 2
#     Edge 20, Type (0, 1), BuildingBlock: EZIPEK_clean_linker_0, # of connection points: 2
#     Edge 21, Type (0, 1), BuildingBlock: EZIPEK_clean_linker_0, # of connection points: 2
#     Edge 22, Type (0, 1), BuildingBlock: EZIPEK_clean_linker_0, # of connection points: 2
#     Edge 23, Type (0, 1), BuildingBlock: EZIPEK_clean_linker_0, # of connection points: 2
#     Edge 24, Type (0, 1), BuildingBlock: EZIPEK_clean_linker_0, # of connection points: 2
#     Edge 25, Type (0, 1), BuildingBlock: EZIPEK_clean_linker_0, # of connection points: 2
#     Edge 26, Type (0, 1), BuildingBlock: EZIPEK_clean_linker_0, # of connection points: 2
#     Edge 27, Type (0, 1), BuildingBlock: EZIPEK_clean_linker_0, # of connection points: 2
#     Edge 28, Type (0, 1), BuildingBlock: EZIPEK_clean_linker_0, # of connection points: 2
#     Edge 29, Type (0, 1), BuildingBlock: EZIPEK_clean_linker_0, # of connection points: 2
#     Edge 30, Type (0, 1), BuildingBlock: EZIPEK_clean_linker_0, # of connection points: 2
#     Edge 31, Type (0, 1), BuildingBlock: EZIPEK_clean_linker_0, # of connection points: 2
#     Edge 32, Type (0, 1), BuildingBlock: EZIPEK_clean_linker_0, # of connection points: 2
#     Edge 33, Type (0, 1), BuildingBlock: EZIPEK_clean_linker_0, # of connection points: 2
#     Edge 34, Type (0, 1), BuildingBlock: EZIPEK_clean_linker_0, # of connection points: 2
#     Edge 35, Type (0, 1), BuildingBlock: EZIPEK_clean_linker_0, # of connection points: 2
# Relax obj value: 0.246
# Max RMSD: 0.124
# Mean RMSD: 0.084
data_MOF--net-zzz--node1-KUMJIN_clean_sbu_1--node2-BETDIP_clean_linker_0--edge1-EZIPEK_clean_linker_0
_symmetry_space_group_name_H-M    P1
_symmetry_Int_Tables_number       1
_symmetry_cell_setting            triclinic
loop_
_symmetry_equiv_pos_as_xyz
'x, y, z'
_cell_length_a     37.266388
_cell_length_b     37.442991
_cell_length_c     11.790413
_cell_angle_alpha  90.040619
_cell_angle_beta   90.004321
_cell_angle_gamma 90.287419
loop_
_atom_site_label
_atom_site_type_symbol
_atom_site_fract_x
_atom_site_fract_y
_atom_site_fract_z
_atom_type_partial_charge
H0 H 0.77346 0.51167 0.47462 0.0
H1 H 0.75188 0.57584 0.17953 0.0
H2 H 0.8525 0.58662 0.35543 0.0
H3 H 0.69216 0.57692 0.28794 0.0
C4 C 0.69166 0.54903 0.26238 0.0
C5 C 0.78163 0.53238 0.41595 0.0
C6 C 0.81686 0.54883 0.42821 0.0
C7 C 0.75696 0.54367 0.32729 0.0
C8 C 0.76928 0.56904 0.24938 0.0
C9 C 0.80451 0.58228 0.25131 0.0
C10 C 0.82614 0.57469 0.34738 0.0
N11 N 0.72163 0.52792 0.30543 0.0
H12 H 0.99254 0.78028 0.50154 0.0
H13 H 0.99919 0.76965 0.13625 0.0
H14 H 0.02645 0.86892 0.29059 0.0
H15 H 0.03438 0.7195 0.19722 0.0
C16 C 1.00957 0.70837 0.23067 0.0
C17 C 0.99807 0.7916 0.41894 0.0
C18 C 1.0077 0.82942 0.40975 0.0
C19 C 0.99675 0.7687 0.31856 0.0
C20 C 1.00242 0.78492 0.21381 0.0
C21 C 0.01572 0.81931 0.20564 0.0
C22 C 0.01738 0.84155 0.30128 0.0
N23 N 0.99152 0.72994 0.31695 0.0
H24 H 0.76287 0.05098 0.41438 0.0
H25 H 0.79006 0.96955 0.16969 0.0
H26 H 0.69254 0.96128 0.36129 0.0
H27 H 0.85085 0.98466 0.27812 0.0
C28 C 0.84778 1.00955 0.23199 0.0
C29 C 0.75714 0.02564 0.37395 0.0
C30 C 0.72433 1.00685 0.40099 0.0
C31 C 0.78255 1.01085 0.29411 0.0
C32 C 0.77319 0.97912 0.23796 0.0
C33 C 0.73999 0.96256 0.25597 0.0
C34 C 0.71786 0.97464 0.34483 0.0
N35 N 0.81519 0.02895 0.25837 0.0
H36 H 0.53836 0.76978 0.48199 0.0
H37 H 0.52339 0.79155 0.12575 0.0
H38 H 0.51063 0.685 0.24572 0.0
H39 H 0.58592 0.83422 0.21553 0.0
C40 C 0.55905 0.8444 0.22889 0.0
C41 C 0.53354 0.76016 0.39674 0.0
C42 C 0.52641 0.7222 0.37806 0.0
C43 C 0.53405 0.78548 0.30258 0.0
C44 C 0.52591 0.7728 0.19545 0.0
C45 C 0.51568 0.73775 0.17814 0.0
C46 C 0.51792 0.71238 0.26532 0.0
N47 N 0.53814 0.82399 0.31127 0.0
H48 H 0.2751 0.47414 0.02056 0.0
H49 H 0.30317 0.50971 0.35834 0.0
H50 H 0.19745 0.52787 0.23464 0.0
H51 H 0.33396 0.4473 0.34377 0.0
C52 C 0.35 0.46348 0.28629 0.0
C53 C 0.26752 0.48612 0.10052 0.0
C54 C 0.23124 0.49994 0.11477 0.0
C55 C 0.29382 0.48839 0.19201 0.0
C56 C 0.28367 0.50559 0.29121 0.0
C57 C 0.24982 0.51993 0.30446 0.0
C58 C 0.22368 0.51633 0.21981 0.0
N59 N 0.33105 0.4768 0.18632 0.0
H60 H 0.04975 0.27847 0.05374 0.0
H61 H 0.96401 0.31852 0.26622 0.0
H62 H 0.95012 0.21984 0.09308 0.0
H63 H 0.01857 0.32787 0.3827 0.0
C64 C 0.02632 0.34744 0.31917 0.0
C65 C 0.02256 0.27645 0.08539 0.0
C66 C 1.00084 0.24529 0.05648 0.0
C67 C 1.00901 0.304 0.1614 0.0
C68 C 0.97445 0.29941 0.20568 0.0
C69 C 0.95581 0.26752 0.1904 0.0
C70 C 0.96668 0.24334 0.1071 0.0
N71 N 0.02975 0.33454 0.20268 0.0
H72 H 0.28388 0.08217 0.09625 0.0
H73 H 0.23278 0.98406 0.2001 0.0
H74 H 0.3329 0.98121 0.02204 0.0
H75 H 0.17965 0.02114 0.16929 0.0
C76 C 0.18921 0.04009 0.23188 0.0
C77 C 0.28296 0.05328 0.09782 0.0
C78 C 0.31164 0.03329 0.0459 0.0
C79 C 0.25325 0.0354 0.15264 0.0
C80 C 0.25383 0.99791 0.15614 0.0
C81 C 0.28313 0.97814 0.11609 0.0
C82 C 0.31038 0.99605 0.05541 0.0
N83 N 0.22536 0.05414 0.21564 0.0
H84 H 0.50011 0.26807 0.0214 0.0
H85 H 0.5519 0.2536 0.34626 0.0
H86 H 0.56419 0.3527 0.17125 0.0
H87 H 0.47707 0.22769 0.3561 0.0
C88 C 0.49469 0.20842 0.31637 0.0
C89 C 0.5161 0.27861 0.09043 0.0
C90 C 0.53097 0.31466 0.08208 0.0
C91 C 0.52235 0.25659 0.19052 0.0
C92 C 0.54489 0.27018 0.27423 0.0
C93 C 0.55996 0.30404 0.2654 0.0
C94 C 0.55211 0.32627 0.17354 0.0
N95 N 0.50928 0.22025 0.20767 0.0
Eu96 Eu 0.98659 0.04807 0.61234 0.0
C97 C 0.08602 0.09528 0.98724 0.0
N98 N 0.0905 0.07882 0.88498 0.0
C99 C 0.14038 0.11724 0.84219 0.0
C100 C 0.10773 0.12477 0.01765 0.0
C101 C 0.11828 0.08823 0.81515 0.0
C102 C 0.13483 0.13585 0.94318 0.0
C103 C 0.05424 0.10017 0.16652 0.0
C104 C 0.05923 0.08304 0.06087 0.0
C105 C 0.07539 0.12992 0.19538 0.0
C106 C 0.10197 0.1422 0.12127 0.0
Eu107 Eu 0.05306 0.02871 0.8524 0.0
N108 N 0.03828 0.05457 0.03031 0.0
C109 C 0.02745 0.08755 0.23936 0.0
C110 C 0.01379 0.04082 0.10535 0.0
C111 C 1.00664 0.05828 0.20733 0.0
H112 H 0.12347 0.07331 0.73887 0.0
H113 H 0.98568 0.04845 0.26277 0.0
H114 H 0.90305 0.02755 0.70618 0.0
H115 H 0.06435 0.98429 0.26597 0.0
H116 H 0.9998 0.0161 0.08901 0.0
H117 H 0.02254 0.1003 0.32038 0.0
H118 H 0.0512 0.03086 0.40158 0.0
H119 H 0.16191 0.12502 0.7856 0.0
H120 H 0.07111 0.14388 0.27465 0.0
H121 H 0.11814 0.16511 0.14537 0.0
H122 H 0.85451 0.98534 0.66148 0.0
H123 H 0.15205 0.15833 0.96386 0.0
H124 H 0.01917 0.93783 0.22429 0.0
N125 N 0.93819 1.00822 0.57757 0.0
C126 C 0.94273 0.98452 0.49066 0.0
C127 C 0.87919 0.98478 0.61313 0.0
C128 C 0.91546 0.95959 0.46371 0.0
C129 C 0.90698 1.00861 0.63859 0.0
C130 C 0.88341 0.96019 0.5254 0.0
N131 N 1.00184 1.00818 0.45984 0.0
C132 C 0.03271 1.00907 0.3969 0.0
C133 C 0.98106 0.95806 0.34678 0.0
C134 C 0.97544 0.98406 0.43212 0.0
C135 C 0.01387 0.95745 0.28971 0.0
C136 C 0.03962 0.98329 0.31414 0.0
H137 H 0.86189 0.94152 0.50673 0.0
H138 H 0.90065 0.91476 0.35726 0.0
H139 H 0.95802 0.9132 0.25629 0.0
O140 O 0.98263 0.10055 0.52891 0.0
O141 O 0.98793 0.98875 0.66741 0.0
O142 O 0.04405 0.97888 0.73405 0.0
O143 O 0.94242 0.06082 0.49854 0.0
O144 O 0.04687 0.06194 0.5714 0.0
O145 O 0.0758 0.02065 0.67665 0.0
O146 O 0.06828 0.99541 0.99541 0.0
O147 O 0.04496 0.088 0.80033 0.0
O148 O 0.98608 0.09102 0.75621 0.0
O149 O 0.10872 0.01195 0.87606 0.0
O150 O 0.99367 0.0135 0.89422 0.0
O151 O 0.95827 0.05 0.78502 0.0
C152 C 0.0154 0.96701 0.678 0.0
C153 C 0.92197 0.11917 0.51788 0.0
C154 C 0.89158 0.17549 0.48537 0.0
C155 C 0.86707 0.16764 0.57194 0.0
C156 C 0.89772 0.11177 0.60644 0.0
C157 C 0.87017 0.13569 0.63218 0.0
C158 C 0.91855 0.15092 0.45732 0.0
C159 C 0.07689 0.04424 0.59517 0.0
C160 C 0.9508 0.09406 0.48846 0.0
C161 C 0.92122 0.93422 0.37837 0.0
C162 C 0.95394 0.9333 0.32084 0.0
C163 C 0.01466 0.10591 0.8037 0.0
C164 C 0.11684 0.95753 0.97008 0.0
C165 C 0.09832 0.89615 0.95517 0.0
C166 C 0.12345 0.88724 0.04062 0.0
C167 C 0.14126 0.94893 0.05578 0.0
C168 C 0.09971 0.93039 0.90932 0.0
C169 C 0.14592 0.91339 0.08687 0.0
C170 C 0.96266 0.03035 0.87694 0.0
C171 C 0.10189 0.99331 0.96606 0.0
H172 H 0.84657 0.18669 0.59521 0.0
H173 H 0.90013 0.08766 0.65602 0.0
H174 H 0.85168 0.12977 0.7005 0.0
H175 H 0.93771 0.15722 0.3908 0.0
H176 H 0.12408 0.86082 0.07778 0.0
H177 H 0.15499 0.96963 0.10275 0.0
H178 H 0.08367 0.93696 0.83648 0.0
H179 H 0.16432 0.90664 0.15451 0.0
Eu180 Eu 0.54734 0.05234 0.87334 0.0
C181 C 0.52462 0.90717 0.70965 0.0
N182 N 0.53928 0.93709 0.66137 0.0
C183 C 0.58942 0.90217 0.59663 0.0
C184 C 0.54247 0.87392 0.70498 0.0
C185 C 0.57095 0.93447 0.60316 0.0
C186 C 0.57525 0.8718 0.64807 0.0
C187 C 0.47582 0.87891 0.81444 0.0
C188 C 0.49141 0.90937 0.76338 0.0
C189 C 0.49406 0.84625 0.81195 0.0
C190 C 0.52718 0.84372 0.75693 0.0
Eu191 Eu 0.50181 0.98895 0.66702 0.0
N192 N 0.47438 0.9414 0.76681 0.0
C193 C 0.44195 0.88198 0.86477 0.0
C194 C 0.44054 0.94406 0.8109 0.0
C195 C 0.42405 0.9146 0.86121 0.0
H196 H 0.58251 0.95662 0.55934 0.0
H197 H 0.3973 0.91713 0.89532 0.0
H198 H 0.48976 0.12016 0.90757 0.0
H199 H 0.69452 0.05886 0.85109 0.0
H200 H 0.42615 0.96895 0.80721 0.0
H201 H 0.42903 0.85914 0.90406 0.0
H202 H 0.63603 0.03039 0.88459 0.0
H203 H 0.61455 0.9007 0.55081 0.0
H204 H 0.48258 0.82264 0.85114 0.0
H205 H 0.54074 0.81819 0.75472 0.0
H206 H 0.48954 0.18585 0.9045 0.0
H207 H 0.58969 0.84681 0.64265 0.0
H208 H 0.69839 0.12382 0.81612 0.0
N209 N 0.54527 0.1157 0.87128 0.0
C210 C 0.57649 0.13345 0.85234 0.0
C211 C 0.51422 0.17148 0.88939 0.0
C212 C 0.57753 0.17112 0.847 0.0
C213 C 0.5145 0.13415 0.89257 0.0
C214 C 0.54578 0.19008 0.86492 0.0
N215 N 0.60597 0.07803 0.85903 0.0
C216 C 0.63689 0.05861 0.86659 0.0
C217 C 0.64099 0.13161 0.82896 0.0
C218 C 0.60776 0.11397 0.84444 0.0
C219 C 0.67239 0.11133 0.82852 0.0
C220 C 0.67033 0.0747 0.84861 0.0
H221 H 0.54548 0.21901 0.86212 0.0
H222 H 0.61157 0.21756 0.82185 0.0
H223 H 0.6672 0.18288 0.80506 0.0
O224 O 0.57074 0.06637 0.03655 0.0
O225 O 0.52605 0.08408 0.71721 0.0
O226 O 0.50513 0.04458 0.58023 0.0
O227 O 0.52086 0.03593 0.02995 0.0
O228 O 0.58499 0.01797 0.76878 0.0
O229 O 0.55682 0.01255 0.60016 0.0
O230 O 0.44924 0.98305 0.5907 0.0
O231 O 0.50499 0.97527 0.8586 0.0
O232 O 0.56118 0.9921 0.88877 0.0
O233 O 0.49478 0.95861 0.5095 0.0
O234 O 0.45816 0.02362 0.74795 0.0
O235 O 0.48543 0.05318 0.89487 0.0
C236 C 0.5134 0.07756 0.61352 0.0
C237 C 0.56471 0.01699 0.1581 0.0
C238 C 0.61477 0.97656 0.1907 0.0
C239 C 0.60016 0.96854 0.29806 0.0
C240 C 0.54913 1.00621 0.25953 0.0
C241 C 0.56662 0.98192 0.32893 0.0
C242 C 0.5957 0.99972 0.11967 0.0
C243 C 0.58711 0.01761 0.65805 0.0
C244 C 0.54839 0.04558 0.09116 0.0
C245 C 0.61031 0.18869 0.82732 0.0
C246 C 0.64197 0.16894 0.81781 0.0
C247 C 0.53534 0.96902 0.91102 0.0
C248 C 0.4424 0.96848 0.40095 0.0
C249 C 0.39236 0.95375 0.27845 0.0
C250 C 0.40199 0.9824 0.20757 0.0
C251 C 0.45019 0.99845 0.33496 0.0
C252 C 0.41403 0.94563 0.37151 0.0
C253 C 0.43101 1.00442 0.23571 0.0
C254 C 0.4559 0.04346 0.84041 0.0
C255 C 0.46018 0.96286 0.50856 0.0
H256 H 0.61424 0.95142 0.35695 0.0
H257 H 0.52384 0.01719 0.28558 0.0
H258 H 0.55416 0.97413 0.40721 0.0
H259 H 0.60603 1.00568 0.03638 0.0
H260 H 0.38628 0.98853 0.1331 0.0
H261 H 0.47036 0.01747 0.36176 0.0
H262 H 0.40701 0.92333 0.42601 0.0
H263 H 0.43827 0.02659 0.18251 0.0
Eu264 Eu 0.56699 0.51107 0.63254 0.0
C265 C 0.42717 0.47366 0.91932 0.0
N266 N 0.43276 0.49741 0.8335 0.0
C267 C 0.374 0.48425 0.75915 0.0
C268 C 0.39504 0.4535 0.92563 0.0
C269 C 0.4061 0.50362 0.75614 0.0
C270 C 0.36854 0.45886 0.84366 0.0
C271 C 0.44861 0.44445 0.09014 0.0
C272 C 0.45338 0.46964 1.00223 0.0
C273 C 0.41709 0.4239 0.09454 0.0
C274 C 0.39025 0.42863 0.01329 0.0
Eu275 Eu 0.48868 0.52892 0.8368 0.0
N276 N 0.48415 0.48935 0.99472 0.0
C277 C 0.4759 0.44015 0.17022 0.0
C278 C 0.51009 0.48628 0.07621 0.0
C279 C 0.50669 0.46126 0.16343 0.0
H280 H 0.4088 0.52404 0.69284 0.0
H281 H 0.52788 0.4583 0.22544 0.0
H282 H 0.63019 0.55746 0.77424 0.0
H283 H 0.50582 0.54083 0.2165 0.0
H284 H 0.53378 0.50266 0.07374 0.0
H285 H 0.47342 0.42069 0.23777 0.0
H286 H 0.51885 0.50324 0.38005 0.0
H287 H 0.35331 0.48922 0.69675 0.0
H288 H 0.41338 0.40393 0.15978 0.0
H289 H 0.36594 0.41272 0.01861 0.0
H290 H 0.66936 0.60995 0.74534 0.0
H291 H 0.34355 0.44395 0.8459 0.0
H292 H 0.54236 0.59426 0.17797 0.0
N293 N 0.60311 0.56315 0.61663 0.0
C294 C 0.6015 0.58088 0.51595 0.0
C295 C 0.65023 0.60225 0.68058 0.0
C296 C 0.62351 0.61106 0.49602 0.0
C297 C 0.62772 0.57279 0.69733 0.0
C298 C 0.64803 0.62156 0.57972 0.0
N299 N 0.55598 0.54016 0.45497 0.0
C300 C 0.53282 0.52828 0.3729 0.0
C301 C 0.57284 0.58964 0.33344 0.0
C302 C 0.57663 0.56979 0.4348 0.0
C303 C 0.54683 0.57913 0.25499 0.0
C304 C 0.5265 0.54862 0.27566 0.0
H305 H 0.66535 0.64456 0.56733 0.0
H306 H 0.63668 0.65344 0.37791 0.0
H307 H 0.59198 0.63502 0.23636 0.0
O308 O 0.59403 0.47952 0.50029 0.0
O309 O 0.55369 0.56942 0.68504 0.0
O310 O 0.49389 0.56838 0.68369 0.0
O311 O 0.62367 0.49951 0.64335 0.0
O312 O 0.51139 0.48854 0.5672 0.0
O313 O 0.47071 0.525 0.65304 0.0
O314 O 0.49232 0.57969 0.92762 0.0
O315 O 0.50866 0.47074 0.85115 0.0
O316 O 0.54996 0.45664 0.71272 0.0
O317 O 0.44135 0.55201 0.91655 0.0
O318 O 0.54508 0.54206 0.91364 0.0
O319 O 0.58423 0.50521 0.81947 0.0
C320 C 0.52374 0.58584 0.65833 0.0
C321 C 0.64536 0.44692 0.566 0.0
C322 C 0.65132 0.38312 0.53845 0.0
C323 C 0.68293 0.383 0.60269 0.0
C324 C 0.67763 0.44693 0.62828 0.0
C325 C 0.6962 0.41508 0.64673 0.0
C326 C 0.63272 0.41496 0.52017 0.0
C327 C 0.4782 0.50194 0.57293 0.0
C328 C 0.6249 0.48016 0.55275 0.0
C329 C 0.6201 0.63016 0.39434 0.0
C330 C 0.59463 0.61968 0.3138 0.0
C331 C 0.52954 0.44725 0.8004 0.0
C332 C 0.44213 0.61309 0.87314 0.0
C333 C 0.44327 0.67694 0.8417 0.0
C334 C 0.4236 0.67294 0.74141 0.0
C335 C 0.42208 0.60898 0.77253 0.0
C336 C 0.4522 0.6471 0.90725 0.0
C337 C 0.41285 0.63879 0.70726 0.0
C338 C 0.57654 0.52544 0.90784 0.0
C339 C 0.45742 0.58235 0.93331 0.0
H340 H 0.69723 0.35835 0.61771 0.0
H341 H 0.68823 0.47149 0.66386 0.0
H342 H 0.72077 0.41526 0.69568 0.0
H343 H 0.60809 0.41454 0.47107 0.0
H344 H 0.41675 0.69595 0.69038 0.0
H345 H 0.41435 0.58283 0.74264 0.0
H346 H 0.46814 0.65039 0.98375 0.0
H347 H 0.39783 0.63532 0.62941 0.0
Eu348 Eu 0.04084 0.56241 0.67969 0.0
C349 C 0.05326 0.42956 0.98808 0.0
N350 N 0.03316 0.43494 0.89309 0.0
C351 C 0.0436 0.37454 0.83364 0.0
C352 C 0.07008 0.39638 1.00741 0.0
C353 C 0.02751 0.40777 0.81757 0.0
C354 C 0.06502 0.36881 0.92877 0.0
C355 C 0.08051 0.45299 0.16025 0.0
C356 C 0.05815 0.45767 0.06455 0.0
C357 C 0.09691 0.41991 0.17967 0.0
C358 C 0.09165 0.3917 0.10371 0.0
Eu359 Eu 1.00469 0.4911 0.87946 0.0
N360 N 0.0424 0.48986 0.04304 0.0
C361 C 0.08641 0.48191 0.23291 0.0
C362 C 0.04822 0.51798 0.11455 0.0
C363 C 0.07048 0.51458 0.20922 0.0
H364 H 1.0099 0.4111 0.74588 0.0
H365 H 0.07529 0.53729 0.26409 0.0
H366 H 0.04051 0.64086 0.83477 0.0
H367 H 0.99425 0.54639 0.24665 0.0
H368 H 0.03607 0.54328 0.10053 0.0
H369 H 0.1035 0.47939 0.30684 0.0
H370 H 0.0292 0.5315 0.41875 0.0
H371 H 0.03914 0.35321 0.77314 0.0
H372 H 0.11396 0.41594 0.25301 0.0
H373 H 0.10466 0.36639 0.11979 0.0
H374 H 1.00498 0.69536 0.84721 0.0
H375 H 0.07738 0.34296 0.94099 0.0
H376 H 0.95845 0.60098 0.24222 0.0
N377 N 1.01089 0.61866 0.69638 0.0
C378 C 0.98905 0.62725 0.60802 0.0
C379 C 0.99946 0.67606 0.78098 0.0
C380 C 0.97 0.65983 0.60667 0.0
C381 C 0.01869 0.64417 0.77619 0.0
C382 C 0.97426 0.68354 0.69729 0.0
N383 N 1.00848 0.57491 0.5138 0.0
C384 C 0.01211 0.55467 0.41833 0.0
C385 C 0.9692 0.61519 0.41595 0.0
C386 C 0.98848 0.60519 0.51335 0.0
C387 C 0.97192 0.59382 0.31934 0.0
C388 C 0.99295 0.56323 0.32073 0.0
H389 H 0.96004 0.7087 0.69948 0.0
H390 H 0.93415 0.69355 0.51003 0.0
H391 H 0.93378 0.65476 0.34282 0.0
O392 O 0.09143 0.55748 0.58761 0.0
O393 O 0.98382 0.54064 0.62884 0.0
O394 O 0.95906 0.52415 0.79722 0.0
O395 O 0.06819 0.60952 0.61362 0.0
O396 O 0.04963 0.50552 0.60631 0.0
O397 O 1.0051 0.47228 0.69191 0.0
O398 O 0.9751 0.47389 0.02916 0.0
O399 O 0.06674 0.48884 0.84947 0.0
O400 O 0.08121 0.54697 0.82272 0.0
O401 O 0.96206 0.45104 0.86615 0.0
O402 O 0.99249 0.54882 0.94791 0.0
O403 O 0.03861 0.57901 0.86646 0.0
C404 C 0.95496 0.53298 0.68975 0.0
C405 C 0.1302 0.60427 0.63879 0.0
C406 C 0.19483 0.59998 0.64501 0.0
C407 C 0.1958 0.61914 0.74697 0.0
C408 C 0.13087 0.62341 0.7417 0.0
C409 C 0.16365 0.63108 0.79481 0.0
C410 C 0.16219 0.59325 0.59069 0.0
C411 C 0.02878 0.47671 0.60926 0.0
C412 C 0.09672 0.59191 0.58644 0.0
C413 C 0.94903 0.66877 0.51216 0.0
C414 C 0.94885 0.64663 0.4167 0.0
C415 C 0.09093 0.51472 0.85754 0.0
C416 C 0.91488 0.46058 0.99295 0.0
C417 C 0.86716 0.50346 0.02313 0.0
C418 C 0.84405 0.47539 0.05477 0.0
C419 C 0.89177 0.43271 0.02452 0.0
C420 C 0.90202 0.49562 0.98768 0.0
C421 C 0.85624 0.44013 0.05386 0.0
C422 C 0.01181 0.57864 0.93893 0.0
C423 C 0.9529 0.45375 0.97218 0.0
H424 H 0.22104 0.62425 0.78966 0.0
H425 H 0.10622 0.63181 0.78199 0.0
H426 H 0.16405 0.64557 0.87427 0.0
H427 H 0.16165 0.57788 0.51247 0.0
H428 H 0.817 0.48089 0.08333 0.0
H429 H 0.90137 0.40547 0.02845 0.0
H430 H 0.91995 0.51734 0.96569 0.0
H431 H 0.83844 0.41866 0.07934 0.0
C432 C 0.14721 0.07645 0.36561 0.0
C433 C 0.16533 0.04404 0.33793 0.0
C434 C 0.13408 0.01628 0.50218 0.0
C435 C 0.11058 0.04617 0.51636 0.0
N436 N 0.10341 0.10901 0.47625 0.0
N437 N 0.16764 0.98029 0.37032 0.0
C438 C 0.11954 0.07733 0.45154 0.0
C439 C 0.15602 0.01325 0.40291 0.0
N440 N 0.15487 0.10714 0.3088 0.0
N441 N 0.13884 0.99204 0.58726 0.0
H442 H 0.18395 0.97608 0.30031 0.0
H443 H 0.15806 0.9568 0.40727 0.0
H444 H 0.13009 0.99597 0.66978 0.0
H445 H 0.15731 0.97127 0.58194 0.0
H446 H 0.17411 0.10901 0.2447 0.0
H447 H 0.17411 0.10901 0.2447 0.0
H448 H 0.10961 0.1326 0.43327 0.0
H449 H 0.08604 0.1122 0.54469 0.0
C450 C 0.49545 0.17456 0.50682 0.0
C451 C 0.50232 0.17396 0.38696 0.0
C452 C 0.51948 0.10994 0.41476 0.0
C453 C 0.50793 0.10977 0.53103 0.0
N454 N 0.47215 0.14135 0.6673 0.0
N455 N 0.51428 0.13599 0.22594 0.0
C456 C 0.4923 0.14198 0.57086 0.0
C457 C 0.51258 0.14021 0.34071 0.0
N458 N 0.4933 0.20643 0.56277 0.0
N459 N 0.53849 0.0818 0.37446 0.0
H460 H 0.50864 0.15644 0.16914 0.0
H461 H 0.51774 0.11119 0.18743 0.0
H462 H 0.54339 0.05911 0.4226 0.0
H463 H 0.55242 0.08292 0.29798 0.0
H464 H 0.49103 0.20801 0.65081 0.0
H465 H 0.49868 0.23093 0.52427 0.0
H466 H 0.4575 0.16336 0.69504 0.0
H467 H 0.46652 0.11771 0.71068 0.0
C468 C 0.39903 0.50892 0.34805 0.0
C469 C 0.38785 0.47304 0.33285 0.0
C470 C 0.44022 0.4556 0.45593 0.0
C471 C 0.44767 0.49198 0.4863 0.0
N472 N 0.4215 0.5519 0.48143 0.0
N473 N 0.39734 0.41158 0.38456 0.0
C474 C 0.42374 0.51826 0.43766 0.0
C475 C 0.40859 0.44633 0.38989 0.0
N476 N 0.38563 0.53487 0.27913 0.0
N477 N 0.46236 0.42915 0.49339 0.0
H478 H 0.37648 0.40307 0.33192 0.0
H479 H 0.40751 0.39146 0.43617 0.0
H480 H 0.48259 0.43313 0.55284 0.0
H481 H 0.46163 0.40324 0.46123 0.0
H482 H 0.39543 0.56101 0.27981 0.0
H483 H 0.36827 0.5294 0.21222 0.0
H484 H 0.40183 0.56999 0.45648 0.0
H485 H 0.43543 0.56093 0.5516 0.0
C486 C 0.05853 0.38947 0.45567 0.0
C487 C 0.03295 0.38523 0.3674 0.0
C488 C 1.00643 0.44341 0.42753 0.0
C489 C 0.0322 0.44736 0.51705 0.0
N490 N 0.08948 0.42898 0.58884 0.0
N491 N 0.98658 0.41191 0.25573 0.0
C492 C 0.06041 0.42186 0.52217 0.0
C493 C 1.00837 0.41363 0.34863 0.0
N494 N 0.07995 0.36096 0.47755 0.0
N495 N 0.9796 0.4679 0.41899 0.0
H496 H 0.98763 0.39071 0.19842 0.0
H497 H 0.96969 0.43241 0.23019 0.0
H498 H 0.97828 0.49016 0.47171 0.0
H499 H 0.95785 0.46555 0.36419 0.0
H500 H 0.09767 0.35935 0.54577 0.0
H501 H 0.09767 0.35935 0.54577 0.0
H502 H 0.1127 0.41365 0.58901 0.0
H503 H 0.09194 0.45273 0.63419 0.0
C504 C 0.88436 0.0511 0.09384 0.0
C505 C 0.87499 0.01662 0.13493 0.0
C506 C 0.9212 0.99113 1.00338 0.0
C507 C 0.93092 0.02579 0.96212 0.0
N508 N 0.90993 0.08714 0.94405 0.0
N509 N 0.88587 0.95432 0.13503 0.0
C510 C 0.90901 0.05521 0.99989 0.0
C511 C 0.89389 0.98685 0.08952 0.0
N512 N 0.87217 0.08057 0.14987 0.0
N513 N 0.93589 0.9618 0.95313 0.0
H514 H 0.89931 0.93056 0.11794 0.0
H515 H 0.89931 0.93056 0.11794 0.0
H516 H 0.95665 0.9633 0.89497 0.0
H517 H 0.92551 0.9361 0.95946 0.0
H518 H 0.88166 0.10629 0.13371 0.0
H519 H 0.85588 0.07906 0.2214 0.0
H520 H 0.89125 0.10727 0.95839 0.0
H521 H 0.92679 0.09299 0.87668 0.0
C522 C 0.52283 0.90218 0.16966 0.0
C523 C 0.54706 0.87396 0.14394 0.0
C524 C 0.56553 0.90921 0.97315 0.0
C525 C 0.53956 0.9364 0.99315 0.0
N526 N 0.48714 0.95204 0.10214 0.0
N527 N 0.58213 0.84699 0.99521 0.0
C528 C 0.51621 0.93063 0.0883 0.0
C529 C 0.56551 0.87656 0.03792 0.0
N530 N 0.50742 0.90343 0.27429 0.0
N531 N 0.5904 0.91395 0.89029 0.0
H532 H 0.58056 0.82201 0.03402 0.0
H533 H 0.59342 0.84612 0.91442 0.0
H534 H 0.58863 0.93476 0.83313 0.0
H535 H 0.61308 0.89799 0.88165 0.0
H536 H 0.49313 0.92546 0.30266 0.0
H537 H 0.51154 0.88398 0.33587 0.0
H538 H 0.46639 0.94515 0.15706 0.0
H539 H 0.48224 0.97442 0.05223 0.0
C540 C 0.65209 0.56812 0.09684 0.0
C541 C 0.6634 0.53981 0.16905 0.0
C542 C 0.61816 0.50115 0.0696 0.0
C543 C 0.60532 0.53051 1.00255 0.0
N544 N 0.60656 0.5942 0.97448 0.0
N545 N 0.65154 0.48037 0.23606 0.0
C546 C 0.62126 0.56463 0.02322 0.0
C547 C 0.64503 0.50644 0.15801 0.0
N548 N 0.67278 0.59823 0.09685 0.0
N549 N 0.60414 0.46797 0.05035 0.0
H550 H 0.67013 0.48359 0.30131 0.0
H551 H 0.63658 0.4569 0.24219 0.0
H552 H 0.58267 0.46365 0.99536 0.0
H553 H 0.61467 0.44469 0.08484 0.0
H554 H 0.66961 0.6196 0.04117 0.0
H555 H 0.66961 0.6196 0.04117 0.0
H556 H 0.61321 0.62021 0.99797 0.0
H557 H 0.58527 0.59286 0.91772 0.0
C558 C 0.03206 0.64736 0.18302 0.0
C559 C 1.00216 0.67035 0.18565 0.0
C560 C 0.97454 0.6294 0.04028 0.0
C561 C 1.00765 0.61038 0.02523 0.0
N562 N 0.07161 0.6209 0.04961 0.0
N563 N 0.94511 0.68462 0.10345 0.0
C564 C 0.0375 0.62423 0.08847 0.0
C565 C 0.97323 0.66162 0.11059 0.0
N566 N 0.05726 0.64964 0.26654 0.0
N567 N 0.94466 0.61767 0.98461 0.0
H568 H 0.94318 0.70696 0.15609 0.0
H569 H 0.92491 0.68245 0.04284 0.0
H570 H 0.94478 0.59514 0.93284 0.0
H571 H 0.91942 0.629 0.99451 0.0
H572 H 0.07887 0.63204 0.27082 0.0
H573 H 0.05413 0.66651 0.33641 0.0
H574 H 0.09348 0.63261 0.09089 0.0
H575 H 0.07732 0.6135 0.96696 0.0
C576 C 0.94383 0.24997 0.39335 0.0
C577 C 0.93096 0.25462 0.28015 0.0
C578 C 0.87954 0.21618 0.32286 0.0
C579 C 0.89358 0.21112 0.43292 0.0
N580 N 0.92823 0.23497 0.58675 0.0
N581 N 0.88123 0.25131 0.14981 0.0
C582 C 0.92126 0.23329 0.47328 0.0
C583 C 0.89661 0.24114 0.24961 0.0
N584 N 0.97882 0.25664 0.42178 0.0
N585 N 0.85161 0.19542 0.28677 0.0
H586 H 0.89353 0.26972 0.09564 0.0
H587 H 0.85526 0.24403 0.12631 0.0
H588 H 0.83832 0.17784 0.34142 0.0
H589 H 0.84268 0.1948 0.20307 0.0
H590 H 0.98944 0.25044 0.50111 0.0
H591 H 0.99862 0.26364 0.36382 0.0
H592 H 0.94714 0.25248 0.62138 0.0
H593 H 0.9123 0.22153 0.64591 0.0
C594 C 0.29288 0.94156 0.28301 0.0
C595 C 0.29046 0.94168 0.16405 0.0
C596 C 0.35079 0.91751 0.15808 0.0
C597 C 0.35722 0.93594 0.26121 0.0
N598 N 0.33182 0.95926 0.43634 0.0
N599 N 0.30936 0.91004 0.99908 0.0
C600 C 0.32745 0.94506 0.33071 0.0
C601 C 0.31626 0.9208 0.10714 0.0
N602 N 0.2627 0.93971 0.34747 0.0
N603 N 0.37766 0.89837 0.10955 0.0
H604 H 0.28419 0.9145 0.96271 0.0
H605 H 0.32822 0.89781 0.94697 0.0
H606 H 0.40306 0.89695 0.1468 0.0
H607 H 0.37365 0.88164 0.0401 0.0
H608 H 0.26345 0.9384 0.43579 0.0
H609 H 0.23762 0.93555 0.31007 0.0
H610 H 0.31037 0.96932 0.48313 0.0
H611 H 0.35673 0.96224 0.47509 0.0
C612 C 0.62324 0.31908 0.31301 0.0
C613 C 0.58708 0.31538 0.34881 0.0
C614 C 0.603 0.33847 0.53503 0.0
C615 C 0.63594 0.35042 0.48934 0.0
N616 N 0.67925 0.35115 0.33786 0.0
N617 N 0.54177 0.32118 0.49439 0.0
C618 C 0.64709 0.33964 0.38006 0.0
C619 C 0.5768 0.32411 0.46111 0.0
N620 N 0.6345 0.30307 0.21516 0.0
N621 N 0.59664 0.34243 0.64821 0.0
H622 H 0.52154 0.31131 0.44175 0.0
H623 H 0.53224 0.33088 0.57146 0.0
H624 H 0.61604 0.35322 0.70228 0.0
H625 H 0.57417 0.33195 0.68904 0.0
H626 H 0.66123 0.30252 0.18951 0.0
H627 H 0.61755 0.28732 0.16522 0.0
H628 H 0.6868 0.34809 0.25337 0.0
H629 H 0.69783 0.36523 0.38691 0.0
C630 C 0.236 0.52528 0.51118 0.0
C631 C 0.24363 0.54199 0.40585 0.0
C632 C 0.2392 0.60098 0.4929 0.0
C633 C 0.22667 0.58419 0.59238 0.0
N634 N 0.2258 0.53313 0.71361 0.0
N635 N 0.26333 0.59439 0.30304 0.0
C636 C 0.23023 0.54707 0.60761 0.0
C637 C 0.24906 0.57953 0.399 0.0
N638 N 0.23253 0.48895 0.5172 0.0
N639 N 0.23846 0.63737 0.48659 0.0
H640 H 0.27016 0.57941 0.23167 0.0
H641 H 0.27058 0.62117 0.29621 0.0
H642 H 0.23224 0.65298 0.55735 0.0
H643 H 0.24305 0.65188 0.41275 0.0
H644 H 0.22392 0.47539 0.58929 0.0
H645 H 0.23649 0.47223 0.44755 0.0
H646 H 0.22958 0.50636 0.73378 0.0
H647 H 0.22121 0.54962 0.7835 0.0
C648 C 0.0119 0.86348 0.05086 0.0
C649 C 0.02805 0.83256 0.09453 0.0
C650 C 0.07275 0.83615 0.94451 0.0
C651 C 0.06605 0.87296 0.93835 0.0
N652 N 0.02116 0.91949 0.95723 0.0
N653 N 0.07424 0.78721 0.07699 0.0
C654 C 0.03232 0.88563 0.97858 0.0
C655 C 0.0578 0.81715 0.03693 0.0
N656 N 0.97738 0.87153 0.07938 0.0
N657 N 0.09747 0.82151 0.8736 0.0
H658 H 0.06628 0.77407 0.15054 0.0
H659 H 0.09788 0.77723 0.04235 0.0
H660 H 0.10987 0.83696 0.81087 0.0
H661 H 0.10279 0.79421 0.87117 0.0
H662 H 0.96321 0.89244 0.04275 0.0
H663 H 0.96195 0.855 0.13165 0.0
H664 H 1.00174 0.93225 1.00591 0.0
H665 H 0.03051 0.93429 0.88935 0.0
C666 C 0.69728 0.91729 0.18977 0.0
C667 C 0.72232 0.94375 0.15944 0.0
C668 C 0.67686 0.98389 0.10057 0.0
C669 C 0.65042 0.96195 0.15526 0.0
N670 N 0.6344 0.90099 0.20492 0.0
N671 N 0.73375 0.98228 1.00147 0.0
C672 C 0.6601 0.92592 0.18276 0.0
C673 C 0.71058 0.96858 0.07923 0.0
N674 N 0.70939 0.88718 0.24134 0.0
N675 N 0.67307 0.01985 0.0872 0.0
H676 H 0.75956 0.9719 0.99234 0.0
H677 H 0.72572 1.00125 0.9419 0.0
H678 H 0.65203 0.03448 0.12115 0.0
H679 H 0.6939 0.03581 0.05622 0.0
H680 H 0.6927 0.86815 0.27865 0.0
H681 H 0.73693 0.88254 0.24881 0.0
H682 H 0.63999 0.87415 0.21894 0.0
H683 H 0.6073 0.90713 0.20038 0.0
C684 C 0.45715 0.73452 0.07674 0.0
C685 C 0.49514 0.73053 0.07415 0.0
C686 C 0.49253 0.71799 0.87181 0.0
C687 C 0.45555 0.71164 0.88417 0.0
N688 N 0.4005 0.72231 0.98092 0.0
N689 N 0.54993 0.72368 0.96704 0.0
C690 C 0.43709 0.72416 0.98012 0.0
C691 C 0.51329 0.72464 0.97016 0.0
N692 N 0.44058 0.74786 0.17113 0.0
N693 N 0.50735 0.71545 0.7666 0.0
H694 H 0.56581 0.72846 0.03841 0.0
H695 H 0.56453 0.71644 0.89545 0.0
H696 H 0.49144 0.7097 0.69586 0.0
H697 H 0.5339 0.72212 0.74875 0.0
H698 H 0.41339 0.75385 0.17499 0.0
H699 H 0.45439 0.75506 0.24464 0.0
H700 H 0.38461 0.72703 0.05184 0.0
H701 H 0.3862 0.71518 0.90803 0.0
C702 C 0.8067 0.5839 0.04043 0.0
C703 C 0.82116 0.59687 0.14341 0.0
C704 C 0.87465 0.56386 0.11659 0.0
C705 C 0.85598 0.5411 0.03917 0.0
N706 N 0.8088 0.53629 0.89908 0.0
N707 N 0.87687 0.62406 0.19307 0.0
C708 C 0.82354 0.5537 0.98945 0.0
C709 C 0.85854 0.59674 0.14416 0.0
N710 N 0.77746 0.6002 0.99537 0.0
N711 N 0.90292 0.55222 0.17932 0.0
H712 H 0.86354 0.64676 0.22231 0.0
H713 H 0.90473 0.62414 0.19706 0.0
H714 H 0.91476 0.52729 0.17037 0.0
H715 H 0.91049 0.56582 0.25251 0.0
H716 H 0.76608 0.59314 0.91784 0.0
H717 H 0.766 0.62217 0.03616 0.0
H718 H 0.78391 0.54267 0.86479 0.0
H719 H 0.82202 0.51527 0.85884 0.0
C720 C 1.00502 0.17706 0.04525 0.0
C721 C 0.01236 0.21061 0.99216 0.0
C722 C 0.02579 0.17524 0.81591 0.0
C723 C 0.01298 0.14267 0.86595 0.0
N724 N 0.98204 0.11689 0.02491 0.0
N725 N 0.02604 0.24072 0.81725 0.0
C726 C 1.00007 0.14506 0.97939 0.0
C727 C 0.02207 0.20937 0.87474 0.0
N728 N 1.00278 0.17575 0.16089 0.0
N729 N 0.0413 0.17376 0.71127 0.0
H730 H 0.02388 0.2655 0.85704 0.0
H731 H 0.02904 0.24212 0.72954 0.0
H732 H 0.04303 0.15005 0.66508 0.0
H733 H 0.05442 0.19541 0.67407 0.0
H734 H 0.99747 0.15255 0.20636 0.0
H735 H 1.00948 0.19755 0.21205 0.0
H736 H 0.96741 0.11857 0.10007 0.0
H737 H 0.97946 0.09274 0.98245 0.0
C738 C 0.35148 0.04157 0.86973 0.0
C739 C 0.34554 0.04845 0.98728 0.0
C740 C 0.41057 0.06496 1.00202 0.0
C741 C 0.4176 0.05226 0.88852 0.0
N742 N 0.38963 0.04916 0.70437 0.0
N743 N 0.37013 0.06746 0.16539 0.0
C744 C 0.38648 0.04645 0.8195 0.0
C745 C 0.37519 0.06118 0.05228 0.0
N746 N 0.32356 0.02914 0.8056 0.0
N747 N 0.43659 0.08284 0.06097 0.0
H748 H 0.345 0.06615 0.20388 0.0
H749 H 0.39084 0.072 0.22291 0.0
H750 H 0.46237 0.08725 0.03214 0.0
H751 H 0.43175 0.09683 0.13567 0.0
H752 H 0.32679 0.01844 0.72467 0.0
H753 H 0.2973 0.02786 0.83619 0.0
H754 H 0.36789 0.04799 0.64899 0.0
H755 H 0.41308 0.05821 0.66533 0.0
C756 C 0.56109 0.35566 0.93388 0.0
C757 C 0.52856 0.34177 0.9817 0.0
C758 C 0.49682 0.39053 0.87716 0.0
C759 C 0.52979 0.40847 0.84954 0.0
N760 N 0.59452 0.40639 0.85807 0.0
N761 N 0.46468 0.34802 0.99797 0.0
C762 C 0.56223 0.39022 0.8784 0.0
C763 C 0.49619 0.35965 0.95185 0.0
N764 N 0.59131 0.33527 0.94131 0.0
N765 N 0.46591 0.40213 0.82763 0.0
H766 H 0.46315 0.32575 0.05076 0.0
H767 H 0.44045 0.36135 0.98846 0.0
H768 H 0.46561 0.42316 0.76964 0.0
H769 H 0.44149 0.38868 0.83431 0.0
H770 H 0.61561 0.34183 0.90305 0.0
H771 H 0.59092 0.30972 0.97664 0.0
H772 H 0.61877 0.39694 0.88961 0.0
H773 H 0.59717 0.43085 0.81715 0.0
C774 C 0.18421 0.53519 1.00239 0.0
C775 C 0.20028 0.50154 0.02514 0.0
C776 C 0.14754 0.47476 0.92062 0.0
C777 C 0.12891 0.50848 0.91534 0.0
N778 N 0.12774 0.56545 1.00714 0.0
N779 N 0.19235 0.43786 0.01696 0.0
C780 C 0.14718 0.53743 0.96948 0.0
C781 C 0.18058 0.47091 0.98663 0.0
N782 N 0.20377 0.56568 0.01812 0.0
N783 N 0.13455 0.44618 0.86177 0.0
H784 H 0.21617 0.4341 0.06172 0.0
H785 H 0.17722 0.41469 1.00489 0.0
H786 H 0.11134 0.44718 0.81353 0.0
H787 H 0.14857 0.42234 0.85307 0.0
H788 H 0.19386 0.59085 0.99737 0.0
H789 H 0.23088 0.56517 0.04038 0.0
H790 H 0.13887 0.58643 0.05381 0.0
H791 H 0.10005 0.5629 0.01253 0.0
C792 C 0.04319 0.87651 0.52531 0.0
C793 C 1.00992 0.85844 0.50516 0.0
C794 C 0.98116 0.90732 0.61904 0.0
C795 C 0.01374 0.92835 0.62374 0.0
N796 N 0.07404 0.93315 0.55011 0.0
N797 N 0.94597 0.86031 0.52618 0.0
C798 C 0.04436 0.91263 0.56976 0.0
C799 C 0.97869 0.87483 0.55132 0.0
N800 N 0.07427 0.85912 0.50004 0.0
N801 N 0.9522 0.91766 0.68116 0.0
H802 H 0.94313 0.8365 0.48108 0.0
H803 H 0.92176 0.87298 0.54349 0.0
H804 H 0.95171 0.94105 0.72784 0.0
H805 H 0.92959 0.90167 0.69332 0.0
H806 H 0.09953 0.86894 0.5222 0.0
H807 H 0.07436 0.83309 0.46814 0.0
H808 H 0.09568 0.92461 0.50137 0.0
H809 H 0.07499 0.96025 0.56849 0.0
C810 C 0.68925 0.99979 0.58529 0.0
C811 C 0.69406 0.01862 0.48188 0.0
C812 C 0.63249 0.04321 0.51015 0.0
C813 C 0.62483 0.01876 0.59998 0.0
N814 N 0.64916 0.97302 0.7226 0.0
N815 N 0.66804 0.05752 0.34267 0.0
C816 C 0.65436 0.99724 0.63812 0.0
C817 C 0.665 0.04018 0.44381 0.0
N818 N 0.71858 0.98438 0.63415 0.0
N819 N 0.61015 0.07141 0.4939 0.0
H820 H 0.69173 0.05744 0.29553 0.0
H821 H 0.64649 0.07021 0.30358 0.0
H822 H 0.58862 0.07637 0.54802 0.0
H823 H 0.61561 0.09202 0.43701 0.0
H824 H 0.71853 0.97354 0.71546 0.0
H825 H 0.74406 0.98595 0.59759 0.0
H826 H 0.6674 0.95307 0.74309 0.0
H827 H 0.62563 0.9715 0.76826 0.0
C828 C 0.49502 0.66654 0.46454 0.0
C829 C 0.52423 0.69146 0.46876 0.0
C830 C 0.54981 0.65082 0.61797 0.0
C831 C 0.52397 0.62302 0.59551 0.0
N832 N 0.4808 0.60381 0.45688 0.0
N833 N 0.58341 0.70211 0.54468 0.0
C834 C 0.49875 0.63093 0.50847 0.0
C835 C 0.55276 0.68211 0.54452 0.0
N836 N 0.46317 0.6766 0.41782 0.0
N837 N 0.57094 0.64834 0.71179 0.0
H838 H 0.58681 0.72438 0.49281 0.0
H839 H 0.60637 0.6947 0.5891 0.0
H840 H 0.56821 0.62754 0.76956 0.0
H841 H 0.58808 0.66878 0.7382 0.0
H842 H 0.44057 0.66002 0.41888 0.0
H843 H 0.45853 0.70268 0.39055 0.0
H844 H 0.46432 0.6078 0.38649 0.0
H845 H 0.48707 0.57729 0.47355 0.0
C846 C 0.86914 0.5092 0.50662 0.0
C847 C 0.84706 0.54018 0.51639 0.0
C848 C 0.89512 0.56623 0.64273 0.0
C849 C 0.91664 0.53481 0.63533 0.0
N850 N 0.91674 0.47246 0.58639 0.0
N851 N 0.8369 0.59504 0.61653 0.0
C852 C 0.90132 0.50519 0.57511 0.0
C853 C 0.85957 0.56758 0.59191 0.0
N854 N 0.86049 0.48398 0.42751 0.0
N855 N 0.909 0.59548 0.69642 0.0
H856 H 0.81109 0.59649 0.58245 0.0
H857 H 0.84211 0.61422 0.67839 0.0
H858 H 0.93384 0.59508 0.73692 0.0
H859 H 0.89724 0.62062 0.69424 0.0
H860 H 0.8776 0.46317 0.40543 0.0
H861 H 0.83728 0.48537 0.37832 0.0
H862 H 0.90529 0.44908 0.55447 0.0
H863 H 0.93918 0.46833 0.63726 0.0
loop_
_geom_bond_atom_site_label_1
_geom_bond_atom_site_label_2
_geom_bond_distance
_geom_bond_site_symmetry_2
_ccdc_geom_bond_type
H0 C5 0.930 . S
H1 C8 0.930 . S
H2 C10 0.930 . S
H3 C4 1.016 . S
C4 H3 1.016 . S
C4 N11 1.286 . S
C5 H0 0.930 . S
C5 C6 1.397 . S
C5 C7 1.361 . S
C6 C5 1.397 . S
C6 C10 1.390 . S
C7 C5 1.361 . S
C7 C8 1.393 . S
C7 N11 1.413 . S
C8 H1 0.930 . S
C8 C7 1.393 . S
C8 C9 1.399 . S
C9 C8 1.399 . S
C9 C10 1.381 . S
C10 H2 0.930 . S
C10 C6 1.390 . S
C10 C9 1.381 . S
N11 C4 1.286 . S
N11 C7 1.413 . S
H12 C17 0.930 . S
H13 C20 0.930 . S
H14 C22 0.930 . S
H15 C16 1.016 . S
C16 H15 1.016 . S
C16 N23 1.278 1_655 S
C17 H12 0.930 . S
C17 C18 1.397 . S
C17 C19 1.361 . S
C18 C17 1.397 . S
C18 C22 1.390 . S
C19 C17 1.361 . S
C19 C20 1.393 . S
C19 N23 1.411 1_655 S
C20 H13 0.930 . S
C20 C19 1.393 . S
C20 C21 1.399 . S
C21 C20 1.399 . S
C21 C22 1.381 . S
C22 H14 0.930 . S
C22 C18 1.390 . S
C22 C21 1.381 . S
N23 C16 1.278 1_455 S
N23 C19 1.411 1_455 S
H24 C29 0.929 . S
H25 C32 0.930 . S
H26 C34 0.930 . S
H27 C28 1.016 . S
C28 H27 1.016 . S
C28 N35 1.286 1_565 S
C29 H24 0.929 . S
C29 C30 1.397 . S
C29 C31 1.361 . S
C30 C29 1.397 . S
C30 C34 1.390 . S
C31 C29 1.361 . S
C31 C32 1.393 . S
C31 N35 1.413 1_565 S
C32 H25 0.930 . S
C32 C31 1.393 . S
C32 C33 1.399 . S
C33 C32 1.399 . S
C33 C34 1.381 . S
C34 H26 0.930 . S
C34 C30 1.390 . S
C34 C33 1.381 . S
N35 C28 1.286 1_545 S
N35 C31 1.413 1_545 S
H36 C41 0.930 . S
H37 C44 0.930 . S
H38 C46 0.930 . S
H39 C40 1.016 . S
C40 H39 1.016 . S
C40 N47 1.286 . S
C41 H36 0.930 . S
C41 C42 1.397 . S
C41 C43 1.361 . S
C42 C41 1.397 . S
C42 C46 1.390 . S
C43 C41 1.361 . S
C43 C44 1.393 . S
C43 N47 1.413 . S
C44 H37 0.930 . S
C44 C43 1.393 . S
C44 C45 1.399 . S
C45 C44 1.399 . S
C45 C46 1.381 . S
C46 H38 0.930 . S
C46 C42 1.390 . S
C46 C45 1.381 . S
N47 C40 1.286 . S
N47 C43 1.413 . S
H48 C53 0.930 . S
H49 C56 0.930 . S
H50 C58 0.930 . S
H51 C52 1.016 . S
C52 H51 1.016 . S
C52 N59 1.286 . S
C53 H48 0.930 . S
C53 C54 1.397 . S
C53 C55 1.361 1_556 S
C54 C53 1.397 . S
C54 C58 1.390 1_556 S
C55 C53 1.361 1_554 S
C55 C56 1.393 . S
C55 N59 1.413 . S
C56 H49 0.930 . S
C56 C55 1.393 . S
C56 C57 1.399 . S
C57 C56 1.399 . S
C57 C58 1.381 . S
C58 H50 0.930 . S
C58 C54 1.390 1_554 S
C58 C57 1.381 . S
N59 C52 1.286 . S
N59 C55 1.413 . S
H60 C65 0.930 . S
H61 C68 0.930 . S
H62 C70 0.930 . S
H63 C64 1.016 . S
C64 H63 1.016 . S
C64 N71 1.286 . S
C65 H60 0.930 . S
C65 C66 1.397 . S
C65 C67 1.361 1_556 S
C66 C65 1.397 . S
C66 C70 1.390 1_556 S
C67 C65 1.361 1_554 S
C67 C68 1.393 . S
C67 N71 1.413 . S
C68 H61 0.930 . S
C68 C67 1.393 . S
C68 C69 1.399 . S
C69 C68 1.399 . S
C69 C70 1.381 . S
C70 H62 0.930 . S
C70 C66 1.390 1_554 S
C70 C69 1.381 . S
N71 C64 1.286 . S
N71 C67 1.413 . S
H72 C77 0.930 . S
H73 C80 0.930 . S
H74 C82 0.930 . S
H75 C76 1.016 . S
C76 H75 1.016 . S
C76 N83 1.286 . S
C77 H72 0.930 . S
C77 C78 1.397 . S
C77 C79 1.361 1_556 S
C78 C77 1.397 . S
C78 C82 1.390 1_556 S
C79 C77 1.361 1_554 S
C79 C80 1.393 . S
C79 N83 1.413 . S
C80 H73 0.930 . S
C80 C79 1.393 . S
C80 C81 1.399 . S
C81 C80 1.399 . S
C81 C82 1.381 . S
C82 H74 0.930 . S
C82 C78 1.390 1_554 S
C82 C81 1.381 . S
N83 C76 1.286 . S
N83 C79 1.413 . S
H84 C89 0.930 . S
H85 C92 0.930 . S
H86 C94 0.930 . S
H87 C88 1.016 . S
C88 H87 1.016 . S
C88 N95 1.286 . S
C89 H84 0.930 . S
C89 C90 1.397 . S
C89 C91 1.361 1_556 S
C90 C89 1.397 . S
C90 C94 1.390 1_556 S
C91 C89 1.361 1_554 S
C91 C92 1.393 . S
C91 N95 1.413 . S
C92 H85 0.930 . S
C92 C91 1.393 . S
C92 C93 1.399 . S
C93 C92 1.399 . S
C93 C94 1.381 . S
C94 H86 0.930 . S
C94 C90 1.390 1_554 S
C94 C93 1.381 . S
N95 C88 1.286 . S
N95 C91 1.413 . S
Eu96 N125 2.600 . S
Eu96 N131 2.562 . S
Eu96 O140 2.462 . S
Eu96 O141 2.373 1_545 S
Eu96 O143 2.432 . S
Eu96 O144 2.291 1_655 S
Eu96 O148 2.335 1_655 S
Eu96 O151 2.372 . S
Eu96 C160 2.787 . S
C97 N98 1.365 1_554 S
C97 C100 1.405 . S
C97 C104 1.448 . S
N98 C97 1.365 1_556 S
N98 C101 1.319 . S
N98 Eu107 2.600 1_545 S
C99 C101 1.397 . S
C99 C102 1.367 . S
C99 H119 0.931 . S
C100 C97 1.405 . S
C100 C102 1.403 1_554 S
C100 C106 1.439 . S
C101 N98 1.319 . S
C101 C99 1.397 . S
C101 H112 0.930 1_545 S
C102 C99 1.367 . S
C102 C100 1.403 1_556 S
C102 H123 0.929 . S
C103 C104 1.430 . S
C103 C105 1.387 . S
C103 C109 1.404 . S
C104 C97 1.448 . S
C104 C103 1.430 . S
C104 N108 1.351 . S
C105 C103 1.387 . S
C105 C106 1.374 . S
C105 H120 0.931 . S
C106 C100 1.439 . S
C106 C105 1.374 . S
C106 H121 0.931 . S
Eu107 N98 2.600 1_565 S
Eu107 N108 2.562 1_566 S
Eu107 O142 2.335 . S
Eu107 O145 2.372 . S
Eu107 O146 2.462 . S
Eu107 O147 2.373 1_565 S
Eu107 O149 2.432 . S
Eu107 O150 2.291 1_465 S
Eu107 C171 2.787 . S
N108 C104 1.351 . S
N108 Eu107 2.562 1_544 S
N108 C110 1.325 . S
C109 C103 1.404 . S
C109 C111 1.366 . S
C109 H117 0.930 . S
C110 N108 1.325 . S
C110 C111 1.416 . S
C110 H116 0.955 . S
C111 C109 1.366 . S
C111 C110 1.416 . S
C111 H113 0.930 . S
H112 C101 0.930 1_565 S
H113 C111 0.930 . S
H114 C129 0.930 . S
H115 C136 0.930 1_455 S
H116 C110 0.955 . S
H117 C109 0.930 . S
H118 C132 0.929 1_455 S
H119 C99 0.931 . S
H120 C105 0.931 . S
H121 C106 0.931 . S
H122 C127 0.931 . S
H123 C102 0.929 . S
H124 C135 0.930 . S
N125 Eu96 2.600 . S
N125 C126 1.365 1_545 S
N125 C129 1.319 . S
C126 N125 1.365 1_565 S
C126 C128 1.405 . S
C126 C134 1.448 . S
C127 H122 0.931 . S
C127 C129 1.397 . S
C127 C130 1.367 1_545 S
C128 C126 1.405 . S
C128 C130 1.403 . S
C128 C161 1.439 . S
C129 H114 0.930 . S
C129 N125 1.319 . S
C129 C127 1.397 . S
C130 C127 1.367 1_565 S
C130 C128 1.403 . S
C130 H137 0.929 . S
N131 Eu96 2.562 . S
N131 C132 1.325 . S
N131 C134 1.351 1_545 S
C132 H118 0.929 1_655 S
C132 N131 1.325 . S
C132 C136 1.416 1_545 S
C133 C134 1.430 . S
C133 C135 1.404 . S
C133 C162 1.387 . S
C134 C126 1.448 . S
C134 N131 1.351 1_565 S
C134 C133 1.430 . S
C135 H124 0.930 . S
C135 C133 1.404 . S
C135 C136 1.366 . S
C136 H115 0.930 1_655 S
C136 C132 1.416 1_565 S
C136 C135 1.366 . S
H137 C130 0.929 . S
H138 C161 0.931 . S
H139 C162 0.931 . S
O140 Eu96 2.462 . S
O140 C160 1.252 . S
O141 Eu96 2.373 1_565 S
O141 C152 1.249 . S
O142 Eu107 2.335 . S
O142 C152 1.264 1_455 S
O143 Eu96 2.432 . S
O143 C160 1.268 . S
O144 Eu96 2.291 1_455 S
O144 C159 1.255 . S
O145 Eu107 2.372 . S
O145 C159 1.257 1_565 S
O146 Eu107 2.462 . S
O146 C171 1.252 . S
O147 Eu107 2.373 1_545 S
O147 C163 1.249 . S
O148 Eu96 2.335 1_455 S
O148 C163 1.264 . S
O149 Eu107 2.432 . S
O149 C171 1.268 . S
O150 Eu107 2.291 1_645 S
O150 C170 1.255 . S
O151 Eu96 2.372 . S
O151 C170 1.257 . S
C152 O141 1.249 . S
C152 O142 1.264 1_655 S
C153 C156 1.382 . S
C153 C158 1.390 . S
C153 C160 1.506 . S
C154 C155 1.398 . S
C154 C158 1.392 . S
C155 C154 1.398 . S
C155 C157 1.372 . S
C155 H172 0.931 . S
C156 C153 1.382 . S
C156 C157 1.390 . S
C156 H173 0.931 . S
C157 C155 1.372 . S
C157 C156 1.390 . S
C157 H174 0.929 . S
C158 C153 1.390 . S
C158 C154 1.392 . S
C158 H175 0.930 1_655 S
C159 O144 1.255 . S
C159 O145 1.257 1_545 S
C160 Eu96 2.787 . S
C160 O140 1.252 . S
C160 O143 1.268 . S
C160 C153 1.506 . S
C161 C128 1.439 . S
C161 H138 0.931 . S
C161 C162 1.374 . S
C162 C133 1.387 . S
C162 H139 0.931 . S
C162 C161 1.374 . S
C163 O147 1.249 . S
C163 O148 1.264 . S
C164 C167 1.382 . S
C164 C168 1.390 . S
C164 C171 1.506 1_554 S
C165 C166 1.398 . S
C165 C168 1.392 . S
C166 C165 1.398 . S
C166 C169 1.372 . S
C166 H176 0.931 . S
C167 C164 1.382 . S
C167 C169 1.390 . S
C167 H177 0.931 1_554 S
C168 C164 1.390 . S
C168 C165 1.392 . S
C168 H178 0.930 . S
C169 C166 1.372 . S
C169 C167 1.390 . S
C169 H179 0.929 . S
C170 O150 1.255 . S
C170 O151 1.257 . S
C171 Eu107 2.787 . S
C171 O146 1.252 . S
C171 O149 1.268 . S
C171 C164 1.506 1_556 S
H172 C155 0.931 . S
H173 C156 0.931 . S
H174 C157 0.929 . S
H175 C158 0.930 1_455 S
H176 C166 0.931 . S
H177 C167 0.931 1_556 S
H178 C168 0.930 . S
H179 C169 0.929 . S
Eu180 N209 2.600 . S
Eu180 N215 2.562 . S
Eu180 O224 2.462 . S
Eu180 O225 2.373 . S
Eu180 O227 2.432 1_556 S
Eu180 O228 2.291 . S
Eu180 O232 2.335 1_545 S
Eu180 O235 2.372 . S
Eu180 C244 2.787 1_556 S
C181 N182 1.365 . S
C181 C184 1.405 . S
C181 C188 1.448 . S
N182 C181 1.365 . S
N182 C185 1.319 . S
N182 Eu191 2.600 . S
C183 C185 1.397 . S
C183 C186 1.367 . S
C183 H203 0.931 . S
C184 C181 1.405 . S
C184 C186 1.403 . S
C184 C190 1.439 . S
C185 N182 1.319 . S
C185 C183 1.397 . S
C185 H196 0.930 . S
C186 C183 1.367 . S
C186 C184 1.403 . S
C186 H207 0.929 . S
C187 C188 1.430 . S
C187 C189 1.387 . S
C187 C193 1.404 . S
C188 C181 1.448 . S
C188 C187 1.430 . S
C188 N192 1.351 . S
C189 C187 1.387 . S
C189 C190 1.374 . S
C189 H204 0.931 . S
C190 C184 1.439 . S
C190 C189 1.374 . S
C190 H205 0.931 . S
Eu191 N182 2.600 . S
Eu191 N192 2.562 . S
Eu191 O226 2.335 1_565 S
Eu191 O229 2.372 . S
Eu191 O230 2.462 . S
Eu191 O231 2.373 . S
Eu191 O233 2.432 . S
Eu191 O234 2.291 1_565 S
Eu191 C255 2.787 . S
N192 C188 1.351 . S
N192 Eu191 2.562 . S
N192 C194 1.325 . S
C193 C187 1.404 . S
C193 C195 1.366 . S
C193 H201 0.930 . S
C194 N192 1.325 . S
C194 C195 1.416 . S
C194 H200 0.929 . S
C195 C193 1.366 . S
C195 C194 1.416 . S
C195 H197 0.930 . S
H196 C185 0.930 . S
H197 C195 0.930 . S
H198 C213 0.930 . S
H199 C220 0.930 . S
H200 C194 0.929 . S
H201 C193 0.930 . S
H202 C216 0.929 . S
H203 C183 0.931 . S
H204 C189 0.931 . S
H205 C190 0.931 . S
H206 C211 0.931 . S
H207 C186 0.929 . S
H208 C219 0.930 . S
N209 Eu180 2.600 . S
N209 C210 1.365 . S
N209 C213 1.319 1_556 S
C210 N209 1.365 . S
C210 C212 1.405 . S
C210 C218 1.448 . S
C211 H206 0.931 . S
C211 C213 1.397 . S
C211 C214 1.365 1_554 S
C212 C210 1.405 . S
C212 C214 1.408 . S
C212 C245 1.439 . S
C213 H198 0.930 . S
C213 N209 1.319 1_554 S
C213 C211 1.397 . S
C214 C211 1.365 1_556 S
C214 C212 1.408 . S
C214 H221 0.927 1_556 S
N215 Eu180 2.562 . S
N215 C216 1.325 . S
N215 C218 1.351 . S
C216 H202 0.929 . S
C216 N215 1.325 . S
C216 C220 1.416 . S
C217 C218 1.430 . S
C217 C219 1.404 . S
C217 C246 1.387 . S
C218 C210 1.448 . S
C218 N215 1.351 . S
C218 C217 1.430 . S
C219 H208 0.930 . S
C219 C217 1.404 . S
C219 C220 1.366 . S
C220 H199 0.930 . S
C220 C216 1.416 . S
C220 C219 1.366 . S
H221 C214 0.927 1_554 S
H222 C245 0.931 . S
H223 C246 0.931 . S
O224 Eu180 2.462 . S
O224 C244 1.252 1_556 S
O225 Eu180 2.373 . S
O225 C236 1.249 . S
O226 Eu191 2.335 1_545 S
O226 C236 1.264 . S
O227 Eu180 2.432 1_554 S
O227 C244 1.268 . S
O228 Eu180 2.291 . S
O228 C243 1.270 . S
O229 Eu191 2.372 . S
O229 C243 1.247 1_565 S
O230 Eu191 2.462 . S
O230 C255 1.252 . S
O231 Eu191 2.373 . S
O231 C247 1.249 . S
O232 Eu180 2.335 1_565 S
O232 C247 1.264 . S
O233 Eu191 2.432 . S
O233 C255 1.268 . S
O234 Eu191 2.291 1_545 S
O234 C254 1.255 . S
O235 Eu180 2.372 . S
O235 C254 1.257 . S
C236 O225 1.249 . S
C236 O226 1.264 . S
C237 C240 1.382 . S
C237 C242 1.390 . S
C237 C244 1.506 . S
C238 C239 1.398 . S
C238 C242 1.392 . S
C239 C238 1.398 . S
C239 C241 1.372 . S
C239 H256 0.931 . S
C240 C237 1.382 . S
C240 C241 1.390 . S
C240 H257 0.931 . S
C241 C239 1.372 . S
C241 C240 1.390 . S
C241 H258 0.929 . S
C242 C237 1.390 . S
C242 C238 1.392 . S
C242 H259 0.930 . S
C243 O228 1.270 . S
C243 O229 1.247 1_545 S
C244 Eu180 2.787 1_554 S
C244 O224 1.252 1_554 S
C244 O227 1.268 . S
C244 C237 1.506 . S
C245 C212 1.439 . S
C245 H222 0.931 . S
C245 C246 1.374 . S
C246 C217 1.387 . S
C246 H223 0.931 . S
C246 C245 1.374 . S
C247 O231 1.249 . S
C247 O232 1.264 . S
C248 C251 1.382 . S
C248 C252 1.390 . S
C248 C255 1.506 . S
C249 C250 1.398 . S
C249 C252 1.392 . S
C250 C249 1.398 . S
C250 C253 1.372 . S
C250 H260 0.931 . S
C251 C248 1.382 . S
C251 C253 1.390 . S
C251 H261 0.931 . S
C252 C248 1.390 . S
C252 C249 1.392 . S
C252 H262 0.930 1_565 S
C253 C250 1.372 . S
C253 C251 1.390 . S
C253 H263 0.929 . S
C254 O234 1.255 . S
C254 O235 1.257 . S
C255 Eu191 2.787 . S
C255 O230 1.252 . S
C255 O233 1.268 . S
C255 C248 1.506 . S
H256 C239 0.931 . S
H257 C240 0.931 . S
H258 C241 0.929 . S
H259 C242 0.930 . S
H260 C250 0.931 . S
H261 C251 0.931 . S
H262 C252 0.930 1_545 S
H263 C253 0.929 . S
Eu264 N293 2.600 . S
Eu264 N299 2.562 . S
Eu264 O308 2.462 . S
Eu264 O309 2.373 . S
Eu264 O311 2.432 . S
Eu264 O312 2.291 . S
Eu264 O316 2.335 . S
Eu264 O319 2.372 . S
Eu264 C328 2.787 . S
C265 N266 1.365 1_554 S
C265 C268 1.405 . S
C265 C272 1.448 . S
N266 C265 1.365 1_556 S
N266 C269 1.319 . S
N266 Eu275 2.600 . S
C267 C269 1.397 . S
C267 C270 1.367 . S
C267 H287 0.931 . S
C268 C265 1.405 . S
C268 C270 1.403 1_554 S
C268 C274 1.439 . S
C269 N266 1.319 . S
C269 C267 1.397 . S
C269 H280 0.930 . S
C270 C267 1.367 . S
C270 C268 1.403 1_556 S
C270 H291 0.931 . S
C271 C272 1.430 . S
C271 C273 1.387 . S
C271 C277 1.404 . S
C272 C265 1.448 . S
C272 C271 1.430 . S
C272 N276 1.351 . S
C273 C271 1.387 . S
C273 C274 1.374 . S
C273 H288 0.931 . S
C274 C268 1.439 . S
C274 C273 1.374 . S
C274 H289 0.931 . S
Eu275 N266 2.600 . S
Eu275 N276 2.562 1_556 S
Eu275 O310 2.335 . S
Eu275 O313 2.372 . S
Eu275 O314 2.462 . S
Eu275 O315 2.373 . S
Eu275 O317 2.432 . S
Eu275 O318 2.291 . S
Eu275 C339 2.787 . S
N276 C272 1.351 . S
N276 Eu275 2.562 1_554 S
N276 C278 1.325 . S
C277 C271 1.404 . S
C277 C279 1.366 . S
C277 H285 0.930 . S
C278 N276 1.325 . S
C278 C279 1.416 . S
C278 H284 0.929 . S
C279 C277 1.366 . S
C279 C278 1.416 . S
C279 H281 0.930 . S
H280 C269 0.930 . S
H281 C279 0.930 . S
H282 C297 0.930 . S
H283 C304 0.930 . S
H284 C278 0.929 . S
H285 C277 0.930 . S
H286 C300 0.929 . S
H287 C267 0.931 . S
H288 C273 0.931 . S
H289 C274 0.931 . S
H290 C295 0.931 . S
H291 C270 0.931 . S
H292 C303 0.930 . S
N293 Eu264 2.600 . S
N293 C294 1.365 . S
N293 C297 1.319 . S
C294 N293 1.365 . S
C294 C296 1.405 . S
C294 C302 1.448 . S
C295 H290 0.931 . S
C295 C297 1.397 . S
C295 C298 1.367 . S
C296 C294 1.405 . S
C296 C298 1.403 . S
C296 C329 1.439 . S
C297 H282 0.930 . S
C297 N293 1.319 . S
C297 C295 1.397 . S
C298 C295 1.367 . S
C298 C296 1.403 . S
C298 H305 0.929 . S
N299 Eu264 2.562 . S
N299 C300 1.325 . S
N299 C302 1.351 . S
C300 H286 0.929 . S
C300 N299 1.325 . S
C300 C304 1.416 . S
C301 C302 1.430 . S
C301 C303 1.404 . S
C301 C330 1.387 . S
C302 C294 1.448 . S
C302 N299 1.351 . S
C302 C301 1.430 . S
C303 H292 0.930 . S
C303 C301 1.404 . S
C303 C304 1.366 . S
C304 H283 0.930 . S
C304 C300 1.416 . S
C304 C303 1.366 . S
H305 C298 0.929 . S
H306 C329 0.931 . S
H307 C330 0.931 . S
O308 Eu264 2.462 . S
O308 C328 1.252 . S
O309 Eu264 2.373 . S
O309 C320 1.249 . S
O310 Eu275 2.335 . S
O310 C320 1.264 . S
O311 Eu264 2.432 . S
O311 C328 1.268 . S
O312 Eu264 2.291 . S
O312 C327 1.255 . S
O313 Eu275 2.372 . S
O313 C327 1.257 . S
O314 Eu275 2.462 . S
O314 C339 1.252 . S
O315 Eu275 2.373 . S
O315 C331 1.249 . S
O316 Eu264 2.335 . S
O316 C331 1.264 . S
O317 Eu275 2.432 . S
O317 C339 1.268 . S
O318 Eu275 2.291 . S
O318 C338 1.255 . S
O319 Eu264 2.372 . S
O319 C338 1.257 . S
C320 O309 1.249 . S
C320 O310 1.264 . S
C321 C324 1.382 . S
C321 C326 1.390 . S
C321 C328 1.506 . S
C322 C323 1.398 . S
C322 C326 1.392 . S
C323 C322 1.398 . S
C323 C325 1.372 . S
C323 H340 0.931 . S
C324 C321 1.382 . S
C324 C325 1.390 . S
C324 H341 0.931 . S
C325 C323 1.372 . S
C325 C324 1.390 . S
C325 H342 0.929 . S
C326 C321 1.390 . S
C326 C322 1.392 . S
C326 H343 0.930 . S
C327 O312 1.255 . S
C327 O313 1.257 . S
C328 Eu264 2.787 . S
C328 O308 1.252 . S
C328 O311 1.268 . S
C328 C321 1.506 . S
C329 C296 1.439 . S
C329 H306 0.931 . S
C329 C330 1.374 . S
C330 C301 1.387 . S
C330 H307 0.931 . S
C330 C329 1.374 . S
C331 O315 1.249 . S
C331 O316 1.264 . S
C332 C335 1.382 . S
C332 C336 1.390 . S
C332 C339 1.506 1_554 S
C333 C334 1.398 . S
C333 C336 1.392 . S
C334 C333 1.398 . S
C334 C337 1.372 . S
C334 H344 0.931 . S
C335 C332 1.382 . S
C335 C337 1.390 . S
C335 H345 0.931 1_554 S
C336 C332 1.390 . S
C336 C333 1.392 . S
C336 H346 0.930 . S
C337 C334 1.372 . S
C337 C335 1.390 . S
C337 H347 0.929 . S
C338 O318 1.255 . S
C338 O319 1.257 . S
C339 Eu275 2.787 . S
C339 O314 1.252 . S
C339 O317 1.268 . S
C339 C332 1.506 1_556 S
H340 C323 0.931 . S
H341 C324 0.931 . S
H342 C325 0.929 . S
H343 C326 0.930 . S
H344 C334 0.931 . S
H345 C335 0.931 1_556 S
H346 C336 0.930 . S
H347 C337 0.929 . S
Eu348 N377 2.600 . S
Eu348 N383 2.562 . S
Eu348 O392 2.462 . S
Eu348 O393 2.373 1_455 S
Eu348 O395 2.432 . S
Eu348 O396 2.291 . S
Eu348 O400 2.335 . S
Eu348 O403 2.372 . S
Eu348 C412 2.787 . S
C349 N350 1.365 1_554 S
C349 C352 1.405 . S
C349 C356 1.448 . S
N350 C349 1.365 1_556 S
N350 C353 1.321 . S
N350 Eu359 2.600 1_455 S
C351 C353 1.404 . S
C351 C354 1.367 . S
C351 H371 0.931 . S
C352 C349 1.405 . S
C352 C354 1.403 1_554 S
C352 C358 1.439 . S
C353 N350 1.321 . S
C353 C351 1.404 . S
C353 H364 0.920 1_455 S
C354 C351 1.367 . S
C354 C352 1.403 1_556 S
C354 H375 0.929 . S
C355 C356 1.430 . S
C355 C357 1.387 . S
C355 C361 1.404 . S
C356 C349 1.448 . S
C356 C355 1.430 . S
C356 N360 1.351 . S
C357 C355 1.387 . S
C357 C358 1.374 . S
C357 H372 0.931 . S
C358 C352 1.439 . S
C358 C357 1.374 . S
C358 H373 0.931 . S
Eu359 N350 2.600 1_655 S
Eu359 N360 2.562 1_656 S
Eu359 O394 2.335 . S
Eu359 O397 2.372 . S
Eu359 O398 2.462 . S
Eu359 O399 2.373 1_655 S
Eu359 O401 2.432 . S
Eu359 O402 2.291 1_655 S
Eu359 C423 2.787 . S
N360 C356 1.351 . S
N360 Eu359 2.562 1_454 S
N360 C362 1.325 . S
C361 C355 1.404 . S
C361 C363 1.366 . S
C361 H369 0.930 . S
C362 N360 1.325 . S
C362 C363 1.416 . S
C362 H368 0.929 . S
C363 C361 1.366 . S
C363 C362 1.416 . S
C363 H365 0.930 . S
H364 C353 0.920 1_655 S
H365 C363 0.930 . S
H366 C381 0.930 . S
H367 C388 0.930 . S
H368 C362 0.929 . S
H369 C361 0.930 . S
H370 C384 0.929 . S
H371 C351 0.931 . S
H372 C357 0.931 . S
H373 C358 0.931 . S
H374 C379 0.931 . S
H375 C354 0.929 . S
H376 C387 0.930 . S
N377 Eu348 2.600 . S
N377 C378 1.365 1_455 S
N377 C381 1.319 . S
C378 N377 1.365 1_655 S
C378 C380 1.405 . S
C378 C386 1.448 . S
C379 H374 0.931 . S
C379 C381 1.397 . S
C379 C382 1.367 1_455 S
C380 C378 1.405 . S
C380 C382 1.403 . S
C380 C413 1.439 . S
C381 H366 0.930 . S
C381 N377 1.319 . S
C381 C379 1.397 . S
C382 C379 1.367 1_655 S
C382 C380 1.403 . S
C382 H389 0.929 . S
N383 Eu348 2.562 . S
N383 C384 1.325 . S
N383 C386 1.351 1_455 S
C384 H370 0.929 . S
C384 N383 1.325 . S
C384 C388 1.416 1_455 S
C385 C386 1.430 . S
C385 C387 1.404 . S
C385 C414 1.387 . S
C386 C378 1.448 . S
C386 N383 1.351 1_655 S
C386 C385 1.430 . S
C387 H376 0.930 . S
C387 C385 1.404 . S
C387 C388 1.366 . S
C388 H367 0.930 . S
C388 C384 1.416 1_655 S
C388 C387 1.366 . S
H389 C382 0.929 . S
H390 C413 0.931 . S
H391 C414 0.931 . S
O392 Eu348 2.462 . S
O392 C412 1.252 . S
O393 Eu348 2.373 1_655 S
O393 C404 1.249 . S
O394 Eu359 2.335 . S
O394 C404 1.264 . S
O395 Eu348 2.432 . S
O395 C412 1.268 . S
O396 Eu348 2.291 . S
O396 C411 1.255 . S
O397 Eu359 2.372 . S
O397 C411 1.257 1_655 S
O398 Eu359 2.462 . S
O398 C423 1.252 . S
O399 Eu359 2.373 1_455 S
O399 C415 1.249 . S
O400 Eu348 2.335 . S
O400 C415 1.264 . S
O401 Eu359 2.432 . S
O401 C423 1.268 . S
O402 Eu359 2.291 1_455 S
O402 C422 1.255 . S
O403 Eu348 2.372 . S
O403 C422 1.257 . S
C404 O393 1.249 . S
C404 O394 1.264 . S
C405 C408 1.382 . S
C405 C410 1.390 . S
C405 C412 1.506 . S
C406 C407 1.398 . S
C406 C410 1.392 . S
C407 C406 1.398 . S
C407 C409 1.372 . S
C407 H424 0.931 . S
C408 C405 1.382 . S
C408 C409 1.390 . S
C408 H425 0.931 . S
C409 C407 1.372 . S
C409 C408 1.390 . S
C409 H426 0.929 . S
C410 C405 1.390 . S
C410 C406 1.392 . S
C410 H427 0.930 . S
C411 O396 1.255 . S
C411 O397 1.257 1_455 S
C412 Eu348 2.787 . S
C412 O392 1.252 . S
C412 O395 1.268 . S
C412 C405 1.506 . S
C413 C380 1.439 . S
C413 H390 0.931 . S
C413 C414 1.374 . S
C414 C385 1.387 . S
C414 H391 0.931 . S
C414 C413 1.374 . S
C415 O399 1.249 . S
C415 O400 1.264 . S
C416 C419 1.382 . S
C416 C420 1.390 . S
C416 C423 1.506 1_554 S
C417 C418 1.398 . S
C417 C420 1.392 . S
C418 C417 1.398 . S
C418 C421 1.372 . S
C418 H428 0.931 . S
C419 C416 1.382 . S
C419 C421 1.390 . S
C419 H429 0.931 1_554 S
C420 C416 1.390 . S
C420 C417 1.392 . S
C420 H430 0.930 . S
C421 C418 1.372 . S
C421 C419 1.390 . S
C421 H431 0.929 . S
C422 O402 1.255 . S
C422 O403 1.257 . S
C423 Eu359 2.787 . S
C423 O398 1.252 . S
C423 O401 1.268 . S
C423 C416 1.506 1_556 S
H424 C407 0.931 . S
H425 C408 0.931 . S
H426 C409 0.929 . S
H427 C410 0.930 . S
H428 C418 0.931 . S
H429 C419 0.931 1_556 S
H430 C420 0.930 . S
H431 C421 0.929 . S
C432 C433 1.363 . S
C432 C438 1.379 . S
C432 N440 1.356 . S
C433 C432 1.363 . S
C433 C439 1.363 . S
C434 C435 1.361 1_565 S
C434 C439 1.378 1_565 S
C434 N441 1.358 . S
C435 C434 1.361 1_545 S
C435 C438 1.363 . S
N436 C438 1.356 . S
N436 H448 0.984 . S
N436 H449 0.985 . S
N437 C439 1.356 1_565 S
N437 H442 0.984 . S
N437 H443 0.985 . S
C438 C432 1.379 . S
C438 C435 1.363 . S
C438 N436 1.356 . S
C439 C433 1.363 . S
C439 C434 1.378 1_545 S
C439 N437 1.356 1_545 S
N440 C432 1.356 . S
N440 H446 0.984 . S
N440 H447 0.984 . S
N441 C434 1.358 . S
N441 H444 0.984 . S
N441 H445 0.985 . S
H442 N437 0.984 . S
H443 N437 0.985 . S
H444 N441 0.984 . S
H445 N441 0.985 . S
H446 N440 0.984 . S
H447 N440 0.984 . S
H448 N436 0.984 . S
H449 N436 0.985 . S
C450 C451 1.363 . S
C450 C456 1.379 . S
C450 N458 1.356 . S
C451 C450 1.363 . S
C451 C457 1.363 . S
C452 C453 1.363 . S
C452 C457 1.379 . S
C452 N459 1.356 . S
C453 C452 1.363 . S
C453 C456 1.363 . S
N454 C456 1.356 . S
N454 H466 0.984 . S
N454 H467 0.985 . S
N455 C457 1.356 . S
N455 H460 0.984 . S
N455 H461 0.985 . S
C456 C450 1.379 . S
C456 C453 1.363 . S
C456 N454 1.356 . S
C457 C451 1.363 . S
C457 C452 1.379 . S
C457 N455 1.356 . S
N458 C450 1.356 . S
N458 H464 0.984 . S
N458 H465 0.984 . S
N459 C452 1.356 . S
N459 H462 0.984 . S
N459 H463 0.985 . S
H460 N455 0.984 . S
H461 N455 0.985 . S
H462 N459 0.984 . S
H463 N459 0.985 . S
H464 N458 0.984 . S
H465 N458 0.984 . S
H466 N454 0.984 . S
H467 N454 0.985 . S
C468 C469 1.363 . S
C468 C474 1.379 . S
C468 N476 1.356 . S
C469 C468 1.363 . S
C469 C475 1.363 . S
C470 C471 1.363 . S
C470 C475 1.379 . S
C470 N477 1.356 . S
C471 C470 1.363 . S
C471 C474 1.363 . S
N472 C474 1.356 . S
N472 H484 0.984 . S
N472 H485 0.985 . S
N473 C475 1.356 . S
N473 H478 0.984 . S
N473 H479 0.985 . S
C474 C468 1.379 . S
C474 C471 1.363 . S
C474 N472 1.356 . S
C475 C469 1.363 . S
C475 C470 1.379 . S
C475 N473 1.356 . S
N476 C468 1.356 . S
N476 H482 0.984 . S
N476 H483 0.984 . S
N477 C470 1.356 . S
N477 H480 0.984 . S
N477 H481 0.985 . S
H478 N473 0.984 . S
H479 N473 0.985 . S
H480 N477 0.984 . S
H481 N477 0.985 . S
H482 N476 0.984 . S
H483 N476 0.984 . S
H484 N472 0.984 . S
H485 N472 0.985 . S
C486 C487 1.363 . S
C486 C492 1.379 . S
C486 N494 1.356 . S
C487 C486 1.363 . S
C487 C493 1.363 . S
C488 C489 1.363 . S
C488 C493 1.379 . S
C488 N495 1.356 1_455 S
C489 C488 1.363 . S
C489 C492 1.363 . S
N490 C492 1.356 . S
N490 H502 0.984 . S
N490 H503 0.985 . S
N491 C493 1.356 1_655 S
N491 H496 0.984 1_655 S
N491 H497 0.985 . S
C492 C486 1.379 . S
C492 C489 1.363 . S
C492 N490 1.356 . S
C493 C487 1.363 . S
C493 C488 1.379 . S
C493 N491 1.356 1_455 S
N494 C486 1.356 . S
N494 H500 0.984 . S
N494 H501 0.984 . S
N495 C488 1.356 1_655 S
N495 H498 0.984 . S
N495 H499 0.985 . S
H496 N491 0.984 1_455 S
H497 N491 0.985 . S
H498 N495 0.984 . S
H499 N495 0.985 . S
H500 N494 0.984 . S
H501 N494 0.984 . S
H502 N490 0.984 . S
H503 N490 0.985 . S
C504 C505 1.363 1_545 S
C504 C510 1.379 . S
C504 N512 1.356 . S
C505 C504 1.363 1_565 S
C505 C511 1.363 . S
C506 C507 1.372 . S
C506 C511 1.379 . S
C506 N513 1.356 . S
C507 C506 1.372 . S
C507 C510 1.355 1_565 S
N508 C510 1.356 1_556 S
N508 H520 0.984 . S
N508 H521 0.985 . S
N509 C511 1.356 . S
N509 H514 0.984 . S
N509 H515 0.985 . S
C510 C504 1.379 . S
C510 C507 1.355 1_545 S
C510 N508 1.356 1_554 S
C511 C505 1.363 . S
C511 C506 1.379 . S
C511 N509 1.356 . S
N512 C504 1.356 . S
N512 H518 0.984 . S
N512 H519 0.984 . S
N513 C506 1.356 . S
N513 H516 0.984 1_554 S
N513 H517 0.985 . S
H514 N509 0.984 . S
H515 N509 0.985 . S
H516 N513 0.984 1_556 S
H517 N513 0.985 . S
H518 N512 0.984 . S
H519 N512 0.984 . S
H520 N508 0.984 . S
H521 N508 0.985 . S
C522 C523 1.363 . S
C522 C528 1.379 . S
C522 N530 1.356 . S
C523 C522 1.363 . S
C523 C529 1.363 . S
C524 C525 1.363 . S
C524 C529 1.379 . S
C524 N531 1.356 1_554 S
C525 C524 1.363 . S
C525 C528 1.363 . S
N526 C528 1.356 . S
N526 H538 0.984 . S
N526 H539 0.985 1_554 S
N527 C529 1.356 . S
N527 H532 0.984 . S
N527 H533 0.985 . S
C528 C522 1.379 . S
C528 C525 1.363 . S
C528 N526 1.356 . S
C529 C523 1.363 . S
C529 C524 1.379 . S
C529 N527 1.356 . S
N530 C522 1.356 . S
N530 H536 0.984 . S
N530 H537 0.984 . S
N531 C524 1.356 1_556 S
N531 H534 0.984 . S
N531 H535 0.985 . S
H532 N527 0.984 . S
H533 N527 0.985 . S
H534 N531 0.984 . S
H535 N531 0.985 . S
H536 N530 0.984 . S
H537 N530 0.984 . S
H538 N526 0.984 . S
H539 N526 0.985 1_556 S
C540 C541 1.363 . S
C540 C546 1.379 . S
C540 N548 1.356 . S
C541 C540 1.363 . S
C541 C547 1.363 . S
C542 C543 1.363 . S
C542 C547 1.379 . S
C542 N549 1.356 1_554 S
C543 C542 1.363 . S
C543 C546 1.363 . S
N544 C546 1.356 . S
N544 H556 0.984 . S
N544 H557 0.985 1_554 S
N545 C547 1.356 . S
N545 H550 0.984 . S
N545 H551 0.985 . S
C546 C540 1.379 . S
C546 C543 1.363 . S
C546 N544 1.356 . S
C547 C541 1.363 . S
C547 C542 1.379 . S
C547 N545 1.356 . S
N548 C540 1.356 . S
N548 H554 0.984 . S
N548 H555 0.984 . S
N549 C542 1.356 1_556 S
N549 H552 0.984 . S
N549 H553 0.985 . S
H550 N545 0.984 . S
H551 N545 0.985 . S
H552 N549 0.984 . S
H553 N549 0.985 . S
H554 N548 0.984 . S
H555 N548 0.984 . S
H556 N544 0.984 . S
H557 N544 0.985 1_556 S
C558 C559 1.363 1_455 S
C558 C564 1.379 . S
C558 N566 1.356 . S
C559 C558 1.363 1_655 S
C559 C565 1.363 . S
C560 C561 1.363 . S
C560 C565 1.379 . S
C560 N567 1.356 1_554 S
C561 C560 1.363 . S
C561 C564 1.363 1_655 S
N562 C564 1.356 . S
N562 H574 0.984 . S
N562 H575 0.985 1_554 S
N563 C565 1.356 . S
N563 H568 0.984 . S
N563 H569 0.985 . S
C564 C558 1.379 . S
C564 C561 1.363 1_455 S
C564 N562 1.356 . S
C565 C559 1.363 . S
C565 C560 1.379 . S
C565 N563 1.356 . S
N566 C558 1.356 . S
N566 H572 0.984 . S
N566 H573 0.984 . S
N567 C560 1.356 1_556 S
N567 H570 0.984 . S
N567 H571 0.985 . S
H568 N563 0.984 . S
H569 N563 0.985 . S
H570 N567 0.984 . S
H571 N567 0.985 . S
H572 N566 0.984 . S
H573 N566 0.984 . S
H574 N562 0.984 . S
H575 N562 0.985 1_556 S
C576 C577 1.363 . S
C576 C582 1.379 . S
C576 N584 1.356 . S
C577 C576 1.363 . S
C577 C583 1.363 1_455 S
C578 C579 1.363 . S
C578 C583 1.379 . S
C578 N585 1.356 . S
C579 C578 1.363 . S
C579 C582 1.363 1_655 S
N580 C582 1.356 . S
N580 H592 0.984 . S
N580 H593 0.985 . S
N581 C583 1.356 . S
N581 H586 0.984 1_655 S
N581 H587 0.985 . S
C582 C576 1.379 . S
C582 C579 1.363 1_455 S
C582 N580 1.356 . S
C583 C577 1.363 1_655 S
C583 C578 1.379 . S
C583 N581 1.356 . S
N584 C576 1.356 . S
N584 H590 0.984 . S
N584 H591 0.984 . S
N585 C578 1.356 . S
N585 H588 0.984 . S
N585 H589 0.985 . S
H586 N581 0.984 1_455 S
H587 N581 0.985 . S
H588 N585 0.984 . S
H589 N585 0.985 . S
H590 N584 0.984 . S
H591 N584 0.984 . S
H592 N580 0.984 . S
H593 N580 0.985 . S
C594 C595 1.363 . S
C594 C600 1.379 . S
C594 N602 1.356 . S
C595 C594 1.363 . S
C595 C601 1.363 . S
C596 C597 1.363 1_565 S
C596 C601 1.379 1_565 S
C596 N603 1.356 . S
C597 C596 1.363 1_545 S
C597 C600 1.363 . S
N598 C600 1.356 . S
N598 H610 0.984 . S
N598 H611 0.985 . S
N599 C601 1.356 1_565 S
N599 H604 0.984 1_565 S
N599 H605 0.985 . S
C600 C594 1.379 . S
C600 C597 1.363 . S
C600 N598 1.356 . S
C601 C595 1.363 . S
C601 C596 1.379 1_545 S
C601 N599 1.356 1_545 S
N602 C594 1.356 . S
N602 H608 0.984 . S
N602 H609 0.984 . S
N603 C596 1.356 . S
N603 H606 0.984 . S
N603 H607 0.985 . S
H604 N599 0.984 1_545 S
H605 N599 0.985 . S
H606 N603 0.984 . S
H607 N603 0.985 . S
H608 N602 0.984 . S
H609 N602 0.984 . S
H610 N598 0.984 . S
H611 N598 0.985 . S
C612 C613 1.363 . S
C612 C618 1.379 . S
C612 N620 1.356 . S
C613 C612 1.363 . S
C613 C619 1.363 . S
C614 C615 1.363 . S
C614 C619 1.379 . S
C614 N621 1.356 . S
C615 C614 1.363 . S
C615 C618 1.363 . S
N616 C618 1.356 . S
N616 H628 0.984 . S
N616 H629 0.985 . S
N617 C619 1.356 . S
N617 H622 0.984 . S
N617 H623 0.985 . S
C618 C612 1.379 . S
C618 C615 1.363 . S
C618 N616 1.356 . S
C619 C613 1.363 . S
C619 C614 1.379 . S
C619 N617 1.356 . S
N620 C612 1.356 . S
N620 H626 0.984 . S
N620 H627 0.984 . S
N621 C614 1.356 . S
N621 H624 0.984 . S
N621 H625 0.985 . S
H622 N617 0.984 . S
H623 N617 0.985 . S
H624 N621 0.984 . S
H625 N621 0.985 . S
H626 N620 0.984 . S
H627 N620 0.984 . S
H628 N616 0.984 . S
H629 N616 0.985 . S
C630 C631 1.363 . S
C630 C636 1.379 . S
C630 N638 1.356 . S
C631 C630 1.363 . S
C631 C637 1.363 . S
C632 C633 1.363 . S
C632 C637 1.379 . S
C632 N639 1.356 . S
C633 C632 1.363 . S
C633 C636 1.363 . S
N634 C636 1.356 . S
N634 H646 0.984 . S
N634 H647 0.985 . S
N635 C637 1.356 . S
N635 H640 0.984 . S
N635 H641 0.985 1_554 S
C636 C630 1.379 . S
C636 C633 1.363 . S
C636 N634 1.356 . S
C637 C631 1.363 . S
C637 C632 1.379 . S
C637 N635 1.356 . S
N638 C630 1.356 . S
N638 H644 0.984 . S
N638 H645 0.984 . S
N639 C632 1.356 . S
N639 H642 0.984 . S
N639 H643 0.985 . S
H640 N635 0.984 . S
H641 N635 0.985 1_556 S
H642 N639 0.984 . S
H643 N639 0.985 . S
H644 N638 0.984 . S
H645 N638 0.984 . S
H646 N634 0.984 . S
H647 N634 0.985 . S
C648 C649 1.363 . S
C648 C654 1.379 . S
C648 N656 1.356 . S
C649 C648 1.363 . S
C649 C655 1.363 1_655 S
C650 C651 1.363 . S
C650 C655 1.379 . S
C650 N657 1.356 . S
C651 C650 1.363 . S
C651 C654 1.363 1_455 S
N652 C654 1.356 . S
N652 H664 0.984 . S
N652 H665 0.985 1_655 S
N653 C655 1.356 . S
N653 H658 0.976 1_455 S
N653 H659 0.985 . S
C654 C648 1.379 . S
C654 C651 1.363 1_655 S
C654 N652 1.356 . S
C655 C649 1.363 1_455 S
C655 C650 1.379 . S
C655 N653 1.356 . S
N656 C648 1.356 . S
N656 H662 0.984 . S
N656 H663 0.984 . S
N657 C650 1.356 . S
N657 H660 0.984 . S
N657 H661 0.985 . S
H658 N653 0.976 1_655 S
H659 N653 0.985 . S
H660 N657 0.984 . S
H661 N657 0.985 . S
H662 N656 0.984 . S
H663 N656 0.984 . S
H664 N652 0.984 . S
H665 N652 0.985 1_455 S
C666 C667 1.363 . S
C666 C672 1.379 1_565 S
C666 N674 1.356 . S
C667 C666 1.363 . S
C667 C673 1.363 1_565 S
C668 C669 1.363 . S
C668 C673 1.379 . S
C668 N675 1.356 . S
C669 C668 1.363 . S
C669 C672 1.363 . S
N670 C672 1.356 . S
N670 H682 0.984 1_554 S
N670 H683 0.985 . S
N671 C673 1.356 1_565 S
N671 H676 0.984 . S
N671 H677 0.985 1_565 S
C672 C666 1.379 1_545 S
C672 C669 1.363 . S
C672 N670 1.356 . S
C673 C667 1.363 1_545 S
C673 C668 1.379 . S
C673 N671 1.356 1_545 S
N674 C666 1.356 . S
N674 H680 0.984 . S
N674 H681 0.984 . S
N675 C668 1.356 . S
N675 H678 0.984 . S
N675 H679 0.985 . S
H676 N671 0.984 . S
H677 N671 0.985 1_545 S
H678 N675 0.984 . S
H679 N675 0.985 . S
H680 N674 0.984 . S
H681 N674 0.984 . S
H682 N670 0.984 1_556 S
H683 N670 0.985 . S
C684 C685 1.363 . S
C684 C690 1.379 . S
C684 N692 1.356 . S
C685 C684 1.363 . S
C685 C691 1.363 . S
C686 C687 1.363 . S
C686 C691 1.379 . S
C686 N693 1.356 . S
C687 C686 1.363 . S
C687 C690 1.363 . S
N688 C690 1.356 . S
N688 H700 0.984 . S
N688 H701 0.985 . S
N689 C691 1.356 . S
N689 H694 0.984 . S
N689 H695 0.985 . S
C690 C684 1.379 . S
C690 C687 1.363 . S
C690 N688 1.356 . S
C691 C685 1.363 . S
C691 C686 1.379 . S
C691 N689 1.356 . S
N692 C684 1.356 . S
N692 H698 0.984 . S
N692 H699 0.984 . S
N693 C686 1.356 . S
N693 H696 0.984 . S
N693 H697 0.985 . S
H694 N689 0.984 . S
H695 N689 0.985 . S
H696 N693 0.984 . S
H697 N693 0.985 . S
H698 N692 0.984 . S
H699 N692 0.984 . S
H700 N688 0.984 . S
H701 N688 0.985 . S
C702 C703 1.363 . S
C702 C708 1.379 . S
C702 N710 1.356 . S
C703 C702 1.363 . S
C703 C709 1.363 . S
C704 C705 1.363 . S
C704 C709 1.379 . S
C704 N711 1.356 . S
C705 C704 1.363 . S
C705 C708 1.363 . S
N706 C708 1.356 . S
N706 H718 0.984 . S
N706 H719 0.985 . S
N707 C709 1.356 . S
N707 H712 0.984 . S
N707 H713 0.985 . S
C708 C702 1.379 . S
C708 C705 1.363 . S
C708 N706 1.356 . S
C709 C703 1.363 . S
C709 C704 1.379 . S
C709 N707 1.356 . S
N710 C702 1.356 . S
N710 H716 0.984 . S
N710 H717 0.984 . S
N711 C704 1.356 . S
N711 H714 0.984 . S
N711 H715 0.985 . S
H712 N707 0.984 . S
H713 N707 0.985 . S
H714 N711 0.984 . S
H715 N711 0.985 . S
H716 N710 0.984 . S
H717 N710 0.984 . S
H718 N706 0.984 . S
H719 N706 0.985 . S
C720 C721 1.363 . S
C720 C726 1.379 . S
C720 N728 1.356 1_556 S
C721 C720 1.363 . S
C721 C727 1.363 . S
C722 C723 1.363 . S
C722 C727 1.379 . S
C722 N729 1.356 1_455 S
C723 C722 1.363 . S
C723 C726 1.363 . S
N724 C726 1.356 . S
N724 H736 0.984 1_556 S
N724 H737 0.985 . S
N725 C727 1.349 1_655 S
N725 H730 0.981 1_655 S
N725 H731 0.996 . S
C726 C720 1.379 . S
C726 C723 1.363 . S
C726 N724 1.356 . S
C727 C721 1.363 . S
C727 C722 1.379 . S
C727 N725 1.349 1_455 S
N728 C720 1.356 1_554 S
N728 H734 0.984 . S
N728 H735 0.984 1_554 S
N729 C722 1.356 1_655 S
N729 H732 0.988 . S
N729 H733 0.985 . S
H730 N725 0.981 1_455 S
H731 N725 0.996 . S
H732 N729 0.988 . S
H733 N729 0.985 . S
H734 N728 0.984 . S
H735 N728 0.984 1_556 S
H736 N724 0.984 1_554 S
H737 N724 0.985 . S
C738 C739 1.363 . S
C738 C744 1.379 . S
C738 N746 1.356 . S
C739 C738 1.363 . S
C739 C745 1.363 . S
C740 C741 1.363 . S
C740 C745 1.379 . S
C740 N747 1.356 1_556 S
C741 C740 1.363 . S
C741 C744 1.363 . S
N742 C744 1.356 . S
N742 H754 0.984 . S
N742 H755 0.985 . S
N743 C745 1.356 1_554 S
N743 H748 0.984 . S
N743 H749 0.985 . S
C744 C738 1.379 . S
C744 C741 1.363 . S
C744 N742 1.356 . S
C745 C739 1.363 . S
C745 C740 1.379 . S
C745 N743 1.356 1_556 S
N746 C738 1.356 . S
N746 H752 0.984 . S
N746 H753 0.984 . S
N747 C740 1.356 1_554 S
N747 H750 0.984 1_554 S
N747 H751 0.985 . S
H748 N743 0.984 . S
H749 N743 0.985 . S
H750 N747 0.984 1_556 S
H751 N747 0.985 . S
H752 N746 0.984 . S
H753 N746 0.984 . S
H754 N742 0.984 . S
H755 N742 0.985 . S
C756 C757 1.363 . S
C756 C762 1.379 . S
C756 N764 1.356 . S
C757 C756 1.363 . S
C757 C763 1.363 . S
C758 C759 1.363 . S
C758 C763 1.379 . S
C758 N765 1.356 . S
C759 C758 1.363 . S
C759 C762 1.363 . S
N760 C762 1.356 . S
N760 H772 0.984 . S
N760 H773 0.985 . S
N761 C763 1.359 . S
N761 H766 0.986 . S
N761 H767 0.980 1_556 S
C762 C756 1.379 . S
C762 C759 1.363 . S
C762 N760 1.356 . S
C763 C757 1.363 . S
C763 C758 1.379 . S
C763 N761 1.359 . S
N764 C756 1.356 . S
N764 H770 0.984 . S
N764 H771 0.984 . S
N765 C758 1.356 . S
N765 H768 0.984 . S
N765 H769 0.985 1_556 S
H766 N761 0.986 . S
H767 N761 0.980 1_554 S
H768 N765 0.984 . S
H769 N765 0.985 1_554 S
H770 N764 0.984 . S
H771 N764 0.984 . S
H772 N760 0.984 . S
H773 N760 0.985 . S
C774 C775 1.363 . S
C774 C780 1.379 . S
C774 N782 1.356 . S
C775 C774 1.363 . S
C775 C781 1.363 . S
C776 C777 1.363 . S
C776 C781 1.379 . S
C776 N783 1.356 . S
C777 C776 1.363 . S
C777 C780 1.363 . S
N778 C780 1.356 . S
N778 H790 0.984 1_556 S
N778 H791 0.985 . S
N779 C781 1.356 . S
N779 H784 0.984 . S
N779 H785 0.985 . S
C780 C774 1.379 . S
C780 C777 1.363 . S
C780 N778 1.356 . S
C781 C775 1.363 . S
C781 C776 1.379 . S
C781 N779 1.356 . S
N782 C774 1.356 . S
N782 H788 0.984 1_556 S
N782 H789 0.984 . S
N783 C776 1.356 . S
N783 H786 0.984 . S
N783 H787 0.985 . S
H784 N779 0.984 . S
H785 N779 0.985 . S
H786 N783 0.984 . S
H787 N783 0.985 . S
H788 N782 0.984 1_554 S
H789 N782 0.984 . S
H790 N778 0.984 1_554 S
H791 N778 0.985 . S
C792 C793 1.363 1_455 S
C792 C798 1.379 . S
C792 N800 1.356 . S
C793 C792 1.363 1_655 S
C793 C799 1.363 . S
C794 C795 1.363 . S
C794 C799 1.379 . S
C794 N801 1.356 . S
C795 C794 1.363 . S
C795 C798 1.363 1_655 S
N796 C798 1.356 . S
N796 H808 0.984 . S
N796 H809 0.985 . S
N797 C799 1.356 . S
N797 H802 0.984 . S
N797 H803 0.985 . S
C798 C792 1.379 . S
C798 C795 1.363 1_455 S
C798 N796 1.356 . S
C799 C793 1.363 . S
C799 C794 1.379 . S
C799 N797 1.356 . S
N800 C792 1.356 . S
N800 H806 0.984 . S
N800 H807 0.984 . S
N801 C794 1.356 . S
N801 H804 0.984 . S
N801 H805 0.985 . S
H802 N797 0.984 . S
H803 N797 0.985 . S
H804 N801 0.984 . S
H805 N801 0.985 . S
H806 N800 0.984 . S
H807 N800 0.984 . S
H808 N796 0.984 . S
H809 N796 0.985 . S
C810 C811 1.363 . S
C810 C816 1.379 . S
C810 N818 1.356 . S
C811 C810 1.363 . S
C811 C817 1.363 1_565 S
C812 C813 1.363 1_545 S
C812 C817 1.379 . S
C812 N819 1.356 . S
C813 C812 1.363 1_565 S
C813 C816 1.363 . S
N814 C816 1.356 . S
N814 H826 0.984 . S
N814 H827 0.985 . S
N815 C817 1.356 . S
N815 H820 0.984 . S
N815 H821 0.985 . S
C816 C810 1.379 . S
C816 C813 1.363 . S
C816 N814 1.356 . S
C817 C811 1.363 1_545 S
C817 C812 1.379 . S
C817 N815 1.356 . S
N818 C810 1.356 . S
N818 H824 0.984 . S
N818 H825 0.984 . S
N819 C812 1.356 . S
N819 H822 0.984 . S
N819 H823 0.985 . S
H820 N815 0.984 . S
H821 N815 0.985 . S
H822 N819 0.984 . S
H823 N819 0.985 . S
H824 N818 0.984 . S
H825 N818 0.984 . S
H826 N814 0.984 . S
H827 N814 0.985 . S
C828 C829 1.363 . S
C828 C834 1.379 . S
C828 N836 1.356 . S
C829 C828 1.363 . S
C829 C835 1.363 . S
C830 C831 1.363 . S
C830 C835 1.379 . S
C830 N837 1.356 . S
C831 C830 1.363 . S
C831 C834 1.363 . S
N832 C834 1.356 . S
N832 H844 0.984 . S
N832 H845 0.985 . S
N833 C835 1.356 . S
N833 H838 0.984 . S
N833 H839 0.985 . S
C834 C828 1.379 . S
C834 C831 1.363 . S
C834 N832 1.356 . S
C835 C829 1.363 . S
C835 C830 1.379 . S
C835 N833 1.356 . S
N836 C828 1.356 . S
N836 H842 0.984 . S
N836 H843 0.984 . S
N837 C830 1.356 . S
N837 H840 0.984 . S
N837 H841 0.985 . S
H838 N833 0.984 . S
H839 N833 0.985 . S
H840 N837 0.984 . S
H841 N837 0.985 . S
H842 N836 0.984 . S
H843 N836 0.984 . S
H844 N832 0.984 . S
H845 N832 0.985 . S
C846 C847 1.363 . S
C846 C852 1.379 . S
C846 N854 1.356 . S
C847 C846 1.363 . S
C847 C853 1.363 . S
C848 C849 1.363 . S
C848 C853 1.379 . S
C848 N855 1.356 . S
C849 C848 1.363 . S
C849 C852 1.363 . S
N850 C852 1.356 . S
N850 H862 0.984 . S
N850 H863 0.985 . S
N851 C853 1.356 . S
N851 H856 0.984 . S
N851 H857 0.985 . S
C852 C846 1.379 . S
C852 C849 1.363 . S
C852 N850 1.356 . S
C853 C847 1.363 . S
C853 C848 1.379 . S
C853 N851 1.356 . S
N854 C846 1.356 . S
N854 H860 0.984 . S
N854 H861 0.984 . S
N855 C848 1.356 . S
N855 H858 0.984 . S
N855 H859 0.985 . S
H856 N851 0.984 . S
H857 N851 0.985 . S
H858 N855 0.984 . S
H859 N855 0.985 . S
H860 N854 0.984 . S
H861 N854 0.984 . S
H862 N850 0.984 . S
H863 N850 0.985 . S
C433 C76 1.955 . S
C435 C159 2.192 . S
C453 C236 2.196 . S
C451 C88 1.951 . S
C471 C327 2.193 . S
C469 C52 1.954 . S
C489 C411 2.181 . S
C487 C64 1.946 . S
C507 C170 2.190 1_564 S
C505 C28 1.962 . S
C523 C40 1.957 . S
C525 C247 2.196 1_554 S
C541 C4 1.959 . S
C543 C338 2.193 1_554 S
C559 C16 1.953 . S
C561 C422 2.182 1_654 S
C579 C154 0.758 . S
C577 C69 0.757 . S
C597 C249 0.746 1_545 S
C595 C81 0.746 . S
C615 C322 0.762 . S
C613 C93 0.761 . S
C631 C57 0.744 . S
C633 C406 0.744 . S
C649 C21 0.757 . S
C651 C165 0.758 . S
C669 C238 0.745 . S
C667 C33 0.746 . S
C687 C333 0.762 . S
C685 C45 0.760 . S
C703 C9 0.745 . S
C705 C417 0.744 . S
C721 C66 2.043 . S
C723 C163 2.301 . S
C739 C78 2.054 . S
C741 C254 2.352 . S
C759 C331 2.315 . S
C757 C90 2.054 . S
C777 C415 2.319 . S
C775 C54 2.059 . S
C793 C18 2.039 . S
C795 C152 2.302 . S
C813 C243 2.349 1_565 S
C811 C30 2.049 . S
C831 C320 2.315 . S
C829 C42 2.049 . S
C847 C6 2.055 . S
C849 C404 2.319 . S
