# Generated by pormake.
# Topology nom, (4,4)-cn, num edge types: 1
# Building blocks:
#     Node 0, Type 0, BuildingBlock: GIZVER_clean_linker_0, # of connection points: 4
#     Node 1, Type 0, BuildingBlock: GIZVER_clean_linker_0, # of connection points: 4
#     Node 2, Type 0, BuildingBlock: GIZVER_clean_linker_0, # of connection points: 4
#     Node 3, Type 0, BuildingBlock: GIZVER_clean_linker_0, # of connection points: 4
#     Node 4, Type 0, BuildingBlock: GIZVER_clean_linker_0, # of connection points: 4
#     Node 5, Type 0, BuildingBlock: GIZVER_clean_linker_0, # of connection points: 4
#     Node 6, Type 1, BuildingBlock: GALJAG_clean_sbu_0, # of connection points: 4
#     Node 7, Type 1, BuildingBlock: GALJAG_clean_sbu_0, # of connection points: 4
#     Node 8, Type 1, BuildingBlock: GALJAG_clean_sbu_0, # of connection points: 4
#     Node 9, Type 1, BuildingBlock: GALJAG_clean_sbu_0, # of connection points: 4
#     Node 10, Type 1, BuildingBlock: GALJAG_clean_sbu_0, # of connection points: 4
#     Node 11, Type 1, BuildingBlock: GALJAG_clean_sbu_0, # of connection points: 4
#     Edge 12, Type (0, 1), BuildingBlock: TEMPAE_clean_linker_10, # of connection points: 2
#     Edge 13, Type (0, 1), BuildingBlock: TEMPAE_clean_linker_10, # of connection points: 2
#     Edge 14, Type (0, 1), BuildingBlock: TEMPAE_clean_linker_10, # of connection points: 2
#     Edge 15, Type (0, 1), BuildingBlock: TEMPAE_clean_linker_10, # of connection points: 2
#     Edge 16, Type (0, 1), BuildingBlock: TEMPAE_clean_linker_10, # of connection points: 2
#     Edge 17, Type (0, 1), BuildingBlock: TEMPAE_clean_linker_10, # of connection points: 2
#     Edge 18, Type (0, 1), BuildingBlock: TEMPAE_clean_linker_10, # of connection points: 2
#     Edge 19, Type (0, 1), BuildingBlock: TEMPAE_clean_linker_10, # of connection points: 2
#     Edge 20, Type (0, 1), BuildingBlock: TEMPAE_clean_linker_10, # of connection points: 2
#     Edge 21, Type (0, 1), BuildingBlock: TEMPAE_clean_linker_10, # of connection points: 2
#     Edge 22, Type (0, 1), BuildingBlock: TEMPAE_clean_linker_10, # of connection points: 2
#     Edge 23, Type (0, 1), BuildingBlock: TEMPAE_clean_linker_10, # of connection points: 2
#     Edge 24, Type (0, 1), BuildingBlock: TEMPAE_clean_linker_10, # of connection points: 2
#     Edge 25, Type (0, 1), BuildingBlock: TEMPAE_clean_linker_10, # of connection points: 2
#     Edge 26, Type (0, 1), BuildingBlock: TEMPAE_clean_linker_10, # of connection points: 2
#     Edge 27, Type (0, 1), BuildingBlock: TEMPAE_clean_linker_10, # of connection points: 2
#     Edge 28, Type (0, 1), BuildingBlock: TEMPAE_clean_linker_10, # of connection points: 2
#     Edge 29, Type (0, 1), BuildingBlock: TEMPAE_clean_linker_10, # of connection points: 2
#     Edge 30, Type (0, 1), BuildingBlock: TEMPAE_clean_linker_10, # of connection points: 2
#     Edge 31, Type (0, 1), BuildingBlock: TEMPAE_clean_linker_10, # of connection points: 2
#     Edge 32, Type (0, 1), BuildingBlock: TEMPAE_clean_linker_10, # of connection points: 2
#     Edge 33, Type (0, 1), BuildingBlock: TEMPAE_clean_linker_10, # of connection points: 2
#     Edge 34, Type (0, 1), BuildingBlock: TEMPAE_clean_linker_10, # of connection points: 2
#     Edge 35, Type (0, 1), BuildingBlock: TEMPAE_clean_linker_10, # of connection points: 2
# Relax obj value: 0.013
# Max RMSD: 0.088
# Mean RMSD: 0.072
data_MOF--net-nom--node1-GALJAG_clean_sbu_0--node2-GIZVER_clean_linker_0--edge1-TEMPAE_clean_linker_10
_symmetry_space_group_name_H-M    P1
_symmetry_Int_Tables_number       1
_symmetry_cell_setting            triclinic
loop_
_symmetry_equiv_pos_as_xyz
'x, y, z'
_cell_length_a     46.80192
_cell_length_b     46.754696
_cell_length_c     48.100769
_cell_angle_alpha  90.038509
_cell_angle_beta   89.984359
_cell_angle_gamma 120.05107
loop_
_atom_site_label
_atom_site_type_symbol
_atom_site_fract_x
_atom_site_fract_y
_atom_site_fract_z
_atom_type_partial_charge
H0 H 0.96854 0.57483 0.36253 0.0
H1 H 0.99985 0.5739 0.27841 0.0
H2 H 0.90849 0.49339 0.30836 0.0
H3 H 0.01498 0.62348 0.34422 0.0
H4 H 0.01942 0.62707 0.30736 0.0
H5 H 0.04372 0.59902 0.37139 0.0
H6 H 0.1352 0.61639 0.33544 0.0
H7 H 0.06512 0.6264 0.28506 0.0
C8 C 0.96508 0.56223 0.34283 0.0
C9 C 0.93622 0.53171 0.3383 0.0
C10 C 0.98869 0.57722 0.3215 0.0
C11 C 0.98278 0.56168 0.2954 0.0
C12 C 0.95408 0.53119 0.29078 0.0
C13 C 0.93148 0.51605 0.31248 0.0
C14 C 0.01802 0.61147 0.32535 0.0
C15 C 0.04993 0.61089 0.3276 0.0
C16 C 0.05956 0.60421 0.35342 0.0
C17 C 0.09065 0.60687 0.35651 0.0
C18 C 0.11108 0.61412 0.33318 0.0
C19 C 0.1022 0.62135 0.3075 0.0
C20 C 0.07158 0.61975 0.30469 0.0
H21 H 0.41028 0.9657 0.52614 0.0
H22 H 0.43735 0.98766 0.4399 0.0
H23 H 0.42409 0.89767 0.476 0.0
H24 H 0.4067 0.01004 0.50317 0.0
H25 H 0.41272 0.01562 0.46649 0.0
H26 H 0.45831 0.03072 0.53442 0.0
H27 H 0.53884 0.12371 0.50722 0.0
H28 H 0.46111 0.06334 0.4501 0.0
C29 C 0.41755 0.95968 0.50658 0.0
C30 C 0.4172 0.92961 0.50384 0.0
C31 C 0.42596 0.98133 0.48374 0.0
C32 C 0.43294 0.97203 0.45789 0.0
C33 C 0.43158 0.94148 0.45479 0.0
C34 C 0.42525 0.92132 0.47821 0.0
C35 C 0.4236 0.01233 0.48595 0.0
C36 C 0.45695 0.04249 0.49114 0.0
C37 C 0.47111 0.0482 0.51781 0.0
C38 C 0.50084 0.07729 0.52345 0.0
C39 C 0.51675 0.10049 0.50232 0.0
C40 C 0.50243 0.09587 0.47594 0.0
C41 C 0.47264 0.06664 0.47029 0.0
H42 H 0.41138 0.4597 0.61837 0.0
H43 H 0.44702 0.4627 0.70154 0.0
H44 H 0.43385 0.5419 0.67186 0.0
H45 H 0.41069 0.41183 0.63653 0.0
H46 H 0.41195 0.40872 0.67339 0.0
H47 H 0.4635 0.43566 0.60887 0.0
H48 H 0.5379 0.41866 0.64458 0.0
H49 H 0.45845 0.40951 0.69544 0.0
C50 C 0.42121 0.47273 0.63779 0.0
C51 C 0.42267 0.50316 0.64227 0.0
C52 C 0.43088 0.45837 0.65888 0.0
C53 C 0.44136 0.47446 0.68471 0.0
C54 C 0.44288 0.50484 0.6893 0.0
C55 C 0.43438 0.51934 0.66778 0.0
C56 C 0.42597 0.42409 0.65523 0.0
C57 C 0.45842 0.42459 0.65281 0.0
C58 C 0.47436 0.43076 0.62684 0.0
C59 C 0.50265 0.42788 0.62362 0.0
C60 C 0.51612 0.42105 0.64696 0.0
C61 C 0.50029 0.41413 0.67277 0.0
C62 C 0.47137 0.41591 0.67571 0.0
H63 H 0.96978 0.40535 0.78525 0.0
H64 H 0.99044 0.43593 0.87096 0.0
H65 H 0.90256 0.42385 0.8319 0.0
H66 H 0.00991 0.39776 0.81158 0.0
H67 H 0.01586 0.40729 0.84773 0.0
H68 H 0.03242 0.45043 0.77776 0.0
H69 H 0.13387 0.51717 0.79814 0.0
H70 H 0.06926 0.44953 0.85994 0.0
C71 C 0.96401 0.41428 0.80403 0.0
C72 C 0.93453 0.41522 0.80551 0.0
C73 C 0.98503 0.42291 0.82737 0.0
C74 C 0.97567 0.43163 0.85241 0.0
C75 C 0.94559 0.43135 0.85422 0.0
C76 C 0.92612 0.4247 0.83037 0.0
C77 C 0.01405 0.41709 0.82713 0.0
C78 C 0.04639 0.44784 0.82023 0.0
C79 C 0.05202 0.46095 0.79308 0.0
C80 C 0.08366 0.48579 0.78512 0.0
C81 C 0.10935 0.49816 0.8045 0.0
C82 C 0.10456 0.48513 0.83135 0.0
C83 C 0.07284 0.46038 0.83943 0.0
H84 H 0.63452 0.06538 0.02425 0.0
H85 H 0.60502 0.03891 0.93873 0.0
H86 H 0.6331 0.13622 0.96854 0.0
H87 H 0.63092 0.016 0.00525 0.0
H88 H 0.62813 0.01019 0.9685 0.0
H89 H 0.57716 0.99984 0.03237 0.0
H90 H 0.49596 0.90842 0.003 0.0
H91 H 0.57966 0.96472 0.95005 0.0
C92 C 0.62875 0.07129 0.00398 0.0
C93 C 0.634 0.10311 -0.00105 0.0
C94 C 0.6177 0.04768 0.98237 0.0
C95 C 0.61207 0.05641 0.95572 0.0
C96 C 0.61804 0.08851 0.95057 0.0
C97 C 0.62814 0.11128 0.97246 0.0
C98 C 0.61635 0.015 0.98663 0.0
C99 C 0.58142 0.98673 0.9901 0.0
C100 C 0.56504 0.98231 0.01562 0.0
C101 C 0.53401 0.95425 0.02019 0.0
C102 C 0.51905 0.93097 -0.00112 0.0
C103 C 0.53546 0.9343 0.97368 0.0
C104 C 0.56651 0.96247 0.96922 0.0
H105 H 0.63194 0.57746 0.12568 0.0
H106 H 0.59064 0.57657 0.20616 0.0
H107 H 0.61681 0.50332 0.18585 0.0
H108 H 0.62516 0.62281 0.13843 0.0
H109 H 0.62525 0.62971 0.1748 0.0
H110 H 0.57242 0.59672 0.1118 0.0
H111 H 0.49642 0.61178 0.14643 0.0
H112 H 0.577 0.62478 0.19786 0.0
C113 C 0.62222 0.56565 0.14555 0.0
C114 C 0.62542 0.53844 0.15339 0.0
C115 C 0.60909 0.57933 0.16436 0.0
C116 C 0.59885 0.56514 0.19093 0.0
C117 C 0.60117 0.53742 0.1984 0.0
C118 C 0.61384 0.52395 0.17947 0.0
C119 C 0.61106 0.61191 0.15792 0.0
C120 C 0.57745 0.60893 0.15556 0.0
C121 C 0.56122 0.6014 0.12966 0.0
C122 C 0.53232 0.60308 0.12623 0.0
C123 C 0.51846 0.60994 0.14926 0.0
C124 C 0.53431 0.61787 0.17509 0.0
C125 C 0.56391 0.61736 0.17823 0.0
In126 In 0.63634 0.39532 0.40581 0.0
O127 O 0.68957 0.42145 0.42283 0.0
O128 O 0.68268 0.41129 0.37974 0.0
C129 C 0.60759 0.40952 0.44797 0.0
C130 C 0.6191 0.42275 0.36445 0.0
C131 C 0.61151 0.32926 0.41232 0.0
O132 O 0.63858 0.42355 0.44519 0.0
O133 O 0.59121 0.38823 0.42957 0.0
O134 O 0.60639 0.34137 0.39077 0.0
O135 O 0.62948 0.35036 0.43016 0.0
C136 C 0.70284 0.42362 0.39953 0.0
O137 O 0.61979 0.39629 0.36123 0.0
O138 O 0.62723 0.43537 0.38835 0.0
In139 In 0.25282 0.63323 0.5755 0.0
O140 O 0.28085 0.60799 0.55891 0.0
O141 O 0.28545 0.62019 0.60167 0.0
C142 C 0.21038 0.61986 0.53304 0.0
C143 C 0.20705 0.60319 0.61569 0.0
C144 C 0.29368 0.69942 0.56989 0.0
O145 O 0.22849 0.60703 0.53496 0.0
O146 O 0.21388 0.63957 0.55245 0.0
O147 O 0.27767 0.68667 0.59189 0.0
O148 O 0.28955 0.67885 0.55115 0.0
C149 C 0.29312 0.60742 0.58208 0.0
O150 O 0.23036 0.63269 0.61784 0.0
O151 O 0.20706 0.58889 0.59346 0.0
In152 In 0.63767 0.25297 0.73561 0.0
O153 O 0.69107 0.27453 0.72011 0.0
O154 O 0.68366 0.29202 0.75848 0.0
C155 C 0.60836 0.21049 0.69301 0.0
C156 C 0.62547 0.20957 0.77708 0.0
C157 C 0.60899 0.29109 0.7319 0.0
O158 O 0.63459 0.23788 0.69006 0.0
O159 O 0.59677 0.20461 0.71733 0.0
O160 O 0.60841 0.27622 0.75392 0.0
O161 O 0.6243 0.2871 0.71213 0.0
C162 C 0.70406 0.29317 0.74079 0.0
O163 O 0.61424 0.22917 0.77709 0.0
O164 O 0.64289 0.21197 0.75619 0.0
In165 In 0.40097 0.63348 0.90598 0.0
O166 O 0.34956 0.58839 0.91355 0.0
O167 O 0.35212 0.63121 0.89612 0.0
C168 C 0.42769 0.61962 0.94982 0.0
C169 C 0.4174 0.61028 0.86055 0.0
C170 C 0.42783 0.69973 0.91251 0.0
O171 O 0.39706 0.60931 0.94818 0.0
O172 O 0.44457 0.63714 0.9296 0.0
O173 O 0.43104 0.68711 0.89038 0.0
O174 O 0.41084 0.67903 0.93097 0.0
C175 C 0.33398 0.60184 0.90415 0.0
O176 O 0.40128 0.62518 0.85885 0.0
O177 O 0.42528 0.60733 0.8849 0.0
In178 In 0.78284 0.39959 0.07487 0.0
O179 O 0.79205 0.4057 0.12201 0.0
O180 O 0.83326 0.43036 0.09524 0.0
C181 C 0.74546 0.33315 0.06849 0.0
C182 C 0.74538 0.42889 0.0783 0.0
C183 C 0.82252 0.41347 0.03027 0.0
O184 O 0.76404 0.34623 0.08923 0.0
O185 O 0.74539 0.35353 0.05136 0.0
O186 O 0.8017 0.42311 0.03214 0.0
O187 O 0.82282 0.39662 0.05064 0.0
C188 C 0.82284 0.42437 0.11984 0.0
O189 O 0.77411 0.4433 0.06818 0.0
O190 O 0.73549 0.39972 0.08624 0.0
In191 In 0.39769 0.78122 0.23311 0.0
O192 O 0.42305 0.75467 0.25279 0.0
O193 O 0.41654 0.75174 0.20919 0.0
C194 C 0.41378 0.82452 0.27534 0.0
C195 C 0.42309 0.82321 0.18953 0.0
C196 C 0.33136 0.74059 0.23877 0.0
O197 O 0.42943 0.80952 0.2704 0.0
O198 O 0.39018 0.81775 0.25889 0.0
O199 O 0.34391 0.75988 0.21843 0.0
O200 O 0.35214 0.74129 0.25578 0.0
C201 C 0.42737 0.74394 0.23007 0.0
O202 O 0.40173 0.79308 0.18662 0.0
O203 O 0.4316 0.83216 0.2143 0.0
C204 C 0.14135 0.61745 0.27479 0.0
C205 C 0.12803 0.63595 0.28588 0.0
C206 C 0.17228 0.63308 0.26159 0.0
C207 C 0.19062 0.66805 0.26029 0.0
C208 C 0.17597 0.68658 0.26947 0.0
C209 C 0.14465 0.67021 0.28198 0.0
C210 C 0.18654 0.61232 0.25138 0.0
C211 C 0.19473 0.72387 0.26889 0.0
C212 C 0.28333 0.7082 0.27009 0.0
C213 C 0.29531 0.7205 0.24347 0.0
C214 C 0.24936 0.69102 0.27567 0.0
C215 C 0.22664 0.68525 0.25393 0.0
C216 C 0.23854 0.69672 0.22677 0.0
C217 C 0.27281 0.71462 0.22192 0.0
C218 C 0.23782 0.67971 0.30507 0.0
C219 C 0.21511 0.69029 0.20294 0.0
H220 H 0.12858 0.59096 0.27813 0.0
H221 H 0.13456 0.68451 0.29104 0.0
H222 H 0.19946 0.62179 0.23125 0.0
H223 H 0.20491 0.61356 0.26662 0.0
H224 H 0.16716 0.586 0.24878 0.0
H225 H 0.17841 0.73432 0.27301 0.0
H226 H 0.2143 0.73322 0.28503 0.0
H227 H 0.20701 0.73313 0.24852 0.0
H228 H 0.30062 0.71284 0.28684 0.0
H229 H 0.282 0.72397 0.20127 0.0
H230 H 0.22155 0.65249 0.30558 0.0
H231 H 0.22312 0.69079 0.31266 0.0
H232 H 0.25868 0.6866 0.31965 0.0
H233 H 0.19702 0.66347 0.20139 0.0
H234 H 0.2282 0.69893 0.18275 0.0
H235 H 0.2009 0.70306 0.20676 0.0
C236 C 0.49761 0.13974 0.45088 0.0
C237 C 0.5161 0.12442 0.45671 0.0
C238 C 0.51269 0.17171 0.43957 0.0
C239 C 0.54692 0.18842 0.4335 0.0
C240 C 0.56496 0.17175 0.43702 0.0
C241 C 0.54943 0.1401 0.44899 0.0
C242 C 0.49261 0.18868 0.4366 0.0
C243 C 0.60125 0.18828 0.43014 0.0
C244 C 0.58287 0.27067 0.39512 0.0
C245 C 0.59622 0.29327 0.41716 0.0
C246 C 0.56746 0.23641 0.39991 0.0
C247 C 0.56463 0.22457 0.42746 0.0
C248 C 0.57815 0.24738 0.44973 0.0
C249 C 0.5941 0.2814 0.44426 0.0
C250 C 0.55412 0.21291 0.37559 0.0
C251 C 0.57522 0.23587 0.47948 0.0
H252 H 0.47197 0.12781 0.45728 0.0
H253 H 0.56373 0.12827 0.45366 0.0
H254 H 0.50029 0.20807 0.45281 0.0
H255 H 0.49707 0.20103 0.41611 0.0
H256 H 0.46573 0.17115 0.43891 0.0
H257 H 0.61015 0.17027 0.42936 0.0
H258 H 0.60638 0.20122 0.40985 0.0
H259 H 0.61563 0.20707 0.44623 0.0
H260 H 0.58461 0.27978 0.37411 0.0
H261 H 0.6042 0.29875 0.46138 0.0
H262 H 0.52697 0.19705 0.3775 0.0
H263 H 0.5647 0.19632 0.37561 0.0
H264 H 0.55981 0.22609 0.35536 0.0
H265 H 0.54882 0.21985 0.48503 0.0
H266 H 0.58656 0.25678 0.49443 0.0
H267 H 0.58739 0.22087 0.48193 0.0
C268 C 0.37341 0.4963 0.61651 0.0
C269 C 0.40699 0.51595 0.62295 0.0
C270 C 0.35553 0.5104 0.60538 0.0
C271 C 0.37176 0.54488 0.60036 0.0
C272 C 0.40633 0.56419 0.60433 0.0
C273 C 0.42349 0.54952 0.61578 0.0
C274 C 0.31872 0.4889 0.60154 0.0
C275 C 0.42474 0.60089 0.59877 0.0
C276 C 0.32472 0.58106 0.56368 0.0
C277 C 0.31389 0.59211 0.58632 0.0
C278 C 0.34389 0.56592 0.56778 0.0
C279 C 0.35204 0.5614 0.59516 0.0
C280 C 0.34117 0.57258 0.61804 0.0
C281 C 0.32242 0.58793 0.61332 0.0
C282 C 0.35539 0.55474 0.54289 0.0
C283 C 0.3491 0.56807 0.64761 0.0
H284 H 0.3605 0.47042 0.62233 0.0
H285 H 0.44949 0.56473 0.62073 0.0
H286 H 0.30579 0.49434 0.61827 0.0
H287 H 0.31082 0.49423 0.58141 0.0
H288 H 0.3107 0.46217 0.60237 0.0
H289 H 0.45189 0.61117 0.59836 0.0
H290 H 0.41694 0.60646 0.57868 0.0
H291 H 0.41896 0.61372 0.61536 0.0
H292 H 0.31825 0.58431 0.54275 0.0
H293 H 0.31406 0.59631 0.63091 0.0
H294 H 0.34541 0.52767 0.54389 0.0
H295 H 0.3827 0.56669 0.54304 0.0
H296 H 0.34756 0.56068 0.52294 0.0
H297 H 0.33937 0.54146 0.65191 0.0
H298 H 0.33848 0.57781 0.66307 0.0
H299 H 0.37624 0.58092 0.65061 0.0
C300 C 0.89234 0.36568 0.78037 0.0
C301 C 0.90858 0.4 0.78397 0.0
C302 C 0.86075 0.34871 0.76838 0.0
C303 C 0.8454 0.36665 0.75944 0.0
C304 C 0.86334 0.40164 0.76026 0.0
C305 C 0.89461 0.41791 0.77286 0.0
C306 C 0.84249 0.31141 0.76818 0.0
C307 C 0.84831 0.42179 0.7503 0.0
C308 C 0.76213 0.31904 0.72283 0.0
C309 C 0.74023 0.31326 0.74486 0.0
C310 C 0.79652 0.33708 0.72697 0.0
C311 C 0.80918 0.34891 0.7539 0.0
C312 C 0.78708 0.34321 0.77615 0.0
C313 C 0.75294 0.32579 0.77128 0.0
C314 C 0.81928 0.3433 0.70265 0.0
C315 C 0.79946 0.35498 0.8053 0.0
H316 H 0.90291 0.3518 0.78939 0.0
H317 H 0.9071 0.44445 0.77588 0.0
H318 H 0.82359 0.30207 0.78489 0.0
H319 H 0.82944 0.30166 0.74816 0.0
H320 H 0.85931 0.30144 0.77175 0.0
H321 H 0.86731 0.44817 0.74728 0.0
H322 H 0.83485 0.41183 0.73045 0.0
H323 H 0.83025 0.42051 0.76592 0.0
H324 H 0.75238 0.3095 0.70233 0.0
H325 H 0.73613 0.32125 0.78841 0.0
H326 H 0.83402 0.33105 0.70627 0.0
H327 H 0.83694 0.37017 0.70058 0.0
H328 H 0.80559 0.33401 0.68278 0.0
H329 H 0.81458 0.34422 0.81251 0.0
H330 H 0.77901 0.34812 0.82034 0.0
H331 H 0.81554 0.38225 0.80551 0.0
C332 C 0.48927 0.88926 0.94649 0.0
C333 C 0.52239 0.90526 0.95491 0.0
C334 C 0.47422 0.85739 0.93493 0.0
C335 C 0.49255 0.84092 0.93235 0.0
C336 C 0.52663 0.85795 0.93899 0.0
C337 C 0.54121 0.89006 0.95001 0.0
C338 C 0.43805 0.84046 0.92749 0.0
C339 C 0.54703 0.84124 0.93689 0.0
C340 C 0.44563 0.74812 0.94399 0.0
C341 C 0.44362 0.73584 0.91704 0.0
C342 C 0.46149 0.78222 0.94912 0.0
C343 C 0.47522 0.8047 0.92667 0.0
C344 C 0.47273 0.79246 0.8993 0.0
C345 C 0.45722 0.75812 0.89484 0.0
C346 C 0.46395 0.79417 0.9787 0.0
C347 C 0.48646 0.81561 0.87481 0.0
H348 H 0.47471 0.90102 0.95033 0.0
H349 H 0.5667 0.9022 0.95688 0.0
H350 H 0.43345 0.82733 0.90733 0.0
H351 H 0.4235 0.82177 0.94358 0.0
H352 H 0.42888 0.85823 0.92619 0.0
H353 H 0.57384 0.85902 0.93936 0.0
H354 H 0.5393 0.82222 0.95341 0.0
H355 H 0.54297 0.82848 0.91662 0.0
H356 H 0.43531 0.73104 0.96125 0.0
H357 H 0.45559 0.74872 0.87394 0.0
H358 H 0.45167 0.80913 0.98058 0.0
H359 H 0.49024 0.81033 0.98448 0.0
H360 H 0.45242 0.77348 0.99383 0.0
H361 H 0.47552 0.83186 0.87404 0.0
H362 H 0.48152 0.80216 0.85475 0.0
H363 H 0.51352 0.83185 0.87719 0.0
C364 C 0.67138 0.52661 0.14938 0.0
C365 C 0.64484 0.52746 0.13672 0.0
C366 C 0.68771 0.51227 0.13604 0.0
C367 C 0.67733 0.49839 0.10923 0.0
C368 C 0.65165 0.50072 0.09566 0.0
C369 C 0.63566 0.51535 0.10961 0.0
C370 C 0.71505 0.51057 0.15129 0.0
C371 C 0.64007 0.48642 0.06702 0.0
C372 C 0.7383 0.47851 0.07453 0.0
C373 C 0.72581 0.44552 0.08257 0.0
C374 C 0.72158 0.49556 0.08139 0.0
C375 C 0.69185 0.47927 0.09682 0.0
C376 C 0.67828 0.44544 0.10365 0.0
C377 C 0.69537 0.42898 0.09639 0.0
C378 C 0.73671 0.53148 0.07348 0.0
C379 C 0.64669 0.42712 0.12015 0.0
H380 H 0.67874 0.53639 0.17025 0.0
H381 H 0.61513 0.51601 0.09984 0.0
H382 H 0.70737 0.4844 0.15572 0.0
H383 H 0.73755 0.52082 0.13818 0.0
H384 H 0.72148 0.52434 0.17127 0.0
H385 H 0.62295 0.49389 0.05796 0.0
H386 H 0.66142 0.49434 0.05283 0.0
H387 H 0.62707 0.45905 0.06817 0.0
H388 H 0.76169 0.49138 0.06365 0.0
H389 H 0.68546 0.40343 0.10253 0.0
H390 H 0.74685 0.54707 0.09232 0.0
H391 H 0.71773 0.53646 0.06465 0.0
H392 H 0.757 0.53913 0.05813 0.0
H393 H 0.65089 0.43712 0.14162 0.0
H394 H 0.63767 0.40019 0.12132 0.0
H395 H 0.62708 0.43075 0.11078 0.0
C396 C 0.42052 0.88851 0.53464 0.0
C397 C 0.40282 0.90354 0.52537 0.0
C398 C 0.40432 0.8574 0.54756 0.0
C399 C 0.36955 0.84071 0.55059 0.0
C400 C 0.35208 0.85719 0.54352 0.0
C401 C 0.36903 0.88859 0.53115 0.0
C402 C 0.42405 0.84115 0.55546 0.0
C403 C 0.315 0.84028 0.54613 0.0
C404 C 0.32456 0.74799 0.53872 0.0
C405 C 0.31423 0.73555 0.5656 0.0
C406 C 0.34258 0.7821 0.53372 0.0
C407 C 0.35106 0.80448 0.55624 0.0
C408 C 0.34137 0.79211 0.58357 0.0
C409 C 0.32274 0.75773 0.58791 0.0
C410 C 0.35206 0.79416 0.50417 0.0
C411 C 0.35055 0.81516 0.60814 0.0
H412 H 0.44666 0.90005 0.53001 0.0
H413 H 0.35527 0.90002 0.5236 0.0
H414 H 0.41545 0.828 0.57559 0.0
H415 H 0.42059 0.82261 0.53942 0.0
H416 H 0.45085 0.85939 0.55701 0.0
H417 H 0.30584 0.85797 0.54396 0.0
H418 H 0.3035 0.82127 0.5296 0.0
H419 H 0.30669 0.82751 0.56643 0.0
H420 H 0.31794 0.73099 0.52138 0.0
H421 H 0.3149 0.74821 0.60876 0.0
H422 H 0.3793 0.80936 0.50235 0.0
H423 H 0.34169 0.81012 0.49841 0.0
H424 H 0.34312 0.77353 0.48899 0.0
H425 H 0.37768 0.83194 0.60877 0.0
H426 H 0.34246 0.80162 0.62818 0.0
H427 H 0.33912 0.83086 0.60598 0.0
C428 C 0.49265 0.3655 0.69954 0.0
C429 C 0.51159 0.39945 0.69431 0.0
C430 C 0.5071 0.34817 0.71113 0.0
C431 C 0.54116 0.36541 0.71791 0.0
C432 C 0.5593 0.4003 0.71562 0.0
C433 C 0.54437 0.41689 0.70353 0.0
C434 C 0.48682 0.311 0.71306 0.0
C435 C 0.59542 0.41978 0.72319 0.0
C436 C 0.57894 0.3183 0.75203 0.0
C437 C 0.59221 0.31068 0.72891 0.0
C438 C 0.56254 0.33646 0.74899 0.0
C439 C 0.55895 0.34675 0.72216 0.0
C440 C 0.57233 0.33905 0.6988 0.0
C441 C 0.58895 0.32135 0.7025 0.0
C442 C 0.54908 0.34465 0.77439 0.0
C443 C 0.56886 0.34925 0.66975 0.0
H444 H 0.46743 0.35195 0.69201 0.0
H445 H 0.55906 0.44314 0.69926 0.0
H446 H 0.49364 0.29993 0.6957 0.0
H447 H 0.49187 0.30205 0.73277 0.0
H448 H 0.45994 0.30201 0.71169 0.0
H449 H 0.60407 0.44654 0.7255 0.0
H450 H 0.60027 0.41054 0.74284 0.0
H451 H 0.61019 0.41682 0.70657 0.0
H452 H 0.58147 0.31018 0.77251 0.0
H453 H 0.59903 0.31545 0.68453 0.0
H454 H 0.52195 0.33359 0.7725 0.0
H455 H 0.55978 0.37179 0.77603 0.0
H456 H 0.55455 0.33552 0.79385 0.0
H457 H 0.54237 0.33892 0.66461 0.0
H458 H 0.58014 0.34079 0.65377 0.0
H459 H 0.58082 0.37655 0.66851 0.0
C460 C 0.16108 0.49412 0.83787 0.0
C461 C 0.1341 0.49546 0.84905 0.0
C462 C 0.19178 0.50944 0.8512 0.0
C463 C 0.19563 0.52629 0.8766 0.0
C464 C 0.16782 0.52559 0.8891 0.0
C465 C 0.13724 0.51019 0.87508 0.0
C466 C 0.22062 0.50947 0.83703 0.0
C467 C 0.17079 0.54272 0.91642 0.0
C468 C 0.27804 0.55187 0.91113 0.0
C469 C 0.29763 0.58395 0.90065 0.0
C470 C 0.24405 0.53348 0.90522 0.0
C471 C 0.22952 0.54734 0.88806 0.0
C472 C 0.24892 0.58033 0.87862 0.0
C473 C 0.28265 0.59828 0.88519 0.0
C474 C 0.22411 0.49866 0.91614 0.0
C475 C 0.23456 0.59603 0.86006 0.0
H476 H 0.1585 0.48234 0.81786 0.0
H477 H 0.11638 0.51122 0.88373 0.0
H478 H 0.23889 0.535 0.83054 0.0
H479 H 0.23325 0.50105 0.85161 0.0
H480 H 0.21296 0.49332 0.81834 0.0
H481 H 0.14624 0.53527 0.92557 0.0
H482 H 0.18531 0.53724 0.93154 0.0
H483 H 0.18409 0.56985 0.91313 0.0
H484 H 0.28941 0.54076 0.92334 0.0
H485 H 0.2976 0.62311 0.87712 0.0
H486 H 0.21868 0.48089 0.8989 0.0
H487 H 0.20013 0.49417 0.92454 0.0
H488 H 0.23745 0.49347 0.93269 0.0
H489 H 0.22794 0.58323 0.83964 0.0
H490 H 0.25212 0.6227 0.85646 0.0
H491 H 0.21162 0.59333 0.86928 0.0
C492 C 0.63113 0.13944 0.03542 0.0
C493 C 0.65009 0.13011 0.0194 0.0
C494 C 0.6458 0.17054 0.04847 0.0
C495 C 0.67999 0.19291 0.04473 0.0
C496 C 0.6995 0.18251 0.03013 0.0
C497 C 0.68427 0.15114 0.01771 0.0
C498 C 0.62423 0.1804 0.06428 0.0
C499 C 0.73591 0.20557 0.02535 0.0
C500 C 0.70957 0.28451 0.03862 0.0
C501 C 0.72666 0.29698 0.06368 0.0
C502 C 0.6936 0.25061 0.03262 0.0
C503 C 0.69443 0.22846 0.05225 0.0
C504 C 0.71068 0.24072 0.07802 0.0
C505 C 0.72677 0.2749 0.08338 0.0
C506 C 0.67672 0.23865 0.0048 0.0
C507 C 0.71173 0.21786 0.0996 0.0
H508 H 0.60458 0.1233 0.03625 0.0
H509 H 0.69871 0.14404 0.0048 0.0
H510 H 0.63654 0.1936 0.08373 0.0
H511 H 0.61987 0.19753 0.0514 0.0
H512 H 0.59992 0.15866 0.06959 0.0
H513 H 0.74823 0.19253 0.01657 0.0
H514 H 0.7393 0.22529 0.01061 0.0
H515 H 0.74841 0.21776 0.04504 0.0
H516 H 0.70933 0.3014 0.02332 0.0
H517 H 0.73984 0.28438 0.10284 0.0
H518 H 0.65054 0.21933 0.00783 0.0
H519 H 0.6888 0.22731 0.99284 0.0
H520 H 0.6775 0.25892 0.99218 0.0
H521 H 0.68647 0.19705 0.10371 0.0
H522 H 0.72271 0.23079 0.11949 0.0
H523 H 0.72655 0.20707 0.09169 0.0
C524 C 0.54201 0.66575 0.2034 0.0
C525 C 0.52229 0.63236 0.1963 0.0
C526 C 0.52786 0.68354 0.21469 0.0
C527 C 0.49328 0.66739 0.21905 0.0
C528 C 0.47403 0.6328 0.21498 0.0
C529 C 0.48877 0.61571 0.20351 0.0
C530 C 0.54937 0.72031 0.21888 0.0
C531 C 0.43721 0.61443 0.21976 0.0
C532 C 0.4541 0.71411 0.25151 0.0
C533 C 0.44419 0.72431 0.22776 0.0
C534 C 0.47017 0.69555 0.24918 0.0
C535 C 0.4766 0.68724 0.22249 0.0
C536 C 0.46671 0.69765 0.19849 0.0
C537 C 0.45058 0.71592 0.20144 0.0
C538 C 0.4801 0.68469 0.27519 0.0
C539 C 0.47315 0.68946 0.16958 0.0
H540 H 0.56787 0.67874 0.19759 0.0
H541 H 0.47351 0.58986 0.19798 0.0
H542 H 0.54558 0.73345 0.20133 0.0
H543 H 0.54267 0.72836 0.2383 0.0
H544 H 0.57597 0.72792 0.2197 0.0
H545 H 0.42704 0.58729 0.22081 0.0
H546 H 0.43092 0.62272 0.23926 0.0
H547 H 0.42491 0.61966 0.20237 0.0
H548 H 0.4492 0.72051 0.27192 0.0
H549 H 0.44309 0.72379 0.183 0.0
H550 H 0.50708 0.69421 0.2751 0.0
H551 H 0.46772 0.65733 0.2758 0.0
H552 H 0.47363 0.69343 0.29439 0.0
H553 H 0.49998 0.69927 0.1666 0.0
H554 H 0.46436 0.69985 0.1531 0.0
H555 H 0.46059 0.66227 0.16683 0.0
C556 C 0.89423 0.53769 0.36563 0.0
C557 C 0.90807 0.51829 0.35802 0.0
C558 C 0.8624 0.52318 0.37717 0.0
C559 C 0.84422 0.48853 0.38137 0.0
C560 C 0.85947 0.46942 0.37628 0.0
C561 C 0.89116 0.48451 0.36449 0.0
C562 C 0.84711 0.54449 0.38224 0.0
C563 C 0.84126 0.43254 0.38091 0.0
C564 C 0.76079 0.45022 0.41806 0.0
C565 C 0.73902 0.43991 0.39537 0.0
C566 C 0.79517 0.46592 0.41398 0.0
C567 C 0.80797 0.47175 0.38658 0.0
C568 C 0.78602 0.46143 0.36365 0.0
C569 C 0.75189 0.44552 0.36834 0.0
C570 C 0.81776 0.47619 0.4389 0.0
C571 C 0.79857 0.46733 0.33407 0.0
H572 H 0.90709 0.56374 0.3604 0.0
H573 H 0.9019 0.46951 0.35867 0.0
H574 H 0.82884 0.53988 0.36563 0.0
H575 H 0.83378 0.5382 0.40237 0.0
H576 H 0.86588 0.57123 0.38222 0.0
H577 H 0.85818 0.42233 0.38061 0.0
H578 H 0.82793 0.42621 0.40106 0.0
H579 H 0.82261 0.42028 0.36425 0.0
H580 H 0.75096 0.44587 0.43901 0.0
H581 H 0.73522 0.43773 0.35071 0.0
H582 H 0.83501 0.50326 0.43847 0.0
H583 H 0.83297 0.4641 0.43819 0.0
H584 H 0.80393 0.46968 0.45883 0.0
H585 H 0.81545 0.49413 0.33057 0.0
H586 H 0.77826 0.45827 0.31859 0.0
H587 H 0.81291 0.45468 0.33027 0.0
C588 C 0.13614 0.63129 0.39125 0.0
C589 C 0.10406 0.60641 0.38436 0.0
C590 C 0.15045 0.63111 0.4167 0.0
C591 C 0.13214 0.60557 0.43602 0.0
C592 C 0.09936 0.58083 0.42962 0.0
C593 C 0.08561 0.58156 0.40378 0.0
C594 C 0.18542 0.6581 0.42272 0.0
C595 C 0.07909 0.55336 0.44985 0.0
C596 C 0.18682 0.59359 0.48714 0.0
C597 C 0.18758 0.61318 0.50951 0.0
C598 C 0.16731 0.58931 0.46363 0.0
C599 C 0.14804 0.6049 0.46257 0.0
C600 C 0.14744 0.62331 0.48571 0.0
C601 C 0.16731 0.62732 0.50889 0.0
C602 C 0.16873 0.56959 0.43933 0.0
C603 C 0.12711 0.64019 0.48542 0.0
H604 H 0.1502 0.65106 0.37659 0.0
H605 H 0.06078 0.56236 0.39853 0.0
H606 H 0.18608 0.67143 0.44202 0.0
H607 H 0.20136 0.64713 0.42615 0.0
H608 H 0.19612 0.67632 0.40552 0.0
H609 H 0.05349 0.53696 0.44232 0.0
H610 H 0.09097 0.53823 0.45329 0.0
H611 H 0.07804 0.56382 0.47028 0.0
H612 H 0.20229 0.58243 0.48759 0.0
H613 H 0.16757 0.64224 0.52625 0.0
H614 H 0.18152 0.58644 0.42164 0.0
H615 H 0.14346 0.55139 0.43227 0.0
H616 H 0.18207 0.55623 0.44453 0.0
H617 H 0.13798 0.66104 0.47045 0.0
H618 H 0.1261 0.65004 0.5062 0.0
H619 H 0.10156 0.62281 0.47843 0.0
C620 C 0.54277 0.09069 0.56063 0.0
C621 C 0.51255 0.08709 0.55219 0.0
C622 C 0.55756 0.10688 0.58563 0.0
C623 C 0.54219 0.12072 0.60185 0.0
C624 C 0.51089 0.11576 0.5939 0.0
C625 C 0.49628 0.09866 0.56924 0.0
C626 C 0.59047 0.11084 0.59383 0.0
C627 C 0.49402 0.13072 0.61021 0.0
C628 C 0.57093 0.15359 0.67492 0.0
C629 C 0.59225 0.18729 0.66976 0.0
C630 C 0.55523 0.13133 0.65295 0.0
C631 C 0.56027 0.14331 0.62533 0.0
C632 C 0.58179 0.17738 0.62007 0.0
C633 C 0.5979 0.19887 0.64235 0.0
C634 C 0.5332 0.09507 0.65927 0.0
C635 C 0.58724 0.19128 0.59097 0.0
H636 H 0.5554 0.082 0.54714 0.0
H637 H 0.47317 0.09633 0.56227 0.0
H638 H 0.6102 0.1368 0.59043 0.0
H639 H 0.59061 0.10529 0.61624 0.0
H640 H 0.59655 0.09447 0.58151 0.0
H641 H 0.46864 0.12231 0.60253 0.0
H642 H 0.49267 0.12436 0.63255 0.0
H643 H 0.50864 0.15805 0.60857 0.0
H644 H 0.56679 0.14457 0.69614 0.0
H645 H 0.61427 0.22496 0.63838 0.0
H646 H 0.54115 0.08018 0.64698 0.0
H647 H 0.50743 0.08708 0.65311 0.0
H648 H 0.53346 0.08947 0.68168 0.0
H649 H 0.59741 0.17921 0.57755 0.0
H650 H 0.60444 0.2184 0.59049 0.0
H651 H 0.56333 0.18601 0.58179 0.0
C652 C 0.46929 0.55291 0.72179 0.0
C653 C 0.44752 0.51912 0.71752 0.0
C654 C 0.4683 0.56843 0.74645 0.0
C655 C 0.44452 0.54977 0.767 0.0
C656 C 0.42391 0.51523 0.76349 0.0
C657 C 0.42583 0.50026 0.73881 0.0
C658 C 0.49121 0.60516 0.74969 0.0
C659 C 0.39805 0.49449 0.78479 0.0
C660 C 0.44796 0.58484 0.839 0.0
C661 C 0.42558 0.59636 0.83627 0.0
C662 C 0.45502 0.5703 0.81646 0.0
C663 C 0.4389 0.56674 0.79075 0.0
C664 C 0.41654 0.57866 0.78781 0.0
C665 C 0.41034 0.59356 0.81057 0.0
C666 C 0.47941 0.55842 0.82023 0.0
C667 C 0.39861 0.57504 0.76077 0.0
H668 H 0.48602 0.56746 0.70524 0.0
H669 H 0.40865 0.47422 0.73534 0.0
H670 H 0.47696 0.61815 0.74749 0.0
H671 H 0.50257 0.61094 0.77068 0.0
H672 H 0.51117 0.6151 0.73385 0.0
H673 H 0.38624 0.46764 0.78024 0.0
H674 H 0.40904 0.49915 0.80589 0.0
H675 H 0.37859 0.50145 0.7851 0.0
H676 H 0.45994 0.58712 0.85882 0.0
H677 H 0.39297 0.60235 0.80842 0.0
H678 H 0.49908 0.56966 0.80423 0.0
H679 H 0.46679 0.53125 0.81735 0.0
H680 H 0.49109 0.56454 0.84113 0.0
H681 H 0.41666 0.58745 0.74374 0.0
H682 H 0.38212 0.58572 0.76189 0.0
H683 H 0.38356 0.5485 0.7552 0.0
C684 C 0.94824 0.45723 0.90081 0.0
C685 C 0.93112 0.43182 0.88151 0.0
C686 C 0.9334 0.45762 0.92618 0.0
C687 C 0.90099 0.43178 0.9323 0.0
C688 C 0.88401 0.40578 0.91303 0.0
C689 C 0.89928 0.40614 0.88795 0.0
C690 C 0.95215 0.48574 0.94628 0.0
C691 C 0.84962 0.37751 0.91883 0.0
C692 C 0.86686 0.40894 0.00538 0.0
C693 C 0.84469 0.42086 0.00612 0.0
C694 C 0.88675 0.41393 0.98201 0.0
C695 C 0.88443 0.43128 0.95883 0.0
C696 C 0.86312 0.4446 0.95994 0.0
C697 C 0.84343 0.43918 0.98359 0.0
C698 C 0.90903 0.3992 0.98162 0.0
C699 C 0.85999 0.46326 0.93563 0.0
H700 H 0.97289 0.47702 0.89583 0.0
H701 H 0.88626 0.38608 0.87327 0.0
H702 H 0.93833 0.49897 0.94987 0.0
H703 H 0.95446 0.476 0.96666 0.0
H704 H 0.97724 0.5037 0.93858 0.0
H705 H 0.83994 0.35916 0.90164 0.0
H706 H 0.84958 0.36464 0.93821 0.0
H707 H 0.83246 0.3871 0.92203 0.0
H708 H 0.86814 0.39497 0.02284 0.0
H709 H 0.82652 0.44866 0.98415 0.0
H710 H 0.93426 0.41789 0.97487 0.0
H711 H 0.89948 0.37859 0.96641 0.0
H712 H 0.91063 0.38951 0.0023 0.0
H713 H 0.88476 0.48262 0.92848 0.0
H714 H 0.84516 0.47507 0.94087 0.0
H715 H 0.84794 0.44604 0.91798 0.0
C716 C 0.48674 0.93637 0.05303 0.0
C717 C 0.51972 0.94527 0.0484 0.0
C718 C 0.47059 0.9204 0.0777 0.0
C719 C 0.48763 0.91231 0.09769 0.0
C720 C 0.5215 0.92297 0.09374 0.0
C721 C 0.53724 0.93965 0.06922 0.0
C722 C 0.43475 0.91033 0.08151 0.0
C723 C 0.54043 0.91436 0.11427 0.0
C724 C 0.45304 0.88025 0.16976 0.0
C725 C 0.43793 0.84599 0.16582 0.0
C726 C 0.46831 0.90222 0.14754 0.0
C727 C 0.4693 0.88958 0.12104 0.0
C728 C 0.45383 0.85495 0.11696 0.0
C729 C 0.43793 0.83356 0.13934 0.0
C730 C 0.48366 0.93889 0.15248 0.0
C731 C 0.45489 0.84048 0.08914 0.0
H732 H 0.4732 0.94061 0.0368 0.0
H733 H 0.5626 0.94605 0.06538 0.0
H734 H 0.41914 0.88328 0.07837 0.0
H735 H 0.43026 0.91593 0.10295 0.0
H736 H 0.42676 0.92301 0.06652 0.0
H737 H 0.56723 0.92699 0.10942 0.0
H738 H 0.53726 0.92109 0.13569 0.0
H739 H 0.53058 0.88727 0.11395 0.0
H740 H 0.4528 0.88987 0.19022 0.0
H741 H 0.42639 0.80709 0.13631 0.0
H742 H 0.47409 0.94973 0.13712 0.0
H743 H 0.51078 0.95121 0.14953 0.0
H744 H 0.47864 0.94457 0.17375 0.0
H745 H 0.4435 0.84844 0.07293 0.0
H746 H 0.44179 0.81304 0.08948 0.0
H747 H 0.48092 0.84976 0.08293 0.0
C748 C 0.56835 0.49599 0.23475 0.0
C749 C 0.59657 0.52555 0.22727 0.0
C750 C 0.56771 0.47956 0.25941 0.0
C751 C 0.59638 0.49263 0.27625 0.0
C752 C 0.62419 0.52357 0.26948 0.0
C753 C 0.62381 0.53977 0.24512 0.0
C754 C 0.53728 0.44713 0.26633 0.0
C755 C 0.65545 0.53814 0.28656 0.0
C756 C 0.5989 0.46012 0.34802 0.0
C757 C 0.61069 0.43855 0.34185 0.0
C758 C 0.59247 0.4767 0.32675 0.0
C759 C 0.59904 0.47236 0.29883 0.0
C760 C 0.61045 0.45015 0.29251 0.0
C761 C 0.61566 0.43313 0.31411 0.0
C762 C 0.57933 0.49934 0.3342 0.0
C763 C 0.61844 0.44536 0.26304 0.0
H764 H 0.54754 0.48484 0.22059 0.0
H765 H 0.64582 0.56234 0.23885 0.0
H766 H 0.54177 0.4265 0.26153 0.0
H767 H 0.53148 0.44581 0.28882 0.0
H768 H 0.51548 0.44342 0.2542 0.0
H769 H 0.67368 0.56367 0.27994 0.0
H770 H 0.6499 0.53856 0.30891 0.0
H771 H 0.66696 0.52248 0.28437 0.0
H772 H 0.59473 0.46406 0.3695 0.0
H773 H 0.6249 0.41654 0.30936 0.0
H774 H 0.55748 0.49355 0.32122 0.0
H775 H 0.59836 0.52533 0.32985 0.0
H776 H 0.57225 0.49731 0.35646 0.0
H777 H 0.59647 0.43713 0.24956 0.0
H778 H 0.62672 0.4269 0.26163 0.0
H779 H 0.63825 0.46921 0.25462 0.0
C780 C 0.45528 0.9478 0.40656 0.0
C781 C 0.43223 0.92819 0.42685 0.0
C782 C 0.45559 0.93462 0.3803 0.0
C783 C 0.43233 0.90115 0.37436 0.0
C784 C 0.40886 0.88145 0.3947 0.0
C785 C 0.40893 0.89526 0.4205 0.0
C786 C 0.48077 0.95638 0.35897 0.0
C787 C 0.38355 0.84566 0.38926 0.0
C788 C 0.40554 0.86562 0.30207 0.0
C789 C 0.42171 0.8474 0.29906 0.0
C790 C 0.41055 0.88517 0.32572 0.0
C791 C 0.43196 0.8862 0.34697 0.0
C792 C 0.44957 0.86911 0.34341 0.0
C793 C 0.44432 0.85 0.3194 0.0
C794 C 0.39152 0.90325 0.32863 0.0
C795 C 0.47243 0.86938 0.36568 0.0
H796 H 0.47328 0.97326 0.41134 0.0
H797 H 0.39038 0.88019 0.43574 0.0
H798 H 0.49664 0.94591 0.35328 0.0
H799 H 0.46814 0.95718 0.33972 0.0
H800 H 0.49674 0.98203 0.36662 0.0
H801 H 0.36743 0.8336 0.40754 0.0
H802 H 0.36775 0.84384 0.37139 0.0
H803 H 0.39611 0.83165 0.3837 0.0
H804 H 0.38828 0.86398 0.28624 0.0
H805 H 0.45701 0.83608 0.3171 0.0
H806 H 0.4081 0.9291 0.33543 0.0
H807 H 0.37221 0.89104 0.34479 0.0
H808 H 0.37938 0.90352 0.30887 0.0
H809 H 0.48964 0.89502 0.37263 0.0
H810 H 0.48707 0.85806 0.35843 0.0
H811 H 0.45771 0.85537 0.38404 0.0
C812 C 0.52216 0.45176 0.57576 0.0
C813 C 0.51602 0.4275 0.59571 0.0
C814 C 0.53634 0.45176 0.54993 0.0
C815 C 0.54442 0.42692 0.54411 0.0
C816 C 0.53744 0.40196 0.56395 0.0
C817 C 0.52314 0.40244 0.58933 0.0
C818 C 0.54318 0.47856 0.5291 0.0
C819 C 0.54552 0.37492 0.5586 0.0
C820 C 0.55723 0.40265 0.47202 0.0
C821 C 0.59165 0.41694 0.4712 0.0
C822 C 0.54155 0.40751 0.49492 0.0
C823 C 0.56077 0.42686 0.51761 0.0
C824 C 0.59564 0.44256 0.51632 0.0
C825 C 0.61068 0.4375 0.49306 0.0
C826 C 0.50433 0.39055 0.49542 0.0
C827 C 0.61698 0.4632 0.54018 0.0
H828 H 0.51657 0.47108 0.5806 0.0
H829 H 0.5176 0.38307 0.60437 0.0
H830 H 0.57016 0.49378 0.52548 0.0
H831 H 0.53158 0.46745 0.50884 0.0
H832 H 0.53384 0.495 0.53617 0.0
H833 H 0.53838 0.3573 0.57624 0.0
H834 H 0.53259 0.36089 0.53964 0.0
H835 H 0.57241 0.38591 0.55491 0.0
H836 H 0.54242 0.38702 0.45502 0.0
H837 H 0.63732 0.44877 0.49245 0.0
H838 H 0.49615 0.40807 0.50196 0.0
H839 H 0.49453 0.37015 0.51081 0.0
H840 H 0.4933 0.38007 0.47482 0.0
H841 H 0.60985 0.48151 0.54672 0.0
H842 H 0.64364 0.47652 0.53476 0.0
H843 H 0.61323 0.44699 0.5583 0.0
C844 C 0.0797 0.51482 0.74275 0.0
C845 C 0.09209 0.49662 0.75595 0.0
C846 C 0.09336 0.53106 0.71743 0.0
C847 C 0.12 0.52903 0.70546 0.0
C848 C 0.1309 0.50876 0.71792 0.0
C849 C 0.1167 0.49273 0.74294 0.0
C850 C 0.0807 0.55194 0.70444 0.0
C851 C 0.15917 0.50582 0.70593 0.0
C852 C 0.15402 0.55565 0.63267 0.0
C853 C 0.1825 0.58612 0.63792 0.0
C854 C 0.13195 0.53774 0.65417 0.0
C855 C 0.13893 0.55035 0.6816 0.0
C856 C 0.16688 0.58183 0.68675 0.0
C857 C 0.18819 0.59945 0.66477 0.0
C858 C 0.10209 0.50462 0.64775 0.0
C859 C 0.17541 0.59602 0.71576 0.0
H860 H 0.06073 0.51786 0.75295 0.0
H861 H 0.12608 0.47846 0.75323 0.0
H862 H 0.09887 0.57845 0.70785 0.0
H863 H 0.0777 0.54779 0.68165 0.0
H864 H 0.05671 0.54662 0.71353 0.0
H865 H 0.1631 0.4873 0.71715 0.0
H866 H 0.15461 0.49872 0.68369 0.0
H867 H 0.18225 0.53012 0.70715 0.0
H868 H 0.1493 0.54544 0.61183 0.0
H869 H 0.21011 0.62306 0.66889 0.0
H870 H 0.07981 0.50231 0.65805 0.0
H871 H 0.10593 0.48464 0.65598 0.0
H872 H 0.09738 0.50072 0.62505 0.0
H873 H 0.15375 0.59552 0.72563 0.0
H874 H 0.19638 0.62184 0.71593 0.0
H875 H 0.18216 0.58066 0.72873 0.0
C876 C 0.58937 0.08401 0.90521 0.0
C877 C 0.61747 0.10017 0.92206 0.0
C878 C 0.58785 0.09776 0.8796 0.0
C879 C 0.61511 0.12819 0.87085 0.0
C880 C 0.64409 0.14359 0.88724 0.0
C881 C 0.6449 0.12935 0.91257 0.0
C882 C 0.55668 0.08052 0.86251 0.0
C883 C 0.67382 0.1759 0.87865 0.0
C884 C 0.62865 0.16205 0.79743 0.0
C885 C 0.61951 0.18628 0.80008 0.0
C886 C 0.62535 0.14137 0.81983 0.0
C887 C 0.6131 0.14539 0.84556 0.0
C888 C 0.60259 0.16892 0.84797 0.0
C889 C 0.60575 0.18896 0.82514 0.0
C890 C 0.63642 0.11629 0.81633 0.0
C891 C 0.58967 0.17419 0.87513 0.0
H892 H 0.56819 0.06142 0.91257 0.0
H893 H 0.66687 0.14153 0.92541 0.0
H894 H 0.54415 0.09533 0.86271 0.0
H895 H 0.5626 0.07839 0.84054 0.0
H896 H 0.53924 0.05543 0.87059 0.0
H897 H 0.69495 0.18377 0.89313 0.0
H898 H 0.68192 0.17373 0.85747 0.0
H899 H 0.66717 0.19558 0.87797 0.0
H900 H 0.63896 0.15964 0.77798 0.0
H901 H 0.59854 0.20757 0.82725 0.0
H902 H 0.61756 0.09195 0.82471 0.0
H903 H 0.65949 0.12432 0.82826 0.0
H904 H 0.64113 0.11318 0.79421 0.0
H905 H 0.56978 0.15031 0.88337 0.0
H906 H 0.57991 0.19139 0.87293 0.0
H907 H 0.60984 0.18455 0.89075 0.0
C908 C 0.51408 0.62927 0.09097 0.0
C909 C 0.51906 0.60306 0.09827 0.0
C910 C 0.49957 0.62946 0.06564 0.0
C911 C 0.48985 0.60279 0.04695 0.0
C912 C 0.49567 0.57663 0.05378 0.0
C913 C 0.5104 0.57713 0.07944 0.0
C914 C 0.49417 0.65803 0.05911 0.0
C915 C 0.4857 0.54788 0.03426 0.0
C916 C 0.42386 0.59465 0.99664 0.0
C917 C 0.44293 0.61232 0.97366 0.0
C918 C 0.43862 0.58963 0.02013 0.0
C919 C 0.47322 0.60258 0.02057 0.0
C920 C 0.49233 0.61908 0.99689 0.0
C921 C 0.47696 0.6238 0.97373 0.0
C922 C 0.41742 0.57195 0.04501 0.0
C923 C 0.52927 0.63326 0.99653 0.0
H924 H 0.52139 0.64968 0.10532 0.0
H925 H 0.51434 0.55693 0.0851 0.0
H926 H 0.50661 0.66991 0.03932 0.0
H927 H 0.46743 0.64889 0.05636 0.0
H928 H 0.50368 0.67708 0.07575 0.0
H929 H 0.49334 0.53034 0.04202 0.0
H930 H 0.4585 0.53434 0.03154 0.0
H931 H 0.4968 0.55692 0.01346 0.0
H932 H 0.39752 0.58551 0.9966 0.0
H933 H 0.49179 0.63721 0.9559 0.0
H934 H 0.42334 0.58979 0.0623 0.0
H935 H 0.42266 0.55258 0.05241 0.0
H936 H 0.39064 0.5603 0.04031 0.0
H937 H 0.54109 0.65457 0.01101 0.0
H938 H 0.53992 0.64182 0.97549 0.0
H939 H 0.53563 0.61462 0.00379 0.0
C940 C 0.93426 0.48424 0.25734 0.0
C941 C 0.94414 0.51741 0.26249 0.0
C942 C 0.91776 0.46874 0.23265 0.0
C943 C 0.9103 0.48671 0.21312 0.0
C944 C 0.92183 0.52072 0.21762 0.0
C945 C 0.93891 0.53575 0.2422 0.0
C946 C 0.90663 0.43268 0.22828 0.0
C947 C 0.914 0.54063 0.1975 0.0
C948 C 0.87929 0.45333 0.14062 0.0
C949 C 0.84503 0.43887 0.14398 0.0
C950 C 0.90087 0.46828 0.16309 0.0
C951 C 0.88787 0.46933 0.18938 0.0
C952 C 0.85325 0.45453 0.19292 0.0
C953 C 0.83222 0.43918 0.17021 0.0
C954 C 0.93755 0.48319 0.15867 0.0
C955 C 0.83845 0.45554 0.22056 0.0
H956 H 0.93821 0.47008 0.27318 0.0
H957 H 0.94609 0.56127 0.24645 0.0
H958 H 0.87945 0.41773 0.23078 0.0
H959 H 0.91259 0.42846 0.20688 0.0
H960 H 0.91828 0.42361 0.24335 0.0
H961 H 0.92711 0.56735 0.20282 0.0
H962 H 0.92074 0.53774 0.176 0.0
H963 H 0.88704 0.53135 0.19771 0.0
H964 H 0.88927 0.45295 0.12036 0.0
H965 H 0.80576 0.42812 0.17282 0.0
H966 H 0.94769 0.47271 0.17384 0.0
H967 H 0.95024 0.51023 0.16235 0.0
H968 H 0.94355 0.47875 0.13733 0.0
H969 H 0.84575 0.44359 0.2368 0.0
H970 H 0.81107 0.44291 0.21983 0.0
H971 H 0.84809 0.48158 0.22701 0.0
loop_
_geom_bond_atom_site_label_1
_geom_bond_atom_site_label_2
_geom_bond_distance
_geom_bond_site_symmetry_2
_ccdc_geom_bond_type
H0 C8 0.930 . S
H1 C11 0.930 . S
H2 C13 0.930 . S
H3 C14 0.970 . S
H4 C14 0.970 . S
H5 C16 0.930 . S
H6 C18 0.930 . S
H7 C20 0.930 . S
C8 H0 0.930 . S
C8 C9 1.382 . S
C8 C10 1.426 . S
C9 C8 1.382 . S
C9 C13 1.389 . S
C10 C8 1.426 . S
C10 C11 1.375 . S
C10 C14 1.532 1_655 S
C11 H1 0.930 . S
C11 C10 1.375 . S
C11 C12 1.416 . S
C12 C11 1.416 . S
C12 C13 1.371 . S
C13 H2 0.930 . S
C13 C9 1.389 . S
C13 C12 1.371 . S
C14 H3 0.970 . S
C14 H4 0.970 . S
C14 C10 1.532 1_455 S
C14 C15 1.499 . S
C15 C14 1.499 . S
C15 C16 1.370 . S
C15 C20 1.415 . S
C16 H5 0.930 . S
C16 C15 1.370 . S
C16 C17 1.407 . S
C17 C16 1.407 . S
C17 C18 1.365 . S
C18 H6 0.930 . S
C18 C17 1.365 . S
C18 C19 1.393 . S
C19 C18 1.393 . S
C19 C20 1.387 . S
C20 H7 0.930 . S
C20 C15 1.415 . S
C20 C19 1.387 . S
H21 C29 0.930 . S
H22 C32 0.930 . S
H23 C34 0.930 . S
H24 C35 0.970 . S
H25 C35 0.970 . S
H26 C37 0.930 . S
H27 C39 0.930 . S
H28 C41 0.930 . S
C29 H21 0.930 . S
C29 C30 1.382 . S
C29 C31 1.426 . S
C30 C29 1.382 . S
C30 C34 1.389 . S
C31 C29 1.426 . S
C31 C32 1.375 . S
C31 C35 1.532 1_565 S
C32 H22 0.930 . S
C32 C31 1.375 . S
C32 C33 1.416 . S
C33 C32 1.416 . S
C33 C34 1.371 . S
C34 H23 0.930 . S
C34 C30 1.389 . S
C34 C33 1.371 . S
C35 H24 0.970 . S
C35 H25 0.970 . S
C35 C31 1.532 1_545 S
C35 C36 1.499 . S
C36 C35 1.499 . S
C36 C37 1.370 . S
C36 C41 1.415 . S
C37 H26 0.930 . S
C37 C36 1.370 . S
C37 C38 1.407 . S
C38 C37 1.407 . S
C38 C39 1.365 . S
C39 H27 0.930 . S
C39 C38 1.365 . S
C39 C40 1.393 . S
C40 C39 1.393 . S
C40 C41 1.387 . S
C41 H28 0.930 . S
C41 C36 1.415 . S
C41 C40 1.387 . S
H42 C50 0.930 . S
H43 C53 0.930 . S
H44 C55 0.930 . S
H45 C56 0.970 . S
H46 C56 0.970 . S
H47 C58 0.930 . S
H48 C60 0.930 . S
H49 C62 0.930 . S
C50 H42 0.930 . S
C50 C51 1.382 . S
C50 C52 1.426 . S
C51 C50 1.382 . S
C51 C55 1.389 . S
C52 C50 1.426 . S
C52 C53 1.375 . S
C52 C56 1.532 . S
C53 H43 0.930 . S
C53 C52 1.375 . S
C53 C54 1.416 . S
C54 C53 1.416 . S
C54 C55 1.371 . S
C55 H44 0.930 . S
C55 C51 1.389 . S
C55 C54 1.371 . S
C56 H45 0.970 . S
C56 H46 0.970 . S
C56 C52 1.532 . S
C56 C57 1.499 . S
C57 C56 1.499 . S
C57 C58 1.370 . S
C57 C62 1.415 . S
C58 H47 0.930 . S
C58 C57 1.370 . S
C58 C59 1.407 . S
C59 C58 1.407 . S
C59 C60 1.365 . S
C60 H48 0.930 . S
C60 C59 1.365 . S
C60 C61 1.393 . S
C61 C60 1.393 . S
C61 C62 1.387 . S
C62 H49 0.930 . S
C62 C57 1.415 . S
C62 C61 1.387 . S
H63 C71 0.930 . S
H64 C74 0.930 . S
H65 C76 0.930 . S
H66 C77 0.970 . S
H67 C77 0.970 . S
H68 C79 0.930 . S
H69 C81 0.930 . S
H70 C83 0.930 . S
C71 H63 0.930 . S
C71 C72 1.382 . S
C71 C73 1.426 . S
C72 C71 1.382 . S
C72 C76 1.389 . S
C73 C71 1.426 . S
C73 C74 1.375 . S
C73 C77 1.532 1_655 S
C74 H64 0.930 . S
C74 C73 1.375 . S
C74 C75 1.416 . S
C75 C74 1.416 . S
C75 C76 1.371 . S
C76 H65 0.930 . S
C76 C72 1.389 . S
C76 C75 1.371 . S
C77 H66 0.970 . S
C77 H67 0.970 . S
C77 C73 1.532 1_455 S
C77 C78 1.499 . S
C78 C77 1.499 . S
C78 C79 1.370 . S
C78 C83 1.415 . S
C79 H68 0.930 . S
C79 C78 1.370 . S
C79 C80 1.407 . S
C80 C79 1.407 . S
C80 C81 1.365 . S
C81 H69 0.930 . S
C81 C80 1.365 . S
C81 C82 1.393 . S
C82 C81 1.393 . S
C82 C83 1.387 . S
C83 H70 0.930 . S
C83 C78 1.415 . S
C83 C82 1.387 . S
H84 C92 0.930 . S
H85 C95 0.930 . S
H86 C97 0.930 . S
H87 C98 0.970 1_554 S
H88 C98 0.970 . S
H89 C100 0.930 . S
H90 C102 0.930 . S
H91 C104 0.930 . S
C92 H84 0.930 . S
C92 C93 1.382 1_554 S
C92 C94 1.426 1_554 S
C93 C92 1.382 1_556 S
C93 C97 1.389 . S
C94 C92 1.426 1_556 S
C94 C95 1.375 . S
C94 C98 1.532 . S
C95 H85 0.930 . S
C95 C94 1.375 . S
C95 C96 1.416 . S
C96 C95 1.416 . S
C96 C97 1.371 . S
C97 H86 0.930 . S
C97 C93 1.389 . S
C97 C96 1.371 . S
C98 H87 0.970 1_556 S
C98 H88 0.970 . S
C98 C94 1.532 . S
C98 C99 1.500 1_545 S
C99 C98 1.500 1_565 S
C99 C100 1.367 1_556 S
C99 C104 1.418 . S
C100 H89 0.930 . S
C100 C99 1.367 1_554 S
C100 C101 1.407 . S
C101 C100 1.407 . S
C101 C102 1.365 . S
C102 H90 0.930 . S
C102 C101 1.365 . S
C102 C103 1.393 1_554 S
C103 C102 1.393 1_556 S
C103 C104 1.387 . S
C104 H91 0.930 . S
C104 C99 1.418 . S
C104 C103 1.387 . S
H105 C113 0.930 . S
H106 C116 0.930 . S
H107 C118 0.930 . S
H108 C119 0.970 . S
H109 C119 0.970 . S
H110 C121 0.930 . S
H111 C123 0.930 . S
H112 C125 0.930 . S
C113 H105 0.930 . S
C113 C114 1.382 . S
C113 C115 1.426 . S
C114 C113 1.382 . S
C114 C118 1.389 . S
C115 C113 1.426 . S
C115 C116 1.375 . S
C115 C119 1.532 . S
C116 H106 0.930 . S
C116 C115 1.375 . S
C116 C117 1.416 . S
C117 C116 1.416 . S
C117 C118 1.371 . S
C118 H107 0.930 . S
C118 C114 1.389 . S
C118 C117 1.371 . S
C119 H108 0.970 . S
C119 H109 0.970 . S
C119 C115 1.532 . S
C119 C120 1.499 . S
C120 C119 1.499 . S
C120 C121 1.370 . S
C120 C125 1.415 . S
C121 H110 0.930 . S
C121 C120 1.370 . S
C121 C122 1.407 . S
C122 C121 1.407 . S
C122 C123 1.365 . S
C123 H111 0.930 . S
C123 C122 1.365 . S
C123 C124 1.393 . S
C124 C123 1.393 . S
C124 C125 1.387 . S
C125 H112 0.930 . S
C125 C120 1.415 . S
C125 C124 1.387 . S
In126 O127 2.294 . S
In126 O128 2.326 . S
In126 O132 2.266 . S
In126 O133 2.326 . S
In126 O134 2.266 . S
In126 O135 2.326 . S
In126 O137 2.294 . S
In126 O138 2.326 . S
O127 In126 2.294 . S
O127 C136 1.240 . S
O128 In126 2.326 . S
O128 C136 1.252 . S
C129 O132 1.252 . S
C129 O133 1.260 . S
C130 O137 1.240 . S
C130 O138 1.252 . S
C131 O134 1.252 . S
C131 O135 1.260 . S
O132 In126 2.266 . S
O132 C129 1.252 . S
O133 In126 2.326 . S
O133 C129 1.260 . S
O134 In126 2.266 . S
O134 C131 1.252 . S
O135 In126 2.326 . S
O135 C131 1.260 . S
C136 O127 1.240 . S
C136 O128 1.252 . S
O137 In126 2.294 . S
O137 C130 1.240 . S
O138 In126 2.326 . S
O138 C130 1.252 . S
In139 O140 2.294 . S
In139 O141 2.326 . S
In139 O145 2.266 . S
In139 O146 2.326 . S
In139 O147 2.266 . S
In139 O148 2.326 . S
In139 O150 2.294 . S
In139 O151 2.326 . S
O140 In139 2.294 . S
O140 C149 1.240 . S
O141 In139 2.326 . S
O141 C149 1.252 . S
C142 O145 1.252 . S
C142 O146 1.260 . S
C143 O150 1.240 . S
C143 O151 1.252 . S
C144 O147 1.252 . S
C144 O148 1.260 . S
O145 In139 2.266 . S
O145 C142 1.252 . S
O146 In139 2.326 . S
O146 C142 1.260 . S
O147 In139 2.266 . S
O147 C144 1.252 . S
O148 In139 2.326 . S
O148 C144 1.260 . S
C149 O140 1.240 . S
C149 O141 1.252 . S
O150 In139 2.294 . S
O150 C143 1.240 . S
O151 In139 2.326 . S
O151 C143 1.252 . S
In152 O153 2.294 . S
In152 O154 2.326 . S
In152 O158 2.266 . S
In152 O159 2.326 . S
In152 O160 2.266 . S
In152 O161 2.326 . S
In152 O163 2.294 . S
In152 O164 2.326 . S
O153 In152 2.294 . S
O153 C162 1.240 . S
O154 In152 2.326 . S
O154 C162 1.252 . S
C155 O158 1.252 . S
C155 O159 1.260 . S
C156 O163 1.240 . S
C156 O164 1.252 . S
C157 O160 1.252 . S
C157 O161 1.260 . S
O158 In152 2.266 . S
O158 C155 1.252 . S
O159 In152 2.326 . S
O159 C155 1.260 . S
O160 In152 2.266 . S
O160 C157 1.252 . S
O161 In152 2.326 . S
O161 C157 1.260 . S
C162 O153 1.240 . S
C162 O154 1.252 . S
O163 In152 2.294 . S
O163 C156 1.240 . S
O164 In152 2.326 . S
O164 C156 1.252 . S
In165 O166 2.294 . S
In165 O167 2.326 . S
In165 O171 2.266 . S
In165 O172 2.326 . S
In165 O173 2.266 . S
In165 O174 2.326 . S
In165 O176 2.294 . S
In165 O177 2.326 . S
O166 In165 2.294 . S
O166 C175 1.240 . S
O167 In165 2.326 . S
O167 C175 1.252 . S
C168 O171 1.252 . S
C168 O172 1.260 . S
C169 O176 1.240 . S
C169 O177 1.252 . S
C170 O173 1.252 . S
C170 O174 1.260 . S
O171 In165 2.266 . S
O171 C168 1.252 . S
O172 In165 2.326 . S
O172 C168 1.260 . S
O173 In165 2.266 . S
O173 C170 1.252 . S
O174 In165 2.326 . S
O174 C170 1.260 . S
C175 O166 1.240 . S
C175 O167 1.252 . S
O176 In165 2.294 . S
O176 C169 1.240 . S
O177 In165 2.326 . S
O177 C169 1.252 . S
In178 O179 2.294 . S
In178 O180 2.326 . S
In178 O184 2.266 . S
In178 O185 2.326 . S
In178 O186 2.266 . S
In178 O187 2.326 . S
In178 O189 2.294 . S
In178 O190 2.326 . S
O179 In178 2.294 . S
O179 C188 1.240 . S
O180 In178 2.326 . S
O180 C188 1.252 . S
C181 O184 1.252 . S
C181 O185 1.260 . S
C182 O189 1.240 . S
C182 O190 1.252 . S
C183 O186 1.252 . S
C183 O187 1.260 . S
O184 In178 2.266 . S
O184 C181 1.252 . S
O185 In178 2.326 . S
O185 C181 1.260 . S
O186 In178 2.266 . S
O186 C183 1.252 . S
O187 In178 2.326 . S
O187 C183 1.260 . S
C188 O179 1.240 . S
C188 O180 1.252 . S
O189 In178 2.294 . S
O189 C182 1.240 . S
O190 In178 2.326 . S
O190 C182 1.252 . S
In191 O192 2.294 . S
In191 O193 2.326 . S
In191 O197 2.266 . S
In191 O198 2.326 . S
In191 O199 2.266 . S
In191 O200 2.326 . S
In191 O202 2.294 . S
In191 O203 2.326 . S
O192 In191 2.294 . S
O192 C201 1.240 . S
O193 In191 2.326 . S
O193 C201 1.252 . S
C194 O197 1.252 . S
C194 O198 1.260 . S
C195 O202 1.240 . S
C195 O203 1.252 . S
C196 O199 1.252 . S
C196 O200 1.260 . S
O197 In191 2.266 . S
O197 C194 1.252 . S
O198 In191 2.326 . S
O198 C194 1.260 . S
O199 In191 2.266 . S
O199 C196 1.252 . S
O200 In191 2.326 . S
O200 C196 1.260 . S
C201 O192 1.240 . S
C201 O193 1.252 . S
O202 In191 2.294 . S
O202 C195 1.240 . S
O203 In191 2.326 . S
O203 C195 1.252 . S
C204 C205 1.391 . S
C204 C206 1.394 . S
C204 H220 0.931 . S
C205 C204 1.391 . S
C205 C209 1.376 . S
C206 C204 1.394 . S
C206 C207 1.369 . S
C206 C210 1.531 . S
C207 C206 1.369 . S
C207 C208 1.410 . S
C207 C215 1.503 . S
C208 C207 1.410 . S
C208 C209 1.392 . S
C208 C211 1.511 . S
C209 C205 1.376 . S
C209 C208 1.392 . S
C209 H221 0.929 . S
C210 C206 1.531 . S
C210 H222 0.960 . S
C210 H223 0.962 . S
C210 H224 0.960 . S
C211 C208 1.511 . S
C211 H225 0.961 . S
C211 H226 0.961 . S
C211 H227 0.961 . S
C212 C213 1.370 . S
C212 C214 1.363 . S
C212 H228 0.931 . S
C213 C212 1.370 . S
C213 C217 1.408 . S
C214 C212 1.363 . S
C214 C215 1.370 . S
C214 C218 1.524 . S
C215 C207 1.503 . S
C215 C214 1.370 . S
C215 C216 1.403 . S
C216 C215 1.403 . S
C216 C217 1.404 . S
C216 C219 1.539 . S
C217 C213 1.408 . S
C217 C216 1.404 . S
C217 H229 0.930 . S
C218 C214 1.524 . S
C218 H230 0.956 . S
C218 H231 0.961 . S
C218 H232 0.961 . S
C219 C216 1.539 . S
C219 H233 0.958 . S
C219 H234 0.961 . S
C219 H235 0.960 . S
H220 C204 0.931 . S
H221 C209 0.929 . S
H222 C210 0.960 . S
H223 C210 0.962 . S
H224 C210 0.960 . S
H225 C211 0.961 . S
H226 C211 0.961 . S
H227 C211 0.961 . S
H228 C212 0.931 . S
H229 C217 0.930 . S
H230 C218 0.956 . S
H231 C218 0.961 . S
H232 C218 0.961 . S
H233 C219 0.958 . S
H234 C219 0.961 . S
H235 C219 0.960 . S
C236 C237 1.391 . S
C236 C238 1.394 . S
C236 H252 0.931 . S
C237 C236 1.391 . S
C237 C241 1.376 . S
C238 C236 1.394 . S
C238 C239 1.369 . S
C238 C242 1.531 . S
C239 C238 1.369 . S
C239 C240 1.410 . S
C239 C247 1.503 . S
C240 C239 1.410 . S
C240 C241 1.392 . S
C240 C243 1.511 . S
C241 C237 1.376 . S
C241 C240 1.392 . S
C241 H253 0.929 . S
C242 C238 1.531 . S
C242 H254 0.960 . S
C242 H255 0.962 . S
C242 H256 0.960 . S
C243 C240 1.511 . S
C243 H257 0.961 . S
C243 H258 0.961 . S
C243 H259 0.961 . S
C244 C245 1.370 . S
C244 C246 1.363 . S
C244 H260 0.931 . S
C245 C244 1.370 . S
C245 C249 1.408 . S
C246 C244 1.363 . S
C246 C247 1.370 . S
C246 C250 1.524 . S
C247 C239 1.503 . S
C247 C246 1.370 . S
C247 C248 1.403 . S
C248 C247 1.403 . S
C248 C249 1.404 . S
C248 C251 1.539 . S
C249 C245 1.408 . S
C249 C248 1.404 . S
C249 H261 0.930 . S
C250 C246 1.524 . S
C250 H262 0.956 . S
C250 H263 0.961 . S
C250 H264 0.961 . S
C251 C248 1.539 . S
C251 H265 0.958 . S
C251 H266 0.961 . S
C251 H267 0.960 . S
H252 C236 0.931 . S
H253 C241 0.929 . S
H254 C242 0.960 . S
H255 C242 0.962 . S
H256 C242 0.960 . S
H257 C243 0.961 . S
H258 C243 0.961 . S
H259 C243 0.961 . S
H260 C244 0.931 . S
H261 C249 0.930 . S
H262 C250 0.956 . S
H263 C250 0.961 . S
H264 C250 0.961 . S
H265 C251 0.958 . S
H266 C251 0.961 . S
H267 C251 0.960 . S
C268 C269 1.391 . S
C268 C270 1.394 . S
C268 H284 0.931 . S
C269 C268 1.391 . S
C269 C273 1.376 . S
C270 C268 1.394 . S
C270 C271 1.369 . S
C270 C274 1.531 . S
C271 C270 1.369 . S
C271 C272 1.410 . S
C271 C279 1.503 . S
C272 C271 1.410 . S
C272 C273 1.392 . S
C272 C275 1.511 . S
C273 C269 1.376 . S
C273 C272 1.392 . S
C273 H285 0.929 . S
C274 C270 1.531 . S
C274 H286 0.960 . S
C274 H287 0.962 . S
C274 H288 0.960 . S
C275 C272 1.511 . S
C275 H289 0.961 . S
C275 H290 0.961 . S
C275 H291 0.961 . S
C276 C277 1.370 . S
C276 C278 1.363 . S
C276 H292 0.931 . S
C277 C276 1.370 . S
C277 C281 1.408 . S
C278 C276 1.363 . S
C278 C279 1.370 . S
C278 C282 1.524 . S
C279 C271 1.503 . S
C279 C278 1.370 . S
C279 C280 1.403 . S
C280 C279 1.403 . S
C280 C281 1.404 . S
C280 C283 1.539 . S
C281 C277 1.408 . S
C281 C280 1.404 . S
C281 H293 0.930 . S
C282 C278 1.524 . S
C282 H294 0.956 . S
C282 H295 0.961 . S
C282 H296 0.961 . S
C283 C280 1.539 . S
C283 H297 0.958 . S
C283 H298 0.961 . S
C283 H299 0.960 . S
H284 C268 0.931 . S
H285 C273 0.929 . S
H286 C274 0.960 . S
H287 C274 0.962 . S
H288 C274 0.960 . S
H289 C275 0.961 . S
H290 C275 0.961 . S
H291 C275 0.961 . S
H292 C276 0.931 . S
H293 C281 0.930 . S
H294 C282 0.956 . S
H295 C282 0.961 . S
H296 C282 0.961 . S
H297 C283 0.958 . S
H298 C283 0.961 . S
H299 C283 0.960 . S
C300 C301 1.391 . S
C300 C302 1.394 . S
C300 H316 0.931 . S
C301 C300 1.391 . S
C301 C305 1.376 . S
C302 C300 1.394 . S
C302 C303 1.369 . S
C302 C306 1.531 . S
C303 C302 1.369 . S
C303 C304 1.410 . S
C303 C311 1.503 . S
C304 C303 1.410 . S
C304 C305 1.392 . S
C304 C307 1.511 . S
C305 C301 1.376 . S
C305 C304 1.392 . S
C305 H317 0.929 . S
C306 C302 1.531 . S
C306 H318 0.960 . S
C306 H319 0.962 . S
C306 H320 0.960 . S
C307 C304 1.511 . S
C307 H321 0.961 . S
C307 H322 0.961 . S
C307 H323 0.961 . S
C308 C309 1.370 . S
C308 C310 1.363 . S
C308 H324 0.931 . S
C309 C308 1.370 . S
C309 C313 1.408 . S
C310 C308 1.363 . S
C310 C311 1.370 . S
C310 C314 1.524 . S
C311 C303 1.503 . S
C311 C310 1.370 . S
C311 C312 1.403 . S
C312 C311 1.403 . S
C312 C313 1.404 . S
C312 C315 1.539 . S
C313 C309 1.408 . S
C313 C312 1.404 . S
C313 H325 0.930 . S
C314 C310 1.524 . S
C314 H326 0.956 . S
C314 H327 0.961 . S
C314 H328 0.961 . S
C315 C312 1.539 . S
C315 H329 0.958 . S
C315 H330 0.961 . S
C315 H331 0.960 . S
H316 C300 0.931 . S
H317 C305 0.929 . S
H318 C306 0.960 . S
H319 C306 0.962 . S
H320 C306 0.960 . S
H321 C307 0.961 . S
H322 C307 0.961 . S
H323 C307 0.961 . S
H324 C308 0.931 . S
H325 C313 0.930 . S
H326 C314 0.956 . S
H327 C314 0.961 . S
H328 C314 0.961 . S
H329 C315 0.958 . S
H330 C315 0.961 . S
H331 C315 0.960 . S
C332 C333 1.391 . S
C332 C334 1.394 . S
C332 H348 0.931 . S
C333 C332 1.391 . S
C333 C337 1.376 . S
C334 C332 1.394 . S
C334 C335 1.369 . S
C334 C338 1.531 . S
C335 C334 1.369 . S
C335 C336 1.410 . S
C335 C343 1.503 . S
C336 C335 1.410 . S
C336 C337 1.392 . S
C336 C339 1.511 . S
C337 C333 1.376 . S
C337 C336 1.392 . S
C337 H349 0.929 . S
C338 C334 1.531 . S
C338 H350 0.960 . S
C338 H351 0.962 . S
C338 H352 0.960 . S
C339 C336 1.511 . S
C339 H353 0.961 . S
C339 H354 0.961 . S
C339 H355 0.961 . S
C340 C341 1.370 . S
C340 C342 1.363 . S
C340 H356 0.931 . S
C341 C340 1.370 . S
C341 C345 1.408 . S
C342 C340 1.363 . S
C342 C343 1.370 . S
C342 C346 1.524 . S
C343 C335 1.503 . S
C343 C342 1.370 . S
C343 C344 1.403 . S
C344 C343 1.403 . S
C344 C345 1.404 . S
C344 C347 1.539 . S
C345 C341 1.408 . S
C345 C344 1.404 . S
C345 H357 0.930 . S
C346 C342 1.524 . S
C346 H358 0.956 . S
C346 H359 0.961 1_556 S
C346 H360 0.961 1_556 S
C347 C344 1.539 . S
C347 H361 0.958 . S
C347 H362 0.961 . S
C347 H363 0.960 . S
H348 C332 0.931 . S
H349 C337 0.929 . S
H350 C338 0.960 . S
H351 C338 0.962 . S
H352 C338 0.960 . S
H353 C339 0.961 . S
H354 C339 0.961 . S
H355 C339 0.961 . S
H356 C340 0.931 . S
H357 C345 0.930 . S
H358 C346 0.956 . S
H359 C346 0.961 1_554 S
H360 C346 0.961 1_554 S
H361 C347 0.958 . S
H362 C347 0.961 . S
H363 C347 0.960 . S
C364 C365 1.391 . S
C364 C366 1.394 . S
C364 H380 0.931 . S
C365 C364 1.391 . S
C365 C369 1.376 . S
C366 C364 1.394 . S
C366 C367 1.369 . S
C366 C370 1.531 . S
C367 C366 1.369 . S
C367 C368 1.410 . S
C367 C375 1.503 . S
C368 C367 1.410 . S
C368 C369 1.392 . S
C368 C371 1.511 . S
C369 C365 1.376 . S
C369 C368 1.392 . S
C369 H381 0.929 . S
C370 C366 1.531 . S
C370 H382 0.960 . S
C370 H383 0.962 . S
C370 H384 0.960 . S
C371 C368 1.511 . S
C371 H385 0.961 . S
C371 H386 0.961 . S
C371 H387 0.961 . S
C372 C373 1.370 . S
C372 C374 1.363 . S
C372 H388 0.931 . S
C373 C372 1.370 . S
C373 C377 1.408 . S
C374 C372 1.363 . S
C374 C375 1.370 . S
C374 C378 1.524 . S
C375 C367 1.503 . S
C375 C374 1.370 . S
C375 C376 1.403 . S
C376 C375 1.403 . S
C376 C377 1.404 . S
C376 C379 1.539 . S
C377 C373 1.408 . S
C377 C376 1.404 . S
C377 H389 0.930 . S
C378 C374 1.524 . S
C378 H390 0.956 . S
C378 H391 0.961 . S
C378 H392 0.961 . S
C379 C376 1.539 . S
C379 H393 0.958 . S
C379 H394 0.961 . S
C379 H395 0.960 . S
H380 C364 0.931 . S
H381 C369 0.929 . S
H382 C370 0.960 . S
H383 C370 0.962 . S
H384 C370 0.960 . S
H385 C371 0.961 . S
H386 C371 0.961 . S
H387 C371 0.961 . S
H388 C372 0.931 . S
H389 C377 0.930 . S
H390 C378 0.956 . S
H391 C378 0.961 . S
H392 C378 0.961 . S
H393 C379 0.958 . S
H394 C379 0.961 . S
H395 C379 0.960 . S
C396 C397 1.391 . S
C396 C398 1.394 . S
C396 H412 0.931 . S
C397 C396 1.391 . S
C397 C401 1.376 . S
C398 C396 1.394 . S
C398 C399 1.369 . S
C398 C402 1.531 . S
C399 C398 1.369 . S
C399 C400 1.410 . S
C399 C407 1.503 . S
C400 C399 1.410 . S
C400 C401 1.392 . S
C400 C403 1.511 . S
C401 C397 1.376 . S
C401 C400 1.392 . S
C401 H413 0.929 . S
C402 C398 1.531 . S
C402 H414 0.960 . S
C402 H415 0.962 . S
C402 H416 0.960 . S
C403 C400 1.511 . S
C403 H417 0.961 . S
C403 H418 0.961 . S
C403 H419 0.961 . S
C404 C405 1.370 . S
C404 C406 1.363 . S
C404 H420 0.931 . S
C405 C404 1.370 . S
C405 C409 1.408 . S
C406 C404 1.363 . S
C406 C407 1.370 . S
C406 C410 1.524 . S
C407 C399 1.503 . S
C407 C406 1.370 . S
C407 C408 1.403 . S
C408 C407 1.403 . S
C408 C409 1.404 . S
C408 C411 1.539 . S
C409 C405 1.408 . S
C409 C408 1.404 . S
C409 H421 0.930 . S
C410 C406 1.524 . S
C410 H422 0.956 . S
C410 H423 0.961 . S
C410 H424 0.961 . S
C411 C408 1.539 . S
C411 H425 0.958 . S
C411 H426 0.961 . S
C411 H427 0.960 . S
H412 C396 0.931 . S
H413 C401 0.929 . S
H414 C402 0.960 . S
H415 C402 0.962 . S
H416 C402 0.960 . S
H417 C403 0.961 . S
H418 C403 0.961 . S
H419 C403 0.961 . S
H420 C404 0.931 . S
H421 C409 0.930 . S
H422 C410 0.956 . S
H423 C410 0.961 . S
H424 C410 0.961 . S
H425 C411 0.958 . S
H426 C411 0.961 . S
H427 C411 0.960 . S
C428 C429 1.391 . S
C428 C430 1.394 . S
C428 H444 0.931 . S
C429 C428 1.391 . S
C429 C433 1.376 . S
C430 C428 1.394 . S
C430 C431 1.369 . S
C430 C434 1.531 . S
C431 C430 1.369 . S
C431 C432 1.410 . S
C431 C439 1.503 . S
C432 C431 1.410 . S
C432 C433 1.392 . S
C432 C435 1.511 . S
C433 C429 1.376 . S
C433 C432 1.392 . S
C433 H445 0.929 . S
C434 C430 1.531 . S
C434 H446 0.960 . S
C434 H447 0.962 . S
C434 H448 0.960 . S
C435 C432 1.511 . S
C435 H449 0.961 . S
C435 H450 0.961 . S
C435 H451 0.961 . S
C436 C437 1.370 . S
C436 C438 1.363 . S
C436 H452 0.931 . S
C437 C436 1.370 . S
C437 C441 1.408 . S
C438 C436 1.363 . S
C438 C439 1.370 . S
C438 C442 1.524 . S
C439 C431 1.503 . S
C439 C438 1.370 . S
C439 C440 1.403 . S
C440 C439 1.403 . S
C440 C441 1.404 . S
C440 C443 1.539 . S
C441 C437 1.408 . S
C441 C440 1.404 . S
C441 H453 0.930 . S
C442 C438 1.524 . S
C442 H454 0.956 . S
C442 H455 0.961 . S
C442 H456 0.961 . S
C443 C440 1.539 . S
C443 H457 0.958 . S
C443 H458 0.961 . S
C443 H459 0.960 . S
H444 C428 0.931 . S
H445 C433 0.929 . S
H446 C434 0.960 . S
H447 C434 0.962 . S
H448 C434 0.960 . S
H449 C435 0.961 . S
H450 C435 0.961 . S
H451 C435 0.961 . S
H452 C436 0.931 . S
H453 C441 0.930 . S
H454 C442 0.956 . S
H455 C442 0.961 . S
H456 C442 0.961 . S
H457 C443 0.958 . S
H458 C443 0.961 . S
H459 C443 0.960 . S
C460 C461 1.391 . S
C460 C462 1.394 . S
C460 H476 0.931 . S
C461 C460 1.391 . S
C461 C465 1.376 . S
C462 C460 1.394 . S
C462 C463 1.369 . S
C462 C466 1.531 . S
C463 C462 1.369 . S
C463 C464 1.410 . S
C463 C471 1.503 . S
C464 C463 1.410 . S
C464 C465 1.392 . S
C464 C467 1.511 . S
C465 C461 1.376 . S
C465 C464 1.392 . S
C465 H477 0.929 . S
C466 C462 1.531 . S
C466 H478 0.960 . S
C466 H479 0.962 . S
C466 H480 0.960 . S
C467 C464 1.511 . S
C467 H481 0.961 . S
C467 H482 0.961 . S
C467 H483 0.961 . S
C468 C469 1.370 . S
C468 C470 1.363 . S
C468 H484 0.931 . S
C469 C468 1.370 . S
C469 C473 1.408 . S
C470 C468 1.363 . S
C470 C471 1.370 . S
C470 C474 1.524 . S
C471 C463 1.503 . S
C471 C470 1.370 . S
C471 C472 1.403 . S
C472 C471 1.403 . S
C472 C473 1.404 . S
C472 C475 1.539 . S
C473 C469 1.408 . S
C473 C472 1.404 . S
C473 H485 0.930 . S
C474 C470 1.524 . S
C474 H486 0.956 . S
C474 H487 0.961 . S
C474 H488 0.961 . S
C475 C472 1.539 . S
C475 H489 0.958 . S
C475 H490 0.961 . S
C475 H491 0.960 . S
H476 C460 0.931 . S
H477 C465 0.929 . S
H478 C466 0.960 . S
H479 C466 0.962 . S
H480 C466 0.960 . S
H481 C467 0.961 . S
H482 C467 0.961 . S
H483 C467 0.961 . S
H484 C468 0.931 . S
H485 C473 0.930 . S
H486 C474 0.956 . S
H487 C474 0.961 . S
H488 C474 0.961 . S
H489 C475 0.958 . S
H490 C475 0.961 . S
H491 C475 0.960 . S
C492 C493 1.391 . S
C492 C494 1.394 . S
C492 H508 0.931 . S
C493 C492 1.391 . S
C493 C497 1.372 1_554 S
C494 C492 1.394 . S
C494 C495 1.369 . S
C494 C498 1.531 . S
C495 C494 1.369 . S
C495 C496 1.410 . S
C495 C503 1.503 . S
C496 C495 1.410 . S
C496 C497 1.390 1_554 S
C496 C499 1.511 1_554 S
C497 C493 1.372 1_556 S
C497 C496 1.390 1_556 S
C497 H509 0.934 . S
C498 C494 1.531 . S
C498 H510 0.960 . S
C498 H511 0.962 . S
C498 H512 0.960 . S
C499 C496 1.511 1_556 S
C499 H513 0.961 . S
C499 H514 0.961 . S
C499 H515 0.968 . S
C500 C501 1.370 . S
C500 C502 1.363 . S
C500 H516 0.931 . S
C501 C500 1.370 . S
C501 C505 1.408 . S
C502 C500 1.363 . S
C502 C503 1.370 . S
C502 C506 1.524 . S
C503 C495 1.503 . S
C503 C502 1.370 . S
C503 C504 1.403 . S
C504 C503 1.403 . S
C504 C505 1.404 . S
C504 C507 1.539 . S
C505 C501 1.408 . S
C505 C504 1.404 . S
C505 H517 0.930 . S
C506 C502 1.524 . S
C506 H518 0.956 . S
C506 H519 0.961 1_554 S
C506 H520 0.948 1_554 S
C507 C504 1.539 . S
C507 H521 0.958 . S
C507 H522 0.961 . S
C507 H523 0.960 . S
H508 C492 0.931 . S
H509 C497 0.934 . S
H510 C498 0.960 . S
H511 C498 0.962 . S
H512 C498 0.960 . S
H513 C499 0.961 . S
H514 C499 0.961 . S
H515 C499 0.968 . S
H516 C500 0.931 . S
H517 C505 0.930 . S
H518 C506 0.956 . S
H519 C506 0.961 1_556 S
H520 C506 0.948 1_556 S
H521 C507 0.958 . S
H522 C507 0.961 . S
H523 C507 0.960 . S
C524 C525 1.391 . S
C524 C526 1.394 . S
C524 H540 0.931 . S
C525 C524 1.391 . S
C525 C529 1.376 . S
C526 C524 1.394 . S
C526 C527 1.369 . S
C526 C530 1.531 . S
C527 C526 1.369 . S
C527 C528 1.410 . S
C527 C535 1.503 . S
C528 C527 1.410 . S
C528 C529 1.392 . S
C528 C531 1.511 . S
C529 C525 1.376 . S
C529 C528 1.392 . S
C529 H541 0.929 . S
C530 C526 1.531 . S
C530 H542 0.960 . S
C530 H543 0.962 . S
C530 H544 0.960 . S
C531 C528 1.511 . S
C531 H545 0.961 . S
C531 H546 0.961 . S
C531 H547 0.961 . S
C532 C533 1.370 . S
C532 C534 1.363 . S
C532 H548 0.931 . S
C533 C532 1.370 . S
C533 C537 1.408 . S
C534 C532 1.363 . S
C534 C535 1.370 . S
C534 C538 1.524 . S
C535 C527 1.503 . S
C535 C534 1.370 . S
C535 C536 1.403 . S
C536 C535 1.403 . S
C536 C537 1.404 . S
C536 C539 1.539 . S
C537 C533 1.408 . S
C537 C536 1.404 . S
C537 H549 0.930 . S
C538 C534 1.524 . S
C538 H550 0.956 . S
C538 H551 0.961 . S
C538 H552 0.961 . S
C539 C536 1.539 . S
C539 H553 0.958 . S
C539 H554 0.961 . S
C539 H555 0.960 . S
H540 C524 0.931 . S
H541 C529 0.929 . S
H542 C530 0.960 . S
H543 C530 0.962 . S
H544 C530 0.960 . S
H545 C531 0.961 . S
H546 C531 0.961 . S
H547 C531 0.961 . S
H548 C532 0.931 . S
H549 C537 0.930 . S
H550 C538 0.956 . S
H551 C538 0.961 . S
H552 C538 0.961 . S
H553 C539 0.958 . S
H554 C539 0.961 . S
H555 C539 0.960 . S
C556 C557 1.391 . S
C556 C558 1.394 . S
C556 H572 0.931 . S
C557 C556 1.391 . S
C557 C561 1.376 . S
C558 C556 1.394 . S
C558 C559 1.369 . S
C558 C562 1.531 . S
C559 C558 1.369 . S
C559 C560 1.410 . S
C559 C567 1.503 . S
C560 C559 1.410 . S
C560 C561 1.392 . S
C560 C563 1.511 . S
C561 C557 1.376 . S
C561 C560 1.392 . S
C561 H573 0.929 . S
C562 C558 1.531 . S
C562 H574 0.960 . S
C562 H575 0.962 . S
C562 H576 0.960 . S
C563 C560 1.511 . S
C563 H577 0.961 . S
C563 H578 0.961 . S
C563 H579 0.961 . S
C564 C565 1.370 . S
C564 C566 1.363 . S
C564 H580 0.931 . S
C565 C564 1.370 . S
C565 C569 1.408 . S
C566 C564 1.363 . S
C566 C567 1.370 . S
C566 C570 1.524 . S
C567 C559 1.503 . S
C567 C566 1.370 . S
C567 C568 1.403 . S
C568 C567 1.403 . S
C568 C569 1.404 . S
C568 C571 1.539 . S
C569 C565 1.408 . S
C569 C568 1.404 . S
C569 H581 0.930 . S
C570 C566 1.524 . S
C570 H582 0.956 . S
C570 H583 0.961 . S
C570 H584 0.961 . S
C571 C568 1.539 . S
C571 H585 0.958 . S
C571 H586 0.961 . S
C571 H587 0.960 . S
H572 C556 0.931 . S
H573 C561 0.929 . S
H574 C562 0.960 . S
H575 C562 0.962 . S
H576 C562 0.960 . S
H577 C563 0.961 . S
H578 C563 0.961 . S
H579 C563 0.961 . S
H580 C564 0.931 . S
H581 C569 0.930 . S
H582 C570 0.956 . S
H583 C570 0.961 . S
H584 C570 0.961 . S
H585 C571 0.958 . S
H586 C571 0.961 . S
H587 C571 0.960 . S
C588 C589 1.391 . S
C588 C590 1.394 . S
C588 H604 0.931 . S
C589 C588 1.391 . S
C589 C593 1.376 . S
C590 C588 1.394 . S
C590 C591 1.369 . S
C590 C594 1.531 . S
C591 C590 1.369 . S
C591 C592 1.410 . S
C591 C599 1.503 . S
C592 C591 1.410 . S
C592 C593 1.392 . S
C592 C595 1.511 . S
C593 C589 1.376 . S
C593 C592 1.392 . S
C593 H605 0.929 . S
C594 C590 1.531 . S
C594 H606 0.960 . S
C594 H607 0.962 . S
C594 H608 0.960 . S
C595 C592 1.511 . S
C595 H609 0.961 . S
C595 H610 0.961 . S
C595 H611 0.961 . S
C596 C597 1.370 . S
C596 C598 1.363 . S
C596 H612 0.931 . S
C597 C596 1.370 . S
C597 C601 1.408 . S
C598 C596 1.363 . S
C598 C599 1.370 . S
C598 C602 1.524 . S
C599 C591 1.503 . S
C599 C598 1.370 . S
C599 C600 1.403 . S
C600 C599 1.403 . S
C600 C601 1.404 . S
C600 C603 1.539 . S
C601 C597 1.408 . S
C601 C600 1.404 . S
C601 H613 0.930 . S
C602 C598 1.524 . S
C602 H614 0.956 . S
C602 H615 0.961 . S
C602 H616 0.961 . S
C603 C600 1.539 . S
C603 H617 0.958 . S
C603 H618 0.961 . S
C603 H619 0.960 . S
H604 C588 0.931 . S
H605 C593 0.929 . S
H606 C594 0.960 . S
H607 C594 0.962 . S
H608 C594 0.960 . S
H609 C595 0.961 . S
H610 C595 0.961 . S
H611 C595 0.961 . S
H612 C596 0.931 . S
H613 C601 0.930 . S
H614 C602 0.956 . S
H615 C602 0.961 . S
H616 C602 0.961 . S
H617 C603 0.958 . S
H618 C603 0.961 . S
H619 C603 0.960 . S
C620 C621 1.391 . S
C620 C622 1.394 . S
C620 H636 0.931 . S
C621 C620 1.391 . S
C621 C625 1.376 . S
C622 C620 1.394 . S
C622 C623 1.369 . S
C622 C626 1.531 . S
C623 C622 1.369 . S
C623 C624 1.410 . S
C623 C631 1.503 . S
C624 C623 1.410 . S
C624 C625 1.392 . S
C624 C627 1.511 . S
C625 C621 1.376 . S
C625 C624 1.392 . S
C625 H637 0.929 . S
C626 C622 1.531 . S
C626 H638 0.960 . S
C626 H639 0.962 . S
C626 H640 0.960 . S
C627 C624 1.511 . S
C627 H641 0.961 . S
C627 H642 0.961 . S
C627 H643 0.961 . S
C628 C629 1.370 . S
C628 C630 1.363 . S
C628 H644 0.931 . S
C629 C628 1.370 . S
C629 C633 1.408 . S
C630 C628 1.363 . S
C630 C631 1.370 . S
C630 C634 1.524 . S
C631 C623 1.503 . S
C631 C630 1.370 . S
C631 C632 1.403 . S
C632 C631 1.403 . S
C632 C633 1.404 . S
C632 C635 1.539 . S
C633 C629 1.408 . S
C633 C632 1.404 . S
C633 H645 0.930 . S
C634 C630 1.524 . S
C634 H646 0.956 . S
C634 H647 0.961 . S
C634 H648 0.961 . S
C635 C632 1.539 . S
C635 H649 0.958 . S
C635 H650 0.961 . S
C635 H651 0.960 . S
H636 C620 0.931 . S
H637 C625 0.929 . S
H638 C626 0.960 . S
H639 C626 0.962 . S
H640 C626 0.960 . S
H641 C627 0.961 . S
H642 C627 0.961 . S
H643 C627 0.961 . S
H644 C628 0.931 . S
H645 C633 0.930 . S
H646 C634 0.956 . S
H647 C634 0.961 . S
H648 C634 0.961 . S
H649 C635 0.958 . S
H650 C635 0.961 . S
H651 C635 0.960 . S
C652 C653 1.391 . S
C652 C654 1.394 . S
C652 H668 0.931 . S
C653 C652 1.391 . S
C653 C657 1.376 . S
C654 C652 1.394 . S
C654 C655 1.369 . S
C654 C658 1.531 . S
C655 C654 1.369 . S
C655 C656 1.410 . S
C655 C663 1.503 . S
C656 C655 1.410 . S
C656 C657 1.392 . S
C656 C659 1.511 . S
C657 C653 1.376 . S
C657 C656 1.392 . S
C657 H669 0.929 . S
C658 C654 1.531 . S
C658 H670 0.960 . S
C658 H671 0.962 . S
C658 H672 0.960 . S
C659 C656 1.511 . S
C659 H673 0.961 . S
C659 H674 0.961 . S
C659 H675 0.961 . S
C660 C661 1.370 . S
C660 C662 1.363 . S
C660 H676 0.931 . S
C661 C660 1.370 . S
C661 C665 1.408 . S
C662 C660 1.363 . S
C662 C663 1.370 . S
C662 C666 1.524 . S
C663 C655 1.503 . S
C663 C662 1.370 . S
C663 C664 1.403 . S
C664 C663 1.403 . S
C664 C665 1.404 . S
C664 C667 1.539 . S
C665 C661 1.408 . S
C665 C664 1.404 . S
C665 H677 0.930 . S
C666 C662 1.524 . S
C666 H678 0.956 . S
C666 H679 0.961 . S
C666 H680 0.961 . S
C667 C664 1.539 . S
C667 H681 0.958 . S
C667 H682 0.961 . S
C667 H683 0.960 . S
H668 C652 0.931 . S
H669 C657 0.929 . S
H670 C658 0.960 . S
H671 C658 0.962 . S
H672 C658 0.960 . S
H673 C659 0.961 . S
H674 C659 0.961 . S
H675 C659 0.961 . S
H676 C660 0.931 . S
H677 C665 0.930 . S
H678 C666 0.956 . S
H679 C666 0.961 . S
H680 C666 0.961 . S
H681 C667 0.958 . S
H682 C667 0.961 . S
H683 C667 0.960 . S
C684 C685 1.391 . S
C684 C686 1.394 . S
C684 H700 0.931 . S
C685 C684 1.391 . S
C685 C689 1.376 . S
C686 C684 1.394 . S
C686 C687 1.369 . S
C686 C690 1.531 . S
C687 C686 1.369 . S
C687 C688 1.410 . S
C687 C695 1.503 . S
C688 C687 1.410 . S
C688 C689 1.392 . S
C688 C691 1.511 . S
C689 C685 1.376 . S
C689 C688 1.392 . S
C689 H701 0.929 . S
C690 C686 1.531 . S
C690 H702 0.960 . S
C690 H703 0.962 . S
C690 H704 0.960 . S
C691 C688 1.511 . S
C691 H705 0.961 . S
C691 H706 0.961 . S
C691 H707 0.961 . S
C692 C693 1.370 . S
C692 C694 1.363 1_554 S
C692 H708 0.931 . S
C693 C692 1.370 . S
C693 C697 1.408 1_554 S
C694 C692 1.363 1_556 S
C694 C695 1.370 . S
C694 C698 1.524 . S
C695 C687 1.503 . S
C695 C694 1.370 . S
C695 C696 1.403 . S
C696 C695 1.403 . S
C696 C697 1.404 . S
C696 C699 1.539 . S
C697 C693 1.408 1_556 S
C697 C696 1.404 . S
C697 H709 0.930 . S
C698 C694 1.524 . S
C698 H710 0.956 . S
C698 H711 0.961 . S
C698 H712 0.961 1_556 S
C699 C696 1.539 . S
C699 H713 0.958 . S
C699 H714 0.961 . S
C699 H715 0.960 . S
H700 C684 0.931 . S
H701 C689 0.929 . S
H702 C690 0.960 . S
H703 C690 0.962 . S
H704 C690 0.960 . S
H705 C691 0.961 . S
H706 C691 0.961 . S
H707 C691 0.961 . S
H708 C692 0.931 . S
H709 C697 0.930 . S
H710 C698 0.956 . S
H711 C698 0.961 . S
H712 C698 0.961 1_554 S
H713 C699 0.958 . S
H714 C699 0.961 . S
H715 C699 0.960 . S
C716 C717 1.391 . S
C716 C718 1.394 . S
C716 H732 0.931 . S
C717 C716 1.391 . S
C717 C721 1.376 . S
C718 C716 1.394 . S
C718 C719 1.369 . S
C718 C722 1.531 . S
C719 C718 1.369 . S
C719 C720 1.410 . S
C719 C727 1.503 . S
C720 C719 1.410 . S
C720 C721 1.392 . S
C720 C723 1.511 . S
C721 C717 1.376 . S
C721 C720 1.392 . S
C721 H733 0.929 . S
C722 C718 1.531 . S
C722 H734 0.960 . S
C722 H735 0.962 . S
C722 H736 0.960 . S
C723 C720 1.511 . S
C723 H737 0.961 . S
C723 H738 0.961 . S
C723 H739 0.961 . S
C724 C725 1.370 . S
C724 C726 1.363 . S
C724 H740 0.931 . S
C725 C724 1.370 . S
C725 C729 1.408 . S
C726 C724 1.363 . S
C726 C727 1.370 . S
C726 C730 1.524 . S
C727 C719 1.503 . S
C727 C726 1.370 . S
C727 C728 1.403 . S
C728 C727 1.403 . S
C728 C729 1.404 . S
C728 C731 1.539 . S
C729 C725 1.408 . S
C729 C728 1.404 . S
C729 H741 0.930 . S
C730 C726 1.524 . S
C730 H742 0.956 . S
C730 H743 0.961 . S
C730 H744 0.961 . S
C731 C728 1.539 . S
C731 H745 0.958 . S
C731 H746 0.961 . S
C731 H747 0.960 . S
H732 C716 0.931 . S
H733 C721 0.929 . S
H734 C722 0.960 . S
H735 C722 0.962 . S
H736 C722 0.960 . S
H737 C723 0.961 . S
H738 C723 0.961 . S
H739 C723 0.961 . S
H740 C724 0.931 . S
H741 C729 0.930 . S
H742 C730 0.956 . S
H743 C730 0.961 . S
H744 C730 0.961 . S
H745 C731 0.958 . S
H746 C731 0.961 . S
H747 C731 0.960 . S
C748 C749 1.391 . S
C748 C750 1.394 . S
C748 H764 0.931 . S
C749 C748 1.391 . S
C749 C753 1.376 . S
C750 C748 1.394 . S
C750 C751 1.369 . S
C750 C754 1.531 . S
C751 C750 1.369 . S
C751 C752 1.410 . S
C751 C759 1.503 . S
C752 C751 1.410 . S
C752 C753 1.392 . S
C752 C755 1.511 . S
C753 C749 1.376 . S
C753 C752 1.392 . S
C753 H765 0.929 . S
C754 C750 1.531 . S
C754 H766 0.960 . S
C754 H767 0.962 . S
C754 H768 0.960 . S
C755 C752 1.511 . S
C755 H769 0.961 . S
C755 H770 0.961 . S
C755 H771 0.961 . S
C756 C757 1.370 . S
C756 C758 1.363 . S
C756 H772 0.931 . S
C757 C756 1.370 . S
C757 C761 1.408 . S
C758 C756 1.363 . S
C758 C759 1.370 . S
C758 C762 1.524 . S
C759 C751 1.503 . S
C759 C758 1.370 . S
C759 C760 1.403 . S
C760 C759 1.403 . S
C760 C761 1.404 . S
C760 C763 1.539 . S
C761 C757 1.408 . S
C761 C760 1.404 . S
C761 H773 0.930 . S
C762 C758 1.524 . S
C762 H774 0.956 . S
C762 H775 0.961 . S
C762 H776 0.961 . S
C763 C760 1.539 . S
C763 H777 0.958 . S
C763 H778 0.961 . S
C763 H779 0.960 . S
H764 C748 0.931 . S
H765 C753 0.929 . S
H766 C754 0.960 . S
H767 C754 0.962 . S
H768 C754 0.960 . S
H769 C755 0.961 . S
H770 C755 0.961 . S
H771 C755 0.961 . S
H772 C756 0.931 . S
H773 C761 0.930 . S
H774 C762 0.956 . S
H775 C762 0.961 . S
H776 C762 0.961 . S
H777 C763 0.958 . S
H778 C763 0.961 . S
H779 C763 0.960 . S
C780 C781 1.391 . S
C780 C782 1.394 . S
C780 H796 0.931 . S
C781 C780 1.391 . S
C781 C785 1.376 . S
C782 C780 1.394 . S
C782 C783 1.369 . S
C782 C786 1.531 . S
C783 C782 1.369 . S
C783 C784 1.410 . S
C783 C791 1.503 . S
C784 C783 1.410 . S
C784 C785 1.392 . S
C784 C787 1.511 . S
C785 C781 1.376 . S
C785 C784 1.392 . S
C785 H797 0.929 . S
C786 C782 1.531 . S
C786 H798 0.960 . S
C786 H799 0.962 . S
C786 H800 0.960 . S
C787 C784 1.511 . S
C787 H801 0.961 . S
C787 H802 0.961 . S
C787 H803 0.961 . S
C788 C789 1.370 . S
C788 C790 1.363 . S
C788 H804 0.931 . S
C789 C788 1.370 . S
C789 C793 1.408 . S
C790 C788 1.363 . S
C790 C791 1.370 . S
C790 C794 1.524 . S
C791 C783 1.503 . S
C791 C790 1.370 . S
C791 C792 1.403 . S
C792 C791 1.403 . S
C792 C793 1.404 . S
C792 C795 1.539 . S
C793 C789 1.408 . S
C793 C792 1.404 . S
C793 H805 0.930 . S
C794 C790 1.524 . S
C794 H806 0.956 . S
C794 H807 0.961 . S
C794 H808 0.961 . S
C795 C792 1.539 . S
C795 H809 0.958 . S
C795 H810 0.961 . S
C795 H811 0.960 . S
H796 C780 0.931 . S
H797 C785 0.929 . S
H798 C786 0.960 . S
H799 C786 0.962 . S
H800 C786 0.960 . S
H801 C787 0.961 . S
H802 C787 0.961 . S
H803 C787 0.961 . S
H804 C788 0.931 . S
H805 C793 0.930 . S
H806 C794 0.956 . S
H807 C794 0.961 . S
H808 C794 0.961 . S
H809 C795 0.958 . S
H810 C795 0.961 . S
H811 C795 0.960 . S
C812 C813 1.391 . S
C812 C814 1.394 . S
C812 H828 0.931 . S
C813 C812 1.391 . S
C813 C817 1.376 . S
C814 C812 1.394 . S
C814 C815 1.369 . S
C814 C818 1.531 . S
C815 C814 1.369 . S
C815 C816 1.410 . S
C815 C823 1.503 . S
C816 C815 1.410 . S
C816 C817 1.392 . S
C816 C819 1.511 . S
C817 C813 1.376 . S
C817 C816 1.392 . S
C817 H829 0.929 . S
C818 C814 1.531 . S
C818 H830 0.960 . S
C818 H831 0.962 . S
C818 H832 0.960 . S
C819 C816 1.511 . S
C819 H833 0.961 . S
C819 H834 0.961 . S
C819 H835 0.961 . S
C820 C821 1.370 . S
C820 C822 1.363 . S
C820 H836 0.931 . S
C821 C820 1.370 . S
C821 C825 1.408 . S
C822 C820 1.363 . S
C822 C823 1.370 . S
C822 C826 1.524 . S
C823 C815 1.503 . S
C823 C822 1.370 . S
C823 C824 1.403 . S
C824 C823 1.403 . S
C824 C825 1.404 . S
C824 C827 1.539 . S
C825 C821 1.408 . S
C825 C824 1.404 . S
C825 H837 0.930 . S
C826 C822 1.524 . S
C826 H838 0.956 . S
C826 H839 0.961 . S
C826 H840 0.961 . S
C827 C824 1.539 . S
C827 H841 0.958 . S
C827 H842 0.961 . S
C827 H843 0.960 . S
H828 C812 0.931 . S
H829 C817 0.929 . S
H830 C818 0.960 . S
H831 C818 0.962 . S
H832 C818 0.960 . S
H833 C819 0.961 . S
H834 C819 0.961 . S
H835 C819 0.961 . S
H836 C820 0.931 . S
H837 C825 0.930 . S
H838 C826 0.956 . S
H839 C826 0.961 . S
H840 C826 0.961 . S
H841 C827 0.958 . S
H842 C827 0.961 . S
H843 C827 0.960 . S
C844 C845 1.391 . S
C844 C846 1.394 . S
C844 H860 0.931 . S
C845 C844 1.391 . S
C845 C849 1.376 . S
C846 C844 1.394 . S
C846 C847 1.369 . S
C846 C850 1.531 . S
C847 C846 1.369 . S
C847 C848 1.410 . S
C847 C855 1.503 . S
C848 C847 1.410 . S
C848 C849 1.392 . S
C848 C851 1.511 . S
C849 C845 1.376 . S
C849 C848 1.392 . S
C849 H861 0.929 . S
C850 C846 1.531 . S
C850 H862 0.960 . S
C850 H863 0.962 . S
C850 H864 0.960 . S
C851 C848 1.511 . S
C851 H865 0.961 . S
C851 H866 0.961 . S
C851 H867 0.961 . S
C852 C853 1.370 . S
C852 C854 1.363 . S
C852 H868 0.931 . S
C853 C852 1.370 . S
C853 C857 1.408 . S
C854 C852 1.363 . S
C854 C855 1.370 . S
C854 C858 1.524 . S
C855 C847 1.503 . S
C855 C854 1.370 . S
C855 C856 1.403 . S
C856 C855 1.403 . S
C856 C857 1.404 . S
C856 C859 1.539 . S
C857 C853 1.408 . S
C857 C856 1.404 . S
C857 H869 0.930 . S
C858 C854 1.524 . S
C858 H870 0.956 . S
C858 H871 0.961 . S
C858 H872 0.961 . S
C859 C856 1.539 . S
C859 H873 0.958 . S
C859 H874 0.961 . S
C859 H875 0.960 . S
H860 C844 0.931 . S
H861 C849 0.929 . S
H862 C850 0.960 . S
H863 C850 0.962 . S
H864 C850 0.960 . S
H865 C851 0.961 . S
H866 C851 0.961 . S
H867 C851 0.961 . S
H868 C852 0.931 . S
H869 C857 0.930 . S
H870 C858 0.956 . S
H871 C858 0.961 . S
H872 C858 0.961 . S
H873 C859 0.958 . S
H874 C859 0.961 . S
H875 C859 0.960 . S
C876 C877 1.391 . S
C876 C878 1.394 . S
C876 H892 0.931 . S
C877 C876 1.391 . S
C877 C881 1.376 . S
C878 C876 1.394 . S
C878 C879 1.369 . S
C878 C882 1.531 . S
C879 C878 1.369 . S
C879 C880 1.410 . S
C879 C887 1.503 . S
C880 C879 1.410 . S
C880 C881 1.392 . S
C880 C883 1.511 . S
C881 C877 1.376 . S
C881 C880 1.392 . S
C881 H893 0.929 . S
C882 C878 1.531 . S
C882 H894 0.960 . S
C882 H895 0.962 . S
C882 H896 0.960 . S
C883 C880 1.511 . S
C883 H897 0.961 . S
C883 H898 0.961 . S
C883 H899 0.961 . S
C884 C885 1.370 . S
C884 C886 1.363 . S
C884 H900 0.931 . S
C885 C884 1.370 . S
C885 C889 1.408 . S
C886 C884 1.363 . S
C886 C887 1.370 . S
C886 C890 1.524 . S
C887 C879 1.503 . S
C887 C886 1.370 . S
C887 C888 1.403 . S
C888 C887 1.403 . S
C888 C889 1.404 . S
C888 C891 1.539 . S
C889 C885 1.408 . S
C889 C888 1.404 . S
C889 H901 0.930 . S
C890 C886 1.524 . S
C890 H902 0.956 . S
C890 H903 0.961 . S
C890 H904 0.961 . S
C891 C888 1.539 . S
C891 H905 0.958 . S
C891 H906 0.961 . S
C891 H907 0.960 . S
H892 C876 0.931 . S
H893 C881 0.929 . S
H894 C882 0.960 . S
H895 C882 0.962 . S
H896 C882 0.960 . S
H897 C883 0.961 . S
H898 C883 0.961 . S
H899 C883 0.961 . S
H900 C884 0.931 . S
H901 C889 0.930 . S
H902 C890 0.956 . S
H903 C890 0.961 . S
H904 C890 0.961 . S
H905 C891 0.958 . S
H906 C891 0.961 . S
H907 C891 0.960 . S
C908 C909 1.391 . S
C908 C910 1.394 . S
C908 H924 0.931 . S
C909 C908 1.391 . S
C909 C913 1.376 . S
C910 C908 1.394 . S
C910 C911 1.369 . S
C910 C914 1.531 . S
C911 C910 1.369 . S
C911 C912 1.410 . S
C911 C919 1.503 . S
C912 C911 1.410 . S
C912 C913 1.392 . S
C912 C915 1.511 . S
C913 C909 1.376 . S
C913 C912 1.392 . S
C913 H925 0.929 . S
C914 C910 1.531 . S
C914 H926 0.960 . S
C914 H927 0.962 . S
C914 H928 0.960 . S
C915 C912 1.511 . S
C915 H929 0.961 . S
C915 H930 0.961 . S
C915 H931 0.961 . S
C916 C917 1.370 1_554 S
C916 C918 1.363 . S
C916 H932 0.931 . S
C917 C916 1.370 1_556 S
C917 C921 1.408 . S
C918 C916 1.363 . S
C918 C919 1.370 . S
C918 C922 1.524 . S
C919 C911 1.503 . S
C919 C918 1.370 . S
C919 C920 1.403 1_554 S
C920 C919 1.403 1_556 S
C920 C921 1.404 . S
C920 C923 1.539 . S
C921 C917 1.408 . S
C921 C920 1.404 . S
C921 H933 0.930 . S
C922 C918 1.524 . S
C922 H934 0.956 . S
C922 H935 0.961 . S
C922 H936 0.961 . S
C923 C920 1.539 . S
C923 H937 0.958 . S
C923 H938 0.961 . S
C923 H939 0.947 1_556 S
H924 C908 0.931 . S
H925 C913 0.929 . S
H926 C914 0.960 . S
H927 C914 0.962 . S
H928 C914 0.960 . S
H929 C915 0.961 . S
H930 C915 0.961 . S
H931 C915 0.961 . S
H932 C916 0.931 . S
H933 C921 0.930 . S
H934 C922 0.956 . S
H935 C922 0.961 . S
H936 C922 0.961 . S
H937 C923 0.958 . S
H938 C923 0.961 . S
H939 C923 0.947 1_554 S
C940 C941 1.391 . S
C940 C942 1.394 . S
C940 H956 0.931 . S
C941 C940 1.391 . S
C941 C945 1.376 . S
C942 C940 1.394 . S
C942 C943 1.369 . S
C942 C946 1.531 . S
C943 C942 1.369 . S
C943 C944 1.410 . S
C943 C951 1.503 . S
C944 C943 1.410 . S
C944 C945 1.392 . S
C944 C947 1.511 . S
C945 C941 1.376 . S
C945 C944 1.392 . S
C945 H957 0.929 . S
C946 C942 1.531 . S
C946 H958 0.960 . S
C946 H959 0.962 . S
C946 H960 0.960 . S
C947 C944 1.511 . S
C947 H961 0.961 . S
C947 H962 0.961 . S
C947 H963 0.961 . S
C948 C949 1.370 . S
C948 C950 1.363 . S
C948 H964 0.931 . S
C949 C948 1.370 . S
C949 C953 1.408 . S
C950 C948 1.363 . S
C950 C951 1.370 . S
C950 C954 1.524 . S
C951 C943 1.503 . S
C951 C950 1.370 . S
C951 C952 1.403 . S
C952 C951 1.403 . S
C952 C953 1.404 . S
C952 C955 1.539 . S
C953 C949 1.408 . S
C953 C952 1.404 . S
C953 H965 0.930 . S
C954 C950 1.524 . S
C954 H966 0.956 . S
C954 H967 0.961 . S
C954 H968 0.961 . S
C955 C952 1.539 . S
C955 H969 0.958 . S
C955 H970 0.961 . S
C955 H971 0.960 . S
H956 C940 0.931 . S
H957 C945 0.929 . S
H958 C946 0.960 . S
H959 C946 0.962 . S
H960 C946 0.960 . S
H961 C947 0.961 . S
H962 C947 0.961 . S
H963 C947 0.961 . S
H964 C948 0.931 . S
H965 C953 0.930 . S
H966 C954 0.956 . S
H967 C954 0.961 . S
H968 C954 0.961 . S
H969 C955 0.958 . S
H970 C955 0.961 . S
H971 C955 0.960 . S
C213 C196 1.606 . S
C205 C19 1.555 . S
C237 C40 1.515 . S
C245 C131 1.613 . S
C269 C51 1.524 . S
C277 C149 1.619 . S
C301 C72 1.483 . S
C309 C162 1.599 . S
C341 C170 1.610 . S
C333 C103 1.558 . S
C365 C114 1.546 . S
C373 C182 1.612 . S
C397 C30 1.559 . S
C405 C144 1.622 . S
C429 C61 1.505 . S
C437 C157 1.609 . S
C461 C82 1.532 . S
C469 C175 1.606 . S
C501 C181 1.614 . S
C493 C93 1.533 1_554 S
C533 C201 1.596 . S
C525 C124 1.496 . S
C565 C136 1.607 . S
C557 C9 1.491 . S
C589 C17 1.516 . S
C597 C142 1.600 . S
C621 C38 1.490 . S
C629 C155 1.601 . S
C661 C169 1.594 . S
C653 C54 1.480 . S
C685 C75 1.511 . S
C693 C183 1.606 . S
C725 C195 1.591 . S
C717 C101 1.481 . S
C757 C130 1.594 . S
C749 C117 1.479 . S
C789 C194 1.597 . S
C781 C33 1.537 . S
C813 C59 1.539 . S
C821 C129 1.597 . S
C853 C143 1.599 . S
C845 C80 1.494 . S
C877 C96 1.477 . S
C885 C156 1.590 . S
C909 C122 1.534 . S
C917 C168 1.599 . S
C941 C12 1.490 . S
C949 C188 1.599 . S
