# Generated by pormake.
# Topology pyr, (3,6)-cn, num edge types: 1
# Building blocks:
#     Node 0, Type 0, BuildingBlock: VETTIZ_charged_linker_0, # of connection points: 3
#     Node 1, Type 0, BuildingBlock: VETTIZ_charged_linker_0, # of connection points: 3
#     Node 2, Type 0, BuildingBlock: VETTIZ_charged_linker_0, # of connection points: 3
#     Node 3, Type 0, BuildingBlock: VETTIZ_charged_linker_0, # of connection points: 3
#     Node 4, Type 0, BuildingBlock: VETTIZ_charged_linker_0, # of connection points: 3
#     Node 5, Type 0, BuildingBlock: VETTIZ_charged_linker_0, # of connection points: 3
#     Node 6, Type 0, BuildingBlock: VETTIZ_charged_linker_0, # of connection points: 3
#     Node 7, Type 0, BuildingBlock: VETTIZ_charged_linker_0, # of connection points: 3
#     Node 8, Type 1, BuildingBlock: MIDCAF_clean_sbu_0, # of connection points: 6
#     Node 9, Type 1, BuildingBlock: MIDCAF_clean_sbu_0, # of connection points: 6
#     Node 10, Type 1, BuildingBlock: MIDCAF_clean_sbu_0, # of connection points: 6
#     Node 11, Type 1, BuildingBlock: MIDCAF_clean_sbu_0, # of connection points: 6
#     Edge 12, Type (0, 1), BuildingBlock: MIFKUJ_clean_linker_0, # of connection points: 2
#     Edge 13, Type (0, 1), BuildingBlock: MIFKUJ_clean_linker_0, # of connection points: 2
#     Edge 14, Type (0, 1), BuildingBlock: MIFKUJ_clean_linker_0, # of connection points: 2
#     Edge 15, Type (0, 1), BuildingBlock: MIFKUJ_clean_linker_0, # of connection points: 2
#     Edge 16, Type (0, 1), BuildingBlock: MIFKUJ_clean_linker_0, # of connection points: 2
#     Edge 17, Type (0, 1), BuildingBlock: MIFKUJ_clean_linker_0, # of connection points: 2
#     Edge 18, Type (0, 1), BuildingBlock: MIFKUJ_clean_linker_0, # of connection points: 2
#     Edge 19, Type (0, 1), BuildingBlock: MIFKUJ_clean_linker_0, # of connection points: 2
#     Edge 20, Type (0, 1), BuildingBlock: MIFKUJ_clean_linker_0, # of connection points: 2
#     Edge 21, Type (0, 1), BuildingBlock: MIFKUJ_clean_linker_0, # of connection points: 2
#     Edge 22, Type (0, 1), BuildingBlock: MIFKUJ_clean_linker_0, # of connection points: 2
#     Edge 23, Type (0, 1), BuildingBlock: MIFKUJ_clean_linker_0, # of connection points: 2
#     Edge 24, Type (0, 1), BuildingBlock: MIFKUJ_clean_linker_0, # of connection points: 2
#     Edge 25, Type (0, 1), BuildingBlock: MIFKUJ_clean_linker_0, # of connection points: 2
#     Edge 26, Type (0, 1), BuildingBlock: MIFKUJ_clean_linker_0, # of connection points: 2
#     Edge 27, Type (0, 1), BuildingBlock: MIFKUJ_clean_linker_0, # of connection points: 2
#     Edge 28, Type (0, 1), BuildingBlock: MIFKUJ_clean_linker_0, # of connection points: 2
#     Edge 29, Type (0, 1), BuildingBlock: MIFKUJ_clean_linker_0, # of connection points: 2
#     Edge 30, Type (0, 1), BuildingBlock: MIFKUJ_clean_linker_0, # of connection points: 2
#     Edge 31, Type (0, 1), BuildingBlock: MIFKUJ_clean_linker_0, # of connection points: 2
#     Edge 32, Type (0, 1), BuildingBlock: MIFKUJ_clean_linker_0, # of connection points: 2
#     Edge 33, Type (0, 1), BuildingBlock: MIFKUJ_clean_linker_0, # of connection points: 2
#     Edge 34, Type (0, 1), BuildingBlock: MIFKUJ_clean_linker_0, # of connection points: 2
#     Edge 35, Type (0, 1), BuildingBlock: MIFKUJ_clean_linker_0, # of connection points: 2
# Relax obj value: 0.019
# Max RMSD: 0.063
# Mean RMSD: 0.021
data_MOF--net-pry--node1-MIDCAF_clean_sbu_0--node2-VETTIZ_charged_linker_0--edge1-MIFKUJ_clean_linker_0
_symmetry_space_group_name_H-M    P1
_symmetry_Int_Tables_number       1
_symmetry_cell_setting            triclinic
loop_
_symmetry_equiv_pos_as_xyz
'x, y, z'
_cell_length_a     54.32524
_cell_length_b     54.374981
_cell_length_c     54.379482
_cell_angle_alpha  89.946257
_cell_angle_beta   90.001654
_cell_angle_gamma 90.093028
loop_
_atom_site_label
_atom_site_type_symbol
_atom_site_fract_x
_atom_site_fract_y
_atom_site_fract_z
_atom_type_partial_charge
C0 C 0.18196 0.18142 0.28936 0.0
C1 C 0.16037 0.19249 0.29838 0.0
C2 C 0.1505 0.21287 0.28575 0.0
C3 C 0.18315 0.21049 0.25543 0.0
C4 C 0.19291 0.1906 0.26788 0.0
C5 C 0.21545 0.18049 0.25536 0.0
H6 H 0.29532 0.18495 0.15972 0.0
C7 C 0.19844 0.21493 0.23336 0.0
C8 C 0.21733 0.19732 0.23313 0.0
H9 H 0.29711 0.13603 0.22247 0.0
H10 H 0.26027 0.15496 0.23854 0.0
H11 H 0.28157 0.23442 0.1913 0.0
H12 H 0.23899 0.1819 0.15006 0.0
H13 H 0.22473 0.21052 0.14576 0.0
H14 H 0.25592 0.20603 0.13516 0.0
H15 H 0.28343 0.23124 0.15848 0.0
H16 H 0.2607 0.25065 0.17261 0.0
C17 C 0.23763 0.18364 0.273 0.0
C18 C 0.2101 0.15352 0.24788 0.0
C19 C 0.17756 0.28549 0.17559 0.0
C20 C 0.18684 0.29298 0.15253 0.0
C21 C 0.20634 0.27935 0.14208 0.0
C22 C 0.21658 0.25916 0.15443 0.0
C23 C 0.20713 0.25212 0.17743 0.0
C24 C 0.18765 0.26495 0.18742 0.0
C25 C 0.17876 0.25371 0.21112 0.0
C26 C 0.19667 0.23251 0.2141 0.0
C27 C 0.21343 0.23187 0.19447 0.0
C28 C 0.1818 0.27303 0.2318 0.0
C29 C 0.15192 0.24465 0.20727 0.0
C30 C 0.28802 0.17848 0.1771 0.0
C31 C 0.29933 0.15902 0.18988 0.0
C32 C 0.28873 0.15085 0.21213 0.0
C33 C 0.26739 0.16197 0.22151 0.0
C34 C 0.25646 0.18152 0.20856 0.0
C35 C 0.26684 0.18944 0.18675 0.0
C36 C 0.25291 0.21049 0.17546 0.0
C37 C 0.23258 0.21412 0.19423 0.0
C38 C 0.23465 0.19704 0.21353 0.0
C39 C 0.27045 0.23295 0.17417 0.0
C40 C 0.24268 0.20204 0.15021 0.0
H41 H 0.15342 0.23753 0.2557 0.0
H42 H 0.18984 0.16556 0.29848 0.0
H43 H 0.19086 0.15154 0.24115 0.0
H44 H 0.22175 0.14709 0.23256 0.0
H45 H 0.21245 0.14088 0.26376 0.0
H46 H 0.23587 0.20082 0.28397 0.0
H47 H 0.23887 0.16802 0.28612 0.0
H48 H 0.25534 0.18558 0.26322 0.0
H49 H 0.16276 0.29536 0.18448 0.0
H50 H 0.21356 0.28398 0.12412 0.0
H51 H 0.23137 0.24969 0.14546 0.0
H52 H 0.19972 0.28279 0.22997 0.0
H53 H 0.16695 0.28703 0.23095 0.0
H54 H 0.18198 0.26483 0.25037 0.0
H55 H 0.14834 0.24 0.18767 0.0
H56 H 0.14789 0.22745 0.21738 0.0
H57 H 0.13841 0.25895 0.21273 0.0
H58 H 0.13405 0.22187 0.29246 0.0
C59 C 0.1618 0.22196 0.26442 0.0
C60 C 0.24215 0.85879 0.67851 0.0
C61 C 0.23203 0.87943 0.69031 0.0
C62 C 0.24356 0.88868 0.71159 0.0
C63 C 0.27475 0.85689 0.70907 0.0
C64 C 0.26355 0.84799 0.68804 0.0
C65 C 0.27737 0.82669 0.67709 0.0
H66 H 0.37136 0.74518 0.68427 0.0
C67 C 0.29677 0.84167 0.71399 0.0
C68 C 0.29849 0.82403 0.69521 0.0
H69 H 0.31706 0.75205 0.6267 0.0
H70 H 0.29861 0.78664 0.64776 0.0
H71 H 0.38312 0.80078 0.68669 0.0
H72 H 0.33461 0.75708 0.73155 0.0
H73 H 0.35265 0.77585 0.75091 0.0
H74 H 0.3675 0.75375 0.7313 0.0
H75 H 0.39454 0.78253 0.71168 0.0
H76 H 0.38414 0.81375 0.71619 0.0
C77 C 0.2865 0.83428 0.65113 0.0
C78 C 0.26018 0.80396 0.67735 0.0
C79 C 0.34939 0.85846 0.78962 0.0
C80 C 0.3715 0.84821 0.79825 0.0
C81 C 0.38232 0.82868 0.78517 0.0
C82 C 0.3712 0.81934 0.76385 0.0
C83 C 0.34917 0.82986 0.75529 0.0
C84 C 0.33873 0.84921 0.76803 0.0
C85 C 0.31607 0.85897 0.75545 0.0
C86 C 0.31448 0.8421 0.73323 0.0
C87 C 0.33379 0.82496 0.73337 0.0
C88 C 0.32096 0.88607 0.74795 0.0
C89 C 0.29395 0.85539 0.77305 0.0
C90 C 0.35531 0.75403 0.67643 0.0
C91 C 0.34534 0.74582 0.65406 0.0
C92 C 0.3249 0.75811 0.64399 0.0
C93 C 0.31425 0.77814 0.65626 0.0
C94 C 0.32438 0.78618 0.67867 0.0
C95 C 0.34476 0.77435 0.68823 0.0
C96 C 0.35401 0.78638 0.71137 0.0
C97 C 0.33547 0.80703 0.71446 0.0
C98 C 0.31803 0.80668 0.69539 0.0
C99 C 0.38037 0.79628 0.70647 0.0
C100 C 0.35232 0.76736 0.7325 0.0
H101 H 0.27261 0.88534 0.73739 0.0
H102 H 0.23391 0.85156 0.66187 0.0
H103 H 0.25003 0.80279 0.69509 0.0
H104 H 0.27017 0.7864 0.67572 0.0
H105 H 0.24636 0.80507 0.66234 0.0
H106 H 0.28977 0.85446 0.64998 0.0
H107 H 0.27279 0.82942 0.63677 0.0
H108 H 0.30444 0.82597 0.64638 0.0
H109 H 0.34095 0.8738 0.7991 0.0
H110 H 0.39937 0.82056 0.79155 0.0
H111 H 0.38029 0.80439 0.75478 0.0
H112 H 0.34081 0.88921 0.74396 0.0
H113 H 0.31558 0.89894 0.76285 0.0
H114 H 0.31142 0.89134 0.73079 0.0
H115 H 0.29496 0.83716 0.78231 0.0
H116 H 0.27603 0.85554 0.76352 0.0
H117 H 0.29382 0.86974 0.78758 0.0
H118 H 0.23603 0.90453 0.721 0.0
C119 C 0.26477 0.87747 0.72109 0.0
C120 C 0.6942 0.24849 0.8747 0.0
C121 C 0.67333 0.23495 0.86747 0.0
C122 C 0.65939 0.24323 0.84721 0.0
C123 C 0.68735 0.27749 0.84139 0.0
C124 C 0.70087 0.26957 0.86141 0.0
C125 C 0.72268 0.28591 0.86639 0.0
H126 H 0.79145 0.38521 0.83515 0.0
C127 C 0.69956 0.29954 0.83118 0.0
C128 C 0.72035 0.30452 0.84567 0.0
H129 H 0.80059 0.33672 0.89751 0.0
H130 H 0.76579 0.31253 0.88431 0.0
H131 H 0.73178 0.38842 0.83909 0.0
H132 H 0.78038 0.34356 0.79565 0.0
H133 H 0.75462 0.3498 0.7772 0.0
H134 H 0.77389 0.37487 0.78754 0.0
H135 H 0.75106 0.40044 0.81508 0.0
H136 H 0.72098 0.38822 0.80857 0.0
C137 C 0.71911 0.29791 0.89201 0.0
C138 C 0.74634 0.27023 0.86393 0.0
C139 C 0.66304 0.34261 0.75669 0.0
C140 C 0.67128 0.3622 0.74201 0.0
C141 C 0.69394 0.37356 0.74742 0.0
C142 C 0.70801 0.36586 0.76761 0.0
C143 C 0.69941 0.34644 0.7824 0.0
C144 C 0.67751 0.33485 0.77654 0.0
C145 C 0.67214 0.31347 0.79327 0.0
C146 C 0.69403 0.31464 0.8106 0.0
C147 C 0.70975 0.33419 0.80435 0.0
C148 C 0.64762 0.31869 0.80681 0.0
C149 C 0.67208 0.28963 0.7776 0.0
C150 C 0.78606 0.36922 0.84577 0.0
C151 C 0.7987 0.36289 0.86743 0.0
C152 C 0.79096 0.34212 0.88092 0.0
C153 C 0.77077 0.32807 0.87319 0.0
C154 C 0.75803 0.33487 0.85177 0.0
C155 C 0.76574 0.35511 0.83842 0.0
C156 C 0.74954 0.35992 0.8165 0.0
C157 C 0.73072 0.33938 0.81907 0.0
C158 C 0.73588 0.32471 0.8397 0.0
C159 C 0.73773 0.38563 0.81972 0.0
C160 C 0.7653 0.3571 0.7929 0.0
H161 H 0.65487 0.26968 0.81897 0.0
H162 H 0.70538 0.24258 0.8901 0.0
H163 H 0.74473 0.25721 0.84823 0.0
H164 H 0.7629 0.28132 0.85995 0.0
H165 H 0.74964 0.25923 0.88082 0.0
H166 H 0.69924 0.30057 0.89621 0.0
H167 H 0.72701 0.28625 0.90681 0.0
H168 H 0.72715 0.31655 0.89317 0.0
H169 H 0.64585 0.33334 0.75259 0.0
H170 H 0.70055 0.38869 0.73623 0.0
H171 H 0.72499 0.37538 0.77096 0.0
H172 H 0.64664 0.33829 0.81257 0.0
H173 H 0.63159 0.31495 0.79468 0.0
H174 H 0.64551 0.30795 0.82391 0.0
H175 H 0.68424 0.29146 0.76122 0.0
H176 H 0.67951 0.2736 0.78766 0.0
H177 H 0.65329 0.28521 0.77086 0.0
H178 H 0.64296 0.23345 0.84153 0.0
C179 C 0.66627 0.26437 0.83417 0.0
C180 C 0.86404 0.78951 0.35041 0.0
C181 C 0.85354 0.79935 0.37186 0.0
C182 C 0.83185 0.78876 0.38135 0.0
C183 C 0.83176 0.7586 0.34848 0.0
C184 C 0.85272 0.76941 0.3389 0.0
C185 C 0.86085 0.75739 0.31535 0.0
H186 H 0.84381 0.66947 0.22881 0.0
C187 C 0.82463 0.73808 0.3321 0.0
C188 C 0.84138 0.73752 0.31244 0.0
H189 H 0.90091 0.72493 0.23204 0.0
H190 H 0.8834 0.74112 0.26932 0.0
H191 H 0.84541 0.65649 0.28788 0.0
H192 H 0.79963 0.70385 0.24384 0.0
H193 H 0.78062 0.69064 0.2664 0.0
H194 H 0.79554 0.6711 0.2441 0.0
H195 H 0.82396 0.64514 0.26546 0.0
H196 H 0.81454 0.65177 0.29647 0.0
C197 C 0.88678 0.74636 0.31956 0.0
C198 C 0.85952 0.7768 0.29449 0.0
C199 C 0.75387 0.68167 0.35608 0.0
C200 C 0.74253 0.66165 0.34432 0.0
C201 C 0.75063 0.65459 0.32078 0.0
C202 C 0.77032 0.66685 0.30939 0.0
C203 C 0.78187 0.68654 0.32158 0.0
C204 C 0.77324 0.69398 0.34431 0.0
C205 C 0.78668 0.71624 0.35382 0.0
C206 C 0.80548 0.72031 0.33354 0.0
C207 C 0.80276 0.70272 0.31483 0.0
C208 C 0.79907 0.70926 0.37849 0.0
C209 C 0.76812 0.73782 0.35569 0.0
C210 C 0.85265 0.685 0.23762 0.0
C211 C 0.8738 0.69592 0.22732 0.0
C212 C 0.88443 0.71636 0.23929 0.0
C213 C 0.87432 0.72565 0.26109 0.0
C214 C 0.85331 0.71443 0.27122 0.0
C215 C 0.8428 0.69448 0.25948 0.0
C216 C 0.8206 0.68484 0.273 0.0
C217 C 0.81952 0.70232 0.29476 0.0
C218 C 0.83875 0.71958 0.29362 0.0
C219 C 0.82616 0.6581 0.28109 0.0
C220 C 0.79783 0.6875 0.25604 0.0
H221 H 0.80466 0.76093 0.37811 0.0
H222 H 0.88052 0.79756 0.34254 0.0
H223 H 0.84414 0.78992 0.29764 0.0
H224 H 0.85561 0.76863 0.27631 0.0
H225 H 0.87681 0.78768 0.29339 0.0
H226 H 0.88828 0.73833 0.33833 0.0
H227 H 0.90127 0.76069 0.31776 0.0
H228 H 0.89105 0.73105 0.30697 0.0
H229 H 0.7476 0.68773 0.37399 0.0
H230 H 0.74201 0.63924 0.31143 0.0
H231 H 0.77587 0.66043 0.29158 0.0
H232 H 0.80827 0.69105 0.377 0.0
H233 H 0.78525 0.70805 0.3935 0.0
H234 H 0.81358 0.7223 0.38411 0.0
H235 H 0.75241 0.7354 0.34279 0.0
H236 H 0.7764 0.75567 0.35039 0.0
H237 H 0.76037 0.73932 0.37453 0.0
H238 H 0.82353 0.79605 0.39791 0.0
C239 C 0.82098 0.76836 0.36986 0.0
C240 C 0.93998 0.846 0.96605 0.0
C241 C 0.96043 0.8323 0.9582 0.0
C242 C 0.97502 0.8414 0.93876 0.0
C243 C 0.94758 0.87614 0.93388 0.0
C244 C 0.93385 0.86773 0.95359 0.0
C245 C 0.91159 0.88346 0.95827 0.0
H246 H 0.83762 0.97708 0.92284 0.0
C247 C 0.93519 0.89811 0.92372 0.0
C248 C 0.91416 0.90258 0.93805 0.0
H249 H 0.82697 0.92606 0.98284 0.0
H250 H 0.86631 0.90729 0.97434 0.0
H251 H 0.85479 0.93846 0.88593 0.0
H252 H 0.89768 0.98649 0.93186 0.0
H253 H 0.91146 0.98622 0.90258 0.0
H254 H 0.88028 0.99712 0.9059 0.0
H255 H 0.85939 0.97026 0.87841 0.0
H256 H 0.88063 0.94678 0.86855 0.0
C257 C 0.8883 0.86725 0.95487 0.0
C258 C 0.91426 0.89503 0.98414 0.0
C259 C 0.96624 0.93679 0.84428 0.0
C260 C 0.95677 0.95554 0.8292 0.0
C261 C 0.93639 0.96926 0.83741 0.0
C262 C 0.92501 0.96384 0.85986 0.0
C263 C 0.93384 0.94425 0.87419 0.0
C264 C 0.9544 0.93136 0.86657 0.0
C265 C 0.96065 0.91065 0.88386 0.0
C266 C 0.94028 0.91306 0.90287 0.0
C267 C 0.92461 0.93274 0.89703 0.0
C268 C 0.95886 0.88618 0.86935 0.0
C269 C 0.98633 0.9159 0.89508 0.0
C270 C 0.84406 0.96216 0.93436 0.0
C271 C 0.82933 0.95299 0.95352 0.0
C272 C 0.83803 0.93326 0.96789 0.0
C273 C 0.86085 0.92241 0.9629 0.0
C274 C 0.875 0.9311 0.94307 0.0
C275 C 0.86666 0.95082 0.92933 0.0
C276 C 0.88356 0.95674 0.90822 0.0
C277 C 0.90344 0.9374 0.91162 0.0
C278 C 0.89831 0.92246 0.93206 0.0
C279 C 0.86899 0.9531 0.88393 0.0
C280 C 0.89376 0.98307 0.91207 0.0
H281 H 0.98041 0.86901 0.91177 0.0
H282 H 0.92828 0.83934 0.98075 0.0
H283 H 0.93373 0.90025 0.9878 0.0
H284 H 0.90373 0.91225 0.98623 0.0
H285 H 0.90851 0.88187 0.9987 0.0
H286 H 0.89136 0.85284 0.94068 0.0
H287 H 0.88325 0.85779 0.97227 0.0
H288 H 0.87225 0.87767 0.94809 0.0
H289 H 0.98176 0.92583 0.83831 0.0
H290 H 0.92901 0.98398 0.82619 0.0
H291 H 0.90935 0.97474 0.86488 0.0
H292 H 0.94344 0.8868 0.85588 0.0
H293 H 0.97606 0.88256 0.85894 0.0
H294 H 0.95475 0.87015 0.88109 0.0
H295 H 0.98908 0.93597 0.89802 0.0
H296 H 0.98874 0.90756 0.91346 0.0
H297 H 0.00125 0.90939 0.88274 0.0
H298 H 0.99104 0.8313 0.93261 0.0
C299 C 0.9688 0.86329 0.92668 0.0
C300 C 0.70041 0.09467 0.44098 0.0
C301 C 0.70847 0.07257 0.43023 0.0
C302 C 0.69372 0.06127 0.41215 0.0
C303 C 0.66435 0.09475 0.41457 0.0
C304 C 0.67826 0.10527 0.43307 0.0
C305 C 0.66687 0.1286 0.44268 0.0
H306 H 0.5761 0.21383 0.43537 0.0
C307 C 0.64301 0.11094 0.40981 0.0
C308 C 0.64416 0.13064 0.42649 0.0
H309 H 0.63752 0.21239 0.48586 0.0
H310 H 0.65172 0.17426 0.46789 0.0
H311 H 0.56301 0.15496 0.43777 0.0
H312 H 0.60658 0.20001 0.38942 0.0
H313 H 0.59317 0.17735 0.37085 0.0
H314 H 0.57367 0.19873 0.38709 0.0
H315 H 0.55004 0.17705 0.41694 0.0
H316 H 0.55647 0.14598 0.40736 0.0
C317 C 0.66006 0.12454 0.47005 0.0
C318 C 0.68518 0.14999 0.43813 0.0
C319 C 0.58802 0.09478 0.33594 0.0
C320 C 0.5684 0.10796 0.32534 0.0
C321 C 0.55889 0.12848 0.33799 0.0
C322 C 0.56942 0.13636 0.36018 0.0
C323 C 0.58982 0.12373 0.36984 0.0
C324 C 0.59849 0.10303 0.35799 0.0
C325 C 0.62052 0.09211 0.37073 0.0
C326 C 0.62413 0.11015 0.39174 0.0
C327 C 0.6061 0.12861 0.39111 0.0
C328 C 0.61348 0.06611 0.38011 0.0
C329 C 0.64241 0.09255 0.35245 0.0
C330 C 0.5924 0.2051 0.44281 0.0
C331 C 0.6056 0.216 0.46219 0.0
C332 C 0.62709 0.20437 0.47089 0.0
C333 C 0.63524 0.1822 0.46048 0.0
C334 C 0.6219 0.17161 0.44098 0.0
C335 C 0.60088 0.18312 0.43248 0.0
C336 C 0.58956 0.1699 0.411 0.0
C337 C 0.60687 0.14819 0.40836 0.0
C338 C 0.62581 0.14925 0.42594 0.0
C339 C 0.5633 0.16159 0.41841 0.0
C340 C 0.59055 0.18728 0.38836 0.0
H341 H 0.66157 0.06296 0.39014 0.0
H342 H 0.71117 0.10356 0.45521 0.0
H343 H 0.69457 0.1478 0.42008 0.0
H344 H 0.67614 0.16812 0.43717 0.0
H345 H 0.69961 0.15053 0.4526 0.0
H346 H 0.65375 0.10533 0.47325 0.0
H347 H 0.67616 0.1279 0.48219 0.0
H348 H 0.64457 0.13615 0.47615 0.0
H349 H 0.59549 0.07866 0.32698 0.0
H350 H 0.54391 0.13909 0.33025 0.0
H351 H 0.56166 0.1524 0.36862 0.0
H352 H 0.59346 0.06482 0.38426 0.0
H353 H 0.61778 0.05181 0.36619 0.0
H354 H 0.62267 0.06139 0.39764 0.0
H355 H 0.64294 0.11029 0.34225 0.0
H356 H 0.6605 0.09105 0.36149 0.0
H357 H 0.64073 0.07752 0.33873 0.0
H358 H 0.69958 0.04427 0.40359 0.0
C359 C 0.67175 0.07224 0.40427 0.0
C360 C 0.46896 0.59776 0.19511 0.0
C361 C 0.46349 0.57628 0.20845 0.0
C362 C 0.44464 0.56058 0.19996 0.0
C363 C 0.43638 0.58826 0.16603 0.0
C364 C 0.45534 0.60328 0.17395 0.0
C365 C 0.45866 0.62543 0.15769 0.0
H366 H 0.41913 0.69413 0.06165 0.0
C367 C 0.42537 0.5996 0.14394 0.0
C368 C 0.43856 0.62122 0.13874 0.0
H369 H 0.4788 0.70975 0.11185 0.0
H370 H 0.47229 0.67083 0.1322 0.0
H371 H 0.38262 0.67398 0.10259 0.0
H372 H 0.43191 0.63701 0.05305 0.0
H373 H 0.40575 0.61819 0.05564 0.0
H374 H 0.40276 0.64881 0.04306 0.0
H375 H 0.37748 0.67222 0.07003 0.0
H376 H 0.36684 0.6485 0.09054 0.0
C377 C 0.45385 0.64871 0.1734 0.0
C378 C 0.48467 0.6242 0.14608 0.0
C379 C 0.34763 0.56321 0.10649 0.0
C380 C 0.3333 0.56994 0.08605 0.0
C381 C 0.34114 0.58959 0.07103 0.0
C382 C 0.36248 0.60285 0.07669 0.0
C383 C 0.37618 0.59649 0.09763 0.0
C384 C 0.36908 0.57658 0.11179 0.0
C385 C 0.38663 0.5719 0.13268 0.0
C386 C 0.40485 0.59288 0.12922 0.0
C387 C 0.39841 0.60737 0.10884 0.0
C388 C 0.37214 0.57427 0.15708 0.0
C389 C 0.3988 0.54643 0.12869 0.0
C390 C 0.43102 0.68894 0.07677 0.0
C391 C 0.44944 0.705 0.08523 0.0
C392 C 0.46432 0.69776 0.10519 0.0
C393 C 0.46051 0.67515 0.11697 0.0
C394 C 0.44144 0.65965 0.1089 0.0
C395 C 0.42725 0.66653 0.08894 0.0
C396 C 0.40731 0.64814 0.08344 0.0
C397 C 0.41183 0.62914 0.10342 0.0
C398 C 0.43181 0.63601 0.11829 0.0
C399 C 0.38216 0.66123 0.0866 0.0
C400 C 0.4119 0.6375 0.05741 0.0
H401 H 0.41675 0.55395 0.17355 0.0
H402 H 0.48352 0.61004 0.20103 0.0
H403 H 0.48984 0.60486 0.14191 0.0
H404 H 0.48587 0.63389 0.12826 0.0
H405 H 0.4988 0.63179 0.15877 0.0
H406 H 0.43912 0.64528 0.18721 0.0
H407 H 0.47068 0.65437 0.18355 0.0
H408 H 0.44711 0.66444 0.16249 0.0
H409 H 0.34222 0.54793 0.1181 0.0
H410 H 0.33033 0.59518 0.05525 0.0
H411 H 0.36723 0.61784 0.06476 0.0
H412 H 0.35979 0.59057 0.15652 0.0
H413 H 0.36052 0.55776 0.16034 0.0
H414 H 0.38408 0.57705 0.17324 0.0
H415 H 0.39936 0.54145 0.10886 0.0
H416 H 0.41828 0.54609 0.1346 0.0
H417 H 0.38852 0.53169 0.13844 0.0
H418 H 0.43994 0.54404 0.21005 0.0
C419 C 0.43109 0.56645 0.17885 0.0
C420 C 0.09725 0.33816 0.59188 0.0
C421 C 0.11022 0.32774 0.57208 0.0
C422 C 0.13193 0.33931 0.5638 0.0
C423 C 0.12784 0.37052 0.59542 0.0
C424 C 0.10637 0.35937 0.60325 0.0
C425 C 0.09531 0.37204 0.62519 0.0
H426 H 0.10643 0.45537 0.71668 0.0
C427 C 0.13286 0.39152 0.61198 0.0
C428 C 0.11386 0.39251 0.62945 0.0
H429 H 0.04659 0.40462 0.70363 0.0
H430 H 0.06585 0.39119 0.6659 0.0
H431 H 0.10855 0.47431 0.6608 0.0
H432 H 0.15153 0.41998 0.69926 0.0
H433 H 0.17153 0.43921 0.68241 0.0
H434 H 0.15265 0.45226 0.70621 0.0
H435 H 0.13293 0.48287 0.68134 0.0
H436 H 0.13867 0.47627 0.6493 0.0
C437 C 0.06971 0.3822 0.61775 0.0
C438 C 0.09477 0.35342 0.64678 0.0
C439 C 0.21042 0.44233 0.60009 0.0
C440 C 0.22065 0.4624 0.61281 0.0
C441 C 0.20796 0.47199 0.63329 0.0
C442 C 0.18566 0.46152 0.64115 0.0
C443 C 0.17585 0.44127 0.62838 0.0
C444 C 0.18814 0.43217 0.6081 0.0
C445 C 0.17501 0.41071 0.59661 0.0
C446 C 0.15265 0.40855 0.61318 0.0
C447 C 0.1533 0.42635 0.63189 0.0
C448 C 0.1678 0.41788 0.56999 0.0
C449 C 0.19201 0.38789 0.59854 0.0
C450 C 0.09761 0.44131 0.70565 0.0
C451 C 0.07519 0.43073 0.71317 0.0
C452 C 0.06388 0.41294 0.69814 0.0
C453 C 0.07517 0.4051 0.67634 0.0
C454 C 0.09795 0.41526 0.6694 0.0
C455 C 0.10848 0.43353 0.68361 0.0
C456 C 0.13198 0.44322 0.67251 0.0
C457 C 0.13428 0.42709 0.64982 0.0
C458 C 0.11446 0.41054 0.64832 0.0
C459 C 0.12808 0.47064 0.66573 0.0
C460 C 0.15315 0.43864 0.691 0.0
H461 H 0.15743 0.36854 0.5682 0.0
H462 H 0.0807 0.32955 0.59895 0.0
H463 H 0.11206 0.34249 0.64729 0.0
H464 H 0.09355 0.36222 0.66498 0.0
H465 H 0.07916 0.34034 0.6448 0.0
H466 H 0.06907 0.38683 0.59782 0.0
H467 H 0.05494 0.36853 0.62139 0.0
H468 H 0.06519 0.39963 0.62719 0.0
H469 H 0.21946 0.43476 0.58404 0.0
H470 H 0.21552 0.48735 0.64349 0.0
H471 H 0.17702 0.46947 0.657 0.0
H472 H 0.16211 0.43751 0.56903 0.0
H473 H 0.18353 0.41538 0.55718 0.0
H474 H 0.15181 0.40744 0.56301 0.0
H475 H 0.20329 0.38853 0.61561 0.0
H476 H 0.18171 0.37042 0.59987 0.0
H477 H 0.20487 0.38693 0.5827 0.0
H478 H 0.14213 0.3318 0.54843 0.0
C479 C 0.14075 0.36068 0.57529 0.0
Zn480 Zn 0.97145 0.05983 0.54954 0.0
Zn481 Zn 0.04085 0.00614 0.5052 0.0
Zn482 Zn 0.00477 0.03239 0.52709 0.0
C483 C 0.04651 0.05491 0.49024 0.0
C484 C 0.99395 0.98841 0.48935 0.0
O485 O 0.0061 0.0238 0.56677 0.0
O486 O 0.9736 0.04312 0.58193 0.0
C487 C 0.00639 0.092 0.53061 0.0
O488 O 0.02833 0.05756 0.50524 0.0
O489 O 0.0557 0.03394 0.48644 0.0
O490 O 0.01671 0.98357 0.48889 0.0
O491 O 0.9859 0.00692 0.50177 0.0
O492 O 0.98775 0.09204 0.54447 0.0
O493 O 0.01454 0.07163 0.52167 0.0
O494 O 0.96787 0.02307 0.51133 0.0
O495 O 0.94379 0.05146 0.52787 0.0
C496 C 0.94672 0.03363 0.51336 0.0
O497 O 0.02589 0.01168 0.55574 0.0
O498 O 0.05731 0.99503 0.53581 0.0
C499 C 0.99163 0.0288 0.58486 0.0
C500 C 0.04603 0.99913 0.55567 0.0
Zn501 Zn 0.50303 0.03406 0.99795 0.0
Zn502 Zn 0.55086 0.97787 0.05818 0.0
Zn503 Zn 0.52692 0.00452 0.02974 0.0
C504 C 0.58418 0.99159 0.02408 0.0
C505 C 0.51376 0.94854 0.04135 0.0
O506 O 0.50328 0.02917 0.05157 0.0
O507 O 0.48339 0.05138 0.02368 0.0
C508 C 0.55295 0.04211 0.99054 0.0
O509 O 0.56662 0.00713 0.02055 0.0
O510 O 0.58088 0.97331 0.03799 0.0
O511 O 0.52708 0.95044 0.06026 0.0
O512 O 0.51313 0.9662 0.02553 0.0
O513 O 0.53234 0.05012 0.98349 0.0
O514 O 0.55431 0.0251 0.00702 0.0
O515 O 0.50358 0.98047 0.00635 0.0
O516 O 0.48828 0.00651 0.97894 0.0
C517 C 0.49076 0.98483 0.98689 0.0
O518 O 0.52085 0.0188 0.06765 0.0
O519 O 0.55265 0.0014 0.08591 0.0
C520 C 0.48716 0.04559 0.04586 0.0
C521 C 0.53523 0.01671 0.0864 0.0
Zn522 Zn 0.53917 0.54094 0.53874 0.0
Zn523 Zn 0.48245 0.48745 0.48354 0.0
Zn524 Zn 0.51274 0.51419 0.51088 0.0
C525 C 0.51141 0.45441 0.51041 0.0
C526 C 0.51316 0.51423 0.45155 0.0
O527 O 0.48901 0.53968 0.5321 0.0
O528 O 0.51543 0.5681 0.54441 0.0
C529 C 0.54187 0.49389 0.5573 0.0
O530 O 0.5214 0.4747 0.51764 0.0
O531 O 0.4928 0.45482 0.49649 0.0
O532 O 0.49659 0.49793 0.45154 0.0
O533 O 0.52135 0.52311 0.47195 0.0
O534 O 0.54353 0.51573 0.56495 0.0
O535 O 0.53315 0.48942 0.53573 0.0
O536 O 0.5385 0.53539 0.48724 0.0
O537 O 0.56627 0.54645 0.51484 0.0
C538 C 0.55962 0.54482 0.49266 0.0
O539 O 0.47361 0.5225 0.52068 0.0
O540 O 0.45054 0.50156 0.49444 0.0
C541 C 0.49355 0.56074 0.54198 0.0
C542 C 0.45226 0.51624 0.51232 0.0
Zn543 Zn 0.05865 0.55185 0.9726 0.0
Zn544 Zn 0.00345 0.50622 0.04156 0.0
Zn545 Zn 0.03104 0.52989 0.00721 0.0
C546 C 0.05238 0.49193 0.04863 0.0
C547 C 0.98743 0.49137 0.99454 0.0
O548 O 0.02375 0.56976 0.00954 0.0
O549 O 0.04428 0.58491 0.97772 0.0
C550 C 0.09063 0.53014 0.00669 0.0
O551 O 0.05569 0.50716 0.03072 0.0
O552 O 0.03106 0.48832 0.05716 0.0
O553 O 0.98272 0.48817 0.01708 0.0
O554 O 0.00493 0.50591 0.98779 0.0
O555 O 0.09084 0.54328 0.98753 0.0
O556 O 0.07009 0.52301 0.0162 0.0
O557 O 0.02145 0.51494 0.97019 0.0
O558 O 0.04736 0.5326 0.94409 0.0
C559 C 0.03007 0.5177 0.94826 0.0
O560 O 0.01038 0.55811 0.02841 0.0
O561 O 0.99113 0.53681 0.05744 0.0
C562 C 0.02995 0.58802 0.99573 0.0
C563 C 0.9964 0.55718 0.04755 0.0
H564 H 0.18126 0.17834 0.34189 0.0
H565 H 0.16081 0.15996 0.37755 0.0
H566 H 0.09083 0.16524 0.34039 0.0
H567 H 0.11117 0.184 0.30485 0.0
H568 H 0.08528 0.17618 0.38752 0.0
H569 H 0.12297 0.11102 0.34214 0.0
H570 H 0.15684 0.08929 0.32124 0.0
H571 H 0.19696 0.08553 0.38917 0.0
H572 H 0.16347 0.10756 0.41041 0.0
H573 H 0.02165 0.08427 0.45845 0.0
H574 H 0.0397 0.11275 0.42855 0.0
H575 H 0.11124 0.10186 0.46152 0.0
H576 H 0.09336 0.07185 0.48993 0.0
H577 H 0.1156 0.09524 0.41643 0.0
H578 H 0.07319 0.1597 0.46206 0.0
H579 H 0.037 0.18063 0.47995 0.0
H580 H 0.00269 0.1834 0.40906 0.0
H581 H 0.03846 0.1625 0.39066 0.0
C582 C 0.16152 0.1756 0.34135 0.0
C583 C 0.14785 0.18244 0.32051 0.0
C584 C 0.14983 0.16512 0.36174 0.0
C585 C 0.12431 0.16086 0.36152 0.0
C586 C 0.11052 0.16835 0.34101 0.0
C587 C 0.12217 0.17906 0.3207 0.0
C588 C 0.11218 0.14766 0.38221 0.0
C589 C 0.09179 0.15841 0.39384 0.0
C590 C 0.12072 0.12454 0.39049 0.0
C591 C 0.14083 0.11116 0.3778 0.0
C592 C 0.1391 0.10571 0.35258 0.0
C593 C 0.15821 0.09332 0.34068 0.0
C594 C 0.17907 0.08609 0.35385 0.0
C595 C 0.18082 0.09118 0.37898 0.0
C596 C 0.16177 0.1036 0.39096 0.0
C597 C 0.04112 0.08849 0.45955 0.0
C598 C 0.05622 0.07597 0.4763 0.0
C599 C 0.05145 0.10491 0.44257 0.0
C600 C 0.07693 0.10973 0.44272 0.0
C601 C 0.0916 0.0984 0.4608 0.0
C602 C 0.08142 0.08137 0.47713 0.0
C603 C 0.0889 0.12397 0.4225 0.0
C604 C 0.10922 0.11322 0.41061 0.0
C605 C 0.07996 0.14688 0.4138 0.0
C606 C 0.05847 0.1594 0.42503 0.0
C607 C 0.05788 0.16466 0.45032 0.0
C608 C 0.03747 0.17652 0.46055 0.0
C609 C 0.0176 0.18322 0.44572 0.0
C610 C 0.01809 0.17818 0.42055 0.0
C611 C 0.03844 0.16639 0.4102 0.0
H612 H 0.00184 0.19237 0.45372 0.0
H613 H 0.19385 0.0765 0.34461 0.0
H614 H 0.35192 0.85441 0.84402 0.0
H615 H 0.37207 0.87185 0.88038 0.0
H616 H 0.43834 0.88351 0.83803 0.0
H617 H 0.41859 0.86483 0.80218 0.0
H618 H 0.45139 0.86982 0.88045 0.0
H619 H 0.39424 0.93065 0.85202 0.0
H620 H 0.35383 0.94719 0.8397 0.0
H621 H 0.32512 0.93182 0.91168 0.0
H622 H 0.36531 0.91487 0.92432 0.0
H623 H 0.50299 0.97375 0.94042 0.0
H624 H 0.48265 0.94458 0.91284 0.0
H625 H 0.43394 0.92268 0.9716 0.0
H626 H 0.45473 0.95186 0.9995 0.0
H627 H 0.41045 0.93743 0.92588 0.0
H628 H 0.47444 0.88447 0.95421 0.0
H629 H 0.51765 0.87465 0.9638 0.0
H630 H 0.53634 0.8801 0.88732 0.0
H631 H 0.49352 0.89138 0.87744 0.0
C632 C 0.37082 0.86064 0.84262 0.0
C633 C 0.38372 0.8584 0.82036 0.0
C634 C 0.38231 0.87071 0.86333 0.0
C635 C 0.40665 0.87948 0.86195 0.0
C636 C 0.4196 0.87688 0.83971 0.0
C637 C 0.4083 0.86628 0.81919 0.0
C638 C 0.41856 0.89187 0.88335 0.0
C639 C 0.44245 0.88471 0.89023 0.0
C640 C 0.40684 0.91105 0.89655 0.0
C641 C 0.38267 0.92122 0.88901 0.0
C642 C 0.37925 0.93062 0.86515 0.0
C643 C 0.3564 0.9401 0.85812 0.0
C644 C 0.3369 0.94048 0.87487 0.0
C645 C 0.34023 0.93146 0.89871 0.0
C646 C 0.36303 0.92192 0.90582 0.0
C647 C 0.48828 0.96231 0.94754 0.0
C648 C 0.4805 0.96473 0.97201 0.0
C649 C 0.47668 0.9457 0.93182 0.0
C650 C 0.45685 0.93143 0.9402 0.0
C651 C 0.44926 0.9335 0.96484 0.0
C652 C 0.46117 0.94998 0.98075 0.0
C653 C 0.44329 0.91565 0.92253 0.0
C654 C 0.41914 0.92224 0.91632 0.0
C655 C 0.45509 0.89653 0.90943 0.0
C656 C 0.48075 0.88898 0.91516 0.0
C657 C 0.48781 0.88382 0.93949 0.0
C658 C 0.51224 0.87796 0.94497 0.0
C659 C 0.5297 0.87655 0.92618 0.0
C660 C 0.52278 0.88115 0.90187 0.0
C661 C 0.49844 0.8874 0.89633 0.0
H662 H 0.54859 0.87192 0.93048 0.0
H663 H 0.31922 0.94783 0.8694 0.0
H664 H 0.62445 0.37942 0.74387 0.0
H665 H 0.60027 0.39684 0.71018 0.0
H666 H 0.65963 0.38133 0.65967 0.0
H667 H 0.68433 0.36529 0.6938 0.0
H668 H 0.64483 0.42355 0.65026 0.0
H669 H 0.6018 0.34835 0.66046 0.0
H670 H 0.58008 0.31488 0.68212 0.0
H671 H 0.52385 0.36541 0.70484 0.0
H672 H 0.54542 0.39927 0.68359 0.0
H673 H 0.57556 0.45854 0.54681 0.0
H674 H 0.59455 0.42975 0.57584 0.0
H675 H 0.54835 0.45789 0.63388 0.0
H676 H 0.5289 0.48613 0.60461 0.0
H677 H 0.55602 0.40674 0.6371 0.0
H678 H 0.60391 0.4819 0.62658 0.0
H679 H 0.62603 0.51256 0.60139 0.0
H680 H 0.67407 0.45614 0.57418 0.0
H681 H 0.65199 0.4251 0.59899 0.0
C682 C 0.63216 0.3796 0.7255 0.0
C683 C 0.65615 0.37109 0.7213 0.0
C684 C 0.61829 0.38935 0.70619 0.0
C685 C 0.62788 0.39007 0.68217 0.0
C686 C 0.65177 0.38104 0.67797 0.0
C687 C 0.66586 0.37185 0.69741 0.0
C688 C 0.6137 0.40168 0.66182 0.0
C689 C 0.62556 0.41935 0.64712 0.0
C690 C 0.5884 0.39665 0.65775 0.0
C691 C 0.57536 0.3764 0.67064 0.0
C692 C 0.58491 0.35237 0.67025 0.0
C693 C 0.5726 0.33332 0.68242 0.0
C694 C 0.55063 0.33803 0.69491 0.0
C695 C 0.54089 0.3618 0.69519 0.0
C696 C 0.55313 0.38092 0.68306 0.0
C697 C 0.56869 0.45766 0.56545 0.0
C698 C 0.55046 0.47401 0.57342 0.0
C699 C 0.57978 0.44154 0.58212 0.0
C700 C 0.57295 0.44185 0.60705 0.0
C701 C 0.55381 0.45732 0.61473 0.0
C702 C 0.5428 0.47345 0.59807 0.0
C703 C 0.58733 0.42808 0.62561 0.0
C704 C 0.57541 0.41042 0.64017 0.0
C705 C 0.61274 0.4325 0.62905 0.0
C706 C 0.62624 0.45121 0.6145 0.0
C707 C 0.61913 0.47605 0.61514 0.0
C708 C 0.63165 0.49348 0.60093 0.0
C709 C 0.65143 0.4863 0.58617 0.0
C710 C 0.65876 0.46168 0.58562 0.0
C711 C 0.64627 0.44417 0.59977 0.0
H712 H 0.66109 0.49982 0.57517 0.0
H713 H 0.54113 0.32326 0.70431 0.0
H714 H 0.89365 0.72133 0.18841 0.0
H715 H 0.91366 0.70451 0.15181 0.0
H716 H 0.8996 0.63092 0.178 0.0
H717 H 0.87982 0.64755 0.21469 0.0
H718 H 0.95388 0.67685 0.14762 0.0
H719 H 0.89006 0.59268 0.13013 0.0
H720 H 0.84623 0.58164 0.13455 0.0
H721 H 0.82617 0.65781 0.12924 0.0
H722 H 0.86983 0.66928 0.12443 0.0
H723 H 0.00938 0.57435 0.09205 0.0
H724 H 0.98915 0.60667 0.11575 0.0
H725 H 0.94121 0.62178 0.05434 0.0
H726 H 0.96194 0.58948 0.03033 0.0
H727 H 0.91547 0.61293 0.09501 0.0
H728 H 0.97853 0.67283 0.07635 0.0
H729 H 0.02093 0.68828 0.07041 0.0
H730 H 0.03978 0.66578 0.14371 0.0
H731 H 0.99744 0.65047 0.15014 0.0
C732 C 0.89487 0.70156 0.18642 0.0
C733 C 0.88509 0.6858 0.20452 0.0
C734 C 0.90623 0.69198 0.16543 0.0
C735 C 0.90791 0.66646 0.162 0.0
C736 C 0.89809 0.65068 0.17997 0.0
C737 C 0.88674 0.66023 0.20096 0.0
C738 C 0.92082 0.65621 0.1402 0.0
C739 C 0.94538 0.66303 0.136 0.0
C740 C 0.90963 0.63861 0.1246 0.0
C741 C 0.88327 0.63184 0.1271 0.0
C742 C 0.87629 0.60706 0.12977 0.0
C743 C 0.85147 0.60073 0.13237 0.0
C744 C 0.83343 0.61902 0.13224 0.0
C745 C 0.84017 0.64367 0.12942 0.0
C746 C 0.86495 0.65009 0.12678 0.0
C747 C 0.99506 0.58517 0.08337 0.0
C748 C 0.98728 0.57969 0.05941 0.0
C749 C 0.98358 0.60373 0.09685 0.0
C750 C 0.96384 0.61696 0.08674 0.0
C751 C 0.95662 0.61207 0.06238 0.0
C752 C 0.96841 0.59366 0.0487 0.0
C753 C 0.94877 0.63301 0.10296 0.0
C754 C 0.9238 0.62714 0.10629 0.0
C755 C 0.95941 0.65178 0.11749 0.0
C756 C 0.985 0.66025 0.11357 0.0
C757 C 0.99183 0.67099 0.09109 0.0
C758 C 0.01578 0.67983 0.08768 0.0
C759 C 0.03307 0.67785 0.1066 0.0
C760 C 0.02639 0.66722 0.12904 0.0
C761 C 0.0024 0.65857 0.13261 0.0
H762 H 0.05161 0.68465 0.1039 0.0
H763 H 0.81423 0.61408 0.13428 0.0
H764 H 0.31133 0.10994 0.1891 0.0
H765 H 0.34696 0.09075 0.16938 0.0
H766 H 0.37376 0.16225 0.14771 0.0
H767 H 0.33855 0.18159 0.16773 0.0
H768 H 0.37081 0.13092 0.10925 0.0
H769 H 0.40321 0.12971 0.19105 0.0
H770 H 0.4043 0.12048 0.23542 0.0
H771 H 0.40041 0.04316 0.21995 0.0
H772 H 0.39898 0.05192 0.17546 0.0
H773 H 0.48285 0.09417 0.05601 0.0
H774 H 0.45399 0.11348 0.08483 0.0
H775 H 0.42707 0.04183 0.1061 0.0
H776 H 0.45612 0.02255 0.07737 0.0
H777 H 0.43118 0.07313 0.14591 0.0
H778 H 0.39604 0.07417 0.06483 0.0
H779 H 0.39532 0.08283 0.02032 0.0
H780 H 0.40389 0.16001 0.03472 0.0
H781 H 0.40503 0.15175 0.07934 0.0
C782 C 0.32507 0.12163 0.18059 0.0
C783 C 0.32193 0.14731 0.17979 0.0
C784 C 0.34543 0.11061 0.16932 0.0
C785 C 0.36303 0.12508 0.15709 0.0
C786 C 0.36034 0.15074 0.15694 0.0
C787 C 0.3401 0.16174 0.16826 0.0
C788 C 0.38309 0.1135 0.14266 0.0
C789 C 0.38424 0.1186 0.11739 0.0
C790 C 0.40016 0.09683 0.15313 0.0
C791 C 0.40064 0.09151 0.1799 0.0
C792 C 0.40229 0.11075 0.1971 0.0
C793 C 0.40305 0.10559 0.22228 0.0
C794 C 0.40235 0.08125 0.2305 0.0
C795 C 0.40091 0.06201 0.21355 0.0
C796 C 0.40014 0.06706 0.18835 0.0
C797 C 0.471 0.08263 0.06717 0.0
C798 C 0.4718 0.05697 0.0649 0.0
C799 C 0.45453 0.09361 0.08354 0.0
C800 C 0.43829 0.07907 0.09748 0.0
C801 C 0.43952 0.05336 0.09561 0.0
C802 C 0.45601 0.04239 0.07922 0.0
C803 C 0.41888 0.09076 0.11265 0.0
C804 C 0.41778 0.08557 0.13791 0.0
C805 C 0.40169 0.10727 0.10222 0.0
C806 C 0.40088 0.11231 0.07541 0.0
C807 C 0.39797 0.09296 0.0585 0.0
C808 C 0.39745 0.0978 0.03325 0.0
C809 C 0.39963 0.12195 0.0247 0.0
C810 C 0.40225 0.14131 0.04138 0.0
C811 C 0.40282 0.13656 0.06665 0.0
H812 H 0.39922 0.12566 0.00514 0.0
H813 H 0.40298 0.0773 0.25 0.0
H814 H 0.18846 0.85807 0.6771 0.0
H815 H 0.15187 0.87825 0.66027 0.0
H816 H 0.18938 0.94826 0.66307 0.0
H817 H 0.22553 0.92822 0.68086 0.0
H818 H 0.145 0.95502 0.67676 0.0
H819 H 0.18136 0.91307 0.60824 0.0
H820 H 0.1979 0.87764 0.58532 0.0
H821 H 0.12786 0.84125 0.59023 0.0
H822 H 0.11099 0.87635 0.61348 0.0
H823 H 0.08484 0.01892 0.57935 0.0
H824 H 0.11046 0.99886 0.61045 0.0
H825 H 0.05955 0.93798 0.61309 0.0
H826 H 0.03361 0.95837 0.58209 0.0
H827 H 0.10647 0.92444 0.59998 0.0
H828 H 0.07175 0.9675 0.67096 0.0
H829 H 0.05798 0.00311 0.69538 0.0
H830 H 0.12685 0.03955 0.68229 0.0
H831 H 0.14142 0.00373 0.65851 0.0
C832 C 0.18882 0.87776 0.67409 0.0
C833 C 0.20981 0.8916 0.6802 0.0
C834 C 0.16795 0.88929 0.66439 0.0
C835 C 0.16791 0.91478 0.65997 0.0
C836 C 0.18886 0.9286 0.66632 0.0
C837 C 0.20953 0.91715 0.67644 0.0
C838 C 0.14621 0.92713 0.64863 0.0
C839 C 0.13674 0.94837 0.65985 0.0
C840 C 0.13493 0.9183 0.62685 0.0
C841 C 0.14501 0.8972 0.61285 0.0
C842 C 0.16955 0.89743 0.6046 0.0
C843 C 0.17897 0.87742 0.59152 0.0
C844 C 0.16396 0.85717 0.58639 0.0
C845 C 0.13947 0.85692 0.59426 0.0
C846 C 0.12997 0.87687 0.60738 0.0
C847 C 0.07865 0.00173 0.58736 0.0
C848 C 0.05727 0.9902 0.57859 0.0
C849 C 0.09324 0.99029 0.60517 0.0
C850 C 0.08689 0.96694 0.61423 0.0
C851 C 0.06468 0.95608 0.60651 0.0
C852 C 0.04988 0.96771 0.58888 0.0
C853 C 0.10547 0.95236 0.62802 0.0
C854 C 0.11449 0.93078 0.61712 0.0
C855 C 0.11667 0.96111 0.64978 0.0
C856 C 0.10753 0.98313 0.66279 0.0
C857 C 0.08387 0.98319 0.67316 0.0
C858 C 0.076 0.00332 0.68704 0.0
C859 C 0.09139 0.02368 0.6902 0.0
C860 C 0.11488 0.02382 0.67975 0.0
C861 C 0.12304 0.00354 0.66625 0.0
H862 H 0.08515 0.03928 0.70086 0.0
H863 H 0.17129 0.8417 0.57626 0.0
H864 H 0.83773 0.38118 0.84115 0.0
H865 H 0.87239 0.40567 0.8568 0.0
H866 H 0.84083 0.40357 0.92956 0.0
H867 H 0.80623 0.37934 0.91407 0.0
H868 H 0.85777 0.45002 0.9166 0.0
H869 H 0.88558 0.36483 0.91469 0.0
H870 H 0.89503 0.32556 0.89411 0.0
H871 H 0.94636 0.36242 0.84659 0.0
H872 H 0.93693 0.40199 0.86668 0.0
H873 H 0.97021 0.44459 0.99661 0.0
H874 H 0.94151 0.42468 0.96814 0.0
H875 H 0.94098 0.48992 0.92293 0.0
H876 H 0.96966 0.50995 0.9516 0.0
H877 H 0.94209 0.41497 0.91626 0.0
H878 H 0.87852 0.49781 0.90881 0.0
H879 H 0.86913 0.53638 0.93081 0.0
H880 H 0.88911 0.50258 0.99935 0.0
H881 H 0.89829 0.46376 0.97779 0.0
C882 C 0.83815 0.38614 0.86043 0.0
C883 C 0.81941 0.37821 0.87646 0.0
C884 C 0.85795 0.40002 0.86934 0.0
C885 C 0.85918 0.40632 0.89434 0.0
C886 C 0.8402 0.39891 0.9102 0.0
C887 C 0.82058 0.38489 0.90138 0.0
C888 C 0.88052 0.41995 0.90447 0.0
C889 C 0.87626 0.4425 0.91624 0.0
C890 C 0.90465 0.41018 0.90396 0.0
C891 C 0.91032 0.38639 0.89196 0.0
C892 C 0.89871 0.36459 0.8997 0.0
C893 C 0.90409 0.34227 0.88816 0.0
C894 C 0.92122 0.34151 0.869 0.0
C895 C 0.93305 0.36305 0.86139 0.0
C896 C 0.9277 0.38542 0.87285 0.0
C897 C 0.96424 0.4545 0.98038 0.0
C898 C 0.97224 0.47867 0.97607 0.0
C899 C 0.94803 0.44308 0.96407 0.0
C900 C 0.93918 0.45584 0.94346 0.0
C901 C 0.94771 0.47976 0.9387 0.0
C902 C 0.96417 0.4911 0.95492 0.0
C903 C 0.91921 0.44481 0.92859 0.0
C904 C 0.92372 0.42278 0.916 0.0
C905 C 0.89528 0.45499 0.92839 0.0
C906 C 0.88936 0.47803 0.94165 0.0
C907 C 0.88083 0.49863 0.92858 0.0
C908 C 0.87555 0.52052 0.94097 0.0
C909 C 0.87862 0.52196 0.96645 0.0
C910 C 0.88684 0.50147 0.97961 0.0
C911 C 0.89211 0.47954 0.96731 0.0
H912 H 0.87456 0.53893 0.976 0.0
H913 H 0.92537 0.32421 0.86009 0.0
H914 H 0.69558 0.65394 0.32816 0.0
H915 H 0.66223 0.63216 0.34985 0.0
H916 H 0.71173 0.6162 0.40974 0.0
H917 H 0.74479 0.63858 0.38853 0.0
H918 H 0.68022 0.57443 0.38922 0.0
H919 H 0.67829 0.65795 0.42069 0.0
H920 H 0.67552 0.70297 0.41626 0.0
H921 H 0.6047 0.69556 0.38197 0.0
H922 H 0.60723 0.65046 0.38588 0.0
H923 H 0.60926 0.54101 0.49239 0.0
H924 H 0.63811 0.55872 0.46283 0.0
H925 H 0.5773 0.58702 0.42032 0.0
H926 H 0.54845 0.57038 0.45095 0.0
H927 H 0.61183 0.62143 0.42713 0.0
H928 H 0.6107 0.53789 0.40192 0.0
H929 H 0.61361 0.49293 0.40561 0.0
H930 H 0.68925 0.49922 0.42761 0.0
H931 H 0.68679 0.54435 0.42435 0.0
C932 C 0.69925 0.6457 0.34593 0.0
C933 C 0.7226 0.64794 0.35681 0.0
C934 C 0.68028 0.63332 0.35825 0.0
C935 C 0.68462 0.62261 0.38133 0.0
C936 C 0.70811 0.62431 0.39191 0.0
C937 C 0.72687 0.63716 0.37988 0.0
C938 C 0.66452 0.61023 0.39493 0.0
C939 C 0.66531 0.58461 0.39769 0.0
C940 C 0.6448 0.62362 0.40528 0.0
C941 C 0.64319 0.65077 0.40311 0.0
C942 C 0.66228 0.66588 0.41189 0.0
C943 C 0.66071 0.69144 0.40956 0.0
C944 C 0.64001 0.70212 0.3987 0.0
C945 C 0.62078 0.68726 0.39027 0.0
C946 C 0.62228 0.6617 0.39253 0.0
C947 C 0.60205 0.55079 0.47659 0.0
C948 C 0.57657 0.55373 0.47344 0.0
C949 C 0.61854 0.56078 0.45964 0.0
C950 C 0.60988 0.57382 0.43911 0.0
C951 C 0.58438 0.57675 0.43587 0.0
C952 C 0.56787 0.56683 0.453 0.0
C953 C 0.62766 0.58547 0.42194 0.0
C954 C 0.62651 0.61104 0.41851 0.0
C955 C 0.64703 0.57195 0.41094 0.0
C956 C 0.64855 0.54468 0.41287 0.0
C957 C 0.62798 0.5298 0.40759 0.0
C958 C 0.62954 0.50422 0.40963 0.0
C959 C 0.65161 0.49322 0.41683 0.0
C960 C 0.67217 0.50777 0.422 0.0
C961 C 0.67071 0.53337 0.42001 0.0
H962 H 0.65277 0.47341 0.4184 0.0
H963 H 0.63882 0.72191 0.39693 0.0
H964 H 0.21001 0.32568 0.12116 0.0
H965 H 0.19201 0.3602 0.09917 0.0
H966 H 0.12192 0.34569 0.13364 0.0
H967 H 0.13893 0.30955 0.15343 0.0
H968 H 0.11332 0.35718 0.09003 0.0
H969 H 0.1658 0.39542 0.15223 0.0
H970 H 0.20571 0.40163 0.17307 0.0
H971 H 0.23847 0.4238 0.10466 0.0
H972 H 0.1987 0.41807 0.08354 0.0
H973 H 0.05596 0.47199 0.0942 0.0
H974 H 0.08494 0.44062 0.10801 0.0
H975 H 0.12373 0.44566 0.03907 0.0
H976 H 0.09399 0.47637 0.02457 0.0
H977 H 0.15191 0.43993 0.09371 0.0
H978 H 0.09626 0.40384 0.03282 0.0
H979 H 0.05508 0.39839 0.01449 0.0
H980 H 0.02728 0.3721 0.08362 0.0
H981 H 0.06824 0.37781 0.10245 0.0
C982 C 0.19063 0.32942 0.12376 0.0
C983 C 0.17608 0.31462 0.13936 0.0
C984 C 0.18045 0.3496 0.11146 0.0
C985 C 0.15569 0.35607 0.11512 0.0
C986 C 0.14111 0.34128 0.13053 0.0
C987 C 0.15106 0.32071 0.14225 0.0
C988 C 0.14465 0.37799 0.10287 0.0
C989 C 0.12186 0.37521 0.09098 0.0
C990 C 0.15586 0.4016 0.1034 0.0
C991 C 0.1794 0.40613 0.11631 0.0
C992 C 0.18153 0.40171 0.14169 0.0
C993 C 0.2041 0.40519 0.15355 0.0
C994 C 0.22462 0.4131 0.14021 0.0
C995 C 0.22255 0.41778 0.11501 0.0
C996 C 0.19999 0.41455 0.10311 0.0
C997 C 0.07094 0.46682 0.08212 0.0
C998 C 0.07281 0.47683 0.05835 0.0
C999 C 0.08752 0.44899 0.0901 0.0
C1000 C 0.10639 0.44092 0.07454 0.0
C1001 C 0.10937 0.4519 0.05138 0.0
C1002 C 0.0925 0.46958 0.04321 0.0
C1003 C 0.12063 0.41889 0.08159 0.0
C1004 C 0.14381 0.42172 0.09251 0.0
C1005 C 0.10972 0.39533 0.08045 0.0
C1006 C 0.08522 0.39148 0.06908 0.0
C1007 C 0.0813 0.39711 0.04415 0.0
C1008 C 0.05802 0.39393 0.03367 0.0
C1009 C 0.03856 0.38496 0.0479 0.0
C1010 C 0.04236 0.37907 0.07263 0.0
C1011 C 0.06561 0.38226 0.08321 0.0
H1012 H 0.02054 0.38252 0.03975 0.0
H1013 H 0.24212 0.41559 0.14938 0.0
H1014 H 0.65739 0.19155 0.84781 0.0
H1015 H 0.64295 0.15502 0.86965 0.0
H1016 H 0.65856 0.19006 0.93906 0.0
H1017 H 0.67292 0.22687 0.91729 0.0
H1018 H 0.67201 0.14092 0.93894 0.0
H1019 H 0.60115 0.18932 0.91864 0.0
H1020 H 0.57352 0.21282 0.89141 0.0
H1021 H 0.56086 0.14826 0.84777 0.0
H1022 H 0.58872 0.12444 0.87454 0.0
H1023 H 0.58602 0.07204 0.01299 0.0
H1024 H 0.61469 0.10004 0.99221 0.0
H1025 H 0.59695 0.06633 0.9226 0.0
H1026 H 0.56805 0.03866 0.9434 0.0
H1027 H 0.5861 0.11426 0.92303 0.0
H1028 H 0.66329 0.06906 0.93796 0.0
H1029 H 0.69293 0.04606 0.96353 0.0
H1030 H 0.69163 0.10355 0.01758 0.0
H1031 H 0.66272 0.12733 0.99177 0.0
C1032 C 0.65768 0.19154 0.86773 0.0
C1033 C 0.666 0.21224 0.88082 0.0
C1034 C 0.64955 0.1706 0.88017 0.0
C1035 C 0.6494 0.16996 0.90597 0.0
C1036 C 0.65854 0.19019 0.91913 0.0
C1037 C 0.66673 0.21119 0.90667 0.0
C1038 C 0.63856 0.14861 0.91908 0.0
C1039 C 0.65314 0.13523 0.93566 0.0
C1040 C 0.61408 0.14092 0.91451 0.0
C1041 C 0.59721 0.15516 0.89845 0.0
C1042 C 0.59263 0.18018 0.90312 0.0
C1043 C 0.5769 0.19355 0.88779 0.0
C1044 C 0.56549 0.18206 0.86784 0.0
C1045 C 0.56974 0.15714 0.86321 0.0
C1046 C 0.58548 0.1437 0.87847 0.0
C1047 C 0.58916 0.06996 0.99343 0.0
C1048 C 0.57513 0.05319 0.97973 0.0
C1049 C 0.60554 0.08592 0.98154 0.0
C1050 C 0.60799 0.08532 0.95581 0.0
C1051 C 0.59538 0.06713 0.94245 0.0
C1052 C 0.57897 0.05129 0.95431 0.0
C1053 C 0.61967 0.1062 0.94258 0.0
C1054 C 0.60506 0.11975 0.92615 0.0
C1055 C 0.644 0.11405 0.94733 0.0
C1056 C 0.66071 0.09972 0.96318 0.0
C1057 C 0.66925 0.07666 0.95539 0.0
C1058 C 0.686 0.06358 0.96983 0.0
C1059 C 0.6939 0.07318 0.99232 0.0
C1060 C 0.6854 0.09609 1.00021 0.0
C1061 C 0.66902 0.10948 0.98559 0.0
H1062 H 0.70664 0.0629 0.00358 0.0
H1063 H 0.55332 0.19244 0.85599 0.0
H1064 H 0.83252 0.84304 0.38488 0.0
H1065 H 0.85246 0.87809 0.40547 0.0
H1066 H 0.92066 0.83775 0.40833 0.0
H1067 H 0.90103 0.803 0.38722 0.0
H1068 H 0.90157 0.86247 0.45537 0.0
H1069 H 0.92003 0.8762 0.36818 0.0
H1070 H 0.9077 0.88228 0.32496 0.0
H1071 H 0.86467 0.94514 0.34562 0.0
H1072 H 0.87646 0.93917 0.38906 0.0
H1073 H 0.99907 0.93918 0.48472 0.0
H1074 H 0.97089 0.91011 0.46546 0.0
H1075 H 0.92174 0.96961 0.44692 0.0
H1076 H 0.95107 0.99906 0.46486 0.0
H1077 H 0.92418 0.93849 0.41 0.0
H1078 H 0.90816 0.93027 0.49465 0.0
H1079 H 0.91724 0.92589 0.53883 0.0
H1080 H 0.94992 0.85528 0.52561 0.0
H1081 H 0.94139 0.85938 0.48125 0.0
C1082 C 0.85176 0.84173 0.38995 0.0
C1083 C 0.86531 0.82043 0.38446 0.0
C1084 C 0.86308 0.8617 0.40163 0.0
C1085 C 0.88797 0.86041 0.40838 0.0
C1086 C 0.90142 0.83902 0.40326 0.0
C1087 C 0.89026 0.81929 0.39113 0.0
C1088 C 0.90024 0.88139 0.42066 0.0
C1089 C 0.90668 0.87906 0.44549 0.0
C1090 C 0.90579 0.90341 0.40798 0.0
C1091 C 0.89886 0.90704 0.38188 0.0
C1092 C 0.90773 0.89115 0.36354 0.0
C1093 C 0.90089 0.89461 0.339 0.0
C1094 C 0.88534 0.91403 0.33256 0.0
C1095 C 0.87667 0.93007 0.35064 0.0
C1096 C 0.88343 0.92666 0.37522 0.0
C1097 C 0.9823 0.94611 0.47647 0.0
C1098 C 0.97677 0.97131 0.47703 0.0
C1099 C 0.96606 0.92944 0.46567 0.0
C1100 C 0.94378 0.93753 0.4554 0.0
C1101 C 0.93859 0.96285 0.45513 0.0
C1102 C 0.95507 0.97962 0.46577 0.0
C1103 C 0.92642 0.9193 0.44465 0.0
C1104 C 0.91885 0.92212 0.42012 0.0
C1105 C 0.91926 0.89795 0.45783 0.0
C1106 C 0.92425 0.89521 0.48456 0.0
C1107 C 0.91742 0.91386 0.50112 0.0
C1108 C 0.92246 0.91143 0.52621 0.0
C1109 C 0.93418 0.89033 0.53502 0.0
C1110 C 0.94084 0.8716 0.51876 0.0
C1111 C 0.93587 0.87396 0.49363 0.0
H1112 H 0.93808 0.88848 0.55445 0.0
H1113 H 0.88007 0.91668 0.31355 0.0
H1114 H 0.35222 0.69936 0.6713 0.0
H1115 H 0.37263 0.66508 0.65045 0.0
H1116 H 0.38561 0.71139 0.58718 0.0
H1117 H 0.36388 0.74518 0.60756 0.0
H1118 H 0.37601 0.6683 0.57151 0.0
H1119 H 0.43056 0.69907 0.63311 0.0
H1120 H 0.44365 0.71161 0.67468 0.0
H1121 H 0.43218 0.63798 0.70095 0.0
H1122 H 0.41871 0.62508 0.65961 0.0
H1123 H 0.4836 0.60679 0.52628 0.0
H1124 H 0.4535 0.6356 0.54351 0.0
H1125 H 0.42965 0.57992 0.59488 0.0
H1126 H 0.45984 0.55115 0.57761 0.0
H1127 H 0.44283 0.62537 0.6164 0.0
H1128 H 0.39421 0.59496 0.5498 0.0
H1129 H 0.38403 0.5851 0.50686 0.0
H1130 H 0.38929 0.66147 0.48752 0.0
H1131 H 0.39976 0.67187 0.53037 0.0
C1132 C 0.35929 0.70205 0.65286 0.0
C1133 C 0.35668 0.72484 0.64103 0.0
C1134 C 0.37106 0.68254 0.641 0.0
C1135 C 0.38124 0.68574 0.61741 0.0
C1136 C 0.378 0.70839 0.60536 0.0
C1137 C 0.36568 0.72772 0.617 0.0
C1138 C 0.39596 0.66584 0.60568 0.0
C1139 C 0.39082 0.65915 0.58124 0.0
C1140 C 0.4151 0.65353 0.61844 0.0
C1141 C 0.42331 0.66119 0.64332 0.0
C1142 C 0.43064 0.6856 0.6478 0.0
C1143 C 0.43816 0.69276 0.67131 0.0
C1144 C 0.43866 0.67562 0.69046 0.0
C1145 C 0.43172 0.65126 0.68611 0.0
C1146 C 0.42414 0.644 0.66264 0.0
C1147 C 0.47152 0.60064 0.54091 0.0
C1148 C 0.47351 0.57672 0.55037 0.0
C1149 C 0.45437 0.61703 0.5507 0.0
C1150 C 0.43922 0.60982 0.57033 0.0
C1151 C 0.44101 0.58576 0.57959 0.0
C1152 C 0.458 0.56927 0.56958 0.0
C1153 C 0.42293 0.62803 0.5823 0.0
C1154 C 0.42791 0.63447 0.60675 0.0
C1155 C 0.40418 0.64052 0.56928 0.0
C1156 C 0.39788 0.63421 0.54342 0.0
C1157 C 0.39332 0.60969 0.53646 0.0
C1158 C 0.38748 0.60399 0.51209 0.0
C1159 C 0.38604 0.62263 0.49447 0.0
C1160 C 0.3904 0.64704 0.50119 0.0
C1161 C 0.39625 0.65286 0.52555 0.0
H1162 H 0.38152 0.61817 0.47561 0.0
H1163 H 0.44449 0.6812 0.70865 0.0
H1164 H 0.00494 0.96224 0.81543 0.0
H1165 H 0.02064 0.97016 0.77366 0.0
H1166 H 0.94667 0.96544 0.74519 0.0
H1167 H 0.931 0.95783 0.78661 0.0
H1168 H 0.98255 0.93917 0.71702 0.0
H1169 H 0.96962 0.01975 0.75582 0.0
H1170 H 0.9778 0.05086 0.78779 0.0
H1171 H 0.0547 0.0502 0.76946 0.0
H1172 H 0.04698 0.0188 0.73763 0.0
H1173 H 0.9563 0.00846 0.61311 0.0
H1174 H 0.96066 0.99095 0.65427 0.0
H1175 H 0.03859 0.00606 0.65249 0.0
H1176 H 0.0342 0.02384 0.61119 0.0
H1177 H 0.0132 0.02265 0.69617 0.0
H1178 H 0.02487 0.94965 0.65072 0.0
H1179 H 0.01677 0.91946 0.61788 0.0
H1180 H 0.94525 0.90485 0.64815 0.0
H1181 H 0.95268 0.93526 0.68093 0.0
C1182 C 0.99214 0.96279 0.80017 0.0
C1183 C 0.96676 0.95969 0.8042 0.0
C1184 C 0.00109 0.9673 0.77641 0.0
C1185 C 0.98478 0.96836 0.7564 0.0
C1186 C 0.95955 0.96461 0.76038 0.0
C1187 C 0.95061 0.96049 0.78405 0.0
C1188 C 0.99338 0.97449 0.73129 0.0
C1189 C 0.98948 0.95733 0.71243 0.0
C1190 C 0.00319 0.99789 0.72547 0.0
C1191 C 0.00777 0.01674 0.74458 0.0
C1192 C 0.98829 0.02608 0.75877 0.0
C1193 C 0.99284 0.0438 0.77684 0.0
C1194 C 0.01677 0.05245 0.78071 0.0
C1195 C 0.03618 0.04344 0.76648 0.0
C1196 C 0.03173 0.0257 0.74842 0.0
C1197 C 0.9744 0.00782 0.62146 0.0
C1198 C 0.99502 0.01709 0.60897 0.0
C1199 C 0.97689 0.99774 0.64487 0.0
C1200 C 1.0 0.997 0.65635 0.0
C1201 C 0.02068 0.00629 0.64392 0.0
C1202 C 0.01822 0.01616 0.62027 0.0
C1203 C 0.00172 0.98755 0.68182 0.0
C1204 C 0.00724 0.00415 0.70076 0.0
C1205 C 0.9938 0.96348 0.68773 0.0
C1206 C 0.98932 0.94483 0.66828 0.0
C1207 C 0.00735 0.94012 0.65031 0.0
C1208 C 0.00289 0.92295 0.6317 0.0
C1209 C 0.98052 0.91026 0.63093 0.0
C1210 C 0.96258 0.91468 0.64879 0.0
C1211 C 0.96692 0.93185 0.66742 0.0
H1212 H 0.9771 0.897 0.6165 0.0
H1213 H 0.02025 0.06617 0.7947 0.0
H1214 H 0.59555 0.09388 0.28563 0.0
H1215 H 0.58128 0.08481 0.24423 0.0
H1216 H 0.50645 0.09942 0.26625 0.0
H1217 H 0.52059 0.10776 0.30833 0.0
H1218 H 0.50922 0.05888 0.23687 0.0
H1219 H 0.5357 0.14143 0.23199 0.0
H1220 H 0.56286 0.17714 0.23879 0.0
H1221 H 0.61956 0.14293 0.19582 0.0
H1222 H 0.59289 0.10683 0.18906 0.0
H1223 H 0.49298 0.03342 0.10837 0.0
H1224 H 0.48951 0.05742 0.14644 0.0
H1225 H 0.56867 0.05626 0.15365 0.0
H1226 H 0.57194 0.03402 0.115 0.0
H1227 H 0.55194 0.09953 0.16714 0.0
H1228 H 0.5276 0.01291 0.18384 0.0
H1229 H 0.49997 0.97744 0.17714 0.0
H1230 H 0.43762 0.02162 0.19694 0.0
H1231 H 0.46489 0.05739 0.20365 0.0
C1232 C 0.57599 0.09481 0.28188 0.0
C1233 C 0.55922 0.10151 0.30037 0.0
C1234 C 0.56788 0.08994 0.25806 0.0
C1235 C 0.54284 0.0919 0.25201 0.0
C1236 C 0.52588 0.09802 0.27047 0.0
C1237 C 0.53401 0.10291 0.29445 0.0
C1238 C 0.53484 0.08729 0.2263 0.0
C1239 C 0.51811 0.06817 0.22159 0.0
C1240 C 0.54618 0.09957 0.20632 0.0
C1241 C 0.56228 0.12136 0.21008 0.0
C1242 C 0.554 0.14145 0.22409 0.0
C1243 C 0.56931 0.16178 0.22794 0.0
C1244 C 0.59292 0.1623 0.21776 0.0
C1245 C 0.60125 0.14251 0.20368 0.0
C1246 C 0.58603 0.12213 0.1998 0.0
C1247 C 0.5095 0.03931 0.11756 0.0
C1248 C 0.53262 0.03238 0.10843 0.0
C1249 C 0.50758 0.05254 0.1396 0.0
C1250 C 0.52885 0.05851 0.15309 0.0
C1251 C 0.55197 0.05203 0.14359 0.0
C1252 C 0.55382 0.03913 0.12156 0.0
C1253 C 0.52768 0.07006 0.17784 0.0
C1254 C 0.54255 0.0907 0.18238 0.0
C1255 C 0.51448 0.05933 0.19759 0.0
C1256 C 0.49822 0.03777 0.19408 0.0
C1257 C 0.50799 0.01502 0.18674 0.0
C1258 C 0.4924 0.9949 0.18294 0.0
C1259 C 0.46705 0.9973 0.18659 0.0
C1260 C 0.45725 0.01981 0.19413 0.0
C1261 C 0.47275 0.04 0.19797 0.0
H1262 H 0.45501 0.98171 0.1836 0.0
H1263 H 0.60475 0.17805 0.22077 0.0
H1264 H 0.48261 0.53223 0.22327 0.0
H1265 H 0.5007 0.52228 0.26328 0.0
H1266 H 0.49138 0.59761 0.28631 0.0
H1267 H 0.47367 0.60773 0.24619 0.0
H1268 H 0.53388 0.57967 0.30348 0.0
H1269 H 0.4493 0.55318 0.30159 0.0
H1270 H 0.41341 0.5308 0.28509 0.0
H1271 H 0.45135 0.46222 0.29453 0.0
H1272 H 0.48763 0.48424 0.31076 0.0
H1273 H 0.50958 0.56055 0.43314 0.0
H1274 H 0.51368 0.5724 0.38979 0.0
H1275 H 0.53705 0.4988 0.372 0.0
H1276 H 0.53372 0.4872 0.41542 0.0
H1277 H 0.49178 0.51411 0.35107 0.0
H1278 H 0.57599 0.54064 0.35409 0.0
H1279 H 0.61355 0.56347 0.36567 0.0
H1280 H 0.57581 0.63191 0.35513 0.0
H1281 H 0.5382 0.60958 0.34289 0.0
C1282 C 0.48458 0.54668 0.23683 0.0
C1283 C 0.47653 0.57069 0.23173 0.0
C1284 C 0.49493 0.54099 0.25965 0.0
C1285 C 0.49699 0.55911 0.27794 0.0
C1286 C 0.48996 0.58334 0.27249 0.0
C1287 C 0.47984 0.58909 0.24957 0.0
C1288 C 0.50495 0.55254 0.3032 0.0
C1289 C 0.52455 0.56549 0.314 0.0
C1290 C 0.49312 0.53367 0.31673 0.0
C1291 C 0.47127 0.52038 0.30713 0.0
C1292 C 0.45005 0.53334 0.29998 0.0
C1293 C 0.42964 0.52072 0.2907 0.0
C1294 C 0.43013 0.49511 0.2887 0.0
C1295 C 0.45102 0.48206 0.29604 0.0
C1296 C 0.47151 0.4946 0.3053 0.0
C1297 C 0.51698 0.54739 0.42016 0.0
C1298 C 0.52191 0.52318 0.42758 0.0
C1299 C 0.5192 0.5541 0.39541 0.0
C1300 C 0.5258 0.5365 0.37773 0.0
C1301 C 0.53221 0.51271 0.3854 0.0
C1302 C 0.53028 0.50611 0.41015 0.0
C1303 C 0.52072 0.54125 0.35141 0.0
C1304 C 0.50136 0.52809 0.34049 0.0
C1305 C 0.53263 0.56004 0.33796 0.0
C1306 C 0.55423 0.57344 0.3478 0.0
C1307 C 0.57557 0.56055 0.35468 0.0
C1308 C 0.5969 0.57339 0.36122 0.0
C1309 C 0.59699 0.59907 0.3613 0.0
C1310 C 0.57569 0.61201 0.35509 0.0
C1311 C 0.55441 0.59929 0.34822 0.0
H1312 H 0.61367 0.60892 0.36581 0.0
H1313 H 0.4143 0.48537 0.28151 0.0
H1314 H 0.09684 0.42959 0.75816 0.0
H1315 H 0.07834 0.44012 0.79793 0.0
H1316 H 0.01014 0.45819 0.76167 0.0
H1317 H 0.0284 0.44697 0.72179 0.0
H1318 H 0.03441 0.49542 0.79765 0.0
H1319 H 0.00341 0.41293 0.79027 0.0
H1320 H 0.00682 0.36846 0.78217 0.0
H1321 H 0.05836 0.36119 0.84159 0.0
H1322 H 0.05555 0.40571 0.84981 0.0
H1323 H 0.99368 0.52673 0.91509 0.0
H1324 H 0.98925 0.50687 0.87483 0.0
H1325 H 0.04718 0.45603 0.89399 0.0
H1326 H 0.05027 0.47484 0.93463 0.0
H1327 H 0.01858 0.4342 0.86355 0.0
H1328 H 0.05775 0.51448 0.86557 0.0
H1329 H 0.05949 0.55907 0.87378 0.0
H1330 H 0.99862 0.5708 0.82478 0.0
H1331 H 0.99635 0.52621 0.81652 0.0
C1332 C 0.0779 0.4358 0.75872 0.0
C1333 C 0.06402 0.43757 0.73701 0.0
C1334 C 0.06734 0.44164 0.78138 0.0
C1335 C 0.04287 0.44973 0.78265 0.0
C1336 C 0.02901 0.45181 0.76099 0.0
C1337 C 0.03942 0.44544 0.73833 0.0
C1338 C 0.03239 0.45697 0.80667 0.0
C1339 C 0.0303 0.48208 0.81193 0.0
C1340 C 0.02772 0.43949 0.82534 0.0
C1341 C 0.02941 0.4127 0.82052 0.0
C1342 C 0.01565 0.40189 0.80147 0.0
C1343 C 0.01743 0.37667 0.79689 0.0
C1344 C 0.03283 0.36202 0.81133 0.0
C1345 C 0.04644 0.37256 0.83041 0.0
C1346 C 0.04473 0.39779 0.83506 0.0
C1347 C 0.00452 0.51053 0.91102 0.0
C1348 C 0.02205 0.50199 0.92789 0.0
C1349 C 0.00227 0.4994 0.88793 0.0
C1350 C 0.01841 0.4804 0.88104 0.0
C1351 C 0.03454 0.47067 0.89874 0.0
C1352 C 0.03631 0.48138 0.92199 0.0
C1353 C 0.02109 0.47281 0.85486 0.0
C1354 C 0.02194 0.44762 0.84916 0.0
C1355 C 0.02524 0.49026 0.83586 0.0
C1356 C 0.02668 0.51704 0.84068 0.0
C1357 C 0.04466 0.52658 0.85666 0.0
C1358 C 0.04575 0.55184 0.86131 0.0
C1359 C 0.02913 0.56775 0.84987 0.0
C1360 C 0.01144 0.55845 0.83368 0.0
C1361 C 0.01024 0.53319 0.82901 0.0
H1362 H 0.02999 0.5873 0.8535 0.0
H1363 H 0.03419 0.34249 0.80775 0.0
H1364 H 0.81552 0.0009 0.96041 0.0
H1365 H 0.77366 0.01645 0.96809 0.0
H1366 H 0.74513 0.9426 0.96259 0.0
H1367 H 0.78676 0.92701 0.95544 0.0
H1368 H 0.71756 0.98064 0.93571 0.0
H1369 H 0.75195 0.96136 0.01681 0.0
H1370 H 0.78371 0.96552 0.04897 0.0
H1371 H 0.77235 0.04364 0.05062 0.0
H1372 H 0.74079 0.03992 0.01821 0.0
H1373 H 0.61008 0.95633 0.0009 0.0
H1374 H 0.6517 0.95942 0.98411 0.0
H1375 H 0.65451 0.03608 0.00444 0.0
H1376 H 0.61258 0.03291 0.02127 0.0
H1377 H 0.69589 0.00846 0.01988 0.0
H1378 H 0.65176 0.02429 0.94734 0.0
H1379 H 0.61979 0.01931 0.91569 0.0
H1380 H 0.64904 0.94851 0.89672 0.0
H1381 H 0.68103 0.95287 0.92856 0.0
C1382 C 0.80023 0.98809 0.96077 0.0
C1383 C 0.80427 0.96277 0.95757 0.0
C1384 C 0.77643 0.99696 0.96511 0.0
C1385 C 0.75639 0.98064 0.9658 0.0
C1386 C 0.76037 0.95546 0.96198 0.0
C1387 C 0.78412 0.94657 0.95812 0.0
C1388 C 0.7313 0.98928 0.97178 0.0
C1389 C 0.71272 0.98679 0.95405 0.0
C1390 C 0.72531 0.99813 0.99546 0.0
C1391 C 0.74415 1.0004 0.01501 0.0
C1392 C 0.75635 0.97943 0.02394 0.0
C1393 C 0.7743 0.9817 0.04222 0.0
C1394 C 0.78008 0.00484 0.05181 0.0
C1395 C 0.76787 0.02574 0.04317 0.0
C1396 C 0.74993 0.02355 0.02487 0.0
C1397 C 0.61947 0.97392 0.00139 0.0
C1398 C 0.60813 0.99453 0.0119 0.0
C1399 C 0.64316 0.9757 0.99178 0.0
C1400 C 0.65608 0.99804 0.9928 0.0
C1401 C 0.64475 0.01876 0.00322 0.0
C1402 C 0.62078 0.01704 0.01255 0.0
C1403 C 0.68187 0.99884 0.98406 0.0
C1404 C 0.70065 0.00305 0.00128 0.0
C1405 C 0.68802 0.99167 0.95982 0.0
C1406 C 0.66888 0.98893 0.94044 0.0
C1407 C 0.65138 0.00761 0.93652 0.0
C1408 C 0.63322 0.00489 0.91853 0.0
C1409 C 0.63239 0.9836 0.90419 0.0
C1410 C 0.64973 0.96501 0.90782 0.0
C1411 C 0.66792 0.96762 0.92583 0.0
H1412 H 0.6183 0.98152 0.89027 0.0
H1413 H 0.79398 0.00657 0.06597 0.0
H1414 H 0.75248 0.09631 0.43297 0.0
H1415 H 0.79284 0.07877 0.44245 0.0
H1416 H 0.75971 0.00731 0.45214 0.0
H1417 H 0.71911 0.02478 0.44232 0.0
H1418 H 0.79434 0.02322 0.49079 0.0
H1419 H 0.79006 0.01204 0.40395 0.0
H1420 H 0.7819 0.02431 0.36107 0.0
H1421 H 0.83749 0.08031 0.36603 0.0
H1422 H 0.84573 0.06864 0.40909 0.0
H1423 H 0.91931 0.99118 0.5131 0.0
H1424 H 0.8788 0.9859 0.49334 0.0
H1425 H 0.88606 0.05779 0.46026 0.0
H1426 H 0.92633 0.06263 0.47934 0.0
H1427 H 0.86221 0.02894 0.42996 0.0
H1428 H 0.85801 0.04807 0.5179 0.0
H1429 H 0.86575 0.03912 0.56172 0.0
H1430 H 0.82608 0.97105 0.55525 0.0
H1431 H 0.81834 0.97952 0.51129 0.0
C1432 C 0.75376 0.0769 0.43727 0.0
C1433 C 0.73268 0.06191 0.43695 0.0
C1434 C 0.77682 0.06687 0.44251 0.0
C1435 C 0.77924 0.04172 0.44779 0.0
C1436 C 0.75819 0.02673 0.448 0.0
C1437 C 0.7351 0.0367 0.44234 0.0
C1438 C 0.80393 0.03149 0.45328 0.0
C1439 C 0.80909 0.02381 0.47734 0.0
C1440 C 0.82315 0.03253 0.43578 0.0
C1441 C 0.81842 0.03952 0.40981 0.0
C1442 C 0.80043 0.02709 0.39596 0.0
C1443 C 0.79581 0.03392 0.37161 0.0
C1444 C 0.80915 0.0531 0.36084 0.0
C1445 C 0.82717 0.06545 0.3744 0.0
C1446 C 0.83185 0.05871 0.39877 0.0
C1447 C 0.91245 0.00537 0.5009 0.0
C1448 C 0.9258 0.02724 0.49751 0.0
C1449 C 0.8893 0.00248 0.4898 0.0
C1450 C 0.87915 0.02165 0.47562 0.0
C1451 C 0.89341 0.04271 0.47102 0.0
C1452 C 0.91641 0.04551 0.48194 0.0
C1453 C 0.85291 0.02165 0.46778 0.0
C1454 C 0.84737 0.0275 0.44323 0.0
C1455 C 0.83339 0.01926 0.48492 0.0
C1456 C 0.83787 0.01427 0.51131 0.0
C1457 C 0.85106 0.03114 0.52582 0.0
C1458 C 0.85544 0.02616 0.55066 0.0
C1459 C 0.84648 0.00449 0.56124 0.0
C1460 C 0.83306 0.98779 0.54701 0.0
C1461 C 0.82867 0.99267 0.52214 0.0
H1462 H 0.84989 0.00066 0.58048 0.0
H1463 H 0.80554 0.05836 0.34199 0.0
H1464 H 0.29595 0.55992 0.11814 0.0
H1465 H 0.2545 0.54521 0.10805 0.0
H1466 H 0.27591 0.53743 0.03202 0.0
H1467 H 0.31713 0.55251 0.04198 0.0
H1468 H 0.23592 0.56489 0.03658 0.0
H1469 H 0.264 0.48777 0.07051 0.0
H1470 H 0.28247 0.46272 0.10347 0.0
H1471 H 0.2224 0.4807 0.15146 0.0
H1472 H 0.20383 0.50636 0.11897 0.0
H1473 H 0.13261 0.51759 0.98334 0.0
H1474 H 0.17385 0.51526 0.00096 0.0
H1475 H 0.14381 0.52752 0.07335 0.0
H1476 H 0.10213 0.52916 0.05571 0.0
H1477 H 0.18688 0.49724 0.07366 0.0
H1478 H 0.16047 0.57563 0.04322 0.0
H1479 H 0.14229 0.60408 0.01294 0.0
H1480 H 0.1992 0.58609 0.96122 0.0
H1481 H 0.21749 0.55721 0.99108 0.0
C1482 C 0.29192 0.55451 0.0994 0.0
C1483 C 0.30963 0.55751 0.08078 0.0
C1484 C 0.26826 0.54608 0.09366 0.0
C1485 C 0.26211 0.54018 0.06928 0.0
C1486 C 0.28022 0.54197 0.05094 0.0
C1487 C 0.30373 0.55061 0.05661 0.0
C1488 C 0.2363 0.53466 0.06223 0.0
C1489 C 0.22541 0.54981 0.04443 0.0
C1490 C 0.22218 0.5157 0.07329 0.0
C1491 C 0.2327 0.49929 0.09239 0.0
C1492 C 0.2548 0.48654 0.08814 0.0
C1493 C 0.26533 0.47228 0.10677 0.0
C1494 C 0.25377 0.47038 0.12964 0.0
C1495 C 0.23145 0.48239 0.1338 0.0
C1496 C 0.2209 0.49678 0.11528 0.0
C1497 C 0.13474 0.51914 0.00309 0.0
C1498 C 0.11436 0.52392 0.01817 0.0
C1499 C 0.15827 0.51773 0.01314 0.0
C1500 C 0.1619 0.52174 0.03837 0.0
C1501 C 0.14137 0.52444 0.05382 0.0
C1502 C 0.11764 0.52549 0.04375 0.0
C1503 C 0.18706 0.527 0.04749 0.0
C1504 C 0.19761 0.51212 0.06577 0.0
C1505 C 0.20096 0.54649 0.0372 0.0
C1506 C 0.19021 0.56409 0.0193 0.0
C1507 C 0.169 0.57762 0.02533 0.0
C1508 C 0.15869 0.59383 0.00825 0.0
C1509 C 0.16955 0.59685 0.98515 0.0
C1510 C 0.19079 0.58371 0.97911 0.0
C1511 C 0.20115 0.56742 0.99611 0.0
H1512 H 0.16153 0.60941 0.97195 0.0
H1513 H 0.26199 0.45939 0.14405 0.0
H1514 H 0.23327 0.51111 0.60861 0.0
H1515 H 0.27193 0.52829 0.59276 0.0
H1516 H 0.30047 0.45495 0.5831 0.0
H1517 H 0.26203 0.43774 0.5988 0.0
H1518 H 0.31972 0.52607 0.60635 0.0
H1519 H 0.33279 0.45189 0.53065 0.0
H1520 H 0.3072 0.42499 0.50453 0.0
H1521 H 0.24691 0.4756 0.51056 0.0
H1522 H 0.27224 0.50297 0.5364 0.0
H1523 H 0.44213 0.51311 0.56105 0.0
H1524 H 0.40138 0.5145 0.58001 0.0
H1525 H 0.36983 0.53634 0.51051 0.0
H1526 H 0.4106 0.53426 0.49147 0.0
H1527 H 0.34879 0.49721 0.52489 0.0
H1528 H 0.3526 0.57694 0.56839 0.0
H1529 H 0.3711 0.60937 0.59418 0.0
H1530 H 0.39253 0.55533 0.64759 0.0
H1531 H 0.37305 0.52271 0.62259 0.0
C1532 C 0.24791 0.49869 0.60335 0.0
C1533 C 0.2445 0.47306 0.60468 0.0
C1534 C 0.26996 0.50852 0.59428 0.0
C1535 C 0.28893 0.4929 0.58638 0.0
C1536 C 0.28589 0.46735 0.5886 0.0
C1537 C 0.26389 0.45753 0.59753 0.0
C1538 C 0.31166 0.50308 0.5751 0.0
C1539 C 0.32604 0.51983 0.58849 0.0
C1540 C 0.31963 0.49555 0.55151 0.0
C1541 C 0.30437 0.47937 0.53564 0.0
C1542 C 0.31411 0.45734 0.5263 0.0
C1543 C 0.29965 0.442 0.51156 0.0
C1544 C 0.27542 0.44855 0.50595 0.0
C1545 C 0.26565 0.4705 0.51499 0.0
C1546 C 0.28005 0.48592 0.5297 0.0
C1547 C 0.42664 0.51932 0.55017 0.0
C1548 C 0.42945 0.52377 0.52491 0.0
C1549 C 0.40328 0.52016 0.56102 0.0
C1550 C 0.38237 0.52562 0.54677 0.0
C1551 C 0.3856 0.53203 0.52192 0.0
C1552 C 0.40888 0.5309 0.51104 0.0
C1553 C 0.35728 0.51995 0.55629 0.0
C1554 C 0.34243 0.50377 0.54261 0.0
C1555 C 0.34861 0.52849 0.57926 0.0
C1556 C 0.36186 0.54745 0.59347 0.0
C1557 C 0.36153 0.57199 0.5855 0.0
C1558 C 0.37201 0.59041 0.60005 0.0
C1559 C 0.3833 0.58441 0.62234 0.0
C1560 C 0.38389 0.55996 0.63027 0.0
C1561 C 0.37295 0.54153 0.61603 0.0
H1562 H 0.39144 0.59871 0.63352 0.0
H1563 H 0.26425 0.43663 0.49456 0.0
H1564 H 0.96193 0.81865 0.00688 0.0
H1565 H 0.96907 0.77713 0.02352 0.0
H1566 H 0.97646 0.74907 0.94974 0.0
H1567 H 0.96948 0.79017 0.93314 0.0
H1568 H 0.9444 0.72114 0.98064 0.0
H1569 H 0.02586 0.76068 0.98237 0.0
H1570 H 0.05533 0.79205 0.9968 0.0
H1571 H 0.04286 0.76979 0.07157 0.0
H1572 H 0.01303 0.73851 0.05757 0.0
H1573 H 0.01425 0.61851 0.96007 0.0
H1574 H 0.99708 0.65963 0.96449 0.0
H1575 H 0.0039 0.65418 0.04326 0.0
H1576 H 0.02179 0.61288 0.03888 0.0
H1577 H 0.02176 0.69897 0.02378 0.0
H1578 H 0.94848 0.6537 0.02253 0.0
H1579 H 0.91951 0.62121 0.00964 0.0
H1580 H 0.91472 0.65359 0.93775 0.0
H1581 H 0.94403 0.68599 0.95007 0.0
C1582 C 0.96511 0.80356 0.99429 0.0
C1583 C 0.96537 0.80763 0.96873 0.0
C1584 C 0.96919 0.77994 0.0038 0.0
C1585 C 0.97324 0.76009 0.98782 0.0
C1586 C 0.9733 0.76415 0.96235 0.0
C1587 C 0.96955 0.78768 0.9529 0.0
C1588 C 0.97772 0.73489 0.99712 0.0
C1589 C 0.96123 0.71626 0.99021 0.0
C1590 C 0.99908 0.72871 0.01066 0.0
C1591 C 0.01693 0.74756 0.01896 0.0
C1592 C 0.02919 0.76267 0.0019 0.0
C1593 C 0.04601 0.78039 0.01 0.0
C1594 C 0.05088 0.78299 0.0351 0.0
C1595 C 0.03901 0.76782 0.05214 0.0
C1596 C 0.02214 0.7501 0.04414 0.0
C1597 C 0.01202 0.62605 0.97838 0.0
C1598 C 0.01896 0.61247 0.99919 0.0
C1599 C 0.00206 0.64946 0.98089 0.0
C1600 C 0.9989 0.65985 0.00427 0.0
C1601 C 0.00603 0.64643 0.02515 0.0
C1602 C 0.01595 0.6228 0.02264 0.0
C1603 C 0.98906 0.68516 0.00611 0.0
C1604 C 0.00447 0.70384 0.01507 0.0
C1605 C 0.96649 0.69144 0.99482 0.0
C1606 C 0.94853 0.67225 0.98724 0.0
C1607 C 0.94136 0.65379 0.00393 0.0
C1608 C 0.92487 0.6354 0.99673 0.0
C1609 C 0.91528 0.63534 0.97289 0.0
C1610 C 0.92215 0.65369 0.95622 0.0
C1611 C 0.93868 0.6721 0.96333 0.0
H1612 H 0.90252 0.62108 0.96734 0.0
H1613 H 0.06393 0.7967 0.04133 0.0
H1614 H 0.45312 0.74842 0.10959 0.0
H1615 H 0.45697 0.78964 0.09214 0.0
H1616 H 0.45538 0.75919 0.01894 0.0
H1617 H 0.45148 0.71761 0.03642 0.0
H1618 H 0.49367 0.79404 0.02726 0.0
H1619 H 0.40692 0.78865 0.03536 0.0
H1620 H 0.36761 0.77906 0.0559 0.0
H1621 H 0.38371 0.83208 0.11214 0.0
H1622 H 0.42331 0.84173 0.09216 0.0
H1623 H 0.50509 0.92246 0.99889 0.0
H1624 H 0.48655 0.88115 0.99615 0.0
H1625 H 0.47316 0.88192 0.07426 0.0
H1626 H 0.49096 0.92291 0.07702 0.0
H1627 H 0.43579 0.8605 0.05068 0.0
H1628 H 0.52551 0.85879 0.04775 0.0
H1629 H 0.56635 0.86653 0.02954 0.0
H1630 H 0.54599 0.82511 0.96549 0.0
H1631 H 0.50474 0.81772 0.98302 0.0
C1632 C 0.45372 0.75047 0.08979 0.0
C1633 C 0.45213 0.72984 0.07435 0.0
C1634 C 0.45568 0.77402 0.07984 0.0
C1635 C 0.45616 0.77744 0.05426 0.0
C1636 C 0.45485 0.75689 0.03872 0.0
C1637 C 0.45259 0.73324 0.0487 0.0
C1638 C 0.45895 0.8026 0.04421 0.0
C1639 C 0.48072 0.80855 0.03171 0.0
C1640 C 0.44208 0.82141 0.05024 0.0
C1641 C 0.41815 0.81585 0.06227 0.0
C1642 C 0.40216 0.79816 0.05219 0.0
C1643 C 0.37981 0.79273 0.06373 0.0
C1644 C 0.37317 0.80494 0.08532 0.0
C1645 C 0.38886 0.82264 0.0954 0.0
C1646 C 0.41125 0.82814 0.08394 0.0
C1647 C 0.49744 0.91404 0.01525 0.0
C1648 C 0.49934 0.92581 0.03816 0.0
C1649 C 0.4871 0.89043 0.01369 0.0
C1650 C 0.47872 0.87839 0.03499 0.0
C1651 C 0.47944 0.89082 0.05756 0.0
C1652 C 0.48974 0.9142 0.05914 0.0
C1653 C 0.47112 0.85217 0.0348 0.0
C1654 C 0.44837 0.84596 0.0454 0.0
C1655 C 0.48724 0.83314 0.0272 0.0
C1656 C 0.51185 0.83814 0.01648 0.0
C1657 C 0.52959 0.85166 0.02961 0.0
C1658 C 0.55284 0.85594 0.01944 0.0
C1659 C 0.55872 0.84642 0.99632 0.0
C1660 C 0.5414 0.83252 0.98337 0.0
C1661 C 0.51804 0.82839 0.99336 0.0
H1662 H 0.57674 0.84972 0.98849 0.0
H1663 H 0.35586 0.8007 0.09423 0.0
H1664 H 0.13789 0.28777 0.55891 0.0
H1665 H 0.12301 0.24746 0.54542 0.0
H1666 H 0.04833 0.27424 0.54724 0.0
H1667 H 0.06306 0.31455 0.56054 0.0
H1668 H 0.05363 0.23304 0.57377 0.0
H1669 H 0.07687 0.26084 0.49327 0.0
H1670 H 0.10451 0.27705 0.46114 0.0
H1671 H 0.15218 0.21478 0.47018 0.0
H1672 H 0.12503 0.19839 0.50267 0.0
H1673 H 0.98586 0.13713 0.52699 0.0
H1674 H 0.00698 0.17673 0.52809 0.0
H1675 H 0.07718 0.1398 0.5266 0.0
H1676 H 0.05597 0.09988 0.52527 0.0
H1677 H 0.07823 0.18395 0.50099 0.0
H1678 H 0.05447 0.15607 0.58056 0.0
H1679 H 0.02641 0.13922 0.612 0.0
H1680 H 0.97921 0.202 0.60407 0.0
H1681 H 0.0068 0.21905 0.57229 0.0
C1682 C 0.11835 0.28523 0.55587 0.0
C1683 C 0.10162 0.30428 0.56101 0.0
C1684 C 0.10988 0.26218 0.54817 0.0
C1685 C 0.08456 0.25784 0.54534 0.0
C1686 C 0.06794 0.27715 0.54944 0.0
C1687 C 0.07637 0.30014 0.55714 0.0
C1688 C 0.07508 0.23272 0.54045 0.0
C1689 C 0.05868 0.22252 0.55759 0.0
C1690 C 0.08252 0.21855 0.51993 0.0
C1691 C 0.09909 0.22857 0.50067 0.0
C1692 C 0.09341 0.25076 0.48864 0.0
C1693 C 0.10895 0.25994 0.4703 0.0
C1694 C 0.13014 0.247 0.46369 0.0
C1695 C 0.1358 0.22482 0.47537 0.0
C1696 C 0.12034 0.21558 0.49374 0.0
C1697 C 0.0058 0.13745 0.5264 0.0
C1698 C 0.0193 0.11548 0.52623 0.0
C1699 C 0.01784 0.16006 0.52712 0.0
C1700 C 0.04363 0.16115 0.52816 0.0
C1701 C 0.05726 0.13933 0.52603 0.0
C1702 C 0.04514 0.11657 0.52512 0.0
C1703 C 0.05585 0.18493 0.53362 0.0
C1704 C 0.07304 0.19464 0.51697 0.0
C1705 C 0.04914 0.1988 0.55458 0.0
C1706 C 0.03262 0.18874 0.5739 0.0
C1707 C 0.03803 0.1662 0.5854 0.0
C1708 C 0.02221 0.15662 0.6033 0.0
C1709 C 0.00101 0.16951 0.60999 0.0
C1710 C 0.99563 0.19203 0.59885 0.0
C1711 C 0.01136 0.20168 0.58091 0.0
H1712 H 0.98879 0.16206 0.62385 0.0
H1713 H 0.14213 0.25413 0.44946 0.0
H1714 H 0.55895 0.22871 0.47571 0.0
H1715 H 0.54442 0.26878 0.4899 0.0
H1716 H 0.61854 0.29718 0.48613 0.0
H1717 H 0.63324 0.25688 0.47236 0.0
H1718 H 0.59571 0.315 0.52561 0.0
H1719 H 0.57668 0.30808 0.43996 0.0
H1720 H 0.55936 0.28861 0.40284 0.0
H1721 H 0.48687 0.29236 0.43405 0.0
H1722 H 0.50381 0.31152 0.47154 0.0
H1723 H 0.56012 0.44262 0.51042 0.0
H1724 H 0.57788 0.40119 0.51032 0.0
H1725 H 0.50532 0.37017 0.51938 0.0
H1726 H 0.48771 0.41154 0.52017 0.0
H1727 H 0.52825 0.35392 0.47811 0.0
H1728 H 0.54777 0.35961 0.56425 0.0
H1729 H 0.56578 0.37564 0.60255 0.0
H1730 H 0.63765 0.37522 0.56968 0.0
H1731 H 0.62003 0.3588 0.53118 0.0
C1732 C 0.57215 0.24348 0.478 0.0
C1733 C 0.59719 0.23974 0.47271 0.0
C1734 C 0.56384 0.26638 0.48609 0.0
C1735 C 0.5803 0.28617 0.48861 0.0
C1736 C 0.60548 0.28222 0.48426 0.0
C1737 C 0.61386 0.2592 0.47641 0.0
C1738 C 0.57106 0.31115 0.49482 0.0
C1739 C 0.58118 0.32367 0.51503 0.0
C1740 C 0.55184 0.32234 0.48127 0.0
C1741 C 0.54155 0.31103 0.45865 0.0
C1742 C 0.55707 0.3046 0.43898 0.0
C1743 C 0.54732 0.29364 0.41786 0.0
C1744 C 0.52204 0.2892 0.41611 0.0
C1745 C 0.50645 0.29578 0.43545 0.0
C1746 C 0.51611 0.30671 0.45662 0.0
C1747 C 0.5482 0.42701 0.51379 0.0
C1748 C 0.52265 0.43029 0.51589 0.0
C1749 C 0.5583 0.40331 0.51344 0.0
C1750 C 0.54293 0.38255 0.51487 0.0
C1751 C 0.51754 0.3859 0.5183 0.0
C1752 C 0.5075 0.40953 0.51879 0.0
C1753 C 0.55261 0.35766 0.50915 0.0
C1754 C 0.54272 0.34525 0.48878 0.0
C1755 C 0.57215 0.34675 0.5224 0.0
C1756 C 0.58256 0.3582 0.54481 0.0
C1757 C 0.56736 0.36325 0.56508 0.0
C1758 C 0.57754 0.37227 0.58689 0.0
C1759 C 0.60287 0.37648 0.58857 0.0
C1760 C 0.61805 0.37189 0.56836 0.0
C1761 C 0.60799 0.36263 0.54659 0.0
H1762 H 0.6108 0.38314 0.60553 0.0
H1763 H 0.51452 0.28071 0.39975 0.0
loop_
_geom_bond_atom_site_label_1
_geom_bond_atom_site_label_2
_geom_bond_distance
_geom_bond_site_symmetry_2
_ccdc_geom_bond_type
C0 C1 1.391 . S
C0 C4 1.391 . S
C0 H42 0.948 . S
C1 C0 1.391 . S
C1 C2 1.391 . S
C2 C1 1.391 . S
C2 H58 0.947 . S
C2 C59 1.392 . S
C3 C4 1.391 . S
C3 C7 1.397 . S
C3 C59 1.419 . S
C4 C0 1.391 . S
C4 C3 1.391 . S
C4 C5 1.399 . S
C5 C4 1.399 . S
C5 C8 1.396 . S
C5 C17 1.453 . S
C5 C18 1.684 . S
H6 C30 0.948 . S
C7 C3 1.397 . S
C7 C8 1.394 . S
C7 C26 1.723 . S
C8 C5 1.396 . S
C8 C7 1.394 . S
C8 C38 1.723 . S
H9 C32 0.947 . S
H10 C33 0.948 . S
H11 C39 0.982 . S
H12 C40 0.979 . S
H13 C40 0.980 . S
H14 C40 0.983 . S
H15 C39 0.979 . S
H16 C39 0.977 . S
C17 C5 1.453 . S
C17 H46 0.982 . S
C17 H47 0.979 . S
C17 H48 0.977 . S
C18 C5 1.684 . S
C18 H43 0.979 . S
C18 H44 0.980 . S
C18 H45 0.983 . S
C19 C20 1.391 . S
C19 C24 1.391 . S
C19 H49 0.948 . S
C20 C19 1.391 . S
C20 C21 1.391 . S
C21 C20 1.391 . S
C21 C22 1.392 . S
C21 H50 0.947 . S
C22 C21 1.392 . S
C22 C23 1.419 . S
C22 H51 0.948 . S
C23 C22 1.419 . S
C23 C24 1.391 . S
C23 C27 1.397 . S
C24 C19 1.391 . S
C24 C23 1.391 . S
C24 C25 1.399 . S
C25 C24 1.399 . S
C25 C26 1.396 . S
C25 C28 1.453 . S
C25 C29 1.684 . S
C26 C7 1.723 . S
C26 C25 1.396 . S
C26 C27 1.394 . S
C27 C23 1.397 . S
C27 C26 1.394 . S
C27 C37 1.723 . S
C28 C25 1.453 . S
C28 H52 0.982 . S
C28 H53 0.979 . S
C28 H54 0.977 . S
C29 C25 1.684 . S
C29 H55 0.979 . S
C29 H56 0.980 . S
C29 H57 0.983 . S
C30 H6 0.948 . S
C30 C31 1.391 . S
C30 C35 1.391 . S
C31 C30 1.391 . S
C31 C32 1.391 . S
C32 H9 0.947 . S
C32 C31 1.391 . S
C32 C33 1.392 . S
C33 H10 0.948 . S
C33 C32 1.392 . S
C33 C34 1.419 . S
C34 C33 1.419 . S
C34 C35 1.391 . S
C34 C38 1.397 . S
C35 C30 1.391 . S
C35 C34 1.391 . S
C35 C36 1.399 . S
C36 C35 1.399 . S
C36 C37 1.396 . S
C36 C39 1.453 . S
C36 C40 1.684 . S
C37 C27 1.723 . S
C37 C36 1.396 . S
C37 C38 1.394 . S
C38 C8 1.723 . S
C38 C34 1.397 . S
C38 C37 1.394 . S
C39 H11 0.982 . S
C39 H15 0.979 . S
C39 H16 0.977 . S
C39 C36 1.453 . S
C40 H12 0.979 . S
C40 H13 0.980 . S
C40 H14 0.983 . S
C40 C36 1.684 . S
H41 C59 0.948 . S
H42 C0 0.948 . S
H43 C18 0.979 . S
H44 C18 0.980 . S
H45 C18 0.983 . S
H46 C17 0.982 . S
H47 C17 0.979 . S
H48 C17 0.977 . S
H49 C19 0.948 . S
H50 C21 0.947 . S
H51 C22 0.948 . S
H52 C28 0.982 . S
H53 C28 0.979 . S
H54 C28 0.977 . S
H55 C29 0.979 . S
H56 C29 0.980 . S
H57 C29 0.983 . S
H58 C2 0.947 . S
C59 C2 1.392 . S
C59 C3 1.419 . S
C59 H41 0.948 . S
C60 C61 1.391 . S
C60 C64 1.391 . S
C60 H102 0.948 . S
C61 C60 1.391 . S
C61 C62 1.391 . S
C62 C61 1.391 . S
C62 H118 0.947 . S
C62 C119 1.392 . S
C63 C64 1.391 . S
C63 C67 1.397 . S
C63 C119 1.419 . S
C64 C60 1.391 . S
C64 C63 1.391 . S
C64 C65 1.399 . S
C65 C64 1.399 . S
C65 C68 1.396 . S
C65 C77 1.453 . S
C65 C78 1.684 . S
H66 C90 0.948 . S
C67 C63 1.397 . S
C67 C68 1.394 . S
C67 C86 1.723 . S
C68 C65 1.396 . S
C68 C67 1.394 . S
C68 C98 1.723 . S
H69 C92 0.947 . S
H70 C93 0.948 . S
H71 C99 0.982 . S
H72 C100 0.979 . S
H73 C100 0.980 . S
H74 C100 0.983 . S
H75 C99 0.979 . S
H76 C99 0.977 . S
C77 C65 1.453 . S
C77 H106 0.982 . S
C77 H107 0.979 . S
C77 H108 0.977 . S
C78 C65 1.684 . S
C78 H103 0.979 . S
C78 H104 0.980 . S
C78 H105 0.983 . S
C79 C80 1.391 . S
C79 C84 1.391 . S
C79 H109 0.948 . S
C80 C79 1.391 . S
C80 C81 1.391 . S
C81 C80 1.391 . S
C81 C82 1.392 . S
C81 H110 0.947 . S
C82 C81 1.392 . S
C82 C83 1.419 . S
C82 H111 0.948 . S
C83 C82 1.419 . S
C83 C84 1.391 . S
C83 C87 1.397 . S
C84 C79 1.391 . S
C84 C83 1.391 . S
C84 C85 1.399 . S
C85 C84 1.399 . S
C85 C86 1.396 . S
C85 C88 1.453 . S
C85 C89 1.684 . S
C86 C67 1.723 . S
C86 C85 1.396 . S
C86 C87 1.394 . S
C87 C83 1.397 . S
C87 C86 1.394 . S
C87 C97 1.723 . S
C88 C85 1.453 . S
C88 H112 0.982 . S
C88 H113 0.979 . S
C88 H114 0.977 . S
C89 C85 1.684 . S
C89 H115 0.979 . S
C89 H116 0.980 . S
C89 H117 0.983 . S
C90 H66 0.948 . S
C90 C91 1.391 . S
C90 C95 1.391 . S
C91 C90 1.391 . S
C91 C92 1.391 . S
C92 H69 0.947 . S
C92 C91 1.391 . S
C92 C93 1.392 . S
C93 H70 0.948 . S
C93 C92 1.392 . S
C93 C94 1.419 . S
C94 C93 1.419 . S
C94 C95 1.391 . S
C94 C98 1.397 . S
C95 C90 1.391 . S
C95 C94 1.391 . S
C95 C96 1.399 . S
C96 C95 1.399 . S
C96 C97 1.396 . S
C96 C99 1.453 . S
C96 C100 1.684 . S
C97 C87 1.723 . S
C97 C96 1.396 . S
C97 C98 1.394 . S
C98 C68 1.723 . S
C98 C94 1.397 . S
C98 C97 1.394 . S
C99 H71 0.982 . S
C99 H75 0.979 . S
C99 H76 0.977 . S
C99 C96 1.453 . S
C100 H72 0.979 . S
C100 H73 0.980 . S
C100 H74 0.983 . S
C100 C96 1.684 . S
H101 C119 0.948 . S
H102 C60 0.948 . S
H103 C78 0.979 . S
H104 C78 0.980 . S
H105 C78 0.983 . S
H106 C77 0.982 . S
H107 C77 0.979 . S
H108 C77 0.977 . S
H109 C79 0.948 . S
H110 C81 0.947 . S
H111 C82 0.948 . S
H112 C88 0.982 . S
H113 C88 0.979 . S
H114 C88 0.977 . S
H115 C89 0.979 . S
H116 C89 0.980 . S
H117 C89 0.983 . S
H118 C62 0.947 . S
C119 C62 1.392 . S
C119 C63 1.419 . S
C119 H101 0.948 . S
C120 C121 1.391 . S
C120 C124 1.391 . S
C120 H162 0.948 . S
C121 C120 1.391 . S
C121 C122 1.391 . S
C122 C121 1.391 . S
C122 H178 0.947 . S
C122 C179 1.392 . S
C123 C124 1.391 . S
C123 C127 1.397 . S
C123 C179 1.419 . S
C124 C120 1.391 . S
C124 C123 1.391 . S
C124 C125 1.399 . S
C125 C124 1.399 . S
C125 C128 1.396 . S
C125 C137 1.453 . S
C125 C138 1.684 . S
H126 C150 0.948 . S
C127 C123 1.397 . S
C127 C128 1.394 . S
C127 C146 1.723 . S
C128 C125 1.396 . S
C128 C127 1.394 . S
C128 C158 1.723 . S
H129 C152 0.947 . S
H130 C153 0.948 . S
H131 C159 0.982 . S
H132 C160 0.979 . S
H133 C160 0.980 . S
H134 C160 0.983 . S
H135 C159 0.979 . S
H136 C159 0.977 . S
C137 C125 1.453 . S
C137 H166 0.982 . S
C137 H167 0.979 . S
C137 H168 0.977 . S
C138 C125 1.684 . S
C138 H163 0.979 . S
C138 H164 0.980 . S
C138 H165 0.983 . S
C139 C140 1.391 . S
C139 C144 1.391 . S
C139 H169 0.948 . S
C140 C139 1.391 . S
C140 C141 1.391 . S
C141 C140 1.391 . S
C141 C142 1.392 . S
C141 H170 0.947 . S
C142 C141 1.392 . S
C142 C143 1.419 . S
C142 H171 0.948 . S
C143 C142 1.419 . S
C143 C144 1.391 . S
C143 C147 1.397 . S
C144 C139 1.391 . S
C144 C143 1.391 . S
C144 C145 1.399 . S
C145 C144 1.399 . S
C145 C146 1.396 . S
C145 C148 1.453 . S
C145 C149 1.684 . S
C146 C127 1.723 . S
C146 C145 1.396 . S
C146 C147 1.394 . S
C147 C143 1.397 . S
C147 C146 1.394 . S
C147 C157 1.723 . S
C148 C145 1.453 . S
C148 H172 0.982 . S
C148 H173 0.979 . S
C148 H174 0.977 . S
C149 C145 1.684 . S
C149 H175 0.979 . S
C149 H176 0.980 . S
C149 H177 0.983 . S
C150 H126 0.948 . S
C150 C151 1.391 . S
C150 C155 1.391 . S
C151 C150 1.391 . S
C151 C152 1.391 . S
C152 H129 0.947 . S
C152 C151 1.391 . S
C152 C153 1.392 . S
C153 H130 0.948 . S
C153 C152 1.392 . S
C153 C154 1.419 . S
C154 C153 1.419 . S
C154 C155 1.391 . S
C154 C158 1.397 . S
C155 C150 1.391 . S
C155 C154 1.391 . S
C155 C156 1.399 . S
C156 C155 1.399 . S
C156 C157 1.396 . S
C156 C159 1.453 . S
C156 C160 1.684 . S
C157 C147 1.723 . S
C157 C156 1.396 . S
C157 C158 1.394 . S
C158 C128 1.723 . S
C158 C154 1.397 . S
C158 C157 1.394 . S
C159 H131 0.982 . S
C159 H135 0.979 . S
C159 H136 0.977 . S
C159 C156 1.453 . S
C160 H132 0.979 . S
C160 H133 0.980 . S
C160 H134 0.983 . S
C160 C156 1.684 . S
H161 C179 0.948 . S
H162 C120 0.948 . S
H163 C138 0.979 . S
H164 C138 0.980 . S
H165 C138 0.983 . S
H166 C137 0.982 . S
H167 C137 0.979 . S
H168 C137 0.977 . S
H169 C139 0.948 . S
H170 C141 0.947 . S
H171 C142 0.948 . S
H172 C148 0.982 . S
H173 C148 0.979 . S
H174 C148 0.977 . S
H175 C149 0.979 . S
H176 C149 0.980 . S
H177 C149 0.983 . S
H178 C122 0.947 . S
C179 C122 1.392 . S
C179 C123 1.419 . S
C179 H161 0.948 . S
C180 C181 1.391 . S
C180 C184 1.391 . S
C180 H222 0.948 . S
C181 C180 1.391 . S
C181 C182 1.391 . S
C182 C181 1.391 . S
C182 H238 0.947 . S
C182 C239 1.392 . S
C183 C184 1.391 . S
C183 C187 1.397 . S
C183 C239 1.419 . S
C184 C180 1.391 . S
C184 C183 1.391 . S
C184 C185 1.399 . S
C185 C184 1.399 . S
C185 C188 1.396 . S
C185 C197 1.453 . S
C185 C198 1.684 . S
H186 C210 0.948 . S
C187 C183 1.397 . S
C187 C188 1.394 . S
C187 C206 1.723 . S
C188 C185 1.396 . S
C188 C187 1.394 . S
C188 C218 1.723 . S
H189 C212 0.947 . S
H190 C213 0.948 . S
H191 C219 0.982 . S
H192 C220 0.979 . S
H193 C220 0.980 . S
H194 C220 0.983 . S
H195 C219 0.979 . S
H196 C219 0.977 . S
C197 C185 1.453 . S
C197 H226 0.982 . S
C197 H227 0.979 . S
C197 H228 0.977 . S
C198 C185 1.684 . S
C198 H223 0.979 . S
C198 H224 0.980 . S
C198 H225 0.983 . S
C199 C200 1.391 . S
C199 C204 1.391 . S
C199 H229 0.948 . S
C200 C199 1.391 . S
C200 C201 1.391 . S
C201 C200 1.391 . S
C201 C202 1.392 . S
C201 H230 0.947 . S
C202 C201 1.392 . S
C202 C203 1.419 . S
C202 H231 0.948 . S
C203 C202 1.419 . S
C203 C204 1.391 . S
C203 C207 1.397 . S
C204 C199 1.391 . S
C204 C203 1.391 . S
C204 C205 1.399 . S
C205 C204 1.399 . S
C205 C206 1.396 . S
C205 C208 1.453 . S
C205 C209 1.684 . S
C206 C187 1.723 . S
C206 C205 1.396 . S
C206 C207 1.394 . S
C207 C203 1.397 . S
C207 C206 1.394 . S
C207 C217 1.723 . S
C208 C205 1.453 . S
C208 H232 0.982 . S
C208 H233 0.979 . S
C208 H234 0.977 . S
C209 C205 1.684 . S
C209 H235 0.979 . S
C209 H236 0.980 . S
C209 H237 0.983 . S
C210 H186 0.948 . S
C210 C211 1.391 . S
C210 C215 1.391 . S
C211 C210 1.391 . S
C211 C212 1.391 . S
C212 H189 0.947 . S
C212 C211 1.391 . S
C212 C213 1.392 . S
C213 H190 0.948 . S
C213 C212 1.392 . S
C213 C214 1.419 . S
C214 C213 1.419 . S
C214 C215 1.391 . S
C214 C218 1.397 . S
C215 C210 1.391 . S
C215 C214 1.391 . S
C215 C216 1.399 . S
C216 C215 1.399 . S
C216 C217 1.396 . S
C216 C219 1.453 . S
C216 C220 1.684 . S
C217 C207 1.723 . S
C217 C216 1.396 . S
C217 C218 1.394 . S
C218 C188 1.723 . S
C218 C214 1.397 . S
C218 C217 1.394 . S
C219 H191 0.982 . S
C219 H195 0.979 . S
C219 H196 0.977 . S
C219 C216 1.453 . S
C220 H192 0.979 . S
C220 H193 0.980 . S
C220 H194 0.983 . S
C220 C216 1.684 . S
H221 C239 0.948 . S
H222 C180 0.948 . S
H223 C198 0.979 . S
H224 C198 0.980 . S
H225 C198 0.983 . S
H226 C197 0.982 . S
H227 C197 0.979 . S
H228 C197 0.977 . S
H229 C199 0.948 . S
H230 C201 0.947 . S
H231 C202 0.948 . S
H232 C208 0.982 . S
H233 C208 0.979 . S
H234 C208 0.977 . S
H235 C209 0.979 . S
H236 C209 0.980 . S
H237 C209 0.983 . S
H238 C182 0.947 . S
C239 C182 1.392 . S
C239 C183 1.419 . S
C239 H221 0.948 . S
C240 C241 1.391 . S
C240 C244 1.391 . S
C240 H282 0.948 . S
C241 C240 1.391 . S
C241 C242 1.391 . S
C242 C241 1.391 . S
C242 H298 0.947 1_655 S
C242 C299 1.392 . S
C243 C244 1.391 . S
C243 C247 1.397 . S
C243 C299 1.419 . S
C244 C240 1.391 . S
C244 C243 1.391 . S
C244 C245 1.399 . S
C245 C244 1.399 . S
C245 C248 1.396 . S
C245 C257 1.453 . S
C245 C258 1.684 1_556 S
H246 C270 0.948 . S
C247 C243 1.397 . S
C247 C248 1.394 . S
C247 C266 1.723 . S
C248 C245 1.396 . S
C248 C247 1.394 . S
C248 C278 1.723 . S
H249 C272 0.947 1_554 S
H250 C273 0.948 . S
H251 C279 0.982 . S
H252 C280 0.979 . S
H253 C280 0.980 . S
H254 C280 0.983 . S
H255 C279 0.979 . S
H256 C279 0.977 . S
C257 C245 1.453 . S
C257 H286 0.982 . S
C257 H287 0.979 . S
C257 H288 0.977 . S
C258 C245 1.684 1_554 S
C258 H283 0.979 . S
C258 H284 0.980 . S
C258 H285 0.983 . S
C259 C260 1.391 . S
C259 C264 1.391 . S
C259 H289 0.948 . S
C260 C259 1.391 . S
C260 C261 1.391 . S
C261 C260 1.391 . S
C261 C262 1.392 . S
C261 H290 0.947 1_565 S
C262 C261 1.392 . S
C262 C263 1.419 . S
C262 H291 0.948 . S
C263 C262 1.419 . S
C263 C264 1.391 . S
C263 C267 1.397 . S
C264 C259 1.391 . S
C264 C263 1.391 . S
C264 C265 1.399 . S
C265 C264 1.399 . S
C265 C266 1.396 . S
C265 C268 1.453 . S
C265 C269 1.684 1_655 S
C266 C247 1.723 . S
C266 C265 1.396 . S
C266 C267 1.394 . S
C267 C263 1.397 . S
C267 C266 1.394 . S
C267 C277 1.723 . S
C268 C265 1.453 . S
C268 H292 0.982 . S
C268 H293 0.979 . S
C268 H294 0.977 . S
C269 C265 1.684 1_455 S
C269 H295 0.979 . S
C269 H296 0.980 . S
C269 H297 0.983 . S
C270 H246 0.948 . S
C270 C271 1.391 . S
C270 C275 1.391 . S
C271 C270 1.391 . S
C271 C272 1.391 . S
C272 H249 0.947 1_556 S
C272 C271 1.391 . S
C272 C273 1.392 . S
C273 H250 0.948 . S
C273 C272 1.392 . S
C273 C274 1.419 . S
C274 C273 1.419 . S
C274 C275 1.391 . S
C274 C278 1.397 . S
C275 C270 1.391 . S
C275 C274 1.391 . S
C275 C276 1.399 . S
C276 C275 1.399 . S
C276 C277 1.396 . S
C276 C279 1.453 . S
C276 C280 1.684 1_565 S
C277 C267 1.723 . S
C277 C276 1.396 . S
C277 C278 1.394 . S
C278 C248 1.723 . S
C278 C274 1.397 . S
C278 C277 1.394 . S
C279 H251 0.982 . S
C279 H255 0.979 . S
C279 H256 0.977 . S
C279 C276 1.453 . S
C280 H252 0.979 . S
C280 H253 0.980 . S
C280 H254 0.983 . S
C280 C276 1.684 1_545 S
H281 C299 0.948 . S
H282 C240 0.948 . S
H283 C258 0.979 . S
H284 C258 0.980 . S
H285 C258 0.983 . S
H286 C257 0.982 . S
H287 C257 0.979 . S
H288 C257 0.977 . S
H289 C259 0.948 . S
H290 C261 0.947 1_545 S
H291 C262 0.948 . S
H292 C268 0.982 . S
H293 C268 0.979 . S
H294 C268 0.977 . S
H295 C269 0.979 . S
H296 C269 0.980 . S
H297 C269 0.983 . S
H298 C242 0.947 1_455 S
C299 C242 1.392 . S
C299 C243 1.419 . S
C299 H281 0.948 . S
C300 C301 1.391 . S
C300 C304 1.391 . S
C300 H342 0.948 . S
C301 C300 1.391 . S
C301 C302 1.391 . S
C302 C301 1.391 . S
C302 H358 0.947 . S
C302 C359 1.392 . S
C303 C304 1.391 . S
C303 C307 1.397 . S
C303 C359 1.419 . S
C304 C300 1.391 . S
C304 C303 1.391 . S
C304 C305 1.399 . S
C305 C304 1.399 . S
C305 C308 1.396 . S
C305 C317 1.453 . S
C305 C318 1.684 . S
H306 C330 0.948 . S
C307 C303 1.397 . S
C307 C308 1.394 . S
C307 C326 1.723 . S
C308 C305 1.396 . S
C308 C307 1.394 . S
C308 C338 1.723 . S
H309 C332 0.947 . S
H310 C333 0.948 . S
H311 C339 0.982 . S
H312 C340 0.979 . S
H313 C340 0.980 . S
H314 C340 0.983 . S
H315 C339 0.979 . S
H316 C339 0.977 . S
C317 C305 1.453 . S
C317 H346 0.982 . S
C317 H347 0.979 . S
C317 H348 0.977 . S
C318 C305 1.684 . S
C318 H343 0.979 . S
C318 H344 0.980 . S
C318 H345 0.983 . S
C319 C320 1.391 . S
C319 C324 1.391 . S
C319 H349 0.948 . S
C320 C319 1.391 . S
C320 C321 1.391 . S
C321 C320 1.391 . S
C321 C322 1.392 . S
C321 H350 0.947 . S
C322 C321 1.392 . S
C322 C323 1.419 . S
C322 H351 0.948 . S
C323 C322 1.419 . S
C323 C324 1.391 . S
C323 C327 1.397 . S
C324 C319 1.391 . S
C324 C323 1.391 . S
C324 C325 1.399 . S
C325 C324 1.399 . S
C325 C326 1.396 . S
C325 C328 1.453 . S
C325 C329 1.684 . S
C326 C307 1.723 . S
C326 C325 1.396 . S
C326 C327 1.394 . S
C327 C323 1.397 . S
C327 C326 1.394 . S
C327 C337 1.723 . S
C328 C325 1.453 . S
C328 H352 0.982 . S
C328 H353 0.979 . S
C328 H354 0.977 . S
C329 C325 1.684 . S
C329 H355 0.979 . S
C329 H356 0.980 . S
C329 H357 0.983 . S
C330 H306 0.948 . S
C330 C331 1.391 . S
C330 C335 1.391 . S
C331 C330 1.391 . S
C331 C332 1.391 . S
C332 H309 0.947 . S
C332 C331 1.391 . S
C332 C333 1.392 . S
C333 H310 0.948 . S
C333 C332 1.392 . S
C333 C334 1.419 . S
C334 C333 1.419 . S
C334 C335 1.391 . S
C334 C338 1.397 . S
C335 C330 1.391 . S
C335 C334 1.391 . S
C335 C336 1.399 . S
C336 C335 1.399 . S
C336 C337 1.396 . S
C336 C339 1.453 . S
C336 C340 1.684 . S
C337 C327 1.723 . S
C337 C336 1.396 . S
C337 C338 1.394 . S
C338 C308 1.723 . S
C338 C334 1.397 . S
C338 C337 1.394 . S
C339 H311 0.982 . S
C339 H315 0.979 . S
C339 H316 0.977 . S
C339 C336 1.453 . S
C340 H312 0.979 . S
C340 H313 0.980 . S
C340 H314 0.983 . S
C340 C336 1.684 . S
H341 C359 0.948 . S
H342 C300 0.948 . S
H343 C318 0.979 . S
H344 C318 0.980 . S
H345 C318 0.983 . S
H346 C317 0.982 . S
H347 C317 0.979 . S
H348 C317 0.977 . S
H349 C319 0.948 . S
H350 C321 0.947 . S
H351 C322 0.948 . S
H352 C328 0.982 . S
H353 C328 0.979 . S
H354 C328 0.977 . S
H355 C329 0.979 . S
H356 C329 0.980 . S
H357 C329 0.983 . S
H358 C302 0.947 . S
C359 C302 1.392 . S
C359 C303 1.419 . S
C359 H341 0.948 . S
C360 C361 1.391 . S
C360 C364 1.391 . S
C360 H402 0.948 . S
C361 C360 1.391 . S
C361 C362 1.391 . S
C362 C361 1.391 . S
C362 H418 0.947 . S
C362 C419 1.392 . S
C363 C364 1.391 . S
C363 C367 1.397 . S
C363 C419 1.419 . S
C364 C360 1.391 . S
C364 C363 1.391 . S
C364 C365 1.399 . S
C365 C364 1.399 . S
C365 C368 1.396 . S
C365 C377 1.453 . S
C365 C378 1.684 . S
H366 C390 0.948 . S
C367 C363 1.397 . S
C367 C368 1.394 . S
C367 C386 1.723 . S
C368 C365 1.396 . S
C368 C367 1.394 . S
C368 C398 1.723 . S
H369 C392 0.947 . S
H370 C393 0.948 . S
H371 C399 0.982 . S
H372 C400 0.979 . S
H373 C400 0.980 . S
H374 C400 0.983 . S
H375 C399 0.979 . S
H376 C399 0.977 . S
C377 C365 1.453 . S
C377 H406 0.982 . S
C377 H407 0.979 . S
C377 H408 0.977 . S
C378 C365 1.684 . S
C378 H403 0.979 . S
C378 H404 0.980 . S
C378 H405 0.983 . S
C379 C380 1.391 . S
C379 C384 1.391 . S
C379 H409 0.948 . S
C380 C379 1.391 . S
C380 C381 1.391 . S
C381 C380 1.391 . S
C381 C382 1.392 . S
C381 H410 0.947 . S
C382 C381 1.392 . S
C382 C383 1.419 . S
C382 H411 0.948 . S
C383 C382 1.419 . S
C383 C384 1.391 . S
C383 C387 1.397 . S
C384 C379 1.391 . S
C384 C383 1.391 . S
C384 C385 1.399 . S
C385 C384 1.399 . S
C385 C386 1.396 . S
C385 C388 1.453 . S
C385 C389 1.684 . S
C386 C367 1.723 . S
C386 C385 1.396 . S
C386 C387 1.394 . S
C387 C383 1.397 . S
C387 C386 1.394 . S
C387 C397 1.723 . S
C388 C385 1.453 . S
C388 H412 0.982 . S
C388 H413 0.979 . S
C388 H414 0.977 . S
C389 C385 1.684 . S
C389 H415 0.979 . S
C389 H416 0.980 . S
C389 H417 0.983 . S
C390 H366 0.948 . S
C390 C391 1.391 . S
C390 C395 1.391 . S
C391 C390 1.391 . S
C391 C392 1.391 . S
C392 H369 0.947 . S
C392 C391 1.391 . S
C392 C393 1.392 . S
C393 H370 0.948 . S
C393 C392 1.392 . S
C393 C394 1.419 . S
C394 C393 1.419 . S
C394 C395 1.391 . S
C394 C398 1.397 . S
C395 C390 1.391 . S
C395 C394 1.391 . S
C395 C396 1.399 . S
C396 C395 1.399 . S
C396 C397 1.396 . S
C396 C399 1.453 . S
C396 C400 1.684 . S
C397 C387 1.723 . S
C397 C396 1.396 . S
C397 C398 1.394 . S
C398 C368 1.723 . S
C398 C394 1.397 . S
C398 C397 1.394 . S
C399 H371 0.982 . S
C399 H375 0.979 . S
C399 H376 0.977 . S
C399 C396 1.453 . S
C400 H372 0.979 . S
C400 H373 0.980 . S
C400 H374 0.983 . S
C400 C396 1.684 . S
H401 C419 0.948 . S
H402 C360 0.948 . S
H403 C378 0.979 . S
H404 C378 0.980 . S
H405 C378 0.983 . S
H406 C377 0.982 . S
H407 C377 0.979 . S
H408 C377 0.977 . S
H409 C379 0.948 . S
H410 C381 0.947 . S
H411 C382 0.948 . S
H412 C388 0.982 . S
H413 C388 0.979 . S
H414 C388 0.977 . S
H415 C389 0.979 . S
H416 C389 0.980 . S
H417 C389 0.983 . S
H418 C362 0.947 . S
C419 C362 1.392 . S
C419 C363 1.419 . S
C419 H401 0.948 . S
C420 C421 1.391 . S
C420 C424 1.391 . S
C420 H462 0.948 . S
C421 C420 1.391 . S
C421 C422 1.391 . S
C422 C421 1.391 . S
C422 H478 0.947 . S
C422 C479 1.392 . S
C423 C424 1.391 . S
C423 C427 1.397 . S
C423 C479 1.419 . S
C424 C420 1.391 . S
C424 C423 1.391 . S
C424 C425 1.399 . S
C425 C424 1.399 . S
C425 C428 1.396 . S
C425 C437 1.453 . S
C425 C438 1.684 . S
H426 C450 0.948 . S
C427 C423 1.397 . S
C427 C428 1.394 . S
C427 C446 1.723 . S
C428 C425 1.396 . S
C428 C427 1.394 . S
C428 C458 1.723 . S
H429 C452 0.947 . S
H430 C453 0.948 . S
H431 C459 0.982 . S
H432 C460 0.979 . S
H433 C460 0.980 . S
H434 C460 0.983 . S
H435 C459 0.979 . S
H436 C459 0.977 . S
C437 C425 1.453 . S
C437 H466 0.982 . S
C437 H467 0.979 . S
C437 H468 0.977 . S
C438 C425 1.684 . S
C438 H463 0.979 . S
C438 H464 0.980 . S
C438 H465 0.983 . S
C439 C440 1.391 . S
C439 C444 1.391 . S
C439 H469 0.948 . S
C440 C439 1.391 . S
C440 C441 1.391 . S
C441 C440 1.391 . S
C441 C442 1.392 . S
C441 H470 0.947 . S
C442 C441 1.392 . S
C442 C443 1.419 . S
C442 H471 0.948 . S
C443 C442 1.419 . S
C443 C444 1.391 . S
C443 C447 1.397 . S
C444 C439 1.391 . S
C444 C443 1.391 . S
C444 C445 1.399 . S
C445 C444 1.399 . S
C445 C446 1.396 . S
C445 C448 1.453 . S
C445 C449 1.684 . S
C446 C427 1.723 . S
C446 C445 1.396 . S
C446 C447 1.394 . S
C447 C443 1.397 . S
C447 C446 1.394 . S
C447 C457 1.723 . S
C448 C445 1.453 . S
C448 H472 0.982 . S
C448 H473 0.979 . S
C448 H474 0.977 . S
C449 C445 1.684 . S
C449 H475 0.979 . S
C449 H476 0.980 . S
C449 H477 0.983 . S
C450 H426 0.948 . S
C450 C451 1.391 . S
C450 C455 1.391 . S
C451 C450 1.391 . S
C451 C452 1.391 . S
C452 H429 0.947 . S
C452 C451 1.391 . S
C452 C453 1.392 . S
C453 H430 0.948 . S
C453 C452 1.392 . S
C453 C454 1.419 . S
C454 C453 1.419 . S
C454 C455 1.391 . S
C454 C458 1.397 . S
C455 C450 1.391 . S
C455 C454 1.391 . S
C455 C456 1.399 . S
C456 C455 1.399 . S
C456 C457 1.396 . S
C456 C459 1.453 . S
C456 C460 1.684 . S
C457 C447 1.723 . S
C457 C456 1.396 . S
C457 C458 1.394 . S
C458 C428 1.723 . S
C458 C454 1.397 . S
C458 C457 1.394 . S
C459 H431 0.982 . S
C459 H435 0.979 . S
C459 H436 0.977 . S
C459 C456 1.453 . S
C460 H432 0.979 . S
C460 H433 0.980 . S
C460 H434 0.983 . S
C460 C456 1.684 . S
H461 C479 0.948 . S
H462 C420 0.948 . S
H463 C438 0.979 . S
H464 C438 0.980 . S
H465 C438 0.983 . S
H466 C437 0.982 . S
H467 C437 0.979 . S
H468 C437 0.977 . S
H469 C439 0.948 . S
H470 C441 0.947 . S
H471 C442 0.948 . S
H472 C448 0.982 . S
H473 C448 0.979 . S
H474 C448 0.977 . S
H475 C449 0.979 . S
H476 C449 0.980 . S
H477 C449 0.983 . S
H478 C422 0.947 . S
C479 C422 1.392 . S
C479 C423 1.419 . S
C479 H461 0.948 . S
Zn480 O486 1.920 . S
Zn480 O492 1.898 . S
Zn480 O495 1.905 . S
Zn481 O489 1.905 1_565 S
Zn481 O490 1.898 . S
Zn481 O498 1.920 . S
Zn482 O485 2.080 1_455 S
Zn482 O488 2.114 . S
Zn482 O491 2.120 1_445 S
Zn482 O493 2.120 . S
Zn482 O494 2.114 1_455 S
Zn482 O497 2.080 . S
C483 O488 1.166 . S
C483 O489 1.182 . S
C484 O490 1.167 1_655 S
C484 O491 1.299 . S
O485 Zn482 2.080 1_655 S
O485 C499 1.305 . S
O486 Zn480 1.920 . S
O486 C499 1.234 . S
C487 O492 1.167 1_455 S
C487 O493 1.299 . S
O488 Zn482 2.114 . S
O488 C483 1.166 . S
O489 Zn481 1.905 1_545 S
O489 C483 1.182 . S
O490 Zn481 1.898 . S
O490 C484 1.167 1_455 S
O491 Zn482 2.120 1_665 S
O491 C484 1.299 . S
O492 Zn480 1.898 . S
O492 C487 1.167 1_655 S
O493 Zn482 2.120 . S
O493 C487 1.299 . S
O494 Zn482 2.114 1_655 S
O494 C496 1.166 . S
O495 Zn480 1.905 . S
O495 C496 1.182 . S
C496 O494 1.166 . S
C496 O495 1.182 . S
O497 Zn482 2.080 . S
O497 C500 1.305 . S
O498 Zn481 1.920 . S
O498 C500 1.234 1_565 S
C499 O485 1.305 . S
C499 O486 1.234 . S
C500 O497 1.305 . S
C500 O498 1.234 1_545 S
Zn501 O507 1.920 1_556 S
Zn501 O513 1.898 . S
Zn501 O516 1.905 . S
Zn502 O510 1.905 . S
Zn502 O511 1.898 . S
Zn502 O519 1.920 . S
Zn503 O506 2.080 . S
Zn503 O509 2.114 1_545 S
Zn503 O512 2.120 1_545 S
Zn503 O514 2.120 . S
Zn503 O515 2.114 1_544 S
Zn503 O518 2.080 . S
C504 O509 1.166 . S
C504 O510 1.182 . S
C505 O511 1.167 . S
C505 O512 1.299 . S
O506 Zn503 2.080 . S
O506 C520 1.305 . S
O507 Zn501 1.920 1_554 S
O507 C520 1.234 . S
C508 O513 1.167 . S
C508 O514 1.299 1_556 S
O509 Zn503 2.114 1_565 S
O509 C504 1.166 . S
O510 Zn502 1.905 . S
O510 C504 1.182 . S
O511 Zn502 1.898 . S
O511 C505 1.167 . S
O512 Zn503 2.120 1_565 S
O512 C505 1.299 . S
O513 Zn501 1.898 . S
O513 C508 1.167 . S
O514 Zn503 2.120 . S
O514 C508 1.299 1_554 S
O515 Zn503 2.114 1_566 S
O515 C517 1.166 . S
O516 Zn501 1.905 . S
O516 C517 1.182 1_545 S
C517 O515 1.166 . S
C517 O516 1.182 1_565 S
O518 Zn503 2.080 . S
O518 C521 1.305 . S
O519 Zn502 1.920 . S
O519 C521 1.234 1_565 S
C520 O506 1.305 . S
C520 O507 1.234 . S
C521 O518 1.305 . S
C521 O519 1.234 1_545 S
Zn522 O528 1.920 . S
Zn522 O534 1.898 . S
Zn522 O537 1.905 . S
Zn523 O531 1.905 . S
Zn523 O532 1.898 . S
Zn523 O540 1.920 . S
Zn524 O527 2.080 . S
Zn524 O530 2.114 . S
Zn524 O533 2.120 . S
Zn524 O535 2.120 . S
Zn524 O536 2.114 . S
Zn524 O539 2.080 . S
C525 O530 1.166 . S
C525 O531 1.182 . S
C526 O532 1.167 . S
C526 O533 1.299 . S
O527 Zn524 2.080 . S
O527 C541 1.305 . S
O528 Zn522 1.920 . S
O528 C541 1.234 . S
C529 O534 1.167 . S
C529 O535 1.299 . S
O530 Zn524 2.114 . S
O530 C525 1.166 . S
O531 Zn523 1.905 . S
O531 C525 1.182 . S
O532 Zn523 1.898 . S
O532 C526 1.167 . S
O533 Zn524 2.120 . S
O533 C526 1.299 . S
O534 Zn522 1.898 . S
O534 C529 1.167 . S
O535 Zn524 2.120 . S
O535 C529 1.299 . S
O536 Zn524 2.114 . S
O536 C538 1.166 . S
O537 Zn522 1.905 . S
O537 C538 1.182 . S
C538 O536 1.166 . S
C538 O537 1.182 . S
O539 Zn524 2.080 . S
O539 C542 1.305 . S
O540 Zn523 1.920 . S
O540 C542 1.234 . S
C541 O527 1.305 . S
C541 O528 1.234 . S
C542 O539 1.305 . S
C542 O540 1.234 . S
Zn543 O549 1.920 . S
Zn543 O555 1.898 . S
Zn543 O558 1.905 . S
Zn544 O552 1.905 1_655 S
Zn544 O553 1.898 . S
Zn544 O561 1.920 . S
Zn545 O548 2.080 1_554 S
Zn545 O551 2.114 . S
Zn545 O554 2.120 1_454 S
Zn545 O556 2.120 . S
Zn545 O557 2.114 1_554 S
Zn545 O560 2.080 . S
C546 O551 1.166 . S
C546 O552 1.182 . S
C547 O553 1.167 1_556 S
C547 O554 1.299 . S
O548 Zn545 2.080 1_556 S
O548 C562 1.305 . S
O549 Zn543 1.920 . S
O549 C562 1.234 . S
C550 O555 1.167 1_554 S
C550 O556 1.299 . S
O551 Zn545 2.114 . S
O551 C546 1.166 . S
O552 Zn544 1.905 1_455 S
O552 C546 1.182 . S
O553 Zn544 1.898 . S
O553 C547 1.167 1_554 S
O554 Zn545 2.120 1_656 S
O554 C547 1.299 . S
O555 Zn543 1.898 . S
O555 C550 1.167 1_556 S
O556 Zn545 2.120 . S
O556 C550 1.299 . S
O557 Zn545 2.114 1_556 S
O557 C559 1.166 . S
O558 Zn543 1.905 . S
O558 C559 1.182 . S
C559 O557 1.166 . S
C559 O558 1.182 . S
O560 Zn545 2.080 . S
O560 C563 1.276 1_455 S
O561 Zn544 1.920 . S
O561 C563 1.256 . S
C562 O548 1.305 . S
C562 O549 1.234 . S
C563 O560 1.276 1_655 S
C563 O561 1.256 . S
H564 C582 0.951 . S
H565 C584 0.951 . S
H566 C586 0.950 . S
H567 C587 0.950 . S
H568 C589 0.950 . S
H569 C592 0.950 . S
H570 C593 0.950 . S
H571 C595 0.950 . S
H572 C596 0.950 . S
H573 C597 0.951 . S
H574 C599 0.951 . S
H575 C601 0.950 . S
H576 C602 0.950 . S
H577 C604 0.950 . S
H578 C607 0.950 . S
H579 C608 0.950 . S
H580 C610 0.950 . S
H581 C611 0.950 . S
C582 H564 0.951 . S
C582 C583 1.366 . S
C582 C584 1.388 . S
C583 C582 1.366 . S
C583 C587 1.385 . S
C584 H565 0.951 . S
C584 C582 1.388 . S
C584 C585 1.366 . S
C585 C584 1.366 . S
C585 C586 1.414 . S
C585 C588 1.499 . S
C586 H566 0.950 . S
C586 C585 1.414 . S
C586 C587 1.374 . S
C587 H567 0.950 . S
C587 C583 1.385 . S
C587 C586 1.374 . S
C588 C585 1.499 . S
C588 C589 1.373 . S
C588 C590 1.389 . S
C589 H568 0.950 . S
C589 C588 1.373 . S
C589 C605 1.377 . S
C590 C588 1.389 . S
C590 C591 1.524 . S
C590 C604 1.377 . S
C591 C590 1.524 . S
C591 C592 1.397 . S
C591 C596 1.363 . S
C592 H569 0.950 . S
C592 C591 1.397 . S
C592 C593 1.334 . S
C593 H570 0.950 . S
C593 C592 1.334 . S
C593 C594 1.287 . S
C594 C593 1.287 . S
C594 C595 1.524 . S
C594 H613 0.913 . S
C595 H571 0.950 . S
C595 C594 1.524 . S
C595 C596 1.415 . S
C596 H572 0.950 . S
C596 C591 1.363 . S
C596 C595 1.415 . S
C597 H573 0.951 . S
C597 C598 1.366 . S
C597 C599 1.388 . S
C598 C597 1.366 . S
C598 C602 1.385 . S
C599 H574 0.951 . S
C599 C597 1.388 . S
C599 C600 1.366 . S
C600 C599 1.366 . S
C600 C601 1.414 . S
C600 C603 1.499 . S
C601 H575 0.950 . S
C601 C600 1.414 . S
C601 C602 1.374 . S
C602 H576 0.950 . S
C602 C598 1.385 . S
C602 C601 1.374 . S
C603 C600 1.499 . S
C603 C604 1.373 . S
C603 C605 1.389 . S
C604 H577 0.950 . S
C604 C590 1.377 . S
C604 C603 1.373 . S
C605 C589 1.377 . S
C605 C603 1.389 . S
C605 C606 1.524 . S
C606 C605 1.524 . S
C606 C607 1.397 . S
C606 C611 1.363 . S
C607 H578 0.950 . S
C607 C606 1.397 . S
C607 C608 1.334 . S
C608 H579 0.950 . S
C608 C607 1.334 . S
C608 C609 1.287 1_455 S
C609 C608 1.287 1_655 S
C609 C610 1.524 . S
C609 H612 0.999 . S
C610 H580 0.950 . S
C610 C609 1.524 . S
C610 C611 1.415 1_655 S
C611 H581 0.950 . S
C611 C606 1.363 . S
C611 C610 1.415 1_455 S
H612 C609 0.999 . S
H613 C594 0.913 . S
H614 C632 0.951 . S
H615 C634 0.951 . S
H616 C636 0.950 . S
H617 C637 0.950 . S
H618 C639 0.950 . S
H619 C642 0.950 . S
H620 C643 0.950 . S
H621 C645 0.950 1_545 S
H622 C646 0.950 . S
H623 C647 0.951 . S
H624 C649 0.951 . S
H625 C651 0.950 . S
H626 C652 0.950 . S
H627 C654 0.950 . S
H628 C657 0.950 . S
H629 C658 0.950 . S
H630 C660 0.950 . S
H631 C661 0.950 . S
C632 H614 0.951 . S
C632 C633 1.366 . S
C632 C634 1.388 . S
C633 C632 1.366 . S
C633 C637 1.385 . S
C634 H615 0.951 . S
C634 C632 1.388 . S
C634 C635 1.366 . S
C635 C634 1.366 . S
C635 C636 1.414 . S
C635 C638 1.499 . S
C636 H616 0.950 . S
C636 C635 1.414 . S
C636 C637 1.374 . S
C637 H617 0.950 . S
C637 C633 1.385 . S
C637 C636 1.374 . S
C638 C635 1.499 . S
C638 C639 1.373 . S
C638 C640 1.389 . S
C639 H618 0.950 . S
C639 C638 1.373 . S
C639 C655 1.377 . S
C640 C638 1.389 . S
C640 C641 1.524 . S
C640 C654 1.377 . S
C641 C640 1.524 . S
C641 C642 1.397 . S
C641 C646 1.363 . S
C642 H619 0.950 . S
C642 C641 1.397 . S
C642 C643 1.334 . S
C643 H620 0.950 . S
C643 C642 1.334 . S
C643 C644 1.292 . S
C644 C643 1.292 . S
C644 C645 1.526 . S
C644 H663 0.906 1_565 S
C645 H621 0.950 1_565 S
C645 C644 1.526 . S
C645 C646 1.415 . S
C646 H622 0.950 . S
C646 C641 1.363 . S
C646 C645 1.415 . S
C647 H623 0.951 . S
C647 C648 1.366 . S
C647 C649 1.388 . S
C648 C647 1.366 . S
C648 C652 1.385 . S
C649 H624 0.951 . S
C649 C647 1.388 . S
C649 C650 1.366 . S
C650 C649 1.366 . S
C650 C651 1.414 . S
C650 C653 1.499 . S
C651 H625 0.950 . S
C651 C650 1.414 . S
C651 C652 1.374 . S
C652 H626 0.950 . S
C652 C648 1.385 . S
C652 C651 1.374 . S
C653 C650 1.499 . S
C653 C654 1.373 . S
C653 C655 1.389 . S
C654 H627 0.950 . S
C654 C640 1.377 . S
C654 C653 1.373 . S
C655 C639 1.377 . S
C655 C653 1.389 . S
C655 C656 1.524 . S
C656 C655 1.524 . S
C656 C657 1.397 . S
C656 C661 1.363 . S
C657 H628 0.950 . S
C657 C656 1.397 . S
C657 C658 1.334 . S
C658 H629 0.950 . S
C658 C657 1.334 . S
C658 C659 1.287 . S
C659 C658 1.287 . S
C659 C660 1.524 . S
C659 H662 0.999 . S
C660 H630 0.950 . S
C660 C659 1.524 . S
C660 C661 1.415 . S
C661 H631 0.950 . S
C661 C656 1.363 . S
C661 C660 1.415 . S
H662 C659 0.999 . S
H663 C644 0.906 1_545 S
H664 C682 0.951 . S
H665 C684 0.951 . S
H666 C686 0.950 . S
H667 C687 0.950 . S
H668 C689 0.950 . S
H669 C692 0.950 . S
H670 C693 0.950 . S
H671 C695 0.950 . S
H672 C696 0.950 . S
H673 C697 0.951 . S
H674 C699 0.951 . S
H675 C701 0.950 . S
H676 C702 0.950 . S
H677 C704 0.950 . S
H678 C707 0.950 . S
H679 C708 0.950 . S
H680 C710 0.950 . S
H681 C711 0.950 . S
C682 H664 0.951 . S
C682 C683 1.366 . S
C682 C684 1.388 . S
C683 C682 1.366 . S
C683 C687 1.385 . S
C684 H665 0.951 . S
C684 C682 1.388 . S
C684 C685 1.366 . S
C685 C684 1.366 . S
C685 C686 1.414 . S
C685 C688 1.499 . S
C686 H666 0.950 . S
C686 C685 1.414 . S
C686 C687 1.374 . S
C687 H667 0.950 . S
C687 C683 1.385 . S
C687 C686 1.374 . S
C688 C685 1.499 . S
C688 C689 1.373 . S
C688 C690 1.389 . S
C689 H668 0.950 . S
C689 C688 1.373 . S
C689 C705 1.377 . S
C690 C688 1.389 . S
C690 C691 1.524 . S
C690 C704 1.377 . S
C691 C690 1.524 . S
C691 C692 1.397 . S
C691 C696 1.363 . S
C692 H669 0.950 . S
C692 C691 1.397 . S
C692 C693 1.334 . S
C693 H670 0.950 . S
C693 C692 1.334 . S
C693 C694 1.287 . S
C694 C693 1.287 . S
C694 C695 1.524 . S
C694 H713 0.913 . S
C695 H671 0.950 . S
C695 C694 1.524 . S
C695 C696 1.415 . S
C696 H672 0.950 . S
C696 C691 1.363 . S
C696 C695 1.415 . S
C697 H673 0.951 . S
C697 C698 1.366 . S
C697 C699 1.388 . S
C698 C697 1.366 . S
C698 C702 1.385 . S
C699 H674 0.951 . S
C699 C697 1.388 . S
C699 C700 1.366 . S
C700 C699 1.366 . S
C700 C701 1.414 . S
C700 C703 1.499 . S
C701 H675 0.950 . S
C701 C700 1.414 . S
C701 C702 1.374 . S
C702 H676 0.950 . S
C702 C698 1.385 . S
C702 C701 1.374 . S
C703 C700 1.499 . S
C703 C704 1.373 . S
C703 C705 1.389 . S
C704 H677 0.950 . S
C704 C690 1.377 . S
C704 C703 1.373 . S
C705 C689 1.377 . S
C705 C703 1.389 . S
C705 C706 1.524 . S
C706 C705 1.524 . S
C706 C707 1.397 . S
C706 C711 1.363 . S
C707 H678 0.950 . S
C707 C706 1.397 . S
C707 C708 1.334 . S
C708 H679 0.950 . S
C708 C707 1.334 . S
C708 C709 1.287 . S
C709 C708 1.287 . S
C709 C710 1.524 . S
C709 H712 0.999 . S
C710 H680 0.950 . S
C710 C709 1.524 . S
C710 C711 1.415 . S
C711 H681 0.950 . S
C711 C706 1.363 . S
C711 C710 1.415 . S
H712 C709 0.999 . S
H713 C694 0.913 . S
H714 C732 0.951 . S
H715 C734 0.951 . S
H716 C736 0.950 . S
H717 C737 0.950 . S
H718 C739 0.950 . S
H719 C742 0.950 . S
H720 C743 0.950 . S
H721 C745 0.950 . S
H722 C746 0.950 . S
H723 C747 0.953 . S
H724 C749 0.951 . S
H725 C751 0.950 . S
H726 C752 0.950 . S
H727 C754 0.950 . S
H728 C757 0.950 . S
H729 C758 0.950 . S
H730 C760 0.950 . S
H731 C761 0.950 1_655 S
C732 H714 0.951 . S
C732 C733 1.366 . S
C732 C734 1.388 . S
C733 C732 1.366 . S
C733 C737 1.385 . S
C734 H715 0.951 . S
C734 C732 1.388 . S
C734 C735 1.366 . S
C735 C734 1.366 . S
C735 C736 1.414 . S
C735 C738 1.499 . S
C736 H716 0.950 . S
C736 C735 1.414 . S
C736 C737 1.374 . S
C737 H717 0.950 . S
C737 C733 1.385 . S
C737 C736 1.374 . S
C738 C735 1.499 . S
C738 C739 1.373 . S
C738 C740 1.389 . S
C739 H718 0.950 . S
C739 C738 1.373 . S
C739 C755 1.377 . S
C740 C738 1.389 . S
C740 C741 1.524 . S
C740 C754 1.377 . S
C741 C740 1.524 . S
C741 C742 1.397 . S
C741 C746 1.363 . S
C742 H719 0.950 . S
C742 C741 1.397 . S
C742 C743 1.334 . S
C743 H720 0.950 . S
C743 C742 1.334 . S
C743 C744 1.287 . S
C744 C743 1.287 . S
C744 C745 1.524 . S
C744 H763 0.913 . S
C745 H721 0.950 . S
C745 C744 1.524 . S
C745 C746 1.415 . S
C746 H722 0.950 . S
C746 C741 1.363 . S
C746 C745 1.415 . S
C747 H723 0.953 . S
C747 C748 1.366 . S
C747 C749 1.388 . S
C748 C747 1.366 . S
C748 C752 1.385 . S
C749 H724 0.951 . S
C749 C747 1.388 . S
C749 C750 1.366 . S
C750 C749 1.366 . S
C750 C751 1.414 . S
C750 C753 1.499 . S
C751 H725 0.950 . S
C751 C750 1.414 . S
C751 C752 1.374 . S
C752 H726 0.950 . S
C752 C748 1.385 . S
C752 C751 1.374 . S
C753 C750 1.499 . S
C753 C754 1.373 . S
C753 C755 1.389 . S
C754 H727 0.950 . S
C754 C740 1.377 . S
C754 C753 1.373 . S
C755 C739 1.377 . S
C755 C753 1.389 . S
C755 C756 1.524 . S
C756 C755 1.524 . S
C756 C757 1.397 1_655 S
C756 C761 1.363 1_655 S
C757 H728 0.950 . S
C757 C756 1.397 1_455 S
C757 C758 1.334 . S
C758 H729 0.950 . S
C758 C757 1.334 . S
C758 C759 1.287 . S
C759 C758 1.287 . S
C759 C760 1.524 . S
C759 H762 0.999 . S
C760 H730 0.950 . S
C760 C759 1.524 . S
C760 C761 1.415 . S
C761 H731 0.950 1_455 S
C761 C756 1.363 1_455 S
C761 C760 1.415 . S
H762 C759 0.999 . S
H763 C744 0.913 . S
H764 C782 0.951 . S
H765 C784 0.951 . S
H766 C786 0.950 . S
H767 C787 0.950 . S
H768 C789 0.950 . S
H769 C792 0.950 . S
H770 C793 0.950 . S
H771 C795 0.950 . S
H772 C796 0.950 . S
H773 C797 0.951 . S
H774 C799 0.951 . S
H775 C801 0.950 . S
H776 C802 0.950 . S
H777 C804 0.950 . S
H778 C807 0.950 . S
H779 C808 0.950 . S
H780 C810 0.950 1_556 S
H781 C811 0.950 . S
C782 H764 0.951 . S
C782 C783 1.366 . S
C782 C784 1.388 . S
C783 C782 1.366 . S
C783 C787 1.385 . S
C784 H765 0.951 . S
C784 C782 1.388 . S
C784 C785 1.366 . S
C785 C784 1.366 . S
C785 C786 1.414 . S
C785 C788 1.499 . S
C786 H766 0.950 . S
C786 C785 1.414 . S
C786 C787 1.374 . S
C787 H767 0.950 . S
C787 C783 1.385 . S
C787 C786 1.374 . S
C788 C785 1.499 . S
C788 C789 1.373 . S
C788 C790 1.389 . S
C789 H768 0.950 . S
C789 C788 1.373 . S
C789 C805 1.377 . S
C790 C788 1.389 . S
C790 C791 1.524 . S
C790 C804 1.377 . S
C791 C790 1.524 . S
C791 C792 1.397 . S
C791 C796 1.363 . S
C792 H769 0.950 . S
C792 C791 1.397 . S
C792 C793 1.334 . S
C793 H770 0.950 . S
C793 C792 1.334 . S
C793 C794 1.287 . S
C794 C793 1.287 . S
C794 C795 1.524 . S
C794 H813 0.913 . S
C795 H771 0.950 . S
C795 C794 1.524 . S
C795 C796 1.415 . S
C796 H772 0.950 . S
C796 C791 1.363 . S
C796 C795 1.415 . S
C797 H773 0.951 . S
C797 C798 1.366 . S
C797 C799 1.388 . S
C798 C797 1.366 . S
C798 C802 1.385 . S
C799 H774 0.951 . S
C799 C797 1.388 . S
C799 C800 1.366 . S
C800 C799 1.366 . S
C800 C801 1.414 . S
C800 C803 1.499 . S
C801 H775 0.950 . S
C801 C800 1.414 . S
C801 C802 1.374 . S
C802 H776 0.950 . S
C802 C798 1.385 . S
C802 C801 1.374 . S
C803 C800 1.499 . S
C803 C804 1.373 . S
C803 C805 1.389 . S
C804 H777 0.950 . S
C804 C790 1.377 . S
C804 C803 1.373 . S
C805 C789 1.377 . S
C805 C803 1.389 . S
C805 C806 1.524 . S
C806 C805 1.524 . S
C806 C807 1.397 . S
C806 C811 1.363 . S
C807 H778 0.950 . S
C807 C806 1.397 . S
C807 C808 1.334 . S
C808 H779 0.950 . S
C808 C807 1.334 . S
C808 C809 1.277 1_554 S
C809 C808 1.277 1_556 S
C809 C810 1.521 1_556 S
C809 H812 1.014 . S
C810 H780 0.950 1_554 S
C810 C809 1.521 1_554 S
C810 C811 1.415 . S
C811 H781 0.950 . S
C811 C806 1.363 . S
C811 C810 1.415 . S
H812 C809 1.014 . S
H813 C794 0.913 . S
H814 C832 0.951 . S
H815 C834 0.951 . S
H816 C836 0.950 . S
H817 C837 0.950 . S
H818 C839 0.950 . S
H819 C842 0.950 . S
H820 C843 0.950 . S
H821 C845 0.950 . S
H822 C846 0.950 . S
H823 C847 0.951 . S
H824 C849 0.951 1_545 S
H825 C851 0.950 . S
H826 C852 0.950 . S
H827 C854 0.950 . S
H828 C857 0.950 . S
H829 C858 0.950 . S
H830 C860 0.950 . S
H831 C861 0.950 . S
C832 H814 0.951 . S
C832 C833 1.366 . S
C832 C834 1.388 . S
C833 C832 1.366 . S
C833 C837 1.385 . S
C834 H815 0.951 . S
C834 C832 1.388 . S
C834 C835 1.366 . S
C835 C834 1.366 . S
C835 C836 1.414 . S
C835 C838 1.499 . S
C836 H816 0.950 . S
C836 C835 1.414 . S
C836 C837 1.374 . S
C837 H817 0.950 . S
C837 C833 1.385 . S
C837 C836 1.374 . S
C838 C835 1.499 . S
C838 C839 1.373 . S
C838 C840 1.389 . S
C839 H818 0.950 . S
C839 C838 1.373 . S
C839 C855 1.377 . S
C840 C838 1.389 . S
C840 C841 1.524 . S
C840 C854 1.377 . S
C841 C840 1.524 . S
C841 C842 1.397 . S
C841 C846 1.363 . S
C842 H819 0.950 . S
C842 C841 1.397 . S
C842 C843 1.334 . S
C843 H820 0.950 . S
C843 C842 1.334 . S
C843 C844 1.287 . S
C844 C843 1.287 . S
C844 C845 1.524 . S
C844 H863 0.913 . S
C845 H821 0.950 . S
C845 C844 1.524 . S
C845 C846 1.415 . S
C846 H822 0.950 . S
C846 C841 1.363 . S
C846 C845 1.415 . S
C847 H823 0.951 . S
C847 C848 1.366 1_545 S
C847 C849 1.388 1_545 S
C848 C847 1.366 1_565 S
C848 C852 1.385 . S
C849 H824 0.951 1_565 S
C849 C847 1.388 1_565 S
C849 C850 1.366 . S
C850 C849 1.366 . S
C850 C851 1.414 . S
C850 C853 1.499 . S
C851 H825 0.950 . S
C851 C850 1.414 . S
C851 C852 1.374 . S
C852 H826 0.950 . S
C852 C848 1.385 . S
C852 C851 1.374 . S
C853 C850 1.499 . S
C853 C854 1.373 . S
C853 C855 1.389 . S
C854 H827 0.950 . S
C854 C840 1.377 . S
C854 C853 1.373 . S
C855 C839 1.377 . S
C855 C853 1.389 . S
C855 C856 1.524 . S
C856 C855 1.524 . S
C856 C857 1.397 . S
C856 C861 1.363 1_565 S
C857 H828 0.950 . S
C857 C856 1.397 . S
C857 C858 1.334 1_565 S
C858 H829 0.950 . S
C858 C857 1.334 1_545 S
C858 C859 1.287 . S
C859 C858 1.287 . S
C859 C860 1.524 . S
C859 H862 0.999 . S
C860 H830 0.950 . S
C860 C859 1.524 . S
C860 C861 1.415 . S
C861 H831 0.950 . S
C861 C856 1.363 1_545 S
C861 C860 1.415 . S
H862 C859 0.999 . S
H863 C844 0.913 . S
H864 C882 0.951 . S
H865 C884 0.951 . S
H866 C886 0.950 . S
H867 C887 0.950 . S
H868 C889 0.950 . S
H869 C892 0.950 . S
H870 C893 0.950 . S
H871 C895 0.950 . S
H872 C896 0.950 . S
H873 C897 0.951 1_554 S
H874 C899 0.951 . S
H875 C901 0.950 . S
H876 C902 0.950 . S
H877 C904 0.950 . S
H878 C907 0.950 . S
H879 C908 0.950 . S
H880 C910 0.950 . S
H881 C911 0.948 1_556 S
C882 H864 0.951 . S
C882 C883 1.366 . S
C882 C884 1.388 . S
C883 C882 1.366 . S
C883 C887 1.385 . S
C884 H865 0.951 . S
C884 C882 1.388 . S
C884 C885 1.366 . S
C885 C884 1.366 . S
C885 C886 1.414 . S
C885 C888 1.499 . S
C886 H866 0.950 . S
C886 C885 1.414 . S
C886 C887 1.374 . S
C887 H867 0.950 . S
C887 C883 1.385 . S
C887 C886 1.374 . S
C888 C885 1.499 . S
C888 C889 1.373 . S
C888 C890 1.389 . S
C889 H868 0.950 . S
C889 C888 1.373 . S
C889 C905 1.377 . S
C890 C888 1.389 . S
C890 C891 1.524 . S
C890 C904 1.377 . S
C891 C890 1.524 . S
C891 C892 1.397 . S
C891 C896 1.363 . S
C892 H869 0.950 . S
C892 C891 1.397 . S
C892 C893 1.334 . S
C893 H870 0.950 . S
C893 C892 1.334 . S
C893 C894 1.287 . S
C894 C893 1.287 . S
C894 C895 1.524 . S
C894 H913 0.913 . S
C895 H871 0.950 . S
C895 C894 1.524 . S
C895 C896 1.415 . S
C896 H872 0.950 . S
C896 C891 1.363 . S
C896 C895 1.415 . S
C897 H873 0.951 1_556 S
C897 C898 1.366 . S
C897 C899 1.388 . S
C898 C897 1.366 . S
C898 C902 1.385 . S
C899 H874 0.951 . S
C899 C897 1.388 . S
C899 C900 1.366 . S
C900 C899 1.366 . S
C900 C901 1.414 . S
C900 C903 1.499 . S
C901 H875 0.950 . S
C901 C900 1.414 . S
C901 C902 1.374 . S
C902 H876 0.950 . S
C902 C898 1.385 . S
C902 C901 1.374 . S
C903 C900 1.499 . S
C903 C904 1.373 . S
C903 C905 1.389 . S
C904 H877 0.950 . S
C904 C890 1.377 . S
C904 C903 1.373 . S
C905 C889 1.377 . S
C905 C903 1.389 . S
C905 C906 1.524 . S
C906 C905 1.524 . S
C906 C907 1.397 . S
C906 C911 1.347 1_556 S
C907 H878 0.950 . S
C907 C906 1.397 . S
C907 C908 1.334 1_556 S
C908 H879 0.950 . S
C908 C907 1.334 1_554 S
C908 C909 1.287 . S
C909 C908 1.287 . S
C909 C910 1.524 . S
C909 H912 0.999 . S
C910 H880 0.950 . S
C910 C909 1.524 . S
C910 C911 1.434 . S
C911 H881 0.948 1_554 S
C911 C906 1.347 1_554 S
C911 C910 1.434 . S
H912 C909 0.999 . S
H913 C894 0.913 . S
H914 C932 0.951 . S
H915 C934 0.951 . S
H916 C936 0.950 . S
H917 C937 0.950 . S
H918 C939 0.950 . S
H919 C942 0.950 . S
H920 C943 0.950 . S
H921 C945 0.950 . S
H922 C946 0.950 . S
H923 C947 0.951 . S
H924 C949 0.951 . S
H925 C951 0.950 . S
H926 C952 0.950 . S
H927 C954 0.950 . S
H928 C957 0.950 . S
H929 C958 0.950 . S
H930 C960 0.950 . S
H931 C961 0.950 . S
C932 H914 0.951 . S
C932 C933 1.366 . S
C932 C934 1.388 . S
C933 C932 1.366 . S
C933 C937 1.385 . S
C934 H915 0.951 . S
C934 C932 1.388 . S
C934 C935 1.366 . S
C935 C934 1.366 . S
C935 C936 1.414 . S
C935 C938 1.499 . S
C936 H916 0.950 . S
C936 C935 1.414 . S
C936 C937 1.374 . S
C937 H917 0.950 . S
C937 C933 1.385 . S
C937 C936 1.374 . S
C938 C935 1.499 . S
C938 C939 1.373 . S
C938 C940 1.389 . S
C939 H918 0.950 . S
C939 C938 1.373 . S
C939 C955 1.377 . S
C940 C938 1.389 . S
C940 C941 1.524 . S
C940 C954 1.377 . S
C941 C940 1.524 . S
C941 C942 1.397 . S
C941 C946 1.363 . S
C942 H919 0.950 . S
C942 C941 1.397 . S
C942 C943 1.334 . S
C943 H920 0.950 . S
C943 C942 1.334 . S
C943 C944 1.287 . S
C944 C943 1.287 . S
C944 C945 1.524 . S
C944 H963 0.913 . S
C945 H921 0.950 . S
C945 C944 1.524 . S
C945 C946 1.415 . S
C946 H922 0.950 . S
C946 C941 1.363 . S
C946 C945 1.415 . S
C947 H923 0.951 . S
C947 C948 1.366 . S
C947 C949 1.388 . S
C948 C947 1.366 . S
C948 C952 1.385 . S
C949 H924 0.951 . S
C949 C947 1.388 . S
C949 C950 1.366 . S
C950 C949 1.366 . S
C950 C951 1.414 . S
C950 C953 1.499 . S
C951 H925 0.950 . S
C951 C950 1.414 . S
C951 C952 1.374 . S
C952 H926 0.950 . S
C952 C948 1.385 . S
C952 C951 1.374 . S
C953 C950 1.499 . S
C953 C954 1.373 . S
C953 C955 1.389 . S
C954 H927 0.950 . S
C954 C940 1.377 . S
C954 C953 1.373 . S
C955 C939 1.377 . S
C955 C953 1.389 . S
C955 C956 1.524 . S
C956 C955 1.524 . S
C956 C957 1.397 . S
C956 C961 1.363 . S
C957 H928 0.950 . S
C957 C956 1.397 . S
C957 C958 1.334 . S
C958 H929 0.950 . S
C958 C957 1.334 . S
C958 C959 1.287 . S
C959 C958 1.287 . S
C959 C960 1.524 . S
C959 H962 0.999 . S
C960 H930 0.950 . S
C960 C959 1.524 . S
C960 C961 1.415 . S
C961 H931 0.950 . S
C961 C956 1.363 . S
C961 C960 1.415 . S
H962 C959 0.999 . S
H963 C944 0.913 . S
H964 C982 0.951 . S
H965 C984 0.951 . S
H966 C986 0.950 . S
H967 C987 0.950 . S
H968 C989 0.950 . S
H969 C992 0.950 . S
H970 C993 0.950 . S
H971 C995 0.950 . S
H972 C996 0.950 . S
H973 C997 0.951 . S
H974 C999 0.951 . S
H975 C1001 0.950 . S
H976 C1002 0.950 . S
H977 C1004 0.950 . S
H978 C1007 0.950 . S
H979 C1008 0.950 . S
H980 C1010 0.950 1_655 S
H981 C1011 0.950 . S
C982 H964 0.951 . S
C982 C983 1.366 . S
C982 C984 1.388 . S
C983 C982 1.366 . S
C983 C987 1.385 . S
C984 H965 0.951 . S
C984 C982 1.388 . S
C984 C985 1.366 . S
C985 C984 1.366 . S
C985 C986 1.414 . S
C985 C988 1.499 . S
C986 H966 0.950 . S
C986 C985 1.414 . S
C986 C987 1.374 . S
C987 H967 0.950 . S
C987 C983 1.385 . S
C987 C986 1.374 . S
C988 C985 1.499 . S
C988 C989 1.373 . S
C988 C990 1.389 . S
C989 H968 0.950 . S
C989 C988 1.373 . S
C989 C1005 1.377 . S
C990 C988 1.389 . S
C990 C991 1.524 . S
C990 C1004 1.377 . S
C991 C990 1.524 . S
C991 C992 1.397 . S
C991 C996 1.363 . S
C992 H969 0.950 . S
C992 C991 1.397 . S
C992 C993 1.334 . S
C993 H970 0.950 . S
C993 C992 1.334 . S
C993 C994 1.287 . S
C994 C993 1.287 . S
C994 C995 1.524 . S
C994 H1013 0.913 . S
C995 H971 0.950 . S
C995 C994 1.524 . S
C995 C996 1.415 . S
C996 H972 0.950 . S
C996 C991 1.363 . S
C996 C995 1.415 . S
C997 H973 0.951 . S
C997 C998 1.366 . S
C997 C999 1.388 . S
C998 C997 1.366 . S
C998 C1002 1.385 . S
C999 H974 0.951 . S
C999 C997 1.388 . S
C999 C1000 1.366 . S
C1000 C999 1.366 . S
C1000 C1001 1.414 . S
C1000 C1003 1.499 . S
C1001 H975 0.950 . S
C1001 C1000 1.414 . S
C1001 C1002 1.374 . S
C1002 H976 0.950 . S
C1002 C998 1.385 . S
C1002 C1001 1.374 . S
C1003 C1000 1.499 . S
C1003 C1004 1.373 . S
C1003 C1005 1.389 . S
C1004 H977 0.950 . S
C1004 C990 1.377 . S
C1004 C1003 1.373 . S
C1005 C989 1.377 . S
C1005 C1003 1.389 . S
C1005 C1006 1.524 . S
C1006 C1005 1.524 . S
C1006 C1007 1.397 . S
C1006 C1011 1.363 . S
C1007 H978 0.950 . S
C1007 C1006 1.397 . S
C1007 C1008 1.334 . S
C1008 H979 0.950 . S
C1008 C1007 1.334 . S
C1008 C1009 1.287 . S
C1009 C1008 1.287 . S
C1009 C1010 1.524 . S
C1009 H1012 0.999 1_455 S
C1010 H980 0.950 1_455 S
C1010 C1009 1.524 . S
C1010 C1011 1.415 . S
C1011 H981 0.950 . S
C1011 C1006 1.363 . S
C1011 C1010 1.415 . S
H1012 C1009 0.999 1_655 S
H1013 C994 0.913 . S
H1014 C1032 0.951 . S
H1015 C1034 0.951 . S
H1016 C1036 0.950 . S
H1017 C1037 0.950 . S
H1018 C1039 0.950 . S
H1019 C1042 0.950 . S
H1020 C1043 0.950 . S
H1021 C1045 0.950 . S
H1022 C1046 0.950 . S
H1023 C1047 0.951 . S
H1024 C1049 0.930 1_554 S
H1025 C1051 0.950 . S
H1026 C1052 0.950 . S
H1027 C1054 0.950 . S
H1028 C1057 0.950 . S
H1029 C1058 0.950 . S
H1030 C1060 0.950 1_554 S
H1031 C1061 0.950 . S
C1032 H1014 0.951 . S
C1032 C1033 1.366 . S
C1032 C1034 1.388 . S
C1033 C1032 1.366 . S
C1033 C1037 1.385 . S
C1034 H1015 0.951 . S
C1034 C1032 1.388 . S
C1034 C1035 1.366 . S
C1035 C1034 1.366 . S
C1035 C1036 1.414 . S
C1035 C1038 1.499 . S
C1036 H1016 0.950 . S
C1036 C1035 1.414 . S
C1036 C1037 1.374 . S
C1037 H1017 0.950 . S
C1037 C1033 1.385 . S
C1037 C1036 1.374 . S
C1038 C1035 1.499 . S
C1038 C1039 1.373 . S
C1038 C1040 1.389 . S
C1039 H1018 0.950 . S
C1039 C1038 1.373 . S
C1039 C1055 1.377 . S
C1040 C1038 1.389 . S
C1040 C1041 1.524 . S
C1040 C1054 1.377 . S
C1041 C1040 1.524 . S
C1041 C1042 1.397 . S
C1041 C1046 1.363 . S
C1042 H1019 0.950 . S
C1042 C1041 1.397 . S
C1042 C1043 1.334 . S
C1043 H1020 0.950 . S
C1043 C1042 1.334 . S
C1043 C1044 1.287 . S
C1044 C1043 1.287 . S
C1044 C1045 1.524 . S
C1044 H1063 0.913 . S
C1045 H1021 0.950 . S
C1045 C1044 1.524 . S
C1045 C1046 1.415 . S
C1046 H1022 0.950 . S
C1046 C1041 1.363 . S
C1046 C1045 1.415 . S
C1047 H1023 0.951 . S
C1047 C1048 1.366 1_554 S
C1047 C1049 1.388 1_554 S
C1048 C1047 1.366 1_556 S
C1048 C1052 1.385 . S
C1049 H1024 0.930 1_556 S
C1049 C1047 1.388 1_556 S
C1049 C1050 1.366 . S
C1050 C1049 1.366 . S
C1050 C1051 1.414 . S
C1050 C1053 1.499 . S
C1051 H1025 0.950 . S
C1051 C1050 1.414 . S
C1051 C1052 1.374 . S
C1052 H1026 0.950 . S
C1052 C1048 1.385 . S
C1052 C1051 1.374 . S
C1053 C1050 1.499 . S
C1053 C1054 1.373 . S
C1053 C1055 1.389 . S
C1054 H1027 0.950 . S
C1054 C1040 1.377 . S
C1054 C1053 1.373 . S
C1055 C1039 1.377 . S
C1055 C1053 1.389 . S
C1055 C1056 1.524 . S
C1056 C1055 1.524 . S
C1056 C1057 1.397 . S
C1056 C1061 1.363 . S
C1057 H1028 0.950 . S
C1057 C1056 1.397 . S
C1057 C1058 1.334 . S
C1058 H1029 0.950 . S
C1058 C1057 1.334 . S
C1058 C1059 1.287 . S
C1059 C1058 1.287 . S
C1059 C1060 1.524 . S
C1059 H1062 0.999 . S
C1060 H1030 0.950 1_556 S
C1060 C1059 1.524 . S
C1060 C1061 1.415 . S
C1061 H1031 0.950 . S
C1061 C1056 1.363 . S
C1061 C1060 1.415 . S
H1062 C1059 0.999 . S
H1063 C1044 0.913 . S
H1064 C1082 0.951 . S
H1065 C1084 0.951 . S
H1066 C1086 0.950 . S
H1067 C1087 0.950 . S
H1068 C1089 0.950 . S
H1069 C1092 0.950 . S
H1070 C1093 0.950 . S
H1071 C1095 0.950 . S
H1072 C1096 0.950 . S
H1073 C1097 0.951 1_455 S
H1074 C1099 0.951 . S
H1075 C1101 0.950 . S
H1076 C1102 0.950 . S
H1077 C1104 0.950 . S
H1078 C1107 0.950 . S
H1079 C1108 0.950 . S
H1080 C1110 0.950 . S
H1081 C1111 0.950 . S
C1082 H1064 0.951 . S
C1082 C1083 1.366 . S
C1082 C1084 1.388 . S
C1083 C1082 1.366 . S
C1083 C1087 1.385 . S
C1084 H1065 0.951 . S
C1084 C1082 1.388 . S
C1084 C1085 1.366 . S
C1085 C1084 1.366 . S
C1085 C1086 1.414 . S
C1085 C1088 1.499 . S
C1086 H1066 0.950 . S
C1086 C1085 1.414 . S
C1086 C1087 1.374 . S
C1087 H1067 0.950 . S
C1087 C1083 1.385 . S
C1087 C1086 1.374 . S
C1088 C1085 1.499 . S
C1088 C1089 1.373 . S
C1088 C1090 1.389 . S
C1089 H1068 0.950 . S
C1089 C1088 1.373 . S
C1089 C1105 1.377 . S
C1090 C1088 1.389 . S
C1090 C1091 1.524 . S
C1090 C1104 1.377 . S
C1091 C1090 1.524 . S
C1091 C1092 1.397 . S
C1091 C1096 1.363 . S
C1092 H1069 0.950 . S
C1092 C1091 1.397 . S
C1092 C1093 1.334 . S
C1093 H1070 0.950 . S
C1093 C1092 1.334 . S
C1093 C1094 1.287 . S
C1094 C1093 1.287 . S
C1094 C1095 1.524 . S
C1094 H1113 0.913 . S
C1095 H1071 0.950 . S
C1095 C1094 1.524 . S
C1095 C1096 1.415 . S
C1096 H1072 0.950 . S
C1096 C1091 1.363 . S
C1096 C1095 1.415 . S
C1097 H1073 0.951 1_655 S
C1097 C1098 1.366 . S
C1097 C1099 1.388 . S
C1098 C1097 1.366 . S
C1098 C1102 1.385 . S
C1099 H1074 0.951 . S
C1099 C1097 1.388 . S
C1099 C1100 1.366 . S
C1100 C1099 1.366 . S
C1100 C1101 1.414 . S
C1100 C1103 1.499 . S
C1101 H1075 0.950 . S
C1101 C1100 1.414 . S
C1101 C1102 1.374 . S
C1102 H1076 0.950 . S
C1102 C1098 1.385 . S
C1102 C1101 1.374 . S
C1103 C1100 1.499 . S
C1103 C1104 1.373 . S
C1103 C1105 1.389 . S
C1104 H1077 0.950 . S
C1104 C1090 1.377 . S
C1104 C1103 1.373 . S
C1105 C1089 1.377 . S
C1105 C1103 1.389 . S
C1105 C1106 1.524 . S
C1106 C1105 1.524 . S
C1106 C1107 1.397 . S
C1106 C1111 1.363 . S
C1107 H1078 0.950 . S
C1107 C1106 1.397 . S
C1107 C1108 1.334 . S
C1108 H1079 0.950 . S
C1108 C1107 1.334 . S
C1108 C1109 1.287 . S
C1109 C1108 1.287 . S
C1109 C1110 1.524 . S
C1109 H1112 0.999 . S
C1110 H1080 0.950 . S
C1110 C1109 1.524 . S
C1110 C1111 1.415 . S
C1111 H1081 0.950 . S
C1111 C1106 1.363 . S
C1111 C1110 1.415 . S
H1112 C1109 0.999 . S
H1113 C1094 0.913 . S
H1114 C1132 0.951 . S
H1115 C1134 0.951 . S
H1116 C1136 0.950 . S
H1117 C1137 0.950 . S
H1118 C1139 0.950 . S
H1119 C1142 0.950 . S
H1120 C1143 0.950 . S
H1121 C1145 0.950 . S
H1122 C1146 0.950 . S
H1123 C1147 0.951 . S
H1124 C1149 0.951 . S
H1125 C1151 0.950 . S
H1126 C1152 0.950 . S
H1127 C1154 0.950 . S
H1128 C1157 0.950 . S
H1129 C1158 0.950 . S
H1130 C1160 0.950 . S
H1131 C1161 0.950 . S
C1132 H1114 0.951 . S
C1132 C1133 1.366 . S
C1132 C1134 1.388 . S
C1133 C1132 1.366 . S
C1133 C1137 1.385 . S
C1134 H1115 0.951 . S
C1134 C1132 1.388 . S
C1134 C1135 1.366 . S
C1135 C1134 1.366 . S
C1135 C1136 1.414 . S
C1135 C1138 1.499 . S
C1136 H1116 0.950 . S
C1136 C1135 1.414 . S
C1136 C1137 1.374 . S
C1137 H1117 0.950 . S
C1137 C1133 1.385 . S
C1137 C1136 1.374 . S
C1138 C1135 1.499 . S
C1138 C1139 1.373 . S
C1138 C1140 1.389 . S
C1139 H1118 0.950 . S
C1139 C1138 1.373 . S
C1139 C1155 1.377 . S
C1140 C1138 1.389 . S
C1140 C1141 1.524 . S
C1140 C1154 1.377 . S
C1141 C1140 1.524 . S
C1141 C1142 1.397 . S
C1141 C1146 1.363 . S
C1142 H1119 0.950 . S
C1142 C1141 1.397 . S
C1142 C1143 1.334 . S
C1143 H1120 0.950 . S
C1143 C1142 1.334 . S
C1143 C1144 1.287 . S
C1144 C1143 1.287 . S
C1144 C1145 1.524 . S
C1144 H1163 0.913 . S
C1145 H1121 0.950 . S
C1145 C1144 1.524 . S
C1145 C1146 1.415 . S
C1146 H1122 0.950 . S
C1146 C1141 1.363 . S
C1146 C1145 1.415 . S
C1147 H1123 0.951 . S
C1147 C1148 1.366 . S
C1147 C1149 1.388 . S
C1148 C1147 1.366 . S
C1148 C1152 1.385 . S
C1149 H1124 0.951 . S
C1149 C1147 1.388 . S
C1149 C1150 1.366 . S
C1150 C1149 1.366 . S
C1150 C1151 1.414 . S
C1150 C1153 1.499 . S
C1151 H1125 0.950 . S
C1151 C1150 1.414 . S
C1151 C1152 1.374 . S
C1152 H1126 0.950 . S
C1152 C1148 1.385 . S
C1152 C1151 1.374 . S
C1153 C1150 1.499 . S
C1153 C1154 1.373 . S
C1153 C1155 1.389 . S
C1154 H1127 0.950 . S
C1154 C1140 1.377 . S
C1154 C1153 1.373 . S
C1155 C1139 1.377 . S
C1155 C1153 1.389 . S
C1155 C1156 1.524 . S
C1156 C1155 1.524 . S
C1156 C1157 1.397 . S
C1156 C1161 1.363 . S
C1157 H1128 0.950 . S
C1157 C1156 1.397 . S
C1157 C1158 1.334 . S
C1158 H1129 0.950 . S
C1158 C1157 1.334 . S
C1158 C1159 1.287 . S
C1159 C1158 1.287 . S
C1159 C1160 1.524 . S
C1159 H1162 0.999 . S
C1160 H1130 0.950 . S
C1160 C1159 1.524 . S
C1160 C1161 1.415 . S
C1161 H1131 0.950 . S
C1161 C1156 1.363 . S
C1161 C1160 1.415 . S
H1162 C1159 0.999 . S
H1163 C1144 0.913 . S
H1164 C1182 0.951 1_445 S
H1165 C1184 0.951 1_455 S
H1166 C1186 0.950 . S
H1167 C1187 0.950 . S
H1168 C1189 0.950 . S
H1169 C1192 0.950 . S
H1170 C1193 0.950 . S
H1171 C1195 0.950 . S
H1172 C1196 0.950 . S
H1173 C1197 0.951 1_565 S
H1174 C1199 0.951 . S
H1175 C1201 0.950 . S
H1176 C1202 0.950 . S
H1177 C1204 0.950 . S
H1178 C1207 0.950 . S
H1179 C1208 0.950 . S
H1180 C1210 0.950 . S
H1181 C1211 0.950 . S
C1182 H1164 0.951 1_665 S
C1182 C1183 1.366 . S
C1182 C1184 1.388 1_565 S
C1183 C1182 1.366 . S
C1183 C1187 1.385 . S
C1184 H1165 0.951 1_655 S
C1184 C1182 1.388 1_545 S
C1184 C1185 1.366 1_545 S
C1185 C1184 1.366 1_565 S
C1185 C1186 1.414 . S
C1185 C1188 1.499 . S
C1186 H1166 0.950 . S
C1186 C1185 1.414 . S
C1186 C1187 1.374 . S
C1187 H1167 0.950 . S
C1187 C1183 1.385 . S
C1187 C1186 1.374 . S
C1188 C1185 1.499 . S
C1188 C1189 1.373 . S
C1188 C1190 1.389 1_565 S
C1189 H1168 0.950 . S
C1189 C1188 1.373 . S
C1189 C1205 1.377 . S
C1190 C1188 1.389 1_545 S
C1190 C1191 1.524 . S
C1190 C1204 1.377 . S
C1191 C1190 1.524 . S
C1191 C1192 1.397 . S
C1191 C1196 1.363 1_655 S
C1192 H1169 0.950 . S
C1192 C1191 1.397 . S
C1192 C1193 1.334 . S
C1193 H1170 0.950 . S
C1193 C1192 1.334 . S
C1193 C1194 1.287 . S
C1194 C1193 1.287 . S
C1194 C1195 1.524 1_655 S
C1194 H1213 0.913 . S
C1195 H1171 0.950 . S
C1195 C1194 1.524 1_455 S
C1195 C1196 1.415 . S
C1196 H1172 0.950 . S
C1196 C1191 1.363 1_455 S
C1196 C1195 1.415 . S
C1197 H1173 0.951 1_545 S
C1197 C1198 1.366 . S
C1197 C1199 1.388 1_545 S
C1198 C1197 1.366 . S
C1198 C1202 1.385 1_655 S
C1199 H1174 0.951 . S
C1199 C1197 1.388 1_565 S
C1199 C1200 1.366 1_565 S
C1200 C1199 1.366 1_545 S
C1200 C1201 1.414 1_655 S
C1200 C1203 1.499 . S
C1201 H1175 0.950 . S
C1201 C1200 1.414 1_455 S
C1201 C1202 1.374 . S
C1202 H1176 0.950 . S
C1202 C1198 1.385 1_455 S
C1202 C1201 1.374 . S
C1203 C1200 1.499 . S
C1203 C1204 1.373 . S
C1203 C1205 1.389 1_545 S
C1204 H1177 0.950 . S
C1204 C1190 1.377 . S
C1204 C1203 1.373 . S
C1205 C1189 1.377 . S
C1205 C1203 1.389 1_565 S
C1205 C1206 1.524 . S
C1206 C1205 1.524 . S
C1206 C1207 1.397 1_655 S
C1206 C1211 1.363 . S
C1207 H1178 0.950 . S
C1207 C1206 1.397 1_455 S
C1207 C1208 1.334 . S
C1208 H1179 0.950 . S
C1208 C1207 1.334 . S
C1208 C1209 1.287 1_455 S
C1209 C1208 1.287 1_655 S
C1209 C1210 1.524 . S
C1209 H1212 0.999 . S
C1210 H1180 0.950 . S
C1210 C1209 1.524 . S
C1210 C1211 1.415 . S
C1211 H1181 0.950 . S
C1211 C1206 1.363 . S
C1211 C1210 1.415 . S
H1212 C1209 0.999 . S
H1213 C1194 0.913 . S
H1214 C1232 0.951 . S
H1215 C1234 0.951 . S
H1216 C1236 0.950 . S
H1217 C1237 0.950 . S
H1218 C1239 0.950 . S
H1219 C1242 0.950 . S
H1220 C1243 0.950 . S
H1221 C1245 0.950 . S
H1222 C1246 0.950 . S
H1223 C1247 0.951 . S
H1224 C1249 0.951 . S
H1225 C1251 0.950 . S
H1226 C1252 0.950 . S
H1227 C1254 0.950 . S
H1228 C1257 0.950 . S
H1229 C1258 0.950 . S
H1230 C1260 0.950 . S
H1231 C1261 0.950 1_545 S
C1232 H1214 0.951 . S
C1232 C1233 1.366 . S
C1232 C1234 1.388 . S
C1233 C1232 1.366 . S
C1233 C1237 1.385 . S
C1234 H1215 0.951 . S
C1234 C1232 1.388 . S
C1234 C1235 1.366 . S
C1235 C1234 1.366 . S
C1235 C1236 1.414 . S
C1235 C1238 1.499 . S
C1236 H1216 0.950 . S
C1236 C1235 1.414 . S
C1236 C1237 1.374 . S
C1237 H1217 0.950 . S
C1237 C1233 1.385 . S
C1237 C1236 1.374 . S
C1238 C1235 1.499 . S
C1238 C1239 1.373 . S
C1238 C1240 1.389 . S
C1239 H1218 0.950 . S
C1239 C1238 1.373 . S
C1239 C1255 1.377 . S
C1240 C1238 1.389 . S
C1240 C1241 1.524 . S
C1240 C1254 1.377 . S
C1241 C1240 1.524 . S
C1241 C1242 1.397 . S
C1241 C1246 1.363 . S
C1242 H1219 0.950 . S
C1242 C1241 1.397 . S
C1242 C1243 1.334 . S
C1243 H1220 0.950 . S
C1243 C1242 1.334 . S
C1243 C1244 1.287 . S
C1244 C1243 1.287 . S
C1244 C1245 1.524 . S
C1244 H1263 0.913 . S
C1245 H1221 0.950 . S
C1245 C1244 1.524 . S
C1245 C1246 1.415 . S
C1246 H1222 0.950 . S
C1246 C1241 1.363 . S
C1246 C1245 1.415 . S
C1247 H1223 0.951 . S
C1247 C1248 1.366 . S
C1247 C1249 1.388 . S
C1248 C1247 1.366 . S
C1248 C1252 1.385 . S
C1249 H1224 0.951 . S
C1249 C1247 1.388 . S
C1249 C1250 1.366 . S
C1250 C1249 1.366 . S
C1250 C1251 1.414 . S
C1250 C1253 1.499 . S
C1251 H1225 0.950 . S
C1251 C1250 1.414 . S
C1251 C1252 1.374 . S
C1252 H1226 0.950 . S
C1252 C1248 1.385 . S
C1252 C1251 1.374 . S
C1253 C1250 1.499 . S
C1253 C1254 1.373 . S
C1253 C1255 1.389 . S
C1254 H1227 0.950 . S
C1254 C1240 1.377 . S
C1254 C1253 1.373 . S
C1255 C1239 1.377 . S
C1255 C1253 1.389 . S
C1255 C1256 1.524 1_545 S
C1256 C1255 1.524 1_565 S
C1256 C1257 1.397 . S
C1256 C1261 1.363 . S
C1257 H1228 0.950 . S
C1257 C1256 1.397 . S
C1257 C1258 1.334 . S
C1258 H1229 0.950 . S
C1258 C1257 1.334 . S
C1258 C1259 1.287 . S
C1259 C1258 1.287 . S
C1259 C1260 1.524 . S
C1259 H1262 0.999 . S
C1260 H1230 0.950 . S
C1260 C1259 1.524 . S
C1260 C1261 1.415 . S
C1261 H1231 0.950 1_565 S
C1261 C1256 1.363 . S
C1261 C1260 1.415 . S
H1262 C1259 0.999 . S
H1263 C1244 0.913 . S
H1264 C1282 0.951 . S
H1265 C1284 0.951 . S
H1266 C1286 0.950 . S
H1267 C1287 0.950 . S
H1268 C1289 0.950 . S
H1269 C1292 0.950 . S
H1270 C1293 0.950 . S
H1271 C1295 0.950 . S
H1272 C1296 0.950 . S
H1273 C1297 0.951 . S
H1274 C1299 0.951 . S
H1275 C1301 0.950 . S
H1276 C1302 0.950 . S
H1277 C1304 0.950 . S
H1278 C1307 0.950 . S
H1279 C1308 0.950 . S
H1280 C1310 0.950 . S
H1281 C1311 0.950 . S
C1282 H1264 0.951 . S
C1282 C1283 1.366 . S
C1282 C1284 1.388 . S
C1283 C1282 1.366 . S
C1283 C1287 1.385 . S
C1284 H1265 0.951 . S
C1284 C1282 1.388 . S
C1284 C1285 1.366 . S
C1285 C1284 1.366 . S
C1285 C1286 1.414 . S
C1285 C1288 1.499 . S
C1286 H1266 0.950 . S
C1286 C1285 1.414 . S
C1286 C1287 1.374 . S
C1287 H1267 0.950 . S
C1287 C1283 1.385 . S
C1287 C1286 1.374 . S
C1288 C1285 1.499 . S
C1288 C1289 1.373 . S
C1288 C1290 1.389 . S
C1289 H1268 0.950 . S
C1289 C1288 1.373 . S
C1289 C1305 1.377 . S
C1290 C1288 1.389 . S
C1290 C1291 1.524 . S
C1290 C1304 1.377 . S
C1291 C1290 1.524 . S
C1291 C1292 1.397 . S
C1291 C1296 1.363 . S
C1292 H1269 0.950 . S
C1292 C1291 1.397 . S
C1292 C1293 1.334 . S
C1293 H1270 0.950 . S
C1293 C1292 1.334 . S
C1293 C1294 1.287 . S
C1294 C1293 1.287 . S
C1294 C1295 1.524 . S
C1294 H1313 0.913 . S
C1295 H1271 0.950 . S
C1295 C1294 1.524 . S
C1295 C1296 1.415 . S
C1296 H1272 0.950 . S
C1296 C1291 1.363 . S
C1296 C1295 1.415 . S
C1297 H1273 0.951 . S
C1297 C1298 1.366 . S
C1297 C1299 1.388 . S
C1298 C1297 1.366 . S
C1298 C1302 1.385 . S
C1299 H1274 0.951 . S
C1299 C1297 1.388 . S
C1299 C1300 1.366 . S
C1300 C1299 1.366 . S
C1300 C1301 1.414 . S
C1300 C1303 1.499 . S
C1301 H1275 0.950 . S
C1301 C1300 1.414 . S
C1301 C1302 1.374 . S
C1302 H1276 0.950 . S
C1302 C1298 1.385 . S
C1302 C1301 1.374 . S
C1303 C1300 1.499 . S
C1303 C1304 1.373 . S
C1303 C1305 1.389 . S
C1304 H1277 0.950 . S
C1304 C1290 1.377 . S
C1304 C1303 1.373 . S
C1305 C1289 1.377 . S
C1305 C1303 1.389 . S
C1305 C1306 1.524 . S
C1306 C1305 1.524 . S
C1306 C1307 1.397 . S
C1306 C1311 1.363 . S
C1307 H1278 0.950 . S
C1307 C1306 1.397 . S
C1307 C1308 1.334 . S
C1308 H1279 0.950 . S
C1308 C1307 1.334 . S
C1308 C1309 1.287 . S
C1309 C1308 1.287 . S
C1309 C1310 1.524 . S
C1309 H1312 0.999 . S
C1310 H1280 0.950 . S
C1310 C1309 1.524 . S
C1310 C1311 1.415 . S
C1311 H1281 0.950 . S
C1311 C1306 1.363 . S
C1311 C1310 1.415 . S
H1312 C1309 0.999 . S
H1313 C1294 0.913 . S
H1314 C1332 0.951 . S
H1315 C1334 0.951 . S
H1316 C1336 0.950 . S
H1317 C1337 0.950 . S
H1318 C1339 0.950 . S
H1319 C1342 0.950 . S
H1320 C1343 0.950 . S
H1321 C1345 0.950 . S
H1322 C1346 0.950 . S
H1323 C1347 0.951 . S
H1324 C1349 0.951 . S
H1325 C1351 0.950 . S
H1326 C1352 0.950 . S
H1327 C1354 0.950 . S
H1328 C1357 0.950 . S
H1329 C1358 0.950 . S
H1330 C1360 0.950 1_655 S
H1331 C1361 0.950 . S
C1332 H1314 0.951 . S
C1332 C1333 1.366 . S
C1332 C1334 1.388 . S
C1333 C1332 1.366 . S
C1333 C1337 1.385 . S
C1334 H1315 0.951 . S
C1334 C1332 1.388 . S
C1334 C1335 1.366 . S
C1335 C1334 1.366 . S
C1335 C1336 1.414 . S
C1335 C1338 1.499 . S
C1336 H1316 0.950 . S
C1336 C1335 1.414 . S
C1336 C1337 1.374 . S
C1337 H1317 0.950 . S
C1337 C1333 1.385 . S
C1337 C1336 1.374 . S
C1338 C1335 1.499 . S
C1338 C1339 1.373 . S
C1338 C1340 1.389 . S
C1339 H1318 0.950 . S
C1339 C1338 1.373 . S
C1339 C1355 1.377 . S
C1340 C1338 1.389 . S
C1340 C1341 1.524 . S
C1340 C1354 1.377 . S
C1341 C1340 1.524 . S
C1341 C1342 1.397 . S
C1341 C1346 1.363 . S
C1342 H1319 0.950 . S
C1342 C1341 1.397 . S
C1342 C1343 1.334 . S
C1343 H1320 0.950 . S
C1343 C1342 1.334 . S
C1343 C1344 1.287 . S
C1344 C1343 1.287 . S
C1344 C1345 1.524 . S
C1344 H1363 0.913 . S
C1345 H1321 0.950 . S
C1345 C1344 1.524 . S
C1345 C1346 1.415 . S
C1346 H1322 0.950 . S
C1346 C1341 1.363 . S
C1346 C1345 1.415 . S
C1347 H1323 0.951 . S
C1347 C1348 1.366 . S
C1347 C1349 1.388 . S
C1348 C1347 1.366 . S
C1348 C1352 1.385 . S
C1349 H1324 0.951 . S
C1349 C1347 1.388 . S
C1349 C1350 1.366 . S
C1350 C1349 1.366 . S
C1350 C1351 1.414 . S
C1350 C1353 1.499 . S
C1351 H1325 0.950 . S
C1351 C1350 1.414 . S
C1351 C1352 1.374 . S
C1352 H1326 0.950 . S
C1352 C1348 1.385 . S
C1352 C1351 1.374 . S
C1353 C1350 1.499 . S
C1353 C1354 1.373 . S
C1353 C1355 1.389 . S
C1354 H1327 0.950 . S
C1354 C1340 1.377 . S
C1354 C1353 1.373 . S
C1355 C1339 1.377 . S
C1355 C1353 1.389 . S
C1355 C1356 1.524 . S
C1356 C1355 1.524 . S
C1356 C1357 1.397 . S
C1356 C1361 1.363 . S
C1357 H1328 0.950 . S
C1357 C1356 1.397 . S
C1357 C1358 1.334 . S
C1358 H1329 0.950 . S
C1358 C1357 1.334 . S
C1358 C1359 1.287 . S
C1359 C1358 1.287 . S
C1359 C1360 1.524 . S
C1359 H1362 0.999 . S
C1360 H1330 0.950 1_455 S
C1360 C1359 1.524 . S
C1360 C1361 1.415 . S
C1361 H1331 0.950 . S
C1361 C1356 1.363 . S
C1361 C1360 1.415 . S
H1362 C1359 0.999 . S
H1363 C1344 0.913 . S
H1364 C1382 0.933 1_545 S
H1365 C1384 0.951 1_545 S
H1366 C1386 0.950 . S
H1367 C1387 0.950 . S
H1368 C1389 0.950 . S
H1369 C1392 0.950 . S
H1370 C1393 0.950 . S
H1371 C1395 0.950 . S
H1372 C1396 0.915 1_545 S
H1373 C1397 0.951 . S
H1374 C1399 0.951 . S
H1375 C1401 0.950 . S
H1376 C1402 0.950 . S
H1377 C1404 0.950 . S
H1378 C1407 0.950 . S
H1379 C1408 0.950 . S
H1380 C1410 0.950 . S
H1381 C1411 0.950 . S
C1382 H1364 0.933 1_565 S
C1382 C1383 1.366 1_554 S
C1382 C1384 1.388 . S
C1383 C1382 1.366 1_556 S
C1383 C1387 1.385 . S
C1384 H1365 0.951 1_565 S
C1384 C1382 1.388 . S
C1384 C1385 1.366 1_554 S
C1385 C1384 1.366 1_556 S
C1385 C1386 1.414 . S
C1385 C1388 1.499 . S
C1386 H1366 0.950 . S
C1386 C1385 1.414 . S
C1386 C1387 1.374 . S
C1387 H1367 0.950 . S
C1387 C1383 1.385 . S
C1387 C1386 1.374 . S
C1388 C1385 1.499 . S
C1388 C1389 1.373 . S
C1388 C1390 1.389 1_556 S
C1389 H1368 0.950 . S
C1389 C1388 1.373 . S
C1389 C1405 1.377 . S
C1390 C1388 1.389 1_554 S
C1390 C1391 1.524 . S
C1390 C1404 1.377 . S
C1391 C1390 1.524 . S
C1391 C1392 1.397 . S
C1391 C1396 1.363 . S
C1392 H1369 0.950 . S
C1392 C1391 1.397 . S
C1392 C1393 1.334 . S
C1393 H1370 0.950 . S
C1393 C1392 1.334 . S
C1393 C1394 1.287 . S
C1394 C1393 1.287 . S
C1394 C1395 1.524 . S
C1394 H1413 0.913 . S
C1395 H1371 0.950 . S
C1395 C1394 1.524 . S
C1395 C1396 1.415 . S
C1396 H1372 0.915 1_565 S
C1396 C1391 1.363 . S
C1396 C1395 1.415 . S
C1397 H1373 0.951 . S
C1397 C1398 1.366 1_556 S
C1397 C1399 1.388 . S
C1398 C1397 1.366 1_554 S
C1398 C1402 1.385 1_565 S
C1399 H1374 0.951 . S
C1399 C1397 1.388 . S
C1399 C1400 1.366 1_556 S
C1400 C1399 1.366 1_554 S
C1400 C1401 1.414 1_565 S
C1400 C1403 1.499 . S
C1401 H1375 0.950 . S
C1401 C1400 1.414 1_545 S
C1401 C1402 1.374 . S
C1402 H1376 0.950 . S
C1402 C1398 1.385 1_545 S
C1402 C1401 1.374 . S
C1403 C1400 1.499 . S
C1403 C1404 1.373 . S
C1403 C1405 1.389 1_554 S
C1404 H1377 0.950 . S
C1404 C1390 1.377 . S
C1404 C1403 1.373 . S
C1405 C1389 1.377 . S
C1405 C1403 1.389 1_556 S
C1405 C1406 1.524 . S
C1406 C1405 1.524 . S
C1406 C1407 1.397 1_565 S
C1406 C1411 1.363 . S
C1407 H1378 0.950 . S
C1407 C1406 1.397 1_545 S
C1407 C1408 1.334 . S
C1408 H1379 0.950 . S
C1408 C1407 1.334 . S
C1408 C1409 1.287 . S
C1409 C1408 1.287 . S
C1409 C1410 1.524 1_545 S
C1409 H1412 0.999 . S
C1410 H1380 0.950 . S
C1410 C1409 1.524 1_565 S
C1410 C1411 1.415 . S
C1411 H1381 0.950 . S
C1411 C1406 1.363 . S
C1411 C1410 1.415 . S
H1412 C1409 0.999 . S
H1413 C1394 0.913 . S
H1414 C1432 0.951 . S
H1415 C1434 0.951 . S
H1416 C1436 0.950 . S
H1417 C1437 0.950 . S
H1418 C1439 0.950 . S
H1419 C1442 0.950 . S
H1420 C1443 0.950 . S
H1421 C1445 0.950 . S
H1422 C1446 0.950 . S
H1423 C1447 0.951 . S
H1424 C1449 0.951 . S
H1425 C1451 0.950 . S
H1426 C1452 0.950 . S
H1427 C1454 0.950 . S
H1428 C1457 0.950 . S
H1429 C1458 0.950 . S
H1430 C1460 0.950 . S
H1431 C1461 0.950 1_565 S
C1432 H1414 0.951 . S
C1432 C1433 1.366 . S
C1432 C1434 1.388 . S
C1433 C1432 1.366 . S
C1433 C1437 1.385 . S
C1434 H1415 0.951 . S
C1434 C1432 1.388 . S
C1434 C1435 1.366 . S
C1435 C1434 1.366 . S
C1435 C1436 1.414 . S
C1435 C1438 1.499 . S
C1436 H1416 0.950 . S
C1436 C1435 1.414 . S
C1436 C1437 1.374 . S
C1437 H1417 0.950 . S
C1437 C1433 1.385 . S
C1437 C1436 1.374 . S
C1438 C1435 1.499 . S
C1438 C1439 1.373 . S
C1438 C1440 1.389 . S
C1439 H1418 0.950 . S
C1439 C1438 1.373 . S
C1439 C1455 1.377 . S
C1440 C1438 1.389 . S
C1440 C1441 1.524 . S
C1440 C1454 1.377 . S
C1441 C1440 1.524 . S
C1441 C1442 1.397 . S
C1441 C1446 1.363 . S
C1442 H1419 0.950 . S
C1442 C1441 1.397 . S
C1442 C1443 1.334 . S
C1443 H1420 0.950 . S
C1443 C1442 1.334 . S
C1443 C1444 1.287 . S
C1444 C1443 1.287 . S
C1444 C1445 1.524 . S
C1444 H1463 0.913 . S
C1445 H1421 0.950 . S
C1445 C1444 1.524 . S
C1445 C1446 1.415 . S
C1446 H1422 0.950 . S
C1446 C1441 1.363 . S
C1446 C1445 1.415 . S
C1447 H1423 0.951 . S
C1447 C1448 1.366 . S
C1447 C1449 1.388 . S
C1448 C1447 1.366 . S
C1448 C1452 1.385 . S
C1449 H1424 0.951 . S
C1449 C1447 1.388 . S
C1449 C1450 1.366 . S
C1450 C1449 1.366 . S
C1450 C1451 1.414 . S
C1450 C1453 1.499 . S
C1451 H1425 0.950 . S
C1451 C1450 1.414 . S
C1451 C1452 1.374 . S
C1452 H1426 0.950 . S
C1452 C1448 1.385 . S
C1452 C1451 1.374 . S
C1453 C1450 1.499 . S
C1453 C1454 1.373 . S
C1453 C1455 1.389 . S
C1454 H1427 0.950 . S
C1454 C1440 1.377 . S
C1454 C1453 1.373 . S
C1455 C1439 1.377 . S
C1455 C1453 1.389 . S
C1455 C1456 1.524 . S
C1456 C1455 1.524 . S
C1456 C1457 1.397 . S
C1456 C1461 1.363 . S
C1457 H1428 0.950 . S
C1457 C1456 1.397 . S
C1457 C1458 1.334 . S
C1458 H1429 0.950 . S
C1458 C1457 1.334 . S
C1458 C1459 1.287 . S
C1459 C1458 1.287 . S
C1459 C1460 1.524 1_545 S
C1459 H1462 0.999 1_545 S
C1460 H1430 0.950 . S
C1460 C1459 1.524 1_565 S
C1460 C1461 1.415 1_565 S
C1461 H1431 0.950 1_545 S
C1461 C1456 1.363 . S
C1461 C1460 1.415 1_545 S
H1462 C1459 0.999 1_565 S
H1463 C1444 0.913 . S
H1464 C1482 0.951 . S
H1465 C1484 0.951 . S
H1466 C1486 0.950 . S
H1467 C1487 0.950 . S
H1468 C1489 0.950 . S
H1469 C1492 0.950 . S
H1470 C1493 0.950 . S
H1471 C1495 0.950 . S
H1472 C1496 0.950 . S
H1473 C1497 0.936 1_556 S
H1474 C1499 0.951 1_556 S
H1475 C1501 0.950 . S
H1476 C1502 0.950 . S
H1477 C1504 0.950 . S
H1478 C1507 0.950 . S
H1479 C1508 0.936 1_554 S
H1480 C1510 0.950 . S
H1481 C1511 0.950 . S
C1482 H1464 0.951 . S
C1482 C1483 1.366 . S
C1482 C1484 1.388 . S
C1483 C1482 1.366 . S
C1483 C1487 1.385 . S
C1484 H1465 0.951 . S
C1484 C1482 1.388 . S
C1484 C1485 1.366 . S
C1485 C1484 1.366 . S
C1485 C1486 1.414 . S
C1485 C1488 1.499 . S
C1486 H1466 0.950 . S
C1486 C1485 1.414 . S
C1486 C1487 1.374 . S
C1487 H1467 0.950 . S
C1487 C1483 1.385 . S
C1487 C1486 1.374 . S
C1488 C1485 1.499 . S
C1488 C1489 1.373 . S
C1488 C1490 1.389 . S
C1489 H1468 0.950 . S
C1489 C1488 1.373 . S
C1489 C1505 1.377 . S
C1490 C1488 1.389 . S
C1490 C1491 1.524 . S
C1490 C1504 1.377 . S
C1491 C1490 1.524 . S
C1491 C1492 1.397 . S
C1491 C1496 1.363 . S
C1492 H1469 0.950 . S
C1492 C1491 1.397 . S
C1492 C1493 1.334 . S
C1493 H1470 0.950 . S
C1493 C1492 1.334 . S
C1493 C1494 1.287 . S
C1494 C1493 1.287 . S
C1494 C1495 1.524 . S
C1494 H1513 0.913 . S
C1495 H1471 0.950 . S
C1495 C1494 1.524 . S
C1495 C1496 1.415 . S
C1496 H1472 0.950 . S
C1496 C1491 1.363 . S
C1496 C1495 1.415 . S
C1497 H1473 0.936 1_554 S
C1497 C1498 1.378 . S
C1497 C1499 1.390 . S
C1498 C1497 1.378 . S
C1498 C1502 1.385 . S
C1499 H1474 0.951 1_554 S
C1499 C1497 1.390 . S
C1499 C1500 1.366 . S
C1500 C1499 1.366 . S
C1500 C1501 1.414 . S
C1500 C1503 1.499 . S
C1501 H1475 0.950 . S
C1501 C1500 1.414 . S
C1501 C1502 1.374 . S
C1502 H1476 0.950 . S
C1502 C1498 1.385 . S
C1502 C1501 1.374 . S
C1503 C1500 1.499 . S
C1503 C1504 1.373 . S
C1503 C1505 1.389 . S
C1504 H1477 0.950 . S
C1504 C1490 1.377 . S
C1504 C1503 1.373 . S
C1505 C1489 1.377 . S
C1505 C1503 1.389 . S
C1505 C1506 1.524 . S
C1506 C1505 1.524 . S
C1506 C1507 1.397 . S
C1506 C1511 1.363 1_554 S
C1507 H1478 0.950 . S
C1507 C1506 1.397 . S
C1507 C1508 1.314 1_554 S
C1508 H1479 0.936 1_556 S
C1508 C1507 1.314 1_556 S
C1508 C1509 1.323 . S
C1509 C1508 1.323 . S
C1509 C1510 1.524 . S
C1509 H1512 0.999 . S
C1510 H1480 0.950 . S
C1510 C1509 1.524 . S
C1510 C1511 1.415 . S
C1511 H1481 0.950 . S
C1511 C1506 1.363 1_556 S
C1511 C1510 1.415 . S
H1512 C1509 0.999 . S
H1513 C1494 0.913 . S
H1514 C1532 0.951 . S
H1515 C1534 0.951 . S
H1516 C1536 0.950 . S
H1517 C1537 0.950 . S
H1518 C1539 0.950 . S
H1519 C1542 0.950 . S
H1520 C1543 0.950 . S
H1521 C1545 0.950 . S
H1522 C1546 0.950 . S
H1523 C1547 0.951 . S
H1524 C1549 0.951 . S
H1525 C1551 0.950 . S
H1526 C1552 0.950 . S
H1527 C1554 0.950 . S
H1528 C1557 0.950 . S
H1529 C1558 0.950 . S
H1530 C1560 0.950 . S
H1531 C1561 0.950 . S
C1532 H1514 0.951 . S
C1532 C1533 1.366 . S
C1532 C1534 1.388 . S
C1533 C1532 1.366 . S
C1533 C1537 1.385 . S
C1534 H1515 0.951 . S
C1534 C1532 1.388 . S
C1534 C1535 1.366 . S
C1535 C1534 1.366 . S
C1535 C1536 1.414 . S
C1535 C1538 1.499 . S
C1536 H1516 0.950 . S
C1536 C1535 1.414 . S
C1536 C1537 1.374 . S
C1537 H1517 0.950 . S
C1537 C1533 1.385 . S
C1537 C1536 1.374 . S
C1538 C1535 1.499 . S
C1538 C1539 1.373 . S
C1538 C1540 1.389 . S
C1539 H1518 0.950 . S
C1539 C1538 1.373 . S
C1539 C1555 1.377 . S
C1540 C1538 1.389 . S
C1540 C1541 1.524 . S
C1540 C1554 1.377 . S
C1541 C1540 1.524 . S
C1541 C1542 1.397 . S
C1541 C1546 1.363 . S
C1542 H1519 0.950 . S
C1542 C1541 1.397 . S
C1542 C1543 1.334 . S
C1543 H1520 0.950 . S
C1543 C1542 1.334 . S
C1543 C1544 1.287 . S
C1544 C1543 1.287 . S
C1544 C1545 1.524 . S
C1544 H1563 0.913 . S
C1545 H1521 0.950 . S
C1545 C1544 1.524 . S
C1545 C1546 1.415 . S
C1546 H1522 0.950 . S
C1546 C1541 1.363 . S
C1546 C1545 1.415 . S
C1547 H1523 0.951 . S
C1547 C1548 1.366 . S
C1547 C1549 1.388 . S
C1548 C1547 1.366 . S
C1548 C1552 1.385 . S
C1549 H1524 0.951 . S
C1549 C1547 1.388 . S
C1549 C1550 1.366 . S
C1550 C1549 1.366 . S
C1550 C1551 1.414 . S
C1550 C1553 1.499 . S
C1551 H1525 0.950 . S
C1551 C1550 1.414 . S
C1551 C1552 1.374 . S
C1552 H1526 0.950 . S
C1552 C1548 1.385 . S
C1552 C1551 1.374 . S
C1553 C1550 1.499 . S
C1553 C1554 1.373 . S
C1553 C1555 1.389 . S
C1554 H1527 0.950 . S
C1554 C1540 1.377 . S
C1554 C1553 1.373 . S
C1555 C1539 1.377 . S
C1555 C1553 1.389 . S
C1555 C1556 1.524 . S
C1556 C1555 1.524 . S
C1556 C1557 1.397 . S
C1556 C1561 1.363 . S
C1557 H1528 0.950 . S
C1557 C1556 1.397 . S
C1557 C1558 1.334 . S
C1558 H1529 0.950 . S
C1558 C1557 1.334 . S
C1558 C1559 1.287 . S
C1559 C1558 1.287 . S
C1559 C1560 1.524 . S
C1559 H1562 0.999 . S
C1560 H1530 0.950 . S
C1560 C1559 1.524 . S
C1560 C1561 1.415 . S
C1561 H1531 0.950 . S
C1561 C1556 1.363 . S
C1561 C1560 1.415 . S
H1562 C1559 0.999 . S
H1563 C1544 0.913 . S
H1564 C1582 0.951 1_554 S
H1565 C1584 0.951 1_554 S
H1566 C1586 0.950 . S
H1567 C1587 0.944 1_455 S
H1568 C1589 0.950 . S
H1569 C1592 0.950 . S
H1570 C1593 0.950 . S
H1571 C1595 0.950 1_655 S
H1572 C1596 0.950 . S
H1573 C1597 0.951 . S
H1574 C1599 0.951 . S
H1575 C1601 0.950 . S
H1576 C1602 0.957 . S
H1577 C1604 0.950 . S
H1578 C1607 0.950 . S
H1579 C1608 0.950 . S
H1580 C1610 0.950 1_455 S
H1581 C1611 0.950 . S
C1582 H1564 0.951 1_556 S
C1582 C1583 1.366 . S
C1582 C1584 1.388 . S
C1583 C1582 1.366 . S
C1583 C1587 1.393 . S
C1584 H1565 0.951 1_556 S
C1584 C1582 1.388 . S
C1584 C1585 1.366 . S
C1585 C1584 1.366 . S
C1585 C1586 1.414 1_655 S
C1585 C1588 1.499 . S
C1586 H1566 0.950 . S
C1586 C1585 1.414 1_455 S
C1586 C1587 1.371 1_455 S
C1587 H1567 0.944 1_655 S
C1587 C1583 1.393 . S
C1587 C1586 1.371 1_655 S
C1588 C1585 1.499 . S
C1588 C1589 1.373 . S
C1588 C1590 1.389 1_656 S
C1589 H1568 0.950 . S
C1589 C1588 1.373 . S
C1589 C1605 1.377 . S
C1590 C1588 1.389 1_454 S
C1590 C1591 1.524 . S
C1590 C1604 1.377 . S
C1591 C1590 1.524 . S
C1591 C1592 1.397 . S
C1591 C1596 1.363 1_455 S
C1592 H1569 0.950 . S
C1592 C1591 1.397 . S
C1592 C1593 1.334 . S
C1593 H1570 0.950 . S
C1593 C1592 1.334 . S
C1593 C1594 1.287 . S
C1594 C1593 1.287 . S
C1594 C1595 1.524 . S
C1594 H1613 0.913 . S
C1595 H1571 0.950 1_455 S
C1595 C1594 1.524 . S
C1595 C1596 1.415 1_455 S
C1596 H1572 0.950 . S
C1596 C1591 1.363 1_655 S
C1596 C1595 1.415 1_655 S
C1597 H1573 0.951 . S
C1597 C1598 1.366 . S
C1597 C1599 1.388 . S
C1598 C1597 1.366 . S
C1598 C1602 1.375 1_456 S
C1599 H1574 0.951 . S
C1599 C1597 1.388 . S
C1599 C1600 1.366 . S
C1600 C1599 1.366 . S
C1600 C1601 1.414 1_456 S
C1600 C1603 1.499 . S
C1601 H1575 0.950 . S
C1601 C1600 1.414 1_654 S
C1601 C1602 1.377 . S
C1602 H1576 0.957 . S
C1602 C1598 1.375 1_654 S
C1602 C1601 1.377 . S
C1603 C1600 1.499 . S
C1603 C1604 1.373 1_556 S
C1603 C1605 1.389 1_455 S
C1604 H1577 0.950 . S
C1604 C1590 1.377 . S
C1604 C1603 1.373 1_554 S
C1605 C1589 1.377 . S
C1605 C1603 1.389 1_655 S
C1605 C1606 1.524 . S
C1606 C1605 1.524 . S
C1606 C1607 1.397 . S
C1606 C1611 1.363 1_655 S
C1607 H1578 0.950 . S
C1607 C1606 1.397 . S
C1607 C1608 1.334 . S
C1608 H1579 0.950 . S
C1608 C1607 1.334 . S
C1608 C1609 1.287 . S
C1609 C1608 1.287 . S
C1609 C1610 1.524 . S
C1609 H1612 0.999 . S
C1610 H1580 0.950 1_655 S
C1610 C1609 1.524 . S
C1610 C1611 1.415 1_655 S
C1611 H1581 0.950 . S
C1611 C1606 1.363 1_455 S
C1611 C1610 1.415 1_455 S
H1612 C1609 0.999 . S
H1613 C1594 0.913 . S
H1614 C1632 0.951 . S
H1615 C1634 0.951 . S
H1616 C1636 0.950 . S
H1617 C1637 0.950 . S
H1618 C1639 0.950 . S
H1619 C1642 0.950 . S
H1620 C1643 0.950 . S
H1621 C1645 0.950 . S
H1622 C1646 0.950 . S
H1623 C1647 0.951 . S
H1624 C1649 0.951 . S
H1625 C1651 0.950 . S
H1626 C1652 0.950 . S
H1627 C1654 0.950 . S
H1628 C1657 0.950 1_554 S
H1629 C1658 0.950 . S
H1630 C1660 0.950 . S
H1631 C1661 0.950 . S
C1632 H1614 0.951 . S
C1632 C1633 1.366 . S
C1632 C1634 1.388 . S
C1633 C1632 1.366 . S
C1633 C1637 1.385 . S
C1634 H1615 0.951 . S
C1634 C1632 1.388 . S
C1634 C1635 1.366 . S
C1635 C1634 1.366 . S
C1635 C1636 1.414 . S
C1635 C1638 1.499 . S
C1636 H1616 0.950 . S
C1636 C1635 1.414 . S
C1636 C1637 1.374 . S
C1637 H1617 0.950 . S
C1637 C1633 1.385 . S
C1637 C1636 1.374 . S
C1638 C1635 1.499 . S
C1638 C1639 1.373 . S
C1638 C1640 1.389 . S
C1639 H1618 0.950 . S
C1639 C1638 1.373 . S
C1639 C1655 1.377 . S
C1640 C1638 1.389 . S
C1640 C1641 1.524 . S
C1640 C1654 1.377 . S
C1641 C1640 1.524 . S
C1641 C1642 1.397 . S
C1641 C1646 1.363 . S
C1642 H1619 0.950 . S
C1642 C1641 1.397 . S
C1642 C1643 1.334 . S
C1643 H1620 0.950 . S
C1643 C1642 1.334 . S
C1643 C1644 1.287 . S
C1644 C1643 1.287 . S
C1644 C1645 1.524 . S
C1644 H1663 0.913 . S
C1645 H1621 0.950 . S
C1645 C1644 1.524 . S
C1645 C1646 1.415 . S
C1646 H1622 0.950 . S
C1646 C1641 1.363 . S
C1646 C1645 1.415 . S
C1647 H1623 0.951 . S
C1647 C1648 1.366 . S
C1647 C1649 1.388 . S
C1648 C1647 1.366 . S
C1648 C1652 1.385 . S
C1649 H1624 0.951 . S
C1649 C1647 1.388 . S
C1649 C1650 1.366 . S
C1650 C1649 1.366 . S
C1650 C1651 1.414 . S
C1650 C1653 1.499 . S
C1651 H1625 0.950 . S
C1651 C1650 1.414 . S
C1651 C1652 1.374 . S
C1652 H1626 0.950 . S
C1652 C1648 1.385 . S
C1652 C1651 1.374 . S
C1653 C1650 1.499 . S
C1653 C1654 1.373 . S
C1653 C1655 1.389 . S
C1654 H1627 0.950 . S
C1654 C1640 1.377 . S
C1654 C1653 1.373 . S
C1655 C1639 1.377 . S
C1655 C1653 1.389 . S
C1655 C1656 1.524 . S
C1656 C1655 1.524 . S
C1656 C1657 1.397 1_554 S
C1656 C1661 1.363 1_554 S
C1657 H1628 0.950 1_556 S
C1657 C1656 1.397 1_556 S
C1657 C1658 1.334 . S
C1658 H1629 0.950 . S
C1658 C1657 1.334 . S
C1658 C1659 1.287 . S
C1659 C1658 1.287 . S
C1659 C1660 1.524 . S
C1659 H1662 0.999 . S
C1660 H1630 0.950 . S
C1660 C1659 1.524 . S
C1660 C1661 1.415 . S
C1661 H1631 0.950 . S
C1661 C1656 1.363 1_556 S
C1661 C1660 1.415 . S
H1662 C1659 0.999 . S
H1663 C1644 0.913 . S
H1664 C1682 0.951 . S
H1665 C1684 0.951 . S
H1666 C1686 0.950 . S
H1667 C1687 0.950 . S
H1668 C1689 0.950 . S
H1669 C1692 0.950 . S
H1670 C1693 0.950 . S
H1671 C1695 0.950 . S
H1672 C1696 0.950 . S
H1673 C1697 0.951 1_655 S
H1674 C1699 0.951 1_655 S
H1675 C1701 0.950 . S
H1676 C1702 0.950 . S
H1677 C1704 0.950 . S
H1678 C1707 0.950 . S
H1679 C1708 0.950 . S
H1680 C1710 0.950 . S
H1681 C1711 0.950 . S
C1682 H1664 0.951 . S
C1682 C1683 1.366 . S
C1682 C1684 1.388 . S
C1683 C1682 1.366 . S
C1683 C1687 1.385 . S
C1684 H1665 0.951 . S
C1684 C1682 1.388 . S
C1684 C1685 1.366 . S
C1685 C1684 1.366 . S
C1685 C1686 1.414 . S
C1685 C1688 1.499 . S
C1686 H1666 0.950 . S
C1686 C1685 1.414 . S
C1686 C1687 1.374 . S
C1687 H1667 0.950 . S
C1687 C1683 1.385 . S
C1687 C1686 1.374 . S
C1688 C1685 1.499 . S
C1688 C1689 1.373 . S
C1688 C1690 1.389 . S
C1689 H1668 0.950 . S
C1689 C1688 1.373 . S
C1689 C1705 1.377 . S
C1690 C1688 1.389 . S
C1690 C1691 1.524 . S
C1690 C1704 1.377 . S
C1691 C1690 1.524 . S
C1691 C1692 1.397 . S
C1691 C1696 1.363 . S
C1692 H1669 0.950 . S
C1692 C1691 1.397 . S
C1692 C1693 1.334 . S
C1693 H1670 0.950 . S
C1693 C1692 1.334 . S
C1693 C1694 1.287 . S
C1694 C1693 1.287 . S
C1694 C1695 1.524 . S
C1694 H1713 0.913 . S
C1695 H1671 0.950 . S
C1695 C1694 1.524 . S
C1695 C1696 1.415 . S
C1696 H1672 0.950 . S
C1696 C1691 1.363 . S
C1696 C1695 1.415 . S
C1697 H1673 0.951 1_455 S
C1697 C1698 1.366 . S
C1697 C1699 1.388 . S
C1698 C1697 1.366 . S
C1698 C1702 1.385 . S
C1699 H1674 0.951 1_455 S
C1699 C1697 1.388 . S
C1699 C1700 1.366 . S
C1700 C1699 1.366 . S
C1700 C1701 1.414 . S
C1700 C1703 1.499 . S
C1701 H1675 0.950 . S
C1701 C1700 1.414 . S
C1701 C1702 1.374 . S
C1702 H1676 0.950 . S
C1702 C1698 1.385 . S
C1702 C1701 1.374 . S
C1703 C1700 1.499 . S
C1703 C1704 1.373 . S
C1703 C1705 1.389 . S
C1704 H1677 0.950 . S
C1704 C1690 1.377 . S
C1704 C1703 1.373 . S
C1705 C1689 1.377 . S
C1705 C1703 1.389 . S
C1705 C1706 1.524 1_455 S
C1706 C1705 1.524 1_655 S
C1706 C1707 1.397 1_655 S
C1706 C1711 1.363 . S
C1707 H1678 0.950 . S
C1707 C1706 1.397 1_455 S
C1707 C1708 1.334 1_455 S
C1708 H1679 0.950 . S
C1708 C1707 1.334 1_655 S
C1708 C1709 1.287 . S
C1709 C1708 1.287 . S
C1709 C1710 1.524 . S
C1709 H1712 0.999 . S
C1710 H1680 0.950 . S
C1710 C1709 1.524 . S
C1710 C1711 1.415 . S
C1711 H1681 0.950 . S
C1711 C1706 1.363 . S
C1711 C1710 1.415 . S
H1712 C1709 0.999 . S
H1713 C1694 0.913 . S
H1714 C1732 0.951 . S
H1715 C1734 0.951 . S
H1716 C1736 0.950 . S
H1717 C1737 0.950 . S
H1718 C1739 0.950 . S
H1719 C1742 0.950 . S
H1720 C1743 0.950 . S
H1721 C1745 0.950 . S
H1722 C1746 0.950 . S
H1723 C1747 0.951 . S
H1724 C1749 0.951 . S
H1725 C1751 0.950 . S
H1726 C1752 0.950 . S
H1727 C1754 0.950 . S
H1728 C1757 0.950 . S
H1729 C1758 0.950 . S
H1730 C1760 0.950 . S
H1731 C1761 0.950 . S
C1732 H1714 0.951 . S
C1732 C1733 1.366 . S
C1732 C1734 1.388 . S
C1733 C1732 1.366 . S
C1733 C1737 1.385 . S
C1734 H1715 0.951 . S
C1734 C1732 1.388 . S
C1734 C1735 1.366 . S
C1735 C1734 1.366 . S
C1735 C1736 1.414 . S
C1735 C1738 1.499 . S
C1736 H1716 0.950 . S
C1736 C1735 1.414 . S
C1736 C1737 1.374 . S
C1737 H1717 0.950 . S
C1737 C1733 1.385 . S
C1737 C1736 1.374 . S
C1738 C1735 1.499 . S
C1738 C1739 1.373 . S
C1738 C1740 1.389 . S
C1739 H1718 0.950 . S
C1739 C1738 1.373 . S
C1739 C1755 1.377 . S
C1740 C1738 1.389 . S
C1740 C1741 1.524 . S
C1740 C1754 1.377 . S
C1741 C1740 1.524 . S
C1741 C1742 1.397 . S
C1741 C1746 1.363 . S
C1742 H1719 0.950 . S
C1742 C1741 1.397 . S
C1742 C1743 1.334 . S
C1743 H1720 0.950 . S
C1743 C1742 1.334 . S
C1743 C1744 1.287 . S
C1744 C1743 1.287 . S
C1744 C1745 1.524 . S
C1744 H1763 0.913 . S
C1745 H1721 0.950 . S
C1745 C1744 1.524 . S
C1745 C1746 1.415 . S
C1746 H1722 0.950 . S
C1746 C1741 1.363 . S
C1746 C1745 1.415 . S
C1747 H1723 0.951 . S
C1747 C1748 1.366 . S
C1747 C1749 1.388 . S
C1748 C1747 1.366 . S
C1748 C1752 1.385 . S
C1749 H1724 0.951 . S
C1749 C1747 1.388 . S
C1749 C1750 1.366 . S
C1750 C1749 1.366 . S
C1750 C1751 1.414 . S
C1750 C1753 1.499 . S
C1751 H1725 0.950 . S
C1751 C1750 1.414 . S
C1751 C1752 1.374 . S
C1752 H1726 0.950 . S
C1752 C1748 1.385 . S
C1752 C1751 1.374 . S
C1753 C1750 1.499 . S
C1753 C1754 1.373 . S
C1753 C1755 1.389 . S
C1754 H1727 0.950 . S
C1754 C1740 1.377 . S
C1754 C1753 1.373 . S
C1755 C1739 1.377 . S
C1755 C1753 1.389 . S
C1755 C1756 1.524 . S
C1756 C1755 1.524 . S
C1756 C1757 1.397 . S
C1756 C1761 1.363 . S
C1757 H1728 0.950 . S
C1757 C1756 1.397 . S
C1757 C1758 1.334 . S
C1758 H1729 0.950 . S
C1758 C1757 1.334 . S
C1758 C1759 1.287 . S
C1759 C1758 1.287 . S
C1759 C1760 1.524 . S
C1759 H1762 0.999 . S
C1760 H1730 0.950 . S
C1760 C1759 1.524 . S
C1760 C1761 1.415 . S
C1761 H1731 0.950 . S
C1761 C1756 1.363 . S
C1761 C1760 1.415 . S
H1762 C1759 0.999 . S
H1763 C1744 0.913 . S
C583 C1 1.515 . S
C598 C483 1.428 . S
C633 C80 1.490 . S
C648 C517 1.405 . S
C698 C529 1.398 . S
C683 C140 1.482 . S
C733 C211 1.497 . S
C748 C563 1.420 . S
C798 C520 1.421 . S
C783 C31 1.509 . S
C848 C500 1.401 1_565 S
C833 C61 1.490 . S
C898 C547 1.387 . S
C883 C151 1.472 . S
C948 C538 1.414 . S
C933 C200 1.499 . S
C983 C20 1.512 . S
C998 C546 1.426 . S
C1048 C508 1.397 . S
C1033 C121 1.485 . S
C1083 C181 1.492 . S
C1098 C484 1.398 . S
C1133 C91 1.498 . S
C1148 C541 1.409 . S
C1198 C499 1.601 . S
C1183 C260 1.707 . S
C1233 C320 1.635 . S
C1248 C521 1.598 . S
C1283 C361 1.732 . S
C1298 C526 1.621 . S
C1333 C451 1.666 . S
C1348 C559 1.637 . S
C1383 C271 1.719 . S
C1398 C504 1.618 . S
C1448 C496 1.631 . S
C1433 C301 1.663 . S
C1498 C550 1.626 . S
C1483 C380 1.735 . S
C1548 C542 1.604 . S
C1533 C440 1.640 . S
C1583 C241 1.690 . S
C1598 C562 1.589 . S
C1648 C505 1.625 . S
C1633 C391 1.734 . S
C1698 C487 1.600 . S
C1683 C421 1.641 . S
C1733 C331 1.643 . S
C1748 C525 1.612 . S
