# Generated by pormake.
# Topology nom, (4,4)-cn, num edge types: 1
# Building blocks:
#     Node 0, Type 0, BuildingBlock: GIZVER_clean_linker_0, # of connection points: 4
#     Node 1, Type 0, BuildingBlock: GIZVER_clean_linker_0, # of connection points: 4
#     Node 2, Type 0, BuildingBlock: GIZVER_clean_linker_0, # of connection points: 4
#     Node 3, Type 0, BuildingBlock: GIZVER_clean_linker_0, # of connection points: 4
#     Node 4, Type 0, BuildingBlock: GIZVER_clean_linker_0, # of connection points: 4
#     Node 5, Type 0, BuildingBlock: GIZVER_clean_linker_0, # of connection points: 4
#     Node 6, Type 1, BuildingBlock: GALJAG_clean_sbu_0, # of connection points: 4
#     Node 7, Type 1, BuildingBlock: GALJAG_clean_sbu_0, # of connection points: 4
#     Node 8, Type 1, BuildingBlock: GALJAG_clean_sbu_0, # of connection points: 4
#     Node 9, Type 1, BuildingBlock: GALJAG_clean_sbu_0, # of connection points: 4
#     Node 10, Type 1, BuildingBlock: GALJAG_clean_sbu_0, # of connection points: 4
#     Node 11, Type 1, BuildingBlock: GALJAG_clean_sbu_0, # of connection points: 4
#     Edge 12, Type (0, 1), BuildingBlock: CIFDUS_clean_linker_0, # of connection points: 2
#     Edge 13, Type (0, 1), BuildingBlock: CIFDUS_clean_linker_0, # of connection points: 2
#     Edge 14, Type (0, 1), BuildingBlock: CIFDUS_clean_linker_0, # of connection points: 2
#     Edge 15, Type (0, 1), BuildingBlock: CIFDUS_clean_linker_0, # of connection points: 2
#     Edge 16, Type (0, 1), BuildingBlock: CIFDUS_clean_linker_0, # of connection points: 2
#     Edge 17, Type (0, 1), BuildingBlock: CIFDUS_clean_linker_0, # of connection points: 2
#     Edge 18, Type (0, 1), BuildingBlock: CIFDUS_clean_linker_0, # of connection points: 2
#     Edge 19, Type (0, 1), BuildingBlock: CIFDUS_clean_linker_0, # of connection points: 2
#     Edge 20, Type (0, 1), BuildingBlock: CIFDUS_clean_linker_0, # of connection points: 2
#     Edge 21, Type (0, 1), BuildingBlock: CIFDUS_clean_linker_0, # of connection points: 2
#     Edge 22, Type (0, 1), BuildingBlock: CIFDUS_clean_linker_0, # of connection points: 2
#     Edge 23, Type (0, 1), BuildingBlock: CIFDUS_clean_linker_0, # of connection points: 2
#     Edge 24, Type (0, 1), BuildingBlock: CIFDUS_clean_linker_0, # of connection points: 2
#     Edge 25, Type (0, 1), BuildingBlock: CIFDUS_clean_linker_0, # of connection points: 2
#     Edge 26, Type (0, 1), BuildingBlock: CIFDUS_clean_linker_0, # of connection points: 2
#     Edge 27, Type (0, 1), BuildingBlock: CIFDUS_clean_linker_0, # of connection points: 2
#     Edge 28, Type (0, 1), BuildingBlock: CIFDUS_clean_linker_0, # of connection points: 2
#     Edge 29, Type (0, 1), BuildingBlock: CIFDUS_clean_linker_0, # of connection points: 2
#     Edge 30, Type (0, 1), BuildingBlock: CIFDUS_clean_linker_0, # of connection points: 2
#     Edge 31, Type (0, 1), BuildingBlock: CIFDUS_clean_linker_0, # of connection points: 2
#     Edge 32, Type (0, 1), BuildingBlock: CIFDUS_clean_linker_0, # of connection points: 2
#     Edge 33, Type (0, 1), BuildingBlock: CIFDUS_clean_linker_0, # of connection points: 2
#     Edge 34, Type (0, 1), BuildingBlock: CIFDUS_clean_linker_0, # of connection points: 2
#     Edge 35, Type (0, 1), BuildingBlock: CIFDUS_clean_linker_0, # of connection points: 2
# Relax obj value: 0.013
# Max RMSD: 0.088
# Mean RMSD: 0.072
data_MOF--net-nom--node1-GALJAG_clean_sbu_0--node2-GIZVER_clean_linker_0--edge1-CIFDUS_clean_linker_0
_symmetry_space_group_name_H-M    P1
_symmetry_Int_Tables_number       1
_symmetry_cell_setting            triclinic
loop_
_symmetry_equiv_pos_as_xyz
'x, y, z'
_cell_length_a     40.52479
_cell_length_b     40.293281
_cell_length_c     42.412672
_cell_angle_alpha  90.107896
_cell_angle_beta   90.179528
_cell_angle_gamma 120.23039
loop_
_atom_site_label
_atom_site_type_symbol
_atom_site_fract_x
_atom_site_fract_y
_atom_site_fract_z
_atom_type_partial_charge
H0 H 0.95308 0.56725 0.35351 0.0
H1 H 0.9984 0.5694 0.26133 0.0
H2 H 0.8921 0.47223 0.2899 0.0
H3 H 1.00606 0.62555 0.33515 0.0
H4 H 1.01277 0.63043 0.29351 0.0
H5 H 0.03723 0.59064 0.3645 0.0
H6 H 0.15331 0.63563 0.33385 0.0
H7 H 0.07325 0.64473 0.27371 0.0
C8 C 0.95158 0.55305 0.33138 0.0
C9 C 0.91979 0.51669 0.3249 0.0
C10 C 0.98052 0.57194 0.30873 0.0
C11 C 0.97724 0.55417 0.2794 0.0
C12 C 0.94558 0.51788 0.27267 0.0
C13 C 0.91764 0.49914 0.29579 0.0
C14 C 1.01201 0.61295 0.31407 0.0
C15 C 0.05057 0.6162 0.31832 0.0
C16 C 0.05919 0.60409 0.34672 0.0
C17 C 0.09627 0.61084 0.35271 0.0
C18 C 0.12414 0.62855 0.32927 0.0
C19 C 0.11597 0.64039 0.30077 0.0
C20 C 0.07923 0.63444 0.29536 0.0
H21 H 0.41266 0.96035 0.52881 0.0
H22 H 0.44684 0.98815 0.43192 0.0
H23 H 0.44147 0.88881 0.47447 0.0
H24 H 0.405 1.0091 0.50178 0.0
H25 H 0.41456 0.01701 0.4606 0.0
H26 H 0.46692 0.03365 0.53851 0.0
H27 H 0.54722 0.15103 0.51609 0.0
H28 H 0.4651 0.07835 0.44661 0.0
C29 C 0.42359 0.95504 0.50727 0.0
C30 C 0.42667 0.92195 0.5047 0.0
C31 C 0.43292 0.98028 0.48147 0.0
C32 C 0.44304 0.97069 0.45249 0.0
C33 C 0.44482 0.93685 0.44949 0.0
C34 C 0.43952 0.91461 0.47642 0.0
C35 C 0.42655 0.01415 0.4834 0.0
C36 C 0.46281 0.05131 0.49126 0.0
C37 C 0.47917 0.05684 0.52155 0.0
C38 C 0.51032 0.09261 0.53036 0.0
C39 C 0.52492 0.12278 0.50858 0.0
C40 C 0.50914 0.11815 0.47831 0.0
C41 C 0.47807 0.08212 0.4697 0.0
H42 H 0.39422 0.45208 0.61456 0.0
H43 H 0.44036 0.45935 0.70755 0.0
H44 H 0.40922 0.54184 0.67788 0.0
H45 H 0.39396 0.39695 0.63648 0.0
H46 H 0.40209 0.39602 0.67771 0.0
H47 H 0.45524 0.43791 0.60169 0.0
H48 H 0.53994 0.40756 0.6242 0.0
H49 H 0.45582 0.39152 0.69308 0.0
C50 C 0.40425 0.467 0.6369 0.0
C51 C 0.40206 0.50021 0.6428 0.0
C52 C 0.41793 0.45206 0.6603 0.0
C53 C 0.43032 0.47117 0.68949 0.0
C54 C 0.42796 0.50418 0.69589 0.0
C55 C 0.41374 0.51817 0.67237 0.0
C56 C 0.41437 0.41313 0.6559 0.0
C57 C 0.45211 0.41575 0.64861 0.0
C58 C 0.46851 0.42807 0.61862 0.0
C59 C 0.50084 0.426 0.60999 0.0
C60 C 0.51671 0.4117 0.6317 0.0
C61 C 0.5011 0.39938 0.66178 0.0
C62 C 0.46876 0.40173 0.6702 0.0
H63 H 0.96979 0.39648 0.77749 0.0
H64 H 0.0209 0.45295 0.86564 0.0
H65 H 0.90333 0.41536 0.84635 0.0
H66 H 0.03293 0.40991 0.79004 0.0
H67 H 0.04355 0.41265 0.83113 0.0
H68 H 0.05243 0.47185 0.76014 0.0
H69 H 0.15738 0.56844 0.79285 0.0
H70 H 0.09545 0.47078 0.85304 0.0
C71 C 0.96772 0.4082 0.79992 0.0
C72 C 0.93275 0.40488 0.80895 0.0
C73 C 0.99987 0.42598 0.82018 0.0
C74 C 0.99669 0.44024 0.84962 0.0
C75 C 0.96212 0.43731 0.85871 0.0
C76 C 0.93058 0.41966 0.83833 0.0
C77 C 0.03651 0.42679 0.81187 0.0
C78 C 0.06935 0.46736 0.80755 0.0
C79 C 0.07326 0.48627 0.77878 0.0
C80 C 0.10487 0.52292 0.77349 0.0
C81 C 0.132 0.54099 0.79751 0.0
C82 C 0.12909 0.52252 0.82618 0.0
C83 C 0.09755 0.4856 0.83119 0.0
H84 H 0.64242 0.09239 0.02756 0.0
H85 H 0.58492 0.03639 0.94098 0.0
H86 H 0.62156 0.15523 0.95647 0.0
H87 H 0.62599 0.02755 0.01928 0.0
H88 H 0.62864 0.01816 0.9787 0.0
H89 H 0.56506 0.99463 0.0473 0.0
H90 H 0.47343 0.894 0.00328 0.0
H91 H 0.57273 0.96952 0.94969 0.0
C92 C 0.6294 0.09285 0.00534 0.0
C93 C 0.63391 0.12778 -0.00576 0.0
C94 C 0.61076 0.05924 0.98651 0.0
C95 C 0.59698 0.06122 0.95642 0.0
C96 C 0.6005 0.09574 0.94555 0.0
C97 C 0.61776 0.12822 0.96511 0.0
C98 C 0.61127 0.0233 -0.00383 0.0
C99 C 0.57179 0.98795 -0.00238 0.0
C100 C 0.55194 0.97727 0.02646 0.0
C101 C 0.51706 0.94252 0.02897 0.0
C102 C 0.50067 0.92048 0.00168 0.0
C103 C 0.52078 0.92925 0.9733 0.0
C104 C 0.55645 0.96314 0.97129 0.0
H105 H 0.63718 0.57103 0.11029 0.0
H106 H 0.60577 0.58217 0.20489 0.0
H107 H 0.61748 0.48538 0.1793 0.0
H108 H 0.64728 0.63186 0.12789 0.0
H109 H 0.64727 0.63992 0.16919 0.0
H110 H 0.58374 0.601 0.0981 0.0
H111 H 0.5105 0.64256 0.13091 0.0
H112 H 0.59773 0.64815 0.19168 0.0
C113 C 0.62835 0.55938 0.13376 0.0
C114 C 0.62623 0.52448 0.14167 0.0
C115 C 0.621 0.58033 0.15655 0.0
C116 C 0.61062 0.56562 0.18725 0.0
C117 C 0.60863 0.5309 0.1956 0.0
C118 C 0.61624 0.51065 0.17253 0.0
C119 C 0.62968 0.62069 0.14957 0.0
C120 C 0.59397 0.62322 0.14556 0.0
C121 C 0.5743 0.61292 0.11655 0.0
C122 C 0.54401 0.61979 0.1108 0.0
C123 C 0.53259 0.63543 0.13517 0.0
C124 C 0.55144 0.64524 0.16435 0.0
C125 C 0.58227 0.6393 0.16949 0.0
In126 In 0.63764 0.40828 0.40563 0.0
O127 O 0.69802 0.46049 0.40809 0.0
O128 O 0.69097 0.40997 0.386 0.0
C129 C 0.61181 0.42717 0.45748 0.0
C130 C 0.61507 0.42911 0.35286 0.0
C131 C 0.61305 0.33343 0.41795 0.0
O132 O 0.6457 0.43415 0.45495 0.0
O133 O 0.59078 0.41021 0.43405 0.0
O134 O 0.59338 0.34382 0.40214 0.0
O135 O 0.6447 0.36065 0.42755 0.0
C136 C 0.71363 0.44425 0.39427 0.0
O137 O 0.61029 0.39589 0.35643 0.0
O138 O 0.6312 0.45157 0.37573 0.0
In139 In 0.25185 0.63311 0.56034 0.0
O140 O 0.27376 0.59095 0.55346 0.0
O141 O 0.30476 0.63864 0.58422 0.0
C142 C 0.21329 0.61614 0.50491 0.0
C143 C 0.20333 0.59681 0.60845 0.0
C144 C 0.29017 0.71101 0.55846 0.0
O145 O 0.24554 0.61871 0.50739 0.0
O146 O 0.20095 0.62233 0.5301 0.0
O147 O 0.30537 0.69134 0.55132 0.0
O148 O 0.25556 0.69149 0.56637 0.0
C149 C 0.30187 0.60872 0.57194 0.0
O150 O 0.22557 0.6327 0.60818 0.0
O151 O 0.20586 0.57941 0.58474 0.0
In152 In 0.64087 0.25011 0.73693 0.0
O153 O 0.70389 0.26525 0.73658 0.0
O154 O 0.69014 0.30334 0.75981 0.0
C155 C 0.61815 0.20467 0.68492 0.0
C156 C 0.61556 0.20546 0.78893 0.0
C157 C 0.61302 0.29687 0.72216 0.0
O158 O 0.65182 0.23222 0.68856 0.0
O159 O 0.59606 0.20015 0.7074 0.0
O160 O 0.59471 0.26721 0.73882 0.0
O161 O 0.64496 0.3026 0.71272 0.0
C162 C 0.71589 0.29622 0.75178 0.0
O163 O 0.61099 0.23384 0.78462 0.0
O164 O 0.63353 0.19996 0.76727 0.0
In165 In 0.41449 0.64531 0.90132 0.0
O166 O 0.35638 0.59004 0.90247 0.0
O167 O 0.35699 0.64162 0.89125 0.0
C168 C 0.43638 0.62923 0.95688 0.0
C169 C 0.43253 0.62149 0.84766 0.0
C170 C 0.45146 0.72319 0.90582 0.0
O171 O 0.4063 0.631 0.95409 0.0
O172 O 0.4553 0.63581 0.93187 0.0
O173 O 0.41558 0.70252 0.9076 0.0
O174 O 0.46853 0.70465 0.90145 0.0
C175 C 0.33727 0.60573 0.8951 0.0
O176 O 0.43163 0.6523 0.84913 0.0
O177 O 0.42453 0.60305 0.87308 0.0
In178 In 0.80315 0.42542 0.05396 0.0
O179 O 0.83093 0.4199 0.09966 0.0
O180 O 0.84475 0.47548 0.08434 0.0
C181 C 0.76182 0.35004 0.03794 0.0
C182 C 0.75411 0.45221 0.06079 0.0
C183 C 0.85423 0.44939 0.00678 0.0
O184 O 0.77005 0.36061 0.06636 0.0
O185 O 0.77325 0.37719 0.01847 0.0
O186 O 0.8258 0.45427 0.00675 0.0
O187 O 0.85694 0.43229 0.03072 0.0
C188 C 0.84989 0.45569 0.10454 0.0
O189 O 0.78409 0.46893 0.04462 0.0
O190 O 0.74801 0.42111 0.07305 0.0
In191 In 0.40135 0.77669 0.23759 0.0
O192 O 0.45658 0.77343 0.23575 0.0
O193 O 0.40414 0.72208 0.24338 0.0
C194 C 0.41619 0.81181 0.29451 0.0
C195 C 0.42269 0.81352 0.18168 0.0
C196 C 0.32388 0.73761 0.23398 0.0
O197 O 0.39653 0.77592 0.29088 0.0
O198 O 0.42957 0.83036 0.26936 0.0
O199 O 0.34279 0.77339 0.23881 0.0
O200 O 0.34405 0.72233 0.23002 0.0
C201 C 0.43962 0.73748 0.2394 0.0
O202 O 0.40676 0.77758 0.1844 0.0
O203 O 0.42708 0.83131 0.20726 0.0
H204 H 0.15599 0.61453 0.26898 0.0
H205 H 0.14859 0.71597 0.28565 0.0
H206 H 0.21206 0.756 0.26259 0.0
H207 H 0.27338 0.76243 0.24551 0.0
H208 H 0.27993 0.66007 0.22949 0.0
H209 H 0.21311 0.62014 0.244 0.0
C210 C 0.16787 0.64528 0.26651 0.0
C211 C 0.1479 0.66243 0.2788 0.0
C212 C 0.20451 0.66798 0.25386 0.0
C213 C 0.16344 0.70225 0.27592 0.0
C214 C 0.19988 0.72512 0.2631 0.0
C215 C 0.25991 0.73139 0.24456 0.0
C216 C 0.28181 0.7143 0.23695 0.0
C217 C 0.22131 0.70841 0.25319 0.0
C218 C 0.26389 0.67402 0.23558 0.0
C219 C 0.22563 0.65108 0.24394 0.0
H220 H 0.58274 0.17382 0.46847 0.0
H221 H 0.46709 0.14075 0.44279 0.0
H222 H 0.48961 0.20373 0.41882 0.0
H223 H 0.54135 0.27106 0.41129 0.0
H224 H 0.6558 0.30469 0.44158 0.0
H225 H 0.6345 0.23906 0.45814 0.0
C226 C 0.56244 0.18025 0.4574 0.0
C227 C 0.52321 0.15269 0.45782 0.0
C228 C 0.57534 0.21701 0.44503 0.0
C229 C 0.49745 0.16123 0.4427 0.0
C230 C 0.51028 0.19748 0.42934 0.0
C231 C 0.56164 0.26386 0.42121 0.0
C232 C 0.60004 0.2928 0.42548 0.0
C233 C 0.54901 0.22604 0.43133 0.0
C234 C 0.62603 0.28306 0.43834 0.0
C235 C 0.6139 0.2455 0.44775 0.0
H236 H 0.4248 0.57442 0.62881 0.0
H237 H 0.33769 0.4582 0.60641 0.0
H238 H 0.30094 0.48214 0.57857 0.0
H239 H 0.28931 0.5357 0.56729 0.0
H240 H 0.37372 0.65082 0.59534 0.0
H241 H 0.41536 0.62777 0.61469 0.0
C242 C 0.39788 0.55428 0.61764 0.0
C243 C 0.38383 0.51453 0.62017 0.0
C244 C 0.37603 0.5681 0.60315 0.0
C245 C 0.34937 0.48893 0.6048 0.0
C246 C 0.32807 0.50261 0.5892 0.0
C247 C 0.31708 0.55574 0.57719 0.0
C248 C 0.32836 0.59486 0.58011 0.0
C249 C 0.34045 0.54205 0.58924 0.0
C250 C 0.36429 0.62053 0.59312 0.0
C251 C 0.38813 0.60738 0.60415 0.0
H252 H 0.87857 0.42442 0.7985 0.0
H253 H 0.90603 0.33645 0.77699 0.0
H254 H 0.84189 0.29581 0.75496 0.0
H255 H 0.7755 0.28251 0.74732 0.0
H256 H 0.748 0.36931 0.77358 0.0
H257 H 0.81419 0.41263 0.78891 0.0
C258 C 0.87065 0.3964 0.78886 0.0
C259 C 0.89703 0.38339 0.78982 0.0
C260 C 0.83332 0.37259 0.77764 0.0
C261 C 0.88649 0.34739 0.77646 0.0
C262 C 0.84959 0.3239 0.76422 0.0
C263 C 0.78413 0.31101 0.7562 0.0
C264 C 0.75672 0.32251 0.75956 0.0
C265 C 0.82236 0.33573 0.76558 0.0
C266 C 0.76836 0.35955 0.77105 0.0
C267 C 0.80627 0.38444 0.77974 0.0
H268 H 0.55764 0.89412 0.95032 0.0
H269 H 0.45128 0.89362 0.94418 0.0
H270 H 0.4206 0.82996 0.91959 0.0
H271 H 0.42163 0.77053 0.90803 0.0
H272 H 0.52784 0.77056 0.91532 0.0
H273 H 0.56094 0.83811 0.93108 0.0
C274 C 0.5282 0.88071 0.94236 0.0
C275 C 0.50674 0.89851 0.94897 0.0
C276 C 0.51043 0.8435 0.92925 0.0
C277 C 0.46837 0.88051 0.93913 0.0
C278 C 0.45072 0.84391 0.92546 0.0
C279 C 0.45213 0.78551 0.91261 0.0
C280 C 0.47209 0.76535 0.91101 0.0
C281 C 0.47102 0.82442 0.92177 0.0
C282 C 0.5117 0.78529 0.91663 0.0
C283 C 0.53069 0.82396 0.92567 0.0
H284 H 0.68858 0.55689 0.10332 0.0
H285 H 0.59427 0.44721 0.13162 0.0
H286 H 0.62444 0.41441 0.10705 0.0
H287 H 0.6816 0.41763 0.08365 0.0
H288 H 0.77458 0.52713 0.05358 0.0
H289 H 0.74067 0.5591 0.07221 0.0
C290 C 0.67397 0.52577 0.10324 0.0
C291 C 0.63955 0.50464 0.11986 0.0
C292 C 0.69155 0.50703 0.08914 0.0
C293 C 0.6212 0.46425 0.11956 0.0
C294 C 0.63845 0.44544 0.10557 0.0
C295 C 0.69411 0.4484 0.08077 0.0
C296 C 0.73075 0.47005 0.06774 0.0
C297 C 0.67434 0.46664 0.09138 0.0
C298 C 0.74646 0.50982 0.06371 0.0
C299 C 0.72714 0.52818 0.07444 0.0
H300 H 0.35339 0.88432 0.52444 0.0
H301 H 0.46035 0.8866 0.53422 0.0
H302 H 0.42703 0.82105 0.55472 0.0
H303 H 0.36674 0.7598 0.56079 0.0
H304 H 0.25955 0.75714 0.55072 0.0
H305 H 0.29351 0.82601 0.5394 0.0
C306 C 0.36949 0.87104 0.53241 0.0
C307 C 0.40924 0.89017 0.52783 0.0
C308 C 0.34994 0.83284 0.54314 0.0
C309 C 0.42975 0.87242 0.53771 0.0
C310 C 0.41064 0.83476 0.54898 0.0
C311 C 0.35089 0.77447 0.55655 0.0
C312 C 0.31075 0.75337 0.55597 0.0
C313 C 0.37062 0.81409 0.55025 0.0
C314 C 0.29049 0.77276 0.55103 0.0
C315 C 0.3099 0.81213 0.54455 0.0
H316 H 0.57566 0.42101 0.6713 0.0
H317 H 0.46158 0.33396 0.69733 0.0
H318 H 0.48672 0.29588 0.72112 0.0
H319 H 0.54033 0.28368 0.72858 0.0
H320 H 0.65306 0.36852 0.69748 0.0
H321 H 0.62914 0.41053 0.68093 0.0
C322 C 0.55624 0.39378 0.68233 0.0
C323 C 0.5167 0.38022 0.6821 0.0
C324 C 0.57062 0.3712 0.69448 0.0
C325 C 0.49214 0.34533 0.69727 0.0
C326 C 0.50647 0.32325 0.71051 0.0
C327 C 0.55966 0.31151 0.71843 0.0
C328 C 0.59836 0.32283 0.714 0.0
C329 C 0.54551 0.3353 0.7083 0.0
C330 C 0.62309 0.35896 0.70084 0.0
C331 C 0.60946 0.38307 0.69146 0.0
H332 H 0.16856 0.49068 0.85121 0.0
H333 H 0.16487 0.5957 0.84903 0.0
H334 H 0.22854 0.63069 0.87275 0.0
H335 H 0.28848 0.63299 0.88731 0.0
H336 H 0.29248 0.52805 0.88922 0.0
H337 H 0.22561 0.49152 0.87269 0.0
C338 C 0.1812 0.52094 0.85694 0.0
C339 C 0.16216 0.54064 0.84824 0.0
C340 C 0.21826 0.54108 0.86992 0.0
C341 C 0.1791 0.57999 0.85541 0.0
C342 C 0.2156 0.60005 0.86875 0.0
C343 C 0.27455 0.60206 0.8845 0.0
C344 C 0.29558 0.58337 0.88903 0.0
C345 C 0.23605 0.5812 0.87494 0.0
C346 C 0.27701 0.54321 0.88568 0.0
C347 C 0.23875 0.52226 0.87618 0.0
H348 H 0.6894 0.19159 0.967 0.0
H349 H 0.63569 0.14834 0.05687 0.0
H350 H 0.67251 0.21344 0.07955 0.0
H351 H 0.71648 0.2841 0.07197 0.0
H352 H 0.76444 0.325 0.9797 0.0
H353 H 0.73278 0.25958 0.95968 0.0
C354 C 0.68558 0.19632 -0.00841 0.0
C355 C 0.6593 0.16533 0.01007 0.0
C356 C 0.70552 0.23362 0.00389 0.0
C357 C 0.65565 0.17176 0.04212 0.0
C358 C 0.67646 0.20902 0.05496 0.0
C359 C 0.72001 0.27851 0.04756 0.0
C360 C 0.74257 0.30947 0.02728 0.0
C361 C 0.70088 0.24042 0.03583 0.0
C362 C 0.74692 0.30184 -0.00429 0.0
C363 C 0.72896 0.26438 0.98423 0.0
H364 H 0.48414 0.61715 0.1944 0.0
H365 H 0.59402 0.71933 0.18412 0.0
H366 H 0.57026 0.75747 0.21034 0.0
H367 H 0.51517 0.76276 0.2287 0.0
H368 H 0.4054 0.65971 0.23881 0.0
H369 H 0.43218 0.62087 0.22068 0.0
C370 C 0.5031 0.64756 0.19888 0.0
C371 C 0.54065 0.66555 0.1875 0.0
C372 C 0.48906 0.66922 0.21349 0.0
C373 C 0.56509 0.70495 0.19306 0.0
C374 C 0.55137 0.72676 0.20771 0.0
C375 C 0.49737 0.73175 0.22757 0.0
C376 C 0.4582 0.71426 0.23459 0.0
C377 C 0.51295 0.70943 0.21691 0.0
C378 C 0.43555 0.67399 0.23328 0.0
C379 C 0.4508 0.65169 0.22281 0.0
H380 H 0.88421 0.55139 0.35221 0.0
H381 H 0.87792 0.44172 0.34292 0.0
H382 H 0.8137 0.40951 0.36516 0.0
H383 H 0.75668 0.41182 0.38133 0.0
H384 H 0.76314 0.52141 0.39175 0.0
H385 H 0.82999 0.55439 0.37521 0.0
C386 C 0.86928 0.5206 0.356 0.0
C387 C 0.88567 0.49894 0.34564 0.0
C388 C 0.8321 0.50218 0.36842 0.0
C389 C 0.86573 0.45897 0.35041 0.0
C390 C 0.82894 0.44052 0.36296 0.0
C391 C 0.77287 0.44294 0.38023 0.0
C392 C 0.75492 0.46415 0.38723 0.0
C393 C 0.81134 0.46168 0.37097 0.0
C394 C 0.77633 0.50446 0.38626 0.0
C395 C 0.81453 0.52333 0.37679 0.0
H396 H 0.14733 0.58735 0.36659 0.0
H397 H 0.07196 0.62022 0.41063 0.0
H398 H 0.09915 0.62076 0.462 0.0
H399 H 0.14944 0.61979 0.49356 0.0
H400 H 0.22933 0.59377 0.44891 0.0
H401 H 0.19603 0.58387 0.3985 0.0
C402 C 0.1368 0.59469 0.38738 0.0
C403 C 0.10786 0.60421 0.38444 0.0
C404 C 0.15395 0.59697 0.41671 0.0
C405 C 0.09385 0.61238 0.41193 0.0
C406 C 0.10979 0.61325 0.44138 0.0
C407 C 0.1594 0.61165 0.47285 0.0
C408 C 0.19198 0.60783 0.47486 0.0
C409 C 0.14064 0.60683 0.44388 0.0
C410 C 0.2045 0.5972 0.44787 0.0
C411 C 0.18543 0.59145 0.41909 0.0
H412 H 0.58456 0.13244 0.5489 0.0
H413 H 0.4698 0.07268 0.5854 0.0
H414 H 0.4939 0.09927 0.63786 0.0
H415 H 0.54646 0.14658 0.67132 0.0
H416 H 0.66054 0.20952 0.63354 0.0
H417 H 0.6378 0.17505 0.58353 0.0
C418 C 0.56489 0.12482 0.56847 0.0
C419 C 0.52541 0.101 0.56317 0.0
C420 C 0.57876 0.14145 0.59818 0.0
C421 C 0.50032 0.09078 0.58883 0.0
C422 C 0.51405 0.10639 0.61876 0.0
C423 C 0.56641 0.15242 0.65226 0.0
C424 C 0.60504 0.18093 0.65596 0.0
C425 C 0.55302 0.13289 0.62339 0.0
C426 C 0.63061 0.18798 0.63116 0.0
C427 C 0.61763 0.16826 0.60258 0.0
H428 H 0.4604 0.58019 0.71091 0.0
H429 H 0.41188 0.46792 0.75328 0.0
H430 H 0.41323 0.49556 0.80479 0.0
H431 H 0.42035 0.54992 0.83651 0.0
H432 H 0.4619 0.66051 0.79285 0.0
H433 H 0.47011 0.635 0.74297 0.0
C434 C 0.45014 0.56168 0.73139 0.0
C435 C 0.43558 0.52187 0.72796 0.0
C436 C 0.44903 0.57737 0.76064 0.0
C437 C 0.42354 0.49865 0.75503 0.0
C438 C 0.4238 0.51437 0.78452 0.0
C439 C 0.43159 0.56853 0.81615 0.0
C440 C 0.44028 0.60697 0.81825 0.0
C441 C 0.43527 0.55342 0.78738 0.0
C442 C 0.45474 0.63075 0.79172 0.0
C443 C 0.4595 0.6162 0.76324 0.0
H444 H 0.92912 0.47915 0.87342 0.0
H445 H 0.98142 0.4194 0.91534 0.0
H446 H 0.95657 0.42284 0.96702 0.0
H447 H 0.9109 0.43292 -0.00213 0.0
H448 H 0.85513 0.4886 0.95441 0.0
H449 H 0.89025 0.49659 0.90575 0.0
C450 C 0.93572 0.46763 0.89406 0.0
C451 C 0.95653 0.44859 0.89062 0.0
C452 C 0.92003 0.46828 0.92325 0.0
C453 C 0.96549 0.43427 0.91747 0.0
C454 C 0.95087 0.4358 0.94692 0.0
C455 C 0.90698 0.44741 0.97792 0.0
C456 C 0.88 0.45956 0.9795 0.0
C457 C 0.92667 0.45117 0.94975 0.0
C458 C 0.87538 0.47855 0.95361 0.0
C459 C 0.89544 0.48314 0.92578 0.0
H460 H 0.48741 0.86845 0.04602 0.0
H461 H 0.51073 0.9782 0.08271 0.0
H462 H 0.4835 0.9481 0.13368 0.0
H463 H 0.45252 0.88974 0.1675 0.0
H464 H 0.42652 0.78049 0.12744 0.0
H465 H 0.45418 0.81126 0.07753 0.0
C466 C 0.48572 0.88589 0.06474 0.0
C467 C 0.50038 0.92547 0.06018 0.0
C468 C 0.46933 0.86837 0.09335 0.0
C469 C 0.49955 0.94766 0.08547 0.0
C470 C 0.48381 0.93041 0.11455 0.0
C471 C 0.45273 0.87276 0.14772 0.0
C472 C 0.4375 0.83287 0.15118 0.0
C473 C 0.46851 0.89068 0.11872 0.0
C474 C 0.43791 0.81116 0.12541 0.0
C475 C 0.45386 0.82874 0.09686 0.0
H476 H 0.57005 0.45745 0.2177 0.0
H477 H 0.63826 0.57525 0.2488 0.0
H478 H 0.64232 0.5536 0.30151 0.0
H479 H 0.63417 0.50162 0.33661 0.0
H480 H 0.57199 0.38422 0.30375 0.0
H481 H 0.55877 0.40533 0.25368 0.0
C482 C 0.58568 0.47845 0.23603 0.0
C483 C 0.60423 0.51796 0.22901 0.0
C484 C 0.5897 0.46585 0.26583 0.0
C485 C 0.6234 0.54469 0.25338 0.0
C486 C 0.62623 0.53232 0.2835 0.0
C487 C 0.61737 0.48062 0.31861 0.0
C488 C 0.60436 0.44146 0.32371 0.0
C489 C 0.61069 0.49304 0.28964 0.0
C490 C 0.5826 0.41456 0.30024 0.0
C491 C 0.57498 0.42661 0.27165 0.0
H492 H 0.40318 0.86264 0.43124 0.0
H493 H 0.4867 0.97443 0.3964 0.0
H494 H 0.48569 0.9457 0.34499 0.0
H495 H 0.46052 0.88802 0.31016 0.0
H496 H 0.38024 0.77684 0.34839 0.0
H497 H 0.38185 0.80619 0.39888 0.0
C498 C 0.42215 0.88088 0.41285 0.0
C499 C 0.44566 0.92064 0.41805 0.0
C500 C 0.42213 0.86416 0.38399 0.0
C501 C 0.4684 0.94375 0.39316 0.0
C502 C 0.46796 0.92728 0.36382 0.0
C503 C 0.44367 0.8703 0.32967 0.0
C504 C 0.42021 0.83029 0.3255 0.0
C505 C 0.4449 0.88742 0.35899 0.0
C506 C 0.39856 0.80763 0.35094 0.0
C507 C 0.39932 0.8244 0.37982 0.0
H508 H 0.57502 0.4648 0.59213 0.0
H509 H 0.46037 0.40322 0.55463 0.0
H510 H 0.48532 0.40178 0.50254 0.0
H511 H 0.53898 0.40958 0.46991 0.0
H512 H 0.65298 0.46672 0.50909 0.0
H513 H 0.62901 0.47776 0.55838 0.0
C514 C 0.55554 0.45157 0.5724 0.0
C515 C 0.51591 0.43371 0.57732 0.0
C516 C 0.56993 0.44926 0.54301 0.0
C517 C 0.49101 0.41733 0.55148 0.0
C518 C 0.50524 0.41603 0.52177 0.0
C519 C 0.5586 0.42481 0.48913 0.0
C520 C 0.5976 0.43683 0.48605 0.0
C521 C 0.54452 0.43051 0.51762 0.0
C522 C 0.62276 0.45678 0.51103 0.0
C523 C 0.6091 0.46319 0.53919 0.0
H524 H 0.10452 0.48857 0.71855 0.0
H525 H 0.12699 0.59685 0.75772 0.0
H526 H 0.15758 0.62938 0.70863 0.0
H527 H 0.18506 0.62807 0.65734 0.0
H528 H 0.16326 0.51973 0.61861 0.0
H529 H 0.12511 0.48612 0.66467 0.0
C530 C 0.11497 0.51905 0.71594 0.0
C531 C 0.11372 0.54036 0.74169 0.0
C532 C 0.13336 0.53765 0.68798 0.0
C533 C 0.12786 0.57995 0.73818 0.0
C534 C 0.14556 0.59857 0.71024 0.0
C535 C 0.17163 0.59707 0.65889 0.0
C536 C 0.17744 0.57647 0.63492 0.0
C537 C 0.14977 0.57793 0.68546 0.0
C538 C 0.15947 0.53627 0.63694 0.0
C539 C 0.13763 0.51701 0.66325 0.0
H540 H 0.56536 0.13346 0.92368 0.0
H541 H 0.6205 0.07148 0.89253 0.0
H542 H 0.62617 0.09705 0.8394 0.0
H543 H 0.62545 0.14555 0.80455 0.0
H544 H 0.57508 0.21146 0.83746 0.0
H545 H 0.55826 0.17648 0.88721 0.0
C546 C 0.57791 0.12494 0.90506 0.0
C547 C 0.59296 0.10106 0.91217 0.0
C548 C 0.58296 0.14138 0.87508 0.0
C549 C 0.6085 0.08967 0.88772 0.0
C550 C 0.61234 0.1048 0.85742 0.0
C551 C 0.61039 0.15191 0.82248 0.0
C552 C 0.60211 0.1815 0.81757 0.0
C553 C 0.60133 0.13209 0.85128 0.0
C554 C 0.58224 0.18917 0.84085 0.0
C555 C 0.57251 0.16912 0.86928 0.0
H556 H 0.46997 0.59682 0.09511 0.0
H557 H 0.58044 0.63388 0.05377 0.0
H558 H 0.55563 0.63664 0.00212 0.0
H559 H 0.50478 0.6353 0.9696 0.0
H560 H 0.39637 0.60456 0.01179 0.0
H561 H 0.41856 0.59373 0.06234 0.0
C562 C 0.48874 0.60559 0.07486 0.0
C563 C 0.52721 0.61542 0.07864 0.0
C564 C 0.47485 0.60897 0.0454 0.0
C565 C 0.55063 0.62562 0.05179 0.0
C566 C 0.5366 0.62775 0.02219 0.0
C567 C 0.48592 0.62597 0.98981 0.0
C568 C 0.44908 0.62097 0.98705 0.0
C569 C 0.49911 0.62053 0.0189 0.0
C570 C 0.42496 0.60888 0.0134 0.0
C571 C 0.4376 0.6026 0.04227 0.0
H572 H 0.94764 0.55555 0.21952 0.0
H573 H 0.92239 0.44448 0.25351 0.0
H574 H 0.89258 0.41522 0.20292 0.0
H575 H 0.86653 0.42026 0.15162 0.0
H576 H 0.89055 0.53162 0.11896 0.0
H577 H 0.92812 0.5617 0.16628 0.0
C578 C 0.93678 0.52518 0.21548 0.0
C579 C 0.93712 0.50218 0.24015 0.0
C580 C 0.9187 0.50846 0.18677 0.0
C581 C 0.92232 0.46271 0.23479 0.0
C582 C 0.90504 0.44596 0.20599 0.0
C583 C 0.88034 0.45113 0.15477 0.0
C584 C 0.87527 0.47356 0.13206 0.0
C585 C 0.90178 0.46834 0.18224 0.0
C586 C 0.89363 0.5136 0.13626 0.0
C587 C 0.91521 0.5309 0.16329 0.0
loop_
_geom_bond_atom_site_label_1
_geom_bond_atom_site_label_2
_geom_bond_distance
_geom_bond_site_symmetry_2
_ccdc_geom_bond_type
H0 C8 0.930 . S
H1 C11 0.930 . S
H2 C13 0.930 . S
H3 C14 0.970 . S
H4 C14 0.970 . S
H5 C16 0.930 . S
H6 C18 0.930 . S
H7 C20 0.930 . S
C8 H0 0.930 . S
C8 C9 1.382 . S
C8 C10 1.426 . S
C9 C8 1.382 . S
C9 C13 1.389 . S
C10 C8 1.426 . S
C10 C11 1.375 . S
C10 C14 1.532 1_655 S
C11 H1 0.930 . S
C11 C10 1.375 . S
C11 C12 1.416 . S
C12 C11 1.416 . S
C12 C13 1.371 . S
C13 H2 0.930 . S
C13 C9 1.389 . S
C13 C12 1.371 . S
C14 H3 0.970 . S
C14 H4 0.970 . S
C14 C10 1.532 1_455 S
C14 C15 1.499 . S
C15 C14 1.499 . S
C15 C16 1.370 . S
C15 C20 1.415 . S
C16 H5 0.930 . S
C16 C15 1.370 . S
C16 C17 1.407 . S
C17 C16 1.407 . S
C17 C18 1.365 . S
C18 H6 0.930 . S
C18 C17 1.365 . S
C18 C19 1.393 . S
C19 C18 1.393 . S
C19 C20 1.387 . S
C20 H7 0.930 . S
C20 C15 1.415 . S
C20 C19 1.387 . S
H21 C29 0.930 . S
H22 C32 0.930 . S
H23 C34 0.930 . S
H24 C35 0.970 . S
H25 C35 0.970 . S
H26 C37 0.930 . S
H27 C39 0.930 . S
H28 C41 0.930 . S
C29 H21 0.930 . S
C29 C30 1.382 . S
C29 C31 1.426 . S
C30 C29 1.382 . S
C30 C34 1.389 . S
C31 C29 1.426 . S
C31 C32 1.375 . S
C31 C35 1.532 1_565 S
C32 H22 0.930 . S
C32 C31 1.375 . S
C32 C33 1.416 . S
C33 C32 1.416 . S
C33 C34 1.371 . S
C34 H23 0.930 . S
C34 C30 1.389 . S
C34 C33 1.371 . S
C35 H24 0.970 . S
C35 H25 0.970 . S
C35 C31 1.532 1_545 S
C35 C36 1.499 . S
C36 C35 1.499 . S
C36 C37 1.370 . S
C36 C41 1.415 . S
C37 H26 0.930 . S
C37 C36 1.370 . S
C37 C38 1.407 . S
C38 C37 1.407 . S
C38 C39 1.365 . S
C39 H27 0.930 . S
C39 C38 1.365 . S
C39 C40 1.393 . S
C40 C39 1.393 . S
C40 C41 1.387 . S
C41 H28 0.930 . S
C41 C36 1.415 . S
C41 C40 1.387 . S
H42 C50 0.930 . S
H43 C53 0.930 . S
H44 C55 0.930 . S
H45 C56 0.970 . S
H46 C56 0.970 . S
H47 C58 0.930 . S
H48 C60 0.930 . S
H49 C62 0.930 . S
C50 H42 0.930 . S
C50 C51 1.382 . S
C50 C52 1.426 . S
C51 C50 1.382 . S
C51 C55 1.389 . S
C52 C50 1.426 . S
C52 C53 1.375 . S
C52 C56 1.532 . S
C53 H43 0.930 . S
C53 C52 1.375 . S
C53 C54 1.416 . S
C54 C53 1.416 . S
C54 C55 1.371 . S
C55 H44 0.930 . S
C55 C51 1.389 . S
C55 C54 1.371 . S
C56 H45 0.970 . S
C56 H46 0.970 . S
C56 C52 1.532 . S
C56 C57 1.499 . S
C57 C56 1.499 . S
C57 C58 1.370 . S
C57 C62 1.415 . S
C58 H47 0.930 . S
C58 C57 1.370 . S
C58 C59 1.407 . S
C59 C58 1.407 . S
C59 C60 1.365 . S
C60 H48 0.930 . S
C60 C59 1.365 . S
C60 C61 1.393 . S
C61 C60 1.393 . S
C61 C62 1.387 . S
C62 H49 0.930 . S
C62 C57 1.415 . S
C62 C61 1.387 . S
H63 C71 0.930 . S
H64 C74 0.930 . S
H65 C76 0.930 . S
H66 C77 0.970 . S
H67 C77 0.970 . S
H68 C79 0.930 . S
H69 C81 0.930 . S
H70 C83 0.930 . S
C71 H63 0.930 . S
C71 C72 1.382 . S
C71 C73 1.426 . S
C72 C71 1.382 . S
C72 C76 1.389 . S
C73 C71 1.426 . S
C73 C74 1.375 . S
C73 C77 1.532 1_655 S
C74 H64 0.930 . S
C74 C73 1.375 . S
C74 C75 1.416 . S
C75 C74 1.416 . S
C75 C76 1.371 . S
C76 H65 0.930 . S
C76 C72 1.389 . S
C76 C75 1.371 . S
C77 H66 0.970 . S
C77 H67 0.970 . S
C77 C73 1.532 1_455 S
C77 C78 1.499 . S
C78 C77 1.499 . S
C78 C79 1.370 . S
C78 C83 1.415 . S
C79 H68 0.930 . S
C79 C78 1.370 . S
C79 C80 1.407 . S
C80 C79 1.407 . S
C80 C81 1.365 . S
C81 H69 0.930 . S
C81 C80 1.365 . S
C81 C82 1.393 . S
C82 C81 1.393 . S
C82 C83 1.387 . S
C83 H70 0.930 . S
C83 C78 1.415 . S
C83 C82 1.387 . S
H84 C92 0.930 . S
H85 C95 0.930 . S
H86 C97 0.930 . S
H87 C98 0.970 1_554 S
H88 C98 0.970 . S
H89 C100 0.930 . S
H90 C102 0.930 . S
H91 C104 0.930 . S
C92 H84 0.930 . S
C92 C93 1.382 1_554 S
C92 C94 1.426 1_554 S
C93 C92 1.382 1_556 S
C93 C97 1.389 . S
C94 C92 1.426 1_556 S
C94 C95 1.375 . S
C94 C98 1.532 . S
C95 H85 0.930 . S
C95 C94 1.375 . S
C95 C96 1.416 . S
C96 C95 1.416 . S
C96 C97 1.371 . S
C97 H86 0.930 . S
C97 C93 1.389 . S
C97 C96 1.371 . S
C98 H87 0.970 1_556 S
C98 H88 0.970 . S
C98 C94 1.532 . S
C98 C99 1.492 1_546 S
C99 C98 1.492 1_564 S
C99 C100 1.401 . S
C99 C104 1.393 1_554 S
C100 H89 0.930 . S
C100 C99 1.401 . S
C100 C101 1.407 . S
C101 C100 1.407 . S
C101 C102 1.365 . S
C102 H90 0.930 . S
C102 C101 1.365 . S
C102 C103 1.393 1_554 S
C103 C102 1.393 1_556 S
C103 C104 1.387 . S
C104 H91 0.930 . S
C104 C99 1.393 1_556 S
C104 C103 1.387 . S
H105 C113 0.930 . S
H106 C116 0.930 . S
H107 C118 0.930 . S
H108 C119 0.970 . S
H109 C119 0.970 . S
H110 C121 0.930 . S
H111 C123 0.930 . S
H112 C125 0.930 . S
C113 H105 0.930 . S
C113 C114 1.382 . S
C113 C115 1.426 . S
C114 C113 1.382 . S
C114 C118 1.389 . S
C115 C113 1.426 . S
C115 C116 1.375 . S
C115 C119 1.532 . S
C116 H106 0.930 . S
C116 C115 1.375 . S
C116 C117 1.416 . S
C117 C116 1.416 . S
C117 C118 1.371 . S
C118 H107 0.930 . S
C118 C114 1.389 . S
C118 C117 1.371 . S
C119 H108 0.970 . S
C119 H109 0.970 . S
C119 C115 1.532 . S
C119 C120 1.499 . S
C120 C119 1.499 . S
C120 C121 1.370 . S
C120 C125 1.415 . S
C121 H110 0.930 . S
C121 C120 1.370 . S
C121 C122 1.407 . S
C122 C121 1.407 . S
C122 C123 1.365 . S
C123 H111 0.930 . S
C123 C122 1.365 . S
C123 C124 1.393 . S
C124 C123 1.393 . S
C124 C125 1.387 . S
C125 H112 0.930 . S
C125 C120 1.415 . S
C125 C124 1.387 . S
In126 O127 2.294 . S
In126 O128 2.326 . S
In126 O132 2.266 . S
In126 O133 2.326 . S
In126 O134 2.266 . S
In126 O135 2.326 . S
In126 O137 2.294 . S
In126 O138 2.326 . S
O127 In126 2.294 . S
O127 C136 1.240 . S
O128 In126 2.326 . S
O128 C136 1.252 . S
C129 O132 1.252 . S
C129 O133 1.260 . S
C130 O137 1.240 . S
C130 O138 1.252 . S
C131 O134 1.252 . S
C131 O135 1.260 . S
O132 In126 2.266 . S
O132 C129 1.252 . S
O133 In126 2.326 . S
O133 C129 1.260 . S
O134 In126 2.266 . S
O134 C131 1.252 . S
O135 In126 2.326 . S
O135 C131 1.260 . S
C136 O127 1.240 . S
C136 O128 1.252 . S
O137 In126 2.294 . S
O137 C130 1.240 . S
O138 In126 2.326 . S
O138 C130 1.252 . S
In139 O140 2.294 . S
In139 O141 2.326 . S
In139 O145 2.266 . S
In139 O146 2.326 . S
In139 O147 2.266 . S
In139 O148 2.326 . S
In139 O150 2.294 . S
In139 O151 2.326 . S
O140 In139 2.294 . S
O140 C149 1.240 . S
O141 In139 2.326 . S
O141 C149 1.252 . S
C142 O145 1.252 . S
C142 O146 1.260 . S
C143 O150 1.240 . S
C143 O151 1.252 . S
C144 O147 1.252 . S
C144 O148 1.260 . S
O145 In139 2.266 . S
O145 C142 1.252 . S
O146 In139 2.326 . S
O146 C142 1.260 . S
O147 In139 2.266 . S
O147 C144 1.252 . S
O148 In139 2.326 . S
O148 C144 1.260 . S
C149 O140 1.240 . S
C149 O141 1.252 . S
O150 In139 2.294 . S
O150 C143 1.240 . S
O151 In139 2.326 . S
O151 C143 1.252 . S
In152 O153 2.294 . S
In152 O154 2.326 . S
In152 O158 2.266 . S
In152 O159 2.326 . S
In152 O160 2.266 . S
In152 O161 2.326 . S
In152 O163 2.294 . S
In152 O164 2.326 . S
O153 In152 2.294 . S
O153 C162 1.240 . S
O154 In152 2.326 . S
O154 C162 1.252 . S
C155 O158 1.252 . S
C155 O159 1.260 . S
C156 O163 1.240 . S
C156 O164 1.252 . S
C157 O160 1.252 . S
C157 O161 1.260 . S
O158 In152 2.266 . S
O158 C155 1.252 . S
O159 In152 2.326 . S
O159 C155 1.260 . S
O160 In152 2.266 . S
O160 C157 1.252 . S
O161 In152 2.326 . S
O161 C157 1.260 . S
C162 O153 1.240 . S
C162 O154 1.252 . S
O163 In152 2.294 . S
O163 C156 1.240 . S
O164 In152 2.326 . S
O164 C156 1.252 . S
In165 O166 2.294 . S
In165 O167 2.326 . S
In165 O171 2.266 . S
In165 O172 2.326 . S
In165 O173 2.266 . S
In165 O174 2.326 . S
In165 O176 2.294 . S
In165 O177 2.326 . S
O166 In165 2.294 . S
O166 C175 1.240 . S
O167 In165 2.326 . S
O167 C175 1.252 . S
C168 O171 1.252 . S
C168 O172 1.260 . S
C169 O176 1.240 . S
C169 O177 1.252 . S
C170 O173 1.252 . S
C170 O174 1.260 . S
O171 In165 2.266 . S
O171 C168 1.252 . S
O172 In165 2.326 . S
O172 C168 1.260 . S
O173 In165 2.266 . S
O173 C170 1.252 . S
O174 In165 2.326 . S
O174 C170 1.260 . S
C175 O166 1.240 . S
C175 O167 1.252 . S
O176 In165 2.294 . S
O176 C169 1.240 . S
O177 In165 2.326 . S
O177 C169 1.252 . S
In178 O179 2.294 . S
In178 O180 2.326 . S
In178 O184 2.266 . S
In178 O185 2.326 . S
In178 O186 2.266 . S
In178 O187 2.326 . S
In178 O189 2.294 . S
In178 O190 2.326 . S
O179 In178 2.294 . S
O179 C188 1.240 . S
O180 In178 2.326 . S
O180 C188 1.252 . S
C181 O184 1.252 . S
C181 O185 1.260 . S
C182 O189 1.240 . S
C182 O190 1.252 . S
C183 O186 1.252 . S
C183 O187 1.260 . S
O184 In178 2.266 . S
O184 C181 1.252 . S
O185 In178 2.326 . S
O185 C181 1.260 . S
O186 In178 2.266 . S
O186 C183 1.252 . S
O187 In178 2.326 . S
O187 C183 1.260 . S
C188 O179 1.240 . S
C188 O180 1.252 . S
O189 In178 2.294 . S
O189 C182 1.240 . S
O190 In178 2.326 . S
O190 C182 1.252 . S
In191 O192 2.294 . S
In191 O193 2.326 . S
In191 O197 2.266 . S
In191 O198 2.326 . S
In191 O199 2.266 . S
In191 O200 2.326 . S
In191 O202 2.294 . S
In191 O203 2.326 . S
O192 In191 2.294 . S
O192 C201 1.240 . S
O193 In191 2.326 . S
O193 C201 1.252 . S
C194 O197 1.252 . S
C194 O198 1.260 . S
C195 O202 1.240 . S
C195 O203 1.252 . S
C196 O199 1.252 . S
C196 O200 1.260 . S
O197 In191 2.266 . S
O197 C194 1.252 . S
O198 In191 2.326 . S
O198 C194 1.260 . S
O199 In191 2.266 . S
O199 C196 1.252 . S
O200 In191 2.326 . S
O200 C196 1.260 . S
C201 O192 1.240 . S
C201 O193 1.252 . S
O202 In191 2.294 . S
O202 C195 1.240 . S
O203 In191 2.326 . S
O203 C195 1.252 . S
H204 C210 0.930 . S
H205 C213 0.930 . S
H206 C214 0.930 . S
H207 C215 0.930 . S
H208 C218 0.930 . S
H209 C219 0.930 . S
C210 H204 0.930 . S
C210 C211 1.355 . S
C210 C212 1.415 . S
C211 C210 1.355 . S
C211 C213 1.419 . S
C212 C210 1.415 . S
C212 C217 1.425 . S
C212 C219 1.409 . S
C213 H205 0.930 . S
C213 C211 1.419 . S
C213 C214 1.362 . S
C214 H206 0.930 . S
C214 C213 1.362 . S
C214 C217 1.409 . S
C215 H207 0.930 . S
C215 C216 1.355 . S
C215 C217 1.415 . S
C216 C215 1.355 . S
C216 C218 1.419 . S
C217 C212 1.425 . S
C217 C214 1.409 . S
C217 C215 1.415 . S
C218 H208 0.930 . S
C218 C216 1.419 . S
C218 C219 1.362 . S
C219 H209 0.930 . S
C219 C212 1.409 . S
C219 C218 1.362 . S
H220 C226 0.930 . S
H221 C229 0.930 . S
H222 C230 0.930 . S
H223 C231 0.930 . S
H224 C234 0.930 . S
H225 C235 0.930 . S
C226 H220 0.930 . S
C226 C227 1.355 . S
C226 C228 1.415 . S
C227 C226 1.355 . S
C227 C229 1.419 . S
C228 C226 1.415 . S
C228 C233 1.425 . S
C228 C235 1.409 . S
C229 H221 0.930 . S
C229 C227 1.419 . S
C229 C230 1.362 . S
C230 H222 0.930 . S
C230 C229 1.362 . S
C230 C233 1.409 . S
C231 H223 0.930 . S
C231 C232 1.355 . S
C231 C233 1.415 . S
C232 C231 1.355 . S
C232 C234 1.419 . S
C233 C228 1.425 . S
C233 C230 1.409 . S
C233 C231 1.415 . S
C234 H224 0.930 . S
C234 C232 1.419 . S
C234 C235 1.362 . S
C235 H225 0.930 . S
C235 C228 1.409 . S
C235 C234 1.362 . S
H236 C242 0.930 . S
H237 C245 0.930 . S
H238 C246 0.930 . S
H239 C247 0.930 . S
H240 C250 0.930 . S
H241 C251 0.930 . S
C242 H236 0.930 . S
C242 C243 1.355 . S
C242 C244 1.415 . S
C243 C242 1.355 . S
C243 C245 1.419 . S
C244 C242 1.415 . S
C244 C249 1.425 . S
C244 C251 1.409 . S
C245 H237 0.930 . S
C245 C243 1.419 . S
C245 C246 1.362 . S
C246 H238 0.930 . S
C246 C245 1.362 . S
C246 C249 1.409 . S
C247 H239 0.930 . S
C247 C248 1.355 . S
C247 C249 1.415 . S
C248 C247 1.355 . S
C248 C250 1.419 . S
C249 C244 1.425 . S
C249 C246 1.409 . S
C249 C247 1.415 . S
C250 H240 0.930 . S
C250 C248 1.419 . S
C250 C251 1.362 . S
C251 H241 0.930 . S
C251 C244 1.409 . S
C251 C250 1.362 . S
H252 C258 0.930 . S
H253 C261 0.930 . S
H254 C262 0.930 . S
H255 C263 0.930 . S
H256 C266 0.930 . S
H257 C267 0.930 . S
C258 H252 0.930 . S
C258 C259 1.355 . S
C258 C260 1.415 . S
C259 C258 1.355 . S
C259 C261 1.419 . S
C260 C258 1.415 . S
C260 C265 1.425 . S
C260 C267 1.409 . S
C261 H253 0.930 . S
C261 C259 1.419 . S
C261 C262 1.362 . S
C262 H254 0.930 . S
C262 C261 1.362 . S
C262 C265 1.409 . S
C263 H255 0.930 . S
C263 C264 1.355 . S
C263 C265 1.415 . S
C264 C263 1.355 . S
C264 C266 1.419 . S
C265 C260 1.425 . S
C265 C262 1.409 . S
C265 C263 1.415 . S
C266 H256 0.930 . S
C266 C264 1.419 . S
C266 C267 1.362 . S
C267 H257 0.930 . S
C267 C260 1.409 . S
C267 C266 1.362 . S
H268 C274 0.948 . S
H269 C277 0.930 . S
H270 C278 0.930 . S
H271 C279 0.930 . S
H272 C282 0.930 . S
H273 C283 0.930 1_554 S
C274 H268 0.948 . S
C274 C275 1.355 . S
C274 C276 1.415 . S
C275 C274 1.355 . S
C275 C277 1.419 . S
C276 C274 1.415 . S
C276 C281 1.425 . S
C276 C283 1.409 . S
C277 H269 0.930 . S
C277 C275 1.419 . S
C277 C278 1.362 . S
C278 H270 0.930 . S
C278 C277 1.362 . S
C278 C281 1.409 . S
C279 H271 0.930 . S
C279 C280 1.355 . S
C279 C281 1.415 . S
C280 C279 1.355 . S
C280 C282 1.419 . S
C281 C276 1.425 . S
C281 C278 1.409 . S
C281 C279 1.415 . S
C282 H272 0.930 . S
C282 C280 1.419 . S
C282 C283 1.362 . S
C283 H273 0.930 1_556 S
C283 C276 1.409 . S
C283 C282 1.362 . S
H284 C290 0.930 . S
H285 C293 0.930 . S
H286 C294 0.930 . S
H287 C295 0.930 . S
H288 C298 0.930 . S
H289 C299 0.930 . S
C290 H284 0.930 . S
C290 C291 1.355 . S
C290 C292 1.415 . S
C291 C290 1.355 . S
C291 C293 1.419 . S
C292 C290 1.415 . S
C292 C297 1.425 . S
C292 C299 1.409 . S
C293 H285 0.930 . S
C293 C291 1.419 . S
C293 C294 1.362 . S
C294 H286 0.930 . S
C294 C293 1.362 . S
C294 C297 1.409 . S
C295 H287 0.930 . S
C295 C296 1.355 . S
C295 C297 1.415 . S
C296 C295 1.355 . S
C296 C298 1.419 . S
C297 C292 1.425 . S
C297 C294 1.409 . S
C297 C295 1.415 . S
C298 H288 0.930 . S
C298 C296 1.419 . S
C298 C299 1.362 . S
C299 H289 0.930 . S
C299 C292 1.409 . S
C299 C298 1.362 . S
H300 C306 0.930 . S
H301 C309 0.930 . S
H302 C310 0.930 . S
H303 C311 0.930 . S
H304 C314 0.930 . S
H305 C315 0.930 . S
C306 H300 0.930 . S
C306 C307 1.355 . S
C306 C308 1.415 . S
C307 C306 1.355 . S
C307 C309 1.419 . S
C308 C306 1.415 . S
C308 C313 1.425 . S
C308 C315 1.409 . S
C309 H301 0.930 . S
C309 C307 1.419 . S
C309 C310 1.362 . S
C310 H302 0.930 . S
C310 C309 1.362 . S
C310 C313 1.409 . S
C311 H303 0.930 . S
C311 C312 1.355 . S
C311 C313 1.415 . S
C312 C311 1.355 . S
C312 C314 1.419 . S
C313 C308 1.425 . S
C313 C310 1.409 . S
C313 C311 1.415 . S
C314 H304 0.930 . S
C314 C312 1.419 . S
C314 C315 1.362 . S
C315 H305 0.930 . S
C315 C308 1.409 . S
C315 C314 1.362 . S
H316 C322 0.930 . S
H317 C325 0.930 . S
H318 C326 0.930 . S
H319 C327 0.930 . S
H320 C330 0.930 . S
H321 C331 0.930 . S
C322 H316 0.930 . S
C322 C323 1.355 . S
C322 C324 1.415 . S
C323 C322 1.355 . S
C323 C325 1.419 . S
C324 C322 1.415 . S
C324 C329 1.425 . S
C324 C331 1.409 . S
C325 H317 0.930 . S
C325 C323 1.419 . S
C325 C326 1.362 . S
C326 H318 0.930 . S
C326 C325 1.362 . S
C326 C329 1.409 . S
C327 H319 0.930 . S
C327 C328 1.355 . S
C327 C329 1.415 . S
C328 C327 1.355 . S
C328 C330 1.419 . S
C329 C324 1.425 . S
C329 C326 1.409 . S
C329 C327 1.415 . S
C330 H320 0.930 . S
C330 C328 1.419 . S
C330 C331 1.362 . S
C331 H321 0.930 . S
C331 C324 1.409 . S
C331 C330 1.362 . S
H332 C338 0.930 . S
H333 C341 0.930 . S
H334 C342 0.930 . S
H335 C343 0.930 . S
H336 C346 0.930 . S
H337 C347 0.930 . S
C338 H332 0.930 . S
C338 C339 1.355 . S
C338 C340 1.415 . S
C339 C338 1.355 . S
C339 C341 1.419 . S
C340 C338 1.415 . S
C340 C345 1.425 . S
C340 C347 1.409 . S
C341 H333 0.930 . S
C341 C339 1.419 . S
C341 C342 1.362 . S
C342 H334 0.930 . S
C342 C341 1.362 . S
C342 C345 1.409 . S
C343 H335 0.930 . S
C343 C344 1.355 . S
C343 C345 1.415 . S
C344 C343 1.355 . S
C344 C346 1.419 . S
C345 C340 1.425 . S
C345 C342 1.409 . S
C345 C343 1.415 . S
C346 H336 0.930 . S
C346 C344 1.419 . S
C346 C347 1.362 . S
C347 H337 0.930 . S
C347 C340 1.409 . S
C347 C346 1.362 . S
H348 C354 0.914 1_556 S
H349 C357 0.930 . S
H350 C358 0.930 . S
H351 C359 0.930 . S
H352 C362 0.930 1_556 S
H353 C363 0.930 . S
C354 H348 0.914 1_554 S
C354 C355 1.363 . S
C354 C356 1.421 . S
C355 C354 1.363 . S
C355 C357 1.419 . S
C356 C354 1.421 . S
C356 C361 1.425 . S
C356 C363 1.409 1_554 S
C357 H349 0.930 . S
C357 C355 1.419 . S
C357 C358 1.362 . S
C358 H350 0.930 . S
C358 C357 1.362 . S
C358 C361 1.409 . S
C359 H351 0.930 . S
C359 C360 1.355 . S
C359 C361 1.415 . S
C360 C359 1.355 . S
C360 C362 1.419 . S
C361 C356 1.425 . S
C361 C358 1.409 . S
C361 C359 1.415 . S
C362 H352 0.930 1_554 S
C362 C360 1.419 . S
C362 C363 1.362 1_554 S
C363 H353 0.930 . S
C363 C356 1.409 1_556 S
C363 C362 1.362 1_556 S
H364 C370 0.930 . S
H365 C373 0.930 . S
H366 C374 0.930 . S
H367 C375 0.930 . S
H368 C378 0.930 . S
H369 C379 0.930 . S
C370 H364 0.930 . S
C370 C371 1.355 . S
C370 C372 1.415 . S
C371 C370 1.355 . S
C371 C373 1.419 . S
C372 C370 1.415 . S
C372 C377 1.425 . S
C372 C379 1.409 . S
C373 H365 0.930 . S
C373 C371 1.419 . S
C373 C374 1.362 . S
C374 H366 0.930 . S
C374 C373 1.362 . S
C374 C377 1.409 . S
C375 H367 0.930 . S
C375 C376 1.355 . S
C375 C377 1.415 . S
C376 C375 1.355 . S
C376 C378 1.419 . S
C377 C372 1.425 . S
C377 C374 1.409 . S
C377 C375 1.415 . S
C378 H368 0.930 . S
C378 C376 1.419 . S
C378 C379 1.362 . S
C379 H369 0.930 . S
C379 C372 1.409 . S
C379 C378 1.362 . S
H380 C386 0.930 . S
H381 C389 0.930 . S
H382 C390 0.930 . S
H383 C391 0.930 . S
H384 C394 0.930 . S
H385 C395 0.930 . S
C386 H380 0.930 . S
C386 C387 1.355 . S
C386 C388 1.415 . S
C387 C386 1.355 . S
C387 C389 1.419 . S
C388 C386 1.415 . S
C388 C393 1.425 . S
C388 C395 1.409 . S
C389 H381 0.930 . S
C389 C387 1.419 . S
C389 C390 1.362 . S
C390 H382 0.930 . S
C390 C389 1.362 . S
C390 C393 1.409 . S
C391 H383 0.930 . S
C391 C392 1.355 . S
C391 C393 1.415 . S
C392 C391 1.355 . S
C392 C394 1.419 . S
C393 C388 1.425 . S
C393 C390 1.409 . S
C393 C391 1.415 . S
C394 H384 0.930 . S
C394 C392 1.419 . S
C394 C395 1.362 . S
C395 H385 0.930 . S
C395 C388 1.409 . S
C395 C394 1.362 . S
H396 C402 0.930 . S
H397 C405 0.930 . S
H398 C406 0.930 . S
H399 C407 0.930 . S
H400 C410 0.930 . S
H401 C411 0.930 . S
C402 H396 0.930 . S
C402 C403 1.355 . S
C402 C404 1.415 . S
C403 C402 1.355 . S
C403 C405 1.419 . S
C404 C402 1.415 . S
C404 C409 1.425 . S
C404 C411 1.409 . S
C405 H397 0.930 . S
C405 C403 1.419 . S
C405 C406 1.362 . S
C406 H398 0.930 . S
C406 C405 1.362 . S
C406 C409 1.409 . S
C407 H399 0.930 . S
C407 C408 1.355 . S
C407 C409 1.415 . S
C408 C407 1.355 . S
C408 C410 1.419 . S
C409 C404 1.425 . S
C409 C406 1.409 . S
C409 C407 1.415 . S
C410 H400 0.930 . S
C410 C408 1.419 . S
C410 C411 1.362 . S
C411 H401 0.930 . S
C411 C404 1.409 . S
C411 C410 1.362 . S
H412 C418 0.930 . S
H413 C421 0.930 . S
H414 C422 0.930 . S
H415 C423 0.930 . S
H416 C426 0.930 . S
H417 C427 0.930 . S
C418 H412 0.930 . S
C418 C419 1.355 . S
C418 C420 1.415 . S
C419 C418 1.355 . S
C419 C421 1.419 . S
C420 C418 1.415 . S
C420 C425 1.425 . S
C420 C427 1.409 . S
C421 H413 0.930 . S
C421 C419 1.419 . S
C421 C422 1.362 . S
C422 H414 0.930 . S
C422 C421 1.362 . S
C422 C425 1.409 . S
C423 H415 0.930 . S
C423 C424 1.355 . S
C423 C425 1.415 . S
C424 C423 1.355 . S
C424 C426 1.419 . S
C425 C420 1.425 . S
C425 C422 1.409 . S
C425 C423 1.415 . S
C426 H416 0.930 . S
C426 C424 1.419 . S
C426 C427 1.362 . S
C427 H417 0.930 . S
C427 C420 1.409 . S
C427 C426 1.362 . S
H428 C434 0.930 . S
H429 C437 0.930 . S
H430 C438 0.930 . S
H431 C439 0.930 . S
H432 C442 0.930 . S
H433 C443 0.930 . S
C434 H428 0.930 . S
C434 C435 1.355 . S
C434 C436 1.415 . S
C435 C434 1.355 . S
C435 C437 1.419 . S
C436 C434 1.415 . S
C436 C441 1.425 . S
C436 C443 1.409 . S
C437 H429 0.930 . S
C437 C435 1.419 . S
C437 C438 1.362 . S
C438 H430 0.930 . S
C438 C437 1.362 . S
C438 C441 1.409 . S
C439 H431 0.930 . S
C439 C440 1.355 . S
C439 C441 1.415 . S
C440 C439 1.355 . S
C440 C442 1.419 . S
C441 C436 1.425 . S
C441 C438 1.409 . S
C441 C439 1.415 . S
C442 H432 0.930 . S
C442 C440 1.419 . S
C442 C443 1.362 . S
C443 H433 0.930 . S
C443 C436 1.409 . S
C443 C442 1.362 . S
H444 C450 0.930 . S
H445 C453 0.930 . S
H446 C454 0.930 . S
H447 C455 0.930 . S
H448 C458 0.930 . S
H449 C459 0.930 . S
C450 H444 0.930 . S
C450 C451 1.355 . S
C450 C452 1.415 . S
C451 C450 1.355 . S
C451 C453 1.419 . S
C452 C450 1.415 . S
C452 C457 1.425 . S
C452 C459 1.409 . S
C453 H445 0.930 . S
C453 C451 1.419 . S
C453 C454 1.362 . S
C454 H446 0.930 . S
C454 C453 1.362 . S
C454 C457 1.409 . S
C455 H447 0.930 . S
C455 C456 1.355 . S
C455 C457 1.415 . S
C456 C455 1.355 . S
C456 C458 1.419 1_556 S
C457 C452 1.425 . S
C457 C454 1.409 . S
C457 C455 1.415 . S
C458 H448 0.930 . S
C458 C456 1.419 1_554 S
C458 C459 1.362 1_554 S
C459 H449 0.930 . S
C459 C452 1.409 . S
C459 C458 1.362 1_556 S
H460 C466 0.930 . S
H461 C469 0.930 . S
H462 C470 0.930 . S
H463 C471 0.930 . S
H464 C474 0.930 . S
H465 C475 0.930 . S
C466 H460 0.930 . S
C466 C467 1.355 . S
C466 C468 1.415 . S
C467 C466 1.355 . S
C467 C469 1.419 . S
C468 C466 1.415 . S
C468 C473 1.425 . S
C468 C475 1.409 . S
C469 H461 0.930 . S
C469 C467 1.419 . S
C469 C470 1.362 . S
C470 H462 0.930 . S
C470 C469 1.362 . S
C470 C473 1.409 . S
C471 H463 0.930 . S
C471 C472 1.355 . S
C471 C473 1.415 . S
C472 C471 1.355 . S
C472 C474 1.419 . S
C473 C468 1.425 . S
C473 C470 1.409 . S
C473 C471 1.415 . S
C474 H464 0.930 . S
C474 C472 1.419 . S
C474 C475 1.362 . S
C475 H465 0.930 . S
C475 C468 1.409 . S
C475 C474 1.362 . S
H476 C482 0.930 . S
H477 C485 0.930 . S
H478 C486 0.930 . S
H479 C487 0.930 . S
H480 C490 0.930 . S
H481 C491 0.930 . S
C482 H476 0.930 . S
C482 C483 1.355 . S
C482 C484 1.415 . S
C483 C482 1.355 . S
C483 C485 1.419 . S
C484 C482 1.415 . S
C484 C489 1.425 . S
C484 C491 1.409 . S
C485 H477 0.930 . S
C485 C483 1.419 . S
C485 C486 1.362 . S
C486 H478 0.930 . S
C486 C485 1.362 . S
C486 C489 1.409 . S
C487 H479 0.930 . S
C487 C488 1.355 . S
C487 C489 1.415 . S
C488 C487 1.355 . S
C488 C490 1.419 . S
C489 C484 1.425 . S
C489 C486 1.409 . S
C489 C487 1.415 . S
C490 H480 0.930 . S
C490 C488 1.419 . S
C490 C491 1.362 . S
C491 H481 0.930 . S
C491 C484 1.409 . S
C491 C490 1.362 . S
H492 C498 0.930 . S
H493 C501 0.930 . S
H494 C502 0.930 . S
H495 C503 0.930 . S
H496 C506 0.930 . S
H497 C507 0.930 . S
C498 H492 0.930 . S
C498 C499 1.355 . S
C498 C500 1.415 . S
C499 C498 1.355 . S
C499 C501 1.419 . S
C500 C498 1.415 . S
C500 C505 1.425 . S
C500 C507 1.409 . S
C501 H493 0.930 . S
C501 C499 1.419 . S
C501 C502 1.362 . S
C502 H494 0.930 . S
C502 C501 1.362 . S
C502 C505 1.409 . S
C503 H495 0.930 . S
C503 C504 1.355 . S
C503 C505 1.415 . S
C504 C503 1.355 . S
C504 C506 1.419 . S
C505 C500 1.425 . S
C505 C502 1.409 . S
C505 C503 1.415 . S
C506 H496 0.930 . S
C506 C504 1.419 . S
C506 C507 1.362 . S
C507 H497 0.930 . S
C507 C500 1.409 . S
C507 C506 1.362 . S
H508 C514 0.930 . S
H509 C517 0.930 . S
H510 C518 0.930 . S
H511 C519 0.930 . S
H512 C522 0.930 . S
H513 C523 0.930 . S
C514 H508 0.930 . S
C514 C515 1.355 . S
C514 C516 1.415 . S
C515 C514 1.355 . S
C515 C517 1.419 . S
C516 C514 1.415 . S
C516 C521 1.425 . S
C516 C523 1.409 . S
C517 H509 0.930 . S
C517 C515 1.419 . S
C517 C518 1.362 . S
C518 H510 0.930 . S
C518 C517 1.362 . S
C518 C521 1.409 . S
C519 H511 0.930 . S
C519 C520 1.355 . S
C519 C521 1.415 . S
C520 C519 1.355 . S
C520 C522 1.419 . S
C521 C516 1.425 . S
C521 C518 1.409 . S
C521 C519 1.415 . S
C522 H512 0.930 . S
C522 C520 1.419 . S
C522 C523 1.362 . S
C523 H513 0.930 . S
C523 C516 1.409 . S
C523 C522 1.362 . S
H524 C530 0.930 . S
H525 C533 0.930 . S
H526 C534 0.930 . S
H527 C535 0.930 . S
H528 C538 0.930 . S
H529 C539 0.930 . S
C530 H524 0.930 . S
C530 C531 1.355 . S
C530 C532 1.415 . S
C531 C530 1.355 . S
C531 C533 1.419 . S
C532 C530 1.415 . S
C532 C537 1.425 . S
C532 C539 1.409 . S
C533 H525 0.930 . S
C533 C531 1.419 . S
C533 C534 1.362 . S
C534 H526 0.930 . S
C534 C533 1.362 . S
C534 C537 1.409 . S
C535 H527 0.930 . S
C535 C536 1.355 . S
C535 C537 1.415 . S
C536 C535 1.355 . S
C536 C538 1.419 . S
C537 C532 1.425 . S
C537 C534 1.409 . S
C537 C535 1.415 . S
C538 H528 0.930 . S
C538 C536 1.419 . S
C538 C539 1.362 . S
C539 H529 0.930 . S
C539 C532 1.409 . S
C539 C538 1.362 . S
H540 C546 0.930 . S
H541 C549 0.930 . S
H542 C550 0.930 . S
H543 C551 0.930 . S
H544 C554 0.930 . S
H545 C555 0.930 . S
C546 H540 0.930 . S
C546 C547 1.355 . S
C546 C548 1.415 . S
C547 C546 1.355 . S
C547 C549 1.419 . S
C548 C546 1.415 . S
C548 C553 1.425 . S
C548 C555 1.409 . S
C549 H541 0.930 . S
C549 C547 1.419 . S
C549 C550 1.362 . S
C550 H542 0.930 . S
C550 C549 1.362 . S
C550 C553 1.409 . S
C551 H543 0.930 . S
C551 C552 1.355 . S
C551 C553 1.415 . S
C552 C551 1.355 . S
C552 C554 1.419 . S
C553 C548 1.425 . S
C553 C550 1.409 . S
C553 C551 1.415 . S
C554 H544 0.930 . S
C554 C552 1.419 . S
C554 C555 1.362 . S
C555 H545 0.930 . S
C555 C548 1.409 . S
C555 C554 1.362 . S
H556 C562 0.930 . S
H557 C565 0.930 . S
H558 C566 0.955 . S
H559 C567 0.930 . S
H560 C570 0.930 . S
H561 C571 0.930 . S
C562 H556 0.930 . S
C562 C563 1.355 . S
C562 C564 1.415 . S
C563 C562 1.355 . S
C563 C565 1.419 . S
C564 C562 1.415 . S
C564 C569 1.425 . S
C564 C571 1.409 . S
C565 H557 0.930 . S
C565 C563 1.419 . S
C565 C566 1.362 . S
C566 H558 0.955 . S
C566 C565 1.362 . S
C566 C569 1.409 . S
C567 H559 0.930 . S
C567 C568 1.355 . S
C567 C569 1.415 1_556 S
C568 C567 1.355 . S
C568 C570 1.419 1_556 S
C569 C564 1.425 . S
C569 C566 1.409 . S
C569 C567 1.415 1_554 S
C570 H560 0.930 . S
C570 C568 1.419 1_554 S
C570 C571 1.362 . S
C571 H561 0.930 . S
C571 C564 1.409 . S
C571 C570 1.362 . S
H572 C578 0.930 . S
H573 C581 0.930 . S
H574 C582 0.930 . S
H575 C583 0.930 . S
H576 C586 0.930 . S
H577 C587 0.930 . S
C578 H572 0.930 . S
C578 C579 1.355 . S
C578 C580 1.415 . S
C579 C578 1.355 . S
C579 C581 1.419 . S
C580 C578 1.415 . S
C580 C585 1.425 . S
C580 C587 1.409 . S
C581 H573 0.930 . S
C581 C579 1.419 . S
C581 C582 1.362 . S
C582 H574 0.930 . S
C582 C581 1.362 . S
C582 C585 1.409 . S
C583 H575 0.930 . S
C583 C584 1.355 . S
C583 C585 1.415 . S
C584 C583 1.355 . S
C584 C586 1.419 . S
C585 C580 1.425 . S
C585 C582 1.409 . S
C585 C583 1.415 . S
C586 H576 0.930 . S
C586 C584 1.419 . S
C586 C587 1.362 . S
C587 H577 0.930 . S
C587 C580 1.409 . S
C587 C586 1.362 . S
C216 C196 1.592 . S
C211 C19 1.485 . S
C227 C40 1.521 . S
C232 C131 1.599 . S
C243 C51 1.490 . S
C248 C149 1.606 . S
C259 C72 1.466 . S
C264 C162 1.590 . S
C280 C170 1.589 . S
C275 C103 1.560 . S
C291 C114 1.548 . S
C296 C182 1.581 . S
C307 C30 1.556 . S
C312 C144 1.602 . S
C323 C61 1.489 . S
C328 C157 1.595 . S
C339 C82 1.529 . S
C344 C175 1.576 . S
C360 C181 1.597 . S
C355 C93 1.543 1_554 S
C376 C201 1.587 . S
C371 C124 1.516 . S
C392 C136 1.582 . S
C387 C9 1.551 . S
C403 C17 1.546 . S
C408 C142 1.590 . S
C419 C38 1.523 . S
C424 C155 1.588 . S
C440 C169 1.581 . S
C435 C54 1.530 . S
C451 C75 1.475 . S
C456 C183 1.586 1_556 S
C472 C195 1.577 . S
C467 C101 1.541 . S
C488 C130 1.580 . S
C483 C117 1.494 . S
C504 C194 1.585 . S
C499 C33 1.548 . S
C515 C59 1.539 . S
C520 C129 1.587 . S
C536 C143 1.583 . S
C531 C80 1.497 . S
C547 C96 1.485 . S
C552 C156 1.578 . S
C563 C122 1.548 . S
C568 C168 1.590 . S
C579 C12 1.523 . S
C584 C188 1.583 . S
