# Generated by pormake.
# Topology ssb, (4,4)-cn, num edge types: 1
# Building blocks:
#     Node 0, Type 0, BuildingBlock: NAWXER_clean_linker_0, # of connection points: 4
#     Node 1, Type 0, BuildingBlock: NAWXER_clean_linker_0, # of connection points: 4
#     Node 2, Type 0, BuildingBlock: NAWXER_clean_linker_0, # of connection points: 4
#     Node 3, Type 0, BuildingBlock: NAWXER_clean_linker_0, # of connection points: 4
#     Node 4, Type 0, BuildingBlock: NAWXER_clean_linker_0, # of connection points: 4
#     Node 5, Type 0, BuildingBlock: NAWXER_clean_linker_0, # of connection points: 4
#     Node 6, Type 0, BuildingBlock: NAWXER_clean_linker_0, # of connection points: 4
#     Node 7, Type 0, BuildingBlock: NAWXER_clean_linker_0, # of connection points: 4
#     Node 8, Type 1, BuildingBlock: KOZSID_clean_sbu_0, # of connection points: 4
#     Node 9, Type 1, BuildingBlock: KOZSID_clean_sbu_0, # of connection points: 4
#     Node 10, Type 1, BuildingBlock: KOZSID_clean_sbu_0, # of connection points: 4
#     Node 11, Type 1, BuildingBlock: KOZSID_clean_sbu_0, # of connection points: 4
#     Node 12, Type 1, BuildingBlock: KOZSID_clean_sbu_0, # of connection points: 4
#     Node 13, Type 1, BuildingBlock: KOZSID_clean_sbu_0, # of connection points: 4
#     Node 14, Type 1, BuildingBlock: KOZSID_clean_sbu_0, # of connection points: 4
#     Node 15, Type 1, BuildingBlock: KOZSID_clean_sbu_0, # of connection points: 4
#     Edge 16, Type (0, 1), BuildingBlock: CIFDUS_clean_linker_0, # of connection points: 2
#     Edge 17, Type (0, 1), BuildingBlock: CIFDUS_clean_linker_0, # of connection points: 2
#     Edge 18, Type (0, 1), BuildingBlock: CIFDUS_clean_linker_0, # of connection points: 2
#     Edge 19, Type (0, 1), BuildingBlock: CIFDUS_clean_linker_0, # of connection points: 2
#     Edge 20, Type (0, 1), BuildingBlock: CIFDUS_clean_linker_0, # of connection points: 2
#     Edge 21, Type (0, 1), BuildingBlock: CIFDUS_clean_linker_0, # of connection points: 2
#     Edge 22, Type (0, 1), BuildingBlock: CIFDUS_clean_linker_0, # of connection points: 2
#     Edge 23, Type (0, 1), BuildingBlock: CIFDUS_clean_linker_0, # of connection points: 2
#     Edge 24, Type (0, 1), BuildingBlock: CIFDUS_clean_linker_0, # of connection points: 2
#     Edge 25, Type (0, 1), BuildingBlock: CIFDUS_clean_linker_0, # of connection points: 2
#     Edge 26, Type (0, 1), BuildingBlock: CIFDUS_clean_linker_0, # of connection points: 2
#     Edge 27, Type (0, 1), BuildingBlock: CIFDUS_clean_linker_0, # of connection points: 2
#     Edge 28, Type (0, 1), BuildingBlock: CIFDUS_clean_linker_0, # of connection points: 2
#     Edge 29, Type (0, 1), BuildingBlock: CIFDUS_clean_linker_0, # of connection points: 2
#     Edge 30, Type (0, 1), BuildingBlock: CIFDUS_clean_linker_0, # of connection points: 2
#     Edge 31, Type (0, 1), BuildingBlock: CIFDUS_clean_linker_0, # of connection points: 2
#     Edge 32, Type (0, 1), BuildingBlock: CIFDUS_clean_linker_0, # of connection points: 2
#     Edge 33, Type (0, 1), BuildingBlock: CIFDUS_clean_linker_0, # of connection points: 2
#     Edge 34, Type (0, 1), BuildingBlock: CIFDUS_clean_linker_0, # of connection points: 2
#     Edge 35, Type (0, 1), BuildingBlock: CIFDUS_clean_linker_0, # of connection points: 2
#     Edge 36, Type (0, 1), BuildingBlock: CIFDUS_clean_linker_0, # of connection points: 2
#     Edge 37, Type (0, 1), BuildingBlock: CIFDUS_clean_linker_0, # of connection points: 2
#     Edge 38, Type (0, 1), BuildingBlock: CIFDUS_clean_linker_0, # of connection points: 2
#     Edge 39, Type (0, 1), BuildingBlock: CIFDUS_clean_linker_0, # of connection points: 2
#     Edge 40, Type (0, 1), BuildingBlock: CIFDUS_clean_linker_0, # of connection points: 2
#     Edge 41, Type (0, 1), BuildingBlock: CIFDUS_clean_linker_0, # of connection points: 2
#     Edge 42, Type (0, 1), BuildingBlock: CIFDUS_clean_linker_0, # of connection points: 2
#     Edge 43, Type (0, 1), BuildingBlock: CIFDUS_clean_linker_0, # of connection points: 2
#     Edge 44, Type (0, 1), BuildingBlock: CIFDUS_clean_linker_0, # of connection points: 2
#     Edge 45, Type (0, 1), BuildingBlock: CIFDUS_clean_linker_0, # of connection points: 2
#     Edge 46, Type (0, 1), BuildingBlock: CIFDUS_clean_linker_0, # of connection points: 2
#     Edge 47, Type (0, 1), BuildingBlock: CIFDUS_clean_linker_0, # of connection points: 2
# Relax obj value: 0.003
# Max RMSD: 0.034
# Mean RMSD: 0.020
data_MOF--net-ssb--node1-KOZSID_clean_sbu_0--node2-NAWXER_clean_linker_0--edge1-CIFDUS_clean_linker_0
_symmetry_space_group_name_H-M    P1
_symmetry_Int_Tables_number       1
_symmetry_cell_setting            triclinic
loop_
_symmetry_equiv_pos_as_xyz
'x, y, z'
_cell_length_a     57.329152
_cell_length_b     57.069194
_cell_length_c     42.154638
_cell_angle_alpha  92.346417
_cell_angle_beta   94.723076
_cell_angle_gamma 89.964481
loop_
_atom_site_label
_atom_site_type_symbol
_atom_site_fract_x
_atom_site_fract_y
_atom_site_fract_z
_atom_type_partial_charge
C0 C 0.30699 0.24729 0.18178 0.0
C1 C 0.33038 0.2471 0.19479 0.0
C2 C 0.28859 0.24764 0.20163 0.0
C3 C 0.29323 0.24789 0.23489 0.0
C4 C 0.33495 0.2471 0.22809 0.0
C5 C 0.31654 0.24728 0.24791 0.0
C6 C 0.2739 0.24791 0.25615 0.0
C7 C 0.27286 0.31753 0.20806 0.0
C8 C 0.25178 0.32306 0.19028 0.0
C9 C 0.27403 0.29886 0.22898 0.0
C10 C 0.25428 0.28475 0.23245 0.0
C11 C 0.23185 0.30941 0.19472 0.0
C12 C 0.23308 0.29066 0.21547 0.0
C13 C 0.25528 0.26434 0.25418 0.0
C14 C 0.20394 0.24163 0.36892 0.0
C15 C 0.18059 0.24337 0.35611 0.0
C16 C 0.22236 0.24209 0.34918 0.0
C17 C 0.21785 0.24385 0.31608 0.0
C18 C 0.17614 0.24581 0.32308 0.0
C19 C 0.1946 0.24611 0.3033 0.0
C20 C 0.23728 0.24416 0.29487 0.0
C21 C 0.23904 0.17289 0.33947 0.0
C22 C 0.25902 0.1693 0.3605 0.0
C23 C 0.23797 0.19169 0.31876 0.0
C24 C 0.2569 0.2074 0.31834 0.0
C25 C 0.27808 0.18479 0.35955 0.0
C26 C 0.27712 0.20338 0.33858 0.0
C27 C 0.25593 0.22779 0.29679 0.0
H28 H 0.3029 0.2474 0.15624 0.0
H29 H 0.27073 0.24763 0.191 0.0
H30 H 0.35276 0.24662 0.2388 0.0
H31 H 0.3205 0.24717 0.27349 0.0
H32 H 0.28868 0.32737 0.20551 0.0
H33 H 0.29049 0.29554 0.2425 0.0
H34 H 0.21509 0.31326 0.18232 0.0
H35 H 0.2174 0.28053 0.21791 0.0
H36 H 0.208 0.24026 0.39433 0.0
H37 H 0.24015 0.24123 0.35989 0.0
H38 H 0.15837 0.2471 0.31243 0.0
H39 H 0.19067 0.24776 0.27791 0.0
H40 H 0.22398 0.16144 0.33949 0.0
H41 H 0.22228 0.19397 0.30306 0.0
H42 H 0.29389 0.18248 0.37501 0.0
H43 H 0.29209 0.21496 0.33865 0.0
N44 N 0.27355 0.23052 0.27744 0.0
N45 N 0.23764 0.26157 0.27357 0.0
C46 C 0.67172 0.28357 0.22912 0.0
C47 C 0.66595 0.26593 0.2055 0.0
C48 C 0.69363 0.28384 0.24632 0.0
C49 C 0.71035 0.26661 0.24003 0.0
C50 C 0.68262 0.24854 0.19953 0.0
C51 C 0.70453 0.24882 0.21677 0.0
C52 C 0.73342 0.26637 0.25869 0.0
C53 C 0.73503 0.33114 0.20239 0.0
C54 C 0.73753 0.3523 0.22062 0.0
C55 C 0.73769 0.30972 0.21694 0.0
C56 C 0.74259 0.30906 0.25003 0.0
C57 C 0.74226 0.35162 0.2538 0.0
C58 C 0.74486 0.33014 0.26837 0.0
C59 C 0.74752 0.28659 0.26519 0.0
C60 C 0.83437 0.24744 0.33534 0.0
C61 C 0.83809 0.26467 0.36007 0.0
C62 C 0.81402 0.2476 0.31468 0.0
C63 C 0.79682 0.26478 0.31863 0.0
C64 C 0.82119 0.28231 0.36324 0.0
C65 C 0.80081 0.2824 0.34265 0.0
C66 C 0.77469 0.26466 0.29784 0.0
C67 C 0.77202 0.19993 0.35402 0.0
C68 C 0.77229 0.17894 0.33547 0.0
C69 C 0.76871 0.22129 0.33952 0.0
C70 C 0.76587 0.22202 0.30622 0.0
C71 C 0.76989 0.17971 0.30211 0.0
C72 C 0.76649 0.20114 0.28758 0.0
C73 C 0.7608 0.24439 0.29096 0.0
H74 H 0.65934 0.29729 0.2342 0.0
H75 H 0.69739 0.29739 0.26476 0.0
H76 H 0.6786 0.2345 0.18187 0.0
H77 H 0.71702 0.23516 0.21181 0.0
H78 H 0.73197 0.33112 0.17669 0.0
H79 H 0.73668 0.29372 0.20216 0.0
H80 H 0.74422 0.36768 0.26839 0.0
H81 H 0.74888 0.32998 0.29393 0.0
H82 H 0.84698 0.23357 0.33228 0.0
H83 H 0.81168 0.23419 0.29575 0.0
H84 H 0.82372 0.29611 0.38161 0.0
H85 H 0.78794 0.29601 0.34588 0.0
H86 H 0.77389 0.19975 0.3798 0.0
H87 H 0.76782 0.23717 0.35435 0.0
H88 H 0.76975 0.16371 0.28736 0.0
H89 H 0.76411 0.20142 0.26183 0.0
N90 N 0.74074 0.24597 0.27165 0.0
N91 N 0.76748 0.285 0.28469 0.0
C92 C 0.69056 0.74669 0.16103 0.0
C93 C 0.66867 0.75261 0.17195 0.0
C94 C 0.71057 0.74594 0.1823 0.0
C95 C 0.70904 0.75053 0.21507 0.0
C96 C 0.6673 0.75752 0.20472 0.0
C97 C 0.68724 0.75649 0.22599 0.0
C98 C 0.73017 0.75103 0.23787 0.0
C99 C 0.72459 0.67679 0.19611 0.0
C100 C 0.74358 0.66881 0.17936 0.0
C101 C 0.72602 0.69776 0.21483 0.0
C102 C 0.74639 0.71171 0.21715 0.0
C103 C 0.76405 0.68271 0.18192 0.0
C104 C 0.76547 0.70373 0.20072 0.0
C105 C 0.74816 0.73397 0.23759 0.0
C106 C 0.80999 0.76063 0.35628 0.0
C107 C 0.83209 0.7565 0.34488 0.0
C108 C 0.78978 0.76064 0.3353 0.0
C109 C 0.79126 0.75707 0.30235 0.0
C110 C 0.83343 0.75256 0.31191 0.0
C111 C 0.81324 0.75279 0.29093 0.0
C112 C 0.76997 0.75613 0.27983 0.0
C113 C 0.77073 0.82946 0.32812 0.0
C114 C 0.75111 0.8343 0.34539 0.0
C115 C 0.77118 0.80957 0.30722 0.0
C116 C 0.752 0.794 0.30301 0.0
C117 C 0.73184 0.81888 0.34061 0.0
C118 C 0.73222 0.79919 0.31961 0.0
C119 C 0.75169 0.77286 0.28056 0.0
H120 H 0.69229 0.74265 0.13602 0.0
H121 H 0.72726 0.74211 0.173 0.0
H122 H 0.6509 0.76264 0.21396 0.0
H123 H 0.68565 0.76051 0.25106 0.0
H124 H 0.70843 0.66685 0.19471 0.0
H125 H 0.71118 0.70293 0.22778 0.0
H126 H 0.77921 0.67711 0.16992 0.0
H127 H 0.78153 0.71386 0.20229 0.0
H128 H 0.80825 0.76388 0.38146 0.0
H129 H 0.773 0.76315 0.34496 0.0
H130 H 0.85004 0.74884 0.30229 0.0
H131 H 0.8148 0.74957 0.26568 0.0
H132 H 0.78593 0.84084 0.33114 0.0
H133 H 0.78649 0.80645 0.29423 0.0
H134 H 0.71624 0.82215 0.35294 0.0
H135 H 0.71704 0.78778 0.31661 0.0
N136 N 0.7326 0.76949 0.25949 0.0
N137 N 0.76745 0.73747 0.2584 0.0
C138 C 0.31871 0.72462 0.18882 0.0
C139 C 0.32302 0.74284 0.16867 0.0
C140 C 0.3 0.72601 0.20812 0.0
C141 C 0.28463 0.74528 0.20687 0.0
C142 C 0.30815 0.76242 0.16803 0.0
C143 C 0.28912 0.76358 0.18684 0.0
C144 C 0.2649 0.74736 0.22777 0.0
C145 C 0.24683 0.68057 0.17035 0.0
C146 C 0.25178 0.66052 0.1881 0.0
C147 C 0.24703 0.70274 0.1854 0.0
C148 C 0.2518 0.70518 0.21844 0.0
C149 C 0.25664 0.66318 0.2213 0.0
C150 C 0.25631 0.68534 0.2364 0.0
C151 C 0.25069 0.72829 0.23455 0.0
C152 C 0.17815 0.7739 0.31412 0.0
C153 C 0.17568 0.75569 0.33518 0.0
C154 C 0.19555 0.77296 0.29267 0.0
C155 C 0.21142 0.75415 0.29242 0.0
C156 C 0.19109 0.7365 0.33401 0.0
C157 C 0.20873 0.73581 0.31302 0.0
C158 C 0.23021 0.75267 0.27004 0.0
C159 C 0.24521 0.81896 0.32812 0.0
C160 C 0.24204 0.83922 0.31045 0.0
C161 C 0.2458 0.79699 0.31268 0.0
C162 C 0.24299 0.79496 0.27936 0.0
C163 C 0.2392 0.83717 0.27707 0.0
C164 C 0.23989 0.81513 0.26159 0.0
C165 C 0.24421 0.77186 0.26304 0.0
H166 H 0.33021 0.70956 0.19027 0.0
H167 H 0.29798 0.71221 0.22452 0.0
H168 H 0.31112 0.77673 0.15273 0.0
H169 H 0.27786 0.77883 0.18568 0.0
H170 H 0.2424 0.67916 0.14488 0.0
H171 H 0.24302 0.71794 0.17137 0.0
H172 H 0.26088 0.64821 0.23563 0.0
H173 H 0.25988 0.68706 0.26203 0.0
H174 H 0.16677 0.78904 0.31427 0.0
H175 H 0.19644 0.78692 0.2762 0.0
H176 H 0.18943 0.72178 0.34908 0.0
H177 H 0.2204 0.72086 0.313 0.0
H178 H 0.24729 0.82012 0.35392 0.0
H179 H 0.24863 0.78161 0.32673 0.0
H180 H 0.23696 0.85261 0.26302 0.0
H181 H 0.23793 0.81378 0.23579 0.0
N182 N 0.26092 0.76853 0.24221 0.0
N183 N 0.2341 0.73159 0.25544 0.0
C184 C 0.18029 0.78662 0.68342 0.0
C185 C 0.17241 0.76625 0.66612 0.0
C186 C 0.20044 0.78606 0.70449 0.0
C187 C 0.21348 0.76525 0.70779 0.0
C188 C 0.18496 0.74533 0.66993 0.0
C189 C 0.20535 0.74485 0.69051 0.0
C190 C 0.23462 0.76397 0.73057 0.0
C191 C 0.25258 0.82231 0.6642 0.0
C192 C 0.25467 0.84478 0.67961 0.0
C193 C 0.2512 0.8019 0.68175 0.0
C194 C 0.25203 0.80328 0.71525 0.0
C195 C 0.25502 0.84593 0.7132 0.0
C196 C 0.25407 0.82555 0.73066 0.0
C197 C 0.25202 0.78178 0.73462 0.0
C198 C 0.33031 0.73564 0.81043 0.0
C199 C 0.33879 0.7546 0.83044 0.0
C200 C 0.30855 0.73694 0.79308 0.0
C201 C 0.29475 0.75718 0.79554 0.0
C202 C 0.32484 0.77475 0.8331 0.0
C203 C 0.30311 0.77609 0.81561 0.0
C204 C 0.27273 0.75954 0.77502 0.0
C205 C 0.26025 0.70247 0.84332 0.0
C206 C 0.25732 0.67985 0.82883 0.0
C207 C 0.25953 0.72254 0.82491 0.0
C208 C 0.25568 0.72064 0.79143 0.0
C209 C 0.25309 0.67805 0.79537 0.0
C210 C 0.25203 0.69814 0.77702 0.0
C211 C 0.25523 0.74193 0.77145 0.0
H212 H 0.17059 0.80284 0.68108 0.0
H213 H 0.20548 0.80179 0.71857 0.0
H214 H 0.17903 0.72941 0.65684 0.0
H215 H 0.21481 0.72849 0.6929 0.0
H216 H 0.25258 0.82031 0.63857 0.0
H217 H 0.25001 0.78497 0.66915 0.0
H218 H 0.25594 0.86263 0.72632 0.0
H219 H 0.25472 0.82724 0.75641 0.0
H220 H 0.34059 0.71983 0.80802 0.0
H221 H 0.30282 0.72237 0.77708 0.0
H222 H 0.33103 0.78975 0.84801 0.0
H223 H 0.29291 0.792 0.8175 0.0
H224 H 0.2636 0.70464 0.86893 0.0
H225 H 0.26197 0.73961 0.83691 0.0
H226 H 0.25044 0.66103 0.7833 0.0
H227 H 0.24881 0.69603 0.75138 0.0
N228 N 0.237 0.74482 0.74908 0.0
N229 N 0.27029 0.77875 0.75681 0.0
C230 C 0.33975 0.28576 0.8181 0.0
C231 C 0.34495 0.2694 0.84172 0.0
C232 C 0.31811 0.28524 0.8002 0.0
C233 C 0.30109 0.26852 0.80579 0.0
C234 C 0.32807 0.25235 0.84674 0.0
C235 C 0.30642 0.25186 0.82884 0.0
C236 C 0.27797 0.2679 0.78717 0.0
C237 C 0.27707 0.33512 0.84545 0.0
C238 C 0.272 0.35552 0.82865 0.0
C239 C 0.27536 0.31318 0.82985 0.0
C240 C 0.26944 0.31123 0.79689 0.0
C241 C 0.26675 0.35364 0.79551 0.0
C242 C 0.26548 0.33164 0.77977 0.0
C243 C 0.26436 0.28812 0.78096 0.0
C244 C 0.17608 0.24826 0.71036 0.0
C245 C 0.17292 0.26452 0.68618 0.0
C246 C 0.19658 0.24847 0.73079 0.0
C247 C 0.21446 0.26474 0.72719 0.0
C248 C 0.19061 0.28117 0.68321 0.0
C249 C 0.2111 0.28133 0.70359 0.0
C250 C 0.2365 0.26507 0.74822 0.0
C251 C 0.23891 0.19637 0.69275 0.0
C252 C 0.23807 0.17672 0.71159 0.0
C253 C 0.24184 0.2187 0.707 0.0
C254 C 0.24389 0.22165 0.74028 0.0
C255 C 0.23926 0.17972 0.74486 0.0
C256 C 0.24241 0.20211 0.75916 0.0
C257 C 0.24969 0.24479 0.75528 0.0
H258 H 0.35231 0.29917 0.81369 0.0
H259 H 0.31469 0.29791 0.78197 0.0
H260 H 0.33167 0.23922 0.86431 0.0
H261 H 0.29371 0.2386 0.8333 0.0
H262 H 0.28154 0.33603 0.87094 0.0
H263 H 0.27769 0.29777 0.8439 0.0
H264 H 0.26252 0.36901 0.78197 0.0
H265 H 0.2606 0.33051 0.75436 0.0
H266 H 0.16285 0.23516 0.71325 0.0
H267 H 0.19842 0.23592 0.74941 0.0
H268 H 0.18855 0.29422 0.66525 0.0
H269 H 0.2245 0.29425 0.70061 0.0
H270 H 0.23806 0.19433 0.66701 0.0
H271 H 0.24338 0.23353 0.69207 0.0
H272 H 0.23889 0.1647 0.75971 0.0
H273 H 0.24417 0.20416 0.78491 0.0
N274 N 0.26992 0.24694 0.77435 0.0
N275 N 0.24434 0.28594 0.76146 0.0
C276 C 0.82304 0.22585 0.71017 0.0
C277 C 0.8298 0.24583 0.69463 0.0
C278 C 0.80301 0.22615 0.72698 0.0
C279 C 0.78876 0.24618 0.72796 0.0
C280 C 0.81566 0.26598 0.69599 0.0
C281 C 0.79543 0.26615 0.71247 0.0
C282 C 0.76815 0.24716 0.74726 0.0
C283 C 0.75109 0.18683 0.67402 0.0
C284 C 0.74999 0.16452 0.68718 0.0
C285 C 0.75226 0.20748 0.69361 0.0
C286 C 0.75229 0.20647 0.72693 0.0
C287 C 0.75043 0.16373 0.72067 0.0
C288 C 0.75125 0.18433 0.7401 0.0
C289 C 0.75218 0.22821 0.74818 0.0
C290 C 0.67596 0.26434 0.82366 0.0
C291 C 0.67616 0.2493 0.84943 0.0
C292 C 0.69471 0.26471 0.80444 0.0
C293 C 0.71383 0.24972 0.81008 0.0
C294 C 0.69574 0.23462 0.85519 0.0
C295 C 0.71415 0.23456 0.8354 0.0
C296 C 0.73317 0.24932 0.78901 0.0
C297 C 0.74747 0.30737 0.86352 0.0
C298 C 0.74567 0.33016 0.85179 0.0
C299 C 0.74861 0.28756 0.84286 0.0
C300 C 0.74799 0.28977 0.8097 0.0
C301 C 0.74573 0.33238 0.81855 0.0
C302 C 0.74702 0.31246 0.79784 0.0
C303 C 0.74865 0.26845 0.7877 0.0
H304 H 0.83328 0.20992 0.70953 0.0
H305 H 0.79902 0.21078 0.73978 0.0
H306 H 0.82048 0.28188 0.68494 0.0
H307 H 0.78505 0.282 0.71334 0.0
H308 H 0.75043 0.18848 0.64849 0.0
H309 H 0.75262 0.22428 0.68262 0.0
H310 H 0.75024 0.14713 0.73216 0.0
H311 H 0.75128 0.18292 0.76566 0.0
H312 H 0.66113 0.27555 0.81778 0.0
H313 H 0.69409 0.27637 0.78473 0.0
H314 H 0.69703 0.2232 0.87512 0.0
H315 H 0.72885 0.22292 0.84015 0.0
H316 H 0.74823 0.30473 0.88886 0.0
H317 H 0.7502 0.27043 0.85295 0.0
H318 H 0.74425 0.34947 0.80836 0.0
H319 H 0.74672 0.31478 0.77244 0.0
N320 N 0.76555 0.26659 0.76679 0.0
N321 N 0.73549 0.23007 0.76934 0.0
C322 C 0.81464 0.7643 0.6808 0.0
C323 C 0.8375 0.76241 0.69538 0.0
C324 C 0.79526 0.76305 0.69883 0.0
C325 C 0.79836 0.75996 0.73182 0.0
C326 C 0.84051 0.75906 0.72833 0.0
C327 C 0.82114 0.75766 0.74629 0.0
C328 C 0.77799 0.75813 0.75117 0.0
C329 C 0.77853 0.83162 0.71942 0.0
C330 C 0.75823 0.83867 0.70136 0.0
C331 C 0.77882 0.81067 0.7353 0.0
C332 C 0.75904 0.79599 0.73264 0.0
C333 C 0.73817 0.82433 0.69974 0.0
C334 C 0.73861 0.80318 0.71519 0.0
C335 C 0.75898 0.77392 0.7497 0.0
C336 C 0.69957 0.74363 0.85218 0.0
C337 C 0.67724 0.74419 0.8356 0.0
C338 C 0.71981 0.74558 0.83597 0.0
C339 C 0.71815 0.74799 0.80282 0.0
C340 C 0.67568 0.74678 0.80244 0.0
C341 C 0.6959 0.74881 0.78631 0.0
C342 C 0.73931 0.7508 0.78525 0.0
C343 C 0.7445 0.67836 0.82391 0.0
C344 C 0.765 0.67469 0.84379 0.0
C345 C 0.74222 0.69828 0.80582 0.0
C346 C 0.76023 0.71503 0.80777 0.0
C347 C 0.78307 0.6914 0.84539 0.0
C348 C 0.78071 0.71135 0.82746 0.0
C349 C 0.75882 0.73563 0.78782 0.0
H350 H 0.81173 0.76697 0.6555 0.0
H351 H 0.77786 0.76433 0.68694 0.0
H352 H 0.85786 0.75718 0.74019 0.0
H353 H 0.82397 0.75499 0.77162 0.0
H354 H 0.79433 0.84214 0.72107 0.0
H355 H 0.79449 0.80606 0.74978 0.0
H356 H 0.72205 0.8295 0.6867 0.0
H357 H 0.72297 0.79239 0.71341 0.0
H358 H 0.70141 0.74158 0.87768 0.0
H359 H 0.73674 0.74546 0.84942 0.0
H360 H 0.65879 0.74768 0.78901 0.0
H361 H 0.69416 0.75095 0.7608 0.0
H362 H 0.73021 0.66586 0.82238 0.0
H363 H 0.72654 0.70042 0.79005 0.0
H364 H 0.79921 0.68887 0.86009 0.0
H365 H 0.79496 0.72393 0.82892 0.0
N366 N 0.77728 0.73983 0.7706 0.0
N367 N 0.74025 0.76942 0.76633 0.0
C368 C 0.0371 0.28056 0.57821 0.0
C369 C 0.04399 0.30229 0.59177 0.0
C370 C 0.03185 0.31869 0.57453 0.0
C371 C 0.01824 0.30609 0.55162 0.0
N372 N 0.02078 0.28259 0.55334 0.0
Co373 Co 0.0046 0.25771 0.52453 0.0
N374 N 0.98843 0.2819 0.49737 0.0
C375 C 0.99084 0.30548 0.50083 0.0
C376 C 0.9774 0.31752 0.47859 0.0
C377 C 0.96551 0.30065 0.45995 0.0
C378 C 0.97235 0.27923 0.47208 0.0
N379 N 0.98811 0.23283 0.49601 0.0
C380 C 0.97177 0.23488 0.47115 0.0
C381 C 0.96399 0.21312 0.45863 0.0
C382 C 0.97572 0.19672 0.47635 0.0
C383 C 0.98985 0.20934 0.49863 0.0
N384 N 0.02114 0.23354 0.55139 0.0
C385 C 0.0193 0.20995 0.54735 0.0
C386 C 0.03349 0.1979 0.56874 0.0
C387 C 0.04538 0.21478 0.58736 0.0
C388 C 0.03765 0.23623 0.57621 0.0
N389 N 0.97788 0.25798 0.55193 0.0
C390 C 0.93767 0.25811 0.58642 0.0
C391 C 0.9495 0.23727 0.57997 0.0
C392 C 0.96933 0.23759 0.56271 0.0
C393 C 0.9467 0.27894 0.57617 0.0
C394 C 0.96676 0.27851 0.55941 0.0
N395 N 0.03117 0.25745 0.49694 0.0
C396 C 0.05837 0.23631 0.46534 0.0
C397 C 0.06823 0.25728 0.4567 0.0
C398 C 0.0594 0.27829 0.46893 0.0
C399 C 0.04113 0.27798 0.48891 0.0
C400 C 0.03999 0.2368 0.48525 0.0
H401 H 0.03539 0.29459 0.49754 0.0
H402 H 0.03315 0.22024 0.49072 0.0
H403 H 0.97718 0.22105 0.55797 0.0
H404 H 0.97274 0.29502 0.55245 0.0
C405 C 0.0045 0.31582 0.52662 0.0
C406 C 0.04724 0.2586 0.58906 0.0
C407 C 0.96237 0.25695 0.45951 0.0
C408 C 0.00453 0.19964 0.52269 0.0
H409 H 0.05685 0.3059 0.61164 0.0
H410 H 0.03329 0.33757 0.57771 0.0
H411 H 0.97595 0.33633 0.4767 0.0
H412 H 0.95285 0.30376 0.44007 0.0
H413 H 0.9509 0.20948 0.43907 0.0
H414 H 0.97385 0.17786 0.47367 0.0
H415 H 0.0353 0.17909 0.57023 0.0
H416 H 0.05856 0.21166 0.60659 0.0
H417 H 0.9431 0.22067 0.58739 0.0
H418 H 0.93835 0.29558 0.58112 0.0
H419 H 0.06449 0.21956 0.45632 0.0
H420 H 0.06672 0.29499 0.4634 0.0
C421 C 0.73103 0.04248 0.5478 0.0
C422 C 0.7092 0.05169 0.55305 0.0
C423 C 0.69304 0.03816 0.53516 0.0
C424 C 0.70578 0.02156 0.5198 0.0
N425 N 0.72917 0.02348 0.527 0.0
Co426 Co 0.75402 0.00383 0.50773 0.0
N427 N 0.7302 0.985 0.47954 0.0
C428 C 0.70668 0.98767 0.4781 0.0
C429 C 0.6947 0.97215 0.4571 0.0
C430 C 0.71151 0.95855 0.4445 0.0
C431 C 0.73291 0.9665 0.45869 0.0
N432 N 0.77889 0.98435 0.48835 0.0
C433 C 0.77713 0.96602 0.46654 0.0
C434 C 0.799 0.9571 0.46081 0.0
C435 C 0.81509 0.97021 0.47941 0.0
C436 C 0.80227 0.98628 0.49555 0.0
N437 N 0.77781 0.02253 0.536 0.0
C438 C 0.80128 0.01941 0.53813 0.0
C439 C 0.81327 0.03463 0.55954 0.0
C440 C 0.79653 0.04859 0.57158 0.0
C441 C 0.77517 0.04121 0.55654 0.0
N442 N 0.7521 0.98067 0.54113 0.0
C443 C 0.74923 0.94379 0.58256 0.0
C444 C 0.77087 0.95327 0.57713 0.0
C445 C 0.7719 0.97158 0.55639 0.0
C446 C 0.72902 0.95378 0.56842 0.0
C447 C 0.73084 0.9723 0.54828 0.0
N448 N 0.75584 0.02698 0.47439 0.0
C449 C 0.7781 0.05549 0.44863 0.0
C450 C 0.75748 0.06545 0.43544 0.0
C451 C 0.73624 0.05471 0.43984 0.0
C452 C 0.73584 0.03552 0.45905 0.0
C453 C 0.77688 0.03625 0.46785 0.0
H454 H 0.71907 0.02844 0.4619 0.0
H455 H 0.79309 0.02971 0.47802 0.0
H456 H 0.78891 0.97766 0.55254 0.0
H457 H 0.71479 0.97917 0.53832 0.0
C458 C 0.69639 0.00479 0.49714 0.0
C459 C 0.75303 0.05298 0.5621 0.0
C460 C 0.75526 0.9559 0.45139 0.0
C461 C 0.8116 1.00263 0.51873 0.0
H462 H 0.70529 0.06696 0.56771 0.0
H463 H 0.67426 0.04055 0.53292 0.0
H464 H 0.67595 0.97078 0.45173 0.0
H465 H 0.70834 0.94432 0.42691 0.0
H466 H 0.80296 0.94234 0.44525 0.0
H467 H 0.8339 0.96796 0.48144 0.0
H468 H 0.83199 0.0357 0.56533 0.0
H469 H 0.79974 0.06281 0.58917 0.0
H470 H 0.78697 0.94601 0.58786 0.0
H471 H 0.71187 0.94718 0.57265 0.0
H472 H 0.79498 0.06317 0.44544 0.0
H473 H 0.71988 0.0615 0.4292 0.0
C474 C 0.0371 0.78068 0.5594 0.0
C475 C 0.04488 0.80189 0.57383 0.0
C476 C 0.03225 0.81906 0.55887 0.0
C477 C 0.01745 0.80743 0.53638 0.0
N478 N 0.01953 0.78382 0.5364 0.0
Co479 Co 0.00188 0.76033 0.50688 0.0
N480 N 0.98371 0.78572 0.4843 0.0
C481 C 0.98505 0.80904 0.4914 0.0
C482 C 0.96945 0.82208 0.4732 0.0
C483 C 0.95714 0.80615 0.4535 0.0
C484 C 0.96613 0.7842 0.46069 0.0
N485 N 0.98487 0.7369 0.47659 0.0
C486 C 0.96781 0.74005 0.45291 0.0
C487 C 0.96119 0.719 0.43703 0.0
C488 C 0.97421 0.70188 0.45158 0.0
C489 C 0.9881 0.71341 0.47523 0.0
N490 N 0.01938 0.7349 0.53026 0.0
C491 C 0.01684 0.71149 0.52455 0.0
C492 C 0.03164 0.69833 0.54374 0.0
C493 C 0.04454 0.71423 0.56277 0.0
C494 C 0.03675 0.73633 0.55418 0.0
N495 N 0.97668 0.7584 0.53647 0.0
C496 C 0.93859 0.75606 0.5747 0.0
C497 C 0.94683 0.73597 0.55923 0.0
C498 C 0.96579 0.73749 0.54058 0.0
C499 C 0.95019 0.77724 0.57141 0.0
C500 C 0.96901 0.77802 0.55235 0.0
N501 N 0.02699 0.76224 0.47716 0.0
C502 C 0.05684 0.74351 0.44761 0.0
C503 C 0.06305 0.76489 0.43577 0.0
C504 C 0.05091 0.78495 0.44482 0.0
C505 C 0.03325 0.78329 0.46566 0.0
C506 C 0.03877 0.74255 0.46781 0.0
H507 H 0.02501 0.7993 0.47222 0.0
H508 H 0.0347 0.72562 0.47551 0.0
H509 H 0.97113 0.72152 0.52945 0.0
H510 H 0.97682 0.79476 0.55048 0.0
C511 C 1.00115 0.81816 0.51533 0.0
C512 C 0.0473 0.75813 0.56805 0.0
C513 C 0.95686 0.76242 0.44522 0.0
C514 C 0.00262 0.70253 0.49838 0.0
H515 H 0.05843 0.80469 0.59306 0.0
H516 H 0.03373 0.8378 0.56372 0.0
H517 H 0.96709 0.84091 0.47444 0.0
H518 H 0.94292 0.81026 0.43618 0.0
H519 H 0.94799 0.71626 0.41735 0.0
H520 H 0.97318 0.68319 0.44615 0.0
H521 H 0.03359 0.67945 0.54296 0.0
H522 H 0.05863 0.70993 0.58019 0.0
H523 H 0.93873 0.71904 0.56154 0.0
H524 H 0.94441 0.79333 0.58281 0.0
H525 H 0.06566 0.72748 0.4409 0.0
H526 H 0.0553 0.80192 0.43631 0.0
C527 C 0.27544 0.96537 0.55605 0.0
C528 C 0.29705 0.95565 0.56518 0.0
C529 C 0.31364 0.96977 0.55441 0.0
C530 C 0.30137 0.98714 0.53899 0.0
N531 N 0.27789 0.98514 0.53944 0.0
Co532 Co 0.25381 0.00571 0.51691 0.0
N533 N 0.27833 0.02643 0.50082 0.0
C534 C 0.30172 0.02478 0.5078 0.0
C535 C 0.31436 0.04128 0.49378 0.0
C536 C 0.29812 0.05436 0.47691 0.0
C537 C 0.27633 0.04514 0.48164 0.0
N538 N 0.22971 0.0255 0.49311 0.0
C539 C 0.23214 0.04383 0.47388 0.0
C540 C 0.21051 0.05221 0.46212 0.0
C541 C 0.19393 0.03856 0.47374 0.0
C542 C 0.20623 0.02271 0.49202 0.0
N543 N 0.22926 0.98571 0.53413 0.0
C544 C 0.20586 0.98909 0.53031 0.0
C545 C 0.19322 0.9736 0.54605 0.0
C546 C 0.20947 0.95936 0.5608 0.0
C547 C 0.23123 0.96678 0.55285 0.0
N548 N 0.25349 0.02694 0.55516 0.0
C549 C 0.25466 0.06191 0.60393 0.0
C550 C 0.23357 0.05551 0.58692 0.0
C551 C 0.23337 0.03798 0.56289 0.0
C552 C 0.27477 0.04935 0.59788 0.0
C553 C 0.27377 0.03199 0.57367 0.0
N554 N 0.2543 0.98457 0.4788 0.0
C555 C 0.23495 0.95635 0.44143 0.0
C556 C 0.25632 0.95024 0.42973 0.0
C557 C 0.27632 0.96268 0.44141 0.0
C558 C 0.27493 0.97966 0.46573 0.0
C559 C 0.23433 0.97362 0.46571 0.0
H560 H 0.29092 0.9881 0.47406 0.0
H561 H 0.21763 0.97734 0.47415 0.0
H562 H 0.21687 0.03426 0.55031 0.0
H563 H 0.28983 0.02345 0.5699 0.0
C564 C 0.31134 0.00604 0.52478 0.0
C565 C 0.25314 0.95498 0.56336 0.0
C566 C 0.25437 0.05425 0.46645 0.0
C567 C 0.19625 0.00598 0.51007 0.0
H568 H 0.30055 0.93989 0.57813 0.0
H569 H 0.33244 0.9676 0.55739 0.0
H570 H 0.3332 0.04312 0.49488 0.0
H571 H 0.30199 0.06875 0.46227 0.0
H572 H 0.20701 0.06687 0.44697 0.0
H573 H 0.17512 0.04023 0.46976 0.0
H574 H 0.17439 0.97257 0.5464 0.0
H575 H 0.20564 0.94501 0.57555 0.0
H576 H 0.2175 0.06476 0.59095 0.0
H577 H 0.29139 0.05339 0.61111 0.0
H578 H 0.21896 0.94718 0.43295 0.0
H579 H 0.29315 0.95891 0.43239 0.0
C580 C 0.53483 0.77481 0.06128 0.0
C581 C 0.54206 0.796 0.07626 0.0
C582 C 0.53056 0.81322 0.05981 0.0
C583 C 0.51689 0.80162 0.03597 0.0
N584 N 0.51882 0.778 0.03635 0.0
Co585 Co 0.50185 0.7544 0.00631 0.0
N586 N 0.48643 0.77978 0.98062 0.0
C587 C 0.49025 0.80315 0.98456 0.0
C588 C 0.47672 0.81617 0.96352 0.0
C589 C 0.46316 0.8002 0.94544 0.0
C590 C 0.46915 0.77831 0.95671 0.0
N591 N 0.48418 0.73086 0.97688 0.0
C592 C 0.46651 0.73413 0.95406 0.0
C593 C 0.45751 0.71293 0.94108 0.0
C594 C 0.46975 0.69568 0.95644 0.0
C595 C 0.48532 0.70724 0.97797 0.0
N596 N 0.51785 0.72899 0.03142 0.0
C597 C 0.51571 0.70558 0.02541 0.0
C598 C 0.52995 0.69246 0.04538 0.0
C599 C 0.54221 0.7084 0.06511 0.0
C600 C 0.53455 0.73046 0.05613 0.0
N601 N 0.47543 0.75474 0.03411 0.0
C602 C 0.43737 0.75557 0.07289 0.0
C603 C 0.44843 0.73449 0.06493 0.0
C604 C 0.46715 0.73446 0.04553 0.0
C605 C 0.44576 0.77614 0.06086 0.0
C606 C 0.46469 0.77537 0.04202 0.0
N607 N 0.52844 0.75413 0.9786 0.0
C608 C 0.55616 0.73303 0.94766 0.0
C609 C 0.56893 0.75355 0.94448 0.0
C610 C 0.56052 0.77444 0.95759 0.0
C611 C 0.54044 0.77436 0.97421 0.0
C612 C 0.53614 0.73371 0.96467 0.0
H613 H 0.53522 0.7909 0.98367 0.0
H614 H 0.52745 0.71742 0.96668 0.0
H615 H 0.47466 0.71782 0.04008 0.0
H616 H 0.47021 0.79175 0.03397 0.0
C617 C 0.50394 0.81242 0.01109 0.0
C618 C 0.5444 0.75225 0.07084 0.0
C619 C 0.45678 0.75687 0.94556 0.0
C620 C 0.50028 0.69647 1.0007 0.0
H621 H 0.55476 0.79873 0.09655 0.0
H622 H 0.5325 0.83197 0.06409 0.0
H623 H 0.4759 0.83509 0.96259 0.0
H624 H 0.44972 0.80422 0.92691 0.0
H625 H 0.44312 0.71012 0.92308 0.0
H626 H 0.46702 0.67694 0.95312 0.0
H627 H 0.53152 0.67355 0.04525 0.0
H628 H 0.55558 0.7042 0.0836 0.0
H629 H 0.44293 0.71804 0.07385 0.0
H630 H 0.43764 0.79292 0.06557 0.0
H631 H 0.56193 0.71637 0.93789 0.0
H632 H 0.56943 0.79092 0.95513 0.0
C633 C 0.23551 0.53398 0.06502 0.0
C634 C 0.21408 0.53989 0.07625 0.0
C635 C 0.19746 0.52742 0.05768 0.0
C636 C 0.20961 0.51475 0.03622 0.0
N637 N 0.23303 0.51815 0.0402 0.0
Co638 Co 0.25729 0.50393 0.01372 0.0
N639 N 0.23261 0.48861 0.9835 0.0
C640 C 0.20914 0.49058 0.98415 0.0
C641 C 0.19669 0.47853 0.95956 0.0
C642 C 0.2132 0.46805 0.94231 0.0
C643 C 0.23481 0.47423 0.95765 0.0
N644 N 0.2816 0.48914 0.98784 0.0
C645 C 0.2791 0.47379 0.96245 0.0
C646 C 0.30066 0.4666 0.95272 0.0
C647 C 0.31734 0.47785 0.97262 0.0
C648 C 0.30513 0.49102 0.99342 0.0
N649 N 0.28195 0.51989 0.04336 0.0
C650 C 0.30541 0.5187 0.04216 0.0
C651 C 0.31777 0.53214 0.06543 0.0
C652 C 0.30117 0.54302 0.08209 0.0
C653 C 0.27963 0.53554 0.06779 0.0
N654 N 0.25836 0.47569 0.041 0.0
C655 C 0.25979 0.43717 0.08236 0.0
C656 C 0.28016 0.4491 0.07603 0.0
C657 C 0.27909 0.46791 0.05546 0.0
C658 C 0.23873 0.44458 0.06668 0.0
C659 C 0.2384 0.46365 0.04641 0.0
N660 N 0.25615 0.53217 0.98661 0.0
C661 C 0.27536 0.56085 0.95621 0.0
C662 C 0.2543 0.57275 0.9491 0.0
C663 C 0.2342 0.56371 0.961 0.0
C664 C 0.23545 0.5436 0.97922 0.0
C665 C 0.27594 0.54098 0.97505 0.0
H666 H 0.21938 0.53767 0.9872 0.0
H667 H 0.29267 0.53313 0.9802 0.0
H668 H 0.29536 0.47593 0.05174 0.0
H669 H 0.2217 0.46846 0.03561 0.0
C670 C 0.19937 0.50233 0.00948 0.0
C671 C 0.25753 0.54516 0.07672 0.0
C672 C 0.25679 0.46466 0.94804 0.0
C673 C 0.31527 0.50507 0.01863 0.0
H674 H 0.21058 0.55253 0.09505 0.0
H675 H 0.17867 0.52845 0.05862 0.0
H676 H 0.17787 0.477 0.95522 0.0
H677 H 0.20977 0.45661 0.92131 0.0
H678 H 0.30418 0.45418 0.93367 0.0
H679 H 0.33614 0.47627 0.97232 0.0
H680 H 0.33657 0.53417 0.06937 0.0
H681 H 0.30446 0.55554 0.10194 0.0
H682 H 0.29707 0.44388 0.08681 0.0
H683 H 0.22237 0.43612 0.07061 0.0
H684 H 0.29151 0.56719 0.94793 0.0
H685 H 0.21738 0.57202 0.95603 0.0
C686 C 0.46871 0.28792 0.97947 0.0
C687 C 0.46139 0.30994 0.97007 0.0
C688 C 0.47503 0.32587 0.9881 0.0
C689 C 0.48984 0.31273 0.00736 0.0
N690 N 0.48665 0.28934 0.00253 0.0
Co691 Co 0.50417 0.26384 0.0256 0.0
N692 N 0.52222 0.2873 0.0548 0.0
C693 C 0.51978 0.31091 0.05544 0.0
C694 C 0.53491 0.32244 0.07762 0.0
C695 C 0.548 0.30522 0.09181 0.0
C696 C 0.54003 0.28407 0.0774 0.0
N697 N 0.52217 0.23837 0.04801 0.0
C698 C 0.54042 0.23985 0.0706 0.0
C699 C 0.54866 0.21785 0.07878 0.0
C700 C 0.53549 0.20188 0.0602 0.0
C701 C 0.52 0.21498 0.04187 0.0
N702 N 0.48555 0.24036 0.99714 0.0
C703 C 0.48726 0.21672 0.99732 0.0
C704 C 0.47146 0.2052 0.97602 0.0
C705 C 0.45856 0.22251 0.96172 0.0
C706 C 0.46731 0.24364 0.97523 0.0
N707 N 0.52871 0.26485 0.99484 0.0
C708 C 0.56535 0.26595 0.95373 0.0
C709 C 0.5528 0.24531 0.95731 0.0
C710 C 0.53494 0.24509 0.978 0.0
C711 C 0.55881 0.2861 0.97084 0.0
C712 C 0.54046 0.28524 0.99061 0.0
N713 N 0.47969 0.26285 0.05634 0.0
C714 C 0.45345 0.24095 0.08632 0.0
C715 C 0.4438 0.26165 0.09825 0.0
C716 C 0.45253 0.28294 0.08903 0.0
C717 C 0.47021 0.28314 0.06814 0.0
C718 C 0.47135 0.24194 0.06575 0.0
H719 H 0.47576 0.29994 0.06165 0.0
H720 H 0.47808 0.22556 0.05767 0.0
H721 H 0.52656 0.22866 0.98007 0.0
H722 H 0.53635 0.30133 0.0025 0.0
C723 C 0.50502 0.3218 0.03248 0.0
C724 C 0.4572 0.26626 0.96719 0.0
C725 C 0.55104 0.26159 0.08423 0.0
C726 C 0.50361 0.20588 0.01827 0.0
H727 H 0.44721 0.31407 0.95265 0.0
H728 H 0.47367 0.34479 0.98806 0.0
H729 H 0.53689 0.34118 0.08198 0.0
H730 H 0.56232 0.30804 0.10992 0.0
H731 H 0.56299 0.21381 0.09604 0.0
H732 H 0.53727 0.18299 0.05968 0.0
H733 H 0.4693 0.18646 0.9718 0.0
H734 H 0.44409 0.2199 0.94374 0.0
H735 H 0.55658 0.22924 0.94419 0.0
H736 H 0.568 0.30255 0.9696 0.0
H737 H 0.4474 0.22403 0.09308 0.0
H738 H 0.44543 0.29945 0.09739 0.0
C739 C 0.72535 0.54543 0.04284 0.0
C740 C 0.70415 0.55707 0.0439 0.0
C741 C 0.68799 0.54408 0.02517 0.0
C742 C 0.70015 0.52537 0.01356 0.0
N743 N 0.72312 0.52547 0.02391 0.0
Co744 Co 0.74721 0.50202 0.01098 0.0
N745 N 0.7233 0.48276 0.98359 0.0
C746 C 0.69999 0.48679 0.9802 0.0
C747 C 0.68783 0.47079 0.96011 0.0
C748 C 0.7043 0.45554 0.95009 0.0
C749 C 0.72572 0.46306 0.96475 0.0
N750 N 0.77149 0.4792 0.99707 0.0
C751 C 0.7696 0.46022 0.97631 0.0
C752 C 0.79115 0.44953 0.97353 0.0
C753 C 0.80721 0.46232 0.99265 0.0
C754 C 0.79468 0.47998 0.00614 0.0
N755 N 0.77097 0.52074 0.03934 0.0
C756 C 0.79391 0.51551 0.04507 0.0
C757 C 0.80591 0.53101 0.06608 0.0
C758 C 0.78972 0.54718 0.07432 0.0
C759 C 0.76867 0.54072 0.0576 0.0
N760 N 0.74131 0.48261 0.04739 0.0
C761 C 0.73241 0.45265 0.09629 0.0
C762 C 0.75521 0.45632 0.08817 0.0
C763 C 0.75923 0.4713 0.06391 0.0
C764 C 0.71425 0.46482 0.08033 0.0
C765 C 0.71905 0.47964 0.05622 0.0
N766 N 0.75296 0.52142 0.97464 0.0
C767 C 0.77868 0.54594 0.94775 0.0
C768 C 0.75998 0.55291 0.92704 0.0
C769 C 0.73804 0.54295 0.92929 0.0
C770 C 0.73491 0.52741 0.95317 0.0
C771 C 0.77486 0.53 0.97099 0.0
H772 H 0.71759 0.52105 0.95428 0.0
H773 H 0.78975 0.52533 0.98619 0.0
H774 H 0.77694 0.4731 0.05865 0.0
H775 H 0.70439 0.48823 0.04488 0.0
C776 C 0.69039 0.50694 0.99394 0.0
C777 C 0.74713 0.55432 0.0598 0.0
C778 C 0.7479 0.45137 0.95906 0.0
C779 C 0.80396 0.49684 0.02864 0.0
H780 H 0.70072 0.57333 0.05679 0.0
H781 H 0.66953 0.54782 0.02061 0.0
H782 H 0.66926 0.47061 0.9529 0.0
H783 H 0.70092 0.44081 0.93337 0.0
H784 H 0.7949 0.43396 0.95936 0.0
H785 H 0.82579 0.45895 0.99657 0.0
H786 H 0.82435 0.53079 0.07406 0.0
H787 H 0.79307 0.56217 0.09063 0.0
H788 H 0.76987 0.44708 0.09971 0.0
H789 H 0.69633 0.46278 0.08619 0.0
H790 H 0.79604 0.55314 0.94644 0.0
H791 H 0.72305 0.54804 0.91374 0.0
H792 H 0.14186 0.27119 0.35503 0.0
H793 H 0.17542 0.21405 0.40472 0.0
H794 H 0.14372 0.21317 0.44 0.0
H795 H 0.10656 0.22886 0.45712 0.0
H796 H 0.07295 0.28589 0.40722 0.0
H797 H 0.1045 0.28655 0.37171 0.0
C798 C 0.14212 0.2584 0.37339 0.0
C799 C 0.16102 0.24272 0.3772 0.0
C800 C 0.12384 0.25801 0.39366 0.0
C801 C 0.16124 0.2265 0.40147 0.0
C802 C 0.14305 0.2259 0.42157 0.0
C803 C 0.10603 0.24129 0.43829 0.0
C804 C 0.0874 0.25732 0.43491 0.0
C805 C 0.12428 0.2416 0.41794 0.0
C806 C 0.0872 0.27354 0.41065 0.0
C807 C 0.10519 0.27386 0.39021 0.0
H808 H 0.74589 0.16612 0.38154 0.0
H809 H 0.79996 0.14096 0.32365 0.0
H810 H 0.80041 0.10328 0.34971 0.0
H811 H 0.7851 0.07763 0.38914 0.0
H812 H 0.73061 0.10346 0.44605 0.0
H813 H 0.73067 0.14089 0.42024 0.0
C814 C 0.75795 0.15246 0.3749 0.0
C815 C 0.77304 0.15626 0.35107 0.0
C816 C 0.75794 0.13101 0.38969 0.0
C817 C 0.7882 0.1383 0.34202 0.0
C818 C 0.78848 0.11685 0.35693 0.0
C819 C 0.77334 0.09154 0.39586 0.0
C820 C 0.75778 0.08784 0.41923 0.0
C821 C 0.7734 0.11302 0.38081 0.0
C822 C 0.74248 0.10585 0.42773 0.0
C823 C 0.74259 0.12726 0.41315 0.0
H824 H 0.87566 0.77327 0.33626 0.0
H825 H 0.83695 0.73807 0.40408 0.0
H826 H 0.87193 0.73714 0.44104 0.0
H827 H 0.91376 0.7461 0.45419 0.0
H828 H 0.95286 0.7796 0.38572 0.0
H829 H 0.91764 0.78106 0.34862 0.0
C830 C 0.87489 0.76514 0.35895 0.0
C831 C 0.85357 0.75586 0.36731 0.0
C832 C 0.89519 0.76431 0.37996 0.0
C833 C 0.85293 0.74576 0.39714 0.0
C834 C 0.873 0.74503 0.41825 0.0
C835 C 0.91444 0.75364 0.43107 0.0
C836 C 0.93562 0.76287 0.42255 0.0
C837 C 0.89421 0.75426 0.40993 0.0
C838 C 0.93657 0.77255 0.39263 0.0
C839 C 0.91649 0.77336 0.37152 0.0
H840 H 0.27415 0.85491 0.35633 0.0
H841 H 0.21112 0.87527 0.30151 0.0
H842 H 0.2107 0.91255 0.33249 0.0
H843 H 0.22716 0.93807 0.3774 0.0
H844 H 0.2895 0.91632 0.43294 0.0
H845 H 0.2914 0.88085 0.39923 0.0
C846 C 0.26032 0.86754 0.35124 0.0
C847 C 0.24254 0.8624 0.32713 0.0
C848 C 0.2601 0.88861 0.36921 0.0
C849 C 0.22498 0.879 0.32008 0.0
C850 C 0.22469 0.90019 0.33784 0.0
C851 C 0.24114 0.92555 0.38201 0.0
C852 C 0.25814 0.92977 0.40755 0.0
C853 C 0.24196 0.90498 0.36281 0.0
C854 C 0.27638 0.91361 0.41312 0.0
C855 C 0.2774 0.89324 0.39404 0.0
H856 H 0.13007 0.74839 0.67572 0.0
H857 H 0.16706 0.78528 0.60814 0.0
H858 H 0.13166 0.78551 0.57121 0.0
H859 H 0.09013 0.77495 0.55825 0.0
H860 H 0.0524 0.74056 0.62742 0.0
H861 H 0.08803 0.73941 0.66374 0.0
C862 C 0.13023 0.75645 0.65287 0.0
C863 C 0.15094 0.76671 0.64434 0.0
C864 C 0.10975 0.75685 0.63216 0.0
C865 C 0.15117 0.77731 0.61495 0.0
C866 C 0.131 0.7774 0.59392 0.0
C867 C 0.08983 0.76725 0.58132 0.0
C868 C 0.06892 0.75754 0.59013 0.0
C869 C 0.1102 0.7672 0.60226 0.0
C870 C 0.06848 0.74781 0.62012 0.0
C871 C 0.08879 0.74723 0.64084 0.0
H872 H 0.26987 0.16055 0.67348 0.0
H873 H 0.20771 0.14037 0.71649 0.0
H874 H 0.20803 0.10187 0.68817 0.0
H875 H 0.22513 0.07509 0.64882 0.0
H876 H 0.28733 0.09629 0.60622 0.0
H877 H 0.28813 0.13327 0.63717 0.0
C878 C 0.25642 0.14766 0.67657 0.0
C879 C 0.23858 0.15314 0.69639 0.0
C880 C 0.25683 0.12584 0.66048 0.0
C881 C 0.22149 0.13634 0.70103 0.0
C882 C 0.22168 0.11446 0.68487 0.0
C883 C 0.23888 0.0878 0.64652 0.0
C884 C 0.25613 0.08304 0.62533 0.0
C885 C 0.23911 0.10917 0.66417 0.0
C886 C 0.27404 0.09946 0.62272 0.0
C887 C 0.27441 0.12068 0.64017 0.0
H888 H 0.83796 0.26728 0.63959 0.0
H889 H 0.87154 0.22441 0.71204 0.0
H890 H 0.9073 0.22376 0.68459 0.0
H891 H 0.92951 0.23585 0.64041 0.0
H892 H 0.89671 0.28041 0.56965 0.0
H893 H 0.86048 0.28038 0.59646 0.0
C894 C 0.85314 0.25801 0.64967 0.0
C895 C 0.85179 0.24578 0.67784 0.0
C896 C 0.87393 0.25811 0.63412 0.0
C897 C 0.87171 0.23359 0.69008 0.0
C898 C 0.89232 0.23336 0.67453 0.0
C899 C 0.91438 0.24546 0.63082 0.0
C900 C 0.91579 0.2581 0.60308 0.0
C901 C 0.89365 0.24554 0.64653 0.0
C902 C 0.89613 0.27071 0.59113 0.0
C903 C 0.87538 0.27062 0.60637 0.0
H904 H 0.73712 0.84616 0.64264 0.0
H905 H 0.77913 0.88066 0.72064 0.0
H906 H 0.78029 0.9162 0.69056 0.0
H907 H 0.76956 0.9374 0.64182 0.0
H908 H 0.72572 0.90348 0.56545 0.0
H909 H 0.72451 0.8679 0.59563 0.0
C910 C 0.74619 0.86155 0.65338 0.0
C911 C 0.7581 0.86066 0.68381 0.0
C912 C 0.74638 0.88205 0.6363 0.0
C913 C 0.77016 0.88068 0.69701 0.0
C914 C 0.77071 0.90109 0.67994 0.0
C915 C 0.75976 0.92217 0.63194 0.0
C916 C 0.74779 0.92287 0.60161 0.0
C917 C 0.75899 0.90191 0.6495 0.0
C918 C 0.73491 0.90326 0.58895 0.0
C919 C 0.73431 0.88293 0.60609 0.0
H920 H 0.84334 0.74127 0.63741 0.0
H921 H 0.87817 0.78673 0.71076 0.0
H922 H 0.91242 0.78878 0.6801 0.0
H923 H 0.93263 0.7775 0.63253 0.0
H924 H 0.89771 0.73214 0.55911 0.0
H925 H 0.86344 0.7302 0.58969 0.0
C926 C 0.85835 0.75179 0.64655 0.0
C927 C 0.85816 0.76383 0.67634 0.0
C928 C 0.87804 0.75284 0.62883 0.0
C929 C 0.87793 0.77709 0.68806 0.0
C930 C 0.89749 0.77836 0.67047 0.0
C931 C 0.91745 0.76733 0.62312 0.0
C932 C 0.9178 0.75496 0.59357 0.0
C933 C 0.89777 0.76628 0.64085 0.0
C934 C 0.89807 0.7416 0.58196 0.0
C935 C 0.87839 0.74058 0.59935 0.0
H936 H 0.2366 0.8544 0.61821 0.0
H937 H 0.27871 0.88553 0.69878 0.0
H938 H 0.28144 0.92171 0.67093 0.0
H939 H 0.27174 0.94536 0.62371 0.0
H940 H 0.23271 0.91348 0.5415 0.0
H941 H 0.22931 0.87704 0.56961 0.0
C942 C 0.24667 0.86888 0.62971 0.0
C943 C 0.25701 0.86685 0.6612 0.0
C944 C 0.24881 0.88978 0.61309 0.0
C945 C 0.26978 0.88633 0.67522 0.0
C946 C 0.27163 0.90717 0.65908 0.0
C947 C 0.26271 0.93034 0.61186 0.0
C948 C 0.25244 0.93225 0.58049 0.0
C949 C 0.26114 0.90921 0.62807 0.0
C950 C 0.24069 0.91258 0.56562 0.0
C951 C 0.23875 0.8917 0.58174 0.0
H952 H 0.12786 0.25787 0.70032 0.0
H953 H 0.16962 0.27008 0.62191 0.0
H954 H 0.13441 0.26975 0.58519 0.0
H955 H 0.09163 0.26564 0.57513 0.0
H956 H 0.0499 0.25262 0.65291 0.0
H957 H 0.08518 0.2533 0.69018 0.0
C958 C 0.12929 0.26023 0.67516 0.0
C959 C 0.15138 0.26406 0.66394 0.0
C960 C 0.10897 0.25983 0.6541 0.0
C961 C 0.15283 0.26745 0.6313 0.0
C962 C 0.13272 0.26712 0.61022 0.0
C963 C 0.09043 0.26297 0.60028 0.0
C964 C 0.0685 0.25906 0.61156 0.0
C965 C 0.11072 0.26334 0.62134 0.0
C966 C 0.0668 0.25562 0.64402 0.0
C967 C 0.0869 0.25601 0.66519 0.0
H968 H 0.76796 0.15452 0.62898 0.0
H969 H 0.72667 0.12369 0.69782 0.0
H970 H 0.72429 0.08709 0.66617 0.0
H971 H 0.73418 0.06303 0.61897 0.0
H972 H 0.77285 0.0944 0.54825 0.0
H973 H 0.77564 0.13134 0.58015 0.0
C974 C 0.75815 0.14 0.63702 0.0
C975 C 0.74788 0.14221 0.66642 0.0
C976 C 0.7563 0.11884 0.61816 0.0
C977 C 0.73546 0.12272 0.67606 0.0
C978 C 0.73384 0.10166 0.6577 0.0
C979 C 0.74298 0.07806 0.61042 0.0
C980 C 0.75326 0.07593 0.58119 0.0
C981 C 0.74427 0.09941 0.62878 0.0
C982 C 0.76479 0.09555 0.57062 0.0
C983 C 0.7664 0.11669 0.5889 0.0
H984 H 0.88289 0.25481 0.34672 0.0
H985 H 0.841 0.27319 0.42452 0.0
H986 H 0.87576 0.27255 0.46197 0.0
H987 H 0.91817 0.26658 0.4728 0.0
H988 H 0.95999 0.24747 0.39558 0.0
H989 H 0.92513 0.24818 0.35763 0.0
C990 C 0.88132 0.25845 0.3719 0.0
C991 C 0.85935 0.26412 0.38273 0.0
C992 C 0.90136 0.25783 0.39338 0.0
C993 C 0.85772 0.26914 0.41543 0.0
C994 C 0.87757 0.26862 0.43692 0.0
C995 C 0.91947 0.26254 0.44763 0.0
C996 C 0.94131 0.25691 0.4367 0.0
C997 C 0.89945 0.26301 0.42617 0.0
C998 C 0.94315 0.25174 0.40421 0.0
C999 C 0.92331 0.25219 0.38266 0.0
H1000 H 0.76656 0.87955 0.33912 0.0
H1001 H 0.73459 0.83577 0.40455 0.0
H1002 H 0.73271 0.86906 0.44246 0.0
H1003 H 0.74022 0.91093 0.45765 0.0
H1004 H 0.77178 0.95491 0.3924 0.0
H1005 H 0.77388 0.92151 0.3542 0.0
C1006 C 0.75934 0.87723 0.36176 0.0
C1007 C 0.75066 0.85499 0.36869 0.0
C1008 C 0.7582 0.89663 0.38364 0.0
C1009 C 0.74112 0.85259 0.39816 0.0
C1010 C 0.74012 0.87167 0.42003 0.0
C1011 C 0.74747 0.91314 0.43499 0.0
C1012 C 0.75588 0.93536 0.42788 0.0
C1013 C 0.74854 0.89381 0.41306 0.0
C1014 C 0.76526 0.93798 0.39844 0.0
C1015 C 0.76646 0.91887 0.37661 0.0
H1016 H 0.13133 0.77387 0.32676 0.0
H1017 H 0.17808 0.73949 0.3958 0.0
H1018 H 0.14739 0.73887 0.43234 0.0
H1019 H 0.10712 0.74781 0.44489 0.0
H1020 H 0.06133 0.78476 0.37791 0.0
H1021 H 0.09202 0.78525 0.34079 0.0
C1022 C 0.13505 0.76658 0.34996 0.0
C1023 C 0.15709 0.75648 0.3581 0.0
C1024 C 0.11747 0.76681 0.37137 0.0
C1025 C 0.1612 0.74684 0.38829 0.0
C1026 C 0.1437 0.74665 0.40944 0.0
C1027 C 0.10392 0.75596 0.42214 0.0
C1028 C 0.08201 0.7661 0.41398 0.0
C1029 C 0.12173 0.75644 0.40117 0.0
C1030 C 0.07812 0.77691 0.38469 0.0
C1031 C 0.09562 0.77711 0.36345 0.0
H1032 H 0.24473 0.1232 0.3507 0.0
H1033 H 0.27519 0.17184 0.4235 0.0
H1034 H 0.27671 0.14107 0.46225 0.0
H1035 H 0.2689 0.10013 0.47615 0.0
H1036 H 0.23972 0.05115 0.40314 0.0
H1037 H 0.23801 0.08199 0.36421 0.0
C1038 C 0.25162 0.12712 0.37507 0.0
C1039 C 0.25985 0.15 0.38395 0.0
C1040 C 0.25266 0.10914 0.39738 0.0
C1041 C 0.26895 0.15447 0.41569 0.0
C1042 C 0.26974 0.13684 0.43801 0.0
C1043 C 0.26235 0.09621 0.45164 0.0
C1044 C 0.25445 0.0733 0.4426 0.0
C1045 C 0.26166 0.11408 0.4292 0.0
C1046 C 0.24588 0.06859 0.41075 0.0
C1047 C 0.24489 0.08626 0.38847 0.0
H1048 H 0.66835 0.76585 0.89215 0.0
H1049 H 0.63737 0.71899 0.81748 0.0
H1050 H 0.60136 0.71738 0.84459 0.0
H1051 H 0.57828 0.72994 0.88913 0.0
H1052 H 0.60961 0.77662 0.96381 0.0
H1053 H 0.64577 0.77753 0.93719 0.0
C1054 C 0.65383 0.75505 0.88199 0.0
C1055 C 0.65562 0.74258 0.85278 0.0
C1056 C 0.63314 0.75424 0.89767 0.0
C1057 C 0.63643 0.72899 0.83973 0.0
C1058 C 0.61584 0.72797 0.8553 0.0
C1059 C 0.5931 0.74013 0.89972 0.0
C1060 C 0.59112 0.7533 0.92836 0.0
C1061 C 0.61393 0.74063 0.88422 0.0
C1062 C 0.61046 0.76661 0.94155 0.0
C1063 C 0.63123 0.76705 0.92642 0.0
H1064 H 0.23834 0.67165 0.8854 0.0
H1065 H 0.28061 0.63904 0.81609 0.0
H1066 H 0.28397 0.60367 0.84694 0.0
H1067 H 0.27471 0.58148 0.89372 0.0
H1068 H 0.2313 0.61364 0.96201 0.0
H1069 H 0.22869 0.64932 0.93177 0.0
C1070 C 0.2484 0.65687 0.8771 0.0
C1071 C 0.25918 0.65821 0.84825 0.0
C1072 C 0.25006 0.63629 0.8949 0.0
C1073 C 0.27189 0.6386 0.83789 0.0
C1074 C 0.27392 0.61831 0.85567 0.0
C1075 C 0.26479 0.59634 0.9021 0.0
C1076 C 0.25322 0.59468 0.93028 0.0
C1077 C 0.26306 0.61688 0.88422 0.0
C1078 C 0.24022 0.61416 0.94037 0.0
C1079 C 0.23878 0.63469 0.92309 0.0
H1080 H 0.35324 0.26343 0.90542 0.0
H1081 H 0.38832 0.2769 0.82125 0.0
H1082 H 0.42605 0.27792 0.85275 0.0
H1083 H 0.44931 0.27413 0.90429 0.0
H1084 H 0.41435 0.25977 0.98795 0.0
H1085 H 0.37632 0.25966 0.95666 0.0
C1086 C 0.36915 0.26638 0.8939 0.0
C1087 C 0.36791 0.27006 0.86099 0.0
C1088 C 0.3908 0.26676 0.91211 0.0
C1089 C 0.3887 0.27429 0.84658 0.0
C1090 C 0.41032 0.27475 0.86455 0.0
C1091 C 0.43326 0.27111 0.91548 0.0
C1092 C 0.43432 0.26708 0.94816 0.0
C1093 C 0.41159 0.27096 0.8973 0.0
C1094 C 0.41368 0.26301 0.96273 0.0
C1095 C 0.39204 0.26291 0.94488 0.0
H1096 H 0.76346 0.37505 0.84831 0.0
H1097 H 0.72237 0.3332 0.90625 0.0
H1098 H 0.71962 0.36629 0.94405 0.0
H1099 H 0.72912 0.40736 0.96164 0.0
H1100 H 0.76862 0.4498 0.90298 0.0
H1101 H 0.77148 0.41661 0.86466 0.0
C1102 C 0.75366 0.37314 0.86897 0.0
C1103 C 0.74342 0.35123 0.87425 0.0
C1104 C 0.75182 0.39253 0.89071 0.0
C1105 C 0.731 0.34942 0.90159 0.0
C1106 C 0.72922 0.3685 0.92327 0.0
C1107 C 0.7382 0.40932 0.94032 0.0
C1108 C 0.74865 0.43104 0.93518 0.0
C1109 C 0.73964 0.39012 0.91824 0.0
C1110 C 0.76046 0.43328 0.90751 0.0
C1111 C 0.76209 0.41428 0.8856 0.0
H1112 H 0.65597 0.25691 0.14188 0.0
H1113 H 0.62333 0.27419 0.22846 0.0
H1114 H 0.58493 0.27423 0.19873 0.0
H1115 H 0.56047 0.26943 0.14788 0.0
H1116 H 0.59302 0.25212 0.06153 0.0
H1117 H 0.63158 0.25155 0.09136 0.0
C1118 C 0.64044 0.26045 0.1543 0.0
C1119 C 0.64257 0.26559 0.18735 0.0
C1120 C 0.61839 0.26037 0.13707 0.0
C1121 C 0.62225 0.2705 0.20298 0.0
C1122 C 0.60025 0.27039 0.18603 0.0
C1123 C 0.57609 0.26555 0.1358 0.0
C1124 C 0.57418 0.26093 0.10274 0.0
C1125 C 0.59812 0.26542 0.15308 0.0
C1126 C 0.59431 0.25577 0.08704 0.0
C1127 C 0.61627 0.25548 0.10406 0.0
H1128 H 0.76141 0.65755 0.1217 0.0
H1129 H 0.72262 0.62778 0.19388 0.0
H1130 H 0.71961 0.59055 0.16333 0.0
H1131 H 0.72842 0.56569 0.11621 0.0
H1132 H 0.76769 0.59496 0.04454 0.0
H1133 H 0.77027 0.63271 0.07466 0.0
C1134 C 0.75243 0.64291 0.13094 0.0
C1135 C 0.74215 0.64583 0.16023 0.0
C1136 C 0.75085 0.62125 0.11321 0.0
C1137 C 0.73038 0.62648 0.17131 0.0
C1138 C 0.72876 0.60499 0.15389 0.0
C1139 C 0.73741 0.58042 0.10719 0.0
C1140 C 0.74778 0.57756 0.07811 0.0
C1141 C 0.73889 0.60211 0.12479 0.0
C1142 C 0.75953 0.59674 0.0668 0.0
C1143 C 0.76103 0.61832 0.08407 0.0
H1144 H 0.35717 0.77537 0.16555 0.0
H1145 H 0.3342 0.70722 0.12763 0.0
H1146 H 0.3674 0.70502 0.09457 0.0
H1147 H 0.40253 0.72287 0.07579 0.0
H1148 H 0.42697 0.78988 0.11705 0.0
H1149 H 0.39349 0.79225 0.1489 0.0
C1150 C 0.35943 0.7601 0.14992 0.0
C1151 C 0.34322 0.74156 0.1488 0.0
C1152 C 0.37877 0.75879 0.13144 0.0
C1153 C 0.34651 0.72169 0.12888 0.0
C1154 C 0.36545 0.72045 0.10996 0.0
C1155 C 0.4008 0.73786 0.09205 0.0
C1156 C 0.41731 0.75628 0.0935 0.0
C1157 C 0.38171 0.73892 0.11103 0.0
C1158 C 0.41438 0.77566 0.11459 0.0
C1159 C 0.39527 0.77699 0.13312 0.0
H1160 H 0.27568 0.36543 0.19425 0.0
H1161 H 0.22519 0.32514 0.13289 0.0
H1162 H 0.22261 0.35649 0.09525 0.0
H1163 H 0.23508 0.39537 0.07864 0.0
H1164 H 0.28639 0.43504 0.1393 0.0
H1165 H 0.28852 0.40391 0.17738 0.0
C1166 C 0.26425 0.36326 0.17255 0.0
C1167 C 0.25055 0.34264 0.16698 0.0
C1168 C 0.26305 0.38138 0.15045 0.0
C1169 C 0.23565 0.34075 0.13861 0.0
C1170 C 0.23428 0.35871 0.11674 0.0
C1171 C 0.24663 0.39732 0.10027 0.0
C1172 C 0.26063 0.41773 0.1057 0.0
C1173 C 0.24787 0.37916 0.12233 0.0
C1174 C 0.27565 0.41956 0.13392 0.0
C1175 C 0.27679 0.40173 0.15596 0.0
H1176 H 0.37029 0.27326 0.20173 0.0
H1177 H 0.33433 0.22018 0.14038 0.0
H1178 H 0.36635 0.21964 0.10547 0.0
H1179 H 0.40451 0.2345 0.09211 0.0
H1180 H 0.44018 0.28794 0.15315 0.0
H1181 H 0.40845 0.28802 0.18849 0.0
C1182 C 0.36957 0.26144 0.18086 0.0
C1183 C 0.34996 0.24677 0.1737 0.0
C1184 C 0.388 0.2613 0.16081 0.0
C1185 C 0.34911 0.23182 0.14627 0.0
C1186 C 0.36747 0.23141 0.12638 0.0
C1187 C 0.40541 0.246 0.11331 0.0
C1188 C 0.42469 0.26116 0.12002 0.0
C1189 C 0.38699 0.24609 0.13339 0.0
C1190 C 0.42544 0.27624 0.14732 0.0
C1191 C 0.40734 0.27624 0.16759 0.0
H1192 H 0.70647 0.36552 0.17277 0.0
H1193 H 0.76738 0.38944 0.23221 0.0
H1194 H 0.76965 0.42423 0.20075 0.0
H1195 H 0.75674 0.44561 0.15313 0.0
H1196 H 0.69731 0.42022 0.09186 0.0
H1197 H 0.69191 0.38836 0.12739 0.0
C1198 C 0.72015 0.37844 0.17891 0.0
C1199 C 0.73686 0.37484 0.20451 0.0
C1200 C 0.72169 0.39805 0.1603 0.0
C1201 C 0.75422 0.39191 0.21269 0.0
C1202 C 0.75565 0.41169 0.19456 0.0
C1203 C 0.74257 0.43313 0.14767 0.0
C1204 C 0.72759 0.43512 0.11981 0.0
C1205 C 0.73987 0.41458 0.16781 0.0
C1206 C 0.70898 0.41916 0.1133 0.0
C1207 C 0.70599 0.40083 0.13346 0.0
H1208 H 0.62403 0.7394 0.18103 0.0
H1209 H 0.66543 0.76939 0.11172 0.0
H1210 H 0.63073 0.77178 0.07447 0.0
H1211 H 0.58842 0.76546 0.06147 0.0
H1212 H 0.54679 0.73738 0.13151 0.0
H1213 H 0.58168 0.7346 0.16897 0.0
C1214 C 0.62548 0.74675 0.15796 0.0
C1215 C 0.64743 0.7541 0.14926 0.0
C1216 C 0.60536 0.74851 0.13684 0.0
C1217 C 0.64892 0.76317 0.11894 0.0
C1218 C 0.62902 0.76475 0.09766 0.0
C1219 C 0.58712 0.75887 0.08505 0.0
C1220 C 0.56533 0.75149 0.09392 0.0
C1221 C 0.60717 0.75746 0.10635 0.0
C1222 C 0.56356 0.74302 0.12438 0.0
C1223 C 0.58344 0.74142 0.14567 0.0
H1224 H 0.26688 0.64913 0.13012 0.0
H1225 H 0.23673 0.61892 0.20979 0.0
H1226 H 0.23685 0.58028 0.18291 0.0
H1227 H 0.24491 0.55517 0.13619 0.0
H1228 H 0.27099 0.5863 0.05465 0.0
H1229 H 0.27274 0.62477 0.08266 0.0
C1230 C 0.25994 0.63423 0.14147 0.0
C1231 C 0.25181 0.637 0.17194 0.0
C1232 C 0.25925 0.61229 0.12548 0.0
C1233 C 0.24349 0.61728 0.18657 0.0
C1234 C 0.24333 0.59519 0.17112 0.0
C1235 C 0.25066 0.57053 0.12461 0.0
C1236 C 0.25758 0.56829 0.09355 0.0
C1237 C 0.25107 0.59254 0.14053 0.0
C1238 C 0.26548 0.58795 0.07862 0.0
C1239 C 0.26648 0.60981 0.09457 0.0
H1240 H 0.35142 0.76812 0.89214 0.0
H1241 H 0.37924 0.73902 0.80706 0.0
H1242 H 0.41826 0.73749 0.83491 0.0
H1243 H 0.44463 0.74451 0.88357 0.0
H1244 H 0.41684 0.7729 0.9688 0.0
H1245 H 0.37774 0.77512 0.94074 0.0
C1246 C 0.36607 0.76159 0.87968 0.0
C1247 C 0.36242 0.75364 0.84762 0.0
C1248 C 0.38846 0.76073 0.89584 0.0
C1249 C 0.38152 0.74496 0.83187 0.0
C1250 C 0.40386 0.7442 0.8477 0.0
C1251 C 0.42991 0.75109 0.89585 0.0
C1252 C 0.43332 0.75836 0.92808 0.0
C1253 C 0.40753 0.752 0.87968 0.0
C1254 C 0.41438 0.76714 0.94393 0.0
C1255 C 0.39211 0.76836 0.92794 0.0
H1256 H 0.25282 0.3635 0.88439 0.0
H1257 H 0.2865 0.39878 0.81176 0.0
H1258 H 0.28285 0.4363 0.84115 0.0
H1259 H 0.27136 0.45869 0.88874 0.0
H1260 H 0.2411 0.42232 0.96306 0.0
H1261 H 0.24208 0.38535 0.9317 0.0
C1262 C 0.25975 0.3793 0.87518 0.0
C1263 C 0.2702 0.37833 0.84618 0.0
C1264 C 0.25808 0.40054 0.89244 0.0
C1265 C 0.27833 0.39911 0.83404 0.0
C1266 C 0.27632 0.42052 0.85085 0.0
C1267 C 0.26503 0.44258 0.89784 0.0
C1268 C 0.25636 0.44287 0.92798 0.0
C1269 C 0.26639 0.42138 0.88018 0.0
C1270 C 0.24789 0.4222 0.9398 0.0
C1271 C 0.24854 0.40117 0.92201 0.0
H1272 H 0.64677 0.28528 0.86521 0.0
H1273 H 0.65954 0.21167 0.87986 0.0
H1274 H 0.62755 0.21073 0.91416 0.0
H1275 H 0.59595 0.23057 0.94014 0.0
H1276 H 0.57968 0.3026 0.91931 0.0
H1277 H 0.61294 0.30412 0.88724 0.0
C1278 C 0.64243 0.26885 0.87531 0.0
C1279 C 0.65602 0.24867 0.8699 0.0
C1280 C 0.62331 0.26809 0.89413 0.0
C1281 C 0.65007 0.22776 0.88405 0.0
C1282 C 0.63151 0.22708 0.9035 0.0
C1283 C 0.59926 0.24653 0.92819 0.0
C1284 C 0.58517 0.26648 0.93271 0.0
C1285 C 0.618 0.24713 0.9087 0.0
C1286 C 0.59037 0.28706 0.91725 0.0
C1287 C 0.60935 0.28793 0.89853 0.0
H1288 H 0.75275 0.63006 0.82469 0.0
H1289 H 0.78322 0.67176 0.90535 0.0
H1290 H 0.78677 0.63695 0.93706 0.0
H1291 H 0.77872 0.59532 0.94298 0.0
H1292 H 0.74599 0.55399 0.86369 0.0
H1293 H 0.74568 0.58809 0.83019 0.0
C1294 C 0.76003 0.63154 0.84927 0.0
C1295 C 0.7676 0.65345 0.8627 0.0
C1296 C 0.76162 0.61156 0.86752 0.0
C1297 C 0.77745 0.65504 0.89437 0.0
C1298 C 0.77939 0.63518 0.91257 0.0
C1299 C 0.77198 0.59372 0.91817 0.0
C1300 C 0.76253 0.57231 0.90561 0.0
C1301 C 0.77131 0.61344 0.89948 0.0
C1302 C 0.75336 0.57042 0.87369 0.0
C1303 C 0.75312 0.58986 0.85465 0.0
loop_
_geom_bond_atom_site_label_1
_geom_bond_atom_site_label_2
_geom_bond_distance
_geom_bond_site_symmetry_2
_ccdc_geom_bond_type
C0 C1 1.384 . S
C0 C2 1.384 . S
C0 H28 0.931 . S
C1 C0 1.384 . S
C1 C4 1.382 . S
C2 C0 1.384 . S
C2 C3 1.381 . S
C2 H29 0.930 . S
C3 C2 1.381 . S
C3 C5 1.381 . S
C3 C6 1.487 . S
C4 C1 1.382 . S
C4 C5 1.387 . S
C4 H30 0.930 . S
C5 C3 1.381 . S
C5 C4 1.387 . S
C5 H31 0.931 . S
C6 C3 1.487 . S
C6 C13 1.399 . S
C6 N44 1.343 . S
C7 C8 1.384 . S
C7 C9 1.384 . S
C7 H32 0.931 . S
C8 C7 1.384 . S
C8 C11 1.382 . S
C9 C7 1.384 . S
C9 C10 1.381 . S
C9 H33 0.930 . S
C10 C9 1.381 . S
C10 C12 1.381 . S
C10 C13 1.487 . S
C11 C8 1.382 . S
C11 C12 1.387 . S
C11 H34 0.930 . S
C12 C10 1.381 . S
C12 C11 1.387 . S
C12 H35 0.931 . S
C13 C6 1.399 . S
C13 C10 1.487 . S
C13 N45 1.343 . S
C14 C15 1.384 . S
C14 C16 1.384 . S
C14 H36 0.931 . S
C15 C14 1.384 . S
C15 C18 1.382 . S
C16 C14 1.384 . S
C16 C17 1.381 . S
C16 H37 0.930 . S
C17 C16 1.381 . S
C17 C19 1.381 . S
C17 C20 1.487 . S
C18 C15 1.382 . S
C18 C19 1.387 . S
C18 H38 0.930 . S
C19 C17 1.381 . S
C19 C18 1.387 . S
C19 H39 0.931 . S
C20 C17 1.487 . S
C20 C27 1.399 . S
C20 N45 1.343 . S
C21 C22 1.384 . S
C21 C23 1.384 . S
C21 H40 0.931 . S
C22 C21 1.384 . S
C22 C25 1.382 . S
C23 C21 1.384 . S
C23 C24 1.381 . S
C23 H41 0.930 . S
C24 C23 1.381 . S
C24 C26 1.381 . S
C24 C27 1.487 . S
C25 C22 1.382 . S
C25 C26 1.387 . S
C25 H42 0.930 . S
C26 C24 1.381 . S
C26 C25 1.387 . S
C26 H43 0.931 . S
C27 C20 1.399 . S
C27 C24 1.487 . S
C27 N44 1.343 . S
H28 C0 0.931 . S
H29 C2 0.930 . S
H30 C4 0.930 . S
H31 C5 0.931 . S
H32 C7 0.931 . S
H33 C9 0.930 . S
H34 C11 0.930 . S
H35 C12 0.931 . S
H36 C14 0.931 . S
H37 C16 0.930 . S
H38 C18 0.930 . S
H39 C19 0.931 . S
H40 C21 0.931 . S
H41 C23 0.930 . S
H42 C25 0.930 . S
H43 C26 0.931 . S
N44 C6 1.343 . S
N44 C27 1.343 . S
N45 C13 1.343 . S
N45 C20 1.343 . S
C46 C47 1.384 . S
C46 C48 1.384 . S
C46 H74 0.931 . S
C47 C46 1.384 . S
C47 C50 1.382 . S
C48 C46 1.384 . S
C48 C49 1.381 . S
C48 H75 0.930 . S
C49 C48 1.381 . S
C49 C51 1.381 . S
C49 C52 1.487 . S
C50 C47 1.382 . S
C50 C51 1.387 . S
C50 H76 0.930 . S
C51 C49 1.381 . S
C51 C50 1.387 . S
C51 H77 0.931 . S
C52 C49 1.487 . S
C52 C59 1.399 . S
C52 N90 1.343 . S
C53 C54 1.384 . S
C53 C55 1.384 . S
C53 H78 0.931 . S
C54 C53 1.384 . S
C54 C57 1.382 . S
C55 C53 1.384 . S
C55 C56 1.381 . S
C55 H79 0.930 . S
C56 C55 1.381 . S
C56 C58 1.381 . S
C56 C59 1.487 . S
C57 C54 1.382 . S
C57 C58 1.387 . S
C57 H80 0.930 . S
C58 C56 1.381 . S
C58 C57 1.387 . S
C58 H81 0.931 . S
C59 C52 1.399 . S
C59 C56 1.487 . S
C59 N91 1.343 . S
C60 C61 1.384 . S
C60 C62 1.384 . S
C60 H82 0.931 . S
C61 C60 1.384 . S
C61 C64 1.382 . S
C62 C60 1.384 . S
C62 C63 1.381 . S
C62 H83 0.930 . S
C63 C62 1.381 . S
C63 C65 1.381 . S
C63 C66 1.487 . S
C64 C61 1.382 . S
C64 C65 1.387 . S
C64 H84 0.930 . S
C65 C63 1.381 . S
C65 C64 1.387 . S
C65 H85 0.931 . S
C66 C63 1.487 . S
C66 C73 1.399 . S
C66 N91 1.343 . S
C67 C68 1.384 . S
C67 C69 1.384 . S
C67 H86 0.931 . S
C68 C67 1.384 . S
C68 C71 1.382 . S
C69 C67 1.384 . S
C69 C70 1.381 . S
C69 H87 0.930 . S
C70 C69 1.381 . S
C70 C72 1.381 . S
C70 C73 1.487 . S
C71 C68 1.382 . S
C71 C72 1.387 . S
C71 H88 0.930 . S
C72 C70 1.381 . S
C72 C71 1.387 . S
C72 H89 0.931 . S
C73 C66 1.399 . S
C73 C70 1.487 . S
C73 N90 1.343 . S
H74 C46 0.931 . S
H75 C48 0.930 . S
H76 C50 0.930 . S
H77 C51 0.931 . S
H78 C53 0.931 . S
H79 C55 0.930 . S
H80 C57 0.930 . S
H81 C58 0.931 . S
H82 C60 0.931 . S
H83 C62 0.930 . S
H84 C64 0.930 . S
H85 C65 0.931 . S
H86 C67 0.931 . S
H87 C69 0.930 . S
H88 C71 0.930 . S
H89 C72 0.931 . S
N90 C52 1.343 . S
N90 C73 1.343 . S
N91 C59 1.343 . S
N91 C66 1.343 . S
C92 C93 1.384 . S
C92 C94 1.384 . S
C92 H120 0.931 . S
C93 C92 1.384 . S
C93 C96 1.382 . S
C94 C92 1.384 . S
C94 C95 1.381 . S
C94 H121 0.930 . S
C95 C94 1.381 . S
C95 C97 1.381 . S
C95 C98 1.487 . S
C96 C93 1.382 . S
C96 C97 1.387 . S
C96 H122 0.930 . S
C97 C95 1.381 . S
C97 C96 1.387 . S
C97 H123 0.931 . S
C98 C95 1.487 . S
C98 C105 1.399 . S
C98 N136 1.343 . S
C99 C100 1.384 . S
C99 C101 1.384 . S
C99 H124 0.931 . S
C100 C99 1.384 . S
C100 C103 1.382 . S
C101 C99 1.384 . S
C101 C102 1.381 . S
C101 H125 0.930 . S
C102 C101 1.381 . S
C102 C104 1.381 . S
C102 C105 1.487 . S
C103 C100 1.382 . S
C103 C104 1.387 . S
C103 H126 0.930 . S
C104 C102 1.381 . S
C104 C103 1.387 . S
C104 H127 0.931 . S
C105 C98 1.399 . S
C105 C102 1.487 . S
C105 N137 1.343 . S
C106 C107 1.384 . S
C106 C108 1.384 . S
C106 H128 0.931 . S
C107 C106 1.384 . S
C107 C110 1.382 . S
C108 C106 1.384 . S
C108 C109 1.381 . S
C108 H129 0.930 . S
C109 C108 1.381 . S
C109 C111 1.381 . S
C109 C112 1.487 . S
C110 C107 1.382 . S
C110 C111 1.387 . S
C110 H130 0.930 . S
C111 C109 1.381 . S
C111 C110 1.387 . S
C111 H131 0.931 . S
C112 C109 1.487 . S
C112 C119 1.399 . S
C112 N137 1.343 . S
C113 C114 1.384 . S
C113 C115 1.384 . S
C113 H132 0.931 . S
C114 C113 1.384 . S
C114 C117 1.382 . S
C115 C113 1.384 . S
C115 C116 1.381 . S
C115 H133 0.930 . S
C116 C115 1.381 . S
C116 C118 1.381 . S
C116 C119 1.487 . S
C117 C114 1.382 . S
C117 C118 1.387 . S
C117 H134 0.930 . S
C118 C116 1.381 . S
C118 C117 1.387 . S
C118 H135 0.931 . S
C119 C112 1.399 . S
C119 C116 1.487 . S
C119 N136 1.343 . S
H120 C92 0.931 . S
H121 C94 0.930 . S
H122 C96 0.930 . S
H123 C97 0.931 . S
H124 C99 0.931 . S
H125 C101 0.930 . S
H126 C103 0.930 . S
H127 C104 0.931 . S
H128 C106 0.931 . S
H129 C108 0.930 . S
H130 C110 0.930 . S
H131 C111 0.931 . S
H132 C113 0.931 . S
H133 C115 0.930 . S
H134 C117 0.930 . S
H135 C118 0.931 . S
N136 C98 1.343 . S
N136 C119 1.343 . S
N137 C105 1.343 . S
N137 C112 1.343 . S
C138 C139 1.384 . S
C138 C140 1.384 . S
C138 H166 0.931 . S
C139 C138 1.384 . S
C139 C142 1.382 . S
C140 C138 1.384 . S
C140 C141 1.381 . S
C140 H167 0.930 . S
C141 C140 1.381 . S
C141 C143 1.381 . S
C141 C144 1.487 . S
C142 C139 1.382 . S
C142 C143 1.387 . S
C142 H168 0.930 . S
C143 C141 1.381 . S
C143 C142 1.387 . S
C143 H169 0.931 . S
C144 C141 1.487 . S
C144 C151 1.399 . S
C144 N182 1.343 . S
C145 C146 1.384 . S
C145 C147 1.384 . S
C145 H170 0.931 . S
C146 C145 1.384 . S
C146 C149 1.382 . S
C147 C145 1.384 . S
C147 C148 1.381 . S
C147 H171 0.930 . S
C148 C147 1.381 . S
C148 C150 1.381 . S
C148 C151 1.487 . S
C149 C146 1.382 . S
C149 C150 1.387 . S
C149 H172 0.930 . S
C150 C148 1.381 . S
C150 C149 1.387 . S
C150 H173 0.931 . S
C151 C144 1.399 . S
C151 C148 1.487 . S
C151 N183 1.343 . S
C152 C153 1.384 . S
C152 C154 1.384 . S
C152 H174 0.931 . S
C153 C152 1.384 . S
C153 C156 1.382 . S
C154 C152 1.384 . S
C154 C155 1.381 . S
C154 H175 0.930 . S
C155 C154 1.381 . S
C155 C157 1.381 . S
C155 C158 1.487 . S
C156 C153 1.382 . S
C156 C157 1.387 . S
C156 H176 0.930 . S
C157 C155 1.381 . S
C157 C156 1.387 . S
C157 H177 0.931 . S
C158 C155 1.487 . S
C158 C165 1.399 . S
C158 N183 1.343 . S
C159 C160 1.384 . S
C159 C161 1.384 . S
C159 H178 0.931 . S
C160 C159 1.384 . S
C160 C163 1.382 . S
C161 C159 1.384 . S
C161 C162 1.381 . S
C161 H179 0.930 . S
C162 C161 1.381 . S
C162 C164 1.381 . S
C162 C165 1.487 . S
C163 C160 1.382 . S
C163 C164 1.387 . S
C163 H180 0.930 . S
C164 C162 1.381 . S
C164 C163 1.387 . S
C164 H181 0.931 . S
C165 C158 1.399 . S
C165 C162 1.487 . S
C165 N182 1.343 . S
H166 C138 0.931 . S
H167 C140 0.930 . S
H168 C142 0.930 . S
H169 C143 0.931 . S
H170 C145 0.931 . S
H171 C147 0.930 . S
H172 C149 0.930 . S
H173 C150 0.931 . S
H174 C152 0.931 . S
H175 C154 0.930 . S
H176 C156 0.930 . S
H177 C157 0.931 . S
H178 C159 0.931 . S
H179 C161 0.930 . S
H180 C163 0.930 . S
H181 C164 0.931 . S
N182 C144 1.343 . S
N182 C165 1.343 . S
N183 C151 1.343 . S
N183 C158 1.343 . S
C184 C185 1.384 . S
C184 C186 1.384 . S
C184 H212 0.931 . S
C185 C184 1.384 . S
C185 C188 1.382 . S
C186 C184 1.384 . S
C186 C187 1.381 . S
C186 H213 0.930 . S
C187 C186 1.381 . S
C187 C189 1.381 . S
C187 C190 1.487 . S
C188 C185 1.382 . S
C188 C189 1.387 . S
C188 H214 0.930 . S
C189 C187 1.381 . S
C189 C188 1.387 . S
C189 H215 0.931 . S
C190 C187 1.487 . S
C190 C197 1.399 . S
C190 N228 1.343 . S
C191 C192 1.384 . S
C191 C193 1.384 . S
C191 H216 0.931 . S
C192 C191 1.384 . S
C192 C195 1.382 . S
C193 C191 1.384 . S
C193 C194 1.381 . S
C193 H217 0.930 . S
C194 C193 1.381 . S
C194 C196 1.381 . S
C194 C197 1.487 . S
C195 C192 1.382 . S
C195 C196 1.387 . S
C195 H218 0.930 . S
C196 C194 1.381 . S
C196 C195 1.387 . S
C196 H219 0.931 . S
C197 C190 1.399 . S
C197 C194 1.487 . S
C197 N229 1.343 . S
C198 C199 1.384 . S
C198 C200 1.384 . S
C198 H220 0.931 . S
C199 C198 1.384 . S
C199 C202 1.382 . S
C200 C198 1.384 . S
C200 C201 1.381 . S
C200 H221 0.930 . S
C201 C200 1.381 . S
C201 C203 1.381 . S
C201 C204 1.487 . S
C202 C199 1.382 . S
C202 C203 1.387 . S
C202 H222 0.930 . S
C203 C201 1.381 . S
C203 C202 1.387 . S
C203 H223 0.931 . S
C204 C201 1.487 . S
C204 C211 1.399 . S
C204 N229 1.343 . S
C205 C206 1.384 . S
C205 C207 1.384 . S
C205 H224 0.931 . S
C206 C205 1.384 . S
C206 C209 1.382 . S
C207 C205 1.384 . S
C207 C208 1.381 . S
C207 H225 0.930 . S
C208 C207 1.381 . S
C208 C210 1.381 . S
C208 C211 1.487 . S
C209 C206 1.382 . S
C209 C210 1.387 . S
C209 H226 0.930 . S
C210 C208 1.381 . S
C210 C209 1.387 . S
C210 H227 0.931 . S
C211 C204 1.399 . S
C211 C208 1.487 . S
C211 N228 1.343 . S
H212 C184 0.931 . S
H213 C186 0.930 . S
H214 C188 0.930 . S
H215 C189 0.931 . S
H216 C191 0.931 . S
H217 C193 0.930 . S
H218 C195 0.930 . S
H219 C196 0.931 . S
H220 C198 0.931 . S
H221 C200 0.930 . S
H222 C202 0.930 . S
H223 C203 0.931 . S
H224 C205 0.931 . S
H225 C207 0.930 . S
H226 C209 0.930 . S
H227 C210 0.931 . S
N228 C190 1.343 . S
N228 C211 1.343 . S
N229 C197 1.343 . S
N229 C204 1.343 . S
C230 C231 1.384 . S
C230 C232 1.384 . S
C230 H258 0.931 . S
C231 C230 1.384 . S
C231 C234 1.382 . S
C232 C230 1.384 . S
C232 C233 1.381 . S
C232 H259 0.930 . S
C233 C232 1.381 . S
C233 C235 1.381 . S
C233 C236 1.487 . S
C234 C231 1.382 . S
C234 C235 1.387 . S
C234 H260 0.930 . S
C235 C233 1.381 . S
C235 C234 1.387 . S
C235 H261 0.931 . S
C236 C233 1.487 . S
C236 C243 1.399 . S
C236 N274 1.343 . S
C237 C238 1.384 . S
C237 C239 1.384 . S
C237 H262 0.931 . S
C238 C237 1.384 . S
C238 C241 1.382 . S
C239 C237 1.384 . S
C239 C240 1.381 . S
C239 H263 0.930 . S
C240 C239 1.381 . S
C240 C242 1.381 . S
C240 C243 1.487 . S
C241 C238 1.382 . S
C241 C242 1.387 . S
C241 H264 0.930 . S
C242 C240 1.381 . S
C242 C241 1.387 . S
C242 H265 0.931 . S
C243 C236 1.399 . S
C243 C240 1.487 . S
C243 N275 1.343 . S
C244 C245 1.384 . S
C244 C246 1.384 . S
C244 H266 0.931 . S
C245 C244 1.384 . S
C245 C248 1.382 . S
C246 C244 1.384 . S
C246 C247 1.381 . S
C246 H267 0.930 . S
C247 C246 1.381 . S
C247 C249 1.381 . S
C247 C250 1.487 . S
C248 C245 1.382 . S
C248 C249 1.387 . S
C248 H268 0.930 . S
C249 C247 1.381 . S
C249 C248 1.387 . S
C249 H269 0.931 . S
C250 C247 1.487 . S
C250 C257 1.399 . S
C250 N275 1.343 . S
C251 C252 1.384 . S
C251 C253 1.384 . S
C251 H270 0.931 . S
C252 C251 1.384 . S
C252 C255 1.382 . S
C253 C251 1.384 . S
C253 C254 1.381 . S
C253 H271 0.930 . S
C254 C253 1.381 . S
C254 C256 1.381 . S
C254 C257 1.487 . S
C255 C252 1.382 . S
C255 C256 1.387 . S
C255 H272 0.930 . S
C256 C254 1.381 . S
C256 C255 1.387 . S
C256 H273 0.931 . S
C257 C250 1.399 . S
C257 C254 1.487 . S
C257 N274 1.343 . S
H258 C230 0.931 . S
H259 C232 0.930 . S
H260 C234 0.930 . S
H261 C235 0.931 . S
H262 C237 0.931 . S
H263 C239 0.930 . S
H264 C241 0.930 . S
H265 C242 0.931 . S
H266 C244 0.931 . S
H267 C246 0.930 . S
H268 C248 0.930 . S
H269 C249 0.931 . S
H270 C251 0.931 . S
H271 C253 0.930 . S
H272 C255 0.930 . S
H273 C256 0.931 . S
N274 C236 1.343 . S
N274 C257 1.343 . S
N275 C243 1.343 . S
N275 C250 1.343 . S
C276 C277 1.384 . S
C276 C278 1.384 . S
C276 H304 0.931 . S
C277 C276 1.384 . S
C277 C280 1.382 . S
C278 C276 1.384 . S
C278 C279 1.381 . S
C278 H305 0.930 . S
C279 C278 1.381 . S
C279 C281 1.381 . S
C279 C282 1.487 . S
C280 C277 1.382 . S
C280 C281 1.387 . S
C280 H306 0.930 . S
C281 C279 1.381 . S
C281 C280 1.387 . S
C281 H307 0.931 . S
C282 C279 1.487 . S
C282 C289 1.399 . S
C282 N320 1.343 . S
C283 C284 1.384 . S
C283 C285 1.384 . S
C283 H308 0.931 . S
C284 C283 1.384 . S
C284 C287 1.382 . S
C285 C283 1.384 . S
C285 C286 1.381 . S
C285 H309 0.930 . S
C286 C285 1.381 . S
C286 C288 1.381 . S
C286 C289 1.487 . S
C287 C284 1.382 . S
C287 C288 1.387 . S
C287 H310 0.930 . S
C288 C286 1.381 . S
C288 C287 1.387 . S
C288 H311 0.931 . S
C289 C282 1.399 . S
C289 C286 1.487 . S
C289 N321 1.343 . S
C290 C291 1.384 . S
C290 C292 1.384 . S
C290 H312 0.931 . S
C291 C290 1.384 . S
C291 C294 1.382 . S
C292 C290 1.384 . S
C292 C293 1.381 . S
C292 H313 0.930 . S
C293 C292 1.381 . S
C293 C295 1.381 . S
C293 C296 1.487 . S
C294 C291 1.382 . S
C294 C295 1.387 . S
C294 H314 0.930 . S
C295 C293 1.381 . S
C295 C294 1.387 . S
C295 H315 0.931 . S
C296 C293 1.487 . S
C296 C303 1.399 . S
C296 N321 1.343 . S
C297 C298 1.384 . S
C297 C299 1.384 . S
C297 H316 0.931 . S
C298 C297 1.384 . S
C298 C301 1.382 . S
C299 C297 1.384 . S
C299 C300 1.381 . S
C299 H317 0.930 . S
C300 C299 1.381 . S
C300 C302 1.381 . S
C300 C303 1.487 . S
C301 C298 1.382 . S
C301 C302 1.387 . S
C301 H318 0.930 . S
C302 C300 1.381 . S
C302 C301 1.387 . S
C302 H319 0.931 . S
C303 C296 1.399 . S
C303 C300 1.487 . S
C303 N320 1.343 . S
H304 C276 0.931 . S
H305 C278 0.930 . S
H306 C280 0.930 . S
H307 C281 0.931 . S
H308 C283 0.931 . S
H309 C285 0.930 . S
H310 C287 0.930 . S
H311 C288 0.931 . S
H312 C290 0.931 . S
H313 C292 0.930 . S
H314 C294 0.930 . S
H315 C295 0.931 . S
H316 C297 0.931 . S
H317 C299 0.930 . S
H318 C301 0.930 . S
H319 C302 0.931 . S
N320 C282 1.343 . S
N320 C303 1.343 . S
N321 C289 1.343 . S
N321 C296 1.343 . S
C322 C323 1.384 . S
C322 C324 1.384 . S
C322 H350 0.931 . S
C323 C322 1.384 . S
C323 C326 1.382 . S
C324 C322 1.384 . S
C324 C325 1.381 . S
C324 H351 0.930 . S
C325 C324 1.381 . S
C325 C327 1.381 . S
C325 C328 1.487 . S
C326 C323 1.382 . S
C326 C327 1.387 . S
C326 H352 0.930 . S
C327 C325 1.381 . S
C327 C326 1.387 . S
C327 H353 0.931 . S
C328 C325 1.487 . S
C328 C335 1.399 . S
C328 N366 1.343 . S
C329 C330 1.384 . S
C329 C331 1.384 . S
C329 H354 0.931 . S
C330 C329 1.384 . S
C330 C333 1.382 . S
C331 C329 1.384 . S
C331 C332 1.381 . S
C331 H355 0.930 . S
C332 C331 1.381 . S
C332 C334 1.381 . S
C332 C335 1.487 . S
C333 C330 1.382 . S
C333 C334 1.387 . S
C333 H356 0.930 . S
C334 C332 1.381 . S
C334 C333 1.387 . S
C334 H357 0.931 . S
C335 C328 1.399 . S
C335 C332 1.487 . S
C335 N367 1.343 . S
C336 C337 1.384 . S
C336 C338 1.384 . S
C336 H358 0.931 . S
C337 C336 1.384 . S
C337 C340 1.382 . S
C338 C336 1.384 . S
C338 C339 1.381 . S
C338 H359 0.930 . S
C339 C338 1.381 . S
C339 C341 1.381 . S
C339 C342 1.487 . S
C340 C337 1.382 . S
C340 C341 1.387 . S
C340 H360 0.930 . S
C341 C339 1.381 . S
C341 C340 1.387 . S
C341 H361 0.931 . S
C342 C339 1.487 . S
C342 C349 1.399 . S
C342 N367 1.343 . S
C343 C344 1.384 . S
C343 C345 1.384 . S
C343 H362 0.931 . S
C344 C343 1.384 . S
C344 C347 1.382 . S
C345 C343 1.384 . S
C345 C346 1.381 . S
C345 H363 0.930 . S
C346 C345 1.381 . S
C346 C348 1.381 . S
C346 C349 1.487 . S
C347 C344 1.382 . S
C347 C348 1.387 . S
C347 H364 0.930 . S
C348 C346 1.381 . S
C348 C347 1.387 . S
C348 H365 0.931 . S
C349 C342 1.399 . S
C349 C346 1.487 . S
C349 N366 1.343 . S
H350 C322 0.931 . S
H351 C324 0.930 . S
H352 C326 0.930 . S
H353 C327 0.931 . S
H354 C329 0.931 . S
H355 C331 0.930 . S
H356 C333 0.930 . S
H357 C334 0.931 . S
H358 C336 0.931 . S
H359 C338 0.930 . S
H360 C340 0.930 . S
H361 C341 0.931 . S
H362 C343 0.931 . S
H363 C345 0.930 . S
H364 C347 0.930 . S
H365 C348 0.931 . S
N366 C328 1.343 . S
N366 C349 1.343 . S
N367 C335 1.343 . S
N367 C342 1.343 . S
C368 C369 1.443 . S
C368 N372 1.376 . S
C368 C406 1.389 . S
C369 C368 1.443 . S
C369 C370 1.340 . S
C369 H409 0.951 . S
C370 C369 1.340 . S
C370 C371 1.439 . S
C370 H410 0.950 . S
C371 C370 1.439 . S
C371 N372 1.374 . S
C371 C405 1.395 . S
N372 C368 1.376 . S
N372 C371 1.374 . S
N372 Co373 2.008 . S
Co373 N372 2.008 . S
Co373 N374 1.995 1_455 S
Co373 N379 2.008 1_455 S
Co373 N384 1.995 . S
Co373 N389 2.282 1_455 S
Co373 N395 2.282 . S
N374 Co373 1.995 1_655 S
N374 C375 1.376 . S
N374 C378 1.383 . S
C375 N374 1.376 . S
C375 C376 1.446 . S
C375 C405 1.391 1_655 S
C376 C375 1.446 . S
C376 C377 1.339 . S
C376 H411 0.949 . S
C377 C376 1.339 . S
C377 C378 1.439 . S
C377 H412 0.950 . S
C378 N374 1.383 . S
C378 C377 1.439 . S
C378 C407 1.392 . S
N379 Co373 2.008 1_655 S
N379 C380 1.376 . S
N379 C383 1.374 . S
C380 N379 1.376 . S
C380 C381 1.443 . S
C380 C407 1.389 . S
C381 C380 1.443 . S
C381 C382 1.340 . S
C381 H413 0.951 . S
C382 C381 1.340 . S
C382 C383 1.439 . S
C382 H414 0.950 . S
C383 N379 1.374 . S
C383 C382 1.439 . S
C383 C408 1.418 . S
N384 Co373 1.995 . S
N384 C385 1.376 . S
N384 C388 1.383 . S
C385 N384 1.376 . S
C385 C386 1.446 . S
C385 C408 1.367 1_455 S
C386 C385 1.446 . S
C386 C387 1.339 . S
C386 H415 0.949 . S
C387 C386 1.339 . S
C387 C388 1.439 . S
C387 H416 0.950 . S
C388 N384 1.383 . S
C388 C387 1.439 . S
C388 C406 1.392 . S
N389 Co373 2.282 1_655 S
N389 C392 1.332 . S
N389 C394 1.332 . S
C390 C391 1.386 . S
C390 C393 1.388 . S
C391 C390 1.386 . S
C391 C392 1.382 . S
C391 H417 0.950 . S
C392 N389 1.332 . S
C392 C391 1.382 . S
C392 H403 0.952 . S
C393 C390 1.388 . S
C393 C394 1.382 . S
C393 H418 0.950 . S
C394 N389 1.332 . S
C394 C393 1.382 . S
C394 H404 0.948 . S
N395 Co373 2.282 . S
N395 C399 1.332 . S
N395 C400 1.332 . S
C396 C397 1.388 . S
C396 C400 1.382 . S
C396 H419 0.950 . S
C397 C396 1.388 . S
C397 C398 1.386 . S
C398 C397 1.386 . S
C398 C399 1.382 . S
C398 H420 0.950 . S
C399 N395 1.332 . S
C399 C398 1.382 . S
C399 H401 0.952 . S
C400 N395 1.332 . S
C400 C396 1.382 . S
C400 H402 0.948 . S
H401 C399 0.952 . S
H402 C400 0.948 . S
H403 C392 0.952 . S
H404 C394 0.948 . S
C405 C371 1.395 . S
C405 C375 1.391 1_455 S
C406 C368 1.389 . S
C406 C388 1.392 . S
C407 C378 1.392 . S
C407 C380 1.389 . S
C408 C383 1.418 . S
C408 C385 1.367 1_655 S
H409 C369 0.951 . S
H410 C370 0.950 . S
H411 C376 0.949 . S
H412 C377 0.950 . S
H413 C381 0.951 . S
H414 C382 0.950 . S
H415 C386 0.949 . S
H416 C387 0.950 . S
H417 C391 0.950 . S
H418 C393 0.950 . S
H419 C396 0.950 . S
H420 C398 0.950 . S
C421 C422 1.443 . S
C421 N425 1.376 . S
C421 C459 1.389 . S
C422 C421 1.443 . S
C422 C423 1.340 . S
C422 H462 0.951 . S
C423 C422 1.340 . S
C423 C424 1.439 . S
C423 H463 0.950 . S
C424 C423 1.439 . S
C424 N425 1.374 . S
C424 C458 1.395 . S
N425 C421 1.376 . S
N425 C424 1.374 . S
N425 Co426 2.008 . S
Co426 N425 2.008 . S
Co426 N427 1.995 1_545 S
Co426 N432 2.008 1_545 S
Co426 N437 1.995 . S
Co426 N442 2.282 1_545 S
Co426 N448 2.282 . S
N427 Co426 1.995 1_565 S
N427 C428 1.376 . S
N427 C431 1.383 . S
C428 N427 1.376 . S
C428 C429 1.446 . S
C428 C458 1.391 1_565 S
C429 C428 1.446 . S
C429 C430 1.339 . S
C429 H464 0.949 . S
C430 C429 1.339 . S
C430 C431 1.439 . S
C430 H465 0.950 . S
C431 N427 1.383 . S
C431 C430 1.439 . S
C431 C460 1.392 . S
N432 Co426 2.008 1_565 S
N432 C433 1.376 . S
N432 C436 1.374 . S
C433 N432 1.376 . S
C433 C434 1.443 . S
C433 C460 1.389 . S
C434 C433 1.443 . S
C434 C435 1.340 . S
C434 H466 0.951 . S
C435 C434 1.340 . S
C435 C436 1.439 . S
C435 H467 0.950 . S
C436 N432 1.374 . S
C436 C435 1.439 . S
C436 C461 1.401 . S
N437 Co426 1.995 . S
N437 C438 1.376 . S
N437 C441 1.383 . S
C438 N437 1.376 . S
C438 C439 1.446 . S
C438 C461 1.385 1_545 S
C439 C438 1.446 . S
C439 C440 1.339 . S
C439 H468 0.949 . S
C440 C439 1.339 . S
C440 C441 1.439 . S
C440 H469 0.950 . S
C441 N437 1.383 . S
C441 C440 1.439 . S
C441 C459 1.392 . S
N442 Co426 2.282 1_565 S
N442 C445 1.332 . S
N442 C447 1.332 . S
C443 C444 1.386 . S
C443 C446 1.388 . S
C444 C443 1.386 . S
C444 C445 1.382 . S
C444 H470 0.950 . S
C445 N442 1.332 . S
C445 C444 1.382 . S
C445 H456 0.952 . S
C446 C443 1.388 . S
C446 C447 1.382 . S
C446 H471 0.950 . S
C447 N442 1.332 . S
C447 C446 1.382 . S
C447 H457 0.948 . S
N448 Co426 2.282 . S
N448 C452 1.332 . S
N448 C453 1.332 . S
C449 C450 1.388 . S
C449 C453 1.382 . S
C449 H472 0.950 . S
C450 C449 1.388 . S
C450 C451 1.386 . S
C451 C450 1.386 . S
C451 C452 1.382 . S
C451 H473 0.950 . S
C452 N448 1.332 . S
C452 C451 1.382 . S
C452 H454 0.952 . S
C453 N448 1.332 . S
C453 C449 1.382 . S
C453 H455 0.948 . S
H454 C452 0.952 . S
H455 C453 0.948 . S
H456 C445 0.952 . S
H457 C447 0.948 . S
C458 C424 1.395 . S
C458 C428 1.391 1_545 S
C459 C421 1.389 . S
C459 C441 1.392 . S
C460 C431 1.392 . S
C460 C433 1.389 . S
C461 C436 1.401 . S
C461 C438 1.385 1_565 S
H462 C422 0.951 . S
H463 C423 0.950 . S
H464 C429 0.949 . S
H465 C430 0.950 . S
H466 C434 0.951 . S
H467 C435 0.950 . S
H468 C439 0.949 . S
H469 C440 0.950 . S
H470 C444 0.950 . S
H471 C446 0.950 . S
H472 C449 0.950 . S
H473 C451 0.950 . S
C474 C475 1.443 . S
C474 N478 1.376 . S
C474 C512 1.389 . S
C475 C474 1.443 . S
C475 C476 1.340 . S
C475 H515 0.951 . S
C476 C475 1.340 . S
C476 C477 1.439 . S
C476 H516 0.950 . S
C477 C476 1.439 . S
C477 N478 1.374 . S
C477 C511 1.395 . S
N478 C474 1.376 . S
N478 C477 1.374 . S
N478 Co479 2.008 . S
Co479 N478 2.008 . S
Co479 N480 1.995 1_455 S
Co479 N485 2.008 1_455 S
Co479 N490 1.995 . S
Co479 N495 2.282 1_455 S
Co479 N501 2.282 . S
N480 Co479 1.995 1_655 S
N480 C481 1.376 . S
N480 C484 1.383 . S
C481 N480 1.376 . S
C481 C482 1.446 . S
C481 C511 1.391 1_655 S
C482 C481 1.446 . S
C482 C483 1.339 . S
C482 H517 0.949 . S
C483 C482 1.339 . S
C483 C484 1.439 . S
C483 H518 0.950 . S
C484 N480 1.383 . S
C484 C483 1.439 . S
C484 C513 1.392 . S
N485 Co479 2.008 1_655 S
N485 C486 1.376 . S
N485 C489 1.374 . S
C486 N485 1.376 . S
C486 C487 1.443 . S
C486 C513 1.389 . S
C487 C486 1.443 . S
C487 C488 1.340 . S
C487 H519 0.951 . S
C488 C487 1.340 . S
C488 C489 1.439 . S
C488 H520 0.950 . S
C489 N485 1.374 . S
C489 C488 1.439 . S
C489 C514 1.395 . S
N490 Co479 1.995 . S
N490 C491 1.376 . S
N490 C494 1.383 . S
C491 N490 1.376 . S
C491 C492 1.446 . S
C491 C514 1.391 1_455 S
C492 C491 1.446 . S
C492 C493 1.339 . S
C492 H521 0.949 . S
C493 C492 1.339 . S
C493 C494 1.439 . S
C493 H522 0.950 . S
C494 N490 1.383 . S
C494 C493 1.439 . S
C494 C512 1.392 . S
N495 Co479 2.282 1_655 S
N495 C498 1.332 . S
N495 C500 1.332 . S
C496 C497 1.386 . S
C496 C499 1.388 . S
C497 C496 1.386 . S
C497 C498 1.382 . S
C497 H523 0.950 . S
C498 N495 1.332 . S
C498 C497 1.382 . S
C498 H509 0.952 . S
C499 C496 1.388 . S
C499 C500 1.382 . S
C499 H524 0.950 . S
C500 N495 1.332 . S
C500 C499 1.382 . S
C500 H510 0.948 . S
N501 Co479 2.282 . S
N501 C505 1.332 . S
N501 C506 1.332 . S
C502 C503 1.388 . S
C502 C506 1.382 . S
C502 H525 0.950 . S
C503 C502 1.388 . S
C503 C504 1.386 . S
C504 C503 1.386 . S
C504 C505 1.382 . S
C504 H526 0.950 . S
C505 N501 1.332 . S
C505 C504 1.382 . S
C505 H507 0.952 . S
C506 N501 1.332 . S
C506 C502 1.382 . S
C506 H508 0.948 . S
H507 C505 0.952 . S
H508 C506 0.948 . S
H509 C498 0.952 . S
H510 C500 0.948 . S
C511 C477 1.395 . S
C511 C481 1.391 1_455 S
C512 C474 1.389 . S
C512 C494 1.392 . S
C513 C484 1.392 . S
C513 C486 1.389 . S
C514 C489 1.395 . S
C514 C491 1.391 1_655 S
H515 C475 0.951 . S
H516 C476 0.950 . S
H517 C482 0.949 . S
H518 C483 0.950 . S
H519 C487 0.951 . S
H520 C488 0.950 . S
H521 C492 0.949 . S
H522 C493 0.950 . S
H523 C497 0.950 . S
H524 C499 0.950 . S
H525 C502 0.950 . S
H526 C504 0.950 . S
C527 C528 1.443 . S
C527 N531 1.376 . S
C527 C565 1.389 . S
C528 C527 1.443 . S
C528 C529 1.340 . S
C528 H568 0.951 . S
C529 C528 1.340 . S
C529 C530 1.439 . S
C529 H569 0.950 . S
C530 C529 1.439 . S
C530 N531 1.374 . S
C530 C564 1.404 . S
N531 C527 1.376 . S
N531 C530 1.374 . S
N531 Co532 2.008 1_565 S
Co532 N531 2.008 1_545 S
Co532 N533 1.995 . S
Co532 N538 2.008 . S
Co532 N543 1.995 1_545 S
Co532 N548 2.282 . S
Co532 N554 2.282 1_545 S
N533 Co532 1.995 . S
N533 C534 1.376 . S
N533 C537 1.383 . S
C534 N533 1.376 . S
C534 C535 1.446 . S
C534 C564 1.382 1_545 S
C535 C534 1.446 . S
C535 C536 1.339 . S
C535 H570 0.949 . S
C536 C535 1.339 . S
C536 C537 1.439 . S
C536 H571 0.950 . S
C537 N533 1.383 . S
C537 C536 1.439 . S
C537 C566 1.392 . S
N538 Co532 2.008 . S
N538 C539 1.376 . S
N538 C542 1.374 . S
C539 N538 1.376 . S
C539 C540 1.443 . S
C539 C566 1.389 . S
C540 C539 1.443 . S
C540 C541 1.340 . S
C540 H572 0.951 . S
C541 C540 1.340 . S
C541 C542 1.439 . S
C541 H573 0.950 . S
C542 N538 1.374 . S
C542 C541 1.439 . S
C542 C567 1.395 . S
N543 Co532 1.995 1_565 S
N543 C544 1.376 . S
N543 C547 1.383 . S
C544 N543 1.376 . S
C544 C545 1.446 . S
C544 C567 1.391 1_565 S
C545 C544 1.446 . S
C545 C546 1.339 . S
C545 H574 0.949 . S
C546 C545 1.339 . S
C546 C547 1.439 . S
C546 H575 0.950 . S
C547 N543 1.383 . S
C547 C546 1.439 . S
C547 C565 1.392 . S
N548 Co532 2.282 . S
N548 C551 1.332 . S
N548 C553 1.332 . S
C549 C550 1.386 . S
C549 C552 1.388 . S
C550 C549 1.386 . S
C550 C551 1.382 . S
C550 H576 0.950 . S
C551 N548 1.332 . S
C551 C550 1.382 . S
C551 H562 0.952 . S
C552 C549 1.388 . S
C552 C553 1.382 . S
C552 H577 0.950 . S
C553 N548 1.332 . S
C553 C552 1.382 . S
C553 H563 0.948 . S
N554 Co532 2.282 1_565 S
N554 C558 1.332 . S
N554 C559 1.332 . S
C555 C556 1.388 . S
C555 C559 1.382 . S
C555 H578 0.950 . S
C556 C555 1.388 . S
C556 C557 1.386 . S
C557 C556 1.386 . S
C557 C558 1.382 . S
C557 H579 0.950 . S
C558 N554 1.332 . S
C558 C557 1.382 . S
C558 H560 0.952 . S
C559 N554 1.332 . S
C559 C555 1.382 . S
C559 H561 0.948 . S
H560 C558 0.952 . S
H561 C559 0.948 . S
H562 C551 0.952 . S
H563 C553 0.948 . S
C564 C530 1.404 . S
C564 C534 1.382 1_565 S
C565 C527 1.389 . S
C565 C547 1.392 . S
C566 C537 1.392 . S
C566 C539 1.389 . S
C567 C542 1.395 . S
C567 C544 1.391 1_545 S
H568 C528 0.951 . S
H569 C529 0.950 . S
H570 C535 0.949 . S
H571 C536 0.950 . S
H572 C540 0.951 . S
H573 C541 0.950 . S
H574 C545 0.949 . S
H575 C546 0.950 . S
H576 C550 0.950 . S
H577 C552 0.950 . S
H578 C555 0.950 . S
H579 C557 0.950 . S
C580 C581 1.443 . S
C580 N584 1.376 . S
C580 C618 1.389 . S
C581 C580 1.443 . S
C581 C582 1.340 . S
C581 H621 0.951 . S
C582 C581 1.340 . S
C582 C583 1.439 . S
C582 H622 0.950 . S
C583 C582 1.439 . S
C583 N584 1.374 . S
C583 C617 1.395 1_554 S
N584 C580 1.376 . S
N584 C583 1.374 . S
N584 Co585 2.008 . S
Co585 N584 2.008 . S
Co585 N586 1.995 1_554 S
Co585 N591 2.008 1_554 S
Co585 N596 1.995 . S
Co585 N601 2.282 . S
Co585 N607 2.282 1_554 S
N586 Co585 1.995 1_556 S
N586 C587 1.376 . S
N586 C590 1.383 . S
C587 N586 1.376 . S
C587 C588 1.446 . S
C587 C617 1.391 . S
C588 C587 1.446 . S
C588 C589 1.339 . S
C588 H623 0.949 . S
C589 C588 1.339 . S
C589 C590 1.439 . S
C589 H624 0.950 . S
C590 N586 1.383 . S
C590 C589 1.439 . S
C590 C619 1.392 . S
N591 Co585 2.008 1_556 S
N591 C592 1.376 . S
N591 C595 1.374 . S
C592 N591 1.376 . S
C592 C593 1.443 . S
C592 C619 1.389 . S
C593 C592 1.443 . S
C593 C594 1.340 . S
C593 H625 0.951 . S
C594 C593 1.340 . S
C594 C595 1.439 . S
C594 H626 0.950 . S
C595 N591 1.374 . S
C595 C594 1.439 . S
C595 C620 1.395 1_556 S
N596 Co585 1.995 . S
N596 C597 1.376 . S
N596 C600 1.383 . S
C597 N596 1.376 . S
C597 C598 1.446 . S
C597 C620 1.391 . S
C598 C597 1.446 . S
C598 C599 1.339 . S
C598 H627 0.949 . S
C599 C598 1.339 . S
C599 C600 1.439 . S
C599 H628 0.950 . S
C600 N596 1.383 . S
C600 C599 1.439 . S
C600 C618 1.392 . S
N601 Co585 2.282 . S
N601 C604 1.332 . S
N601 C606 1.332 . S
C602 C603 1.386 . S
C602 C605 1.388 . S
C603 C602 1.386 . S
C603 C604 1.382 . S
C603 H629 0.950 . S
C604 N601 1.332 . S
C604 C603 1.382 . S
C604 H615 0.952 . S
C605 C602 1.388 . S
C605 C606 1.382 . S
C605 H630 0.950 . S
C606 N601 1.332 . S
C606 C605 1.382 . S
C606 H616 0.948 . S
N607 Co585 2.282 1_556 S
N607 C611 1.332 . S
N607 C612 1.332 . S
C608 C609 1.388 . S
C608 C612 1.382 . S
C608 H631 0.950 . S
C609 C608 1.388 . S
C609 C610 1.386 . S
C610 C609 1.386 . S
C610 C611 1.382 . S
C610 H632 0.950 . S
C611 N607 1.332 . S
C611 C610 1.382 . S
C611 H613 0.952 . S
C612 N607 1.332 . S
C612 C608 1.382 . S
C612 H614 0.948 . S
H613 C611 0.952 . S
H614 C612 0.948 . S
H615 C604 0.952 . S
H616 C606 0.948 . S
C617 C583 1.395 1_556 S
C617 C587 1.391 . S
C618 C580 1.389 . S
C618 C600 1.392 . S
C619 C590 1.392 . S
C619 C592 1.389 . S
C620 C595 1.395 1_554 S
C620 C597 1.391 . S
H621 C581 0.951 . S
H622 C582 0.950 . S
H623 C588 0.949 . S
H624 C589 0.950 . S
H625 C593 0.951 . S
H626 C594 0.950 . S
H627 C598 0.949 . S
H628 C599 0.950 . S
H629 C603 0.950 . S
H630 C605 0.950 . S
H631 C608 0.950 . S
H632 C610 0.950 . S
C633 C634 1.443 . S
C633 N637 1.376 . S
C633 C671 1.389 . S
C634 C633 1.443 . S
C634 C635 1.340 . S
C634 H674 0.951 . S
C635 C634 1.340 . S
C635 C636 1.439 . S
C635 H675 0.950 . S
C636 C635 1.439 . S
C636 N637 1.374 . S
C636 C670 1.400 . S
N637 C633 1.376 . S
N637 C636 1.374 . S
N637 Co638 2.008 . S
Co638 N637 2.008 . S
Co638 N639 1.995 1_554 S
Co638 N644 2.008 1_554 S
Co638 N649 1.995 . S
Co638 N654 2.282 . S
Co638 N660 2.282 1_554 S
N639 Co638 1.995 1_556 S
N639 C640 1.376 . S
N639 C643 1.383 . S
C640 N639 1.376 . S
C640 C641 1.446 . S
C640 C670 1.387 1_556 S
C641 C640 1.446 . S
C641 C642 1.339 . S
C641 H676 0.949 . S
C642 C641 1.339 . S
C642 C643 1.439 . S
C642 H677 0.950 . S
C643 N639 1.383 . S
C643 C642 1.439 . S
C643 C672 1.392 . S
N644 Co638 2.008 1_556 S
N644 C645 1.376 . S
N644 C648 1.374 1_556 S
C645 N644 1.376 . S
C645 C646 1.443 . S
C645 C672 1.389 . S
C646 C645 1.443 . S
C646 C647 1.340 . S
C646 H678 0.951 . S
C647 C646 1.340 . S
C647 C648 1.439 1_556 S
C647 H679 0.950 . S
C648 N644 1.374 1_554 S
C648 C647 1.439 1_554 S
C648 C673 1.395 . S
N649 Co638 1.995 . S
N649 C650 1.376 . S
N649 C653 1.383 . S
C650 N649 1.376 . S
C650 C651 1.446 . S
C650 C673 1.391 . S
C651 C650 1.446 . S
C651 C652 1.339 . S
C651 H680 0.949 . S
C652 C651 1.339 . S
C652 C653 1.439 . S
C652 H681 0.950 . S
C653 N649 1.383 . S
C653 C652 1.439 . S
C653 C671 1.392 . S
N654 Co638 2.282 . S
N654 C657 1.332 . S
N654 C659 1.332 . S
C655 C656 1.386 . S
C655 C658 1.388 . S
C656 C655 1.386 . S
C656 C657 1.382 . S
C656 H682 0.950 . S
C657 N654 1.332 . S
C657 C656 1.382 . S
C657 H668 0.952 . S
C658 C655 1.388 . S
C658 C659 1.382 . S
C658 H683 0.950 . S
C659 N654 1.332 . S
C659 C658 1.382 . S
C659 H669 0.948 . S
N660 Co638 2.282 1_556 S
N660 C664 1.332 . S
N660 C665 1.332 . S
C661 C662 1.388 . S
C661 C665 1.382 . S
C661 H684 0.950 . S
C662 C661 1.388 . S
C662 C663 1.386 . S
C663 C662 1.386 . S
C663 C664 1.382 . S
C663 H685 0.950 . S
C664 N660 1.332 . S
C664 C663 1.382 . S
C664 H666 0.952 . S
C665 N660 1.332 . S
C665 C661 1.382 . S
C665 H667 0.948 . S
H666 C664 0.952 . S
H667 C665 0.948 . S
H668 C657 0.952 . S
H669 C659 0.948 . S
C670 C636 1.400 . S
C670 C640 1.387 1_554 S
C671 C633 1.389 . S
C671 C653 1.392 . S
C672 C643 1.392 . S
C672 C645 1.389 . S
C673 C648 1.395 . S
C673 C650 1.391 . S
H674 C634 0.951 . S
H675 C635 0.950 . S
H676 C641 0.949 . S
H677 C642 0.950 . S
H678 C646 0.951 . S
H679 C647 0.950 . S
H680 C651 0.949 . S
H681 C652 0.950 . S
H682 C656 0.950 . S
H683 C658 0.950 . S
H684 C661 0.950 . S
H685 C663 0.950 . S
C686 C687 1.443 . S
C686 N690 1.376 1_556 S
C686 C724 1.389 . S
C687 C686 1.443 . S
C687 C688 1.340 . S
C687 H727 0.951 . S
C688 C687 1.340 . S
C688 C689 1.439 1_556 S
C688 H728 0.949 1_556 S
C689 C688 1.439 1_554 S
C689 N690 1.374 . S
C689 C723 1.395 . S
N690 C686 1.376 1_554 S
N690 C689 1.374 . S
N690 Co691 2.008 . S
Co691 N690 2.008 . S
Co691 N692 1.995 . S
Co691 N697 2.008 . S
Co691 N702 1.995 1_554 S
Co691 N707 2.282 1_554 S
Co691 N713 2.282 . S
N692 Co691 1.995 . S
N692 C693 1.376 . S
N692 C696 1.383 . S
C693 N692 1.376 . S
C693 C694 1.446 . S
C693 C723 1.391 . S
C694 C693 1.446 . S
C694 C695 1.339 . S
C694 H729 0.949 . S
C695 C694 1.339 . S
C695 C696 1.439 . S
C695 H730 0.950 . S
C696 N692 1.383 . S
C696 C695 1.439 . S
C696 C725 1.392 . S
N697 Co691 2.008 . S
N697 C698 1.376 . S
N697 C701 1.374 . S
C698 N697 1.376 . S
C698 C699 1.443 . S
C698 C725 1.389 . S
C699 C698 1.443 . S
C699 C700 1.340 . S
C699 H731 0.951 . S
C700 C699 1.340 . S
C700 C701 1.439 . S
C700 H732 0.950 . S
C701 N697 1.374 . S
C701 C700 1.439 . S
C701 C726 1.395 . S
N702 Co691 1.995 1_556 S
N702 C703 1.376 . S
N702 C706 1.383 . S
C703 N702 1.376 . S
C703 C704 1.446 . S
C703 C726 1.391 1_556 S
C704 C703 1.446 . S
C704 C705 1.339 . S
C704 H733 0.949 . S
C705 C704 1.339 . S
C705 C706 1.439 . S
C705 H734 0.950 . S
C706 N702 1.383 . S
C706 C705 1.439 . S
C706 C724 1.392 . S
N707 Co691 2.282 1_556 S
N707 C710 1.332 . S
N707 C712 1.332 . S
C708 C709 1.386 . S
C708 C711 1.388 . S
C709 C708 1.386 . S
C709 C710 1.382 . S
C709 H735 0.950 . S
C710 N707 1.332 . S
C710 C709 1.382 . S
C710 H721 0.952 . S
C711 C708 1.388 . S
C711 C712 1.382 . S
C711 H736 0.950 . S
C712 N707 1.332 . S
C712 C711 1.382 . S
C712 H722 0.944 1_556 S
N713 Co691 2.282 . S
N713 C717 1.332 . S
N713 C718 1.332 . S
C714 C715 1.388 . S
C714 C718 1.382 . S
C714 H737 0.950 . S
C715 C714 1.388 . S
C715 C716 1.386 . S
C716 C715 1.386 . S
C716 C717 1.382 . S
C716 H738 0.950 . S
C717 N713 1.332 . S
C717 C716 1.382 . S
C717 H719 0.952 . S
C718 N713 1.332 . S
C718 C714 1.382 . S
C718 H720 0.948 . S
H719 C717 0.952 . S
H720 C718 0.948 . S
H721 C710 0.952 . S
H722 C712 0.944 1_554 S
C723 C689 1.395 . S
C723 C693 1.391 . S
C724 C686 1.389 . S
C724 C706 1.392 . S
C725 C696 1.392 . S
C725 C698 1.389 . S
C726 C701 1.395 . S
C726 C703 1.391 1_554 S
H727 C687 0.951 . S
H728 C688 0.949 1_554 S
H729 C694 0.949 . S
H730 C695 0.950 . S
H731 C699 0.951 . S
H732 C700 0.950 . S
H733 C704 0.949 . S
H734 C705 0.950 . S
H735 C709 0.950 . S
H736 C711 0.950 . S
H737 C714 0.950 . S
H738 C716 0.950 . S
C739 C740 1.443 . S
C739 N743 1.376 . S
C739 C777 1.389 . S
C740 C739 1.443 . S
C740 C741 1.340 . S
C740 H780 0.951 . S
C741 C740 1.340 . S
C741 C742 1.439 . S
C741 H781 0.950 . S
C742 C741 1.439 . S
C742 N743 1.374 . S
C742 C776 1.395 1_554 S
N743 C739 1.376 . S
N743 C742 1.374 . S
N743 Co744 2.008 . S
Co744 N743 2.008 . S
Co744 N745 1.995 1_554 S
Co744 N750 2.008 1_554 S
Co744 N755 1.995 . S
Co744 N760 2.282 . S
Co744 N766 2.282 1_554 S
N745 Co744 1.995 1_556 S
N745 C746 1.376 . S
N745 C749 1.383 . S
C746 N745 1.376 . S
C746 C747 1.446 . S
C746 C776 1.391 . S
C747 C746 1.446 . S
C747 C748 1.339 . S
C747 H782 0.949 . S
C748 C747 1.339 . S
C748 C749 1.439 . S
C748 H783 0.950 . S
C749 N745 1.383 . S
C749 C748 1.439 . S
C749 C778 1.392 . S
N750 Co744 2.008 1_556 S
N750 C751 1.376 . S
N750 C754 1.374 1_556 S
C751 N750 1.376 . S
C751 C752 1.443 . S
C751 C778 1.389 . S
C752 C751 1.443 . S
C752 C753 1.340 . S
C752 H784 0.951 . S
C753 C752 1.340 . S
C753 C754 1.439 1_556 S
C753 H785 0.950 . S
C754 N750 1.374 1_554 S
C754 C753 1.439 1_554 S
C754 C779 1.395 . S
N755 Co744 1.995 . S
N755 C756 1.376 . S
N755 C759 1.383 . S
C756 N755 1.376 . S
C756 C757 1.446 . S
C756 C779 1.391 . S
C757 C756 1.446 . S
C757 C758 1.339 . S
C757 H786 0.949 . S
C758 C757 1.339 . S
C758 C759 1.439 . S
C758 H787 0.950 . S
C759 N755 1.383 . S
C759 C758 1.439 . S
C759 C777 1.392 . S
N760 Co744 2.282 . S
N760 C763 1.332 . S
N760 C765 1.332 . S
C761 C762 1.386 . S
C761 C764 1.388 . S
C762 C761 1.386 . S
C762 C763 1.382 . S
C762 H788 0.950 . S
C763 N760 1.332 . S
C763 C762 1.382 . S
C763 H774 0.952 . S
C764 C761 1.388 . S
C764 C765 1.382 . S
C764 H789 0.950 . S
C765 N760 1.332 . S
C765 C764 1.382 . S
C765 H775 0.948 . S
N766 Co744 2.282 1_556 S
N766 C770 1.332 . S
N766 C771 1.332 . S
C767 C768 1.388 . S
C767 C771 1.382 . S
C767 H790 0.950 . S
C768 C767 1.388 . S
C768 C769 1.386 . S
C769 C768 1.386 . S
C769 C770 1.382 . S
C769 H791 0.950 . S
C770 N766 1.332 . S
C770 C769 1.382 . S
C770 H772 0.952 . S
C771 N766 1.332 . S
C771 C767 1.382 . S
C771 H773 0.948 . S
H772 C770 0.952 . S
H773 C771 0.948 . S
H774 C763 0.952 . S
H775 C765 0.948 . S
C776 C742 1.395 1_556 S
C776 C746 1.391 . S
C777 C739 1.389 . S
C777 C759 1.392 . S
C778 C749 1.392 . S
C778 C751 1.389 . S
C779 C754 1.395 . S
C779 C756 1.391 . S
H780 C740 0.951 . S
H781 C741 0.950 . S
H782 C747 0.949 . S
H783 C748 0.950 . S
H784 C752 0.951 . S
H785 C753 0.950 . S
H786 C757 0.949 . S
H787 C758 0.950 . S
H788 C762 0.950 . S
H789 C764 0.950 . S
H790 C767 0.950 . S
H791 C769 0.950 . S
H792 C798 0.930 . S
H793 C801 0.930 . S
H794 C802 0.930 . S
H795 C803 0.930 . S
H796 C806 0.930 . S
H797 C807 0.930 . S
C798 H792 0.930 . S
C798 C799 1.355 . S
C798 C800 1.415 . S
C799 C798 1.355 . S
C799 C801 1.419 . S
C800 C798 1.415 . S
C800 C805 1.425 . S
C800 C807 1.409 . S
C801 H793 0.930 . S
C801 C799 1.419 . S
C801 C802 1.362 . S
C802 H794 0.930 . S
C802 C801 1.362 . S
C802 C805 1.409 . S
C803 H795 0.930 . S
C803 C804 1.355 . S
C803 C805 1.415 . S
C804 C803 1.355 . S
C804 C806 1.419 . S
C805 C800 1.425 . S
C805 C802 1.409 . S
C805 C803 1.415 . S
C806 H796 0.930 . S
C806 C804 1.419 . S
C806 C807 1.362 . S
C807 H797 0.930 . S
C807 C800 1.409 . S
C807 C806 1.362 . S
H808 C814 0.930 . S
H809 C817 0.930 . S
H810 C818 0.930 . S
H811 C819 0.930 . S
H812 C822 0.930 . S
H813 C823 0.930 . S
C814 H808 0.930 . S
C814 C815 1.355 . S
C814 C816 1.415 . S
C815 C814 1.355 . S
C815 C817 1.419 . S
C816 C814 1.415 . S
C816 C821 1.425 . S
C816 C823 1.409 . S
C817 H809 0.930 . S
C817 C815 1.419 . S
C817 C818 1.362 . S
C818 H810 0.930 . S
C818 C817 1.362 . S
C818 C821 1.409 . S
C819 H811 0.930 . S
C819 C820 1.355 . S
C819 C821 1.415 . S
C820 C819 1.355 . S
C820 C822 1.419 . S
C821 C816 1.425 . S
C821 C818 1.409 . S
C821 C819 1.415 . S
C822 H812 0.930 . S
C822 C820 1.419 . S
C822 C823 1.362 . S
C823 H813 0.930 . S
C823 C816 1.409 . S
C823 C822 1.362 . S
H824 C830 0.930 . S
H825 C833 0.930 . S
H826 C834 0.930 . S
H827 C835 0.930 . S
H828 C838 0.930 . S
H829 C839 0.930 . S
C830 H824 0.930 . S
C830 C831 1.355 . S
C830 C832 1.415 . S
C831 C830 1.355 . S
C831 C833 1.419 . S
C832 C830 1.415 . S
C832 C837 1.425 . S
C832 C839 1.409 . S
C833 H825 0.930 . S
C833 C831 1.419 . S
C833 C834 1.362 . S
C834 H826 0.930 . S
C834 C833 1.362 . S
C834 C837 1.409 . S
C835 H827 0.930 . S
C835 C836 1.355 . S
C835 C837 1.415 . S
C836 C835 1.355 . S
C836 C838 1.419 . S
C837 C832 1.425 . S
C837 C834 1.409 . S
C837 C835 1.415 . S
C838 H828 0.930 . S
C838 C836 1.419 . S
C838 C839 1.362 . S
C839 H829 0.930 . S
C839 C832 1.409 . S
C839 C838 1.362 . S
H840 C846 0.930 . S
H841 C849 0.930 . S
H842 C850 0.930 . S
H843 C851 0.930 . S
H844 C854 0.930 . S
H845 C855 0.930 . S
C846 H840 0.930 . S
C846 C847 1.355 . S
C846 C848 1.415 . S
C847 C846 1.355 . S
C847 C849 1.419 . S
C848 C846 1.415 . S
C848 C853 1.425 . S
C848 C855 1.409 . S
C849 H841 0.930 . S
C849 C847 1.419 . S
C849 C850 1.362 . S
C850 H842 0.930 . S
C850 C849 1.362 . S
C850 C853 1.409 . S
C851 H843 0.930 . S
C851 C852 1.355 . S
C851 C853 1.415 . S
C852 C851 1.355 . S
C852 C854 1.419 . S
C853 C848 1.425 . S
C853 C850 1.409 . S
C853 C851 1.415 . S
C854 H844 0.930 . S
C854 C852 1.419 . S
C854 C855 1.362 . S
C855 H845 0.930 . S
C855 C848 1.409 . S
C855 C854 1.362 . S
H856 C862 0.930 . S
H857 C865 0.930 . S
H858 C866 0.930 . S
H859 C867 0.930 . S
H860 C870 0.930 . S
H861 C871 0.930 . S
C862 H856 0.930 . S
C862 C863 1.355 . S
C862 C864 1.415 . S
C863 C862 1.355 . S
C863 C865 1.419 . S
C864 C862 1.415 . S
C864 C869 1.425 . S
C864 C871 1.409 . S
C865 H857 0.930 . S
C865 C863 1.419 . S
C865 C866 1.362 . S
C866 H858 0.930 . S
C866 C865 1.362 . S
C866 C869 1.409 . S
C867 H859 0.930 . S
C867 C868 1.355 . S
C867 C869 1.415 . S
C868 C867 1.355 . S
C868 C870 1.419 . S
C869 C864 1.425 . S
C869 C866 1.409 . S
C869 C867 1.415 . S
C870 H860 0.930 . S
C870 C868 1.419 . S
C870 C871 1.362 . S
C871 H861 0.930 . S
C871 C864 1.409 . S
C871 C870 1.362 . S
H872 C878 0.930 . S
H873 C881 0.930 . S
H874 C882 0.930 . S
H875 C883 0.930 . S
H876 C886 0.930 . S
H877 C887 0.930 . S
C878 H872 0.930 . S
C878 C879 1.355 . S
C878 C880 1.415 . S
C879 C878 1.355 . S
C879 C881 1.419 . S
C880 C878 1.415 . S
C880 C885 1.425 . S
C880 C887 1.409 . S
C881 H873 0.930 . S
C881 C879 1.419 . S
C881 C882 1.362 . S
C882 H874 0.930 . S
C882 C881 1.362 . S
C882 C885 1.409 . S
C883 H875 0.930 . S
C883 C884 1.355 . S
C883 C885 1.415 . S
C884 C883 1.355 . S
C884 C886 1.419 . S
C885 C880 1.425 . S
C885 C882 1.409 . S
C885 C883 1.415 . S
C886 H876 0.930 . S
C886 C884 1.419 . S
C886 C887 1.362 . S
C887 H877 0.930 . S
C887 C880 1.409 . S
C887 C886 1.362 . S
H888 C894 0.930 . S
H889 C897 0.930 . S
H890 C898 0.930 . S
H891 C899 0.930 . S
H892 C902 0.930 . S
H893 C903 0.930 . S
C894 H888 0.930 . S
C894 C895 1.355 . S
C894 C896 1.415 . S
C895 C894 1.355 . S
C895 C897 1.419 . S
C896 C894 1.415 . S
C896 C901 1.425 . S
C896 C903 1.409 . S
C897 H889 0.930 . S
C897 C895 1.419 . S
C897 C898 1.362 . S
C898 H890 0.930 . S
C898 C897 1.362 . S
C898 C901 1.409 . S
C899 H891 0.930 . S
C899 C900 1.355 . S
C899 C901 1.415 . S
C900 C899 1.355 . S
C900 C902 1.419 . S
C901 C896 1.425 . S
C901 C898 1.409 . S
C901 C899 1.415 . S
C902 H892 0.930 . S
C902 C900 1.419 . S
C902 C903 1.362 . S
C903 H893 0.930 . S
C903 C896 1.409 . S
C903 C902 1.362 . S
H904 C910 0.930 . S
H905 C913 0.930 . S
H906 C914 0.930 . S
H907 C915 0.930 . S
H908 C918 0.930 . S
H909 C919 0.930 . S
C910 H904 0.930 . S
C910 C911 1.355 . S
C910 C912 1.415 . S
C911 C910 1.355 . S
C911 C913 1.419 . S
C912 C910 1.415 . S
C912 C917 1.425 . S
C912 C919 1.409 . S
C913 H905 0.930 . S
C913 C911 1.419 . S
C913 C914 1.362 . S
C914 H906 0.930 . S
C914 C913 1.362 . S
C914 C917 1.409 . S
C915 H907 0.930 . S
C915 C916 1.355 . S
C915 C917 1.415 . S
C916 C915 1.355 . S
C916 C918 1.419 . S
C917 C912 1.425 . S
C917 C914 1.409 . S
C917 C915 1.415 . S
C918 H908 0.930 . S
C918 C916 1.419 . S
C918 C919 1.362 . S
C919 H909 0.930 . S
C919 C912 1.409 . S
C919 C918 1.362 . S
H920 C926 0.930 . S
H921 C929 0.930 . S
H922 C930 0.930 . S
H923 C931 0.930 . S
H924 C934 0.930 . S
H925 C935 0.930 . S
C926 H920 0.930 . S
C926 C927 1.355 . S
C926 C928 1.415 . S
C927 C926 1.355 . S
C927 C929 1.419 . S
C928 C926 1.415 . S
C928 C933 1.425 . S
C928 C935 1.409 . S
C929 H921 0.930 . S
C929 C927 1.419 . S
C929 C930 1.362 . S
C930 H922 0.930 . S
C930 C929 1.362 . S
C930 C933 1.409 . S
C931 H923 0.930 . S
C931 C932 1.355 . S
C931 C933 1.415 . S
C932 C931 1.355 . S
C932 C934 1.419 . S
C933 C928 1.425 . S
C933 C930 1.409 . S
C933 C931 1.415 . S
C934 H924 0.930 . S
C934 C932 1.419 . S
C934 C935 1.362 . S
C935 H925 0.930 . S
C935 C928 1.409 . S
C935 C934 1.362 . S
H936 C942 0.930 . S
H937 C945 0.930 . S
H938 C946 0.930 . S
H939 C947 0.930 . S
H940 C950 0.930 . S
H941 C951 0.930 . S
C942 H936 0.930 . S
C942 C943 1.355 . S
C942 C944 1.415 . S
C943 C942 1.355 . S
C943 C945 1.419 . S
C944 C942 1.415 . S
C944 C949 1.425 . S
C944 C951 1.409 . S
C945 H937 0.930 . S
C945 C943 1.419 . S
C945 C946 1.362 . S
C946 H938 0.930 . S
C946 C945 1.362 . S
C946 C949 1.409 . S
C947 H939 0.930 . S
C947 C948 1.355 . S
C947 C949 1.415 . S
C948 C947 1.355 . S
C948 C950 1.419 . S
C949 C944 1.425 . S
C949 C946 1.409 . S
C949 C947 1.415 . S
C950 H940 0.930 . S
C950 C948 1.419 . S
C950 C951 1.362 . S
C951 H941 0.930 . S
C951 C944 1.409 . S
C951 C950 1.362 . S
H952 C958 0.930 . S
H953 C961 0.930 . S
H954 C962 0.930 . S
H955 C963 0.930 . S
H956 C966 0.930 . S
H957 C967 0.930 . S
C958 H952 0.930 . S
C958 C959 1.355 . S
C958 C960 1.415 . S
C959 C958 1.355 . S
C959 C961 1.419 . S
C960 C958 1.415 . S
C960 C965 1.425 . S
C960 C967 1.409 . S
C961 H953 0.930 . S
C961 C959 1.419 . S
C961 C962 1.362 . S
C962 H954 0.930 . S
C962 C961 1.362 . S
C962 C965 1.409 . S
C963 H955 0.930 . S
C963 C964 1.355 . S
C963 C965 1.415 . S
C964 C963 1.355 . S
C964 C966 1.419 . S
C965 C960 1.425 . S
C965 C962 1.409 . S
C965 C963 1.415 . S
C966 H956 0.930 . S
C966 C964 1.419 . S
C966 C967 1.362 . S
C967 H957 0.930 . S
C967 C960 1.409 . S
C967 C966 1.362 . S
H968 C974 0.930 . S
H969 C977 0.930 . S
H970 C978 0.930 . S
H971 C979 0.930 . S
H972 C982 0.930 . S
H973 C983 0.930 . S
C974 H968 0.930 . S
C974 C975 1.355 . S
C974 C976 1.415 . S
C975 C974 1.355 . S
C975 C977 1.419 . S
C976 C974 1.415 . S
C976 C981 1.425 . S
C976 C983 1.409 . S
C977 H969 0.930 . S
C977 C975 1.419 . S
C977 C978 1.362 . S
C978 H970 0.930 . S
C978 C977 1.362 . S
C978 C981 1.409 . S
C979 H971 0.930 . S
C979 C980 1.355 . S
C979 C981 1.415 . S
C980 C979 1.355 . S
C980 C982 1.419 . S
C981 C976 1.425 . S
C981 C978 1.409 . S
C981 C979 1.415 . S
C982 H972 0.930 . S
C982 C980 1.419 . S
C982 C983 1.362 . S
C983 H973 0.930 . S
C983 C976 1.409 . S
C983 C982 1.362 . S
H984 C990 0.930 . S
H985 C993 0.930 . S
H986 C994 0.930 . S
H987 C995 0.930 . S
H988 C998 0.930 . S
H989 C999 0.930 . S
C990 H984 0.930 . S
C990 C991 1.355 . S
C990 C992 1.415 . S
C991 C990 1.355 . S
C991 C993 1.419 . S
C992 C990 1.415 . S
C992 C997 1.425 . S
C992 C999 1.409 . S
C993 H985 0.930 . S
C993 C991 1.419 . S
C993 C994 1.362 . S
C994 H986 0.930 . S
C994 C993 1.362 . S
C994 C997 1.409 . S
C995 H987 0.930 . S
C995 C996 1.355 . S
C995 C997 1.415 . S
C996 C995 1.355 . S
C996 C998 1.419 . S
C997 C992 1.425 . S
C997 C994 1.409 . S
C997 C995 1.415 . S
C998 H988 0.930 . S
C998 C996 1.419 . S
C998 C999 1.362 . S
C999 H989 0.930 . S
C999 C992 1.409 . S
C999 C998 1.362 . S
H1000 C1006 0.930 . S
H1001 C1009 0.930 . S
H1002 C1010 0.930 . S
H1003 C1011 0.930 . S
H1004 C1014 0.930 . S
H1005 C1015 0.930 . S
C1006 H1000 0.930 . S
C1006 C1007 1.355 . S
C1006 C1008 1.415 . S
C1007 C1006 1.355 . S
C1007 C1009 1.419 . S
C1008 C1006 1.415 . S
C1008 C1013 1.425 . S
C1008 C1015 1.409 . S
C1009 H1001 0.930 . S
C1009 C1007 1.419 . S
C1009 C1010 1.362 . S
C1010 H1002 0.930 . S
C1010 C1009 1.362 . S
C1010 C1013 1.409 . S
C1011 H1003 0.930 . S
C1011 C1012 1.355 . S
C1011 C1013 1.415 . S
C1012 C1011 1.355 . S
C1012 C1014 1.419 . S
C1013 C1008 1.425 . S
C1013 C1010 1.409 . S
C1013 C1011 1.415 . S
C1014 H1004 0.930 . S
C1014 C1012 1.419 . S
C1014 C1015 1.362 . S
C1015 H1005 0.930 . S
C1015 C1008 1.409 . S
C1015 C1014 1.362 . S
H1016 C1022 0.930 . S
H1017 C1025 0.930 . S
H1018 C1026 0.930 . S
H1019 C1027 0.930 . S
H1020 C1030 0.930 . S
H1021 C1031 0.930 . S
C1022 H1016 0.930 . S
C1022 C1023 1.355 . S
C1022 C1024 1.415 . S
C1023 C1022 1.355 . S
C1023 C1025 1.419 . S
C1024 C1022 1.415 . S
C1024 C1029 1.425 . S
C1024 C1031 1.409 . S
C1025 H1017 0.930 . S
C1025 C1023 1.419 . S
C1025 C1026 1.362 . S
C1026 H1018 0.930 . S
C1026 C1025 1.362 . S
C1026 C1029 1.409 . S
C1027 H1019 0.930 . S
C1027 C1028 1.355 . S
C1027 C1029 1.415 . S
C1028 C1027 1.355 . S
C1028 C1030 1.419 . S
C1029 C1024 1.425 . S
C1029 C1026 1.409 . S
C1029 C1027 1.415 . S
C1030 H1020 0.930 . S
C1030 C1028 1.419 . S
C1030 C1031 1.362 . S
C1031 H1021 0.930 . S
C1031 C1024 1.409 . S
C1031 C1030 1.362 . S
H1032 C1038 0.930 . S
H1033 C1041 0.930 . S
H1034 C1042 0.930 . S
H1035 C1043 0.930 . S
H1036 C1046 0.930 . S
H1037 C1047 0.930 . S
C1038 H1032 0.930 . S
C1038 C1039 1.355 . S
C1038 C1040 1.415 . S
C1039 C1038 1.355 . S
C1039 C1041 1.419 . S
C1040 C1038 1.415 . S
C1040 C1045 1.425 . S
C1040 C1047 1.409 . S
C1041 H1033 0.930 . S
C1041 C1039 1.419 . S
C1041 C1042 1.362 . S
C1042 H1034 0.930 . S
C1042 C1041 1.362 . S
C1042 C1045 1.409 . S
C1043 H1035 0.930 . S
C1043 C1044 1.355 . S
C1043 C1045 1.415 . S
C1044 C1043 1.355 . S
C1044 C1046 1.419 . S
C1045 C1040 1.425 . S
C1045 C1042 1.409 . S
C1045 C1043 1.415 . S
C1046 H1036 0.930 . S
C1046 C1044 1.419 . S
C1046 C1047 1.362 . S
C1047 H1037 0.930 . S
C1047 C1040 1.409 . S
C1047 C1046 1.362 . S
H1048 C1054 0.930 . S
H1049 C1057 0.930 . S
H1050 C1058 0.930 . S
H1051 C1059 0.930 . S
H1052 C1062 0.930 . S
H1053 C1063 0.930 . S
C1054 H1048 0.930 . S
C1054 C1055 1.355 . S
C1054 C1056 1.415 . S
C1055 C1054 1.355 . S
C1055 C1057 1.419 . S
C1056 C1054 1.415 . S
C1056 C1061 1.425 . S
C1056 C1063 1.409 . S
C1057 H1049 0.930 . S
C1057 C1055 1.419 . S
C1057 C1058 1.362 . S
C1058 H1050 0.930 . S
C1058 C1057 1.362 . S
C1058 C1061 1.409 . S
C1059 H1051 0.930 . S
C1059 C1060 1.355 . S
C1059 C1061 1.415 . S
C1060 C1059 1.355 . S
C1060 C1062 1.419 . S
C1061 C1056 1.425 . S
C1061 C1058 1.409 . S
C1061 C1059 1.415 . S
C1062 H1052 0.930 . S
C1062 C1060 1.419 . S
C1062 C1063 1.362 . S
C1063 H1053 0.930 . S
C1063 C1056 1.409 . S
C1063 C1062 1.362 . S
H1064 C1070 0.930 . S
H1065 C1073 0.930 . S
H1066 C1074 0.930 . S
H1067 C1075 0.930 . S
H1068 C1078 0.930 . S
H1069 C1079 0.930 . S
C1070 H1064 0.930 . S
C1070 C1071 1.355 . S
C1070 C1072 1.415 . S
C1071 C1070 1.355 . S
C1071 C1073 1.419 . S
C1072 C1070 1.415 . S
C1072 C1077 1.425 . S
C1072 C1079 1.409 . S
C1073 H1065 0.930 . S
C1073 C1071 1.419 . S
C1073 C1074 1.362 . S
C1074 H1066 0.930 . S
C1074 C1073 1.362 . S
C1074 C1077 1.409 . S
C1075 H1067 0.930 . S
C1075 C1076 1.355 . S
C1075 C1077 1.415 . S
C1076 C1075 1.355 . S
C1076 C1078 1.419 . S
C1077 C1072 1.425 . S
C1077 C1074 1.409 . S
C1077 C1075 1.415 . S
C1078 H1068 0.930 . S
C1078 C1076 1.419 . S
C1078 C1079 1.362 . S
C1079 H1069 0.930 . S
C1079 C1072 1.409 . S
C1079 C1078 1.362 . S
H1080 C1086 0.930 . S
H1081 C1089 0.930 . S
H1082 C1090 0.930 . S
H1083 C1091 0.930 . S
H1084 C1094 0.930 . S
H1085 C1095 0.930 . S
C1086 H1080 0.930 . S
C1086 C1087 1.355 . S
C1086 C1088 1.415 . S
C1087 C1086 1.355 . S
C1087 C1089 1.419 . S
C1088 C1086 1.415 . S
C1088 C1093 1.425 . S
C1088 C1095 1.409 . S
C1089 H1081 0.930 . S
C1089 C1087 1.419 . S
C1089 C1090 1.362 . S
C1090 H1082 0.930 . S
C1090 C1089 1.362 . S
C1090 C1093 1.409 . S
C1091 H1083 0.930 . S
C1091 C1092 1.355 . S
C1091 C1093 1.415 . S
C1092 C1091 1.355 . S
C1092 C1094 1.419 . S
C1093 C1088 1.425 . S
C1093 C1090 1.409 . S
C1093 C1091 1.415 . S
C1094 H1084 0.930 . S
C1094 C1092 1.419 . S
C1094 C1095 1.362 . S
C1095 H1085 0.930 . S
C1095 C1088 1.409 . S
C1095 C1094 1.362 . S
H1096 C1102 0.930 . S
H1097 C1105 0.930 . S
H1098 C1106 0.930 . S
H1099 C1107 0.930 . S
H1100 C1110 0.930 . S
H1101 C1111 0.930 . S
C1102 H1096 0.930 . S
C1102 C1103 1.355 . S
C1102 C1104 1.415 . S
C1103 C1102 1.355 . S
C1103 C1105 1.419 . S
C1104 C1102 1.415 . S
C1104 C1109 1.425 . S
C1104 C1111 1.409 . S
C1105 H1097 0.930 . S
C1105 C1103 1.419 . S
C1105 C1106 1.362 . S
C1106 H1098 0.930 . S
C1106 C1105 1.362 . S
C1106 C1109 1.409 . S
C1107 H1099 0.930 . S
C1107 C1108 1.355 . S
C1107 C1109 1.415 . S
C1108 C1107 1.355 . S
C1108 C1110 1.419 . S
C1109 C1104 1.425 . S
C1109 C1106 1.409 . S
C1109 C1107 1.415 . S
C1110 H1100 0.930 . S
C1110 C1108 1.419 . S
C1110 C1111 1.362 . S
C1111 H1101 0.930 . S
C1111 C1104 1.409 . S
C1111 C1110 1.362 . S
H1112 C1118 0.930 . S
H1113 C1121 0.930 . S
H1114 C1122 0.930 . S
H1115 C1123 0.930 . S
H1116 C1126 0.930 . S
H1117 C1127 0.930 . S
C1118 H1112 0.930 . S
C1118 C1119 1.355 . S
C1118 C1120 1.415 . S
C1119 C1118 1.355 . S
C1119 C1121 1.419 . S
C1120 C1118 1.415 . S
C1120 C1125 1.425 . S
C1120 C1127 1.409 . S
C1121 H1113 0.930 . S
C1121 C1119 1.419 . S
C1121 C1122 1.362 . S
C1122 H1114 0.930 . S
C1122 C1121 1.362 . S
C1122 C1125 1.409 . S
C1123 H1115 0.930 . S
C1123 C1124 1.355 . S
C1123 C1125 1.415 . S
C1124 C1123 1.355 . S
C1124 C1126 1.419 . S
C1125 C1120 1.425 . S
C1125 C1122 1.409 . S
C1125 C1123 1.415 . S
C1126 H1116 0.930 . S
C1126 C1124 1.419 . S
C1126 C1127 1.362 . S
C1127 H1117 0.930 . S
C1127 C1120 1.409 . S
C1127 C1126 1.362 . S
H1128 C1134 0.930 . S
H1129 C1137 0.930 . S
H1130 C1138 0.930 . S
H1131 C1139 0.930 . S
H1132 C1142 0.930 . S
H1133 C1143 0.930 . S
C1134 H1128 0.930 . S
C1134 C1135 1.355 . S
C1134 C1136 1.415 . S
C1135 C1134 1.355 . S
C1135 C1137 1.419 . S
C1136 C1134 1.415 . S
C1136 C1141 1.425 . S
C1136 C1143 1.409 . S
C1137 H1129 0.930 . S
C1137 C1135 1.419 . S
C1137 C1138 1.362 . S
C1138 H1130 0.930 . S
C1138 C1137 1.362 . S
C1138 C1141 1.409 . S
C1139 H1131 0.930 . S
C1139 C1140 1.355 . S
C1139 C1141 1.415 . S
C1140 C1139 1.355 . S
C1140 C1142 1.419 . S
C1141 C1136 1.425 . S
C1141 C1138 1.409 . S
C1141 C1139 1.415 . S
C1142 H1132 0.930 . S
C1142 C1140 1.419 . S
C1142 C1143 1.362 . S
C1143 H1133 0.930 . S
C1143 C1136 1.409 . S
C1143 C1142 1.362 . S
H1144 C1150 0.930 . S
H1145 C1153 0.930 . S
H1146 C1154 0.930 . S
H1147 C1155 0.930 . S
H1148 C1158 0.930 . S
H1149 C1159 0.930 . S
C1150 H1144 0.930 . S
C1150 C1151 1.355 . S
C1150 C1152 1.415 . S
C1151 C1150 1.355 . S
C1151 C1153 1.419 . S
C1152 C1150 1.415 . S
C1152 C1157 1.425 . S
C1152 C1159 1.409 . S
C1153 H1145 0.930 . S
C1153 C1151 1.419 . S
C1153 C1154 1.362 . S
C1154 H1146 0.930 . S
C1154 C1153 1.362 . S
C1154 C1157 1.409 . S
C1155 H1147 0.930 . S
C1155 C1156 1.355 . S
C1155 C1157 1.415 . S
C1156 C1155 1.355 . S
C1156 C1158 1.419 . S
C1157 C1152 1.425 . S
C1157 C1154 1.409 . S
C1157 C1155 1.415 . S
C1158 H1148 0.930 . S
C1158 C1156 1.419 . S
C1158 C1159 1.362 . S
C1159 H1149 0.930 . S
C1159 C1152 1.409 . S
C1159 C1158 1.362 . S
H1160 C1166 0.930 . S
H1161 C1169 0.930 . S
H1162 C1170 0.930 . S
H1163 C1171 0.930 . S
H1164 C1174 0.930 . S
H1165 C1175 0.930 . S
C1166 H1160 0.930 . S
C1166 C1167 1.355 . S
C1166 C1168 1.415 . S
C1167 C1166 1.355 . S
C1167 C1169 1.419 . S
C1168 C1166 1.415 . S
C1168 C1173 1.425 . S
C1168 C1175 1.409 . S
C1169 H1161 0.930 . S
C1169 C1167 1.419 . S
C1169 C1170 1.362 . S
C1170 H1162 0.930 . S
C1170 C1169 1.362 . S
C1170 C1173 1.409 . S
C1171 H1163 0.930 . S
C1171 C1172 1.355 . S
C1171 C1173 1.415 . S
C1172 C1171 1.355 . S
C1172 C1174 1.419 . S
C1173 C1168 1.425 . S
C1173 C1170 1.409 . S
C1173 C1171 1.415 . S
C1174 H1164 0.930 . S
C1174 C1172 1.419 . S
C1174 C1175 1.362 . S
C1175 H1165 0.930 . S
C1175 C1168 1.409 . S
C1175 C1174 1.362 . S
H1176 C1182 0.930 . S
H1177 C1185 0.930 . S
H1178 C1186 0.930 . S
H1179 C1187 0.930 . S
H1180 C1190 0.930 . S
H1181 C1191 0.930 . S
C1182 H1176 0.930 . S
C1182 C1183 1.355 . S
C1182 C1184 1.415 . S
C1183 C1182 1.355 . S
C1183 C1185 1.419 . S
C1184 C1182 1.415 . S
C1184 C1189 1.425 . S
C1184 C1191 1.409 . S
C1185 H1177 0.930 . S
C1185 C1183 1.419 . S
C1185 C1186 1.362 . S
C1186 H1178 0.930 . S
C1186 C1185 1.362 . S
C1186 C1189 1.409 . S
C1187 H1179 0.930 . S
C1187 C1188 1.355 . S
C1187 C1189 1.415 . S
C1188 C1187 1.355 . S
C1188 C1190 1.419 . S
C1189 C1184 1.425 . S
C1189 C1186 1.409 . S
C1189 C1187 1.415 . S
C1190 H1180 0.930 . S
C1190 C1188 1.419 . S
C1190 C1191 1.362 . S
C1191 H1181 0.930 . S
C1191 C1184 1.409 . S
C1191 C1190 1.362 . S
H1192 C1198 0.930 . S
H1193 C1201 0.930 . S
H1194 C1202 0.930 . S
H1195 C1203 0.930 . S
H1196 C1206 0.930 . S
H1197 C1207 0.930 . S
C1198 H1192 0.930 . S
C1198 C1199 1.355 . S
C1198 C1200 1.415 . S
C1199 C1198 1.355 . S
C1199 C1201 1.419 . S
C1200 C1198 1.415 . S
C1200 C1205 1.425 . S
C1200 C1207 1.409 . S
C1201 H1193 0.930 . S
C1201 C1199 1.419 . S
C1201 C1202 1.362 . S
C1202 H1194 0.930 . S
C1202 C1201 1.362 . S
C1202 C1205 1.409 . S
C1203 H1195 0.930 . S
C1203 C1204 1.355 . S
C1203 C1205 1.415 . S
C1204 C1203 1.355 . S
C1204 C1206 1.419 . S
C1205 C1200 1.425 . S
C1205 C1202 1.409 . S
C1205 C1203 1.415 . S
C1206 H1196 0.930 . S
C1206 C1204 1.419 . S
C1206 C1207 1.362 . S
C1207 H1197 0.930 . S
C1207 C1200 1.409 . S
C1207 C1206 1.362 . S
H1208 C1214 0.930 . S
H1209 C1217 0.930 . S
H1210 C1218 0.930 . S
H1211 C1219 0.930 . S
H1212 C1222 0.930 . S
H1213 C1223 0.930 . S
C1214 H1208 0.930 . S
C1214 C1215 1.355 . S
C1214 C1216 1.415 . S
C1215 C1214 1.355 . S
C1215 C1217 1.419 . S
C1216 C1214 1.415 . S
C1216 C1221 1.425 . S
C1216 C1223 1.409 . S
C1217 H1209 0.930 . S
C1217 C1215 1.419 . S
C1217 C1218 1.362 . S
C1218 H1210 0.930 . S
C1218 C1217 1.362 . S
C1218 C1221 1.409 . S
C1219 H1211 0.930 . S
C1219 C1220 1.355 . S
C1219 C1221 1.415 . S
C1220 C1219 1.355 . S
C1220 C1222 1.419 . S
C1221 C1216 1.425 . S
C1221 C1218 1.409 . S
C1221 C1219 1.415 . S
C1222 H1212 0.930 . S
C1222 C1220 1.419 . S
C1222 C1223 1.362 . S
C1223 H1213 0.930 . S
C1223 C1216 1.409 . S
C1223 C1222 1.362 . S
H1224 C1230 0.930 . S
H1225 C1233 0.930 . S
H1226 C1234 0.930 . S
H1227 C1235 0.930 . S
H1228 C1238 0.930 . S
H1229 C1239 0.930 . S
C1230 H1224 0.930 . S
C1230 C1231 1.355 . S
C1230 C1232 1.415 . S
C1231 C1230 1.355 . S
C1231 C1233 1.419 . S
C1232 C1230 1.415 . S
C1232 C1237 1.425 . S
C1232 C1239 1.409 . S
C1233 H1225 0.930 . S
C1233 C1231 1.419 . S
C1233 C1234 1.362 . S
C1234 H1226 0.930 . S
C1234 C1233 1.362 . S
C1234 C1237 1.409 . S
C1235 H1227 0.930 . S
C1235 C1236 1.355 . S
C1235 C1237 1.415 . S
C1236 C1235 1.355 . S
C1236 C1238 1.419 . S
C1237 C1232 1.425 . S
C1237 C1234 1.409 . S
C1237 C1235 1.415 . S
C1238 H1228 0.930 . S
C1238 C1236 1.419 . S
C1238 C1239 1.362 . S
C1239 H1229 0.930 . S
C1239 C1232 1.409 . S
C1239 C1238 1.362 . S
H1240 C1246 0.930 . S
H1241 C1249 0.930 . S
H1242 C1250 0.930 . S
H1243 C1251 0.930 . S
H1244 C1254 0.930 . S
H1245 C1255 0.930 . S
C1246 H1240 0.930 . S
C1246 C1247 1.355 . S
C1246 C1248 1.415 . S
C1247 C1246 1.355 . S
C1247 C1249 1.419 . S
C1248 C1246 1.415 . S
C1248 C1253 1.425 . S
C1248 C1255 1.409 . S
C1249 H1241 0.930 . S
C1249 C1247 1.419 . S
C1249 C1250 1.362 . S
C1250 H1242 0.930 . S
C1250 C1249 1.362 . S
C1250 C1253 1.409 . S
C1251 H1243 0.930 . S
C1251 C1252 1.355 . S
C1251 C1253 1.415 . S
C1252 C1251 1.355 . S
C1252 C1254 1.419 . S
C1253 C1248 1.425 . S
C1253 C1250 1.409 . S
C1253 C1251 1.415 . S
C1254 H1244 0.930 . S
C1254 C1252 1.419 . S
C1254 C1255 1.362 . S
C1255 H1245 0.930 . S
C1255 C1248 1.409 . S
C1255 C1254 1.362 . S
H1256 C1262 0.930 . S
H1257 C1265 0.930 . S
H1258 C1266 0.930 . S
H1259 C1267 0.930 . S
H1260 C1270 0.930 . S
H1261 C1271 0.930 . S
C1262 H1256 0.930 . S
C1262 C1263 1.355 . S
C1262 C1264 1.415 . S
C1263 C1262 1.355 . S
C1263 C1265 1.419 . S
C1264 C1262 1.415 . S
C1264 C1269 1.425 . S
C1264 C1271 1.409 . S
C1265 H1257 0.930 . S
C1265 C1263 1.419 . S
C1265 C1266 1.362 . S
C1266 H1258 0.930 . S
C1266 C1265 1.362 . S
C1266 C1269 1.409 . S
C1267 H1259 0.930 . S
C1267 C1268 1.355 . S
C1267 C1269 1.415 . S
C1268 C1267 1.355 . S
C1268 C1270 1.419 . S
C1269 C1264 1.425 . S
C1269 C1266 1.409 . S
C1269 C1267 1.415 . S
C1270 H1260 0.930 . S
C1270 C1268 1.419 . S
C1270 C1271 1.362 . S
C1271 H1261 0.930 . S
C1271 C1264 1.409 . S
C1271 C1270 1.362 . S
H1272 C1278 0.930 . S
H1273 C1281 0.930 . S
H1274 C1282 0.930 . S
H1275 C1283 0.930 . S
H1276 C1286 0.930 . S
H1277 C1287 0.930 . S
C1278 H1272 0.930 . S
C1278 C1279 1.355 . S
C1278 C1280 1.415 . S
C1279 C1278 1.355 . S
C1279 C1281 1.419 . S
C1280 C1278 1.415 . S
C1280 C1285 1.425 . S
C1280 C1287 1.409 . S
C1281 H1273 0.930 . S
C1281 C1279 1.419 . S
C1281 C1282 1.362 . S
C1282 H1274 0.930 . S
C1282 C1281 1.362 . S
C1282 C1285 1.409 . S
C1283 H1275 0.930 . S
C1283 C1284 1.355 . S
C1283 C1285 1.415 . S
C1284 C1283 1.355 . S
C1284 C1286 1.419 . S
C1285 C1280 1.425 . S
C1285 C1282 1.409 . S
C1285 C1283 1.415 . S
C1286 H1276 0.930 . S
C1286 C1284 1.419 . S
C1286 C1287 1.362 . S
C1287 H1277 0.930 . S
C1287 C1280 1.409 . S
C1287 C1286 1.362 . S
H1288 C1294 0.930 . S
H1289 C1297 0.930 . S
H1290 C1298 0.930 . S
H1291 C1299 0.930 . S
H1292 C1302 0.930 . S
H1293 C1303 0.930 . S
C1294 H1288 0.930 . S
C1294 C1295 1.355 . S
C1294 C1296 1.415 . S
C1295 C1294 1.355 . S
C1295 C1297 1.419 . S
C1296 C1294 1.415 . S
C1296 C1301 1.425 . S
C1296 C1303 1.409 . S
C1297 H1289 0.930 . S
C1297 C1295 1.419 . S
C1297 C1298 1.362 . S
C1298 H1290 0.930 . S
C1298 C1297 1.362 . S
C1298 C1301 1.409 . S
C1299 H1291 0.930 . S
C1299 C1300 1.355 . S
C1299 C1301 1.415 . S
C1300 C1299 1.355 . S
C1300 C1302 1.419 . S
C1301 C1296 1.425 . S
C1301 C1298 1.409 . S
C1301 C1299 1.415 . S
C1302 H1292 0.930 . S
C1302 C1300 1.419 . S
C1302 C1303 1.362 . S
C1303 H1293 0.930 . S
C1303 C1296 1.409 . S
C1303 C1302 1.362 . S
C804 C397 1.466 . S
C799 C15 1.464 . S
C820 C450 1.307 . S
C815 C68 1.297 . S
C836 C513 1.527 . S
C831 C107 1.536 . S
C852 C556 1.247 . S
C847 C160 1.237 . S
C863 C185 1.532 . S
C868 C512 1.534 . S
C884 C549 1.318 . S
C879 C252 1.310 . S
C900 C390 1.469 . S
C895 C277 1.469 . S
C916 C443 1.232 . S
C911 C330 1.226 . S
C932 C496 1.473 . S
C927 C323 1.463 . S
C948 C565 1.791 . S
C943 C192 1.795 . S
C964 C406 1.548 . S
C959 C245 1.546 . S
C980 C459 1.725 . S
C975 C284 1.732 . S
C996 C407 1.536 . S
C991 C61 1.534 . S
C1012 C460 1.792 . S
C1007 C114 1.794 . S
C1028 C503 1.480 . S
C1023 C153 1.476 . S
C1044 C566 1.710 . S
C1039 C22 1.706 . S
C1060 C609 1.439 . S
C1055 C337 1.434 . S
C1071 C206 1.657 . S
C1076 C662 1.666 . S
C1087 C231 1.586 . S
C1092 C724 1.583 . S
C1103 C298 1.670 . S
C1108 C778 1.677 . S
C1119 C47 1.510 . S
C1124 C725 1.511 . S
C1135 C100 1.752 . S
C1140 C777 1.755 . S
C1151 C139 1.504 . S
C1156 C602 1.506 . S
C1172 C655 1.595 . S
C1167 C8 1.598 . S
C1188 C715 1.450 . S
C1183 C1 1.446 . S
C1199 C54 1.363 . S
C1204 C761 1.353 . S
C1215 C93 1.582 . S
C1220 C618 1.578 . S
C1231 C146 1.315 . S
C1236 C671 1.306 . S
C1252 C619 1.521 . S
C1247 C199 1.520 . S
C1268 C672 1.394 . S
C1263 C238 1.397 . S
C1279 C291 1.510 . S
C1284 C708 1.509 . S
C1300 C768 1.282 . S
C1295 C344 1.271 . S
