# Generated by pormake.
# Topology ptr, (4,4)-cn, num edge types: 1
# Building blocks:
#     Node 0, Type 0, BuildingBlock: QUQFOY_clean_sbu_1, # of connection points: 4
#     Node 1, Type 0, BuildingBlock: QUQFOY_clean_sbu_1, # of connection points: 4
#     Node 2, Type 0, BuildingBlock: QUQFOY_clean_sbu_1, # of connection points: 4
#     Node 3, Type 0, BuildingBlock: QUQFOY_clean_sbu_1, # of connection points: 4
#     Node 4, Type 0, BuildingBlock: QUQFOY_clean_sbu_1, # of connection points: 4
#     Node 5, Type 0, BuildingBlock: QUQFOY_clean_sbu_1, # of connection points: 4
#     Node 6, Type 0, BuildingBlock: QUQFOY_clean_sbu_1, # of connection points: 4
#     Node 7, Type 0, BuildingBlock: QUQFOY_clean_sbu_1, # of connection points: 4
#     Node 8, Type 0, BuildingBlock: QUQFOY_clean_sbu_1, # of connection points: 4
#     Node 9, Type 0, BuildingBlock: QUQFOY_clean_sbu_1, # of connection points: 4
#     Node 10, Type 0, BuildingBlock: QUQFOY_clean_sbu_1, # of connection points: 4
#     Node 11, Type 0, BuildingBlock: QUQFOY_clean_sbu_1, # of connection points: 4
#     Node 12, Type 0, BuildingBlock: QUQFOY_clean_sbu_1, # of connection points: 4
#     Node 13, Type 0, BuildingBlock: QUQFOY_clean_sbu_1, # of connection points: 4
#     Node 14, Type 0, BuildingBlock: QUQFOY_clean_sbu_1, # of connection points: 4
#     Node 15, Type 0, BuildingBlock: QUQFOY_clean_sbu_1, # of connection points: 4
#     Node 16, Type 0, BuildingBlock: QUQFOY_clean_sbu_1, # of connection points: 4
#     Node 17, Type 0, BuildingBlock: QUQFOY_clean_sbu_1, # of connection points: 4
#     Node 18, Type 1, BuildingBlock: MIFKUJ_clean_linker_1, # of connection points: 4
#     Node 19, Type 1, BuildingBlock: MIFKUJ_clean_linker_1, # of connection points: 4
#     Node 20, Type 1, BuildingBlock: MIFKUJ_clean_linker_1, # of connection points: 4
#     Node 21, Type 1, BuildingBlock: MIFKUJ_clean_linker_1, # of connection points: 4
#     Node 22, Type 1, BuildingBlock: MIFKUJ_clean_linker_1, # of connection points: 4
#     Node 23, Type 1, BuildingBlock: MIFKUJ_clean_linker_1, # of connection points: 4
#     Node 24, Type 1, BuildingBlock: MIFKUJ_clean_linker_1, # of connection points: 4
#     Node 25, Type 1, BuildingBlock: MIFKUJ_clean_linker_1, # of connection points: 4
#     Node 26, Type 1, BuildingBlock: MIFKUJ_clean_linker_1, # of connection points: 4
#     Node 27, Type 1, BuildingBlock: MIFKUJ_clean_linker_1, # of connection points: 4
#     Node 28, Type 1, BuildingBlock: MIFKUJ_clean_linker_1, # of connection points: 4
#     Node 29, Type 1, BuildingBlock: MIFKUJ_clean_linker_1, # of connection points: 4
#     Node 30, Type 1, BuildingBlock: MIFKUJ_clean_linker_1, # of connection points: 4
#     Node 31, Type 1, BuildingBlock: MIFKUJ_clean_linker_1, # of connection points: 4
#     Node 32, Type 1, BuildingBlock: MIFKUJ_clean_linker_1, # of connection points: 4
#     Node 33, Type 1, BuildingBlock: MIFKUJ_clean_linker_1, # of connection points: 4
#     Node 34, Type 1, BuildingBlock: MIFKUJ_clean_linker_1, # of connection points: 4
#     Node 35, Type 1, BuildingBlock: MIFKUJ_clean_linker_1, # of connection points: 4
#     Edge 36, Type (0, 1), None
#     Edge 37, Type (0, 1), None
#     Edge 38, Type (0, 1), None
#     Edge 39, Type (0, 1), None
#     Edge 40, Type (0, 1), None
#     Edge 41, Type (0, 1), None
#     Edge 42, Type (0, 1), None
#     Edge 43, Type (0, 1), None
#     Edge 44, Type (0, 1), None
#     Edge 45, Type (0, 1), None
#     Edge 46, Type (0, 1), None
#     Edge 47, Type (0, 1), None
#     Edge 48, Type (0, 1), None
#     Edge 49, Type (0, 1), None
#     Edge 50, Type (0, 1), None
#     Edge 51, Type (0, 1), None
#     Edge 52, Type (0, 1), None
#     Edge 53, Type (0, 1), None
#     Edge 54, Type (0, 1), None
#     Edge 55, Type (0, 1), None
#     Edge 56, Type (0, 1), None
#     Edge 57, Type (0, 1), None
#     Edge 58, Type (0, 1), None
#     Edge 59, Type (0, 1), None
#     Edge 60, Type (0, 1), None
#     Edge 61, Type (0, 1), None
#     Edge 62, Type (0, 1), None
#     Edge 63, Type (0, 1), None
#     Edge 64, Type (0, 1), None
#     Edge 65, Type (0, 1), None
#     Edge 66, Type (0, 1), None
#     Edge 67, Type (0, 1), None
#     Edge 68, Type (0, 1), None
#     Edge 69, Type (0, 1), None
#     Edge 70, Type (0, 1), None
#     Edge 71, Type (0, 1), None
#     Edge 72, Type (0, 1), None
#     Edge 73, Type (0, 1), None
#     Edge 74, Type (0, 1), None
#     Edge 75, Type (0, 1), None
#     Edge 76, Type (0, 1), None
#     Edge 77, Type (0, 1), None
#     Edge 78, Type (0, 1), None
#     Edge 79, Type (0, 1), None
#     Edge 80, Type (0, 1), None
#     Edge 81, Type (0, 1), None
#     Edge 82, Type (0, 1), None
#     Edge 83, Type (0, 1), None
#     Edge 84, Type (0, 1), None
#     Edge 85, Type (0, 1), None
#     Edge 86, Type (0, 1), None
#     Edge 87, Type (0, 1), None
#     Edge 88, Type (0, 1), None
#     Edge 89, Type (0, 1), None
#     Edge 90, Type (0, 1), None
#     Edge 91, Type (0, 1), None
#     Edge 92, Type (0, 1), None
#     Edge 93, Type (0, 1), None
#     Edge 94, Type (0, 1), None
#     Edge 95, Type (0, 1), None
#     Edge 96, Type (0, 1), None
#     Edge 97, Type (0, 1), None
#     Edge 98, Type (0, 1), None
#     Edge 99, Type (0, 1), None
#     Edge 100, Type (0, 1), None
#     Edge 101, Type (0, 1), None
#     Edge 102, Type (0, 1), None
#     Edge 103, Type (0, 1), None
#     Edge 104, Type (0, 1), None
#     Edge 105, Type (0, 1), None
#     Edge 106, Type (0, 1), None
#     Edge 107, Type (0, 1), None
# Relax obj value: 0.010
# Max RMSD: 0.051
# Mean RMSD: 0.040
data_MOF--net-ptr--node1-QUQFOY_clean_sbu_1--node2-MIFKUJ_clean_linker_1--edge1-none
_symmetry_space_group_name_H-M    P1
_symmetry_Int_Tables_number       1
_symmetry_cell_setting            triclinic
loop_
_symmetry_equiv_pos_as_xyz
'x, y, z'
_cell_length_a     50.808136
_cell_length_b     50.793713
_cell_length_c     33.030309
_cell_angle_alpha  90.067299
_cell_angle_beta   89.947154
_cell_angle_gamma 119.94798
loop_
_atom_site_label
_atom_site_type_symbol
_atom_site_fract_x
_atom_site_fract_y
_atom_site_fract_z
_atom_type_partial_charge
O0 O 0.01916 0.40273 0.09555 0.0
Cd1 Cd 0.03187 0.38613 0.04693 0.0
Cd2 Cd 0.97156 0.35594 0.03388 0.0
O3 O 0.96957 0.37306 0.09033 0.0
O4 O 0.07386 0.39549 0.06046 0.0
O5 O 0.03498 0.34859 0.05687 0.0
C6 C 0.06336 0.36672 0.06486 0.0
C7 C 0.94017 0.30502 1.01602 0.0
C8 C 0.99257 0.3935 0.10919 0.0
C9 C 0.01078 0.40256 0.97166 0.0
O10 O 0.9842 0.38519 0.98528 0.0
O11 O 0.03381 0.40517 0.9905 0.0
O12 O 0.9296 0.32324 1.02038 0.0
O13 O 0.96857 0.31533 1.02395 0.0
O14 O 0.60002 0.61711 0.09561 0.0
Cd15 Cd 0.61659 0.64637 0.04703 0.0
Cd16 Cd 0.6467 0.61614 0.03378 0.0
O17 O 0.62963 0.59708 0.09021 0.0
O18 O 0.60734 0.6791 0.06066 0.0
O19 O 0.65418 0.68693 0.05694 0.0
C20 C 0.63612 0.69728 0.06498 0.0
C21 C 0.69757 0.63555 1.01582 0.0
C22 C 0.60924 0.59971 0.10915 0.0
C23 C 0.60009 0.60888 0.97163 0.0
O24 O 0.61744 0.59961 0.98518 0.0
O25 O 0.59752 0.62932 0.99058 0.0
O26 O 0.67935 0.60678 1.02014 0.0
O27 O 0.68729 0.65368 1.02387 0.0
O28 O 0.40302 0.01895 0.98559 0.0
Cd29 Cd 0.38632 0.03154 0.03422 0.0
Cd30 Cd 0.35621 0.97122 0.04706 0.0
O31 O 0.37339 0.96933 0.99061 0.0
O32 O 0.39558 0.07353 1.0208 0.0
O33 O 0.34874 0.03456 1.02425 0.0
C34 C 0.36681 0.06296 1.01635 0.0
C35 C 0.3053 0.9398 0.06486 0.0
C36 C 0.39384 0.99239 0.97186 0.0
C37 C 0.40278 0.01038 0.1094 0.0
O38 O 0.38543 0.98381 0.09568 0.0
O39 O 0.40535 0.03343 0.09066 0.0
O40 O 0.32352 0.92922 0.06044 0.0
O41 O 0.31561 0.96821 0.057 0.0
O42 O 0.98417 0.59984 0.98528 0.0
Cd43 Cd 0.97145 0.61644 0.0339 0.0
Cd44 Cd 0.03178 0.64663 0.04695 0.0
O45 O 0.03376 0.62951 0.99049 0.0
O46 O 0.92944 0.60704 1.02037 0.0
O47 O 0.96829 0.65395 1.02395 0.0
C48 C 0.93992 0.6358 1.01597 0.0
C49 C 0.06318 0.69755 0.06483 0.0
C50 C 0.01076 0.60907 0.97164 0.0
C51 C 0.99255 0.60001 0.10917 0.0
O52 O 0.01913 0.61738 0.09554 0.0
O53 O 0.96952 0.5974 0.09033 0.0
O54 O 0.07374 0.67932 0.06045 0.0
O55 O 0.03478 0.68725 0.0569 0.0
O56 O 0.4032 0.38546 0.98524 0.0
Cd57 Cd 0.38662 0.3562 0.03382 0.0
Cd58 Cd 0.35653 0.38644 0.04707 0.0
O59 O 0.37359 0.40549 0.99063 0.0
O60 O 0.39586 0.32346 1.0202 0.0
O61 O 0.34902 0.31565 1.02392 0.0
C62 C 0.36708 0.30529 1.01589 0.0
C63 C 0.30565 0.36698 0.06503 0.0
C64 C 0.39399 0.40286 0.97169 0.0
C65 C 0.40313 0.39369 0.10921 0.0
O66 O 0.38579 0.40297 0.09566 0.0
O67 O 0.4057 0.37325 0.09026 0.0
O68 O 0.32385 0.39575 0.06071 0.0
O69 O 0.31596 0.34887 0.05697 0.0
O70 O 0.60034 0.98382 0.09563 0.0
Cd71 Cd 0.617 0.9712 0.04698 0.0
Cd72 Cd 0.64716 0.03153 0.03415 0.0
O73 O 0.63 0.03344 0.09061 0.0
O74 O 0.60769 0.92919 0.06038 0.0
O75 O 0.65455 0.96812 0.05693 0.0
C76 C 0.63645 0.93972 0.06482 0.0
C77 C 0.69807 0.06289 1.01632 0.0
C78 C 0.60953 0.01039 0.10936 0.0
C79 C 0.60058 0.9924 0.97182 0.0
O80 O 0.61793 0.01896 0.98554 0.0
O81 O 0.59799 0.96934 0.99056 0.0
O82 O 0.67988 0.0735 1.02076 0.0
O83 O 0.68773 0.03447 1.02418 0.0
O84 O 0.68576 0.73607 0.4289 0.0
Cd85 Cd 0.6985 0.7195 0.38028 0.0
Cd86 Cd 0.63818 0.68933 0.36716 0.0
O87 O 0.63617 0.70643 0.42361 0.0
O88 O 0.7405 0.72888 0.39386 0.0
O89 O 0.70164 0.68197 0.39022 0.0
C90 C 0.73001 0.70011 0.39823 0.0
C91 C 0.60676 0.63842 0.34925 0.0
C92 C 0.65916 0.72685 0.44251 0.0
C93 C 0.67746 0.73596 0.30498 0.0
O94 O 0.65087 0.71859 0.31857 0.0
O95 O 0.70047 0.73855 0.32386 0.0
O96 O 0.59621 0.65667 0.35362 0.0
O97 O 0.63515 0.6487 0.35721 0.0
O98 O 0.26667 0.95048 0.42894 0.0
Cd99 Cd 0.28326 0.97974 0.38035 0.0
Cd100 Cd 0.31334 0.94948 0.3671 0.0
O101 O 0.29627 0.93043 0.42354 0.0
O102 O 0.27402 0.01248 0.39399 0.0
O103 O 0.32086 0.02029 0.39028 0.0
C104 C 0.3028 0.03065 0.39831 0.0
C105 C 0.36422 0.9689 0.34917 0.0
C106 C 0.27588 0.93308 0.44248 0.0
C107 C 0.26674 0.94225 0.30496 0.0
O108 O 0.28408 0.93297 0.3185 0.0
O109 O 0.26417 0.96269 0.32391 0.0
O110 O 0.34599 0.94013 0.35347 0.0
O111 O 0.35393 0.98702 0.35722 0.0
O112 O 0.06962 0.35205 0.31869 0.0
Cd113 Cd 0.05299 0.36472 0.36732 0.0
Cd114 Cd 0.02283 0.30437 0.38023 0.0
O115 O 0.03998 0.30244 0.32378 0.0
O116 O 0.06234 0.40674 0.35386 0.0
O117 O 0.01546 0.36784 0.35735 0.0
C118 C 0.03359 0.39623 0.34943 0.0
C119 C 0.97194 0.27295 0.39811 0.0
C120 C 0.06043 0.32547 0.30499 0.0
C121 C 0.06943 0.34356 0.44253 0.0
O122 O 0.05207 0.31699 0.42883 0.0
O123 O 0.07201 0.36661 0.42375 0.0
O124 O 0.99016 0.26238 0.39368 0.0
O125 O 0.98223 0.30135 0.39021 0.0
O126 O 0.65082 0.93311 0.31867 0.0
Cd127 Cd 0.63806 0.94968 0.36729 0.0
Cd128 Cd 0.69839 0.97987 0.38041 0.0
O129 O 0.70041 0.96277 0.32395 0.0
O130 O 0.59607 0.94029 0.35372 0.0
O131 O 0.63492 0.9872 0.35737 0.0
C132 C 0.60655 0.96906 0.34936 0.0
C133 C 0.72982 0.03077 0.39833 0.0
C134 C 0.67742 0.94234 0.30506 0.0
C135 C 0.65912 0.93323 0.44259 0.0
O136 O 0.6857 0.9506 0.42899 0.0
O137 O 0.6361 0.93062 0.42372 0.0
O138 O 0.74036 0.01251 0.39396 0.0
O139 O 0.70143 0.0205 0.39037 0.0
O140 O 0.0699 0.71886 0.31849 0.0
Cd141 Cd 0.05336 0.6896 0.36708 0.0
Cd142 Cd 0.0232 0.71979 0.38033 0.0
O143 O 0.04026 0.73886 0.32389 0.0
O144 O 0.06267 0.65691 0.35345 0.0
O145 O 0.0158 0.64901 0.35716 0.0
C146 C 0.0339 0.6387 0.34913 0.0
C147 C 0.97232 0.70035 0.3983 0.0
C148 C 0.06066 0.73624 0.30495 0.0
C149 C 0.06982 0.72708 0.44248 0.0
O150 O 0.05246 0.73634 0.42893 0.0
O151 O 0.07242 0.70666 0.42353 0.0
O152 O 0.99053 0.72912 0.39397 0.0
O153 O 0.98262 0.68224 0.39025 0.0
O154 O 0.26695 0.31706 0.42876 0.0
Cd155 Cd 0.28363 0.30443 0.38014 0.0
Cd156 Cd 0.31373 0.36476 0.36723 0.0
O157 O 0.29657 0.36668 0.42368 0.0
O158 O 0.27435 0.26244 0.39359 0.0
O159 O 0.3212 0.30139 0.39011 0.0
C160 C 0.30311 0.27299 0.39803 0.0
C161 C 0.36462 0.39619 0.34939 0.0
C162 C 0.27613 0.34363 0.44246 0.0
C163 C 0.26714 0.32555 0.30493 0.0
O164 O 0.28448 0.35213 0.31863 0.0
O165 O 0.26459 0.30251 0.32371 0.0
O166 O 0.34639 0.40676 0.3538 0.0
O167 O 0.35433 0.36779 0.35728 0.0
O168 O 0.35238 0.06945 0.76235 0.0
Cd169 Cd 0.36518 0.05292 0.71374 0.0
Cd170 Cd 0.30483 0.0227 0.70056 0.0
O171 O 0.3028 0.03979 0.75702 0.0
O172 O 0.40719 0.06236 0.72735 0.0
O173 O 0.36839 0.01543 0.7237 0.0
C174 C 0.39675 0.0336 0.73172 0.0
C175 C 0.2734 0.97181 0.68263 0.0
C176 C 0.32578 0.06021 0.77594 0.0
C177 C 0.34415 0.06936 0.63841 0.0
O178 O 0.31756 0.05198 0.65198 0.0
O179 O 0.36716 0.07197 0.65731 0.0
O180 O 0.26286 0.99007 0.68698 0.0
O181 O 0.30178 0.98206 0.69061 0.0
O182 O 0.93338 0.28366 0.76243 0.0
Cd183 Cd 0.94992 0.31292 0.71385 0.0
Cd184 Cd 0.98005 0.28271 0.70055 0.0
O185 O 0.96301 0.26364 0.75699 0.0
O186 O 0.94061 0.34562 0.7275 0.0
O187 O 0.98748 0.35351 0.72375 0.0
C188 C 0.96939 0.36383 0.73179 0.0
C189 C 0.03091 0.30213 0.68255 0.0
C190 C 0.94261 0.26626 0.77595 0.0
C191 C 0.93342 0.27546 0.63844 0.0
O192 O 0.95078 0.26619 0.65197 0.0
O193 O 0.93084 0.29588 0.65741 0.0
O194 O 0.0127 0.27336 0.68687 0.0
O195 O 0.02063 0.32025 0.69062 0.0
O196 O 0.7363 0.68541 0.65203 0.0
Cd197 Cd 0.71964 0.69805 0.70067 0.0
Cd198 Cd 0.68952 0.63771 0.71357 0.0
O199 O 0.70667 0.63579 0.65712 0.0
O200 O 0.72895 0.74005 0.68722 0.0
O201 O 0.68209 0.70112 0.69071 0.0
C202 C 0.70019 0.72952 0.68279 0.0
C203 C 0.63862 0.6063 0.73142 0.0
C204 C 0.72711 0.65883 0.63833 0.0
C205 C 0.7361 0.67691 0.77587 0.0
O206 O 0.71876 0.65033 0.76218 0.0
O207 O 0.73867 0.69995 0.7571 0.0
O208 O 0.65684 0.59573 0.72701 0.0
O209 O 0.64892 0.63471 0.72353 0.0
O210 O 0.31751 0.26646 0.65198 0.0
Cd211 Cd 0.30474 0.28301 0.70058 0.0
Cd212 Cd 0.36506 0.31321 0.71375 0.0
O213 O 0.3671 0.29611 0.6573 0.0
O214 O 0.26274 0.27361 0.68698 0.0
O215 O 0.30158 0.32053 0.69064 0.0
C216 C 0.27321 0.30237 0.68261 0.0
C217 C 0.39648 0.36411 0.73166 0.0
C218 C 0.34412 0.27569 0.63839 0.0
C219 C 0.32575 0.26656 0.77591 0.0
O220 O 0.35235 0.28394 0.76234 0.0
O221 O 0.30275 0.26396 0.75701 0.0
O222 O 0.40702 0.34586 0.72732 0.0
O223 O 0.36809 0.35383 0.72368 0.0
O224 O 0.73661 0.0521 0.65205 0.0
Cd225 Cd 0.72004 0.02283 0.70063 0.0
Cd226 Cd 0.68996 0.05311 0.71393 0.0
O227 O 0.70703 0.07216 0.65749 0.0
O228 O 0.72929 0.9901 0.68697 0.0
O229 O 0.68245 0.98227 0.69071 0.0
C230 C 0.70052 0.97192 0.68265 0.0
C231 C 0.63911 0.03377 0.73191 0.0
C232 C 0.7274 0.06951 0.63853 0.0
C233 C 0.73657 0.0603 0.77605 0.0
O234 O 0.71924 0.0696 0.76252 0.0
O235 O 0.73913 0.03986 0.75708 0.0
O236 O 0.65736 0.06253 0.7276 0.0
O237 O 0.64935 0.01561 0.72385 0.0
O238 O 0.93357 0.6504 0.76211 0.0
Cd239 Cd 0.95022 0.63775 0.71348 0.0
Cd240 Cd 0.98036 0.6981 0.70057 0.0
O241 O 0.9632 0.70002 0.75702 0.0
O242 O 0.94089 0.59574 0.72694 0.0
O243 O 0.98776 0.63466 0.72345 0.0
C244 C 0.96965 0.60626 0.73137 0.0
C245 C 0.03125 0.72955 0.68271 0.0
C246 C 0.94276 0.67698 0.77581 0.0
C247 C 0.93377 0.65889 0.63827 0.0
O248 O 0.95112 0.68547 0.65196 0.0
O249 O 0.93119 0.63584 0.65705 0.0
O250 O 0.01301 0.7401 0.68713 0.0
O251 O 0.02098 0.70115 0.6906 0.0
H252 H 0.12823 0.3652 0.19799 0.0
H253 H 0.09668 0.36901 0.25064 0.0
H254 H 0.05891 0.27362 0.27768 0.0
H255 H 0.09067 0.26997 0.22454 0.0
H256 H 0.15289 0.30368 0.23161 0.0
H257 H 0.1572 0.38177 0.10547 0.0
H258 H 0.12488 0.39819 0.07271 0.0
H259 H 0.04635 0.31009 0.09517 0.0
H260 H 0.07905 0.29368 0.12815 0.0
H261 H 0.21697 0.29379 0.12814 0.0
H262 H 0.26613 0.3103 0.09523 0.0
H263 H 0.27548 0.39839 0.07293 0.0
H264 H 0.22668 0.38187 0.10561 0.0
H265 H 0.17113 0.34004 0.08972 0.0
H266 H 0.18157 0.27003 0.22454 0.0
H267 H 0.21694 0.2737 0.27763 0.0
H268 H 0.27433 0.3691 0.25065 0.0
H269 H 0.23901 0.36528 0.19805 0.0
C270 C 0.11162 0.31722 0.20694 0.0
C271 C 0.11244 0.34484 0.21425 0.0
C272 C 0.09457 0.34705 0.24475 0.0
C273 C 0.07549 0.32168 0.26871 0.0
C274 C 0.07334 0.29358 0.2598 0.0
C275 C 0.09145 0.29145 0.22939 0.0
C276 C 0.13532 0.31677 0.18103 0.0
C277 C 0.15631 0.31048 0.20002 0.0
C278 C 0.14068 0.32748 0.14062 0.0
C279 C 0.12058 0.33652 0.11947 0.0
C280 C 0.13308 0.36582 0.10298 0.0
C281 C 0.11453 0.37521 0.08428 0.0
C282 C 0.08304 0.35543 0.08125 0.0
C283 C 0.07056 0.32579 0.0968 0.0
C284 C 0.08917 0.31646 0.11593 0.0
C285 C 0.21817 0.33663 0.11953 0.0
C286 C 0.22959 0.3166 0.11597 0.0
C287 C 0.25756 0.32598 0.09688 0.0
C288 C 0.27467 0.35564 0.08139 0.0
C289 C 0.26288 0.37538 0.08444 0.0
C290 C 0.23491 0.36594 0.1031 0.0
C291 C 0.189 0.32753 0.14065 0.0
C292 C 0.16704 0.33188 0.1207 0.0
C293 C 0.18361 0.31681 0.18105 0.0
C294 C 0.20775 0.31729 0.20698 0.0
C295 C 0.20221 0.29152 0.2294 0.0
C296 C 0.22243 0.29366 0.25977 0.0
C297 C 0.24831 0.32177 0.26869 0.0
C298 C 0.25454 0.34714 0.24477 0.0
C299 C 0.23448 0.34493 0.21429 0.0
H300 H 0.73311 0.91239 0.22456 0.0
H301 H 0.72933 0.944 0.27782 0.0
H302 H 0.63399 0.90614 0.25052 0.0
H303 H 0.63793 0.87473 0.19776 0.0
H304 H 0.69948 0.85016 0.23148 0.0
H305 H 0.70949 0.92405 0.12815 0.0
H306 H 0.69306 0.95677 0.09523 0.0
H307 H 0.60506 0.87817 0.07245 0.0
H308 H 0.6215 0.84584 0.10515 0.0
H309 H 0.62137 0.77641 0.10537 0.0
H310 H 0.6048 0.72756 0.07274 0.0
H311 H 0.69279 0.73677 0.09522 0.0
H312 H 0.70935 0.78599 0.12809 0.0
H313 H 0.66322 0.83194 0.08953 0.0
H314 H 0.63788 0.76406 0.19787 0.0
H315 H 0.63398 0.72877 0.25057 0.0
H316 H 0.72935 0.78612 0.27771 0.0
H317 H 0.7331 0.82146 0.22451 0.0
C318 C 0.6859 0.8914 0.20683 0.0
C319 C 0.71162 0.91156 0.22938 0.0
C320 C 0.70941 0.92958 0.25985 0.0
C321 C 0.68128 0.92736 0.26874 0.0
C322 C 0.65597 0.9083 0.24467 0.0
C323 C 0.65825 0.89052 0.2141 0.0
C324 C 0.68642 0.86773 0.18089 0.0
C325 C 0.69271 0.84675 0.19989 0.0
C326 C 0.67574 0.86239 0.14046 0.0
C327 C 0.6667 0.88249 0.11931 0.0
C328 C 0.68673 0.91392 0.11587 0.0
C329 C 0.67739 0.93254 0.09678 0.0
C330 C 0.64777 0.92004 0.08116 0.0
C331 C 0.62803 0.88853 0.08407 0.0
C332 C 0.63743 0.86998 0.10274 0.0
C333 C 0.66657 0.78486 0.11938 0.0
C334 C 0.63727 0.76813 0.10292 0.0
C335 C 0.6278 0.74014 0.08429 0.0
C336 C 0.6475 0.72829 0.08131 0.0
C337 C 0.67715 0.74538 0.09683 0.0
C338 C 0.68656 0.77338 0.11588 0.0
C339 C 0.67569 0.81405 0.14049 0.0
C340 C 0.67136 0.83603 0.12053 0.0
C341 C 0.68639 0.81944 0.18091 0.0
C342 C 0.68587 0.79529 0.20686 0.0
C343 C 0.65822 0.76858 0.21417 0.0
C344 C 0.65595 0.74854 0.2447 0.0
C345 C 0.68129 0.75478 0.2687 0.0
C346 C 0.70941 0.78063 0.25979 0.0
C347 C 0.71161 0.80083 0.22936 0.0
H348 H 0.09039 0.82172 0.22448 0.0
H349 H 0.05888 0.78642 0.27775 0.0
H350 H 0.09689 0.72898 0.25038 0.0
H351 H 0.12821 0.76424 0.19761 0.0
H352 H 0.15263 0.85032 0.23136 0.0
H353 H 0.07872 0.78633 0.12805 0.0
H354 H 0.04605 0.73714 0.09522 0.0
H355 H 0.12472 0.72773 0.07238 0.0
H356 H 0.157 0.77656 0.10498 0.0
H357 H 0.22632 0.84593 0.10491 0.0
H358 H 0.27513 0.87823 0.07231 0.0
H359 H 0.26573 0.95691 0.09527 0.0
H360 H 0.21656 0.92423 0.12809 0.0
H361 H 0.17075 0.83214 0.08933 0.0
H362 H 0.23867 0.8747 0.19756 0.0
H363 H 0.27395 0.90601 0.25034 0.0
H364 H 0.21659 0.94409 0.2778 0.0
H365 H 0.18126 0.91258 0.22452 0.0
C366 C 0.11145 0.79551 0.20671 0.0
C367 C 0.09127 0.80108 0.22928 0.0
C368 C 0.07331 0.7809 0.25977 0.0
C369 C 0.0756 0.75504 0.26863 0.0
C370 C 0.09468 0.74876 0.24454 0.0
C371 C 0.11241 0.76878 0.21397 0.0
C372 C 0.13506 0.81965 0.18075 0.0
C373 C 0.15602 0.84693 0.19975 0.0
C374 C 0.14037 0.81426 0.1403 0.0
C375 C 0.12031 0.7851 0.11917 0.0
C376 C 0.08888 0.77369 0.11577 0.0
C377 C 0.07029 0.7457 0.09673 0.0
C378 C 0.08281 0.72856 0.08113 0.0
C379 C 0.11433 0.74035 0.08399 0.0
C380 C 0.13286 0.76833 0.10261 0.0
C381 C 0.21778 0.88263 0.11915 0.0
C382 C 0.23454 0.87008 0.10256 0.0
C383 C 0.26251 0.88862 0.08395 0.0
C384 C 0.2743 0.92014 0.08112 0.0
C385 C 0.25716 0.93267 0.09676 0.0
C386 C 0.22919 0.91407 0.11579 0.0
C387 C 0.18864 0.86255 0.1403 0.0
C388 C 0.16669 0.83622 0.12035 0.0
C389 C 0.18328 0.86789 0.18075 0.0
C390 C 0.20743 0.89149 0.20671 0.0
C391 C 0.23415 0.89051 0.21394 0.0
C392 C 0.25418 0.90824 0.24452 0.0
C393 C 0.24793 0.92733 0.26864 0.0
C394 C 0.22208 0.92964 0.2598 0.0
C395 C 0.20189 0.91168 0.22931 0.0
H396 H 0.27008 0.18107 0.85639 0.0
H397 H 0.27385 0.2164 0.80317 0.0
H398 H 0.36922 0.27374 0.83034 0.0
H399 H 0.36529 0.23845 0.88306 0.0
H400 H 0.30367 0.15235 0.84949 0.0
H401 H 0.29382 0.21658 0.95281 0.0
H402 H 0.3104 0.26581 0.98564 0.0
H403 H 0.39837 0.27499 1.00816 0.0
H404 H 0.38179 0.22613 0.97556 0.0
H405 H 0.38166 0.15677 0.97586 0.0
H406 H 0.39815 0.12451 1.00863 0.0
H407 H 0.31019 0.04583 0.9859 0.0
H408 H 0.29372 0.07848 0.9529 0.0
H409 H 0.33992 0.17062 0.99144 0.0
H410 H 0.36522 0.12779 0.88327 0.0
H411 H 0.36918 0.0964 0.8305 0.0
H412 H 0.27385 0.05852 0.80317 0.0
H413 H 0.27004 0.09012 0.85644 0.0
C414 C 0.31731 0.20722 0.87406 0.0
C415 C 0.29158 0.20169 0.85154 0.0
C416 C 0.29379 0.22189 0.82109 0.0
C417 C 0.32191 0.24774 0.81219 0.0
C418 C 0.34724 0.25397 0.83621 0.0
C419 C 0.34497 0.23393 0.86675 0.0
C420 C 0.31677 0.18309 0.90004 0.0
C421 C 0.31044 0.15576 0.88108 0.0
C422 C 0.32746 0.18849 0.94046 0.0
C423 C 0.33659 0.21769 0.96154 0.0
C424 C 0.31661 0.22918 0.96502 0.0
C425 C 0.32604 0.25719 0.98405 0.0
C426 C 0.35569 0.27427 0.99957 0.0
C427 C 0.37538 0.26241 0.99661 0.0
C428 C 0.3659 0.23441 0.978 0.0
C429 C 0.33648 0.12008 0.96171 0.0
C430 C 0.36575 0.13263 0.97829 0.0
C431 C 0.37518 0.11412 0.99701 0.0
C432 C 0.35547 0.0826 0.99996 0.0
C433 C 0.32585 0.07007 0.98432 0.0
C434 C 0.31648 0.08865 0.96518 0.0
C435 C 0.32741 0.14015 0.94054 0.0
C436 C 0.33178 0.16652 0.96044 0.0
C437 C 0.31673 0.13478 0.90011 0.0
C438 C 0.31725 0.11111 0.87418 0.0
C439 C 0.34491 0.112 0.86692 0.0
C440 C 0.3472 0.09423 0.83635 0.0
C441 C 0.3219 0.07517 0.81227 0.0
C442 C 0.29377 0.07294 0.82114 0.0
C443 C 0.29154 0.09095 0.85162 0.0
H444 H 0.82204 0.08993 0.85649 0.0
H445 H 0.78671 0.05844 0.8032 0.0
H446 H 0.72936 0.09653 0.8307 0.0
H447 H 0.76465 0.12782 0.88348 0.0
H448 H 0.85067 0.15217 0.84962 0.0
H449 H 0.78672 0.07831 0.95296 0.0
H450 H 0.73757 0.04569 0.98585 0.0
H451 H 0.7283 0.12445 1.00879 0.0
H452 H 0.77708 0.15669 0.97612 0.0
H453 H 0.84635 0.22598 0.97594 0.0
H454 H 0.87863 0.27483 1.0085 0.0
H455 H 0.9573 0.26543 0.98565 0.0
H456 H 0.92464 0.21622 0.95286 0.0
H457 H 0.83262 0.17042 0.99165 0.0
H458 H 0.8751 0.23826 0.88333 0.0
H459 H 0.90638 0.27352 0.83054 0.0
H460 H 0.94441 0.21609 0.80314 0.0
H461 H 0.91292 0.18079 0.85643 0.0
C462 C 0.79588 0.11103 0.87432 0.0
C463 C 0.80141 0.09083 0.8517 0.0
C464 C 0.78122 0.07288 0.82121 0.0
C465 C 0.75538 0.07521 0.81238 0.0
C466 C 0.74913 0.0943 0.83651 0.0
C467 C 0.76917 0.11201 0.86709 0.0
C468 C 0.82004 0.13463 0.90026 0.0
C469 C 0.8473 0.15558 0.88123 0.0
C470 C 0.8147 0.13999 0.94071 0.0
C471 C 0.78556 0.11994 0.96188 0.0
C472 C 0.77412 0.0885 0.96527 0.0
C473 C 0.74616 0.06993 0.98435 0.0
C474 C 0.72907 0.0825 1.0 0.0
C475 C 0.74088 0.11403 0.99714 0.0
C476 C 0.76884 0.13253 0.97848 0.0
C477 C 0.88304 0.21744 0.96175 0.0
C478 C 0.87049 0.23421 0.9783 0.0
C479 C 0.88902 0.2622 0.99689 0.0
C480 C 0.92054 0.274 0.99974 0.0
C481 C 0.93307 0.25686 0.98415 0.0
C482 C 0.91448 0.22886 0.96513 0.0
C483 C 0.86298 0.18827 0.94065 0.0
C484 C 0.83667 0.16632 0.96063 0.0
C485 C 0.86827 0.18287 0.9002 0.0
C486 C 0.89186 0.207 0.87421 0.0
C487 C 0.89089 0.23372 0.86696 0.0
C488 C 0.90861 0.25373 0.83637 0.0
C489 C 0.92768 0.24747 0.81227 0.0
C490 C 0.92998 0.2216 0.82113 0.0
C491 C 0.91203 0.20143 0.85162 0.0
H492 H 0.7642 0.63716 0.88278 0.0
H493 H 0.72889 0.63335 0.83016 0.0
H494 H 0.7863 0.72876 0.80319 0.0
H495 H 0.82166 0.73241 0.85631 0.0
H496 H 0.85031 0.69876 0.84923 0.0
H497 H 0.7765 0.62058 0.97526 0.0
H498 H 0.72771 0.60411 1.00794 0.0
H499 H 0.73713 0.69222 0.9856 0.0
H500 H 0.78628 0.70868 0.95269 0.0
H501 H 0.92415 0.7088 0.95268 0.0
H502 H 0.95689 0.69242 0.98565 0.0
H503 H 0.8784 0.60429 1.00814 0.0
H504 H 0.84604 0.62068 0.97539 0.0
H505 H 0.83208 0.66239 0.99112 0.0
H506 H 0.91253 0.73247 0.8563 0.0
H507 H 0.94427 0.72882 0.80314 0.0
H508 H 0.90652 0.63344 0.83018 0.0
H509 H 0.87499 0.63724 0.88285 0.0
C510 C 0.79547 0.68516 0.87386 0.0
C511 C 0.76873 0.65752 0.86654 0.0
C512 C 0.74869 0.65531 0.83605 0.0
C513 C 0.75493 0.68069 0.81212 0.0
C514 C 0.7808 0.70879 0.82105 0.0
C515 C 0.80102 0.71093 0.85144 0.0
C516 C 0.8196 0.68563 0.89979 0.0
C517 C 0.8469 0.69196 0.88081 0.0
C518 C 0.8142 0.67491 0.94019 0.0
C519 C 0.78504 0.66583 0.96132 0.0
C520 C 0.76828 0.63653 0.97775 0.0
C521 C 0.74032 0.6271 0.99642 0.0
C522 C 0.72855 0.64687 0.99945 0.0
C523 C 0.74568 0.67652 0.98396 0.0
C524 C 0.77364 0.68588 0.96487 0.0
C525 C 0.88264 0.66593 0.96137 0.0
C526 C 0.91405 0.68601 0.9649 0.0
C527 C 0.93268 0.67671 0.98402 0.0
C528 C 0.92022 0.64707 0.99958 0.0
C529 C 0.88873 0.62728 0.99657 0.0
C530 C 0.87017 0.63665 0.97787 0.0
C531 C 0.86253 0.67496 0.94022 0.0
C532 C 0.83617 0.67055 0.96013 0.0
C533 C 0.86788 0.68567 0.89981 0.0
C534 C 0.89158 0.68522 0.87389 0.0
C535 C 0.91175 0.71099 0.85144 0.0
C536 C 0.92985 0.70886 0.82102 0.0
C537 C 0.9277 0.68076 0.8121 0.0
C538 C 0.90863 0.65539 0.83606 0.0
C539 C 0.89077 0.6576 0.86658 0.0
H540 H 0.79491 0.69859 0.53133 0.0
H541 H 0.76337 0.70238 0.58399 0.0
H542 H 0.7256 0.60699 0.61099 0.0
H543 H 0.75735 0.60336 0.55782 0.0
H544 H 0.81957 0.63705 0.5649 0.0
H545 H 0.82387 0.71519 0.43882 0.0
H546 H 0.79153 0.73161 0.40609 0.0
H547 H 0.71302 0.64347 0.4285 0.0
H548 H 0.74574 0.62707 0.46145 0.0
H549 H 0.88363 0.62719 0.46142 0.0
H550 H 0.93279 0.64367 0.4285 0.0
H551 H 0.94217 0.73178 0.40622 0.0
H552 H 0.89338 0.71528 0.43891 0.0
H553 H 0.83782 0.67348 0.42303 0.0
H554 H 0.84822 0.60341 0.55781 0.0
H555 H 0.88357 0.60705 0.61093 0.0
H556 H 0.94099 0.70246 0.58398 0.0
H557 H 0.90569 0.69866 0.53136 0.0
C558 C 0.7783 0.65061 0.54025 0.0
C559 C 0.77912 0.67823 0.54758 0.0
C560 C 0.76126 0.68043 0.57809 0.0
C561 C 0.74218 0.65505 0.60205 0.0
C562 C 0.74003 0.62696 0.59311 0.0
C563 C 0.75813 0.62483 0.56269 0.0
C564 C 0.80201 0.65016 0.51433 0.0
C565 C 0.82299 0.64387 0.53332 0.0
C566 C 0.80736 0.6609 0.47393 0.0
C567 C 0.78726 0.66993 0.45279 0.0
C568 C 0.79975 0.69923 0.43633 0.0
C569 C 0.78119 0.70862 0.41764 0.0
C570 C 0.7497 0.68883 0.41461 0.0
C571 C 0.73723 0.65918 0.43014 0.0
C572 C 0.75586 0.64986 0.44925 0.0
C573 C 0.88485 0.67002 0.45282 0.0
C574 C 0.89626 0.64999 0.44925 0.0
C575 C 0.92423 0.65936 0.43016 0.0
C576 C 0.94135 0.68902 0.41467 0.0
C577 C 0.92956 0.70877 0.41773 0.0
C578 C 0.9016 0.69934 0.4364 0.0
C579 C 0.85569 0.66094 0.47395 0.0
C580 C 0.83373 0.6653 0.45401 0.0
C581 C 0.85029 0.6502 0.51434 0.0
C582 C 0.87442 0.65067 0.54027 0.0
C583 C 0.86886 0.62489 0.56268 0.0
C584 C 0.88907 0.62702 0.59308 0.0
C585 C 0.91495 0.65512 0.60201 0.0
C586 C 0.9212 0.6805 0.57809 0.0
C587 C 0.90116 0.67829 0.5476 0.0
H588 H 0.39984 0.24577 0.55789 0.0
H589 H 0.39604 0.27737 0.61115 0.0
H590 H 0.3007 0.2395 0.58383 0.0
H591 H 0.30466 0.20811 0.53107 0.0
H592 H 0.36621 0.18355 0.56483 0.0
H593 H 0.37619 0.25742 0.46143 0.0
H594 H 0.35973 0.29009 0.42846 0.0
H595 H 0.27175 0.21145 0.40573 0.0
H596 H 0.28822 0.17916 0.43848 0.0
H597 H 0.28809 0.10978 0.43875 0.0
H598 H 0.27151 0.06094 0.4061 0.0
H599 H 0.35948 0.07011 0.42859 0.0
H600 H 0.37605 0.11933 0.46147 0.0
H601 H 0.32995 0.16529 0.42288 0.0
H602 H 0.3046 0.09744 0.53125 0.0
H603 H 0.30068 0.06216 0.58397 0.0
H604 H 0.39605 0.11951 0.61114 0.0
H605 H 0.39981 0.15484 0.55791 0.0
C606 C 0.35263 0.22478 0.54015 0.0
C607 C 0.37834 0.24494 0.5627 0.0
C608 C 0.37612 0.26295 0.59318 0.0
C609 C 0.34799 0.26072 0.60206 0.0
C610 C 0.32268 0.24167 0.57798 0.0
C611 C 0.32498 0.22389 0.54741 0.0
C612 C 0.35315 0.20111 0.51421 0.0
C613 C 0.35944 0.18013 0.53323 0.0
C614 C 0.34247 0.19576 0.47379 0.0
C615 C 0.33341 0.21584 0.45262 0.0
C616 C 0.35342 0.24727 0.44916 0.0
C617 C 0.34406 0.26586 0.43003 0.0
C618 C 0.31444 0.25334 0.41441 0.0
C619 C 0.29472 0.22183 0.41735 0.0
C620 C 0.30414 0.2033 0.43606 0.0
C621 C 0.33328 0.11821 0.45276 0.0
C622 C 0.30398 0.1015 0.43629 0.0
C623 C 0.2945 0.07351 0.41765 0.0
C624 C 0.31419 0.06165 0.41466 0.0
C625 C 0.34384 0.07873 0.43019 0.0
C626 C 0.35326 0.10673 0.44926 0.0
C627 C 0.34242 0.14741 0.47385 0.0
C628 C 0.33809 0.16939 0.45388 0.0
C629 C 0.35311 0.15281 0.51427 0.0
C630 C 0.35258 0.12867 0.54025 0.0
C631 C 0.32493 0.10197 0.54755 0.0
C632 C 0.32266 0.08194 0.5781 0.0
C633 C 0.34799 0.08817 0.60212 0.0
C634 C 0.37611 0.11402 0.59321 0.0
C635 C 0.37831 0.13421 0.56276 0.0
H636 H 0.75714 0.15496 0.55801 0.0
H637 H 0.72564 0.11969 0.61131 0.0
H638 H 0.76361 0.06221 0.58395 0.0
H639 H 0.79491 0.09744 0.53115 0.0
H640 H 0.81937 0.18355 0.56484 0.0
H641 H 0.74543 0.11956 0.46157 0.0
H642 H 0.71274 0.07038 0.42872 0.0
H643 H 0.79136 0.06089 0.40592 0.0
H644 H 0.82367 0.10971 0.43853 0.0
H645 H 0.89302 0.1791 0.43837 0.0
H646 H 0.94179 0.21139 0.40568 0.0
H647 H 0.93238 0.29007 0.42858 0.0
H648 H 0.88325 0.25741 0.46149 0.0
H649 H 0.83745 0.1653 0.42283 0.0
H650 H 0.9054 0.20794 0.53101 0.0
H651 H 0.94067 0.23924 0.5838 0.0
H652 H 0.88328 0.27729 0.61126 0.0
H653 H 0.84796 0.24579 0.55796 0.0
C654 C 0.77818 0.12873 0.54024 0.0
C655 C 0.75801 0.13432 0.56282 0.0
C656 C 0.74006 0.11416 0.59333 0.0
C657 C 0.74235 0.08829 0.6022 0.0
C658 C 0.76141 0.082 0.57811 0.0
C659 C 0.77913 0.102 0.54751 0.0
C660 C 0.80178 0.15285 0.51426 0.0
C661 C 0.82274 0.18014 0.53324 0.0
C662 C 0.80708 0.14745 0.47382 0.0
C663 C 0.787 0.11829 0.4527 0.0
C664 C 0.75557 0.1069 0.4493 0.0
C665 C 0.73697 0.07892 0.43025 0.0
C666 C 0.74948 0.06176 0.41465 0.0
C667 C 0.78099 0.07353 0.41753 0.0
C668 C 0.79953 0.1015 0.43615 0.0
C669 C 0.88448 0.21581 0.45259 0.0
C670 C 0.90123 0.20325 0.43599 0.0
C671 C 0.92918 0.22178 0.41733 0.0
C672 C 0.94095 0.2533 0.41445 0.0
C673 C 0.92383 0.26583 0.4301 0.0
C674 C 0.89588 0.24724 0.44919 0.0
C675 C 0.85535 0.19574 0.47377 0.0
C676 C 0.83339 0.1694 0.45384 0.0
C677 C 0.85 0.20109 0.51421 0.0
C678 C 0.87415 0.22471 0.54015 0.0
C679 C 0.90087 0.22375 0.54739 0.0
C680 C 0.92089 0.24146 0.57798 0.0
C681 C 0.91463 0.26054 0.6021 0.0
C682 C 0.88878 0.26285 0.59326 0.0
C683 C 0.8686 0.2449 0.56276 0.0
H684 H 0.93701 0.51449 0.18965 0.0
H685 H 0.9407 0.54982 0.13647 0.0
H686 H 0.03608 0.60722 0.16353 0.0
H687 H 0.03222 0.57194 0.21621 0.0
H688 H 0.97063 0.48581 0.18266 0.0
H689 H 0.96074 0.54995 0.28603 0.0
H690 H 0.97724 0.59915 0.31889 0.0
H691 H 0.06528 0.60849 0.34135 0.0
H692 H 0.04877 0.55965 0.30872 0.0
H693 H 0.04864 0.49013 0.30898 0.0
H694 H 0.06504 0.45777 0.34171 0.0
H695 H 0.97698 0.37923 0.31903 0.0
H696 H 0.96059 0.41196 0.28607 0.0
H697 H 0.00694 0.50409 0.32459 0.0
H698 H 0.03215 0.46119 0.21639 0.0
H699 H 0.03603 0.42972 0.16367 0.0
H700 H 0.94069 0.3919 0.13645 0.0
H701 H 0.93696 0.42358 0.18966 0.0
C702 C 0.98424 0.54068 0.20725 0.0
C703 C 0.95849 0.53512 0.18479 0.0
C704 C 0.96065 0.55532 0.15436 0.0
C705 C 0.98876 0.58119 0.14544 0.0
C706 C 0.01411 0.58744 0.16941 0.0
C707 C 0.01188 0.5674 0.19993 0.0
C708 C 0.98375 0.51655 0.23321 0.0
C709 C 0.97741 0.48923 0.21425 0.0
C710 C 0.99445 0.52196 0.27363 0.0
C711 C 0.00354 0.55114 0.29473 0.0
C712 C 0.98353 0.56258 0.29823 0.0
C713 C 0.99291 0.59057 0.31728 0.0
C714 C 0.02256 0.60769 0.33279 0.0
C715 C 0.04229 0.59589 0.32981 0.0
C716 C 0.03285 0.5679 0.31118 0.0
C717 C 0.00342 0.4535 0.29486 0.0
C718 C 0.03269 0.46599 0.31141 0.0
C719 C 0.04206 0.44743 0.33011 0.0
C720 C 0.0223 0.41592 0.33306 0.0
C721 C 0.99268 0.40345 0.31745 0.0
C722 C 0.98336 0.42208 0.29834 0.0
C723 C 0.99439 0.4736 0.27369 0.0
C724 C 0.99879 0.49998 0.29359 0.0
C725 C 0.98369 0.46824 0.23327 0.0
C726 C 0.98418 0.44455 0.20735 0.0
C727 C 0.01181 0.4454 0.20007 0.0
C728 C 0.01407 0.42758 0.16953 0.0
C729 C 0.98873 0.40852 0.1455 0.0
C730 C 0.96062 0.40632 0.15439 0.0
C731 C 0.95844 0.42438 0.18484 0.0
H732 H 0.48862 0.42339 0.18964 0.0
H733 H 0.45329 0.39187 0.13638 0.0
H734 H 0.39591 0.42994 0.16382 0.0
H735 H 0.43119 0.46125 0.21659 0.0
H736 H 0.51723 0.48563 0.18276 0.0
H737 H 0.45335 0.41177 0.28609 0.0
H738 H 0.4042 0.37909 0.31896 0.0
H739 H 0.39477 0.45776 0.34187 0.0
H740 H 0.44355 0.49006 0.30923 0.0
H741 H 0.51291 0.55946 0.30908 0.0
H742 H 0.54522 0.60829 0.34168 0.0
H743 H 0.62385 0.59881 0.31889 0.0
H744 H 0.59116 0.54961 0.28606 0.0
H745 H 0.49914 0.50386 0.32478 0.0
H746 H 0.54168 0.57173 0.21648 0.0
H747 H 0.573 0.60699 0.1637 0.0
H748 H 0.611 0.54953 0.13636 0.0
H749 H 0.57948 0.51423 0.18963 0.0
C750 C 0.46244 0.44448 0.20745 0.0
C751 C 0.46798 0.42428 0.18485 0.0
C752 C 0.44779 0.40631 0.15437 0.0
C753 C 0.42194 0.40862 0.14553 0.0
C754 C 0.41569 0.42771 0.16964 0.0
C755 C 0.43572 0.44544 0.20021 0.0
C756 C 0.48659 0.46809 0.23339 0.0
C757 C 0.51385 0.48904 0.21437 0.0
C758 C 0.48124 0.47344 0.27384 0.0
C759 C 0.45211 0.45336 0.295 0.0
C760 C 0.44071 0.42193 0.29839 0.0
C761 C 0.41275 0.40333 0.31745 0.0
C762 C 0.39561 0.41585 0.33309 0.0
C763 C 0.40739 0.44737 0.33023 0.0
C764 C 0.43535 0.46591 0.31159 0.0
C765 C 0.54959 0.55088 0.29492 0.0
C766 C 0.53705 0.56767 0.31146 0.0
C767 C 0.55559 0.59565 0.33007 0.0
C768 C 0.58711 0.60742 0.33296 0.0
C769 C 0.59962 0.59026 0.31736 0.0
C770 C 0.58101 0.56227 0.29833 0.0
C771 C 0.52951 0.52172 0.2738 0.0
C772 C 0.5032 0.49977 0.29377 0.0
C773 C 0.53482 0.51632 0.23336 0.0
C774 C 0.55842 0.54045 0.20739 0.0
C775 C 0.55747 0.56718 0.20012 0.0
C776 C 0.57521 0.5872 0.16955 0.0
C777 C 0.59429 0.58092 0.14547 0.0
C778 C 0.59657 0.55505 0.15433 0.0
C779 C 0.5786 0.53487 0.18482 0.0
H780 H 0.57924 0.06583 0.18983 0.0
H781 H 0.61103 0.06222 0.1367 0.0
H782 H 0.57325 0.96682 0.16366 0.0
H783 H 0.54167 0.97059 0.21628 0.0
H784 H 0.51701 0.03214 0.1827 0.0
H785 H 0.59081 0.04211 0.28618 0.0
H786 H 0.62353 0.0257 0.31912 0.0
H787 H 0.54503 0.93756 0.34149 0.0
H788 H 0.51269 0.95398 0.30879 0.0
H789 H 0.44315 0.95392 0.30866 0.0
H790 H 0.39434 0.93744 0.34129 0.0
H791 H 0.4038 0.02558 0.31903 0.0
H792 H 0.45297 0.04204 0.28617 0.0
H793 H 0.49872 0.9957 0.32456 0.0
H794 H 0.43088 0.97056 0.21621 0.0
H795 H 0.39556 0.96679 0.16363 0.0
H796 H 0.453 0.0622 0.13673 0.0
H797 H 0.48837 0.06581 0.18981 0.0
C798 C 0.55827 0.01858 0.20737 0.0
C799 C 0.57846 0.04436 0.18496 0.0
C800 C 0.59659 0.04225 0.15457 0.0
C801 C 0.59445 0.01415 0.14563 0.0
C802 C 0.57535 0.98877 0.16956 0.0
C803 C 0.55746 0.99096 0.20004 0.0
C804 C 0.53456 0.01902 0.23328 0.0
C805 C 0.51359 0.02532 0.21428 0.0
C806 C 0.5292 0.00828 0.27368 0.0
C807 C 0.5493 0.99925 0.29482 0.0
C808 C 0.5807 0.01932 0.29837 0.0
C809 C 0.59932 0.00999 0.31748 0.0
C810 C 0.58686 0.98034 0.33299 0.0
C811 C 0.55537 0.96056 0.32996 0.0
C812 C 0.53681 0.96994 0.31128 0.0
C813 C 0.45171 0.99919 0.29476 0.0
C814 C 0.43494 0.96987 0.31116 0.0
C815 C 0.40697 0.96044 0.3298 0.0
C816 C 0.3952 0.98021 0.33284 0.0
C817 C 0.41235 0.00988 0.31738 0.0
C818 C 0.44032 0.01924 0.29832 0.0
C819 C 0.48088 0.00826 0.27365 0.0
C820 C 0.50283 0.00388 0.29359 0.0
C821 C 0.48628 0.019 0.23325 0.0
C822 C 0.46216 0.01855 0.20733 0.0
C823 C 0.43542 0.99093 0.19999 0.0
C824 C 0.41536 0.98874 0.16953 0.0
C825 C 0.42161 0.01413 0.14564 0.0
C826 C 0.4475 0.04222 0.15457 0.0
C827 C 0.46772 0.04434 0.18494 0.0
H828 H 0.4617 0.03221 0.86492 0.0
H829 H 0.43011 0.03597 0.91756 0.0
H830 H 0.39237 0.94057 0.9445 0.0
H831 H 0.42417 0.93698 0.89137 0.0
H832 H 0.48639 0.9707 0.8985 0.0
H833 H 0.49065 0.04883 0.7724 0.0
H834 H 0.45826 0.06518 0.73964 0.0
H835 H 0.37983 0.97699 0.76201 0.0
H836 H 0.41259 0.96065 0.795 0.0
H837 H 0.55035 0.96072 0.79502 0.0
H838 H 0.59949 0.97712 0.7621 0.0
H839 H 0.60906 0.06531 0.73983 0.0
H840 H 0.56028 0.04889 0.77252 0.0
H841 H 0.50467 0.00713 0.75664 0.0
H842 H 0.515 0.93701 0.89138 0.0
H843 H 0.55034 0.9406 0.94447 0.0
H844 H 0.60783 0.03601 0.91758 0.0
H845 H 0.57253 0.03226 0.86499 0.0
C846 C 0.44511 0.98423 0.87383 0.0
C847 C 0.44591 0.01184 0.88116 0.0
C848 C 0.42802 0.01402 0.91166 0.0
C849 C 0.40894 0.98863 0.93558 0.0
C850 C 0.40681 0.96055 0.92664 0.0
C851 C 0.42493 0.95844 0.89624 0.0
C852 C 0.46883 0.98381 0.84792 0.0
C853 C 0.48981 0.97751 0.86692 0.0
C854 C 0.47419 0.99454 0.80753 0.0
C855 C 0.45407 0.00355 0.78637 0.0
C856 C 0.46653 0.03284 0.7699 0.0
C857 C 0.44795 0.04219 0.75119 0.0
C858 C 0.41647 0.02237 0.74813 0.0
C859 C 0.40403 0.99273 0.76367 0.0
C860 C 0.42268 0.98344 0.7828 0.0
C861 C 0.55166 0.00361 0.78643 0.0
C862 C 0.56302 0.98352 0.78286 0.0
C863 C 0.59097 0.99285 0.76377 0.0
C864 C 0.60814 0.0225 0.74829 0.0
C865 C 0.59641 0.04231 0.75135 0.0
C866 C 0.56846 0.03292 0.77001 0.0
C867 C 0.52251 0.99457 0.80756 0.0
C868 C 0.50057 0.99896 0.78762 0.0
C869 C 0.51711 0.98383 0.84795 0.0
C870 C 0.54123 0.98427 0.87387 0.0
C871 C 0.53565 0.95848 0.89626 0.0
C872 C 0.55586 0.96058 0.92663 0.0
C873 C 0.58175 0.98866 0.93558 0.0
C874 C 0.58802 0.01406 0.91168 0.0
C875 C 0.56798 0.01189 0.88121 0.0
H876 H 0.06636 0.57899 0.89114 0.0
H877 H 0.06263 0.61067 0.94436 0.0
H878 H 0.96729 0.57285 0.91716 0.0
H879 H 0.97117 0.54138 0.86444 0.0
H880 H 0.0327 0.51677 0.89816 0.0
H881 H 0.04268 0.5906 0.79473 0.0
H882 H 0.02626 0.6233 0.76176 0.0
H883 H 0.93823 0.54472 0.73911 0.0
H884 H 0.95466 0.51239 0.77186 0.0
H885 H 0.95454 0.4429 0.77215 0.0
H886 H 0.93801 0.39404 0.73957 0.0
H887 H 0.02606 0.40338 0.76198 0.0
H888 H 0.04258 0.45261 0.7948 0.0
H889 H 0.99636 0.49846 0.75625 0.0
H890 H 0.9711 0.43064 0.86464 0.0
H891 H 0.96725 0.39535 0.91731 0.0
H892 H 0.06263 0.45275 0.94436 0.0
H893 H 0.06633 0.48808 0.89119 0.0
C894 C 0.01913 0.55802 0.87347 0.0
C895 C 0.04488 0.57819 0.89598 0.0
C896 C 0.0427 0.59625 0.92643 0.0
C897 C 0.01459 0.59406 0.93532 0.0
C898 C 0.98925 0.57499 0.91129 0.0
C899 C 0.9915 0.55717 0.88075 0.0
C900 C 0.01962 0.53432 0.84755 0.0
C901 C 0.02591 0.51334 0.86657 0.0
C902 C 0.00891 0.52895 0.80714 0.0
C903 C 0.99987 0.54904 0.78596 0.0
C904 C 0.01991 0.58046 0.78247 0.0
C905 C 0.01058 0.59908 0.76335 0.0
C906 C 0.98096 0.58659 0.74775 0.0
C907 C 0.9612 0.55508 0.75072 0.0
C908 C 0.9706 0.53653 0.76942 0.0
C909 C 0.99977 0.45141 0.78612 0.0
C910 C 0.97046 0.43465 0.76969 0.0
C911 C 0.96101 0.40665 0.75109 0.0
C912 C 0.98074 0.39484 0.7481 0.0
C913 C 0.01039 0.41197 0.76359 0.0
C914 C 0.01978 0.43997 0.78262 0.0
C915 C 0.00887 0.48061 0.80721 0.0
C916 C 0.00452 0.50257 0.78724 0.0
C917 C 0.01958 0.48602 0.84762 0.0
C918 C 0.01909 0.4619 0.87359 0.0
C919 C 0.99145 0.43517 0.88091 0.0
C920 C 0.98922 0.41514 0.91142 0.0
C921 C 0.01457 0.42138 0.93539 0.0
C922 C 0.04268 0.44725 0.92647 0.0
C923 C 0.04484 0.46745 0.89605 0.0
H924 H 0.42377 0.48834 0.89121 0.0
H925 H 0.39223 0.45305 0.94448 0.0
H926 H 0.43023 0.39558 0.91715 0.0
H927 H 0.46156 0.43083 0.86438 0.0
H928 H 0.48601 0.51694 0.89807 0.0
H929 H 0.41208 0.45294 0.79479 0.0
H930 H 0.37939 0.40374 0.76199 0.0
H931 H 0.45802 0.39424 0.73924 0.0
H932 H 0.49032 0.44308 0.7718 0.0
H933 H 0.55967 0.51247 0.77164 0.0
H934 H 0.60845 0.54475 0.73899 0.0
H935 H 0.59906 0.62344 0.76184 0.0
H936 H 0.54991 0.59079 0.79473 0.0
H937 H 0.5041 0.49868 0.75607 0.0
H938 H 0.57204 0.54132 0.86426 0.0
H939 H 0.60732 0.57264 0.91703 0.0
H940 H 0.54994 0.61071 0.94445 0.0
H941 H 0.51462 0.57918 0.89118 0.0
C942 C 0.44482 0.46212 0.87346 0.0
C943 C 0.42464 0.4677 0.89603 0.0
C944 C 0.40667 0.44753 0.92651 0.0
C945 C 0.40895 0.42166 0.93538 0.0
C946 C 0.42802 0.41537 0.91131 0.0
C947 C 0.44576 0.43538 0.88074 0.0
C948 C 0.46842 0.48624 0.84749 0.0
C949 C 0.48938 0.51353 0.86647 0.0
C950 C 0.47373 0.48084 0.80705 0.0
C951 C 0.45365 0.45167 0.78594 0.0
C952 C 0.42222 0.44028 0.78253 0.0
C953 C 0.40362 0.41228 0.76351 0.0
C954 C 0.41613 0.39512 0.74794 0.0
C955 C 0.44765 0.40689 0.75083 0.0
C956 C 0.46618 0.43488 0.76942 0.0
C957 C 0.55114 0.54918 0.78584 0.0
C958 C 0.56789 0.53662 0.76926 0.0
C959 C 0.59584 0.55514 0.75061 0.0
C960 C 0.60763 0.58667 0.74774 0.0
C961 C 0.5905 0.5992 0.76336 0.0
C962 C 0.56254 0.58062 0.78243 0.0
C963 C 0.522 0.52912 0.807 0.0
C964 C 0.50004 0.50278 0.78708 0.0
C965 C 0.51665 0.53448 0.84745 0.0
C966 C 0.5408 0.5581 0.87339 0.0
C967 C 0.56752 0.55713 0.88063 0.0
C968 C 0.58754 0.57486 0.9112 0.0
C969 C 0.58129 0.59395 0.93531 0.0
C970 C 0.55544 0.59626 0.92646 0.0
C971 C 0.53525 0.5783 0.89598 0.0
H972 H 0.60351 0.84774 0.52309 0.0
H973 H 0.60724 0.88306 0.46988 0.0
H974 H 0.70261 0.94044 0.49699 0.0
H975 H 0.69873 0.90516 0.54969 0.0
H976 H 0.63712 0.81905 0.5161 0.0
H977 H 0.62728 0.88323 0.61951 0.0
H978 H 0.64384 0.93244 0.6524 0.0
H979 H 0.73184 0.94166 0.67484 0.0
H980 H 0.71527 0.89282 0.64218 0.0
H981 H 0.71514 0.82338 0.64238 0.0
H982 H 0.73159 0.79106 0.6751 0.0
H983 H 0.64357 0.71246 0.6524 0.0
H984 H 0.62714 0.74517 0.61946 0.0
H985 H 0.67343 0.83729 0.65803 0.0
H986 H 0.69867 0.79447 0.5498 0.0
H987 H 0.7026 0.76305 0.49703 0.0
H988 H 0.60726 0.7252 0.46977 0.0
H989 H 0.60349 0.75682 0.52304 0.0
C990 C 0.65075 0.87391 0.54072 0.0
C991 C 0.625 0.86837 0.51823 0.0
C992 C 0.62718 0.88856 0.48779 0.0
C993 C 0.6553 0.91442 0.47887 0.0
C994 C 0.68064 0.92066 0.50287 0.0
C995 C 0.67839 0.90063 0.53341 0.0
C996 C 0.65023 0.84977 0.56667 0.0
C997 C 0.6439 0.82246 0.5477 0.0
C998 C 0.66094 0.85517 0.60709 0.0
C999 C 0.67007 0.88436 0.62819 0.0
C1000 C 0.65008 0.89583 0.63171 0.0
C1001 C 0.65949 0.92383 0.65078 0.0
C1002 C 0.68914 0.94092 0.6663 0.0
C1003 C 0.70885 0.92907 0.6633 0.0
C1004 C 0.69937 0.90109 0.64465 0.0
C1005 C 0.66994 0.78673 0.62826 0.0
C1006 C 0.69921 0.79925 0.64481 0.0
C1007 C 0.70861 0.7807 0.66349 0.0
C1008 C 0.68887 0.74919 0.66643 0.0
C1009 C 0.65925 0.73669 0.65083 0.0
C1010 C 0.64991 0.7553 0.63172 0.0
C1011 C 0.66089 0.80682 0.60711 0.0
C1012 C 0.66528 0.83319 0.62704 0.0
C1013 C 0.65019 0.80147 0.56669 0.0
C1014 C 0.6507 0.77781 0.54074 0.0
C1015 C 0.67835 0.77868 0.53346 0.0
C1016 C 0.68062 0.7609 0.50289 0.0
C1017 C 0.6553 0.74184 0.47884 0.0
C1018 C 0.62718 0.73962 0.48773 0.0
C1019 C 0.62498 0.75764 0.5182 0.0
H1020 H 0.15528 0.75681 0.52297 0.0
H1021 H 0.11998 0.72528 0.46968 0.0
H1022 H 0.06255 0.7633 0.49708 0.0
H1023 H 0.09781 0.79462 0.54988 0.0
H1024 H 0.18387 0.81903 0.5161 0.0
H1025 H 0.11999 0.74517 0.61941 0.0
H1026 H 0.07085 0.71247 0.65228 0.0
H1027 H 0.06136 0.79111 0.67517 0.0
H1028 H 0.11014 0.82343 0.64252 0.0
H1029 H 0.17954 0.89288 0.6424 0.0
H1030 H 0.21186 0.9417 0.67501 0.0
H1031 H 0.29046 0.93217 0.65227 0.0
H1032 H 0.25777 0.88299 0.61943 0.0
H1033 H 0.16573 0.83727 0.6581 0.0
H1034 H 0.20833 0.90514 0.5498 0.0
H1035 H 0.23965 0.94038 0.49702 0.0
H1036 H 0.27763 0.88289 0.46972 0.0
H1037 H 0.2461 0.84761 0.523 0.0
C1038 C 0.12908 0.77787 0.54076 0.0
C1039 C 0.13464 0.75768 0.51817 0.0
C1040 C 0.11447 0.73972 0.48767 0.0
C1041 C 0.08861 0.74202 0.47881 0.0
C1042 C 0.08234 0.76109 0.50291 0.0
C1043 C 0.10235 0.77882 0.5335 0.0
C1044 C 0.15322 0.80149 0.56671 0.0
C1045 C 0.18048 0.82244 0.5477 0.0
C1046 C 0.14785 0.80684 0.60715 0.0
C1047 C 0.11872 0.78675 0.62831 0.0
C1048 C 0.10734 0.75532 0.6317 0.0
C1049 C 0.07938 0.73671 0.65077 0.0
C1050 C 0.06224 0.74922 0.6664 0.0
C1051 C 0.07399 0.78074 0.66354 0.0
C1052 C 0.10194 0.79928 0.64489 0.0
C1053 C 0.2162 0.88428 0.62826 0.0
C1054 C 0.20368 0.90108 0.64479 0.0
C1055 C 0.22222 0.92905 0.66341 0.0
C1056 C 0.25373 0.94081 0.66631 0.0
C1057 C 0.26624 0.92363 0.65073 0.0
C1058 C 0.24763 0.89565 0.63168 0.0
C1059 C 0.19612 0.85512 0.60713 0.0
C1060 C 0.1698 0.83317 0.62709 0.0
C1061 C 0.20145 0.84972 0.56669 0.0
C1062 C 0.22506 0.87385 0.54073 0.0
C1063 C 0.22412 0.90058 0.53345 0.0
C1064 C 0.24186 0.92059 0.50287 0.0
C1065 C 0.26092 0.91429 0.4788 0.0
C1066 C 0.2632 0.88842 0.48768 0.0
C1067 C 0.24523 0.86826 0.51817 0.0
H1068 H 0.09751 0.30378 0.54941 0.0
H1069 H 0.0622 0.29999 0.4968 0.0
H1070 H 0.11964 0.3954 0.46986 0.0
H1071 H 0.15499 0.39903 0.52297 0.0
H1072 H 0.18363 0.36537 0.51587 0.0
H1073 H 0.10982 0.28716 0.64186 0.0
H1074 H 0.06104 0.27068 0.67459 0.0
H1075 H 0.07045 0.3588 0.65233 0.0
H1076 H 0.11959 0.37526 0.61937 0.0
H1077 H 0.25746 0.37539 0.61934 0.0
H1078 H 0.29019 0.359 0.65232 0.0
H1079 H 0.2117 0.27085 0.6747 0.0
H1080 H 0.17935 0.28724 0.64195 0.0
H1081 H 0.16538 0.32896 0.65774 0.0
H1082 H 0.24584 0.39908 0.52295 0.0
H1083 H 0.27761 0.39546 0.4698 0.0
H1084 H 0.23988 0.30007 0.4968 0.0
H1085 H 0.20832 0.30385 0.54945 0.0
C1086 C 0.12878 0.35177 0.54051 0.0
C1087 C 0.10205 0.32415 0.53318 0.0
C1088 C 0.082 0.32195 0.5027 0.0
C1089 C 0.08825 0.34733 0.47878 0.0
C1090 C 0.11413 0.37543 0.48771 0.0
C1091 C 0.13434 0.37755 0.5181 0.0
C1092 C 0.15291 0.35223 0.56643 0.0
C1093 C 0.18021 0.35856 0.54745 0.0
C1094 C 0.14751 0.34149 0.60683 0.0
C1095 C 0.11836 0.33242 0.62796 0.0
C1096 C 0.1016 0.3031 0.64438 0.0
C1097 C 0.07365 0.29368 0.66307 0.0
C1098 C 0.06188 0.31345 0.66615 0.0
C1099 C 0.079 0.3431 0.65066 0.0
C1100 C 0.10696 0.35246 0.63154 0.0
C1101 C 0.21595 0.33251 0.62798 0.0
C1102 C 0.24735 0.3526 0.63154 0.0
C1103 C 0.26598 0.34328 0.65067 0.0
C1104 C 0.25352 0.31364 0.6662 0.0
C1105 C 0.22203 0.29384 0.66315 0.0
C1106 C 0.20347 0.30321 0.64445 0.0
C1107 C 0.19584 0.34154 0.60684 0.0
C1108 C 0.16948 0.33713 0.62676 0.0
C1109 C 0.2012 0.35227 0.56644 0.0
C1110 C 0.2249 0.35183 0.54052 0.0
C1111 C 0.24508 0.37761 0.51808 0.0
C1112 C 0.26319 0.37549 0.48768 0.0
C1113 C 0.26105 0.3474 0.47874 0.0
C1114 C 0.24197 0.32202 0.50269 0.0
C1115 C 0.2241 0.32421 0.5332 0.0
loop_
_geom_bond_atom_site_label_1
_geom_bond_atom_site_label_2
_geom_bond_distance
_geom_bond_site_symmetry_2
_ccdc_geom_bond_type
O0 Cd1 2.223 . S
O0 C8 1.315 . S
Cd1 O0 2.223 . S
Cd1 O4 2.297 . S
Cd1 O5 2.439 . S
Cd1 O11 2.240 1_554 S
Cd2 O3 2.240 . S
Cd2 O10 2.223 1_554 S
Cd2 O12 2.297 1_554 S
Cd2 O13 2.439 1_554 S
O3 Cd2 2.240 . S
O3 C8 1.279 1_655 S
O4 Cd1 2.297 . S
O4 C6 1.247 . S
O5 Cd1 2.439 . S
O5 C6 1.208 . S
C6 O4 1.247 . S
C6 O5 1.208 . S
C7 O12 1.247 . S
C7 O13 1.208 . S
C8 O0 1.315 . S
C8 O3 1.279 1_455 S
C9 O10 1.315 . S
C9 O11 1.279 1_655 S
O10 Cd2 2.223 1_556 S
O10 C9 1.315 . S
O11 Cd1 2.240 1_556 S
O11 C9 1.279 1_455 S
O12 Cd2 2.297 1_556 S
O12 C7 1.247 . S
O13 Cd2 2.439 1_556 S
O13 C7 1.208 . S
O14 Cd15 2.223 . S
O14 C22 1.315 . S
Cd15 O14 2.223 . S
Cd15 O18 2.297 . S
Cd15 O19 2.439 . S
Cd15 O25 2.240 1_554 S
Cd16 O17 2.240 . S
Cd16 O24 2.223 1_554 S
Cd16 O26 2.297 1_554 S
Cd16 O27 2.439 1_554 S
O17 Cd16 2.240 . S
O17 C22 1.279 . S
O18 Cd15 2.297 . S
O18 C20 1.247 . S
O19 Cd15 2.439 . S
O19 C20 1.208 . S
C20 O18 1.247 . S
C20 O19 1.208 . S
C21 O26 1.247 . S
C21 O27 1.208 . S
C22 O14 1.315 . S
C22 O17 1.279 . S
C23 O24 1.315 . S
C23 O25 1.279 . S
O24 Cd16 2.223 1_556 S
O24 C23 1.315 . S
O25 Cd15 2.240 1_556 S
O25 C23 1.279 . S
O26 Cd16 2.297 1_556 S
O26 C21 1.247 . S
O27 Cd16 2.439 1_556 S
O27 C21 1.208 . S
O28 Cd29 2.223 1_556 S
O28 C36 1.315 . S
Cd29 O28 2.223 1_554 S
Cd29 O32 2.297 1_554 S
Cd29 O33 2.439 1_554 S
Cd29 O39 2.240 . S
Cd30 O31 2.240 1_554 S
Cd30 O38 2.223 . S
Cd30 O40 2.297 . S
Cd30 O41 2.439 . S
O31 Cd30 2.240 1_556 S
O31 C36 1.279 1_565 S
O32 Cd29 2.297 1_556 S
O32 C34 1.247 . S
O33 Cd29 2.439 1_556 S
O33 C34 1.208 . S
C34 O32 1.247 . S
C34 O33 1.208 . S
C35 O40 1.247 . S
C35 O41 1.208 . S
C36 O28 1.315 . S
C36 O31 1.279 1_545 S
C37 O38 1.315 . S
C37 O39 1.279 1_565 S
O38 Cd30 2.223 . S
O38 C37 1.315 . S
O39 Cd29 2.240 . S
O39 C37 1.279 1_545 S
O40 Cd30 2.297 . S
O40 C35 1.247 . S
O41 Cd30 2.439 . S
O41 C35 1.208 . S
O42 Cd43 2.223 1_556 S
O42 C50 1.315 . S
Cd43 O42 2.223 1_554 S
Cd43 O46 2.297 1_554 S
Cd43 O47 2.439 1_554 S
Cd43 O53 2.240 . S
Cd44 O45 2.240 1_554 S
Cd44 O52 2.223 . S
Cd44 O54 2.297 . S
Cd44 O55 2.439 . S
O45 Cd44 2.240 1_556 S
O45 C50 1.279 1_455 S
O46 Cd43 2.297 1_556 S
O46 C48 1.247 . S
O47 Cd43 2.439 1_556 S
O47 C48 1.208 . S
C48 O46 1.247 . S
C48 O47 1.208 . S
C49 O54 1.247 . S
C49 O55 1.208 . S
C50 O42 1.315 . S
C50 O45 1.279 1_655 S
C51 O52 1.315 . S
C51 O53 1.279 1_455 S
O52 Cd44 2.223 . S
O52 C51 1.315 . S
O53 Cd43 2.240 . S
O53 C51 1.279 1_655 S
O54 Cd44 2.297 . S
O54 C49 1.247 . S
O55 Cd44 2.439 . S
O55 C49 1.208 . S
O56 Cd57 2.223 1_556 S
O56 C64 1.315 . S
Cd57 O56 2.223 1_554 S
Cd57 O60 2.297 1_554 S
Cd57 O61 2.439 1_554 S
Cd57 O67 2.240 . S
Cd58 O59 2.240 1_554 S
Cd58 O66 2.223 . S
Cd58 O68 2.297 . S
Cd58 O69 2.439 . S
O59 Cd58 2.240 1_556 S
O59 C64 1.279 . S
O60 Cd57 2.297 1_556 S
O60 C62 1.247 . S
O61 Cd57 2.439 1_556 S
O61 C62 1.208 . S
C62 O60 1.247 . S
C62 O61 1.208 . S
C63 O68 1.247 . S
C63 O69 1.208 . S
C64 O56 1.315 . S
C64 O59 1.279 . S
C65 O66 1.315 . S
C65 O67 1.279 . S
O66 Cd58 2.223 . S
O66 C65 1.315 . S
O67 Cd57 2.240 . S
O67 C65 1.279 . S
O68 Cd58 2.297 . S
O68 C63 1.247 . S
O69 Cd58 2.439 . S
O69 C63 1.208 . S
O70 Cd71 2.223 . S
O70 C78 1.315 . S
Cd71 O70 2.223 . S
Cd71 O74 2.297 . S
Cd71 O75 2.439 . S
Cd71 O81 2.240 1_554 S
Cd72 O73 2.240 . S
Cd72 O80 2.223 1_554 S
Cd72 O82 2.297 1_554 S
Cd72 O83 2.439 1_554 S
O73 Cd72 2.240 . S
O73 C78 1.279 1_545 S
O74 Cd71 2.297 . S
O74 C76 1.247 . S
O75 Cd71 2.439 . S
O75 C76 1.208 . S
C76 O74 1.247 . S
C76 O75 1.208 . S
C77 O82 1.247 . S
C77 O83 1.208 . S
C78 O70 1.315 . S
C78 O73 1.279 1_565 S
C79 O80 1.315 . S
C79 O81 1.279 1_545 S
O80 Cd72 2.223 1_556 S
O80 C79 1.315 . S
O81 Cd71 2.240 1_556 S
O81 C79 1.279 1_565 S
O82 Cd72 2.297 1_556 S
O82 C77 1.247 . S
O83 Cd72 2.439 1_556 S
O83 C77 1.208 . S
O84 Cd85 2.223 . S
O84 C92 1.315 . S
Cd85 O84 2.223 . S
Cd85 O88 2.297 . S
Cd85 O89 2.439 . S
Cd85 O95 2.240 . S
Cd86 O87 2.240 . S
Cd86 O94 2.223 . S
Cd86 O96 2.297 . S
Cd86 O97 2.439 . S
O87 Cd86 2.240 . S
O87 C92 1.279 . S
O88 Cd85 2.297 . S
O88 C90 1.247 . S
O89 Cd85 2.439 . S
O89 C90 1.208 . S
C90 O88 1.247 . S
C90 O89 1.208 . S
C91 O96 1.247 . S
C91 O97 1.208 . S
C92 O84 1.315 . S
C92 O87 1.279 . S
C93 O94 1.315 . S
C93 O95 1.279 . S
O94 Cd86 2.223 . S
O94 C93 1.315 . S
O95 Cd85 2.240 . S
O95 C93 1.279 . S
O96 Cd86 2.297 . S
O96 C91 1.247 . S
O97 Cd86 2.439 . S
O97 C91 1.208 . S
O98 Cd99 2.223 . S
O98 C106 1.315 . S
Cd99 O98 2.223 . S
Cd99 O102 2.297 1_565 S
Cd99 O103 2.439 1_565 S
Cd99 O109 2.240 . S
Cd100 O101 2.240 . S
Cd100 O108 2.223 . S
Cd100 O110 2.297 . S
Cd100 O111 2.444 . S
O101 Cd100 2.240 . S
O101 C106 1.279 . S
O102 Cd99 2.297 1_545 S
O102 C104 1.247 . S
O103 Cd99 2.439 1_545 S
O103 C104 1.208 . S
C104 O102 1.247 . S
C104 O103 1.208 . S
C105 O110 1.247 . S
C105 O111 1.215 . S
C106 O98 1.315 . S
C106 O101 1.279 . S
C107 O108 1.315 . S
C107 O109 1.279 . S
O108 Cd100 2.223 . S
O108 C107 1.315 . S
O109 Cd99 2.240 . S
O109 C107 1.279 . S
O110 Cd100 2.297 . S
O110 C105 1.247 . S
O111 Cd100 2.444 . S
O111 C105 1.215 . S
O112 Cd113 2.223 . S
O112 C120 1.315 . S
Cd113 O112 2.223 . S
Cd113 O116 2.297 . S
Cd113 O117 2.466 . S
Cd113 O123 2.240 . S
Cd114 O115 2.240 . S
Cd114 O122 2.223 . S
Cd114 O124 2.297 1_455 S
Cd114 O125 2.439 1_455 S
O115 Cd114 2.240 . S
O115 C120 1.279 . S
O116 Cd113 2.297 . S
O116 C118 1.247 . S
O117 Cd113 2.466 . S
O117 C118 1.213 . S
C118 O116 1.247 . S
C118 O117 1.213 . S
C119 O124 1.247 . S
C119 O125 1.208 . S
C120 O112 1.315 . S
C120 O115 1.279 . S
C121 O122 1.315 . S
C121 O123 1.279 . S
O122 Cd114 2.223 . S
O122 C121 1.315 . S
O123 Cd113 2.240 . S
O123 C121 1.279 . S
O124 Cd114 2.297 1_655 S
O124 C119 1.247 . S
O125 Cd114 2.439 1_655 S
O125 C119 1.208 . S
O126 Cd127 2.223 . S
O126 C134 1.315 . S
Cd127 O126 2.223 . S
Cd127 O130 2.297 . S
Cd127 O131 2.450 . S
Cd127 O137 2.240 . S
Cd128 O129 2.240 . S
Cd128 O136 2.223 . S
Cd128 O138 2.297 1_565 S
Cd128 O139 2.439 1_565 S
O129 Cd128 2.240 . S
O129 C134 1.279 . S
O130 Cd127 2.297 . S
O130 C132 1.247 . S
O131 Cd127 2.450 . S
O131 C132 1.210 . S
C132 O130 1.247 . S
C132 O131 1.210 . S
C133 O138 1.247 . S
C133 O139 1.208 . S
C134 O126 1.315 . S
C134 O129 1.279 . S
C135 O136 1.315 . S
C135 O137 1.279 . S
O136 Cd128 2.223 . S
O136 C135 1.315 . S
O137 Cd127 2.240 . S
O137 C135 1.279 . S
O138 Cd128 2.297 1_545 S
O138 C133 1.247 . S
O139 Cd128 2.439 1_545 S
O139 C133 1.208 . S
O140 Cd141 2.223 . S
O140 C148 1.315 . S
Cd141 O140 2.223 . S
Cd141 O144 2.297 . S
Cd141 O145 2.465 . S
Cd141 O151 2.240 . S
Cd142 O143 2.240 . S
Cd142 O150 2.223 . S
Cd142 O152 2.297 1_455 S
Cd142 O153 2.439 1_455 S
O143 Cd142 2.240 . S
O143 C148 1.279 . S
O144 Cd141 2.297 . S
O144 C146 1.247 . S
O145 Cd141 2.465 . S
O145 C146 1.241 . S
C146 O144 1.247 . S
C146 O145 1.241 . S
C147 O152 1.247 . S
C147 O153 1.208 . S
C148 O140 1.315 . S
C148 O143 1.279 . S
C149 O150 1.315 . S
C149 O151 1.279 . S
O150 Cd142 2.223 . S
O150 C149 1.315 . S
O151 Cd141 2.240 . S
O151 C149 1.279 . S
O152 Cd142 2.297 1_655 S
O152 C147 1.247 . S
O153 Cd142 2.439 1_655 S
O153 C147 1.208 . S
O154 Cd155 2.223 . S
O154 C162 1.315 . S
Cd155 O154 2.223 . S
Cd155 O158 2.297 . S
Cd155 O159 2.439 . S
Cd155 O165 2.240 . S
Cd156 O157 2.240 . S
Cd156 O164 2.223 . S
Cd156 O166 2.297 . S
Cd156 O167 2.439 . S
O157 Cd156 2.240 . S
O157 C162 1.279 . S
O158 Cd155 2.297 . S
O158 C160 1.247 . S
O159 Cd155 2.439 . S
O159 C160 1.208 . S
C160 O158 1.247 . S
C160 O159 1.208 . S
C161 O166 1.247 . S
C161 O167 1.208 . S
C162 O154 1.315 . S
C162 O157 1.279 . S
C163 O164 1.315 . S
C163 O165 1.279 . S
O164 Cd156 2.223 . S
O164 C163 1.315 . S
O165 Cd155 2.240 . S
O165 C163 1.279 . S
O166 Cd156 2.297 . S
O166 C161 1.247 . S
O167 Cd156 2.439 . S
O167 C161 1.208 . S
O168 Cd169 2.223 . S
O168 C176 1.315 . S
Cd169 O168 2.223 . S
Cd169 O172 2.297 . S
Cd169 O173 2.457 . S
Cd169 O179 2.240 . S
Cd170 O171 2.240 . S
Cd170 O178 2.223 . S
Cd170 O180 2.297 1_545 S
Cd170 O181 2.439 1_545 S
O171 Cd170 2.240 . S
O171 C176 1.279 . S
O172 Cd169 2.297 . S
O172 C174 1.247 . S
O173 Cd169 2.457 . S
O173 C174 1.211 . S
C174 O172 1.247 . S
C174 O173 1.211 . S
C175 O180 1.247 . S
C175 O181 1.208 . S
C176 O168 1.315 . S
C176 O171 1.279 . S
C177 O178 1.315 . S
C177 O179 1.279 . S
O178 Cd170 2.223 . S
O178 C177 1.315 . S
O179 Cd169 2.240 . S
O179 C177 1.279 . S
O180 Cd170 2.297 1_565 S
O180 C175 1.247 . S
O181 Cd170 2.439 1_565 S
O181 C175 1.208 . S
O182 Cd183 2.223 . S
O182 C190 1.315 . S
Cd183 O182 2.223 . S
Cd183 O186 2.297 . S
Cd183 O187 2.446 . S
Cd183 O193 2.240 . S
Cd184 O185 2.240 . S
Cd184 O192 2.223 . S
Cd184 O194 2.297 1_655 S
Cd184 O195 2.439 1_655 S
O185 Cd184 2.240 . S
O185 C190 1.279 . S
O186 Cd183 2.297 . S
O186 C188 1.247 . S
O187 Cd183 2.446 . S
O187 C188 1.217 . S
C188 O186 1.247 . S
C188 O187 1.217 . S
C189 O194 1.247 . S
C189 O195 1.208 . S
C190 O182 1.315 . S
C190 O185 1.279 . S
C191 O192 1.315 . S
C191 O193 1.279 . S
O192 Cd184 2.223 . S
O192 C191 1.315 . S
O193 Cd183 2.240 . S
O193 C191 1.279 . S
O194 Cd184 2.297 1_455 S
O194 C189 1.247 . S
O195 Cd184 2.439 1_455 S
O195 C189 1.208 . S
O196 Cd197 2.223 . S
O196 C204 1.315 . S
Cd197 O196 2.223 . S
Cd197 O200 2.297 . S
Cd197 O201 2.439 . S
Cd197 O207 2.240 . S
Cd198 O199 2.240 . S
Cd198 O206 2.223 . S
Cd198 O208 2.297 . S
Cd198 O209 2.439 . S
O199 Cd198 2.240 . S
O199 C204 1.279 . S
O200 Cd197 2.297 . S
O200 C202 1.247 . S
O201 Cd197 2.439 . S
O201 C202 1.208 . S
C202 O200 1.247 . S
C202 O201 1.208 . S
C203 O208 1.247 . S
C203 O209 1.208 . S
C204 O196 1.315 . S
C204 O199 1.279 . S
C205 O206 1.315 . S
C205 O207 1.279 . S
O206 Cd198 2.223 . S
O206 C205 1.315 . S
O207 Cd197 2.240 . S
O207 C205 1.279 . S
O208 Cd198 2.297 . S
O208 C203 1.247 . S
O209 Cd198 2.439 . S
O209 C203 1.208 . S
O210 Cd211 2.223 . S
O210 C218 1.315 . S
Cd211 O210 2.223 . S
Cd211 O214 2.297 . S
Cd211 O215 2.439 . S
Cd211 O221 2.240 . S
Cd212 O213 2.240 . S
Cd212 O220 2.223 . S
Cd212 O222 2.297 . S
Cd212 O223 2.439 . S
O213 Cd212 2.240 . S
O213 C218 1.279 . S
O214 Cd211 2.297 . S
O214 C216 1.247 . S
O215 Cd211 2.439 . S
O215 C216 1.208 . S
C216 O214 1.247 . S
C216 O215 1.208 . S
C217 O222 1.247 . S
C217 O223 1.208 . S
C218 O210 1.315 . S
C218 O213 1.279 . S
C219 O220 1.315 . S
C219 O221 1.279 . S
O220 Cd212 2.223 . S
O220 C219 1.315 . S
O221 Cd211 2.240 . S
O221 C219 1.279 . S
O222 Cd212 2.297 . S
O222 C217 1.247 . S
O223 Cd212 2.439 . S
O223 C217 1.208 . S
O224 Cd225 2.223 . S
O224 C232 1.315 . S
Cd225 O224 2.223 . S
Cd225 O228 2.297 1_545 S
Cd225 O229 2.439 1_545 S
Cd225 O235 2.240 . S
Cd226 O227 2.240 . S
Cd226 O234 2.223 . S
Cd226 O236 2.297 . S
Cd226 O237 2.464 . S
O227 Cd226 2.240 . S
O227 C232 1.279 . S
O228 Cd225 2.297 1_565 S
O228 C230 1.247 . S
O229 Cd225 2.439 1_565 S
O229 C230 1.208 . S
C230 O228 1.247 . S
C230 O229 1.208 . S
C231 O236 1.247 . S
C231 O237 1.240 . S
C232 O224 1.315 . S
C232 O227 1.279 . S
C233 O234 1.315 . S
C233 O235 1.279 . S
O234 Cd226 2.223 . S
O234 C233 1.315 . S
O235 Cd225 2.240 . S
O235 C233 1.279 . S
O236 Cd226 2.297 . S
O236 C231 1.247 . S
O237 Cd226 2.464 . S
O237 C231 1.240 . S
O238 Cd239 2.223 . S
O238 C246 1.315 . S
Cd239 O238 2.223 . S
Cd239 O242 2.297 . S
Cd239 O243 2.437 . S
Cd239 O249 2.240 . S
Cd240 O241 2.240 . S
Cd240 O248 2.223 . S
Cd240 O250 2.297 1_655 S
Cd240 O251 2.439 1_655 S
O241 Cd240 2.240 . S
O241 C246 1.279 . S
O242 Cd239 2.297 . S
O242 C244 1.247 . S
O243 Cd239 2.437 . S
O243 C244 1.208 . S
C244 O242 1.247 . S
C244 O243 1.208 . S
C245 O250 1.247 . S
C245 O251 1.208 . S
C246 O238 1.315 . S
C246 O241 1.279 . S
C247 O248 1.315 . S
C247 O249 1.279 . S
O248 Cd240 2.223 . S
O248 C247 1.315 . S
O249 Cd239 2.240 . S
O249 C247 1.279 . S
O250 Cd240 2.297 1_455 S
O250 C245 1.247 . S
O251 Cd240 2.439 1_455 S
O251 C245 1.208 . S
H252 C271 0.949 . S
H253 C272 0.950 . S
H254 C274 0.950 . S
H255 C275 0.950 . S
H256 C277 0.950 . S
H257 C280 0.950 . S
H258 C281 0.950 . S
H259 C283 0.951 . S
H260 C284 0.949 . S
H261 C286 0.949 . S
H262 C287 0.950 . S
H263 C289 0.950 . S
H264 C290 0.950 . S
H265 C292 0.950 . S
H266 C295 0.950 . S
H267 C296 0.950 . S
H268 C298 0.951 . S
H269 C299 0.949 . S
C270 C271 1.376 . S
C270 C275 1.386 . S
C270 C276 1.483 . S
C271 H252 0.949 . S
C271 C270 1.376 . S
C271 C272 1.397 . S
C272 H253 0.950 . S
C272 C271 1.397 . S
C272 C273 1.391 . S
C273 C272 1.391 . S
C273 C274 1.405 . S
C274 H254 0.950 . S
C274 C273 1.405 . S
C274 C275 1.367 . S
C275 H255 0.950 . S
C275 C270 1.386 . S
C275 C274 1.367 . S
C276 C270 1.483 . S
C276 C277 1.382 . S
C276 C278 1.403 . S
C277 H256 0.950 . S
C277 C276 1.382 . S
C277 C293 1.411 . S
C278 C276 1.403 . S
C278 C279 1.489 . S
C278 C292 1.411 . S
C279 C278 1.489 . S
C279 C280 1.383 . S
C279 C284 1.382 . S
C280 H257 0.950 . S
C280 C279 1.383 . S
C280 C281 1.395 . S
C281 H258 0.950 . S
C281 C280 1.395 . S
C281 C282 1.288 . S
C282 C281 1.288 . S
C282 C283 1.392 . S
C283 H259 0.951 . S
C283 C282 1.392 . S
C283 C284 1.392 . S
C284 H260 0.949 . S
C284 C279 1.382 . S
C284 C283 1.392 . S
C285 C286 1.376 . S
C285 C290 1.386 . S
C285 C291 1.483 . S
C286 H261 0.949 . S
C286 C285 1.376 . S
C286 C287 1.397 . S
C287 H262 0.950 . S
C287 C286 1.397 . S
C287 C288 1.391 . S
C288 C287 1.391 . S
C288 C289 1.405 . S
C289 H263 0.950 . S
C289 C288 1.405 . S
C289 C290 1.367 . S
C290 H264 0.950 . S
C290 C285 1.386 . S
C290 C289 1.367 . S
C291 C285 1.483 . S
C291 C292 1.382 . S
C291 C293 1.403 . S
C292 H265 0.950 . S
C292 C278 1.411 . S
C292 C291 1.382 . S
C293 C277 1.411 . S
C293 C291 1.403 . S
C293 C294 1.489 . S
C294 C293 1.489 . S
C294 C295 1.383 . S
C294 C299 1.382 . S
C295 H266 0.950 . S
C295 C294 1.383 . S
C295 C296 1.395 . S
C296 H267 0.950 . S
C296 C295 1.395 . S
C296 C297 1.288 . S
C297 C296 1.288 . S
C297 C298 1.392 . S
C298 H268 0.951 . S
C298 C297 1.392 . S
C298 C299 1.392 . S
C299 H269 0.949 . S
C299 C294 1.382 . S
C299 C298 1.392 . S
H300 C319 0.949 . S
H301 C320 0.950 . S
H302 C322 0.950 . S
H303 C323 0.950 . S
H304 C325 0.950 . S
H305 C328 0.950 . S
H306 C329 0.950 . S
H307 C331 0.951 . S
H308 C332 0.949 . S
H309 C334 0.949 . S
H310 C335 0.950 . S
H311 C337 0.950 . S
H312 C338 0.950 . S
H313 C340 0.950 . S
H314 C343 0.950 . S
H315 C344 0.950 . S
H316 C346 0.951 . S
H317 C347 0.949 . S
C318 C319 1.376 . S
C318 C323 1.386 . S
C318 C324 1.483 . S
C319 H300 0.949 . S
C319 C318 1.376 . S
C319 C320 1.397 . S
C320 H301 0.950 . S
C320 C319 1.397 . S
C320 C321 1.391 . S
C321 C320 1.391 . S
C321 C322 1.405 . S
C322 H302 0.950 . S
C322 C321 1.405 . S
C322 C323 1.367 . S
C323 H303 0.950 . S
C323 C318 1.386 . S
C323 C322 1.367 . S
C324 C318 1.483 . S
C324 C325 1.382 . S
C324 C326 1.403 . S
C325 H304 0.950 . S
C325 C324 1.382 . S
C325 C341 1.411 . S
C326 C324 1.403 . S
C326 C327 1.489 . S
C326 C340 1.411 . S
C327 C326 1.489 . S
C327 C328 1.383 . S
C327 C332 1.382 . S
C328 H305 0.950 . S
C328 C327 1.383 . S
C328 C329 1.395 . S
C329 H306 0.950 . S
C329 C328 1.395 . S
C329 C330 1.288 . S
C330 C329 1.288 . S
C330 C331 1.392 . S
C331 H307 0.951 . S
C331 C330 1.392 . S
C331 C332 1.392 . S
C332 H308 0.949 . S
C332 C327 1.382 . S
C332 C331 1.392 . S
C333 C334 1.376 . S
C333 C338 1.386 . S
C333 C339 1.483 . S
C334 H309 0.949 . S
C334 C333 1.376 . S
C334 C335 1.397 . S
C335 H310 0.950 . S
C335 C334 1.397 . S
C335 C336 1.391 . S
C336 C335 1.391 . S
C336 C337 1.405 . S
C337 H311 0.950 . S
C337 C336 1.405 . S
C337 C338 1.367 . S
C338 H312 0.950 . S
C338 C333 1.386 . S
C338 C337 1.367 . S
C339 C333 1.483 . S
C339 C340 1.382 . S
C339 C341 1.403 . S
C340 H313 0.950 . S
C340 C326 1.411 . S
C340 C339 1.382 . S
C341 C325 1.411 . S
C341 C339 1.403 . S
C341 C342 1.489 . S
C342 C341 1.489 . S
C342 C343 1.383 . S
C342 C347 1.382 . S
C343 H314 0.950 . S
C343 C342 1.383 . S
C343 C344 1.395 . S
C344 H315 0.950 . S
C344 C343 1.395 . S
C344 C345 1.288 . S
C345 C344 1.288 . S
C345 C346 1.392 . S
C346 H316 0.951 . S
C346 C345 1.392 . S
C346 C347 1.392 . S
C347 H317 0.949 . S
C347 C342 1.382 . S
C347 C346 1.392 . S
H348 C367 0.949 . S
H349 C368 0.950 . S
H350 C370 0.950 . S
H351 C371 0.950 . S
H352 C373 0.950 . S
H353 C376 0.950 . S
H354 C377 0.950 . S
H355 C379 0.951 . S
H356 C380 0.949 . S
H357 C382 0.949 . S
H358 C383 0.950 . S
H359 C385 0.950 . S
H360 C386 0.950 . S
H361 C388 0.950 . S
H362 C391 0.950 . S
H363 C392 0.950 . S
H364 C394 0.951 . S
H365 C395 0.949 . S
C366 C367 1.376 . S
C366 C371 1.386 . S
C366 C372 1.483 . S
C367 H348 0.949 . S
C367 C366 1.376 . S
C367 C368 1.397 . S
C368 H349 0.950 . S
C368 C367 1.397 . S
C368 C369 1.391 . S
C369 C368 1.391 . S
C369 C370 1.405 . S
C370 H350 0.950 . S
C370 C369 1.405 . S
C370 C371 1.367 . S
C371 H351 0.950 . S
C371 C366 1.386 . S
C371 C370 1.367 . S
C372 C366 1.483 . S
C372 C373 1.382 . S
C372 C374 1.403 . S
C373 H352 0.950 . S
C373 C372 1.382 . S
C373 C389 1.411 . S
C374 C372 1.403 . S
C374 C375 1.489 . S
C374 C388 1.411 . S
C375 C374 1.489 . S
C375 C376 1.383 . S
C375 C380 1.382 . S
C376 H353 0.950 . S
C376 C375 1.383 . S
C376 C377 1.395 . S
C377 H354 0.950 . S
C377 C376 1.395 . S
C377 C378 1.288 . S
C378 C377 1.288 . S
C378 C379 1.392 . S
C379 H355 0.951 . S
C379 C378 1.392 . S
C379 C380 1.392 . S
C380 H356 0.949 . S
C380 C375 1.382 . S
C380 C379 1.392 . S
C381 C382 1.376 . S
C381 C386 1.386 . S
C381 C387 1.483 . S
C382 H357 0.949 . S
C382 C381 1.376 . S
C382 C383 1.397 . S
C383 H358 0.950 . S
C383 C382 1.397 . S
C383 C384 1.391 . S
C384 C383 1.391 . S
C384 C385 1.405 . S
C385 H359 0.950 . S
C385 C384 1.405 . S
C385 C386 1.367 . S
C386 H360 0.950 . S
C386 C381 1.386 . S
C386 C385 1.367 . S
C387 C381 1.483 . S
C387 C388 1.382 . S
C387 C389 1.403 . S
C388 H361 0.950 . S
C388 C374 1.411 . S
C388 C387 1.382 . S
C389 C373 1.411 . S
C389 C387 1.403 . S
C389 C390 1.489 . S
C390 C389 1.489 . S
C390 C391 1.383 . S
C390 C395 1.382 . S
C391 H362 0.950 . S
C391 C390 1.383 . S
C391 C392 1.395 . S
C392 H363 0.950 . S
C392 C391 1.395 . S
C392 C393 1.288 . S
C393 C392 1.288 . S
C393 C394 1.392 . S
C394 H364 0.951 . S
C394 C393 1.392 . S
C394 C395 1.392 . S
C395 H365 0.949 . S
C395 C390 1.382 . S
C395 C394 1.392 . S
H396 C415 0.949 . S
H397 C416 0.950 . S
H398 C418 0.950 . S
H399 C419 0.950 . S
H400 C421 0.950 . S
H401 C424 0.950 . S
H402 C425 0.950 . S
H403 C427 0.951 . S
H404 C428 0.949 . S
H405 C430 0.949 . S
H406 C431 0.950 . S
H407 C433 0.950 . S
H408 C434 0.950 . S
H409 C436 0.950 . S
H410 C439 0.950 . S
H411 C440 0.950 . S
H412 C442 0.951 . S
H413 C443 0.949 . S
C414 C415 1.376 . S
C414 C419 1.386 . S
C414 C420 1.483 . S
C415 H396 0.949 . S
C415 C414 1.376 . S
C415 C416 1.397 . S
C416 H397 0.950 . S
C416 C415 1.397 . S
C416 C417 1.391 . S
C417 C416 1.391 . S
C417 C418 1.405 . S
C418 H398 0.950 . S
C418 C417 1.405 . S
C418 C419 1.367 . S
C419 H399 0.950 . S
C419 C414 1.386 . S
C419 C418 1.367 . S
C420 C414 1.483 . S
C420 C421 1.382 . S
C420 C422 1.403 . S
C421 H400 0.950 . S
C421 C420 1.382 . S
C421 C437 1.411 . S
C422 C420 1.403 . S
C422 C423 1.489 . S
C422 C436 1.411 . S
C423 C422 1.489 . S
C423 C424 1.383 . S
C423 C428 1.382 . S
C424 H401 0.950 . S
C424 C423 1.383 . S
C424 C425 1.395 . S
C425 H402 0.950 . S
C425 C424 1.395 . S
C425 C426 1.288 . S
C426 C425 1.288 . S
C426 C427 1.392 . S
C427 H403 0.951 . S
C427 C426 1.392 . S
C427 C428 1.392 . S
C428 H404 0.949 . S
C428 C423 1.382 . S
C428 C427 1.392 . S
C429 C430 1.376 . S
C429 C434 1.386 . S
C429 C435 1.483 . S
C430 H405 0.949 . S
C430 C429 1.376 . S
C430 C431 1.397 . S
C431 H406 0.950 . S
C431 C430 1.397 . S
C431 C432 1.391 . S
C432 C431 1.391 . S
C432 C433 1.405 . S
C433 H407 0.950 . S
C433 C432 1.405 . S
C433 C434 1.367 . S
C434 H408 0.950 . S
C434 C429 1.386 . S
C434 C433 1.367 . S
C435 C429 1.483 . S
C435 C436 1.382 . S
C435 C437 1.403 . S
C436 H409 0.950 . S
C436 C422 1.411 . S
C436 C435 1.382 . S
C437 C421 1.411 . S
C437 C435 1.403 . S
C437 C438 1.489 . S
C438 C437 1.489 . S
C438 C439 1.383 . S
C438 C443 1.382 . S
C439 H410 0.950 . S
C439 C438 1.383 . S
C439 C440 1.395 . S
C440 H411 0.950 . S
C440 C439 1.395 . S
C440 C441 1.288 . S
C441 C440 1.288 . S
C441 C442 1.392 . S
C442 H412 0.951 . S
C442 C441 1.392 . S
C442 C443 1.392 . S
C443 H413 0.949 . S
C443 C438 1.382 . S
C443 C442 1.392 . S
H444 C463 0.949 . S
H445 C464 0.950 . S
H446 C466 0.950 . S
H447 C467 0.950 . S
H448 C469 0.950 . S
H449 C472 0.950 . S
H450 C473 0.950 . S
H451 C475 0.951 . S
H452 C476 0.949 . S
H453 C478 0.949 . S
H454 C479 0.950 . S
H455 C481 0.950 . S
H456 C482 0.950 . S
H457 C484 0.950 . S
H458 C487 0.950 . S
H459 C488 0.950 . S
H460 C490 0.951 . S
H461 C491 0.949 . S
C462 C463 1.376 . S
C462 C467 1.386 . S
C462 C468 1.483 . S
C463 H444 0.949 . S
C463 C462 1.376 . S
C463 C464 1.397 . S
C464 H445 0.950 . S
C464 C463 1.397 . S
C464 C465 1.391 . S
C465 C464 1.391 . S
C465 C466 1.405 . S
C466 H446 0.950 . S
C466 C465 1.405 . S
C466 C467 1.367 . S
C467 H447 0.950 . S
C467 C462 1.386 . S
C467 C466 1.367 . S
C468 C462 1.483 . S
C468 C469 1.382 . S
C468 C470 1.403 . S
C469 H448 0.950 . S
C469 C468 1.382 . S
C469 C485 1.411 . S
C470 C468 1.403 . S
C470 C471 1.489 . S
C470 C484 1.411 . S
C471 C470 1.489 . S
C471 C472 1.383 . S
C471 C476 1.382 . S
C472 H449 0.950 . S
C472 C471 1.383 . S
C472 C473 1.395 . S
C473 H450 0.950 . S
C473 C472 1.395 . S
C473 C474 1.288 . S
C474 C473 1.288 . S
C474 C475 1.392 . S
C475 H451 0.951 . S
C475 C474 1.392 . S
C475 C476 1.392 . S
C476 H452 0.949 . S
C476 C471 1.382 . S
C476 C475 1.392 . S
C477 C478 1.376 . S
C477 C482 1.386 . S
C477 C483 1.483 . S
C478 H453 0.949 . S
C478 C477 1.376 . S
C478 C479 1.397 . S
C479 H454 0.950 . S
C479 C478 1.397 . S
C479 C480 1.391 . S
C480 C479 1.391 . S
C480 C481 1.405 . S
C481 H455 0.950 . S
C481 C480 1.405 . S
C481 C482 1.367 . S
C482 H456 0.950 . S
C482 C477 1.386 . S
C482 C481 1.367 . S
C483 C477 1.483 . S
C483 C484 1.382 . S
C483 C485 1.403 . S
C484 H457 0.950 . S
C484 C470 1.411 . S
C484 C483 1.382 . S
C485 C469 1.411 . S
C485 C483 1.403 . S
C485 C486 1.489 . S
C486 C485 1.489 . S
C486 C487 1.383 . S
C486 C491 1.382 . S
C487 H458 0.950 . S
C487 C486 1.383 . S
C487 C488 1.395 . S
C488 H459 0.950 . S
C488 C487 1.395 . S
C488 C489 1.288 . S
C489 C488 1.288 . S
C489 C490 1.392 . S
C490 H460 0.951 . S
C490 C489 1.392 . S
C490 C491 1.392 . S
C491 H461 0.949 . S
C491 C486 1.382 . S
C491 C490 1.392 . S
H492 C511 0.949 . S
H493 C512 0.950 . S
H494 C514 0.950 . S
H495 C515 0.950 . S
H496 C517 0.950 . S
H497 C520 0.950 . S
H498 C521 0.950 . S
H499 C523 0.951 . S
H500 C524 0.949 . S
H501 C526 0.949 . S
H502 C527 0.950 . S
H503 C529 0.950 . S
H504 C530 0.950 . S
H505 C532 0.950 . S
H506 C535 0.950 . S
H507 C536 0.950 . S
H508 C538 0.951 . S
H509 C539 0.949 . S
C510 C511 1.376 . S
C510 C515 1.386 . S
C510 C516 1.483 . S
C511 H492 0.949 . S
C511 C510 1.376 . S
C511 C512 1.397 . S
C512 H493 0.950 . S
C512 C511 1.397 . S
C512 C513 1.391 . S
C513 C512 1.391 . S
C513 C514 1.405 . S
C514 H494 0.950 . S
C514 C513 1.405 . S
C514 C515 1.367 . S
C515 H495 0.950 . S
C515 C510 1.386 . S
C515 C514 1.367 . S
C516 C510 1.483 . S
C516 C517 1.382 . S
C516 C518 1.403 . S
C517 H496 0.950 . S
C517 C516 1.382 . S
C517 C533 1.411 . S
C518 C516 1.403 . S
C518 C519 1.489 . S
C518 C532 1.411 . S
C519 C518 1.489 . S
C519 C520 1.383 . S
C519 C524 1.382 . S
C520 H497 0.950 . S
C520 C519 1.383 . S
C520 C521 1.395 . S
C521 H498 0.950 . S
C521 C520 1.395 . S
C521 C522 1.288 . S
C522 C521 1.288 . S
C522 C523 1.392 . S
C523 H499 0.951 . S
C523 C522 1.392 . S
C523 C524 1.392 . S
C524 H500 0.949 . S
C524 C519 1.382 . S
C524 C523 1.392 . S
C525 C526 1.376 . S
C525 C530 1.386 . S
C525 C531 1.483 . S
C526 H501 0.949 . S
C526 C525 1.376 . S
C526 C527 1.397 . S
C527 H502 0.950 . S
C527 C526 1.397 . S
C527 C528 1.391 . S
C528 C527 1.391 . S
C528 C529 1.405 . S
C529 H503 0.950 . S
C529 C528 1.405 . S
C529 C530 1.367 . S
C530 H504 0.950 . S
C530 C525 1.386 . S
C530 C529 1.367 . S
C531 C525 1.483 . S
C531 C532 1.382 . S
C531 C533 1.403 . S
C532 H505 0.950 . S
C532 C518 1.411 . S
C532 C531 1.382 . S
C533 C517 1.411 . S
C533 C531 1.403 . S
C533 C534 1.489 . S
C534 C533 1.489 . S
C534 C535 1.383 . S
C534 C539 1.382 . S
C535 H506 0.950 . S
C535 C534 1.383 . S
C535 C536 1.395 . S
C536 H507 0.950 . S
C536 C535 1.395 . S
C536 C537 1.288 . S
C537 C536 1.288 . S
C537 C538 1.392 . S
C538 H508 0.951 . S
C538 C537 1.392 . S
C538 C539 1.392 . S
C539 H509 0.949 . S
C539 C534 1.382 . S
C539 C538 1.392 . S
H540 C559 0.949 . S
H541 C560 0.950 . S
H542 C562 0.950 . S
H543 C563 0.950 . S
H544 C565 0.950 . S
H545 C568 0.950 . S
H546 C569 0.950 . S
H547 C571 0.951 . S
H548 C572 0.949 . S
H549 C574 0.949 . S
H550 C575 0.950 . S
H551 C577 0.950 . S
H552 C578 0.950 . S
H553 C580 0.950 . S
H554 C583 0.950 . S
H555 C584 0.950 . S
H556 C586 0.951 . S
H557 C587 0.949 . S
C558 C559 1.376 . S
C558 C563 1.386 . S
C558 C564 1.483 . S
C559 H540 0.949 . S
C559 C558 1.376 . S
C559 C560 1.397 . S
C560 H541 0.950 . S
C560 C559 1.397 . S
C560 C561 1.391 . S
C561 C560 1.391 . S
C561 C562 1.405 . S
C562 H542 0.950 . S
C562 C561 1.405 . S
C562 C563 1.367 . S
C563 H543 0.950 . S
C563 C558 1.386 . S
C563 C562 1.367 . S
C564 C558 1.483 . S
C564 C565 1.382 . S
C564 C566 1.403 . S
C565 H544 0.950 . S
C565 C564 1.382 . S
C565 C581 1.411 . S
C566 C564 1.403 . S
C566 C567 1.489 . S
C566 C580 1.411 . S
C567 C566 1.489 . S
C567 C568 1.383 . S
C567 C572 1.382 . S
C568 H545 0.950 . S
C568 C567 1.383 . S
C568 C569 1.395 . S
C569 H546 0.950 . S
C569 C568 1.395 . S
C569 C570 1.288 . S
C570 C569 1.288 . S
C570 C571 1.392 . S
C571 H547 0.951 . S
C571 C570 1.392 . S
C571 C572 1.392 . S
C572 H548 0.949 . S
C572 C567 1.382 . S
C572 C571 1.392 . S
C573 C574 1.376 . S
C573 C578 1.386 . S
C573 C579 1.483 . S
C574 H549 0.949 . S
C574 C573 1.376 . S
C574 C575 1.397 . S
C575 H550 0.950 . S
C575 C574 1.397 . S
C575 C576 1.391 . S
C576 C575 1.391 . S
C576 C577 1.405 . S
C577 H551 0.950 . S
C577 C576 1.405 . S
C577 C578 1.367 . S
C578 H552 0.950 . S
C578 C573 1.386 . S
C578 C577 1.367 . S
C579 C573 1.483 . S
C579 C580 1.382 . S
C579 C581 1.403 . S
C580 H553 0.950 . S
C580 C566 1.411 . S
C580 C579 1.382 . S
C581 C565 1.411 . S
C581 C579 1.403 . S
C581 C582 1.489 . S
C582 C581 1.489 . S
C582 C583 1.383 . S
C582 C587 1.382 . S
C583 H554 0.950 . S
C583 C582 1.383 . S
C583 C584 1.395 . S
C584 H555 0.950 . S
C584 C583 1.395 . S
C584 C585 1.288 . S
C585 C584 1.288 . S
C585 C586 1.392 . S
C586 H556 0.951 . S
C586 C585 1.392 . S
C586 C587 1.392 . S
C587 H557 0.949 . S
C587 C582 1.382 . S
C587 C586 1.392 . S
H588 C607 0.949 . S
H589 C608 0.950 . S
H590 C610 0.950 . S
H591 C611 0.950 . S
H592 C613 0.950 . S
H593 C616 0.950 . S
H594 C617 0.950 . S
H595 C619 0.951 . S
H596 C620 0.949 . S
H597 C622 0.949 . S
H598 C623 0.950 . S
H599 C625 0.950 . S
H600 C626 0.950 . S
H601 C628 0.950 . S
H602 C631 0.950 . S
H603 C632 0.950 . S
H604 C634 0.951 . S
H605 C635 0.949 . S
C606 C607 1.376 . S
C606 C611 1.386 . S
C606 C612 1.483 . S
C607 H588 0.949 . S
C607 C606 1.376 . S
C607 C608 1.397 . S
C608 H589 0.950 . S
C608 C607 1.397 . S
C608 C609 1.391 . S
C609 C608 1.391 . S
C609 C610 1.405 . S
C610 H590 0.950 . S
C610 C609 1.405 . S
C610 C611 1.367 . S
C611 H591 0.950 . S
C611 C606 1.386 . S
C611 C610 1.367 . S
C612 C606 1.483 . S
C612 C613 1.382 . S
C612 C614 1.403 . S
C613 H592 0.950 . S
C613 C612 1.382 . S
C613 C629 1.411 . S
C614 C612 1.403 . S
C614 C615 1.489 . S
C614 C628 1.411 . S
C615 C614 1.489 . S
C615 C616 1.383 . S
C615 C620 1.382 . S
C616 H593 0.950 . S
C616 C615 1.383 . S
C616 C617 1.395 . S
C617 H594 0.950 . S
C617 C616 1.395 . S
C617 C618 1.288 . S
C618 C617 1.288 . S
C618 C619 1.392 . S
C619 H595 0.951 . S
C619 C618 1.392 . S
C619 C620 1.392 . S
C620 H596 0.949 . S
C620 C615 1.382 . S
C620 C619 1.392 . S
C621 C622 1.376 . S
C621 C626 1.386 . S
C621 C627 1.483 . S
C622 H597 0.949 . S
C622 C621 1.376 . S
C622 C623 1.397 . S
C623 H598 0.950 . S
C623 C622 1.397 . S
C623 C624 1.391 . S
C624 C623 1.391 . S
C624 C625 1.405 . S
C625 H599 0.950 . S
C625 C624 1.405 . S
C625 C626 1.367 . S
C626 H600 0.950 . S
C626 C621 1.386 . S
C626 C625 1.367 . S
C627 C621 1.483 . S
C627 C628 1.382 . S
C627 C629 1.403 . S
C628 H601 0.950 . S
C628 C614 1.411 . S
C628 C627 1.382 . S
C629 C613 1.411 . S
C629 C627 1.403 . S
C629 C630 1.489 . S
C630 C629 1.489 . S
C630 C631 1.383 . S
C630 C635 1.382 . S
C631 H602 0.950 . S
C631 C630 1.383 . S
C631 C632 1.395 . S
C632 H603 0.950 . S
C632 C631 1.395 . S
C632 C633 1.288 . S
C633 C632 1.288 . S
C633 C634 1.392 . S
C634 H604 0.951 . S
C634 C633 1.392 . S
C634 C635 1.392 . S
C635 H605 0.949 . S
C635 C630 1.382 . S
C635 C634 1.392 . S
H636 C655 0.949 . S
H637 C656 0.950 . S
H638 C658 0.950 . S
H639 C659 0.950 . S
H640 C661 0.950 . S
H641 C664 0.950 . S
H642 C665 0.950 . S
H643 C667 0.951 . S
H644 C668 0.949 . S
H645 C670 0.949 . S
H646 C671 0.950 . S
H647 C673 0.950 . S
H648 C674 0.950 . S
H649 C676 0.950 . S
H650 C679 0.950 . S
H651 C680 0.950 . S
H652 C682 0.951 . S
H653 C683 0.949 . S
C654 C655 1.376 . S
C654 C659 1.386 . S
C654 C660 1.483 . S
C655 H636 0.949 . S
C655 C654 1.376 . S
C655 C656 1.397 . S
C656 H637 0.950 . S
C656 C655 1.397 . S
C656 C657 1.391 . S
C657 C656 1.391 . S
C657 C658 1.405 . S
C658 H638 0.950 . S
C658 C657 1.405 . S
C658 C659 1.367 . S
C659 H639 0.950 . S
C659 C654 1.386 . S
C659 C658 1.367 . S
C660 C654 1.483 . S
C660 C661 1.382 . S
C660 C662 1.403 . S
C661 H640 0.950 . S
C661 C660 1.382 . S
C661 C677 1.411 . S
C662 C660 1.403 . S
C662 C663 1.489 . S
C662 C676 1.411 . S
C663 C662 1.489 . S
C663 C664 1.383 . S
C663 C668 1.382 . S
C664 H641 0.950 . S
C664 C663 1.383 . S
C664 C665 1.395 . S
C665 H642 0.950 . S
C665 C664 1.395 . S
C665 C666 1.288 . S
C666 C665 1.288 . S
C666 C667 1.392 . S
C667 H643 0.951 . S
C667 C666 1.392 . S
C667 C668 1.392 . S
C668 H644 0.949 . S
C668 C663 1.382 . S
C668 C667 1.392 . S
C669 C670 1.376 . S
C669 C674 1.386 . S
C669 C675 1.483 . S
C670 H645 0.949 . S
C670 C669 1.376 . S
C670 C671 1.397 . S
C671 H646 0.950 . S
C671 C670 1.397 . S
C671 C672 1.391 . S
C672 C671 1.391 . S
C672 C673 1.405 . S
C673 H647 0.950 . S
C673 C672 1.405 . S
C673 C674 1.367 . S
C674 H648 0.950 . S
C674 C669 1.386 . S
C674 C673 1.367 . S
C675 C669 1.483 . S
C675 C676 1.382 . S
C675 C677 1.403 . S
C676 H649 0.950 . S
C676 C662 1.411 . S
C676 C675 1.382 . S
C677 C661 1.411 . S
C677 C675 1.403 . S
C677 C678 1.489 . S
C678 C677 1.489 . S
C678 C679 1.383 . S
C678 C683 1.382 . S
C679 H650 0.950 . S
C679 C678 1.383 . S
C679 C680 1.395 . S
C680 H651 0.950 . S
C680 C679 1.395 . S
C680 C681 1.288 . S
C681 C680 1.288 . S
C681 C682 1.392 . S
C682 H652 0.951 . S
C682 C681 1.392 . S
C682 C683 1.392 . S
C683 H653 0.949 . S
C683 C678 1.382 . S
C683 C682 1.392 . S
H684 C703 0.949 . S
H685 C704 0.950 . S
H686 C706 0.950 . S
H687 C707 0.950 . S
H688 C709 0.950 . S
H689 C712 0.950 . S
H690 C713 0.950 . S
H691 C715 0.951 . S
H692 C716 0.949 . S
H693 C718 0.949 . S
H694 C719 0.950 . S
H695 C721 0.950 . S
H696 C722 0.950 . S
H697 C724 0.950 . S
H698 C727 0.950 . S
H699 C728 0.950 . S
H700 C730 0.951 . S
H701 C731 0.949 . S
C702 C703 1.376 . S
C702 C707 1.386 1_655 S
C702 C708 1.483 . S
C703 H684 0.949 . S
C703 C702 1.376 . S
C703 C704 1.397 . S
C704 H685 0.950 . S
C704 C703 1.397 . S
C704 C705 1.391 . S
C705 C704 1.391 . S
C705 C706 1.405 1_655 S
C706 H686 0.950 . S
C706 C705 1.405 1_455 S
C706 C707 1.367 . S
C707 H687 0.950 . S
C707 C702 1.386 1_455 S
C707 C706 1.367 . S
C708 C702 1.483 . S
C708 C709 1.382 . S
C708 C710 1.403 1_655 S
C709 H688 0.950 . S
C709 C708 1.382 . S
C709 C725 1.411 . S
C710 C708 1.403 1_455 S
C710 C711 1.489 . S
C710 C724 1.411 . S
C711 C710 1.489 . S
C711 C712 1.383 1_455 S
C711 C716 1.382 . S
C712 H689 0.950 . S
C712 C711 1.383 1_655 S
C712 C713 1.395 . S
C713 H690 0.950 . S
C713 C712 1.395 . S
C713 C714 1.288 1_655 S
C714 C713 1.288 1_455 S
C714 C715 1.392 . S
C715 H691 0.951 . S
C715 C714 1.392 . S
C715 C716 1.392 . S
C716 H692 0.949 . S
C716 C711 1.382 . S
C716 C715 1.392 . S
C717 C718 1.376 . S
C717 C722 1.386 1_455 S
C717 C723 1.483 . S
C718 H693 0.949 . S
C718 C717 1.376 . S
C718 C719 1.397 . S
C719 H694 0.950 . S
C719 C718 1.397 . S
C719 C720 1.391 . S
C720 C719 1.391 . S
C720 C721 1.405 1_455 S
C721 H695 0.950 . S
C721 C720 1.405 1_655 S
C721 C722 1.367 . S
C722 H696 0.950 . S
C722 C717 1.386 1_655 S
C722 C721 1.367 . S
C723 C717 1.483 . S
C723 C724 1.382 . S
C723 C725 1.403 1_455 S
C724 H697 0.950 . S
C724 C710 1.411 . S
C724 C723 1.382 . S
C725 C709 1.411 . S
C725 C723 1.403 1_655 S
C725 C726 1.489 . S
C726 C725 1.489 . S
C726 C727 1.383 1_655 S
C726 C731 1.382 . S
C727 H698 0.950 . S
C727 C726 1.383 1_455 S
C727 C728 1.395 . S
C728 H699 0.950 . S
C728 C727 1.395 . S
C728 C729 1.288 1_455 S
C729 C728 1.288 1_655 S
C729 C730 1.392 . S
C730 H700 0.951 . S
C730 C729 1.392 . S
C730 C731 1.392 . S
C731 H701 0.949 . S
C731 C726 1.382 . S
C731 C730 1.392 . S
H732 C751 0.949 . S
H733 C752 0.950 . S
H734 C754 0.950 . S
H735 C755 0.950 . S
H736 C757 0.950 . S
H737 C760 0.950 . S
H738 C761 0.950 . S
H739 C763 0.951 . S
H740 C764 0.949 . S
H741 C766 0.949 . S
H742 C767 0.950 . S
H743 C769 0.950 . S
H744 C770 0.950 . S
H745 C772 0.950 . S
H746 C775 0.950 . S
H747 C776 0.950 . S
H748 C778 0.951 . S
H749 C779 0.949 . S
C750 C751 1.376 . S
C750 C755 1.386 . S
C750 C756 1.483 . S
C751 H732 0.949 . S
C751 C750 1.376 . S
C751 C752 1.397 . S
C752 H733 0.950 . S
C752 C751 1.397 . S
C752 C753 1.391 . S
C753 C752 1.391 . S
C753 C754 1.405 . S
C754 H734 0.950 . S
C754 C753 1.405 . S
C754 C755 1.367 . S
C755 H735 0.950 . S
C755 C750 1.386 . S
C755 C754 1.367 . S
C756 C750 1.483 . S
C756 C757 1.382 . S
C756 C758 1.403 . S
C757 H736 0.950 . S
C757 C756 1.382 . S
C757 C773 1.411 . S
C758 C756 1.403 . S
C758 C759 1.489 . S
C758 C772 1.411 . S
C759 C758 1.489 . S
C759 C760 1.383 . S
C759 C764 1.382 . S
C760 H737 0.950 . S
C760 C759 1.383 . S
C760 C761 1.395 . S
C761 H738 0.950 . S
C761 C760 1.395 . S
C761 C762 1.288 . S
C762 C761 1.288 . S
C762 C763 1.392 . S
C763 H739 0.951 . S
C763 C762 1.392 . S
C763 C764 1.392 . S
C764 H740 0.949 . S
C764 C759 1.382 . S
C764 C763 1.392 . S
C765 C766 1.376 . S
C765 C770 1.386 . S
C765 C771 1.483 . S
C766 H741 0.949 . S
C766 C765 1.376 . S
C766 C767 1.397 . S
C767 H742 0.950 . S
C767 C766 1.397 . S
C767 C768 1.391 . S
C768 C767 1.391 . S
C768 C769 1.405 . S
C769 H743 0.950 . S
C769 C768 1.405 . S
C769 C770 1.367 . S
C770 H744 0.950 . S
C770 C765 1.386 . S
C770 C769 1.367 . S
C771 C765 1.483 . S
C771 C772 1.382 . S
C771 C773 1.403 . S
C772 H745 0.950 . S
C772 C758 1.411 . S
C772 C771 1.382 . S
C773 C757 1.411 . S
C773 C771 1.403 . S
C773 C774 1.489 . S
C774 C773 1.489 . S
C774 C775 1.383 . S
C774 C779 1.382 . S
C775 H746 0.950 . S
C775 C774 1.383 . S
C775 C776 1.395 . S
C776 H747 0.950 . S
C776 C775 1.395 . S
C776 C777 1.288 . S
C777 C776 1.288 . S
C777 C778 1.392 . S
C778 H748 0.951 . S
C778 C777 1.392 . S
C778 C779 1.392 . S
C779 H749 0.949 . S
C779 C774 1.382 . S
C779 C778 1.392 . S
H780 C799 0.949 . S
H781 C800 0.950 . S
H782 C802 0.950 . S
H783 C803 0.950 . S
H784 C805 0.950 . S
H785 C808 0.950 . S
H786 C809 0.950 . S
H787 C811 0.951 . S
H788 C812 0.949 . S
H789 C814 0.949 . S
H790 C815 0.950 . S
H791 C817 0.950 . S
H792 C818 0.950 . S
H793 C820 0.950 . S
H794 C823 0.950 . S
H795 C824 0.950 . S
H796 C826 0.951 . S
H797 C827 0.949 . S
C798 C799 1.376 . S
C798 C803 1.386 1_545 S
C798 C804 1.483 . S
C799 H780 0.949 . S
C799 C798 1.376 . S
C799 C800 1.397 . S
C800 H781 0.950 . S
C800 C799 1.397 . S
C800 C801 1.391 . S
C801 C800 1.391 . S
C801 C802 1.405 1_545 S
C802 H782 0.950 . S
C802 C801 1.405 1_565 S
C802 C803 1.367 . S
C803 H783 0.950 . S
C803 C798 1.386 1_565 S
C803 C802 1.367 . S
C804 C798 1.483 . S
C804 C805 1.382 . S
C804 C806 1.403 1_545 S
C805 H784 0.950 . S
C805 C804 1.382 . S
C805 C821 1.411 . S
C806 C804 1.403 1_565 S
C806 C807 1.489 . S
C806 C820 1.411 . S
C807 C806 1.489 . S
C807 C808 1.383 1_565 S
C807 C812 1.382 . S
C808 H785 0.950 . S
C808 C807 1.383 1_545 S
C808 C809 1.395 . S
C809 H786 0.950 . S
C809 C808 1.395 . S
C809 C810 1.288 1_545 S
C810 C809 1.288 1_565 S
C810 C811 1.392 . S
C811 H787 0.951 . S
C811 C810 1.392 . S
C811 C812 1.392 . S
C812 H788 0.949 . S
C812 C807 1.382 . S
C812 C811 1.392 . S
C813 C814 1.376 . S
C813 C818 1.386 1_565 S
C813 C819 1.483 . S
C814 H789 0.949 . S
C814 C813 1.376 . S
C814 C815 1.397 . S
C815 H790 0.950 . S
C815 C814 1.397 . S
C815 C816 1.391 . S
C816 C815 1.391 . S
C816 C817 1.405 1_565 S
C817 H791 0.950 . S
C817 C816 1.405 1_545 S
C817 C818 1.367 . S
C818 H792 0.950 . S
C818 C813 1.386 1_545 S
C818 C817 1.367 . S
C819 C813 1.483 . S
C819 C820 1.382 . S
C819 C821 1.403 1_565 S
C820 H793 0.950 . S
C820 C806 1.411 . S
C820 C819 1.382 . S
C821 C805 1.411 . S
C821 C819 1.403 1_545 S
C821 C822 1.489 . S
C822 C821 1.489 . S
C822 C823 1.383 1_545 S
C822 C827 1.382 . S
C823 H794 0.950 . S
C823 C822 1.383 1_565 S
C823 C824 1.395 . S
C824 H795 0.950 . S
C824 C823 1.395 . S
C824 C825 1.288 1_565 S
C825 C824 1.288 1_545 S
C825 C826 1.392 . S
C826 H796 0.951 . S
C826 C825 1.392 . S
C826 C827 1.392 . S
C827 H797 0.949 . S
C827 C822 1.382 . S
C827 C826 1.392 . S
H828 C847 0.949 . S
H829 C848 0.950 . S
H830 C850 0.950 . S
H831 C851 0.950 . S
H832 C853 0.950 . S
H833 C856 0.950 . S
H834 C857 0.950 . S
H835 C859 0.951 . S
H836 C860 0.949 . S
H837 C862 0.949 . S
H838 C863 0.950 . S
H839 C865 0.950 . S
H840 C866 0.950 . S
H841 C868 0.950 . S
H842 C871 0.950 . S
H843 C872 0.950 . S
H844 C874 0.951 . S
H845 C875 0.949 . S
C846 C847 1.377 1_565 S
C846 C851 1.386 . S
C846 C852 1.482 1_565 S
C847 H828 0.949 . S
C847 C846 1.377 1_545 S
C847 C848 1.397 . S
C848 H829 0.950 . S
C848 C847 1.397 . S
C848 C849 1.391 1_545 S
C849 C848 1.391 1_565 S
C849 C850 1.405 . S
C850 H830 0.950 . S
C850 C849 1.405 . S
C850 C851 1.367 . S
C851 H831 0.950 . S
C851 C846 1.386 . S
C851 C850 1.367 . S
C852 C846 1.482 1_545 S
C852 C853 1.382 . S
C852 C854 1.403 1_545 S
C853 H832 0.950 . S
C853 C852 1.382 . S
C853 C869 1.411 . S
C854 C852 1.403 1_565 S
C854 C855 1.501 . S
C854 C868 1.411 . S
C855 C854 1.501 . S
C855 C856 1.355 1_565 S
C855 C860 1.397 . S
C856 H833 0.950 . S
C856 C855 1.355 1_545 S
C856 C857 1.395 . S
C857 H834 0.950 . S
C857 C856 1.395 . S
C857 C858 1.288 . S
C858 C857 1.288 . S
C858 C859 1.392 1_545 S
C859 H835 0.951 . S
C859 C858 1.392 1_565 S
C859 C860 1.392 . S
C860 H836 0.949 . S
C860 C855 1.397 . S
C860 C859 1.392 . S
C861 C862 1.369 1_545 S
C861 C866 1.389 . S
C861 C867 1.504 1_545 S
C862 H837 0.949 . S
C862 C861 1.369 1_565 S
C862 C863 1.397 . S
C863 H838 0.950 . S
C863 C862 1.397 . S
C863 C864 1.391 1_565 S
C864 C863 1.391 1_545 S
C864 C865 1.405 . S
C865 H839 0.950 . S
C865 C864 1.405 . S
C865 C866 1.367 . S
C866 H840 0.950 . S
C866 C861 1.389 . S
C866 C865 1.367 . S
C867 C861 1.504 1_565 S
C867 C868 1.365 . S
C867 C869 1.400 1_565 S
C868 H841 0.950 . S
C868 C854 1.411 . S
C868 C867 1.365 . S
C869 C853 1.411 . S
C869 C867 1.400 1_545 S
C869 C870 1.506 . S
C870 C869 1.506 . S
C870 C871 1.345 1_545 S
C870 C875 1.402 . S
C871 H842 0.950 . S
C871 C870 1.345 1_565 S
C871 C872 1.395 . S
C872 H843 0.950 . S
C872 C871 1.395 . S
C872 C873 1.288 . S
C873 C872 1.288 . S
C873 C874 1.392 1_565 S
C874 H844 0.951 . S
C874 C873 1.392 1_545 S
C874 C875 1.392 . S
C875 H845 0.949 . S
C875 C870 1.402 . S
C875 C874 1.392 . S
H876 C895 0.949 . S
H877 C896 0.950 . S
H878 C898 0.950 . S
H879 C899 0.950 . S
H880 C901 0.950 . S
H881 C904 0.950 . S
H882 C905 0.950 . S
H883 C907 0.951 . S
H884 C908 0.949 . S
H885 C910 0.949 . S
H886 C911 0.950 . S
H887 C913 0.950 . S
H888 C914 0.950 . S
H889 C916 0.950 . S
H890 C919 0.950 . S
H891 C920 0.950 . S
H892 C922 0.951 . S
H893 C923 0.949 . S
C894 C895 1.376 . S
C894 C899 1.386 1_455 S
C894 C900 1.483 . S
C895 H876 0.949 . S
C895 C894 1.376 . S
C895 C896 1.397 . S
C896 H877 0.950 . S
C896 C895 1.397 . S
C896 C897 1.391 . S
C897 C896 1.391 . S
C897 C898 1.405 1_455 S
C898 H878 0.950 . S
C898 C897 1.405 1_655 S
C898 C899 1.367 . S
C899 H879 0.950 . S
C899 C894 1.386 1_655 S
C899 C898 1.367 . S
C900 C894 1.483 . S
C900 C901 1.382 . S
C900 C902 1.403 1_455 S
C901 H880 0.950 . S
C901 C900 1.382 . S
C901 C917 1.411 . S
C902 C900 1.403 1_655 S
C902 C903 1.489 . S
C902 C916 1.411 . S
C903 C902 1.489 . S
C903 C904 1.383 1_655 S
C903 C908 1.382 . S
C904 H881 0.950 . S
C904 C903 1.383 1_455 S
C904 C905 1.395 . S
C905 H882 0.950 . S
C905 C904 1.395 . S
C905 C906 1.288 1_455 S
C906 C905 1.288 1_655 S
C906 C907 1.392 . S
C907 H883 0.951 . S
C907 C906 1.392 . S
C907 C908 1.392 . S
C908 H884 0.949 . S
C908 C903 1.382 . S
C908 C907 1.392 . S
C909 C910 1.376 . S
C909 C914 1.386 1_655 S
C909 C915 1.483 . S
C910 H885 0.949 . S
C910 C909 1.376 . S
C910 C911 1.397 . S
C911 H886 0.950 . S
C911 C910 1.397 . S
C911 C912 1.391 . S
C912 C911 1.391 . S
C912 C913 1.405 1_655 S
C913 H887 0.950 . S
C913 C912 1.405 1_455 S
C913 C914 1.367 . S
C914 H888 0.950 . S
C914 C909 1.386 1_455 S
C914 C913 1.367 . S
C915 C909 1.483 . S
C915 C916 1.382 . S
C915 C917 1.403 1_655 S
C916 H889 0.950 . S
C916 C902 1.411 . S
C916 C915 1.382 . S
C917 C901 1.411 . S
C917 C915 1.403 1_455 S
C917 C918 1.489 . S
C918 C917 1.489 . S
C918 C919 1.383 1_455 S
C918 C923 1.382 . S
C919 H890 0.950 . S
C919 C918 1.383 1_655 S
C919 C920 1.395 . S
C920 H891 0.950 . S
C920 C919 1.395 . S
C920 C921 1.288 1_655 S
C921 C920 1.288 1_455 S
C921 C922 1.392 . S
C922 H892 0.951 . S
C922 C921 1.392 . S
C922 C923 1.392 . S
C923 H893 0.949 . S
C923 C918 1.382 . S
C923 C922 1.392 . S
H924 C943 0.949 . S
H925 C944 0.950 . S
H926 C946 0.950 . S
H927 C947 0.950 . S
H928 C949 0.950 . S
H929 C952 0.950 . S
H930 C953 0.950 . S
H931 C955 0.951 . S
H932 C956 0.949 . S
H933 C958 0.949 . S
H934 C959 0.950 . S
H935 C961 0.950 . S
H936 C962 0.950 . S
H937 C964 0.950 . S
H938 C967 0.950 . S
H939 C968 0.950 . S
H940 C970 0.951 . S
H941 C971 0.949 . S
C942 C943 1.376 . S
C942 C947 1.386 . S
C942 C948 1.483 . S
C943 H924 0.949 . S
C943 C942 1.376 . S
C943 C944 1.397 . S
C944 H925 0.950 . S
C944 C943 1.397 . S
C944 C945 1.391 . S
C945 C944 1.391 . S
C945 C946 1.405 . S
C946 H926 0.950 . S
C946 C945 1.405 . S
C946 C947 1.367 . S
C947 H927 0.950 . S
C947 C942 1.386 . S
C947 C946 1.367 . S
C948 C942 1.483 . S
C948 C949 1.382 . S
C948 C950 1.403 . S
C949 H928 0.950 . S
C949 C948 1.382 . S
C949 C965 1.411 . S
C950 C948 1.403 . S
C950 C951 1.489 . S
C950 C964 1.411 . S
C951 C950 1.489 . S
C951 C952 1.383 . S
C951 C956 1.382 . S
C952 H929 0.950 . S
C952 C951 1.383 . S
C952 C953 1.395 . S
C953 H930 0.950 . S
C953 C952 1.395 . S
C953 C954 1.288 . S
C954 C953 1.288 . S
C954 C955 1.392 . S
C955 H931 0.951 . S
C955 C954 1.392 . S
C955 C956 1.392 . S
C956 H932 0.949 . S
C956 C951 1.382 . S
C956 C955 1.392 . S
C957 C958 1.376 . S
C957 C962 1.386 . S
C957 C963 1.483 . S
C958 H933 0.949 . S
C958 C957 1.376 . S
C958 C959 1.397 . S
C959 H934 0.950 . S
C959 C958 1.397 . S
C959 C960 1.391 . S
C960 C959 1.391 . S
C960 C961 1.405 . S
C961 H935 0.950 . S
C961 C960 1.405 . S
C961 C962 1.367 . S
C962 H936 0.950 . S
C962 C957 1.386 . S
C962 C961 1.367 . S
C963 C957 1.483 . S
C963 C964 1.382 . S
C963 C965 1.403 . S
C964 H937 0.950 . S
C964 C950 1.411 . S
C964 C963 1.382 . S
C965 C949 1.411 . S
C965 C963 1.403 . S
C965 C966 1.489 . S
C966 C965 1.489 . S
C966 C967 1.383 . S
C966 C971 1.382 . S
C967 H938 0.950 . S
C967 C966 1.383 . S
C967 C968 1.395 . S
C968 H939 0.950 . S
C968 C967 1.395 . S
C968 C969 1.288 . S
C969 C968 1.288 . S
C969 C970 1.392 . S
C970 H940 0.951 . S
C970 C969 1.392 . S
C970 C971 1.392 . S
C971 H941 0.949 . S
C971 C966 1.382 . S
C971 C970 1.392 . S
H972 C991 0.949 . S
H973 C992 0.950 . S
H974 C994 0.950 . S
H975 C995 0.950 . S
H976 C997 0.950 . S
H977 C1000 0.950 . S
H978 C1001 0.950 . S
H979 C1003 0.951 . S
H980 C1004 0.949 . S
H981 C1006 0.949 . S
H982 C1007 0.950 . S
H983 C1009 0.950 . S
H984 C1010 0.950 . S
H985 C1012 0.950 . S
H986 C1015 0.950 . S
H987 C1016 0.950 . S
H988 C1018 0.951 . S
H989 C1019 0.949 . S
C990 C991 1.376 . S
C990 C995 1.386 . S
C990 C996 1.483 . S
C991 H972 0.949 . S
C991 C990 1.376 . S
C991 C992 1.397 . S
C992 H973 0.950 . S
C992 C991 1.397 . S
C992 C993 1.391 . S
C993 C992 1.391 . S
C993 C994 1.405 . S
C994 H974 0.950 . S
C994 C993 1.405 . S
C994 C995 1.367 . S
C995 H975 0.950 . S
C995 C990 1.386 . S
C995 C994 1.367 . S
C996 C990 1.483 . S
C996 C997 1.382 . S
C996 C998 1.403 . S
C997 H976 0.950 . S
C997 C996 1.382 . S
C997 C1013 1.411 . S
C998 C996 1.403 . S
C998 C999 1.489 . S
C998 C1012 1.411 . S
C999 C998 1.489 . S
C999 C1000 1.383 . S
C999 C1004 1.382 . S
C1000 H977 0.950 . S
C1000 C999 1.383 . S
C1000 C1001 1.395 . S
C1001 H978 0.950 . S
C1001 C1000 1.395 . S
C1001 C1002 1.288 . S
C1002 C1001 1.288 . S
C1002 C1003 1.392 . S
C1003 H979 0.951 . S
C1003 C1002 1.392 . S
C1003 C1004 1.392 . S
C1004 H980 0.949 . S
C1004 C999 1.382 . S
C1004 C1003 1.392 . S
C1005 C1006 1.376 . S
C1005 C1010 1.386 . S
C1005 C1011 1.483 . S
C1006 H981 0.949 . S
C1006 C1005 1.376 . S
C1006 C1007 1.397 . S
C1007 H982 0.950 . S
C1007 C1006 1.397 . S
C1007 C1008 1.391 . S
C1008 C1007 1.391 . S
C1008 C1009 1.405 . S
C1009 H983 0.950 . S
C1009 C1008 1.405 . S
C1009 C1010 1.367 . S
C1010 H984 0.950 . S
C1010 C1005 1.386 . S
C1010 C1009 1.367 . S
C1011 C1005 1.483 . S
C1011 C1012 1.382 . S
C1011 C1013 1.403 . S
C1012 H985 0.950 . S
C1012 C998 1.411 . S
C1012 C1011 1.382 . S
C1013 C997 1.411 . S
C1013 C1011 1.403 . S
C1013 C1014 1.489 . S
C1014 C1013 1.489 . S
C1014 C1015 1.383 . S
C1014 C1019 1.382 . S
C1015 H986 0.950 . S
C1015 C1014 1.383 . S
C1015 C1016 1.395 . S
C1016 H987 0.950 . S
C1016 C1015 1.395 . S
C1016 C1017 1.288 . S
C1017 C1016 1.288 . S
C1017 C1018 1.392 . S
C1018 H988 0.951 . S
C1018 C1017 1.392 . S
C1018 C1019 1.392 . S
C1019 H989 0.949 . S
C1019 C1014 1.382 . S
C1019 C1018 1.392 . S
H1020 C1039 0.949 . S
H1021 C1040 0.950 . S
H1022 C1042 0.950 . S
H1023 C1043 0.950 . S
H1024 C1045 0.950 . S
H1025 C1048 0.950 . S
H1026 C1049 0.950 . S
H1027 C1051 0.951 . S
H1028 C1052 0.949 . S
H1029 C1054 0.949 . S
H1030 C1055 0.950 . S
H1031 C1057 0.950 . S
H1032 C1058 0.950 . S
H1033 C1060 0.950 . S
H1034 C1063 0.950 . S
H1035 C1064 0.950 . S
H1036 C1066 0.951 . S
H1037 C1067 0.949 . S
C1038 C1039 1.376 . S
C1038 C1043 1.386 . S
C1038 C1044 1.483 . S
C1039 H1020 0.949 . S
C1039 C1038 1.376 . S
C1039 C1040 1.397 . S
C1040 H1021 0.950 . S
C1040 C1039 1.397 . S
C1040 C1041 1.391 . S
C1041 C1040 1.391 . S
C1041 C1042 1.405 . S
C1042 H1022 0.950 . S
C1042 C1041 1.405 . S
C1042 C1043 1.367 . S
C1043 H1023 0.950 . S
C1043 C1038 1.386 . S
C1043 C1042 1.367 . S
C1044 C1038 1.483 . S
C1044 C1045 1.382 . S
C1044 C1046 1.403 . S
C1045 H1024 0.950 . S
C1045 C1044 1.382 . S
C1045 C1061 1.411 . S
C1046 C1044 1.403 . S
C1046 C1047 1.489 . S
C1046 C1060 1.411 . S
C1047 C1046 1.489 . S
C1047 C1048 1.383 . S
C1047 C1052 1.382 . S
C1048 H1025 0.950 . S
C1048 C1047 1.383 . S
C1048 C1049 1.395 . S
C1049 H1026 0.950 . S
C1049 C1048 1.395 . S
C1049 C1050 1.288 . S
C1050 C1049 1.288 . S
C1050 C1051 1.392 . S
C1051 H1027 0.951 . S
C1051 C1050 1.392 . S
C1051 C1052 1.392 . S
C1052 H1028 0.949 . S
C1052 C1047 1.382 . S
C1052 C1051 1.392 . S
C1053 C1054 1.376 . S
C1053 C1058 1.386 . S
C1053 C1059 1.483 . S
C1054 H1029 0.949 . S
C1054 C1053 1.376 . S
C1054 C1055 1.397 . S
C1055 H1030 0.950 . S
C1055 C1054 1.397 . S
C1055 C1056 1.391 . S
C1056 C1055 1.391 . S
C1056 C1057 1.405 . S
C1057 H1031 0.950 . S
C1057 C1056 1.405 . S
C1057 C1058 1.367 . S
C1058 H1032 0.950 . S
C1058 C1053 1.386 . S
C1058 C1057 1.367 . S
C1059 C1053 1.483 . S
C1059 C1060 1.382 . S
C1059 C1061 1.403 . S
C1060 H1033 0.950 . S
C1060 C1046 1.411 . S
C1060 C1059 1.382 . S
C1061 C1045 1.411 . S
C1061 C1059 1.403 . S
C1061 C1062 1.489 . S
C1062 C1061 1.489 . S
C1062 C1063 1.383 . S
C1062 C1067 1.382 . S
C1063 H1034 0.950 . S
C1063 C1062 1.383 . S
C1063 C1064 1.395 . S
C1064 H1035 0.950 . S
C1064 C1063 1.395 . S
C1064 C1065 1.288 . S
C1065 C1064 1.288 . S
C1065 C1066 1.392 . S
C1066 H1036 0.951 . S
C1066 C1065 1.392 . S
C1066 C1067 1.392 . S
C1067 H1037 0.949 . S
C1067 C1062 1.382 . S
C1067 C1066 1.392 . S
H1068 C1087 0.949 . S
H1069 C1088 0.950 . S
H1070 C1090 0.950 . S
H1071 C1091 0.950 . S
H1072 C1093 0.950 . S
H1073 C1096 0.950 . S
H1074 C1097 0.950 . S
H1075 C1099 0.951 . S
H1076 C1100 0.949 . S
H1077 C1102 0.949 . S
H1078 C1103 0.950 . S
H1079 C1105 0.950 . S
H1080 C1106 0.950 . S
H1081 C1108 0.950 . S
H1082 C1111 0.950 . S
H1083 C1112 0.950 . S
H1084 C1114 0.951 . S
H1085 C1115 0.949 . S
C1086 C1087 1.376 . S
C1086 C1091 1.386 . S
C1086 C1092 1.483 . S
C1087 H1068 0.949 . S
C1087 C1086 1.376 . S
C1087 C1088 1.397 . S
C1088 H1069 0.950 . S
C1088 C1087 1.397 . S
C1088 C1089 1.391 . S
C1089 C1088 1.391 . S
C1089 C1090 1.405 . S
C1090 H1070 0.950 . S
C1090 C1089 1.405 . S
C1090 C1091 1.367 . S
C1091 H1071 0.950 . S
C1091 C1086 1.386 . S
C1091 C1090 1.367 . S
C1092 C1086 1.483 . S
C1092 C1093 1.382 . S
C1092 C1094 1.403 . S
C1093 H1072 0.950 . S
C1093 C1092 1.382 . S
C1093 C1109 1.411 . S
C1094 C1092 1.403 . S
C1094 C1095 1.489 . S
C1094 C1108 1.411 . S
C1095 C1094 1.489 . S
C1095 C1096 1.383 . S
C1095 C1100 1.382 . S
C1096 H1073 0.950 . S
C1096 C1095 1.383 . S
C1096 C1097 1.395 . S
C1097 H1074 0.950 . S
C1097 C1096 1.395 . S
C1097 C1098 1.288 . S
C1098 C1097 1.288 . S
C1098 C1099 1.392 . S
C1099 H1075 0.951 . S
C1099 C1098 1.392 . S
C1099 C1100 1.392 . S
C1100 H1076 0.949 . S
C1100 C1095 1.382 . S
C1100 C1099 1.392 . S
C1101 C1102 1.376 . S
C1101 C1106 1.386 . S
C1101 C1107 1.483 . S
C1102 H1077 0.949 . S
C1102 C1101 1.376 . S
C1102 C1103 1.397 . S
C1103 H1078 0.950 . S
C1103 C1102 1.397 . S
C1103 C1104 1.391 . S
C1104 C1103 1.391 . S
C1104 C1105 1.405 . S
C1105 H1079 0.950 . S
C1105 C1104 1.405 . S
C1105 C1106 1.367 . S
C1106 H1080 0.950 . S
C1106 C1101 1.386 . S
C1106 C1105 1.367 . S
C1107 C1101 1.483 . S
C1107 C1108 1.382 . S
C1107 C1109 1.403 . S
C1108 H1081 0.950 . S
C1108 C1094 1.411 . S
C1108 C1107 1.382 . S
C1109 C1093 1.411 . S
C1109 C1107 1.403 . S
C1109 C1110 1.489 . S
C1110 C1109 1.489 . S
C1110 C1111 1.383 . S
C1110 C1115 1.382 . S
C1111 H1082 0.950 . S
C1111 C1110 1.383 . S
C1111 C1112 1.395 . S
C1112 H1083 0.950 . S
C1112 C1111 1.395 . S
C1112 C1113 1.288 . S
C1113 C1112 1.288 . S
C1113 C1114 1.392 . S
C1114 H1084 0.951 . S
C1114 C1113 1.392 . S
C1114 C1115 1.392 . S
C1115 H1085 0.949 . S
C1115 C1110 1.382 . S
C1115 C1114 1.392 . S
C8 C729 1.590 1_455 S
C22 C777 1.809 . S
C825 C37 1.590 1_545 S
C36 C849 1.554 1_545 S
C9 C921 1.585 1_655 S
C23 C969 1.808 . S
C50 C897 1.568 1_655 S
C945 C64 1.787 . S
C873 C79 1.513 1_565 S
C78 C801 1.566 1_565 S
C705 C51 1.596 1_655 S
C65 C753 1.788 . S
C92 C1017 1.852 . S
C106 C1065 1.895 . S
C1089 C121 1.782 . S
C120 C273 1.737 . S
C93 C345 1.822 . S
C107 C393 1.862 . S
C134 C321 1.781 . S
C148 C369 1.840 . S
C297 C163 1.682 . S
C1113 C162 1.716 . S
C993 C135 1.827 . S
C1041 C149 1.874 . S
C176 C441 1.806 . S
C190 C489 1.860 . S
C205 C513 1.757 . S
C204 C561 1.784 . S
C633 C177 1.850 . S
C681 C191 1.894 . S
C609 C218 1.834 . S
C657 C232 1.873 . S
C247 C585 1.707 . S
C537 C246 1.664 . S
C219 C417 1.801 . S
C465 C233 1.840 . S
C282 C6 1.684 . S
C20 C336 1.576 . S
C384 C35 1.631 . S
C432 C34 1.613 . S
C480 C7 1.628 . S
C522 C21 1.658 . S
C48 C528 1.663 . S
C62 C426 1.539 . S
C77 C474 1.584 . S
C76 C330 1.570 . S
C378 C49 1.587 . S
C63 C288 1.625 . S
C570 C90 1.662 . S
C104 C624 1.599 . S
C119 C672 1.617 . S
C720 C118 1.450 . S
C91 C768 1.584 . S
C105 C816 1.445 . S
C132 C810 1.422 . S
C146 C714 1.433 . S
C762 C161 1.544 . S
C160 C618 1.547 . S
C133 C666 1.576 . S
C576 C147 1.644 . S
C858 C174 1.481 . S
C188 C912 1.445 . S
C203 C960 1.589 . S
C1008 C202 1.588 . S
C1056 C175 1.612 . S
C189 C1098 1.676 . S
C216 C1104 1.634 . S
C230 C1002 1.565 . S
C1050 C245 1.572 . S
C906 C244 1.416 . S
C954 C217 1.550 . S
C231 C864 1.478 . S
