# Generated by pormake.
# Topology pto, (3,4)-cn, num edge types: 1
# Building blocks:
#     Node 0, Type 0, BuildingBlock: PAMTOO_clean_linker_0, # of connection points: 3
#     Node 1, Type 0, BuildingBlock: PAMTOO_clean_linker_0, # of connection points: 3
#     Node 2, Type 0, BuildingBlock: PAMTOO_clean_linker_0, # of connection points: 3
#     Node 3, Type 0, BuildingBlock: PAMTOO_clean_linker_0, # of connection points: 3
#     Node 4, Type 0, BuildingBlock: PAMTOO_clean_linker_0, # of connection points: 3
#     Node 5, Type 0, BuildingBlock: PAMTOO_clean_linker_0, # of connection points: 3
#     Node 6, Type 0, BuildingBlock: PAMTOO_clean_linker_0, # of connection points: 3
#     Node 7, Type 0, BuildingBlock: PAMTOO_clean_linker_0, # of connection points: 3
#     Node 8, Type 1, BuildingBlock: KOZSID_clean_sbu_0, # of connection points: 4
#     Node 9, Type 1, BuildingBlock: KOZSID_clean_sbu_0, # of connection points: 4
#     Node 10, Type 1, BuildingBlock: KOZSID_clean_sbu_0, # of connection points: 4
#     Node 11, Type 1, BuildingBlock: KOZSID_clean_sbu_0, # of connection points: 4
#     Node 12, Type 1, BuildingBlock: KOZSID_clean_sbu_0, # of connection points: 4
#     Node 13, Type 1, BuildingBlock: KOZSID_clean_sbu_0, # of connection points: 4
#     Edge 14, Type (0, 1), None
#     Edge 15, Type (0, 1), None
#     Edge 16, Type (0, 1), None
#     Edge 17, Type (0, 1), None
#     Edge 18, Type (0, 1), None
#     Edge 19, Type (0, 1), None
#     Edge 20, Type (0, 1), None
#     Edge 21, Type (0, 1), None
#     Edge 22, Type (0, 1), None
#     Edge 23, Type (0, 1), None
#     Edge 24, Type (0, 1), None
#     Edge 25, Type (0, 1), None
#     Edge 26, Type (0, 1), None
#     Edge 27, Type (0, 1), None
#     Edge 28, Type (0, 1), None
#     Edge 29, Type (0, 1), None
#     Edge 30, Type (0, 1), None
#     Edge 31, Type (0, 1), None
#     Edge 32, Type (0, 1), None
#     Edge 33, Type (0, 1), None
#     Edge 34, Type (0, 1), None
#     Edge 35, Type (0, 1), None
#     Edge 36, Type (0, 1), None
#     Edge 37, Type (0, 1), None
# Relax obj value: 0.031
# Max RMSD: 0.194
# Mean RMSD: 0.066
data_MOF--net-pto--node1-KOZSID_clean_sbu_0--node2-PAMTOO_clean_linker_0--edge1-none
_symmetry_space_group_name_H-M    P1
_symmetry_Int_Tables_number       1
_symmetry_cell_setting            triclinic
loop_
_symmetry_equiv_pos_as_xyz
'x, y, z'
_cell_length_a     19.669482
_cell_length_b     22.760612
_cell_length_c     22.076614
_cell_angle_alpha  80.053085
_cell_angle_beta   75.194074
_cell_angle_gamma 104.7995
loop_
_atom_site_label
_atom_site_type_symbol
_atom_site_fract_x
_atom_site_fract_y
_atom_site_fract_z
_atom_type_partial_charge
H0 H 0.12528 0.27909 0.52163 0.0
H1 H 0.23221 0.21518 0.36176 0.0
H2 H 0.22625 0.40385 0.32931 0.0
H3 H 0.36957 0.30066 0.30749 0.0
C4 C 0.36013 0.33474 0.27072 0.0
O5 O 0.28527 0.32384 0.28003 0.0
H6 H 0.3848 0.38139 0.27844 0.0
C7 C 0.15553 0.28786 0.4708 0.0
C8 C 0.16793 0.34615 0.42749 0.0
C9 C 0.18214 0.24105 0.44784 0.0
C10 C 0.21568 0.25175 0.38114 0.0
C11 C 0.2373 0.31152 0.34013 0.0
C12 C 0.21293 0.35868 0.36285 0.0
H13 H 0.13356 0.79622 0.72115 0.0
H14 H 0.26657 0.74655 0.83712 0.0
H15 H 0.26063 0.93521 0.7937 0.0
H16 H 0.39904 0.93407 0.80577 0.0
C17 C 0.38555 0.88402 0.83162 0.0
O18 O 0.30971 0.85758 0.85811 0.0
H19 H 0.4078 0.85899 0.79609 0.0
C20 C 0.16908 0.80836 0.7504 0.0
C21 C 0.19507 0.87146 0.75312 0.0
C22 C 0.19157 0.76156 0.78337 0.0
C23 C 0.24339 0.78003 0.81584 0.0
C24 C 0.26519 0.84169 0.82204 0.0
C25 C 0.2405 0.88696 0.79123 0.0
H26 H 0.6678 0.89767 0.29219 0.0
H27 H 0.73267 0.74335 0.23532 0.0
H28 H 0.78427 0.80204 0.39564 0.0
H29 H 0.89872 0.77296 0.3034 0.0
C30 C 0.86306 0.72986 0.29618 0.0
O31 O 0.78959 0.72106 0.32697 0.0
H32 H 0.87218 0.73558 0.24333 0.0
C33 C 0.69507 0.86242 0.29884 0.0
C34 C 0.72498 0.85548 0.35028 0.0
C35 C 0.69796 0.82242 0.25681 0.0
C36 C 0.7296 0.77454 0.26717 0.0
C37 C 0.7594 0.76733 0.31764 0.0
C38 C 0.75822 0.80787 0.35833 0.0
H39 H 0.76642 0.41304 0.86521 0.0
H40 H 0.64464 0.25682 0.80953 0.0
H41 H 0.88134 0.32825 0.73214 0.0
H42 H 0.82064 0.29177 0.63919 0.0
C43 C 0.76864 0.25336 0.66866 0.0
O44 O 0.76373 0.24322 0.73335 0.0
H45 H 0.72132 0.26858 0.66106 0.0
C46 C 0.76428 0.37945 0.8359 0.0
C47 C 0.83035 0.38187 0.79112 0.0
C48 C 0.69736 0.33219 0.84683 0.0
C49 C 0.69628 0.29039 0.80653 0.0
C50 C 0.76304 0.28903 0.76515 0.0
C51 C 0.83002 0.33309 0.75989 0.0
H52 H 0.6982 0.91986 0.78535 0.0
H53 H 0.79027 0.79091 0.87641 0.0
H54 H 0.82631 0.82563 0.67204 0.0
H55 H 0.80769 0.68921 0.74801 0.0
C56 C 0.83282 0.70307 0.78525 0.0
O57 O 0.86046 0.76823 0.7697 0.0
H58 H 0.78878 0.68581 0.8332 0.0
C59 C 0.73152 0.88856 0.78143 0.0
C60 C 0.76747 0.88275 0.71981 0.0
C61 C 0.7357 0.85284 0.83832 0.0
C62 C 0.78284 0.81553 0.83319 0.0
C63 C 0.81625 0.80593 0.77319 0.0
C64 C 0.80542 0.83732 0.71709 0.0
H65 H 0.80909 0.28181 0.46691 0.0
H66 H 0.6778 0.20886 0.35138 0.0
H67 H 0.75848 0.40789 0.32895 0.0
H68 H 0.76997 0.31491 0.21128 0.0
C69 C 0.73294 0.3441 0.22196 0.0
O70 O 0.68644 0.32093 0.28541 0.0
H71 H 0.76878 0.39284 0.21506 0.0
C72 C 0.77948 0.28923 0.4325 0.0
C73 C 0.78696 0.3508 0.40091 0.0
C74 C 0.73815 0.23734 0.41658 0.0
C75 C 0.70625 0.24804 0.36688 0.0
C76 C 0.71298 0.30967 0.33578 0.0
C77 C 0.75119 0.36045 0.3546 0.0
H78 H 0.18933 0.3149 0.67965 0.0
H79 H 0.30516 0.39555 0.80244 0.0
H80 H 0.32312 0.22266 0.76182 0.0
H81 H 0.27585 0.22229 0.90372 0.0
C82 C 0.2996 0.27389 0.89639 0.0
O83 O 0.34678 0.29984 0.83372 0.0
H84 H 0.25302 0.29398 0.90595 0.0
C85 C 0.22779 0.31472 0.70707 0.0
C86 C 0.25834 0.26448 0.71284 0.0
C87 C 0.24596 0.36393 0.73816 0.0
C88 C 0.29413 0.36138 0.77465 0.0
C89 C 0.31884 0.30949 0.78474 0.0
C90 C 0.3037 0.26275 0.75233 0.0
H91 H 0.06891 0.77869 0.4512 0.0
H92 H 0.2508 0.73322 0.33535 0.0
H93 H 0.27803 0.92221 0.34701 0.0
H94 H 0.32665 0.91022 0.20379 0.0
C95 C 0.33299 0.863 0.21664 0.0
O96 O 0.33255 0.84927 0.28054 0.0
H97 H 0.28403 0.83008 0.21065 0.0
C98 C 0.12526 0.79212 0.41933 0.0
C99 C 0.17267 0.85436 0.40803 0.0
C100 C 0.15133 0.74765 0.3901 0.0
C101 C 0.2261 0.76709 0.35192 0.0
C102 C 0.26825 0.83053 0.33052 0.0
C103 C 0.24235 0.87402 0.35978 0.0
C104 C 0.05385 0.64039 0.46157 0.0
C105 C 0.04735 0.65812 0.51947 0.0
C106 C 0.99058 0.61127 0.56603 0.0
C107 C 0.96793 0.56631 0.53533 0.0
N108 N 0.0063 0.5817 0.4719 0.0
Co109 Co 0.98947 0.52896 0.41042 0.0
N110 N 0.89297 0.47137 0.47313 0.0
C111 C 0.86676 0.46953 0.53618 0.0
C112 C 0.79883 0.42506 0.56762 0.0
C113 C 0.78085 0.39685 0.52136 0.0
C114 C 0.83923 0.42583 0.46432 0.0
N115 N 0.97522 0.47592 0.34919 0.0
C116 C 0.91634 0.42765 0.35268 0.0
C117 C 0.93354 0.39913 0.30243 0.0
C118 C 0.00577 0.43056 0.26658 0.0
C119 C 0.02867 0.47604 0.2969 0.0
N120 N 0.08311 0.58905 0.34695 0.0
C121 C 0.11962 0.58106 0.28989 0.0
C122 C 0.1658 0.63652 0.2471 0.0
C123 C 0.15876 0.68176 0.2795 0.0
C124 C 0.11221 0.65133 0.34213 0.0
N125 N 0.04349 0.47437 0.44296 0.0
C126 C 0.12653 0.39034 0.44572 0.0
C127 C 0.1613 0.45556 0.43008 0.0
C128 C 0.11857 0.49669 0.43097 0.0
C129 C 0.04928 0.36826 0.46762 0.0
C130 C 0.0091 0.41061 0.46524 0.0
N131 N 0.93672 0.5818 0.37625 0.0
C132 C 0.92515 0.64689 0.28376 0.0
C133 C 0.88383 0.67476 0.32421 0.0
C134 C 0.86616 0.65307 0.39132 0.0
C135 C 0.89211 0.60581 0.41637 0.0
C136 C 0.95049 0.60015 0.31075 0.0
H137 H 0.87827 0.59067 0.46808 0.0
H138 H 0.98413 0.58112 0.27814 0.0
H139 H 0.14713 0.54657 0.41713 0.0
H140 H 0.9506 0.39016 0.47603 0.0
C141 C 0.9043 0.51411 0.56207 0.0
C142 C 0.10255 0.6813 0.39741 0.0
C143 C 0.84528 0.40484 0.40469 0.0
C144 C 0.09469 0.5258 0.27165 0.0
H145 H 0.07849 0.70082 0.52768 0.0
H146 H 0.96602 0.61089 0.61576 0.0
H147 H 0.76587 0.41494 0.61788 0.0
H148 H 0.7312 0.35859 0.52898 0.0
H149 H 0.89797 0.35936 0.29289 0.0
H150 H 0.03704 0.42244 0.22256 0.0
H151 H 0.19566 0.64398 0.19644 0.0
H152 H 0.18423 0.73166 0.25848 0.0
H153 H 0.22116 0.47472 0.41393 0.0
H154 H 0.01992 0.31834 0.48018 0.0
H155 H 0.93969 0.66238 0.23156 0.0
H156 H 0.83398 0.67353 0.42409 0.0
C157 C 0.13261 0.64267 0.84335 0.0
C158 C 0.13907 0.64882 0.90344 0.0
C159 C 0.10852 0.59002 0.94484 0.0
C160 C 0.08309 0.5513 0.90886 0.0
N161 N 0.09627 0.58213 0.84722 0.0
Co162 Co 0.05702 0.54738 0.78224 0.0
N163 N 0.97695 0.47819 0.85065 0.0
C164 C 0.978 0.45759 0.91135 0.0
C165 C 0.92119 0.40401 0.94641 0.0
C166 C 0.88257 0.38906 0.90492 0.0
C167 C 0.91735 0.43538 0.84669 0.0
N168 N 0.01978 0.51312 0.71628 0.0
C169 C 0.95725 0.46636 0.72328 0.0
C170 C 0.96097 0.44994 0.66498 0.0
C171 C 0.02904 0.48509 0.62184 0.0
C172 C 0.0622 0.52316 0.65458 0.0
N173 N 0.1378 0.6172 0.71594 0.0
C174 C 0.16603 0.61858 0.6534 0.0
C175 C 0.21878 0.67515 0.61858 0.0
C176 C 0.22358 0.71123 0.66237 0.0
C177 C 0.17301 0.67465 0.72151 0.0
N178 N 0.1199 0.49132 0.7757 0.0
C179 C 0.20487 0.41082 0.74477 0.0
C180 C 0.2386 0.47313 0.74645 0.0
C181 C 0.19519 0.51265 0.76181 0.0
C182 C 0.12826 0.39008 0.76027 0.0
C183 C 0.08753 0.43005 0.7761 0.0
N184 N 0.9924 0.60152 0.78591 0.0
C185 C 0.94451 0.67381 0.72864 0.0
C186 C 0.89354 0.67271 0.78647 0.0
C187 C 0.89521 0.63687 0.8445 0.0
C188 C 0.94516 0.60199 0.84323 0.0
C189 C 0.99304 0.63812 0.72943 0.0
H190 H 0.94451 0.57436 0.88847 0.0
H191 H 0.03033 0.63921 0.68384 0.0
H192 H 0.22236 0.56048 0.76144 0.0
H193 H 0.02926 0.41037 0.78667 0.0
C194 C 0.02973 0.49229 0.93525 0.0
C195 C 0.16209 0.69382 0.78296 0.0
C196 C 0.90013 0.43063 0.78618 0.0
C197 C 0.13019 0.57193 0.62791 0.0
H198 H 0.16018 0.69095 0.91786 0.0
H199 H 0.09953 0.57818 0.99653 0.0
H200 H 0.90977 0.37835 0.99589 0.0
H201 H 0.83655 0.34672 0.91571 0.0
H202 H 0.92006 0.4158 0.65373 0.0
H203 H 0.0507 0.48426 0.57188 0.0
H204 H 0.2473 0.68981 0.56695 0.0
H205 H 0.25953 0.75897 0.65195 0.0
H206 H 0.29801 0.49117 0.73609 0.0
H207 H 0.09897 0.34212 0.76229 0.0
H208 H 0.94518 0.70048 0.6827 0.0
H209 H 0.85671 0.63437 0.8905 0.0
C210 C 0.25241 0.95559 0.64779 0.0
C211 C 0.31396 0.9351 0.63167 0.0
C212 C 0.35637 0.96966 0.57066 0.0
C213 C 0.3193 1.00977 0.5533 0.0
N214 N 0.25566 1.0029 0.59938 0.0
Co215 Co 0.17818 0.04074 0.58543 0.0
N216 N 0.24955 0.10469 0.50678 0.0
C217 C 0.31788 0.10486 0.4748 0.0
C218 C 0.36091 0.1617 0.43276 0.0
C219 C 0.31682 0.1994 0.43836 0.0
C220 C 0.24774 0.16262 0.48129 0.0
N221 N 0.10112 0.07804 0.56935 0.0
C222 C 0.10893 0.13508 0.53209 0.0
C223 C 0.04066 0.14461 0.53909 0.0
C224 C 0.98916 0.09309 0.58429 0.0
C225 C 0.0279 0.05417 0.60073 0.0
N226 N 0.10703 0.9779 0.66632 0.0
C227 C 0.03333 0.96671 0.68752 0.0
C228 C -0.00168 0.92143 0.74491 0.0
C229 C 0.05316 0.90158 0.76054 0.0
C230 C 0.11866 0.93636 0.7117 0.0
N231 N 0.20297 0.10213 0.63645 0.0
C232 C 0.23886 0.20997 0.68397 0.0
C233 C 0.16511 0.17392 0.69712 0.0
C234 C 0.14851 0.11981 0.67419 0.0
C235 C 0.29435 0.18877 0.64943 0.0
C236 C 0.27539 0.13516 0.62611 0.0
N237 N 0.1544 0.98015 0.53259 0.0
C238 C 0.13846 0.8747 0.51811 0.0
C239 C 0.15476 0.89638 0.45116 0.0
C240 C 0.16492 0.96037 0.42654 0.0
C241 C 0.16259 1.00096 0.4682 0.0
C242 C 0.13929 0.91692 0.55746 0.0
H243 H 0.17142 0.04989 0.44739 0.0
H244 H 0.13204 0.89789 0.60738 0.0
H245 H 0.09112 0.0936 0.68571 0.0
H246 H 0.31951 0.12186 0.59759 0.0
C247 C 0.34536 0.05747 0.49639 0.0
C248 C 0.18895 0.92366 0.70621 0.0
C249 C 0.18015 0.18201 0.49188 0.0
C250 C 0.00017 1.00271 0.65461 0.0
H251 H 0.32553 0.89711 0.65976 0.0
H252 H 0.40778 0.96553 0.54217 0.0
H253 H 0.41914 0.17566 0.40538 0.0
H254 H 0.33424 0.24874 0.4144 0.0
H255 H 0.02924 0.18544 0.51638 0.0
H256 H 0.93101 0.08623 0.60604 0.0
H257 H 0.94008 0.90532 0.77244 0.0
H258 H 0.04569 0.86478 0.80222 0.0
H259 H 0.12043 0.18678 0.72598 0.0
H260 H 0.35229 0.2141 0.63962 0.0
H261 H 0.13075 0.82593 0.53956 0.0
H262 H 0.17704 0.97939 0.3751 0.0
C263 C 0.46476 0.91632 0.13405 0.0
C264 C 0.47206 0.97305 0.15093 0.0
C265 C 0.53321 1.01592 0.1054 0.0
C266 C 0.55943 0.98345 0.06292 0.0
N267 N 0.5202 0.92165 0.07986 0.0
Co268 Co 0.549 0.85492 0.04002 0.0
N269 N 0.63925 0.91835 0.97287 0.0
C270 C 0.66262 0.98101 0.96682 0.0
C271 C 0.72613 1.01276 0.91625 0.0
C272 C 0.74397 0.96791 0.88754 0.0
C273 C 0.68962 0.91116 0.92199 0.0
N274 N 0.57823 0.78801 1.00075 0.0
C275 C 0.63276 0.79306 0.94602 0.0
C276 C 0.62859 0.73456 0.93349 0.0
C277 C 0.57083 0.69137 0.98213 0.0
C278 C 0.54203 0.72543 0.0211 0.0
N279 N 0.45857 0.79156 0.10692 0.0
C280 C 0.43675 0.72857 0.11458 0.0
C281 C 0.37493 0.69658 0.16647 0.0
C282 C 0.35602 0.7418 0.19361 0.0
C283 C 0.40692 0.79907 0.15656 0.0
N284 N 0.49097 0.86528 0.97982 0.0
C285 C 0.42071 0.8784 0.88449 0.0
C286 C 0.41215 0.8192 0.92122 0.0
C287 C 0.44691 0.81375 0.96861 0.0
C288 C 0.46282 0.93128 0.89767 0.0
C289 C 0.49702 0.92369 0.9456 0.0
N290 N 0.60673 0.84434 0.10062 0.0
C291 C 0.62611 0.77774 0.18803 0.0
C292 C 0.66774 0.83002 0.20219 0.0
C293 C 0.68213 0.8893 0.16237 0.0
C294 C 0.65214 0.89524 0.11168 0.0
C295 C 0.59712 0.7859 0.13702 0.0
H296 H 0.66605 0.94155 0.08278 0.0
H297 H 0.56609 0.74418 0.12889 0.0
H298 H 0.43816 0.76726 0.99488 0.0
H299 H 0.52891 0.96548 0.95374 0.0
C300 C 0.62379 1.00862 0.00961 0.0
C301 C 0.40326 0.85914 0.17025 0.0
C302 C 0.68736 0.8522 0.90323 0.0
C303 C 0.47711 0.70053 0.07369 0.0
H304 H 0.43779 0.98234 0.19266 0.0
H305 H 0.55715 0.06448 0.10484 0.0
H306 H 0.75571 0.06264 0.90177 0.0
H307 H 0.79128 0.97618 0.8455 0.0
H308 H 0.66177 0.7235 0.89261 0.0
H309 H 0.55034 0.64133 0.98699 0.0
H310 H 0.3476 0.64632 0.18322 0.0
H311 H 0.3106 0.73336 0.23645 0.0
H312 H 0.37918 0.77714 0.9129 0.0
H313 H 0.47005 0.97816 0.87069 0.0
H314 H 0.61448 0.73064 0.21699 0.0
H315 H 0.7167 0.93095 0.17001 0.0
C316 C 0.82451 0.95672 0.60127 0.0
C317 C 0.891 0.94316 0.58579 0.0
C318 C 0.93181 0.97808 0.52427 0.0
C319 C 0.88949 1.01226 0.50552 0.0
N320 N 0.82407 1.00114 0.55129 0.0
Co321 Co 0.74307 0.03339 0.53593 0.0
N322 N 0.81264 0.10124 0.45917 0.0
C323 C 0.8804 0.10271 0.42482 0.0
C324 C 0.91612 0.15577 0.37463 0.0
C325 C 0.86741 0.18969 0.37743 0.0
C326 C 0.80472 0.15524 0.4295 0.0
N327 N 0.66282 0.06541 0.51911 0.0
C328 C 0.66731 0.12286 0.4851 0.0
C329 C 0.59739 0.12799 0.49082 0.0
C330 C 0.54771 0.07165 0.52916 0.0
C331 C 0.58971 0.03503 0.54454 0.0
N332 N 0.67326 0.96503 0.61248 0.0
C333 C 0.59916 0.94427 0.62556 0.0
C334 C 0.56469 0.89319 0.6779 0.0
C335 C 0.62047 0.88048 0.69887 0.0
C336 C 0.68644 0.92511 0.65844 0.0
N337 N 0.75729 0.09117 0.59148 0.0
C338 C 0.76702 0.19391 0.6466 0.0
C339 C 0.70064 0.14458 0.66518 0.0
C340 C 0.69692 0.09374 0.63719 0.0
C341 C 0.83014 0.18823 0.60413 0.0
C342 C 0.82411 0.13633 0.57737 0.0
N343 N 0.72801 0.97649 0.47981 0.0
C344 C 0.71908 0.87469 0.45983 0.0
C345 C 0.72184 0.8971 0.39572 0.0
C346 C 0.72364 0.95973 0.37585 0.0
C347 C 0.72534 0.99819 0.41897 0.0
C348 C 0.72363 0.91505 0.50025 0.0
H349 H 0.72675 0.04606 0.40234 0.0
H350 H 0.72521 0.8962 0.5477 0.0
H351 H 0.64369 0.05885 0.64944 0.0
H352 H 0.87249 0.13485 0.54204 0.0
C353 C 0.91216 0.05891 0.44767 0.0
C354 C 0.76043 0.92247 0.66029 0.0
C355 C 0.73687 0.17275 0.44659 0.0
C356 C 0.56363 0.97797 0.592 0.0
H357 H 0.9102 0.91207 0.61475 0.0
H358 H 0.98703 0.97992 0.49739 0.0
H359 H 0.97183 0.16931 0.34145 0.0
H360 H 0.8767 0.23434 0.34473 0.0
H361 H 0.58353 0.16855 0.47087 0.0
H362 H 0.48839 0.06089 0.54727 0.0
H363 H 0.50602 0.86812 0.69837 0.0
H364 H 0.6134 0.84132 0.73804 0.0
H365 H 0.65093 0.14694 0.69855 0.0
H366 H 0.88292 0.22502 0.58927 0.0
H367 H 0.71447 0.82627 0.47906 0.0
H368 H 0.72588 0.97981 0.32697 0.0
C369 C 0.43086 0.38676 0.15045 0.0
C370 C 0.41849 0.44354 0.15517 0.0
C371 C 0.46485 0.48729 0.1001 0.0
C372 C 0.50174 0.45472 0.0647 0.0
N373 N 0.48151 0.39269 0.09328 0.0
Co374 Co 0.51637 0.32753 0.0551 0.0
N375 N 0.58313 0.39224 0.97336 0.0
C376 C 0.59493 0.45504 0.96088 0.0
C377 C 0.6321 0.48633 0.89734 0.0
C378 C 0.64503 0.44108 0.86732 0.0
C379 C 0.61737 0.38465 0.91485 0.0
N380 N 0.54813 0.2623 0.01436 0.0
C381 C 0.59329 0.26768 0.95405 0.0
C382 C 0.59798 0.20926 0.94648 0.0
C383 C 0.5522 0.16592 1.00187 0.0
C384 C 0.52368 0.1996 0.04141 0.0
N385 N 0.45113 0.26339 0.13754 0.0
C386 C 0.44415 0.2015 0.15206 0.0
C387 C 0.39719 0.16923 0.2129 0.0
C388 C 0.37356 0.21332 0.23921 0.0
C389 C 0.40765 0.27038 0.19274 0.0
N390 N 0.4347 0.31392 0.01731 0.0
C391 C 0.34161 0.28846 0.94223 0.0
C392 C 0.34264 0.24044 0.98993 0.0
C393 C 0.38862 0.25429 0.02733 0.0
C394 C 0.3814 0.35034 0.93725 0.0
C395 C 0.42722 0.36206 0.97555 0.0
N396 N 0.59779 0.33909 0.09467 0.0
C397 C 0.66415 0.29 0.15544 0.0
C398 C 0.68838 0.34398 0.17553 0.0
C399 C 0.66999 0.39696 0.15178 0.0
C400 C 0.62568 0.39381 0.11083 0.0
C401 C 0.62035 0.28884 0.11475 0.0
H402 H 0.61329 0.4356 0.09399 0.0
H403 H 0.60396 0.24573 0.102 0.0
H404 H 0.38772 0.21546 0.06228 0.0
H405 H 0.45788 0.40994 0.96905 0.0
C406 C 0.55616 0.48108 0.0049 0.0
C407 C 0.39863 0.33014 0.2037 0.0
C408 C 0.63131 0.3267 0.90271 0.0
C409 C 0.47772 0.17436 0.1056 0.0
H410 H 0.38089 0.45292 0.19474 0.0
H411 H 0.47121 0.53696 0.08753 0.0
H412 H 0.64398 0.53555 0.87471 0.0
H413 H 0.67263 0.44882 0.81612 0.0
H414 H 0.63035 0.19741 0.90597 0.0
H415 H 0.54114 0.11573 0.01154 0.0
H416 H 0.38119 0.11942 0.23516 0.0
H417 H 0.33542 0.20408 0.28721 0.0
H418 H 0.31 0.19214 0.99697 0.0
H419 H 0.37927 0.38906 0.9023 0.0
H420 H 0.67824 0.24831 0.1718 0.0
H421 H 0.68904 0.44032 0.16527 0.0
loop_
_geom_bond_atom_site_label_1
_geom_bond_atom_site_label_2
_geom_bond_distance
_geom_bond_site_symmetry_2
_ccdc_geom_bond_type
H0 C7 0.929 . S
H1 C10 0.930 . S
H2 C12 0.929 . S
H3 C4 0.969 . S
C4 H3 0.969 . S
C4 O5 1.550 . S
C4 H6 0.973 . S
O5 C4 1.550 . S
O5 C11 1.412 . S
H6 C4 0.973 . S
C7 H0 0.929 . S
C7 C8 1.400 . S
C7 C9 1.364 . S
C8 C7 1.400 . S
C8 C12 1.377 . S
C9 C7 1.364 . S
C9 C10 1.374 . S
C10 H1 0.930 . S
C10 C9 1.374 . S
C10 C11 1.383 . S
C11 O5 1.412 . S
C11 C10 1.383 . S
C11 C12 1.394 . S
C12 H2 0.929 . S
C12 C8 1.377 . S
C12 C11 1.394 . S
H13 C20 0.929 . S
H14 C23 0.930 . S
H15 C25 0.929 . S
H16 C17 0.969 . S
C17 H16 0.969 . S
C17 O18 1.550 . S
C17 H19 0.973 . S
O18 C17 1.550 . S
O18 C24 1.412 . S
H19 C17 0.973 . S
C20 H13 0.929 . S
C20 C21 1.400 . S
C20 C22 1.364 . S
C21 C20 1.400 . S
C21 C25 1.377 . S
C22 C20 1.364 . S
C22 C23 1.374 . S
C23 H14 0.930 . S
C23 C22 1.374 . S
C23 C24 1.383 . S
C24 O18 1.412 . S
C24 C23 1.383 . S
C24 C25 1.394 . S
C25 H15 0.929 . S
C25 C21 1.377 . S
C25 C24 1.394 . S
H26 C33 0.929 . S
H27 C36 0.930 . S
H28 C38 0.929 . S
H29 C30 0.969 . S
C30 H29 0.969 . S
C30 O31 1.550 . S
C30 H32 0.973 . S
O31 C30 1.550 . S
O31 C37 1.412 . S
H32 C30 0.973 . S
C33 H26 0.929 . S
C33 C34 1.400 . S
C33 C35 1.364 . S
C34 C33 1.400 . S
C34 C38 1.377 . S
C35 C33 1.364 . S
C35 C36 1.374 . S
C36 H27 0.930 . S
C36 C35 1.374 . S
C36 C37 1.383 . S
C37 O31 1.412 . S
C37 C36 1.383 . S
C37 C38 1.394 . S
C38 H28 0.929 . S
C38 C34 1.377 . S
C38 C37 1.394 . S
H39 C46 0.929 . S
H40 C49 0.930 . S
H41 C51 0.929 . S
H42 C43 0.969 . S
C43 H42 0.969 . S
C43 O44 1.550 . S
C43 H45 0.973 . S
O44 C43 1.550 . S
O44 C50 1.412 . S
H45 C43 0.973 . S
C46 H39 0.929 . S
C46 C47 1.400 . S
C46 C48 1.364 . S
C47 C46 1.400 . S
C47 C51 1.377 . S
C48 C46 1.364 . S
C48 C49 1.374 . S
C49 H40 0.930 . S
C49 C48 1.374 . S
C49 C50 1.383 . S
C50 O44 1.412 . S
C50 C49 1.383 . S
C50 C51 1.394 . S
C51 H41 0.929 . S
C51 C47 1.377 . S
C51 C50 1.394 . S
H52 C59 0.929 . S
H53 C62 0.930 . S
H54 C64 0.929 . S
H55 C56 0.969 . S
C56 H55 0.969 . S
C56 O57 1.550 . S
C56 H58 0.973 . S
O57 C56 1.550 . S
O57 C63 1.412 . S
H58 C56 0.973 . S
C59 H52 0.929 . S
C59 C60 1.400 . S
C59 C61 1.364 . S
C60 C59 1.400 . S
C60 C64 1.377 . S
C61 C59 1.364 . S
C61 C62 1.374 . S
C62 H53 0.930 . S
C62 C61 1.374 . S
C62 C63 1.383 . S
C63 O57 1.412 . S
C63 C62 1.383 . S
C63 C64 1.394 . S
C64 H54 0.929 . S
C64 C60 1.377 . S
C64 C63 1.394 . S
H65 C72 0.929 . S
H66 C75 0.930 . S
H67 C77 0.929 . S
H68 C69 0.969 . S
C69 H68 0.969 . S
C69 O70 1.550 . S
C69 H71 0.973 . S
O70 C69 1.550 . S
O70 C76 1.412 . S
H71 C69 0.973 . S
C72 H65 0.929 . S
C72 C73 1.400 . S
C72 C74 1.364 . S
C73 C72 1.400 . S
C73 C77 1.377 . S
C74 C72 1.364 . S
C74 C75 1.374 . S
C75 H66 0.930 . S
C75 C74 1.374 . S
C75 C76 1.383 . S
C76 O70 1.412 . S
C76 C75 1.383 . S
C76 C77 1.394 . S
C77 H67 0.929 . S
C77 C73 1.377 . S
C77 C76 1.394 . S
H78 C85 0.929 . S
H79 C88 0.930 . S
H80 C90 0.929 . S
H81 C82 0.969 . S
C82 H81 0.969 . S
C82 O83 1.550 . S
C82 H84 0.973 . S
O83 C82 1.550 . S
O83 C89 1.412 . S
H84 C82 0.973 . S
C85 H78 0.929 . S
C85 C86 1.400 . S
C85 C87 1.364 . S
C86 C85 1.400 . S
C86 C90 1.377 . S
C87 C85 1.364 . S
C87 C88 1.374 . S
C88 H79 0.930 . S
C88 C87 1.374 . S
C88 C89 1.383 . S
C89 O83 1.412 . S
C89 C88 1.383 . S
C89 C90 1.394 . S
C90 H80 0.929 . S
C90 C86 1.377 . S
C90 C89 1.394 . S
H91 C98 0.929 . S
H92 C101 0.930 . S
H93 C103 0.929 . S
H94 C95 0.969 . S
C95 H94 0.969 . S
C95 O96 1.550 . S
C95 H97 0.973 . S
O96 C95 1.550 . S
O96 C102 1.412 . S
H97 C95 0.973 . S
C98 H91 0.929 . S
C98 C99 1.400 . S
C98 C100 1.364 . S
C99 C98 1.400 . S
C99 C103 1.377 . S
C100 C98 1.364 . S
C100 C101 1.374 . S
C101 H92 0.930 . S
C101 C100 1.374 . S
C101 C102 1.383 . S
C102 O96 1.412 . S
C102 C101 1.383 . S
C102 C103 1.394 . S
C103 H93 0.929 . S
C103 C99 1.377 . S
C103 C102 1.394 . S
C104 C105 1.443 . S
C104 N108 1.376 . S
C104 C142 1.389 . S
C105 C104 1.443 . S
C105 C106 1.340 . S
C105 H145 0.951 . S
C106 C105 1.340 . S
C106 C107 1.439 1_455 S
C106 H146 0.950 1_455 S
C107 C106 1.439 1_655 S
C107 N108 1.374 1_655 S
C107 C141 1.395 . S
N108 C104 1.376 . S
N108 C107 1.374 1_455 S
N108 Co109 2.008 . S
Co109 N108 2.008 . S
Co109 N110 1.995 1_455 S
Co109 N115 2.008 1_455 S
Co109 N120 1.995 . S
Co109 N125 2.282 . S
Co109 N131 2.282 1_455 S
N110 Co109 1.995 1_655 S
N110 C111 1.376 . S
N110 C114 1.383 . S
C111 N110 1.376 . S
C111 C112 1.446 . S
C111 C141 1.391 . S
C112 C111 1.446 . S
C112 C113 1.339 . S
C112 H147 0.949 . S
C113 C112 1.339 . S
C113 C114 1.439 . S
C113 H148 0.950 . S
C114 N110 1.383 . S
C114 C113 1.439 . S
C114 C143 1.392 . S
N115 Co109 2.008 1_655 S
N115 C116 1.376 . S
N115 C119 1.374 1_655 S
C116 N115 1.376 . S
C116 C117 1.443 . S
C116 C143 1.389 . S
C117 C116 1.443 . S
C117 C118 1.340 . S
C117 H149 0.951 . S
C118 C117 1.340 . S
C118 C119 1.439 1_655 S
C118 H150 0.950 1_655 S
C119 N115 1.374 1_455 S
C119 C118 1.439 1_455 S
C119 C144 1.395 . S
N120 Co109 1.995 . S
N120 C121 1.376 . S
N120 C124 1.383 . S
C121 N120 1.376 . S
C121 C122 1.446 . S
C121 C144 1.391 . S
C122 C121 1.446 . S
C122 C123 1.339 . S
C122 H151 0.949 . S
C123 C122 1.339 . S
C123 C124 1.439 . S
C123 H152 0.950 . S
C124 N120 1.383 . S
C124 C123 1.439 . S
C124 C142 1.392 . S
N125 Co109 2.282 . S
N125 C128 1.332 . S
N125 C130 1.332 . S
C126 C127 1.386 . S
C126 C129 1.388 . S
C127 C126 1.386 . S
C127 C128 1.382 . S
C127 H153 0.950 . S
C128 N125 1.332 . S
C128 C127 1.382 . S
C128 H139 0.952 . S
C129 C126 1.388 . S
C129 C130 1.382 . S
C129 H154 0.950 . S
C130 N125 1.332 . S
C130 C129 1.382 . S
C130 H140 0.948 . S
N131 Co109 2.282 1_655 S
N131 C135 1.332 . S
N131 C136 1.332 . S
C132 C133 1.388 . S
C132 C136 1.382 . S
C132 H155 0.950 . S
C133 C132 1.388 . S
C133 C134 1.386 . S
C134 C133 1.386 . S
C134 C135 1.382 . S
C134 H156 0.950 . S
C135 N131 1.332 . S
C135 C134 1.382 . S
C135 H137 0.952 . S
C136 N131 1.332 . S
C136 C132 1.382 . S
C136 H138 0.948 . S
H137 C135 0.952 . S
H138 C136 0.948 . S
H139 C128 0.952 . S
H140 C130 0.948 . S
C141 C107 1.395 . S
C141 C111 1.391 . S
C142 C104 1.389 . S
C142 C124 1.392 . S
C143 C114 1.392 . S
C143 C116 1.389 . S
C144 C119 1.395 . S
C144 C121 1.391 . S
H145 C105 0.951 . S
H146 C106 0.950 1_655 S
H147 C112 0.949 . S
H148 C113 0.950 . S
H149 C117 0.951 . S
H150 C118 0.950 1_455 S
H151 C122 0.949 . S
H152 C123 0.950 . S
H153 C127 0.950 . S
H154 C129 0.950 . S
H155 C132 0.950 . S
H156 C134 0.950 . S
C157 C158 1.443 . S
C157 N161 1.376 . S
C157 C195 1.389 . S
C158 C157 1.443 . S
C158 C159 1.340 . S
C158 H198 0.951 . S
C159 C158 1.340 . S
C159 C160 1.439 . S
C159 H199 0.950 . S
C160 C159 1.439 . S
C160 N161 1.374 . S
C160 C194 1.395 1_455 S
N161 C157 1.376 . S
N161 C160 1.374 . S
N161 Co162 2.008 . S
Co162 N161 2.008 . S
Co162 N163 1.995 1_455 S
Co162 N168 2.008 . S
Co162 N173 1.995 . S
Co162 N178 2.282 . S
Co162 N184 2.282 1_455 S
N163 Co162 1.995 1_655 S
N163 C164 1.376 . S
N163 C167 1.383 . S
C164 N163 1.376 . S
C164 C165 1.446 . S
C164 C194 1.391 . S
C165 C164 1.446 . S
C165 C166 1.339 . S
C165 H200 0.949 . S
C166 C165 1.339 . S
C166 C167 1.439 . S
C166 H201 0.950 . S
C167 N163 1.383 . S
C167 C166 1.439 . S
C167 C196 1.392 . S
N168 Co162 2.008 . S
N168 C169 1.376 1_455 S
N168 C172 1.374 . S
C169 N168 1.376 1_655 S
C169 C170 1.443 . S
C169 C196 1.389 . S
C170 C169 1.443 . S
C170 C171 1.340 1_655 S
C170 H202 0.951 . S
C171 C170 1.340 1_455 S
C171 C172 1.439 . S
C171 H203 0.950 . S
C172 N168 1.374 . S
C172 C171 1.439 . S
C172 C197 1.395 . S
N173 Co162 1.995 . S
N173 C174 1.376 . S
N173 C177 1.383 . S
C174 N173 1.376 . S
C174 C175 1.446 . S
C174 C197 1.391 . S
C175 C174 1.446 . S
C175 C176 1.339 . S
C175 H204 0.949 . S
C176 C175 1.339 . S
C176 C177 1.439 . S
C176 H205 0.950 . S
C177 N173 1.383 . S
C177 C176 1.439 . S
C177 C195 1.392 . S
N178 Co162 2.282 . S
N178 C181 1.332 . S
N178 C183 1.332 . S
C179 C180 1.386 . S
C179 C182 1.388 . S
C180 C179 1.386 . S
C180 C181 1.382 . S
C180 H206 0.950 . S
C181 N178 1.332 . S
C181 C180 1.382 . S
C181 H192 0.952 . S
C182 C179 1.388 . S
C182 C183 1.382 . S
C182 H207 0.950 . S
C183 N178 1.332 . S
C183 C182 1.382 . S
C183 H193 0.948 . S
N184 Co162 2.282 1_655 S
N184 C188 1.332 . S
N184 C189 1.332 . S
C185 C186 1.388 . S
C185 C189 1.382 . S
C185 H208 0.950 . S
C186 C185 1.388 . S
C186 C187 1.386 . S
C187 C186 1.386 . S
C187 C188 1.382 . S
C187 H209 0.950 . S
C188 N184 1.332 . S
C188 C187 1.382 . S
C188 H190 0.952 . S
C189 N184 1.332 . S
C189 C185 1.382 . S
C189 H191 0.948 1_655 S
H190 C188 0.952 . S
H191 C189 0.948 1_455 S
H192 C181 0.952 . S
H193 C183 0.948 . S
C194 C160 1.395 1_655 S
C194 C164 1.391 . S
C195 C157 1.389 . S
C195 C177 1.392 . S
C196 C167 1.392 . S
C196 C169 1.389 . S
C197 C172 1.395 . S
C197 C174 1.391 . S
H198 C158 0.951 . S
H199 C159 0.950 . S
H200 C165 0.949 . S
H201 C166 0.950 . S
H202 C170 0.951 . S
H203 C171 0.950 . S
H204 C175 0.949 . S
H205 C176 0.950 . S
H206 C180 0.950 . S
H207 C182 0.950 . S
H208 C185 0.950 . S
H209 C187 0.950 . S
C210 C211 1.443 . S
C210 N214 1.376 . S
C210 C248 1.389 . S
C211 C210 1.443 . S
C211 C212 1.340 . S
C211 H251 0.951 . S
C212 C211 1.340 . S
C212 C213 1.439 1_565 S
C212 H252 0.950 . S
C213 C212 1.439 1_545 S
C213 N214 1.374 1_545 S
C213 C247 1.395 . S
N214 C210 1.376 . S
N214 C213 1.374 1_565 S
N214 Co215 2.008 1_565 S
Co215 N214 2.008 1_545 S
Co215 N216 1.995 . S
Co215 N221 2.008 . S
Co215 N226 1.995 1_545 S
Co215 N231 2.282 . S
Co215 N237 2.282 1_545 S
N216 Co215 1.995 . S
N216 C217 1.376 . S
N216 C220 1.383 . S
C217 N216 1.376 . S
C217 C218 1.446 . S
C217 C247 1.391 . S
C218 C217 1.446 . S
C218 C219 1.339 . S
C218 H253 0.949 . S
C219 C218 1.339 . S
C219 C220 1.439 . S
C219 H254 0.950 . S
C220 N216 1.383 . S
C220 C219 1.439 . S
C220 C249 1.392 . S
N221 Co215 2.008 . S
N221 C222 1.376 . S
N221 C225 1.374 1_455 S
C222 N221 1.376 . S
C222 C223 1.443 . S
C222 C249 1.389 . S
C223 C222 1.443 . S
C223 C224 1.340 1_455 S
C223 H255 0.951 . S
C224 C223 1.340 1_655 S
C224 C225 1.439 . S
C224 H256 0.950 . S
C225 N221 1.374 1_655 S
C225 C224 1.439 . S
C225 C250 1.395 1_545 S
N226 Co215 1.995 1_565 S
N226 C227 1.376 1_455 S
N226 C230 1.383 . S
C227 N226 1.376 1_655 S
C227 C228 1.446 . S
C227 C250 1.391 . S
C228 C227 1.446 . S
C228 C229 1.339 . S
C228 H257 0.949 . S
C229 C228 1.339 . S
C229 C230 1.439 1_655 S
C229 H258 0.950 . S
C230 N226 1.383 . S
C230 C229 1.439 1_455 S
C230 C248 1.392 . S
N231 Co215 2.282 . S
N231 C234 1.332 . S
N231 C236 1.332 . S
C232 C233 1.386 . S
C232 C235 1.388 . S
C233 C232 1.386 . S
C233 C234 1.382 . S
C233 H259 0.950 . S
C234 N231 1.332 . S
C234 C233 1.382 . S
C234 H245 0.952 . S
C235 C232 1.388 . S
C235 C236 1.382 . S
C235 H260 0.950 . S
C236 N231 1.332 . S
C236 C235 1.382 . S
C236 H246 0.948 . S
N237 Co215 2.282 1_565 S
N237 C241 1.332 . S
N237 C242 1.332 . S
C238 C239 1.388 . S
C238 C242 1.382 . S
C238 H261 0.950 . S
C239 C238 1.388 . S
C239 C240 1.386 . S
C240 C239 1.386 . S
C240 C241 1.382 . S
C240 H262 0.950 . S
C241 N237 1.332 . S
C241 C240 1.382 . S
C241 H243 0.952 . S
C242 N237 1.332 . S
C242 C238 1.382 . S
C242 H244 0.948 . S
H243 C241 0.952 . S
H244 C242 0.948 . S
H245 C234 0.952 . S
H246 C236 0.948 . S
C247 C213 1.395 . S
C247 C217 1.391 . S
C248 C210 1.389 . S
C248 C230 1.392 . S
C249 C220 1.392 . S
C249 C222 1.389 . S
C250 C225 1.395 1_565 S
C250 C227 1.391 . S
H251 C211 0.951 . S
H252 C212 0.950 . S
H253 C218 0.949 . S
H254 C219 0.950 . S
H255 C223 0.951 . S
H256 C224 0.950 . S
H257 C228 0.949 . S
H258 C229 0.950 . S
H259 C233 0.950 . S
H260 C235 0.950 . S
H261 C238 0.950 . S
H262 C240 0.950 . S
C263 C264 1.443 . S
C263 N267 1.376 . S
C263 C301 1.389 . S
C264 C263 1.443 . S
C264 C265 1.340 . S
C264 H304 0.951 . S
C265 C264 1.340 . S
C265 C266 1.439 . S
C265 H305 0.950 1_565 S
C266 C265 1.439 . S
C266 N267 1.374 . S
C266 C300 1.395 . S
N267 C263 1.376 . S
N267 C266 1.374 . S
N267 Co268 2.008 . S
Co268 N267 2.008 . S
Co268 N269 1.995 1_554 S
Co268 N274 2.008 . S
Co268 N279 1.995 . S
Co268 N284 2.282 1_554 S
Co268 N290 2.282 . S
N269 Co268 1.995 1_556 S
N269 C270 1.376 . S
N269 C273 1.383 . S
C270 N269 1.376 . S
C270 C271 1.446 . S
C270 C300 1.391 1_556 S
C271 C270 1.446 . S
C271 C272 1.339 . S
C271 H306 0.949 1_565 S
C272 C271 1.339 . S
C272 C273 1.439 . S
C272 H307 0.950 . S
C273 N269 1.383 . S
C273 C272 1.439 . S
C273 C302 1.392 . S
N274 Co268 2.008 . S
N274 C275 1.376 1_554 S
N274 C278 1.374 . S
C275 N274 1.376 1_556 S
C275 C276 1.443 . S
C275 C302 1.389 . S
C276 C275 1.443 . S
C276 C277 1.340 . S
C276 H308 0.951 . S
C277 C276 1.340 . S
C277 C278 1.439 1_556 S
C277 H309 0.950 . S
C278 N274 1.374 . S
C278 C277 1.439 1_554 S
C278 C303 1.395 . S
N279 Co268 1.995 . S
N279 C280 1.376 . S
N279 C283 1.383 . S
C280 N279 1.376 . S
C280 C281 1.446 . S
C280 C303 1.391 . S
C281 C280 1.446 . S
C281 C282 1.339 . S
C281 H310 0.949 . S
C282 C281 1.339 . S
C282 C283 1.439 . S
C282 H311 0.950 . S
C283 N279 1.383 . S
C283 C282 1.439 . S
C283 C301 1.392 . S
N284 Co268 2.282 1_556 S
N284 C287 1.332 . S
N284 C289 1.332 . S
C285 C286 1.386 . S
C285 C288 1.388 . S
C286 C285 1.386 . S
C286 C287 1.382 . S
C286 H312 0.950 . S
C287 N284 1.332 . S
C287 C286 1.382 . S
C287 H298 0.952 1_556 S
C288 C285 1.388 . S
C288 C289 1.382 . S
C288 H313 0.950 . S
C289 N284 1.332 . S
C289 C288 1.382 . S
C289 H299 0.948 . S
N290 Co268 2.282 . S
N290 C294 1.332 . S
N290 C295 1.332 . S
C291 C292 1.388 . S
C291 C295 1.382 . S
C291 H314 0.950 . S
C292 C291 1.388 . S
C292 C293 1.386 . S
C293 C292 1.386 . S
C293 C294 1.382 . S
C293 H315 0.950 . S
C294 N290 1.332 . S
C294 C293 1.382 . S
C294 H296 0.952 . S
C295 N290 1.332 . S
C295 C291 1.382 . S
C295 H297 0.948 . S
H296 C294 0.952 . S
H297 C295 0.948 . S
H298 C287 0.952 1_554 S
H299 C289 0.948 . S
C300 C266 1.395 . S
C300 C270 1.391 1_554 S
C301 C263 1.389 . S
C301 C283 1.392 . S
C302 C273 1.392 . S
C302 C275 1.389 . S
C303 C278 1.395 . S
C303 C280 1.391 . S
H304 C264 0.951 . S
H305 C265 0.950 1_545 S
H306 C271 0.949 1_545 S
H307 C272 0.950 . S
H308 C276 0.951 . S
H309 C277 0.950 . S
H310 C281 0.949 . S
H311 C282 0.950 . S
H312 C286 0.950 . S
H313 C288 0.950 . S
H314 C291 0.950 . S
H315 C293 0.950 . S
C316 C317 1.443 . S
C316 N320 1.376 . S
C316 C354 1.389 . S
C317 C316 1.443 . S
C317 C318 1.340 . S
C317 H357 0.951 . S
C318 C317 1.340 . S
C318 C319 1.439 . S
C318 H358 0.950 . S
C319 C318 1.439 . S
C319 N320 1.374 . S
C319 C353 1.395 1_565 S
N320 C316 1.376 . S
N320 C319 1.374 . S
N320 Co321 2.008 1_565 S
Co321 N320 2.008 1_545 S
Co321 N322 1.995 . S
Co321 N327 2.008 . S
Co321 N332 1.995 1_545 S
Co321 N337 2.282 . S
Co321 N343 2.282 1_545 S
N322 Co321 1.995 . S
N322 C323 1.376 . S
N322 C326 1.383 . S
C323 N322 1.376 . S
C323 C324 1.446 . S
C323 C353 1.391 . S
C324 C323 1.446 . S
C324 C325 1.339 . S
C324 H359 0.949 . S
C325 C324 1.339 . S
C325 C326 1.439 . S
C325 H360 0.950 . S
C326 N322 1.383 . S
C326 C325 1.439 . S
C326 C355 1.392 . S
N327 Co321 2.008 . S
N327 C328 1.376 . S
N327 C331 1.374 . S
C328 N327 1.376 . S
C328 C329 1.443 . S
C328 C355 1.389 . S
C329 C328 1.443 . S
C329 C330 1.340 . S
C329 H361 0.951 . S
C330 C329 1.340 . S
C330 C331 1.439 . S
C330 H362 0.950 . S
C331 N327 1.374 . S
C331 C330 1.439 . S
C331 C356 1.395 1_545 S
N332 Co321 1.995 1_565 S
N332 C333 1.376 . S
N332 C336 1.383 . S
C333 N332 1.376 . S
C333 C334 1.446 . S
C333 C356 1.391 . S
C334 C333 1.446 . S
C334 C335 1.339 . S
C334 H363 0.949 . S
C335 C334 1.339 . S
C335 C336 1.439 . S
C335 H364 0.950 . S
C336 N332 1.383 . S
C336 C335 1.439 . S
C336 C354 1.392 . S
N337 Co321 2.282 . S
N337 C340 1.332 . S
N337 C342 1.332 . S
C338 C339 1.386 . S
C338 C341 1.388 . S
C339 C338 1.386 . S
C339 C340 1.382 . S
C339 H365 0.950 . S
C340 N337 1.332 . S
C340 C339 1.382 . S
C340 H351 0.952 . S
C341 C338 1.388 . S
C341 C342 1.382 . S
C341 H366 0.950 . S
C342 N337 1.332 . S
C342 C341 1.382 . S
C342 H352 0.948 . S
N343 Co321 2.282 1_565 S
N343 C347 1.332 . S
N343 C348 1.332 . S
C344 C345 1.388 . S
C344 C348 1.382 . S
C344 H367 0.950 . S
C345 C344 1.388 . S
C345 C346 1.386 . S
C346 C345 1.386 . S
C346 C347 1.382 . S
C346 H368 0.950 . S
C347 N343 1.332 . S
C347 C346 1.382 . S
C347 H349 0.952 . S
C348 N343 1.332 . S
C348 C344 1.382 . S
C348 H350 0.948 . S
H349 C347 0.952 . S
H350 C348 0.948 . S
H351 C340 0.952 . S
H352 C342 0.948 . S
C353 C319 1.395 1_545 S
C353 C323 1.391 . S
C354 C316 1.389 . S
C354 C336 1.392 . S
C355 C326 1.392 . S
C355 C328 1.389 . S
C356 C331 1.395 1_565 S
C356 C333 1.391 . S
H357 C317 0.951 . S
H358 C318 0.950 . S
H359 C324 0.949 . S
H360 C325 0.950 . S
H361 C329 0.951 . S
H362 C330 0.950 . S
H363 C334 0.949 . S
H364 C335 0.950 . S
H365 C339 0.950 . S
H366 C341 0.950 . S
H367 C344 0.950 . S
H368 C346 0.950 . S
C369 C370 1.443 . S
C369 N373 1.376 . S
C369 C407 1.389 . S
C370 C369 1.443 . S
C370 C371 1.340 . S
C370 H410 0.951 . S
C371 C370 1.340 . S
C371 C372 1.439 . S
C371 H411 0.950 . S
C372 C371 1.439 . S
C372 N373 1.374 . S
C372 C406 1.395 1_554 S
N373 C369 1.376 . S
N373 C372 1.374 . S
N373 Co374 2.008 . S
Co374 N373 2.008 . S
Co374 N375 1.995 1_554 S
Co374 N380 2.008 1_554 S
Co374 N385 1.995 . S
Co374 N390 2.282 1_554 S
Co374 N396 2.282 . S
N375 Co374 1.995 1_556 S
N375 C376 1.376 . S
N375 C379 1.383 . S
C376 N375 1.376 . S
C376 C377 1.446 . S
C376 C406 1.391 . S
C377 C376 1.446 . S
C377 C378 1.339 . S
C377 H412 0.949 . S
C378 C377 1.339 . S
C378 C379 1.439 . S
C378 H413 0.950 . S
C379 N375 1.383 . S
C379 C378 1.439 . S
C379 C408 1.392 . S
N380 Co374 2.008 1_556 S
N380 C381 1.376 . S
N380 C384 1.374 . S
C381 N380 1.376 . S
C381 C382 1.443 . S
C381 C408 1.389 . S
C382 C381 1.443 . S
C382 C383 1.340 . S
C382 H414 0.951 . S
C383 C382 1.340 . S
C383 C384 1.439 . S
C383 H415 0.950 . S
C384 N380 1.374 . S
C384 C383 1.439 . S
C384 C409 1.395 1_556 S
N385 Co374 1.995 . S
N385 C386 1.376 . S
N385 C389 1.383 . S
C386 N385 1.376 . S
C386 C387 1.446 . S
C386 C409 1.391 . S
C387 C386 1.446 . S
C387 C388 1.339 . S
C387 H416 0.949 . S
C388 C387 1.339 . S
C388 C389 1.439 . S
C388 H417 0.950 . S
C389 N385 1.383 . S
C389 C388 1.439 . S
C389 C407 1.392 . S
N390 Co374 2.282 1_556 S
N390 C393 1.332 . S
N390 C395 1.332 . S
C391 C392 1.386 . S
C391 C394 1.388 . S
C392 C391 1.386 . S
C392 C393 1.382 . S
C392 H418 0.950 . S
C393 N390 1.332 . S
C393 C392 1.382 . S
C393 H404 0.952 . S
C394 C391 1.388 . S
C394 C395 1.382 . S
C394 H419 0.950 . S
C395 N390 1.332 . S
C395 C394 1.382 . S
C395 H405 0.948 . S
N396 Co374 2.282 . S
N396 C400 1.332 . S
N396 C401 1.332 . S
C397 C398 1.388 . S
C397 C401 1.382 . S
C397 H420 0.950 . S
C398 C397 1.388 . S
C398 C399 1.386 . S
C399 C398 1.386 . S
C399 C400 1.382 . S
C399 H421 0.950 . S
C400 N396 1.332 . S
C400 C399 1.382 . S
C400 H402 0.952 . S
C401 N396 1.332 . S
C401 C397 1.382 . S
C401 H403 0.948 . S
H402 C400 0.952 . S
H403 C401 0.948 . S
H404 C393 0.952 . S
H405 C395 0.948 . S
C406 C372 1.395 1_556 S
C406 C376 1.391 . S
C407 C369 1.389 . S
C407 C389 1.392 . S
C408 C379 1.392 . S
C408 C381 1.389 . S
C409 C384 1.395 1_554 S
C409 C386 1.391 . S
H410 C370 0.951 . S
H411 C371 0.950 . S
H412 C377 0.949 . S
H413 C378 0.950 . S
H414 C382 0.951 . S
H415 C383 0.950 . S
H416 C387 0.949 . S
H417 C388 0.950 . S
H418 C392 0.950 . S
H419 C394 0.950 . S
H420 C397 0.950 . S
H421 C399 0.950 . S
C126 C8 2.170 . S
C195 C22 1.908 . S
C133 C30 2.542 . S
C196 C47 1.645 . S
C249 C9 2.310 . S
C285 C17 1.867 . S
C34 C345 1.940 . S
C408 C48 1.561 . S
C248 C21 2.307 . S
C35 C292 2.013 . S
C338 C43 1.424 . S
C407 C4 1.688 . S
C56 C186 1.955 . S
C143 C73 2.106 . S
C87 C179 1.916 . S
C100 C142 2.299 . S
C354 C60 1.982 . S
C398 C69 1.661 . S
C232 C86 2.346 . S
C95 C301 1.529 . S
C355 C74 2.377 . S
C391 C82 1.419 . S
C239 C99 2.415 . S
C61 C302 1.857 . S
