# Generated by pormake.
# Topology anh, (6,3)-cn, num edge types: 1
# Building blocks:
#     Node 0, Type 0, BuildingBlock: BETGAK_clean_sbu_0, # of connection points: 6
#     Node 1, Type 0, BuildingBlock: BETGAK_clean_sbu_0, # of connection points: 6
#     Node 2, Type 0, BuildingBlock: BETGAK_clean_sbu_0, # of connection points: 6
#     Node 3, Type 1, BuildingBlock: CUQRIR_clean_linker_1, # of connection points: 3
#     Node 4, Type 1, BuildingBlock: CUQRIR_clean_linker_1, # of connection points: 3
#     Node 5, Type 1, BuildingBlock: CUQRIR_clean_linker_1, # of connection points: 3
#     Node 6, Type 1, BuildingBlock: CUQRIR_clean_linker_1, # of connection points: 3
#     Node 7, Type 1, BuildingBlock: CUQRIR_clean_linker_1, # of connection points: 3
#     Node 8, Type 1, BuildingBlock: CUQRIR_clean_linker_1, # of connection points: 3
#     Edge 9, Type (0, 1), BuildingBlock: XUDNAN_clean_linker_2, # of connection points: 2
#     Edge 10, Type (0, 1), BuildingBlock: XUDNAN_clean_linker_2, # of connection points: 2
#     Edge 11, Type (0, 1), BuildingBlock: XUDNAN_clean_linker_2, # of connection points: 2
#     Edge 12, Type (0, 1), BuildingBlock: XUDNAN_clean_linker_2, # of connection points: 2
#     Edge 13, Type (0, 1), BuildingBlock: XUDNAN_clean_linker_2, # of connection points: 2
#     Edge 14, Type (0, 1), BuildingBlock: XUDNAN_clean_linker_2, # of connection points: 2
#     Edge 15, Type (0, 1), BuildingBlock: XUDNAN_clean_linker_2, # of connection points: 2
#     Edge 16, Type (0, 1), BuildingBlock: XUDNAN_clean_linker_2, # of connection points: 2
#     Edge 17, Type (0, 1), BuildingBlock: XUDNAN_clean_linker_2, # of connection points: 2
#     Edge 18, Type (0, 1), BuildingBlock: XUDNAN_clean_linker_2, # of connection points: 2
#     Edge 19, Type (0, 1), BuildingBlock: XUDNAN_clean_linker_2, # of connection points: 2
#     Edge 20, Type (0, 1), BuildingBlock: XUDNAN_clean_linker_2, # of connection points: 2
#     Edge 21, Type (0, 1), BuildingBlock: XUDNAN_clean_linker_2, # of connection points: 2
#     Edge 22, Type (0, 1), BuildingBlock: XUDNAN_clean_linker_2, # of connection points: 2
#     Edge 23, Type (0, 1), BuildingBlock: XUDNAN_clean_linker_2, # of connection points: 2
#     Edge 24, Type (0, 1), BuildingBlock: XUDNAN_clean_linker_2, # of connection points: 2
#     Edge 25, Type (0, 1), BuildingBlock: XUDNAN_clean_linker_2, # of connection points: 2
#     Edge 26, Type (0, 1), BuildingBlock: XUDNAN_clean_linker_2, # of connection points: 2
# Relax obj value: 0.206
# Max RMSD: 0.217
# Mean RMSD: 0.164
data_MOF--net-anh--node1-BETGAK_clean_sbu_0--node2-CUQRIR_clean_linker_1--edge1-XUDNAN_clean_linker_2
_symmetry_space_group_name_H-M    P1
_symmetry_Int_Tables_number       1
_symmetry_cell_setting            triclinic
loop_
_symmetry_equiv_pos_as_xyz
'x, y, z'
_cell_length_a     28.985203
_cell_length_b     34.755482
_cell_length_c     46.886344
_cell_angle_alpha  88.211655
_cell_angle_beta   90.259173
_cell_angle_gamma 130.25492
loop_
_atom_site_label
_atom_site_type_symbol
_atom_site_fract_x
_atom_site_fract_y
_atom_site_fract_z
_atom_type_partial_charge
La0 La 0.15617 0.47302 0.15046 0.0
La1 La 1.08076 0.49759 0.15136 0.0
C2 C 0.24768 0.48153 0.1443 0.0
C3 C 0.30361 0.51863 0.1598 0.0
C4 C 0.30004 0.53106 0.18758 0.0
C5 C 0.35237 0.56738 0.20235 0.0
C6 C 0.40922 0.59271 0.18942 0.0
C7 C 0.41272 0.58199 0.16113 0.0
C8 C 0.36026 0.54518 0.14644 0.0
C9 C 0.1142 0.46391 0.20219 0.0
C10 C 0.21481 0.58886 0.15833 0.0
C11 C 0.99418 0.49565 0.16098 0.0
C12 C 0.93211 0.46208 0.15096 0.0
C13 C 0.91694 0.43295 0.12699 0.0
C14 C 0.85974 0.40609 0.11523 0.0
C15 C 0.81721 0.40824 0.12728 0.0
C16 C 0.83135 0.43423 0.15272 0.0
C17 C 0.88845 0.46099 0.16442 0.0
C18 C 0.12199 0.50497 0.09918 0.0
C19 C 1.02056 0.38134 0.14646 0.0
O20 O 0.20132 0.44567 0.16031 0.0
O21 O 0.2333 0.50093 0.12571 0.0
O22 O 0.12144 0.43419 0.19183 0.0
O23 O 0.13319 0.49926 0.18416 0.0
O24 O 0.22283 0.55708 0.1509 0.0
O25 O 0.15987 0.57181 0.16394 0.0
O26 O 1.0356 0.52462 0.14117 0.0
O27 O 1.0084 0.47457 0.17814 0.0
O28 O 0.11615 0.53573 0.10939 0.0
O29 O 0.10287 0.47019 0.11768 0.0
O30 O 1.01405 0.41451 0.15248 0.0
O31 O 1.07481 0.39659 0.14047 0.0
H32 H 0.25665 0.51234 0.19804 0.0
H33 H 0.34853 0.57481 0.2241 0.0
H34 H 0.45618 0.60036 0.15083 0.0
H35 H 0.36392 0.5371 0.12483 0.0
H36 H 0.95033 0.43312 0.11654 0.0
H37 H 0.85013 0.38639 0.09572 0.0
H38 H 0.80025 0.43758 0.16236 0.0
H39 H 0.89948 0.48297 0.18308 0.0
La40 La 0.73013 0.06834 0.46541 0.0
La41 La 0.64183 0.0838 0.45618 0.0
C42 C 0.78319 0.03794 0.48556 0.0
C43 C 0.76746 0.99079 0.49802 0.0
C44 C 0.75403 0.95265 0.48052 0.0
C45 C 0.74448 0.91043 0.49235 0.0
C46 C 0.74839 0.90535 0.52196 0.0
C47 C 0.76044 0.94298 0.53949 0.0
C48 C 0.77006 0.9852 0.52766 0.0
C49 C 0.71583 0.08093 0.41127 0.0
C50 C 0.58828 0.9733 0.46037 0.0
C51 C 0.58949 0.11725 0.44114 0.0
C52 C 0.59987 0.1638 0.44803 0.0
C53 C 0.5684 0.16343 0.47095 0.0
C54 C 0.58157 0.208 0.47903 0.0
C55 C 0.62635 0.25411 0.46432 0.0
C56 C 0.65623 0.2541 0.44073 0.0
C57 C 0.64304 0.20953 0.43263 0.0
C58 C 0.65757 0.07175 0.51024 0.0
C59 C 0.78513 0.18021 0.45727 0.0
O60 O 0.77355 0.03903 0.45838 0.0
O61 O 0.76865 0.05995 0.5006 0.0
O62 O 0.76621 0.09586 0.42192 0.0
O63 O 0.6746 0.05649 0.43028 0.0
O64 O 0.64053 0.99215 0.47225 0.0
O65 O 0.58149 1.00367 0.44737 0.0
O66 O 0.57041 0.08427 0.46221 0.0
O67 O 0.63122 0.12308 0.42563 0.0
O68 O 0.60683 0.05555 0.49969 0.0
O69 O 0.69816 0.09667 0.49106 0.0
O70 O 0.7291 0.16092 0.45162 0.0
O71 O 0.79723 0.15092 0.46586 0.0
H72 H 0.75223 0.95585 0.45756 0.0
H73 H 0.73608 0.88262 0.47812 0.0
H74 H 0.76294 0.94005 0.56241 0.0
H75 H 0.78064 1.014 0.54174 0.0
H76 H 0.53449 0.12883 0.48313 0.0
H77 H 0.55793 0.20652 0.49742 0.0
H78 H 0.69015 0.28868 0.42854 0.0
H79 H 0.66757 0.21117 0.41461 0.0
La80 La 0.64788 0.61837 0.84279 0.0
La81 La 0.56655 0.508 0.84655 0.0
C82 C 0.70383 0.70961 0.82812 0.0
C83 C 0.68951 0.74012 0.81517 0.0
C84 C 0.63518 0.72975 0.82187 0.0
C85 C 0.62256 0.75931 0.80977 0.0
C86 C 0.66459 0.80058 0.79113 0.0
C87 C 0.71934 0.81136 0.78472 0.0
C88 C 0.73147 0.78117 0.79649 0.0
C89 C 0.63584 0.58051 0.8944 0.0
C90 C 0.50249 0.55953 0.84833 0.0
C91 C 0.49626 0.41378 0.85487 0.0
C92 C 0.50039 0.37554 0.84598 0.0
C93 C 0.53072 0.38251 0.82049 0.0
C94 C 0.53641 0.34719 0.81264 0.0
C95 C 0.51208 0.30404 0.83013 0.0
C96 C 0.48185 0.29729 0.85572 0.0
C97 C 0.47615 0.3327 0.86355 0.0
C98 C 0.61246 0.55 0.79493 0.0
C99 C 0.71104 0.56707 0.84627 0.0
O100 O 0.68156 0.69026 0.85381 0.0
O101 O 0.69937 0.67752 0.81167 0.0
O102 O 0.6855 0.62213 0.88399 0.0
O103 O 0.5945 0.56309 0.87668 0.0
O104 O 0.55924 0.60299 0.84412 0.0
O105 O 0.49447 0.51671 0.85096 0.0
O106 O 0.48964 0.4363 0.83435 0.0
O107 O 0.53624 0.44572 0.87342 0.0
O108 O 0.60613 0.51215 0.80546 0.0
O109 O 0.59227 0.56205 0.81282 0.0
O110 O 0.65587 0.52541 0.85512 0.0
O111 O 0.71606 0.60664 0.83671 0.0
H112 H 0.60285 0.69922 0.83679 0.0
H113 H 0.58037 0.75048 0.81546 0.0
H114 H 0.75247 0.84277 0.77035 0.0
H115 H 0.77386 0.79011 0.79115 0.0
H116 H 0.55009 0.41527 0.80655 0.0
H117 H 0.5592 0.35343 0.79261 0.0
H118 H 0.46325 0.26495 0.86995 0.0
H119 H 0.45317 0.32679 0.88345 0.0
C120 C 0.63216 0.98149 0.16803 0.0
N121 N 0.6709 1.02084 0.18523 0.0
N122 N 0.59374 0.93728 0.18346 0.0
C123 C 0.62998 0.98609 0.1362 0.0
C124 C 0.61022 0.95147 0.21072 0.0
N125 N 0.65675 1.00191 0.21191 0.0
C126 C 0.57477 0.91722 0.23642 0.0
H127 H 0.59942 0.99406 0.13105 0.0
H128 H 0.61185 0.95024 0.1263 0.0
H129 H 0.67561 1.01742 0.12712 0.0
H130 H 0.53502 0.91466 0.23996 0.0
H131 H 0.60269 0.93193 0.25582 0.0
H132 H 0.55804 0.8787 0.23285 0.0
C133 C 0.67969 0.57059 0.54352 0.0
N134 N 0.67672 0.59252 0.56606 0.0
N135 N 0.6646 0.52592 0.55172 0.0
C136 C 0.69926 0.59363 0.51373 0.0
C137 C 0.65294 0.52165 0.5801 0.0
N138 N 0.66109 0.56248 0.58898 0.0
C139 C 0.63384 0.47748 0.59901 0.0
H140 H 0.66112 0.58814 0.5032 0.0
H141 H 0.71236 0.57595 0.50062 0.0
H142 H 0.73764 0.63481 0.51441 0.0
H143 H 0.67477 0.4844 0.60677 0.0
H144 H 0.60696 0.44217 0.58713 0.0
H145 H 0.60649 0.47211 0.61763 0.0
C146 C 0.10358 0.55807 0.85298 0.0
N147 N 0.13457 0.54718 0.86959 0.0
N148 N 1.05365 0.54758 0.86697 0.0
C149 C 0.12027 0.57694 0.82252 0.0
C150 C 1.05701 0.53085 0.89296 0.0
N151 N 0.10421 0.53066 0.89455 0.0
C152 C 1.01522 0.5169 0.91782 0.0
H153 H 0.1534 0.61879 0.82186 0.0
H154 H 1.07979 0.56462 0.8106 0.0
H155 H 0.14117 0.56311 0.8121 0.0
H156 H 0.9722 0.47788 0.91539 0.0
H157 H 1.00499 0.54262 0.91823 0.0
H158 H 1.03397 0.51793 0.93868 0.0
C159 C 0.18732 0.57451 0.44492 0.0
N160 N 0.15023 0.53756 0.42626 0.0
N161 N 0.2356 0.6173 0.431 0.0
C162 C 0.17494 0.56956 0.47645 0.0
C163 C 0.22655 0.60476 0.40324 0.0
N164 N 0.17431 0.55679 0.40027 0.0
C165 C 0.27211 0.63773 0.37952 0.0
H166 H 0.12558 0.54328 0.48114 0.0
H167 H 0.19626 0.60685 0.48532 0.0
H168 H 0.19427 0.55395 0.48709 0.0
H169 H 0.27007 0.61468 0.36289 0.0
H170 H 0.31869 0.66346 0.38784 0.0
H171 H 0.2623 0.66107 0.36954 0.0
C172 C 0.61581 0.07128 0.76088 0.0
N173 N 0.63255 0.05707 0.73944 0.0
N174 N 0.61321 0.10715 0.75144 0.0
C175 C 0.59958 0.04851 0.79069 0.0
C176 C 0.62849 0.11381 0.72335 0.0
N177 N 0.64 0.08325 0.71607 0.0
C178 C 0.62898 0.14831 0.70288 0.0
H179 H 0.55186 1.01291 0.7913 0.0
H180 H 0.60465 0.07453 0.80613 0.0
H181 H 0.62842 0.03925 0.79708 0.0
H182 H 0.66843 0.18798 0.70732 0.0
H183 H 0.58756 0.14344 0.70619 0.0
H184 H 0.63223 0.1416 0.68031 0.0
C185 C 0.6752 0.5714 0.14122 0.0
N186 N 0.65875 0.55046 0.11533 0.0
N187 N 0.66098 0.60142 0.14415 0.0
C188 C 0.70913 0.56546 0.16268 0.0
C189 C 0.63482 0.59737 0.11896 0.0
N190 N 0.63417 0.56691 0.10156 0.0
C191 C 0.60257 0.61728 0.11257 0.0
H192 H 0.6765 0.53067 0.17606 0.0
H193 H 0.73589 0.59818 0.17673 0.0
H194 H 0.73976 0.56164 0.15169 0.0
H195 H 0.57562 0.6113 0.13153 0.0
H196 H 0.57172 0.59811 0.09436 0.0
H197 H 0.63615 0.65821 0.10698 0.0
H198 H 0.5155 0.68594 0.1764 0.0
H199 H 0.42682 0.56449 0.23993 0.0
H200 H 0.52387 0.58933 0.25331 0.0
H201 H 0.5836 0.68043 0.14349 0.0
H202 H 0.66136 0.7377 0.13906 0.0
H203 H 0.60517 0.7408 0.15026 0.0
H204 H 0.66265 0.78701 0.19493 0.0
H205 H 0.72189 0.78666 0.18379 0.0
H206 H 0.6876 0.76242 0.21883 0.0
H207 H 0.59377 0.58248 0.23549 0.0
H208 H 0.62689 0.55881 0.19742 0.0
H209 H 0.69328 0.69307 0.14811 0.0
C210 C 0.51817 0.66769 0.19463 0.0
C211 C 0.46453 0.62285 0.20656 0.0
C212 C 0.46763 0.59884 0.23032 0.0
C213 C 0.52313 0.61301 0.23813 0.0
C214 C 0.57488 0.65157 0.22219 0.0
C215 C 0.57405 0.68195 0.20251 0.0
C216 C 0.63102 0.71272 0.18389 0.0
C217 C 0.61951 0.71795 0.15231 0.0
C218 C 0.67858 0.76526 0.19611 0.0
C219 C 0.65008 0.6814 0.1886 0.0
C220 C 0.62134 0.64985 0.21282 0.0
C221 C 0.61839 0.60833 0.21733 0.0
C222 C 0.63753 0.59488 0.19543 0.0
C223 C 0.66164 0.6239 0.16965 0.0
C224 C 0.6738 0.67023 0.16762 0.0
H225 H 0.90969 0.24103 0.46699 0.0
H226 H 0.77211 0.24748 0.43799 0.0
H227 H 0.84964 0.33872 0.42909 0.0
H228 H 1.00153 0.36182 0.50263 0.0
H229 H 1.07267 0.37902 0.49213 0.0
H230 H 1.00639 0.31344 0.49697 0.0
H231 H 1.02051 0.29689 0.44556 0.0
H232 H 1.08689 0.36236 0.44064 0.0
H233 H 1.02554 0.33413 0.41608 0.0
H234 H 0.94176 0.42866 0.42006 0.0
H235 H 1.04374 0.51269 0.41383 0.0
H236 H 0.12381 0.45275 0.45071 0.0
C237 C 0.89587 0.26169 0.45894 0.0
C238 C 0.83415 0.2363 0.45323 0.0
C239 C 0.81854 0.26525 0.44263 0.0
C240 C 0.86247 0.31749 0.43744 0.0
C241 C 0.92253 0.34119 0.44306 0.0
C242 C 0.93952 0.31452 0.45376 0.0
C243 C 1.00776 0.34992 0.45766 0.0
C244 C 1.02297 0.35111 0.48923 0.0
C245 C 1.03688 0.33492 0.43887 0.0
C246 C 1.02611 0.40024 0.4473 0.0
C247 C 0.97601 0.39405 0.43883 0.0
C248 C 0.98122 0.43411 0.42701 0.0
C249 C 1.03907 0.48166 0.42359 0.0
C250 C 1.09103 0.48916 0.43223 0.0
C251 C 1.08442 0.44802 0.44454 0.0
H252 H 0.73809 0.90414 0.78872 0.0
H253 H 0.5603 0.76843 0.76585 0.0
H254 H 0.53597 0.8204 0.74656 0.0
H255 H 0.6902 0.96928 0.81259 0.0
H256 H 0.75625 0.03056 0.79928 0.0
H257 H 0.76152 0.98303 0.80904 0.0
H258 H 0.80428 0.99206 0.75854 0.0
H259 H 0.79895 0.03958 0.74861 0.0
H260 H 0.7622 0.98442 0.72761 0.0
H261 H 0.52957 0.88695 0.73122 0.0
H262 H 0.53958 0.96321 0.72411 0.0
H263 H 0.71955 0.05532 0.75818 0.0
C264 C 0.69443 0.88548 0.77921 0.0
C265 C 0.65118 0.83223 0.7786 0.0
C266 C 0.59402 0.80913 0.76659 0.0
C267 C 0.57995 0.83835 0.75543 0.0
C268 C 0.62341 0.89072 0.75653 0.0
C269 C 0.67939 0.91411 0.76827 0.0
C270 C 0.7165 0.97082 0.7685 0.0
C271 C 0.732 0.9895 0.79918 0.0
C272 C 0.77388 0.99834 0.74969 0.0
C273 C 0.67235 0.97561 0.75548 0.0
C274 C 0.61923 0.92899 0.74832 0.0
C275 C 0.5711 0.92362 0.73657 0.0
C276 C 0.57706 0.96687 0.73251 0.0
C277 C 0.63036 1.01452 0.74038 0.0
C278 C 0.67878 1.01908 0.75171 0.0
H279 H 0.7032 0.36249 0.14664 0.0
H280 H 0.81745 0.4282 0.07067 0.0
H281 H 0.75735 0.44862 0.05086 0.0
H282 H 0.55752 0.33537 0.10934 0.0
H283 H 0.54437 0.35288 0.14217 0.0
H284 H 0.56993 0.31734 0.14308 0.0
H285 H 0.659 0.38527 0.17423 0.0
H286 H 0.63564 0.42183 0.17264 0.0
H287 H 0.711 0.44996 0.16084 0.0
H288 H 0.72799 0.49918 0.05105 0.0
H289 H 0.71417 0.55816 0.06661 0.0
H290 H 0.61405 0.4625 0.14136 0.0
C291 C 0.71254 0.3781 0.12505 0.0
C292 C 0.76549 0.39487 0.11054 0.0
C293 C 0.77706 0.41496 0.08229 0.0
C294 C 0.74306 0.42702 0.07084 0.0
C295 C 0.69727 0.418 0.08775 0.0
C296 C 0.67976 0.39165 0.11384 0.0
C297 C 0.64 0.39717 0.1308 0.0
C298 C 0.57403 0.34776 0.13136 0.0
C299 C 0.66291 0.41466 0.16137 0.0
C300 C 0.64705 0.43744 0.11263 0.0
C301 C 0.67786 0.44732 0.08727 0.0
C302 C 0.70092 0.48998 0.06998 0.0
C303 C 0.69328 0.52356 0.07902 0.0
C304 C 0.66244 0.5141 0.10494 0.0
C305 C 0.63732 0.46979 0.12134 0.0
H306 H 0.48169 0.91786 0.43032 0.0
H307 H 0.58037 0.90163 0.49224 0.0
H308 H 0.49802 0.80923 0.49374 0.0
H309 H 0.33063 0.81655 0.4593 0.0
H310 H 0.29695 0.79613 0.42471 0.0
H311 H 0.36234 0.86125 0.42943 0.0
H312 H 0.41928 0.8568 0.38903 0.0
H313 H 0.35403 0.79177 0.38414 0.0
H314 H 0.4263 0.8089 0.39125 0.0
H315 H 0.40461 0.71712 0.48777 0.0
H316 H 0.31169 0.63403 0.47243 0.0
H317 H 0.27438 0.70967 0.41426 0.0
C318 C 0.48583 0.89496 0.44438 0.0
C319 C 0.53772 0.91742 0.46129 0.0
C320 C 0.54132 0.88569 0.47909 0.0
C321 C 0.49455 0.83299 0.48016 0.0
C322 C 0.44415 0.8121 0.46323 0.0
C323 C 0.43968 0.84212 0.44553 0.0
C324 C 0.38192 0.81006 0.42857 0.0
C325 C 0.34052 0.8217 0.43595 0.0
C326 C 0.39626 0.81732 0.39634 0.0
C327 C 0.35479 0.75741 0.43935 0.0
C328 C 0.39108 0.75933 0.45952 0.0
C329 C 0.37579 0.71531 0.47209 0.0
C330 C 0.3228 0.66827 0.46345 0.0
C331 C 0.28581 0.66547 0.44233 0.0
C332 C 0.30185 0.71079 0.43049 0.0
H333 H 0.60947 0.32093 0.80408 0.0
H334 H 0.42671 0.20075 0.83617 0.0
H335 H 0.43449 0.13769 0.82117 0.0
H336 H 0.59829 0.25859 0.74165 0.0
H337 H 0.67489 0.28235 0.74311 0.0
H338 H 0.65607 0.31826 0.75746 0.0
H339 H 0.69948 0.31976 0.80623 0.0
H340 H 0.71845 0.28385 0.79203 0.0
H341 H 0.67145 0.26113 0.82377 0.0
H342 H 0.46067 0.08723 0.80116 0.0
H343 H 0.50373 0.05361 0.77743 0.0
H344 H 0.66889 0.20585 0.75821 0.0
C345 C 0.57091 0.28137 0.80787 0.0
C346 C 0.51747 0.26601 0.82147 0.0
C347 C 0.46849 0.21371 0.82627 0.0
C348 C 0.47234 0.17751 0.81766 0.0
C349 C 0.52549 0.19398 0.80425 0.0
C350 C 0.57394 0.24468 0.79938 0.0
C351 C 0.62554 0.25233 0.7841 0.0
C352 C 0.63949 0.27949 0.75485 0.0
C353 C 0.68207 0.28096 0.80264 0.0
C354 C 0.59832 0.19801 0.78089 0.0
C355 C 0.54063 0.16494 0.79276 0.0
C356 C 0.50596 0.1128 0.79201 0.0
C357 C 0.53077 0.09401 0.77866 0.0
C358 C 0.58962 0.12716 0.76629 0.0
C359 C 0.62377 0.1798 0.76752 0.0
H360 H 0.66972 0.80558 0.50694 0.0
H361 H 0.81517 0.90763 0.56467 0.0
H362 H 0.80903 0.83759 0.58401 0.0
H363 H 0.58371 0.69507 0.55533 0.0
H364 H 0.56242 0.65197 0.52749 0.0
H365 H 0.57592 0.70954 0.51928 0.0
H366 H 0.65534 0.73418 0.48058 0.0
H367 H 0.64217 0.67677 0.48872 0.0
H368 H 0.71757 0.73679 0.49022 0.0
H369 H 0.79095 0.7571 0.59535 0.0
H370 H 0.76123 0.67218 0.59764 0.0
H371 H 0.6274 0.62267 0.53321 0.0
C372 C 0.7003 0.81328 0.52366 0.0
C373 C 0.74273 0.8623 0.53434 0.0
C374 C 0.78151 0.87039 0.55643 0.0
C375 C 0.77863 0.83085 0.56747 0.0
C376 C 0.73663 0.7832 0.55632 0.0
C377 C 0.69801 0.77422 0.53496 0.0
C378 C 0.65806 0.71984 0.52617 0.0
C379 C 0.59106 0.6925 0.53245 0.0
C380 C 0.66896 0.71674 0.49455 0.0
C381 C 0.68084 0.69985 0.54561 0.0
C382 C 0.72604 0.73691 0.56293 0.0
C383 C 0.75523 0.7277 0.58206 0.0
C384 C 0.73805 0.67949 0.58333 0.0
C385 C 0.6921 0.64119 0.56566 0.0
C386 C 0.66291 0.65152 0.5468 0.0
H387 H 0.72923 0.49669 0.86669 0.0
H388 H 0.82884 0.64567 0.82685 0.0
H389 H 0.92122 0.65559 0.82631 0.0
H390 H 0.85347 0.52777 0.91186 0.0
H391 H 0.83631 0.46827 0.90805 0.0
H392 H 0.77708 0.47183 0.90513 0.0
H393 H 0.75068 0.43307 0.85557 0.0
H394 H 0.80982 0.42939 0.85837 0.0
H395 H 0.80892 0.46232 0.8282 0.0
H396 H 1.01013 0.65012 0.83018 0.0
H397 H 1.07786 0.63094 0.83944 0.0
H398 H 0.92574 0.48526 0.87646 0.0
C399 C 0.77026 0.53162 0.85776 0.0
C400 C 0.76876 0.57043 0.84671 0.0
C401 C 0.82571 0.61482 0.83554 0.0
C402 C 0.87967 0.6209 0.83511 0.0
C403 C 0.87946 0.58252 0.84601 0.0
C404 C 0.82575 0.53852 0.85724 0.0
C405 C 0.83831 0.50322 0.86788 0.0
C406 C 0.82549 0.49208 0.90015 0.0
C407 C 0.7996 0.45406 0.85155 0.0
C408 C 0.90675 0.53382 0.86108 0.0
C409 C 0.92959 0.57958 0.84831 0.0
C410 C 0.99152 0.6141 0.84017 0.0
C411 C 1.0305 0.60256 0.84534 0.0
C412 C 1.00992 0.55635 0.85885 0.0
C413 C 0.94563 0.52151 0.86645 0.0
H414 H 0.33642 0.63775 0.16761 0.0
H415 H 0.21208 0.66553 0.15294 0.0
H416 H 0.29661 0.7571 0.15473 0.0
H417 H 0.42756 0.73616 0.21863 0.0
H418 H 0.49752 0.75248 0.20668 0.0
H419 H 0.42718 0.68931 0.20291 0.0
H420 H 0.45018 0.6967 0.14846 0.0
H421 H 0.52028 0.75997 0.15273 0.0
H422 H 0.46585 0.74841 0.12744 0.0
H423 H 0.39424 0.84609 0.15765 0.0
H424 H 0.49712 0.92605 0.16657 0.0
H425 H 0.55965 0.84321 0.18235 0.0
C426 C 0.32712 0.66317 0.16466 0.0
C427 C 0.26725 0.64414 0.15999 0.0
C428 C 0.25717 0.67885 0.15661 0.0
C429 C 0.3051 0.73113 0.15744 0.0
C430 C 0.36335 0.74869 0.16206 0.0
C431 C 0.37462 0.71585 0.16602 0.0
C432 C 0.44127 0.74498 0.17216 0.0
C433 C 0.44883 0.72984 0.20186 0.0
C434 C 0.47118 0.73704 0.14881 0.0
C435 C 0.46545 0.79916 0.17112 0.0
C436 C 0.41968 0.80027 0.16481 0.0
C437 C 0.43039 0.84563 0.16259 0.0
C438 C 0.48894 0.89091 0.16748 0.0
C439 C 0.53626 0.89085 0.1748 0.0
C440 C 0.52433 0.84428 0.17646 0.0
H441 H 0.55165 0.27082 0.48498 0.0
H442 H 0.74023 0.34632 0.46677 0.0
H443 H 0.76968 0.4253 0.4847 0.0
H444 H 0.55931 0.37725 0.46654 0.0
H445 H 0.5084 0.36304 0.4951 0.0
H446 H 0.50161 0.31294 0.47941 0.0
H447 H 0.5117 0.28509 0.52931 0.0
H448 H 0.51846 0.33504 0.54514 0.0
H449 H 0.57635 0.33041 0.55056 0.0
H450 H 0.7795 0.49509 0.50715 0.0
H451 H 0.76801 0.55039 0.53226 0.0
H452 H 0.57396 0.4305 0.53568 0.0
C453 C 0.59916 0.30393 0.48473 0.0
C454 C 0.64353 0.30222 0.47422 0.0
C455 C 0.70518 0.3467 0.47415 0.0
C456 C 0.72245 0.39176 0.48447 0.0
C457 C 0.67763 0.392 0.49478 0.0
C458 C 0.61723 0.3493 0.49494 0.0
C459 C 0.5782 0.35933 0.50794 0.0
C460 C 0.53429 0.35276 0.48593 0.0
C461 C 0.54418 0.32546 0.53483 0.0
C462 C 0.62615 0.41416 0.51535 0.0
C463 C 0.68323 0.43233 0.50752 0.0
C464 C 0.73498 0.48141 0.5131 0.0
C465 C 0.72819 0.51255 0.52724 0.0
C466 C 0.67024 0.49458 0.53551 0.0
C467 C 0.61862 0.44496 0.52928 0.0
H468 H 0.37582 0.49018 0.87168 0.0
H469 H 0.50274 0.63399 0.82592 0.0
H470 H 0.42797 0.6459 0.82649 0.0
H471 H 0.23832 0.45404 0.83582 0.0
H472 H 0.1902 0.42523 0.86731 0.0
H473 H 0.25339 0.42686 0.86377 0.0
H474 H 0.29415 0.47096 0.91168 0.0
H475 H 0.23118 0.46963 0.91528 0.0
H476 H 0.30749 0.52865 0.91664 0.0
H477 H 0.33505 0.64413 0.832 0.0
H478 H 0.24023 0.62834 0.84183 0.0
H479 H 0.16509 0.48467 0.88292 0.0
C480 C 0.38832 0.52428 0.86162 0.0
C481 C 0.44876 0.56151 0.84895 0.0
C482 C 0.45968 0.60487 0.83641 0.0
C483 C 0.41622 0.61198 0.83643 0.0
C484 C 0.35858 0.57559 0.84913 0.0
C485 C 0.34433 0.53226 0.86154 0.0
C486 C 0.27839 0.49928 0.8738 0.0
C487 C 0.23764 0.4483 0.85932 0.0
C488 C 0.27775 0.49164 0.90628 0.0
C489 C 0.25807 0.5304 0.86638 0.0
C490 C 0.3055 0.57445 0.85207 0.0
C491 C 0.29814 0.60934 0.84309 0.0
C492 C 0.24271 0.59972 0.84864 0.0
C493 C 0.19189 0.55503 0.86327 0.0
C494 C 0.2013 0.51995 0.87214 0.0
H495 H 0.99972 0.29704 0.17091 0.0
H496 H 0.9135 0.34352 0.12329 0.0
H497 H 0.81569 0.25683 0.12781 0.0
H498 H 0.90943 0.16893 0.14358 0.0
H499 H 0.90468 0.1407 0.17756 0.0
H500 H 0.96916 0.2056 0.16886 0.0
H501 H 0.94941 0.23255 0.21494 0.0
H502 H 0.88443 0.16781 0.2236 0.0
H503 H 0.87651 0.21511 0.22093 0.0
H504 H 0.72573 0.16571 0.13881 0.0
H505 H 0.65045 0.07603 0.15503 0.0
H506 H 0.79133 0.08647 0.19699 0.0
C507 C 0.96049 0.2885 0.16083 0.0
C508 C 0.96465 0.32708 0.14621 0.0
C509 C 0.9117 0.31469 0.13427 0.0
C510 C 0.85578 0.26545 0.1368 0.0
C511 C 0.85273 0.22852 0.15174 0.0
C512 C 0.90358 0.23927 0.1636 0.0
C513 C 0.88668 0.19279 0.17976 0.0
C514 C 0.91944 0.17601 0.16665 0.0
C515 C 0.90007 0.20268 0.2117 0.0
C516 C 0.81879 0.15441 0.17492 0.0
C517 C 0.80032 0.17598 0.15865 0.0
C518 C 0.73985 0.14841 0.15138 0.0
C519 C 0.69734 0.09742 0.16059 0.0
C520 C 0.71503 0.07411 0.17694 0.0
C521 C 0.77658 0.10336 0.18449 0.0
H522 H 0.16782 0.57933 0.05775 0.0
H523 H 1.08871 0.42319 0.07012 0.0
H524 H 1.0888 0.4158 0.01772 0.0
H525 H 1.08564 0.56399 -0.00158 0.0
H526 H 0.14669 0.62266 0.98038 0.0
H527 H 0.14583 0.61653 0.01863 0.0
H528 H 0.25234 0.6429 0.01625 0.0
H529 H 0.25317 0.6487 0.97787 0.0
H530 H 0.26481 0.60825 0.99463 0.0
H531 H 1.08201 0.42209 0.96382 0.0
H532 H 1.07412 0.44299 0.91394 0.0
H533 H 0.16713 0.59683 0.93606 0.0
C534 C 0.15166 0.54387 0.04943 0.0
C535 C 0.12826 0.5018 0.06804 0.0
C536 C 0.10715 0.45597 0.05631 0.0
C537 C 0.10706 0.45148 0.02654 0.0
C538 C 0.12945 0.49347 0.00872 0.0
C539 C 0.15223 0.53904 0.0198 0.0
C540 C 0.17088 0.57775 0.99614 0.0
C541 C 0.13512 0.59629 -0.00146 0.0
C542 C 0.23938 0.62202 0.99624 0.0
C543 C 0.15316 0.5465 0.96999 0.0
C544 C 0.12933 0.49791 0.97765 0.0
C545 C 0.10265 0.46047 0.95751 0.0
C546 C 0.09887 0.47266 0.92915 0.0
C547 C 0.12289 0.52207 0.92091 0.0
C548 C 0.15163 0.55959 0.94155 0.0
H549 H 0.78082 0.0837 0.36779 0.0
H550 H 0.6237 0.06968 0.38505 0.0
H551 H 0.60301 0.06305 0.33345 0.0
H552 H 0.82491 0.15004 0.29676 0.0
H553 H 0.84308 0.11369 0.28235 0.0
H554 H 0.85239 0.12655 0.31985 0.0
H555 H 0.78309 0.03073 0.33265 0.0
H556 H 0.77429 1.01778 0.29528 0.0
H557 H 0.70849 0.98874 0.31795 0.0
H558 H 0.59574 0.0529 0.28057 0.0
H559 H 0.59195 0.0255 0.23185 0.0
H560 H 0.74697 0.03706 0.24919 0.0
C561 C 0.74295 0.08051 0.36057 0.0
C562 C 0.70478 0.07873 0.38029 0.0
C563 C 0.65426 0.07239 0.37024 0.0
C564 C 0.64231 0.06872 0.34095 0.0
C565 C 0.68069 0.07048 0.32201 0.0
C566 C 0.72939 0.07528 0.33145 0.0
C567 C 0.75835 0.06888 0.30725 0.0
C568 C 0.82356 0.1177 0.3012 0.0
C569 C 0.75587 0.02385 0.31367 0.0
C570 C 0.71749 0.05852 0.28288 0.0
C571 C 0.67418 0.06124 0.2917 0.0
C572 C 0.62977 0.05117 0.27339 0.0
C573 C 0.62814 0.03606 0.24577 0.0
C574 C 0.66977 0.03022 0.2369 0.0
C575 C 0.71582 0.04267 0.25541 0.0
H576 H 0.67629 0.54234 0.75665 0.0
H577 H 0.57093 0.59 0.76425 0.0
H578 H 0.57798 0.60485 0.71182 0.0
H579 H 0.77779 0.63538 0.69813 0.0
H580 H 0.78206 0.5917 0.68147 0.0
H581 H 0.772 0.58845 0.71963 0.0
H582 H 0.67576 0.49438 0.71707 0.0
H583 H 0.68514 0.49746 0.67894 0.0
H584 H 0.61524 0.47715 0.69419 0.0
H585 H 0.58431 0.60215 0.65787 0.0
H586 H 0.59866 0.59072 0.60766 0.0
H587 H 0.711 0.55602 0.6359 0.0
C588 C 0.65565 0.55673 0.74725 0.0
C589 C 0.62278 0.56477 0.76429 0.0
C590 C 0.59641 0.58373 0.75144 0.0
C591 C 0.60012 0.59219 0.72172 0.0
C592 C 0.63177 0.58279 0.70534 0.0
C593 C 0.6603 0.56663 0.71776 0.0
C594 C 0.69078 0.55868 0.69547 0.0
C595 C 0.75975 0.59577 0.69888 0.0
C596 C 0.66518 0.50365 0.69649 0.0
C597 C 0.6729 0.57085 0.6685 0.0
C598 C 0.63868 0.58451 0.67454 0.0
C599 C 0.61234 0.59274 0.65291 0.0
C600 C 0.62082 0.58635 0.62448 0.0
C601 C 0.65589 0.57251 0.61796 0.0
C602 C 0.68344 0.56609 0.6403 0.0
H603 H 0.5724 0.02842 0.55269 0.0
H604 H 0.76489 0.11705 0.53783 0.0
H605 H 0.78005 0.12118 0.59011 0.0
H606 H 0.58505 0.09734 0.6092 0.0
H607 H 0.51981 0.04382 0.62886 0.0
H608 H 0.52379 0.04258 0.59068 0.0
H609 H 0.50744 0.95996 0.59568 0.0
H610 H 0.50358 0.96106 0.63397 0.0
H611 H 0.55742 0.95825 0.61758 0.0
H612 H 0.77435 0.12121 0.64442 0.0
H613 H 0.74873 0.12061 0.69511 0.0
H614 H 0.56102 0.03414 0.67366 0.0
C615 C 0.61767 0.04798 0.56041 0.0
C616 C 0.66746 0.07198 0.54125 0.0
C617 C 0.72606 0.09785 0.55217 0.0
C618 C 0.73502 0.10035 0.58181 0.0
C619 C 0.68488 0.07677 0.60017 0.0
C620 C 0.62734 0.05111 0.5898 0.0
C621 C 0.58155 0.03244 0.6137 0.0
C622 C 0.55078 0.05544 0.6104 0.0
C623 C 0.53474 0.97448 0.61532 0.0
C624 C 0.62235 0.05265 0.63919 0.0
C625 C 0.68171 0.07747 0.63109 0.0
C626 C 0.72793 0.10139 0.65096 0.0
C627 C 0.71319 0.10082 0.6796 0.0
C628 C 0.6531 0.07703 0.68788 0.0
C629 C 0.60709 0.05187 0.6676 0.0
H630 H 0.70646 0.64019 0.93779 0.0
H631 H 0.53884 0.4915 0.91992 0.0
H632 H 0.51801 0.4711 0.97184 0.0
H633 H 0.74672 0.60594 0.00052 0.0
H634 H 0.77547 0.66251 0.01846 0.0
H635 H 0.77813 0.66317 0.98008 0.0
H636 H 0.71922 0.69601 0.97779 0.0
H637 H 0.71562 0.69468 0.01618 0.0
H638 H 0.64705 0.66058 0.99611 0.0
H639 H 0.51842 0.46686 0.02617 0.0
H640 H 0.53789 0.48124 0.07815 0.0
H641 H 0.6986 0.63526 0.05917 0.0
C642 C 0.66572 0.60312 0.9448 0.0
C643 C 0.62461 0.56702 0.92505 0.0
C644 C 0.57116 0.51932 0.9349 0.0
C645 C 0.55893 0.50754 0.96427 0.0
C646 C 0.60014 0.54434 0.98327 0.0
C647 C 0.65219 0.59129 0.97388 0.0
C648 C 0.68792 0.62509 -0.00157 0.0
C649 C 0.75077 0.64003 -0.00058 0.0
C650 C 0.6927 0.67184 0.99703 0.0
C651 C 0.6481 0.58984 0.02318 0.0
C652 C 0.59801 0.54315 0.01414 0.0
C653 C 0.55692 0.5035 0.03346 0.0
C654 C 0.56794 0.51184 0.06274 0.0
C655 C 0.61879 0.55953 0.07205 0.0
C656 C 0.65865 0.59903 0.05215 0.0
H657 H 0.13165 0.53917 0.23266 0.0
H658 H 1.0811 0.39146 0.24171 0.0
H659 H 1.0807 0.39564 0.294 0.0
H660 H 0.23245 0.59384 0.28838 0.0
H661 H 0.21292 0.6302 0.30109 0.0
H662 H 0.20203 0.61358 0.26426 0.0
H663 H 1.08894 0.57129 0.26896 0.0
H664 H 0.0996 0.58818 0.30582 0.0
H665 H 1.04227 0.52328 0.29654 0.0
H666 H 0.10151 0.42088 0.34442 0.0
H667 H 0.1352 0.46373 0.39024 0.0
H668 H 0.16224 0.59126 0.35035 0.0
C669 C 0.11904 0.50728 0.24572 0.0
C670 C 0.10655 0.46504 0.23319 0.0
C671 C 1.09098 0.42425 0.25089 0.0
C672 C 1.09046 0.42617 0.28063 0.0
C673 C 0.10473 0.46886 0.29243 0.0
C674 C 0.11781 0.5084 0.27562 0.0
C675 C 0.13495 0.55103 0.29392 0.0
C676 C 0.1994 0.60004 0.28646 0.0
C677 C 1.08866 0.55889 0.29115 0.0
C678 C 0.1316 0.52993 0.3234 0.0
C679 C 0.11393 0.48242 0.32202 0.0
C680 C 0.11354 0.4574 0.34597 0.0
C681 C 0.13224 0.48178 0.37198 0.0
C682 C 0.15019 0.53031 0.37398 0.0
C683 C 0.14853 0.55407 0.34943 0.0
loop_
_geom_bond_atom_site_label_1
_geom_bond_atom_site_label_2
_geom_bond_distance
_geom_bond_site_symmetry_2
_ccdc_geom_bond_type
La0 C2 2.928 . S
La0 O20 2.521 . S
La0 O21 2.628 . S
La0 O22 2.554 . S
La0 O23 2.757 1_455 S
La0 O24 2.470 . S
La0 O29 2.482 . S
La0 O31 2.503 1_455 S
La1 C11 2.928 . S
La1 O23 2.482 . S
La1 O25 2.503 1_655 S
La1 O26 2.521 . S
La1 O27 2.628 . S
La1 O28 2.554 . S
La1 O29 2.757 1_655 S
La1 O30 2.470 . S
C2 La0 2.928 . S
C2 C3 1.503 . S
C2 O20 1.261 . S
C2 O21 1.243 . S
C3 C2 1.503 . S
C3 C4 1.394 . S
C3 C8 1.373 . S
C4 C3 1.394 . S
C4 C5 1.380 . S
C4 H32 0.930 . S
C5 C4 1.380 . S
C5 C6 1.376 . S
C5 H33 0.930 . S
C6 C5 1.376 . S
C6 C7 1.370 . S
C7 C6 1.370 . S
C7 C8 1.396 . S
C7 H34 0.929 . S
C8 C3 1.373 . S
C8 C7 1.396 . S
C8 H35 0.929 . S
C9 O22 1.266 . S
C9 O23 1.276 1_455 S
C10 O24 1.258 . S
C10 O25 1.256 . S
C11 La1 2.928 . S
C11 C12 1.503 . S
C11 O26 1.261 . S
C11 O27 1.243 . S
C12 C11 1.503 . S
C12 C13 1.394 . S
C12 C17 1.373 . S
C13 C12 1.394 . S
C13 C14 1.380 . S
C13 H36 0.930 . S
C14 C13 1.380 . S
C14 C15 1.376 . S
C14 H37 0.930 . S
C15 C14 1.376 . S
C15 C16 1.370 . S
C16 C15 1.370 . S
C16 C17 1.396 . S
C16 H38 0.929 . S
C17 C12 1.373 . S
C17 C16 1.396 . S
C17 H39 0.929 . S
C18 O28 1.240 1_455 S
C18 O29 1.289 . S
C19 O30 1.258 . S
C19 O31 1.256 . S
O20 La0 2.521 . S
O20 C2 1.261 . S
O21 La0 2.628 . S
O21 C2 1.243 . S
O22 La0 2.554 . S
O22 C9 1.266 . S
O23 La0 2.757 1_655 S
O23 La1 2.482 . S
O23 C9 1.276 1_655 S
O24 La0 2.470 . S
O24 C10 1.258 . S
O25 La1 2.503 1_455 S
O25 C10 1.256 . S
O26 La1 2.521 . S
O26 C11 1.261 . S
O27 La1 2.628 . S
O27 C11 1.243 . S
O28 La1 2.554 . S
O28 C18 1.240 1_655 S
O29 La0 2.482 . S
O29 La1 2.757 1_455 S
O29 C18 1.289 . S
O30 La1 2.470 . S
O30 C19 1.258 . S
O31 La0 2.503 1_655 S
O31 C19 1.256 . S
H32 C4 0.930 . S
H33 C5 0.930 . S
H34 C7 0.929 . S
H35 C8 0.929 . S
H36 C13 0.930 . S
H37 C14 0.930 . S
H38 C16 0.929 . S
H39 C17 0.929 . S
La40 C42 2.928 1_545 S
La40 O60 2.521 1_545 S
La40 O61 2.628 1_545 S
La40 O62 2.554 . S
La40 O63 2.757 . S
La40 O64 2.470 1_545 S
La40 O69 2.482 . S
La40 O71 2.503 . S
La41 C51 2.928 . S
La41 O63 2.482 . S
La41 O65 2.503 1_545 S
La41 O66 2.521 . S
La41 O67 2.628 . S
La41 O68 2.554 . S
La41 O69 2.757 . S
La41 O70 2.470 . S
C42 La40 2.928 1_565 S
C42 C43 1.503 . S
C42 O60 1.261 . S
C42 O61 1.243 . S
C43 C42 1.503 . S
C43 C44 1.394 . S
C43 C48 1.373 . S
C44 C43 1.394 . S
C44 C45 1.380 . S
C44 H72 0.930 . S
C45 C44 1.380 . S
C45 C46 1.376 . S
C45 H73 0.930 . S
C46 C45 1.376 . S
C46 C47 1.370 . S
C47 C46 1.370 . S
C47 C48 1.396 . S
C47 H74 0.929 . S
C48 C43 1.373 . S
C48 C47 1.396 . S
C48 H75 0.929 . S
C49 O62 1.240 . S
C49 O63 1.289 . S
C50 O64 1.258 . S
C50 O65 1.256 . S
C51 La41 2.928 . S
C51 C52 1.503 . S
C51 O66 1.261 . S
C51 O67 1.243 . S
C52 C51 1.503 . S
C52 C53 1.394 . S
C52 C57 1.373 . S
C53 C52 1.394 . S
C53 C54 1.380 . S
C53 H76 0.930 . S
C54 C53 1.380 . S
C54 C55 1.376 . S
C54 H77 0.930 . S
C55 C54 1.376 . S
C55 C56 1.370 . S
C56 C55 1.370 . S
C56 C57 1.396 . S
C56 H78 0.929 . S
C57 C52 1.373 . S
C57 C56 1.396 . S
C57 H79 0.929 . S
C58 O68 1.240 . S
C58 O69 1.289 . S
C59 O70 1.258 . S
C59 O71 1.256 . S
O60 La40 2.521 1_565 S
O60 C42 1.261 . S
O61 La40 2.628 1_565 S
O61 C42 1.243 . S
O62 La40 2.554 . S
O62 C49 1.240 . S
O63 La40 2.757 . S
O63 La41 2.482 . S
O63 C49 1.289 . S
O64 La40 2.470 1_565 S
O64 C50 1.258 . S
O65 La41 2.503 1_565 S
O65 C50 1.256 . S
O66 La41 2.521 . S
O66 C51 1.261 . S
O67 La41 2.628 . S
O67 C51 1.243 . S
O68 La41 2.554 . S
O68 C58 1.240 . S
O69 La40 2.482 . S
O69 La41 2.757 . S
O69 C58 1.289 . S
O70 La41 2.470 . S
O70 C59 1.258 . S
O71 La40 2.503 . S
O71 C59 1.256 . S
H72 C44 0.930 . S
H73 C45 0.930 . S
H74 C47 0.929 . S
H75 C48 0.929 . S
H76 C53 0.930 . S
H77 C54 0.930 . S
H78 C56 0.929 . S
H79 C57 0.929 . S
La80 C82 2.928 . S
La80 O100 2.521 . S
La80 O101 2.628 . S
La80 O102 2.554 . S
La80 O103 2.757 . S
La80 O104 2.470 . S
La80 O109 2.482 . S
La80 O111 2.503 . S
La81 C91 2.928 . S
La81 O103 2.482 . S
La81 O105 2.503 . S
La81 O106 2.521 . S
La81 O107 2.628 . S
La81 O108 2.554 . S
La81 O109 2.757 . S
La81 O110 2.470 . S
C82 La80 2.928 . S
C82 C83 1.503 . S
C82 O100 1.261 . S
C82 O101 1.243 . S
C83 C82 1.503 . S
C83 C84 1.394 . S
C83 C88 1.373 . S
C84 C83 1.394 . S
C84 C85 1.380 . S
C84 H112 0.930 . S
C85 C84 1.380 . S
C85 C86 1.376 . S
C85 H113 0.930 . S
C86 C85 1.376 . S
C86 C87 1.370 . S
C87 C86 1.370 . S
C87 C88 1.396 . S
C87 H114 0.929 . S
C88 C83 1.373 . S
C88 C87 1.396 . S
C88 H115 0.929 . S
C89 O102 1.240 . S
C89 O103 1.289 . S
C90 O104 1.258 . S
C90 O105 1.256 . S
C91 La81 2.928 . S
C91 C92 1.503 . S
C91 O106 1.261 . S
C91 O107 1.243 . S
C92 C91 1.503 . S
C92 C93 1.394 . S
C92 C97 1.373 . S
C93 C92 1.394 . S
C93 C94 1.380 . S
C93 H116 0.930 . S
C94 C93 1.380 . S
C94 C95 1.376 . S
C94 H117 0.930 . S
C95 C94 1.376 . S
C95 C96 1.370 . S
C96 C95 1.370 . S
C96 C97 1.396 . S
C96 H118 0.929 . S
C97 C92 1.373 . S
C97 C96 1.396 . S
C97 H119 0.929 . S
C98 O108 1.240 . S
C98 O109 1.289 . S
C99 O110 1.258 . S
C99 O111 1.256 . S
O100 La80 2.521 . S
O100 C82 1.261 . S
O101 La80 2.628 . S
O101 C82 1.243 . S
O102 La80 2.554 . S
O102 C89 1.240 . S
O103 La80 2.757 . S
O103 La81 2.482 . S
O103 C89 1.289 . S
O104 La80 2.470 . S
O104 C90 1.258 . S
O105 La81 2.503 . S
O105 C90 1.256 . S
O106 La81 2.521 . S
O106 C91 1.261 . S
O107 La81 2.628 . S
O107 C91 1.243 . S
O108 La81 2.554 . S
O108 C98 1.240 . S
O109 La80 2.482 . S
O109 La81 2.757 . S
O109 C98 1.289 . S
O110 La81 2.470 . S
O110 C99 1.258 . S
O111 La80 2.503 . S
O111 C99 1.256 . S
H112 C84 0.930 . S
H113 C85 0.930 . S
H114 C87 0.929 . S
H115 C88 0.929 . S
H116 C93 0.930 . S
H117 C94 0.930 . S
H118 C96 0.929 . S
H119 C97 0.929 . S
C120 N121 1.317 1_565 S
C120 N122 1.348 . S
C120 C123 1.485 1_565 S
N121 C120 1.317 1_545 S
N121 N125 1.370 . S
N122 C120 1.348 . S
N122 C124 1.346 . S
C123 C120 1.485 1_545 S
C123 H127 0.960 . S
C123 H128 0.961 1_545 S
C123 H129 0.960 . S
C124 N122 1.346 . S
C124 N125 1.307 1_565 S
C124 C126 1.486 . S
N125 N121 1.370 . S
N125 C124 1.307 1_545 S
C126 C124 1.486 . S
C126 H130 0.960 . S
C126 H131 0.960 . S
C126 H132 0.959 . S
H127 C123 0.960 . S
H128 C123 0.961 1_565 S
H129 C123 0.960 . S
H130 C126 0.960 . S
H131 C126 0.960 . S
H132 C126 0.959 . S
C133 N134 1.317 . S
C133 N135 1.348 . S
C133 C136 1.485 . S
N134 C133 1.317 . S
N134 N138 1.370 . S
N135 C133 1.348 . S
N135 C137 1.346 . S
C136 C133 1.485 . S
C136 H140 0.960 . S
C136 H141 0.961 . S
C136 H142 0.960 . S
C137 N135 1.346 . S
C137 N138 1.307 . S
C137 C139 1.486 . S
N138 N134 1.370 . S
N138 C137 1.307 . S
C139 C137 1.486 . S
C139 H143 0.960 . S
C139 H144 0.960 . S
C139 H145 0.959 . S
H140 C136 0.960 . S
H141 C136 0.961 . S
H142 C136 0.960 . S
H143 C139 0.960 . S
H144 C139 0.960 . S
H145 C139 0.959 . S
C146 N147 1.317 . S
C146 N148 1.348 . S
C146 C149 1.485 . S
N147 C146 1.317 . S
N147 N151 1.370 . S
N148 C146 1.348 . S
N148 C150 1.346 . S
C149 C146 1.485 . S
C149 H153 0.960 . S
C149 H154 0.961 . S
C149 H155 0.960 . S
C150 N148 1.346 . S
C150 N151 1.307 . S
C150 C152 1.486 1_455 S
N151 N147 1.370 . S
N151 C150 1.307 . S
C152 C150 1.486 1_655 S
C152 H156 0.960 . S
C152 H157 0.960 . S
C152 H158 0.968 . S
H153 C149 0.960 . S
H154 C149 0.961 . S
H155 C149 0.960 . S
H156 C152 0.960 . S
H157 C152 0.960 . S
H158 C152 0.968 . S
C159 N160 1.317 . S
C159 N161 1.348 . S
C159 C162 1.485 . S
N160 C159 1.317 . S
N160 N164 1.370 . S
N161 C159 1.348 . S
N161 C163 1.346 . S
C162 C159 1.485 . S
C162 H166 0.960 . S
C162 H167 0.961 . S
C162 H168 0.960 . S
C163 N161 1.346 . S
C163 N164 1.307 . S
C163 C165 1.486 . S
N164 N160 1.370 . S
N164 C163 1.307 . S
C165 C163 1.486 . S
C165 H169 0.960 . S
C165 H170 0.960 . S
C165 H171 0.959 . S
H166 C162 0.960 . S
H167 C162 0.961 . S
H168 C162 0.960 . S
H169 C165 0.960 . S
H170 C165 0.960 . S
H171 C165 0.959 . S
C172 N173 1.317 . S
C172 N174 1.348 . S
C172 C175 1.485 . S
N173 C172 1.317 . S
N173 N177 1.370 . S
N174 C172 1.348 . S
N174 C176 1.346 . S
C175 C172 1.485 . S
C175 H179 0.960 . S
C175 H180 0.961 . S
C175 H181 0.960 . S
C176 N174 1.346 . S
C176 N177 1.307 . S
C176 C178 1.486 . S
N177 N173 1.370 . S
N177 C176 1.307 . S
C178 C176 1.486 . S
C178 H182 0.960 . S
C178 H183 0.960 . S
C178 H184 0.959 . S
H179 C175 0.960 . S
H180 C175 0.961 . S
H181 C175 0.960 . S
H182 C178 0.960 . S
H183 C178 0.960 . S
H184 C178 0.959 . S
C185 N186 1.317 . S
C185 N187 1.348 . S
C185 C188 1.485 . S
N186 C185 1.317 . S
N186 N190 1.370 . S
N187 C185 1.348 . S
N187 C189 1.346 . S
C188 C185 1.485 . S
C188 H192 0.960 . S
C188 H193 0.961 . S
C188 H194 0.960 . S
C189 N187 1.346 . S
C189 N190 1.307 . S
C189 C191 1.486 . S
N190 N186 1.370 . S
N190 C189 1.307 . S
C191 C189 1.486 . S
C191 H195 0.960 . S
C191 H196 0.960 . S
C191 H197 0.959 . S
H192 C188 0.960 . S
H193 C188 0.961 . S
H194 C188 0.960 . S
H195 C191 0.960 . S
H196 C191 0.960 . S
H197 C191 0.959 . S
H198 C210 0.930 . S
H199 C212 0.930 . S
H200 C213 0.930 . S
H201 C217 0.959 . S
H202 C217 0.959 . S
H203 C217 0.961 . S
H204 C218 0.960 . S
H205 C218 0.961 . S
H206 C218 0.959 . S
H207 C221 0.929 . S
H208 C222 0.931 . S
H209 C224 0.930 . S
C210 H198 0.930 . S
C210 C211 1.399 . S
C210 C215 1.399 . S
C211 C210 1.399 . S
C211 C212 1.376 . S
C212 H199 0.930 . S
C212 C211 1.376 . S
C212 C213 1.388 . S
C213 H200 0.930 . S
C213 C212 1.388 . S
C213 C214 1.390 . S
C214 C213 1.390 . S
C214 C215 1.394 . S
C214 C220 1.465 . S
C215 C210 1.399 . S
C215 C214 1.394 . S
C215 C216 1.516 . S
C216 C215 1.516 . S
C216 C217 1.502 . S
C216 C218 1.561 . S
C216 C219 1.526 . S
C217 H201 0.959 . S
C217 H202 0.959 . S
C217 H203 0.961 . S
C217 C216 1.502 . S
C218 H204 0.960 . S
C218 H205 0.961 . S
C218 H206 0.959 . S
C218 C216 1.561 . S
C219 C216 1.526 . S
C219 C220 1.396 . S
C219 C224 1.390 . S
C220 C214 1.465 . S
C220 C219 1.396 . S
C220 C221 1.399 . S
C221 H207 0.929 . S
C221 C220 1.399 . S
C221 C222 1.385 . S
C222 H208 0.931 . S
C222 C221 1.385 . S
C222 C223 1.389 . S
C223 C222 1.389 . S
C223 C224 1.387 . S
C224 H209 0.930 . S
C224 C219 1.390 . S
C224 C223 1.387 . S
H225 C237 0.930 . S
H226 C239 0.930 . S
H227 C240 0.930 . S
H228 C244 0.959 . S
H229 C244 0.959 . S
H230 C244 0.961 . S
H231 C245 0.960 . S
H232 C245 0.961 . S
H233 C245 0.959 . S
H234 C248 0.929 . S
H235 C249 0.931 . S
H236 C251 0.930 . S
C237 H225 0.930 . S
C237 C238 1.399 . S
C237 C242 1.399 . S
C238 C237 1.399 . S
C238 C239 1.376 . S
C239 H226 0.930 . S
C239 C238 1.376 . S
C239 C240 1.388 . S
C240 H227 0.930 . S
C240 C239 1.388 . S
C240 C241 1.390 . S
C241 C240 1.390 . S
C241 C242 1.394 . S
C241 C247 1.465 . S
C242 C237 1.399 . S
C242 C241 1.394 . S
C242 C243 1.516 . S
C243 C242 1.516 . S
C243 C244 1.502 . S
C243 C245 1.561 . S
C243 C246 1.526 . S
C244 H228 0.959 . S
C244 H229 0.959 . S
C244 H230 0.961 . S
C244 C243 1.502 . S
C245 H231 0.960 . S
C245 H232 0.961 . S
C245 H233 0.959 . S
C245 C243 1.561 . S
C246 C243 1.526 . S
C246 C247 1.396 . S
C246 C251 1.390 . S
C247 C241 1.465 . S
C247 C246 1.396 . S
C247 C248 1.399 . S
C248 H234 0.929 . S
C248 C247 1.399 . S
C248 C249 1.385 . S
C249 H235 0.931 . S
C249 C248 1.385 . S
C249 C250 1.389 . S
C250 C249 1.389 . S
C250 C251 1.387 . S
C251 H236 0.930 . S
C251 C246 1.390 . S
C251 C250 1.387 . S
H252 C264 0.930 . S
H253 C266 0.930 . S
H254 C267 0.930 . S
H255 C271 0.959 1_545 S
H256 C271 0.959 1_545 S
H257 C271 0.961 . S
H258 C272 0.960 . S
H259 C272 0.961 . S
H260 C272 0.959 . S
H261 C275 0.929 . S
H262 C276 0.931 . S
H263 C278 0.930 1_545 S
C264 H252 0.930 . S
C264 C265 1.399 . S
C264 C269 1.399 . S
C265 C264 1.399 . S
C265 C266 1.376 . S
C266 H253 0.930 . S
C266 C265 1.376 . S
C266 C267 1.388 . S
C267 H254 0.930 . S
C267 C266 1.388 . S
C267 C268 1.390 . S
C268 C267 1.390 . S
C268 C269 1.394 . S
C268 C274 1.465 . S
C269 C264 1.399 . S
C269 C268 1.394 . S
C269 C270 1.516 . S
C270 C269 1.516 . S
C270 C271 1.502 . S
C270 C272 1.561 . S
C270 C273 1.526 . S
C271 H255 0.959 1_565 S
C271 H256 0.959 1_565 S
C271 H257 0.961 . S
C271 C270 1.502 . S
C272 H258 0.960 . S
C272 H259 0.961 . S
C272 H260 0.959 . S
C272 C270 1.561 . S
C273 C270 1.526 . S
C273 C274 1.396 . S
C273 C278 1.390 . S
C274 C268 1.465 . S
C274 C273 1.396 . S
C274 C275 1.399 . S
C275 H261 0.929 . S
C275 C274 1.399 . S
C275 C276 1.385 . S
C276 H262 0.931 . S
C276 C275 1.385 . S
C276 C277 1.389 . S
C277 C276 1.389 . S
C277 C278 1.387 . S
C278 H263 0.930 1_565 S
C278 C273 1.390 . S
C278 C277 1.387 . S
H279 C291 0.930 . S
H280 C293 0.930 . S
H281 C294 0.930 . S
H282 C298 0.959 . S
H283 C298 0.959 . S
H284 C298 0.961 . S
H285 C299 0.960 . S
H286 C299 0.961 . S
H287 C299 0.959 . S
H288 C302 0.929 . S
H289 C303 0.931 . S
H290 C305 0.930 . S
C291 H279 0.930 . S
C291 C292 1.399 . S
C291 C296 1.399 . S
C292 C291 1.399 . S
C292 C293 1.376 . S
C293 H280 0.930 . S
C293 C292 1.376 . S
C293 C294 1.388 . S
C294 H281 0.930 . S
C294 C293 1.388 . S
C294 C295 1.390 . S
C295 C294 1.390 . S
C295 C296 1.394 . S
C295 C301 1.465 . S
C296 C291 1.399 . S
C296 C295 1.394 . S
C296 C297 1.516 . S
C297 C296 1.516 . S
C297 C298 1.502 . S
C297 C299 1.561 . S
C297 C300 1.526 . S
C298 H282 0.959 . S
C298 H283 0.959 . S
C298 H284 0.961 . S
C298 C297 1.502 . S
C299 H285 0.960 . S
C299 H286 0.961 . S
C299 H287 0.959 . S
C299 C297 1.561 . S
C300 C297 1.526 . S
C300 C301 1.396 . S
C300 C305 1.390 . S
C301 C295 1.465 . S
C301 C300 1.396 . S
C301 C302 1.399 . S
C302 H288 0.929 . S
C302 C301 1.399 . S
C302 C303 1.385 . S
C303 H289 0.931 . S
C303 C302 1.385 . S
C303 C304 1.389 . S
C304 C303 1.389 . S
C304 C305 1.387 . S
C305 H290 0.930 . S
C305 C300 1.390 . S
C305 C304 1.387 . S
H306 C318 0.930 . S
H307 C320 0.930 . S
H308 C321 0.930 . S
H309 C325 0.959 . S
H310 C325 0.959 . S
H311 C325 0.961 . S
H312 C326 0.960 . S
H313 C326 0.961 . S
H314 C326 0.959 . S
H315 C329 0.929 . S
H316 C330 0.931 . S
H317 C332 0.930 . S
C318 H306 0.930 . S
C318 C319 1.399 . S
C318 C323 1.399 . S
C319 C318 1.399 . S
C319 C320 1.376 . S
C320 H307 0.930 . S
C320 C319 1.376 . S
C320 C321 1.388 . S
C321 H308 0.930 . S
C321 C320 1.388 . S
C321 C322 1.390 . S
C322 C321 1.390 . S
C322 C323 1.394 . S
C322 C328 1.465 . S
C323 C318 1.399 . S
C323 C322 1.394 . S
C323 C324 1.516 . S
C324 C323 1.516 . S
C324 C325 1.502 . S
C324 C326 1.561 . S
C324 C327 1.526 . S
C325 H309 0.959 . S
C325 H310 0.959 . S
C325 H311 0.961 . S
C325 C324 1.502 . S
C326 H312 0.960 . S
C326 H313 0.961 . S
C326 H314 0.959 . S
C326 C324 1.561 . S
C327 C324 1.526 . S
C327 C328 1.396 . S
C327 C332 1.390 . S
C328 C322 1.465 . S
C328 C327 1.396 . S
C328 C329 1.399 . S
C329 H315 0.929 . S
C329 C328 1.399 . S
C329 C330 1.385 . S
C330 H316 0.931 . S
C330 C329 1.385 . S
C330 C331 1.389 . S
C331 C330 1.389 . S
C331 C332 1.387 . S
C332 H317 0.930 . S
C332 C327 1.390 . S
C332 C331 1.387 . S
H333 C345 0.930 . S
H334 C347 0.930 . S
H335 C348 0.930 . S
H336 C352 0.959 . S
H337 C352 0.959 . S
H338 C352 0.961 . S
H339 C353 0.960 . S
H340 C353 0.961 . S
H341 C353 0.959 . S
H342 C356 0.929 . S
H343 C357 0.931 . S
H344 C359 0.930 . S
C345 H333 0.930 . S
C345 C346 1.399 . S
C345 C350 1.399 . S
C346 C345 1.399 . S
C346 C347 1.376 . S
C347 H334 0.930 . S
C347 C346 1.376 . S
C347 C348 1.388 . S
C348 H335 0.930 . S
C348 C347 1.388 . S
C348 C349 1.390 . S
C349 C348 1.390 . S
C349 C350 1.394 . S
C349 C355 1.465 . S
C350 C345 1.399 . S
C350 C349 1.394 . S
C350 C351 1.516 . S
C351 C350 1.516 . S
C351 C352 1.502 . S
C351 C353 1.561 . S
C351 C354 1.526 . S
C352 H336 0.959 . S
C352 H337 0.959 . S
C352 H338 0.961 . S
C352 C351 1.502 . S
C353 H339 0.960 . S
C353 H340 0.961 . S
C353 H341 0.959 . S
C353 C351 1.561 . S
C354 C351 1.526 . S
C354 C355 1.396 . S
C354 C359 1.390 . S
C355 C349 1.465 . S
C355 C354 1.396 . S
C355 C356 1.399 . S
C356 H342 0.929 . S
C356 C355 1.399 . S
C356 C357 1.385 . S
C357 H343 0.931 . S
C357 C356 1.385 . S
C357 C358 1.389 . S
C358 C357 1.389 . S
C358 C359 1.387 . S
C359 H344 0.930 . S
C359 C354 1.390 . S
C359 C358 1.387 . S
H360 C372 0.930 . S
H361 C374 0.930 . S
H362 C375 0.930 . S
H363 C379 0.959 . S
H364 C379 0.959 . S
H365 C379 0.961 . S
H366 C380 0.960 . S
H367 C380 0.961 . S
H368 C380 0.959 . S
H369 C383 0.929 . S
H370 C384 0.931 . S
H371 C386 0.930 . S
C372 H360 0.930 . S
C372 C373 1.399 . S
C372 C377 1.399 . S
C373 C372 1.399 . S
C373 C374 1.376 . S
C374 H361 0.930 . S
C374 C373 1.376 . S
C374 C375 1.388 . S
C375 H362 0.930 . S
C375 C374 1.388 . S
C375 C376 1.390 . S
C376 C375 1.390 . S
C376 C377 1.394 . S
C376 C382 1.465 . S
C377 C372 1.399 . S
C377 C376 1.394 . S
C377 C378 1.516 . S
C378 C377 1.516 . S
C378 C379 1.502 . S
C378 C380 1.561 . S
C378 C381 1.526 . S
C379 H363 0.959 . S
C379 H364 0.959 . S
C379 H365 0.961 . S
C379 C378 1.502 . S
C380 H366 0.960 . S
C380 H367 0.961 . S
C380 H368 0.959 . S
C380 C378 1.561 . S
C381 C378 1.526 . S
C381 C382 1.396 . S
C381 C386 1.390 . S
C382 C376 1.465 . S
C382 C381 1.396 . S
C382 C383 1.399 . S
C383 H369 0.929 . S
C383 C382 1.399 . S
C383 C384 1.385 . S
C384 H370 0.931 . S
C384 C383 1.385 . S
C384 C385 1.389 . S
C385 C384 1.389 . S
C385 C386 1.387 . S
C386 H371 0.930 . S
C386 C381 1.390 . S
C386 C385 1.387 . S
H387 C399 0.930 . S
H388 C401 0.930 . S
H389 C402 0.930 . S
H390 C406 0.959 . S
H391 C406 0.959 . S
H392 C406 0.961 . S
H393 C407 0.960 . S
H394 C407 0.961 . S
H395 C407 0.959 . S
H396 C410 0.929 . S
H397 C411 0.931 . S
H398 C413 0.930 . S
C399 H387 0.930 . S
C399 C400 1.399 . S
C399 C404 1.399 . S
C400 C399 1.399 . S
C400 C401 1.376 . S
C401 H388 0.930 . S
C401 C400 1.376 . S
C401 C402 1.388 . S
C402 H389 0.930 . S
C402 C401 1.388 . S
C402 C403 1.390 . S
C403 C402 1.390 . S
C403 C404 1.394 . S
C403 C409 1.465 . S
C404 C399 1.399 . S
C404 C403 1.394 . S
C404 C405 1.516 . S
C405 C404 1.516 . S
C405 C406 1.502 . S
C405 C407 1.561 . S
C405 C408 1.526 . S
C406 H390 0.959 . S
C406 H391 0.959 . S
C406 H392 0.961 . S
C406 C405 1.502 . S
C407 H393 0.960 . S
C407 H394 0.961 . S
C407 H395 0.959 . S
C407 C405 1.561 . S
C408 C405 1.526 . S
C408 C409 1.396 . S
C408 C413 1.390 . S
C409 C403 1.465 . S
C409 C408 1.396 . S
C409 C410 1.399 . S
C410 H396 0.929 . S
C410 C409 1.399 . S
C410 C411 1.385 . S
C411 H397 0.931 . S
C411 C410 1.385 . S
C411 C412 1.389 . S
C412 C411 1.389 . S
C412 C413 1.387 . S
C413 H398 0.930 . S
C413 C408 1.390 . S
C413 C412 1.387 . S
H414 C426 0.930 . S
H415 C428 0.930 . S
H416 C429 0.930 . S
H417 C433 0.959 . S
H418 C433 0.959 . S
H419 C433 0.961 . S
H420 C434 0.960 . S
H421 C434 0.961 . S
H422 C434 0.959 . S
H423 C437 0.929 . S
H424 C438 0.931 . S
H425 C440 0.930 . S
C426 H414 0.930 . S
C426 C427 1.399 . S
C426 C431 1.399 . S
C427 C426 1.399 . S
C427 C428 1.376 . S
C428 H415 0.930 . S
C428 C427 1.376 . S
C428 C429 1.388 . S
C429 H416 0.930 . S
C429 C428 1.388 . S
C429 C430 1.390 . S
C430 C429 1.390 . S
C430 C431 1.394 . S
C430 C436 1.465 . S
C431 C426 1.399 . S
C431 C430 1.394 . S
C431 C432 1.516 . S
C432 C431 1.516 . S
C432 C433 1.502 . S
C432 C434 1.561 . S
C432 C435 1.526 . S
C433 H417 0.959 . S
C433 H418 0.959 . S
C433 H419 0.961 . S
C433 C432 1.502 . S
C434 H420 0.960 . S
C434 H421 0.961 . S
C434 H422 0.959 . S
C434 C432 1.561 . S
C435 C432 1.526 . S
C435 C436 1.396 . S
C435 C440 1.390 . S
C436 C430 1.465 . S
C436 C435 1.396 . S
C436 C437 1.399 . S
C437 H423 0.929 . S
C437 C436 1.399 . S
C437 C438 1.385 . S
C438 H424 0.931 . S
C438 C437 1.385 . S
C438 C439 1.389 . S
C439 C438 1.389 . S
C439 C440 1.387 . S
C440 H425 0.930 . S
C440 C435 1.390 . S
C440 C439 1.387 . S
H441 C453 0.930 . S
H442 C455 0.930 . S
H443 C456 0.930 . S
H444 C460 0.959 . S
H445 C460 0.959 . S
H446 C460 0.961 . S
H447 C461 0.960 . S
H448 C461 0.961 . S
H449 C461 0.959 . S
H450 C464 0.929 . S
H451 C465 0.931 . S
H452 C467 0.930 . S
C453 H441 0.930 . S
C453 C454 1.399 . S
C453 C458 1.399 . S
C454 C453 1.399 . S
C454 C455 1.376 . S
C455 H442 0.930 . S
C455 C454 1.376 . S
C455 C456 1.388 . S
C456 H443 0.930 . S
C456 C455 1.388 . S
C456 C457 1.390 . S
C457 C456 1.390 . S
C457 C458 1.394 . S
C457 C463 1.465 . S
C458 C453 1.399 . S
C458 C457 1.394 . S
C458 C459 1.516 . S
C459 C458 1.516 . S
C459 C460 1.502 . S
C459 C461 1.561 . S
C459 C462 1.526 . S
C460 H444 0.959 . S
C460 H445 0.959 . S
C460 H446 0.961 . S
C460 C459 1.502 . S
C461 H447 0.960 . S
C461 H448 0.961 . S
C461 H449 0.959 . S
C461 C459 1.561 . S
C462 C459 1.526 . S
C462 C463 1.396 . S
C462 C467 1.390 . S
C463 C457 1.465 . S
C463 C462 1.396 . S
C463 C464 1.399 . S
C464 H450 0.929 . S
C464 C463 1.399 . S
C464 C465 1.385 . S
C465 H451 0.931 . S
C465 C464 1.385 . S
C465 C466 1.389 . S
C466 C465 1.389 . S
C466 C467 1.387 . S
C467 H452 0.930 . S
C467 C462 1.390 . S
C467 C466 1.387 . S
H468 C480 0.930 . S
H469 C482 0.930 . S
H470 C483 0.930 . S
H471 C487 0.959 . S
H472 C487 0.959 . S
H473 C487 0.961 . S
H474 C488 0.960 . S
H475 C488 0.961 . S
H476 C488 0.959 . S
H477 C491 0.929 . S
H478 C492 0.931 . S
H479 C494 0.930 . S
C480 H468 0.930 . S
C480 C481 1.399 . S
C480 C485 1.399 . S
C481 C480 1.399 . S
C481 C482 1.376 . S
C482 H469 0.930 . S
C482 C481 1.376 . S
C482 C483 1.388 . S
C483 H470 0.930 . S
C483 C482 1.388 . S
C483 C484 1.390 . S
C484 C483 1.390 . S
C484 C485 1.394 . S
C484 C490 1.465 . S
C485 C480 1.399 . S
C485 C484 1.394 . S
C485 C486 1.516 . S
C486 C485 1.516 . S
C486 C487 1.502 . S
C486 C488 1.561 . S
C486 C489 1.526 . S
C487 H471 0.959 . S
C487 H472 0.959 . S
C487 H473 0.961 . S
C487 C486 1.502 . S
C488 H474 0.960 . S
C488 H475 0.961 . S
C488 H476 0.959 . S
C488 C486 1.561 . S
C489 C486 1.526 . S
C489 C490 1.396 . S
C489 C494 1.390 . S
C490 C484 1.465 . S
C490 C489 1.396 . S
C490 C491 1.399 . S
C491 H477 0.929 . S
C491 C490 1.399 . S
C491 C492 1.385 . S
C492 H478 0.931 . S
C492 C491 1.385 . S
C492 C493 1.389 . S
C493 C492 1.389 . S
C493 C494 1.387 . S
C494 H479 0.930 . S
C494 C489 1.390 . S
C494 C493 1.387 . S
H495 C507 0.930 . S
H496 C509 0.930 . S
H497 C510 0.930 . S
H498 C514 0.959 . S
H499 C514 0.959 . S
H500 C514 0.961 . S
H501 C515 0.960 . S
H502 C515 0.961 . S
H503 C515 0.959 . S
H504 C518 0.929 . S
H505 C519 0.931 . S
H506 C521 0.930 . S
C507 H495 0.930 . S
C507 C508 1.399 . S
C507 C512 1.399 . S
C508 C507 1.399 . S
C508 C509 1.376 . S
C509 H496 0.930 . S
C509 C508 1.376 . S
C509 C510 1.388 . S
C510 H497 0.930 . S
C510 C509 1.388 . S
C510 C511 1.390 . S
C511 C510 1.390 . S
C511 C512 1.394 . S
C511 C517 1.465 . S
C512 C507 1.399 . S
C512 C511 1.394 . S
C512 C513 1.516 . S
C513 C512 1.516 . S
C513 C514 1.502 . S
C513 C515 1.561 . S
C513 C516 1.526 . S
C514 H498 0.959 . S
C514 H499 0.959 . S
C514 H500 0.961 . S
C514 C513 1.502 . S
C515 H501 0.960 . S
C515 H502 0.961 . S
C515 H503 0.959 . S
C515 C513 1.561 . S
C516 C513 1.526 . S
C516 C517 1.396 . S
C516 C521 1.390 . S
C517 C511 1.465 . S
C517 C516 1.396 . S
C517 C518 1.399 . S
C518 H504 0.929 . S
C518 C517 1.399 . S
C518 C519 1.385 . S
C519 H505 0.931 . S
C519 C518 1.385 . S
C519 C520 1.389 . S
C520 C519 1.389 . S
C520 C521 1.387 . S
C521 H506 0.930 . S
C521 C516 1.390 . S
C521 C520 1.387 . S
H522 C534 0.930 . S
H523 C536 0.930 . S
H524 C537 0.930 . S
H525 C541 0.956 1_656 S
H526 C541 0.949 1_556 S
H527 C541 0.975 . S
H528 C542 0.960 . S
H529 C542 0.961 1_556 S
H530 C542 0.959 . S
H531 C545 0.929 . S
H532 C546 0.931 . S
H533 C548 0.930 . S
C534 H522 0.930 . S
C534 C535 1.399 . S
C534 C539 1.399 . S
C535 C534 1.399 . S
C535 C536 1.376 . S
C536 H523 0.930 . S
C536 C535 1.376 . S
C536 C537 1.388 . S
C537 H524 0.930 . S
C537 C536 1.388 . S
C537 C538 1.390 . S
C538 C537 1.390 . S
C538 C539 1.394 . S
C538 C544 1.465 1_554 S
C539 C534 1.399 . S
C539 C538 1.394 . S
C539 C540 1.516 . S
C540 C539 1.516 . S
C540 C541 1.502 . S
C540 C542 1.561 . S
C540 C543 1.526 1_554 S
C541 H525 0.956 1_454 S
C541 H526 0.949 1_554 S
C541 H527 0.975 . S
C541 C540 1.502 . S
C542 H528 0.960 . S
C542 H529 0.961 1_554 S
C542 H530 0.959 . S
C542 C540 1.561 . S
C543 C540 1.526 1_556 S
C543 C544 1.396 . S
C543 C548 1.390 . S
C544 C538 1.465 1_556 S
C544 C543 1.396 . S
C544 C545 1.399 . S
C545 H531 0.929 . S
C545 C544 1.399 . S
C545 C546 1.385 . S
C546 H532 0.931 . S
C546 C545 1.385 . S
C546 C547 1.389 . S
C547 C546 1.389 . S
C547 C548 1.387 . S
C548 H533 0.930 . S
C548 C543 1.390 . S
C548 C547 1.387 . S
H549 C561 0.906 1_565 S
H550 C563 0.930 . S
H551 C564 0.930 . S
H552 C568 0.959 . S
H553 C568 0.959 . S
H554 C568 0.961 . S
H555 C569 0.960 . S
H556 C569 0.961 . S
H557 C569 0.959 . S
H558 C572 0.929 . S
H559 C573 0.931 . S
H560 C575 0.930 . S
C561 H549 0.906 1_545 S
C561 C562 1.418 . S
C561 C566 1.405 . S
C562 C561 1.418 . S
C562 C563 1.376 . S
C563 H550 0.930 . S
C563 C562 1.376 . S
C563 C564 1.388 . S
C564 H551 0.930 . S
C564 C563 1.388 . S
C564 C565 1.390 . S
C565 C564 1.390 . S
C565 C566 1.394 . S
C565 C571 1.465 . S
C566 C561 1.405 . S
C566 C565 1.394 . S
C566 C567 1.516 1_545 S
C567 C566 1.516 1_565 S
C567 C568 1.502 . S
C567 C569 1.561 . S
C567 C570 1.514 1_565 S
C568 H552 0.959 . S
C568 H553 0.959 . S
C568 H554 0.961 . S
C568 C567 1.502 . S
C569 H555 0.960 . S
C569 H556 0.961 . S
C569 H557 0.959 . S
C569 C567 1.561 . S
C570 C567 1.514 1_545 S
C570 C571 1.414 . S
C570 C575 1.386 1_545 S
C571 C565 1.465 . S
C571 C570 1.414 . S
C571 C572 1.399 . S
C572 H558 0.929 . S
C572 C571 1.399 . S
C572 C573 1.385 . S
C573 H559 0.931 . S
C573 C572 1.385 . S
C573 C574 1.389 . S
C574 C573 1.389 . S
C574 C575 1.387 1_545 S
C575 H560 0.930 . S
C575 C570 1.386 1_565 S
C575 C574 1.387 1_565 S
H576 C588 0.930 . S
H577 C590 0.930 . S
H578 C591 0.930 . S
H579 C595 0.959 . S
H580 C595 0.959 . S
H581 C595 0.961 . S
H582 C596 0.960 . S
H583 C596 0.961 . S
H584 C596 0.959 . S
H585 C599 0.929 . S
H586 C600 0.931 . S
H587 C602 0.930 . S
C588 H576 0.930 . S
C588 C589 1.399 . S
C588 C593 1.399 . S
C589 C588 1.399 . S
C589 C590 1.376 . S
C590 H577 0.930 . S
C590 C589 1.376 . S
C590 C591 1.388 . S
C591 H578 0.930 . S
C591 C590 1.388 . S
C591 C592 1.390 . S
C592 C591 1.390 . S
C592 C593 1.394 . S
C592 C598 1.465 . S
C593 C588 1.399 . S
C593 C592 1.394 . S
C593 C594 1.516 . S
C594 C593 1.516 . S
C594 C595 1.502 . S
C594 C596 1.561 . S
C594 C597 1.526 . S
C595 H579 0.959 . S
C595 H580 0.959 . S
C595 H581 0.961 . S
C595 C594 1.502 . S
C596 H582 0.960 . S
C596 H583 0.961 . S
C596 H584 0.959 . S
C596 C594 1.561 . S
C597 C594 1.526 . S
C597 C598 1.396 . S
C597 C602 1.390 . S
C598 C592 1.465 . S
C598 C597 1.396 . S
C598 C599 1.399 . S
C599 H585 0.929 . S
C599 C598 1.399 . S
C599 C600 1.385 . S
C600 H586 0.931 . S
C600 C599 1.385 . S
C600 C601 1.389 . S
C601 C600 1.389 . S
C601 C602 1.387 . S
C602 H587 0.930 . S
C602 C597 1.390 . S
C602 C601 1.387 . S
H603 C615 0.930 . S
H604 C617 0.930 . S
H605 C618 0.930 . S
H606 C622 0.959 . S
H607 C622 0.959 . S
H608 C622 0.961 . S
H609 C623 0.960 . S
H610 C623 0.961 . S
H611 C623 0.959 . S
H612 C626 0.929 . S
H613 C627 0.931 . S
H614 C629 0.946 . S
C615 H603 0.930 . S
C615 C616 1.399 1_565 S
C615 C620 1.399 1_565 S
C616 C615 1.399 1_545 S
C616 C617 1.376 . S
C617 H604 0.930 . S
C617 C616 1.376 . S
C617 C618 1.388 . S
C618 H605 0.930 . S
C618 C617 1.388 . S
C618 C619 1.390 . S
C619 C618 1.390 . S
C619 C620 1.394 . S
C619 C625 1.465 . S
C620 C615 1.399 1_545 S
C620 C619 1.394 . S
C620 C621 1.516 1_545 S
C621 C620 1.516 1_565 S
C621 C622 1.502 . S
C621 C623 1.561 . S
C621 C624 1.526 1_565 S
C622 H606 0.959 . S
C622 H607 0.959 . S
C622 H608 0.961 . S
C622 C621 1.502 . S
C623 H609 0.960 . S
C623 H610 0.961 . S
C623 H611 0.959 . S
C623 C621 1.561 . S
C624 C621 1.526 1_545 S
C624 C625 1.396 . S
C624 C629 1.391 1_545 S
C625 C619 1.465 . S
C625 C624 1.396 . S
C625 C626 1.399 . S
C626 H612 0.929 . S
C626 C625 1.399 . S
C626 C627 1.385 . S
C627 H613 0.931 . S
C627 C626 1.385 . S
C627 C628 1.389 . S
C628 C627 1.389 . S
C628 C629 1.369 1_545 S
C629 H614 0.946 . S
C629 C624 1.391 1_565 S
C629 C628 1.369 1_565 S
H630 C642 0.930 . S
H631 C644 0.930 . S
H632 C645 0.930 . S
H633 C649 0.959 . S
H634 C649 0.959 1_554 S
H635 C649 0.961 . S
H636 C650 0.960 . S
H637 C650 0.961 1_554 S
H638 C650 0.959 . S
H639 C653 0.913 1_556 S
H640 C654 0.931 . S
H641 C656 0.930 . S
C642 H630 0.930 . S
C642 C643 1.399 . S
C642 C647 1.399 . S
C643 C642 1.399 . S
C643 C644 1.376 . S
C644 H631 0.930 . S
C644 C643 1.376 . S
C644 C645 1.388 . S
C645 H632 0.930 . S
C645 C644 1.388 . S
C645 C646 1.390 . S
C646 C645 1.390 . S
C646 C647 1.394 . S
C646 C652 1.465 . S
C647 C642 1.399 . S
C647 C646 1.394 . S
C647 C648 1.516 . S
C648 C647 1.516 . S
C648 C649 1.502 . S
C648 C650 1.561 . S
C648 C651 1.526 1_556 S
C649 H633 0.959 . S
C649 H634 0.959 1_556 S
C649 H635 0.961 . S
C649 C648 1.502 . S
C650 H636 0.960 . S
C650 H637 0.961 1_556 S
C650 H638 0.959 . S
C650 C648 1.561 . S
C651 C648 1.526 1_554 S
C651 C652 1.396 1_554 S
C651 C656 1.390 . S
C652 C646 1.465 . S
C652 C651 1.396 1_556 S
C652 C653 1.399 1_556 S
C653 H639 0.913 1_554 S
C653 C652 1.399 1_554 S
C653 C654 1.385 . S
C654 H640 0.931 . S
C654 C653 1.385 . S
C654 C655 1.389 . S
C655 C654 1.389 . S
C655 C656 1.387 . S
C656 H641 0.930 . S
C656 C651 1.390 . S
C656 C655 1.387 . S
H657 C669 0.930 . S
H658 C671 0.930 . S
H659 C672 0.930 . S
H660 C676 0.959 . S
H661 C676 0.959 . S
H662 C676 0.961 . S
H663 C677 0.960 . S
H664 C677 0.961 . S
H665 C677 0.959 . S
H666 C680 0.929 . S
H667 C681 0.931 . S
H668 C683 0.930 . S
C669 H657 0.930 . S
C669 C670 1.399 1_655 S
C669 C674 1.399 . S
C670 C669 1.399 1_455 S
C670 C671 1.376 . S
C671 H658 0.930 . S
C671 C670 1.376 . S
C671 C672 1.388 . S
C672 H659 0.930 . S
C672 C671 1.388 . S
C672 C673 1.390 . S
C673 C672 1.390 . S
C673 C674 1.394 1_455 S
C673 C679 1.465 . S
C674 C669 1.399 . S
C674 C673 1.394 1_655 S
C674 C675 1.516 . S
C675 C674 1.516 . S
C675 C676 1.502 . S
C675 C677 1.561 . S
C675 C678 1.526 . S
C676 H660 0.959 . S
C676 H661 0.959 . S
C676 H662 0.961 . S
C676 C675 1.502 . S
C677 H663 0.960 . S
C677 H664 0.961 . S
C677 H665 0.959 . S
C677 C675 1.561 . S
C678 C675 1.526 . S
C678 C679 1.396 1_655 S
C678 C683 1.390 . S
C679 C673 1.465 . S
C679 C678 1.396 1_455 S
C679 C680 1.399 . S
C680 H666 0.929 . S
C680 C679 1.399 . S
C680 C681 1.385 . S
C681 H667 0.931 . S
C681 C680 1.385 . S
C681 C682 1.389 . S
C682 C681 1.389 . S
C682 C683 1.387 1_455 S
C683 H668 0.930 . S
C683 C678 1.390 . S
C683 C682 1.387 1_655 S
C211 C6 0.272 . S
C223 N187 0.428 . S
C238 C59 1.809 . S
C250 N160 1.802 1_655 S
C265 C86 1.151 . S
C277 N173 1.182 1_565 S
C292 C15 0.813 . S
C304 N186 0.665 . S
C331 N161 1.956 . S
C319 C50 1.930 . S
C358 N174 1.363 . S
C346 C95 1.361 . S
C373 C46 1.061 . S
C385 N134 1.075 . S
C400 C99 2.832 . S
C412 N148 2.818 1_655 S
C427 C10 1.944 . S
C439 N122 1.986 . S
C466 N135 1.387 . S
C454 C55 1.373 . S
C493 N147 3.301 . S
C481 C90 3.246 . S
C508 C19 1.811 . S
C520 N121 1.820 . S
C547 N151 1.752 . S
C535 C18 1.749 . S
C562 C49 1.484 . S
C574 N125 1.490 . S
C589 C98 1.434 . S
C601 N138 1.577 . S
C628 N177 1.513 . S
C616 C58 1.465 . S
C655 N190 1.231 . S
C643 C89 1.259 . S
C670 C9 1.384 . S
C682 N164 1.426 . S
