# Generated by pormake.
# Topology zzz, (3,6)-cn, num edge types: 1
# Building blocks:
#     Node 0, Type 0, BuildingBlock: BETDIP_clean_linker_0, # of connection points: 3
#     Node 1, Type 0, BuildingBlock: BETDIP_clean_linker_0, # of connection points: 3
#     Node 2, Type 0, BuildingBlock: BETDIP_clean_linker_0, # of connection points: 3
#     Node 3, Type 0, BuildingBlock: BETDIP_clean_linker_0, # of connection points: 3
#     Node 4, Type 0, BuildingBlock: BETDIP_clean_linker_0, # of connection points: 3
#     Node 5, Type 0, BuildingBlock: BETDIP_clean_linker_0, # of connection points: 3
#     Node 6, Type 0, BuildingBlock: BETDIP_clean_linker_0, # of connection points: 3
#     Node 7, Type 0, BuildingBlock: BETDIP_clean_linker_0, # of connection points: 3
#     Node 8, Type 1, BuildingBlock: KUMJIN_clean_sbu_1, # of connection points: 6
#     Node 9, Type 1, BuildingBlock: KUMJIN_clean_sbu_1, # of connection points: 6
#     Node 10, Type 1, BuildingBlock: KUMJIN_clean_sbu_1, # of connection points: 6
#     Node 11, Type 1, BuildingBlock: KUMJIN_clean_sbu_1, # of connection points: 6
#     Edge 12, Type (0, 1), BuildingBlock: XIVTED_clean_linker_0, # of connection points: 2
#     Edge 13, Type (0, 1), BuildingBlock: XIVTED_clean_linker_0, # of connection points: 2
#     Edge 14, Type (0, 1), BuildingBlock: XIVTED_clean_linker_0, # of connection points: 2
#     Edge 15, Type (0, 1), BuildingBlock: XIVTED_clean_linker_0, # of connection points: 2
#     Edge 16, Type (0, 1), BuildingBlock: XIVTED_clean_linker_0, # of connection points: 2
#     Edge 17, Type (0, 1), BuildingBlock: XIVTED_clean_linker_0, # of connection points: 2
#     Edge 18, Type (0, 1), BuildingBlock: XIVTED_clean_linker_0, # of connection points: 2
#     Edge 19, Type (0, 1), BuildingBlock: XIVTED_clean_linker_0, # of connection points: 2
#     Edge 20, Type (0, 1), BuildingBlock: XIVTED_clean_linker_0, # of connection points: 2
#     Edge 21, Type (0, 1), BuildingBlock: XIVTED_clean_linker_0, # of connection points: 2
#     Edge 22, Type (0, 1), BuildingBlock: XIVTED_clean_linker_0, # of connection points: 2
#     Edge 23, Type (0, 1), BuildingBlock: XIVTED_clean_linker_0, # of connection points: 2
#     Edge 24, Type (0, 1), BuildingBlock: XIVTED_clean_linker_0, # of connection points: 2
#     Edge 25, Type (0, 1), BuildingBlock: XIVTED_clean_linker_0, # of connection points: 2
#     Edge 26, Type (0, 1), BuildingBlock: XIVTED_clean_linker_0, # of connection points: 2
#     Edge 27, Type (0, 1), BuildingBlock: XIVTED_clean_linker_0, # of connection points: 2
#     Edge 28, Type (0, 1), BuildingBlock: XIVTED_clean_linker_0, # of connection points: 2
#     Edge 29, Type (0, 1), BuildingBlock: XIVTED_clean_linker_0, # of connection points: 2
#     Edge 30, Type (0, 1), BuildingBlock: XIVTED_clean_linker_0, # of connection points: 2
#     Edge 31, Type (0, 1), BuildingBlock: XIVTED_clean_linker_0, # of connection points: 2
#     Edge 32, Type (0, 1), BuildingBlock: XIVTED_clean_linker_0, # of connection points: 2
#     Edge 33, Type (0, 1), BuildingBlock: XIVTED_clean_linker_0, # of connection points: 2
#     Edge 34, Type (0, 1), BuildingBlock: XIVTED_clean_linker_0, # of connection points: 2
#     Edge 35, Type (0, 1), BuildingBlock: XIVTED_clean_linker_0, # of connection points: 2
# Relax obj value: 0.181
# Max RMSD: 0.103
# Mean RMSD: 0.080
data_MOF--net-zzz--node1-KUMJIN_clean_sbu_1--node2-BETDIP_clean_linker_0--edge1-XIVTED_clean_linker_0
_symmetry_space_group_name_H-M    P1
_symmetry_Int_Tables_number       1
_symmetry_cell_setting            triclinic
loop_
_symmetry_equiv_pos_as_xyz
'x, y, z'
_cell_length_a     50.007208
_cell_length_b     50.342641
_cell_length_c     15.660347
_cell_angle_alpha  89.93002
_cell_angle_beta   90.384672
_cell_angle_gamma 90.161798
loop_
_atom_site_label
_atom_site_type_symbol
_atom_site_fract_x
_atom_site_fract_y
_atom_site_fract_z
_atom_type_partial_charge
H0 H 0.76612 0.52113 0.36343 0.0
H1 H 0.75374 0.58357 0.17778 0.0
H2 H 0.82807 0.57831 0.3147 0.0
H3 H 0.71062 0.5806 0.24291 0.0
C4 C 0.70852 0.55978 0.22553 0.0
C5 C 0.77302 0.53882 0.33084 0.0
C6 C 0.79903 0.54902 0.34833 0.0
C7 C 0.75591 0.55195 0.27123 0.0
C8 C 0.76578 0.57434 0.22723 0.0
C9 C 0.7917 0.58398 0.24218 0.0
C10 C 0.80767 0.57159 0.30436 0.0
N11 N 0.72956 0.5421 0.25125 0.0
H12 H 0.02153 0.77249 0.38854 0.0
H13 H 1.00012 0.75928 0.12475 0.0
H14 H 1.00579 0.83877 0.22199 0.0
H15 H 0.97421 0.72063 0.23442 0.0
C16 C 0.99537 0.7159 0.23085 0.0
C17 C 1.01543 0.78022 0.32688 0.0
C18 C 1.01329 0.80806 0.31435 0.0
C19 C 1.01013 0.76245 0.25829 0.0
C20 C 1.00316 0.77274 0.17793 0.0
C21 C 1.00185 0.80016 0.16408 0.0
C22 C 1.00633 0.81749 0.23284 0.0
N23 N 1.01404 0.73444 0.26658 0.0
H24 H 0.78431 0.03155 0.33956 0.0
H25 H 0.79053 0.96928 0.15078 0.0
H26 H 0.7201 0.97568 0.30371 0.0
H27 H 0.8355 0.97042 0.21363 0.0
C28 C 0.83814 0.99129 0.19768 0.0
C29 C 0.77624 1.01404 0.30853 0.0
C30 C 0.75045 1.00461 0.33048 0.0
C31 C 0.79154 1.00054 0.24601 0.0
C32 C 0.78001 0.97867 0.20287 0.0
C33 C 0.75443 0.96949 0.22417 0.0
C34 C 0.74029 0.98217 0.28916 0.0
N35 N 0.81782 1.00952 0.22357 0.0
H36 H 0.54269 0.77296 0.31604 0.0
H37 H 0.49726 0.78394 0.083 0.0
H38 H 0.48169 0.7167 0.2426 0.0
H39 H 0.54964 0.79478 0.05431 0.0
C40 C 0.54447 0.81148 0.09491 0.0
C41 C 0.52695 0.76664 0.27274 0.0
C42 C 0.51243 0.74297 0.28964 0.0
C43 C 0.52132 0.78178 0.19807 0.0
C44 C 0.50141 0.77289 0.14101 0.0
C45 C 0.48677 0.74984 0.15821 0.0
C46 C 0.49221 0.73531 0.23235 0.0
N47 N 0.53538 0.80585 0.17944 0.0
H48 H 0.28657 0.50283 0.96475 0.0
H49 H 0.29893 0.5214 0.23129 0.0
H50 H 0.21944 0.51958 0.1269 0.0
H51 H 0.33836 0.54836 0.11876 0.0
C52 C 0.34304 0.52741 0.12609 0.0
C53 C 0.27861 0.50815 0.0265 0.0
C54 C 0.25051 0.51109 0.03695 0.0
C55 C 0.29631 0.51228 0.09711 0.0
C56 C 0.28566 0.51887 0.17686 0.0
C57 C 0.25808 0.52082 0.18812 0.0
C58 C 0.24082 0.51726 0.11819 0.0
N59 N 0.32459 0.50847 0.09099 0.0
H60 H 0.04246 0.28392 0.99486 0.0
H61 H 0.06243 0.30362 0.25519 0.0
H62 H 0.06904 0.22307 0.16961 0.0
H63 H 1.00978 0.32206 0.19908 0.0
C64 C 0.02527 0.33524 0.17492 0.0
C65 C 0.04974 0.27794 0.05723 0.0
C66 C 0.0568 0.25097 0.07268 0.0
C67 C 0.05164 0.29701 0.12406 0.0
C68 C 0.06086 0.28903 0.20456 0.0
C69 C 0.06699 0.26253 0.22178 0.0
C70 C 0.06528 0.24381 0.15548 0.0
N71 N 0.04313 0.32394 0.11393 0.0
H72 H 0.27143 0.03406 0.01838 0.0
H73 H 0.27151 0.08698 0.23533 0.0
H74 H 0.33792 0.08648 0.06359 0.0
H75 H 0.25604 0.04292 0.28794 0.0
C76 C 0.2385 0.04455 0.2468 0.0
C77 C 0.28057 0.05005 0.05448 0.0
C78 C 0.30592 0.06014 0.03013 0.0
C79 C 0.26775 0.05996 0.1286 0.0
C80 C 0.28067 0.07976 0.17734 0.0
C81 C 0.30594 0.0894 0.15457 0.0
C82 C 0.31782 0.08009 0.07959 0.0
N83 N 0.24285 0.04914 0.1577 0.0
H84 H 0.50829 0.26288 0.98668 0.0
H85 H 0.53519 0.26607 0.24935 0.0
H86 H 0.53108 0.33746 0.10058 0.0
H87 H 0.55969 0.22564 0.16582 0.0
C88 C 0.53942 0.21784 0.16978 0.0
C89 C 0.51517 0.27417 0.04143 0.0
C90 C 0.51897 0.30205 0.03454 0.0
C91 C 0.52136 0.26094 0.1194 0.0
C92 C 0.53065 0.27589 0.18936 0.0
C93 C 0.53365 0.30341 0.18314 0.0
C94 C 0.52788 0.31618 0.10599 0.0
N95 N 0.51869 0.23278 0.12879 0.0
Eu96 Eu 1.00255 0.03907 0.6107 0.0
C97 C 0.08309 0.02388 0.95752 0.0
N98 N 0.08651 0.03133 0.87527 0.0
C99 C 0.1216 0.06121 0.91755 0.0
C100 C 0.09825 0.03545 0.02404 0.0
C101 C 0.10603 0.04906 0.85398 0.0
C102 C 0.11744 0.05465 1.00318 0.0
C103 C 0.06245 0.99382 0.05816 0.0
C104 C 0.06561 1.00339 0.97411 0.0
C105 C 0.07644 1.00611 0.12557 0.0
C106 C 0.09437 0.02688 0.1085 0.0
Eu107 Eu 0.05877 1.0115 0.77026 0.0
N108 N 0.05298 0.99174 0.90712 0.0
C109 C 0.04597 0.97171 0.07145 0.0
C110 C 0.03799 0.96932 0.9193 0.0
C111 C 0.03396 0.95921 1.00147 0.0
H112 H 0.10908 0.05433 0.78796 0.0
H113 H 0.02163 0.94174 1.01068 0.0
H114 H 0.94592 0.04296 0.72922 0.0
H115 H 1.01092 0.98588 0.30915 0.0
H116 H 0.02863 0.95939 0.86579 0.0
H117 H 0.04296 0.96376 0.135 0.0
H118 H 0.0201 0.02193 0.41311 0.0
H119 H 0.1367 0.07568 0.90048 0.0
H120 H 0.07409 0.99922 0.1907 0.0
H121 H 0.10559 0.03571 0.16068 0.0
H122 H 0.90769 1.0142 0.7669 0.0
H123 H 0.12956 0.064 0.05234 0.0
H124 H 0.97693 0.95153 0.34194 0.0
N125 N 0.96245 1.01531 0.64178 0.0
C126 C 0.95716 0.99372 0.5926 0.0
C127 C 0.92178 1.00785 0.71891 0.0
C128 C 0.93502 0.97711 0.60902 0.0
C129 C 0.94381 0.02382 0.69885 0.0
C130 C 0.9178 0.98394 0.67549 0.0
N131 N 0.99186 1.00772 0.50314 0.0
C132 C 1.00503 1.00714 0.42703 0.0
C133 C 0.96632 0.96906 0.46331 0.0
C134 C 0.97224 0.98995 0.52024 0.0
C135 C 0.98082 0.96733 0.38733 0.0
C136 C 0.99996 0.98673 0.36845 0.0
H137 H 0.90055 0.97175 0.69027 0.0
H138 H 0.91333 0.94196 0.56806 0.0
H139 H 0.94101 0.93472 0.44068 0.0
O140 O 1.0081 0.0711 0.5193 0.0
O141 O 0.02614 1.00097 0.58911 0.0
O142 O 0.02686 0.98298 0.72039 0.0
O143 O 0.96817 0.06068 0.55836 0.0
O144 O 0.04439 0.03752 0.55448 0.0
O145 O 0.06975 0.04403 0.67478 0.0
O146 O 0.09364 0.98585 0.7853 0.0
O147 O 0.05327 0.05653 0.78794 0.0
O148 O 1.01698 0.07124 0.70548 0.0
O149 O 0.07805 0.99353 0.65922 0.0
O150 O 1.01503 1.0042 0.80337 0.0
O151 O 0.99409 0.0415 0.75406 0.0
C152 C 0.02374 0.97995 0.638 0.0
C153 C 0.97784 0.10625 0.54202 0.0
C154 C 0.99486 0.15047 0.57803 0.0
C155 C 0.96856 0.16034 0.5709 0.0
C156 C 0.95193 0.11652 0.53463 0.0
C157 C 0.94727 0.14335 0.5509 0.0
C158 C 0.99883 0.12303 0.56814 0.0
C159 C 0.06755 0.04273 0.59103 0.0
C160 C 0.98312 0.07824 0.52086 0.0
C161 C 0.92997 0.95521 0.55565 0.0
C162 C 0.94565 0.95115 0.48292 0.0
C163 C 0.0363 0.0753 0.76274 0.0
C164 C 0.09404 0.95085 0.68609 0.0
C165 C 0.07472 0.9071 0.71402 0.0
C166 C 0.09212 0.89613 0.6533 0.0
C167 C 0.11124 0.93972 0.62587 0.0
C168 C 0.07549 0.93467 0.7276 0.0
C169 C 0.11008 0.91244 0.6091 0.0
C170 C 0.99648 0.02243 0.81106 0.0
C171 C 0.09448 0.9794 0.70469 0.0
H172 H 0.96437 0.18133 0.57631 0.0
H173 H 0.93537 0.10385 0.51569 0.0
H174 H 0.92724 0.15125 0.54454 0.0
H175 H 0.01857 0.11477 0.57772 0.0
H176 H 0.0924 0.87497 0.64124 0.0
H177 H 0.12543 0.95207 0.59197 0.0
H178 H 0.06154 0.94387 0.77066 0.0
H179 H 0.12344 0.90383 0.56268 0.0
Eu180 Eu 0.5392 0.04445 0.78662 0.0
C181 C 0.51382 0.94266 0.60434 0.0
N182 N 0.53106 0.96199 0.57944 0.0
C183 C 0.56501 0.92956 0.55341 0.0
C184 C 0.52207 0.91595 0.60916 0.0
C185 C 0.55598 0.95582 0.55049 0.0
C186 C 0.54812 0.90958 0.58418 0.0
C187 C 0.46909 0.92991 0.64666 0.0
C188 C 0.4877 0.94963 0.62272 0.0
C189 C 0.47754 0.90346 0.65604 0.0
C190 C 0.50396 0.89648 0.63712 0.0
Eu191 Eu 0.51479 1.00594 0.57863 0.0
N192 N 0.48008 0.97533 0.61178 0.0
C193 C 0.44235 0.93719 0.65742 0.0
C194 C 0.45362 0.98194 0.6146 0.0
C195 C 0.4345 0.96321 0.63962 0.0
H196 H 0.56903 0.97137 0.52739 0.0
H197 H 0.41366 0.96878 0.64397 0.0
H198 H 0.48656 0.0486 0.91989 0.0
H199 H 0.60789 0.12383 0.69717 0.0
H200 H 0.44699 1.00157 0.59677 0.0
H201 H 0.42744 0.92265 0.6759 0.0
H202 H 0.59349 0.07732 0.72256 0.0
H203 H 0.58499 0.92476 0.53243 0.0
H204 H 0.46359 0.88811 0.67537 0.0
H205 H 0.51001 0.87589 0.64245 0.0
H206 H 0.45525 0.08265 0.97174 0.0
H207 H 0.55521 0.88928 0.58683 0.0
H208 H 0.57721 0.16089 0.73042 0.0
N209 N 0.50975 0.07594 0.84745 0.0
C210 C 0.51499 0.10189 0.83098 0.0
C211 C 0.47175 0.08832 0.93113 0.0
C212 C 0.49811 0.12215 0.86127 0.0
C213 C 0.48929 0.06902 0.90046 0.0
C214 C 0.47588 0.11498 0.91017 0.0
N215 N 0.55501 0.08826 0.76677 0.0
C216 C 0.58014 0.0935 0.73737 0.0
C217 C 0.54581 0.13503 0.77692 0.0
C218 C 0.53849 0.10828 0.78971 0.0
C219 C 0.57084 0.14059 0.74138 0.0
C220 C 0.58826 0.11973 0.72279 0.0
H221 H 0.46244 0.12994 0.93478 0.0
H222 H 0.49169 0.16469 0.86679 0.0
H223 H 0.53348 0.17598 0.79265 0.0
O224 O 0.57543 0.02836 0.84431 0.0
O225 O 0.53991 0.06654 0.6585 0.0
O226 O 0.50341 0.04949 0.58957 0.0
O227 O 0.5476 0.0498 0.923 0.0
O228 O 0.57312 0.02746 0.70522 0.0
O229 O 0.5564 0.02381 0.56737 0.0
O230 O 0.49231 0.99622 0.46262 0.0
O231 O 0.53912 0.98545 0.68525 0.0
O232 O 0.51995 1.0041 0.80004 0.0
O233 O 0.53217 1.01224 0.45276 0.0
O234 O 0.48213 0.02962 0.64814 0.0
O235 O 0.49712 0.02631 0.78645 0.0
C236 C 0.52113 0.06851 0.59963 0.0
C237 C 0.56709 1.01033 0.97925 0.0
C238 C 0.5886 0.96946 0.02876 0.0
C239 C 0.56493 0.96242 0.07135 0.0
C240 C 0.54362 1.00291 0.02216 0.0
C241 C 0.54272 0.9792 0.06859 0.0
C242 C 0.58948 0.99368 0.98382 0.0
C243 C 0.57649 0.02598 0.62175 0.0
C244 C 0.56787 0.0336 0.92178 0.0
C245 C 0.50455 0.14885 0.8448 0.0
C246 C 0.52836 0.15528 0.80266 0.0
C247 C 0.53083 0.98344 0.76435 0.0
C248 C 0.50155 0.02506 0.34746 0.0
C249 C 0.47273 0.06199 0.30519 0.0
C250 C 0.48489 0.06191 0.2242 0.0
C251 C 0.51339 0.02534 0.26671 0.0
C252 C 0.4818 0.04377 0.36713 0.0
C253 C 0.50523 0.04388 0.20566 0.0
C254 C 0.47749 0.02967 0.73103 0.0
C255 C 0.51047 1.00576 0.41178 0.0
H256 H 0.56349 0.9439 0.10624 0.0
H257 H 0.5258 1.01502 0.01823 0.0
H258 H 0.52453 0.97354 0.10106 0.0
H259 H 0.60766 0.99978 0.95191 0.0
H260 H 0.47819 0.07509 0.17385 0.0
H261 H 0.52894 1.01125 0.25098 0.0
H262 H 0.47338 0.04383 0.43066 0.0
H263 H 0.51433 0.04399 0.14318 0.0
Eu264 Eu 0.55965 0.51675 0.60674 0.0
C265 C 0.51196 0.54453 0.94079 0.0
N266 N 0.50427 0.52317 0.89348 0.0
C267 C 0.5072 0.49507 0.01686 0.0
C268 C 0.51834 0.54172 0.0282 0.0
C269 C 0.50141 0.49872 0.93015 0.0
C270 C 0.51583 0.51662 0.06601 0.0
C271 C 0.52194 0.59163 0.94866 0.0
C272 C 0.51398 0.56914 0.90095 0.0
C273 C 0.52887 0.5888 0.03528 0.0
C274 C 0.52706 0.56392 0.07495 0.0
Eu275 Eu 0.49605 0.53069 0.74666 0.0
N276 N 0.50725 0.57129 0.81673 0.0
C277 C 0.522 0.61647 0.90854 0.0
C278 C 0.50428 0.59587 0.78099 0.0
C279 C 0.51257 0.61866 0.82484 0.0
H280 H 0.49486 0.48201 0.89216 0.0
H281 H 0.51083 0.63799 0.79501 0.0
H282 H 0.59335 0.57028 0.54027 0.0
H283 H 0.52441 0.43007 0.4252 0.0
H284 H 0.49467 0.59831 0.71992 0.0
H285 H 0.52796 0.63421 0.94292 0.0
H286 H 0.53271 0.45652 0.55399 0.0
H287 H 0.50509 0.47563 0.04566 0.0
H288 H 0.53521 0.60583 0.07256 0.0
H289 H 0.53225 0.56209 0.14201 0.0
H290 H 0.60808 0.59041 0.40405 0.0
H291 H 0.52035 0.51373 0.13311 0.0
H292 H 0.53785 0.44724 0.28396 0.0
N293 N 0.57595 0.53651 0.4809 0.0
C294 C 0.57153 0.52298 0.40713 0.0
C295 C 0.59769 0.57152 0.40395 0.0
C296 C 0.57998 0.53346 0.3281 0.0
C297 C 0.58906 0.5603 0.48073 0.0
C298 C 0.59304 0.5581 0.32722 0.0
N299 N 0.55072 0.48886 0.48767 0.0
C300 C 0.5388 0.46446 0.49345 0.0
C301 C 0.55429 0.4838 0.33494 0.0
C302 C 0.5588 0.49841 0.4106 0.0
C303 C 0.54163 0.45906 0.34056 0.0
C304 C 0.53398 0.44932 0.42018 0.0
H305 H 0.59984 0.5668 0.26783 0.0
H306 H 0.58161 0.52681 0.19145 0.0
H307 H 0.55924 0.4833 0.19753 0.0
O308 O 0.58648 0.49417 0.68924 0.0
O309 O 0.55074 0.56056 0.62664 0.0
O310 O 0.50488 0.56 0.63683 0.0
O311 O 0.60256 0.51534 0.5809 0.0
O312 O 0.52035 0.51894 0.53012 0.0
O313 O 0.48799 0.50658 0.62621 0.0
O314 O 0.45799 0.5505 0.72417 0.0
O315 O 0.50013 0.48651 0.7267 0.0
O316 O 0.54399 0.48061 0.68207 0.0
O317 O 0.45938 0.51709 0.80961 0.0
O318 O 0.53701 0.52095 0.807 0.0
O319 O 0.56176 0.5453 0.7174 0.0
C320 C 0.52732 0.5717 0.61254 0.0
C321 C 0.62397 0.47604 0.62349 0.0
C322 C 0.62772 0.43305 0.55434 0.0
C323 C 0.65374 0.43036 0.58754 0.0
C324 C 0.65001 0.47344 0.65587 0.0
C325 C 0.66483 0.45059 0.63794 0.0
C326 C 0.61296 0.45587 0.5734 0.0
C327 C 0.49561 0.51168 0.54769 0.0
C328 C 0.60771 0.49921 0.64396 0.0
C329 C 0.57532 0.51904 0.25273 0.0
C330 C 0.56258 0.49426 0.2562 0.0
C331 C 0.52146 0.47162 0.71578 0.0
C332 C 0.42778 0.55049 0.83987 0.0
C333 C 0.41549 0.59151 0.91302 0.0
C334 C 0.39594 0.57734 0.95867 0.0
C335 C 0.40823 0.5367 0.88601 0.0
C336 C 0.4309 0.57788 0.85245 0.0
C337 C 0.39227 0.55015 0.9446 0.0
C338 C 0.55845 0.53537 0.79358 0.0
C339 C 0.44483 0.53619 0.77898 0.0
H340 H 0.66553 0.4129 0.57365 0.0
H341 H 0.65874 0.4889 0.69533 0.0
H342 H 0.68493 0.44855 0.66312 0.0
H343 H 0.5926 0.45783 0.55037 0.0
H344 H 0.38391 0.58703 1.0066 0.0
H345 H 0.40535 0.51556 0.87679 0.0
H346 H 0.44549 0.58862 0.81497 0.0
H347 H 0.37724 0.53936 0.98002 0.0
Eu348 Eu 0.0309 0.55619 0.62045 0.0
C349 C 0.03162 0.44261 0.84509 0.0
N350 N 1.01526 0.45275 0.78388 0.0
C351 C 1.00526 0.40896 0.733 0.0
C352 C 0.03589 0.41501 0.85168 0.0
C353 C 1.00141 0.43646 0.72984 0.0
C354 C 0.02282 0.3982 0.79357 0.0
C355 C 0.05785 0.44977 0.97381 0.0
C356 C 0.04255 0.45975 0.90501 0.0
C357 C 0.06319 0.42242 0.97859 0.0
C358 C 0.05225 0.40507 0.91761 0.0
Eu359 Eu 1.01061 0.49926 0.78042 0.0
N360 N 0.03669 0.48599 0.89924 0.0
C361 C 0.06647 0.46745 0.03733 0.0
C362 C 0.0436 0.50304 0.96355 0.0
C363 C 0.05898 0.49414 0.03276 0.0
H364 H 0.98768 0.4448 0.68344 0.0
H365 H 0.06491 0.50782 0.08273 0.0
H366 H 0.99199 0.59798 0.73145 0.0
H367 H 0.02981 0.53557 0.2775 0.0
H368 H 0.03759 0.52362 0.96054 0.0
H369 H 0.0782 0.46055 0.09136 0.0
H370 H 0.04923 0.53726 0.42294 0.0
H371 H 0.99464 0.39609 0.68896 0.0
H372 H 0.07514 0.41441 0.03047 0.0
H373 H 0.05592 0.38394 0.92345 0.0
H374 H 0.95018 0.6234 0.71053 0.0
H375 H 0.02559 0.37687 0.7964 0.0
H376 H 0.98528 0.55499 0.24946 0.0
N377 N 0.99071 0.58067 0.60777 0.0
C378 C 0.97884 0.58063 0.5293 0.0
C379 C 0.95788 0.61124 0.65939 0.0
C380 C 0.95499 0.59486 0.51444 0.0
C381 C 0.98144 0.59677 0.67125 0.0
C382 C 0.94436 0.60995 0.5811 0.0
N383 N 1.01478 0.55464 0.47815 0.0
C384 C 0.02917 0.5445 0.4121 0.0
C385 C 0.97945 0.56708 0.38064 0.0
C386 C 0.99096 0.56684 0.46319 0.0
C387 C 0.99331 0.555 0.31383 0.0
C388 C 0.01847 0.54402 0.3294 0.0
H389 H 0.92609 0.62116 0.57216 0.0
H390 H 0.92435 0.60456 0.42105 0.0
H391 H 0.94579 0.58032 0.30384 0.0
O392 O 0.05456 0.5799 0.53168 0.0
O393 O 0.98852 0.54382 0.65848 0.0
O394 O 0.98748 0.49953 0.65516 0.0
O395 O 0.0457 0.59547 0.65653 0.0
O396 O 0.04209 0.51542 0.56279 0.0
O397 O 0.02288 0.48289 0.65055 0.0
O398 O 0.9716 0.5162 0.80577 0.0
O399 O 0.05335 0.51482 0.79609 0.0
O400 O 0.06678 0.53112 0.66465 0.0
O401 O 0.98316 0.4795 0.86852 0.0
O402 O 1.00798 0.54169 0.83114 0.0
O403 O 0.03884 0.56665 0.759 0.0
C404 C 0.97736 0.52201 0.62895 0.0
C405 C 0.08648 0.6084 0.59638 0.0
C406 C 0.1344 0.60107 0.58074 0.0
C407 C 0.13914 0.6273 0.60824 0.0
C408 C 0.09152 0.63444 0.6236 0.0
C409 C 0.1178 0.64372 0.63045 0.0
C410 C 0.10791 0.59163 0.57804 0.0
C411 C 0.03556 0.49035 0.58033 0.0
C412 C 0.05884 0.599 0.58618 0.0
C413 C 0.94285 0.59403 0.43336 0.0
C414 C 0.95503 0.58017 0.36664 0.0
C415 C 0.07221 0.52072 0.74054 0.0
C416 C 0.95926 0.51178 0.94866 0.0
C417 C 0.9367 0.54796 0.02295 0.0
C418 C 0.94822 0.53916 0.10022 0.0
C419 C 0.97067 0.50342 0.02636 0.0
C420 C 0.9424 0.53402 0.94763 0.0
C421 C 0.96512 0.5171 0.10164 0.0
C422 C 0.02316 0.56292 0.82456 0.0
C423 C 0.9664 0.49936 0.86676 0.0
H424 H 0.15916 0.63552 0.60988 0.0
H425 H 0.07515 0.64762 0.63894 0.0
H426 H 0.1216 0.66392 0.6509 0.0
H427 H 0.10374 0.57128 0.55995 0.0
H428 H 0.94368 0.54884 0.16003 0.0
H429 H 0.98409 0.48659 0.02896 0.0
H430 H 0.93425 0.54083 0.88718 0.0
H431 H 0.97387 0.51052 0.16141 0.0
H432 H 0.18666 0.04901 0.17769 0.0
H433 H 0.1198 0.04672 0.64423 0.0
H434 H 0.22972 0.03956 0.41507 0.0
H435 H 0.07191 0.04294 0.41449 0.0
H436 H 0.15998 0.04748 0.55773 0.0
H437 H 0.14432 0.0495 0.25866 0.0
C438 C 0.18724 0.04695 0.2465 0.0
C439 C 0.21184 0.04419 0.28966 0.0
C440 C 0.14074 0.04658 0.52577 0.0
C441 C 0.16361 0.04497 0.38256 0.0
C442 C 0.11761 0.04632 0.57554 0.0
C443 C 0.09218 0.04492 0.53727 0.0
C444 C 0.13879 0.04549 0.43615 0.0
C445 C 0.09101 0.04412 0.44723 0.0
C446 C 0.16308 0.04724 0.29273 0.0
C447 C 0.21131 0.04168 0.37897 0.0
N448 N 0.11391 0.04441 0.39983 0.0
N449 N 0.1878 0.04221 0.42201 0.0
H450 H 0.57731 0.19103 0.25622 0.0
H451 H 0.4801 0.08957 0.50193 0.0
H452 H 0.49185 0.19252 0.2194 0.0
H453 H 0.56441 0.09851 0.55359 0.0
H454 H 0.48311 0.1257 0.39612 0.0
H455 H 0.57221 0.1553 0.35975 0.0
C456 C 0.55738 0.1837 0.26966 0.0
C457 C 0.53502 0.19488 0.22882 0.0
C458 C 0.50092 0.11963 0.43033 0.0
C459 C 0.52889 0.15357 0.34909 0.0
C460 C 0.49925 0.09902 0.49085 0.0
C461 C 0.52206 0.0909 0.53699 0.0
C462 C 0.52567 0.13197 0.41459 0.0
C463 C 0.54623 0.10415 0.5205 0.0
C464 C 0.55446 0.16328 0.32929 0.0
C465 C 0.50968 0.1845 0.24917 0.0
N466 N 0.5474 0.12377 0.46066 0.0
N467 N 0.50729 0.16443 0.30791 0.0
H468 H 0.35348 0.48268 0.22539 0.0
H469 H 0.49786 0.53356 0.38647 0.0
H470 H 0.38791 0.55718 0.1463 0.0
H471 H 0.44655 0.48632 0.54706 0.0
H472 H 0.46237 0.53455 0.27733 0.0
H473 H 0.39192 0.47609 0.32319 0.0
C474 C 0.36938 0.49733 0.22704 0.0
C475 C 0.36755 0.52044 0.1769 0.0
C476 C 0.45897 0.52378 0.3362 0.0
C477 C 0.41163 0.51297 0.2883 0.0
C478 C 0.47931 0.52309 0.39856 0.0
C479 C 0.47527 0.50999 0.47688 0.0
C480 C 0.43444 0.51083 0.35091 0.0
C481 C 0.45062 0.49684 0.48822 0.0
C482 C 0.39119 0.49368 0.2834 0.0
C483 C 0.38856 0.539 0.18318 0.0
N484 N 0.43125 0.49756 0.42621 0.0
N485 N 0.40965 0.53484 0.2372 0.0
H486 H 0.01867 0.33754 0.34526 0.0
H487 H 0.04114 0.49291 0.40244 0.0
H488 H 0.04708 0.38496 0.13544 0.0
H489 H 0.04216 0.43729 0.6114 0.0
H490 H 0.04276 0.45567 0.30193 0.0
H491 H 0.02559 0.37507 0.44127 0.0
C492 C 0.02663 0.3559 0.31948 0.0
C493 C 0.03244 0.358 0.23219 0.0
C494 C 0.04282 0.45167 0.36989 0.0
C495 C 0.03994 0.40176 0.34241 0.0
C496 C 0.04199 0.47308 0.42779 0.0
C497 C 0.04082 0.46861 0.51653 0.0
C498 C 0.04228 0.42542 0.40067 0.0
C499 C 0.04202 0.44201 0.54409 0.0
C500 C 0.03061 0.37739 0.37451 0.0
C501 C 0.04261 0.38238 0.20245 0.0
N502 N 0.04233 0.42163 0.4869 0.0
N503 N 0.04571 0.40345 0.25721 0.0
H504 H 0.8535 0.04024 0.12811 0.0
H505 H 0.98105 0.97674 0.89317 0.0
H506 H 0.87808 0.95857 0.15176 0.0
H507 H 0.96241 0.06015 0.8772 0.0
H508 H 0.94396 0.97065 0.99167 0.0
H509 H 0.89323 0.04895 0.03931 0.0
C510 C 0.8673 0.02422 0.11522 0.0
C511 C 0.86243 0.9986 0.14751 0.0
C512 C 0.94799 0.99038 0.96726 0.0
C513 C 0.90782 1.00835 0.0457 0.0
C514 C 0.96944 0.99391 0.91133 0.0
C515 C 0.97506 0.01902 0.87662 0.0
C516 C 0.9317 1.01207 0.98913 0.0
C517 C 0.95878 0.04038 0.90188 0.0
C518 C 0.88996 0.02917 0.06442 0.0
C519 C 0.88098 0.97861 0.1283 0.0
N520 N 0.9378 0.03642 0.95597 0.0
N521 N 0.90263 0.98385 0.07883 0.0
H522 H 0.52158 0.85855 0.15235 0.0
H523 H 0.56635 0.94253 0.73887 0.0
H524 H 0.56728 0.82571 0.94564 0.0
H525 H 0.50338 0.96772 0.90659 0.0
H526 H 0.57117 0.90175 0.82348 0.0
H527 H 0.51937 0.90112 0.07447 0.0
C528 C 0.53142 0.86037 0.09123 0.0
C529 C 0.54467 0.83852 0.05546 0.0
C530 C 0.55625 0.91618 0.84179 0.0
C531 C 0.5421 0.88706 0.96575 0.0
C532 C 0.55338 0.9394 0.79303 0.0
C533 C 0.53423 0.95849 0.81483 0.0
C534 C 0.54001 0.91199 0.91371 0.0
C535 C 0.51842 0.95357 0.88719 0.0
C536 C 0.53001 0.88461 0.04648 0.0
C537 C 0.55686 0.84202 0.97561 0.0
N538 N 0.52163 0.93089 0.93386 0.0
N539 N 0.55529 0.86568 0.93366 0.0
H540 H 0.68387 0.51104 0.18581 0.0
H541 H 0.59849 0.57227 0.79944 0.0
H542 H 0.68301 0.59435 0.12273 0.0
H543 H 0.56841 0.50445 0.93733 0.0
H544 H 0.63467 0.57653 0.90435 0.0
H545 H 0.64644 0.50399 0.08334 0.0
C546 C 0.67602 0.52775 0.15011 0.0
C547 C 0.68671 0.55334 0.16267 0.0
C548 C 0.62019 0.56068 0.91187 0.0
C549 C 0.6443 0.5454 0.04498 0.0
C550 C 0.5995 0.55819 0.85171 0.0
C551 C 0.58025 0.53798 0.85921 0.0
C552 C 0.62224 0.54255 0.97997 0.0
C553 C 0.58272 0.5204 0.92898 0.0
C554 C 0.65457 0.52376 0.09213 0.0
C555 C 0.67549 0.57429 0.11519 0.0
N556 N 0.60341 0.52293 0.98625 0.0
N557 N 0.65526 0.56985 0.05838 0.0
H558 H 0.04298 0.70454 0.14766 0.0
H559 H 0.99036 0.56455 0.96458 0.0
H560 H 0.96471 0.67257 0.19896 0.0
H561 H 0.05249 0.60945 0.84027 0.0
H562 H 0.98566 0.60024 0.06908 0.0
H563 H 0.05169 0.66631 0.05327 0.0
C564 C 0.02784 0.68927 0.14039 0.0
C565 C 1.0031 0.69169 0.18168 0.0
C566 C 1.00036 0.6023 0.01905 0.0
C567 C 1.01291 0.64794 0.07389 0.0
C568 C 1.00307 0.58185 0.95911 0.0
C569 C 0.02159 0.58393 0.89228 0.0
C570 C 1.01655 0.62512 0.01353 0.0
C571 C 0.03778 0.60689 0.88998 0.0
C572 C 0.03273 0.66757 0.08597 0.0
C573 C 0.98407 0.67148 0.16864 0.0
N574 N 0.03488 0.62652 0.94946 0.0
N575 N 0.98937 0.65054 0.11641 0.0
H576 H 0.10205 0.22499 0.28391 0.0
H577 H 0.99891 0.20137 0.64639 0.0
H578 H 0.04097 0.27979 0.36463 0.0
H579 H 0.04565 0.14224 0.51417 0.0
H580 H 0.03042 0.23524 0.598 0.0
H581 H 0.09791 0.20174 0.42033 0.0
C582 C 0.08826 0.23253 0.33105 0.0
C583 C 0.07102 0.25362 0.31132 0.0
C584 C 0.03412 0.21463 0.58232 0.0
C585 C 0.06611 0.22716 0.46679 0.0
C586 C 1.01592 0.19525 0.60891 0.0
C587 C 0.01831 0.16896 0.57969 0.0
C588 C 0.05485 0.20752 0.52685 0.0
C589 C 0.04196 0.16216 0.53657 0.0
C590 C 0.08605 0.2194 0.40916 0.0
C591 C 0.05429 0.26323 0.37605 0.0
N592 N 0.05886 0.18141 0.50964 0.0
N593 N 0.0517 0.24946 0.45 0.0
H594 H 0.31176 0.07954 0.32522 0.0
H595 H 0.46113 0.11205 0.24161 0.0
H596 H 0.34002 0.13156 0.12611 0.0
H597 H 0.42957 0.05109 0.40789 0.0
H598 H 0.41758 0.13385 0.24317 0.0
H599 H 0.35336 0.08662 0.403 0.0
C600 C 0.32618 0.09346 0.29945 0.0
C601 C 0.32304 0.1039 0.21687 0.0
C602 C 0.42051 0.11609 0.28115 0.0
C603 C 0.37116 0.11103 0.30379 0.0
C604 C 0.44528 0.10336 0.27932 0.0
C605 C 0.44893 0.07898 0.32174 0.0
C606 C 0.39921 0.10429 0.32535 0.0
C607 C 0.42796 0.06958 0.37307 0.0
C608 C 0.35018 0.09724 0.34362 0.0
C609 C 0.34226 0.12215 0.18795 0.0
N610 N 0.40392 0.08194 0.37192 0.0
N611 N 0.36605 0.12432 0.22969 0.0
H612 H 0.51311 0.34911 0.24676 0.0
H613 H 0.59979 0.44053 0.40716 0.0
H614 H 0.57814 0.29392 0.28141 0.0
H615 H 0.62752 0.37887 0.57766 0.0
H616 H 0.57446 0.40746 0.32705 0.0
H617 H 0.53557 0.38009 0.34358 0.0
C618 C 0.53201 0.34346 0.27566 0.0
C619 C 0.54417 0.3193 0.25495 0.0
C620 C 0.5858 0.40122 0.38267 0.0
C621 C 0.57012 0.35467 0.36349 0.0
C622 C 0.60044 0.41999 0.42788 0.0
C623 C 0.61532 0.41243 0.50002 0.0
C624 C 0.58604 0.37466 0.40955 0.0
C625 C 0.61618 0.38544 0.52248 0.0
C626 C 0.54487 0.36115 0.33011 0.0
C627 C 0.56831 0.31252 0.29551 0.0
N628 N 0.60162 0.36736 0.47719 0.0
N629 N 0.58078 0.33036 0.34747 0.0
H630 H 0.27307 0.56002 0.3002 0.0
H631 H 0.18793 0.59975 0.62926 0.0
H632 H 0.21726 0.49528 0.26749 0.0
H633 H 0.1314 0.56427 0.45232 0.0
H634 H 0.22397 0.57556 0.5577 0.0
H635 H 0.24739 0.57523 0.42359 0.0
C636 C 0.2559 0.54856 0.32074 0.0
C637 C 0.24676 0.52682 0.27267 0.0
C638 C 0.20354 0.573 0.5359 0.0
C639 C 0.21761 0.54386 0.41285 0.0
C640 C 0.18295 0.58685 0.5762 0.0
C641 C 0.1564 0.58438 0.54673 0.0
C642 C 0.19732 0.55633 0.46681 0.0
C643 C 0.15122 0.56669 0.4792 0.0
C644 C 0.24137 0.55715 0.39135 0.0
C645 C 0.22447 0.51261 0.30159 0.0
N646 N 0.17146 0.55346 0.44179 0.0
N647 N 0.21027 0.52176 0.36863 0.0
H648 H 0.97329 0.84331 0.10765 0.0
H649 H 0.05938 0.91559 0.87932 0.0
H650 H 0.02725 0.78242 0.02063 0.0
H651 H 0.0497 0.85931 0.67273 0.0
H652 H 0.03033 0.88877 0.96637 0.0
H653 H 0.98293 0.86893 0.97838 0.0
C654 C 0.98654 0.83498 0.06032 0.0
C655 C 1.00021 0.81116 0.07627 0.0
C656 C 0.03401 0.88264 0.90119 0.0
C657 C 1.01103 0.84014 0.92906 0.0
C658 C 0.0506 0.89805 0.85076 0.0
C659 C 0.0567 0.89026 0.76696 0.0
C660 C 0.02412 0.85855 0.86964 0.0
C661 C 0.04583 0.86613 0.73693 0.0
C662 C 0.99191 0.84953 0.98671 0.0
C663 C 1.01656 0.80088 1.01157 0.0
N664 N 0.03048 0.85076 0.78908 0.0
N665 N 0.02205 0.81577 0.94141 0.0
H666 H 0.72748 0.92499 0.27541 0.0
H667 H 0.62638 0.9595 0.90565 0.0
H668 H 0.74628 0.97128 0.05208 0.0
H669 H 0.60688 0.94125 0.16747 0.0
H670 H 0.67177 0.9432 0.93128 0.0
H671 H 0.68687 0.90902 0.20426 0.0
C672 C 0.72373 0.93073 0.20971 0.0
C673 C 0.73963 0.95019 0.1705 0.0
C674 C 0.65726 0.94206 0.98221 0.0
C675 C 0.69317 0.93255 0.0899 0.0
C676 C 0.63144 0.95162 0.96808 0.0
C677 C 0.61311 0.9529 0.03568 0.0
C678 C 0.66468 0.9335 0.06423 0.0
C679 C 0.62039 0.94119 0.1138 0.0
C680 C 0.70044 0.9218 0.16943 0.0
C681 C 0.73418 0.9567 0.08511 0.0
N682 N 0.6458 0.93253 0.12645 0.0
N683 N 0.71086 0.94859 0.04844 0.0
H684 H 0.49843 0.73717 0.99451 0.0
H685 H 0.38022 0.63143 0.9588 0.0
H686 H 0.43483 0.73419 0.17876 0.0
H687 H 0.4638 0.61665 0.91114 0.0
H688 H 0.39165 0.67764 0.99508 0.0
H689 H 0.47531 0.70307 0.91054 0.0
C690 C 0.47899 0.73021 0.01515 0.0
C691 C 0.46864 0.73801 0.09406 0.0
C692 C 0.40722 0.66424 0.97437 0.0
C693 C 0.44252 0.699 0.99975 0.0
C694 C 0.40085 0.63784 0.95476 0.0
C695 C 0.42109 0.62002 0.93088 0.0
C696 C 0.43382 0.67286 0.96811 0.0
C697 C 0.4474 0.62968 0.92595 0.0
C698 C 0.46596 0.71062 0.96778 0.0
C699 C 0.4435 0.72827 0.11856 0.0
N700 N 0.45297 0.65536 0.94421 0.0
N701 N 0.43147 0.70874 0.07237 0.0
H702 H 0.78663 0.58592 0.06776 0.0
H703 H 0.9367 0.5936 0.12097 0.0
H704 H 0.82704 0.62497 0.27696 0.0
H705 H 0.89224 0.55387 0.92072 0.0
H706 H 0.8989 0.62345 0.14138 0.0
H707 H 0.82385 0.59675 0.97597 0.0
C708 C 0.80278 0.59781 0.09394 0.0
C709 C 0.80469 0.60277 0.18193 0.0
C710 C 0.89779 0.60871 0.09115 0.0
C711 C 0.84808 0.61362 0.07836 0.0
C712 C 0.91925 0.59138 0.08026 0.0
C713 C 0.91726 0.57028 0.02183 0.0
C714 C 0.87409 0.60465 0.04408 0.0
C715 C 0.8947 0.56934 0.96797 0.0
C716 C 0.82435 0.60376 0.04134 0.0
C717 C 0.8257 0.61915 0.21053 0.0
N718 N 0.87381 0.58582 0.9818 0.0
N719 N 0.84735 0.62286 0.16002 0.0
H720 H 1.01383 0.23717 0.96721 0.0
H721 H 0.07873 0.09556 0.8546 0.0
H722 H 0.09422 0.21372 0.03202 0.0
H723 H 1.00131 0.11832 0.75747 0.0
H724 H 0.08412 0.13944 0.91674 0.0
H725 H 1.00859 0.1957 0.88424 0.0
C726 C 0.03057 0.22368 0.96246 0.0
C727 C 0.05451 0.22909 1.00716 0.0
C728 C 0.06591 0.13504 0.88165 0.0
C729 C 0.04843 0.18112 0.91391 0.0
C730 C 0.06275 0.10968 0.8462 0.0
C731 C 0.0395 0.10274 0.80041 0.0
C732 C 0.0456 0.15414 0.87253 0.0
C733 C 0.01969 0.12254 0.79172 0.0
C734 C 0.02748 0.19982 0.91579 0.0
C735 C 0.07533 0.21048 0.99938 0.0
N736 N 0.02311 0.14716 0.82767 0.0
N737 N 0.07173 0.18749 0.95488 0.0
H738 H 0.31821 0.08094 0.8736 0.0
H739 H 0.45806 1.00635 0.87559 0.0
H740 H 0.33577 1.01504 0.03964 0.0
H741 H 0.43283 0.05417 0.6615 0.0
H742 H 0.41299 1.0091 0.93424 0.0
H743 H 0.35834 0.07062 0.7902 0.0
C744 C 0.32986 0.06354 0.89013 0.0
C745 C 0.32313 0.04838 0.96241 0.0
C746 C 0.41713 0.01886 0.87409 0.0
C747 C 0.37015 0.03735 0.87014 0.0
C748 C 0.443 0.01744 0.8407 0.0
C749 C 0.44943 0.03025 0.76369 0.0
C750 C 0.3973 0.03356 0.83119 0.0
C751 C 0.42884 0.04402 0.72108 0.0
C752 C 0.35303 0.0579 0.84328 0.0
C753 C 0.33971 0.02679 0.9831 0.0
N754 N 0.40385 0.0456 0.75584 0.0
N755 N 0.36257 0.02221 0.9383 0.0
H756 H 0.47403 0.328 0.98132 0.0
H757 H 0.56092 0.43308 0.71411 0.0
H758 H 0.55653 0.31562 0.91689 0.0
H759 H 0.47825 0.44469 0.78185 0.0
H760 H 0.55831 0.38771 0.77098 0.0
H761 H 0.4733 0.36736 0.88884 0.0
C762 C 0.49163 0.33284 0.94437 0.0
C763 C 0.51515 0.31801 0.95511 0.0
C764 C 0.54067 0.40012 0.77276 0.0
C765 C 0.51504 0.36414 0.85244 0.0
C766 C 0.54215 0.42613 0.74024 0.0
C767 C 0.51986 0.4431 0.74362 0.0
C768 C 0.51673 0.39079 0.80921 0.0
C769 C 0.49609 0.43264 0.77815 0.0
C770 C 0.4914 0.35567 0.89276 0.0
C771 C 0.53776 0.32602 0.90862 0.0
N772 N 0.49525 0.40742 0.80989 0.0
N773 N 0.53727 0.34864 0.86043 0.0
H774 H 0.21423 0.47105 0.02118 0.0
H775 H 0.11802 0.54736 0.68711 0.0
H776 H 0.23758 0.54463 0.90274 0.0
H777 H 0.09226 0.48595 0.85969 0.0
H778 H 0.16388 0.5429 0.74393 0.0
H779 H 0.17238 0.47176 0.93924 0.0
C780 C 0.21098 0.48689 0.97537 0.0
C781 C 0.22987 0.50748 0.9677 0.0
C782 C 0.14818 0.53032 0.76905 0.0
C783 C 0.18101 0.50907 0.8751 0.0
C784 C 0.12193 0.53279 0.73626 0.0
C785 C 0.10087 0.51723 0.7689 0.0
C786 C 0.15369 0.51176 0.83426 0.0
C787 C 0.10746 0.49873 0.83311 0.0
C788 C 0.18681 0.48753 0.92944 0.0
C789 C 0.22399 0.52799 0.90926 0.0
N790 N 0.13303 0.49654 0.86327 0.0
N791 N 0.20008 0.52837 0.86579 0.0
H792 H 0.98886 0.8172 0.47031 0.0
H793 H 0.04786 0.96508 0.49001 0.0
H794 H 0.05123 0.84678 0.30719 0.0
H795 H 1.0016 0.93302 0.69725 0.0
H796 H 0.04845 0.92129 0.4235 0.0
H797 H 0.99314 0.85779 0.55818 0.0
C798 C 1.00397 0.83182 0.45443 0.0
C799 C 0.01977 0.82847 0.38127 0.0
C800 C 0.0382 0.92363 0.48368 0.0
C801 C 0.02413 0.8754 0.47956 0.0
C802 C 0.03774 0.94878 0.52154 0.0
C803 C 0.02456 0.95284 0.59922 0.0
C804 C 0.02498 0.90211 0.52255 0.0
C805 C 1.01201 0.93078 0.63731 0.0
C806 C 1.0062 0.85514 0.50401 0.0
C807 C 0.03863 0.84843 0.36291 0.0
N808 N 1.01226 0.90646 0.59824 0.0
N809 N 0.04002 0.87097 0.41067 0.0
H810 H 0.74305 0.99521 0.50097 0.0
H811 H 0.59115 0.03933 0.45904 0.0
H812 H 0.71274 0.04135 0.2904 0.0
H813 H 0.6251 1.01628 0.70187 0.0
H814 H 0.63596 0.04039 0.39829 0.0
H815 H 0.70162 1.00411 0.57974 0.0
C816 C 0.72821 1.00828 0.473 0.0
C817 C 0.73174 0.01819 0.38986 0.0
C818 C 0.63374 0.03527 0.46505 0.0
C819 C 0.68346 0.02713 0.47746 0.0
C820 C 0.60803 0.03448 0.49985 0.0
C821 C 0.60414 0.02752 0.58587 0.0
C822 C 0.65604 0.02863 0.5158 0.0
C823 C 0.62703 0.02174 0.63531 0.0
C824 C 0.70434 1.013 0.51739 0.0
C825 C 0.71122 0.03396 0.35516 0.0
N826 N 0.6519 0.0221 0.59941 0.0
N827 N 0.68791 0.03755 0.39831 0.0
H828 H 0.56014 0.71825 0.33046 0.0
H829 H 0.48318 0.59883 0.55399 0.0
H830 H 0.47767 0.7228 0.40659 0.0
H831 H 0.56865 0.60714 0.58177 0.0
H832 H 0.48141 0.64327 0.49098 0.0
H833 H 0.56505 0.67759 0.41723 0.0
C834 C 0.54335 0.71128 0.36773 0.0
C835 C 0.51846 0.72407 0.36125 0.0
C836 C 0.50059 0.63538 0.51083 0.0
C837 C 0.52358 0.67691 0.4575 0.0
C838 C 0.50164 0.60988 0.54668 0.0
C839 C 0.52615 0.59883 0.57278 0.0
C840 C 0.52427 0.65007 0.49915 0.0
C841 C 0.54935 0.61438 0.56111 0.0
C842 C 0.54605 0.68785 0.41632 0.0
C843 C 0.49722 0.71365 0.40957 0.0
N844 N 0.54788 0.63901 0.52462 0.0
N845 N 0.50012 0.69057 0.45403 0.0
H846 H 0.8129 0.56558 0.50807 0.0
H847 H 0.95445 0.48918 0.50831 0.0
H848 H 0.83354 0.50778 0.31772 0.0
H849 H 0.9362 0.55549 0.6709 0.0
H850 H 0.90871 0.49127 0.4489 0.0
H851 H 0.8554 0.55688 0.58179 0.0
C852 C 0.82587 0.55016 0.48386 0.0
C853 C 0.81912 0.5368 0.40792 0.0
C854 C 0.91467 0.50534 0.4977 0.0
C855 C 0.86888 0.52758 0.49002 0.0
C856 C 0.9408 0.50412 0.53174 0.0
C857 C 0.94938 0.52243 0.59388 0.0
C858 C 0.8967 0.52477 0.52689 0.0
C859 C 0.93073 0.54132 0.6219 0.0
C860 C 0.85045 0.54555 0.5251 0.0
C861 C 0.83744 0.51792 0.37746 0.0
N862 N 0.90546 0.542 0.58837 0.0
N863 N 0.86146 0.51403 0.41803 0.0
loop_
_geom_bond_atom_site_label_1
_geom_bond_atom_site_label_2
_geom_bond_distance
_geom_bond_site_symmetry_2
_ccdc_geom_bond_type
H0 C5 0.930 . S
H1 C8 0.930 . S
H2 C10 0.930 . S
H3 C4 1.016 . S
C4 H3 1.016 . S
C4 N11 1.286 . S
C5 H0 0.930 . S
C5 C6 1.397 . S
C5 C7 1.361 . S
C6 C5 1.397 . S
C6 C10 1.390 . S
C7 C5 1.361 . S
C7 C8 1.393 . S
C7 N11 1.413 . S
C8 H1 0.930 . S
C8 C7 1.393 . S
C8 C9 1.399 . S
C9 C8 1.399 . S
C9 C10 1.381 . S
C10 H2 0.930 . S
C10 C6 1.390 . S
C10 C9 1.381 . S
N11 C4 1.286 . S
N11 C7 1.413 . S
H12 C17 0.930 . S
H13 C20 0.930 . S
H14 C22 0.930 . S
H15 C16 1.016 . S
C16 H15 1.016 . S
C16 N23 1.286 . S
C17 H12 0.930 . S
C17 C18 1.397 . S
C17 C19 1.361 . S
C18 C17 1.397 . S
C18 C22 1.390 . S
C19 C17 1.361 . S
C19 C20 1.393 . S
C19 N23 1.413 . S
C20 H13 0.930 . S
C20 C19 1.393 . S
C20 C21 1.399 . S
C21 C20 1.399 . S
C21 C22 1.381 . S
C22 H14 0.930 . S
C22 C18 1.390 . S
C22 C21 1.381 . S
N23 C16 1.286 . S
N23 C19 1.413 . S
H24 C29 0.930 . S
H25 C32 0.930 . S
H26 C34 0.930 . S
H27 C28 1.016 . S
C28 H27 1.016 . S
C28 N35 1.286 . S
C29 H24 0.930 . S
C29 C30 1.397 . S
C29 C31 1.361 . S
C30 C29 1.397 . S
C30 C34 1.390 . S
C31 C29 1.361 . S
C31 C32 1.393 . S
C31 N35 1.413 . S
C32 H25 0.930 . S
C32 C31 1.393 . S
C32 C33 1.399 . S
C33 C32 1.399 . S
C33 C34 1.381 . S
C34 H26 0.930 . S
C34 C30 1.390 . S
C34 C33 1.381 . S
N35 C28 1.286 . S
N35 C31 1.413 . S
H36 C41 0.930 . S
H37 C44 0.930 . S
H38 C46 0.930 . S
H39 C40 1.016 . S
C40 H39 1.016 . S
C40 N47 1.286 . S
C41 H36 0.930 . S
C41 C42 1.397 . S
C41 C43 1.361 . S
C42 C41 1.397 . S
C42 C46 1.390 . S
C43 C41 1.361 . S
C43 C44 1.393 . S
C43 N47 1.413 . S
C44 H37 0.930 . S
C44 C43 1.393 . S
C44 C45 1.399 . S
C45 C44 1.399 . S
C45 C46 1.381 . S
C46 H38 0.930 . S
C46 C42 1.390 . S
C46 C45 1.381 . S
N47 C40 1.286 . S
N47 C43 1.413 . S
H48 C53 0.930 . S
H49 C56 0.930 . S
H50 C58 0.930 . S
H51 C52 1.016 . S
C52 H51 1.016 . S
C52 N59 1.286 . S
C53 H48 0.930 . S
C53 C54 1.397 . S
C53 C55 1.361 1_556 S
C54 C53 1.397 . S
C54 C58 1.390 1_556 S
C55 C53 1.361 1_554 S
C55 C56 1.393 . S
C55 N59 1.413 . S
C56 H49 0.930 . S
C56 C55 1.393 . S
C56 C57 1.399 . S
C57 C56 1.399 . S
C57 C58 1.381 . S
C58 H50 0.930 . S
C58 C54 1.390 1_554 S
C58 C57 1.381 . S
N59 C52 1.286 . S
N59 C55 1.413 . S
H60 C65 0.930 . S
H61 C68 0.930 . S
H62 C70 0.930 . S
H63 C64 1.016 . S
C64 H63 1.016 . S
C64 N71 1.286 . S
C65 H60 0.930 . S
C65 C66 1.397 . S
C65 C67 1.361 1_556 S
C66 C65 1.397 . S
C66 C70 1.390 1_556 S
C67 C65 1.361 1_554 S
C67 C68 1.393 . S
C67 N71 1.413 . S
C68 H61 0.930 . S
C68 C67 1.393 . S
C68 C69 1.399 . S
C69 C68 1.399 . S
C69 C70 1.381 . S
C70 H62 0.930 . S
C70 C66 1.390 1_554 S
C70 C69 1.381 . S
N71 C64 1.286 . S
N71 C67 1.413 . S
H72 C77 0.930 . S
H73 C80 0.930 . S
H74 C82 0.930 . S
H75 C76 1.016 . S
C76 H75 1.016 . S
C76 N83 1.286 . S
C77 H72 0.930 . S
C77 C78 1.397 . S
C77 C79 1.361 1_556 S
C78 C77 1.397 . S
C78 C82 1.390 1_556 S
C79 C77 1.361 1_554 S
C79 C80 1.393 . S
C79 N83 1.413 . S
C80 H73 0.930 . S
C80 C79 1.393 . S
C80 C81 1.399 . S
C81 C80 1.399 . S
C81 C82 1.381 . S
C82 H74 0.930 . S
C82 C78 1.390 1_554 S
C82 C81 1.381 . S
N83 C76 1.286 . S
N83 C79 1.413 . S
H84 C89 0.930 . S
H85 C92 0.930 . S
H86 C94 0.930 . S
H87 C88 1.016 . S
C88 H87 1.016 . S
C88 N95 1.286 . S
C89 H84 0.930 . S
C89 C90 1.397 . S
C89 C91 1.361 1_556 S
C90 C89 1.397 . S
C90 C94 1.390 1_556 S
C91 C89 1.361 1_554 S
C91 C92 1.393 . S
C91 N95 1.413 . S
C92 H85 0.930 . S
C92 C91 1.393 . S
C92 C93 1.399 . S
C93 C92 1.399 . S
C93 C94 1.381 . S
C94 H86 0.930 . S
C94 C90 1.390 1_554 S
C94 C93 1.381 . S
N95 C88 1.286 . S
N95 C91 1.413 . S
Eu96 N125 2.600 . S
Eu96 N131 2.562 . S
Eu96 O140 2.462 1_655 S
Eu96 O141 2.373 1_545 S
Eu96 O143 2.432 . S
Eu96 O144 2.291 1_655 S
Eu96 O148 2.335 1_655 S
Eu96 O151 2.372 . S
Eu96 C160 2.787 . S
C97 N98 1.365 . S
C97 C100 1.405 . S
C97 C104 1.448 . S
N98 C97 1.365 . S
N98 C101 1.319 . S
N98 Eu107 2.600 1_545 S
C99 C101 1.397 . S
C99 C102 1.367 . S
C99 H119 0.931 . S
C100 C97 1.405 . S
C100 C102 1.403 . S
C100 C106 1.439 1_556 S
C101 N98 1.319 . S
C101 C99 1.397 . S
C101 H112 0.930 1_545 S
C102 C99 1.367 . S
C102 C100 1.403 . S
C102 H123 0.929 . S
C103 C104 1.430 1_554 S
C103 C105 1.387 . S
C103 C109 1.404 . S
C104 C97 1.448 . S
C104 C103 1.430 1_556 S
C104 N108 1.351 . S
C105 C103 1.387 . S
C105 C106 1.374 . S
C105 H120 0.931 . S
C106 C100 1.439 1_554 S
C106 C105 1.374 . S
C106 H121 0.931 . S
Eu107 N98 2.600 1_565 S
Eu107 N108 2.562 1_565 S
Eu107 O142 2.335 . S
Eu107 O145 2.372 . S
Eu107 O146 2.462 . S
Eu107 O147 2.373 1_565 S
Eu107 O149 2.432 . S
Eu107 O150 2.291 1_465 S
Eu107 C171 2.787 . S
N108 C104 1.351 . S
N108 Eu107 2.562 1_545 S
N108 C110 1.325 . S
C109 C103 1.404 . S
C109 C111 1.366 . S
C109 H117 0.930 . S
C110 N108 1.325 . S
C110 C111 1.416 1_556 S
C110 H116 0.929 1_455 S
C111 C109 1.366 . S
C111 C110 1.416 1_554 S
C111 H113 0.930 1_455 S
H112 C101 0.930 1_565 S
H113 C111 0.930 1_655 S
H114 C129 0.930 . S
H115 C136 0.930 . S
H116 C110 0.929 1_655 S
H117 C109 0.930 . S
H118 C132 0.929 . S
H119 C99 0.931 . S
H120 C105 0.931 . S
H121 C106 0.931 . S
H122 C127 0.931 . S
H123 C102 0.929 . S
H124 C135 0.930 . S
N125 Eu96 2.600 . S
N125 C126 1.365 . S
N125 C129 1.319 . S
C126 N125 1.365 . S
C126 C128 1.405 1_545 S
C126 C134 1.448 . S
C127 H122 0.931 . S
C127 C129 1.397 . S
C127 C130 1.367 1_545 S
C128 C126 1.405 1_565 S
C128 C130 1.403 . S
C128 C161 1.439 . S
C129 H114 0.930 . S
C129 N125 1.319 . S
C129 C127 1.397 . S
C130 C127 1.367 1_565 S
C130 C128 1.403 . S
C130 H137 0.929 . S
N131 Eu96 2.562 . S
N131 C132 1.325 1_655 S
N131 C134 1.351 . S
C132 H118 0.929 . S
C132 N131 1.325 1_455 S
C132 C136 1.416 1_545 S
C133 C134 1.430 1_565 S
C133 C135 1.404 . S
C133 C162 1.387 . S
C134 C126 1.448 . S
C134 N131 1.351 . S
C134 C133 1.430 1_545 S
C135 H124 0.930 . S
C135 C133 1.404 . S
C135 C136 1.366 1_655 S
C136 H115 0.930 . S
C136 C132 1.416 1_565 S
C136 C135 1.366 1_455 S
H137 C130 0.929 . S
H138 C161 0.931 . S
H139 C162 0.931 . S
O140 Eu96 2.462 1_455 S
O140 C160 1.252 1_455 S
O141 Eu96 2.373 1_565 S
O141 C152 1.249 . S
O142 Eu107 2.335 . S
O142 C152 1.264 1_455 S
O143 Eu96 2.432 . S
O143 C160 1.268 . S
O144 Eu96 2.291 1_455 S
O144 C159 1.255 . S
O145 Eu107 2.372 . S
O145 C159 1.257 1_565 S
O146 Eu107 2.462 . S
O146 C171 1.252 . S
O147 Eu107 2.373 1_545 S
O147 C163 1.249 . S
O148 Eu96 2.335 1_455 S
O148 C163 1.264 . S
O149 Eu107 2.432 . S
O149 C171 1.268 . S
O150 Eu107 2.291 1_645 S
O150 C170 1.255 . S
O151 Eu96 2.372 . S
O151 C170 1.257 . S
C152 O141 1.249 . S
C152 O142 1.264 1_655 S
C153 C156 1.382 . S
C153 C158 1.390 . S
C153 C160 1.506 . S
C154 C155 1.398 . S
C154 C158 1.392 . S
C155 C154 1.398 . S
C155 C157 1.372 . S
C155 H172 0.931 . S
C156 C153 1.382 . S
C156 C157 1.390 . S
C156 H173 0.931 . S
C157 C155 1.372 . S
C157 C156 1.390 . S
C157 H174 0.929 . S
C158 C153 1.390 . S
C158 C154 1.392 . S
C158 H175 0.930 1_655 S
C159 O144 1.255 . S
C159 O145 1.257 1_545 S
C160 Eu96 2.787 . S
C160 O140 1.252 1_655 S
C160 O143 1.268 . S
C160 C153 1.506 . S
C161 C128 1.439 . S
C161 H138 0.931 . S
C161 C162 1.374 . S
C162 C133 1.387 . S
C162 H139 0.931 . S
C162 C161 1.374 . S
C163 O147 1.249 . S
C163 O148 1.264 . S
C164 C167 1.382 . S
C164 C168 1.390 . S
C164 C171 1.506 . S
C165 C166 1.398 . S
C165 C168 1.392 . S
C166 C165 1.398 . S
C166 C169 1.372 . S
C166 H176 0.931 1_556 S
C167 C164 1.382 . S
C167 C169 1.390 . S
C167 H177 0.931 . S
C168 C164 1.390 . S
C168 C165 1.392 . S
C168 H178 0.930 . S
C169 C166 1.372 . S
C169 C167 1.390 . S
C169 H179 0.929 . S
C170 O150 1.255 . S
C170 O151 1.257 . S
C171 Eu107 2.787 . S
C171 O146 1.252 . S
C171 O149 1.268 . S
C171 C164 1.506 . S
H172 C155 0.931 . S
H173 C156 0.931 . S
H174 C157 0.929 . S
H175 C158 0.930 1_455 S
H176 C166 0.931 1_554 S
H177 C167 0.931 . S
H178 C168 0.930 . S
H179 C169 0.929 . S
Eu180 N209 2.600 . S
Eu180 N215 2.562 . S
Eu180 O224 2.462 . S
Eu180 O225 2.373 . S
Eu180 O227 2.432 . S
Eu180 O228 2.291 . S
Eu180 O232 2.335 1_545 S
Eu180 O235 2.372 . S
Eu180 C244 2.787 . S
C181 N182 1.365 . S
C181 C184 1.405 . S
C181 C188 1.448 . S
N182 C181 1.365 . S
N182 C185 1.319 . S
N182 Eu191 2.600 . S
C183 C185 1.397 . S
C183 C186 1.367 . S
C183 H203 0.931 . S
C184 C181 1.405 . S
C184 C186 1.403 . S
C184 C190 1.439 . S
C185 N182 1.319 . S
C185 C183 1.397 . S
C185 H196 0.930 . S
C186 C183 1.367 . S
C186 C184 1.403 . S
C186 H207 0.929 . S
C187 C188 1.430 . S
C187 C189 1.387 . S
C187 C193 1.404 . S
C188 C181 1.448 . S
C188 C187 1.430 . S
C188 N192 1.351 . S
C189 C187 1.387 . S
C189 C190 1.374 . S
C189 H204 0.931 . S
C190 C184 1.439 . S
C190 C189 1.374 . S
C190 H205 0.931 . S
Eu191 N182 2.600 . S
Eu191 N192 2.562 . S
Eu191 O226 2.335 1_565 S
Eu191 O229 2.372 . S
Eu191 O230 2.462 . S
Eu191 O231 2.373 . S
Eu191 O233 2.432 . S
Eu191 O234 2.291 1_565 S
Eu191 C255 2.787 . S
N192 C188 1.351 . S
N192 Eu191 2.562 . S
N192 C194 1.325 . S
C193 C187 1.404 . S
C193 C195 1.366 . S
C193 H201 0.930 . S
C194 N192 1.325 . S
C194 C195 1.416 . S
C194 H200 0.929 . S
C195 C193 1.366 . S
C195 C194 1.416 . S
C195 H197 0.930 . S
H196 C185 0.930 . S
H197 C195 0.930 . S
H198 C213 0.930 . S
H199 C220 0.930 . S
H200 C194 0.929 . S
H201 C193 0.930 . S
H202 C216 0.929 . S
H203 C183 0.931 . S
H204 C189 0.931 . S
H205 C190 0.931 . S
H206 C211 0.931 . S
H207 C186 0.929 . S
H208 C219 0.930 . S
N209 Eu180 2.600 . S
N209 C210 1.365 . S
N209 C213 1.319 . S
C210 N209 1.365 . S
C210 C212 1.405 . S
C210 C218 1.448 . S
C211 H206 0.931 . S
C211 C213 1.397 . S
C211 C214 1.367 . S
C212 C210 1.405 . S
C212 C214 1.403 . S
C212 C245 1.439 . S
C213 H198 0.930 . S
C213 N209 1.319 . S
C213 C211 1.397 . S
C214 C211 1.367 . S
C214 C212 1.403 . S
C214 H221 0.929 . S
N215 Eu180 2.562 . S
N215 C216 1.325 . S
N215 C218 1.351 . S
C216 H202 0.929 . S
C216 N215 1.325 . S
C216 C220 1.416 . S
C217 C218 1.430 . S
C217 C219 1.404 . S
C217 C246 1.387 . S
C218 C210 1.448 . S
C218 N215 1.351 . S
C218 C217 1.430 . S
C219 H208 0.930 . S
C219 C217 1.404 . S
C219 C220 1.366 . S
C220 H199 0.930 . S
C220 C216 1.416 . S
C220 C219 1.366 . S
H221 C214 0.929 . S
H222 C245 0.931 . S
H223 C246 0.931 . S
O224 Eu180 2.462 . S
O224 C244 1.252 . S
O225 Eu180 2.373 . S
O225 C236 1.249 . S
O226 Eu191 2.335 1_545 S
O226 C236 1.264 . S
O227 Eu180 2.432 . S
O227 C244 1.268 . S
O228 Eu180 2.291 . S
O228 C243 1.255 . S
O229 Eu191 2.372 . S
O229 C243 1.257 1_565 S
O230 Eu191 2.462 . S
O230 C255 1.252 . S
O231 Eu191 2.373 . S
O231 C247 1.249 . S
O232 Eu180 2.335 1_565 S
O232 C247 1.264 . S
O233 Eu191 2.432 . S
O233 C255 1.268 . S
O234 Eu191 2.291 1_545 S
O234 C254 1.255 . S
O235 Eu180 2.372 . S
O235 C254 1.257 . S
C236 O225 1.249 . S
C236 O226 1.264 . S
C237 C240 1.382 1_556 S
C237 C242 1.390 . S
C237 C244 1.506 . S
C238 C239 1.398 . S
C238 C242 1.392 1_554 S
C239 C238 1.398 . S
C239 C241 1.372 . S
C239 H256 0.931 . S
C240 C237 1.382 1_554 S
C240 C241 1.390 . S
C240 H257 0.931 . S
C241 C239 1.372 . S
C241 C240 1.390 . S
C241 H258 0.929 . S
C242 C237 1.390 . S
C242 C238 1.392 1_556 S
C242 H259 0.930 . S
C243 O228 1.255 . S
C243 O229 1.257 1_545 S
C244 Eu180 2.787 . S
C244 O224 1.252 . S
C244 O227 1.268 . S
C244 C237 1.506 . S
C245 C212 1.439 . S
C245 H222 0.931 . S
C245 C246 1.374 . S
C246 C217 1.387 . S
C246 H223 0.931 . S
C246 C245 1.374 . S
C247 O231 1.249 . S
C247 O232 1.264 . S
C248 C251 1.382 . S
C248 C252 1.390 1_565 S
C248 C255 1.506 . S
C249 C250 1.398 1_545 S
C249 C252 1.392 . S
C250 C249 1.398 1_565 S
C250 C253 1.372 . S
C250 H260 0.931 . S
C251 C248 1.382 . S
C251 C253 1.390 . S
C251 H261 0.931 . S
C252 C248 1.390 1_545 S
C252 C249 1.392 . S
C252 H262 0.930 . S
C253 C250 1.372 . S
C253 C251 1.390 . S
C253 H263 0.929 . S
C254 O234 1.255 . S
C254 O235 1.257 . S
C255 Eu191 2.787 . S
C255 O230 1.252 . S
C255 O233 1.268 . S
C255 C248 1.506 . S
H256 C239 0.931 . S
H257 C240 0.931 . S
H258 C241 0.929 . S
H259 C242 0.930 . S
H260 C250 0.931 . S
H261 C251 0.931 . S
H262 C252 0.930 . S
H263 C253 0.929 . S
Eu264 N293 2.600 . S
Eu264 N299 2.562 . S
Eu264 O308 2.462 . S
Eu264 O309 2.373 . S
Eu264 O311 2.432 . S
Eu264 O312 2.291 . S
Eu264 O316 2.335 . S
Eu264 O319 2.372 . S
Eu264 C328 2.787 . S
C265 N266 1.365 . S
C265 C268 1.405 . S
C265 C272 1.448 . S
N266 C265 1.365 . S
N266 C269 1.319 . S
N266 Eu275 2.600 . S
C267 C269 1.397 . S
C267 C270 1.367 . S
C267 H287 0.931 . S
C268 C265 1.405 . S
C268 C270 1.403 . S
C268 C274 1.439 1_556 S
C269 N266 1.319 . S
C269 C267 1.397 . S
C269 H280 0.930 . S
C270 C267 1.367 . S
C270 C268 1.403 . S
C270 H291 0.929 . S
C271 C272 1.430 1_554 S
C271 C273 1.387 . S
C271 C277 1.404 . S
C272 C265 1.448 . S
C272 C271 1.430 1_556 S
C272 N276 1.351 . S
C273 C271 1.387 . S
C273 C274 1.374 . S
C273 H288 0.931 . S
C274 C268 1.439 1_554 S
C274 C273 1.374 . S
C274 H289 0.931 . S
Eu275 N266 2.600 . S
Eu275 N276 2.562 . S
Eu275 O310 2.335 . S
Eu275 O313 2.372 . S
Eu275 O314 2.462 . S
Eu275 O315 2.373 . S
Eu275 O317 2.432 . S
Eu275 O318 2.291 . S
Eu275 C339 2.787 . S
N276 C272 1.351 . S
N276 Eu275 2.562 . S
N276 C278 1.325 . S
C277 C271 1.404 . S
C277 C279 1.366 . S
C277 H285 0.930 . S
C278 N276 1.325 . S
C278 C279 1.416 1_556 S
C278 H284 0.929 . S
C279 C277 1.366 . S
C279 C278 1.416 1_554 S
C279 H281 0.930 . S
H280 C269 0.930 . S
H281 C279 0.930 . S
H282 C297 0.930 . S
H283 C304 0.930 . S
H284 C278 0.929 . S
H285 C277 0.930 . S
H286 C300 0.929 . S
H287 C267 0.931 . S
H288 C273 0.931 . S
H289 C274 0.931 . S
H290 C295 0.931 . S
H291 C270 0.929 . S
H292 C303 0.930 . S
N293 Eu264 2.600 . S
N293 C294 1.365 . S
N293 C297 1.319 . S
C294 N293 1.365 . S
C294 C296 1.405 . S
C294 C302 1.448 . S
C295 H290 0.931 . S
C295 C297 1.397 . S
C295 C298 1.367 . S
C296 C294 1.405 . S
C296 C298 1.403 . S
C296 C329 1.439 . S
C297 H282 0.930 . S
C297 N293 1.319 . S
C297 C295 1.397 . S
C298 C295 1.367 . S
C298 C296 1.403 . S
C298 H305 0.929 . S
N299 Eu264 2.562 . S
N299 C300 1.325 . S
N299 C302 1.351 . S
C300 H286 0.929 . S
C300 N299 1.325 . S
C300 C304 1.416 . S
C301 C302 1.430 . S
C301 C303 1.404 . S
C301 C330 1.387 . S
C302 C294 1.448 . S
C302 N299 1.351 . S
C302 C301 1.430 . S
C303 H292 0.930 . S
C303 C301 1.404 . S
C303 C304 1.366 . S
C304 H283 0.930 . S
C304 C300 1.416 . S
C304 C303 1.366 . S
H305 C298 0.929 . S
H306 C329 0.931 . S
H307 C330 0.931 . S
O308 Eu264 2.462 . S
O308 C328 1.252 . S
O309 Eu264 2.373 . S
O309 C320 1.249 . S
O310 Eu275 2.335 . S
O310 C320 1.264 . S
O311 Eu264 2.432 . S
O311 C328 1.268 . S
O312 Eu264 2.291 . S
O312 C327 1.255 . S
O313 Eu275 2.372 . S
O313 C327 1.257 . S
O314 Eu275 2.462 . S
O314 C339 1.252 . S
O315 Eu275 2.373 . S
O315 C331 1.249 . S
O316 Eu264 2.335 . S
O316 C331 1.264 . S
O317 Eu275 2.432 . S
O317 C339 1.268 . S
O318 Eu275 2.291 . S
O318 C338 1.255 . S
O319 Eu264 2.372 . S
O319 C338 1.257 . S
C320 O309 1.249 . S
C320 O310 1.264 . S
C321 C324 1.382 . S
C321 C326 1.390 . S
C321 C328 1.506 . S
C322 C323 1.398 . S
C322 C326 1.392 . S
C323 C322 1.398 . S
C323 C325 1.372 . S
C323 H340 0.931 . S
C324 C321 1.382 . S
C324 C325 1.390 . S
C324 H341 0.931 . S
C325 C323 1.372 . S
C325 C324 1.390 . S
C325 H342 0.929 . S
C326 C321 1.390 . S
C326 C322 1.392 . S
C326 H343 0.930 . S
C327 O312 1.255 . S
C327 O313 1.257 . S
C328 Eu264 2.787 . S
C328 O308 1.252 . S
C328 O311 1.268 . S
C328 C321 1.506 . S
C329 C296 1.439 . S
C329 H306 0.931 . S
C329 C330 1.374 . S
C330 C301 1.387 . S
C330 H307 0.931 . S
C330 C329 1.374 . S
C331 O315 1.249 . S
C331 O316 1.264 . S
C332 C335 1.382 . S
C332 C336 1.390 . S
C332 C339 1.506 . S
C333 C334 1.398 . S
C333 C336 1.392 . S
C334 C333 1.398 . S
C334 C337 1.372 . S
C334 H344 0.931 1_556 S
C335 C332 1.382 . S
C335 C337 1.390 . S
C335 H345 0.931 . S
C336 C332 1.390 . S
C336 C333 1.392 . S
C336 H346 0.930 . S
C337 C334 1.372 . S
C337 C335 1.390 . S
C337 H347 0.929 . S
C338 O318 1.255 . S
C338 O319 1.257 . S
C339 Eu275 2.787 . S
C339 O314 1.252 . S
C339 O317 1.268 . S
C339 C332 1.506 . S
H340 C323 0.931 . S
H341 C324 0.931 . S
H342 C325 0.929 . S
H343 C326 0.930 . S
H344 C334 0.931 1_554 S
H345 C335 0.931 . S
H346 C336 0.930 . S
H347 C337 0.929 . S
Eu348 N377 2.600 . S
Eu348 N383 2.562 . S
Eu348 O392 2.462 . S
Eu348 O393 2.373 1_455 S
Eu348 O395 2.432 . S
Eu348 O396 2.291 . S
Eu348 O400 2.335 . S
Eu348 O403 2.372 . S
Eu348 C412 2.787 . S
C349 N350 1.365 . S
C349 C352 1.405 . S
C349 C356 1.448 . S
N350 C349 1.365 . S
N350 C353 1.315 1_455 S
N350 Eu359 2.600 1_455 S
C351 C353 1.387 1_455 S
C351 C354 1.367 . S
C351 H371 0.931 . S
C352 C349 1.405 . S
C352 C354 1.403 . S
C352 C358 1.439 1_556 S
C353 N350 1.315 1_655 S
C353 C351 1.387 1_655 S
C353 H364 0.945 . S
C354 C351 1.367 . S
C354 C352 1.403 . S
C354 H375 0.929 . S
C355 C356 1.430 1_554 S
C355 C357 1.387 . S
C355 C361 1.404 . S
C356 C349 1.448 . S
C356 C355 1.430 1_556 S
C356 N360 1.351 . S
C357 C355 1.387 . S
C357 C358 1.374 . S
C357 H372 0.931 . S
C358 C352 1.439 1_554 S
C358 C357 1.374 . S
C358 H373 0.931 . S
Eu359 N350 2.600 1_655 S
Eu359 N360 2.562 1_655 S
Eu359 O394 2.335 . S
Eu359 O397 2.372 . S
Eu359 O398 2.462 . S
Eu359 O399 2.373 1_655 S
Eu359 O401 2.432 . S
Eu359 O402 2.291 1_655 S
Eu359 C423 2.787 . S
N360 C356 1.351 . S
N360 Eu359 2.562 1_455 S
N360 C362 1.325 . S
C361 C355 1.404 . S
C361 C363 1.366 . S
C361 H369 0.930 . S
C362 N360 1.325 . S
C362 C363 1.416 1_556 S
C362 H368 0.929 . S
C363 C361 1.366 . S
C363 C362 1.416 1_554 S
C363 H365 0.930 . S
H364 C353 0.945 . S
H365 C363 0.930 . S
H366 C381 0.930 . S
H367 C388 0.930 . S
H368 C362 0.929 . S
H369 C361 0.930 . S
H370 C384 0.929 . S
H371 C351 0.931 . S
H372 C357 0.931 . S
H373 C358 0.931 . S
H374 C379 0.931 . S
H375 C354 0.929 . S
H376 C387 0.930 . S
N377 Eu348 2.600 . S
N377 C378 1.365 . S
N377 C381 1.319 . S
C378 N377 1.365 . S
C378 C380 1.405 1_455 S
C378 C386 1.447 . S
C379 H374 0.931 . S
C379 C381 1.397 . S
C379 C382 1.367 1_455 S
C380 C378 1.405 1_655 S
C380 C382 1.403 . S
C380 C413 1.439 . S
C381 H366 0.930 . S
C381 N377 1.319 . S
C381 C379 1.397 . S
C382 C379 1.367 1_655 S
C382 C380 1.403 . S
C382 H389 0.929 . S
N383 Eu348 2.562 . S
N383 C384 1.325 . S
N383 C386 1.350 . S
C384 H370 0.929 . S
C384 N383 1.325 . S
C384 C388 1.416 1_455 S
C385 C386 1.432 1_655 S
C385 C387 1.404 . S
C385 C414 1.387 . S
C386 C378 1.447 . S
C386 N383 1.350 . S
C386 C385 1.432 1_455 S
C387 H376 0.930 . S
C387 C385 1.404 . S
C387 C388 1.366 . S
C388 H367 0.930 . S
C388 C384 1.416 1_655 S
C388 C387 1.366 . S
H389 C382 0.929 . S
H390 C413 0.931 . S
H391 C414 0.931 . S
O392 Eu348 2.462 . S
O392 C412 1.252 . S
O393 Eu348 2.373 1_655 S
O393 C404 1.249 . S
O394 Eu359 2.335 . S
O394 C404 1.264 . S
O395 Eu348 2.432 . S
O395 C412 1.268 . S
O396 Eu348 2.291 . S
O396 C411 1.255 . S
O397 Eu359 2.372 . S
O397 C411 1.257 1_655 S
O398 Eu359 2.462 . S
O398 C423 1.252 . S
O399 Eu359 2.373 1_455 S
O399 C415 1.249 . S
O400 Eu348 2.335 . S
O400 C415 1.264 . S
O401 Eu359 2.432 . S
O401 C423 1.268 . S
O402 Eu359 2.291 1_455 S
O402 C422 1.255 . S
O403 Eu348 2.372 . S
O403 C422 1.257 . S
C404 O393 1.249 . S
C404 O394 1.264 . S
C405 C408 1.382 . S
C405 C410 1.390 . S
C405 C412 1.506 . S
C406 C407 1.398 . S
C406 C410 1.392 . S
C407 C406 1.398 . S
C407 C409 1.372 . S
C407 H424 0.931 . S
C408 C405 1.382 . S
C408 C409 1.390 . S
C408 H425 0.931 . S
C409 C407 1.372 . S
C409 C408 1.390 . S
C409 H426 0.929 . S
C410 C405 1.390 . S
C410 C406 1.392 . S
C410 H427 0.930 . S
C411 O396 1.255 . S
C411 O397 1.257 1_455 S
C412 Eu348 2.787 . S
C412 O392 1.252 . S
C412 O395 1.268 . S
C412 C405 1.506 . S
C413 C380 1.439 . S
C413 H390 0.931 . S
C413 C414 1.374 . S
C414 C385 1.387 . S
C414 H391 0.931 . S
C414 C413 1.374 . S
C415 O399 1.249 . S
C415 O400 1.264 . S
C416 C419 1.382 . S
C416 C420 1.390 . S
C416 C423 1.506 . S
C417 C418 1.398 . S
C417 C420 1.392 . S
C418 C417 1.398 . S
C418 C421 1.372 . S
C418 H428 0.931 1_556 S
C419 C416 1.382 . S
C419 C421 1.390 . S
C419 H429 0.931 . S
C420 C416 1.390 . S
C420 C417 1.392 . S
C420 H430 0.930 . S
C421 C418 1.372 . S
C421 C419 1.390 . S
C421 H431 0.929 . S
C422 O402 1.255 . S
C422 O403 1.257 . S
C423 Eu359 2.787 . S
C423 O398 1.252 . S
C423 O401 1.268 . S
C423 C416 1.506 . S
H424 C407 0.931 . S
H425 C408 0.931 . S
H426 C409 0.929 . S
H427 C410 0.930 . S
H428 C418 0.931 1_554 S
H429 C419 0.931 . S
H430 C420 0.930 . S
H431 C421 0.929 . S
H432 C438 0.930 . S
H433 C442 0.930 1_565 S
H434 C447 0.929 . S
H435 C445 0.929 . S
H436 C440 0.931 . S
H437 C446 0.929 . S
C438 H432 0.930 . S
C438 C439 1.367 . S
C438 C446 1.378 . S
C439 C438 1.367 . S
C439 C447 1.433 . S
C440 H436 0.931 . S
C440 C442 1.378 . S
C440 C444 1.350 . S
C441 C444 1.463 . S
C441 C446 1.350 . S
C441 N449 1.427 . S
C442 H433 0.930 1_545 S
C442 C440 1.378 . S
C442 C443 1.367 . S
C443 C442 1.367 . S
C443 C445 1.433 . S
C444 C440 1.350 . S
C444 C441 1.463 . S
C444 N448 1.427 . S
C445 H435 0.929 . S
C445 C443 1.433 . S
C445 N448 1.384 . S
C446 H437 0.929 . S
C446 C438 1.378 . S
C446 C441 1.350 . S
C447 H434 0.929 . S
C447 C439 1.433 . S
C447 N449 1.384 . S
N448 C444 1.427 . S
N448 C445 1.384 . S
N449 C441 1.427 . S
N449 C447 1.384 . S
H450 C456 0.930 . S
H451 C460 0.930 . S
H452 C465 0.929 . S
H453 C463 0.929 . S
H454 C458 0.929 . S
H455 C464 0.929 . S
C456 H450 0.930 . S
C456 C457 1.367 . S
C456 C464 1.378 . S
C457 C456 1.367 . S
C457 C465 1.433 . S
C458 H454 0.929 . S
C458 C460 1.378 . S
C458 C462 1.350 . S
C459 C462 1.463 . S
C459 C464 1.350 . S
C459 N467 1.427 . S
C460 H451 0.930 . S
C460 C458 1.378 . S
C460 C461 1.367 . S
C461 C460 1.367 . S
C461 C463 1.433 . S
C462 C458 1.350 . S
C462 C459 1.463 . S
C462 N466 1.427 . S
C463 H453 0.929 . S
C463 C461 1.433 . S
C463 N466 1.384 . S
C464 H455 0.929 . S
C464 C456 1.378 . S
C464 C459 1.350 . S
C465 H452 0.929 . S
C465 C457 1.433 . S
C465 N467 1.384 . S
N466 C462 1.427 . S
N466 C463 1.384 . S
N467 C459 1.427 . S
N467 C465 1.384 . S
H468 C474 0.930 . S
H469 C478 0.930 . S
H470 C483 0.929 . S
H471 C481 0.929 . S
H472 C476 0.929 . S
H473 C482 0.929 . S
C474 H468 0.930 . S
C474 C475 1.367 . S
C474 C482 1.378 . S
C475 C474 1.367 . S
C475 C483 1.433 . S
C476 H472 0.929 . S
C476 C478 1.378 . S
C476 C480 1.350 . S
C477 C480 1.463 . S
C477 C482 1.350 . S
C477 N485 1.427 . S
C478 H469 0.930 . S
C478 C476 1.378 . S
C478 C479 1.367 . S
C479 C478 1.367 . S
C479 C481 1.433 . S
C480 C476 1.350 . S
C480 C477 1.463 . S
C480 N484 1.427 . S
C481 H471 0.929 . S
C481 C479 1.433 . S
C481 N484 1.384 . S
C482 H473 0.929 . S
C482 C474 1.378 . S
C482 C477 1.350 . S
C483 H470 0.929 . S
C483 C475 1.433 . S
C483 N485 1.384 . S
N484 C480 1.427 . S
N484 C481 1.384 . S
N485 C477 1.427 . S
N485 C483 1.384 . S
H486 C492 0.930 . S
H487 C496 0.930 . S
H488 C501 0.929 . S
H489 C499 0.929 . S
H490 C494 0.929 . S
H491 C500 0.929 . S
C492 H486 0.930 . S
C492 C493 1.367 . S
C492 C500 1.378 . S
C493 C492 1.367 . S
C493 C501 1.433 . S
C494 H490 0.929 . S
C494 C496 1.378 . S
C494 C498 1.350 . S
C495 C498 1.463 . S
C495 C500 1.350 . S
C495 N503 1.427 . S
C496 H487 0.930 . S
C496 C494 1.378 . S
C496 C497 1.367 . S
C497 C496 1.367 . S
C497 C499 1.433 . S
C498 C494 1.350 . S
C498 C495 1.463 . S
C498 N502 1.427 . S
C499 H489 0.929 . S
C499 C497 1.433 . S
C499 N502 1.384 . S
C500 H491 0.929 . S
C500 C492 1.378 . S
C500 C495 1.350 . S
C501 H488 0.929 . S
C501 C493 1.433 . S
C501 N503 1.384 . S
N502 C498 1.427 . S
N502 C499 1.384 . S
N503 C495 1.427 . S
N503 C501 1.384 . S
H504 C510 0.930 . S
H505 C514 0.930 . S
H506 C519 0.929 . S
H507 C517 0.929 . S
H508 C512 0.929 . S
H509 C518 0.929 . S
C510 H504 0.930 . S
C510 C511 1.367 1_545 S
C510 C518 1.378 . S
C511 C510 1.367 1_565 S
C511 C519 1.433 . S
C512 H508 0.929 . S
C512 C514 1.378 . S
C512 C516 1.350 . S
C513 C516 1.463 1_554 S
C513 C518 1.350 1_565 S
C513 N521 1.427 . S
C514 H505 0.930 . S
C514 C512 1.378 . S
C514 C515 1.368 . S
C515 C514 1.368 . S
C515 C517 1.433 1_565 S
C516 C512 1.350 . S
C516 C513 1.463 1_556 S
C516 N520 1.427 1_565 S
C517 H507 0.929 . S
C517 C515 1.433 1_545 S
C517 N520 1.384 . S
C518 H509 0.929 . S
C518 C510 1.378 . S
C518 C513 1.350 1_545 S
C519 H506 0.929 . S
C519 C511 1.433 . S
C519 N521 1.384 . S
N520 C516 1.427 1_545 S
N520 C517 1.384 . S
N521 C513 1.427 . S
N521 C519 1.384 . S
H522 C528 0.930 . S
H523 C532 0.930 . S
H524 C537 0.929 . S
H525 C535 0.929 . S
H526 C530 0.929 . S
H527 C536 0.929 . S
C528 H522 0.930 . S
C528 C529 1.367 . S
C528 C536 1.378 . S
C529 C528 1.367 . S
C529 C537 1.433 . S
C530 H526 0.929 . S
C530 C532 1.378 . S
C530 C534 1.350 . S
C531 C534 1.463 1_554 S
C531 C536 1.350 . S
C531 N539 1.427 . S
C532 H523 0.930 . S
C532 C530 1.378 . S
C532 C533 1.367 . S
C533 C532 1.367 . S
C533 C535 1.433 . S
C534 C530 1.350 . S
C534 C531 1.463 1_556 S
C534 N538 1.427 1_556 S
C535 H525 0.929 . S
C535 C533 1.433 . S
C535 N538 1.384 1_556 S
C536 H527 0.929 . S
C536 C528 1.378 . S
C536 C531 1.350 . S
C537 H524 0.929 . S
C537 C529 1.433 . S
C537 N539 1.384 . S
N538 C534 1.427 1_554 S
N538 C535 1.384 1_554 S
N539 C531 1.427 . S
N539 C537 1.384 . S
H540 C546 0.930 . S
H541 C550 0.930 . S
H542 C555 0.929 . S
H543 C553 0.929 . S
H544 C548 0.929 . S
H545 C554 0.929 . S
C546 H540 0.930 . S
C546 C547 1.367 . S
C546 C554 1.378 . S
C547 C546 1.367 . S
C547 C555 1.433 . S
C548 H544 0.929 . S
C548 C550 1.378 . S
C548 C552 1.350 . S
C549 C552 1.463 1_554 S
C549 C554 1.350 . S
C549 N557 1.427 . S
C550 H541 0.930 . S
C550 C548 1.378 . S
C550 C551 1.367 . S
C551 C550 1.367 . S
C551 C553 1.433 . S
C552 C548 1.350 . S
C552 C549 1.463 1_556 S
C552 N556 1.427 1_556 S
C553 H543 0.929 . S
C553 C551 1.433 . S
C553 N556 1.384 1_556 S
C554 H545 0.929 . S
C554 C546 1.378 . S
C554 C549 1.350 . S
C555 H542 0.929 . S
C555 C547 1.433 . S
C555 N557 1.384 . S
N556 C552 1.427 1_554 S
N556 C553 1.384 1_554 S
N557 C549 1.427 . S
N557 C555 1.384 . S
H558 C564 0.930 . S
H559 C568 0.930 . S
H560 C573 0.929 . S
H561 C571 0.929 . S
H562 C566 0.929 1_554 S
H563 C572 0.929 . S
C564 H558 0.930 . S
C564 C565 1.367 1_455 S
C564 C572 1.378 . S
C565 C564 1.367 1_655 S
C565 C573 1.433 . S
C566 H562 0.929 1_556 S
C566 C568 1.378 . S
C566 C570 1.350 . S
C567 C570 1.463 1_554 S
C567 C572 1.350 1_655 S
C567 N575 1.427 . S
C568 H559 0.930 . S
C568 C566 1.378 . S
C568 C569 1.367 . S
C569 C568 1.367 . S
C569 C571 1.433 1_655 S
C570 C566 1.350 . S
C570 C567 1.463 1_556 S
C570 N574 1.427 1_655 S
C571 H561 0.929 . S
C571 C569 1.433 1_455 S
C571 N574 1.384 . S
C572 H563 0.929 . S
C572 C564 1.378 . S
C572 C567 1.350 1_455 S
C573 H560 0.929 . S
C573 C565 1.433 . S
C573 N575 1.384 . S
N574 C570 1.427 1_455 S
N574 C571 1.384 . S
N575 C567 1.427 . S
N575 C573 1.384 . S
H576 C582 0.930 . S
H577 C586 0.930 . S
H578 C591 0.929 . S
H579 C589 0.929 . S
H580 C584 0.929 . S
H581 C590 0.929 . S
C582 H576 0.930 . S
C582 C583 1.367 . S
C582 C590 1.378 . S
C583 C582 1.367 . S
C583 C591 1.433 . S
C584 H580 0.929 . S
C584 C586 1.378 . S
C584 C588 1.350 1_655 S
C585 C588 1.463 . S
C585 C590 1.350 . S
C585 N593 1.427 . S
C586 H577 0.930 . S
C586 C584 1.378 . S
C586 C587 1.367 1_655 S
C587 C586 1.367 1_455 S
C587 C589 1.433 . S
C588 C584 1.350 1_455 S
C588 C585 1.463 . S
C588 N592 1.427 . S
C589 H579 0.929 . S
C589 C587 1.433 . S
C589 N592 1.384 . S
C590 H581 0.929 . S
C590 C582 1.378 . S
C590 C585 1.350 . S
C591 H578 0.929 . S
C591 C583 1.433 . S
C591 N593 1.384 . S
N592 C588 1.427 . S
N592 C589 1.384 . S
N593 C585 1.427 . S
N593 C591 1.384 . S
H594 C600 0.930 . S
H595 C604 0.930 . S
H596 C609 0.929 . S
H597 C607 0.923 1_565 S
H598 C602 0.929 . S
H599 C608 0.929 . S
C600 H594 0.930 . S
C600 C601 1.367 . S
C600 C608 1.378 . S
C601 C600 1.367 . S
C601 C609 1.433 . S
C602 H598 0.929 . S
C602 C604 1.378 . S
C602 C606 1.350 . S
C603 C606 1.463 . S
C603 C608 1.350 . S
C603 N611 1.427 . S
C604 H595 0.930 . S
C604 C602 1.378 . S
C604 C605 1.367 . S
C605 C604 1.367 . S
C605 C607 1.437 . S
C606 C602 1.350 . S
C606 C603 1.463 . S
C606 N610 1.427 . S
C607 H597 0.923 1_545 S
C607 C605 1.437 . S
C607 N610 1.387 . S
C608 H599 0.929 . S
C608 C600 1.378 . S
C608 C603 1.350 . S
C609 H596 0.929 . S
C609 C601 1.433 . S
C609 N611 1.384 . S
N610 C606 1.427 . S
N610 C607 1.387 . S
N611 C603 1.427 . S
N611 C609 1.384 . S
H612 C618 0.930 . S
H613 C622 0.930 . S
H614 C627 0.929 . S
H615 C625 0.929 . S
H616 C620 0.929 . S
H617 C626 0.929 . S
C618 H612 0.930 . S
C618 C619 1.367 . S
C618 C626 1.378 . S
C619 C618 1.367 . S
C619 C627 1.433 . S
C620 H616 0.929 . S
C620 C622 1.378 . S
C620 C624 1.350 . S
C621 C624 1.463 . S
C621 C626 1.350 . S
C621 N629 1.427 . S
C622 H613 0.930 . S
C622 C620 1.378 . S
C622 C623 1.367 . S
C623 C622 1.367 . S
C623 C625 1.433 . S
C624 C620 1.350 . S
C624 C621 1.463 . S
C624 N628 1.427 . S
C625 H615 0.929 . S
C625 C623 1.433 . S
C625 N628 1.384 . S
C626 H617 0.929 . S
C626 C618 1.378 . S
C626 C621 1.350 . S
C627 H614 0.929 . S
C627 C619 1.433 . S
C627 N629 1.384 . S
N628 C624 1.427 . S
N628 C625 1.384 . S
N629 C621 1.427 . S
N629 C627 1.384 . S
H630 C636 0.930 . S
H631 C640 0.930 . S
H632 C645 0.929 . S
H633 C643 0.929 . S
H634 C638 0.929 . S
H635 C644 0.929 . S
C636 H630 0.930 . S
C636 C637 1.367 . S
C636 C644 1.378 . S
C637 C636 1.367 . S
C637 C645 1.433 . S
C638 H634 0.929 . S
C638 C640 1.378 . S
C638 C642 1.350 . S
C639 C642 1.463 . S
C639 C644 1.350 . S
C639 N647 1.427 . S
C640 H631 0.930 . S
C640 C638 1.378 . S
C640 C641 1.367 . S
C641 C640 1.367 . S
C641 C643 1.433 . S
C642 C638 1.350 . S
C642 C639 1.463 . S
C642 N646 1.427 . S
C643 H633 0.929 . S
C643 C641 1.433 . S
C643 N646 1.384 . S
C644 H635 0.929 . S
C644 C636 1.378 . S
C644 C639 1.350 . S
C645 H632 0.929 . S
C645 C637 1.433 . S
C645 N647 1.384 . S
N646 C642 1.427 . S
N646 C643 1.384 . S
N647 C639 1.427 . S
N647 C645 1.384 . S
H648 C654 0.930 . S
H649 C658 0.930 . S
H650 C663 0.929 . S
H651 C661 0.929 . S
H652 C656 0.929 . S
H653 C662 0.929 . S
C654 H648 0.930 . S
C654 C655 1.367 . S
C654 C662 1.378 . S
C655 C654 1.367 . S
C655 C663 1.433 1_655 S
C656 H652 0.929 . S
C656 C658 1.378 . S
C656 C660 1.330 1_455 S
C657 C660 1.470 . S
C657 C662 1.350 . S
C657 N665 1.427 1_655 S
C658 H649 0.930 . S
C658 C656 1.378 . S
C658 C659 1.367 . S
C659 C658 1.367 . S
C659 C661 1.433 1_454 S
C660 C656 1.330 1_655 S
C660 C657 1.470 . S
C660 N664 1.442 . S
C661 H651 0.929 . S
C661 C659 1.433 1_656 S
C661 N664 1.384 1_556 S
C662 H653 0.929 . S
C662 C654 1.378 . S
C662 C657 1.350 . S
C663 H650 0.929 . S
C663 C655 1.433 1_455 S
C663 N665 1.384 . S
N664 C660 1.442 . S
N664 C661 1.384 1_554 S
N665 C657 1.427 1_455 S
N665 C663 1.384 . S
H666 C672 0.930 . S
H667 C676 0.930 1_556 S
H668 C681 0.929 . S
H669 C679 0.929 . S
H670 C674 0.929 . S
H671 C680 0.929 . S
C672 H666 0.930 . S
C672 C673 1.367 . S
C672 C680 1.378 . S
C673 C672 1.367 . S
C673 C681 1.433 1_565 S
C674 H670 0.929 . S
C674 C676 1.378 . S
C674 C678 1.373 . S
C675 C678 1.455 1_565 S
C675 C680 1.350 . S
C675 N683 1.427 1_565 S
C676 H667 0.930 1_554 S
C676 C674 1.378 . S
C676 C677 1.367 . S
C677 C676 1.367 . S
C677 C679 1.433 1_545 S
C678 C674 1.373 . S
C678 C675 1.455 1_545 S
C678 N682 1.410 1_545 S
C679 H669 0.929 . S
C679 C677 1.433 1_565 S
C679 N682 1.384 . S
C680 H671 0.929 . S
C680 C672 1.378 . S
C680 C675 1.350 . S
C681 H668 0.929 . S
C681 C673 1.433 1_545 S
C681 N683 1.384 . S
N682 C678 1.410 1_565 S
N682 C679 1.384 . S
N683 C675 1.427 1_545 S
N683 C681 1.384 . S
H684 C690 0.930 . S
H685 C694 0.930 1_556 S
H686 C699 0.929 . S
H687 C697 0.929 . S
H688 C692 0.929 . S
H689 C698 0.929 . S
C690 H684 0.930 . S
C690 C691 1.367 . S
C690 C698 1.378 . S
C691 C690 1.367 . S
C691 C699 1.433 . S
C692 H688 0.929 . S
C692 C694 1.378 . S
C692 C696 1.350 . S
C693 C696 1.463 . S
C693 C698 1.350 . S
C693 N701 1.427 . S
C694 H685 0.930 1_554 S
C694 C692 1.378 . S
C694 C695 1.367 . S
C695 C694 1.367 . S
C695 C697 1.433 . S
C696 C692 1.350 . S
C696 C693 1.463 . S
C696 N700 1.427 . S
C697 H687 0.929 . S
C697 C695 1.433 . S
C697 N700 1.384 . S
C698 H689 0.929 . S
C698 C690 1.378 . S
C698 C693 1.350 . S
C699 H686 0.929 . S
C699 C691 1.433 . S
C699 N701 1.384 . S
N700 C696 1.427 . S
N700 C697 1.384 . S
N701 C693 1.427 . S
N701 C699 1.384 . S
H702 C708 0.930 . S
H703 C712 0.930 . S
H704 C717 0.929 . S
H705 C715 0.929 . S
H706 C710 0.929 . S
H707 C716 0.929 . S
C708 H702 0.930 . S
C708 C709 1.367 . S
C708 C716 1.378 . S
C709 C708 1.367 . S
C709 C717 1.433 . S
C710 H706 0.929 . S
C710 C712 1.378 . S
C710 C714 1.350 . S
C711 C714 1.463 . S
C711 C716 1.350 . S
C711 N719 1.427 . S
C712 H703 0.930 . S
C712 C710 1.378 . S
C712 C713 1.367 . S
C713 C712 1.367 . S
C713 C715 1.433 1_554 S
C714 C710 1.350 . S
C714 C711 1.463 . S
C714 N718 1.427 . S
C715 H705 0.929 . S
C715 C713 1.433 1_556 S
C715 N718 1.384 1_556 S
C716 H707 0.929 . S
C716 C708 1.378 . S
C716 C711 1.350 . S
C717 H704 0.929 . S
C717 C709 1.433 . S
C717 N719 1.384 . S
N718 C714 1.427 . S
N718 C715 1.384 1_554 S
N719 C711 1.427 . S
N719 C717 1.384 . S
H720 C726 0.930 . S
H721 C730 0.930 . S
H722 C735 0.929 . S
H723 C733 0.929 . S
H724 C728 0.929 . S
H725 C734 0.929 . S
C726 H720 0.930 . S
C726 C727 1.367 . S
C726 C734 1.378 . S
C727 C726 1.367 . S
C727 C735 1.433 . S
C728 H724 0.929 . S
C728 C730 1.378 . S
C728 C732 1.350 . S
C729 C732 1.463 . S
C729 C734 1.350 . S
C729 N737 1.427 . S
C730 H721 0.930 . S
C730 C728 1.378 . S
C730 C731 1.367 . S
C731 C730 1.367 . S
C731 C733 1.433 . S
C732 C728 1.350 . S
C732 C729 1.463 . S
C732 N736 1.427 . S
C733 H723 0.929 . S
C733 C731 1.433 . S
C733 N736 1.384 . S
C734 H725 0.929 . S
C734 C726 1.378 . S
C734 C729 1.350 . S
C735 H722 0.929 . S
C735 C727 1.433 . S
C735 N737 1.384 . S
N736 C732 1.427 . S
N736 C733 1.384 . S
N737 C729 1.427 . S
N737 C735 1.384 . S
H738 C744 0.930 . S
H739 C748 0.930 . S
H740 C753 0.929 1_554 S
H741 C751 0.929 . S
H742 C746 0.929 . S
H743 C752 0.929 . S
C744 H738 0.930 . S
C744 C745 1.367 . S
C744 C752 1.378 . S
C745 C744 1.367 . S
C745 C753 1.433 . S
C746 H742 0.929 . S
C746 C748 1.378 . S
C746 C750 1.350 . S
C747 C750 1.463 . S
C747 C752 1.350 . S
C747 N755 1.427 . S
C748 H739 0.930 . S
C748 C746 1.378 . S
C748 C749 1.367 . S
C749 C748 1.367 . S
C749 C751 1.433 . S
C750 C746 1.350 . S
C750 C747 1.463 . S
C750 N754 1.427 . S
C751 H741 0.929 . S
C751 C749 1.433 . S
C751 N754 1.384 . S
C752 H743 0.929 . S
C752 C744 1.378 . S
C752 C747 1.350 . S
C753 H740 0.929 1_556 S
C753 C745 1.433 . S
C753 N755 1.384 . S
N754 C750 1.427 . S
N754 C751 1.384 . S
N755 C747 1.427 . S
N755 C753 1.384 . S
H756 C762 0.930 . S
H757 C766 0.930 . S
H758 C771 0.929 . S
H759 C769 0.929 . S
H760 C764 0.929 . S
H761 C770 0.929 . S
C762 H756 0.930 . S
C762 C763 1.367 . S
C762 C770 1.378 . S
C763 C762 1.367 . S
C763 C771 1.433 . S
C764 H760 0.929 . S
C764 C766 1.378 . S
C764 C768 1.350 . S
C765 C768 1.463 . S
C765 C770 1.350 . S
C765 N773 1.427 . S
C766 H757 0.930 . S
C766 C764 1.378 . S
C766 C767 1.367 . S
C767 C766 1.367 . S
C767 C769 1.433 . S
C768 C764 1.350 . S
C768 C765 1.463 . S
C768 N772 1.427 . S
C769 H759 0.929 . S
C769 C767 1.433 . S
C769 N772 1.384 . S
C770 H761 0.929 . S
C770 C762 1.378 . S
C770 C765 1.350 . S
C771 H758 0.929 . S
C771 C763 1.433 . S
C771 N773 1.384 . S
N772 C768 1.427 . S
N772 C769 1.384 . S
N773 C765 1.427 . S
N773 C771 1.384 . S
H774 C780 0.930 . S
H775 C784 0.930 . S
H776 C789 0.929 . S
H777 C787 0.929 . S
H778 C782 0.929 . S
H779 C788 0.929 . S
C780 H774 0.930 . S
C780 C781 1.367 . S
C780 C788 1.378 . S
C781 C780 1.367 . S
C781 C789 1.433 . S
C782 H778 0.929 . S
C782 C784 1.378 . S
C782 C786 1.350 . S
C783 C786 1.463 . S
C783 C788 1.350 . S
C783 N791 1.427 . S
C784 H775 0.930 . S
C784 C782 1.378 . S
C784 C785 1.367 . S
C785 C784 1.367 . S
C785 C787 1.433 . S
C786 C782 1.350 . S
C786 C783 1.463 . S
C786 N790 1.427 . S
C787 H777 0.929 . S
C787 C785 1.433 . S
C787 N790 1.384 . S
C788 H779 0.929 . S
C788 C780 1.378 . S
C788 C783 1.350 . S
C789 H776 0.929 . S
C789 C781 1.433 . S
C789 N791 1.384 . S
N790 C786 1.427 . S
N790 C787 1.384 . S
N791 C783 1.427 . S
N791 C789 1.384 . S
H792 C798 0.930 . S
H793 C802 0.930 . S
H794 C807 0.931 . S
H795 C805 0.929 . S
H796 C800 0.940 . S
H797 C806 0.929 . S
C798 H792 0.930 . S
C798 C799 1.367 . S
C798 C806 1.378 . S
C799 C798 1.367 . S
C799 C807 1.433 . S
C800 H796 0.940 . S
C800 C802 1.381 . S
C800 C804 1.337 1_455 S
C801 C804 1.463 . S
C801 C806 1.350 . S
C801 N809 1.427 . S
C802 H793 0.930 . S
C802 C800 1.381 . S
C802 C803 1.367 1_455 S
C803 C802 1.367 1_655 S
C803 C805 1.433 . S
C804 C800 1.337 1_655 S
C804 C801 1.463 . S
C804 N808 1.427 . S
C805 H795 0.929 . S
C805 C803 1.433 . S
C805 N808 1.384 . S
C806 H797 0.929 . S
C806 C798 1.378 . S
C806 C801 1.350 . S
C807 H794 0.931 . S
C807 C799 1.433 . S
C807 N809 1.384 . S
N808 C804 1.427 . S
N808 C805 1.384 . S
N809 C801 1.427 . S
N809 C807 1.384 . S
H810 C816 0.930 . S
H811 C820 0.930 . S
H812 C825 0.929 1_545 S
H813 C823 0.929 . S
H814 C818 0.929 . S
H815 C824 0.929 . S
C816 H810 0.930 . S
C816 C817 1.367 . S
C816 C824 1.378 . S
C817 C816 1.367 . S
C817 C825 1.433 . S
C818 H814 0.929 . S
C818 C820 1.378 . S
C818 C822 1.350 1_545 S
C819 C822 1.463 . S
C819 C824 1.350 . S
C819 N827 1.427 . S
C820 H811 0.930 . S
C820 C818 1.378 . S
C820 C821 1.367 1_545 S
C821 C820 1.367 1_565 S
C821 C823 1.433 . S
C822 C818 1.350 1_565 S
C822 C819 1.463 . S
C822 N826 1.427 . S
C823 H813 0.929 . S
C823 C821 1.433 . S
C823 N826 1.384 . S
C824 H815 0.929 . S
C824 C816 1.378 . S
C824 C819 1.350 . S
C825 H812 0.929 1_565 S
C825 C817 1.433 . S
C825 N827 1.384 . S
N826 C822 1.427 . S
N826 C823 1.384 . S
N827 C819 1.427 . S
N827 C825 1.384 . S
H828 C834 0.930 . S
H829 C838 0.930 . S
H830 C843 0.929 . S
H831 C841 0.929 . S
H832 C836 0.929 . S
H833 C842 0.929 . S
C834 H828 0.930 . S
C834 C835 1.367 . S
C834 C842 1.378 . S
C835 C834 1.367 . S
C835 C843 1.433 . S
C836 H832 0.929 . S
C836 C838 1.378 . S
C836 C840 1.350 . S
C837 C840 1.463 . S
C837 C842 1.350 . S
C837 N845 1.427 . S
C838 H829 0.930 . S
C838 C836 1.378 . S
C838 C839 1.367 . S
C839 C838 1.367 . S
C839 C841 1.433 . S
C840 C836 1.350 . S
C840 C837 1.463 . S
C840 N844 1.427 . S
C841 H831 0.929 . S
C841 C839 1.433 . S
C841 N844 1.384 . S
C842 H833 0.929 . S
C842 C834 1.378 . S
C842 C837 1.350 . S
C843 H830 0.929 . S
C843 C835 1.433 . S
C843 N845 1.384 . S
N844 C840 1.427 . S
N844 C841 1.384 . S
N845 C837 1.427 . S
N845 C843 1.384 . S
H846 C852 0.930 . S
H847 C856 0.930 . S
H848 C861 0.929 . S
H849 C859 0.929 . S
H850 C854 0.929 . S
H851 C860 0.929 . S
C852 H846 0.930 . S
C852 C853 1.367 . S
C852 C860 1.378 . S
C853 C852 1.367 . S
C853 C861 1.433 . S
C854 H850 0.929 . S
C854 C856 1.378 . S
C854 C858 1.350 . S
C855 C858 1.463 . S
C855 C860 1.350 . S
C855 N863 1.427 . S
C856 H847 0.930 . S
C856 C854 1.378 . S
C856 C857 1.367 . S
C857 C856 1.367 . S
C857 C859 1.433 . S
C858 C854 1.350 . S
C858 C855 1.463 . S
C858 N862 1.427 . S
C859 H849 0.929 . S
C859 C857 1.433 . S
C859 N862 1.384 . S
C860 H851 0.929 . S
C860 C852 1.378 . S
C860 C855 1.350 . S
C861 H848 0.929 . S
C861 C853 1.433 . S
C861 N863 1.384 . S
N862 C858 1.427 . S
N862 C859 1.384 . S
N863 C855 1.427 . S
N863 C861 1.384 . S
C439 C76 1.875 . S
C443 C159 2.025 . S
C461 C236 2.039 . S
C457 C88 1.873 . S
C479 C327 2.020 . S
C475 C52 1.868 . S
C497 C411 2.013 . S
C493 C64 1.861 . S
C515 C170 2.031 1_565 S
C511 C28 1.893 . S
C529 C40 1.894 . S
C533 C247 2.042 . S
C547 C4 1.888 . S
C551 C338 2.026 . S
C565 C16 1.870 . S
C569 C422 2.017 1_655 S
C587 C154 0.593 1_455 S
C583 C69 0.580 . S
C605 C249 0.625 . S
C601 C81 0.548 . S
C623 C322 0.594 . S
C619 C93 0.591 . S
C637 C57 0.557 . S
C641 C406 0.618 . S
C655 C21 0.602 . S
C659 C165 0.602 1_554 S
C677 C238 0.610 . S
C673 C33 0.574 . S
C695 C333 0.591 1_554 S
C691 C45 0.591 . S
C709 C9 0.573 . S
C713 C417 0.621 1_554 S
C727 C66 1.932 . S
C731 C163 2.121 . S
C745 C78 1.954 . S
C749 C254 2.140 . S
C767 C331 2.140 . S
C763 C90 1.958 . S
C785 C415 2.142 . S
C781 C54 1.952 . S
C799 C18 1.940 . S
C803 C152 2.126 . S
C821 C243 2.139 1_565 S
C817 C30 1.945 . S
C839 C320 2.136 . S
C835 C42 1.938 . S
C853 C6 1.944 . S
C857 C404 2.141 . S
