# Generated by pormake.
# Topology zzz, (3,6)-cn, num edge types: 1
# Building blocks:
#     Node 0, Type 0, BuildingBlock: BETDIP_clean_linker_0, # of connection points: 3
#     Node 1, Type 0, BuildingBlock: BETDIP_clean_linker_0, # of connection points: 3
#     Node 2, Type 0, BuildingBlock: BETDIP_clean_linker_0, # of connection points: 3
#     Node 3, Type 0, BuildingBlock: BETDIP_clean_linker_0, # of connection points: 3
#     Node 4, Type 0, BuildingBlock: BETDIP_clean_linker_0, # of connection points: 3
#     Node 5, Type 0, BuildingBlock: BETDIP_clean_linker_0, # of connection points: 3
#     Node 6, Type 0, BuildingBlock: BETDIP_clean_linker_0, # of connection points: 3
#     Node 7, Type 0, BuildingBlock: BETDIP_clean_linker_0, # of connection points: 3
#     Node 8, Type 1, BuildingBlock: KUMBUR_clean_sbu_1, # of connection points: 6
#     Node 9, Type 1, BuildingBlock: KUMBUR_clean_sbu_1, # of connection points: 6
#     Node 10, Type 1, BuildingBlock: KUMBUR_clean_sbu_1, # of connection points: 6
#     Node 11, Type 1, BuildingBlock: KUMBUR_clean_sbu_1, # of connection points: 6
#     Edge 12, Type (0, 1), BuildingBlock: OJICUG_clean_linker_0, # of connection points: 2
#     Edge 13, Type (0, 1), BuildingBlock: OJICUG_clean_linker_0, # of connection points: 2
#     Edge 14, Type (0, 1), BuildingBlock: OJICUG_clean_linker_0, # of connection points: 2
#     Edge 15, Type (0, 1), BuildingBlock: OJICUG_clean_linker_0, # of connection points: 2
#     Edge 16, Type (0, 1), BuildingBlock: OJICUG_clean_linker_0, # of connection points: 2
#     Edge 17, Type (0, 1), BuildingBlock: OJICUG_clean_linker_0, # of connection points: 2
#     Edge 18, Type (0, 1), BuildingBlock: OJICUG_clean_linker_0, # of connection points: 2
#     Edge 19, Type (0, 1), BuildingBlock: OJICUG_clean_linker_0, # of connection points: 2
#     Edge 20, Type (0, 1), BuildingBlock: OJICUG_clean_linker_0, # of connection points: 2
#     Edge 21, Type (0, 1), BuildingBlock: OJICUG_clean_linker_0, # of connection points: 2
#     Edge 22, Type (0, 1), BuildingBlock: OJICUG_clean_linker_0, # of connection points: 2
#     Edge 23, Type (0, 1), BuildingBlock: OJICUG_clean_linker_0, # of connection points: 2
#     Edge 24, Type (0, 1), BuildingBlock: OJICUG_clean_linker_0, # of connection points: 2
#     Edge 25, Type (0, 1), BuildingBlock: OJICUG_clean_linker_0, # of connection points: 2
#     Edge 26, Type (0, 1), BuildingBlock: OJICUG_clean_linker_0, # of connection points: 2
#     Edge 27, Type (0, 1), BuildingBlock: OJICUG_clean_linker_0, # of connection points: 2
#     Edge 28, Type (0, 1), BuildingBlock: OJICUG_clean_linker_0, # of connection points: 2
#     Edge 29, Type (0, 1), BuildingBlock: OJICUG_clean_linker_0, # of connection points: 2
#     Edge 30, Type (0, 1), BuildingBlock: OJICUG_clean_linker_0, # of connection points: 2
#     Edge 31, Type (0, 1), BuildingBlock: OJICUG_clean_linker_0, # of connection points: 2
#     Edge 32, Type (0, 1), BuildingBlock: OJICUG_clean_linker_0, # of connection points: 2
#     Edge 33, Type (0, 1), BuildingBlock: OJICUG_clean_linker_0, # of connection points: 2
#     Edge 34, Type (0, 1), BuildingBlock: OJICUG_clean_linker_0, # of connection points: 2
#     Edge 35, Type (0, 1), BuildingBlock: OJICUG_clean_linker_0, # of connection points: 2
# Relax obj value: 0.247
# Max RMSD: 0.125
# Mean RMSD: 0.085
data_MOF--net-zzz--node1-KUMBUR_clean_sbu_1--node2-BETDIP_clean_linker_0--edge1-OJICUG_clean_linker_0
_symmetry_space_group_name_H-M    P1
_symmetry_Int_Tables_number       1
_symmetry_cell_setting            triclinic
loop_
_symmetry_equiv_pos_as_xyz
'x, y, z'
_cell_length_a     36.65002
_cell_length_b     36.681172
_cell_length_c     11.530785
_cell_angle_alpha  89.939763
_cell_angle_beta   90.362095
_cell_angle_gamma 90.242995
loop_
_atom_site_label
_atom_site_type_symbol
_atom_site_fract_x
_atom_site_fract_y
_atom_site_fract_z
_atom_type_partial_charge
H0 H 0.78121 0.52663 0.50467 0.0
H1 H 0.75155 0.59885 0.22357 0.0
H2 H 0.86293 0.58965 0.32933 0.0
H3 H 0.6938 0.59436 0.33006 0.0
C4 C 0.69428 0.56612 0.3016 0.0
C5 C 0.78854 0.54713 0.44131 0.0
C6 C 0.82563 0.56094 0.43799 0.0
C7 C 0.76105 0.56069 0.36122 0.0
C8 C 0.77157 0.58792 0.28347 0.0
C9 C 0.80833 0.59421 0.2603 0.0
C10 C 0.83457 0.58343 0.34344 0.0
N11 N 0.72493 0.5447 0.34422 0.0
H12 H 0.04316 0.79498 0.47346 0.0
H13 H 0.96309 0.75721 0.22437 0.0
H14 H 0.96503 0.86899 0.3268 0.0
H15 H 0.97783 0.70104 0.32321 0.0
C16 C 1.00488 0.70419 0.28615 0.0
C17 C 0.01963 0.79997 0.41861 0.0
C18 C 1.00182 0.83512 0.42206 0.0
C19 C 1.00583 0.77113 0.34416 0.0
C20 C 0.9746 0.77851 0.27823 0.0
C21 C 0.96383 0.81437 0.25728 0.0
C22 C 0.97488 0.84153 0.33697 0.0
N23 N 0.02462 0.73696 0.32093 0.0
H24 H 0.75981 0.07013 0.40299 0.0
H25 H 0.81447 0.97829 0.25114 0.0
H26 H 0.70841 0.96455 0.40055 0.0
H27 H 0.86699 1.01622 0.34029 0.0
C28 C 0.85842 0.03493 0.27224 0.0
C29 C 0.76079 0.04123 0.38447 0.0
C30 C 0.73055 1.01825 0.41622 0.0
C31 C 0.79203 0.02635 0.32623 0.0
C32 C 0.79164 0.98918 0.29859 0.0
C33 C 0.75982 0.96803 0.30965 0.0
C34 C 0.73181 0.98155 0.38141 0.0
N35 N 0.82142 0.04841 0.27948 0.0
H36 H 0.52489 0.78789 0.53222 0.0
H37 H 0.57455 0.81334 0.20292 0.0
H38 H 0.5582 0.70236 0.30148 0.0
H39 H 0.58605 0.86949 0.30616 0.0
C40 C 0.55655 0.87242 0.30559 0.0
C41 C 0.53829 0.7792 0.45363 0.0
C42 C 0.54532 0.74076 0.43524 0.0
C43 C 0.54835 0.80611 0.36702 0.0
C44 C 0.56659 0.79393 0.26902 0.0
C45 C 0.56738 0.75717 0.24074 0.0
C46 C 0.55809 0.73087 0.32484 0.0
N47 N 0.53645 0.84391 0.36611 0.0
H48 H 0.28137 0.50009 0.0504 0.0
H49 H 0.31534 0.56687 0.34064 0.0
H50 H 0.21213 0.58626 0.17684 0.0
H51 H 0.33116 0.49052 0.38921 0.0
C52 C 0.35099 0.50163 0.32898 0.0
C53 C 0.27609 0.52214 0.11017 0.0
C54 C 0.24261 0.54276 0.09939 0.0
C55 C 0.30266 0.53066 0.20013 0.0
C56 C 0.29541 0.55963 0.27461 0.0
C57 C 0.26347 0.57988 0.26482 0.0
C58 C 0.23754 0.57122 0.179 0.0
N59 N 0.33742 0.51243 0.21543 0.0
H60 H 0.06583 0.28509 0.05685 0.0
H61 H 0.98675 0.32413 0.30344 0.0
H62 H 0.96958 0.22168 0.1343 0.0
H63 H 0.04726 0.33423 0.40557 0.0
C64 C 0.0527 0.35397 0.33743 0.0
C65 C 0.04034 0.28162 0.10249 0.0
C66 C 1.0177 0.25002 0.07867 0.0
C67 C 0.02943 0.30855 0.18734 0.0
C68 C 0.99596 0.30369 0.24265 0.0
C69 C 0.9746 0.27263 0.22472 0.0
C70 C 0.98554 0.24647 0.14337 0.0
N71 N 0.0507 0.34064 0.21872 0.0
H72 H 0.2818 0.08215 0.07895 0.0
H73 H 0.24562 0.98952 0.2813 0.0
H74 H 0.34383 0.98282 0.08289 0.0
H75 H 0.23272 0.03877 0.40774 0.0
C76 C 0.21442 0.05215 0.34678 0.0
C77 C 0.2849 0.05407 0.10608 0.0
C78 C 0.31561 0.03342 0.06619 0.0
C79 C 0.25896 0.03826 0.18507 0.0
C80 C 0.26456 1.0021 0.22145 0.0
C81 C 0.2951 0.98224 0.18629 0.0
C82 C 0.31944 0.99768 0.10652 0.0
N83 N 0.22795 0.05805 0.2305 0.0
H84 H 0.50756 0.29182 0.09969 0.0
H85 H 0.59235 0.25667 0.33641 0.0
H86 H 0.60145 0.35998 0.16689 0.0
H87 H 0.57201 0.1982 0.23874 0.0
C88 C 0.54684 0.20306 0.28558 0.0
C89 C 0.53369 0.29637 0.14153 0.0
C90 C 0.55457 0.32882 0.11404 0.0
C91 C 0.5478 0.26938 0.222 0.0
C92 C 0.58168 0.27612 0.27427 0.0
C93 C 0.60051 0.3088 0.25723 0.0
C94 C 0.5872 0.33422 0.1765 0.0
N95 N 0.52807 0.23694 0.25917 0.0
Tb96 Tb 0.98897 0.05468 0.6307 0.0
C97 C 0.13587 0.06034 0.93926 0.0
N98 N 0.12255 0.03539 0.86337 0.0
C99 C 0.18314 0.02407 0.79439 0.0
C100 C 0.17335 0.06893 0.94415 0.0
C101 C 0.14568 1.01648 0.79326 0.0
C102 C 0.19703 0.05069 0.86943 0.0
C103 C 0.12437 0.10125 0.09924 0.0
C104 C 0.11185 0.07633 1.01486 0.0
C105 C 0.16149 0.11098 0.1023 0.0
C106 C 0.18591 0.09501 0.02431 0.0
Tb107 Tb 0.06062 0.0271 0.86094 0.0
N108 N 0.07609 0.06706 1.00612 0.0
C109 C 0.09918 0.11558 0.1775 0.0
C110 C 0.05155 0.08009 0.08463 0.0
C111 C 0.06267 0.10467 0.17079 0.0
H112 H 0.13532 0.99519 0.73725 0.0
H113 H 0.04302 0.11534 0.23149 0.0
H114 H 0.91317 1.01776 0.74153 0.0
H115 H 0.06488 0.023 0.23866 0.0
H116 H 0.02326 0.07215 0.08013 0.0
H117 H 0.10764 0.13487 0.24358 0.0
H118 H 0.04473 0.06337 0.39469 0.0
H119 H 0.20128 1.00925 0.73785 0.0
H120 H 0.17164 0.13055 0.16509 0.0
H121 H 0.2145 0.10252 0.02812 0.0
H122 H 0.86982 0.96893 0.68932 0.0
H123 H 0.22607 0.05641 0.87063 0.0
H124 H 0.03048 0.96648 0.19649 0.0
N125 N 0.94793 1.0085 0.59701 0.0
C126 C 0.95359 0.98875 0.49898 0.0
C127 C 0.89333 0.97413 0.63538 0.0
C128 C 0.92948 0.96042 0.46657 0.0
C129 C 0.91816 1.00164 0.66521 0.0
C130 C 0.89897 0.95346 0.53562 0.0
N131 N 1.006 0.02527 0.46289 0.0
C132 C 0.03192 0.03702 0.38627 0.0
C133 C 0.99217 0.97474 0.33522 0.0
C134 C 0.98438 0.99633 0.43317 0.0
C135 C 0.02291 0.98318 0.26958 0.0
C136 C 0.04238 1.01499 0.29346 0.0
H137 H 0.8798 0.93199 0.51324 0.0
H138 H 0.91856 0.91778 0.34148 0.0
H139 H 0.97393 0.92982 0.2276 0.0
O140 O 0.9818 0.10191 0.52696 0.0
O141 O 0.99387 0.99686 0.69483 0.0
O142 O 0.05422 0.98878 0.71196 0.0
O143 O 0.93707 0.06689 0.56448 0.0
O144 O 0.04726 0.07134 0.59461 0.0
O145 O 0.07697 0.02406 0.67936 0.0
O146 O 0.03314 0.98956 0.96458 0.0
O147 O 0.05588 0.08759 0.84378 0.0
O148 O 0.99901 0.09846 0.76202 0.0
O149 O 0.09195 0.98776 0.95004 0.0
O150 O 1.00328 0.03066 0.92688 0.0
O151 O 0.96291 0.0594 0.80116 0.0
C152 C 0.02241 0.97571 0.67838 0.0
C153 C 0.92452 0.12893 0.56482 0.0
C154 C 0.90078 0.18979 0.53193 0.0
C155 C 0.88517 0.18972 0.64254 0.0
C156 C 0.90835 0.1288 0.67526 0.0
C157 C 0.88856 0.15898 0.71335 0.0
C158 C 0.92007 0.15917 0.49322 0.0
C159 C 0.07698 0.05106 0.60526 0.0
C160 C 0.94656 0.09812 0.52407 0.0
C161 C 0.93689 0.93952 0.36783 0.0
C162 C 0.96846 0.94627 0.30342 0.0
C163 C 0.02808 0.10961 0.82193 0.0
C164 C 0.05831 0.9324 0.93526 0.0
C165 C 1.01569 0.88187 0.90358 0.0
C166 C 0.03937 0.86791 0.81873 0.0
C167 C 0.08189 0.91767 0.85224 0.0
C168 C 0.02617 0.91379 0.96264 0.0
C169 C 0.07254 0.88531 0.79543 0.0
C170 C 0.97066 0.04467 0.90268 0.0
C171 C 0.06248 0.96992 0.97841 0.0
H172 H 0.87123 0.21361 0.6747 0.0
H173 H 0.91133 0.10564 0.73244 0.0
H174 H 0.87661 0.15884 0.79896 0.0
H175 H 0.93336 0.15965 0.40936 0.0
H176 H 0.03255 0.84356 0.77033 0.0
H177 H 0.10671 0.93176 0.82785 0.0
H178 H 1.00926 0.92495 0.03042 0.0
H179 H 0.09054 0.87428 0.73032 0.0
Tb180 Tb 0.54393 0.06407 0.89022 0.0
C181 C 0.52881 0.91231 0.71604 0.0
N182 N 0.54307 0.94195 0.66072 0.0
C183 C 0.59284 0.90522 0.59294 0.0
C184 C 0.54664 0.87827 0.71423 0.0
C185 C 0.57439 0.93847 0.59741 0.0
C186 C 0.57907 0.87506 0.6521 0.0
C187 C 0.48062 0.88613 0.83365 0.0
C188 C 0.496 0.91611 0.77443 0.0
C189 C 0.4986 0.85242 0.83341 0.0
C190 C 0.53144 0.84845 0.7735 0.0
Tb191 Tb 0.50828 0.99405 0.66888 0.0
N192 N 0.47947 0.94933 0.77436 0.0
C193 C 0.44747 0.89081 0.89087 0.0
C194 C 0.4461 0.95324 0.82459 0.0
C195 C 0.42996 0.92443 0.88527 0.0
H196 H 0.58491 0.96056 0.54605 0.0
H197 H 0.40372 0.92805 0.92616 0.0
H198 H 0.50646 0.05764 0.14987 0.0
H199 H 0.60389 0.18199 0.68129 0.0
H200 H 0.43114 0.97798 0.81605 0.0
H201 H 0.43481 0.86849 0.93751 0.0
H202 H 0.59863 0.11649 0.7281 0.0
H203 H 0.61748 0.90277 0.5423 0.0
H204 H 0.48716 0.8292 0.87867 0.0
H205 H 0.5448 0.82215 0.77322 0.0
H206 H 0.46947 0.09773 0.27568 0.0
H207 H 0.59339 0.84932 0.64783 0.0
H208 H 0.5646 0.2268 0.78097 0.0
N209 N 0.51896 0.09982 0.02993 0.0
C210 C 0.51672 0.13573 1.00478 0.0
C211 C 0.48249 0.10875 0.19921 0.0
C212 C 0.49595 0.15963 0.07268 0.0
C213 C 0.50375 0.08622 0.12871 0.0
C214 C 0.4778 0.14544 0.16937 0.0
N215 N 0.55687 0.12412 0.85338 0.0
C216 C 0.58192 0.13579 0.77394 0.0
C217 C 0.53854 0.1861 0.88894 0.0
C218 C 0.53703 0.14857 0.91372 0.0
C219 C 0.56252 0.19814 0.80283 0.0
C220 C 0.58481 0.17292 0.74664 0.0
H221 H 0.46138 0.16282 0.22397 0.0
H222 H 0.47821 0.2156 0.09207 0.0
H223 H 0.51661 0.23908 0.93327 0.0
O224 O 0.58339 0.02559 0.9268 0.0
O225 O 0.52305 0.0913 0.7311 0.0
O226 O 0.51892 0.048 0.58454 0.0
O227 O 0.58273 0.077 0.02078 0.0
O228 O 0.58508 0.05124 0.75396 0.0
O229 O 0.56085 1.01595 0.60484 0.0
O230 O 0.45806 0.98896 0.58121 0.0
O231 O 0.53657 0.97718 0.8327 0.0
O232 O 0.51645 1.01591 0.96873 0.0
O233 O 0.50688 0.96691 0.50799 0.0
O234 O 0.46464 0.03006 0.74204 0.0
O235 O 0.48606 0.04988 0.91978 0.0
C236 C 0.52021 0.08246 0.62041 0.0
C237 C 0.63926 0.04477 0.9956 0.0
C238 C 0.69355 1.00639 1.00302 0.0
C239 C 0.71494 0.03775 0.98051 0.0
C240 C 0.66079 0.07558 0.97391 0.0
C241 C 0.69857 0.07185 0.9648 0.0
C242 C 0.65558 1.01044 1.00609 0.0
C243 C 0.58844 0.03383 0.65386 0.0
C244 C 0.5995 0.04593 1.00415 0.0
C245 C 0.49478 0.1968 0.04299 0.0
C246 C 0.51653 0.21015 0.9523 0.0
C247 C 0.52511 0.9824 0.9397 0.0
C248 C 0.45168 0.9334 0.48101 0.0
C249 C 0.39481 0.90359 0.42371 0.0
C250 C 0.41176 0.8695 0.43075 0.0
C251 C 0.4684 0.89901 0.48888 0.0
C252 C 0.4149 0.93527 0.44947 0.0
C253 C 0.4484 0.86727 0.46474 0.0
C254 C 0.45879 0.04387 0.84674 0.0
C255 C 0.47155 0.96796 0.50176 0.0
H256 H 0.74442 0.0366 0.98001 0.0
H257 H 0.64851 0.10219 0.96307 0.0
H258 H 0.71537 0.09563 0.9484 0.0
H259 H 0.63815 0.98689 0.0189 0.0
H260 H 0.39687 0.84488 0.40864 0.0
H261 H 0.49701 0.8966 0.51015 0.0
H262 H 0.40217 0.96179 0.44032 0.0
H263 H 0.46158 0.84096 0.46989 0.0
Tb264 Tb 0.57226 0.52491 0.66597 0.0
C265 C 0.42423 0.49837 0.94089 0.0
N266 N 0.434 0.52168 0.8547 0.0
C267 C 0.37395 0.51648 0.77091 0.0
C268 C 0.38897 0.48287 0.94483 0.0
C269 C 0.4091 0.53149 0.77138 0.0
C270 C 0.36386 0.49197 0.85776 0.0
C271 C 0.44052 0.46687 0.11865 0.0
C272 C 0.44957 0.49054 0.02663 0.0
C273 C 0.40553 0.45119 0.12273 0.0
C274 C 0.37983 0.45912 0.0359 0.0
Tb275 Tb 0.492 0.54531 0.86739 0.0
N276 N 0.48349 0.50539 1.01786 0.0
C277 C 0.46714 0.45917 0.20253 0.0
C278 C 0.50937 0.49837 0.10069 0.0
C279 C 0.50172 0.47491 0.19324 0.0
H280 H 0.41565 0.55186 0.70713 0.0
H281 H 0.52254 0.46903 0.25746 0.0
H282 H 0.64 0.5653 0.81363 0.0
H283 H 0.51059 0.55625 0.24641 0.0
H284 H 0.53599 0.51065 0.09618 0.0
H285 H 0.46137 0.44095 0.27418 0.0
H286 H 0.52442 0.51665 0.41175 0.0
H287 H 0.35449 0.52429 0.7045 0.0
H288 H 0.39808 0.43289 0.19259 0.0
H289 H 0.35288 0.44698 0.04046 0.0
H290 H 0.68073 0.61827 0.78798 0.0
H291 H 0.33649 0.48068 0.8578 0.0
H292 H 0.54512 0.61322 0.21781 0.0
N293 N 0.61108 0.57393 0.65512 0.0
C294 C 0.60855 0.59402 0.55597 0.0
C295 C 0.66038 0.6119 0.72258 0.0
C296 C 0.63123 0.62467 0.53846 0.0
C297 C 0.63695 0.58212 0.7375 0.0
C298 C 0.65745 0.63333 0.62288 0.0
N299 N 0.56015 0.55498 0.49446 0.0
C300 C 0.5373 0.54301 0.4081 0.0
C301 C 0.57682 0.60672 0.37543 0.0
C302 C 0.58159 0.58493 0.47528 0.0
C303 C 0.55006 0.59684 0.29457 0.0
C304 C 0.53056 0.56462 0.31037 0.0
H305 H 0.6754 0.65662 0.61225 0.0
H306 H 0.64354 0.66989 0.42396 0.0
H307 H 0.59632 0.65376 0.28093 0.0
O308 O 0.58658 0.48108 0.55564 0.0
O309 O 0.56065 0.58233 0.72407 0.0
O310 O 0.4996 0.5847 0.72151 0.0
O311 O 0.6272 0.51638 0.62678 0.0
O312 O 0.51707 0.50352 0.60793 0.0
O313 O 0.48004 0.54741 0.68063 0.0
O314 O 0.50212 0.5865 0.98881 0.0
O315 O 0.50328 0.48544 0.85691 0.0
O316 O 0.56273 0.47984 0.79265 0.0
O317 O 0.44756 0.57636 0.92651 0.0
O318 O 0.54852 0.55576 0.94138 0.0
O319 O 0.58967 0.51857 0.84784 0.0
C320 C 0.53089 0.60084 0.69904 0.0
C321 C 0.64314 0.45525 0.61323 0.0
C322 C 0.66861 0.39542 0.57553 0.0
C323 C 0.68252 0.39404 0.689 0.0
C324 C 0.65745 0.45383 0.72684 0.0
C325 C 0.67732 0.42347 0.76386 0.0
C326 C 0.64942 0.42633 0.53786 0.0
C327 C 0.48523 0.52072 0.60743 0.0
C328 C 0.62133 0.48635 0.57234 0.0
C329 C 0.62643 0.64622 0.43906 0.0
C330 C 0.59913 0.6374 0.35848 0.0
C331 C 0.53344 0.46606 0.84434 0.0
C332 C 0.46891 0.63698 0.9243 0.0
C333 C 0.50564 0.6909 0.88394 0.0
C334 C 0.48144 0.70065 0.79433 0.0
C335 C 0.4449 0.64678 0.83382 0.0
C336 C 0.49801 0.66002 0.95124 0.0
C337 C 0.45096 0.67877 0.77041 0.0
C338 C 0.58057 0.53868 0.93756 0.0
C339 C 0.46947 0.59995 0.97395 0.0
H340 H 0.69644 0.36992 0.72025 0.0
H341 H 0.65296 0.4759 0.78737 0.0
H342 H 0.68788 0.42235 0.85168 0.0
H343 H 0.63747 0.42702 0.4515 0.0
H344 H 0.48611 0.72496 0.74308 0.0
H345 H 0.42234 0.62919 0.80922 0.0
H346 H 0.51549 0.65297 0.02407 0.0
H347 H 0.43258 0.68607 0.70039 0.0
Tb348 Tb 0.04561 0.57604 0.65896 0.0
C349 C 0.06056 0.43065 0.95391 0.0
N350 N 0.03586 0.44065 0.87176 0.0
C351 C 0.03392 0.37921 0.7999 0.0
C352 C 0.07351 0.39459 0.96103 0.0
C353 C 0.02198 0.41537 0.79608 0.0
C354 C 0.05994 0.36879 0.88234 0.0
C355 C 0.09837 0.44774 0.11842 0.0
C356 C 0.07277 0.45677 0.0314 0.0
C357 C 0.1119 0.41202 0.12474 0.0
C358 C 0.09953 0.38551 0.04613 0.0
Tb359 Tb 1.01912 0.50074 0.87165 0.0
N360 N 0.06044 0.49143 1.01854 0.0
C361 C 0.11015 0.47511 0.19459 0.0
C362 C 0.07123 0.51806 0.09436 0.0
C363 C 0.09642 0.51037 0.18268 0.0
H364 H 1.00097 0.42276 0.73444 0.0
H365 H 0.10523 0.53168 0.24151 0.0
H366 H 1.00675 0.64809 0.78386 0.0
H367 H 1.0177 0.50768 0.24867 0.0
H368 H 0.06071 0.5453 0.08685 0.0
H369 H 0.12988 0.46933 0.26247 0.0
H370 H 0.05667 0.52523 0.41291 0.0
H371 H 0.02285 0.35935 0.7397 0.0
H372 H 0.13203 0.40463 0.18969 0.0
H373 H 0.1101 0.35803 0.05231 0.0
H374 H 0.95597 0.69005 0.74054 0.0
H375 H 0.0691 0.34075 0.88521 0.0
H376 H 0.9615 0.54204 0.2068 0.0
N377 N 0.99867 0.61626 0.63128 0.0
C378 C 0.97949 0.61212 0.5306 0.0
C379 C 0.96217 0.66812 0.68124 0.0
C380 C 0.94986 0.63509 0.5038 0.0
C381 C 0.99075 0.64415 0.70594 0.0
C382 C 0.94155 0.6635 0.58002 0.0
N383 N 1.01772 0.56206 0.48485 0.0
C384 C 0.03035 0.53793 0.4041 0.0
C385 C 0.9675 0.57686 0.35683 0.0
C386 C 0.98845 0.58336 0.45773 0.0
C387 C 0.97747 0.54843 0.28344 0.0
C388 C 1.00927 0.52912 0.3066 0.0
H389 H 0.91907 0.68179 0.56207 0.0
H390 H 0.90587 0.64555 0.38202 0.0
H391 H 0.92159 0.59442 0.25343 0.0
O392 O 0.09072 0.5865 0.54996 0.0
O393 O 0.98713 0.56889 0.71502 0.0
O394 O 0.98013 0.5082 0.72401 0.0
O395 O 0.05849 0.63001 0.61567 0.0
O396 O 0.06293 0.51863 0.61247 0.0
O397 O 1.01589 0.48587 0.68779 0.0
O398 O 0.9812 0.51807 0.99401 0.0
O399 O 0.07982 0.50683 0.8537 0.0
O400 O 0.08944 0.56565 0.78959 0.0
O401 O 0.98275 0.46181 0.94116 0.0
O402 O 1.01246 0.55839 0.93593 0.0
O403 O 0.05167 0.59661 0.83761 0.0
C404 C 0.96648 0.54003 0.69465 0.0
C405 C 0.12122 0.64033 0.60962 0.0
C406 C 0.18506 0.65592 0.58402 0.0
C407 C 0.1865 0.67069 0.69593 0.0
C408 C 0.12254 0.65579 0.72146 0.0
C409 C 0.15502 0.67113 0.76373 0.0
C410 C 0.15229 0.64121 0.54109 0.0
C411 C 0.04274 0.48841 0.6138 0.0
C412 C 0.08847 0.62155 0.56517 0.0
C413 C 0.92888 0.62835 0.40389 0.0
C414 C 0.9375 0.59906 0.33141 0.0
C415 C 0.10153 0.53548 0.83982 0.0
C416 C 0.92554 0.49143 0.94242 0.0
C417 C 0.87515 0.53367 0.90945 0.0
C418 C 0.8617 0.51058 0.82145 0.0
C419 C 0.9114 0.46844 0.85544 0.0
C420 C 0.90652 0.52305 0.97121 0.0
C421 C 0.87942 0.47789 0.79635 0.0
C422 C 0.03076 0.58968 0.92744 0.0
C423 C 0.96312 0.48742 0.98699 0.0
H424 H 0.21194 0.68114 0.73114 0.0
H425 H 0.09883 0.65542 0.77698 0.0
H426 H 0.15602 0.68245 0.85035 0.0
H427 H 0.15152 0.62845 0.45616 0.0
H428 H 0.83753 0.51763 0.77205 0.0
H429 H 0.92572 0.44401 0.82978 0.0
H430 H 0.91689 0.53969 0.04172 0.0
H431 H 0.86892 0.46036 0.72834 0.0
C432 C 0.15549 0.08537 0.4062 0.0
C433 C 0.17489 0.05279 0.385 0.0
H434 H 0.10927 0.11089 0.48991 0.0
C435 C 0.15967 1.0203 0.42829 0.0
H436 H 0.16683 0.11118 0.3782 0.0
C437 C 0.12726 1.02015 0.49314 0.0
C438 C 0.10855 0.05262 0.51981 0.0
H439 H 0.17396 0.99477 0.41654 0.0
H440 H 0.11747 0.99427 0.5261 0.0
C441 C 0.12257 0.08525 0.4717 0.0
C442 C 0.54996 0.1373 0.35109 0.0
C443 C 0.53543 0.17254 0.36849 0.0
H444 H 0.55546 0.0819 0.41067 0.0
C445 C 0.51446 0.1776 0.46949 0.0
H446 H 0.56668 0.13207 0.27579 0.0
C447 C 0.50903 0.14859 0.55033 0.0
C448 C 0.52326 0.11316 0.53118 0.0
H449 H 0.50349 0.20427 0.48856 0.0
H450 H 0.49387 0.154 0.62871 0.0
C451 C 0.5434 0.10818 0.42885 0.0
C452 C 0.40955 0.53781 0.37725 0.0
C453 C 0.39004 0.50458 0.37553 0.0
H454 H 0.45403 0.56903 0.45179 0.0
C455 C 0.40474 0.47572 0.44263 0.0
H456 H 0.39887 0.56111 0.33057 0.0
C457 C 0.43711 0.4799 0.50983 0.0
C458 C 0.45552 0.51362 0.51653 0.0
H459 H 0.39027 0.44995 0.44655 0.0
H460 H 0.44635 0.45728 0.56264 0.0
C461 C 0.44125 0.54238 0.44787 0.0
C462 C 1.01696 0.40746 0.41492 0.0
C463 C 0.05069 0.39347 0.37802 0.0
H464 H 0.98811 0.44751 0.51455 0.0
C465 C 0.08227 0.41303 0.41325 0.0
H466 H 0.99205 0.39274 0.39457 0.0
C467 C 0.08009 0.44511 0.48275 0.0
C468 C 0.04626 0.458 0.52371 0.0
H469 H 0.10894 0.40243 0.39239 0.0
H470 H 0.10508 0.45845 0.51027 0.0
C471 C 1.01478 0.43887 0.48578 0.0
C472 C 0.92263 0.03117 0.19694 0.0
C473 C 0.88619 0.04171 0.17645 0.0
H474 H 0.97674 0.0237 0.13115 0.0
C475 C 0.87777 0.05476 0.06432 0.0
H476 H 0.93036 1.02126 0.28168 0.0
C477 C 0.9049 0.05628 0.97619 0.0
C478 C 0.94137 0.04471 0.99683 0.0
H479 H 0.85011 0.06285 0.04359 0.0
H480 H 0.89698 0.06588 0.89107 0.0
C481 C 0.94946 0.03254 0.10981 0.0
C482 C 0.55996 0.89612 0.09912 0.0
C483 C 0.54249 0.89705 0.20798 0.0
H484 H 0.56863 0.9211 0.93263 0.0
C485 C 0.51834 0.92633 0.22647 0.0
H486 H 0.57962 0.8749 0.08139 0.0
C487 C 0.51231 0.95367 0.14055 0.0
C488 C 0.53016 0.95276 0.03205 0.0
H489 H 0.5055 0.92922 0.30945 0.0
H490 H 0.49402 0.97592 0.16004 0.0
C491 C 0.55374 0.92302 1.0131 0.0
C492 C 0.66066 0.52179 0.15692 0.0
C493 C 0.66561 0.55637 0.20864 0.0
H494 H 0.63069 0.48911 0.03147 0.0
C495 C 0.6422 0.58441 0.16886 0.0
H496 H 0.67807 0.49939 0.18259 0.0
C497 C 0.61422 0.57835 0.08592 0.0
C498 C 0.60903 0.54406 0.03397 0.0
H499 H 0.646 0.61182 0.20105 0.0
H500 H 0.59735 0.6011 0.05941 0.0
C501 C 0.6332 0.51592 0.07004 0.0
C502 C 0.04793 0.67277 0.13455 0.0
C503 C 1.01409 0.67626 0.19153 0.0
H504 H 0.07977 0.64351 1.00694 0.0
C505 C 0.98639 0.65142 0.15766 0.0
H506 H 0.07006 0.69127 0.1558 0.0
C507 C 0.99222 0.62327 0.07631 0.0
C508 C 0.02579 0.61936 0.01944 0.0
H509 H 0.9594 0.65411 0.19368 0.0
H510 H 0.96979 0.60504 0.05554 0.0
C511 C 0.05349 0.64509 0.04895 0.0
C512 C 0.94904 0.26987 0.42453 0.0
C513 C 0.94417 0.26416 0.30467 0.0
H514 H 0.93652 0.25072 0.5946 0.0
C515 C 0.91423 0.2432 0.26641 0.0
H516 H 0.97156 0.28606 0.45766 0.0
C517 C 0.89443 0.22252 0.34578 0.0
C518 C 0.90407 0.22332 0.46365 0.0
H519 H 0.90892 0.23943 0.17467 0.0
H520 H 0.87514 0.2024 0.31364 0.0
C521 C 0.92875 0.24972 0.50377 0.0
C522 C 0.32657 0.92175 0.19491 0.0
C523 C 0.30679 0.94929 0.25127 0.0
H524 H 0.371 0.88426 0.20914 0.0
C525 C 0.30762 0.95073 0.37313 0.0
H526 H 0.3257 0.91938 0.10128 0.0
C527 C 0.3331 0.93019 0.43479 0.0
C528 C 0.35787 0.90813 0.37516 0.0
H529 H 0.29253 0.97133 0.41973 0.0
H530 H 0.33686 0.9355 0.52656 0.0
C531 C 0.35227 0.90136 0.25672 0.0
C532 C 0.65795 0.34355 0.30333 0.0
C533 C 0.63006 0.31968 0.33904 0.0
H534 H 0.69355 0.38713 0.35474 0.0
C535 C 0.62573 0.31288 0.45846 0.0
H536 H 0.66293 0.34835 0.21208 0.0
C537 C 0.64427 0.33412 0.53974 0.0
C538 C 0.66669 0.36273 0.50244 0.0
H539 H 0.60474 0.29462 0.49 0.0
H540 H 0.63679 0.33167 0.63024 0.0
C541 C 0.67594 0.36532 0.38482 0.0
C542 C 0.23737 0.64028 0.31855 0.0
C543 C 0.25507 0.60803 0.35204 0.0
H544 H 0.2014 0.68279 0.37147 0.0
C545 C 0.25905 0.59997 0.47067 0.0
H546 H 0.23484 0.64759 0.2278 0.0
C547 C 0.24071 0.62067 0.55283 0.0
C548 C 0.21803 0.64919 0.51655 0.0
H549 H 0.27275 0.57539 0.4991 0.0
H550 H 0.24014 0.61118 0.64188 0.0
C551 C 0.21884 0.6608 0.40068 0.0
C552 C 0.96991 0.80457 0.04373 0.0
C553 C 0.95401 0.82464 0.1351 0.0
H554 H 1.00342 0.80755 0.8952 0.0
C555 C 0.94211 0.8601 0.10918 0.0
H556 H 0.97707 0.77615 0.05247 0.0
C557 C 0.9565 0.8782 1.01289 0.0
C558 C 0.98338 0.86093 0.94542 0.0
H559 H 0.92645 0.87554 0.1712 0.0
H560 H 0.95102 0.90703 1.00306 0.0
C561 C 0.9853 0.82284 0.95038 0.0
C562 C 0.76788 0.94578 0.10924 0.0
C563 C 0.751 0.93987 0.21747 0.0
H564 H 0.76248 0.97743 0.95343 0.0
C565 C 0.71403 0.92997 0.20746 0.0
H566 H 0.79724 0.9446 0.10079 0.0
C567 C 0.69299 0.94923 0.12649 0.0
C568 C 0.71074 0.97168 0.04387 0.0
H569 H 0.70022 0.91689 0.27917 0.0
H570 H 0.66387 0.94989 0.14013 0.0
C571 C 0.74803 0.96487 0.02477 0.0
C572 C 0.54285 0.7676 0.04238 0.0
C573 C 0.56648 0.74773 0.11598 0.0
H574 H 0.50508 0.76451 0.90213 0.0
C575 C 0.58121 0.71498 0.07578 0.0
H576 H 0.53145 0.7935 0.0685 0.0
C577 C 0.56671 0.69898 0.97584 0.0
C578 C 0.53596 0.71476 0.92168 0.0
H579 H 0.60066 0.69993 0.12795 0.0
H580 H 0.5749 0.67145 0.95446 0.0
C581 C 0.52774 0.75113 0.94496 0.0
C582 C 0.79873 0.57951 0.05121 0.0
C583 C 0.81914 0.5986 0.13635 0.0
H584 H 0.80104 0.54304 0.90916 0.0
C585 C 0.85457 0.60993 0.10741 0.0
H586 H 0.77062 0.57156 0.06452 0.0
C587 C 0.8721 0.59376 1.01337 0.0
C588 C 0.85432 0.56575 0.95073 0.0
H589 H 0.87026 0.6271 0.16571 0.0
H590 H 0.90092 0.5991 1.00148 0.0
C591 C 0.81637 0.56279 0.95951 0.0
C592 C 0.9961 0.20532 0.92207 0.0
C593 C 0.02506 0.21868 0.99283 0.0
H594 H 0.97383 0.16213 0.81661 0.0
C595 C 0.0568 0.19692 0.9967 0.0
H596 H 0.97101 0.22071 0.91547 0.0
C597 C 0.05854 0.16276 0.93739 0.0
C598 C 0.0284 0.14832 0.87398 0.0
H599 H 0.07968 0.20532 0.0503 0.0
H600 H 0.08337 0.14714 0.94422 0.0
C601 C 0.99761 0.17115 0.86502 0.0
C602 C 0.35339 0.03592 0.88105 0.0
C603 C 0.34775 0.04768 0.99644 0.0
H604 H 0.39139 0.0266 0.74177 0.0
C605 C 0.37841 0.06175 0.0557 0.0
H606 H 0.331 0.02357 0.83332 0.0
C607 C 0.41343 0.06211 1.00477 0.0
C608 C 0.41974 0.04859 0.89188 0.0
H609 H 0.37593 0.06979 0.14567 0.0
H610 H 0.43595 0.07137 0.05717 0.0
C611 C 0.38847 0.03705 0.82898 0.0
C612 C 0.57292 0.3745 0.95666 0.0
C613 C 0.54491 0.35922 0.02635 0.0
H614 H 0.59192 0.41855 0.84934 0.0
C615 C 0.51126 0.37794 0.02467 0.0
H616 H 0.59928 0.36131 0.95307 0.0
C617 C 0.5068 0.41123 0.96147 0.0
C618 C 0.53596 0.42787 0.89987 0.0
H619 H 0.48883 0.36786 0.0764 0.0
H620 H 0.48055 0.42439 0.96349 0.0
C621 C 0.56873 0.40789 0.89638 0.0
C622 C 0.19642 0.56795 0.95266 0.0
C623 C 0.21127 0.53724 1.01093 0.0
H624 H 0.15192 0.59184 0.85693 0.0
C625 C 0.19069 0.50463 1.00226 0.0
H626 H 0.21074 0.59382 0.95649 0.0
C627 C 0.15631 0.50346 0.94285 0.0
C628 C 0.14046 0.53497 0.89177 0.0
H629 H 0.2002 0.48036 0.04636 0.0
H630 H 0.14169 0.47785 0.93969 0.0
C631 C 0.16208 0.56691 0.89531 0.0
C632 C 0.04323 0.88821 0.49571 0.0
C633 C 1.01071 0.8674 0.50357 0.0
H634 H 0.07246 0.93765 0.54216 0.0
C635 C 0.98285 0.88252 0.57322 0.0
H636 H 0.06505 0.87874 0.44073 0.0
C637 C 0.987 0.91652 0.63117 0.0
C638 C 1.01901 0.93782 0.62115 0.0
H639 H 0.95698 0.86835 0.5803 0.0
H640 H 0.96461 0.92646 0.68294 0.0
C641 C 0.0473 0.92253 0.55337 0.0
C642 C 0.66124 0.02332 0.41421 0.0
C643 C 0.69476 0.03071 0.47152 0.0
H644 H 0.60281 1.01845 0.42355 0.0
C645 C 0.69247 0.04226 0.58813 0.0
H646 H 0.6614 1.01395 0.32509 0.0
C647 C 0.65823 0.04482 0.64566 0.0
C648 C 0.62492 0.03549 0.58958 0.0
H649 H 0.71728 0.04743 0.63703 0.0
H650 H 0.65807 0.05256 0.73605 0.0
C651 C 0.6273 0.02556 0.4716 0.0
C652 C 0.56346 0.69831 0.60494 0.0
C653 C 0.53751 0.70913 0.52023 0.0
H654 H 0.58203 0.65711 0.72619 0.0
C655 C 0.50881 0.68395 0.4986 0.0
H656 H 0.58682 0.71568 0.6222 0.0
C657 C 0.50611 0.64997 0.55837 0.0
C658 C 0.53252 0.63878 0.64096 0.0
H659 H 0.48889 0.69 0.43164 0.0
H660 H 0.48381 0.63173 0.53645 0.0
C661 C 0.56103 0.66407 0.66368 0.0
C662 C 0.87924 0.52013 0.50641 0.0
C663 C 0.85736 0.5515 0.52145 0.0
H664 H 0.92948 0.49174 0.54719 0.0
C665 C 0.87177 0.57838 0.59742 0.0
H666 H 0.87047 0.49929 0.44582 0.0
C667 C 0.90605 0.57424 0.65496 0.0
C668 C 0.92827 0.54328 0.63829 0.0
H669 H 0.85699 0.60358 0.6093 0.0
H670 H 0.91549 0.59587 0.71162 0.0
C671 C 0.91366 0.516 0.56401 0.0
loop_
_geom_bond_atom_site_label_1
_geom_bond_atom_site_label_2
_geom_bond_distance
_geom_bond_site_symmetry_2
_ccdc_geom_bond_type
H0 C5 0.930 . S
H1 C8 0.930 . S
H2 C10 0.930 . S
H3 C4 1.016 . S
C4 H3 1.016 . S
C4 N11 1.286 . S
C5 H0 0.930 . S
C5 C6 1.397 . S
C5 C7 1.361 . S
C6 C5 1.397 . S
C6 C10 1.390 . S
C7 C5 1.361 . S
C7 C8 1.393 . S
C7 N11 1.413 . S
C8 H1 0.930 . S
C8 C7 1.393 . S
C8 C9 1.399 . S
C9 C8 1.399 . S
C9 C10 1.381 . S
C10 H2 0.930 . S
C10 C6 1.390 . S
C10 C9 1.381 . S
N11 C4 1.286 . S
N11 C7 1.413 . S
H12 C17 0.930 . S
H13 C20 0.930 . S
H14 C22 0.930 . S
H15 C16 1.016 . S
C16 H15 1.016 . S
C16 N23 1.286 1_655 S
C17 H12 0.930 . S
C17 C18 1.397 . S
C17 C19 1.361 . S
C18 C17 1.397 . S
C18 C22 1.390 . S
C19 C17 1.361 . S
C19 C20 1.393 . S
C19 N23 1.413 1_655 S
C20 H13 0.930 . S
C20 C19 1.393 . S
C20 C21 1.399 . S
C21 C20 1.399 . S
C21 C22 1.381 . S
C22 H14 0.930 . S
C22 C18 1.390 . S
C22 C21 1.381 . S
N23 C16 1.286 1_455 S
N23 C19 1.413 1_455 S
H24 C29 0.929 1_545 S
H25 C32 0.930 . S
H26 C34 0.930 . S
H27 C28 1.016 . S
C28 H27 1.016 . S
C28 N35 1.286 1_565 S
C29 H24 0.929 1_565 S
C29 C30 1.397 . S
C29 C31 1.361 . S
C30 C29 1.397 . S
C30 C34 1.390 . S
C31 C29 1.361 . S
C31 C32 1.393 . S
C31 N35 1.413 1_565 S
C32 H25 0.930 . S
C32 C31 1.393 . S
C32 C33 1.399 . S
C33 C32 1.399 . S
C33 C34 1.381 . S
C34 H26 0.930 . S
C34 C30 1.390 . S
C34 C33 1.381 . S
N35 C28 1.286 1_545 S
N35 C31 1.413 1_545 S
H36 C41 0.930 . S
H37 C44 0.930 . S
H38 C46 0.930 . S
H39 C40 1.016 . S
C40 H39 1.016 . S
C40 N47 1.286 . S
C41 H36 0.930 . S
C41 C42 1.397 . S
C41 C43 1.361 . S
C42 C41 1.397 . S
C42 C46 1.390 . S
C43 C41 1.361 . S
C43 C44 1.393 . S
C43 N47 1.413 . S
C44 H37 0.930 . S
C44 C43 1.393 . S
C44 C45 1.399 . S
C45 C44 1.399 . S
C45 C46 1.381 . S
C46 H38 0.930 . S
C46 C42 1.390 . S
C46 C45 1.381 . S
N47 C40 1.286 . S
N47 C43 1.413 . S
H48 C53 0.930 . S
H49 C56 0.930 . S
H50 C58 0.930 . S
H51 C52 1.016 . S
C52 H51 1.016 . S
C52 N59 1.286 . S
C53 H48 0.930 . S
C53 C54 1.397 . S
C53 C55 1.361 1_556 S
C54 C53 1.397 . S
C54 C58 1.390 1_556 S
C55 C53 1.361 1_554 S
C55 C56 1.393 . S
C55 N59 1.413 . S
C56 H49 0.930 . S
C56 C55 1.393 . S
C56 C57 1.399 . S
C57 C56 1.399 . S
C57 C58 1.381 . S
C58 H50 0.930 . S
C58 C54 1.390 1_554 S
C58 C57 1.381 . S
N59 C52 1.286 . S
N59 C55 1.413 . S
H60 C65 0.930 . S
H61 C68 0.930 . S
H62 C70 0.930 . S
H63 C64 1.016 . S
C64 H63 1.016 . S
C64 N71 1.286 . S
C65 H60 0.930 . S
C65 C66 1.397 . S
C65 C67 1.361 1_556 S
C66 C65 1.397 . S
C66 C70 1.390 1_556 S
C67 C65 1.361 1_554 S
C67 C68 1.393 . S
C67 N71 1.413 . S
C68 H61 0.930 . S
C68 C67 1.393 . S
C68 C69 1.399 . S
C69 C68 1.399 . S
C69 C70 1.381 . S
C70 H62 0.930 . S
C70 C66 1.390 1_554 S
C70 C69 1.381 . S
N71 C64 1.286 . S
N71 C67 1.413 . S
H72 C77 0.930 . S
H73 C80 0.930 . S
H74 C82 0.930 . S
H75 C76 1.016 . S
C76 H75 1.016 . S
C76 N83 1.286 . S
C77 H72 0.930 . S
C77 C78 1.397 . S
C77 C79 1.361 1_556 S
C78 C77 1.397 . S
C78 C82 1.390 1_556 S
C79 C77 1.361 1_554 S
C79 C80 1.393 . S
C79 N83 1.413 . S
C80 H73 0.930 . S
C80 C79 1.393 . S
C80 C81 1.399 . S
C81 C80 1.399 . S
C81 C82 1.381 . S
C82 H74 0.930 . S
C82 C78 1.390 1_554 S
C82 C81 1.381 . S
N83 C76 1.286 . S
N83 C79 1.413 . S
H84 C89 0.930 . S
H85 C92 0.930 . S
H86 C94 0.930 . S
H87 C88 1.016 . S
C88 H87 1.016 . S
C88 N95 1.286 . S
C89 H84 0.930 . S
C89 C90 1.397 . S
C89 C91 1.361 1_556 S
C90 C89 1.397 . S
C90 C94 1.390 1_556 S
C91 C89 1.361 1_554 S
C91 C92 1.393 . S
C91 N95 1.413 . S
C92 H85 0.930 . S
C92 C91 1.393 . S
C92 C93 1.399 . S
C93 C92 1.399 . S
C93 C94 1.381 . S
C94 H86 0.930 . S
C94 C90 1.390 1_554 S
C94 C93 1.381 . S
N95 C88 1.286 . S
N95 C91 1.413 . S
Tb96 N125 2.617 . S
Tb96 N131 2.572 . S
Tb96 O140 2.465 . S
Tb96 O141 2.387 1_545 S
Tb96 O143 2.428 . S
Tb96 O144 2.308 1_655 S
Tb96 O148 2.349 1_655 S
Tb96 O151 2.393 . S
Tb96 C160 2.802 . S
C97 N98 1.379 1_554 S
C97 C100 1.416 . S
C97 C104 1.424 . S
N98 C97 1.379 1_556 S
N98 C101 1.334 . S
N98 Tb107 2.617 1_545 S
C99 C101 1.390 . S
C99 C102 1.339 . S
C99 H119 0.930 . S
C100 C97 1.416 . S
C100 C102 1.416 1_554 S
C100 C106 1.448 . S
C101 N98 1.334 . S
C101 C99 1.390 . S
C101 H112 0.930 1_545 S
C102 C99 1.339 . S
C102 C100 1.416 1_556 S
C102 H123 0.930 . S
C103 C104 1.413 . S
C103 C105 1.427 . S
C103 C109 1.416 . S
C104 C97 1.424 . S
C104 C103 1.413 . S
C104 N108 1.361 . S
C105 C103 1.427 . S
C105 C106 1.328 . S
C105 H120 0.929 . S
C106 C100 1.448 . S
C106 C105 1.328 . S
C106 H121 0.930 . S
Tb107 N98 2.617 1_565 S
Tb107 N108 2.572 1_566 S
Tb107 O142 2.349 . S
Tb107 O145 2.393 . S
Tb107 O146 2.465 . S
Tb107 O147 2.387 1_565 S
Tb107 O149 2.428 . S
Tb107 O150 2.308 1_465 S
Tb107 C171 2.802 . S
N108 C104 1.361 . S
N108 Tb107 2.572 1_544 S
N108 C110 1.340 . S
C109 C103 1.416 . S
C109 C111 1.332 . S
C109 H117 0.931 . S
C110 N108 1.340 . S
C110 C111 1.407 . S
C110 H116 0.930 . S
C111 C109 1.332 . S
C111 C110 1.407 . S
C111 H113 0.929 . S
H112 C101 0.930 1_565 S
H113 C111 0.929 . S
H114 C129 0.930 . S
H115 C136 0.929 1_455 S
H116 C110 0.930 . S
H117 C109 0.931 . S
H118 C132 0.930 1_455 S
H119 C99 0.930 . S
H120 C105 0.929 . S
H121 C106 0.930 . S
H122 C127 0.930 . S
H123 C102 0.930 . S
H124 C135 0.931 . S
N125 Tb96 2.617 . S
N125 C126 1.379 1_545 S
N125 C129 1.334 . S
C126 N125 1.379 1_565 S
C126 C128 1.416 . S
C126 C134 1.424 . S
C127 H122 0.930 . S
C127 C129 1.390 . S
C127 C130 1.339 1_545 S
C128 C126 1.416 . S
C128 C130 1.416 . S
C128 C161 1.448 . S
C129 H114 0.930 . S
C129 N125 1.334 . S
C129 C127 1.390 . S
C130 C127 1.339 1_565 S
C130 C128 1.416 . S
C130 H137 0.930 . S
N131 Tb96 2.572 . S
N131 C132 1.340 . S
N131 C134 1.361 1_545 S
C132 H118 0.930 1_655 S
C132 N131 1.340 . S
C132 C136 1.407 1_545 S
C133 C134 1.413 . S
C133 C135 1.416 . S
C133 C162 1.427 . S
C134 C126 1.424 . S
C134 N131 1.361 1_565 S
C134 C133 1.413 . S
C135 H124 0.931 . S
C135 C133 1.416 . S
C135 C136 1.332 . S
C136 H115 0.929 1_655 S
C136 C132 1.407 1_565 S
C136 C135 1.332 . S
H137 C130 0.930 . S
H138 C161 0.930 . S
H139 C162 0.929 . S
O140 Tb96 2.465 . S
O140 C160 1.264 . S
O141 Tb96 2.387 1_565 S
O141 C152 1.264 . S
O142 Tb107 2.349 . S
O142 C152 1.243 1_455 S
O143 Tb96 2.428 . S
O143 C160 1.256 . S
O144 Tb96 2.308 1_455 S
O144 C159 1.266 . S
O145 Tb107 2.393 . S
O145 C159 1.248 1_565 S
O146 Tb107 2.465 . S
O146 C171 1.264 . S
O147 Tb107 2.387 1_545 S
O147 C163 1.264 . S
O148 Tb96 2.349 1_455 S
O148 C163 1.243 . S
O149 Tb107 2.428 . S
O149 C171 1.256 . S
O150 Tb107 2.308 1_645 S
O150 C170 1.266 . S
O151 Tb96 2.393 . S
O151 C170 1.248 . S
C152 O141 1.264 . S
C152 O142 1.243 1_655 S
C153 C156 1.399 . S
C153 C158 1.383 . S
C153 C160 1.496 . S
C154 C155 1.399 . S
C154 C158 1.389 . S
C155 C154 1.399 . S
C155 C157 1.380 . S
C155 H172 0.929 . S
C156 C153 1.399 . S
C156 C157 1.392 . S
C156 H173 0.929 . S
C157 C155 1.380 . S
C157 C156 1.392 . S
C157 H174 0.929 . S
C158 C153 1.383 . S
C158 C154 1.389 . S
C158 H175 0.931 1_655 S
C159 O144 1.266 . S
C159 O145 1.248 1_545 S
C160 Tb96 2.802 . S
C160 O140 1.264 . S
C160 O143 1.256 . S
C160 C153 1.496 . S
C161 C128 1.448 . S
C161 H138 0.930 . S
C161 C162 1.328 . S
C162 C133 1.427 . S
C162 H139 0.929 . S
C162 C161 1.328 . S
C163 O147 1.264 . S
C163 O148 1.243 . S
C164 C167 1.399 . S
C164 C168 1.383 . S
C164 C171 1.496 1_554 S
C165 C166 1.399 . S
C165 C168 1.389 . S
C166 C165 1.399 . S
C166 C169 1.380 . S
C166 H176 0.929 . S
C167 C164 1.399 . S
C167 C169 1.392 . S
C167 H177 0.929 1_554 S
C168 C164 1.383 . S
C168 C165 1.389 . S
C168 H178 0.931 . S
C169 C166 1.380 . S
C169 C167 1.392 . S
C169 H179 0.929 . S
C170 O150 1.266 . S
C170 O151 1.248 . S
C171 Tb107 2.802 . S
C171 O146 1.264 . S
C171 O149 1.256 . S
C171 C164 1.496 1_556 S
H172 C155 0.929 . S
H173 C156 0.929 . S
H174 C157 0.929 . S
H175 C158 0.931 1_455 S
H176 C166 0.929 . S
H177 C167 0.929 1_556 S
H178 C168 0.931 . S
H179 C169 0.929 . S
Tb180 N209 2.617 . S
Tb180 N215 2.572 . S
Tb180 O224 2.465 . S
Tb180 O225 2.387 . S
Tb180 O227 2.428 1_556 S
Tb180 O228 2.308 . S
Tb180 O232 2.349 1_545 S
Tb180 O235 2.393 . S
Tb180 C244 2.802 1_556 S
C181 N182 1.379 . S
C181 C184 1.416 . S
C181 C188 1.424 . S
N182 C181 1.379 . S
N182 C185 1.334 . S
N182 Tb191 2.617 . S
C183 C185 1.390 . S
C183 C186 1.339 . S
C183 H203 0.930 . S
C184 C181 1.416 . S
C184 C186 1.416 . S
C184 C190 1.448 . S
C185 N182 1.334 . S
C185 C183 1.390 . S
C185 H196 0.930 . S
C186 C183 1.339 . S
C186 C184 1.416 . S
C186 H207 0.930 . S
C187 C188 1.413 . S
C187 C189 1.427 . S
C187 C193 1.416 . S
C188 C181 1.424 . S
C188 C187 1.413 . S
C188 N192 1.361 . S
C189 C187 1.427 . S
C189 C190 1.328 . S
C189 H204 0.929 . S
C190 C184 1.448 . S
C190 C189 1.328 . S
C190 H205 0.930 . S
Tb191 N182 2.617 . S
Tb191 N192 2.572 . S
Tb191 O226 2.349 1_565 S
Tb191 O229 2.393 . S
Tb191 O230 2.465 . S
Tb191 O231 2.387 . S
Tb191 O233 2.428 . S
Tb191 O234 2.308 1_565 S
Tb191 C255 2.802 . S
N192 C188 1.361 . S
N192 Tb191 2.572 . S
N192 C194 1.340 . S
C193 C187 1.416 . S
C193 C195 1.332 . S
C193 H201 0.931 . S
C194 N192 1.340 . S
C194 C195 1.407 . S
C194 H200 0.930 . S
C195 C193 1.332 . S
C195 C194 1.407 . S
C195 H197 0.929 . S
H196 C185 0.930 . S
H197 C195 0.929 . S
H198 C213 0.930 . S
H199 C220 0.929 . S
H200 C194 0.930 . S
H201 C193 0.931 . S
H202 C216 0.930 . S
H203 C183 0.930 . S
H204 C189 0.929 . S
H205 C190 0.930 . S
H206 C211 0.930 . S
H207 C186 0.930 . S
H208 C219 0.931 . S
N209 Tb180 2.617 . S
N209 C210 1.379 . S
N209 C213 1.334 1_556 S
C210 N209 1.379 . S
C210 C212 1.416 . S
C210 C218 1.424 . S
C211 H206 0.930 . S
C211 C213 1.390 . S
C211 C214 1.338 1_554 S
C212 C210 1.416 . S
C212 C214 1.418 . S
C212 C245 1.448 . S
C213 H198 0.930 . S
C213 N209 1.334 1_554 S
C213 C211 1.390 . S
C214 C211 1.338 1_556 S
C214 C212 1.418 . S
C214 H221 0.929 1_556 S
N215 Tb180 2.572 . S
N215 C216 1.340 . S
N215 C218 1.361 . S
C216 H202 0.930 . S
C216 N215 1.340 . S
C216 C220 1.407 . S
C217 C218 1.413 . S
C217 C219 1.416 . S
C217 C246 1.427 . S
C218 C210 1.424 . S
C218 N215 1.361 . S
C218 C217 1.413 . S
C219 H208 0.931 . S
C219 C217 1.416 . S
C219 C220 1.332 . S
C220 H199 0.929 . S
C220 C216 1.407 . S
C220 C219 1.332 . S
H221 C214 0.929 1_554 S
H222 C245 0.930 . S
H223 C246 0.929 . S
O224 Tb180 2.465 . S
O224 C244 1.264 1_556 S
O225 Tb180 2.387 . S
O225 C236 1.264 . S
O226 Tb191 2.349 1_545 S
O226 C236 1.243 . S
O227 Tb180 2.428 1_554 S
O227 C244 1.256 . S
O228 Tb180 2.308 . S
O228 C243 1.274 . S
O229 Tb191 2.393 . S
O229 C243 1.243 1_565 S
O230 Tb191 2.465 . S
O230 C255 1.264 . S
O231 Tb191 2.387 . S
O231 C247 1.264 . S
O232 Tb180 2.349 1_565 S
O232 C247 1.243 . S
O233 Tb191 2.428 . S
O233 C255 1.256 . S
O234 Tb191 2.308 1_545 S
O234 C254 1.266 . S
O235 Tb180 2.393 . S
O235 C254 1.248 . S
C236 O225 1.264 . S
C236 O226 1.243 . S
C237 C240 1.399 . S
C237 C242 1.383 . S
C237 C244 1.496 . S
C238 C239 1.399 . S
C238 C242 1.389 . S
C239 C238 1.399 . S
C239 C241 1.380 . S
C239 H256 0.929 . S
C240 C237 1.399 . S
C240 C241 1.392 . S
C240 H257 0.929 . S
C241 C239 1.380 . S
C241 C240 1.392 . S
C241 H258 0.929 . S
C242 C237 1.383 . S
C242 C238 1.389 . S
C242 H259 0.931 . S
C243 O228 1.274 . S
C243 O229 1.243 1_545 S
C244 Tb180 2.802 1_554 S
C244 O224 1.264 1_554 S
C244 O227 1.256 . S
C244 C237 1.496 . S
C245 C212 1.448 . S
C245 H222 0.930 . S
C245 C246 1.328 . S
C246 C217 1.427 . S
C246 H223 0.929 . S
C246 C245 1.328 . S
C247 O231 1.264 . S
C247 O232 1.243 . S
C248 C251 1.399 . S
C248 C252 1.383 . S
C248 C255 1.496 . S
C249 C250 1.399 . S
C249 C252 1.389 . S
C250 C249 1.399 . S
C250 C253 1.380 . S
C250 H260 0.929 . S
C251 C248 1.399 . S
C251 C253 1.392 . S
C251 H261 0.929 . S
C252 C248 1.383 . S
C252 C249 1.389 . S
C252 H262 0.931 1_565 S
C253 C250 1.380 . S
C253 C251 1.392 . S
C253 H263 0.929 . S
C254 O234 1.266 . S
C254 O235 1.248 . S
C255 Tb191 2.802 . S
C255 O230 1.264 . S
C255 O233 1.256 . S
C255 C248 1.496 . S
H256 C239 0.929 . S
H257 C240 0.929 . S
H258 C241 0.929 . S
H259 C242 0.931 . S
H260 C250 0.929 . S
H261 C251 0.929 . S
H262 C252 0.931 1_545 S
H263 C253 0.929 . S
Tb264 N293 2.617 . S
Tb264 N299 2.572 . S
Tb264 O308 2.465 . S
Tb264 O309 2.387 . S
Tb264 O311 2.428 . S
Tb264 O312 2.308 . S
Tb264 O316 2.349 . S
Tb264 O319 2.393 . S
Tb264 C328 2.802 . S
C265 N266 1.379 1_554 S
C265 C268 1.416 . S
C265 C272 1.424 . S
N266 C265 1.379 1_556 S
N266 C269 1.334 . S
N266 Tb275 2.617 . S
C267 C269 1.390 . S
C267 C270 1.339 . S
C267 H287 0.930 . S
C268 C265 1.416 . S
C268 C270 1.416 1_554 S
C268 C274 1.448 . S
C269 N266 1.334 . S
C269 C267 1.390 . S
C269 H280 0.930 . S
C270 C267 1.339 . S
C270 C268 1.416 1_556 S
C270 H291 0.930 . S
C271 C272 1.413 . S
C271 C273 1.427 . S
C271 C277 1.416 . S
C272 C265 1.424 . S
C272 C271 1.413 . S
C272 N276 1.361 . S
C273 C271 1.427 . S
C273 C274 1.328 . S
C273 H288 0.929 . S
C274 C268 1.448 . S
C274 C273 1.328 . S
C274 H289 0.930 . S
Tb275 N266 2.617 . S
Tb275 N276 2.572 1_556 S
Tb275 O310 2.349 . S
Tb275 O313 2.393 . S
Tb275 O314 2.465 . S
Tb275 O315 2.387 . S
Tb275 O317 2.428 . S
Tb275 O318 2.308 . S
Tb275 C339 2.802 . S
N276 C272 1.361 . S
N276 Tb275 2.572 1_554 S
N276 C278 1.340 . S
C277 C271 1.416 . S
C277 C279 1.332 . S
C277 H285 0.931 . S
C278 N276 1.340 . S
C278 C279 1.407 . S
C278 H284 0.930 . S
C279 C277 1.332 . S
C279 C278 1.407 . S
C279 H281 0.929 . S
H280 C269 0.930 . S
H281 C279 0.929 . S
H282 C297 0.930 . S
H283 C304 0.929 . S
H284 C278 0.930 . S
H285 C277 0.931 . S
H286 C300 0.930 . S
H287 C267 0.930 . S
H288 C273 0.929 . S
H289 C274 0.930 . S
H290 C295 0.930 . S
H291 C270 0.930 . S
H292 C303 0.931 . S
N293 Tb264 2.617 . S
N293 C294 1.379 . S
N293 C297 1.334 . S
C294 N293 1.379 . S
C294 C296 1.416 . S
C294 C302 1.424 . S
C295 H290 0.930 . S
C295 C297 1.390 . S
C295 C298 1.339 . S
C296 C294 1.416 . S
C296 C298 1.416 . S
C296 C329 1.448 . S
C297 H282 0.930 . S
C297 N293 1.334 . S
C297 C295 1.390 . S
C298 C295 1.339 . S
C298 C296 1.416 . S
C298 H305 0.930 . S
N299 Tb264 2.572 . S
N299 C300 1.340 . S
N299 C302 1.361 . S
C300 H286 0.930 . S
C300 N299 1.340 . S
C300 C304 1.407 . S
C301 C302 1.413 . S
C301 C303 1.416 . S
C301 C330 1.427 . S
C302 C294 1.424 . S
C302 N299 1.361 . S
C302 C301 1.413 . S
C303 H292 0.931 . S
C303 C301 1.416 . S
C303 C304 1.332 . S
C304 H283 0.929 . S
C304 C300 1.407 . S
C304 C303 1.332 . S
H305 C298 0.930 . S
H306 C329 0.930 . S
H307 C330 0.929 . S
O308 Tb264 2.465 . S
O308 C328 1.264 . S
O309 Tb264 2.387 . S
O309 C320 1.264 . S
O310 Tb275 2.349 . S
O310 C320 1.243 . S
O311 Tb264 2.428 . S
O311 C328 1.256 . S
O312 Tb264 2.308 . S
O312 C327 1.266 . S
O313 Tb275 2.393 . S
O313 C327 1.248 . S
O314 Tb275 2.465 . S
O314 C339 1.264 . S
O315 Tb275 2.387 . S
O315 C331 1.264 . S
O316 Tb264 2.349 . S
O316 C331 1.243 . S
O317 Tb275 2.428 . S
O317 C339 1.256 . S
O318 Tb275 2.308 . S
O318 C338 1.266 . S
O319 Tb264 2.393 . S
O319 C338 1.248 . S
C320 O309 1.264 . S
C320 O310 1.243 . S
C321 C324 1.399 . S
C321 C326 1.383 . S
C321 C328 1.496 . S
C322 C323 1.399 . S
C322 C326 1.389 . S
C323 C322 1.399 . S
C323 C325 1.380 . S
C323 H340 0.929 . S
C324 C321 1.399 . S
C324 C325 1.392 . S
C324 H341 0.929 . S
C325 C323 1.380 . S
C325 C324 1.392 . S
C325 H342 0.929 . S
C326 C321 1.383 . S
C326 C322 1.389 . S
C326 H343 0.931 . S
C327 O312 1.266 . S
C327 O313 1.248 . S
C328 Tb264 2.802 . S
C328 O308 1.264 . S
C328 O311 1.256 . S
C328 C321 1.496 . S
C329 C296 1.448 . S
C329 H306 0.930 . S
C329 C330 1.328 . S
C330 C301 1.427 . S
C330 H307 0.929 . S
C330 C329 1.328 . S
C331 O315 1.264 . S
C331 O316 1.243 . S
C332 C335 1.399 . S
C332 C336 1.383 . S
C332 C339 1.496 1_554 S
C333 C334 1.399 . S
C333 C336 1.389 . S
C334 C333 1.399 . S
C334 C337 1.380 . S
C334 H344 0.929 . S
C335 C332 1.399 . S
C335 C337 1.392 . S
C335 H345 0.929 1_554 S
C336 C332 1.383 . S
C336 C333 1.389 . S
C336 H346 0.931 . S
C337 C334 1.380 . S
C337 C335 1.392 . S
C337 H347 0.929 . S
C338 O318 1.266 . S
C338 O319 1.248 . S
C339 Tb275 2.802 . S
C339 O314 1.264 . S
C339 O317 1.256 . S
C339 C332 1.496 1_556 S
H340 C323 0.929 . S
H341 C324 0.929 . S
H342 C325 0.929 . S
H343 C326 0.931 . S
H344 C334 0.929 . S
H345 C335 0.929 1_556 S
H346 C336 0.931 . S
H347 C337 0.929 . S
Tb348 N377 2.617 . S
Tb348 N383 2.572 . S
Tb348 O392 2.465 . S
Tb348 O393 2.387 1_455 S
Tb348 O395 2.428 . S
Tb348 O396 2.308 . S
Tb348 O400 2.349 . S
Tb348 O403 2.393 . S
Tb348 C412 2.802 . S
C349 N350 1.379 1_554 S
C349 C352 1.416 . S
C349 C356 1.424 . S
N350 C349 1.379 1_556 S
N350 C353 1.337 . S
N350 Tb359 2.617 1_455 S
C351 C353 1.399 . S
C351 C354 1.339 . S
C351 H371 0.930 . S
C352 C349 1.416 . S
C352 C354 1.416 1_554 S
C352 C358 1.448 . S
C353 N350 1.337 . S
C353 C351 1.399 . S
C353 H364 0.918 1_455 S
C354 C351 1.339 . S
C354 C352 1.416 1_556 S
C354 H375 0.930 . S
C355 C356 1.413 . S
C355 C357 1.427 . S
C355 C361 1.416 . S
C356 C349 1.424 . S
C356 C355 1.413 . S
C356 N360 1.361 . S
C357 C355 1.427 . S
C357 C358 1.328 . S
C357 H372 0.929 . S
C358 C352 1.448 . S
C358 C357 1.328 . S
C358 H373 0.930 . S
Tb359 N350 2.617 1_655 S
Tb359 N360 2.572 1_656 S
Tb359 O394 2.349 . S
Tb359 O397 2.393 . S
Tb359 O398 2.465 . S
Tb359 O399 2.387 1_655 S
Tb359 O401 2.428 . S
Tb359 O402 2.308 1_655 S
Tb359 C423 2.802 . S
N360 C356 1.361 . S
N360 Tb359 2.572 1_454 S
N360 C362 1.340 . S
C361 C355 1.416 . S
C361 C363 1.332 . S
C361 H369 0.931 . S
C362 N360 1.340 . S
C362 C363 1.407 . S
C362 H368 0.930 . S
C363 C361 1.332 . S
C363 C362 1.407 . S
C363 H365 0.929 . S
H364 C353 0.918 1_655 S
H365 C363 0.929 . S
H366 C381 0.930 . S
H367 C388 0.929 . S
H368 C362 0.930 . S
H369 C361 0.931 . S
H370 C384 0.930 . S
H371 C351 0.930 . S
H372 C357 0.929 . S
H373 C358 0.930 . S
H374 C379 0.930 . S
H375 C354 0.930 . S
H376 C387 0.931 . S
N377 Tb348 2.617 . S
N377 C378 1.379 1_455 S
N377 C381 1.334 . S
C378 N377 1.379 1_655 S
C378 C380 1.416 . S
C378 C386 1.424 . S
C379 H374 0.930 . S
C379 C381 1.390 . S
C379 C382 1.339 1_455 S
C380 C378 1.416 . S
C380 C382 1.416 . S
C380 C413 1.448 . S
C381 H366 0.930 . S
C381 N377 1.334 . S
C381 C379 1.390 . S
C382 C379 1.339 1_655 S
C382 C380 1.416 . S
C382 H389 0.930 . S
N383 Tb348 2.572 . S
N383 C384 1.340 . S
N383 C386 1.361 1_455 S
C384 H370 0.930 . S
C384 N383 1.340 . S
C384 C388 1.407 1_455 S
C385 C386 1.413 . S
C385 C387 1.416 . S
C385 C414 1.427 . S
C386 C378 1.424 . S
C386 N383 1.361 1_655 S
C386 C385 1.413 . S
C387 H376 0.931 . S
C387 C385 1.416 . S
C387 C388 1.332 . S
C388 H367 0.929 . S
C388 C384 1.407 1_655 S
C388 C387 1.332 . S
H389 C382 0.930 . S
H390 C413 0.930 . S
H391 C414 0.929 . S
O392 Tb348 2.465 . S
O392 C412 1.264 . S
O393 Tb348 2.387 1_655 S
O393 C404 1.264 . S
O394 Tb359 2.349 . S
O394 C404 1.243 . S
O395 Tb348 2.428 . S
O395 C412 1.256 . S
O396 Tb348 2.308 . S
O396 C411 1.266 . S
O397 Tb359 2.393 . S
O397 C411 1.248 1_655 S
O398 Tb359 2.465 . S
O398 C423 1.264 . S
O399 Tb359 2.387 1_455 S
O399 C415 1.264 . S
O400 Tb348 2.349 . S
O400 C415 1.243 . S
O401 Tb359 2.428 . S
O401 C423 1.256 . S
O402 Tb359 2.308 1_455 S
O402 C422 1.266 . S
O403 Tb348 2.393 . S
O403 C422 1.248 . S
C404 O393 1.264 . S
C404 O394 1.243 . S
C405 C408 1.399 . S
C405 C410 1.383 . S
C405 C412 1.496 . S
C406 C407 1.399 . S
C406 C410 1.389 . S
C407 C406 1.399 . S
C407 C409 1.380 . S
C407 H424 0.929 . S
C408 C405 1.399 . S
C408 C409 1.392 . S
C408 H425 0.929 . S
C409 C407 1.380 . S
C409 C408 1.392 . S
C409 H426 0.929 . S
C410 C405 1.383 . S
C410 C406 1.389 . S
C410 H427 0.931 . S
C411 O396 1.266 . S
C411 O397 1.248 1_455 S
C412 Tb348 2.802 . S
C412 O392 1.264 . S
C412 O395 1.256 . S
C412 C405 1.496 . S
C413 C380 1.448 . S
C413 H390 0.930 . S
C413 C414 1.328 . S
C414 C385 1.427 . S
C414 H391 0.929 . S
C414 C413 1.328 . S
C415 O399 1.264 . S
C415 O400 1.243 . S
C416 C419 1.399 . S
C416 C420 1.383 . S
C416 C423 1.496 1_554 S
C417 C418 1.399 . S
C417 C420 1.389 . S
C418 C417 1.399 . S
C418 C421 1.380 . S
C418 H428 0.929 . S
C419 C416 1.399 . S
C419 C421 1.392 . S
C419 H429 0.929 1_554 S
C420 C416 1.383 . S
C420 C417 1.389 . S
C420 H430 0.931 . S
C421 C418 1.380 . S
C421 C419 1.392 . S
C421 H431 0.929 . S
C422 O402 1.266 . S
C422 O403 1.248 . S
C423 Tb359 2.802 . S
C423 O398 1.264 . S
C423 O401 1.256 . S
C423 C416 1.496 1_556 S
H424 C407 0.929 . S
H425 C408 0.929 . S
H426 C409 0.929 . S
H427 C410 0.931 . S
H428 C418 0.929 . S
H429 C419 0.929 1_556 S
H430 C420 0.931 . S
H431 C421 0.929 . S
C432 C433 1.387 . S
C432 H436 0.950 . S
C432 C441 1.390 . S
C433 C432 1.387 . S
C433 C435 1.406 . S
H434 C441 0.950 . S
C435 C433 1.406 . S
C435 C437 1.388 1_545 S
C435 H439 0.934 1_545 S
H436 C432 0.950 . S
C437 C435 1.388 1_565 S
C437 C438 1.387 1_565 S
C437 H440 0.950 . S
C438 C437 1.387 1_545 S
C438 C441 1.387 . S
H439 C435 0.934 1_565 S
H440 C437 0.950 . S
C441 C432 1.390 . S
C441 H434 0.950 . S
C441 C438 1.387 . S
C442 C443 1.387 . S
C442 H446 0.950 . S
C442 C451 1.390 . S
C443 C442 1.387 . S
C443 C445 1.387 . S
H444 C451 0.950 . S
C445 C443 1.387 . S
C445 C447 1.390 . S
C445 H449 0.950 . S
H446 C442 0.950 . S
C447 C445 1.390 . S
C447 C448 1.387 . S
C447 H450 0.950 . S
C448 C447 1.387 . S
C448 C451 1.387 . S
H449 C445 0.950 . S
H450 C447 0.950 . S
C451 C442 1.390 . S
C451 H444 0.950 . S
C451 C448 1.387 . S
C452 C453 1.387 . S
C452 H456 0.950 . S
C452 C461 1.390 . S
C453 C452 1.387 . S
C453 C455 1.387 . S
H454 C461 0.950 . S
C455 C453 1.387 . S
C455 C457 1.390 . S
C455 H459 0.950 . S
H456 C452 0.950 . S
C457 C455 1.390 . S
C457 C458 1.387 . S
C457 H460 0.950 . S
C458 C457 1.387 . S
C458 C461 1.387 . S
H459 C455 0.950 . S
H460 C457 0.950 . S
C461 C452 1.390 . S
C461 H454 0.950 . S
C461 C458 1.387 . S
C462 C463 1.387 . S
C462 H466 0.950 . S
C462 C471 1.390 . S
C463 C462 1.387 . S
C463 C465 1.387 . S
H464 C471 0.950 . S
C465 C463 1.387 . S
C465 C467 1.390 . S
C465 H469 0.950 . S
H466 C462 0.950 . S
C467 C465 1.390 . S
C467 C468 1.387 . S
C467 H470 0.950 . S
C468 C467 1.387 . S
C468 C471 1.387 . S
H469 C465 0.950 . S
H470 C467 0.950 . S
C471 C462 1.390 . S
C471 H464 0.950 . S
C471 C468 1.387 . S
C472 C473 1.387 . S
C472 H476 0.950 . S
C472 C481 1.390 . S
C473 C472 1.387 . S
C473 C475 1.387 1_565 S
H474 C481 0.950 . S
C475 C473 1.387 1_545 S
C475 C477 1.390 . S
C475 H479 0.950 . S
H476 C472 0.950 . S
C477 C475 1.390 . S
C477 C478 1.382 1_545 S
C477 H480 0.950 1_554 S
C478 C477 1.382 1_565 S
C478 C481 1.395 . S
H479 C475 0.950 . S
H480 C477 0.950 1_556 S
C481 C472 1.390 . S
C481 H474 0.950 . S
C481 C478 1.395 . S
C482 C483 1.387 . S
C482 H486 0.950 . S
C482 C491 1.390 . S
C483 C482 1.387 . S
C483 C485 1.387 . S
H484 C491 0.950 . S
C485 C483 1.387 . S
C485 C487 1.390 . S
C485 H489 0.950 . S
H486 C482 0.950 . S
C487 C485 1.390 . S
C487 C488 1.387 . S
C487 H490 0.950 . S
C488 C487 1.387 . S
C488 C491 1.387 . S
H489 C485 0.950 . S
H490 C487 0.950 . S
C491 C482 1.390 . S
C491 H484 0.950 . S
C491 C488 1.387 . S
C492 C493 1.387 . S
C492 H496 0.950 . S
C492 C501 1.390 . S
C493 C492 1.387 . S
C493 C495 1.387 . S
H494 C501 0.950 . S
C495 C493 1.387 . S
C495 C497 1.390 . S
C495 H499 0.950 . S
H496 C492 0.950 . S
C497 C495 1.390 . S
C497 C498 1.387 . S
C497 H500 0.950 . S
C498 C497 1.387 . S
C498 C501 1.387 . S
H499 C495 0.950 . S
H500 C497 0.950 . S
C501 C492 1.390 . S
C501 H494 0.950 . S
C501 C498 1.387 . S
C502 C503 1.387 1_455 S
C502 H506 0.950 . S
C502 C511 1.390 . S
C503 C502 1.387 1_655 S
C503 C505 1.387 . S
H504 C511 0.950 . S
C505 C503 1.387 . S
C505 C507 1.390 . S
C505 H509 0.950 . S
H506 C502 0.950 . S
C507 C505 1.390 . S
C507 C508 1.387 . S
C507 H510 0.950 . S
C508 C507 1.387 . S
C508 C511 1.387 1_655 S
H509 C505 0.950 . S
H510 C507 0.950 . S
C511 C502 1.390 . S
C511 H504 0.950 . S
C511 C508 1.387 1_455 S
C512 C513 1.387 . S
C512 H516 0.950 . S
C512 C521 1.390 . S
C513 C512 1.387 . S
C513 C515 1.382 1_455 S
H514 C521 0.950 . S
C515 C513 1.382 1_655 S
C515 C517 1.393 . S
C515 H519 0.952 . S
H516 C512 0.950 . S
C517 C515 1.393 . S
C517 C518 1.387 . S
C517 H520 0.950 . S
C518 C517 1.387 . S
C518 C521 1.387 1_655 S
H519 C515 0.952 . S
H520 C517 0.950 . S
C521 C512 1.390 . S
C521 H514 0.950 . S
C521 C518 1.387 1_455 S
C522 C523 1.387 . S
C522 H526 0.950 . S
C522 C531 1.390 1_545 S
C523 C522 1.387 . S
C523 C525 1.387 . S
H524 C531 0.950 . S
C525 C523 1.387 . S
C525 C527 1.390 . S
C525 H529 0.950 . S
H526 C522 0.950 . S
C527 C525 1.390 . S
C527 C528 1.387 . S
C527 H530 0.950 . S
C528 C527 1.387 . S
C528 C531 1.387 1_545 S
H529 C525 0.950 . S
H530 C527 0.950 . S
C531 C522 1.390 1_565 S
C531 H524 0.950 . S
C531 C528 1.387 1_565 S
C532 C533 1.387 . S
C532 H536 0.950 . S
C532 C541 1.390 . S
C533 C532 1.387 . S
C533 C535 1.387 . S
H534 C541 0.950 . S
C535 C533 1.387 . S
C535 C537 1.390 . S
C535 H539 0.950 . S
H536 C532 0.950 . S
C537 C535 1.390 . S
C537 C538 1.387 . S
C537 H540 0.950 . S
C538 C537 1.387 . S
C538 C541 1.387 . S
H539 C535 0.950 . S
H540 C537 0.950 . S
C541 C532 1.390 . S
C541 H534 0.950 . S
C541 C538 1.387 . S
C542 C543 1.387 . S
C542 H546 0.950 . S
C542 C551 1.390 . S
C543 C542 1.387 . S
C543 C545 1.387 . S
H544 C551 0.950 . S
C545 C543 1.387 . S
C545 C547 1.390 . S
C545 H549 0.950 . S
H546 C542 0.950 . S
C547 C545 1.390 . S
C547 C548 1.387 . S
C547 H550 0.950 . S
C548 C547 1.387 . S
C548 C551 1.387 . S
H549 C545 0.950 . S
H550 C547 0.950 . S
C551 C542 1.390 . S
C551 H544 0.950 . S
C551 C548 1.387 . S
C552 C553 1.387 1_455 S
C552 H556 0.950 . S
C552 C561 1.390 . S
C553 C552 1.387 1_655 S
C553 C555 1.387 . S
H554 C561 0.950 . S
C555 C553 1.387 . S
C555 C557 1.390 1_655 S
C555 H559 0.950 . S
H556 C552 0.950 . S
C557 C555 1.390 1_455 S
C557 C558 1.387 . S
C557 H560 0.950 . S
C558 C557 1.387 . S
C558 C561 1.387 . S
H559 C555 0.950 . S
H560 C557 0.950 . S
C561 C552 1.390 . S
C561 H554 0.950 . S
C561 C558 1.387 . S
C562 C563 1.387 1_545 S
C562 H566 0.950 . S
C562 C571 1.390 . S
C563 C562 1.387 1_565 S
C563 C565 1.387 . S
H564 C571 0.950 . S
C565 C563 1.387 . S
C565 C567 1.404 . S
C565 H569 0.950 . S
H566 C562 0.950 . S
C567 C565 1.404 . S
C567 C568 1.369 1_565 S
C567 H570 0.955 . S
C568 C567 1.369 1_545 S
C568 C571 1.387 . S
H569 C565 0.950 . S
H570 C567 0.955 . S
C571 C562 1.390 . S
C571 H564 0.950 . S
C571 C568 1.387 . S
C572 C573 1.387 . S
C572 H576 0.950 . S
C572 C581 1.390 . S
C573 C572 1.387 . S
C573 C575 1.387 . S
H574 C581 0.950 . S
C575 C573 1.387 . S
C575 C577 1.390 . S
C575 H579 0.950 . S
H576 C572 0.950 . S
C577 C575 1.390 . S
C577 C578 1.387 . S
C577 H580 0.950 . S
C578 C577 1.387 . S
C578 C581 1.387 . S
H579 C575 0.950 . S
H580 C577 0.950 . S
C581 C572 1.390 . S
C581 H574 0.950 . S
C581 C578 1.387 . S
C582 C583 1.387 . S
C582 H586 0.950 . S
C582 C591 1.390 . S
C583 C582 1.387 . S
C583 C585 1.387 . S
H584 C591 0.950 . S
C585 C583 1.387 . S
C585 C587 1.390 . S
C585 H589 0.950 . S
H586 C582 0.950 . S
C587 C585 1.390 . S
C587 C588 1.387 . S
C587 H590 0.950 . S
C588 C587 1.387 . S
C588 C591 1.387 . S
H589 C585 0.950 . S
H590 C587 0.950 . S
C591 C582 1.390 . S
C591 H584 0.950 . S
C591 C588 1.387 . S
C592 C593 1.387 . S
C592 H596 0.950 . S
C592 C601 1.390 . S
C593 C592 1.387 . S
C593 C595 1.387 . S
H594 C601 0.950 . S
C595 C593 1.387 . S
C595 C597 1.390 . S
C595 H599 0.950 1_556 S
H596 C592 0.950 . S
C597 C595 1.390 . S
C597 C598 1.387 . S
C597 H600 0.950 . S
C598 C597 1.387 . S
C598 C601 1.387 . S
H599 C595 0.950 1_554 S
H600 C597 0.950 . S
C601 C592 1.390 . S
C601 H594 0.950 . S
C601 C598 1.387 . S
C602 C603 1.387 . S
C602 H606 0.950 1_545 S
C602 C611 1.390 . S
C603 C602 1.387 . S
C603 C605 1.387 . S
H604 C611 0.950 1_565 S
C605 C603 1.387 . S
C605 C607 1.390 . S
C605 H609 0.950 . S
H606 C602 0.950 1_565 S
C607 C605 1.390 . S
C607 C608 1.387 . S
C607 H610 0.950 . S
C608 C607 1.387 . S
C608 C611 1.387 . S
H609 C605 0.950 . S
H610 C607 0.950 . S
C611 C602 1.390 . S
C611 H604 0.950 1_545 S
C611 C608 1.387 . S
C612 C613 1.387 . S
C612 H616 0.950 . S
C612 C621 1.390 . S
C613 C612 1.387 . S
C613 C615 1.387 . S
H614 C621 0.950 . S
C615 C613 1.387 . S
C615 C617 1.390 . S
C615 H619 0.950 . S
H616 C612 0.950 . S
C617 C615 1.390 . S
C617 C618 1.387 . S
C617 H620 0.950 . S
C618 C617 1.387 . S
C618 C621 1.387 . S
H619 C615 0.950 . S
H620 C617 0.950 . S
C621 C612 1.390 . S
C621 H614 0.950 . S
C621 C618 1.387 . S
C622 C623 1.387 . S
C622 H626 0.950 . S
C622 C631 1.390 . S
C623 C622 1.387 . S
C623 C625 1.387 . S
H624 C631 0.950 . S
C625 C623 1.387 . S
C625 C627 1.390 . S
C625 H629 0.950 . S
H626 C622 0.950 . S
C627 C625 1.390 . S
C627 C628 1.387 . S
C627 H630 0.950 . S
C628 C627 1.387 . S
C628 C631 1.387 . S
H629 C625 0.950 . S
H630 C627 0.950 . S
C631 C622 1.390 . S
C631 H624 0.950 . S
C631 C628 1.387 . S
C632 C633 1.387 . S
C632 H636 0.950 . S
C632 C641 1.390 . S
C633 C632 1.387 . S
C633 C635 1.387 . S
H634 C641 0.952 . S
C635 C633 1.387 . S
C635 C637 1.390 . S
C635 H639 0.950 . S
H636 C632 0.950 . S
C637 C635 1.390 . S
C637 C638 1.387 . S
C637 H640 0.950 . S
C638 C637 1.387 . S
C638 C641 1.387 . S
H639 C635 0.950 . S
H640 C637 0.950 . S
C641 C632 1.390 . S
C641 H634 0.952 . S
C641 C638 1.387 . S
C642 C643 1.387 1_545 S
C642 H646 0.950 . S
C642 C651 1.390 . S
C643 C642 1.387 1_565 S
C643 C645 1.387 . S
H644 C651 0.950 . S
C645 C643 1.387 . S
C645 C647 1.390 . S
C645 H649 0.950 . S
H646 C642 0.950 . S
C647 C645 1.390 . S
C647 C648 1.387 . S
C647 H650 0.950 . S
C648 C647 1.387 . S
C648 C651 1.387 1_565 S
H649 C645 0.950 . S
H650 C647 0.950 . S
C651 C642 1.390 . S
C651 H644 0.950 . S
C651 C648 1.387 1_545 S
C652 C653 1.387 . S
C652 H656 0.950 . S
C652 C661 1.390 . S
C653 C652 1.387 . S
C653 C655 1.387 . S
H654 C661 0.950 . S
C655 C653 1.387 . S
C655 C657 1.390 . S
C655 H659 0.950 . S
H656 C652 0.950 . S
C657 C655 1.390 . S
C657 C658 1.387 . S
C657 H660 0.950 . S
C658 C657 1.387 . S
C658 C661 1.387 . S
H659 C655 0.950 . S
H660 C657 0.950 . S
C661 C652 1.390 . S
C661 H654 0.950 . S
C661 C658 1.387 . S
C662 C663 1.387 . S
C662 H666 0.950 . S
C662 C671 1.390 . S
C663 C662 1.387 . S
C663 C665 1.387 . S
H664 C671 0.950 . S
C665 C663 1.387 . S
C665 C667 1.390 . S
C665 H669 0.950 . S
H666 C662 0.950 . S
C667 C665 1.390 . S
C667 C668 1.387 . S
C667 H670 0.950 . S
C668 C667 1.387 . S
C668 C671 1.387 . S
H669 C665 0.950 . S
H670 C667 0.950 . S
C671 C662 1.390 . S
C671 H664 0.950 . S
C671 C668 1.387 . S
C433 C76 1.953 . S
C438 C159 2.195 . S
C448 C236 2.199 . S
C443 C88 1.955 . S
C458 C327 2.197 . S
C453 C52 1.955 . S
C468 C411 2.183 . S
C463 C64 1.945 . S
C478 C170 2.194 1_564 S
C473 C28 1.963 . S
C483 C40 1.963 . S
C488 C247 2.199 1_554 S
C493 C4 1.957 . S
C498 C338 2.195 1_554 S
C503 C16 1.949 . S
C508 C422 2.183 1_654 S
C518 C154 0.757 . S
C513 C69 0.758 . S
C528 C249 0.745 1_545 S
C523 C81 0.747 . S
C538 C322 0.769 . S
C533 C93 0.766 . S
C543 C57 0.746 . S
C548 C406 0.750 . S
C553 C21 0.755 . S
C558 C165 0.761 . S
C568 C238 0.750 . S
C563 C33 0.748 . S
C578 C333 0.768 . S
C573 C45 0.761 . S
C583 C9 0.744 . S
C588 C417 0.749 . S
C593 C66 2.044 . S
C598 C163 2.303 . S
C603 C78 2.050 . S
C608 C254 2.352 . S
C618 C331 2.318 . S
C613 C90 2.056 . S
C628 C415 2.322 . S
C623 C54 2.061 . S
C633 C18 2.042 . S
C638 C152 2.304 . S
C648 C243 2.351 1_565 S
C643 C30 2.048 . S
C658 C320 2.318 . S
C653 C42 2.052 . S
C663 C6 2.060 . S
C668 C404 2.323 . S
