# Generated by pormake.
# Topology pyr, (3,6)-cn, num edge types: 1
# Building blocks:
#     Node 0, Type 0, BuildingBlock: ESEHIV_clean_linker_0, # of connection points: 3
#     Node 1, Type 0, BuildingBlock: ESEHIV_clean_linker_0, # of connection points: 3
#     Node 2, Type 0, BuildingBlock: ESEHIV_clean_linker_0, # of connection points: 3
#     Node 3, Type 0, BuildingBlock: ESEHIV_clean_linker_0, # of connection points: 3
#     Node 4, Type 0, BuildingBlock: ESEHIV_clean_linker_0, # of connection points: 3
#     Node 5, Type 0, BuildingBlock: ESEHIV_clean_linker_0, # of connection points: 3
#     Node 6, Type 0, BuildingBlock: ESEHIV_clean_linker_0, # of connection points: 3
#     Node 7, Type 0, BuildingBlock: ESEHIV_clean_linker_0, # of connection points: 3
#     Node 8, Type 1, BuildingBlock: BETFAJ_clean_sbu_0, # of connection points: 6
#     Node 9, Type 1, BuildingBlock: BETFAJ_clean_sbu_0, # of connection points: 6
#     Node 10, Type 1, BuildingBlock: BETFAJ_clean_sbu_0, # of connection points: 6
#     Node 11, Type 1, BuildingBlock: BETFAJ_clean_sbu_0, # of connection points: 6
#     Edge 12, Type (0, 1), BuildingBlock: KIFKEQ_clean_linker_1, # of connection points: 2
#     Edge 13, Type (0, 1), BuildingBlock: KIFKEQ_clean_linker_1, # of connection points: 2
#     Edge 14, Type (0, 1), BuildingBlock: KIFKEQ_clean_linker_1, # of connection points: 2
#     Edge 15, Type (0, 1), BuildingBlock: KIFKEQ_clean_linker_1, # of connection points: 2
#     Edge 16, Type (0, 1), BuildingBlock: KIFKEQ_clean_linker_1, # of connection points: 2
#     Edge 17, Type (0, 1), BuildingBlock: KIFKEQ_clean_linker_1, # of connection points: 2
#     Edge 18, Type (0, 1), BuildingBlock: KIFKEQ_clean_linker_1, # of connection points: 2
#     Edge 19, Type (0, 1), BuildingBlock: KIFKEQ_clean_linker_1, # of connection points: 2
#     Edge 20, Type (0, 1), BuildingBlock: KIFKEQ_clean_linker_1, # of connection points: 2
#     Edge 21, Type (0, 1), BuildingBlock: KIFKEQ_clean_linker_1, # of connection points: 2
#     Edge 22, Type (0, 1), BuildingBlock: KIFKEQ_clean_linker_1, # of connection points: 2
#     Edge 23, Type (0, 1), BuildingBlock: KIFKEQ_clean_linker_1, # of connection points: 2
#     Edge 24, Type (0, 1), BuildingBlock: KIFKEQ_clean_linker_1, # of connection points: 2
#     Edge 25, Type (0, 1), BuildingBlock: KIFKEQ_clean_linker_1, # of connection points: 2
#     Edge 26, Type (0, 1), BuildingBlock: KIFKEQ_clean_linker_1, # of connection points: 2
#     Edge 27, Type (0, 1), BuildingBlock: KIFKEQ_clean_linker_1, # of connection points: 2
#     Edge 28, Type (0, 1), BuildingBlock: KIFKEQ_clean_linker_1, # of connection points: 2
#     Edge 29, Type (0, 1), BuildingBlock: KIFKEQ_clean_linker_1, # of connection points: 2
#     Edge 30, Type (0, 1), BuildingBlock: KIFKEQ_clean_linker_1, # of connection points: 2
#     Edge 31, Type (0, 1), BuildingBlock: KIFKEQ_clean_linker_1, # of connection points: 2
#     Edge 32, Type (0, 1), BuildingBlock: KIFKEQ_clean_linker_1, # of connection points: 2
#     Edge 33, Type (0, 1), BuildingBlock: KIFKEQ_clean_linker_1, # of connection points: 2
#     Edge 34, Type (0, 1), BuildingBlock: KIFKEQ_clean_linker_1, # of connection points: 2
#     Edge 35, Type (0, 1), BuildingBlock: KIFKEQ_clean_linker_1, # of connection points: 2
# Relax obj value: 0.132
# Max RMSD: 0.130
# Mean RMSD: 0.063
data_MOF--net-pyr--node1-BETFAJ_clean_sbu_0--node2-ESEHIV_clean_linker_0--edge1-KIFKEQ_clean_linker_1
_symmetry_space_group_name_H-M    P1
_symmetry_Int_Tables_number       1
_symmetry_cell_setting            triclinic
loop_
_symmetry_equiv_pos_as_xyz
'x, y, z'
_cell_length_a     37.155931
_cell_length_b     38.727182
_cell_length_c     33.434039
_cell_angle_alpha  91.128703
_cell_angle_beta   89.281048
_cell_angle_gamma 103.17895
loop_
_atom_site_label
_atom_site_type_symbol
_atom_site_fract_x
_atom_site_fract_y
_atom_site_fract_z
_atom_type_partial_charge
H0 H 0.31571 0.33369 0.28223 0.0
H1 H 0.39135 0.26515 0.28442 0.0
H2 H 0.38976 0.33166 0.18302 0.0
C3 C 0.33934 0.32521 0.26952 0.0
C4 C 0.35287 0.33773 0.23187 0.0
C5 C 0.35234 0.29839 0.28813 0.0
C6 C 0.3817 0.28638 0.27043 0.0
C7 C 0.39556 0.29821 0.2326 0.0
C8 C 0.38061 0.32363 0.21303 0.0
H9 H 0.23884 0.9054 0.72695 0.0
H10 H 0.3197 0.84665 0.69337 0.0
H11 H 0.27183 0.8992 0.60331 0.0
C12 C 0.25465 0.89526 0.70394 0.0
C13 C 0.25157 0.90437 0.66379 0.0
C14 C 0.2789 0.87424 0.71493 0.0
C15 C 0.30107 0.86323 0.68543 0.0
C16 C 0.29918 0.8729 0.64547 0.0
C17 C 0.27394 0.89282 0.63448 0.0
H18 H 0.69002 0.34323 0.95454 0.0
H19 H 0.69407 0.43116 0.87733 0.0
H20 H 0.60409 0.33871 0.86796 0.0
C21 C 0.6783 0.35487 0.93011 0.0
C22 C 0.6451 0.33609 0.91247 0.0
C23 C 0.69609 0.38913 0.91782 0.0
C24 C 0.67995 0.4051 0.88737 0.0
C25 C 0.64665 0.38731 0.86884 0.0
C26 C 0.62959 0.3527 0.88175 0.0
H27 H 0.81788 0.72992 0.45406 0.0
H28 H 0.90291 0.73698 0.36447 0.0
H29 H 0.81684 0.64143 0.3741 0.0
C30 C 0.83029 0.71766 0.42975 0.0
C31 C 0.81312 0.68324 0.41634 0.0
C32 C 0.86286 0.7371 0.41175 0.0
C33 C 0.87808 0.72191 0.37873 0.0
C34 C 0.86153 0.68732 0.36436 0.0
C35 C 0.8291 0.66836 0.3837 0.0
H36 H 0.64935 0.81282 0.84808 0.0
H37 H 0.69829 0.72573 0.87401 0.0
H38 H 0.64517 0.77333 0.9679 0.0
C39 C 0.65459 0.79351 0.86887 0.0
C40 C 0.64264 0.79485 0.90892 0.0
C41 C 0.67588 0.76956 0.85631 0.0
C42 C 0.68199 0.74441 0.88343 0.0
C43 C 0.67163 0.74592 0.92379 0.0
C44 C 0.65178 0.77111 0.93643 0.0
H45 H 0.73663 0.2944 0.42261 0.0
H46 H 0.82042 0.23489 0.40683 0.0
H47 H 0.7698 0.24167 0.52238 0.0
C48 C 0.75432 0.27859 0.43486 0.0
C49 C 0.74962 0.26844 0.47493 0.0
C50 C 0.77934 0.26625 0.40972 0.0
C51 C 0.8023 0.24608 0.42625 0.0
C52 C 0.7995 0.23746 0.46706 0.0
C53 C 0.77321 0.24911 0.49126 0.0
H54 H 0.33746 0.74889 0.20307 0.0
H55 H 0.33074 0.66084 0.2815 0.0
H56 H 0.42211 0.75145 0.29063 0.0
C57 C 0.34872 0.73652 0.22718 0.0
C58 C 0.38234 0.75454 0.24475 0.0
C59 C 0.3295 0.70275 0.2401 0.0
C60 C 0.34454 0.68708 0.27177 0.0
C61 C 0.37801 0.70424 0.29018 0.0
C62 C 0.39676 0.73786 0.27618 0.0
H63 H 0.1085 0.35514 0.79465 0.0
H64 H 0.19742 0.35858 0.70964 0.0
H65 H 0.19943 0.44708 0.78908 0.0
C66 C 0.13452 0.36893 0.78165 0.0
C67 C 0.15229 0.4029 0.79693 0.0
C68 C 0.15013 0.35276 0.74949 0.0
C69 C 0.18445 0.3708 0.73356 0.0
C70 C 0.20223 0.40474 0.74757 0.0
C71 C 0.18581 0.42068 0.77882 0.0
Sm72 Sm 0.01367 0.06406 0.53834 0.0
Sm73 Sm 0.9852 1.03257 0.61788 0.0
C74 C 0.02915 0.09161 0.467 0.0
C75 C 0.06129 0.11658 0.45002 0.0
C76 C 0.07687 0.14899 0.46937 0.0
C77 C 0.10982 0.17044 0.45513 0.0
C78 C 0.12799 0.15965 0.4216 0.0
C79 C 0.1119 0.1274 0.40204 0.0
C80 C 0.07879 0.10624 0.41598 0.0
C81 C 0.06565 1.04174 0.58256 0.0
C82 C 0.03314 0.11309 0.61869 0.0
C83 C 0.96435 0.99319 0.68147 0.0
C84 C 0.93506 0.96143 0.68919 0.0
C85 C 0.92692 0.93295 0.66151 0.0
C86 C 0.89548 0.90553 0.6668 0.0
C87 C 0.8716 0.90662 0.69947 0.0
C88 C 0.88057 0.93455 0.72768 0.0
C89 C 0.91205 0.96164 0.72261 0.0
C90 C 0.9435 0.0745 0.58493 0.0
C91 C 0.96284 0.98218 0.53734 0.0
O92 O 1.00908 0.10433 0.49355 0.0
O93 O 0.03514 0.06084 0.47666 0.0
O94 O 0.03243 1.02594 0.57846 0.0
O95 O 0.07328 0.07037 0.56168 0.0
O96 O 0.02303 0.11306 0.58086 0.0
O97 O 0.02836 0.08288 0.63819 0.0
O98 O 0.99201 0.98959 0.65839 0.0
O99 O 0.95242 1.0215 0.67377 0.0
O100 O 0.95711 0.05206 0.56599 0.0
O101 O 0.95048 0.0746 0.62279 0.0
O102 O 0.95738 0.98593 0.57621 0.0
O103 O 0.98318 1.00817 0.51624 0.0
H104 H 0.0641 0.15746 0.49599 0.0
H105 H 0.12113 0.19532 0.47055 0.0
H106 H 0.1254 0.11787 0.37661 0.0
H107 H 0.06746 0.08114 0.40093 0.0
H108 H 0.94417 0.93238 0.63527 0.0
H109 H 0.88919 0.88417 0.64477 0.0
H110 H 0.86298 0.9356 0.75356 0.0
H111 H 0.91777 0.98344 0.74416 0.0
Sm112 Sm 0.5583 0.05395 0.09312 0.0
Sm113 Sm 0.48081 1.03526 1.06806 0.0
C114 C 0.62802 0.07901 0.11402 0.0
C115 C 0.65519 0.11076 0.12715 0.0
C116 C 0.65575 0.14454 0.11228 0.0
C117 C 0.68155 0.17422 0.12676 0.0
C118 C 0.70693 0.17048 0.15642 0.0
C119 C 0.70663 0.13628 0.17018 0.0
C120 C 0.68114 0.10681 0.15558 0.0
C121 C 0.51805 0.99094 0.12545 0.0
C122 C 0.501 0.09819 0.13216 0.0
C123 C 0.41132 1.00501 1.05071 0.0
C124 C 0.39056 0.97192 1.03241 0.0
C125 C 0.35249 0.96091 1.03955 0.0
C126 C 0.33145 0.93236 1.0178 0.0
C127 C 0.34825 0.91472 0.98831 0.0
C128 C 0.38696 0.92425 0.98364 0.0
C129 C 0.40794 0.95257 1.0056 0.0
C130 C 0.51963 0.09804 1.0348 0.0
C131 C 0.54002 0.99577 1.02366 0.0
O132 O 0.61657 0.07782 0.07712 0.0
O133 O 0.60189 0.06547 0.13953 0.0
O134 O 0.50703 1.01939 0.12301 0.0
O135 O 0.55133 0.99542 0.11135 0.0
O136 O 0.53556 0.10007 0.12087 0.0
O137 O 0.47469 0.0707 0.1217 0.0
O138 O 0.42585 1.00245 0.08558 0.0
O139 O 0.43343 1.02659 1.02678 0.0
O140 O 0.53192 0.07023 1.03805 0.0
O141 O 0.48573 0.09256 1.04747 0.0
O142 O 0.50529 0.99235 1.03516 0.0
O143 O 0.56584 1.02245 1.03687 0.0
H144 H 0.63594 0.14805 0.09009 0.0
H145 H 0.6811 0.2001 0.11539 0.0
H146 H 0.72491 0.13226 0.19373 0.0
H147 H 0.6811 0.0809 0.16729 0.0
H148 H 0.3388 0.97538 1.06061 0.0
H149 H 0.30181 0.92531 1.02256 0.0
H150 H 0.40089 0.91166 0.96094 0.0
H151 H 0.43742 0.96056 1.00001 0.0
Sm152 Sm 0.50212 0.51263 0.55542 0.0
Sm153 Sm 0.51068 0.57378 0.6052 0.0
C154 C 0.5061 0.45339 0.51644 0.0
C155 C 0.51365 0.41978 0.52893 0.0
C156 C 0.51884 0.41391 0.56954 0.0
C157 C 0.53344 0.38543 0.58082 0.0
C158 C 0.54204 0.36204 0.55161 0.0
C159 C 0.53367 0.36623 0.51133 0.0
C160 C 0.51983 0.39516 0.50002 0.0
C161 C 0.43852 0.5139 0.59884 0.0
C162 C 0.53849 0.51092 0.64591 0.0
C163 C 0.5015 0.63225 0.64187 0.0
C164 C 0.48178 0.65882 0.62877 0.0
C165 C 0.44972 0.64837 0.60565 0.0
C166 C 0.4324 0.6736 0.59054 0.0
C167 C 0.44647 0.70986 0.59865 0.0
C168 C 0.47869 0.7203 0.62177 0.0
C169 C 0.4963 0.69495 0.63655 0.0
C170 C 0.57478 0.57247 0.56323 0.0
C171 C 0.47705 0.57615 0.51433 0.0
O172 O 0.53395 0.48079 0.51974 0.0
O173 O 0.47507 0.46009 0.52923 0.0
O174 O 0.47089 0.5207 0.61265 0.0
O175 O 0.43915 0.50793 0.56059 0.0
O176 O 0.53598 0.49804 0.60881 0.0
O177 O 0.52667 0.5398 0.65449 0.0
O178 O 0.48097 0.60084 0.64935 0.0
O179 O 0.53116 0.63086 0.62121 0.0
O180 O 0.54265 0.56547 0.54849 0.0
O181 O 0.57355 0.57932 0.60131 0.0
O182 O 0.47532 0.58637 0.55211 0.0
O183 O 0.49216 0.54933 0.50562 0.0
H184 H 0.51344 0.43232 0.59231 0.0
H185 H 0.53977 0.3827 0.61199 0.0
H186 H 0.54059 0.34878 0.4882 0.0
H187 H 0.51589 0.39934 0.46858 0.0
H188 H 0.43804 0.62063 0.59903 0.0
H189 H 0.40792 0.66465 0.57251 0.0
H190 H 0.48989 0.74798 0.62919 0.0
H191 H 0.52121 0.70352 0.65402 0.0
Sm192 Sm 0.01232 0.51305 0.10298 0.0
Sm193 Sm 1.00944 0.57936 1.06267 0.0
C194 C 0.03327 0.45671 0.12964 0.0
C195 C 0.06929 0.44815 0.13665 0.0
C196 C 0.10099 0.46535 0.11543 0.0
C197 C 0.13516 0.45723 0.12247 0.0
C198 C 0.13828 0.43197 0.1511 0.0
C199 C 0.10641 0.41489 0.17231 0.0
C200 C 0.07223 0.42291 0.1651 0.0
C201 C 0.97322 0.5541 0.14657 0.0
C202 C 0.08404 0.58232 0.11102 0.0
C203 C 0.98813 0.63545 1.03617 0.0
C204 C 0.95183 0.64411 1.03128 0.0
C205 C 0.92322 0.63316 1.05941 0.0
C206 C 0.88854 0.6406 1.05377 0.0
C207 C 0.88169 0.65864 1.01966 0.0
C208 C 0.9104 0.66954 0.99161 0.0
C209 C 0.94517 0.6624 0.99744 0.0
C210 C 0.04772 0.53774 1.01869 0.0
C211 C 0.93795 0.51021 1.05417 0.0
O212 O 0.02511 0.46043 0.09229 0.0
O213 O 0.02466 0.48087 0.15336 0.0
O214 O 1.00336 0.56555 0.12805 0.0
O215 O 0.9633 0.51973 0.14336 0.0
O216 O 0.07192 0.54748 0.11223 0.0
O217 O 0.06354 0.60233 0.09572 0.0
O218 O 0.99867 0.63284 1.07293 0.0
O219 O 0.99516 0.61057 1.01241 0.0
O220 O 0.01771 0.52671 1.03751 0.0
O221 O 0.05804 0.57209 1.02182 0.0
O222 O 0.94967 0.54512 1.05398 0.0
O223 O 0.95876 0.49017 1.06883 0.0
H224 H 0.09937 0.48514 0.09348 0.0
H225 H 0.15923 0.47113 0.10599 0.0
H226 H 0.1078 0.39503 0.19424 0.0
H227 H 0.04809 0.40939 0.18177 0.0
H228 H 0.92755 0.61856 0.08556 0.0
H229 H 0.86685 0.63159 0.07566 0.0
H230 H 0.90602 0.6838 0.96522 0.0
H231 H 0.9668 0.67094 0.97536 0.0
H232 H 0.32005 0.32277 0.35419 0.0
H233 H 0.33089 0.22664 0.29206 0.0
H234 H 0.26811 0.28843 0.39306 0.0
H235 H 0.27984 0.19281 0.33108 0.0
H236 H 0.15186 0.17086 0.34434 0.0
H237 H 0.21213 0.20286 0.32075 0.0
H238 H 0.24576 0.23143 0.44227 0.0
H239 H 0.18568 0.19782 0.46653 0.0
C240 C 0.31221 0.29426 0.34982 0.0
C241 C 0.32934 0.27751 0.31979 0.0
C242 C 0.28265 0.27468 0.3721 0.0
C243 C 0.26982 0.23822 0.36438 0.0
C244 C 0.28913 0.22101 0.33717 0.0
C245 C 0.31867 0.24042 0.31516 0.0
C246 C 0.17214 0.18342 0.36623 0.0
C247 C 0.16397 0.18134 0.40737 0.0
C248 C 0.20661 0.20182 0.35267 0.0
C249 C 0.23357 0.21905 0.37983 0.0
C250 C 0.22532 0.21816 0.42087 0.0
C251 C 0.19087 0.19918 0.4346 0.0
H252 H 0.34216 0.87296 0.75498 0.0
H253 H 0.22381 0.85576 0.77126 0.0
H254 H 0.3493 0.86632 0.8261 0.0
H255 H 0.23122 0.84992 0.84321 0.0
H256 H 0.28469 0.92335 0.95416 0.0
H257 H 0.25985 0.89849 0.89076 0.0
H258 H 0.33643 0.82968 0.88758 0.0
H259 H 0.36112 0.8542 0.9521 0.0
C260 C 0.31751 0.86674 0.77354 0.0
C261 C 0.28246 0.86542 0.75748 0.0
C262 C 0.3216 0.86274 0.81442 0.0
C263 C 0.29079 0.85762 0.84024 0.0
C264 C 0.25545 0.85405 0.82396 0.0
C265 C 0.25129 0.85777 0.7829 0.0
C266 C 0.29514 0.9017 0.94116 0.0
C267 C 0.32565 0.89146 0.95772 0.0
C268 C 0.28081 0.8874 0.90459 0.0
C269 C 0.29682 0.86276 0.88381 0.0
C270 C 0.3241 0.8492 0.9027 0.0
C271 C 0.3383 0.86334 0.9395 0.0
H272 H 0.64517 0.45796 0.86228 0.0
H273 H 0.61014 0.35722 0.80036 0.0
H274 H 0.62055 0.48705 0.80872 0.0
H275 H 0.58367 0.38611 0.74762 0.0
H276 H 0.571 0.45364 0.63905 0.0
H277 H 0.59653 0.42393 0.69186 0.0
H278 H 0.56658 0.49617 0.77947 0.0
H279 H 0.542 0.52627 0.72659 0.0
C280 C 0.63223 0.44185 0.83728 0.0
C281 C 0.63001 0.40499 0.83606 0.0
C282 C 0.61751 0.45861 0.80656 0.0
C283 C 0.59978 0.4392 0.77337 0.0
C284 C 0.59739 0.40229 0.77218 0.0
C285 C 0.61221 0.38551 0.80294 0.0
C286 C 0.56984 0.46322 0.66957 0.0
C287 C 0.55437 0.49257 0.67825 0.0
C288 C 0.58437 0.44596 0.70011 0.0
C289 C 0.58391 0.45741 0.74044 0.0
C290 C 0.56827 0.48672 0.74897 0.0
C291 C 0.55385 0.504 0.71847 0.0
H292 H 0.82563 0.64374 0.30402 0.0
H293 H 0.93534 0.69224 0.34582 0.0
H294 H 0.85202 0.61344 0.2506 0.0
H295 H 0.96176 0.66215 0.29189 0.0
H296 H 0.99796 0.62423 0.16897 0.0
H297 H 0.97129 0.65805 0.21948 0.0
H298 H 0.88368 0.56578 0.24148 0.0
H299 H 0.91016 0.53232 0.19095 0.0
C300 C 0.85541 0.6479 0.30207 0.0
C301 C 0.87815 0.67041 0.32986 0.0
C302 C 0.87062 0.63044 0.27121 0.0
C303 C 0.90915 0.63497 0.26681 0.0
C304 C 0.932 0.65818 0.2939 0.0
C305 C 0.91676 0.67555 0.32495 0.0
C306 C 0.9729 0.61126 0.1845 0.0
C307 C 0.9563 0.57548 0.17593 0.0
C308 C 0.95769 0.63059 0.21369 0.0
C309 C 0.92523 0.61479 0.23488 0.0
C310 C 0.90839 0.57914 0.22566 0.0
C311 C 0.92372 0.5598 0.19673 0.0
H312 H 0.38545 0.26541 0.15965 0.0
H313 H 0.46 0.28479 0.25976 0.0
H314 H 0.41561 0.21942 0.13429 0.0
H315 H 0.49024 0.2387 0.23433 0.0
H316 H 0.54578 0.16259 0.15399 0.0
H317 H 0.52609 0.21678 0.17419 0.0
H318 H 0.41205 0.15963 0.1684 0.0
H319 H 0.43127 0.10581 0.14898 0.0
C320 C 0.40919 0.26078 0.17538 0.0
C321 C 0.42035 0.27857 0.21169 0.0
C322 C 0.42615 0.23418 0.16116 0.0
C323 C 0.45481 0.22514 0.18277 0.0
C324 C 0.46821 0.24512 0.21713 0.0
C325 C 0.45095 0.27148 0.23162 0.0
C326 C 0.51654 0.1615 0.15763 0.0
C327 C 0.49014 0.12979 0.14983 0.0
C328 C 0.50533 0.19255 0.16895 0.0
C329 C 0.46756 0.19251 0.17198 0.0
C330 C 0.44134 0.16062 0.16537 0.0
C331 C 0.45245 0.12964 0.15467 0.0
H332 H 0.2604 0.95728 0.60847 0.0
H333 H 0.18249 0.90047 0.69488 0.0
H334 H 0.21604 0.99199 0.5908 0.0
H335 H 0.13972 0.93697 0.67971 0.0
H336 H 0.13988 0.06906 0.59115 0.0
H337 H 0.18604 1.03748 0.6131 0.0
H338 H 0.09965 0.9426 0.62835 0.0
H339 H 0.05398 0.97444 0.60849 0.0
C340 C 0.2339 0.95223 0.62376 0.0
C341 C 0.225 0.92598 0.653 0.0
C342 C 0.20872 0.97258 0.61414 0.0
C343 C 0.17428 0.9673 0.63382 0.0
C344 C 0.16573 0.94142 0.66347 0.0
C345 C 0.19055 0.92078 0.67261 0.0
C346 C 0.13096 1.04159 0.59975 0.0
C347 C 0.0935 1.02416 0.59821 0.0
C348 C 0.15732 1.02341 0.61195 0.0
C349 C 0.14658 0.98746 0.62245 0.0
C350 C 0.10892 0.9704 0.62129 0.0
C351 C 0.08269 0.98862 0.60965 0.0
H352 H 0.7565 0.36249 0.93413 0.0
H353 H 0.71636 0.45832 0.94528 0.0
H354 H 0.81369 0.39193 0.96686 0.0
H355 H 0.7731 0.48772 0.97953 0.0
H356 H 0.89356 0.54112 1.00819 0.0
H357 H 0.83617 0.51286 0.97489 0.0
H358 H 0.84107 0.4128 1.02708 0.0
H359 H 0.8993 0.44086 1.05874 0.0
C360 C 0.75977 0.38984 0.94394 0.0
C361 C 0.73166 0.40793 0.93708 0.0
C362 C 0.79264 0.40681 0.96306 0.0
C363 C 0.79842 0.44238 0.97651 0.0
C364 C 0.77028 0.46055 0.96931 0.0
C365 C 0.73753 0.44365 0.94968 0.0
C366 C 0.88234 0.51309 1.01268 0.0
C367 C 0.90135 0.49332 1.03613 0.0
C368 C 0.84911 0.49679 0.99365 0.0
C369 C 0.83355 0.46023 0.99777 0.0
C370 C 0.85226 0.44074 1.02211 0.0
C371 C 0.88569 0.45695 1.04073 0.0
H372 H 0.79559 0.68311 0.49651 0.0
H373 H 0.75214 0.63735 0.3833 0.0
H374 H 0.73858 0.65456 0.52953 0.0
H375 H 0.69574 0.60637 0.41704 0.0
H376 H 0.58301 0.58908 0.48356 0.0
H377 H 0.64053 0.6133 0.4474 0.0
H378 H 0.70265 0.60231 0.55307 0.0
H379 H 0.64512 0.58002 0.58938 0.0
C380 C 0.77394 0.66683 0.47852 0.0
C381 C 0.77868 0.66309 0.43692 0.0
C382 C 0.7412 0.64978 0.49774 0.0
C383 C 0.7121 0.62778 0.47627 0.0
C384 C 0.7171 0.62337 0.43474 0.0
C385 C 0.74983 0.64081 0.41537 0.0
C386 C 0.60904 0.59161 0.49885 0.0
C387 C 0.60952 0.58293 0.53944 0.0
C388 C 0.64218 0.6054 0.47807 0.0
C389 C 0.67668 0.61041 0.49721 0.0
C390 C 0.67688 0.6 0.53738 0.0
C391 C 0.64382 0.58681 0.55823 0.0
H392 H 0.31837 0.32559 0.15973 0.0
H393 H 0.34022 0.40073 0.25828 0.0
H394 H 0.27007 0.35368 0.13618 0.0
H395 H 0.2925 0.42929 0.23456 0.0
H396 H 0.16776 0.4237 0.22365 0.0
H397 H 0.22573 0.40726 0.23734 0.0
H398 H 0.24981 0.40564 0.11066 0.0
H399 H 0.191 0.42133 0.09688 0.0
C400 C 0.31391 0.34907 0.17532 0.0
C401 C 0.33287 0.36095 0.21087 0.0
C402 C 0.28611 0.36508 0.16199 0.0
C403 C 0.27688 0.39325 0.18401 0.0
C404 C 0.29834 0.40712 0.21745 0.0
C405 C 0.32594 0.39108 0.23079 0.0
C406 C 0.18536 0.4198 0.19868 0.0
C407 C 0.17463 0.4236 0.15918 0.0
C408 C 0.21889 0.41085 0.20653 0.0
C409 C 0.24261 0.40538 0.17509 0.0
C410 C 0.23214 0.40959 0.13553 0.0
C411 C 0.19859 0.4188 0.12767 0.0
H412 H 0.6778 0.2832 0.93828 0.0
H413 H 0.57044 0.3053 0.9202 0.0
H414 H 0.64876 0.22668 0.96755 0.0
H415 H 0.54124 0.24757 0.94683 0.0
H416 H 0.49847 0.16068 1.03602 0.0
H417 H 0.52854 0.21646 1.00572 0.0
H418 H 0.61508 0.16831 0.95961 0.0
H419 H 0.58532 0.11259 0.99177 0.0
C420 C 0.64793 0.27609 0.94034 0.0
C421 C 0.62673 0.29957 0.92712 0.0
C422 C 0.63112 0.24311 0.95672 0.0
C423 C 0.59238 0.23208 0.96015 0.0
C424 C 0.57112 0.25507 0.94572 0.0
C425 C 0.58796 0.28822 0.92967 0.0
C426 C 0.52393 0.16193 1.01938 0.0
C427 C 0.5393 0.13198 1.01614 0.0
C428 C 0.54116 0.19405 1.00157 0.0
C429 C 0.57428 0.19736 0.97945 0.0
C430 C 0.58987 0.16729 0.97656 0.0
C431 C 0.57272 0.13512 0.99483 0.0
H432 H 0.88708 0.7999 0.37177 0.0
H433 H 0.87811 0.75589 0.48987 0.0
H434 H 0.91001 0.85932 0.40066 0.0
H435 H 0.90218 0.8146 0.51878 0.0
H436 H 0.91028 0.92606 0.56603 0.0
H437 H 0.88708 0.86814 0.53474 0.0
H438 H 0.95791 0.90022 0.43216 0.0
H439 H 0.97993 0.95866 0.46294 0.0
C440 C 0.89061 0.80286 0.40386 0.0
C441 C 0.88049 0.77311 0.42847 0.0
C442 C 0.90382 0.837 0.42057 0.0
C443 C 0.90769 0.84231 0.46238 0.0
C444 C 0.8987 0.81217 0.48667 0.0
C445 C 0.88514 0.77826 0.47004 0.0
C446 C 0.92078 0.92088 0.53669 0.0
C447 C 0.94706 0.94725 0.51716 0.0
C448 C 0.90767 0.88735 0.51873 0.0
C449 C 0.92073 0.87885 0.48079 0.0
C450 C 0.94666 0.90553 0.46105 0.0
C451 C 0.95948 0.9392 0.47887 0.0
H452 H 0.37375 0.88832 0.64473 0.0
H453 H 0.27862 0.82856 0.58148 0.0
H454 H 0.41209 0.8522 0.61346 0.0
H455 H 0.31716 0.79239 0.54917 0.0
H456 H 0.37182 0.70284 0.59821 0.0
H457 H 0.33836 0.74849 0.58816 0.0
H458 H 0.44063 0.82325 0.5605 0.0
H459 H 0.47453 0.77688 0.57024 0.0
C460 C 0.36155 0.86846 0.62254 0.0
C461 C 0.32334 0.86058 0.61593 0.0
C462 C 0.38351 0.84783 0.60438 0.0
C463 C 0.36744 0.81884 0.57955 0.0
C464 C 0.3301 0.81417 0.56877 0.0
C465 C 0.3081 0.83493 0.58699 0.0
C466 C 0.38721 0.72858 0.58856 0.0
C467 C 0.42597 0.73635 0.58573 0.0
C468 C 0.36788 0.75485 0.58252 0.0
C469 C 0.38684 0.78963 0.57373 0.0
C470 C 0.42533 0.79676 0.56767 0.0
C471 C 0.44473 0.77033 0.57362 0.0
H472 H 0.7469 0.76277 0.84429 0.0
H473 H 0.65661 0.7922 0.78316 0.0
H474 H 0.78832 0.7865 0.7908 0.0
H475 H 0.69939 0.81764 0.72964 0.0
H476 H 0.80258 0.91644 0.71392 0.0
H477 H 0.74912 0.8726 0.73735 0.0
H478 H 0.80952 0.7903 0.72041 0.0
H479 H 0.86347 0.83465 0.69742 0.0
C480 C 0.73527 0.7729 0.81872 0.0
C481 C 0.69817 0.77585 0.81861 0.0
C482 C 0.75937 0.78671 0.78781 0.0
C483 C 0.74727 0.80434 0.75619 0.0
C484 C 0.70954 0.80454 0.75398 0.0
C485 C 0.68514 0.79019 0.78479 0.0
C486 C 0.80409 0.88883 0.71435 0.0
C487 C 0.83729 0.87894 0.70484 0.0
C488 C 0.7733 0.86362 0.72723 0.0
C489 C 0.77523 0.82803 0.73111 0.0
C490 C 0.8074 0.81762 0.71802 0.0
C491 C 0.8382 0.84292 0.70484 0.0
H492 H 0.83516 0.27648 0.35272 0.0
H493 H 0.71666 0.26057 0.36645 0.0
H494 H 0.82768 0.26967 0.28008 0.0
H495 H 0.70941 0.25443 0.29544 0.0
H496 H 0.68908 0.2337 0.17591 0.0
H497 H 0.71693 0.27455 0.22872 0.0
H498 H 0.80356 0.21757 0.23991 0.0
H499 H 0.77753 0.17863 0.18476 0.0
C500 C 0.8077 0.27234 0.34031 0.0
C501 C 0.77656 0.26897 0.36559 0.0
C502 C 0.80343 0.26863 0.29874 0.0
C503 C 0.76796 0.26154 0.28176 0.0
C504 C 0.73728 0.26073 0.30702 0.0
C505 C 0.74148 0.26421 0.34821 0.0
C506 C 0.71511 0.23091 0.18808 0.0
C507 C 0.73014 0.20182 0.17736 0.0
C508 C 0.73092 0.25421 0.21876 0.0
C509 C 0.76139 0.24824 0.23988 0.0
C510 C 0.77972 0.22268 0.22486 0.0
C511 C 0.76439 0.19989 0.19356 0.0
H512 H 0.34072 0.6704 0.35514 0.0
H513 H 0.44964 0.69816 0.30195 0.0
H514 H 0.36459 0.64024 0.40895 0.0
H515 H 0.47357 0.66793 0.35587 0.0
H516 H 0.49147 0.57457 0.43354 0.0
H517 H 0.46845 0.60628 0.38047 0.0
H518 H 0.40643 0.65274 0.46795 0.0
H519 H 0.42951 0.62105 0.52098 0.0
C520 C 0.36979 0.67007 0.35487 0.0
C521 C 0.39316 0.68676 0.32396 0.0
C522 C 0.38357 0.65295 0.38598 0.0
C523 C 0.42108 0.65146 0.38694 0.0
C524 C 0.44449 0.6682 0.35607 0.0
C525 C 0.43081 0.68584 0.32526 0.0
C526 C 0.47287 0.59149 0.44152 0.0
C527 C 0.46245 0.59518 0.48176 0.0
C528 C 0.45986 0.60993 0.41103 0.0
C529 C 0.43553 0.63224 0.4197 0.0
C530 C 0.42488 0.63568 0.45994 0.0
C531 C 0.43833 0.61764 0.49049 0.0
H532 H 0.18926 0.44369 0.85857 0.0
H533 H 0.07886 0.4015 0.81465 0.0
H534 H 0.16435 0.47458 0.9125 0.0
H535 H 0.05387 0.43208 0.86933 0.0
H536 H 0.02006 0.46856 0.9945 0.0
H537 H 0.04464 0.43451 0.94253 0.0
H538 H 0.13533 0.52447 0.92215 0.0
H539 H 0.11084 0.55824 0.97405 0.0
C540 C 0.15964 0.44109 0.86012 0.0
C541 C 0.13628 0.4202 0.83156 0.0
C542 C 0.1453 0.45886 0.8913 0.0
C543 C 0.10702 0.45621 0.89535 0.0
C544 C 0.08347 0.43459 0.86752 0.0
C545 C 0.09787 0.41693 0.83607 0.0
C546 C 0.04534 0.48098 0.97902 0.0
C547 C 0.06343 0.5162 0.98846 0.0
C548 C 0.05933 0.46152 0.94898 0.0
C549 C 0.09204 0.47661 0.92786 0.0
C550 C 0.11034 0.51169 0.9379 0.0
C551 C 0.0962 0.53119 0.96762 0.0
H552 H 0.65881 0.86415 0.88566 0.0
H553 H 0.58598 0.79149 0.96367 0.0
H554 H 0.62992 0.9114 0.90721 0.0
H555 H 0.55858 0.83992 0.98754 0.0
H556 H 0.49818 0.93003 1.00181 0.0
H557 H 0.52033 0.88077 0.97099 0.0
H558 H 0.6307 0.94733 0.96475 0.0
H559 H 0.60857 0.99632 0.99387 0.0
C560 C 0.63634 0.85805 0.90717 0.0
C561 C 0.62452 0.82372 0.92257 0.0
C562 C 0.6201 0.88546 0.92005 0.0
C563 C 0.59203 0.87966 0.94935 0.0
C564 C 0.57984 0.84528 0.96459 0.0
C565 C 0.59591 0.81762 0.95133 0.0
C566 C 0.527 0.93425 0.99308 0.0
C567 C 0.55157 0.96715 1.00031 0.0
C568 C 0.53979 0.90591 0.97584 0.0
C569 C 0.57736 0.90995 0.96547 0.0
C570 C 0.6015 0.94324 0.97169 0.0
C571 C 0.58878 0.97142 0.98868 0.0
H572 H 0.77634 0.18369 0.51996 0.0
H573 H 0.87167 0.23586 0.45056 0.0
H574 H 0.81218 0.14485 0.54797 0.0
H575 H 0.90692 0.19544 0.47748 0.0
H576 H 0.93389 0.0839 0.50545 0.0
H577 H 0.9001 0.12435 0.47562 0.0
H578 H 0.87194 0.15762 0.59364 0.0
H579 H 0.90639 0.11805 0.62345 0.0
C580 C 0.80501 0.18719 0.51094 0.0
C581 C 0.82131 0.21338 0.48348 0.0
C582 C 0.82536 0.16469 0.52675 0.0
C583 C 0.86217 0.1674 0.51489 0.0
C584 C 0.87842 0.19287 0.48683 0.0
C585 C 0.85823 0.21586 0.47145 0.0
C586 C 0.92066 0.10006 0.52491 0.0
C587 C 0.92273 0.09804 0.56667 0.0
C588 C 0.9015 0.12316 0.50789 0.0
C589 C 0.88358 0.14392 0.53247 0.0
C590 C 0.88547 0.14168 0.57418 0.0
C591 C 0.90514 0.11912 0.59116 0.0
H592 H 0.30937 0.70365 0.16073 0.0
H593 H 0.268 0.65865 0.27422 0.0
H594 H 0.25106 0.67495 0.12949 0.0
H595 H 0.21035 0.62873 0.24222 0.0
H596 H 0.12736 0.55233 0.15939 0.0
H597 H 0.18643 0.58058 0.19008 0.0
H598 H 0.18386 0.67871 0.13251 0.0
H599 H 0.12457 0.65067 0.10216 0.0
C600 C 0.28794 0.68792 0.17928 0.0
C601 C 0.29385 0.68396 0.2204 0.0
C602 C 0.25443 0.67123 0.16113 0.0
C603 C 0.22589 0.6495 0.18326 0.0
C604 C 0.23184 0.64495 0.22412 0.0
C605 C 0.26515 0.66209 0.24246 0.0
C606 C 0.13939 0.57991 0.15311 0.0
C607 C 0.121 0.59917 0.12823 0.0
C608 C 0.17321 0.59617 0.17095 0.0
C609 C 0.18997 0.63199 0.1639 0.0
C610 C 0.17193 0.65104 0.13843 0.0
C611 C 0.13781 0.63496 0.12111 0.0
H612 H 0.26579 0.38109 0.73833 0.0
H613 H 0.21892 0.47062 0.71433 0.0
H614 H 0.32351 0.41071 0.70513 0.0
H615 H 0.27641 0.49996 0.68021 0.0
H616 H 0.36714 0.50798 0.57603 0.0
H617 H 0.31058 0.48437 0.61453 0.0
H618 H 0.37628 0.46896 0.71526 0.0
H619 H 0.43289 0.49349 0.67713 0.0
C620 C 0.26792 0.40716 0.72603 0.0
C621 C 0.23787 0.42356 0.72896 0.0
C622 C 0.30099 0.42418 0.70721 0.0
C623 C 0.30452 0.45768 0.69005 0.0
C624 C 0.27448 0.47413 0.69305 0.0
C625 C 0.24168 0.45744 0.71272 0.0
C626 C 0.36948 0.50002 0.60659 0.0
C627 C 0.40446 0.50261 0.62353 0.0
C628 C 0.33711 0.48658 0.62865 0.0
C629 C 0.33896 0.47466 0.66788 0.0
C630 C 0.37397 0.47775 0.68504 0.0
C631 C 0.40636 0.49197 0.66328 0.0
H632 H 0.67093 0.67528 0.92245 0.0
H633 H 0.7135 0.77268 0.98827 0.0
H634 H 0.71669 0.64831 0.95362 0.0
H635 H 0.75944 0.74594 1.01921 0.0
H636 H 0.83776 0.68507 1.07311 0.0
H637 H 0.77833 0.69998 1.06013 0.0
H638 H 0.78331 0.66342 0.93771 0.0
H639 H 0.84203 0.6482 0.95083 0.0
C640 C 0.68916 0.69043 0.94476 0.0
C641 C 0.68891 0.72614 0.95267 0.0
C642 C 0.71559 0.67515 0.96231 0.0
C643 C 0.74227 0.6953 0.98809 0.0
C644 C 0.73928 0.72969 0.99949 0.0
C645 C 0.71279 0.74499 0.98192 0.0
C646 C 0.82576 0.67976 1.04364 0.0
C647 C 0.84464 0.66575 1.01286 0.0
C648 C 0.79186 0.6884 1.03619 0.0
C649 C 0.77598 0.6827 0.99798 0.0
C650 C 0.79441 0.66762 0.96767 0.0
C651 C 0.82834 0.65934 0.97499 0.0
H652 H 0.35251 0.80901 0.21765 0.0
H653 H 0.45757 0.78258 0.23766 0.0
H654 H 0.38412 0.86504 0.18896 0.0
H655 H 0.48933 0.83974 0.21151 0.0
H656 H 0.53682 0.927 0.12392 0.0
H657 H 0.50429 0.87141 0.15306 0.0
H658 H 0.41983 0.92257 0.19857 0.0
H659 H 0.45206 0.97805 0.1677 0.0
C660 C 0.3824 0.81502 0.21607 0.0
C661 C 0.4022 0.79053 0.22977 0.0
C662 C 0.4007 0.84771 0.20005 0.0
C663 C 0.43958 0.85742 0.1974 0.0
C664 C 0.45942 0.83332 0.21207 0.0
C665 C 0.44109 0.80049 0.22781 0.0
C666 C 0.51129 0.92643 0.14017 0.0
C667 C 0.49721 0.95715 0.14357 0.0
C668 C 0.49263 0.89443 0.15729 0.0
C669 C 0.4593 0.892 0.17884 0.0
C670 C 0.44509 0.92287 0.18199 0.0
C671 C 0.4637 0.95492 0.16446 0.0
H672 H 0.14629 0.33222 0.67034 0.0
H673 H 0.11002 0.29288 0.78747 0.0
H674 H 0.11901 0.27478 0.64078 0.0
H675 H 0.0806 0.23541 0.75736 0.0
H676 H 0.06458 0.12538 0.69365 0.0
H677 H 0.09143 0.18254 0.72603 0.0
H678 H 0.06327 0.23656 0.6232 0.0
H679 H 0.03783 0.17985 0.59063 0.0
C680 C 0.13244 0.31132 0.68996 0.0
C681 C 0.13088 0.31747 0.73156 0.0
C682 C 0.11617 0.27825 0.67278 0.0
C683 C 0.09726 0.25001 0.69641 0.0
C684 C 0.09522 0.25618 0.73804 0.0
C685 C 0.11172 0.28942 0.75534 0.0
C686 C 0.0642 0.14949 0.67795 0.0
C687 C 0.04921 0.14778 0.63929 0.0
C688 C 0.07941 0.18241 0.69668 0.0
C689 C 0.07992 0.21459 0.67736 0.0
C690 C 0.06432 0.21266 0.63893 0.0
C691 C 0.04942 0.17989 0.62019 0.0
H692 H 0.6795 0.2563 0.44796 0.0
H693 H 0.74515 0.29102 0.55311 0.0
H694 H 0.62597 0.26919 0.4811 0.0
H695 H 0.69038 0.30244 0.58775 0.0
H696 H 0.60816 0.37953 0.58838 0.0
H697 H 0.65693 0.34748 0.58179 0.0
H698 H 0.57921 0.25781 0.52998 0.0
H699 H 0.53085 0.29115 0.53456 0.0
C700 C 0.68235 0.2665 0.47845 0.0
C701 C 0.71676 0.2738 0.4975 0.0
C702 C 0.65133 0.27312 0.49793 0.0
C703 C 0.65369 0.28687 0.53727 0.0
C704 C 0.68769 0.29219 0.5573 0.0
C705 C 0.71901 0.28566 0.53756 0.0
C706 C 0.6012 0.35242 0.57707 0.0
C707 C 0.56612 0.33797 0.56113 0.0
C708 C 0.62919 0.33392 0.57336 0.0
C709 C 0.62231 0.30049 0.55407 0.0
C710 C 0.5857 0.28405 0.54367 0.0
C711 C 0.55792 0.3029 0.54656 0.0
loop_
_geom_bond_atom_site_label_1
_geom_bond_atom_site_label_2
_geom_bond_distance
_geom_bond_site_symmetry_2
_ccdc_geom_bond_type
H0 C3 0.931 . S
H1 C6 0.928 . S
H2 C8 0.930 . S
C3 H0 0.931 . S
C3 C4 1.413 . S
C3 C5 1.360 . S
C4 C3 1.413 . S
C4 C8 1.429 . S
C5 C3 1.360 . S
C5 C6 1.372 . S
C6 H1 0.928 . S
C6 C5 1.372 . S
C6 C7 1.404 . S
C7 C6 1.404 . S
C7 C8 1.391 . S
C8 H2 0.930 . S
C8 C4 1.429 . S
C8 C7 1.391 . S
H9 C12 0.931 . S
H10 C15 0.928 . S
H11 C17 0.930 . S
C12 H9 0.931 . S
C12 C13 1.413 . S
C12 C14 1.360 . S
C13 C12 1.413 . S
C13 C17 1.429 . S
C14 C12 1.360 . S
C14 C15 1.372 . S
C15 H10 0.928 . S
C15 C14 1.372 . S
C15 C16 1.404 . S
C16 C15 1.404 . S
C16 C17 1.391 . S
C17 H11 0.930 . S
C17 C13 1.429 . S
C17 C16 1.391 . S
H18 C21 0.931 . S
H19 C24 0.928 . S
H20 C26 0.930 . S
C21 H18 0.931 . S
C21 C22 1.413 . S
C21 C23 1.360 . S
C22 C21 1.413 . S
C22 C26 1.429 . S
C23 C21 1.360 . S
C23 C24 1.372 . S
C24 H19 0.928 . S
C24 C23 1.372 . S
C24 C25 1.404 . S
C25 C24 1.404 . S
C25 C26 1.391 . S
C26 H20 0.930 . S
C26 C22 1.429 . S
C26 C25 1.391 . S
H27 C30 0.931 . S
H28 C33 0.928 . S
H29 C35 0.930 . S
C30 H27 0.931 . S
C30 C31 1.413 . S
C30 C32 1.360 . S
C31 C30 1.413 . S
C31 C35 1.429 . S
C32 C30 1.360 . S
C32 C33 1.372 . S
C33 H28 0.928 . S
C33 C32 1.372 . S
C33 C34 1.404 . S
C34 C33 1.404 . S
C34 C35 1.391 . S
C35 H29 0.930 . S
C35 C31 1.429 . S
C35 C34 1.391 . S
H36 C39 0.931 . S
H37 C42 0.928 . S
H38 C44 0.930 . S
C39 H36 0.931 . S
C39 C40 1.413 . S
C39 C41 1.360 . S
C40 C39 1.413 . S
C40 C44 1.429 . S
C41 C39 1.360 . S
C41 C42 1.372 . S
C42 H37 0.928 . S
C42 C41 1.372 . S
C42 C43 1.404 . S
C43 C42 1.404 . S
C43 C44 1.391 . S
C44 H38 0.930 . S
C44 C40 1.429 . S
C44 C43 1.391 . S
H45 C48 0.931 . S
H46 C51 0.928 . S
H47 C53 0.930 . S
C48 H45 0.931 . S
C48 C49 1.413 . S
C48 C50 1.360 . S
C49 C48 1.413 . S
C49 C53 1.429 . S
C50 C48 1.360 . S
C50 C51 1.372 . S
C51 H46 0.928 . S
C51 C50 1.372 . S
C51 C52 1.404 . S
C52 C51 1.404 . S
C52 C53 1.391 . S
C53 H47 0.930 . S
C53 C49 1.429 . S
C53 C52 1.391 . S
H54 C57 0.931 . S
H55 C60 0.928 . S
H56 C62 0.930 . S
C57 H54 0.931 . S
C57 C58 1.413 . S
C57 C59 1.360 . S
C58 C57 1.413 . S
C58 C62 1.429 . S
C59 C57 1.360 . S
C59 C60 1.372 . S
C60 H55 0.928 . S
C60 C59 1.372 . S
C60 C61 1.404 . S
C61 C60 1.404 . S
C61 C62 1.391 . S
C62 H56 0.930 . S
C62 C58 1.429 . S
C62 C61 1.391 . S
H63 C66 0.931 . S
H64 C69 0.928 . S
H65 C71 0.930 . S
C66 H63 0.931 . S
C66 C67 1.413 . S
C66 C68 1.360 . S
C67 C66 1.413 . S
C67 C71 1.429 . S
C68 C66 1.360 . S
C68 C69 1.372 . S
C69 H64 0.928 . S
C69 C68 1.372 . S
C69 C70 1.404 . S
C70 C69 1.404 . S
C70 C71 1.391 . S
C71 H65 0.930 . S
C71 C67 1.429 . S
C71 C70 1.391 . S
Sm72 C74 2.846 . S
Sm72 O92 2.543 . S
Sm72 O93 2.450 . S
Sm72 O94 2.681 1_545 S
Sm72 O95 2.464 1_545 S
Sm72 O96 2.396 . S
Sm72 O100 2.386 1_455 S
Sm72 O103 2.408 1_445 S
Sm73 C83 2.846 . S
Sm73 O94 2.386 1_655 S
Sm73 O97 2.408 1_665 S
Sm73 O98 2.543 . S
Sm73 O99 2.450 . S
Sm73 O100 2.681 1_565 S
Sm73 O101 2.464 1_565 S
Sm73 O102 2.396 . S
C74 Sm72 2.846 . S
C74 C75 1.506 . S
C74 O92 1.261 . S
C74 O93 1.242 . S
C75 C74 1.506 . S
C75 C76 1.358 . S
C75 C80 1.382 . S
C76 C75 1.358 . S
C76 C77 1.385 . S
C76 H104 0.930 . S
C77 C76 1.385 . S
C77 C78 1.395 . S
C77 H105 0.929 . S
C78 C77 1.395 . S
C78 C79 1.335 . S
C79 C78 1.335 . S
C79 C80 1.398 . S
C79 H106 0.930 . S
C80 C75 1.382 . S
C80 C79 1.398 . S
C80 H107 0.929 . S
C81 O94 1.271 . S
C81 O95 1.251 . S
C82 O96 1.252 . S
C82 O97 1.272 . S
C83 Sm73 2.846 . S
C83 C84 1.506 . S
C83 O98 1.261 . S
C83 O99 1.242 . S
C84 C83 1.506 . S
C84 C85 1.358 . S
C84 C89 1.382 . S
C85 C84 1.358 . S
C85 C86 1.385 . S
C85 H108 0.930 . S
C86 C85 1.385 . S
C86 C87 1.395 . S
C86 H109 0.929 . S
C87 C86 1.395 . S
C87 C88 1.335 . S
C88 C87 1.335 . S
C88 C89 1.398 . S
C88 H110 0.930 . S
C89 C84 1.382 . S
C89 C88 1.398 . S
C89 H111 0.929 . S
C90 O100 1.271 . S
C90 O101 1.251 . S
C91 O102 1.252 . S
C91 O103 1.272 . S
O92 Sm72 2.543 . S
O92 C74 1.261 . S
O93 Sm72 2.450 . S
O93 C74 1.242 . S
O94 Sm72 2.681 1_565 S
O94 Sm73 2.386 1_455 S
O94 C81 1.271 . S
O95 Sm72 2.464 1_565 S
O95 C81 1.251 . S
O96 Sm72 2.396 . S
O96 C82 1.252 . S
O97 Sm73 2.408 1_445 S
O97 C82 1.272 . S
O98 Sm73 2.543 . S
O98 C83 1.261 . S
O99 Sm73 2.450 . S
O99 C83 1.242 . S
O100 Sm72 2.386 1_655 S
O100 Sm73 2.681 1_545 S
O100 C90 1.271 . S
O101 Sm73 2.464 1_545 S
O101 C90 1.251 . S
O102 Sm73 2.396 . S
O102 C91 1.252 . S
O103 Sm72 2.408 1_665 S
O103 C91 1.272 . S
H104 C76 0.930 . S
H105 C77 0.929 . S
H106 C79 0.930 . S
H107 C80 0.929 . S
H108 C85 0.930 . S
H109 C86 0.929 . S
H110 C88 0.930 . S
H111 C89 0.929 . S
Sm112 C114 2.846 1_565 S
Sm112 O132 2.543 1_565 S
Sm112 O133 2.450 1_565 S
Sm112 O134 2.681 . S
Sm112 O135 2.464 . S
Sm112 O136 2.396 1_565 S
Sm112 O140 2.386 1_564 S
Sm112 O143 2.408 1_554 S
Sm113 C123 2.846 1_545 S
Sm113 O134 2.386 1_546 S
Sm113 O137 2.408 1_556 S
Sm113 O138 2.543 1_545 S
Sm113 O139 2.450 1_545 S
Sm113 O140 2.681 . S
Sm113 O141 2.464 . S
Sm113 O142 2.396 1_545 S
C114 Sm112 2.846 1_545 S
C114 C115 1.506 . S
C114 O132 1.261 . S
C114 O133 1.242 . S
C115 C114 1.506 . S
C115 C116 1.358 . S
C115 C120 1.382 . S
C116 C115 1.358 . S
C116 C117 1.385 . S
C116 H144 0.930 . S
C117 C116 1.385 . S
C117 C118 1.395 . S
C117 H145 0.929 . S
C118 C117 1.395 . S
C118 C119 1.335 . S
C119 C118 1.335 . S
C119 C120 1.398 . S
C119 H146 0.930 . S
C120 C115 1.382 . S
C120 C119 1.398 . S
C120 H147 0.929 . S
C121 O134 1.271 . S
C121 O135 1.251 . S
C122 O136 1.252 . S
C122 O137 1.272 . S
C123 Sm113 2.846 1_565 S
C123 C124 1.506 . S
C123 O138 1.261 . S
C123 O139 1.242 . S
C124 C123 1.506 . S
C124 C125 1.358 . S
C124 C129 1.382 . S
C125 C124 1.358 . S
C125 C126 1.385 . S
C125 H148 0.930 . S
C126 C125 1.385 . S
C126 C127 1.395 . S
C126 H149 0.929 . S
C127 C126 1.395 . S
C127 C128 1.335 . S
C128 C127 1.335 . S
C128 C129 1.398 . S
C128 H150 0.930 . S
C129 C124 1.382 . S
C129 C128 1.398 . S
C129 H151 0.929 . S
C130 O140 1.271 . S
C130 O141 1.251 . S
C131 O142 1.252 . S
C131 O143 1.272 . S
O132 Sm112 2.543 1_545 S
O132 C114 1.261 . S
O133 Sm112 2.450 1_545 S
O133 C114 1.242 . S
O134 Sm112 2.681 . S
O134 Sm113 2.386 1_564 S
O134 C121 1.271 . S
O135 Sm112 2.464 . S
O135 C121 1.251 . S
O136 Sm112 2.396 1_545 S
O136 C122 1.252 . S
O137 Sm113 2.408 1_554 S
O137 C122 1.272 . S
O138 Sm113 2.543 1_565 S
O138 C123 1.261 . S
O139 Sm113 2.450 1_565 S
O139 C123 1.242 . S
O140 Sm112 2.386 1_546 S
O140 Sm113 2.681 . S
O140 C130 1.271 . S
O141 Sm113 2.464 . S
O141 C130 1.251 . S
O142 Sm113 2.396 1_565 S
O142 C131 1.252 . S
O143 Sm112 2.408 1_556 S
O143 C131 1.272 . S
H144 C116 0.930 . S
H145 C117 0.929 . S
H146 C119 0.930 . S
H147 C120 0.929 . S
H148 C125 0.930 . S
H149 C126 0.929 . S
H150 C128 0.930 . S
H151 C129 0.929 . S
Sm152 C154 2.846 . S
Sm152 O172 2.543 . S
Sm152 O173 2.450 . S
Sm152 O174 2.681 . S
Sm152 O175 2.464 . S
Sm152 O176 2.396 . S
Sm152 O180 2.386 . S
Sm152 O183 2.408 . S
Sm153 C163 2.846 . S
Sm153 O174 2.386 . S
Sm153 O177 2.408 . S
Sm153 O178 2.543 . S
Sm153 O179 2.450 . S
Sm153 O180 2.681 . S
Sm153 O181 2.464 . S
Sm153 O182 2.396 . S
C154 Sm152 2.846 . S
C154 C155 1.506 . S
C154 O172 1.261 . S
C154 O173 1.242 . S
C155 C154 1.506 . S
C155 C156 1.358 . S
C155 C160 1.382 . S
C156 C155 1.358 . S
C156 C157 1.385 . S
C156 H184 0.930 . S
C157 C156 1.385 . S
C157 C158 1.395 . S
C157 H185 0.929 . S
C158 C157 1.395 . S
C158 C159 1.335 . S
C159 C158 1.335 . S
C159 C160 1.398 . S
C159 H186 0.930 . S
C160 C155 1.382 . S
C160 C159 1.398 . S
C160 H187 0.929 . S
C161 O174 1.271 . S
C161 O175 1.251 . S
C162 O176 1.252 . S
C162 O177 1.272 . S
C163 Sm153 2.846 . S
C163 C164 1.506 . S
C163 O178 1.261 . S
C163 O179 1.242 . S
C164 C163 1.506 . S
C164 C165 1.358 . S
C164 C169 1.382 . S
C165 C164 1.358 . S
C165 C166 1.385 . S
C165 H188 0.930 . S
C166 C165 1.385 . S
C166 C167 1.395 . S
C166 H189 0.929 . S
C167 C166 1.395 . S
C167 C168 1.335 . S
C168 C167 1.335 . S
C168 C169 1.398 . S
C168 H190 0.930 . S
C169 C164 1.382 . S
C169 C168 1.398 . S
C169 H191 0.929 . S
C170 O180 1.271 . S
C170 O181 1.251 . S
C171 O182 1.252 . S
C171 O183 1.272 . S
O172 Sm152 2.543 . S
O172 C154 1.261 . S
O173 Sm152 2.450 . S
O173 C154 1.242 . S
O174 Sm152 2.681 . S
O174 Sm153 2.386 . S
O174 C161 1.271 . S
O175 Sm152 2.464 . S
O175 C161 1.251 . S
O176 Sm152 2.396 . S
O176 C162 1.252 . S
O177 Sm153 2.408 . S
O177 C162 1.272 . S
O178 Sm153 2.543 . S
O178 C163 1.261 . S
O179 Sm153 2.450 . S
O179 C163 1.242 . S
O180 Sm152 2.386 . S
O180 Sm153 2.681 . S
O180 C170 1.271 . S
O181 Sm153 2.464 . S
O181 C170 1.251 . S
O182 Sm153 2.396 . S
O182 C171 1.252 . S
O183 Sm152 2.408 . S
O183 C171 1.272 . S
H184 C156 0.930 . S
H185 C157 0.929 . S
H186 C159 0.930 . S
H187 C160 0.929 . S
H188 C165 0.930 . S
H189 C166 0.929 . S
H190 C168 0.930 . S
H191 C169 0.929 . S
Sm192 C194 2.846 . S
Sm192 O212 2.543 . S
Sm192 O213 2.450 . S
Sm192 O214 2.681 1_455 S
Sm192 O215 2.464 1_455 S
Sm192 O216 2.396 . S
Sm192 O220 2.386 1_554 S
Sm192 O223 2.408 1_454 S
Sm193 C203 2.846 . S
Sm193 O214 2.386 1_556 S
Sm193 O217 2.408 1_656 S
Sm193 O218 2.543 . S
Sm193 O219 2.450 . S
Sm193 O220 2.681 1_655 S
Sm193 O221 2.464 1_655 S
Sm193 O222 2.396 . S
C194 Sm192 2.846 . S
C194 C195 1.506 . S
C194 O212 1.261 . S
C194 O213 1.242 . S
C195 C194 1.506 . S
C195 C196 1.358 . S
C195 C200 1.382 . S
C196 C195 1.358 . S
C196 C197 1.385 . S
C196 H224 0.930 . S
C197 C196 1.385 . S
C197 C198 1.395 . S
C197 H225 0.929 . S
C198 C197 1.395 . S
C198 C199 1.335 . S
C199 C198 1.335 . S
C199 C200 1.398 . S
C199 H226 0.930 . S
C200 C195 1.382 . S
C200 C199 1.398 . S
C200 H227 0.929 . S
C201 O214 1.271 . S
C201 O215 1.251 . S
C202 O216 1.252 . S
C202 O217 1.272 . S
C203 Sm193 2.846 . S
C203 C204 1.506 . S
C203 O218 1.261 . S
C203 O219 1.242 . S
C204 C203 1.506 . S
C204 C205 1.358 . S
C204 C209 1.382 . S
C205 C204 1.358 . S
C205 C206 1.385 . S
C205 H228 0.930 . S
C206 C205 1.385 . S
C206 C207 1.395 . S
C206 H229 0.929 . S
C207 C206 1.395 . S
C207 C208 1.335 . S
C208 C207 1.335 . S
C208 C209 1.398 . S
C208 H230 0.930 . S
C209 C204 1.382 . S
C209 C208 1.398 . S
C209 H231 0.929 . S
C210 O220 1.271 . S
C210 O221 1.251 . S
C211 O222 1.252 . S
C211 O223 1.272 . S
O212 Sm192 2.543 . S
O212 C194 1.261 . S
O213 Sm192 2.450 . S
O213 C194 1.242 . S
O214 Sm192 2.681 1_655 S
O214 Sm193 2.386 1_554 S
O214 C201 1.271 . S
O215 Sm192 2.464 1_655 S
O215 C201 1.251 . S
O216 Sm192 2.396 . S
O216 C202 1.252 . S
O217 Sm193 2.408 1_454 S
O217 C202 1.272 . S
O218 Sm193 2.543 . S
O218 C203 1.261 . S
O219 Sm193 2.450 . S
O219 C203 1.242 . S
O220 Sm192 2.386 1_556 S
O220 Sm193 2.681 1_455 S
O220 C210 1.271 . S
O221 Sm193 2.464 1_455 S
O221 C210 1.251 . S
O222 Sm193 2.396 . S
O222 C211 1.252 . S
O223 Sm192 2.408 1_656 S
O223 C211 1.272 . S
H224 C196 0.930 . S
H225 C197 0.929 . S
H226 C199 0.930 . S
H227 C200 0.929 . S
H228 C205 0.930 . S
H229 C206 0.929 . S
H230 C208 0.930 . S
H231 C209 0.929 . S
H232 C240 0.950 . S
H233 C245 0.950 . S
H234 C242 0.950 . S
H235 C244 0.950 . S
H236 C246 0.950 . S
H237 C248 0.950 . S
H238 C250 0.950 . S
H239 C251 0.950 . S
C240 H232 0.950 . S
C240 C241 1.386 . S
C240 C242 1.391 . S
C241 C240 1.386 . S
C241 C245 1.393 . S
C242 H234 0.950 . S
C242 C240 1.391 . S
C242 C243 1.400 . S
C243 C242 1.400 . S
C243 C244 1.398 . S
C243 C249 1.491 . S
C244 H235 0.950 . S
C244 C243 1.398 . S
C244 C245 1.391 . S
C245 H233 0.950 . S
C245 C241 1.393 . S
C245 C244 1.391 . S
C246 H236 0.950 . S
C246 C247 1.386 . S
C246 C248 1.391 . S
C247 C246 1.386 . S
C247 C251 1.393 . S
C248 H237 0.950 . S
C248 C246 1.391 . S
C248 C249 1.400 . S
C249 C243 1.491 . S
C249 C248 1.400 . S
C249 C250 1.398 . S
C250 H238 0.950 . S
C250 C249 1.398 . S
C250 C251 1.391 . S
C251 H239 0.950 . S
C251 C247 1.393 . S
C251 C250 1.391 . S
H252 C260 0.950 . S
H253 C265 0.950 . S
H254 C262 0.950 . S
H255 C264 0.950 . S
H256 C266 0.950 . S
H257 C268 0.950 . S
H258 C270 0.950 . S
H259 C271 0.950 . S
C260 H252 0.950 . S
C260 C261 1.386 . S
C260 C262 1.391 . S
C261 C260 1.386 . S
C261 C265 1.393 . S
C262 H254 0.950 . S
C262 C260 1.391 . S
C262 C263 1.400 . S
C263 C262 1.400 . S
C263 C264 1.398 . S
C263 C269 1.491 . S
C264 H255 0.950 . S
C264 C263 1.398 . S
C264 C265 1.391 . S
C265 H253 0.950 . S
C265 C261 1.393 . S
C265 C264 1.391 . S
C266 H256 0.950 . S
C266 C267 1.386 . S
C266 C268 1.391 . S
C267 C266 1.386 . S
C267 C271 1.393 . S
C268 H257 0.950 . S
C268 C266 1.391 . S
C268 C269 1.400 . S
C269 C263 1.491 . S
C269 C268 1.400 . S
C269 C270 1.398 . S
C270 H258 0.950 . S
C270 C269 1.398 . S
C270 C271 1.391 . S
C271 H259 0.950 . S
C271 C267 1.393 . S
C271 C270 1.391 . S
H272 C280 0.950 . S
H273 C285 0.950 . S
H274 C282 0.950 . S
H275 C284 0.950 . S
H276 C286 0.950 . S
H277 C288 0.950 . S
H278 C290 0.950 . S
H279 C291 0.950 . S
C280 H272 0.950 . S
C280 C281 1.386 . S
C280 C282 1.391 . S
C281 C280 1.386 . S
C281 C285 1.393 . S
C282 H274 0.950 . S
C282 C280 1.391 . S
C282 C283 1.400 . S
C283 C282 1.400 . S
C283 C284 1.398 . S
C283 C289 1.491 . S
C284 H275 0.950 . S
C284 C283 1.398 . S
C284 C285 1.391 . S
C285 H273 0.950 . S
C285 C281 1.393 . S
C285 C284 1.391 . S
C286 H276 0.950 . S
C286 C287 1.386 . S
C286 C288 1.391 . S
C287 C286 1.386 . S
C287 C291 1.393 . S
C288 H277 0.950 . S
C288 C286 1.391 . S
C288 C289 1.400 . S
C289 C283 1.491 . S
C289 C288 1.400 . S
C289 C290 1.398 . S
C290 H278 0.950 . S
C290 C289 1.398 . S
C290 C291 1.391 . S
C291 H279 0.950 . S
C291 C287 1.393 . S
C291 C290 1.391 . S
H292 C300 0.950 . S
H293 C305 0.950 . S
H294 C302 0.950 . S
H295 C304 0.950 . S
H296 C306 0.950 . S
H297 C308 0.950 . S
H298 C310 0.950 . S
H299 C311 0.950 . S
C300 H292 0.950 . S
C300 C301 1.386 . S
C300 C302 1.391 . S
C301 C300 1.386 . S
C301 C305 1.393 . S
C302 H294 0.950 . S
C302 C300 1.391 . S
C302 C303 1.400 . S
C303 C302 1.400 . S
C303 C304 1.398 . S
C303 C309 1.491 . S
C304 H295 0.950 . S
C304 C303 1.398 . S
C304 C305 1.391 . S
C305 H293 0.950 . S
C305 C301 1.393 . S
C305 C304 1.391 . S
C306 H296 0.950 . S
C306 C307 1.386 . S
C306 C308 1.391 . S
C307 C306 1.386 . S
C307 C311 1.393 . S
C308 H297 0.950 . S
C308 C306 1.391 . S
C308 C309 1.400 . S
C309 C303 1.491 . S
C309 C308 1.400 . S
C309 C310 1.398 . S
C310 H298 0.950 . S
C310 C309 1.398 . S
C310 C311 1.391 . S
C311 H299 0.950 . S
C311 C307 1.393 . S
C311 C310 1.391 . S
H312 C320 0.950 . S
H313 C325 0.950 . S
H314 C322 0.950 . S
H315 C324 0.950 . S
H316 C326 0.950 . S
H317 C328 0.950 . S
H318 C330 0.950 . S
H319 C331 0.950 . S
C320 H312 0.950 . S
C320 C321 1.386 . S
C320 C322 1.391 . S
C321 C320 1.386 . S
C321 C325 1.393 . S
C322 H314 0.950 . S
C322 C320 1.391 . S
C322 C323 1.400 . S
C323 C322 1.400 . S
C323 C324 1.398 . S
C323 C329 1.491 . S
C324 H315 0.950 . S
C324 C323 1.398 . S
C324 C325 1.391 . S
C325 H313 0.950 . S
C325 C321 1.393 . S
C325 C324 1.391 . S
C326 H316 0.950 . S
C326 C327 1.386 . S
C326 C328 1.391 . S
C327 C326 1.386 . S
C327 C331 1.393 . S
C328 H317 0.950 . S
C328 C326 1.391 . S
C328 C329 1.400 . S
C329 C323 1.491 . S
C329 C328 1.400 . S
C329 C330 1.398 . S
C330 H318 0.950 . S
C330 C329 1.398 . S
C330 C331 1.391 . S
C331 H319 0.950 . S
C331 C327 1.393 . S
C331 C330 1.391 . S
H332 C340 0.950 . S
H333 C345 0.950 . S
H334 C342 0.950 . S
H335 C344 0.950 . S
H336 C346 0.950 . S
H337 C348 0.950 . S
H338 C350 0.950 . S
H339 C351 0.950 . S
C340 H332 0.950 . S
C340 C341 1.386 . S
C340 C342 1.391 . S
C341 C340 1.386 . S
C341 C345 1.393 . S
C342 H334 0.950 . S
C342 C340 1.391 . S
C342 C343 1.400 . S
C343 C342 1.400 . S
C343 C344 1.398 . S
C343 C349 1.491 . S
C344 H335 0.950 . S
C344 C343 1.398 . S
C344 C345 1.391 . S
C345 H333 0.950 . S
C345 C341 1.393 . S
C345 C344 1.391 . S
C346 H336 0.950 . S
C346 C347 1.386 . S
C346 C348 1.391 . S
C347 C346 1.386 . S
C347 C351 1.393 . S
C348 H337 0.950 . S
C348 C346 1.391 . S
C348 C349 1.400 . S
C349 C343 1.491 . S
C349 C348 1.400 . S
C349 C350 1.398 . S
C350 H338 0.950 . S
C350 C349 1.398 . S
C350 C351 1.391 . S
C351 H339 0.950 . S
C351 C347 1.393 . S
C351 C350 1.391 . S
H352 C360 0.950 . S
H353 C365 0.950 . S
H354 C362 0.950 . S
H355 C364 0.950 . S
H356 C366 0.950 . S
H357 C368 0.950 . S
H358 C370 0.950 . S
H359 C371 0.950 . S
C360 H352 0.950 . S
C360 C361 1.386 . S
C360 C362 1.391 . S
C361 C360 1.386 . S
C361 C365 1.393 . S
C362 H354 0.950 . S
C362 C360 1.391 . S
C362 C363 1.400 . S
C363 C362 1.400 . S
C363 C364 1.398 . S
C363 C369 1.491 . S
C364 H355 0.950 . S
C364 C363 1.398 . S
C364 C365 1.391 . S
C365 H353 0.950 . S
C365 C361 1.393 . S
C365 C364 1.391 . S
C366 H356 0.950 . S
C366 C367 1.386 . S
C366 C368 1.391 . S
C367 C366 1.386 . S
C367 C371 1.393 . S
C368 H357 0.950 . S
C368 C366 1.391 . S
C368 C369 1.400 . S
C369 C363 1.491 . S
C369 C368 1.400 . S
C369 C370 1.398 . S
C370 H358 0.950 . S
C370 C369 1.398 . S
C370 C371 1.391 . S
C371 H359 0.950 . S
C371 C367 1.393 . S
C371 C370 1.391 . S
H372 C380 0.950 . S
H373 C385 0.950 . S
H374 C382 0.950 . S
H375 C384 0.950 . S
H376 C386 0.950 . S
H377 C388 0.950 . S
H378 C390 0.950 . S
H379 C391 0.950 . S
C380 H372 0.950 . S
C380 C381 1.386 . S
C380 C382 1.391 . S
C381 C380 1.386 . S
C381 C385 1.393 . S
C382 H374 0.950 . S
C382 C380 1.391 . S
C382 C383 1.400 . S
C383 C382 1.400 . S
C383 C384 1.398 . S
C383 C389 1.491 . S
C384 H375 0.950 . S
C384 C383 1.398 . S
C384 C385 1.391 . S
C385 H373 0.950 . S
C385 C381 1.393 . S
C385 C384 1.391 . S
C386 H376 0.950 . S
C386 C387 1.386 . S
C386 C388 1.391 . S
C387 C386 1.386 . S
C387 C391 1.393 . S
C388 H377 0.950 . S
C388 C386 1.391 . S
C388 C389 1.400 . S
C389 C383 1.491 . S
C389 C388 1.400 . S
C389 C390 1.398 . S
C390 H378 0.950 . S
C390 C389 1.398 . S
C390 C391 1.391 . S
C391 H379 0.950 . S
C391 C387 1.393 . S
C391 C390 1.391 . S
H392 C400 0.950 . S
H393 C405 0.950 . S
H394 C402 0.950 . S
H395 C404 0.950 . S
H396 C406 0.950 . S
H397 C408 0.950 . S
H398 C410 0.950 . S
H399 C411 0.950 . S
C400 H392 0.950 . S
C400 C401 1.386 . S
C400 C402 1.391 . S
C401 C400 1.386 . S
C401 C405 1.393 . S
C402 H394 0.950 . S
C402 C400 1.391 . S
C402 C403 1.400 . S
C403 C402 1.400 . S
C403 C404 1.398 . S
C403 C409 1.491 . S
C404 H395 0.950 . S
C404 C403 1.398 . S
C404 C405 1.391 . S
C405 H393 0.950 . S
C405 C401 1.393 . S
C405 C404 1.391 . S
C406 H396 0.950 . S
C406 C407 1.386 . S
C406 C408 1.391 . S
C407 C406 1.386 . S
C407 C411 1.393 . S
C408 H397 0.950 . S
C408 C406 1.391 . S
C408 C409 1.400 . S
C409 C403 1.491 . S
C409 C408 1.400 . S
C409 C410 1.398 . S
C410 H398 0.950 . S
C410 C409 1.398 . S
C410 C411 1.391 . S
C411 H399 0.950 . S
C411 C407 1.393 . S
C411 C410 1.391 . S
H412 C420 0.950 . S
H413 C425 0.950 . S
H414 C422 0.950 . S
H415 C424 0.950 . S
H416 C426 0.950 . S
H417 C428 0.950 . S
H418 C430 0.950 . S
H419 C431 0.950 . S
C420 H412 0.950 . S
C420 C421 1.386 . S
C420 C422 1.391 . S
C421 C420 1.386 . S
C421 C425 1.393 . S
C422 H414 0.950 . S
C422 C420 1.391 . S
C422 C423 1.400 . S
C423 C422 1.400 . S
C423 C424 1.398 . S
C423 C429 1.491 . S
C424 H415 0.950 . S
C424 C423 1.398 . S
C424 C425 1.391 . S
C425 H413 0.950 . S
C425 C421 1.393 . S
C425 C424 1.391 . S
C426 H416 0.950 . S
C426 C427 1.386 . S
C426 C428 1.391 . S
C427 C426 1.386 . S
C427 C431 1.393 . S
C428 H417 0.950 . S
C428 C426 1.391 . S
C428 C429 1.400 . S
C429 C423 1.491 . S
C429 C428 1.400 . S
C429 C430 1.398 . S
C430 H418 0.950 . S
C430 C429 1.398 . S
C430 C431 1.391 . S
C431 H419 0.950 . S
C431 C427 1.393 . S
C431 C430 1.391 . S
H432 C440 0.950 . S
H433 C445 0.950 . S
H434 C442 0.950 . S
H435 C444 0.950 . S
H436 C446 0.950 . S
H437 C448 0.950 . S
H438 C450 0.950 . S
H439 C451 0.950 . S
C440 H432 0.950 . S
C440 C441 1.386 . S
C440 C442 1.391 . S
C441 C440 1.386 . S
C441 C445 1.393 . S
C442 H434 0.950 . S
C442 C440 1.391 . S
C442 C443 1.400 . S
C443 C442 1.400 . S
C443 C444 1.398 . S
C443 C449 1.491 . S
C444 H435 0.950 . S
C444 C443 1.398 . S
C444 C445 1.391 . S
C445 H433 0.950 . S
C445 C441 1.393 . S
C445 C444 1.391 . S
C446 H436 0.950 . S
C446 C447 1.386 . S
C446 C448 1.391 . S
C447 C446 1.386 . S
C447 C451 1.393 . S
C448 H437 0.950 . S
C448 C446 1.391 . S
C448 C449 1.400 . S
C449 C443 1.491 . S
C449 C448 1.400 . S
C449 C450 1.398 . S
C450 H438 0.950 . S
C450 C449 1.398 . S
C450 C451 1.391 . S
C451 H439 0.950 . S
C451 C447 1.393 . S
C451 C450 1.391 . S
H452 C460 0.950 . S
H453 C465 0.950 . S
H454 C462 0.950 . S
H455 C464 0.950 . S
H456 C466 0.950 . S
H457 C468 0.950 . S
H458 C470 0.950 . S
H459 C471 0.950 . S
C460 H452 0.950 . S
C460 C461 1.386 . S
C460 C462 1.391 . S
C461 C460 1.386 . S
C461 C465 1.393 . S
C462 H454 0.950 . S
C462 C460 1.391 . S
C462 C463 1.400 . S
C463 C462 1.400 . S
C463 C464 1.398 . S
C463 C469 1.491 . S
C464 H455 0.950 . S
C464 C463 1.398 . S
C464 C465 1.391 . S
C465 H453 0.950 . S
C465 C461 1.393 . S
C465 C464 1.391 . S
C466 H456 0.950 . S
C466 C467 1.386 . S
C466 C468 1.391 . S
C467 C466 1.386 . S
C467 C471 1.393 . S
C468 H457 0.950 . S
C468 C466 1.391 . S
C468 C469 1.400 . S
C469 C463 1.491 . S
C469 C468 1.400 . S
C469 C470 1.398 . S
C470 H458 0.950 . S
C470 C469 1.398 . S
C470 C471 1.391 . S
C471 H459 0.950 . S
C471 C467 1.393 . S
C471 C470 1.391 . S
H472 C480 0.950 . S
H473 C485 0.950 . S
H474 C482 0.950 . S
H475 C484 0.950 . S
H476 C486 0.950 . S
H477 C488 0.950 . S
H478 C490 0.950 . S
H479 C491 0.950 . S
C480 H472 0.950 . S
C480 C481 1.386 . S
C480 C482 1.391 . S
C481 C480 1.386 . S
C481 C485 1.393 . S
C482 H474 0.950 . S
C482 C480 1.391 . S
C482 C483 1.400 . S
C483 C482 1.400 . S
C483 C484 1.398 . S
C483 C489 1.491 . S
C484 H475 0.950 . S
C484 C483 1.398 . S
C484 C485 1.391 . S
C485 H473 0.950 . S
C485 C481 1.393 . S
C485 C484 1.391 . S
C486 H476 0.950 . S
C486 C487 1.386 . S
C486 C488 1.391 . S
C487 C486 1.386 . S
C487 C491 1.393 . S
C488 H477 0.950 . S
C488 C486 1.391 . S
C488 C489 1.400 . S
C489 C483 1.491 . S
C489 C488 1.400 . S
C489 C490 1.398 . S
C490 H478 0.950 . S
C490 C489 1.398 . S
C490 C491 1.391 . S
C491 H479 0.950 . S
C491 C487 1.393 . S
C491 C490 1.391 . S
H492 C500 0.950 . S
H493 C505 0.950 . S
H494 C502 0.950 . S
H495 C504 0.950 . S
H496 C506 0.950 . S
H497 C508 0.950 . S
H498 C510 0.950 . S
H499 C511 0.950 . S
C500 H492 0.950 . S
C500 C501 1.386 . S
C500 C502 1.391 . S
C501 C500 1.386 . S
C501 C505 1.393 . S
C502 H494 0.950 . S
C502 C500 1.391 . S
C502 C503 1.400 . S
C503 C502 1.400 . S
C503 C504 1.398 . S
C503 C509 1.491 . S
C504 H495 0.950 . S
C504 C503 1.398 . S
C504 C505 1.391 . S
C505 H493 0.950 . S
C505 C501 1.393 . S
C505 C504 1.391 . S
C506 H496 0.950 . S
C506 C507 1.386 . S
C506 C508 1.391 . S
C507 C506 1.386 . S
C507 C511 1.393 . S
C508 H497 0.950 . S
C508 C506 1.391 . S
C508 C509 1.400 . S
C509 C503 1.491 . S
C509 C508 1.400 . S
C509 C510 1.398 . S
C510 H498 0.950 . S
C510 C509 1.398 . S
C510 C511 1.391 . S
C511 H499 0.950 . S
C511 C507 1.393 . S
C511 C510 1.391 . S
H512 C520 0.950 . S
H513 C525 0.950 . S
H514 C522 0.950 . S
H515 C524 0.950 . S
H516 C526 0.950 . S
H517 C528 0.950 . S
H518 C530 0.950 . S
H519 C531 0.950 . S
C520 H512 0.950 . S
C520 C521 1.386 . S
C520 C522 1.391 . S
C521 C520 1.386 . S
C521 C525 1.393 . S
C522 H514 0.950 . S
C522 C520 1.391 . S
C522 C523 1.400 . S
C523 C522 1.400 . S
C523 C524 1.398 . S
C523 C529 1.491 . S
C524 H515 0.950 . S
C524 C523 1.398 . S
C524 C525 1.391 . S
C525 H513 0.950 . S
C525 C521 1.393 . S
C525 C524 1.391 . S
C526 H516 0.950 . S
C526 C527 1.386 . S
C526 C528 1.391 . S
C527 C526 1.386 . S
C527 C531 1.393 . S
C528 H517 0.950 . S
C528 C526 1.391 . S
C528 C529 1.400 . S
C529 C523 1.491 . S
C529 C528 1.400 . S
C529 C530 1.398 . S
C530 H518 0.950 . S
C530 C529 1.398 . S
C530 C531 1.391 . S
C531 H519 0.950 . S
C531 C527 1.393 . S
C531 C530 1.391 . S
H532 C540 0.950 . S
H533 C545 0.950 . S
H534 C542 0.950 . S
H535 C544 0.950 . S
H536 C546 0.950 . S
H537 C548 0.950 . S
H538 C550 0.950 . S
H539 C551 0.950 . S
C540 H532 0.950 . S
C540 C541 1.386 . S
C540 C542 1.391 . S
C541 C540 1.386 . S
C541 C545 1.393 . S
C542 H534 0.950 . S
C542 C540 1.391 . S
C542 C543 1.400 . S
C543 C542 1.400 . S
C543 C544 1.398 . S
C543 C549 1.491 . S
C544 H535 0.950 . S
C544 C543 1.398 . S
C544 C545 1.391 . S
C545 H533 0.950 . S
C545 C541 1.393 . S
C545 C544 1.391 . S
C546 H536 0.950 . S
C546 C547 1.386 . S
C546 C548 1.391 . S
C547 C546 1.386 . S
C547 C551 1.393 . S
C548 H537 0.950 . S
C548 C546 1.391 . S
C548 C549 1.400 . S
C549 C543 1.491 . S
C549 C548 1.400 . S
C549 C550 1.398 . S
C550 H538 0.950 . S
C550 C549 1.398 . S
C550 C551 1.391 . S
C551 H539 0.950 . S
C551 C547 1.393 . S
C551 C550 1.391 . S
H552 C560 0.950 . S
H553 C565 0.950 . S
H554 C562 0.950 . S
H555 C564 0.950 . S
H556 C566 0.950 . S
H557 C568 0.950 . S
H558 C570 0.950 . S
H559 C571 0.950 . S
C560 H552 0.950 . S
C560 C561 1.386 . S
C560 C562 1.391 . S
C561 C560 1.386 . S
C561 C565 1.393 . S
C562 H554 0.950 . S
C562 C560 1.391 . S
C562 C563 1.400 . S
C563 C562 1.400 . S
C563 C564 1.398 . S
C563 C569 1.491 . S
C564 H555 0.950 . S
C564 C563 1.398 . S
C564 C565 1.391 . S
C565 H553 0.950 . S
C565 C561 1.393 . S
C565 C564 1.391 . S
C566 H556 0.950 . S
C566 C567 1.386 . S
C566 C568 1.391 . S
C567 C566 1.386 . S
C567 C571 1.393 . S
C568 H557 0.950 . S
C568 C566 1.391 . S
C568 C569 1.400 . S
C569 C563 1.491 . S
C569 C568 1.400 . S
C569 C570 1.398 . S
C570 H558 0.950 . S
C570 C569 1.398 . S
C570 C571 1.391 . S
C571 H559 0.950 . S
C571 C567 1.393 . S
C571 C570 1.391 . S
H572 C580 0.950 . S
H573 C585 0.950 . S
H574 C582 0.950 . S
H575 C584 0.950 . S
H576 C586 0.950 . S
H577 C588 0.950 . S
H578 C590 0.950 . S
H579 C591 0.950 . S
C580 H572 0.950 . S
C580 C581 1.386 . S
C580 C582 1.391 . S
C581 C580 1.386 . S
C581 C585 1.393 . S
C582 H574 0.950 . S
C582 C580 1.391 . S
C582 C583 1.400 . S
C583 C582 1.400 . S
C583 C584 1.398 . S
C583 C589 1.491 . S
C584 H575 0.950 . S
C584 C583 1.398 . S
C584 C585 1.391 . S
C585 H573 0.950 . S
C585 C581 1.393 . S
C585 C584 1.391 . S
C586 H576 0.950 . S
C586 C587 1.386 . S
C586 C588 1.391 . S
C587 C586 1.386 . S
C587 C591 1.393 . S
C588 H577 0.950 . S
C588 C586 1.391 . S
C588 C589 1.400 . S
C589 C583 1.491 . S
C589 C588 1.400 . S
C589 C590 1.398 . S
C590 H578 0.950 . S
C590 C589 1.398 . S
C590 C591 1.391 . S
C591 H579 0.950 . S
C591 C587 1.393 . S
C591 C590 1.391 . S
H592 C600 0.950 . S
H593 C605 0.950 . S
H594 C602 0.950 . S
H595 C604 0.950 . S
H596 C606 0.950 . S
H597 C608 0.950 . S
H598 C610 0.950 . S
H599 C611 0.950 . S
C600 H592 0.950 . S
C600 C601 1.386 . S
C600 C602 1.391 . S
C601 C600 1.386 . S
C601 C605 1.393 . S
C602 H594 0.950 . S
C602 C600 1.391 . S
C602 C603 1.400 . S
C603 C602 1.400 . S
C603 C604 1.398 . S
C603 C609 1.491 . S
C604 H595 0.950 . S
C604 C603 1.398 . S
C604 C605 1.391 . S
C605 H593 0.950 . S
C605 C601 1.393 . S
C605 C604 1.391 . S
C606 H596 0.950 . S
C606 C607 1.386 . S
C606 C608 1.391 . S
C607 C606 1.386 . S
C607 C611 1.393 . S
C608 H597 0.950 . S
C608 C606 1.391 . S
C608 C609 1.400 . S
C609 C603 1.491 . S
C609 C608 1.400 . S
C609 C610 1.398 . S
C610 H598 0.950 . S
C610 C609 1.398 . S
C610 C611 1.391 . S
C611 H599 0.950 . S
C611 C607 1.393 . S
C611 C610 1.391 . S
H612 C620 0.950 . S
H613 C625 0.950 . S
H614 C622 0.950 . S
H615 C624 0.950 . S
H616 C626 0.950 . S
H617 C628 0.950 . S
H618 C630 0.950 . S
H619 C631 0.950 . S
C620 H612 0.950 . S
C620 C621 1.386 . S
C620 C622 1.391 . S
C621 C620 1.386 . S
C621 C625 1.393 . S
C622 H614 0.950 . S
C622 C620 1.391 . S
C622 C623 1.400 . S
C623 C622 1.400 . S
C623 C624 1.398 . S
C623 C629 1.491 . S
C624 H615 0.950 . S
C624 C623 1.398 . S
C624 C625 1.391 . S
C625 H613 0.950 . S
C625 C621 1.393 . S
C625 C624 1.391 . S
C626 H616 0.950 . S
C626 C627 1.386 . S
C626 C628 1.391 . S
C627 C626 1.386 . S
C627 C631 1.393 . S
C628 H617 0.950 . S
C628 C626 1.391 . S
C628 C629 1.400 . S
C629 C623 1.491 . S
C629 C628 1.400 . S
C629 C630 1.398 . S
C630 H618 0.950 . S
C630 C629 1.398 . S
C630 C631 1.391 . S
C631 H619 0.950 . S
C631 C627 1.393 . S
C631 C630 1.391 . S
H632 C640 0.950 . S
H633 C645 0.950 . S
H634 C642 0.950 . S
H635 C644 0.950 . S
H636 C646 0.950 . S
H637 C648 0.950 . S
H638 C650 0.950 . S
H639 C651 0.950 . S
C640 H632 0.950 . S
C640 C641 1.386 . S
C640 C642 1.391 . S
C641 C640 1.386 . S
C641 C645 1.393 . S
C642 H634 0.950 . S
C642 C640 1.391 . S
C642 C643 1.400 . S
C643 C642 1.400 . S
C643 C644 1.398 . S
C643 C649 1.491 . S
C644 H635 0.950 . S
C644 C643 1.398 . S
C644 C645 1.391 . S
C645 H633 0.950 . S
C645 C641 1.393 . S
C645 C644 1.391 . S
C646 H636 0.950 . S
C646 C647 1.386 . S
C646 C648 1.391 . S
C647 C646 1.386 . S
C647 C651 1.393 . S
C648 H637 0.950 . S
C648 C646 1.391 . S
C648 C649 1.400 . S
C649 C643 1.491 . S
C649 C648 1.400 . S
C649 C650 1.398 . S
C650 H638 0.950 . S
C650 C649 1.398 . S
C650 C651 1.391 . S
C651 H639 0.950 . S
C651 C647 1.393 . S
C651 C650 1.391 . S
H652 C660 0.950 . S
H653 C665 0.950 . S
H654 C662 0.950 . S
H655 C664 0.950 . S
H656 C666 0.950 . S
H657 C668 0.950 . S
H658 C670 0.950 . S
H659 C671 0.950 . S
C660 H652 0.950 . S
C660 C661 1.386 . S
C660 C662 1.391 . S
C661 C660 1.386 . S
C661 C665 1.393 . S
C662 H654 0.950 . S
C662 C660 1.391 . S
C662 C663 1.400 . S
C663 C662 1.400 . S
C663 C664 1.398 . S
C663 C669 1.491 . S
C664 H655 0.950 . S
C664 C663 1.398 . S
C664 C665 1.391 . S
C665 H653 0.950 . S
C665 C661 1.393 . S
C665 C664 1.391 . S
C666 H656 0.950 . S
C666 C667 1.386 . S
C666 C668 1.391 . S
C667 C666 1.386 . S
C667 C671 1.393 . S
C668 H657 0.950 . S
C668 C666 1.391 . S
C668 C669 1.400 . S
C669 C663 1.491 . S
C669 C668 1.400 . S
C669 C670 1.398 . S
C670 H658 0.950 . S
C670 C669 1.398 . S
C670 C671 1.391 . S
C671 H659 0.950 . S
C671 C667 1.393 . S
C671 C670 1.391 . S
H672 C680 0.950 . S
H673 C685 0.950 . S
H674 C682 0.950 . S
H675 C684 0.950 . S
H676 C686 0.950 . S
H677 C688 0.950 . S
H678 C690 0.950 . S
H679 C691 0.950 . S
C680 H672 0.950 . S
C680 C681 1.386 . S
C680 C682 1.391 . S
C681 C680 1.386 . S
C681 C685 1.393 . S
C682 H674 0.950 . S
C682 C680 1.391 . S
C682 C683 1.400 . S
C683 C682 1.400 . S
C683 C684 1.398 . S
C683 C689 1.491 . S
C684 H675 0.950 . S
C684 C683 1.398 . S
C684 C685 1.391 . S
C685 H673 0.950 . S
C685 C681 1.393 . S
C685 C684 1.391 . S
C686 H676 0.950 . S
C686 C687 1.386 . S
C686 C688 1.391 . S
C687 C686 1.386 . S
C687 C691 1.393 . S
C688 H677 0.950 . S
C688 C686 1.391 . S
C688 C689 1.400 . S
C689 C683 1.491 . S
C689 C688 1.400 . S
C689 C690 1.398 . S
C690 H678 0.950 . S
C690 C689 1.398 . S
C690 C691 1.391 . S
C691 H679 0.950 . S
C691 C687 1.393 . S
C691 C690 1.391 . S
H692 C700 0.950 . S
H693 C705 0.950 . S
H694 C702 0.950 . S
H695 C704 0.950 . S
H696 C706 0.950 . S
H697 C708 0.950 . S
H698 C710 0.950 . S
H699 C711 0.950 . S
C700 H692 0.950 . S
C700 C701 1.386 . S
C700 C702 1.391 . S
C701 C700 1.386 . S
C701 C705 1.393 . S
C702 H694 0.950 . S
C702 C700 1.391 . S
C702 C703 1.400 . S
C703 C702 1.400 . S
C703 C704 1.398 . S
C703 C709 1.491 . S
C704 H695 0.950 . S
C704 C703 1.398 . S
C704 C705 1.391 . S
C705 H693 0.950 . S
C705 C701 1.393 . S
C705 C704 1.391 . S
C706 H696 0.950 . S
C706 C707 1.386 . S
C706 C708 1.391 . S
C707 C706 1.386 . S
C707 C711 1.393 . S
C708 H697 0.950 . S
C708 C706 1.391 . S
C708 C709 1.400 . S
C709 C703 1.491 . S
C709 C708 1.400 . S
C709 C710 1.398 . S
C710 H698 0.950 . S
C710 C709 1.398 . S
C710 C711 1.391 . S
C711 H699 0.950 . S
C711 C707 1.393 . S
C711 C710 1.391 . S
C241 C5 0.990 . S
C247 C78 1.014 . S
C261 C14 0.933 . S
C267 C127 0.933 . S
C287 C162 2.488 . S
C281 C25 2.537 . S
C301 C34 2.446 . S
C307 C201 2.388 . S
C327 C122 2.032 . S
C321 C7 1.963 . S
C347 C81 0.728 . S
C341 C13 0.750 . S
C367 C211 1.926 . S
C361 C23 1.966 . S
C387 C170 1.691 . S
C381 C31 1.712 . S
C401 C4 1.398 . S
C407 C198 1.443 . S
C427 C130 2.332 . S
C421 C22 2.411 . S
C441 C32 2.357 . S
C447 C91 2.350 . S
C461 C16 0.819 . S
C467 C167 0.839 . S
C487 C87 0.998 . S
C481 C41 1.000 . S
C501 C50 0.934 . S
C507 C118 0.935 . S
C521 C61 2.527 . S
C527 C171 2.480 . S
C541 C67 2.458 . S
C547 C210 2.410 . S
C561 C40 1.980 . S
C567 C131 2.051 . S
C587 C90 0.713 . S
C581 C52 0.706 . S
C607 C202 1.919 . S
C601 C59 1.973 . S
C627 C161 1.687 . S
C621 C70 1.708 . S
C641 C43 1.392 . S
C647 C207 1.440 . S
C667 C121 2.348 . S
C661 C58 2.424 . S
C687 C82 2.330 . S
C681 C68 2.336 . S
C701 C49 0.850 . S
C707 C158 0.838 . S
