# Generated by pormake.
# Topology pth, (4,4)-cn, num edge types: 1
# Building blocks:
#     Node 0, Type 0, BuildingBlock: KUFVIS_clean_sbu_0, # of connection points: 4
#     Node 1, Type 0, BuildingBlock: KUFVIS_clean_sbu_0, # of connection points: 4
#     Node 2, Type 0, BuildingBlock: KUFVIS_clean_sbu_0, # of connection points: 4
#     Node 3, Type 1, BuildingBlock: NAHDIM_clean_linker_0, # of connection points: 4
#     Node 4, Type 1, BuildingBlock: NAHDIM_clean_linker_0, # of connection points: 4
#     Node 5, Type 1, BuildingBlock: NAHDIM_clean_linker_0, # of connection points: 4
#     Edge 6, Type (0, 1), BuildingBlock: MIFKUJ_clean_linker_0, # of connection points: 2
#     Edge 7, Type (0, 1), BuildingBlock: MIFKUJ_clean_linker_0, # of connection points: 2
#     Edge 8, Type (0, 1), BuildingBlock: MIFKUJ_clean_linker_0, # of connection points: 2
#     Edge 9, Type (0, 1), BuildingBlock: MIFKUJ_clean_linker_0, # of connection points: 2
#     Edge 10, Type (0, 1), BuildingBlock: MIFKUJ_clean_linker_0, # of connection points: 2
#     Edge 11, Type (0, 1), BuildingBlock: MIFKUJ_clean_linker_0, # of connection points: 2
#     Edge 12, Type (0, 1), BuildingBlock: MIFKUJ_clean_linker_0, # of connection points: 2
#     Edge 13, Type (0, 1), BuildingBlock: MIFKUJ_clean_linker_0, # of connection points: 2
#     Edge 14, Type (0, 1), BuildingBlock: MIFKUJ_clean_linker_0, # of connection points: 2
#     Edge 15, Type (0, 1), BuildingBlock: MIFKUJ_clean_linker_0, # of connection points: 2
#     Edge 16, Type (0, 1), BuildingBlock: MIFKUJ_clean_linker_0, # of connection points: 2
#     Edge 17, Type (0, 1), BuildingBlock: MIFKUJ_clean_linker_0, # of connection points: 2
# Relax obj value: 0.013
# Max RMSD: 0.083
# Mean RMSD: 0.064
data_MOF--net-pth--node1-KUFVIS_clean_sbu_0--node2-NAHDIM_clean_linker_0--edge1-MIFKUJ_clean_linker_0
_symmetry_space_group_name_H-M    P1
_symmetry_Int_Tables_number       1
_symmetry_cell_setting            triclinic
loop_
_symmetry_equiv_pos_as_xyz
'x, y, z'
_cell_length_a     38.284221
_cell_length_b     38.354704
_cell_length_c     99.055857
_cell_angle_alpha  90.171983
_cell_angle_beta   92.36297
_cell_angle_gamma 120.29398
loop_
_atom_site_label
_atom_site_type_symbol
_atom_site_fract_x
_atom_site_fract_y
_atom_site_fract_z
_atom_type_partial_charge
Mn0 Mn 0.05717 0.0945 0.07263 0.0
Mn1 Mn 0.011 0.13626 0.05495 0.0
C2 C 0.01683 0.06148 0.05356 0.0
C3 C 0.05739 0.0545 0.09023 0.0
C4 C 0.09889 0.16133 0.05222 0.0
O5 O 0.06189 0.1373 0.08577 0.0
O6 O 0.03196 0.16411 0.07299 0.0
C7 C 0.94196 0.11037 0.07262 0.0
N8 N 0.95614 0.1112 0.06016 0.0
C9 C 0.88839 0.07245 0.05026 0.0
C10 C 0.87308 0.07142 0.06296 0.0
C11 C 0.9 0.0904 0.07419 0.0
C12 C 0.93051 0.09291 0.04931 0.0
H13 H 0.96249 0.12476 0.0813 0.0
C14 C 0.05016 0.16271 0.08395 0.0
O15 O 0.09097 0.08155 0.08518 0.0
O16 O 0.0241 0.05134 0.08519 0.0
N17 N 0.98853 0.11269 0.03742 0.0
C18 C 0.00815 0.11555 0.02595 0.0
C19 C 0.98557 0.09783 0.01383 0.0
C20 C 0.94313 0.07784 0.01361 0.0
C21 C 0.92357 0.07553 0.02549 0.0
C22 C 0.94767 0.09408 0.03724 0.0
H23 H 0.04072 0.13116 0.02607 0.0
O24 O 0.04398 0.05319 0.05812 0.0
O25 O 0.01331 0.08839 0.0605 0.0
O26 O 0.10062 0.13847 0.06123 0.0
O27 O 0.0669 0.16247 0.04883 0.0
C28 C 0.88112 0.05522 0.02615 0.0
C29 C 0.86353 0.05357 0.03854 0.0
H30 H 0.84073 0.05594 0.06423 0.0
H31 H 0.88842 0.08958 0.08404 0.0
H32 H 0.00082 0.09971 0.00466 0.0
H33 H 0.92583 0.06462 0.00427 0.0
H34 H 0.86173 0.04042 0.01722 0.0
H35 H 0.83085 0.03753 0.03896 0.0
Mn36 Mn 0.00498 0.07259 0.41093 0.0
Mn37 Mn 0.05179 0.16191 0.42823 0.0
C38 C 0.04532 0.08041 0.43009 0.0
C39 C 0.0034 0.03137 0.39333 0.0
C40 C 0.96231 0.10069 0.42947 0.0
O41 O 0.00096 0.11134 0.3977 0.0
O42 O 0.03908 0.17007 0.40938 0.0
C43 C 0.12837 0.20378 0.41402 0.0
N44 N 0.10865 0.19061 0.4257 0.0
C45 C 0.1715 0.22183 0.43902 0.0
C46 C 0.19254 0.23586 0.42714 0.0
C47 C 0.17088 0.22665 0.41459 0.0
C48 C 0.12917 0.19907 0.43781 0.0
H49 H 0.11175 0.19692 0.40437 0.0
C50 C 0.01844 0.14978 0.39879 0.0
O51 O 0.97042 0.02549 0.39859 0.0
O52 O 0.0373 0.06169 0.39811 0.0
N53 N 0.06607 0.15898 0.44672 0.0
C54 C 0.04122 0.14162 0.45713 0.0
C55 C 0.05799 0.1483 0.4704 0.0
C56 C 0.10004 0.17278 0.47282 0.0
C57 C 0.12506 0.18962 0.46194 0.0
C58 C 0.10656 0.18261 0.44897 0.0
H59 H 0.0088 0.12352 0.45535 0.0
O60 O 0.01826 0.04473 0.42546 0.0
O61 O 0.04871 0.11072 0.42317 0.0
O62 O 0.96172 0.07258 0.42242 0.0
O63 O 0.99376 0.13526 0.43175 0.0
C64 C 0.1676 0.21322 0.46345 0.0
C65 C 0.19083 0.22906 0.45198 0.0
H66 H 0.22532 0.25351 0.42753 0.0
H67 H 0.18691 0.23728 0.40538 0.0
H68 H 0.03848 0.13512 0.47876 0.0
H69 H 0.11283 0.17869 0.48309 0.0
H70 H 0.18278 0.21901 0.47337 0.0
H71 H 0.22354 0.24666 0.45325 0.0
Mn72 Mn 0.0475 0.09664 0.74654 0.0
Mn73 Mn 0.01538 0.14675 0.76574 0.0
C74 C 0.08869 0.13858 0.7642 0.0
C75 C 0.07959 0.09379 0.72745 0.0
C76 C 0.98513 0.05702 0.76795 0.0
O77 O 0.00045 0.0932 0.73519 0.0
O78 O 0.98517 0.13235 0.74781 0.0
C79 C 0.04465 0.22119 0.75005 0.0
N80 N 0.04396 0.203 0.7619 0.0
C81 C 0.08846 0.26715 0.77314 0.0
C82 C 0.08931 0.28658 0.76109 0.0
C83 C 0.06738 0.26348 0.74949 0.0
C84 C 0.06497 0.22493 0.77312 0.0
H85 H 0.02813 0.20355 0.74108 0.0
C86 C 0.98056 0.11113 0.73713 0.0
O87 O 0.05388 0.06108 0.73333 0.0
O88 O 0.08581 0.12782 0.73247 0.0
N89 N 0.04287 0.16297 0.78321 0.0
C90 C 0.04163 0.13948 0.79368 0.0
C91 C 0.06346 0.15787 0.80588 0.0
C92 C 0.08628 0.20019 0.80719 0.0
C93 C 0.08702 0.22374 0.79629 0.0
C94 C 0.06436 0.20373 0.78442 0.0
H95 H 0.02441 0.10695 0.79271 0.0
O96 O 0.09446 0.11035 0.7595 0.0
O97 O 0.05906 0.14119 0.75842 0.0
O98 O 0.00794 0.05503 0.75933 0.0
O99 O 0.98487 0.08943 0.77076 0.0
C100 C 0.11016 0.26626 0.79662 0.0
C101 C 0.11089 0.28795 0.78506 0.0
H102 H 0.1071 0.31917 0.76058 0.0
H103 H 0.06815 0.27825 0.74012 0.0
H104 H 0.0629 0.13947 0.81422 0.0
H105 H 0.10345 0.21426 0.81656 0.0
H106 H 0.12808 0.28255 0.80564 0.0
H107 H 0.12938 0.32059 0.78536 0.0
C108 C 0.95067 0.73917 0.28425 0.0
C109 C 0.9728 0.73496 0.29685 0.0
C110 C 0.01599 0.71103 0.28748 0.0
C111 C 0.0558 0.72243 0.28472 0.0
C112 C 0.06496 0.69553 0.27832 0.0
C113 C 0.03335 0.65616 0.27455 0.0
C114 C 0.99297 0.64415 0.2774 0.0
C115 C 0.98465 0.67165 0.28386 0.0
C116 C 0.10841 0.70924 0.27551 0.0
C117 C 0.95861 0.60233 0.27352 0.0
C118 C 0.1403 0.45917 0.29489 0.0
C119 C 0.10743 0.45582 0.30406 0.0
C120 C 0.07193 0.48439 0.29102 0.0
C121 C 0.0351 0.4748 0.28445 0.0
C122 C 0.02985 0.50438 0.27797 0.0
C123 C 0.06268 0.54456 0.27788 0.0
C124 C 0.0997 0.55491 0.2849 0.0
C125 C 0.10394 0.52476 0.29148 0.0
C126 C 0.98961 0.49238 0.27083 0.0
C127 C 0.13522 0.59752 0.285 0.0
C128 C 0.11478 0.49849 0.1959 0.0
C129 C 0.07342 0.48279 0.19786 0.0
C130 C 0.05943 0.50762 0.20286 0.0
C131 C 0.08742 0.54886 0.20595 0.0
C132 C 0.12878 0.5651 0.20335 0.0
C133 C 0.14182 0.53969 0.19821 0.0
C134 C 0.01493 0.48967 0.20512 0.0
C135 C 0.15934 0.60903 0.20636 0.0
C136 C 0.94487 0.70906 0.17752 0.0
C137 C 0.99112 0.73465 0.17905 0.0
C138 C 0.01819 0.69114 0.18404 0.0
C139 C 0.99003 0.65113 0.1868 0.0
C140 C 0.00055 0.62893 0.19559 0.0
C141 C 0.0404 0.64717 0.20147 0.0
C142 C 0.06912 0.68753 0.1985 0.0
C143 C 0.05755 0.70916 0.18979 0.0
C144 C 0.9692 0.58597 0.19853 0.0
C145 C 0.11198 0.70762 0.20444 0.0
C146 C 0.04259 0.62775 0.2675 0.0
C147 C 0.04918 0.60109 0.27532 0.0
C148 C 0.05929 0.57451 0.26934 0.0
C149 C 0.06414 0.57518 0.25526 0.0
C150 C 0.07648 0.55038 0.24905 0.0
C151 C 0.08025 0.55048 0.23516 0.0
C152 C 0.07125 0.57492 0.22689 0.0
C153 C 0.074 0.57442 0.21271 0.0
C154 C 0.06421 0.59859 0.20475 0.0
C155 C 0.05199 0.62371 0.2106 0.0
C156 C 0.04984 0.62525 0.2248 0.0
C157 C 0.03833 0.65067 0.23104 0.0
C158 C 0.03634 0.65191 0.24503 0.0
C159 C 0.04503 0.6272 0.25329 0.0
C160 C 0.05623 0.60105 0.24718 0.0
C161 C 0.0592 0.60049 0.23295 0.0
C162 C 0.15085 0.43661 0.20458 0.0
C163 C 0.11734 0.43599 0.19545 0.0
O164 O 0.00949 0.73906 0.29352 0.0
O165 O 0.00799 0.71178 0.17525 0.0
O166 O 0.12957 0.47508 0.19156 0.0
O167 O 0.07521 0.45357 0.29643 0.0
H168 H 0.95353 0.70484 0.30124 0.0
H169 H 0.94383 0.71507 0.27662 0.0
H170 H 0.96959 0.76889 0.27959 0.0
H171 H 0.92156 0.73647 0.28698 0.0
H172 H 0.07979 0.75276 0.28756 0.0
H173 H 0.95362 0.66208 0.28591 0.0
H174 H 0.1172 0.6882 0.28009 0.0
H175 H 0.12969 0.7403 0.27955 0.0
H176 H 0.11156 0.70852 0.26444 0.0
H177 H 0.92871 0.5978 0.27618 0.0
H178 H 0.96357 0.57947 0.27872 0.0
H179 H 0.95792 0.59686 0.26247 0.0
H180 H 0.12094 0.48287 0.31098 0.0
H181 H 0.165 0.45872 0.30104 0.0
H182 H 0.15369 0.4879 0.2894 0.0
H183 H 0.12759 0.43392 0.28728 0.0
H184 H 0.01049 0.4437 0.28424 0.0
H185 H 0.13258 0.53293 0.29664 0.0
H186 H 0.97971 0.51411 0.27349 0.0
H187 H 0.96566 0.4615 0.2734 0.0
H188 H 0.9929 0.49321 0.25973 0.0
H189 H 0.16191 0.60088 0.29103 0.0
H190 H 0.12637 0.61863 0.28924 0.0
H191 H 0.14408 0.60654 0.27448 0.0
H192 H 0.08982 0.42355 0.20145 0.0
H193 H 0.052 0.4513 0.19542 0.0
H194 H 0.17354 0.55163 0.19637 0.0
H195 H 0.01045 0.48974 0.21612 0.0
H196 H 0.99657 0.45815 0.20106 0.0
H197 H 0.00356 0.50835 0.20027 0.0
H198 H 0.19039 0.61702 0.20372 0.0
H199 H 0.15979 0.61603 0.21728 0.0
H200 H 0.1504 0.62834 0.2006 0.0
H201 H -4e-05 0.7449 0.18984 0.0
H202 H 0.93089 0.72732 0.18018 0.0
H203 H 0.93358 0.6833 0.18445 0.0
H204 H 0.93506 0.6971 0.16697 0.0
H205 H 0.95989 0.6373 0.18201 0.0
H206 H 0.07915 0.74004 0.18737 0.0
H207 H 0.96636 0.58226 0.20962 0.0
H208 H 0.97904 0.56515 0.19475 0.0
H209 H 0.93898 0.57698 0.19373 0.0
H210 H 0.13108 0.73863 0.20071 0.0
H211 H 0.12594 0.68927 0.20191 0.0
H212 H 0.11177 0.7093 0.21563 0.0
H213 H 0.04611 0.60081 0.28616 0.0
H214 H 0.08353 0.53067 0.25487 0.0
H215 H 0.08996 0.5308 0.231 0.0
H216 H 0.06596 0.59771 0.19386 0.0
H217 H 0.03091 0.67006 0.22519 0.0
H218 H 0.02747 0.67217 0.24927 0.0
H219 H 0.14169 0.40562 0.2079 0.0
H220 H 0.15656 0.45602 0.2137 0.0
H221 H 0.17943 0.44884 0.19917 0.0
C222 C 0.40575 0.09143 0.66223 0.0
C223 C 0.39087 0.10926 0.65113 0.0
C224 C 0.41635 0.09484 0.63104 0.0
C225 C 0.44756 0.13367 0.62805 0.0
C226 C 0.47977 0.13893 0.62037 0.0
C227 C 0.48075 0.10464 0.61559 0.0
C228 C 0.44867 0.06546 0.61823 0.0
C229 C 0.41654 0.06109 0.6258 0.0
C230 C 0.51289 0.18115 0.61741 0.0
C231 C 0.44861 0.0283 0.61317 0.0
C232 C 0.77566 0.13272 0.64206 0.0
C233 C 0.75635 0.14056 0.63005 0.0
C234 C 0.69775 0.15001 0.62861 0.0
C235 C 0.6679 0.10972 0.62553 0.0
C236 C 0.62987 0.10027 0.61981 0.0
C237 C 0.62164 0.13174 0.6172 0.0
C238 C 0.65067 0.17197 0.62118 0.0
C239 C 0.68832 0.1805 0.62695 0.0
C240 C 0.5991 0.05695 0.61602 0.0
C241 C 0.64261 0.20616 0.61876 0.0
C242 C 0.70163 0.16812 0.53523 0.0
C243 C 0.67319 0.12695 0.5365 0.0
C244 C 0.63465 0.11473 0.54119 0.0
C245 C 0.62456 0.14429 0.54465 0.0
C246 C 0.65229 0.18557 0.54253 0.0
C247 C 0.69039 0.19686 0.5377 0.0
C248 C 0.60529 0.0704 0.54296 0.0
C249 C 0.64229 0.21786 0.54586 0.0
C250 C 0.35635 0.14544 0.53599 0.0
C251 C 0.36956 0.13849 0.52229 0.0
C252 C 0.41533 0.11349 0.5292 0.0
C253 C 0.41869 0.07898 0.53033 0.0
C254 C 0.45255 0.08059 0.53701 0.0
C255 C 0.48381 0.11778 0.54266 0.0
C256 C 0.48137 0.15315 0.54115 0.0
C257 C 0.44724 0.1507 0.53443 0.0
C258 C 0.45448 0.04243 0.53836 0.0
C259 C 0.51444 0.19341 0.54695 0.0
C260 C 0.51564 0.10998 0.60797 0.0
C261 C 0.55024 0.11591 0.61537 0.0
C262 C 0.58499 0.12342 0.60888 0.0
C263 C 0.58538 0.12477 0.59462 0.0
C264 C 0.62007 0.13274 0.58781 0.0
C265 C 0.62061 0.13506 0.57382 0.0
C266 C 0.58645 0.12938 0.56606 0.0
C267 C 0.58712 0.1327 0.55184 0.0
C268 C 0.5529 0.12756 0.54443 0.0
C269 C 0.51788 0.11948 0.5509 0.0
C270 C 0.51656 0.11584 0.56511 0.0
C271 C 0.48188 0.10796 0.57193 0.0
C272 C 0.48137 0.10577 0.58595 0.0
C273 C 0.51546 0.11121 0.5937 0.0
C274 C 0.55051 0.11866 0.58701 0.0
C275 C 0.55105 0.12095 0.57271 0.0
C276 C 0.80284 0.19396 0.54172 0.0
C277 C 0.76283 0.16306 0.53448 0.0
O278 O 0.38574 0.08903 0.63892 0.0
O279 O 0.38069 0.10931 0.52323 0.0
O280 O 0.74011 0.18136 0.53168 0.0
O281 O 0.73594 0.16075 0.63305 0.0
H282 H 0.41388 0.14179 0.65041 0.0
H283 H 0.43556 0.09539 0.65977 0.0
H284 H 0.38391 0.05864 0.66318 0.0
H285 H 0.40951 0.1071 0.6721 0.0
H286 H 0.44668 0.15995 0.63155 0.0
H287 H 0.39198 0.03125 0.62801 0.0
H288 H 0.54186 0.18692 0.62241 0.0
H289 H 0.50625 0.20456 0.62101 0.0
H290 H 0.51716 0.1842 0.60636 0.0
H291 H 0.4219 0.99995 0.61635 0.0
H292 H 0.4766 0.02893 0.61702 0.0
H293 H 0.44863 0.0281 0.60196 0.0
H294 H 0.7403 0.11545 0.62237 0.0
H295 H 0.76005 0.09883 0.64252 0.0
H296 H 0.76083 0.13646 0.6511 0.0
H297 H 0.83784 0.16901 0.6392 0.0
H298 H 0.67429 0.08566 0.62745 0.0
H299 H 0.71129 0.21137 0.62965 0.0
H300 H 0.59503 0.05333 0.60484 0.0
H301 H 0.56931 0.04885 0.62001 0.0
H302 H 0.60841 0.03558 0.61993 0.0
H303 H 0.66763 0.2355 0.62296 0.0
H304 H 0.61412 0.19951 0.62344 0.0
H305 H 0.63856 0.20902 0.60773 0.0
H306 H 0.74723 0.13772 0.54151 0.0
H307 H 0.68105 0.10437 0.53395 0.0
H308 H 0.7123 0.22847 0.53637 0.0
H309 H 0.60181 0.06414 0.55391 0.0
H310 H 0.61565 0.05097 0.53833 0.0
H311 H 0.57502 0.06207 0.53839 0.0
H312 H 0.66735 0.24865 0.54374 0.0
H313 H 0.63562 0.21678 0.55671 0.0
H314 H 0.61472 0.21214 0.53984 0.0
H315 H 0.39561 0.16737 0.51907 0.0
H316 H 0.34622 0.16789 0.53507 0.0
H317 H 0.38188 0.1573 0.54368 0.0
H318 H 0.33115 0.11675 0.53967 0.0
H319 H 0.39418 0.05048 0.52619 0.0
H320 H 0.44566 0.17794 0.53353 0.0
H321 H 0.45479 0.03541 0.54922 0.0
H322 H 0.48302 0.04693 0.53428 0.0
H323 H 0.42843 0.01616 0.53297 0.0
H324 H 0.50898 0.21848 0.54436 0.0
H325 H 0.54405 0.20035 0.54313 0.0
H326 H 0.51662 0.19198 0.55813 0.0
H327 H 0.55039 0.11544 0.62633 0.0
H328 H 0.6474 0.13757 0.59319 0.0
H329 H 0.64834 0.14161 0.5692 0.0
H330 H 0.5539 0.13096 0.53356 0.0
H331 H 0.45477 0.10363 0.56652 0.0
H332 H 0.45395 0.09994 0.59064 0.0
H333 H 0.8216 0.18005 0.54424 0.0
H334 H 0.79674 0.2047 0.55128 0.0
H335 H 0.82016 0.22041 0.53528 0.0
C336 C 0.77128 0.72179 0.86331 0.0
C337 C 0.74239 0.72527 0.85295 0.0
C338 C 0.68163 0.70921 0.86536 0.0
C339 C 0.65895 0.72539 0.87026 0.0
C340 C 0.62238 0.70105 0.87648 0.0
C341 C 0.60851 0.65949 0.878 0.0
C342 C 0.6314 0.64286 0.87316 0.0
C343 C 0.66764 0.66781 0.86682 0.0
C344 C 0.59849 0.71967 0.88138 0.0
C345 C 0.61745 0.59865 0.87468 0.0
C346 C 0.3683 0.53564 0.81721 0.0
C347 C 0.37741 0.51136 0.82755 0.0
C348 C 0.39948 0.53414 0.85086 0.0
C349 C 0.42384 0.51694 0.85331 0.0
C350 C 0.45465 0.53275 0.86358 0.0
C351 C 0.46144 0.56674 0.87142 0.0
C352 C 0.4359 0.5832 0.86925 0.0
C353 C 0.40467 0.56608 0.85914 0.0
C354 C 0.48057 0.51377 0.86581 0.0
C355 C 0.44246 0.61971 0.87728 0.0
C356 C 0.36773 0.50315 0.95469 0.0
C357 C 0.38917 0.48358 0.95156 0.0
C358 C 0.4278 0.50521 0.94631 0.0
C359 C 0.44502 0.54702 0.94409 0.0
C360 C 0.42377 0.56686 0.94754 0.0
C361 C 0.38559 0.54467 0.95297 0.0
C362 C 0.45003 0.48339 0.94297 0.0
C363 C 0.44107 0.61136 0.94526 0.0
C364 C 0.71839 0.66984 0.99085 0.0
C365 C 0.72453 0.70374 0.98131 0.0
C366 C 0.65836 0.68267 0.96969 0.0
C367 C 0.65458 0.64942 0.96234 0.0
C368 C 0.62148 0.62714 0.95313 0.0
C369 C 0.59251 0.63937 0.95082 0.0
C370 C 0.5968 0.67337 0.95803 0.0
C371 C 0.62929 0.69406 0.96752 0.0
C372 C 0.61736 0.59033 0.94599 0.0
C373 C 0.56685 0.6877 0.9559 0.0
C374 C 0.5696 0.63319 0.88438 0.0
C375 C 0.53477 0.6123 0.87592 0.0
C376 C 0.49701 0.58683 0.88115 0.0
C377 C 0.49377 0.58168 0.89526 0.0
C378 C 0.4564 0.55587 0.90086 0.0
C379 C 0.45334 0.55195 0.91479 0.0
C380 C 0.48766 0.57323 0.92364 0.0
C381 C 0.4847 0.57004 0.93781 0.0
C382 C 0.51945 0.59113 0.94632 0.0
C383 C 0.55734 0.61635 0.94109 0.0
C384 C 0.56079 0.62057 0.92693 0.0
C385 C 0.59814 0.64647 0.9213 0.0
C386 C 0.60123 0.6503 0.90737 0.0
C387 C 0.56692 0.62901 0.89854 0.0
C388 C 0.52886 0.60306 0.90399 0.0
C389 C 0.52582 0.59874 0.91819 0.0
C390 C 0.26006 0.43998 0.95415 0.0
C391 C 0.3011 0.443 0.95694 0.0
O392 O 0.7167 0.73476 0.85942 0.0
O393 O 0.68875 0.70412 0.97915 0.0
O394 O 0.32996 0.48323 0.95944 0.0
O395 O 0.37146 0.52118 0.8404 0.0
H396 H 0.72436 0.69613 0.84717 0.0
H397 H 0.75408 0.69731 0.87043 0.0
H398 H 0.78946 0.75051 0.86927 0.0
H399 H 0.79212 0.7146 0.8581 0.0
H400 H 0.66996 0.75732 0.86909 0.0
H401 H 0.68477 0.65469 0.86314 0.0
H402 H 0.56727 0.7033 0.8767 0.0
H403 H 0.61266 0.75216 0.87898 0.0
H404 H 0.596 0.71669 0.89249 0.0
H405 H 0.63985 0.59079 0.87113 0.0
H406 H 0.58838 0.58013 0.86877 0.0
H407 H 0.6119 0.59044 0.88544 0.0
H408 H 0.40984 0.52058 0.82652 0.0
H409 H 0.37252 0.52795 0.80681 0.0
H410 H 0.38937 0.56845 0.81919 0.0
H411 H 0.33678 0.52947 0.81786 0.0
H412 H 0.41896 0.49137 0.84713 0.0
H413 H 0.38532 0.57878 0.85723 0.0
H414 H 0.51109 0.5341 0.86203 0.0
H415 H 0.46748 0.484 0.86044 0.0
H416 H 0.48438 0.50975 0.87677 0.0
H417 H 0.42207 0.63078 0.87359 0.0
H418 H 0.47434 0.64458 0.87674 0.0
H419 H 0.43688 0.61202 0.88806 0.0
H420 H 0.30782 0.43139 0.94766 0.0
H421 H 0.37596 0.45159 0.95329 0.0
H422 H 0.36891 0.55947 0.95557 0.0
H423 H 0.45438 0.48448 0.93193 0.0
H424 H 0.43348 0.45128 0.94593 0.0
H425 H 0.48053 0.49876 0.94819 0.0
H426 H 0.42007 0.62194 0.94805 0.0
H427 H 0.44798 0.6179 0.93447 0.0
H428 H 0.46989 0.62891 0.95136 0.0
H429 H 0.7349 0.69877 0.97152 0.0
H430 H 0.74753 0.67061 0.9929 0.0
H431 H 0.69631 0.63985 0.98626 0.0
H432 H 0.70672 0.673 0.00059 0.0
H433 H 0.67682 0.64017 0.96386 0.0
H434 H 0.63237 0.71965 0.97327 0.0
H435 H 0.62415 0.59696 0.9352 0.0
H436 H 0.58585 0.56457 0.94634 0.0
H437 H 0.63838 0.58105 0.9505 0.0
H438 H 0.57911 0.71901 0.95993 0.0
H439 H 0.5391 0.66752 0.96127 0.0
H440 H 0.55815 0.68658 0.94501 0.0
H441 H 0.53705 0.6161 0.86507 0.0
H442 H 0.42901 0.53865 0.89454 0.0
H443 H 0.42368 0.53197 0.91852 0.0
H444 H 0.51683 0.5886 0.95718 0.0
H445 H 0.62549 0.66409 0.9276 0.0
H446 H 0.63082 0.67045 0.90362 0.0
H447 H 0.2513 0.45082 0.96311 0.0
H448 H 0.23622 0.40826 0.95162 0.0
H449 H 0.26176 0.45884 0.94543 0.0
H450 H 0.03247 0.22362 0.08396 0.0
H451 H 0.04435 0.27134 0.10238 0.0
H452 H 0.09497 0.21503 0.12778 0.0
H453 H 0.0839 0.16757 0.10937 0.0
H454 H 0.01555 0.26069 0.1269 0.0
H455 H 0.16936 0.28622 0.14889 0.0
H456 H 0.22965 0.28592 0.14115 0.0
H457 H 0.20675 0.31486 0.10113 0.0
H458 H 0.14667 0.31588 0.10867 0.0
H459 H 0.06022 0.35587 0.19201 0.0
H460 H 0.04877 0.31051 0.17276 0.0
H461 H 0.14467 0.40936 0.15219 0.0
H462 H 0.15701 0.45442 0.17159 0.0
H463 H 0.15125 0.3451 0.14976 0.0
H464 H 0.04281 0.37296 0.1434 0.0
H465 H 0.98361 0.37723 0.14997 0.0
H466 H 0.91787 0.24951 0.15632 0.0
H467 H 0.97689 0.24457 0.14996 0.0
C468 C 0.04626 0.22138 0.09344 0.0
C469 C 0.0574 0.19179 0.09513 0.0
C470 C 0.05289 0.24864 0.10398 0.0
C471 C 0.07086 0.247 0.11641 0.0
C472 C 0.08164 0.21728 0.1182 0.0
C473 C 0.07516 0.19007 0.10765 0.0
C474 C 0.0781 0.27626 0.12753 0.0
C475 C 0.04522 0.27916 0.1319 0.0
C476 C 0.11692 0.30076 0.13393 0.0
C477 C 0.15329 0.30072 0.12932 0.0
C478 C 0.17729 0.29267 0.13845 0.0
C479 C 0.21141 0.29235 0.1341 0.0
C480 C 0.22195 0.30023 0.12065 0.0
C481 C 0.19847 0.3086 0.11153 0.0
C482 C 0.16435 0.309 0.11584 0.0
C483 C 0.07848 0.36793 0.18329 0.0
C484 C 0.10875 0.40888 0.18314 0.0
C485 C 0.07192 0.34206 0.1723 0.0
C486 C 0.09539 0.35668 0.16092 0.0
C487 C 0.12601 0.39746 0.16082 0.0
C488 C 0.1328 0.42326 0.17185 0.0
C489 C 0.08862 0.32934 0.14921 0.0
C490 C 0.12157 0.32667 0.14476 0.0
C491 C 0.05001 0.30561 0.14256 0.0
C492 C 0.01439 0.30847 0.14631 0.0
C493 C 0.01582 0.34584 0.14628 0.0
C494 C 0.98229 0.34837 0.14996 0.0
C495 C 0.94703 0.31368 0.15359 0.0
C496 C 0.94521 0.27636 0.15352 0.0
C497 C 0.97868 0.27367 0.14987 0.0
H498 H 0.92111 0.3157 0.15644 0.0
H499 H 0.24835 0.29994 0.1173 0.0
H500 H 0.92253 0.1418 0.42657 0.0
H501 H 0.87378 0.14127 0.44191 0.0
H502 H 0.87493 0.04484 0.4639 0.0
H503 H 0.92227 0.04406 0.44807 0.0
H504 H 0.80147 0.04055 0.4651 0.0
H505 H 0.94201 0.14075 0.47302 0.0
H506 H 0.00851 0.19584 0.46648 0.0
H507 H 0.95629 0.26955 0.45695 0.0
H508 H 0.88934 0.21467 0.46329 0.0
H509 H 0.77171 0.09724 0.53092 0.0
H510 H 0.79374 0.07741 0.5109 0.0
H511 H 0.796 0.17584 0.48918 0.0
H512 H 0.77525 0.19642 0.50927 0.0
H513 H 0.86467 0.17638 0.48738 0.0
H514 H 0.72327 0.07454 0.48185 0.0
H515 H 0.6588 0.01817 0.48927 0.0
H516 H 0.71473 0.94633 0.49574 0.0
H517 H 0.7797 0.00248 0.48853 0.0
C518 C 0.91102 0.11946 0.43436 0.0
C519 C 0.92587 0.09298 0.43623 0.0
C520 C 0.88341 0.11927 0.44315 0.0
C521 C 0.87159 0.09372 0.45424 0.0
C522 C 0.88374 0.06484 0.45542 0.0
C523 C 0.9107 0.06438 0.4464 0.0
C524 C 0.85203 0.10146 0.46556 0.0
C525 C 0.81527 0.07014 0.47004 0.0
C526 C 0.87017 0.14009 0.47201 0.0
C527 C 0.91062 0.17351 0.46853 0.0
C528 C 0.94469 0.16866 0.46949 0.0
C529 C 0.98245 0.19982 0.46581 0.0
C530 C 0.98659 0.23612 0.46127 0.0
C531 C 0.95302 0.2414 0.46046 0.0
C532 C 0.91517 0.2103 0.46411 0.0
C533 C 0.77611 0.11405 0.52177 0.0
C534 C 0.77104 0.14787 0.52157 0.0
C535 C 0.78854 0.10264 0.51033 0.0
C536 C 0.79597 0.1248 0.49847 0.0
C537 C 0.79016 0.15813 0.49819 0.0
C538 C 0.77807 0.16972 0.50964 0.0
C539 C 0.81345 0.11575 0.4868 0.0
C540 C 0.85035 0.14686 0.48236 0.0
C541 C 0.79565 0.0768 0.48059 0.0
C542 C 0.75644 0.04284 0.48475 0.0
C543 C 0.72189 0.04681 0.48493 0.0
C544 C 0.68524 0.01489 0.48909 0.0
C545 C 0.68269 0.97872 0.49299 0.0
C546 C 0.71675 0.97437 0.49271 0.0
C547 C 0.75348 0.00621 0.48858 0.0
H548 H 0.6543 0.95406 0.49622 0.0
H549 H 0.01584 0.26019 0.4584 0.0
H550 H 0.94723 0.05265 0.79118 0.0
H551 H 0.90595 0.99292 0.80422 0.0
H552 H 0.92049 0.91844 0.77492 0.0
H553 H 0.96254 0.97833 0.76179 0.0
H554 H 0.83767 0.88722 0.78418 0.0
H555 H 0.97441 0.937 0.80119 0.0
H556 H 0.04225 0.98957 0.8099 0.0
H557 H 0.98997 0.01264 0.84387 0.0
H558 H 0.92169 0.96062 0.83524 0.0
H559 H 0.76203 0.717 0.8272 0.0
H560 H 0.80281 0.77037 0.8116 0.0
H561 H 0.81869 0.86063 0.8412 0.0
H562 H 0.77868 0.80749 0.85688 0.0
H563 H 0.8883 0.88089 0.83052 0.0
H564 H 0.75229 0.83512 0.81351 0.0
H565 H 0.68333 0.78539 0.80476 0.0
H566 H 0.73234 0.75688 0.77104 0.0
H567 H 0.80168 0.80607 0.7797 0.0
C568 C 0.94158 0.02362 0.78742 0.0
C569 C 0.95846 0.02035 0.77547 0.0
C570 C 0.918 0.98953 0.79491 0.0
C571 C 0.91045 0.95144 0.79054 0.0
C572 C 0.92609 0.94768 0.77842 0.0
C573 C 0.95023 0.98193 0.77099 0.0
C574 C 0.88734 0.91599 0.79899 0.0
C575 C 0.84891 0.88532 0.79422 0.0
C576 C 0.90184 0.91422 0.81218 0.0
C577 C 0.9429 0.94516 0.8175 0.0
C578 C 0.97734 0.9535 0.81046 0.0
C579 C 0.01588 0.98317 0.81539 0.0
C580 C 0.02041 0.0045 0.82741 0.0
C581 C 0.9864 0.99612 0.83455 0.0
C582 C 0.94778 0.96652 0.82965 0.0
C583 C 0.774 0.74824 0.83031 0.0
C584 C 0.76651 0.75809 0.84314 0.0
C585 C 0.7972 0.77867 0.82139 0.0
C586 C 0.81333 0.81948 0.82516 0.0
C587 C 0.8064 0.82936 0.83805 0.0
C588 C 0.78335 0.79901 0.84697 0.0
C589 C 0.83811 0.85211 0.81583 0.0
C590 C 0.87702 0.88238 0.82044 0.0
C591 C 0.82383 0.8536 0.80254 0.0
C592 C 0.78219 0.82392 0.79734 0.0
C593 C 0.74838 0.81797 0.8043 0.0
C594 C 0.70922 0.78994 0.79934 0.0
C595 C 0.70346 0.76789 0.78738 0.0
C596 C 0.73686 0.77391 0.78033 0.0
C597 C 0.77609 0.80188 0.78525 0.0
H598 H 0.67312 0.74623 0.78355 0.0
H599 H 0.05027 0.02747 0.83122 0.0
H600 H 0.12118 0.05004 0.10198 0.0
H601 H 0.11757 0.99938 0.11785 0.0
H602 H 0.98789 0.94621 0.11804 0.0
H603 H 0.99112 0.99621 0.10224 0.0
H604 H 0.08765 0.97617 0.14358 0.0
H605 H 0.94554 0.84489 0.11564 0.0
H606 H 0.91412 0.8266 0.09253 0.0
H607 H 0.03041 0.90048 0.076 0.0
H608 H 0.06259 0.91871 0.09898 0.0
H609 H 0.99251 0.80493 0.18491 0.0
H610 H 0.01105 0.86279 0.17049 0.0
H611 H 0.04202 0.80545 0.13937 0.0
H612 H 0.02132 0.74676 0.1534 0.0
H613 H 0.00056 0.83287 0.12841 0.0
H614 H 0.11543 0.89042 0.15971 0.0
H615 H 0.1512 0.90897 0.18216 0.0
H616 H 0.09916 0.98247 0.19078 0.0
H617 H 0.06264 0.96394 0.16845 0.0
C618 C 0.09199 0.02778 0.10553 0.0
C619 C 0.0564 0.02684 0.10076 0.0
C620 C 0.09 0.99899 0.11461 0.0
C621 C 0.05241 0.96878 0.11895 0.0
C622 C 0.01713 0.96895 0.11466 0.0
C623 C 0.01908 0.99761 0.10563 0.0
C624 C 0.04934 0.93563 0.12739 0.0
C625 C 0.06878 0.9448 0.14029 0.0
C626 C 0.02543 0.89482 0.12293 0.0
C627 C 0.00639 0.88345 0.10905 0.0
C628 C 0.96442 0.85707 0.10707 0.0
C629 C 0.94648 0.84674 0.09399 0.0
C630 C 0.97023 0.86247 0.08281 0.0
C631 C 0.01202 0.88844 0.08467 0.0
C632 C 0.03011 0.89881 0.09772 0.0
C633 C 0.00374 0.80499 0.17505 0.0
C634 C 0.00617 0.77163 0.17043 0.0
C635 C 0.01458 0.83815 0.16684 0.0
C636 C 0.02874 0.83894 0.15391 0.0
C637 C 0.03142 0.80572 0.14932 0.0
C638 C 0.01986 0.77225 0.15741 0.0
C639 C 0.03825 0.87309 0.14483 0.0
C640 C 0.01982 0.86414 0.13175 0.0
C641 C 0.06383 0.91403 0.14905 0.0
C642 C 0.08609 0.92556 0.16244 0.0
C643 C 0.11143 0.91036 0.16642 0.0
C644 C 0.13187 0.9209 0.17912 0.0
C645 C 0.12741 0.94683 0.1879 0.0
C646 C 0.10258 0.96238 0.18397 0.0
C647 C 0.08206 0.95191 0.17129 0.0
H648 H 0.14322 0.95492 0.19773 0.0
H649 H 0.95627 0.85447 0.0727 0.0
H650 H 0.03241 0.03397 0.45208 0.0
H651 H 0.08344 0.03298 0.46738 0.0
H652 H 0.17721 0.13515 0.44715 0.0
H653 H 0.1266 0.13039 0.43044 0.0
H654 H 0.20471 0.09306 0.45135 0.0
H655 H 0.13744 0.1327 0.48578 0.0
H656 H 0.07808 0.12182 0.49834 0.0
H657 H 0.05147 0.00182 0.50747 0.0
H658 H 0.11063 0.0123 0.49512 0.0
H659 H 0.36198 0.18252 0.50182 0.0
H660 H 0.30421 0.16292 0.4859 0.0
H661 H 0.24093 0.0454 0.50352 0.0
H662 H 0.29894 0.06491 0.51951 0.0
H663 H 0.19439 0.08074 0.501 0.0
H664 H 0.27473 0.05227 0.47274 0.0
H665 H 0.33664 0.06524 0.46174 0.0
H666 H 0.34065 0.16572 0.44134 0.0
H667 H 0.27909 0.15373 0.45237 0.0
C668 C 0.06399 0.05647 0.45108 0.0
C669 C 0.07549 0.08417 0.44061 0.0
C670 C 0.09327 0.05637 0.45999 0.0
C671 C 0.13461 0.08504 0.45895 0.0
C672 C 0.14575 0.11277 0.44843 0.0
C673 C 0.11669 0.11117 0.43908 0.0
C674 C 0.16682 0.08496 0.46802 0.0
C675 C 0.20246 0.09118 0.46223 0.0
C676 C 0.16356 0.07964 0.48219 0.0
C677 C 0.12768 0.07306 0.48933 0.0
C678 C 0.11842 0.10394 0.49034 0.0
C679 C 0.08506 0.0979 0.49745 0.0
C680 C 0.06081 0.06104 0.50355 0.0
C681 C 0.07012 0.03028 0.50268 0.0
C682 C 0.10362 0.03631 0.49568 0.0
C683 C 0.33603 0.15229 0.50216 0.0
C684 C 0.3351 0.12507 0.51179 0.0
C685 C 0.3031 0.1411 0.49305 0.0
C686 C 0.26852 0.10255 0.49344 0.0
C687 C 0.26747 0.07519 0.50301 0.0
C688 C 0.30056 0.08629 0.51209 0.0
C689 C 0.23273 0.09206 0.48434 0.0
C690 C 0.19638 0.08296 0.49011 0.0
C691 C 0.23545 0.09504 0.47018 0.0
C692 C 0.27239 0.10222 0.46345 0.0
C693 C 0.28897 0.07731 0.46598 0.0
C694 C 0.32398 0.08446 0.45973 0.0
C695 C 0.3426 0.11632 0.45086 0.0
C696 C 0.3262 0.14105 0.44821 0.0
C697 C 0.2912 0.13405 0.45445 0.0
H698 H 0.36971 0.12181 0.44604 0.0
H699 H 0.03498 0.05642 0.50902 0.0
H700 H 0.12581 0.21719 0.75826 0.0
H701 H 0.17909 0.27428 0.77151 0.0
H702 H 0.18136 0.19254 0.80096 0.0
H703 H 0.12601 0.13511 0.78787 0.0
H704 H 0.1864 0.2547 0.81355 0.0
H705 H 0.2574 0.24012 0.7778 0.0
H706 H 0.27015 0.23128 0.75418 0.0
H707 H 0.28008 0.34481 0.74438 0.0
H708 H 0.26684 0.3541 0.76789 0.0
H709 H 0.39972 0.45823 0.81839 0.0
H710 H 0.35589 0.38771 0.81097 0.0
H711 H 0.251 0.39382 0.82181 0.0
H712 H 0.29499 0.4639 0.82972 0.0
H713 H 0.30497 0.36206 0.79096 0.0
H714 H 0.17163 0.30108 0.82776 0.0
H715 H 0.16214 0.30597 0.85201 0.0
H716 H 0.28528 0.33749 0.86139 0.0
H717 H 0.29537 0.33216 0.83723 0.0
C718 C 0.13736 0.21153 0.76766 0.0
C719 C 0.12109 0.17219 0.77236 0.0
C720 C 0.16826 0.24407 0.77512 0.0
C721 C 0.18466 0.23776 0.78717 0.0
C722 C 0.16908 0.19815 0.79172 0.0
C723 C 0.13769 0.16546 0.78426 0.0
C724 C 0.21757 0.27287 0.795 0.0
C725 C 0.21254 0.27808 0.80867 0.0
C726 C 0.25229 0.30283 0.78873 0.0
C727 C 0.261 0.29773 0.77461 0.0
C728 C 0.26216 0.26314 0.7706 0.0
C729 C 0.26947 0.25804 0.75723 0.0
C730 C 0.27589 0.28745 0.74779 0.0
C731 C 0.27513 0.32207 0.75171 0.0
C732 C 0.26781 0.32731 0.76506 0.0
C733 C 0.36737 0.4442 0.81945 0.0
C734 C 0.3507 0.46652 0.82457 0.0
C735 C 0.34234 0.40395 0.81518 0.0
C736 C 0.3001 0.3853 0.81585 0.0
C737 C 0.2835 0.40719 0.82141 0.0
C738 C 0.30859 0.44732 0.82582 0.0
C739 C 0.27327 0.34468 0.80945 0.0
C740 C 0.27932 0.33848 0.79598 0.0
C741 C 0.24024 0.31342 0.81605 0.0
C742 C 0.23435 0.3166 0.83063 0.0
C743 C 0.19665 0.30891 0.83499 0.0
C744 C 0.19117 0.31178 0.84873 0.0
C745 C 0.22312 0.32217 0.85823 0.0
C746 C 0.26061 0.32961 0.85402 0.0
C747 C 0.26624 0.32674 0.84029 0.0
H748 H 0.21881 0.32437 0.86886 0.0
H749 H 0.28149 0.28342 0.73744 0.0
H750 H 0.94643 0.05626 0.71598 0.0
H751 H 0.90573 0.05791 0.6966 0.0
H752 H 0.91261 0.16516 0.7135 0.0
H753 H 0.95167 0.16267 0.73316 0.0
H754 H 0.84066 0.11901 0.70198 0.0
H755 H 0.9783 0.16734 0.68884 0.0
H756 H 0.03845 0.16059 0.68616 0.0
H757 H 0.96842 0.05644 0.65997 0.0
H758 H 0.90775 0.06229 0.66263 0.0
H759 H 0.80872 0.22753 0.6428 0.0
H760 H 0.83564 0.2013 0.66635 0.0
H761 H 0.83204 0.08844 0.63958 0.0
H762 H 0.8049 0.11142 0.6153 0.0
H763 H 0.89437 0.12541 0.65675 0.0
H764 H 0.75812 0.07722 0.66901 0.0
H765 H 0.69631 0.08079 0.67197 0.0
H766 H 0.76236 0.18218 0.69958 0.0
H767 H 0.82465 0.17938 0.69668 0.0
C768 C 0.93887 0.07993 0.71564 0.0
C769 C 0.95267 0.1096 0.72605 0.0
C770 C 0.91575 0.08094 0.70452 0.0
C771 C 0.90694 0.11224 0.70343 0.0
C772 C 0.91916 0.14081 0.71409 0.0
C773 C 0.94161 0.1394 0.72532 0.0
C774 C 0.8868 0.11662 0.69095 0.0
C775 C 0.85265 0.12077 0.69211 0.0
C776 C 0.9016 0.11766 0.67798 0.0
C777 C 0.93841 0.11498 0.67605 0.0
C778 C 0.97572 0.14293 0.68255 0.0
C779 C 0.0099 0.13926 0.68103 0.0
C780 C 0.00719 0.10798 0.67295 0.0
C781 C 0.97043 0.08057 0.66625 0.0
C782 C 0.93616 0.08407 0.66775 0.0
C783 C 0.81424 0.20257 0.64213 0.0
C784 C 0.79667 0.16737 0.62712 0.0
C785 C 0.82878 0.18464 0.65686 0.0
C786 C 0.83352 0.14017 0.65578 0.0
C787 C 0.82689 0.11367 0.63992 0.0
C788 C 0.81221 0.12907 0.6246 0.0
C789 C 0.84879 0.12861 0.66785 0.0
C790 C 0.88207 0.12316 0.6666 0.0
C791 C 0.8333 0.12648 0.68071 0.0
C792 C 0.79608 0.12841 0.68249 0.0
C793 C 0.75947 0.1004 0.67566 0.0
C794 C 0.72435 0.10224 0.67734 0.0
C795 C 0.72544 0.13178 0.68593 0.0
C796 C 0.7616 0.1594 0.6929 0.0
C797 C 0.79679 0.15766 0.69126 0.0
H798 H 0.69824 0.13321 0.6872 0.0
H799 H 0.03354 0.10494 0.67188 0.0
H800 H 0.03209 0.03724 0.02994 0.0
H801 H 0.98326 0.98203 0.01477 0.0
H802 H 0.88573 0.96856 0.03861 0.0
H803 H 0.93486 0.022 0.0543 0.0
H804 H 0.90108 0.89966 0.03533 0.0
H805 H 0.84019 0.96254 0.99716 0.0
H806 H 0.85601 0.01813 0.98155 0.0
H807 H 0.97522 0.03608 0.97749 0.0
H808 H 0.95935 0.9795 0.99258 0.0
H809 H 0.71981 0.74268 0.00385 0.0
H810 H 0.77137 0.80767 0.01406 0.0
H811 H 0.85201 0.82169 0.98269 0.0
H812 H 0.80061 0.75629 0.9725 0.0
H813 H 0.84841 0.89204 0.98816 0.0
H814 H 0.86914 0.79504 0.01201 0.0
H815 H 0.84938 0.73386 0.02514 0.0
H816 H 0.81127 0.78166 0.05691 0.0
H817 H 0.83017 0.84287 0.04386 0.0
C818 C 6e-05 0.02334 0.03164 0.0
C819 C 0.98697 0.03478 0.04298 0.0
C820 C 0.97214 0.99223 0.02285 0.0
C821 C 0.93065 0.97229 0.0252 0.0
C822 C 0.91747 0.98442 0.03636 0.0
C823 C 0.94547 0.01507 0.04527 0.0
C824 C 0.90239 0.93377 0.01793 0.0
C825 C 0.88939 0.89801 0.02503 0.0
C826 C 0.88788 0.93157 0.00442 0.0
C827 C 0.89912 0.96782 0.99638 0.0
C828 C 0.86992 0.9787 0.99304 0.0
C829 C 0.87866 0.00996 0.98412 0.0
C830 C 0.91667 0.03074 0.97856 0.0
C831 C 0.94591 0.02018 0.98189 0.0
C832 C 0.93707 0.98855 0.99065 0.0
C833 C 0.74859 0.75957 0.99916 0.0
C834 C 0.75631 0.74431 0.98743 0.0
C835 C 0.77796 0.79663 0.00499 0.0
C836 C 0.81555 0.81927 0.99917 0.0
C837 C 0.82315 0.80459 0.98732 0.0
C838 C 0.79387 0.76726 0.98154 0.0
C839 C 0.84696 0.85806 0.00561 0.0
C840 C 0.86028 0.89371 0.99843 0.0
C841 C 0.86214 0.86017 0.01902 0.0
C842 C 0.85069 0.82337 0.02689 0.0
C843 C 0.85618 0.79234 0.02174 0.0
C844 C 0.8452 0.75768 0.02917 0.0
C845 C 0.82898 0.75382 0.04183 0.0
C846 C 0.82378 0.78466 0.04709 0.0
C847 C 0.83464 0.81935 0.03968 0.0
H848 H 0.82053 0.72698 0.04758 0.0
H849 H 0.92345 0.05502 0.9717 0.0
H850 H 0.94276 0.95459 0.38718 0.0
H851 H 0.94272 0.90696 0.37066 0.0
H852 H 0.06141 0.99764 0.35902 0.0
H853 H 0.06218 0.04529 0.37581 0.0
H854 H 0.99733 0.95046 0.33677 0.0
H855 H 0.06512 0.93564 0.37633 0.0
H856 H 0.07346 0.92595 0.40058 0.0
H857 H 0.96303 0.81122 0.39805 0.0
H858 H 0.95368 0.82055 0.3738 0.0
H859 H 0.03164 0.8156 0.29774 0.0
H860 H 0.04101 0.86814 0.31405 0.0
H861 H 0.93864 0.7798 0.33534 0.0
H862 H 0.92958 0.7271 0.31918 0.0
H863 H 0.9997 0.82911 0.35278 0.0
H864 H 0.92968 0.8438 0.3139 0.0
H865 H 0.91872 0.8528 0.28976 0.0
H866 H 0.03007 0.96671 0.29104 0.0
H867 H 0.042 0.95809 0.31515 0.0
C868 C 0.96875 0.96449 0.38105 0.0
C869 C 0.00251 0.0036 0.38279 0.0
C870 C 0.96872 0.93724 0.37166 0.0
C871 C 0.00212 0.94885 0.3637 0.0
C872 C 0.0354 0.98823 0.36511 0.0
C873 C 0.03581 0.01529 0.3747 0.0
C874 C 0.0023 0.91932 0.35412 0.0
C875 C 0.99857 0.92426 0.34022 0.0
C876 C 0.00296 0.8848 0.35871 0.0
C877 C 0.00846 0.87902 0.37328 0.0
C878 C 0.04238 0.90855 0.38097 0.0
C879 C 0.04734 0.90308 0.39471 0.0
C880 C 0.01872 0.86805 0.40087 0.0
C881 C 0.98513 0.83837 0.39328 0.0
C882 C 0.98 0.84373 0.37953 0.0
C883 C 0.0115 0.80736 0.30601 0.0
C884 C 0.98025 0.76714 0.30732 0.0
C885 C 0.01668 0.83741 0.31525 0.0
C886 C 0.99035 0.82793 0.32586 0.0
C887 C 0.95942 0.78775 0.32727 0.0
C888 C 0.95425 0.7577 0.31804 0.0
C889 C 0.99442 0.85994 0.33535 0.0
C890 C 0.99884 0.85545 0.34927 0.0
C891 C 0.9941 0.89475 0.33077 0.0
C892 C 0.98696 0.90007 0.31629 0.0
C893 C 0.95201 0.8706 0.309 0.0
C894 C 0.94559 0.87566 0.29533 0.0
C895 C 0.97374 0.91025 0.28886 0.0
C896 C 0.00833 0.9399 0.29606 0.0
C897 C 0.01493 0.93495 0.30973 0.0
H898 H 0.96871 0.91412 0.27828 0.0
H899 H 0.02263 0.86385 0.41151 0.0
H900 H 0.14785 0.15672 0.71804 0.0
H901 H 0.19091 0.15478 0.70105 0.0
H902 H 0.10728 0.02738 0.69386 0.0
H903 H 0.06484 0.02885 0.71147 0.0
H904 H 0.17883 0.0388 0.69631 0.0
H905 H 0.12225 0.10338 0.66962 0.0
H906 H 0.10123 0.15314 0.66429 0.0
H907 H 0.22434 0.24973 0.67005 0.0
H908 H 0.24617 0.2007 0.67547 0.0
H909 H 0.31313 0.04368 0.64793 0.0
H910 H 0.25083 0.03691 0.65646 0.0
H911 H 0.31829 0.15952 0.67231 0.0
H912 H 0.38024 0.16667 0.66355 0.0
H913 H 0.24511 0.14254 0.66174 0.0
H914 H 0.2983 0.0786 0.69198 0.0
H915 H 0.32019 0.02955 0.69736 0.0
H916 H 0.20215 0.9317 0.68485 0.0
H917 H 0.17975 0.98027 0.67922 0.0
C918 C 0.13826 0.12837 0.71271 0.0
C919 C 0.10299 0.09291 0.71609 0.0
C920 C 0.1628 0.12736 0.70288 0.0
C921 C 0.15208 0.09108 0.69593 0.0
C922 C 0.11616 0.05578 0.69903 0.0
C923 C 0.09191 0.05663 0.70908 0.0
C924 C 0.18038 0.08955 0.68641 0.0
C925 C 0.19247 0.06088 0.68851 0.0
C926 C 0.19886 0.11872 0.67635 0.0
C927 C 0.18582 0.14831 0.67301 0.0
C928 C 0.14483 0.13524 0.66982 0.0
C929 C 0.13276 0.16331 0.66678 0.0
C930 C 0.16138 0.20453 0.66688 0.0
C931 C 0.20219 0.21778 0.66997 0.0
C932 C 0.21445 0.18986 0.67299 0.0
C933 C 0.31439 0.06943 0.65296 0.0
C934 C 0.35142 0.10592 0.65492 0.0
C935 C 0.27888 0.06547 0.6579 0.0
C936 C 0.27997 0.09763 0.66511 0.0
C937 C 0.31667 0.1344 0.66671 0.0
C938 C 0.35205 0.13844 0.66172 0.0
C939 C 0.24391 0.09249 0.67192 0.0
C940 C 0.23054 0.11991 0.66932 0.0
C941 C 0.22417 0.06219 0.6815 0.0
C942 C 0.23751 0.03304 0.68504 0.0
C943 C 0.27711 0.04663 0.6903 0.0
C944 C 0.2896 0.01893 0.6934 0.0
C945 C 0.26261 0.97754 0.69141 0.0
C946 C 0.22304 0.96377 0.68636 0.0
C947 C 0.21043 0.99136 0.68322 0.0
H948 H 0.27234 0.95613 0.69381 0.0
H949 H 0.15195 0.22619 0.66455 0.0
H950 H 0.16927 0.22493 0.06267 0.0
H951 H 0.22493 0.27631 0.04975 0.0
H952 H 0.16545 0.20852 0.0128 0.0
H953 H 0.11029 0.15756 0.02565 0.0
H954 H 0.25155 0.24672 0.01314 0.0
H955 H 0.14442 0.27748 0.02315 0.0
H956 H 0.10431 0.29005 0.03928 0.0
H957 H 0.2135 0.38745 0.05804 0.0
H958 H 0.25425 0.37505 0.0421 0.0
H959 H 0.26988 0.36174 0.95676 0.0
H960 H 0.25536 0.31768 0.97595 0.0
H961 H 0.3126 0.42191 0.00313 0.0
H962 H 0.32488 0.46591 0.98397 0.0
H963 H 0.24585 0.37307 0.01221 0.0
H964 H 0.35193 0.3552 0.99818 0.0
H965 H 0.39382 0.34333 0.98266 0.0
H966 H 0.29377 0.22474 0.97261 0.0
H967 H 0.25104 0.23607 0.9879 0.0
C968 C 0.16885 0.22069 0.05183 0.0
C969 C 0.13552 0.18785 0.04506 0.0
C970 C 0.20049 0.24991 0.04449 0.0
C971 C 0.19907 0.24629 0.03032 0.0
C972 C 0.16715 0.21183 0.02372 0.0
C973 C 0.13546 0.18299 0.03103 0.0
C974 C 0.22702 0.28042 0.02208 0.0
C975 C 0.2507 0.27456 0.01293 0.0
C976 C 0.22688 0.3172 0.02218 0.0
C977 C 0.20233 0.32509 0.03155 0.0
C978 C 0.15984 0.30143 0.03076 0.0
C979 C 0.137 0.30853 0.03986 0.0
C980 C 0.15635 0.33946 0.0497 0.0
C981 C 0.19857 0.36346 0.05043 0.0
C982 C 0.22154 0.35642 0.04136 0.0
C983 C 0.2801 0.37523 0.96682 0.0
C984 C 0.29885 0.41724 0.96881 0.0
C985 C 0.27214 0.35005 0.9778 0.0
C986 C 0.28352 0.36636 0.99105 0.0
C987 C 0.30369 0.40852 0.99303 0.0
C988 C 0.31091 0.43371 0.98204 0.0
C989 C 0.26973 0.33916 0.00277 0.0
C990 C 0.24835 0.34615 0.0126 0.0
C991 C 0.27262 0.30375 0.00338 0.0
C992 C 0.2982 0.29659 0.99417 0.0
C993 C 0.33875 0.32667 0.9926 0.0
C994 C 0.36267 0.32002 0.98385 0.0
C995 C 0.34646 0.28332 0.97665 0.0
C996 C 0.3063 0.25315 0.9782 0.0
C997 C 0.28224 0.25965 0.98693 0.0
H998 H 0.36502 0.27824 0.96988 0.0
H999 H 0.13863 0.34489 0.05675 0.0
H1000 H 0.03425 0.22718 0.39961 0.0
H1001 H 0.03617 0.26846 0.38087 0.0
H1002 H 0.99882 0.16766 0.35306 0.0
H1003 H 0.99726 0.12562 0.372 0.0
H1004 H 0.06411 0.23606 0.34462 0.0
H1005 H 0.93416 0.20101 0.35847 0.0
H1006 H 0.88108 0.18877 0.37418 0.0
H1007 H 0.94605 0.3139 0.38673 0.0
H1008 H -0.00012 0.32683 0.37125 0.0
H1009 H 0.06744 0.3762 0.29524 0.0
H1010 H 0.04181 0.31559 0.30886 0.0
H1011 H 0.08431 0.39029 0.34525 0.0
H1012 H 0.11077 0.45097 0.33171 0.0
H1013 H 0.00324 0.32362 0.34563 0.0
H1014 H 0.1381 0.35348 0.33458 0.0
H1015 H 0.19101 0.36501 0.31887 0.0
H1016 H 0.11391 0.24726 0.30062 0.0
H1017 H 0.06028 0.23527 0.31612 0.0
C1018 C 0.02608 0.21345 0.38955 0.0
C1019 C 0.01579 0.17307 0.3873 0.0
C1020 C 0.02685 0.23711 0.37883 0.0
C1021 C 0.01714 0.22103 0.36558 0.0
C1022 C 0.00615 0.18053 0.36324 0.0
C1023 C 0.00516 0.15656 0.37405 0.0
C1024 C 0.02172 0.24808 0.3543 0.0
C1025 C 0.04991 0.25442 0.3446 0.0
C1026 C 0.00354 0.27235 0.35437 0.0
C1027 C 0.97119 0.26485 0.36371 0.0
C1028 C 0.9373 0.22589 0.36464 0.0
C1029 C 0.90704 0.21883 0.3735 0.0
C1030 C 0.91021 0.25053 0.38146 0.0
C1031 C 0.94363 0.28937 0.38056 0.0
C1032 C 0.97399 0.2966 0.37172 0.0
C1033 C 0.07164 0.37965 0.30614 0.0
C1034 C 0.09164 0.41834 0.31242 0.0
C1035 C 0.05685 0.34507 0.31389 0.0
C1036 C 0.06132 0.34859 0.32803 0.0
C1037 C 0.08056 0.38705 0.33433 0.0
C1038 C 0.0958 0.42164 0.3266 0.0
C1039 C 0.04658 0.31236 0.33636 0.0
C1040 C 0.01652 0.30444 0.34547 0.0
C1041 C 0.06279 0.28649 0.33567 0.0
C1042 C 0.095 0.2937 0.32637 0.0
C1043 C 0.13228 0.33021 0.32713 0.0
C1044 C 0.16243 0.3368 0.31828 0.0
C1045 C 0.15577 0.30694 0.30872 0.0
C1046 C 0.11898 0.27039 0.30801 0.0
C1047 C 0.08871 0.26369 0.31682 0.0
H1048 H 0.17916 0.31208 0.30189 0.0
H1049 H 0.88675 0.24499 0.38831 0.0
loop_
_geom_bond_atom_site_label_1
_geom_bond_atom_site_label_2
_geom_bond_distance
_geom_bond_site_symmetry_2
_ccdc_geom_bond_type
Mn0 O5 2.095 . S
Mn0 O15 2.162 . S
Mn0 O16 2.297 . S
Mn0 O24 2.385 . S
Mn0 O25 2.209 . S
Mn0 O26 2.094 . S
Mn1 O6 2.121 . S
Mn1 N8 2.257 1_455 S
Mn1 N17 2.282 . S
Mn1 O25 2.215 . S
Mn1 O27 2.117 . S
C2 O24 1.234 . S
C2 O25 1.283 . S
C3 O15 1.281 . S
C3 O16 1.236 . S
C4 O26 1.240 . S
C4 O27 1.264 . S
O5 Mn0 2.095 . S
O5 C14 1.250 . S
O6 Mn1 2.121 . S
O6 C14 1.258 . S
C7 N8 1.326 . S
C7 C11 1.460 . S
C7 H13 0.929 . S
N8 Mn1 2.257 1_655 S
N8 C7 1.326 . S
N8 C12 1.362 . S
C9 C10 1.258 . S
C9 C12 1.431 . S
C9 C29 1.449 . S
C10 C9 1.258 . S
C10 C11 1.477 . S
C10 H30 0.931 . S
C11 C7 1.460 . S
C11 C10 1.477 . S
C11 H31 0.930 . S
C12 N8 1.362 . S
C12 C9 1.431 . S
C12 C22 1.476 . S
H13 C7 0.929 . S
C14 O5 1.250 . S
C14 O6 1.258 . S
O15 Mn0 2.162 . S
O15 C3 1.281 . S
O16 Mn0 2.297 . S
O16 C3 1.236 . S
N17 Mn1 2.282 . S
N17 C18 1.328 . S
N17 C22 1.318 1_455 S
C18 N17 1.328 . S
C18 C19 1.457 . S
C18 H23 0.929 . S
C19 C18 1.457 . S
C19 C20 1.291 1_455 S
C19 H32 0.931 . S
C20 C19 1.291 1_655 S
C20 C21 1.373 . S
C20 H33 0.929 . S
C21 C20 1.373 . S
C21 C22 1.396 . S
C21 C28 1.403 . S
C22 C12 1.476 . S
C22 N17 1.318 1_655 S
C22 C21 1.396 . S
H23 C18 0.929 . S
O24 Mn0 2.385 . S
O24 C2 1.234 . S
O25 Mn0 2.209 . S
O25 Mn1 2.215 . S
O25 C2 1.283 . S
O26 Mn0 2.094 . S
O26 C4 1.240 . S
O27 Mn1 2.117 . S
O27 C4 1.264 . S
C28 C21 1.403 . S
C28 C29 1.399 . S
C28 H34 0.929 . S
C29 C9 1.449 . S
C29 C28 1.399 . S
C29 H35 0.930 . S
H30 C10 0.931 . S
H31 C11 0.930 . S
H32 C19 0.931 . S
H33 C20 0.929 . S
H34 C28 0.929 . S
H35 C29 0.930 . S
Mn36 O41 2.095 . S
Mn36 O51 2.162 1_455 S
Mn36 O52 2.297 . S
Mn36 O60 2.385 . S
Mn36 O61 2.209 . S
Mn36 O62 2.094 1_455 S
Mn37 O42 2.121 . S
Mn37 N44 2.257 . S
Mn37 N53 2.282 . S
Mn37 O61 2.215 . S
Mn37 O63 2.117 . S
C38 O60 1.234 . S
C38 O61 1.283 . S
C39 O51 1.281 1_455 S
C39 O52 1.236 . S
C40 O62 1.240 . S
C40 O63 1.264 1_655 S
O41 Mn36 2.095 . S
O41 C50 1.250 . S
O42 Mn37 2.121 . S
O42 C50 1.258 . S
C43 N44 1.326 . S
C43 C47 1.460 . S
C43 H49 0.929 . S
N44 Mn37 2.257 . S
N44 C43 1.326 . S
N44 C48 1.362 . S
C45 C46 1.258 . S
C45 C48 1.431 . S
C45 C65 1.449 . S
C46 C45 1.258 . S
C46 C47 1.477 . S
C46 H66 0.931 . S
C47 C43 1.460 . S
C47 C46 1.477 . S
C47 H67 0.930 . S
C48 N44 1.362 . S
C48 C45 1.431 . S
C48 C58 1.476 . S
H49 C43 0.929 . S
C50 O41 1.250 . S
C50 O42 1.258 . S
O51 Mn36 2.162 1_655 S
O51 C39 1.281 1_655 S
O52 Mn36 2.297 . S
O52 C39 1.236 . S
N53 Mn37 2.282 . S
N53 C54 1.328 . S
N53 C58 1.318 . S
C54 N53 1.328 . S
C54 C55 1.457 . S
C54 H59 0.929 . S
C55 C54 1.457 . S
C55 C56 1.291 . S
C55 H68 0.931 . S
C56 C55 1.291 . S
C56 C57 1.373 . S
C56 H69 0.929 . S
C57 C56 1.373 . S
C57 C58 1.396 . S
C57 C64 1.403 . S
C58 C48 1.476 . S
C58 N53 1.318 . S
C58 C57 1.396 . S
H59 C54 0.929 . S
O60 Mn36 2.385 . S
O60 C38 1.234 . S
O61 Mn36 2.209 . S
O61 Mn37 2.215 . S
O61 C38 1.283 . S
O62 Mn36 2.094 1_655 S
O62 C40 1.240 . S
O63 Mn37 2.117 . S
O63 C40 1.264 1_455 S
C64 C57 1.403 . S
C64 C65 1.399 . S
C64 H70 0.929 . S
C65 C45 1.449 . S
C65 C64 1.399 . S
C65 H71 0.930 . S
H66 C46 0.931 . S
H67 C47 0.930 . S
H68 C55 0.931 . S
H69 C56 0.929 . S
H70 C64 0.929 . S
H71 C65 0.930 . S
Mn72 O77 2.095 1_455 S
Mn72 O87 2.162 . S
Mn72 O88 2.297 . S
Mn72 O96 2.385 . S
Mn72 O97 2.209 . S
Mn72 O98 2.094 . S
Mn73 O78 2.121 . S
Mn73 N80 2.257 1_655 S
Mn73 N89 2.282 1_655 S
Mn73 O97 2.215 1_655 S
Mn73 O99 2.117 . S
C74 O96 1.234 . S
C74 O97 1.283 . S
C75 O87 1.281 . S
C75 O88 1.236 . S
C76 O98 1.240 1_655 S
C76 O99 1.264 . S
O77 Mn72 2.095 1_655 S
O77 C86 1.250 . S
O78 Mn73 2.121 . S
O78 C86 1.258 . S
C79 N80 1.326 . S
C79 C83 1.460 . S
C79 H85 0.929 . S
N80 Mn73 2.257 1_455 S
N80 C79 1.326 . S
N80 C84 1.362 . S
C81 C82 1.258 . S
C81 C84 1.431 . S
C81 C101 1.449 . S
C82 C81 1.258 . S
C82 C83 1.477 . S
C82 H102 0.931 . S
C83 C79 1.460 . S
C83 C82 1.477 . S
C83 H103 0.930 . S
C84 N80 1.362 . S
C84 C81 1.431 . S
C84 C94 1.476 . S
H85 C79 0.929 . S
C86 O77 1.250 . S
C86 O78 1.258 . S
O87 Mn72 2.162 . S
O87 C75 1.281 . S
O88 Mn72 2.297 . S
O88 C75 1.236 . S
N89 Mn73 2.282 1_455 S
N89 C90 1.328 . S
N89 C94 1.318 . S
C90 N89 1.328 . S
C90 C91 1.457 . S
C90 H95 0.929 . S
C91 C90 1.457 . S
C91 C92 1.291 . S
C91 H104 0.931 . S
C92 C91 1.291 . S
C92 C93 1.373 . S
C92 H105 0.929 . S
C93 C92 1.373 . S
C93 C94 1.396 . S
C93 C100 1.403 . S
C94 C84 1.476 . S
C94 N89 1.318 . S
C94 C93 1.396 . S
H95 C90 0.929 . S
O96 Mn72 2.385 . S
O96 C74 1.234 . S
O97 Mn72 2.209 . S
O97 Mn73 2.215 1_455 S
O97 C74 1.283 . S
O98 Mn72 2.094 . S
O98 C76 1.240 1_455 S
O99 Mn73 2.117 . S
O99 C76 1.264 . S
C100 C93 1.403 . S
C100 C101 1.399 . S
C100 H106 0.929 . S
C101 C81 1.449 . S
C101 C100 1.399 . S
C101 H107 0.930 . S
H102 C82 0.931 . S
H103 C83 0.930 . S
H104 C91 0.931 . S
H105 C92 0.929 . S
H106 C100 0.929 . S
H107 C101 0.930 . S
C108 C109 1.560 1_655 S
C108 H169 0.959 . S
C108 H170 0.959 . S
C108 H171 0.960 . S
C109 C108 1.560 1_455 S
C109 O164 1.426 1_455 S
C109 H168 0.980 . S
C110 C111 1.407 . S
C110 C115 1.418 1_455 S
C110 O164 1.334 1_455 S
C111 C110 1.407 . S
C111 C112 1.360 . S
C111 H172 0.929 . S
C112 C111 1.360 . S
C112 C113 1.401 . S
C112 C116 1.527 . S
C113 C112 1.401 . S
C113 C114 1.405 1_455 S
C113 C146 1.587 . S
C114 C113 1.405 1_655 S
C114 C115 1.332 . S
C114 C117 1.496 . S
C115 C110 1.418 1_655 S
C115 C114 1.332 . S
C115 H173 0.929 . S
C116 C112 1.527 . S
C116 H174 0.959 . S
C116 H175 0.961 . S
C116 H176 0.961 . S
C117 C114 1.496 . S
C117 H177 0.960 . S
C117 H178 0.960 . S
C117 H179 0.961 . S
C118 C119 1.517 . S
C118 H181 0.961 . S
C118 H182 0.960 . S
C118 H183 0.959 . S
C119 C118 1.517 . S
C119 O167 1.468 . S
C119 H180 0.980 . S
C120 C121 1.349 . S
C120 C125 1.367 . S
C120 O167 1.408 . S
C121 C120 1.349 . S
C121 C122 1.407 . S
C121 H184 0.930 . S
C122 C121 1.407 . S
C122 C123 1.449 . S
C122 C126 1.535 1_455 S
C123 C122 1.449 . S
C123 C124 1.384 . S
C123 C148 1.553 . S
C124 C123 1.384 . S
C124 C125 1.364 . S
C124 C127 1.450 . S
C125 C120 1.367 . S
C125 C124 1.364 . S
C125 H185 0.931 . S
C126 C122 1.535 1_655 S
C126 H186 0.965 1_655 S
C126 H187 0.961 . S
C126 H188 0.959 . S
C127 C124 1.450 . S
C127 H189 0.960 . S
C127 H190 0.960 . S
C127 H191 0.960 . S
C128 C129 1.309 . S
C128 C133 1.304 . S
C128 O166 1.435 . S
C129 C128 1.309 . S
C129 C130 1.476 . S
C129 H193 0.930 . S
C130 C129 1.476 . S
C130 C131 1.400 . S
C130 C134 1.567 1_455 S
C131 C130 1.400 . S
C131 C132 1.373 . S
C131 C153 1.432 . S
C132 C131 1.373 . S
C132 C133 1.339 . S
C132 C135 1.530 . S
C133 C128 1.304 . S
C133 C132 1.339 . S
C133 H194 0.930 . S
C134 C130 1.567 1_655 S
C134 H195 0.961 . S
C134 H196 0.960 . S
C134 H197 0.958 . S
C135 C132 1.530 . S
C135 H198 0.961 . S
C135 H199 0.960 . S
C135 H200 0.960 . S
C136 C137 1.530 . S
C136 H202 0.961 . S
C136 H203 0.961 1_455 S
C136 H204 0.959 1_455 S
C137 C136 1.530 . S
C137 O165 1.412 . S
C137 H201 0.980 . S
C138 C139 1.288 1_455 S
C138 C143 1.377 . S
C138 O165 1.393 . S
C139 C138 1.288 1_655 S
C139 C140 1.369 1_655 S
C139 H205 0.932 . S
C140 C139 1.369 1_455 S
C140 C141 1.398 . S
C140 C144 1.527 1_455 S
C141 C140 1.398 . S
C141 C142 1.380 . S
C141 C155 1.497 . S
C142 C141 1.380 . S
C142 C143 1.383 . S
C142 C145 1.603 . S
C143 C138 1.377 . S
C143 C142 1.383 . S
C143 H206 0.929 . S
C144 C140 1.527 1_655 S
C144 H207 0.961 . S
C144 H208 0.959 . S
C144 H209 0.959 . S
C145 C142 1.603 . S
C145 H210 0.960 . S
C145 H211 0.962 . S
C145 H212 0.961 . S
C146 C113 1.587 . S
C146 C147 1.360 . S
C146 C159 1.412 . S
C147 C146 1.360 . S
C147 C148 1.365 . S
C147 H213 0.929 . S
C148 C123 1.553 . S
C148 C147 1.365 . S
C148 C149 1.404 . S
C149 C148 1.404 . S
C149 C150 1.395 . S
C149 C160 1.451 . S
C150 C149 1.395 . S
C150 C151 1.322 . S
C150 H214 0.930 . S
C151 C150 1.322 . S
C151 C152 1.459 . S
C151 H215 0.929 . S
C152 C151 1.459 . S
C152 C153 1.445 . S
C152 C161 1.395 . S
C153 C131 1.432 . S
C153 C152 1.445 . S
C153 C154 1.370 . S
C154 C153 1.370 . S
C154 C155 1.438 . S
C154 H216 0.930 . S
C155 C141 1.497 . S
C155 C154 1.438 . S
C155 C156 1.360 . S
C156 C155 1.360 . S
C156 C157 1.401 . S
C156 C161 1.446 . S
C157 C156 1.401 . S
C157 C158 1.347 . S
C157 H217 0.929 . S
C158 C157 1.347 . S
C158 C159 1.455 . S
C158 H218 0.930 . S
C159 C146 1.412 . S
C159 C158 1.455 . S
C159 C160 1.331 . S
C160 C149 1.451 . S
C160 C159 1.331 . S
C160 C161 1.497 . S
C161 C152 1.395 . S
C161 C156 1.446 . S
C161 C160 1.497 . S
C162 C163 1.582 . S
C162 H219 0.962 . S
C162 H220 0.959 . S
C162 H221 0.958 . S
C163 C162 1.582 . S
C163 O166 1.458 . S
C163 H192 0.980 . S
O164 C109 1.426 1_655 S
O164 C110 1.334 1_655 S
O165 C137 1.412 . S
O165 C138 1.393 . S
O166 C128 1.435 . S
O166 C163 1.458 . S
O167 C119 1.468 . S
O167 C120 1.408 . S
H168 C109 0.980 . S
H169 C108 0.959 . S
H170 C108 0.959 . S
H171 C108 0.960 . S
H172 C111 0.929 . S
H173 C115 0.929 . S
H174 C116 0.959 . S
H175 C116 0.961 . S
H176 C116 0.961 . S
H177 C117 0.960 . S
H178 C117 0.960 . S
H179 C117 0.961 . S
H180 C119 0.980 . S
H181 C118 0.961 . S
H182 C118 0.960 . S
H183 C118 0.959 . S
H184 C121 0.930 . S
H185 C125 0.931 . S
H186 C126 0.965 1_455 S
H187 C126 0.961 . S
H188 C126 0.959 . S
H189 C127 0.960 . S
H190 C127 0.960 . S
H191 C127 0.960 . S
H192 C163 0.980 . S
H193 C129 0.930 . S
H194 C133 0.930 . S
H195 C134 0.961 . S
H196 C134 0.960 . S
H197 C134 0.958 . S
H198 C135 0.961 . S
H199 C135 0.960 . S
H200 C135 0.960 . S
H201 C137 0.980 . S
H202 C136 0.961 . S
H203 C136 0.961 1_655 S
H204 C136 0.959 1_655 S
H205 C139 0.932 . S
H206 C143 0.929 . S
H207 C144 0.961 . S
H208 C144 0.959 . S
H209 C144 0.959 . S
H210 C145 0.960 . S
H211 C145 0.962 . S
H212 C145 0.961 . S
H213 C147 0.929 . S
H214 C150 0.930 . S
H215 C151 0.929 . S
H216 C154 0.930 . S
H217 C157 0.929 . S
H218 C158 0.930 . S
H219 C162 0.962 . S
H220 C162 0.959 . S
H221 C162 0.958 . S
C222 C223 1.560 . S
C222 H283 0.959 . S
C222 H284 0.959 . S
C222 H285 0.960 . S
C223 C222 1.560 . S
C223 O278 1.426 . S
C223 H282 0.980 . S
C224 C225 1.407 . S
C224 C229 1.418 . S
C224 O278 1.334 . S
C225 C224 1.407 . S
C225 C226 1.360 . S
C225 H286 0.929 . S
C226 C225 1.360 . S
C226 C227 1.401 . S
C226 C230 1.527 . S
C227 C226 1.401 . S
C227 C228 1.405 . S
C227 C260 1.587 . S
C228 C227 1.405 . S
C228 C229 1.332 . S
C228 C231 1.496 . S
C229 C224 1.418 . S
C229 C228 1.332 . S
C229 H287 0.929 . S
C230 C226 1.527 . S
C230 H288 0.959 . S
C230 H289 0.961 . S
C230 H290 0.961 . S
C231 C228 1.496 . S
C231 H291 0.960 . S
C231 H292 0.960 . S
C231 H293 0.961 . S
C232 C233 1.517 . S
C232 H295 0.961 . S
C232 H296 0.960 . S
C232 H297 0.959 . S
C233 C232 1.517 . S
C233 O281 1.468 . S
C233 H294 0.980 . S
C234 C235 1.349 . S
C234 C239 1.367 . S
C234 O281 1.408 . S
C235 C234 1.349 . S
C235 C236 1.407 . S
C235 H298 0.930 . S
C236 C235 1.407 . S
C236 C237 1.449 . S
C236 C240 1.535 . S
C237 C236 1.449 . S
C237 C238 1.384 . S
C237 C262 1.553 . S
C238 C237 1.384 . S
C238 C239 1.364 . S
C238 C241 1.450 . S
C239 C234 1.367 . S
C239 C238 1.364 . S
C239 H299 0.931 . S
C240 C236 1.535 . S
C240 H300 0.959 . S
C240 H301 0.961 . S
C240 H302 0.959 . S
C241 C238 1.450 . S
C241 H303 0.960 . S
C241 H304 0.960 . S
C241 H305 0.960 . S
C242 C243 1.309 . S
C242 C247 1.304 . S
C242 O280 1.435 . S
C243 C242 1.309 . S
C243 C244 1.476 . S
C243 H307 0.930 . S
C244 C243 1.476 . S
C244 C245 1.400 . S
C244 C248 1.567 . S
C245 C244 1.400 . S
C245 C246 1.373 . S
C245 C267 1.432 . S
C246 C245 1.373 . S
C246 C247 1.339 . S
C246 C249 1.530 . S
C247 C242 1.304 . S
C247 C246 1.339 . S
C247 H308 0.930 . S
C248 C244 1.567 . S
C248 H309 0.961 . S
C248 H310 0.960 . S
C248 H311 0.958 . S
C249 C246 1.530 . S
C249 H312 0.961 . S
C249 H313 0.960 . S
C249 H314 0.960 . S
C250 C251 1.530 . S
C250 H316 0.961 . S
C250 H317 0.961 . S
C250 H318 0.959 . S
C251 C250 1.530 . S
C251 O279 1.412 . S
C251 H315 0.980 . S
C252 C253 1.288 . S
C252 C257 1.377 . S
C252 O279 1.393 . S
C253 C252 1.288 . S
C253 C254 1.369 . S
C253 H319 0.932 . S
C254 C253 1.369 . S
C254 C255 1.398 . S
C254 C258 1.527 . S
C255 C254 1.398 . S
C255 C256 1.380 . S
C255 C269 1.497 . S
C256 C255 1.380 . S
C256 C257 1.383 . S
C256 C259 1.603 . S
C257 C252 1.377 . S
C257 C256 1.383 . S
C257 H320 0.929 . S
C258 C254 1.527 . S
C258 H321 0.961 . S
C258 H322 0.959 . S
C258 H323 0.959 . S
C259 C256 1.603 . S
C259 H324 0.960 . S
C259 H325 0.962 . S
C259 H326 0.961 . S
C260 C227 1.587 . S
C260 C261 1.360 . S
C260 C273 1.412 . S
C261 C260 1.360 . S
C261 C262 1.365 . S
C261 H327 0.929 . S
C262 C237 1.553 . S
C262 C261 1.365 . S
C262 C263 1.404 . S
C263 C262 1.404 . S
C263 C264 1.395 . S
C263 C274 1.451 . S
C264 C263 1.395 . S
C264 C265 1.322 . S
C264 H328 0.930 . S
C265 C264 1.322 . S
C265 C266 1.459 . S
C265 H329 0.929 . S
C266 C265 1.459 . S
C266 C267 1.445 . S
C266 C275 1.395 . S
C267 C245 1.432 . S
C267 C266 1.445 . S
C267 C268 1.370 . S
C268 C267 1.370 . S
C268 C269 1.438 . S
C268 H330 0.930 . S
C269 C255 1.497 . S
C269 C268 1.438 . S
C269 C270 1.360 . S
C270 C269 1.360 . S
C270 C271 1.401 . S
C270 C275 1.446 . S
C271 C270 1.401 . S
C271 C272 1.347 . S
C271 H331 0.929 . S
C272 C271 1.347 . S
C272 C273 1.455 . S
C272 H332 0.930 . S
C273 C260 1.412 . S
C273 C272 1.455 . S
C273 C274 1.331 . S
C274 C263 1.451 . S
C274 C273 1.331 . S
C274 C275 1.497 . S
C275 C266 1.395 . S
C275 C270 1.446 . S
C275 C274 1.497 . S
C276 C277 1.582 . S
C276 H333 0.962 . S
C276 H334 0.959 . S
C276 H335 0.958 . S
C277 C276 1.582 . S
C277 O280 1.458 . S
C277 H306 0.980 . S
O278 C223 1.426 . S
O278 C224 1.334 . S
O279 C251 1.412 . S
O279 C252 1.393 . S
O280 C242 1.435 . S
O280 C277 1.458 . S
O281 C233 1.468 . S
O281 C234 1.408 . S
H282 C223 0.980 . S
H283 C222 0.959 . S
H284 C222 0.959 . S
H285 C222 0.960 . S
H286 C225 0.929 . S
H287 C229 0.929 . S
H288 C230 0.959 . S
H289 C230 0.961 . S
H290 C230 0.961 . S
H291 C231 0.960 . S
H292 C231 0.960 . S
H293 C231 0.961 . S
H294 C233 0.980 . S
H295 C232 0.961 . S
H296 C232 0.960 . S
H297 C232 0.959 . S
H298 C235 0.930 . S
H299 C239 0.931 . S
H300 C240 0.959 . S
H301 C240 0.961 . S
H302 C240 0.959 . S
H303 C241 0.960 . S
H304 C241 0.960 . S
H305 C241 0.960 . S
H306 C277 0.980 . S
H307 C243 0.930 . S
H308 C247 0.930 . S
H309 C248 0.961 . S
H310 C248 0.960 . S
H311 C248 0.958 . S
H312 C249 0.961 . S
H313 C249 0.960 . S
H314 C249 0.960 . S
H315 C251 0.980 . S
H316 C250 0.961 . S
H317 C250 0.961 . S
H318 C250 0.959 . S
H319 C253 0.932 . S
H320 C257 0.929 . S
H321 C258 0.961 . S
H322 C258 0.959 . S
H323 C258 0.959 . S
H324 C259 0.960 . S
H325 C259 0.962 . S
H326 C259 0.961 . S
H327 C261 0.929 . S
H328 C264 0.930 . S
H329 C265 0.929 . S
H330 C268 0.930 . S
H331 C271 0.929 . S
H332 C272 0.930 . S
H333 C276 0.962 . S
H334 C276 0.959 . S
H335 C276 0.958 . S
C336 C337 1.560 . S
C336 H397 0.959 . S
C336 H398 0.959 . S
C336 H399 0.960 . S
C337 C336 1.560 . S
C337 O392 1.426 . S
C337 H396 0.980 . S
C338 C339 1.407 . S
C338 C343 1.418 . S
C338 O392 1.334 . S
C339 C338 1.407 . S
C339 C340 1.360 . S
C339 H400 0.929 . S
C340 C339 1.360 . S
C340 C341 1.401 . S
C340 C344 1.527 . S
C341 C340 1.401 . S
C341 C342 1.405 . S
C341 C374 1.587 . S
C342 C341 1.405 . S
C342 C343 1.332 . S
C342 C345 1.496 . S
C343 C338 1.418 . S
C343 C342 1.332 . S
C343 H401 0.929 . S
C344 C340 1.527 . S
C344 H402 0.959 . S
C344 H403 0.961 . S
C344 H404 0.961 . S
C345 C342 1.496 . S
C345 H405 0.960 . S
C345 H406 0.960 . S
C345 H407 0.961 . S
C346 C347 1.517 . S
C346 H409 0.961 . S
C346 H410 0.960 . S
C346 H411 0.959 . S
C347 C346 1.517 . S
C347 O395 1.468 . S
C347 H408 0.980 . S
C348 C349 1.349 . S
C348 C353 1.367 . S
C348 O395 1.408 . S
C349 C348 1.349 . S
C349 C350 1.407 . S
C349 H412 0.930 . S
C350 C349 1.407 . S
C350 C351 1.449 . S
C350 C354 1.535 . S
C351 C350 1.449 . S
C351 C352 1.384 . S
C351 C376 1.553 . S
C352 C351 1.384 . S
C352 C353 1.364 . S
C352 C355 1.450 . S
C353 C348 1.367 . S
C353 C352 1.364 . S
C353 H413 0.931 . S
C354 C350 1.535 . S
C354 H414 0.959 . S
C354 H415 0.961 . S
C354 H416 0.959 . S
C355 C352 1.450 . S
C355 H417 0.960 . S
C355 H418 0.960 . S
C355 H419 0.960 . S
C356 C357 1.309 . S
C356 C361 1.304 . S
C356 O394 1.435 . S
C357 C356 1.309 . S
C357 C358 1.476 . S
C357 H421 0.930 . S
C358 C357 1.476 . S
C358 C359 1.400 . S
C358 C362 1.567 . S
C359 C358 1.400 . S
C359 C360 1.373 . S
C359 C381 1.432 . S
C360 C359 1.373 . S
C360 C361 1.339 . S
C360 C363 1.530 . S
C361 C356 1.304 . S
C361 C360 1.339 . S
C361 H422 0.930 . S
C362 C358 1.567 . S
C362 H423 0.961 . S
C362 H424 0.960 . S
C362 H425 0.958 . S
C363 C360 1.530 . S
C363 H426 0.961 . S
C363 H427 0.960 . S
C363 H428 0.960 . S
C364 C365 1.530 . S
C364 H430 0.961 . S
C364 H431 0.961 . S
C364 H432 0.959 . S
C365 C364 1.530 . S
C365 O393 1.412 . S
C365 H429 0.980 . S
C366 C367 1.288 . S
C366 C371 1.377 . S
C366 O393 1.393 . S
C367 C366 1.288 . S
C367 C368 1.369 . S
C367 H433 0.932 . S
C368 C367 1.369 . S
C368 C369 1.398 . S
C368 C372 1.527 . S
C369 C368 1.398 . S
C369 C370 1.380 . S
C369 C383 1.497 . S
C370 C369 1.380 . S
C370 C371 1.383 . S
C370 C373 1.603 . S
C371 C366 1.377 . S
C371 C370 1.383 . S
C371 H434 0.929 . S
C372 C368 1.527 . S
C372 H435 0.961 . S
C372 H436 0.959 . S
C372 H437 0.959 . S
C373 C370 1.603 . S
C373 H438 0.960 . S
C373 H439 0.962 . S
C373 H440 0.961 . S
C374 C341 1.587 . S
C374 C375 1.360 . S
C374 C387 1.412 . S
C375 C374 1.360 . S
C375 C376 1.365 . S
C375 H441 0.929 . S
C376 C351 1.553 . S
C376 C375 1.365 . S
C376 C377 1.404 . S
C377 C376 1.404 . S
C377 C378 1.395 . S
C377 C388 1.451 . S
C378 C377 1.395 . S
C378 C379 1.322 . S
C378 H442 0.930 . S
C379 C378 1.322 . S
C379 C380 1.459 . S
C379 H443 0.929 . S
C380 C379 1.459 . S
C380 C381 1.445 . S
C380 C389 1.395 . S
C381 C359 1.432 . S
C381 C380 1.445 . S
C381 C382 1.370 . S
C382 C381 1.370 . S
C382 C383 1.438 . S
C382 H444 0.930 . S
C383 C369 1.497 . S
C383 C382 1.438 . S
C383 C384 1.360 . S
C384 C383 1.360 . S
C384 C385 1.401 . S
C384 C389 1.446 . S
C385 C384 1.401 . S
C385 C386 1.347 . S
C385 H445 0.929 . S
C386 C385 1.347 . S
C386 C387 1.455 . S
C386 H446 0.930 . S
C387 C374 1.412 . S
C387 C386 1.455 . S
C387 C388 1.331 . S
C388 C377 1.451 . S
C388 C387 1.331 . S
C388 C389 1.497 . S
C389 C380 1.395 . S
C389 C384 1.446 . S
C389 C388 1.497 . S
C390 C391 1.582 . S
C390 H447 0.962 . S
C390 H448 0.959 . S
C390 H449 0.958 . S
C391 C390 1.582 . S
C391 O394 1.458 . S
C391 H420 0.980 . S
O392 C337 1.426 . S
O392 C338 1.334 . S
O393 C365 1.412 . S
O393 C366 1.393 . S
O394 C356 1.435 . S
O394 C391 1.458 . S
O395 C347 1.468 . S
O395 C348 1.408 . S
H396 C337 0.980 . S
H397 C336 0.959 . S
H398 C336 0.959 . S
H399 C336 0.960 . S
H400 C339 0.929 . S
H401 C343 0.929 . S
H402 C344 0.959 . S
H403 C344 0.961 . S
H404 C344 0.961 . S
H405 C345 0.960 . S
H406 C345 0.960 . S
H407 C345 0.961 . S
H408 C347 0.980 . S
H409 C346 0.961 . S
H410 C346 0.960 . S
H411 C346 0.959 . S
H412 C349 0.930 . S
H413 C353 0.931 . S
H414 C354 0.959 . S
H415 C354 0.961 . S
H416 C354 0.959 . S
H417 C355 0.960 . S
H418 C355 0.960 . S
H419 C355 0.960 . S
H420 C391 0.980 . S
H421 C357 0.930 . S
H422 C361 0.930 . S
H423 C362 0.961 . S
H424 C362 0.960 . S
H425 C362 0.958 . S
H426 C363 0.961 . S
H427 C363 0.960 . S
H428 C363 0.960 . S
H429 C365 0.980 . S
H430 C364 0.961 . S
H431 C364 0.961 . S
H432 C364 0.959 . S
H433 C367 0.932 . S
H434 C371 0.929 . S
H435 C372 0.961 . S
H436 C372 0.959 . S
H437 C372 0.959 . S
H438 C373 0.960 . S
H439 C373 0.962 . S
H440 C373 0.961 . S
H441 C375 0.929 . S
H442 C378 0.930 . S
H443 C379 0.929 . S
H444 C382 0.930 . S
H445 C385 0.929 . S
H446 C386 0.930 . S
H447 C390 0.962 . S
H448 C390 0.959 . S
H449 C390 0.958 . S
H450 C468 0.951 . S
H451 C470 0.951 . S
H452 C472 0.950 . S
H453 C473 0.950 . S
H454 C475 0.950 1_655 S
H455 C478 0.950 . S
H456 C479 0.950 . S
H457 C481 0.950 . S
H458 C482 0.950 . S
H459 C483 0.951 . S
H460 C485 0.951 . S
H461 C487 0.950 . S
H462 C488 0.950 . S
H463 C490 0.950 . S
H464 C493 0.950 . S
H465 C494 0.950 . S
H466 C496 0.950 . S
H467 C497 0.950 . S
C468 H450 0.951 . S
C468 C469 1.366 . S
C468 C470 1.388 . S
C469 C468 1.366 . S
C469 C473 1.385 . S
C470 H451 0.951 . S
C470 C468 1.388 . S
C470 C471 1.366 . S
C471 C470 1.366 . S
C471 C472 1.414 . S
C471 C474 1.499 . S
C472 H452 0.950 . S
C472 C471 1.414 . S
C472 C473 1.374 . S
C473 H453 0.950 . S
C473 C469 1.385 . S
C473 C472 1.374 . S
C474 C471 1.499 . S
C474 C475 1.373 . S
C474 C476 1.389 . S
C475 H454 0.950 1_455 S
C475 C474 1.373 . S
C475 C491 1.377 . S
C476 C474 1.389 . S
C476 C477 1.524 . S
C476 C490 1.377 . S
C477 C476 1.524 . S
C477 C478 1.397 . S
C477 C482 1.363 . S
C478 H455 0.950 . S
C478 C477 1.397 . S
C478 C479 1.334 . S
C479 H456 0.950 . S
C479 C478 1.334 . S
C479 C480 1.287 . S
C480 C479 1.287 . S
C480 C481 1.524 . S
C480 H499 0.913 . S
C481 H457 0.950 . S
C481 C480 1.524 . S
C481 C482 1.415 . S
C482 H458 0.950 . S
C482 C477 1.363 . S
C482 C481 1.415 . S
C483 H459 0.951 . S
C483 C484 1.366 . S
C483 C485 1.388 . S
C484 C483 1.366 . S
C484 C488 1.385 . S
C485 H460 0.951 . S
C485 C483 1.388 . S
C485 C486 1.366 . S
C486 C485 1.366 . S
C486 C487 1.414 . S
C486 C489 1.499 . S
C487 H461 0.950 . S
C487 C486 1.414 . S
C487 C488 1.374 . S
C488 H462 0.950 . S
C488 C484 1.385 . S
C488 C487 1.374 . S
C489 C486 1.499 . S
C489 C490 1.373 . S
C489 C491 1.389 . S
C490 H463 0.950 . S
C490 C476 1.377 . S
C490 C489 1.373 . S
C491 C475 1.377 . S
C491 C489 1.389 . S
C491 C492 1.524 1_455 S
C492 C491 1.524 1_655 S
C492 C493 1.397 . S
C492 C497 1.363 . S
C493 H464 0.950 . S
C493 C492 1.397 . S
C493 C494 1.334 . S
C494 H465 0.950 . S
C494 C493 1.334 . S
C494 C495 1.287 . S
C495 C494 1.287 . S
C495 C496 1.524 . S
C495 H498 0.999 . S
C496 H466 0.950 . S
C496 C495 1.524 . S
C496 C497 1.415 . S
C497 H467 0.950 . S
C497 C492 1.363 . S
C497 C496 1.415 . S
H498 C495 0.999 . S
H499 C480 0.913 . S
H500 C518 0.951 . S
H501 C520 0.951 . S
H502 C522 0.950 . S
H503 C523 0.950 . S
H504 C525 0.950 . S
H505 C528 0.950 . S
H506 C529 0.950 . S
H507 C531 0.950 . S
H508 C532 0.950 . S
H509 C533 0.951 . S
H510 C535 0.951 . S
H511 C537 0.950 . S
H512 C538 0.950 . S
H513 C540 0.950 . S
H514 C543 0.950 . S
H515 C544 0.950 . S
H516 C546 0.950 . S
H517 C547 0.950 . S
C518 H500 0.951 . S
C518 C519 1.366 . S
C518 C520 1.388 . S
C519 C518 1.366 . S
C519 C523 1.385 . S
C520 H501 0.951 . S
C520 C518 1.388 . S
C520 C521 1.366 . S
C521 C520 1.366 . S
C521 C522 1.414 . S
C521 C524 1.499 . S
C522 H502 0.950 . S
C522 C521 1.414 . S
C522 C523 1.374 . S
C523 H503 0.950 . S
C523 C519 1.385 . S
C523 C522 1.374 . S
C524 C521 1.499 . S
C524 C525 1.373 . S
C524 C526 1.389 . S
C525 H504 0.950 . S
C525 C524 1.373 . S
C525 C541 1.377 . S
C526 C524 1.389 . S
C526 C527 1.524 . S
C526 C540 1.377 . S
C527 C526 1.524 . S
C527 C528 1.397 . S
C527 C532 1.363 . S
C528 H505 0.950 . S
C528 C527 1.397 . S
C528 C529 1.334 . S
C529 H506 0.950 . S
C529 C528 1.334 . S
C529 C530 1.287 . S
C530 C529 1.287 . S
C530 C531 1.524 . S
C530 H549 0.913 . S
C531 H507 0.950 . S
C531 C530 1.524 . S
C531 C532 1.415 . S
C532 H508 0.950 . S
C532 C527 1.363 . S
C532 C531 1.415 . S
C533 H509 0.951 . S
C533 C534 1.366 . S
C533 C535 1.388 . S
C534 C533 1.366 . S
C534 C538 1.385 . S
C535 H510 0.951 . S
C535 C533 1.388 . S
C535 C536 1.366 . S
C536 C535 1.366 . S
C536 C537 1.414 . S
C536 C539 1.499 . S
C537 H511 0.950 . S
C537 C536 1.414 . S
C537 C538 1.374 . S
C538 H512 0.950 . S
C538 C534 1.385 . S
C538 C537 1.374 . S
C539 C536 1.499 . S
C539 C540 1.373 . S
C539 C541 1.389 . S
C540 H513 0.950 . S
C540 C526 1.377 . S
C540 C539 1.373 . S
C541 C525 1.377 . S
C541 C539 1.389 . S
C541 C542 1.524 . S
C542 C541 1.524 . S
C542 C543 1.397 . S
C542 C547 1.363 . S
C543 H514 0.950 . S
C543 C542 1.397 . S
C543 C544 1.334 1_545 S
C544 H515 0.950 . S
C544 C543 1.334 1_565 S
C544 C545 1.287 . S
C545 C544 1.287 . S
C545 C546 1.524 . S
C545 H548 0.999 . S
C546 H516 0.950 . S
C546 C545 1.524 . S
C546 C547 1.415 1_565 S
C547 H517 0.950 . S
C547 C542 1.363 . S
C547 C546 1.415 1_545 S
H548 C545 0.999 . S
H549 C530 0.913 . S
H550 C568 0.951 . S
H551 C570 0.951 1_545 S
H552 C572 0.950 . S
H553 C573 0.950 . S
H554 C575 0.950 . S
H555 C578 0.950 . S
H556 C579 0.950 1_455 S
H557 C581 0.948 . S
H558 C582 0.950 . S
H559 C583 0.951 . S
H560 C585 0.951 . S
H561 C587 0.950 . S
H562 C588 0.950 . S
H563 C590 0.950 . S
H564 C593 0.950 . S
H565 C594 0.950 . S
H566 C596 0.950 . S
H567 C597 0.950 . S
C568 H550 0.951 . S
C568 C569 1.366 . S
C568 C570 1.388 1_545 S
C569 C568 1.366 . S
C569 C573 1.385 1_545 S
C570 H551 0.951 1_565 S
C570 C568 1.388 1_565 S
C570 C571 1.366 . S
C571 C570 1.366 . S
C571 C572 1.414 . S
C571 C574 1.499 . S
C572 H552 0.950 . S
C572 C571 1.414 . S
C572 C573 1.374 . S
C573 H553 0.950 . S
C573 C569 1.385 1_565 S
C573 C572 1.374 . S
C574 C571 1.499 . S
C574 C575 1.373 . S
C574 C576 1.389 . S
C575 H554 0.950 . S
C575 C574 1.373 . S
C575 C591 1.377 . S
C576 C574 1.389 . S
C576 C577 1.524 . S
C576 C590 1.377 . S
C577 C576 1.524 . S
C577 C578 1.397 . S
C577 C582 1.363 . S
C578 H555 0.950 . S
C578 C577 1.397 . S
C578 C579 1.334 . S
C579 H556 0.950 1_655 S
C579 C578 1.334 . S
C579 C580 1.287 1_655 S
C580 C579 1.287 1_455 S
C580 C581 1.524 1_455 S
C580 H599 0.913 . S
C581 H557 0.948 . S
C581 C580 1.524 1_655 S
C581 C582 1.415 . S
C582 H558 0.950 . S
C582 C577 1.363 . S
C582 C581 1.415 . S
C583 H559 0.951 . S
C583 C584 1.366 . S
C583 C585 1.388 . S
C584 C583 1.366 . S
C584 C588 1.385 . S
C585 H560 0.951 . S
C585 C583 1.388 . S
C585 C586 1.366 . S
C586 C585 1.366 . S
C586 C587 1.414 . S
C586 C589 1.499 . S
C587 H561 0.950 . S
C587 C586 1.414 . S
C587 C588 1.374 . S
C588 H562 0.950 . S
C588 C584 1.385 . S
C588 C587 1.374 . S
C589 C586 1.499 . S
C589 C590 1.373 . S
C589 C591 1.389 . S
C590 H563 0.950 . S
C590 C576 1.377 . S
C590 C589 1.373 . S
C591 C575 1.377 . S
C591 C589 1.389 . S
C591 C592 1.524 . S
C592 C591 1.524 . S
C592 C593 1.397 . S
C592 C597 1.363 . S
C593 H564 0.950 . S
C593 C592 1.397 . S
C593 C594 1.334 . S
C594 H565 0.950 . S
C594 C593 1.334 . S
C594 C595 1.287 . S
C595 C594 1.287 . S
C595 C596 1.524 . S
C595 H598 0.999 . S
C596 H566 0.950 . S
C596 C595 1.524 . S
C596 C597 1.415 . S
C597 H567 0.950 . S
C597 C592 1.363 . S
C597 C596 1.415 . S
H598 C595 0.999 . S
H599 C580 0.913 . S
H600 C618 0.951 . S
H601 C620 0.951 . S
H602 C622 0.950 . S
H603 C623 0.950 . S
H604 C625 0.950 . S
H605 C628 0.950 1_655 S
H606 C629 0.950 . S
H607 C631 0.950 . S
H608 C632 0.950 . S
H609 C633 0.951 . S
H610 C635 0.951 . S
H611 C637 0.950 . S
H612 C638 0.950 . S
H613 C640 0.950 . S
H614 C643 0.950 . S
H615 C644 0.950 . S
H616 C646 0.950 . S
H617 C647 0.950 . S
C618 H600 0.951 . S
C618 C619 1.366 1_565 S
C618 C620 1.388 . S
C619 C618 1.366 1_545 S
C619 C623 1.385 . S
C620 H601 0.951 . S
C620 C618 1.388 . S
C620 C621 1.366 . S
C621 C620 1.366 . S
C621 C622 1.414 . S
C621 C624 1.499 . S
C622 H602 0.950 . S
C622 C621 1.414 . S
C622 C623 1.374 1_565 S
C623 H603 0.950 . S
C623 C619 1.385 . S
C623 C622 1.374 1_545 S
C624 C621 1.499 . S
C624 C625 1.373 . S
C624 C626 1.389 . S
C625 H604 0.950 . S
C625 C624 1.373 . S
C625 C641 1.377 . S
C626 C624 1.389 . S
C626 C627 1.524 . S
C626 C640 1.377 . S
C627 C626 1.524 . S
C627 C628 1.397 . S
C627 C632 1.363 . S
C628 H605 0.950 1_455 S
C628 C627 1.397 . S
C628 C629 1.334 1_455 S
C629 H606 0.950 . S
C629 C628 1.334 1_655 S
C629 C630 1.274 1_655 S
C630 C629 1.274 1_455 S
C630 C631 1.541 . S
C630 H649 0.910 1_455 S
C631 H607 0.950 . S
C631 C630 1.541 . S
C631 C632 1.415 . S
C632 H608 0.950 . S
C632 C627 1.363 . S
C632 C631 1.415 . S
C633 H609 0.951 . S
C633 C634 1.366 . S
C633 C635 1.388 . S
C634 C633 1.366 . S
C634 C638 1.385 . S
C635 H610 0.951 . S
C635 C633 1.388 . S
C635 C636 1.366 . S
C636 C635 1.366 . S
C636 C637 1.414 . S
C636 C639 1.499 . S
C637 H611 0.950 . S
C637 C636 1.414 . S
C637 C638 1.374 . S
C638 H612 0.950 . S
C638 C634 1.385 . S
C638 C637 1.374 . S
C639 C636 1.499 . S
C639 C640 1.373 . S
C639 C641 1.389 . S
C640 H613 0.950 . S
C640 C626 1.377 . S
C640 C639 1.373 . S
C641 C625 1.377 . S
C641 C639 1.389 . S
C641 C642 1.524 . S
C642 C641 1.524 . S
C642 C643 1.397 . S
C642 C647 1.363 . S
C643 H614 0.950 . S
C643 C642 1.397 . S
C643 C644 1.334 . S
C644 H615 0.950 . S
C644 C643 1.334 . S
C644 C645 1.287 . S
C645 C644 1.287 . S
C645 C646 1.524 . S
C645 H648 0.999 . S
C646 H616 0.950 . S
C646 C645 1.524 . S
C646 C647 1.415 . S
C647 H617 0.950 . S
C647 C642 1.363 . S
C647 C646 1.415 . S
H648 C645 0.999 . S
H649 C630 0.910 1_655 S
H650 C668 0.951 . S
H651 C670 0.951 . S
H652 C672 0.950 . S
H653 C673 0.950 . S
H654 C675 0.950 . S
H655 C678 0.950 . S
H656 C679 0.950 . S
H657 C681 0.950 . S
H658 C682 0.950 . S
H659 C683 0.951 . S
H660 C685 0.951 . S
H661 C687 0.950 . S
H662 C688 0.950 . S
H663 C690 0.950 . S
H664 C693 0.950 . S
H665 C694 0.950 . S
H666 C696 0.950 . S
H667 C697 0.950 . S
C668 H650 0.951 . S
C668 C669 1.366 . S
C668 C670 1.388 . S
C669 C668 1.366 . S
C669 C673 1.385 . S
C670 H651 0.951 . S
C670 C668 1.388 . S
C670 C671 1.366 . S
C671 C670 1.366 . S
C671 C672 1.414 . S
C671 C674 1.499 . S
C672 H652 0.950 . S
C672 C671 1.414 . S
C672 C673 1.374 . S
C673 H653 0.950 . S
C673 C669 1.385 . S
C673 C672 1.374 . S
C674 C671 1.499 . S
C674 C675 1.373 . S
C674 C676 1.389 . S
C675 H654 0.950 . S
C675 C674 1.373 . S
C675 C691 1.377 . S
C676 C674 1.389 . S
C676 C677 1.524 . S
C676 C690 1.377 . S
C677 C676 1.524 . S
C677 C678 1.397 . S
C677 C682 1.363 . S
C678 H655 0.950 . S
C678 C677 1.397 . S
C678 C679 1.334 . S
C679 H656 0.950 . S
C679 C678 1.334 . S
C679 C680 1.287 . S
C680 C679 1.287 . S
C680 C681 1.524 . S
C680 H699 0.913 . S
C681 H657 0.950 . S
C681 C680 1.524 . S
C681 C682 1.415 . S
C682 H658 0.950 . S
C682 C677 1.363 . S
C682 C681 1.415 . S
C683 H659 0.951 . S
C683 C684 1.366 . S
C683 C685 1.388 . S
C684 C683 1.366 . S
C684 C688 1.385 . S
C685 H660 0.951 . S
C685 C683 1.388 . S
C685 C686 1.366 . S
C686 C685 1.366 . S
C686 C687 1.414 . S
C686 C689 1.499 . S
C687 H661 0.950 . S
C687 C686 1.414 . S
C687 C688 1.374 . S
C688 H662 0.950 . S
C688 C684 1.385 . S
C688 C687 1.374 . S
C689 C686 1.499 . S
C689 C690 1.373 . S
C689 C691 1.389 . S
C690 H663 0.950 . S
C690 C676 1.377 . S
C690 C689 1.373 . S
C691 C675 1.377 . S
C691 C689 1.389 . S
C691 C692 1.524 . S
C692 C691 1.524 . S
C692 C693 1.397 . S
C692 C697 1.363 . S
C693 H664 0.950 . S
C693 C692 1.397 . S
C693 C694 1.334 . S
C694 H665 0.950 . S
C694 C693 1.334 . S
C694 C695 1.287 . S
C695 C694 1.287 . S
C695 C696 1.524 . S
C695 H698 0.999 . S
C696 H666 0.950 . S
C696 C695 1.524 . S
C696 C697 1.415 . S
C697 H667 0.950 . S
C697 C692 1.363 . S
C697 C696 1.415 . S
H698 C695 0.999 . S
H699 C680 0.913 . S
H700 C718 0.951 . S
H701 C720 0.951 . S
H702 C722 0.950 . S
H703 C723 0.950 . S
H704 C725 0.950 . S
H705 C728 0.950 . S
H706 C729 0.950 . S
H707 C731 0.950 . S
H708 C732 0.950 . S
H709 C733 0.951 . S
H710 C735 0.951 . S
H711 C737 0.950 . S
H712 C738 0.950 . S
H713 C740 0.950 . S
H714 C743 0.950 . S
H715 C744 0.950 . S
H716 C746 0.950 . S
H717 C747 0.950 . S
C718 H700 0.951 . S
C718 C719 1.366 . S
C718 C720 1.388 . S
C719 C718 1.366 . S
C719 C723 1.385 . S
C720 H701 0.951 . S
C720 C718 1.388 . S
C720 C721 1.366 . S
C721 C720 1.366 . S
C721 C722 1.414 . S
C721 C724 1.499 . S
C722 H702 0.950 . S
C722 C721 1.414 . S
C722 C723 1.374 . S
C723 H703 0.950 . S
C723 C719 1.385 . S
C723 C722 1.374 . S
C724 C721 1.499 . S
C724 C725 1.373 . S
C724 C726 1.389 . S
C725 H704 0.950 . S
C725 C724 1.373 . S
C725 C741 1.377 . S
C726 C724 1.389 . S
C726 C727 1.524 . S
C726 C740 1.377 . S
C727 C726 1.524 . S
C727 C728 1.397 . S
C727 C732 1.363 . S
C728 H705 0.950 . S
C728 C727 1.397 . S
C728 C729 1.334 . S
C729 H706 0.950 . S
C729 C728 1.334 . S
C729 C730 1.287 . S
C730 C729 1.287 . S
C730 C731 1.524 . S
C730 H749 0.913 . S
C731 H707 0.950 . S
C731 C730 1.524 . S
C731 C732 1.415 . S
C732 H708 0.950 . S
C732 C727 1.363 . S
C732 C731 1.415 . S
C733 H709 0.951 . S
C733 C734 1.366 . S
C733 C735 1.388 . S
C734 C733 1.366 . S
C734 C738 1.385 . S
C735 H710 0.951 . S
C735 C733 1.388 . S
C735 C736 1.366 . S
C736 C735 1.366 . S
C736 C737 1.414 . S
C736 C739 1.499 . S
C737 H711 0.950 . S
C737 C736 1.414 . S
C737 C738 1.374 . S
C738 H712 0.950 . S
C738 C734 1.385 . S
C738 C737 1.374 . S
C739 C736 1.499 . S
C739 C740 1.373 . S
C739 C741 1.389 . S
C740 H713 0.950 . S
C740 C726 1.377 . S
C740 C739 1.373 . S
C741 C725 1.377 . S
C741 C739 1.389 . S
C741 C742 1.524 . S
C742 C741 1.524 . S
C742 C743 1.397 . S
C742 C747 1.363 . S
C743 H714 0.950 . S
C743 C742 1.397 . S
C743 C744 1.334 . S
C744 H715 0.950 . S
C744 C743 1.334 . S
C744 C745 1.287 . S
C745 C744 1.287 . S
C745 C746 1.524 . S
C745 H748 0.999 . S
C746 H716 0.950 . S
C746 C745 1.524 . S
C746 C747 1.415 . S
C747 H717 0.950 . S
C747 C742 1.363 . S
C747 C746 1.415 . S
H748 C745 0.999 . S
H749 C730 0.913 . S
H750 C768 0.951 . S
H751 C770 0.951 . S
H752 C772 0.950 . S
H753 C773 0.950 . S
H754 C775 0.950 . S
H755 C778 0.950 . S
H756 C779 0.950 1_455 S
H757 C781 0.950 . S
H758 C782 0.950 . S
H759 C783 0.951 . S
H760 C785 0.951 . S
H761 C787 0.950 . S
H762 C788 0.950 . S
H763 C790 0.950 . S
H764 C793 0.950 . S
H765 C794 0.950 . S
H766 C796 0.950 . S
H767 C797 0.950 . S
C768 H750 0.951 . S
C768 C769 1.366 . S
C768 C770 1.388 . S
C769 C768 1.366 . S
C769 C773 1.385 . S
C770 H751 0.951 . S
C770 C768 1.388 . S
C770 C771 1.366 . S
C771 C770 1.366 . S
C771 C772 1.414 . S
C771 C774 1.499 . S
C772 H752 0.950 . S
C772 C771 1.414 . S
C772 C773 1.374 . S
C773 H753 0.950 . S
C773 C769 1.385 . S
C773 C772 1.374 . S
C774 C771 1.499 . S
C774 C775 1.373 . S
C774 C776 1.389 . S
C775 H754 0.950 . S
C775 C774 1.373 . S
C775 C791 1.377 . S
C776 C774 1.389 . S
C776 C777 1.524 . S
C776 C790 1.377 . S
C777 C776 1.524 . S
C777 C778 1.397 . S
C777 C782 1.363 . S
C778 H755 0.950 . S
C778 C777 1.397 . S
C778 C779 1.334 . S
C779 H756 0.950 1_655 S
C779 C778 1.334 . S
C779 C780 1.287 . S
C780 C779 1.287 . S
C780 C781 1.524 . S
C780 H799 0.913 . S
C781 H757 0.950 . S
C781 C780 1.524 . S
C781 C782 1.415 . S
C782 H758 0.950 . S
C782 C777 1.363 . S
C782 C781 1.415 . S
C783 H759 0.951 . S
C783 C784 1.366 . S
C783 C785 1.388 . S
C784 C783 1.366 . S
C784 C788 1.385 . S
C785 H760 0.951 . S
C785 C783 1.388 . S
C785 C786 1.366 . S
C786 C785 1.366 . S
C786 C787 1.414 . S
C786 C789 1.499 . S
C787 H761 0.950 . S
C787 C786 1.414 . S
C787 C788 1.374 . S
C788 H762 0.950 . S
C788 C784 1.385 . S
C788 C787 1.374 . S
C789 C786 1.499 . S
C789 C790 1.373 . S
C789 C791 1.389 . S
C790 H763 0.950 . S
C790 C776 1.377 . S
C790 C789 1.373 . S
C791 C775 1.377 . S
C791 C789 1.389 . S
C791 C792 1.524 . S
C792 C791 1.524 . S
C792 C793 1.397 . S
C792 C797 1.363 . S
C793 H764 0.950 . S
C793 C792 1.397 . S
C793 C794 1.334 . S
C794 H765 0.950 . S
C794 C793 1.334 . S
C794 C795 1.287 . S
C795 C794 1.287 . S
C795 C796 1.524 . S
C795 H798 0.999 . S
C796 H766 0.950 . S
C796 C795 1.524 . S
C796 C797 1.415 . S
C797 H767 0.950 . S
C797 C792 1.363 . S
C797 C796 1.415 . S
H798 C795 0.999 . S
H799 C780 0.913 . S
H800 C818 0.951 1_455 S
H801 C820 0.951 . S
H802 C822 0.950 . S
H803 C823 0.951 . S
H804 C825 0.950 . S
H805 C828 0.950 . S
H806 C829 0.950 . S
H807 C831 0.950 . S
H808 C832 0.950 1_565 S
H809 C833 0.951 . S
H810 C835 0.951 . S
H811 C837 0.950 . S
H812 C838 0.950 . S
H813 C840 0.950 1_556 S
H814 C843 0.950 . S
H815 C844 0.950 . S
H816 C846 0.950 . S
H817 C847 0.950 . S
C818 H800 0.951 1_655 S
C818 C819 1.366 . S
C818 C820 1.388 1_545 S
C819 C818 1.366 . S
C819 C823 1.385 1_545 S
C820 H801 0.951 . S
C820 C818 1.388 1_565 S
C820 C821 1.366 . S
C821 C820 1.366 . S
C821 C822 1.414 . S
C821 C824 1.499 . S
C822 H802 0.950 . S
C822 C821 1.414 . S
C822 C823 1.374 . S
C823 H803 0.951 . S
C823 C819 1.385 1_565 S
C823 C822 1.374 . S
C824 C821 1.499 . S
C824 C825 1.373 . S
C824 C826 1.389 . S
C825 H804 0.950 . S
C825 C824 1.373 . S
C825 C841 1.377 . S
C826 C824 1.389 . S
C826 C827 1.524 . S
C826 C840 1.377 . S
C827 C826 1.524 . S
C827 C828 1.397 1_565 S
C827 C832 1.363 1_564 S
C828 H805 0.950 . S
C828 C827 1.397 1_545 S
C828 C829 1.334 . S
C829 H806 0.950 . S
C829 C828 1.334 . S
C829 C830 1.352 . S
C830 C829 1.352 . S
C830 C831 1.478 1_554 S
C830 H849 0.897 1_554 S
C831 H807 0.950 . S
C831 C830 1.478 1_556 S
C831 C832 1.415 . S
C832 H808 0.950 1_545 S
C832 C827 1.363 1_546 S
C832 C831 1.415 . S
C833 H809 0.951 . S
C833 C834 1.366 . S
C833 C835 1.388 1_556 S
C834 C833 1.366 . S
C834 C838 1.385 . S
C835 H810 0.951 . S
C835 C833 1.388 1_554 S
C835 C836 1.366 1_554 S
C836 C835 1.366 1_556 S
C836 C837 1.414 . S
C836 C839 1.499 1_556 S
C837 H811 0.950 . S
C837 C836 1.414 . S
C837 C838 1.374 . S
C838 H812 0.950 . S
C838 C834 1.385 . S
C838 C837 1.374 . S
C839 C836 1.499 1_554 S
C839 C840 1.373 . S
C839 C841 1.389 . S
C840 H813 0.950 1_554 S
C840 C826 1.377 . S
C840 C839 1.373 . S
C841 C825 1.377 . S
C841 C839 1.389 . S
C841 C842 1.524 . S
C842 C841 1.524 . S
C842 C843 1.397 . S
C842 C847 1.363 . S
C843 H814 0.950 . S
C843 C842 1.397 . S
C843 C844 1.334 . S
C844 H815 0.950 . S
C844 C843 1.334 . S
C844 C845 1.287 . S
C845 C844 1.287 . S
C845 C846 1.524 . S
C845 H848 0.999 . S
C846 H816 0.950 . S
C846 C845 1.524 . S
C846 C847 1.415 . S
C847 H817 0.950 . S
C847 C842 1.363 . S
C847 C846 1.415 . S
H848 C845 0.999 . S
H849 C830 0.897 1_556 S
H850 C868 0.951 1_655 S
H851 C870 0.951 1_655 S
H852 C872 0.950 . S
H853 C873 0.950 . S
H854 C875 0.950 . S
H855 C878 0.950 . S
H856 C879 0.950 . S
H857 C881 0.950 . S
H858 C882 0.950 . S
H859 C883 0.951 . S
H860 C885 0.951 . S
H861 C887 0.950 1_655 S
H862 C888 0.950 1_655 S
H863 C890 0.950 . S
H864 C893 0.950 . S
H865 C894 0.950 . S
H866 C896 0.950 1_455 S
H867 C897 0.950 . S
C868 H850 0.951 1_455 S
C868 C869 1.366 1_565 S
C868 C870 1.388 . S
C869 C868 1.366 1_545 S
C869 C873 1.385 . S
C870 H851 0.951 1_455 S
C870 C868 1.388 . S
C870 C871 1.366 . S
C871 C870 1.366 . S
C871 C872 1.414 . S
C871 C874 1.499 . S
C872 H852 0.950 . S
C872 C871 1.414 . S
C872 C873 1.374 1_565 S
C873 H853 0.950 . S
C873 C869 1.385 . S
C873 C872 1.374 1_545 S
C874 C871 1.499 . S
C874 C875 1.373 . S
C874 C876 1.389 . S
C875 H854 0.950 . S
C875 C874 1.373 . S
C875 C891 1.377 . S
C876 C874 1.389 . S
C876 C877 1.524 . S
C876 C890 1.377 . S
C877 C876 1.524 . S
C877 C878 1.397 . S
C877 C882 1.363 . S
C878 H855 0.950 . S
C878 C877 1.397 . S
C878 C879 1.334 . S
C879 H856 0.950 . S
C879 C878 1.334 . S
C879 C880 1.287 . S
C880 C879 1.287 . S
C880 C881 1.524 . S
C880 H899 0.913 . S
C881 H857 0.950 . S
C881 C880 1.524 . S
C881 C882 1.415 . S
C882 H858 0.950 . S
C882 C877 1.363 . S
C882 C881 1.415 . S
C883 H859 0.951 . S
C883 C884 1.366 . S
C883 C885 1.388 . S
C884 C883 1.366 . S
C884 C888 1.385 . S
C885 H860 0.951 . S
C885 C883 1.388 . S
C885 C886 1.366 . S
C886 C885 1.366 . S
C886 C887 1.414 . S
C886 C889 1.499 . S
C887 H861 0.950 1_455 S
C887 C886 1.414 . S
C887 C888 1.374 . S
C888 H862 0.950 1_455 S
C888 C884 1.385 . S
C888 C887 1.374 . S
C889 C886 1.499 . S
C889 C890 1.373 . S
C889 C891 1.389 . S
C890 H863 0.950 . S
C890 C876 1.377 . S
C890 C889 1.373 . S
C891 C875 1.377 . S
C891 C889 1.389 . S
C891 C892 1.524 1_455 S
C892 C891 1.524 1_655 S
C892 C893 1.397 . S
C892 C897 1.363 1_655 S
C893 H864 0.950 . S
C893 C892 1.397 . S
C893 C894 1.334 . S
C894 H865 0.950 . S
C894 C893 1.334 . S
C894 C895 1.287 . S
C895 C894 1.287 . S
C895 C896 1.524 . S
C895 H898 0.999 . S
C896 H866 0.950 1_655 S
C896 C895 1.524 . S
C896 C897 1.415 1_655 S
C897 H867 0.950 . S
C897 C892 1.363 1_455 S
C897 C896 1.415 1_455 S
H898 C895 0.999 . S
H899 C880 0.913 . S
H900 C918 0.951 . S
H901 C920 0.951 . S
H902 C922 0.950 . S
H903 C923 0.950 . S
H904 C925 0.950 . S
H905 C928 0.950 . S
H906 C929 0.950 . S
H907 C931 0.950 . S
H908 C932 0.950 . S
H909 C933 0.951 . S
H910 C935 0.951 . S
H911 C937 0.950 . S
H912 C938 0.950 . S
H913 C940 0.950 . S
H914 C943 0.950 . S
H915 C944 0.950 . S
H916 C946 0.950 . S
H917 C947 0.950 . S
C918 H900 0.951 . S
C918 C919 1.366 . S
C918 C920 1.388 . S
C919 C918 1.366 . S
C919 C923 1.385 . S
C920 H901 0.951 . S
C920 C918 1.388 . S
C920 C921 1.366 . S
C921 C920 1.366 . S
C921 C922 1.414 . S
C921 C924 1.499 . S
C922 H902 0.950 . S
C922 C921 1.414 . S
C922 C923 1.374 . S
C923 H903 0.950 . S
C923 C919 1.385 . S
C923 C922 1.374 . S
C924 C921 1.499 . S
C924 C925 1.373 . S
C924 C926 1.389 . S
C925 H904 0.950 . S
C925 C924 1.373 . S
C925 C941 1.377 . S
C926 C924 1.389 . S
C926 C927 1.524 . S
C926 C940 1.377 . S
C927 C926 1.524 . S
C927 C928 1.397 . S
C927 C932 1.363 . S
C928 H905 0.950 . S
C928 C927 1.397 . S
C928 C929 1.334 . S
C929 H906 0.950 . S
C929 C928 1.334 . S
C929 C930 1.287 . S
C930 C929 1.287 . S
C930 C931 1.524 . S
C930 H949 0.913 . S
C931 H907 0.950 . S
C931 C930 1.524 . S
C931 C932 1.415 . S
C932 H908 0.950 . S
C932 C927 1.363 . S
C932 C931 1.415 . S
C933 H909 0.951 . S
C933 C934 1.366 . S
C933 C935 1.388 . S
C934 C933 1.366 . S
C934 C938 1.385 . S
C935 H910 0.951 . S
C935 C933 1.388 . S
C935 C936 1.366 . S
C936 C935 1.366 . S
C936 C937 1.414 . S
C936 C939 1.499 . S
C937 H911 0.950 . S
C937 C936 1.414 . S
C937 C938 1.374 . S
C938 H912 0.950 . S
C938 C934 1.385 . S
C938 C937 1.374 . S
C939 C936 1.499 . S
C939 C940 1.373 . S
C939 C941 1.389 . S
C940 H913 0.950 . S
C940 C926 1.377 . S
C940 C939 1.373 . S
C941 C925 1.377 . S
C941 C939 1.389 . S
C941 C942 1.524 . S
C942 C941 1.524 . S
C942 C943 1.397 . S
C942 C947 1.363 1_545 S
C943 H914 0.950 . S
C943 C942 1.397 . S
C943 C944 1.334 1_545 S
C944 H915 0.950 . S
C944 C943 1.334 1_565 S
C944 C945 1.287 . S
C945 C944 1.287 . S
C945 C946 1.524 . S
C945 H948 0.999 . S
C946 H916 0.950 . S
C946 C945 1.524 . S
C946 C947 1.415 . S
C947 H917 0.950 . S
C947 C942 1.363 1_565 S
C947 C946 1.415 . S
H948 C945 0.999 . S
H949 C930 0.913 . S
H950 C968 0.951 . S
H951 C970 0.951 . S
H952 C972 0.950 . S
H953 C973 0.950 . S
H954 C975 0.950 . S
H955 C978 0.950 . S
H956 C979 0.950 . S
H957 C981 0.950 . S
H958 C982 0.950 . S
H959 C983 0.951 . S
H960 C985 0.951 . S
H961 C987 0.950 1_554 S
H962 C988 0.950 . S
H963 C990 0.950 . S
H964 C993 0.950 . S
H965 C994 0.950 . S
H966 C996 0.950 . S
H967 C997 0.950 . S
C968 H950 0.951 . S
C968 C969 1.366 . S
C968 C970 1.388 . S
C969 C968 1.366 . S
C969 C973 1.385 . S
C970 H951 0.951 . S
C970 C968 1.388 . S
C970 C971 1.366 . S
C971 C970 1.366 . S
C971 C972 1.414 . S
C971 C974 1.499 . S
C972 H952 0.950 . S
C972 C971 1.414 . S
C972 C973 1.374 . S
C973 H953 0.950 . S
C973 C969 1.385 . S
C973 C972 1.374 . S
C974 C971 1.499 . S
C974 C975 1.373 . S
C974 C976 1.389 . S
C975 H954 0.950 . S
C975 C974 1.373 . S
C975 C991 1.377 . S
C976 C974 1.389 . S
C976 C977 1.524 . S
C976 C990 1.377 . S
C977 C976 1.524 . S
C977 C978 1.397 . S
C977 C982 1.363 . S
C978 H955 0.950 . S
C978 C977 1.397 . S
C978 C979 1.334 . S
C979 H956 0.950 . S
C979 C978 1.334 . S
C979 C980 1.287 . S
C980 C979 1.287 . S
C980 C981 1.524 . S
C980 H999 0.913 . S
C981 H957 0.950 . S
C981 C980 1.524 . S
C981 C982 1.415 . S
C982 H958 0.950 . S
C982 C977 1.363 . S
C982 C981 1.415 . S
C983 H959 0.951 . S
C983 C984 1.366 . S
C983 C985 1.388 . S
C984 C983 1.366 . S
C984 C988 1.385 . S
C985 H960 0.951 . S
C985 C983 1.388 . S
C985 C986 1.366 . S
C986 C985 1.366 . S
C986 C987 1.414 . S
C986 C989 1.499 1_556 S
C987 H961 0.950 1_556 S
C987 C986 1.414 . S
C987 C988 1.374 . S
C988 H962 0.950 . S
C988 C984 1.385 . S
C988 C987 1.374 . S
C989 C986 1.499 1_554 S
C989 C990 1.373 . S
C989 C991 1.389 . S
C990 H963 0.950 . S
C990 C976 1.377 . S
C990 C989 1.373 . S
C991 C975 1.377 . S
C991 C989 1.389 . S
C991 C992 1.524 1_554 S
C992 C991 1.524 1_556 S
C992 C993 1.397 . S
C992 C997 1.363 . S
C993 H964 0.950 . S
C993 C992 1.397 . S
C993 C994 1.334 . S
C994 H965 0.950 . S
C994 C993 1.334 . S
C994 C995 1.287 . S
C995 C994 1.287 . S
C995 C996 1.524 . S
C995 H998 0.999 . S
C996 H966 0.950 . S
C996 C995 1.524 . S
C996 C997 1.415 . S
C997 H967 0.950 . S
C997 C992 1.363 . S
C997 C996 1.415 . S
H998 C995 0.999 . S
H999 C980 0.913 . S
H1000 C1018 0.951 . S
H1001 C1020 0.951 . S
H1002 C1022 0.950 . S
H1003 C1023 0.950 . S
H1004 C1025 0.950 . S
H1005 C1028 0.950 . S
H1006 C1029 0.950 . S
H1007 C1031 0.950 . S
H1008 C1032 0.950 . S
H1009 C1033 0.951 . S
H1010 C1035 0.951 . S
H1011 C1037 0.950 . S
H1012 C1038 0.950 . S
H1013 C1040 0.950 1_655 S
H1014 C1043 0.950 . S
H1015 C1044 0.950 . S
H1016 C1046 0.950 . S
H1017 C1047 0.950 . S
C1018 H1000 0.951 . S
C1018 C1019 1.366 . S
C1018 C1020 1.388 . S
C1019 C1018 1.366 . S
C1019 C1023 1.385 . S
C1020 H1001 0.951 . S
C1020 C1018 1.388 . S
C1020 C1021 1.366 . S
C1021 C1020 1.366 . S
C1021 C1022 1.414 . S
C1021 C1024 1.499 . S
C1022 H1002 0.950 . S
C1022 C1021 1.414 . S
C1022 C1023 1.374 . S
C1023 H1003 0.950 . S
C1023 C1019 1.385 . S
C1023 C1022 1.374 . S
C1024 C1021 1.499 . S
C1024 C1025 1.373 . S
C1024 C1026 1.389 . S
C1025 H1004 0.950 . S
C1025 C1024 1.373 . S
C1025 C1041 1.377 . S
C1026 C1024 1.389 . S
C1026 C1027 1.524 1_455 S
C1026 C1040 1.377 . S
C1027 C1026 1.524 1_655 S
C1027 C1028 1.397 . S
C1027 C1032 1.363 . S
C1028 H1005 0.950 . S
C1028 C1027 1.397 . S
C1028 C1029 1.334 . S
C1029 H1006 0.950 . S
C1029 C1028 1.334 . S
C1029 C1030 1.287 . S
C1030 C1029 1.287 . S
C1030 C1031 1.524 . S
C1030 H1049 0.913 . S
C1031 H1007 0.950 . S
C1031 C1030 1.524 . S
C1031 C1032 1.415 . S
C1032 H1008 0.950 . S
C1032 C1027 1.363 . S
C1032 C1031 1.415 . S
C1033 H1009 0.951 . S
C1033 C1034 1.366 . S
C1033 C1035 1.388 . S
C1034 C1033 1.366 . S
C1034 C1038 1.385 . S
C1035 H1010 0.951 . S
C1035 C1033 1.388 . S
C1035 C1036 1.366 . S
C1036 C1035 1.366 . S
C1036 C1037 1.414 . S
C1036 C1039 1.499 . S
C1037 H1011 0.950 . S
C1037 C1036 1.414 . S
C1037 C1038 1.374 . S
C1038 H1012 0.950 . S
C1038 C1034 1.385 . S
C1038 C1037 1.374 . S
C1039 C1036 1.499 . S
C1039 C1040 1.373 . S
C1039 C1041 1.389 . S
C1040 H1013 0.950 1_455 S
C1040 C1026 1.377 . S
C1040 C1039 1.373 . S
C1041 C1025 1.377 . S
C1041 C1039 1.389 . S
C1041 C1042 1.524 . S
C1042 C1041 1.524 . S
C1042 C1043 1.397 . S
C1042 C1047 1.363 . S
C1043 H1014 0.950 . S
C1043 C1042 1.397 . S
C1043 C1044 1.334 . S
C1044 H1015 0.950 . S
C1044 C1043 1.334 . S
C1044 C1045 1.287 . S
C1045 C1044 1.287 . S
C1045 C1046 1.524 . S
C1045 H1048 0.999 . S
C1046 H1016 0.950 . S
C1046 C1045 1.524 . S
C1046 C1047 1.415 . S
C1047 H1017 0.950 . S
C1047 C1042 1.363 . S
C1047 C1046 1.415 . S
H1048 C1045 0.999 . S
H1049 C1030 0.913 . S
C484 C163 1.154 . S
C469 C14 1.525 . S
C519 C40 1.561 . S
C534 C277 1.193 . S
C569 C76 1.279 . S
C584 C337 1.009 . S
C619 C3 1.351 . S
C634 C137 1.092 . S
C684 C251 1.124 . S
C669 C38 1.412 . S
C719 C74 1.464 . S
C734 C347 0.913 . S
C784 C233 0.912 . S
C769 C86 1.419 . S
C819 C2 1.379 1_655 S
C834 C365 1.108 . S
C884 C109 1.002 . S
C869 C39 1.262 . S
C934 C223 0.996 . S
C919 C75 1.277 . S
C984 C391 1.164 . S
C969 C4 1.535 . S
C1019 C50 1.441 . S
C1034 C119 0.893 . S
