# Generated by pormake.
# Topology zzz, (3,6)-cn, num edge types: 1
# Building blocks:
#     Node 0, Type 0, BuildingBlock: CUQRIR_clean_linker_1, # of connection points: 3
#     Node 1, Type 0, BuildingBlock: CUQRIR_clean_linker_1, # of connection points: 3
#     Node 2, Type 0, BuildingBlock: CUQRIR_clean_linker_1, # of connection points: 3
#     Node 3, Type 0, BuildingBlock: CUQRIR_clean_linker_1, # of connection points: 3
#     Node 4, Type 0, BuildingBlock: CUQRIR_clean_linker_1, # of connection points: 3
#     Node 5, Type 0, BuildingBlock: CUQRIR_clean_linker_1, # of connection points: 3
#     Node 6, Type 0, BuildingBlock: CUQRIR_clean_linker_1, # of connection points: 3
#     Node 7, Type 0, BuildingBlock: CUQRIR_clean_linker_1, # of connection points: 3
#     Node 8, Type 1, BuildingBlock: BETDIP_clean_sbu_0, # of connection points: 6
#     Node 9, Type 1, BuildingBlock: BETDIP_clean_sbu_0, # of connection points: 6
#     Node 10, Type 1, BuildingBlock: BETDIP_clean_sbu_0, # of connection points: 6
#     Node 11, Type 1, BuildingBlock: BETDIP_clean_sbu_0, # of connection points: 6
#     Edge 12, Type (0, 1), BuildingBlock: EZIPEK_clean_linker_0, # of connection points: 2
#     Edge 13, Type (0, 1), BuildingBlock: EZIPEK_clean_linker_0, # of connection points: 2
#     Edge 14, Type (0, 1), BuildingBlock: EZIPEK_clean_linker_0, # of connection points: 2
#     Edge 15, Type (0, 1), BuildingBlock: EZIPEK_clean_linker_0, # of connection points: 2
#     Edge 16, Type (0, 1), BuildingBlock: EZIPEK_clean_linker_0, # of connection points: 2
#     Edge 17, Type (0, 1), BuildingBlock: EZIPEK_clean_linker_0, # of connection points: 2
#     Edge 18, Type (0, 1), BuildingBlock: EZIPEK_clean_linker_0, # of connection points: 2
#     Edge 19, Type (0, 1), BuildingBlock: EZIPEK_clean_linker_0, # of connection points: 2
#     Edge 20, Type (0, 1), BuildingBlock: EZIPEK_clean_linker_0, # of connection points: 2
#     Edge 21, Type (0, 1), BuildingBlock: EZIPEK_clean_linker_0, # of connection points: 2
#     Edge 22, Type (0, 1), BuildingBlock: EZIPEK_clean_linker_0, # of connection points: 2
#     Edge 23, Type (0, 1), BuildingBlock: EZIPEK_clean_linker_0, # of connection points: 2
#     Edge 24, Type (0, 1), BuildingBlock: EZIPEK_clean_linker_0, # of connection points: 2
#     Edge 25, Type (0, 1), BuildingBlock: EZIPEK_clean_linker_0, # of connection points: 2
#     Edge 26, Type (0, 1), BuildingBlock: EZIPEK_clean_linker_0, # of connection points: 2
#     Edge 27, Type (0, 1), BuildingBlock: EZIPEK_clean_linker_0, # of connection points: 2
#     Edge 28, Type (0, 1), BuildingBlock: EZIPEK_clean_linker_0, # of connection points: 2
#     Edge 29, Type (0, 1), BuildingBlock: EZIPEK_clean_linker_0, # of connection points: 2
#     Edge 30, Type (0, 1), BuildingBlock: EZIPEK_clean_linker_0, # of connection points: 2
#     Edge 31, Type (0, 1), BuildingBlock: EZIPEK_clean_linker_0, # of connection points: 2
#     Edge 32, Type (0, 1), BuildingBlock: EZIPEK_clean_linker_0, # of connection points: 2
#     Edge 33, Type (0, 1), BuildingBlock: EZIPEK_clean_linker_0, # of connection points: 2
#     Edge 34, Type (0, 1), BuildingBlock: EZIPEK_clean_linker_0, # of connection points: 2
#     Edge 35, Type (0, 1), BuildingBlock: EZIPEK_clean_linker_0, # of connection points: 2
# Relax obj value: 0.447
# Max RMSD: 0.200
# Mean RMSD: 0.144
data_MOF--net-zzz--node1-BETDIP_clean_sbu_0--node2-CUQRIR_clean_linker_1--edge1-EZIPEK_clean_linker_0
_symmetry_space_group_name_H-M    P1
_symmetry_Int_Tables_number       1
_symmetry_cell_setting            triclinic
loop_
_symmetry_equiv_pos_as_xyz
'x, y, z'
_cell_length_a     34.969444
_cell_length_b     34.891073
_cell_length_c     9.1771802
_cell_angle_alpha  89.784043
_cell_angle_beta   89.5152
_cell_angle_gamma 90.114129
loop_
_atom_site_label
_atom_site_type_symbol
_atom_site_fract_x
_atom_site_fract_y
_atom_site_fract_z
_atom_type_partial_charge
C0 C 0.74911 0.5264 0.44696 0.0
N1 N 0.78642 0.51247 0.44857 0.0
N2 N 0.73137 0.52177 0.31153 0.0
C3 C 0.72926 0.54087 0.58081 0.0
C4 C 0.76046 0.50621 0.23316 0.0
N5 N 0.79095 0.4979 0.31655 0.0
C6 C 0.76044 0.5001 0.07007 0.0
H7 H 0.6978 0.54127 0.56639 0.0
H8 H 0.73951 0.57031 0.60404 0.0
H9 H 0.7367 0.52257 0.67561 0.0
H10 H 0.78821 0.50945 0.02263 0.0
H11 H 0.7375 0.51652 0.01551 0.0
H12 H 0.75746 0.46912 0.04577 0.0
C13 C 1.00421 0.74967 0.44483 0.0
N14 N 0.01872 0.78683 0.44106 0.0
N15 N 1.00907 0.73033 0.31246 0.0
C16 C 0.98758 0.73181 0.57955 0.0
C17 C 0.02525 0.75815 0.22941 0.0
N18 N 0.03358 0.78967 0.3081 0.0
C19 C 0.03314 0.75515 0.06765 0.0
H20 H 1.00541 0.7392 0.67495 0.0
H21 H 0.98548 0.70021 0.56857 0.0
H22 H 0.95863 0.74379 0.59898 0.0
H23 H 0.02054 0.72892 0.01979 0.0
H24 H 0.06443 0.75576 0.04654 0.0
H25 H 0.02094 0.78043 1.0112 0.0
C26 C 0.7906 1.01374 0.45049 0.0
N27 N 0.7529 0.02645 0.45193 0.0
N28 N 0.80882 0.01955 0.3155 0.0
C29 C 0.81013 0.99877 0.58338 0.0
C30 C 0.77992 0.03492 0.23722 0.0
N31 N 0.74869 0.04135 0.32025 0.0
C32 C 0.78099 0.04261 0.07481 0.0
H33 H 0.80166 1.01603 0.67969 0.0
H34 H 0.84167 0.99938 0.5693 0.0
H35 H 0.80062 0.96886 0.60379 0.0
H36 H 0.75364 0.03376 0.02474 0.0
H37 H 0.80436 0.02679 0.01927 0.0
H38 H 0.78413 0.07382 0.05438 0.0
C39 C 0.52433 0.7884 0.41699 0.0
N40 N 0.51088 0.75149 0.44075 0.0
N41 N 0.51396 0.80299 0.28088 0.0
C42 C 0.54361 0.81121 0.53326 0.0
C43 C 0.49442 0.77251 0.22578 0.0
N44 N 0.49025 0.74381 0.32417 0.0
C45 C 0.48218 0.76811 0.06952 0.0
H46 H 0.54208 0.84238 0.50995 0.0
H47 H 0.57399 0.80238 0.54026 0.0
H48 H 0.52996 0.805 0.64047 0.0
H49 H 0.49707 0.78869 0.99611 0.0
H50 H 0.45077 0.77182 0.06128 0.0
H51 H 0.48851 0.73852 0.03237 0.0
C52 C 0.29041 0.5067 0.25634 0.0
N53 N 0.25189 0.51665 0.256 0.0
N54 N 0.30714 0.51058 0.39409 0.0
C55 C 0.31184 0.49658 0.12006 0.0
C56 C 0.27623 0.52137 0.47444 0.0
N57 N 0.24525 0.52802 0.39132 0.0
C58 C 0.27503 0.52448 0.63842 0.0
H59 H 0.30045 0.46921 0.07695 0.0
H60 H 0.34293 0.4937 0.13964 0.0
H61 H 0.30691 0.51895 0.03605 0.0
H62 H 0.27457 0.55504 0.67124 0.0
H63 H 0.29959 0.50978 0.68983 0.0
H64 H 0.24805 0.51152 0.68019 0.0
C65 C 0.02859 0.29485 0.23433 0.0
N66 N 1.01563 0.25702 0.23327 0.0
N67 N 0.02418 0.31243 0.3709 0.0
C68 C 0.04197 0.31523 0.09953 0.0
C69 C 1.00988 0.28269 0.45013 0.0
N70 N 1.00187 0.25199 0.36671 0.0
C71 C 1.00465 0.28235 0.61394 0.0
H72 H 0.07164 0.30612 0.07379 0.0
H73 H 0.04134 0.34676 0.11445 0.0
H74 H 0.02379 0.30707 1.00603 0.0
H75 H 0.97378 0.28386 0.64223 0.0
H76 H 0.02036 0.30603 0.6672 0.0
H77 H 1.01538 0.25497 0.6594 0.0
C78 C 0.24437 0.02432 0.21292 0.0
N79 N 0.28154 1.0103 0.20676 0.0
N80 N 0.22727 0.01922 0.35016 0.0
C81 C 0.22417 0.03977 0.0823 0.0
C82 C 0.25641 1.00298 0.42486 0.0
N83 N 0.28666 0.99533 0.33777 0.0
C84 C 0.25659 0.9955 0.58736 0.0
H85 H 0.23478 0.06916 0.05897 0.0
H86 H 0.19279 0.04061 0.10082 0.0
H87 H 0.23087 0.02185 0.98577 0.0
H88 H 0.25339 0.96434 0.60881 0.0
H89 H 0.23383 1.01159 0.6454 0.0
H90 H 0.28441 1.00423 0.6338 0.0
C91 C 0.51146 0.25118 0.24875 0.0
N92 N 0.52581 0.28835 0.24873 0.0
N93 N 0.51717 0.23218 0.3813 0.0
C94 C 0.49516 0.23276 0.11602 0.0
C95 C 0.53411 0.2602 0.46 0.0
N96 N 0.54161 0.29165 0.37874 0.0
C97 C 0.54266 0.25799 0.62107 0.0
H98 H 0.46556 0.24326 0.10023 0.0
H99 H 0.49477 0.20108 0.12714 0.0
H100 H 0.51216 0.24123 0.01836 0.0
H101 H 0.57376 0.25368 0.63715 0.0
H102 H 0.52632 0.2348 0.67639 0.0
H103 H 0.53512 0.28545 0.67437 0.0
Tb104 Tb 0.04268 1.01679 0.93593 0.0
Tb105 Tb 0.99373 0.02771 0.73393 0.0
C106 C 0.08208 1.00111 0.15711 0.0
C107 C 0.11032 0.97404 0.21018 0.0
C108 C 0.10071 0.95341 0.33577 0.0
C109 C 0.11657 0.9176 0.35711 0.0
C110 C 0.13919 0.9016 0.24628 0.0
C111 C 0.1572 0.92611 0.1454 0.0
C112 C 0.14192 0.96272 0.12477 0.0
C113 C 0.08161 0.03623 0.6864 0.0
C114 C 0.02047 0.94226 0.7319 0.0
C115 C 0.9538 0.04314 0.514 0.0
C116 C 0.92509 0.06988 0.46209 0.0
C117 C 0.934 0.09053 0.33587 0.0
C118 C 0.91723 0.1259 0.31407 0.0
C119 C 0.89458 0.14166 0.42535 0.0
C120 C 0.87727 0.11688 0.52706 0.0
C121 C 0.89344 0.08067 0.54826 0.0
C122 C 0.95529 1.0073 0.98332 0.0
C123 C 1.01576 0.10244 0.93696 0.0
O124 O 0.04817 0.98673 0.13226 0.0
O125 O 0.09296 0.02465 0.05481 0.0
O126 O 0.05385 1.01269 0.70155 0.0
O127 O 0.08573 0.051 0.81376 0.0
O128 O 0.03439 0.95394 0.86093 0.0
O129 O 1.00695 0.96985 0.64966 0.0
O130 O 0.98761 0.05787 0.53803 0.0
O131 O 0.94337 0.01937 0.61624 0.0
O132 O 0.98255 0.03144 0.96818 0.0
O133 O 0.95133 0.99264 0.85578 0.0
O134 O 1.00156 0.09061 0.80865 0.0
O135 O 0.0299 0.07501 0.01853 0.0
H136 H 0.07745 0.96254 0.40639 0.0
H137 H 0.10366 0.89934 0.43884 0.0
H138 H 0.17616 0.91454 0.06272 0.0
H139 H 0.15089 0.97926 0.03049 0.0
H140 H 0.95729 0.08179 0.26467 0.0
H141 H 0.92959 0.1443 0.23178 0.0
H142 H 0.85817 0.12814 0.6099 0.0
H143 H 0.88495 0.06404 0.64297 0.0
Tb144 Tb 0.51927 0.03881 0.92688 0.0
Tb145 Tb 0.51182 0.99372 0.71017 0.0
C146 C 0.52982 0.07503 0.16001 0.0
C147 C 0.55365 0.10474 0.22211 0.0
C148 C 0.57303 0.09511 0.34922 0.0
C149 C 0.60833 0.11147 0.37481 0.0
C150 C 0.62492 0.13457 0.26598 0.0
C151 C 0.60138 0.15244 0.16335 0.0
C152 C 0.5651 0.13696 0.13994 0.0
C153 C 0.50147 0.08185 0.68661 0.0
C154 C 0.59628 0.02227 0.72907 0.0
C155 C 0.50003 0.95696 0.47854 0.0
C156 C 0.47548 0.92721 0.41967 0.0
C157 C 0.4555 0.9363 0.2934 0.0
C158 C 0.42043 0.91915 0.26968 0.0
C159 C 0.40465 0.89538 0.37817 0.0
C160 C 0.42918 0.87794 0.47862 0.0
C161 C 0.46493 0.89472 0.50205 0.0
C162 C 0.52974 0.95083 0.95029 0.0
C163 C 0.43515 1.01092 0.91052 0.0
O164 O 0.54751 0.0432 0.12615 0.0
O165 O 0.50613 0.08567 0.05952 0.0
O166 O 0.52563 0.05465 0.69644 0.0
O167 O 0.48552 0.08326 0.81319 0.0
O168 O 0.58287 0.03281 0.86078 0.0
O169 O 0.57001 1.01055 0.63811 0.0
O170 O 0.48302 0.98918 0.51171 0.0
O171 O 0.52409 0.94649 0.57796 0.0
O172 O 0.5054 0.97787 0.93999 0.0
O173 O 0.54586 0.94949 0.82395 0.0
O174 O 0.44822 1.00063 0.77787 0.0
O175 O 0.46161 0.02196 1.00115 0.0
H176 H 0.56372 0.07122 0.41663 0.0
H177 H 0.62581 0.09895 0.45918 0.0
H178 H 0.61357 0.17153 0.08195 0.0
H179 H 0.54951 0.14568 0.04398 0.0
H180 H 0.46411 0.96031 0.22525 0.0
H181 H 0.40229 0.93174 0.18822 0.0
H182 H 0.41788 0.85815 0.55943 0.0
H183 H 0.4811 0.88616 0.59678 0.0
Tb184 Tb 0.49599 0.52701 0.93526 0.0
Tb185 Tb 0.54606 0.51632 0.74404 0.0
C186 C 0.44775 0.55078 0.11723 0.0
C187 C 0.41835 0.58047 0.10492 0.0
C188 C 0.42648 0.61532 0.03453 0.0
C189 C 0.40375 0.64723 0.06154 0.0
C190 C 0.38011 0.6456 0.18547 0.0
C191 C 0.36374 0.61009 0.21898 0.0
C192 C 0.38371 0.5768 0.18102 0.0
C193 C 0.45968 0.504 0.68731 0.0
C194 C 0.51943 0.60084 0.73722 0.0
C195 C 0.58756 0.50035 0.52644 0.0
C196 C 0.61688 0.47429 0.47337 0.0
C197 C 0.60853 0.45393 0.34704 0.0
C198 C 0.62564 0.41875 0.32456 0.0
C199 C 0.64793 0.40285 0.43552 0.0
C200 C 0.66485 0.42752 0.53677 0.0
C201 C 0.64843 0.46361 0.55834 0.0
C202 C 0.58355 0.53769 0.99245 0.0
C203 C 0.52378 0.44307 0.95634 0.0
O204 O 0.48324 0.56257 0.11246 0.0
O205 O 0.4424 0.52058 0.0381 0.0
O206 O 0.48598 0.5293 0.7005 0.0
O207 O 0.45724 0.48858 0.81457 0.0
O208 O 0.5069 0.58923 0.86741 0.0
O209 O 0.53233 0.57341 0.65344 0.0
O210 O 0.55411 0.48487 0.55272 0.0
O211 O 0.59719 0.52459 0.62678 0.0
O212 O 0.55608 0.51368 0.98012 0.0
O213 O 0.58752 0.55215 0.86376 0.0
O214 O 0.53805 0.45406 0.82593 0.0
O215 O 0.50937 0.47098 0.03567 0.0
H216 H 0.45297 0.61955 0.97735 0.0
H217 H 0.41426 0.67471 0.02257 0.0
H218 H 0.34145 0.60879 0.2993 0.0
H219 H 0.37544 0.54966 0.22765 0.0
H220 H 0.58537 0.46265 0.27645 0.0
H221 H 0.6138 0.40051 0.24181 0.0
H222 H 0.68382 0.41621 0.61907 0.0
H223 H 0.65664 0.4802 0.6524 0.0
Tb224 Tb 1.01381 0.49226 0.95448 0.0
Tb225 Tb 0.02158 0.54779 0.78619 0.0
C226 C 0.99778 0.44698 0.16166 0.0
C227 C 0.96999 0.41873 0.21259 0.0
C228 C 0.94959 0.42739 0.33967 0.0
C229 C 0.91453 0.41007 0.36475 0.0
C230 C 0.8983 0.38813 0.25365 0.0
C231 C 0.92268 0.37107 0.15059 0.0
C232 C 0.95893 0.38717 0.12775 0.0
C233 C 0.03643 0.46054 0.6967 0.0
C234 C 0.94016 0.51508 0.74655 0.0
C235 C 0.03483 0.60799 0.63989 0.0
C236 C 0.06438 0.63725 0.6621 0.0
C237 C 0.09202 0.62862 0.76525 0.0
C238 C 0.13033 0.62911 0.72197 0.0
C239 C 0.13951 0.63994 0.57903 0.0
C240 C 0.11318 0.66174 0.50087 0.0
C241 C 0.07482 0.66079 0.54545 0.0
C242 C 0.9979 0.57479 0.04843 0.0
C243 C 0.09877 0.52036 0.96193 0.0
O244 O 0.98509 0.48208 0.15145 0.0
O245 O 0.01941 0.43794 0.05135 0.0
O246 O 1.01204 0.4877 0.71557 0.0
O247 O 0.05086 0.45465 0.82354 0.0
O248 O 0.95142 0.49845 0.87204 0.0
O249 O 0.96772 0.53286 0.67505 0.0
O250 O 0.04762 0.57388 0.60729 0.0
O251 O 1.00918 0.60584 0.74175 0.0
O252 O 0.02492 0.55133 0.02021 0.0
O253 O 0.97901 0.57613 0.92892 0.0
O254 O 0.08559 0.53886 0.84357 0.0
O255 O 0.07234 0.50222 0.03759 0.0
H256 H 0.95859 0.45045 0.4106 0.0
H257 H 0.8966 0.42173 0.44982 0.0
H258 H 0.91113 0.35223 0.06832 0.0
H259 H 0.97546 0.37861 0.03324 0.0
H260 H 0.0832 0.61391 0.86307 0.0
H261 H 0.15128 0.61409 0.78581 0.0
H262 H 0.12107 0.67319 0.39548 0.0
H263 H 0.053 0.6729 0.47919 0.0
C264 C 0.17162 0.99193 0.49659 0.0
C265 C 0.18733 0.02261 0.41038 0.0
C266 C 0.12907 0.06001 0.48385 0.0
C267 C 0.11678 0.03089 0.5845 0.0
N268 N 0.13568 0.97399 0.71369 0.0
N269 N 0.18254 0.08967 0.35185 0.0
C270 C 0.14084 0.99833 0.59853 0.0
C271 C 0.16618 0.05767 0.41098 0.0
N272 N 0.18612 0.95595 0.48077 0.0
N273 N 0.10543 0.09031 0.45827 0.0
H274 H 0.21005 0.08951 0.30746 0.0
H275 H 0.17046 0.11685 0.36009 0.0
H276 H 0.07901 0.09319 0.51085 0.0
H277 H 0.11065 0.11056 0.37673 0.0
H278 H 0.176 0.93217 0.53835 0.0
H279 H 0.2055 0.94933 0.39821 0.0
H280 H 0.15506 0.95239 0.73957 0.0
H281 H 0.11422 0.97773 0.79181 0.0
C282 C 0.54489 0.17432 0.51054 0.0
C283 C 0.5138 0.19143 0.43305 0.0
C284 C 0.47629 0.13256 0.50092 0.0
C285 C 0.50607 0.11872 0.59359 0.0
N286 N 0.56381 0.13584 0.71825 0.0
N287 N 0.44637 0.18803 0.38518 0.0
C288 C 0.53883 0.14246 0.60772 0.0
C289 C 0.47853 0.17062 0.43545 0.0
N290 N 0.58089 0.18849 0.49098 0.0
N291 N 0.44554 0.10949 0.47573 0.0
H292 H 0.4466 0.21607 0.34586 0.0
H293 H 0.41915 0.17611 0.39594 0.0
H294 H 0.44273 0.08238 0.52326 0.0
H295 H 0.42469 0.11597 0.39907 0.0
H296 H 0.60495 0.17718 0.54156 0.0
H297 H 0.58703 0.20878 0.41117 0.0
H298 H 0.58589 0.15472 0.7437 0.0
H299 H 0.55991 0.11388 0.7943 0.0
C300 C 0.36166 0.54107 0.54038 0.0
C301 C 0.34757 0.51027 0.45079 0.0
C302 C 0.41125 0.47876 0.49399 0.0
C303 C 0.42291 0.50782 0.59444 0.0
N304 N 0.40251 0.56168 0.7372 0.0
N305 N 0.35872 0.44559 0.37234 0.0
C306 C 0.39619 0.53746 0.62346 0.0
C307 C 0.37262 0.47809 0.43475 0.0
N308 N 0.34254 0.57498 0.54569 0.0
N309 N 0.43718 0.45141 0.45503 0.0
H310 H 0.33057 0.44345 0.3368 0.0
H311 H 0.37372 0.41985 0.36887 0.0
H312 H 0.4648 0.45079 0.4973 0.0
H313 H 0.43242 0.4316 0.37252 0.0
H314 H 0.35372 0.59977 0.5921 0.0
H315 H 0.31734 0.57967 0.49116 0.0
H316 H 0.38171 0.58012 0.77866 0.0
H317 H 0.42732 0.56106 0.79869 0.0
C318 C 0.05921 0.37679 0.41937 0.0
C319 C 0.02581 0.35298 0.42779 0.0
C320 C 1.00084 0.39899 0.61604 0.0
C321 C 0.03141 0.42541 0.59374 0.0
N322 N 0.08844 0.43996 0.45596 0.0
N323 N 0.96031 0.35018 0.51238 0.0
C324 C 0.06001 0.41447 0.48873 0.0
C325 C 0.9954 0.36708 0.51913 0.0
N326 N 0.09137 0.36249 0.355 0.0
N327 N 0.9774 0.40304 0.73446 0.0
H328 H 0.95379 0.33018 0.43306 0.0
H329 H 0.93666 0.35914 0.57297 0.0
H330 H 0.97973 0.42564 0.8076 0.0
H331 H 0.9578 0.3821 0.76712 0.0
H332 H 0.11769 0.37652 0.35617 0.0
H333 H 0.09248 0.33478 0.31332 0.0
H334 H 0.1081 0.43583 0.37153 0.0
H335 H 0.09017 0.46675 0.50583 0.0
C336 C 0.8645 0.04891 0.1759 0.0
C337 C 0.84924 1.01748 0.25931 0.0
C338 C 0.90837 0.98169 0.18436 0.0
C339 C 0.92015 1.01156 0.08597 0.0
N340 N 0.90029 0.06874 0.96084 0.0
N341 N 0.85548 0.95036 0.31431 0.0
C342 C 0.89551 0.0437 0.07407 0.0
C343 C 0.87116 0.98292 0.257 0.0
N344 N 0.84909 0.0844 0.19373 0.0
N345 N 0.93259 0.95175 0.20789 0.0
H346 H 0.82802 0.9498 0.35918 0.0
H347 H 0.86811 0.92347 0.30457 0.0
H348 H 0.95911 0.94968 0.15539 0.0
H349 H 0.92774 0.93096 0.28778 0.0
H350 H 0.85841 0.10869 0.13738 0.0
H351 H 0.82963 0.09003 0.27688 0.0
H352 H 0.88056 0.09012 0.93629 0.0
H353 H 0.92183 0.06579 0.88252 0.0
C354 C 0.55318 0.86257 0.20285 0.0
C355 C 0.51785 0.84178 0.20913 0.0
C356 C 0.49306 0.8897 0.02842 0.0
C357 C 0.52536 0.914 0.04372 0.0
N358 N 0.58577 0.92379 0.16168 0.0
N359 N 0.45075 0.84449 0.14611 0.0
C360 C 0.55515 0.90052 0.13678 0.0
C361 C 0.48694 0.85806 0.12689 0.0
N362 N 0.58578 0.84503 0.24811 0.0
N363 N 0.46836 0.89583 0.9165 0.0
H364 H 0.44387 0.8255 0.22896 0.0
H365 H 0.427 0.8556 0.09283 0.0
H366 H 0.4468 0.87648 0.88966 0.0
H367 H 0.47189 0.91803 0.84122 0.0
H368 H 0.61285 0.85718 0.23533 0.0
H369 H 0.58612 0.81647 0.28157 0.0
H370 H 0.60656 0.91746 0.23879 0.0
H371 H 0.58848 0.95085 0.11368 0.0
C372 C 0.66891 0.55918 0.26044 0.0
C373 C 0.69105 0.52472 0.25543 0.0
C374 C 0.64415 0.5008 0.07074 0.0
C375 C 0.61925 0.53251 0.09062 0.0
N376 N 0.6071 0.59061 0.22334 0.0
N377 N 0.69076 0.4586 0.17854 0.0
C378 C 0.63135 0.56113 0.19228 0.0
C379 C 0.67561 0.49441 0.16792 0.0
N380 N 0.68467 0.59113 0.32033 0.0
N381 N 0.63905 0.47713 0.95454 0.0
H382 H 0.71042 0.45167 0.25817 0.0
H383 H 0.68068 0.43504 0.1209 0.0
H384 H 0.61687 0.48054 0.88053 0.0
H385 H 0.65893 0.45639 0.92392 0.0
H386 H 0.67184 0.61802 0.31607 0.0
H387 H 0.71238 0.59136 0.36107 0.0
H388 H 0.61217 0.61038 0.30582 0.0
H389 H 0.58039 0.59318 0.17432 0.0
C390 C 0.96936 0.67032 0.25407 0.0
C391 C 1.00552 0.68922 0.26604 0.0
C392 C 0.03554 0.62829 0.17893 0.0
C393 C 0.99996 0.61118 0.14602 0.0
N394 N 0.93145 0.61672 0.1592 0.0
N395 N 0.07276 0.68575 0.1974 0.0
C396 C 0.9664 0.63255 0.18634 0.0
C397 C 0.03815 0.66823 0.21306 0.0
N398 N 0.93758 0.68897 0.30335 0.0
N399 N 0.06736 0.60611 0.18867 0.0
H400 H 0.07919 0.71215 0.24189 0.0
H401 H 0.09504 0.67381 0.13636 0.0
H402 H 0.06637 0.57632 0.18838 0.0
H403 H 0.0937 0.6171 0.22064 0.0
H404 H 0.91072 0.67632 0.31311 0.0
H405 H 0.93862 0.71712 0.34073 0.0
H406 H 0.90571 0.6314 0.16922 0.0
H407 H 0.92831 0.58859 0.12296 0.0
C408 C 0.93269 0.23699 0.35633 0.0
C409 C 0.97048 0.22716 0.40015 0.0
C410 C 0.9451 0.17576 0.54692 0.0
C411 C 0.90968 0.17882 0.47426 0.0
N412 N 0.86768 0.21415 0.32045 0.0
N413 N 1.01348 0.18529 0.52437 0.0
C414 C 0.90244 0.21089 0.38559 0.0
C415 C 0.97692 0.19598 0.4924 0.0
N416 N 0.92596 0.27072 0.28589 0.0
N417 N 0.94882 0.15136 0.66089 0.0
H418 H 0.03726 0.20047 0.48587 0.0
H419 H 0.0203 0.15983 0.57773 0.0
H420 H 0.9254 0.13804 0.71014 0.0
H421 H 0.97434 0.14885 0.71624 0.0
H422 H 0.89863 0.28107 0.26483 0.0
H423 H 0.94785 0.28924 0.25414 0.0
H424 H 0.86163 0.23428 0.23984 0.0
H425 H 0.84537 0.1952 0.34542 0.0
C426 C 0.34456 0.97412 0.45642 0.0
C427 C 0.31337 0.96562 0.3683 0.0
C428 C 0.33501 0.89942 0.34097 0.0
C429 C 0.36679 0.90861 0.42721 0.0
N430 N 0.39191 0.94879 0.61618 0.0
N431 N 0.27235 0.91837 0.25761 0.0
C432 C 0.36761 0.94377 0.50373 0.0
C433 C 0.30621 0.92746 0.32141 0.0
N434 N 0.35259 1.01129 0.49137 0.0
N435 N 0.33412 0.86513 0.27021 0.0
H436 H 0.25164 0.93888 0.23509 0.0
H437 H 0.26421 0.89037 0.23374 0.0
H438 H 0.35492 0.84421 0.28828 0.0
H439 H 0.31397 0.85827 0.1915 0.0
H440 H 0.3779 0.01977 0.5412 0.0
H441 H 0.33522 0.03404 0.45937 0.0
H442 H 0.3917 0.97379 0.67654 0.0
H443 H 0.40759 0.92643 0.66078 0.0
C444 C 0.61043 0.30773 0.36498 0.0
C445 C 0.57253 0.31696 0.41077 0.0
C446 C 0.59707 0.36821 0.55816 0.0
C447 C 0.63275 0.36552 0.48449 0.0
N448 N 0.67553 0.33089 0.32985 0.0
N449 N 0.52883 0.357 0.54157 0.0
C450 C 0.64047 0.33378 0.39508 0.0
C451 C 0.56559 0.34754 0.50522 0.0
N452 N 0.61741 0.27453 0.29181 0.0
N453 N 0.59289 0.3926 0.67176 0.0
H454 H 0.50538 0.34124 0.50546 0.0
H455 H 0.52133 0.38193 0.59684 0.0
H456 H 0.61617 0.4058 0.72053 0.0
H457 H 0.56715 0.39569 0.72699 0.0
H458 H 0.64478 0.26438 0.26888 0.0
H459 H 0.59555 0.25633 0.25893 0.0
H460 H 0.68208 0.31109 0.24882 0.0
H461 H 0.69768 0.3498 0.35541 0.0
C462 C 0.22921 0.59666 0.41838 0.0
C463 C 0.21822 0.55734 0.42585 0.0
C464 C 0.15343 0.57627 0.47196 0.0
C465 C 0.16575 0.61442 0.49915 0.0
N466 N 0.21624 0.66123 0.50153 0.0
N467 N 0.16898 0.51001 0.46816 0.0
C468 C 0.204 0.62489 0.47301 0.0
C469 C 0.18034 0.54719 0.4563 0.0
N470 N 0.26253 0.60705 0.3516 0.0
N471 N 0.11584 0.56776 0.45756 0.0
H472 H 0.18778 0.48686 0.46199 0.0
H473 H 0.18778 0.48686 0.46199 0.0
H474 H 0.09606 0.58946 0.44397 0.0
H475 H 0.10587 0.53997 0.43906 0.0
H476 H 0.27036 0.63546 0.3322 0.0
H477 H 0.28017 0.58697 0.30169 0.0
H478 H 0.245 0.66914 0.49825 0.0
H479 H 0.19763 0.6828 0.53603 0.0
C480 C 0.10237 0.80628 0.31577 0.0
C481 C 0.06443 0.81462 0.27 0.0
C482 C 0.08832 0.86729 0.12513 0.0
C483 C 0.12395 0.8646 0.1971 0.0
N484 N 0.16748 0.82795 0.3409 0.0
N485 N 0.02033 0.85383 0.13914 0.0
C486 C 0.13197 0.83238 0.2833 0.0
C487 C 0.05717 0.84522 0.17557 0.0
N488 N 0.1109 0.77448 0.39483 0.0
N489 N 0.08385 0.89271 0.0147 0.0
H490 H 0.99713 0.83717 0.1736 0.0
H491 H 1.01234 0.87884 0.08529 0.0
H492 H 0.10674 0.90751 0.96831 0.0
H493 H 0.05844 0.89497 0.95852 0.0
H494 H 0.09075 0.75395 0.42638 0.0
H495 H 0.09075 0.75395 0.42638 0.0
H496 H 0.17437 0.8051 0.40957 0.0
H497 H 0.18963 0.84717 0.31673 0.0
C498 C 0.72441 0.10772 0.32584 0.0
C499 C 0.72032 0.06877 0.28328 0.0
C500 C 0.66319 0.08448 0.15228 0.0
C501 C 0.66273 0.12096 0.22052 0.0
N502 N 0.69525 0.16975 0.35479 0.0
N503 N 0.68541 0.01897 0.16453 0.0
C504 C 0.69447 0.13355 0.29954 0.0
C505 C 0.68974 0.05691 0.1975 0.0
N506 N 0.75586 0.12064 0.39626 0.0
N507 N 0.63732 0.07575 0.0482 0.0
H508 H 0.70572 0.99839 0.19202 0.0
H509 H 0.66067 1.00746 0.1197 0.0
H510 H 0.61796 0.09554 1.00782 0.0
H511 H 0.63907 0.05056 0.98899 0.0
H512 H 0.77902 0.10331 0.42275 0.0
H513 H 0.77902 0.10331 0.42275 0.0
H514 H 0.71785 0.1798 0.41785 0.0
H515 H 0.67336 0.18936 0.33445 0.0
C516 C 0.4202 0.73172 0.34154 0.0
C517 C 0.45836 0.71775 0.32703 0.0
C518 C 0.43324 0.65385 0.3528 0.0
C519 C 0.39682 0.66713 0.30819 0.0
N520 N 0.35346 0.72001 0.29398 0.0
N521 N 0.5001 0.66346 0.29906 0.0
C522 C 0.3895 0.7066 0.31487 0.0
C523 C 0.46478 0.67802 0.32799 0.0
N524 N 0.41239 0.7681 0.38376 0.0
N525 N 0.43777 0.61782 0.40666 0.0
H526 H 0.52303 0.68109 0.2693 0.0
H527 H 0.50515 0.63408 0.29103 0.0
H528 H 0.41424 0.60071 0.43246 0.0
H529 H 0.46417 0.60745 0.44111 0.0
H530 H 0.43338 0.78705 0.41957 0.0
H531 H 0.43338 0.78705 0.41957 0.0
H532 H 0.34723 0.74928 0.29471 0.0
H533 H 0.33055 0.70133 0.27678 0.0
C534 C 0.84665 0.47251 0.19187 0.0
C535 C 0.81531 0.4662 0.28417 0.0
C536 C 0.82946 0.39748 0.29394 0.0
C537 C 0.86173 0.40456 0.20556 0.0
N538 N 0.89008 0.44438 0.02001 0.0
N539 N 0.77018 0.42176 0.39366 0.0
C540 C 0.86582 0.4405 0.13483 0.0
C541 C 0.80427 0.42823 0.32494 0.0
N542 N 0.85827 0.50909 0.1612 0.0
N543 N 0.82507 0.36228 0.35705 0.0
H544 H 0.75897 0.39447 0.41213 0.0
H545 H 0.75244 0.44395 0.42748 0.0
H546 H 0.84334 0.33961 0.33077 0.0
H547 H 0.80471 0.35619 0.43736 0.0
H548 H 0.8838 0.51565 0.10723 0.0
H549 H 0.8438 0.53302 0.20128 0.0
H550 H 0.89321 0.47025 0.96566 0.0
H551 H 0.90259 0.42088 0.9692 0.0
C552 C 0.98771 0.21042 0.04631 0.0
C553 C 0.0195 0.22379 0.12862 0.0
C554 C 0.05138 0.16135 0.05829 0.0
C555 C 1.01723 0.14562 0.9946 0.0
N556 N 0.94952 0.15565 0.97314 0.0
N557 N 0.08088 0.20753 0.22429 0.0
C558 C 0.98463 0.17059 1.00021 0.0
C559 C 0.05107 0.19782 0.13696 0.0
N560 N 0.96038 0.23618 1.00834 0.0
N561 N 0.08496 0.142 0.04052 0.0
H562 H 0.08226 0.23398 0.27675 0.0
H563 H 0.10262 0.18856 0.25201 0.0
H564 H 0.08697 0.11669 0.98107 0.0
H565 H 0.11136 0.15302 0.07144 0.0
H566 H 0.93778 0.22942 0.93961 0.0
H567 H 0.96359 0.26529 0.03072 0.0
H568 H 0.92421 0.17105 0.98644 0.0
H569 H 0.94593 0.12666 0.95131 0.0
C570 C 0.32697 0.98313 0.01396 0.0
C571 C 0.31423 1.01466 0.09997 0.0
C572 C 0.37654 0.04658 0.03014 0.0
C573 C 0.39178 1.01254 0.9632 0.0
N574 N 0.38093 0.94501 0.93095 0.0
N575 N 0.33055 0.07587 0.19884 0.0
C576 C 0.36652 0.98005 0.96466 0.0
C577 C 0.34016 0.04623 0.1094 0.0
N578 N 0.30088 0.95597 0.97682 0.0
N579 N 0.39642 0.08008 0.01538 0.0
H580 H 0.30407 0.07724 0.25187 0.0
H581 H 0.34957 0.09752 0.22762 0.0
H582 H 0.42192 0.082 0.95643 0.0
H583 H 0.38578 0.10654 0.04836 0.0
H584 H 0.30709 0.93362 0.90541 0.0
H585 H 0.27202 0.95893 1.00433 0.0
H586 H 0.3654 0.91964 0.94298 0.0
H587 H 0.40978 0.94137 0.90662 0.0
C588 C 0.48968 0.34774 0.16105 0.0
C589 C 0.52146 0.32221 0.14796 0.0
C590 C 0.55551 0.37571 0.01702 0.0
C591 C 0.52274 0.40034 0.01643 0.0
N592 N 0.4551 0.40356 0.06965 0.0
N593 N 0.58003 0.3103 0.02002 0.0
C594 C 0.48885 0.38438 0.08349 0.0
C595 C 0.55282 0.33584 0.06223 0.0
N596 N 0.46026 0.33744 0.25151 0.0
N597 N 0.5904 0.39095 0.98563 0.0
H598 H 0.57692 0.28108 0.04175 0.0
H599 H 0.60232 0.31737 0.94863 0.0
H600 H 0.59375 0.41997 0.96321 0.0
H601 H 0.61584 0.37564 0.99523 0.0
H602 H 0.43839 0.35608 0.28185 0.0
H603 H 0.45933 0.31084 0.30384 0.0
H604 H 0.42887 0.39226 0.1032 0.0
H605 H 0.45272 0.42907 1.01114 0.0
C606 C 0.20557 0.54873 0.08018 0.0
C607 C 0.22032 0.51481 0.14488 0.0
C608 C 0.15985 0.48268 0.05675 0.0
C609 C 0.14229 0.51838 0.01416 0.0
N610 N 0.14929 0.58665 0.03487 0.0
N611 N 0.20908 0.44998 0.20423 0.0
C612 C 0.16577 0.55162 0.03761 0.0
C613 C 0.19652 0.48181 0.13372 0.0
N614 N 0.22987 0.57865 0.05719 0.0
N615 N 0.14208 0.44927 0.02044 0.0
H616 H 0.19323 0.42481 0.21637 0.0
H617 H 0.19323 0.42481 0.21637 0.0
H618 H 0.11656 0.44867 0.96276 0.0
H619 H 0.15444 0.42238 0.03339 0.0
H620 H 0.22182 0.60354 1.00221 0.0
H621 H 0.25911 0.57591 0.07622 0.0
H622 H 0.16324 0.6116 0.06757 0.0
H623 H 0.12049 0.58949 0.01418 0.0
C624 C 0.98449 0.84765 0.52905 0.0
C625 C 1.01538 0.82102 0.54127 0.0
C626 C 0.05055 0.8735 0.67219 0.0
C627 C 0.01849 0.89916 0.67426 0.0
N628 N 0.95116 0.90419 0.62177 0.0
N629 N 0.07304 0.80732 0.66966 0.0
C630 C 0.98444 0.88416 0.60726 0.0
C631 C 0.04683 0.83371 0.62681 0.0
N632 N 0.95505 0.83845 0.43916 0.0
N633 N 0.08581 0.88766 0.70216 0.0
H634 H 0.06898 0.77821 0.64947 0.0
H635 H 0.09527 0.81374 0.74057 0.0
H636 H 0.08992 0.91658 0.72387 0.0
H637 H 0.11082 0.87168 0.69061 0.0
H638 H 0.93391 0.85784 0.409 0.0
H639 H 0.95342 0.81195 0.38714 0.0
H640 H 0.92476 0.89373 0.58819 0.0
H641 H 0.94922 0.92949 0.68127 0.0
C642 C 0.6938 0.98918 0.53836 0.0
C643 C 0.71925 0.02102 0.5543 0.0
C644 C 0.66523 0.05387 0.68752 0.0
C645 C 0.63994 0.02152 0.67848 0.0
N646 N 0.63633 0.95448 0.61681 0.0
N647 N 0.72887 0.08043 0.68156 0.0
C648 C 0.65621 0.98815 0.60971 0.0
C649 C 0.7049 0.0519 0.64065 0.0
N650 N 0.7052 0.95985 0.45051 0.0
N651 N 0.65132 0.08796 0.7352 0.0
H652 H 0.75828 0.07963 0.66134 0.0
H653 H 0.75828 0.07963 0.66134 0.0
H654 H 0.62247 0.09158 0.75909 0.0
H655 H 0.6682 0.1126 0.74181 0.0
H656 H 0.68701 0.93809 0.41609 0.0
H657 H 0.73259 0.95881 0.40461 0.0
H658 H 0.64745 0.92832 0.58284 0.0
H659 H 0.6101 0.95193 0.6706 0.0
C660 C 0.55172 0.69754 0.54317 0.0
C661 C 0.51871 0.72154 0.55422 0.0
C662 C 0.48676 0.66765 0.68868 0.0
C663 C 0.51986 0.64365 0.68288 0.0
N664 N 0.58741 0.6417 0.62834 0.0
N665 N 0.45833 0.7303 0.67717 0.0
C666 C 0.55339 0.66057 0.61747 0.0
C667 C 0.48816 0.70714 0.64255 0.0
N668 N 0.58084 0.70898 0.45322 0.0
N669 N 0.45233 0.6522 0.72584 0.0
H670 H 0.45801 0.75945 0.65115 0.0
H671 H 0.45801 0.75945 0.65115 0.0
H672 H 0.44869 0.62274 0.73614 0.0
H673 H 0.42723 0.66835 0.72965 0.0
H674 H 0.60347 0.69127 0.423 0.0
H675 H 0.58088 0.73564 0.40145 0.0
H676 H 0.61347 0.65357 0.59583 0.0
H677 H 0.59009 0.61562 0.68302 0.0
C678 C 0.8341 0.48457 0.63133 0.0
C679 C 0.81963 0.51664 0.5519 0.0
C680 C 0.88107 0.54991 0.62316 0.0
C681 C 0.89769 0.51562 0.68407 0.0
N682 N 0.88851 0.44741 0.70742 0.0
N683 N 0.8345 0.57918 0.45843 0.0
C684 C 0.87359 0.48237 0.67692 0.0
C685 C 0.84475 0.54907 0.54464 0.0
N686 N 0.81039 0.45526 0.66823 0.0
N687 N 0.89911 0.58411 0.64464 0.0
H688 H 0.80825 0.58009 0.40532 0.0
H689 H 0.85299 0.60165 0.4319 0.0
H690 H 0.92395 0.58665 0.70571 0.0
H691 H 0.88722 0.61039 0.61572 0.0
H692 H 0.78093 0.45636 0.65177 0.0
H693 H 0.78093 0.45636 0.65177 0.0
H694 H 0.87233 0.42225 0.70288 0.0
H695 H 0.91743 0.44395 0.7287 0.0
loop_
_geom_bond_atom_site_label_1
_geom_bond_atom_site_label_2
_geom_bond_distance
_geom_bond_site_symmetry_2
_ccdc_geom_bond_type
C0 N1 1.317 . S
C0 N2 1.348 . S
C0 C3 1.485 . S
N1 C0 1.317 . S
N1 N5 1.370 . S
N2 C0 1.348 . S
N2 C4 1.346 . S
C3 C0 1.485 . S
C3 H7 0.960 . S
C3 H8 0.961 . S
C3 H9 0.960 . S
C4 N2 1.346 . S
C4 N5 1.307 . S
C4 C6 1.486 . S
N5 N1 1.370 . S
N5 C4 1.307 . S
C6 C4 1.486 . S
C6 H10 0.960 . S
C6 H11 0.960 . S
C6 H12 0.959 . S
H7 C3 0.960 . S
H8 C3 0.961 . S
H9 C3 0.960 . S
H10 C6 0.960 . S
H11 C6 0.960 . S
H12 C6 0.959 . S
C13 N14 1.317 . S
C13 N15 1.348 . S
C13 C16 1.485 . S
N14 C13 1.317 . S
N14 N18 1.371 . S
N15 C13 1.348 . S
N15 C17 1.346 1_655 S
C16 C13 1.485 . S
C16 H20 0.960 1_655 S
C16 H21 0.961 . S
C16 H22 0.960 . S
C17 N15 1.346 1_455 S
C17 N18 1.307 1_455 S
C17 C19 1.486 . S
N18 N14 1.371 . S
N18 C17 1.307 1_655 S
C19 C17 1.486 . S
C19 H23 0.960 1_455 S
C19 H24 0.960 . S
C19 H25 0.959 . S
H20 C16 0.960 1_455 S
H21 C16 0.961 . S
H22 C16 0.960 . S
H23 C19 0.960 1_655 S
H24 C19 0.960 . S
H25 C19 0.959 . S
C26 N27 1.317 . S
C26 N28 1.348 . S
C26 C29 1.485 . S
N27 C26 1.317 . S
N27 N31 1.371 . S
N28 C26 1.348 . S
N28 C30 1.346 1_565 S
C29 C26 1.485 . S
C29 H33 0.960 1_565 S
C29 H34 0.961 . S
C29 H35 0.960 . S
C30 N28 1.346 1_545 S
C30 N31 1.307 1_545 S
C30 C32 1.486 . S
N31 N27 1.371 . S
N31 C30 1.307 1_565 S
C32 C30 1.486 . S
C32 H36 0.960 1_545 S
C32 H37 0.960 . S
C32 H38 0.959 . S
H33 C29 0.960 1_545 S
H34 C29 0.961 . S
H35 C29 0.960 . S
H36 C32 0.960 1_565 S
H37 C32 0.960 . S
H38 C32 0.959 . S
C39 N40 1.317 . S
C39 N41 1.348 . S
C39 C42 1.485 . S
N40 C39 1.317 . S
N40 N44 1.370 . S
N41 C39 1.348 . S
N41 C43 1.346 . S
C42 C39 1.485 . S
C42 H46 0.960 . S
C42 H47 0.961 . S
C42 H48 0.960 . S
C43 N41 1.346 . S
C43 N44 1.307 . S
C43 C45 1.486 . S
N44 N40 1.370 . S
N44 C43 1.307 . S
C45 C43 1.486 . S
C45 H49 0.960 . S
C45 H50 0.960 . S
C45 H51 0.959 . S
H46 C42 0.960 . S
H47 C42 0.961 . S
H48 C42 0.960 . S
H49 C45 0.960 . S
H50 C45 0.960 . S
H51 C45 0.959 . S
C52 N53 1.317 . S
C52 N54 1.348 1_556 S
C52 C55 1.485 . S
N53 C52 1.317 . S
N53 N57 1.370 1_556 S
N54 C52 1.348 1_554 S
N54 C56 1.346 . S
C55 C52 1.485 . S
C55 H59 0.960 . S
C55 H60 0.961 . S
C55 H61 0.960 . S
C56 N54 1.346 . S
C56 N57 1.307 . S
C56 C58 1.486 . S
N57 N53 1.370 1_554 S
N57 C56 1.307 . S
C58 C56 1.486 . S
C58 H62 0.960 . S
C58 H63 0.960 . S
C58 H64 0.959 . S
H59 C55 0.960 . S
H60 C55 0.961 . S
H61 C55 0.960 . S
H62 C58 0.960 . S
H63 C58 0.960 . S
H64 C58 0.959 . S
C65 N66 1.317 . S
C65 N67 1.350 1_556 S
C65 C68 1.485 . S
N66 C65 1.317 . S
N66 N70 1.371 1_556 S
N67 C65 1.350 1_554 S
N67 C69 1.345 1_655 S
C68 C65 1.485 . S
C68 H72 0.960 1_655 S
C68 H73 0.961 . S
C68 H74 0.960 . S
C69 N67 1.345 1_455 S
C69 N70 1.307 1_455 S
C69 C71 1.487 . S
N70 N66 1.371 1_554 S
N70 C69 1.307 1_655 S
C71 C69 1.487 . S
C71 H75 0.960 1_455 S
C71 H76 0.960 . S
C71 H77 0.959 . S
H72 C68 0.960 1_455 S
H73 C68 0.961 . S
H74 C68 0.960 . S
H75 C71 0.960 1_655 S
H76 C71 0.960 . S
H77 C71 0.959 . S
C78 N79 1.317 . S
C78 N80 1.350 1_556 S
C78 C81 1.485 . S
N79 C78 1.317 . S
N79 N83 1.371 1_556 S
N80 C78 1.350 1_554 S
N80 C82 1.345 1_565 S
C81 C78 1.485 . S
C81 H85 0.960 1_565 S
C81 H86 0.961 . S
C81 H87 0.960 . S
C82 N80 1.345 1_545 S
C82 N83 1.307 1_545 S
C82 C84 1.487 . S
N83 N79 1.371 1_554 S
N83 C82 1.307 1_565 S
C84 C82 1.487 . S
C84 H88 0.960 1_545 S
C84 H89 0.960 . S
C84 H90 0.959 . S
H85 C81 0.960 1_545 S
H86 C81 0.961 . S
H87 C81 0.960 . S
H88 C84 0.960 1_565 S
H89 C84 0.960 . S
H90 C84 0.959 . S
C91 N92 1.317 . S
C91 N93 1.348 1_556 S
C91 C94 1.485 . S
N92 C91 1.317 . S
N92 N96 1.370 1_556 S
N93 C91 1.348 1_554 S
N93 C95 1.346 . S
C94 C91 1.485 . S
C94 H98 0.960 . S
C94 H99 0.961 . S
C94 H100 0.960 . S
C95 N93 1.346 . S
C95 N96 1.307 . S
C95 C97 1.486 . S
N96 N92 1.370 1_554 S
N96 C95 1.307 . S
C97 C95 1.486 . S
C97 H101 0.960 . S
C97 H102 0.960 . S
C97 H103 0.959 . S
H98 C94 0.960 . S
H99 C94 0.961 . S
H100 C94 0.960 . S
H101 C97 0.960 . S
H102 C97 0.960 . S
H103 C97 0.959 . S
Tb104 C106 2.809 1_556 S
Tb104 O124 2.484 1_556 S
Tb104 O125 2.440 1_556 S
Tb104 O126 2.658 1_565 S
Tb104 O127 2.409 . S
Tb104 O128 2.378 . S
Tb104 O132 2.325 1_455 S
Tb104 O135 2.341 1_565 S
Tb105 C115 2.809 . S
Tb105 O126 2.325 1_655 S
Tb105 O129 2.341 1_545 S
Tb105 O130 2.484 . S
Tb105 O131 2.440 . S
Tb105 O132 2.658 1_545 S
Tb105 O133 2.409 . S
Tb105 O134 2.378 . S
C106 Tb104 2.809 1_554 S
C106 C107 1.514 . S
C106 O124 1.248 . S
C106 O125 1.266 . S
C107 C106 1.514 . S
C107 C108 1.359 . S
C107 C112 1.348 . S
C108 C107 1.359 . S
C108 C109 1.380 . S
C108 H136 0.929 1_455 S
C109 C108 1.380 . S
C109 C110 1.347 . S
C109 H137 0.931 . S
C110 C109 1.347 . S
C110 C111 1.369 . S
C111 C110 1.369 . S
C111 C112 1.408 . S
C111 H138 0.930 . S
C112 C107 1.348 . S
C112 C111 1.408 . S
C112 H139 0.930 . S
C113 O126 1.281 1_565 S
C113 O127 1.254 . S
C114 O128 1.236 1_655 S
C114 O129 1.266 . S
C115 Tb105 2.809 . S
C115 C116 1.514 . S
C115 O130 1.248 . S
C115 O131 1.266 . S
C116 C115 1.514 . S
C116 C117 1.359 . S
C116 C121 1.348 . S
C117 C116 1.359 . S
C117 C118 1.380 . S
C117 H140 0.929 1_655 S
C118 C117 1.380 . S
C118 C119 1.347 . S
C118 H141 0.951 . S
C119 C118 1.347 . S
C119 C120 1.369 . S
C120 C119 1.369 . S
C120 C121 1.408 . S
C120 H142 0.930 . S
C121 C116 1.348 . S
C121 C120 1.408 . S
C121 H143 0.930 . S
C122 O132 1.281 1_545 S
C122 O133 1.254 . S
C123 O134 1.236 1_455 S
C123 O135 1.266 . S
O124 Tb104 2.484 1_554 S
O124 C106 1.248 . S
O125 Tb104 2.440 1_554 S
O125 C106 1.266 . S
O126 Tb104 2.658 1_545 S
O126 Tb105 2.325 1_455 S
O126 C113 1.281 1_545 S
O127 Tb104 2.409 . S
O127 C113 1.254 . S
O128 Tb104 2.378 . S
O128 C114 1.236 1_455 S
O129 Tb105 2.341 1_565 S
O129 C114 1.266 . S
O130 Tb105 2.484 . S
O130 C115 1.248 . S
O131 Tb105 2.440 . S
O131 C115 1.266 . S
O132 Tb104 2.325 1_655 S
O132 Tb105 2.658 1_565 S
O132 C122 1.281 1_565 S
O133 Tb105 2.409 . S
O133 C122 1.254 . S
O134 Tb105 2.378 . S
O134 C123 1.236 1_655 S
O135 Tb104 2.341 1_545 S
O135 C123 1.266 . S
H136 C108 0.929 1_655 S
H137 C109 0.931 . S
H138 C111 0.930 . S
H139 C112 0.930 . S
H140 C117 0.929 1_455 S
H141 C118 0.951 . S
H142 C120 0.930 . S
H143 C121 0.930 . S
Tb144 C146 2.809 1_556 S
Tb144 O164 2.484 1_556 S
Tb144 O165 2.440 1_556 S
Tb144 O166 2.658 . S
Tb144 O167 2.409 . S
Tb144 O168 2.378 . S
Tb144 O172 2.325 1_545 S
Tb144 O175 2.341 . S
Tb145 C155 2.809 . S
Tb145 O166 2.325 1_565 S
Tb145 O169 2.341 . S
Tb145 O170 2.484 . S
Tb145 O171 2.440 . S
Tb145 O172 2.658 . S
Tb145 O173 2.409 . S
Tb145 O174 2.378 . S
C146 Tb144 2.809 1_554 S
C146 C147 1.514 . S
C146 O164 1.248 . S
C146 O165 1.266 . S
C147 C146 1.514 . S
C147 C148 1.359 . S
C147 C152 1.348 . S
C148 C147 1.359 . S
C148 C149 1.380 . S
C148 H176 0.929 1_545 S
C149 C148 1.380 . S
C149 C150 1.347 . S
C149 H177 0.931 1_545 S
C150 C149 1.347 . S
C150 C151 1.369 . S
C151 C150 1.369 . S
C151 C152 1.408 . S
C151 H178 0.930 . S
C152 C147 1.348 . S
C152 C151 1.408 . S
C152 H179 0.930 . S
C153 O166 1.281 . S
C153 O167 1.254 . S
C154 O168 1.236 1_565 S
C154 O169 1.266 . S
C155 Tb145 2.809 . S
C155 C156 1.514 . S
C155 O170 1.248 . S
C155 O171 1.266 . S
C156 C155 1.514 . S
C156 C157 1.359 . S
C156 C161 1.348 . S
C157 C156 1.359 . S
C157 C158 1.380 . S
C157 H180 0.929 1_565 S
C158 C157 1.380 . S
C158 C159 1.347 . S
C158 H181 0.931 1_565 S
C159 C158 1.347 . S
C159 C160 1.369 . S
C160 C159 1.369 . S
C160 C161 1.408 . S
C160 H182 0.930 . S
C161 C156 1.348 . S
C161 C160 1.408 . S
C161 H183 0.930 . S
C162 O172 1.281 . S
C162 O173 1.254 . S
C163 O174 1.236 1_545 S
C163 O175 1.266 . S
O164 Tb144 2.484 1_554 S
O164 C146 1.248 . S
O165 Tb144 2.440 1_554 S
O165 C146 1.266 . S
O166 Tb144 2.658 . S
O166 Tb145 2.325 1_545 S
O166 C153 1.281 . S
O167 Tb144 2.409 . S
O167 C153 1.254 . S
O168 Tb144 2.378 . S
O168 C154 1.236 1_545 S
O169 Tb145 2.341 . S
O169 C154 1.266 . S
O170 Tb145 2.484 . S
O170 C155 1.248 . S
O171 Tb145 2.440 . S
O171 C155 1.266 . S
O172 Tb144 2.325 1_565 S
O172 Tb145 2.658 . S
O172 C162 1.281 . S
O173 Tb145 2.409 . S
O173 C162 1.254 . S
O174 Tb145 2.378 . S
O174 C163 1.236 1_565 S
O175 Tb144 2.341 . S
O175 C163 1.266 . S
H176 C148 0.929 1_565 S
H177 C149 0.931 1_565 S
H178 C151 0.930 . S
H179 C152 0.930 . S
H180 C157 0.929 1_545 S
H181 C158 0.931 1_545 S
H182 C160 0.930 . S
H183 C161 0.930 . S
Tb184 C186 2.809 1_556 S
Tb184 O204 2.484 1_556 S
Tb184 O205 2.440 1_556 S
Tb184 O206 2.658 . S
Tb184 O207 2.409 . S
Tb184 O208 2.378 . S
Tb184 O212 2.325 . S
Tb184 O215 2.341 . S
Tb185 C195 2.809 . S
Tb185 O206 2.325 . S
Tb185 O209 2.341 . S
Tb185 O210 2.484 . S
Tb185 O211 2.440 . S
Tb185 O212 2.658 . S
Tb185 O213 2.409 . S
Tb185 O214 2.378 . S
C186 Tb184 2.809 1_554 S
C186 C187 1.514 . S
C186 O204 1.248 . S
C186 O205 1.266 . S
C187 C186 1.514 . S
C187 C188 1.359 . S
C187 C192 1.348 . S
C188 C187 1.359 . S
C188 C189 1.380 . S
C188 H216 0.929 . S
C189 C188 1.380 . S
C189 C190 1.347 . S
C189 H217 0.931 . S
C190 C189 1.347 . S
C190 C191 1.369 . S
C191 C190 1.369 . S
C191 C192 1.408 . S
C191 H218 0.930 . S
C192 C187 1.348 . S
C192 C191 1.408 . S
C192 H219 0.930 . S
C193 O206 1.281 . S
C193 O207 1.254 . S
C194 O208 1.236 . S
C194 O209 1.266 . S
C195 Tb185 2.809 . S
C195 C196 1.514 . S
C195 O210 1.248 . S
C195 O211 1.266 . S
C196 C195 1.514 . S
C196 C197 1.359 . S
C196 C201 1.348 . S
C197 C196 1.359 . S
C197 C198 1.380 . S
C197 H220 0.929 . S
C198 C197 1.380 . S
C198 C199 1.347 . S
C198 H221 0.931 . S
C199 C198 1.347 . S
C199 C200 1.369 . S
C200 C199 1.369 . S
C200 C201 1.408 . S
C200 H222 0.930 . S
C201 C196 1.348 . S
C201 C200 1.408 . S
C201 H223 0.930 . S
C202 O212 1.281 . S
C202 O213 1.254 . S
C203 O214 1.236 . S
C203 O215 1.266 . S
O204 Tb184 2.484 1_554 S
O204 C186 1.248 . S
O205 Tb184 2.440 1_554 S
O205 C186 1.266 . S
O206 Tb184 2.658 . S
O206 Tb185 2.325 . S
O206 C193 1.281 . S
O207 Tb184 2.409 . S
O207 C193 1.254 . S
O208 Tb184 2.378 . S
O208 C194 1.236 . S
O209 Tb185 2.341 . S
O209 C194 1.266 . S
O210 Tb185 2.484 . S
O210 C195 1.248 . S
O211 Tb185 2.440 . S
O211 C195 1.266 . S
O212 Tb184 2.325 . S
O212 Tb185 2.658 . S
O212 C202 1.281 . S
O213 Tb185 2.409 . S
O213 C202 1.254 . S
O214 Tb185 2.378 . S
O214 C203 1.236 . S
O215 Tb184 2.341 . S
O215 C203 1.266 . S
H216 C188 0.929 . S
H217 C189 0.931 . S
H218 C191 0.930 . S
H219 C192 0.930 . S
H220 C197 0.929 . S
H221 C198 0.931 . S
H222 C200 0.930 . S
H223 C201 0.930 . S
Tb224 C226 2.809 1_556 S
Tb224 O244 2.484 1_556 S
Tb224 O245 2.440 1_556 S
Tb224 O246 2.658 1_655 S
Tb224 O247 2.409 . S
Tb224 O248 2.378 . S
Tb224 O252 2.325 . S
Tb224 O255 2.341 1_655 S
Tb225 C235 2.809 . S
Tb225 O246 2.325 . S
Tb225 O249 2.341 1_455 S
Tb225 O250 2.484 . S
Tb225 O251 2.440 . S
Tb225 O252 2.658 1_455 S
Tb225 O253 2.409 . S
Tb225 O254 2.378 . S
C226 Tb224 2.809 1_554 S
C226 C227 1.514 . S
C226 O244 1.248 . S
C226 O245 1.266 . S
C227 C226 1.514 . S
C227 C228 1.359 . S
C227 C232 1.348 . S
C228 C227 1.359 . S
C228 C229 1.380 . S
C228 H256 0.929 . S
C229 C228 1.380 . S
C229 C230 1.347 . S
C229 H257 0.931 . S
C230 C229 1.347 . S
C230 C231 1.369 . S
C231 C230 1.369 . S
C231 C232 1.408 . S
C231 H258 0.930 . S
C232 C227 1.348 . S
C232 C231 1.408 . S
C232 H259 0.930 . S
C233 O246 1.276 1_655 S
C233 O247 1.260 . S
C234 O248 1.236 . S
C234 O249 1.266 . S
C235 Tb225 2.809 . S
C235 C236 1.514 . S
C235 O250 1.248 . S
C235 O251 1.266 . S
C236 C235 1.514 . S
C236 C237 1.359 . S
C236 C241 1.348 . S
C237 C236 1.359 . S
C237 C238 1.380 . S
C237 H260 0.929 . S
C238 C237 1.380 . S
C238 C239 1.347 . S
C238 H261 0.931 . S
C239 C238 1.347 . S
C239 C240 1.369 . S
C240 C239 1.369 . S
C240 C241 1.408 . S
C240 H262 0.930 . S
C241 C236 1.348 . S
C241 C240 1.408 . S
C241 H263 0.930 . S
C242 O252 1.274 1_455 S
C242 O253 1.263 . S
C243 O254 1.236 . S
C243 O255 1.266 . S
O244 Tb224 2.484 1_554 S
O244 C226 1.248 . S
O245 Tb224 2.440 1_554 S
O245 C226 1.266 . S
O246 Tb224 2.658 1_455 S
O246 Tb225 2.325 . S
O246 C233 1.276 1_455 S
O247 Tb224 2.409 . S
O247 C233 1.260 . S
O248 Tb224 2.378 . S
O248 C234 1.236 . S
O249 Tb225 2.341 1_655 S
O249 C234 1.266 . S
O250 Tb225 2.484 . S
O250 C235 1.248 . S
O251 Tb225 2.440 . S
O251 C235 1.266 . S
O252 Tb224 2.325 . S
O252 Tb225 2.658 1_655 S
O252 C242 1.274 1_655 S
O253 Tb225 2.409 . S
O253 C242 1.263 . S
O254 Tb225 2.378 . S
O254 C243 1.236 . S
O255 Tb224 2.341 1_455 S
O255 C243 1.266 . S
H256 C228 0.929 . S
H257 C229 0.931 . S
H258 C231 0.930 . S
H259 C232 0.930 . S
H260 C237 0.929 . S
H261 C238 0.931 . S
H262 C240 0.930 . S
H263 C241 0.930 . S
C264 C265 1.367 . S
C264 C270 1.379 . S
C264 N272 1.356 . S
C265 C264 1.367 . S
C265 C271 1.359 1_565 S
C266 C267 1.341 1_545 S
C266 C271 1.379 . S
C266 N273 1.356 . S
C267 C266 1.341 1_565 S
C267 C270 1.385 . S
N268 C270 1.356 . S
N268 H280 0.984 . S
N268 H281 0.985 . S
N269 C271 1.356 . S
N269 H274 0.984 . S
N269 H275 0.985 . S
C270 C264 1.379 . S
C270 C267 1.385 . S
C270 N268 1.356 . S
C271 C265 1.359 1_545 S
C271 C266 1.379 . S
C271 N269 1.356 . S
N272 C264 1.356 . S
N272 H278 0.984 . S
N272 H279 0.984 . S
N273 C266 1.356 . S
N273 H276 0.984 . S
N273 H277 0.985 . S
H274 N269 0.984 . S
H275 N269 0.985 . S
H276 N273 0.984 . S
H277 N273 0.985 . S
H278 N272 0.984 . S
H279 N272 0.984 . S
H280 N268 0.984 . S
H281 N268 0.985 . S
C282 C283 1.363 . S
C282 C288 1.379 . S
C282 N290 1.356 . S
C283 C282 1.363 . S
C283 C289 1.363 . S
C284 C285 1.363 . S
C284 C289 1.379 . S
C284 N291 1.356 . S
C285 C284 1.363 . S
C285 C288 1.363 . S
N286 C288 1.356 . S
N286 H298 0.984 . S
N286 H299 0.985 . S
N287 C289 1.356 . S
N287 H292 0.984 . S
N287 H293 0.985 . S
C288 C282 1.379 . S
C288 C285 1.363 . S
C288 N286 1.356 . S
C289 C283 1.363 . S
C289 C284 1.379 . S
C289 N287 1.356 . S
N290 C282 1.356 . S
N290 H296 0.984 . S
N290 H297 0.984 . S
N291 C284 1.356 . S
N291 H294 0.984 . S
N291 H295 0.985 . S
H292 N287 0.984 . S
H293 N287 0.985 . S
H294 N291 0.984 . S
H295 N291 0.985 . S
H296 N290 0.984 . S
H297 N290 0.984 . S
H298 N286 0.984 . S
H299 N286 0.985 . S
C300 C301 1.363 . S
C300 C306 1.379 . S
C300 N308 1.356 . S
C301 C300 1.363 . S
C301 C307 1.363 . S
C302 C303 1.363 . S
C302 C307 1.379 . S
C302 N309 1.356 . S
C303 C302 1.363 . S
C303 C306 1.363 . S
N304 C306 1.356 . S
N304 H316 0.984 . S
N304 H317 0.985 . S
N305 C307 1.356 . S
N305 H310 0.984 . S
N305 H311 0.985 . S
C306 C300 1.379 . S
C306 C303 1.363 . S
C306 N304 1.356 . S
C307 C301 1.363 . S
C307 C302 1.379 . S
C307 N305 1.356 . S
N308 C300 1.356 . S
N308 H314 0.984 . S
N308 H315 0.984 . S
N309 C302 1.356 . S
N309 H312 0.984 . S
N309 H313 0.985 . S
H310 N305 0.984 . S
H311 N305 0.985 . S
H312 N309 0.984 . S
H313 N309 0.985 . S
H314 N308 0.984 . S
H315 N308 0.984 . S
H316 N304 0.984 . S
H317 N304 0.985 . S
C318 C319 1.369 . S
C318 C324 1.379 . S
C318 N326 1.356 . S
C319 C318 1.369 . S
C319 C325 1.357 1_455 S
C320 C321 1.345 1_655 S
C320 C325 1.379 . S
C320 N327 1.356 . S
C321 C320 1.345 1_455 S
C321 C324 1.381 . S
N322 C324 1.356 . S
N322 H334 0.984 . S
N322 H335 0.985 . S
N323 C325 1.356 . S
N323 H328 0.984 . S
N323 H329 0.985 . S
C324 C318 1.379 . S
C324 C321 1.381 . S
C324 N322 1.356 . S
C325 C319 1.357 1_655 S
C325 C320 1.379 . S
C325 N323 1.356 . S
N326 C318 1.356 . S
N326 H332 0.984 . S
N326 H333 0.984 . S
N327 C320 1.356 . S
N327 H330 0.984 . S
N327 H331 0.985 . S
H328 N323 0.984 . S
H329 N323 0.985 . S
H330 N327 0.984 . S
H331 N327 0.985 . S
H332 N326 0.984 . S
H333 N326 0.984 . S
H334 N322 0.984 . S
H335 N322 0.985 . S
C336 C337 1.372 . S
C336 C342 1.379 . S
C336 N344 1.356 . S
C337 C336 1.372 . S
C337 C343 1.354 1_545 S
C338 C339 1.363 1_565 S
C338 C343 1.379 . S
C338 N345 1.356 . S
C339 C338 1.363 1_545 S
C339 C342 1.363 . S
N340 C342 1.356 . S
N340 H352 0.984 . S
N340 H353 0.985 1_554 S
N341 C343 1.356 . S
N341 H346 0.984 . S
N341 H347 0.985 . S
C342 C336 1.379 . S
C342 C339 1.363 . S
C342 N340 1.356 . S
C343 C337 1.354 1_565 S
C343 C338 1.379 . S
C343 N341 1.356 . S
N344 C336 1.356 . S
N344 H350 0.984 . S
N344 H351 0.984 . S
N345 C338 1.356 . S
N345 H348 0.984 . S
N345 H349 0.985 . S
H346 N341 0.984 . S
H347 N341 0.985 . S
H348 N345 0.984 . S
H349 N345 0.985 . S
H350 N344 0.984 . S
H351 N344 0.984 . S
H352 N340 0.984 . S
H353 N340 0.985 1_556 S
C354 C355 1.363 . S
C354 C360 1.379 . S
C354 N362 1.356 . S
C355 C354 1.363 . S
C355 C361 1.363 . S
C356 C357 1.363 . S
C356 C361 1.379 . S
C356 N363 1.356 . S
C357 C356 1.363 . S
C357 C360 1.363 . S
N358 C360 1.356 . S
N358 H370 0.984 . S
N358 H371 0.985 1_554 S
N359 C361 1.356 . S
N359 H364 0.984 . S
N359 H365 0.985 . S
C360 C354 1.379 . S
C360 C357 1.363 . S
C360 N358 1.356 . S
C361 C355 1.363 . S
C361 C356 1.379 . S
C361 N359 1.356 . S
N362 C354 1.356 . S
N362 H368 0.984 . S
N362 H369 0.984 . S
N363 C356 1.356 . S
N363 H366 0.984 . S
N363 H367 0.985 . S
H364 N359 0.984 . S
H365 N359 0.985 . S
H366 N363 0.984 . S
H367 N363 0.985 . S
H368 N362 0.984 . S
H369 N362 0.984 . S
H370 N358 0.984 . S
H371 N358 0.985 1_556 S
C372 C373 1.363 . S
C372 C378 1.379 . S
C372 N380 1.356 . S
C373 C372 1.363 . S
C373 C379 1.363 . S
C374 C375 1.363 . S
C374 C379 1.379 . S
C374 N381 1.356 . S
C375 C374 1.363 . S
C375 C378 1.363 . S
N376 C378 1.356 . S
N376 H388 0.984 . S
N376 H389 0.985 . S
N377 C379 1.356 . S
N377 H382 0.984 . S
N377 H383 0.985 . S
C378 C372 1.379 . S
C378 C375 1.363 . S
C378 N376 1.356 . S
C379 C373 1.363 . S
C379 C374 1.379 . S
C379 N377 1.356 . S
N380 C372 1.356 . S
N380 H386 0.984 . S
N380 H387 0.984 . S
N381 C374 1.356 . S
N381 H384 0.984 1_554 S
N381 H385 0.985 . S
H382 N377 0.984 . S
H383 N377 0.985 . S
H384 N381 0.984 1_556 S
H385 N381 0.985 . S
H386 N380 0.984 . S
H387 N380 0.984 . S
H388 N376 0.984 . S
H389 N376 0.985 . S
C390 C391 1.372 . S
C390 C396 1.379 . S
C390 N398 1.356 . S
C391 C390 1.372 . S
C391 C397 1.354 1_655 S
C392 C393 1.336 1_455 S
C392 C397 1.379 . S
C392 N399 1.356 . S
C393 C392 1.336 1_655 S
C393 C396 1.390 . S
N394 C396 1.356 . S
N394 H406 0.984 . S
N394 H407 0.985 . S
N395 C397 1.356 . S
N395 H400 0.984 . S
N395 H401 0.985 . S
C396 C390 1.379 . S
C396 C393 1.390 . S
C396 N394 1.356 . S
C397 C391 1.354 1_455 S
C397 C392 1.379 . S
C397 N395 1.356 . S
N398 C390 1.356 . S
N398 H404 0.984 . S
N398 H405 0.984 . S
N399 C392 1.356 . S
N399 H402 0.984 . S
N399 H403 0.985 . S
H400 N395 0.984 . S
H401 N395 0.985 . S
H402 N399 0.984 . S
H403 N399 0.985 . S
H404 N398 0.984 . S
H405 N398 0.984 . S
H406 N394 0.984 . S
H407 N394 0.985 . S
C408 C409 1.363 . S
C408 C414 1.379 . S
C408 N416 1.356 1_554 S
C409 C408 1.363 . S
C409 C415 1.363 . S
C410 C411 1.363 . S
C410 C415 1.379 . S
C410 N417 1.356 . S
C411 C410 1.363 . S
C411 C414 1.363 . S
N412 C414 1.356 . S
N412 H424 0.984 1_554 S
N412 H425 0.985 . S
N413 C415 1.356 1_455 S
N413 H418 0.984 . S
N413 H419 0.985 . S
C414 C408 1.379 . S
C414 C411 1.363 . S
C414 N412 1.356 . S
C415 C409 1.363 . S
C415 C410 1.379 . S
C415 N413 1.356 1_655 S
N416 C408 1.356 1_556 S
N416 H422 0.984 . S
N416 H423 0.984 1_655 S
N417 C410 1.356 . S
N417 H420 0.984 . S
N417 H421 0.985 . S
H418 N413 0.984 . S
H419 N413 0.985 . S
H420 N417 0.984 . S
H421 N417 0.985 . S
H422 N416 0.984 . S
H423 N416 0.984 1_455 S
H424 N412 0.984 1_556 S
H425 N412 0.985 . S
C426 C427 1.356 1_545 S
C426 C432 1.379 1_545 S
C426 N434 1.356 . S
C427 C426 1.356 1_565 S
C427 C433 1.390 . S
C428 C429 1.363 . S
C428 C433 1.379 . S
C428 N435 1.356 . S
C429 C428 1.363 . S
C429 C432 1.363 . S
N430 C432 1.356 . S
N430 H442 0.984 1_565 S
N430 H443 0.985 . S
N431 C433 1.356 . S
N431 H436 0.986 . S
N431 H437 0.985 1_554 S
C432 C426 1.379 1_565 S
C432 C429 1.363 . S
C432 N430 1.356 . S
C433 C427 1.390 . S
C433 C428 1.379 . S
C433 N431 1.356 . S
N434 C426 1.356 . S
N434 H440 0.984 . S
N434 H441 0.984 . S
N435 C428 1.356 . S
N435 H438 0.984 . S
N435 H439 0.985 . S
H436 N431 0.986 . S
H437 N431 0.985 1_556 S
H438 N435 0.984 . S
H439 N435 0.985 . S
H440 N434 0.984 . S
H441 N434 0.984 . S
H442 N430 0.984 1_545 S
H443 N430 0.985 . S
C444 C445 1.363 . S
C444 C450 1.379 . S
C444 N452 1.356 . S
C445 C444 1.363 . S
C445 C451 1.363 . S
C446 C447 1.363 . S
C446 C451 1.379 . S
C446 N453 1.356 . S
C447 C446 1.363 . S
C447 C450 1.363 . S
N448 C450 1.356 . S
N448 H460 0.984 . S
N448 H461 0.985 . S
N449 C451 1.356 . S
N449 H454 0.984 . S
N449 H455 0.985 . S
C450 C444 1.379 . S
C450 C447 1.363 . S
C450 N448 1.356 . S
C451 C445 1.363 . S
C451 C446 1.379 . S
C451 N449 1.356 . S
N452 C444 1.356 . S
N452 H458 0.984 1_554 S
N452 H459 0.984 1_554 S
N453 C446 1.356 . S
N453 H456 0.984 . S
N453 H457 0.985 . S
H454 N449 0.984 . S
H455 N449 0.985 . S
H456 N453 0.984 . S
H457 N453 0.985 . S
H458 N452 0.984 1_556 S
H459 N452 0.984 1_556 S
H460 N448 0.984 . S
H461 N448 0.985 . S
C462 C463 1.363 . S
C462 C468 1.379 . S
C462 N470 1.356 . S
C463 C462 1.363 . S
C463 C469 1.363 . S
C464 C465 1.363 . S
C464 C469 1.379 . S
C464 N471 1.356 . S
C465 C464 1.363 . S
C465 C468 1.363 . S
N466 C468 1.356 . S
N466 H478 0.984 . S
N466 H479 0.985 . S
N467 C469 1.356 1_556 S
N467 H472 0.984 . S
N467 H473 0.985 . S
C468 C462 1.379 . S
C468 C465 1.363 . S
C468 N466 1.356 . S
C469 C463 1.363 . S
C469 C464 1.379 . S
C469 N467 1.356 1_554 S
N470 C462 1.356 . S
N470 H476 0.984 . S
N470 H477 0.984 . S
N471 C464 1.356 . S
N471 H474 0.984 . S
N471 H475 0.985 . S
H472 N467 0.984 . S
H473 N467 0.985 . S
H474 N471 0.984 . S
H475 N471 0.985 . S
H476 N470 0.984 . S
H477 N470 0.984 . S
H478 N466 0.984 . S
H479 N466 0.985 . S
C480 C481 1.363 . S
C480 C486 1.379 . S
C480 N488 1.356 . S
C481 C480 1.363 . S
C481 C487 1.363 1_455 S
C482 C483 1.363 . S
C482 C487 1.379 1_455 S
C482 N489 1.356 . S
C483 C482 1.363 . S
C483 C486 1.363 . S
N484 C486 1.356 . S
N484 H496 0.984 . S
N484 H497 0.985 . S
N485 C487 1.356 . S
N485 H490 0.984 . S
N485 H491 0.985 . S
C486 C480 1.379 . S
C486 C483 1.363 . S
C486 N484 1.356 . S
C487 C481 1.363 1_655 S
C487 C482 1.379 1_655 S
C487 N485 1.356 . S
N488 C480 1.356 . S
N488 H494 0.984 . S
N488 H495 0.984 . S
N489 C482 1.356 . S
N489 H492 0.984 . S
N489 H493 0.980 1_455 S
H490 N485 0.984 . S
H491 N485 0.985 . S
H492 N489 0.984 . S
H493 N489 0.980 1_655 S
H494 N488 0.984 . S
H495 N488 0.984 . S
H496 N484 0.984 . S
H497 N484 0.985 . S
C498 C499 1.363 . S
C498 C504 1.379 . S
C498 N506 1.369 . S
C499 C498 1.363 . S
C499 C505 1.363 . S
C500 C501 1.363 . S
C500 C505 1.379 . S
C500 N507 1.356 . S
C501 C500 1.363 . S
C501 C504 1.363 . S
N502 C504 1.356 . S
N502 H514 0.984 . S
N502 H515 0.985 . S
N503 C505 1.356 1_565 S
N503 H508 0.984 . S
N503 H509 0.985 . S
C504 C498 1.379 . S
C504 C501 1.363 . S
C504 N502 1.356 . S
C505 C499 1.363 . S
C505 C500 1.379 . S
C505 N503 1.356 1_545 S
N506 C498 1.369 . S
N506 H512 0.992 . S
N506 H513 0.964 1_545 S
N507 C500 1.356 . S
N507 H510 0.984 . S
N507 H511 0.985 . S
H508 N503 0.984 . S
H509 N503 0.985 . S
H510 N507 0.984 . S
H511 N507 0.985 . S
H512 N506 0.992 . S
H513 N506 0.964 1_565 S
H514 N502 0.984 . S
H515 N502 0.985 . S
C516 C517 1.363 . S
C516 C522 1.379 . S
C516 N524 1.356 . S
C517 C516 1.363 . S
C517 C523 1.363 . S
C518 C519 1.363 . S
C518 C523 1.379 . S
C518 N525 1.356 . S
C519 C518 1.363 . S
C519 C522 1.363 . S
N520 C522 1.356 . S
N520 H532 0.984 . S
N520 H533 0.985 . S
N521 C523 1.356 . S
N521 H526 0.984 . S
N521 H527 0.985 . S
C522 C516 1.379 . S
C522 C519 1.363 . S
C522 N520 1.356 . S
C523 C517 1.363 . S
C523 C518 1.379 . S
C523 N521 1.356 . S
N524 C516 1.356 . S
N524 H530 0.984 . S
N524 H531 0.984 . S
N525 C518 1.356 . S
N525 H528 0.984 . S
N525 H529 0.985 . S
H526 N521 0.984 . S
H527 N521 0.985 . S
H528 N525 0.984 . S
H529 N525 0.985 . S
H530 N524 0.984 . S
H531 N524 0.984 . S
H532 N520 0.984 . S
H533 N520 0.985 . S
C534 C535 1.363 . S
C534 C540 1.379 . S
C534 N542 1.356 . S
C535 C534 1.363 . S
C535 C541 1.363 . S
C536 C537 1.363 . S
C536 C541 1.379 . S
C536 N543 1.356 . S
C537 C536 1.363 . S
C537 C540 1.363 . S
N538 C540 1.356 . S
N538 H550 0.984 . S
N538 H551 0.985 . S
N539 C541 1.356 . S
N539 H544 0.984 . S
N539 H545 0.985 . S
C540 C534 1.379 . S
C540 C537 1.363 . S
C540 N538 1.356 . S
C541 C535 1.363 . S
C541 C536 1.379 . S
C541 N539 1.356 . S
N542 C534 1.356 . S
N542 H548 0.984 . S
N542 H549 0.984 . S
N543 C536 1.356 . S
N543 H546 0.984 . S
N543 H547 0.985 . S
H544 N539 0.984 . S
H545 N539 0.985 . S
H546 N543 0.984 . S
H547 N543 0.985 . S
H548 N542 0.984 . S
H549 N542 0.984 . S
H550 N538 0.984 . S
H551 N538 0.985 . S
C552 C553 1.363 1_655 S
C552 C558 1.379 . S
C552 N560 1.356 . S
C553 C552 1.363 1_455 S
C553 C559 1.363 1_556 S
C554 C555 1.363 1_554 S
C554 C559 1.379 . S
C554 N561 1.356 . S
C555 C554 1.363 1_556 S
C555 C558 1.363 1_455 S
N556 C558 1.356 . S
N556 H568 0.984 . S
N556 H569 0.985 . S
N557 C559 1.356 . S
N557 H562 0.984 . S
N557 H563 0.985 . S
C558 C552 1.379 . S
C558 C555 1.363 1_655 S
C558 N556 1.356 . S
C559 C553 1.363 1_554 S
C559 C554 1.379 . S
C559 N557 1.356 . S
N560 C552 1.356 . S
N560 H566 0.984 . S
N560 H567 0.984 . S
N561 C554 1.356 . S
N561 H564 0.984 . S
N561 H565 0.985 . S
H562 N557 0.984 . S
H563 N557 0.985 . S
H564 N561 0.984 . S
H565 N561 0.985 . S
H566 N560 0.984 . S
H567 N560 0.984 . S
H568 N556 0.984 . S
H569 N556 0.985 . S
C570 C571 1.363 1_565 S
C570 C576 1.379 . S
C570 N578 1.356 . S
C571 C570 1.363 1_545 S
C571 C577 1.363 . S
C572 C573 1.363 . S
C572 C577 1.379 . S
C572 N579 1.356 1_556 S
C573 C572 1.363 . S
C573 C576 1.363 1_545 S
N574 C576 1.356 . S
N574 H586 0.984 . S
N574 H587 0.985 . S
N575 C577 1.356 1_554 S
N575 H580 0.984 . S
N575 H581 0.985 . S
C576 C570 1.379 . S
C576 C573 1.363 1_565 S
C576 N574 1.356 . S
C577 C571 1.363 . S
C577 C572 1.379 . S
C577 N575 1.356 1_556 S
N578 C570 1.356 . S
N578 H584 0.984 . S
N578 H585 0.984 . S
N579 C572 1.356 1_554 S
N579 H582 0.984 . S
N579 H583 0.985 . S
H580 N575 0.984 . S
H581 N575 0.985 . S
H582 N579 0.984 . S
H583 N579 0.985 . S
H584 N578 0.984 . S
H585 N578 0.984 . S
H586 N574 0.984 . S
H587 N574 0.985 . S
C588 C589 1.363 1_554 S
C588 C594 1.379 . S
C588 N596 1.356 . S
C589 C588 1.363 1_556 S
C589 C595 1.363 . S
C590 C591 1.363 . S
C590 C595 1.379 . S
C590 N597 1.356 . S
C591 C590 1.363 . S
C591 C594 1.363 1_556 S
N592 C594 1.356 . S
N592 H604 0.984 . S
N592 H605 0.985 . S
N593 C595 1.356 . S
N593 H598 0.984 . S
N593 H599 0.985 . S
C594 C588 1.379 . S
C594 C591 1.363 1_554 S
C594 N592 1.356 . S
C595 C589 1.363 . S
C595 C590 1.379 . S
C595 N593 1.356 . S
N596 C588 1.356 . S
N596 H602 0.984 . S
N596 H603 0.984 . S
N597 C590 1.356 . S
N597 H600 0.984 . S
N597 H601 0.985 . S
H598 N593 0.984 . S
H599 N593 0.985 . S
H600 N597 0.984 . S
H601 N597 0.985 . S
H602 N596 0.984 . S
H603 N596 0.984 . S
H604 N592 0.984 . S
H605 N592 0.985 . S
C606 C607 1.363 . S
C606 C612 1.379 . S
C606 N614 1.356 . S
C607 C606 1.363 . S
C607 C613 1.363 1_556 S
C608 C609 1.363 1_554 S
C608 C613 1.379 . S
C608 N615 1.356 . S
C609 C608 1.363 1_556 S
C609 C612 1.363 . S
N610 C612 1.356 . S
N610 H622 0.984 . S
N610 H623 0.985 . S
N611 C613 1.356 . S
N611 H616 0.984 . S
N611 H617 0.985 . S
C612 C606 1.379 . S
C612 C609 1.363 . S
C612 N610 1.356 . S
C613 C607 1.363 1_554 S
C613 C608 1.379 . S
C613 N611 1.356 . S
N614 C606 1.356 . S
N614 H620 0.984 . S
N614 H621 0.984 . S
N615 C608 1.356 . S
N615 H618 0.984 . S
N615 H619 0.985 . S
H616 N611 0.984 . S
H617 N611 0.985 . S
H618 N615 0.984 . S
H619 N615 0.985 . S
H620 N614 0.984 . S
H621 N614 0.984 . S
H622 N610 0.984 . S
H623 N610 0.985 . S
C624 C625 1.363 . S
C624 C630 1.379 . S
C624 N632 1.356 . S
C625 C624 1.363 . S
C625 C631 1.363 1_655 S
C626 C627 1.363 1_455 S
C626 C631 1.379 . S
C626 N633 1.356 . S
C627 C626 1.363 1_655 S
C627 C630 1.363 . S
N628 C630 1.356 . S
N628 H640 0.984 1_556 S
N628 H641 0.985 . S
N629 C631 1.356 . S
N629 H634 0.984 . S
N629 H635 0.985 . S
C630 C624 1.379 . S
C630 C627 1.363 . S
C630 N628 1.356 . S
C631 C625 1.363 1_455 S
C631 C626 1.379 . S
C631 N629 1.356 . S
N632 C624 1.356 . S
N632 H638 0.984 1_556 S
N632 H639 0.984 . S
N633 C626 1.356 . S
N633 H636 0.984 . S
N633 H637 0.985 . S
H634 N629 0.984 . S
H635 N629 0.985 . S
H636 N633 0.984 . S
H637 N633 0.985 . S
H638 N632 0.984 1_554 S
H639 N632 0.984 . S
H640 N628 0.984 1_554 S
H641 N628 0.985 . S
C642 C643 1.363 . S
C642 C648 1.379 . S
C642 N650 1.356 . S
C643 C642 1.363 . S
C643 C649 1.363 1_565 S
C644 C645 1.363 1_545 S
C644 C649 1.379 . S
C644 N651 1.356 . S
C645 C644 1.363 1_565 S
C645 C648 1.363 . S
N646 C648 1.356 . S
N646 H658 0.984 1_556 S
N646 H659 0.985 . S
N647 C649 1.356 . S
N647 H652 0.984 . S
N647 H653 0.985 . S
C648 C642 1.379 . S
C648 C645 1.363 . S
C648 N646 1.356 . S
C649 C643 1.363 1_545 S
C649 C644 1.379 . S
C649 N647 1.356 . S
N650 C642 1.356 . S
N650 H656 0.984 1_556 S
N650 H657 0.984 . S
N651 C644 1.356 . S
N651 H654 0.984 . S
N651 H655 0.985 . S
H652 N647 0.984 . S
H653 N647 0.985 . S
H654 N651 0.984 . S
H655 N651 0.985 . S
H656 N650 0.984 1_554 S
H657 N650 0.984 . S
H658 N646 0.984 1_554 S
H659 N646 0.985 . S
C660 C661 1.363 . S
C660 C666 1.379 . S
C660 N668 1.356 . S
C661 C660 1.363 . S
C661 C667 1.363 . S
C662 C663 1.363 . S
C662 C667 1.379 . S
C662 N669 1.356 . S
C663 C662 1.363 . S
C663 C666 1.363 . S
N664 C666 1.356 . S
N664 H676 0.984 1_556 S
N664 H677 0.985 . S
N665 C667 1.356 . S
N665 H670 0.984 . S
N665 H671 0.985 . S
C666 C660 1.379 . S
C666 C663 1.363 . S
C666 N664 1.356 . S
C667 C661 1.363 . S
C667 C662 1.379 . S
C667 N665 1.356 . S
N668 C660 1.356 . S
N668 H674 0.984 1_556 S
N668 H675 0.984 . S
N669 C662 1.356 . S
N669 H672 0.984 . S
N669 H673 0.985 . S
H670 N665 0.984 . S
H671 N665 0.985 . S
H672 N669 0.984 . S
H673 N669 0.985 . S
H674 N668 0.984 1_554 S
H675 N668 0.984 . S
H676 N664 0.984 1_554 S
H677 N664 0.985 . S
C678 C679 1.363 . S
C678 C684 1.379 . S
C678 N686 1.356 . S
C679 C678 1.363 . S
C679 C685 1.363 . S
C680 C681 1.363 . S
C680 C685 1.379 . S
C680 N687 1.356 . S
C681 C680 1.363 . S
C681 C684 1.363 . S
N682 C684 1.356 . S
N682 H694 0.984 . S
N682 H695 0.985 . S
N683 C685 1.356 . S
N683 H688 0.984 . S
N683 H689 0.985 1_556 S
C684 C678 1.379 . S
C684 C681 1.363 . S
C684 N682 1.356 . S
C685 C679 1.363 . S
C685 C680 1.379 . S
C685 N683 1.356 . S
N686 C678 1.356 . S
N686 H692 0.984 . S
N686 H693 0.984 . S
N687 C680 1.356 . S
N687 H690 0.984 . S
N687 H691 0.985 1_556 S
H688 N683 0.984 . S
H689 N683 0.985 1_554 S
H690 N687 0.984 . S
H691 N687 0.985 1_554 S
H692 N686 0.984 . S
H693 N686 0.984 . S
H694 N682 0.984 . S
H695 N682 0.985 . S
C265 N80 1.991 . S
C267 C113 2.169 . S
C285 C153 2.193 . S
C283 N93 2.017 . S
C303 C193 2.209 . S
C301 N54 2.038 . S
C321 C233 2.186 1_455 S
C319 N67 2.012 1_455 S
C339 C122 2.170 1_554 S
C337 N28 1.995 1_545 S
C355 N41 2.014 . S
C357 C162 2.195 1_554 S
C373 N2 2.031 . S
C375 C202 2.208 1_554 S
C391 N15 2.012 . S
C393 C242 2.186 1_654 S
C411 C119 0.788 . S
C409 N70 0.794 . S
C429 C159 0.783 . S
C427 N83 0.788 . S
C447 C199 0.776 . S
C445 N96 0.782 . S
C463 N57 0.785 . S
C465 C239 0.775 . S
C481 N18 0.797 1_455 S
C483 C110 0.790 . S
C501 C150 0.783 . S
C499 N31 0.789 1_545 S
C519 C190 0.776 . S
C517 N44 0.783 . S
C535 N5 0.786 . S
C537 C230 0.780 . S
C553 N66 2.413 1_455 S
C555 C123 2.528 . S
C571 N79 2.358 1_545 S
C573 C163 2.473 . S
C591 C203 2.453 . S
C589 N92 2.345 . S
C609 C243 2.511 . S
C607 N53 2.396 . S
C625 N14 2.403 . S
C627 C114 2.535 . S
C645 C154 2.474 . S
C643 N27 2.346 . S
C663 C194 2.453 . S
C661 N40 2.324 . S
C679 N1 2.378 . S
C681 C234 2.514 . S
