# Generated by pormake.
# Topology pyr, (3,6)-cn, num edge types: 1
# Building blocks:
#     Node 0, Type 0, BuildingBlock: ESEHIV_clean_linker_0, # of connection points: 3
#     Node 1, Type 0, BuildingBlock: ESEHIV_clean_linker_0, # of connection points: 3
#     Node 2, Type 0, BuildingBlock: ESEHIV_clean_linker_0, # of connection points: 3
#     Node 3, Type 0, BuildingBlock: ESEHIV_clean_linker_0, # of connection points: 3
#     Node 4, Type 0, BuildingBlock: ESEHIV_clean_linker_0, # of connection points: 3
#     Node 5, Type 0, BuildingBlock: ESEHIV_clean_linker_0, # of connection points: 3
#     Node 6, Type 0, BuildingBlock: ESEHIV_clean_linker_0, # of connection points: 3
#     Node 7, Type 0, BuildingBlock: ESEHIV_clean_linker_0, # of connection points: 3
#     Node 8, Type 1, BuildingBlock: GEDQOX_clean_sbu_0, # of connection points: 6
#     Node 9, Type 1, BuildingBlock: GEDQOX_clean_sbu_0, # of connection points: 6
#     Node 10, Type 1, BuildingBlock: GEDQOX_clean_sbu_0, # of connection points: 6
#     Node 11, Type 1, BuildingBlock: GEDQOX_clean_sbu_0, # of connection points: 6
#     Edge 12, Type (0, 1), BuildingBlock: KIFKEQ_clean_linker_1, # of connection points: 2
#     Edge 13, Type (0, 1), BuildingBlock: KIFKEQ_clean_linker_1, # of connection points: 2
#     Edge 14, Type (0, 1), BuildingBlock: KIFKEQ_clean_linker_1, # of connection points: 2
#     Edge 15, Type (0, 1), BuildingBlock: KIFKEQ_clean_linker_1, # of connection points: 2
#     Edge 16, Type (0, 1), BuildingBlock: KIFKEQ_clean_linker_1, # of connection points: 2
#     Edge 17, Type (0, 1), BuildingBlock: KIFKEQ_clean_linker_1, # of connection points: 2
#     Edge 18, Type (0, 1), BuildingBlock: KIFKEQ_clean_linker_1, # of connection points: 2
#     Edge 19, Type (0, 1), BuildingBlock: KIFKEQ_clean_linker_1, # of connection points: 2
#     Edge 20, Type (0, 1), BuildingBlock: KIFKEQ_clean_linker_1, # of connection points: 2
#     Edge 21, Type (0, 1), BuildingBlock: KIFKEQ_clean_linker_1, # of connection points: 2
#     Edge 22, Type (0, 1), BuildingBlock: KIFKEQ_clean_linker_1, # of connection points: 2
#     Edge 23, Type (0, 1), BuildingBlock: KIFKEQ_clean_linker_1, # of connection points: 2
#     Edge 24, Type (0, 1), BuildingBlock: KIFKEQ_clean_linker_1, # of connection points: 2
#     Edge 25, Type (0, 1), BuildingBlock: KIFKEQ_clean_linker_1, # of connection points: 2
#     Edge 26, Type (0, 1), BuildingBlock: KIFKEQ_clean_linker_1, # of connection points: 2
#     Edge 27, Type (0, 1), BuildingBlock: KIFKEQ_clean_linker_1, # of connection points: 2
#     Edge 28, Type (0, 1), BuildingBlock: KIFKEQ_clean_linker_1, # of connection points: 2
#     Edge 29, Type (0, 1), BuildingBlock: KIFKEQ_clean_linker_1, # of connection points: 2
#     Edge 30, Type (0, 1), BuildingBlock: KIFKEQ_clean_linker_1, # of connection points: 2
#     Edge 31, Type (0, 1), BuildingBlock: KIFKEQ_clean_linker_1, # of connection points: 2
#     Edge 32, Type (0, 1), BuildingBlock: KIFKEQ_clean_linker_1, # of connection points: 2
#     Edge 33, Type (0, 1), BuildingBlock: KIFKEQ_clean_linker_1, # of connection points: 2
#     Edge 34, Type (0, 1), BuildingBlock: KIFKEQ_clean_linker_1, # of connection points: 2
#     Edge 35, Type (0, 1), BuildingBlock: KIFKEQ_clean_linker_1, # of connection points: 2
# Relax obj value: 0.136
# Max RMSD: 0.165
# Mean RMSD: 0.067
data_MOF--net-pyr--node1-GEDQOX_clean_sbu_0--node2-ESEHIV_clean_linker_0--edge1-KIFKEQ_clean_linker_1
_symmetry_space_group_name_H-M    P1
_symmetry_Int_Tables_number       1
_symmetry_cell_setting            triclinic
loop_
_symmetry_equiv_pos_as_xyz
'x, y, z'
_cell_length_a     38.172112
_cell_length_b     38.832622
_cell_length_c     33.598526
_cell_angle_alpha  88.254215
_cell_angle_beta   90.562067
_cell_angle_gamma 85.417681
loop_
_atom_site_label
_atom_site_type_symbol
_atom_site_fract_x
_atom_site_fract_y
_atom_site_fract_z
_atom_type_partial_charge
H0 H 0.15767 0.21147 0.2089 0.0
H1 H 0.24034 0.12974 0.20992 0.0
H2 H 0.24181 0.21474 0.12404 0.0
C3 C 0.18225 0.2007 0.19704 0.0
C4 C 0.19742 0.21802 0.16418 0.0
C5 C 0.19732 0.16895 0.21422 0.0
C6 C 0.22879 0.15402 0.19724 0.0
C7 C 0.24564 0.1699 0.16447 0.0
C8 C 0.22917 0.20185 0.14831 0.0
H9 H 0.3545 0.82413 0.8088 0.0
H10 H 0.4509 0.75787 0.81435 0.0
H11 H 0.36377 0.73148 0.7426 0.0
C12 C 0.37 0.80094 0.80046 0.0
C13 C 0.35535 0.77886 0.77382 0.0
C14 C 0.40463 0.79412 0.81512 0.0
C15 C 0.42393 0.76331 0.80428 0.0
C16 C 0.40871 0.73998 0.77916 0.0
C17 C 0.3745 0.74808 0.76422 0.0
H18 H 0.79751 0.36944 0.88644 0.0
H19 H 0.79407 0.44347 0.78762 0.0
H20 H 0.72113 0.36442 0.79331 0.0
C21 C 0.78583 0.37988 0.85864 0.0
C22 C 0.75835 0.36352 0.84141 0.0
C23 C 0.79911 0.40873 0.8394 0.0
C24 C 0.78406 0.42127 0.80262 0.0
C25 C 0.75602 0.40518 0.78534 0.0
C26 C 0.74345 0.37647 0.80531 0.0
H27 H 0.81771 0.86896 0.34976 0.0
H28 H 0.88035 0.86879 0.24392 0.0
H29 H 0.79462 0.80374 0.25382 0.0
C30 C 0.8226 0.86043 0.31974 0.0
C31 C 0.80211 0.83572 0.30371 0.0
C32 C 0.85076 0.87259 0.29828 0.0
C33 C 0.8581 0.86013 0.26013 0.0
C34 C 0.83729 0.83588 0.24336 0.0
C35 C 0.80919 0.82421 0.26529 0.0
H36 H 0.84535 0.91647 0.84471 0.0
H37 H 0.92771 0.83446 0.84601 0.0
H38 H 0.84379 0.83193 0.93123 0.0
C39 C 0.85683 0.89221 0.85753 0.0
C40 C 0.84001 0.87659 0.8905 0.0
C41 C 0.88819 0.87706 0.84053 0.0
C42 C 0.90318 0.84536 0.85788 0.0
C43 C 0.88803 0.82825 0.89088 0.0
C44 C 0.8564 0.84464 0.9068 0.0
H45 H 0.6282 0.29721 0.23902 0.0
H46 H 0.72194 0.22817 0.23693 0.0
H47 H 0.71535 0.31193 0.31743 0.0
C48 C 0.65464 0.28986 0.24986 0.0
C49 C 0.67031 0.30976 0.27862 0.0
C50 C 0.67333 0.26037 0.23477 0.0
C51 C 0.7077 0.25094 0.24846 0.0
C52 C 0.72312 0.2695 0.27822 0.0
C53 C 0.70422 0.29871 0.29298 0.0
H54 H 0.28576 0.68408 0.173 0.0
H55 H 0.28443 0.60926 0.27086 0.0
H56 H 0.35992 0.68584 0.26892 0.0
C57 C 0.29594 0.6734 0.20137 0.0
C58 C 0.3236 0.68864 0.2198 0.0
C59 C 0.28133 0.64471 0.21956 0.0
C60 C 0.29567 0.63097 0.25623 0.0
C61 C 0.32383 0.64595 0.27468 0.0
C62 C 0.33751 0.67462 0.25591 0.0
H63 H 0.19599 0.17352 0.81412 0.0
H64 H 0.25929 0.17443 0.70876 0.0
H65 H 0.2815 0.23897 0.80563 0.0
C66 C 0.21831 0.18235 0.79818 0.0
C67 C 0.23896 0.20652 0.81538 0.0
C68 C 0.22604 0.17012 0.76 0.0
C69 C 0.25417 0.18269 0.73884 0.0
C70 C 0.27434 0.20746 0.75525 0.0
C71 C 0.26708 0.21854 0.79378 0.0
Nd72 Nd 0.06377 0.98887 0.52165 0.0
Nd73 Nd 1.02018 0.05356 0.52982 0.0
C74 C 0.09964 0.93042 0.50409 0.0
C75 C 0.11792 0.90311 0.52935 0.0
C76 C 0.14591 0.88227 0.51404 0.0
C77 C 0.16769 0.8609 0.53966 0.0
C78 C 0.16184 0.86027 0.58098 0.0
C79 C 0.13237 0.87962 0.59578 0.0
C80 C 0.11066 0.90098 0.57017 0.0
C81 C 0.08683 0.02793 0.5821 0.0
C82 C 1.00891 0.98894 0.59556 0.0
C83 C 0.98127 0.11089 0.54401 0.0
C84 C 0.95738 0.13165 0.5163 0.0
C85 C 0.95767 0.16775 0.5136 0.0
C86 C 0.93746 0.18684 0.48426 0.0
C87 C 0.91692 0.16996 0.4571 0.0
C88 C 0.91624 0.13389 0.46056 0.0
C89 C 0.93632 0.11497 0.48963 0.0
C90 C 0.99697 1.01388 0.4699 0.0
C91 C 0.07659 0.05437 0.45764 0.0
O92 O 0.06535 0.93359 0.50635 0.0
O93 O 0.11348 0.9601 0.50472 0.0
O94 O 0.08757 0.99456 0.58381 0.0
O95 O 0.07615 0.03978 0.54842 0.0
O96 O 1.02733 0.96881 0.5709 0.0
O97 O 1.00623 0.02297 0.58863 0.0
O98 O 1.01469 0.11064 0.53585 0.0
O99 O 0.97183 0.08015 0.55372 0.0
O100 O 0.9965 0.04714 0.46769 0.0
O101 O 1.00762 1.00255 0.50373 0.0
O102 O 0.05811 0.07418 0.48254 0.0
O103 O 0.07895 0.02028 0.46387 0.0
H104 H 0.15194 0.88378 0.48262 0.0
H105 H 0.18998 0.84596 0.52738 0.0
H106 H 0.12739 0.88005 0.62745 0.0
H107 H 0.08933 0.91721 0.58256 0.0
H108 H 0.97407 0.18105 0.53358 0.0
H109 H 0.93854 0.21462 0.48224 0.0
H110 H 0.9001 0.12015 0.44076 0.0
H111 H 0.93573 0.08712 0.49071 0.0
Nd112 Nd 0.54522 1.00512 0.05928 0.0
Nd113 Nd 0.5415 0.04379 0.99533 0.0
C114 C 0.54855 0.95239 0.11159 0.0
C115 C 0.52428 0.92583 0.12037 0.0
C116 C 0.53475 0.89746 0.14558 0.0
C117 C 0.51166 0.87198 0.15348 0.0
C118 C 0.47773 0.87452 0.13622 0.0
C119 C 0.46757 0.90293 0.11057 0.0
C120 C 0.49066 0.92836 0.10272 0.0
C121 C 0.48553 0.05235 0.06634 0.0
C122 C 0.50292 0.97776 0.9831 0.0
C123 C 0.53942 0.09634 0.94303 0.0
C124 C 0.56471 0.12224 0.9357 0.0
C125 C 0.55419 0.15362 0.91583 0.0
C126 C 0.57797 0.17898 0.91099 0.0
C127 C 0.61258 0.17322 0.92597 0.0
C128 C 0.62292 0.14167 0.94592 0.0
C129 C 0.59914 0.11645 0.95087 0.0
C130 C 0.60095 0.99615 0.98862 0.0
C131 C 0.58279 0.07224 0.07125 0.0
O132 O 0.56298 0.9509 0.07666 0.0
O133 O 0.53746 0.98381 0.12031 0.0
O134 O 0.51022 0.04573 0.09275 0.0
O135 O 0.49371 0.03558 0.03507 0.0
O136 O 0.52207 0.9684 1.01481 0.0
O137 O 0.50088 1.01013 0.97089 0.0
O138 O 0.52415 0.098 0.97748 0.0
O139 O 0.54992 0.06475 0.93429 0.0
O140 O 0.57613 1.00251 0.96231 0.0
O141 O 0.59293 1.01337 1.01962 0.0
O142 O 0.56385 0.08098 0.03929 0.0
O143 O 0.58493 0.04002 0.08418 0.0
H144 H 0.56075 0.895 0.15909 0.0
H145 H 0.52046 0.85017 0.17289 0.0
H146 H 0.44155 0.90589 0.09716 0.0
H147 H 0.48224 0.95012 0.08301 0.0
H148 H 0.5276 0.15857 0.90432 0.0
H149 H 0.5694 0.20293 0.89515 0.0
H150 H 0.64925 0.13669 0.9582 0.0
H151 H 0.60751 0.09253 0.96693 0.0
Nd152 Nd 0.51158 0.49702 0.53687 0.0
Nd153 Nd 0.56307 0.5496 0.52614 0.0
C154 C 0.45598 0.4606 0.54269 0.0
C155 C 0.4384 0.43661 0.56863 0.0
C156 C 0.406 0.42593 0.55624 0.0
C157 C 0.39066 0.39969 0.57732 0.0
C158 C 0.40752 0.38369 0.6112 0.0
C159 C 0.4394 0.39545 0.62452 0.0
C160 C 0.45486 0.4217 0.60321 0.0
C161 C 0.57477 0.47996 0.57637 0.0
C162 C 0.5119 0.55946 0.59928 0.0
C163 C 0.6178 0.58718 0.52075 0.0
C164 C 0.63583 0.61048 0.49434 0.0
C165 C 0.66809 0.62138 0.50688 0.0
C166 C 0.68373 0.64718 0.48533 0.0
C167 C 0.66729 0.66252 0.45084 0.0
C168 C 0.63557 0.65049 0.4374 0.0
C169 C 0.61984 0.62468 0.45915 0.0
C170 C 0.49965 0.5664 0.48699 0.0
C171 C 0.56317 0.48652 0.46381 0.0
O172 O 0.45557 0.49286 0.55285 0.0
O173 O 0.4861 0.44875 0.52846 0.0
O174 O 0.55662 0.45751 0.55968 0.0
O175 O 0.55836 0.50921 0.57447 0.0
O176 O 0.49122 0.54045 0.57899 0.0
O177 O 0.54506 0.5604 0.58935 0.0
O178 O 0.6195 0.55436 0.5126 0.0
O179 O 0.58686 0.59897 0.53283 0.0
O180 O 0.51733 0.58878 0.50451 0.0
O181 O 0.5164 0.5373 0.48839 0.0
O182 O 0.5832 0.50753 0.48211 0.0
O183 O 0.5305 0.48397 0.4748 0.0
H184 H 0.39305 0.43718 0.5295 0.0
H185 H 0.36579 0.39157 0.56679 0.0
H186 H 0.453 0.38349 0.65047 0.0
H187 H 0.48007 0.42958 0.61294 0.0
H188 H 0.68068 0.61069 0.53408 0.0
H189 H 0.70847 0.65549 0.49599 0.0
H190 H 0.62229 0.66193 0.41099 0.0
H191 H 0.59473 0.61663 0.44928 0.0
Nd192 Nd 1.01509 0.51973 0.05597 0.0
Nd193 Nd 0.07078 0.52675 0.99893 0.0
C194 C 0.95362 0.52746 0.08998 0.0
C195 C 0.93607 0.56136 0.09934 0.0
C196 C 0.90058 0.56978 0.08931 0.0
C197 C 0.88596 0.60393 0.09188 0.0
C198 C 0.90679 0.63012 0.10409 0.0
C199 C 0.94207 0.6213 0.11483 0.0
C200 C 0.95656 0.58745 0.11229 0.0
C201 C 0.0733 0.54542 0.08877 0.0
C202 C 1.01459 0.5939 0.99956 0.0
C203 C 0.13209 0.51844 0.96478 0.0
C204 C 0.14878 0.4842 0.9552 0.0
C205 C 0.1836 0.47423 0.96694 0.0
C206 C 0.19689 0.43961 0.96478 0.0
C207 C 0.17534 0.41448 0.9513 0.0
C208 C 0.14086 0.42483 0.93863 0.0
C209 C 0.12771 0.45916 0.9407 0.0
C210 C 1.01246 0.5016 0.96605 0.0
C211 C 0.07123 0.45258 0.05541 0.0
O212 O 0.95684 0.52214 0.0519 0.0
O213 O 0.98252 0.51821 0.11019 0.0
O214 O 0.05503 0.52305 0.10674 0.0
O215 O 0.05998 0.55479 0.05523 0.0
O216 O 0.99716 0.57286 1.02259 0.0
O217 O 0.04713 0.58374 0.989 0.0
O218 O 0.12907 0.52367 1.00292 0.0
O219 O 0.10333 0.52851 0.94468 0.0
O220 O 1.03093 0.52381 0.94815 0.0
O221 O 1.02578 0.4919 0.99952 0.0
O222 O 0.08863 0.47357 0.0323 0.0
O223 O 0.03875 0.46279 0.06608 0.0
H224 H 0.88456 0.55023 0.07832 0.0
H225 H 0.85867 0.61 0.0834 0.0
H226 H 0.95865 0.64063 0.12521 0.0
H227 H 0.98425 0.58198 0.11932 0.0
H228 H 0.20003 0.49293 0.97912 0.0
H229 H 0.22361 0.43233 0.97471 0.0
H230 H 0.12382 0.40631 0.92724 0.0
H231 H 0.10047 0.46576 0.93227 0.0
H232 H 0.16533 0.1991 0.28012 0.0
H233 H 0.18961 0.09899 0.23106 0.0
H234 H 0.13804 0.17237 0.33698 0.0
H235 H 0.1611 0.07197 0.28716 0.0
H236 H 0.12653 0.02474 0.40628 0.0
H237 H 0.15561 0.05119 0.35012 0.0
H238 H 0.09498 0.14787 0.36952 0.0
H239 H 0.06752 0.1216 0.42666 0.0
C240 C 0.16455 0.17128 0.28101 0.0
C241 C 0.18006 0.15165 0.25008 0.0
C242 C 0.14846 0.1556 0.3141 0.0
C243 C 0.14646 0.11932 0.318 0.0
C244 C 0.16204 0.09972 0.28685 0.0
C245 C 0.17858 0.11543 0.25399 0.0
C246 C 0.11941 0.05171 0.39869 0.0
C247 C 0.09441 0.07071 0.42186 0.0
C248 C 0.13612 0.06715 0.36579 0.0
C249 C 0.1284 0.10237 0.35388 0.0
C250 C 0.10299 0.12112 0.37708 0.0
C251 C 0.08668 0.10579 0.41026 0.0
H252 H 0.4512 0.78406 0.87876 0.0
H253 H 0.39489 0.8646 0.80638 0.0
H254 H 0.47556 0.828 0.91888 0.0
H255 H 0.41626 0.90787 0.84822 0.0
H256 H 0.48463 0.98216 0.90449 0.0
H257 H 0.46371 0.93728 0.86381 0.0
H258 H 0.46346 0.86871 0.96775 0.0
H259 H 0.48659 0.91328 1.00787 0.0
C260 C 0.44389 0.81104 0.87143 0.0
C261 C 0.42064 0.82055 0.83951 0.0
C262 C 0.45743 0.83633 0.89487 0.0
C263 C 0.44785 0.87178 0.88718 0.0
C264 C 0.42486 0.88108 0.85501 0.0
C265 C 0.41191 0.85599 0.8313 0.0
C266 C 0.47983 0.95759 0.91869 0.0
C267 C 0.48706 0.95135 0.95941 0.0
C268 C 0.46767 0.93173 0.89536 0.0
C269 C 0.46159 0.89909 0.91227 0.0
C270 C 0.46836 0.89313 0.95332 0.0
C271 C 0.48125 0.91884 0.9765 0.0
H272 H 0.73177 0.36735 0.72511 0.0
H273 H 0.7399 0.4727 0.75942 0.0
H274 H 0.69145 0.387 0.67209 0.0
H275 H 0.70217 0.49305 0.70324 0.0
H276 H 0.59526 0.51438 0.64069 0.0
H277 H 0.64417 0.49831 0.68598 0.0
H278 H 0.67578 0.41171 0.61255 0.0
H279 H 0.62474 0.4265 0.56943 0.0
C280 C 0.72544 0.39492 0.72083 0.0
C281 C 0.73826 0.41833 0.74747 0.0
C282 C 0.70259 0.40637 0.6897 0.0
C283 C 0.69263 0.4418 0.6833 0.0
C284 C 0.70807 0.46548 0.7078 0.0
C285 C 0.73037 0.45388 0.73971 0.0
C286 C 0.61276 0.4919 0.63436 0.0
C287 C 0.60601 0.47132 0.602 0.0
C288 C 0.64122 0.48282 0.66011 0.0
C289 C 0.66431 0.45343 0.65349 0.0
C290 C 0.65826 0.43389 0.61968 0.0
C291 C 0.62911 0.44241 0.59465 0.0
H292 H 0.79438 0.8186 0.18255 0.0
H293 H 0.90312 0.8119 0.22093 0.0
H294 H 0.80857 0.77431 0.13384 0.0
H295 H 0.91731 0.76835 0.17191 0.0
H296 H 0.84332 0.65314 0.13436 0.0
H297 H 0.82494 0.71183 0.15308 0.0
H298 H 0.91897 0.74797 0.10137 0.0
H299 H 0.93714 0.68917 0.08188 0.0
C300 C 0.82149 0.80848 0.17971 0.0
C301 C 0.8475 0.81817 0.20617 0.0
C302 C 0.82956 0.78318 0.15184 0.0
C303 C 0.86387 0.76748 0.1496 0.0
C304 C 0.89062 0.78008 0.17281 0.0
C305 C 0.8825 0.80516 0.20093 0.0
C306 C 0.85947 0.67375 0.12571 0.0
C307 C 0.89204 0.66641 0.10752 0.0
C308 C 0.84892 0.70745 0.13637 0.0
C309 C 0.87078 0.7344 0.12912 0.0
C310 C 0.90188 0.72759 0.10781 0.0
C311 C 0.91231 0.69393 0.0969 0.0
H312 H 0.27192 0.16948 0.08626 0.0
H313 H 0.30071 0.13148 0.20491 0.0
H314 H 0.32737 0.14236 0.06131 0.0
H315 H 0.355 0.10372 0.18003 0.0
H316 H 0.46697 0.08232 0.13659 0.0
H317 H 0.41141 0.11014 0.15786 0.0
H318 H 0.36494 0.09189 0.04371 0.0
H319 H 0.42169 0.06398 1.02209 0.0
C320 C 0.28984 0.15549 0.10733 0.0
C321 C 0.28065 0.15316 0.14811 0.0
C322 C 0.32194 0.13938 0.09272 0.0
C323 C 0.34688 0.12038 0.11815 0.0
C324 C 0.33759 0.11819 0.15885 0.0
C325 C 0.30558 0.13402 0.17333 0.0
C326 C 0.44508 0.08402 0.11568 0.0
C327 C 0.44968 0.07032 0.07736 0.0
C328 C 0.41255 0.10003 0.12821 0.0
C329 C 0.38236 0.10349 0.1032 0.0
C330 C 0.38698 0.09028 0.06438 0.0
C331 C 0.41982 0.07396 0.0518 0.0
H332 H 0.3372 0.84265 0.74091 0.0
H333 H 0.3002 0.74068 0.75466 0.0
H334 H 0.2884 0.8598 0.69573 0.0
H335 H 0.25142 0.75788 0.70834 0.0
H336 H 0.23269 0.86211 0.57676 0.0
H337 H 0.27676 0.84094 0.62619 0.0
H338 H 0.19609 0.80061 0.69922 0.0
H339 H 0.1516 0.82135 0.64902 0.0
C340 C 0.31821 0.82409 0.73498 0.0
C341 C 0.32259 0.79027 0.75135 0.0
C342 C 0.29053 0.8338 0.70865 0.0
C343 C 0.26655 0.80997 0.69806 0.0
C344 C 0.26965 0.7767 0.71597 0.0
C345 C 0.29758 0.76686 0.74228 0.0
C346 C 0.22433 0.84805 0.60286 0.0
C347 C 0.18865 0.84337 0.60896 0.0
C348 C 0.24954 0.83636 0.63143 0.0
C349 C 0.23971 0.81965 0.66676 0.0
C350 C 0.2043 0.81351 0.67225 0.0
C351 C 0.17891 0.82547 0.64365 0.0
H352 H 0.80862 0.42406 0.9175 0.0
H353 H 0.85797 0.42938 0.80265 0.0
H354 H 0.85971 0.44674 0.94836 0.0
H355 H 0.90932 0.45168 0.83348 0.0
H356 H 0.9814 0.52185 0.8953 0.0
H357 H 0.92918 0.50113 0.86499 0.0
H358 H 0.9203 0.4301 0.96529 0.0
H359 H 0.97227 0.4517 0.99613 0.0
C360 C 0.83046 0.43001 0.89885 0.0
C361 C 0.82926 0.42485 0.85761 0.0
C362 C 0.85984 0.44287 0.91657 0.0
C363 C 0.88882 0.45085 0.89352 0.0
C364 C 0.88733 0.44624 0.85214 0.0
C365 C 0.85787 0.43349 0.83439 0.0
C366 C 0.96831 0.50176 0.91086 0.0
C367 C 0.98097 0.48827 0.948 0.0
C368 C 0.93845 0.48974 0.89337 0.0
C369 C 0.9205 0.46382 0.91253 0.0
C370 C 0.93318 0.45038 0.94986 0.0
C371 C 0.96309 0.46253 0.96745 0.0
H372 H 0.73603 0.81936 0.28323 0.0
H373 H 0.81204 0.81038 0.37978 0.0
H374 H 0.69936 0.78086 0.31995 0.0
H375 H 0.77582 0.77177 0.4162 0.0
H376 H 0.69366 0.71834 0.48397 0.0
H377 H 0.72153 0.76527 0.45036 0.0
H378 H 0.70394 0.71951 0.33693 0.0
H379 H 0.67559 0.6728 0.37067 0.0
C380 C 0.7446 0.80955 0.31256 0.0
C381 C 0.77688 0.81784 0.32863 0.0
C382 C 0.72376 0.78736 0.33346 0.0
C383 C 0.73483 0.77294 0.37081 0.0
C384 C 0.76626 0.78271 0.38772 0.0
C385 C 0.78702 0.80495 0.36689 0.0
C386 C 0.69579 0.71832 0.45185 0.0
C387 C 0.68278 0.69174 0.42994 0.0
C388 C 0.71171 0.74523 0.43259 0.0
C389 C 0.7151 0.7461 0.39098 0.0
C390 C 0.70128 0.71992 0.36898 0.0
C391 C 0.68518 0.69307 0.38826 0.0
H392 H 0.19817 0.24789 0.08655 0.0
H393 H 0.15599 0.26959 0.2026 0.0
H394 H 0.16875 0.30228 0.06025 0.0
H395 H 0.12617 0.32304 0.17614 0.0
H396 H 0.04947 0.40525 0.11238 0.0
H397 H 0.07927 0.3504 0.13685 0.0
H398 H 0.16453 0.36446 0.05625 0.0
H399 H 0.13465 0.41929 0.03192 0.0
C400 C 0.18292 0.26399 0.10684 0.0
C401 C 0.17981 0.25287 0.14718 0.0
C402 C 0.1657 0.29565 0.09148 0.0
C403 C 0.1442 0.31789 0.11551 0.0
C404 C 0.14144 0.30696 0.15582 0.0
C405 C 0.15883 0.2756 0.17122 0.0
C406 C 0.07452 0.39676 0.09965 0.0
C407 C 0.08919 0.41751 0.06985 0.0
C408 C 0.09201 0.36502 0.11404 0.0
C409 C 0.12498 0.35206 0.09914 0.0
C410 C 0.13932 0.37261 0.06878 0.0
C411 C 0.12201 0.40457 0.05474 0.0
H412 H 0.7319 0.3571 0.91627 0.0
H413 H 0.75269 0.30133 0.80881 0.0
H414 H 0.70023 0.30905 0.94309 0.0
H415 H 0.72126 0.25357 0.83526 0.0
H416 H 0.68077 0.16356 0.90242 0.0
H417 H 0.72164 0.20763 0.88884 0.0
H418 H 0.64248 0.28691 0.92217 0.0
H419 H 0.60179 0.24277 0.93645 0.0
C420 C 0.73035 0.33422 0.89889 0.0
C421 C 0.74449 0.33277 0.86053 0.0
C422 C 0.71207 0.30694 0.91401 0.0
C423 C 0.70818 0.27769 0.89116 0.0
C424 C 0.7241 0.2756 0.85371 0.0
C425 C 0.74192 0.30294 0.83848 0.0
C426 C 0.67232 0.19034 0.90749 0.0
C427 C 0.63801 0.19978 0.92018 0.0
C428 C 0.69564 0.21555 0.89954 0.0
C429 C 0.6852 0.25067 0.90439 0.0
C430 C 0.65135 0.26001 0.91854 0.0
C431 C 0.62793 0.23481 0.92621 0.0
H432 H 0.92197 0.86338 0.30723 0.0
H433 H 0.83222 0.93318 0.33413 0.0
H434 H 0.95994 0.89821 0.34603 0.0
H435 H 0.87014 0.96814 0.37258 0.0
H436 H 0.95587 0.03851 0.40717 0.0
H437 H 0.92233 1.00548 0.36161 0.0
H438 H 0.96318 0.91058 0.42158 0.0
H439 H 0.99646 0.9437 0.46764 0.0
C440 C 0.91055 0.88653 0.32083 0.0
C441 C 0.87425 0.89574 0.31769 0.0
C442 C 0.93216 0.90622 0.34326 0.0
C443 C 0.91791 0.93576 0.36232 0.0
C444 C 0.88182 0.94562 0.35795 0.0
C445 C 0.86014 0.92562 0.33611 0.0
C446 C 0.95786 1.01058 0.41047 0.0
C447 C 0.97858 0.99361 0.44104 0.0
C448 C 0.93861 0.99174 0.38448 0.0
C449 C 0.94016 0.95554 0.38815 0.0
C450 C 0.96175 0.93847 0.41794 0.0
C451 C 0.98062 0.95738 0.44437 0.0
H452 H 0.3888 0.6742 0.77758 0.0
H453 H 0.47338 0.73628 0.74476 0.0
H454 H 0.41554 0.62645 0.73981 0.0
H455 H 0.49988 0.68895 0.70619 0.0
H456 H 0.5499 0.59248 0.6534 0.0
H457 H 0.52811 0.63187 0.70412 0.0
H458 H 0.42139 0.61511 0.67042 0.0
H459 H 0.44331 0.5749 0.62031 0.0
C460 C 0.41352 0.67733 0.76285 0.0
C461 C 0.429 0.70895 0.76402 0.0
C462 C 0.42866 0.65012 0.74087 0.0
C463 C 0.45958 0.65395 0.71932 0.0
C464 C 0.47623 0.68488 0.72262 0.0
C465 C 0.46114 0.71206 0.74484 0.0
C466 C 0.52175 0.59689 0.65706 0.0
C467 C 0.49831 0.58069 0.63258 0.0
C468 C 0.50927 0.61966 0.68608 0.0
C469 C 0.47298 0.62699 0.69129 0.0
C470 C 0.44953 0.60982 0.66769 0.0
C471 C 0.46206 0.58685 0.63875 0.0
H472 H 0.89613 0.94685 0.82294 0.0
H473 H 0.91995 0.84626 0.7749 0.0
H474 H 0.92479 0.97329 0.76652 0.0
H475 H 0.94741 0.87241 0.71779 0.0
H476 H 1.01847 0.92217 0.62788 0.0
H477 H 0.99098 0.89655 0.68544 0.0
H478 H 0.92996 0.99332 0.70306 0.0
H479 H 0.95901 1.01914 0.64647 0.0
C480 C 0.90709 0.93019 0.80017 0.0
C481 C 0.90545 0.89401 0.80446 0.0
C482 C 0.92371 0.94555 0.76715 0.0
C483 C 0.93922 0.92562 0.73624 0.0
C484 C 0.93705 0.88939 0.74049 0.0
C485 C 0.92087 0.87406 0.77373 0.0
C486 C 0.99923 0.93814 0.644 0.0
C487 C 0.99135 0.97306 0.63177 0.0
C488 C 0.98291 0.92318 0.6774 0.0
C489 C 0.95737 0.94217 0.70019 0.0
C490 C 0.94955 0.97723 0.6877 0.0
C491 C 0.96625 0.99229 0.65457 0.0
H492 H 0.69652 0.24065 0.16185 0.0
H493 H 0.61427 0.22656 0.24649 0.0
H494 H 0.67507 0.1952 0.12119 0.0
H495 H 0.59307 0.18063 0.20618 0.0
H496 H 0.60056 0.07139 0.1505 0.0
H497 H 0.62043 0.11928 0.18849 0.0
H498 H 0.61971 0.18278 0.08076 0.0
H499 H 0.59938 0.13527 0.04293 0.0
C500 C 0.67345 0.2282 0.17129 0.0
C501 C 0.65681 0.23726 0.20705 0.0
C502 C 0.66126 0.20217 0.14816 0.0
C503 C 0.63264 0.18415 0.16075 0.0
C504 C 0.61542 0.19385 0.196 0.0
C505 C 0.62722 0.22037 0.21876 0.0
C506 C 0.60503 0.09544 0.13491 0.0
C507 C 0.59848 0.09954 0.09375 0.0
C508 C 0.61602 0.12295 0.15669 0.0
C509 C 0.62132 0.15484 0.13761 0.0
C510 C 0.61586 0.15852 0.09625 0.0
C511 C 0.60424 0.1313 0.07463 0.0
H512 H 0.33828 0.57789 0.29929 0.0
H513 H 0.34689 0.68227 0.33679 0.0
H514 H 0.37434 0.55603 0.35628 0.0
H515 H 0.38549 0.66114 0.39079 0.0
H516 H 0.44929 0.61942 0.49435 0.0
H517 H 0.3991 0.63509 0.45026 0.0
H518 H 0.43205 0.54991 0.37534 0.0
H519 H 0.48011 0.53292 0.42151 0.0
C520 C 0.34755 0.59616 0.31988 0.0
C521 C 0.34034 0.63188 0.31283 0.0
C522 C 0.36886 0.58369 0.35228 0.0
C523 C 0.38393 0.60668 0.37801 0.0
C524 C 0.37457 0.64229 0.37224 0.0
C525 C 0.35273 0.65459 0.34058 0.0
C526 C 0.44537 0.60397 0.46861 0.0
C527 C 0.46864 0.57524 0.46105 0.0
C528 C 0.41673 0.61301 0.44303 0.0
C529 C 0.41139 0.59421 0.40847 0.0
C530 C 0.43452 0.56487 0.40172 0.0
C531 C 0.46247 0.55526 0.42799 0.0
H532 H 0.28148 0.22175 0.87735 0.0
H533 H 0.17337 0.23197 0.83669 0.0
H534 H 0.26803 0.2664 0.92583 0.0
H535 H 0.15989 0.27611 0.88528 0.0
H536 H 0.23878 0.38827 0.92387 0.0
H537 H 0.25493 0.32879 0.90635 0.0
H538 H 0.15742 0.29779 0.9547 0.0
H539 H 0.14142 0.35742 0.97277 0.0
C540 C 0.2546 0.23269 0.87974 0.0
C541 C 0.22863 0.22394 0.85268 0.0
C542 C 0.24695 0.25825 0.90741 0.0
C543 C 0.21312 0.27521 0.90877 0.0
C544 C 0.18622 0.26344 0.88505 0.0
C545 C 0.19392 0.23803 0.85719 0.0
C546 C 0.22134 0.3686 0.93201 0.0
C547 C 0.1885 0.37763 0.94879 0.0
C548 C 0.23061 0.33444 0.92207 0.0
C549 C 0.20719 0.3087 0.92869 0.0
C550 C 0.17572 0.31719 0.94871 0.0
C551 C 0.16654 0.35132 0.95884 0.0
H552 H 0.78496 0.91497 0.84999 0.0
H553 H 0.81397 0.87768 0.96883 0.0
H554 H 0.73089 0.94321 0.87488 0.0
H555 H 0.75875 0.9053 0.9938 0.0
H556 H 0.66496 0.9846 0.03265 0.0
H557 H 0.7215 0.9562 1.01106 0.0
H558 H 0.67449 0.93722 0.89741 0.0
H559 H 0.61914 0.9655 0.91866 0.0
C560 C 0.78019 0.91269 0.88162 0.0
C561 C 0.80511 0.8936 0.90689 0.0
C562 C 0.7483 0.9288 0.89611 0.0
C563 C 0.73915 0.92697 0.93686 0.0
C564 C 0.76409 0.90801 0.96234 0.0
C565 C 0.79606 0.89161 0.94772 0.0
C566 C 0.66666 0.97436 1.00306 0.0
C567 C 0.63671 0.97794 0.97763 0.0
C568 C 0.69939 0.95775 0.9905 0.0
C569 C 0.7038 0.94418 0.95182 0.0
C570 C 0.67351 0.94759 0.92694 0.0
C571 C 0.6411 0.96388 0.93946 0.0
H572 H 0.74751 0.20252 0.29571 0.0
H573 H 0.77621 0.30762 0.30378 0.0
H574 H 0.80013 0.182 0.33329 0.0
H575 H 0.82842 0.28687 0.34293 0.0
H576 H 0.87665 0.23125 0.46277 0.0
H577 H 0.83497 0.25813 0.41315 0.0
H578 H 0.86692 0.17892 0.33056 0.0
H579 H 0.90905 0.15244 0.37965 0.0
C580 C 0.76539 0.22123 0.30464 0.0
C581 C 0.75745 0.25678 0.29679 0.0
C582 C 0.79552 0.20943 0.32636 0.0
C583 C 0.81821 0.2329 0.34111 0.0
C584 C 0.81111 0.26831 0.33218 0.0
C585 C 0.78118 0.28012 0.30992 0.0
C586 C 0.87544 0.22012 0.43367 0.0
C587 C 0.89563 0.18938 0.42538 0.0
C588 C 0.8516 0.2355 0.40528 0.0
C589 C 0.8475 0.22029 0.36826 0.0
C590 C 0.86922 0.19081 0.35912 0.0
C591 C 0.89318 0.17563 0.38729 0.0
H592 H 0.22458 0.67916 0.1813 0.0
H593 H 0.26886 0.57623 0.21426 0.0
H594 H 0.17541 0.65489 0.14854 0.0
H595 H 0.21923 0.55199 0.18188 0.0
H596 H 0.10498 0.52586 0.15952 0.0
H597 H 0.15549 0.54939 0.19066 0.0
H598 H 0.16232 0.62055 0.09021 0.0
H599 H 0.1114 0.59707 0.05913 0.0
C600 C 0.22404 0.65132 0.18128 0.0
C601 C 0.25087 0.62967 0.20033 0.0
C602 C 0.19578 0.63743 0.16247 0.0
C603 C 0.19343 0.60151 0.16244 0.0
C604 C 0.22006 0.57981 0.18172 0.0
C605 C 0.24847 0.59371 0.20038 0.0
C606 C 0.11727 0.54654 0.14407 0.0
C607 C 0.10416 0.55977 0.107 0.0
C608 C 0.14637 0.55985 0.1618 0.0
C609 C 0.16297 0.58685 0.14295 0.0
C610 C 0.14989 0.60001 0.10571 0.0
C611 C 0.12085 0.58651 0.08784 0.0
H612 H 0.34031 0.22398 0.77596 0.0
H613 H 0.26404 0.23379 0.67969 0.0
H614 H 0.37659 0.26327 0.73989 0.0
H615 H 0.29982 0.27325 0.64395 0.0
H616 H 0.38116 0.3284 0.57697 0.0
H617 H 0.35371 0.28079 0.60974 0.0
H618 H 0.37178 0.32469 0.72412 0.0
H619 H 0.39978 0.37204 0.69121 0.0
C620 C 0.33161 0.23415 0.74682 0.0
C621 C 0.29938 0.22585 0.73062 0.0
C622 C 0.35222 0.2568 0.7263 0.0
C623 C 0.34093 0.27169 0.68924 0.0
C624 C 0.30955 0.26195 0.67219 0.0
C625 C 0.28904 0.23922 0.69263 0.0
C626 C 0.37923 0.32784 0.60913 0.0
C627 C 0.39229 0.35408 0.63156 0.0
C628 C 0.36355 0.30056 0.6279 0.0
C629 C 0.36042 0.29897 0.66953 0.0
C630 C 0.37425 0.32482 0.69203 0.0
C631 C 0.39015 0.35204 0.67323 0.0
H632 H 0.8875 0.79854 0.96862 0.0
H633 H 0.92906 0.77647 0.85238 0.0
H634 H 0.91701 0.74416 0.99494 0.0
H635 H 0.95901 0.7231 0.87886 0.0
H636 H 1.03622 0.64128 0.94256 0.0
H637 H 1.00627 0.69609 0.91813 0.0
H638 H 0.92114 0.68185 0.99886 0.0
H639 H 0.95115 0.62706 1.02314 0.0
C640 C 0.90265 0.78237 0.9483 0.0
C641 C 0.90558 0.79339 0.9079 0.0
C642 C 0.91992 0.75073 0.96366 0.0
C643 C 0.9413 0.72843 0.93958 0.0
C644 C 0.94385 0.73925 0.8992 0.0
C645 C 0.92639 0.77056 0.88381 0.0
C646 C 1.01117 0.64972 0.95534 0.0
C647 C 0.99658 0.62895 0.98516 0.0
C648 C 0.99359 0.68144 0.94097 0.0
C649 C 0.96062 0.69432 0.95593 0.0
C650 C 0.94636 0.67374 0.98631 0.0
C651 C 0.96374 0.64182 1.00031 0.0
H652 H 0.32925 0.74999 0.25421 0.0
H653 H 0.35295 0.69575 0.14639 0.0
H654 H 0.36338 0.79698 0.23117 0.0
H655 H 0.38815 0.74247 0.12345 0.0
H656 H 0.43207 0.84569 0.08567 0.0
H657 H 0.38985 0.80352 0.10251 0.0
H658 H 0.42575 0.80096 0.22501 0.0
H659 H 0.46662 0.84392 0.20863 0.0
C660 C 0.34145 0.74848 0.22526 0.0
C661 C 0.33878 0.71932 0.20212 0.0
C662 C 0.36122 0.77517 0.2122 0.0
C663 C 0.37911 0.77311 0.17588 0.0
C664 C 0.37463 0.74486 0.15154 0.0
C665 C 0.35451 0.71816 0.16456 0.0
C666 C 0.43063 0.83634 0.11626 0.0
C667 C 0.45269 0.84818 0.14584 0.0
C668 C 0.40668 0.81198 0.12581 0.0
C669 C 0.40422 0.7991 0.16514 0.0
C670 C 0.42648 0.81081 0.19455 0.0
C671 C 0.45033 0.83508 0.18505 0.0
H672 H 0.24597 0.1096 0.72491 0.0
H673 H 0.15491 0.17848 0.74943 0.0
H674 H 0.20944 0.07432 0.68518 0.0
H675 H 0.11827 0.1433 0.7093 0.0
H676 H 0.12633 1.00326 0.64606 0.0
H677 H 0.15773 0.03635 0.69359 0.0
H678 H 0.11699 0.13133 0.6337 0.0
H679 H 0.08579 0.09815 0.58574 0.0
C680 C 0.21803 0.11685 0.72218 0.0
C681 C 0.20317 0.14661 0.74024 0.0
C682 C 0.19714 0.09667 0.69959 0.0
C683 C 0.16108 0.10619 0.69411 0.0
C684 C 0.14604 0.13554 0.71292 0.0
C685 C 0.16688 0.15543 0.7361 0.0
C686 C 0.12392 0.03121 0.64318 0.0
C687 C 0.10392 0.04819 0.61206 0.0
C688 C 0.14193 0.0501 0.67032 0.0
C689 C 0.13982 0.08634 0.66723 0.0
C690 C 0.11884 0.1034 0.6369 0.0
C691 C 0.1012 0.08446 0.60937 0.0
H692 H 0.59969 0.32131 0.29535 0.0
H693 H 0.69785 0.36918 0.30186 0.0
H694 H 0.57143 0.36807 0.33282 0.0
H695 H 0.67093 0.41345 0.34303 0.0
H696 H 0.61411 0.49911 0.4091 0.0
H697 H 0.636 0.46131 0.35647 0.0
H698 H 0.56684 0.38454 0.39663 0.0
H699 H 0.54349 0.42337 0.44644 0.0
C700 C 0.61527 0.34185 0.3045 0.0
C701 C 0.65136 0.34078 0.29629 0.0
C702 C 0.5992 0.36848 0.32686 0.0
C703 C 0.61892 0.39436 0.34244 0.0
C704 C 0.6545 0.39436 0.3319 0.0
C705 C 0.67025 0.36835 0.3087 0.0
C706 C 0.60353 0.47423 0.4062 0.0
C707 C 0.5771 0.46422 0.43175 0.0
C708 C 0.61617 0.45233 0.37616 0.0
C709 C 0.60338 0.41945 0.37181 0.0
C710 C 0.57687 0.40977 0.39775 0.0
C711 C 0.56365 0.43199 0.42685 0.0
loop_
_geom_bond_atom_site_label_1
_geom_bond_atom_site_label_2
_geom_bond_distance
_geom_bond_site_symmetry_2
_ccdc_geom_bond_type
H0 C3 0.931 . S
H1 C6 0.928 . S
H2 C8 0.930 . S
C3 H0 0.931 . S
C3 C4 1.413 . S
C3 C5 1.360 . S
C4 C3 1.413 . S
C4 C8 1.429 . S
C5 C3 1.360 . S
C5 C6 1.372 . S
C6 H1 0.928 . S
C6 C5 1.372 . S
C6 C7 1.404 . S
C7 C6 1.404 . S
C7 C8 1.391 . S
C8 H2 0.930 . S
C8 C4 1.429 . S
C8 C7 1.391 . S
H9 C12 0.931 . S
H10 C15 0.928 . S
H11 C17 0.930 . S
C12 H9 0.931 . S
C12 C13 1.413 . S
C12 C14 1.360 . S
C13 C12 1.413 . S
C13 C17 1.429 . S
C14 C12 1.360 . S
C14 C15 1.372 . S
C15 H10 0.928 . S
C15 C14 1.372 . S
C15 C16 1.404 . S
C16 C15 1.404 . S
C16 C17 1.391 . S
C17 H11 0.930 . S
C17 C13 1.429 . S
C17 C16 1.391 . S
H18 C21 0.931 . S
H19 C24 0.928 . S
H20 C26 0.930 . S
C21 H18 0.931 . S
C21 C22 1.413 . S
C21 C23 1.360 . S
C22 C21 1.413 . S
C22 C26 1.429 . S
C23 C21 1.360 . S
C23 C24 1.372 . S
C24 H19 0.928 . S
C24 C23 1.372 . S
C24 C25 1.404 . S
C25 C24 1.404 . S
C25 C26 1.391 . S
C26 H20 0.930 . S
C26 C22 1.429 . S
C26 C25 1.391 . S
H27 C30 0.931 . S
H28 C33 0.928 . S
H29 C35 0.930 . S
C30 H27 0.931 . S
C30 C31 1.413 . S
C30 C32 1.360 . S
C31 C30 1.413 . S
C31 C35 1.429 . S
C32 C30 1.360 . S
C32 C33 1.372 . S
C33 H28 0.928 . S
C33 C32 1.372 . S
C33 C34 1.404 . S
C34 C33 1.404 . S
C34 C35 1.391 . S
C35 H29 0.930 . S
C35 C31 1.429 . S
C35 C34 1.391 . S
H36 C39 0.931 . S
H37 C42 0.928 . S
H38 C44 0.930 . S
C39 H36 0.931 . S
C39 C40 1.413 . S
C39 C41 1.360 . S
C40 C39 1.413 . S
C40 C44 1.429 . S
C41 C39 1.360 . S
C41 C42 1.372 . S
C42 H37 0.928 . S
C42 C41 1.372 . S
C42 C43 1.404 . S
C43 C42 1.404 . S
C43 C44 1.391 . S
C44 H38 0.930 . S
C44 C40 1.429 . S
C44 C43 1.391 . S
H45 C48 0.931 . S
H46 C51 0.928 . S
H47 C53 0.930 . S
C48 H45 0.931 . S
C48 C49 1.413 . S
C48 C50 1.360 . S
C49 C48 1.413 . S
C49 C53 1.429 . S
C50 C48 1.360 . S
C50 C51 1.372 . S
C51 H46 0.928 . S
C51 C50 1.372 . S
C51 C52 1.404 . S
C52 C51 1.404 . S
C52 C53 1.391 . S
C53 H47 0.930 . S
C53 C49 1.429 . S
C53 C52 1.391 . S
H54 C57 0.931 . S
H55 C60 0.928 . S
H56 C62 0.930 . S
C57 H54 0.931 . S
C57 C58 1.413 . S
C57 C59 1.360 . S
C58 C57 1.413 . S
C58 C62 1.429 . S
C59 C57 1.360 . S
C59 C60 1.372 . S
C60 H55 0.928 . S
C60 C59 1.372 . S
C60 C61 1.404 . S
C61 C60 1.404 . S
C61 C62 1.391 . S
C62 H56 0.930 . S
C62 C58 1.429 . S
C62 C61 1.391 . S
H63 C66 0.931 . S
H64 C69 0.928 . S
H65 C71 0.930 . S
C66 H63 0.931 . S
C66 C67 1.413 . S
C66 C68 1.360 . S
C67 C66 1.413 . S
C67 C71 1.429 . S
C68 C66 1.360 . S
C68 C69 1.372 . S
C69 H64 0.928 . S
C69 C68 1.372 . S
C69 C70 1.404 . S
C70 C69 1.404 . S
C70 C71 1.391 . S
C71 H65 0.930 . S
C71 C67 1.429 . S
C71 C70 1.391 . S
Nd72 C74 2.836 . S
Nd72 O92 2.500 . S
Nd72 O93 2.492 . S
Nd72 O94 2.487 1_565 S
Nd72 O95 2.682 1_565 S
Nd72 O96 2.410 . S
Nd72 O101 2.414 1_455 S
Nd72 O103 2.424 1_565 S
Nd73 C83 2.836 . S
Nd73 O95 2.414 1_655 S
Nd73 O97 2.424 1_545 S
Nd73 O98 2.500 . S
Nd73 O99 2.492 . S
Nd73 O100 2.487 1_545 S
Nd73 O101 2.682 1_545 S
Nd73 O102 2.410 . S
C74 Nd72 2.836 . S
C74 C75 1.498 . S
C74 O92 1.258 . S
C74 O93 1.239 . S
C75 C74 1.498 . S
C75 C76 1.366 . S
C75 C80 1.407 . S
C76 C75 1.366 . S
C76 C77 1.392 . S
C76 H104 0.930 . S
C77 C76 1.392 . S
C77 C78 1.398 . S
C77 H105 0.929 . S
C78 C77 1.398 . S
C78 C79 1.352 . S
C79 C78 1.352 . S
C79 C80 1.384 . S
C79 H106 0.930 . S
C80 C75 1.407 . S
C80 C79 1.384 . S
C80 H107 0.929 . S
C81 O94 1.241 . S
C81 O95 1.273 . S
C82 O96 1.251 1_655 S
C82 O97 1.268 . S
C83 Nd73 2.836 . S
C83 C84 1.498 . S
C83 O98 1.258 . S
C83 O99 1.239 . S
C84 C83 1.498 . S
C84 C85 1.366 . S
C84 C89 1.407 . S
C85 C84 1.366 . S
C85 C86 1.392 . S
C85 H108 0.930 . S
C86 C85 1.392 . S
C86 C87 1.398 . S
C86 H109 0.929 . S
C87 C86 1.398 . S
C87 C88 1.352 . S
C88 C87 1.352 . S
C88 C89 1.384 . S
C88 H110 0.930 . S
C89 C84 1.407 . S
C89 C88 1.384 . S
C89 H111 0.929 . S
C90 O100 1.241 . S
C90 O101 1.273 . S
C91 O102 1.251 1_455 S
C91 O103 1.268 . S
O92 Nd72 2.500 . S
O92 C74 1.258 . S
O93 Nd72 2.492 . S
O93 C74 1.239 . S
O94 Nd72 2.487 1_545 S
O94 C81 1.241 . S
O95 Nd72 2.682 1_545 S
O95 Nd73 2.414 1_455 S
O95 C81 1.273 . S
O96 Nd72 2.410 . S
O96 C82 1.251 1_455 S
O97 Nd73 2.424 1_565 S
O97 C82 1.268 . S
O98 Nd73 2.500 . S
O98 C83 1.258 . S
O99 Nd73 2.492 . S
O99 C83 1.239 . S
O100 Nd73 2.487 1_565 S
O100 C90 1.241 . S
O101 Nd72 2.414 1_655 S
O101 Nd73 2.682 1_565 S
O101 C90 1.273 . S
O102 Nd73 2.410 . S
O102 C91 1.251 1_655 S
O103 Nd72 2.424 1_545 S
O103 C91 1.268 . S
H104 C76 0.930 . S
H105 C77 0.929 . S
H106 C79 0.930 . S
H107 C80 0.929 . S
H108 C85 0.930 . S
H109 C86 0.929 . S
H110 C88 0.930 . S
H111 C89 0.929 . S
Nd112 C114 2.836 . S
Nd112 O132 2.500 . S
Nd112 O133 2.492 . S
Nd112 O134 2.487 1_565 S
Nd112 O135 2.682 1_565 S
Nd112 O136 2.410 1_554 S
Nd112 O141 2.414 1_554 S
Nd112 O143 2.424 1_565 S
Nd113 C123 2.836 . S
Nd113 O135 2.414 1_556 S
Nd113 O137 2.424 1_545 S
Nd113 O138 2.500 . S
Nd113 O139 2.492 . S
Nd113 O140 2.471 1_545 S
Nd113 O141 2.682 1_545 S
Nd113 O142 2.410 1_556 S
C114 Nd112 2.836 . S
C114 C115 1.498 . S
C114 O132 1.258 . S
C114 O133 1.239 . S
C115 C114 1.498 . S
C115 C116 1.366 . S
C115 C120 1.407 . S
C116 C115 1.366 . S
C116 C117 1.392 . S
C116 H144 0.930 . S
C117 C116 1.392 . S
C117 C118 1.398 . S
C117 H145 0.929 . S
C118 C117 1.398 . S
C118 C119 1.352 . S
C119 C118 1.352 . S
C119 C120 1.384 . S
C119 H146 0.930 . S
C120 C115 1.407 . S
C120 C119 1.384 . S
C120 H147 0.929 . S
C121 O134 1.241 . S
C121 O135 1.273 . S
C122 O136 1.251 . S
C122 O137 1.268 . S
C123 Nd113 2.836 . S
C123 C124 1.498 . S
C123 O138 1.258 . S
C123 O139 1.239 . S
C124 C123 1.498 . S
C124 C125 1.366 . S
C124 C129 1.407 . S
C125 C124 1.366 . S
C125 C126 1.392 . S
C125 H148 0.930 . S
C126 C125 1.392 . S
C126 C127 1.398 . S
C126 H149 0.929 . S
C127 C126 1.398 . S
C127 C128 1.352 . S
C128 C127 1.352 . S
C128 C129 1.384 . S
C128 H150 0.930 . S
C129 C124 1.407 . S
C129 C128 1.384 . S
C129 H151 0.929 . S
C130 O140 1.264 . S
C130 O141 1.273 . S
C131 O142 1.251 . S
C131 O143 1.268 . S
O132 Nd112 2.500 . S
O132 C114 1.258 . S
O133 Nd112 2.492 . S
O133 C114 1.239 . S
O134 Nd112 2.487 1_545 S
O134 C121 1.241 . S
O135 Nd112 2.682 1_545 S
O135 Nd113 2.414 1_554 S
O135 C121 1.273 . S
O136 Nd112 2.410 1_556 S
O136 C122 1.251 . S
O137 Nd113 2.424 1_565 S
O137 C122 1.268 . S
O138 Nd113 2.500 . S
O138 C123 1.258 . S
O139 Nd113 2.492 . S
O139 C123 1.239 . S
O140 Nd113 2.471 1_565 S
O140 C130 1.264 . S
O141 Nd112 2.414 1_556 S
O141 Nd113 2.682 1_565 S
O141 C130 1.273 . S
O142 Nd113 2.410 1_554 S
O142 C131 1.251 . S
O143 Nd112 2.424 1_545 S
O143 C131 1.268 . S
H144 C116 0.930 . S
H145 C117 0.929 . S
H146 C119 0.930 . S
H147 C120 0.929 . S
H148 C125 0.930 . S
H149 C126 0.929 . S
H150 C128 0.930 . S
H151 C129 0.929 . S
Nd152 C154 2.836 . S
Nd152 O172 2.500 . S
Nd152 O173 2.492 . S
Nd152 O174 2.487 . S
Nd152 O175 2.682 . S
Nd152 O176 2.410 . S
Nd152 O181 2.414 . S
Nd152 O183 2.424 . S
Nd153 C163 2.836 . S
Nd153 O175 2.414 . S
Nd153 O177 2.424 . S
Nd153 O178 2.500 . S
Nd153 O179 2.492 . S
Nd153 O180 2.487 . S
Nd153 O181 2.682 . S
Nd153 O182 2.410 . S
C154 Nd152 2.836 . S
C154 C155 1.498 . S
C154 O172 1.258 . S
C154 O173 1.239 . S
C155 C154 1.498 . S
C155 C156 1.366 . S
C155 C160 1.407 . S
C156 C155 1.366 . S
C156 C157 1.392 . S
C156 H184 0.930 . S
C157 C156 1.392 . S
C157 C158 1.398 . S
C157 H185 0.929 . S
C158 C157 1.398 . S
C158 C159 1.352 . S
C159 C158 1.352 . S
C159 C160 1.384 . S
C159 H186 0.930 . S
C160 C155 1.407 . S
C160 C159 1.384 . S
C160 H187 0.929 . S
C161 O174 1.241 . S
C161 O175 1.273 . S
C162 O176 1.251 . S
C162 O177 1.268 . S
C163 Nd153 2.836 . S
C163 C164 1.498 . S
C163 O178 1.258 . S
C163 O179 1.239 . S
C164 C163 1.498 . S
C164 C165 1.366 . S
C164 C169 1.407 . S
C165 C164 1.366 . S
C165 C166 1.392 . S
C165 H188 0.930 . S
C166 C165 1.392 . S
C166 C167 1.398 . S
C166 H189 0.929 . S
C167 C166 1.398 . S
C167 C168 1.352 . S
C168 C167 1.352 . S
C168 C169 1.384 . S
C168 H190 0.930 . S
C169 C164 1.407 . S
C169 C168 1.384 . S
C169 H191 0.929 . S
C170 O180 1.241 . S
C170 O181 1.273 . S
C171 O182 1.251 . S
C171 O183 1.268 . S
O172 Nd152 2.500 . S
O172 C154 1.258 . S
O173 Nd152 2.492 . S
O173 C154 1.239 . S
O174 Nd152 2.487 . S
O174 C161 1.241 . S
O175 Nd152 2.682 . S
O175 Nd153 2.414 . S
O175 C161 1.273 . S
O176 Nd152 2.410 . S
O176 C162 1.251 . S
O177 Nd153 2.424 . S
O177 C162 1.268 . S
O178 Nd153 2.500 . S
O178 C163 1.258 . S
O179 Nd153 2.492 . S
O179 C163 1.239 . S
O180 Nd153 2.487 . S
O180 C170 1.241 . S
O181 Nd152 2.414 . S
O181 Nd153 2.682 . S
O181 C170 1.273 . S
O182 Nd153 2.410 . S
O182 C171 1.251 . S
O183 Nd152 2.424 . S
O183 C171 1.268 . S
H184 C156 0.930 . S
H185 C157 0.929 . S
H186 C159 0.930 . S
H187 C160 0.929 . S
H188 C165 0.930 . S
H189 C166 0.929 . S
H190 C168 0.930 . S
H191 C169 0.929 . S
Nd192 C194 2.836 . S
Nd192 O212 2.500 . S
Nd192 O213 2.492 . S
Nd192 O214 2.487 1_655 S
Nd192 O215 2.682 1_655 S
Nd192 O216 2.410 . S
Nd192 O221 2.414 1_554 S
Nd192 O223 2.424 1_655 S
Nd193 C203 2.836 . S
Nd193 O215 2.414 1_556 S
Nd193 O217 2.424 1_455 S
Nd193 O218 2.500 . S
Nd193 O219 2.492 . S
Nd193 O220 2.487 1_455 S
Nd193 O221 2.682 1_455 S
Nd193 O222 2.410 . S
C194 Nd192 2.836 . S
C194 C195 1.498 . S
C194 O212 1.258 . S
C194 O213 1.239 . S
C195 C194 1.498 . S
C195 C196 1.366 . S
C195 C200 1.407 . S
C196 C195 1.366 . S
C196 C197 1.392 . S
C196 H224 0.930 . S
C197 C196 1.392 . S
C197 C198 1.398 . S
C197 H225 0.929 . S
C198 C197 1.398 . S
C198 C199 1.352 . S
C199 C198 1.352 . S
C199 C200 1.384 . S
C199 H226 0.930 . S
C200 C195 1.407 . S
C200 C199 1.384 . S
C200 H227 0.929 . S
C201 O214 1.241 . S
C201 O215 1.273 . S
C202 O216 1.251 1_556 S
C202 O217 1.268 . S
C203 Nd193 2.836 . S
C203 C204 1.498 . S
C203 O218 1.258 . S
C203 O219 1.239 . S
C204 C203 1.498 . S
C204 C205 1.366 . S
C204 C209 1.407 . S
C205 C204 1.366 . S
C205 C206 1.392 . S
C205 H228 0.930 . S
C206 C205 1.392 . S
C206 C207 1.398 . S
C206 H229 0.929 . S
C207 C206 1.398 . S
C207 C208 1.352 . S
C208 C207 1.352 . S
C208 C209 1.384 . S
C208 H230 0.930 . S
C209 C204 1.407 . S
C209 C208 1.384 . S
C209 H231 0.929 . S
C210 O220 1.241 . S
C210 O221 1.273 . S
C211 O222 1.251 1_554 S
C211 O223 1.268 . S
O212 Nd192 2.500 . S
O212 C194 1.258 . S
O213 Nd192 2.492 . S
O213 C194 1.239 . S
O214 Nd192 2.487 1_455 S
O214 C201 1.241 . S
O215 Nd192 2.682 1_455 S
O215 Nd193 2.414 1_554 S
O215 C201 1.273 . S
O216 Nd192 2.410 . S
O216 C202 1.251 1_554 S
O217 Nd193 2.424 1_655 S
O217 C202 1.268 . S
O218 Nd193 2.500 . S
O218 C203 1.258 . S
O219 Nd193 2.492 . S
O219 C203 1.239 . S
O220 Nd193 2.487 1_655 S
O220 C210 1.241 . S
O221 Nd192 2.414 1_556 S
O221 Nd193 2.682 1_655 S
O221 C210 1.273 . S
O222 Nd193 2.410 . S
O222 C211 1.251 1_556 S
O223 Nd192 2.424 1_455 S
O223 C211 1.268 . S
H224 C196 0.930 . S
H225 C197 0.929 . S
H226 C199 0.930 . S
H227 C200 0.929 . S
H228 C205 0.930 . S
H229 C206 0.929 . S
H230 C208 0.930 . S
H231 C209 0.929 . S
H232 C240 0.950 . S
H233 C245 0.950 . S
H234 C242 0.950 . S
H235 C244 0.950 . S
H236 C246 0.950 . S
H237 C248 0.950 . S
H238 C250 0.950 . S
H239 C251 0.950 . S
C240 H232 0.950 . S
C240 C241 1.386 . S
C240 C242 1.391 . S
C241 C240 1.386 . S
C241 C245 1.393 . S
C242 H234 0.950 . S
C242 C240 1.391 . S
C242 C243 1.400 . S
C243 C242 1.400 . S
C243 C244 1.398 . S
C243 C249 1.491 . S
C244 H235 0.950 . S
C244 C243 1.398 . S
C244 C245 1.391 . S
C245 H233 0.950 . S
C245 C241 1.393 . S
C245 C244 1.391 . S
C246 H236 0.950 . S
C246 C247 1.386 . S
C246 C248 1.391 . S
C247 C246 1.386 . S
C247 C251 1.393 . S
C248 H237 0.950 . S
C248 C246 1.391 . S
C248 C249 1.400 . S
C249 C243 1.491 . S
C249 C248 1.400 . S
C249 C250 1.398 . S
C250 H238 0.950 . S
C250 C249 1.398 . S
C250 C251 1.391 . S
C251 H239 0.950 . S
C251 C247 1.393 . S
C251 C250 1.391 . S
H252 C260 0.950 . S
H253 C265 0.950 . S
H254 C262 0.950 . S
H255 C264 0.950 . S
H256 C266 0.950 . S
H257 C268 0.950 . S
H258 C270 0.950 . S
H259 C271 0.950 . S
C260 H252 0.950 . S
C260 C261 1.386 . S
C260 C262 1.391 . S
C261 C260 1.386 . S
C261 C265 1.393 . S
C262 H254 0.950 . S
C262 C260 1.391 . S
C262 C263 1.400 . S
C263 C262 1.400 . S
C263 C264 1.398 . S
C263 C269 1.491 . S
C264 H255 0.950 . S
C264 C263 1.398 . S
C264 C265 1.391 . S
C265 H253 0.950 . S
C265 C261 1.393 . S
C265 C264 1.391 . S
C266 H256 0.950 . S
C266 C267 1.386 . S
C266 C268 1.391 . S
C267 C266 1.386 . S
C267 C271 1.393 . S
C268 H257 0.950 . S
C268 C266 1.391 . S
C268 C269 1.400 . S
C269 C263 1.491 . S
C269 C268 1.400 . S
C269 C270 1.398 . S
C270 H258 0.950 . S
C270 C269 1.398 . S
C270 C271 1.391 . S
C271 H259 0.950 . S
C271 C267 1.393 . S
C271 C270 1.391 . S
H272 C280 0.950 . S
H273 C285 0.950 . S
H274 C282 0.950 . S
H275 C284 0.950 . S
H276 C286 0.950 . S
H277 C288 0.950 . S
H278 C290 0.950 . S
H279 C291 0.950 . S
C280 H272 0.950 . S
C280 C281 1.386 . S
C280 C282 1.391 . S
C281 C280 1.386 . S
C281 C285 1.393 . S
C282 H274 0.950 . S
C282 C280 1.391 . S
C282 C283 1.400 . S
C283 C282 1.400 . S
C283 C284 1.398 . S
C283 C289 1.491 . S
C284 H275 0.950 . S
C284 C283 1.398 . S
C284 C285 1.391 . S
C285 H273 0.950 . S
C285 C281 1.393 . S
C285 C284 1.391 . S
C286 H276 0.950 . S
C286 C287 1.386 . S
C286 C288 1.391 . S
C287 C286 1.386 . S
C287 C291 1.393 . S
C288 H277 0.950 . S
C288 C286 1.391 . S
C288 C289 1.400 . S
C289 C283 1.491 . S
C289 C288 1.400 . S
C289 C290 1.398 . S
C290 H278 0.950 . S
C290 C289 1.398 . S
C290 C291 1.391 . S
C291 H279 0.950 . S
C291 C287 1.393 . S
C291 C290 1.391 . S
H292 C300 0.950 . S
H293 C305 0.950 . S
H294 C302 0.950 . S
H295 C304 0.950 . S
H296 C306 0.950 . S
H297 C308 0.950 . S
H298 C310 0.950 . S
H299 C311 0.950 . S
C300 H292 0.950 . S
C300 C301 1.386 . S
C300 C302 1.391 . S
C301 C300 1.386 . S
C301 C305 1.393 . S
C302 H294 0.950 . S
C302 C300 1.391 . S
C302 C303 1.400 . S
C303 C302 1.400 . S
C303 C304 1.398 . S
C303 C309 1.491 . S
C304 H295 0.950 . S
C304 C303 1.398 . S
C304 C305 1.391 . S
C305 H293 0.950 . S
C305 C301 1.393 . S
C305 C304 1.391 . S
C306 H296 0.950 . S
C306 C307 1.386 . S
C306 C308 1.391 . S
C307 C306 1.386 . S
C307 C311 1.393 . S
C308 H297 0.950 . S
C308 C306 1.391 . S
C308 C309 1.400 . S
C309 C303 1.491 . S
C309 C308 1.400 . S
C309 C310 1.398 . S
C310 H298 0.950 . S
C310 C309 1.398 . S
C310 C311 1.391 . S
C311 H299 0.950 . S
C311 C307 1.393 . S
C311 C310 1.391 . S
H312 C320 0.950 . S
H313 C325 0.950 . S
H314 C322 0.950 . S
H315 C324 0.950 . S
H316 C326 0.950 . S
H317 C328 0.950 . S
H318 C330 0.950 . S
H319 C331 0.950 1_556 S
C320 H312 0.950 . S
C320 C321 1.386 . S
C320 C322 1.391 . S
C321 C320 1.386 . S
C321 C325 1.393 . S
C322 H314 0.950 . S
C322 C320 1.391 . S
C322 C323 1.400 . S
C323 C322 1.400 . S
C323 C324 1.398 . S
C323 C329 1.491 . S
C324 H315 0.950 . S
C324 C323 1.398 . S
C324 C325 1.391 . S
C325 H313 0.950 . S
C325 C321 1.393 . S
C325 C324 1.391 . S
C326 H316 0.950 . S
C326 C327 1.386 . S
C326 C328 1.391 . S
C327 C326 1.386 . S
C327 C331 1.393 . S
C328 H317 0.950 . S
C328 C326 1.391 . S
C328 C329 1.400 . S
C329 C323 1.491 . S
C329 C328 1.400 . S
C329 C330 1.398 . S
C330 H318 0.950 . S
C330 C329 1.398 . S
C330 C331 1.391 . S
C331 H319 0.950 1_554 S
C331 C327 1.393 . S
C331 C330 1.391 . S
H332 C340 0.950 . S
H333 C345 0.950 . S
H334 C342 0.950 . S
H335 C344 0.950 . S
H336 C346 0.950 . S
H337 C348 0.950 . S
H338 C350 0.950 . S
H339 C351 0.950 . S
C340 H332 0.950 . S
C340 C341 1.386 . S
C340 C342 1.391 . S
C341 C340 1.386 . S
C341 C345 1.393 . S
C342 H334 0.950 . S
C342 C340 1.391 . S
C342 C343 1.400 . S
C343 C342 1.400 . S
C343 C344 1.398 . S
C343 C349 1.491 . S
C344 H335 0.950 . S
C344 C343 1.398 . S
C344 C345 1.391 . S
C345 H333 0.950 . S
C345 C341 1.393 . S
C345 C344 1.391 . S
C346 H336 0.950 . S
C346 C347 1.386 . S
C346 C348 1.391 . S
C347 C346 1.386 . S
C347 C351 1.393 . S
C348 H337 0.950 . S
C348 C346 1.391 . S
C348 C349 1.400 . S
C349 C343 1.491 . S
C349 C348 1.400 . S
C349 C350 1.398 . S
C350 H338 0.950 . S
C350 C349 1.398 . S
C350 C351 1.391 . S
C351 H339 0.950 . S
C351 C347 1.393 . S
C351 C350 1.391 . S
H352 C360 0.950 . S
H353 C365 0.950 . S
H354 C362 0.950 . S
H355 C364 0.950 . S
H356 C366 0.950 . S
H357 C368 0.950 . S
H358 C370 0.950 . S
H359 C371 0.950 1_554 S
C360 H352 0.950 . S
C360 C361 1.386 . S
C360 C362 1.391 . S
C361 C360 1.386 . S
C361 C365 1.393 . S
C362 H354 0.950 . S
C362 C360 1.391 . S
C362 C363 1.400 . S
C363 C362 1.400 . S
C363 C364 1.398 . S
C363 C369 1.491 . S
C364 H355 0.950 . S
C364 C363 1.398 . S
C364 C365 1.391 . S
C365 H353 0.950 . S
C365 C361 1.393 . S
C365 C364 1.391 . S
C366 H356 0.950 . S
C366 C367 1.386 . S
C366 C368 1.391 . S
C367 C366 1.386 . S
C367 C371 1.393 . S
C368 H357 0.950 . S
C368 C366 1.391 . S
C368 C369 1.400 . S
C369 C363 1.491 . S
C369 C368 1.400 . S
C369 C370 1.398 . S
C370 H358 0.950 . S
C370 C369 1.398 . S
C370 C371 1.391 . S
C371 H359 0.950 1_556 S
C371 C367 1.393 . S
C371 C370 1.391 . S
H372 C380 0.950 . S
H373 C385 0.950 . S
H374 C382 0.950 . S
H375 C384 0.950 . S
H376 C386 0.950 . S
H377 C388 0.950 . S
H378 C390 0.950 . S
H379 C391 0.950 . S
C380 H372 0.950 . S
C380 C381 1.386 . S
C380 C382 1.391 . S
C381 C380 1.386 . S
C381 C385 1.393 . S
C382 H374 0.950 . S
C382 C380 1.391 . S
C382 C383 1.400 . S
C383 C382 1.400 . S
C383 C384 1.398 . S
C383 C389 1.491 . S
C384 H375 0.950 . S
C384 C383 1.398 . S
C384 C385 1.391 . S
C385 H373 0.950 . S
C385 C381 1.393 . S
C385 C384 1.391 . S
C386 H376 0.950 . S
C386 C387 1.386 . S
C386 C388 1.391 . S
C387 C386 1.386 . S
C387 C391 1.393 . S
C388 H377 0.950 . S
C388 C386 1.391 . S
C388 C389 1.400 . S
C389 C383 1.491 . S
C389 C388 1.400 . S
C389 C390 1.398 . S
C390 H378 0.950 . S
C390 C389 1.398 . S
C390 C391 1.391 . S
C391 H379 0.950 . S
C391 C387 1.393 . S
C391 C390 1.391 . S
H392 C400 0.950 . S
H393 C405 0.950 . S
H394 C402 0.950 . S
H395 C404 0.950 . S
H396 C406 0.950 . S
H397 C408 0.950 . S
H398 C410 0.950 . S
H399 C411 0.950 . S
C400 H392 0.950 . S
C400 C401 1.386 . S
C400 C402 1.391 . S
C401 C400 1.386 . S
C401 C405 1.393 . S
C402 H394 0.950 . S
C402 C400 1.391 . S
C402 C403 1.400 . S
C403 C402 1.400 . S
C403 C404 1.398 . S
C403 C409 1.491 . S
C404 H395 0.950 . S
C404 C403 1.398 . S
C404 C405 1.391 . S
C405 H393 0.950 . S
C405 C401 1.393 . S
C405 C404 1.391 . S
C406 H396 0.950 . S
C406 C407 1.386 . S
C406 C408 1.391 . S
C407 C406 1.386 . S
C407 C411 1.393 . S
C408 H397 0.950 . S
C408 C406 1.391 . S
C408 C409 1.400 . S
C409 C403 1.491 . S
C409 C408 1.400 . S
C409 C410 1.398 . S
C410 H398 0.950 . S
C410 C409 1.398 . S
C410 C411 1.391 . S
C411 H399 0.950 . S
C411 C407 1.393 . S
C411 C410 1.391 . S
H412 C420 0.950 . S
H413 C425 0.950 . S
H414 C422 0.950 . S
H415 C424 0.950 . S
H416 C426 0.950 . S
H417 C428 0.950 . S
H418 C430 0.950 . S
H419 C431 0.950 . S
C420 H412 0.950 . S
C420 C421 1.386 . S
C420 C422 1.391 . S
C421 C420 1.386 . S
C421 C425 1.393 . S
C422 H414 0.950 . S
C422 C420 1.391 . S
C422 C423 1.400 . S
C423 C422 1.400 . S
C423 C424 1.398 . S
C423 C429 1.491 . S
C424 H415 0.950 . S
C424 C423 1.398 . S
C424 C425 1.391 . S
C425 H413 0.950 . S
C425 C421 1.393 . S
C425 C424 1.391 . S
C426 H416 0.950 . S
C426 C427 1.386 . S
C426 C428 1.391 . S
C427 C426 1.386 . S
C427 C431 1.393 . S
C428 H417 0.950 . S
C428 C426 1.391 . S
C428 C429 1.400 . S
C429 C423 1.491 . S
C429 C428 1.400 . S
C429 C430 1.398 . S
C430 H418 0.950 . S
C430 C429 1.398 . S
C430 C431 1.391 . S
C431 H419 0.950 . S
C431 C427 1.393 . S
C431 C430 1.391 . S
H432 C440 0.950 . S
H433 C445 0.950 . S
H434 C442 0.950 . S
H435 C444 0.950 . S
H436 C446 0.950 . S
H437 C448 0.950 . S
H438 C450 0.950 . S
H439 C451 0.950 . S
C440 H432 0.950 . S
C440 C441 1.386 . S
C440 C442 1.391 . S
C441 C440 1.386 . S
C441 C445 1.393 . S
C442 H434 0.950 . S
C442 C440 1.391 . S
C442 C443 1.400 . S
C443 C442 1.400 . S
C443 C444 1.398 . S
C443 C449 1.491 . S
C444 H435 0.950 . S
C444 C443 1.398 . S
C444 C445 1.391 . S
C445 H433 0.950 . S
C445 C441 1.393 . S
C445 C444 1.391 . S
C446 H436 0.950 . S
C446 C447 1.386 . S
C446 C448 1.391 . S
C447 C446 1.386 . S
C447 C451 1.393 . S
C448 H437 0.950 . S
C448 C446 1.391 . S
C448 C449 1.400 . S
C449 C443 1.491 . S
C449 C448 1.400 . S
C449 C450 1.398 . S
C450 H438 0.950 . S
C450 C449 1.398 . S
C450 C451 1.391 . S
C451 H439 0.950 . S
C451 C447 1.393 . S
C451 C450 1.391 . S
H452 C460 0.950 . S
H453 C465 0.950 . S
H454 C462 0.950 . S
H455 C464 0.950 . S
H456 C466 0.950 . S
H457 C468 0.950 . S
H458 C470 0.950 . S
H459 C471 0.950 . S
C460 H452 0.950 . S
C460 C461 1.386 . S
C460 C462 1.391 . S
C461 C460 1.386 . S
C461 C465 1.393 . S
C462 H454 0.950 . S
C462 C460 1.391 . S
C462 C463 1.400 . S
C463 C462 1.400 . S
C463 C464 1.398 . S
C463 C469 1.491 . S
C464 H455 0.950 . S
C464 C463 1.398 . S
C464 C465 1.391 . S
C465 H453 0.950 . S
C465 C461 1.393 . S
C465 C464 1.391 . S
C466 H456 0.950 . S
C466 C467 1.386 . S
C466 C468 1.391 . S
C467 C466 1.386 . S
C467 C471 1.393 . S
C468 H457 0.950 . S
C468 C466 1.391 . S
C468 C469 1.400 . S
C469 C463 1.491 . S
C469 C468 1.400 . S
C469 C470 1.398 . S
C470 H458 0.950 . S
C470 C469 1.398 . S
C470 C471 1.391 . S
C471 H459 0.950 . S
C471 C467 1.393 . S
C471 C470 1.391 . S
H472 C480 0.950 . S
H473 C485 0.950 . S
H474 C482 0.950 . S
H475 C484 0.950 . S
H476 C486 0.950 . S
H477 C488 0.950 . S
H478 C490 0.950 . S
H479 C491 0.950 . S
C480 H472 0.950 . S
C480 C481 1.386 . S
C480 C482 1.391 . S
C481 C480 1.386 . S
C481 C485 1.393 . S
C482 H474 0.950 . S
C482 C480 1.391 . S
C482 C483 1.400 . S
C483 C482 1.400 . S
C483 C484 1.398 . S
C483 C489 1.491 . S
C484 H475 0.950 . S
C484 C483 1.398 . S
C484 C485 1.391 . S
C485 H473 0.950 . S
C485 C481 1.393 . S
C485 C484 1.391 . S
C486 H476 0.950 . S
C486 C487 1.386 . S
C486 C488 1.391 . S
C487 C486 1.386 . S
C487 C491 1.393 . S
C488 H477 0.950 . S
C488 C486 1.391 . S
C488 C489 1.400 . S
C489 C483 1.491 . S
C489 C488 1.400 . S
C489 C490 1.398 . S
C490 H478 0.950 . S
C490 C489 1.398 . S
C490 C491 1.391 . S
C491 H479 0.950 . S
C491 C487 1.393 . S
C491 C490 1.391 . S
H492 C500 0.950 . S
H493 C505 0.950 . S
H494 C502 0.950 . S
H495 C504 0.950 . S
H496 C506 0.950 . S
H497 C508 0.950 . S
H498 C510 0.950 . S
H499 C511 0.950 . S
C500 H492 0.950 . S
C500 C501 1.386 . S
C500 C502 1.391 . S
C501 C500 1.386 . S
C501 C505 1.393 . S
C502 H494 0.950 . S
C502 C500 1.391 . S
C502 C503 1.400 . S
C503 C502 1.400 . S
C503 C504 1.398 . S
C503 C509 1.491 . S
C504 H495 0.950 . S
C504 C503 1.398 . S
C504 C505 1.391 . S
C505 H493 0.950 . S
C505 C501 1.393 . S
C505 C504 1.391 . S
C506 H496 0.950 . S
C506 C507 1.386 . S
C506 C508 1.391 . S
C507 C506 1.386 . S
C507 C511 1.393 . S
C508 H497 0.950 . S
C508 C506 1.391 . S
C508 C509 1.400 . S
C509 C503 1.491 . S
C509 C508 1.400 . S
C509 C510 1.398 . S
C510 H498 0.950 . S
C510 C509 1.398 . S
C510 C511 1.391 . S
C511 H499 0.950 . S
C511 C507 1.393 . S
C511 C510 1.391 . S
H512 C520 0.950 . S
H513 C525 0.950 . S
H514 C522 0.950 . S
H515 C524 0.950 . S
H516 C526 0.950 . S
H517 C528 0.950 . S
H518 C530 0.950 . S
H519 C531 0.950 . S
C520 H512 0.950 . S
C520 C521 1.386 . S
C520 C522 1.391 . S
C521 C520 1.386 . S
C521 C525 1.393 . S
C522 H514 0.950 . S
C522 C520 1.391 . S
C522 C523 1.400 . S
C523 C522 1.400 . S
C523 C524 1.398 . S
C523 C529 1.491 . S
C524 H515 0.950 . S
C524 C523 1.398 . S
C524 C525 1.391 . S
C525 H513 0.950 . S
C525 C521 1.393 . S
C525 C524 1.391 . S
C526 H516 0.950 . S
C526 C527 1.386 . S
C526 C528 1.391 . S
C527 C526 1.386 . S
C527 C531 1.393 . S
C528 H517 0.950 . S
C528 C526 1.391 . S
C528 C529 1.400 . S
C529 C523 1.491 . S
C529 C528 1.400 . S
C529 C530 1.398 . S
C530 H518 0.950 . S
C530 C529 1.398 . S
C530 C531 1.391 . S
C531 H519 0.950 . S
C531 C527 1.393 . S
C531 C530 1.391 . S
H532 C540 0.950 . S
H533 C545 0.950 . S
H534 C542 0.950 . S
H535 C544 0.950 . S
H536 C546 0.950 . S
H537 C548 0.950 . S
H538 C550 0.950 . S
H539 C551 0.950 . S
C540 H532 0.950 . S
C540 C541 1.386 . S
C540 C542 1.391 . S
C541 C540 1.386 . S
C541 C545 1.393 . S
C542 H534 0.950 . S
C542 C540 1.391 . S
C542 C543 1.400 . S
C543 C542 1.400 . S
C543 C544 1.398 . S
C543 C549 1.491 . S
C544 H535 0.950 . S
C544 C543 1.398 . S
C544 C545 1.391 . S
C545 H533 0.950 . S
C545 C541 1.393 . S
C545 C544 1.391 . S
C546 H536 0.950 . S
C546 C547 1.386 . S
C546 C548 1.391 . S
C547 C546 1.386 . S
C547 C551 1.393 . S
C548 H537 0.950 . S
C548 C546 1.391 . S
C548 C549 1.400 . S
C549 C543 1.491 . S
C549 C548 1.400 . S
C549 C550 1.398 . S
C550 H538 0.950 . S
C550 C549 1.398 . S
C550 C551 1.391 . S
C551 H539 0.950 . S
C551 C547 1.393 . S
C551 C550 1.391 . S
H552 C560 0.950 . S
H553 C565 0.950 . S
H554 C562 0.950 . S
H555 C564 0.950 . S
H556 C566 0.950 . S
H557 C568 0.950 . S
H558 C570 0.950 . S
H559 C571 0.950 . S
C560 H552 0.950 . S
C560 C561 1.386 . S
C560 C562 1.391 . S
C561 C560 1.386 . S
C561 C565 1.393 . S
C562 H554 0.950 . S
C562 C560 1.391 . S
C562 C563 1.400 . S
C563 C562 1.400 . S
C563 C564 1.398 . S
C563 C569 1.491 . S
C564 H555 0.950 . S
C564 C563 1.398 . S
C564 C565 1.391 . S
C565 H553 0.950 . S
C565 C561 1.393 . S
C565 C564 1.391 . S
C566 H556 0.950 . S
C566 C567 1.386 . S
C566 C568 1.391 . S
C567 C566 1.386 . S
C567 C571 1.393 . S
C568 H557 0.950 . S
C568 C566 1.391 . S
C568 C569 1.400 . S
C569 C563 1.491 . S
C569 C568 1.400 . S
C569 C570 1.398 . S
C570 H558 0.950 . S
C570 C569 1.398 . S
C570 C571 1.391 . S
C571 H559 0.950 . S
C571 C567 1.393 . S
C571 C570 1.391 . S
H572 C580 0.950 . S
H573 C585 0.950 . S
H574 C582 0.950 . S
H575 C584 0.950 . S
H576 C586 0.950 . S
H577 C588 0.950 . S
H578 C590 0.950 . S
H579 C591 0.950 . S
C580 H572 0.950 . S
C580 C581 1.386 . S
C580 C582 1.391 . S
C581 C580 1.386 . S
C581 C585 1.393 . S
C582 H574 0.950 . S
C582 C580 1.391 . S
C582 C583 1.400 . S
C583 C582 1.400 . S
C583 C584 1.398 . S
C583 C589 1.491 . S
C584 H575 0.950 . S
C584 C583 1.398 . S
C584 C585 1.391 . S
C585 H573 0.950 . S
C585 C581 1.393 . S
C585 C584 1.391 . S
C586 H576 0.950 . S
C586 C587 1.386 . S
C586 C588 1.391 . S
C587 C586 1.386 . S
C587 C591 1.393 . S
C588 H577 0.950 . S
C588 C586 1.391 . S
C588 C589 1.400 . S
C589 C583 1.491 . S
C589 C588 1.400 . S
C589 C590 1.398 . S
C590 H578 0.950 . S
C590 C589 1.398 . S
C590 C591 1.391 . S
C591 H579 0.950 . S
C591 C587 1.393 . S
C591 C590 1.391 . S
H592 C600 0.950 . S
H593 C605 0.950 . S
H594 C602 0.950 . S
H595 C604 0.950 . S
H596 C606 0.950 . S
H597 C608 0.950 . S
H598 C610 0.950 . S
H599 C611 0.950 . S
C600 H592 0.950 . S
C600 C601 1.386 . S
C600 C602 1.391 . S
C601 C600 1.386 . S
C601 C605 1.393 . S
C602 H594 0.950 . S
C602 C600 1.391 . S
C602 C603 1.400 . S
C603 C602 1.400 . S
C603 C604 1.398 . S
C603 C609 1.491 . S
C604 H595 0.950 . S
C604 C603 1.398 . S
C604 C605 1.391 . S
C605 H593 0.950 . S
C605 C601 1.393 . S
C605 C604 1.391 . S
C606 H596 0.950 . S
C606 C607 1.386 . S
C606 C608 1.391 . S
C607 C606 1.386 . S
C607 C611 1.393 . S
C608 H597 0.950 . S
C608 C606 1.391 . S
C608 C609 1.400 . S
C609 C603 1.491 . S
C609 C608 1.400 . S
C609 C610 1.398 . S
C610 H598 0.950 . S
C610 C609 1.398 . S
C610 C611 1.391 . S
C611 H599 0.950 . S
C611 C607 1.393 . S
C611 C610 1.391 . S
H612 C620 0.950 . S
H613 C625 0.950 . S
H614 C622 0.950 . S
H615 C624 0.950 . S
H616 C626 0.950 . S
H617 C628 0.950 . S
H618 C630 0.950 . S
H619 C631 0.950 . S
C620 H612 0.950 . S
C620 C621 1.386 . S
C620 C622 1.391 . S
C621 C620 1.386 . S
C621 C625 1.393 . S
C622 H614 0.950 . S
C622 C620 1.391 . S
C622 C623 1.400 . S
C623 C622 1.400 . S
C623 C624 1.398 . S
C623 C629 1.491 . S
C624 H615 0.950 . S
C624 C623 1.398 . S
C624 C625 1.391 . S
C625 H613 0.950 . S
C625 C621 1.393 . S
C625 C624 1.391 . S
C626 H616 0.950 . S
C626 C627 1.386 . S
C626 C628 1.391 . S
C627 C626 1.386 . S
C627 C631 1.393 . S
C628 H617 0.950 . S
C628 C626 1.391 . S
C628 C629 1.400 . S
C629 C623 1.491 . S
C629 C628 1.400 . S
C629 C630 1.398 . S
C630 H618 0.950 . S
C630 C629 1.398 . S
C630 C631 1.391 . S
C631 H619 0.950 . S
C631 C627 1.393 . S
C631 C630 1.391 . S
H632 C640 0.950 . S
H633 C645 0.950 . S
H634 C642 0.950 . S
H635 C644 0.950 . S
H636 C646 0.950 . S
H637 C648 0.950 . S
H638 C650 0.950 . S
H639 C651 0.950 1_554 S
C640 H632 0.950 . S
C640 C641 1.386 . S
C640 C642 1.391 . S
C641 C640 1.386 . S
C641 C645 1.393 . S
C642 H634 0.950 . S
C642 C640 1.391 . S
C642 C643 1.400 . S
C643 C642 1.400 . S
C643 C644 1.398 . S
C643 C649 1.491 . S
C644 H635 0.950 . S
C644 C643 1.398 . S
C644 C645 1.391 . S
C645 H633 0.950 . S
C645 C641 1.393 . S
C645 C644 1.391 . S
C646 H636 0.950 . S
C646 C647 1.386 . S
C646 C648 1.391 . S
C647 C646 1.386 . S
C647 C651 1.393 . S
C648 H637 0.950 . S
C648 C646 1.391 . S
C648 C649 1.400 . S
C649 C643 1.491 . S
C649 C648 1.400 . S
C649 C650 1.398 . S
C650 H638 0.950 . S
C650 C649 1.398 . S
C650 C651 1.391 . S
C651 H639 0.950 1_556 S
C651 C647 1.393 . S
C651 C650 1.391 . S
H652 C660 0.950 . S
H653 C665 0.950 . S
H654 C662 0.950 . S
H655 C664 0.950 . S
H656 C666 0.950 . S
H657 C668 0.950 . S
H658 C670 0.950 . S
H659 C671 0.950 . S
C660 H652 0.950 . S
C660 C661 1.386 . S
C660 C662 1.391 . S
C661 C660 1.386 . S
C661 C665 1.393 . S
C662 H654 0.950 . S
C662 C660 1.391 . S
C662 C663 1.400 . S
C663 C662 1.400 . S
C663 C664 1.398 . S
C663 C669 1.491 . S
C664 H655 0.950 . S
C664 C663 1.398 . S
C664 C665 1.391 . S
C665 H653 0.950 . S
C665 C661 1.393 . S
C665 C664 1.391 . S
C666 H656 0.950 . S
C666 C667 1.386 . S
C666 C668 1.391 . S
C667 C666 1.386 . S
C667 C671 1.393 . S
C668 H657 0.950 . S
C668 C666 1.391 . S
C668 C669 1.400 . S
C669 C663 1.491 . S
C669 C668 1.400 . S
C669 C670 1.398 . S
C670 H658 0.950 . S
C670 C669 1.398 . S
C670 C671 1.391 . S
C671 H659 0.950 . S
C671 C667 1.393 . S
C671 C670 1.391 . S
H672 C680 0.950 . S
H673 C685 0.950 . S
H674 C682 0.950 . S
H675 C684 0.950 . S
H676 C686 0.956 . S
H677 C688 0.950 . S
H678 C690 0.950 . S
H679 C691 0.950 . S
C680 H672 0.950 . S
C680 C681 1.386 . S
C680 C682 1.391 . S
C681 C680 1.386 . S
C681 C685 1.393 . S
C682 H674 0.950 . S
C682 C680 1.391 . S
C682 C683 1.400 . S
C683 C682 1.400 . S
C683 C684 1.398 . S
C683 C689 1.491 . S
C684 H675 0.950 . S
C684 C683 1.398 . S
C684 C685 1.391 . S
C685 H673 0.950 . S
C685 C681 1.393 . S
C685 C684 1.391 . S
C686 H676 0.956 . S
C686 C687 1.386 . S
C686 C688 1.391 . S
C687 C686 1.386 . S
C687 C691 1.393 . S
C688 H677 0.950 . S
C688 C686 1.391 . S
C688 C689 1.400 . S
C689 C683 1.491 . S
C689 C688 1.400 . S
C689 C690 1.398 . S
C690 H678 0.950 . S
C690 C689 1.398 . S
C690 C691 1.391 . S
C691 H679 0.950 . S
C691 C687 1.393 . S
C691 C690 1.391 . S
H692 C700 0.950 . S
H693 C705 0.950 . S
H694 C702 0.950 . S
H695 C704 0.950 . S
H696 C706 0.950 . S
H697 C708 0.950 . S
H698 C710 0.950 . S
H699 C711 0.950 . S
C700 H692 0.950 . S
C700 C701 1.386 . S
C700 C702 1.391 . S
C701 C700 1.386 . S
C701 C705 1.393 . S
C702 H694 0.950 . S
C702 C700 1.391 . S
C702 C703 1.400 . S
C703 C702 1.400 . S
C703 C704 1.398 . S
C703 C709 1.491 . S
C704 H695 0.950 . S
C704 C703 1.398 . S
C704 C705 1.391 . S
C705 H693 0.950 . S
C705 C701 1.393 . S
C705 C704 1.391 . S
C706 H696 0.950 . S
C706 C707 1.386 . S
C706 C708 1.391 . S
C707 C706 1.386 . S
C707 C711 1.393 . S
C708 H697 0.950 . S
C708 C706 1.391 . S
C708 C709 1.400 . S
C709 C703 1.491 . S
C709 C708 1.400 . S
C709 C710 1.398 . S
C710 H698 0.950 . S
C710 C709 1.398 . S
C710 C711 1.391 . S
C711 H699 0.950 . S
C711 C707 1.393 . S
C711 C710 1.391 . S
C241 C5 2.875 . S
C247 C91 2.850 . S
C261 C14 2.110 . S
C267 C122 2.170 . S
C287 C161 1.359 . S
C281 C25 1.389 . S
C301 C34 0.553 . S
C307 C198 0.559 . S
C327 C121 2.750 . S
C321 C7 2.850 . S
C347 C78 1.341 . S
C341 C13 1.337 . S
C367 C210 1.459 . S
C361 C23 1.508 . S
C387 C167 1.027 . S
C381 C31 1.036 . S
C401 C4 2.298 . S
C407 C211 2.292 . S
C427 C127 1.292 . S
C421 C22 1.300 . S
C441 C32 0.470 . S
C447 C90 0.513 . S
C461 C16 2.232 . S
C467 C162 2.227 . S
C487 C82 2.837 . S
C481 C41 2.861 . S
C501 C50 2.100 . S
C507 C131 2.180 . S
C521 C61 1.390 . S
C527 C170 1.351 . S
C541 C67 0.531 . S
C547 C207 0.541 . S
C561 C40 2.867 . S
C567 C130 2.763 . S
C587 C87 1.307 . S
C581 C52 1.329 . S
C607 C201 1.444 . S
C601 C59 1.516 . S
C627 C158 1.056 . S
C621 C70 1.062 . S
C641 C43 2.297 . S
C647 C202 2.292 . S
C667 C118 1.295 . S
C661 C58 1.306 . S
C687 C81 0.548 . S
C681 C68 0.469 . S
C701 C49 2.230 . S
C707 C171 2.234 . S
