# Generated by pormake.
# Topology dag, (6,3)-cn, num edge types: 1
# Building blocks:
#     Node 0, Type 0, BuildingBlock: IZENUY_clean_sbu_0, # of connection points: 6
#     Node 1, Type 0, BuildingBlock: IZENUY_clean_sbu_0, # of connection points: 6
#     Node 2, Type 0, BuildingBlock: IZENUY_clean_sbu_0, # of connection points: 6
#     Node 3, Type 0, BuildingBlock: IZENUY_clean_sbu_0, # of connection points: 6
#     Node 4, Type 1, BuildingBlock: VETTIZ_charged_linker_0, # of connection points: 3
#     Node 5, Type 1, BuildingBlock: VETTIZ_charged_linker_0, # of connection points: 3
#     Node 6, Type 1, BuildingBlock: VETTIZ_charged_linker_0, # of connection points: 3
#     Node 7, Type 1, BuildingBlock: VETTIZ_charged_linker_0, # of connection points: 3
#     Node 8, Type 1, BuildingBlock: VETTIZ_charged_linker_0, # of connection points: 3
#     Node 9, Type 1, BuildingBlock: VETTIZ_charged_linker_0, # of connection points: 3
#     Node 10, Type 1, BuildingBlock: VETTIZ_charged_linker_0, # of connection points: 3
#     Node 11, Type 1, BuildingBlock: VETTIZ_charged_linker_0, # of connection points: 3
#     Edge 12, Type (0, 1), BuildingBlock: MIFKUJ_clean_linker_0, # of connection points: 2
#     Edge 13, Type (0, 1), BuildingBlock: MIFKUJ_clean_linker_0, # of connection points: 2
#     Edge 14, Type (0, 1), BuildingBlock: MIFKUJ_clean_linker_0, # of connection points: 2
#     Edge 15, Type (0, 1), BuildingBlock: MIFKUJ_clean_linker_0, # of connection points: 2
#     Edge 16, Type (0, 1), BuildingBlock: MIFKUJ_clean_linker_0, # of connection points: 2
#     Edge 17, Type (0, 1), BuildingBlock: MIFKUJ_clean_linker_0, # of connection points: 2
#     Edge 18, Type (0, 1), BuildingBlock: MIFKUJ_clean_linker_0, # of connection points: 2
#     Edge 19, Type (0, 1), BuildingBlock: MIFKUJ_clean_linker_0, # of connection points: 2
#     Edge 20, Type (0, 1), BuildingBlock: MIFKUJ_clean_linker_0, # of connection points: 2
#     Edge 21, Type (0, 1), BuildingBlock: MIFKUJ_clean_linker_0, # of connection points: 2
#     Edge 22, Type (0, 1), BuildingBlock: MIFKUJ_clean_linker_0, # of connection points: 2
#     Edge 23, Type (0, 1), BuildingBlock: MIFKUJ_clean_linker_0, # of connection points: 2
#     Edge 24, Type (0, 1), BuildingBlock: MIFKUJ_clean_linker_0, # of connection points: 2
#     Edge 25, Type (0, 1), BuildingBlock: MIFKUJ_clean_linker_0, # of connection points: 2
#     Edge 26, Type (0, 1), BuildingBlock: MIFKUJ_clean_linker_0, # of connection points: 2
#     Edge 27, Type (0, 1), BuildingBlock: MIFKUJ_clean_linker_0, # of connection points: 2
#     Edge 28, Type (0, 1), BuildingBlock: MIFKUJ_clean_linker_0, # of connection points: 2
#     Edge 29, Type (0, 1), BuildingBlock: MIFKUJ_clean_linker_0, # of connection points: 2
#     Edge 30, Type (0, 1), BuildingBlock: MIFKUJ_clean_linker_0, # of connection points: 2
#     Edge 31, Type (0, 1), BuildingBlock: MIFKUJ_clean_linker_0, # of connection points: 2
#     Edge 32, Type (0, 1), BuildingBlock: MIFKUJ_clean_linker_0, # of connection points: 2
#     Edge 33, Type (0, 1), BuildingBlock: MIFKUJ_clean_linker_0, # of connection points: 2
#     Edge 34, Type (0, 1), BuildingBlock: MIFKUJ_clean_linker_0, # of connection points: 2
#     Edge 35, Type (0, 1), BuildingBlock: MIFKUJ_clean_linker_0, # of connection points: 2
# Relax obj value: 0.264
# Max RMSD: 0.202
# Mean RMSD: 0.161
data_MOF--net-dag--node1-IZENUY_clean_sbu_0--node2-VETTIZ_charged_linker_0--edge1-MIFKUJ_clean_linker_0
_symmetry_space_group_name_H-M    P1
_symmetry_Int_Tables_number       1
_symmetry_cell_setting            triclinic
loop_
_symmetry_equiv_pos_as_xyz
'x, y, z'
_cell_length_a     59.067485
_cell_length_b     59.081577
_cell_length_c     51.169566
_cell_angle_alpha  93.347339
_cell_angle_beta   86.69755
_cell_angle_gamma 87.709171
loop_
_atom_site_label
_atom_site_type_symbol
_atom_site_fract_x
_atom_site_fract_y
_atom_site_fract_z
_atom_type_partial_charge
Fe0 Fe 0.1997 0.83162 0.08496 0.0
Fe1 Fe 0.15229 0.84056 0.06571 0.0
O2 O 0.1724 0.82206 0.07852 0.0
Fe3 Fe 0.165 0.79409 0.08501 0.0
O4 O 0.18266 0.79207 0.11328 0.0
O5 O 0.1955 0.82625 0.1193 0.0
O6 O 0.1898 0.86117 0.09421 0.0
C7 C 0.17017 0.86934 0.10182 0.0
C8 C 0.20829 0.78644 0.06361 0.0
O9 O 0.15262 0.86013 0.09417 0.0
C10 C 0.14521 0.80166 0.03686 0.0
O11 O 0.20572 0.83788 0.05096 0.0
O12 O 0.17321 0.85633 0.04733 0.0
O13 O 0.18762 0.78217 0.06245 0.0
O14 O 0.21432 0.80373 0.07694 0.0
C15 C 0.12578 0.81744 0.1023 0.0
O16 O 0.15093 0.82197 0.03657 0.0
O17 O 0.14601 0.79106 0.0577 0.0
C18 C 0.19341 0.85117 0.03889 0.0
O19 O 0.1275 0.82828 0.08173 0.0
O20 O 0.14186 0.8044 0.10818 0.0
C21 C 0.19032 0.80754 0.12807 0.0
Fe22 Fe 0.6866 0.65963 0.52602 0.0
Fe23 Fe 0.65317 0.69242 0.55927 0.0
O24 O 0.65965 0.66571 0.5425 0.0
Fe25 Fe 0.63897 0.64492 0.54224 0.0
O26 O 0.6594 0.62058 0.54051 0.0
O27 O 0.69218 0.63578 0.54577 0.0
O28 O 0.70222 0.67679 0.54963 0.0
C29 C 0.69667 0.68407 0.57303 0.0
C30 C 0.65564 0.6408 0.49135 0.0
O31 O 0.67617 0.68844 0.58047 0.0
C32 C 0.61316 0.6854 0.53684 0.0
O33 O 0.68296 0.68305 0.50528 0.0
O34 O 0.67064 0.70845 0.53653 0.0
O35 O 0.6385 0.64483 0.507 0.0
O36 O 0.67557 0.64144 0.49941 0.0
C37 C 0.6338 0.66118 0.59318 0.0
O38 O 0.62964 0.69813 0.539 0.0
O39 O 0.61457 0.66524 0.54386 0.0
C40 C 0.6785 0.7034 0.51326 0.0
O41 O 0.63464 0.68109 0.58517 0.0
O42 O 0.63836 0.64409 0.57756 0.0
C43 C 0.67956 0.6192 0.54755 0.0
Fe44 Fe 0.83669 0.20507 0.99913 0.0
Fe45 Fe 0.8504 0.15855 0.01761 0.0
O46 O 0.8298 0.17694 0.00534 0.0
Fe47 Fe 0.8025 0.16724 0.99923 0.0
O48 O 0.806 0.17312 0.9649 0.0
O49 O 0.81832 0.2074 0.9716 0.0
O50 O 0.85938 0.1952 0.97528 0.0
C51 C 0.87588 0.18244 0.98062 0.0
C52 C 0.79382 0.21207 0.02167 0.0
O53 O 0.8748 0.17118 0.00094 0.0
C54 C 0.80966 0.14732 0.04499 0.0
O55 O 0.85629 0.20801 0.02573 0.0
O56 O 0.85212 0.17703 0.04683 0.0
O57 O 0.78769 0.19496 0.00808 0.0
O58 O 0.81449 0.21645 0.0225 0.0
C59 C 0.83221 0.12973 0.98167 0.0
O60 O 0.82991 0.14248 0.03643 0.0
O61 O 0.79709 0.16053 0.03312 0.0
C62 C 0.85751 0.19744 0.04649 0.0
O63 O 0.84979 0.13901 0.98914 0.0
O64 O 0.81259 0.13788 0.98936 0.0
C65 C 0.81042 0.19221 0.95664 0.0
Fe66 Fe 0.35999 0.35698 0.54336 0.0
Fe67 Fe 0.31193 0.3423 0.55795 0.0
O68 O 0.33944 0.33598 0.54295 0.0
Fe69 Fe 0.34654 0.3088 0.52762 0.0
O70 O 0.36953 0.3041 0.54897 0.0
O71 O 0.38455 0.33697 0.5436 0.0
O72 O 0.35903 0.35832 0.57885 0.0
C73 C 0.34122 0.36268 0.5934 0.0
C74 C 0.36685 0.33903 0.49313 0.0
O75 O 0.32179 0.36149 0.58419 0.0
C76 C 0.30356 0.31618 0.5116 0.0
O77 O 0.33939 0.38108 0.543 0.0
O78 O 0.307 0.36532 0.53682 0.0
O79 O 0.36553 0.31941 0.50179 0.0
O80 O 0.36208 0.35662 0.50792 0.0
C81 C 0.32019 0.2993 0.57337 0.0
O82 O 0.29724 0.32419 0.53448 0.0
O83 O 0.32422 0.31162 0.50526 0.0
C84 C 0.31947 0.38203 0.5351 0.0
O85 O 0.31492 0.31977 0.58007 0.0
O86 O 0.3287 0.29346 0.55058 0.0
C87 C 0.38605 0.31682 0.55064 0.0
C88 C 0.12887 0.10318 0.2435 0.0
C89 C 0.11598 0.08837 0.22842 0.0
C90 C 0.09463 0.09621 0.22077 0.0
C91 C 0.09945 0.13301 0.24254 0.0
C92 C 0.12028 0.12536 0.25032 0.0
C93 C 0.13175 0.14347 0.266 0.0
H94 H 0.13045 0.25148 0.31882 0.0
C95 C 0.09573 0.15701 0.25203 0.0
C96 C 0.11456 0.16332 0.26578 0.0
H97 H 0.18102 0.19731 0.32483 0.0
H98 H 0.15985 0.17218 0.29781 0.0
H99 H 0.12355 0.24161 0.25786 0.0
H100 H 0.08616 0.21996 0.3262 0.0
H101 H 0.06687 0.2301 0.3041 0.0
H102 H 0.08671 0.24906 0.31788 0.0
H103 H 0.10384 0.26048 0.27729 0.0
H104 H 0.09476 0.24188 0.251 0.0
C105 C 0.15447 0.1482 0.25104 0.0
C106 C 0.13427 0.13537 0.294 0.0
C107 C 0.02449 0.20011 0.22926 0.0
C108 C 0.01696 0.22296 0.23271 0.0
C109 C 0.0302 0.23848 0.24635 0.0
C110 C 0.05066 0.23118 0.25657 0.0
C111 C 0.05806 0.2082 0.2527 0.0
C112 C 0.04502 0.19319 0.23909 0.0
C113 C 0.05602 0.16982 0.23516 0.0
C114 C 0.07777 0.17309 0.24893 0.0
C115 C 0.07883 0.19549 0.25942 0.0
C116 C 0.06056 0.1642 0.20523 0.0
C117 C 0.04045 0.15324 0.24924 0.0
C118 C 0.13687 0.23417 0.31439 0.0
C119 C 0.15748 0.22641 0.32392 0.0
C120 C 0.16539 0.20383 0.31741 0.0
C121 C 0.15297 0.18918 0.30188 0.0
C122 C 0.13235 0.1971 0.29268 0.0
C123 C 0.12463 0.21927 0.29886 0.0
C124 C 0.10236 0.22466 0.2872 0.0
C125 C 0.09778 0.20191 0.27359 0.0
C126 C 0.11548 0.18587 0.2768 0.0
C127 C 0.1061 0.24323 0.26741 0.0
C128 C 0.08448 0.23145 0.30989 0.0
H129 H 0.07003 0.1232 0.22117 0.0
H130 H 0.14525 0.09766 0.24991 0.0
H131 H 0.11992 0.12478 0.30001 0.0
H132 H 0.1337 0.14952 0.30915 0.0
H133 H 0.15023 0.12497 0.29508 0.0
H134 H 0.15249 0.1476 0.22951 0.0
H135 H 0.16794 0.13534 0.25479 0.0
H136 H 0.16051 0.16528 0.25593 0.0
H137 H 0.01499 0.18793 0.21818 0.0
H138 H 0.02472 0.25623 0.24903 0.0
H139 H 0.06005 0.24372 0.2668 0.0
H140 H 0.06303 0.17986 0.19451 0.0
H141 H 0.04614 0.15543 0.19676 0.0
H142 H 0.07637 0.15379 0.20039 0.0
H143 H 0.03271 0.1613 0.26803 0.0
H144 H 0.04968 0.1378 0.25482 0.0
H145 H 0.02639 0.1482 0.23692 0.0
H146 H 0.0845 0.08537 0.20877 0.0
C147 C 0.08631 0.11833 0.22779 0.0
C148 C 0.38874 0.49551 0.84273 0.0
C149 C 0.40003 0.48108 0.82281 0.0
C150 C 0.42258 0.48544 0.81462 0.0
C151 C 0.42097 0.51974 0.84297 0.0
C152 C 0.3995 0.51473 0.85247 0.0
C153 C 0.38938 0.53292 0.87205 0.0
H154 H 0.39156 0.64032 0.92462 0.0
C155 C 0.42617 0.54236 0.85425 0.0
C156 C 0.40791 0.55011 0.87161 0.0
H157 H 0.34217 0.59002 0.94078 0.0
H158 H 0.36465 0.562 0.91342 0.0
H159 H 0.436 0.606 0.92999 0.0
H160 H 0.4002 0.62693 0.86376 0.0
H161 H 0.42944 0.62732 0.85541 0.0
H162 H 0.41724 0.64579 0.88223 0.0
H163 H 0.43782 0.63399 0.91834 0.0
H164 H 0.45629 0.61069 0.90459 0.0
C165 C 0.38625 0.52258 0.89911 0.0
C166 C 0.3671 0.54246 0.86146 0.0
C167 C 0.49369 0.58145 0.8151 0.0
C168 C 0.50086 0.6038 0.81757 0.0
C169 C 0.49029 0.61891 0.83734 0.0
C170 C 0.4719 0.61218 0.8533 0.0
C171 C 0.46395 0.59017 0.84933 0.0
C172 C 0.47525 0.57508 0.83092 0.0
C173 C 0.46414 0.55272 0.82851 0.0
C174 C 0.44409 0.55686 0.84831 0.0
C175 C 0.44396 0.57884 0.86039 0.0
C176 C 0.48101 0.53409 0.83684 0.0
C177 C 0.45668 0.54923 0.79996 0.0
C178 C 0.38571 0.6232 0.92257 0.0
C179 C 0.36483 0.61753 0.9346 0.0
C180 C 0.35788 0.59502 0.93125 0.0
C181 C 0.371 0.57872 0.91544 0.0
C182 C 0.39128 0.58492 0.90265 0.0
C183 C 0.39864 0.60667 0.90684 0.0
C184 C 0.42091 0.60998 0.89202 0.0
C185 C 0.42561 0.58665 0.87824 0.0
C186 C 0.40794 0.57219 0.88419 0.0
C187 C 0.43878 0.61563 0.91211 0.0
C188 C 0.41698 0.62855 0.87238 0.0
H189 H 0.44997 0.50724 0.81698 0.0
H190 H 0.37159 0.49242 0.84986 0.0
H191 H 0.36962 0.54536 0.84022 0.0
H192 H 0.36113 0.55898 0.87099 0.0
H193 H 0.35329 0.53039 0.86381 0.0
H194 H 0.39846 0.50797 0.90081 0.0
H195 H 0.36888 0.51636 0.90239 0.0
H196 H 0.38975 0.53475 0.91551 0.0
H197 H 0.50168 0.56935 0.80032 0.0
H198 H 0.49551 0.63624 0.83962 0.0
H199 H 0.46408 0.62462 0.86748 0.0
H200 H 0.4916 0.54084 0.85258 0.0
H201 H 0.49269 0.52754 0.82007 0.0
H202 H 0.47238 0.51973 0.84541 0.0
H203 H 0.45178 0.56572 0.79196 0.0
H204 H 0.44146 0.53915 0.79834 0.0
H205 H 0.47064 0.54112 0.78674 0.0
H206 H 0.43173 0.47486 0.79919 0.0
C207 C 0.43312 0.50452 0.82474 0.0
C208 C 0.76766 0.87564 0.32609 0.0
C209 C 0.77588 0.85683 0.33897 0.0
C210 C 0.7978 0.84744 0.33152 0.0
C211 C 0.80303 0.8755 0.2994 0.0
C212 C 0.78148 0.88463 0.30638 0.0
C213 C 0.77539 0.90436 0.29038 0.0
H214 H 0.80575 0.97213 0.1929 0.0
C215 C 0.81306 0.88867 0.27839 0.0
C216 C 0.79696 0.90564 0.27293 0.0
H217 H 0.74202 0.97467 0.23906 0.0
H218 H 0.75578 0.94373 0.26399 0.0
H219 H 0.8363 0.9679 0.23908 0.0
H220 H 0.8117 0.91743 0.18524 0.0
H221 H 0.84066 0.91081 0.18838 0.0
H222 H 0.83221 0.93761 0.1761 0.0
H223 H 0.84973 0.96187 0.20698 0.0
H224 H 0.85798 0.94661 0.23476 0.0
C225 C 0.77108 0.92578 0.30917 0.0
C226 C 0.75484 0.89798 0.27441 0.0
C227 C 0.89305 0.86774 0.23967 0.0
C228 C 0.90702 0.87732 0.22039 0.0
C229 C 0.89881 0.89681 0.20862 0.0
C230 C 0.87702 0.90621 0.21535 0.0
C231 C 0.86314 0.89622 0.23424 0.0
C232 C 0.8713 0.87752 0.24633 0.0
C233 C 0.85431 0.86974 0.2666 0.0
C234 C 0.83461 0.88678 0.26443 0.0
C235 C 0.83986 0.90205 0.24528 0.0
C236 C 0.86473 0.87218 0.2937 0.0
C237 C 0.84809 0.84527 0.25809 0.0
C238 C 0.79458 0.9658 0.20809 0.0
C239 C 0.77262 0.97548 0.21369 0.0
C240 C 0.75895 0.96732 0.23429 0.0
C241 C 0.76696 0.94935 0.24864 0.0
C242 C 0.78892 0.93961 0.24241 0.0
C243 C 0.80232 0.94808 0.22255 0.0
C244 C 0.82536 0.93633 0.21885 0.0
C245 C 0.82355 0.91898 0.23941 0.0
C246 C 0.8022 0.92087 0.25317 0.0
C247 C 0.8434 0.95398 0.22502 0.0
C248 C 0.82786 0.92501 0.19067 0.0
H249 H 0.82785 0.84869 0.30724 0.0
H250 H 0.75093 0.88331 0.33133 0.0
H251 H 0.75639 0.87983 0.26714 0.0
H252 H 0.75355 0.90756 0.25666 0.0
H253 H 0.7387 0.90056 0.28666 0.0
H254 H 0.78327 0.92594 0.32496 0.0
H255 H 0.75366 0.92634 0.31868 0.0
H256 H 0.77363 0.94169 0.29933 0.0
H257 H 0.89873 0.85279 0.24913 0.0
H258 H 0.90933 0.90499 0.19427 0.0
H259 H 0.87184 0.92091 0.20551 0.0
H260 H 0.87554 0.88716 0.29497 0.0
H261 H 0.87554 0.85697 0.29719 0.0
H262 H 0.85182 0.87526 0.31014 0.0
H263 H 0.84785 0.84296 0.23637 0.0
H264 H 0.83089 0.84111 0.26542 0.0
H265 H 0.86061 0.83256 0.26457 0.0
H266 H 0.8044 0.83262 0.34055 0.0
C267 C 0.81139 0.85669 0.31194 0.0
C268 C 0.72727 0.25915 0.69688 0.0
C269 C 0.74686 0.2668 0.70844 0.0
C270 C 0.75773 0.2855 0.69826 0.0
C271 C 0.72828 0.29017 0.6678 0.0
C272 C 0.71834 0.27102 0.6766 0.0
C273 C 0.69712 0.26581 0.66285 0.0
H274 H 0.61597 0.30119 0.58499 0.0
C275 C 0.71384 0.29975 0.64824 0.0
C276 C 0.6957 0.28536 0.64491 0.0
H277 H 0.61919 0.23853 0.62471 0.0
H278 H 0.65595 0.24776 0.63979 0.0
H279 H 0.63485 0.33238 0.62943 0.0
H280 H 0.66656 0.29662 0.56059 0.0
H281 H 0.68128 0.3217 0.56459 0.0
H282 H 0.65133 0.32332 0.55899 0.0
H283 H 0.63056 0.34033 0.59669 0.0
H284 H 0.65352 0.35096 0.61478 0.0
C285 C 0.677 0.26674 0.68372 0.0
C286 C 0.70108 0.24263 0.64719 0.0
C287 C 0.72873 0.37807 0.6161 0.0
C288 C 0.71706 0.39197 0.59943 0.0
C289 C 0.6985 0.38329 0.58654 0.0
C290 C 0.69118 0.36154 0.59084 0.0
C291 C 0.70235 0.34825 0.60841 0.0
C292 C 0.72114 0.35628 0.6202 0.0
C293 C 0.73103 0.33946 0.63789 0.0
C294 C 0.71467 0.32032 0.63521 0.0
C295 C 0.69777 0.32578 0.61821 0.0
C296 C 0.72984 0.35074 0.66607 0.0
C297 C 0.75535 0.33204 0.62681 0.0
C298 C 0.62466 0.28906 0.59641 0.0
C299 C 0.61441 0.26908 0.60365 0.0
C300 C 0.6264 0.25422 0.61913 0.0
C301 C 0.64782 0.25957 0.62779 0.0
C302 C 0.65739 0.28 0.62098 0.0
C303 C 0.646 0.29403 0.60501 0.0
C304 C 0.65865 0.31488 0.59929 0.0
C305 C 0.6795 0.31125 0.61471 0.0
C306 C 0.67858 0.29098 0.6277 0.0
C307 C 0.64372 0.33585 0.61039 0.0
C308 C 0.66471 0.31434 0.56934 0.0
H309 H 0.75742 0.3115 0.67149 0.0
H310 H 0.71848 0.24485 0.70418 0.0
H311 H 0.71917 0.23982 0.63999 0.0
H312 H 0.69145 0.24152 0.62929 0.0
H313 H 0.69666 0.22841 0.65954 0.0
H314 H 0.67811 0.28155 0.69799 0.0
H315 H 0.67706 0.25117 0.69489 0.0
H316 H 0.66032 0.2689 0.67538 0.0
H317 H 0.74324 0.38414 0.62601 0.0
H318 H 0.68902 0.39367 0.57383 0.0
H319 H 0.67666 0.3562 0.58085 0.0
H320 H 0.7131 0.35984 0.67071 0.0
H321 H 0.74321 0.3633 0.66822 0.0
H322 H 0.73148 0.33852 0.68137 0.0
H323 H 0.75722 0.3335 0.60521 0.0
H324 H 0.75962 0.31396 0.62959 0.0
H325 H 0.76824 0.34271 0.6358 0.0
H326 H 0.77316 0.2914 0.70631 0.0
C327 C 0.74859 0.29716 0.678 0.0
C328 C 0.60443 0.49755 0.25021 0.0
C329 C 0.59149 0.51105 0.26967 0.0
C330 C 0.56925 0.50489 0.27683 0.0
C331 C 0.57413 0.47105 0.24777 0.0
C332 C 0.59538 0.4777 0.23947 0.0
C333 C 0.60706 0.46079 0.21942 0.0
H334 H 0.61073 0.35587 0.15842 0.0
C335 C 0.57062 0.44851 0.23505 0.0
C336 C 0.58969 0.44248 0.21808 0.0
H337 H 0.65891 0.40849 0.14901 0.0
H338 H 0.63499 0.43424 0.17795 0.0
H339 H 0.60147 0.36407 0.21843 0.0
H340 H 0.56523 0.38938 0.15483 0.0
H341 H 0.545 0.38143 0.17878 0.0
H342 H 0.565 0.36028 0.16312 0.0
H343 H 0.58342 0.3466 0.19962 0.0
H344 H 0.57252 0.36399 0.22806 0.0
C345 C 0.62946 0.45209 0.23045 0.0
C346 C 0.61027 0.47236 0.19313 0.0
C347 C 0.50412 0.40392 0.26748 0.0
C348 C 0.49827 0.38128 0.26285 0.0
C349 C 0.5107 0.36757 0.24311 0.0
C350 C 0.52917 0.37608 0.22888 0.0
C351 C 0.5355 0.39843 0.2347 0.0
C352 C 0.52277 0.41205 0.2534 0.0
C353 C 0.53253 0.43494 0.258 0.0
C354 C 0.55336 0.4328 0.23909 0.0
C355 C 0.55505 0.4114 0.22555 0.0
C356 C 0.53883 0.43734 0.28704 0.0
C357 C 0.51505 0.45323 0.25018 0.0
C358 C 0.61598 0.37306 0.16215 0.0
C359 C 0.63684 0.38006 0.15147 0.0
C360 C 0.64311 0.40252 0.1573 0.0
C361 C 0.62917 0.41748 0.17403 0.0
C362 C 0.60875 0.40994 0.18523 0.0
C363 C 0.60226 0.38821 0.1788 0.0
C364 C 0.58001 0.38308 0.19247 0.0
C365 C 0.57412 0.40539 0.20802 0.0
C366 C 0.59118 0.42096 0.20401 0.0
C367 C 0.58435 0.36333 0.2105 0.0
C368 C 0.56282 0.3781 0.17135 0.0
H369 H 0.54372 0.48108 0.27273 0.0
H370 H 0.62141 0.50202 0.24395 0.0
H371 H 0.59676 0.48575 0.19129 0.0
H372 H 0.60885 0.46041 0.17589 0.0
H373 H 0.62687 0.48052 0.19148 0.0
H374 H 0.62663 0.44846 0.25145 0.0
H375 H 0.64261 0.46497 0.22912 0.0
H376 H 0.63645 0.43608 0.22048 0.0
H377 H 0.49518 0.41477 0.28284 0.0
H378 H 0.50639 0.35011 0.23907 0.0
H379 H 0.53821 0.3647 0.21443 0.0
H380 H 0.54554 0.42085 0.29354 0.0
H381 H 0.52377 0.44283 0.30022 0.0
H382 H 0.55245 0.44917 0.29048 0.0
H383 H 0.5049 0.44659 0.23398 0.0
H384 H 0.52319 0.4682 0.24243 0.0
H385 H 0.50299 0.45884 0.26698 0.0
H386 H 0.55893 0.51478 0.2919 0.0
C387 C 0.5605 0.4851 0.26589 0.0
C388 C 0.21609 0.14461 0.7592 0.0
C389 C 0.23868 0.13852 0.75075 0.0
C390 C 0.24955 0.11975 0.76132 0.0
C391 C 0.21516 0.11312 0.78754 0.0
C392 C 0.20473 0.13176 0.77745 0.0
C393 C 0.18067 0.13609 0.78828 0.0
H394 H 0.09343 0.10685 0.8689 0.0
C395 C 0.19837 0.10323 0.80565 0.0
C396 C 0.17814 0.11664 0.80609 0.0
H397 H 0.09626 0.16438 0.82051 0.0
H398 H 0.13407 0.15206 0.80375 0.0
H399 H 0.11495 0.0711 0.82674 0.0
H400 H 0.14461 0.11 0.88851 0.0
H401 H 0.15504 0.08169 0.88887 0.0
H402 H 0.12502 0.08802 0.89391 0.0
H403 H 0.11387 0.06232 0.85972 0.0
H404 H 0.13734 0.05377 0.83656 0.0
C405 C 0.16484 0.13417 0.76519 0.0
C406 C 0.17908 0.15947 0.80387 0.0
C407 C 0.21957 0.03257 0.85292 0.0
C408 C 0.20677 0.01892 0.86926 0.0
C409 C 0.18362 0.02464 0.8753 0.0
C410 C 0.17333 0.04383 0.86552 0.0
C411 C 0.18625 0.05745 0.84935 0.0
C412 C 0.20887 0.05157 0.8429 0.0
C413 C 0.21941 0.06739 0.8241 0.0
C414 C 0.1995 0.0839 0.82086 0.0
C415 C 0.18026 0.07811 0.83599 0.0
C416 C 0.22678 0.05347 0.79819 0.0
C417 C 0.23902 0.07913 0.83756 0.0
C418 C 0.10226 0.11687 0.85481 0.0
C419 C 0.09193 0.13672 0.84618 0.0
C420 C 0.1038 0.14897 0.82736 0.0
C421 C 0.12583 0.14186 0.81781 0.0
C422 C 0.13612 0.12226 0.82711 0.0
C423 C 0.12424 0.11001 0.8451 0.0
C424 C 0.13773 0.08955 0.85268 0.0
C425 C 0.15993 0.09186 0.83677 0.0
C426 C 0.15888 0.11101 0.82187 0.0
C427 C 0.12539 0.06799 0.8437 0.0
C428 C 0.14075 0.09221 0.88257 0.0
H429 H 0.247 0.09281 0.78686 0.0
H430 H 0.20741 0.15924 0.7519 0.0
H431 H 0.19517 0.16286 0.81341 0.0
H432 H 0.16593 0.1605 0.82019 0.0
H433 H 0.1758 0.17345 0.79079 0.0
H434 H 0.17121 0.12044 0.75047 0.0
H435 H 0.16388 0.15025 0.755 0.0
H436 H 0.14749 0.12954 0.77131 0.0
H437 H 0.23734 0.02833 0.84776 0.0
H438 H 0.17354 0.01437 0.888 0.0
H439 H 0.1557 0.04735 0.87104 0.0
H440 H 0.21487 0.03974 0.79417 0.0
H441 H 0.244 0.04538 0.7991 0.0
H442 H 0.22649 0.06371 0.78083 0.0
H443 H 0.23418 0.08367 0.85861 0.0
H444 H 0.2433 0.09528 0.82908 0.0
H445 H 0.25452 0.06776 0.8366 0.0
H446 H 0.26694 0.11471 0.75507 0.0
C447 C 0.23789 0.10699 0.77964 0.0
C448 C 0.25129 0.72412 0.38895 0.0
C449 C 0.25805 0.74405 0.3775 0.0
C450 C 0.27749 0.75461 0.38624 0.0
C451 C 0.28388 0.7247 0.41574 0.0
C452 C 0.26445 0.71473 0.40783 0.0
C453 C 0.26054 0.69274 0.42045 0.0
H454 H 0.2994 0.61064 0.49512 0.0
C455 C 0.29447 0.70993 0.43435 0.0
C456 C 0.28078 0.69124 0.43734 0.0
H457 H 0.23899 0.61104 0.45129 0.0
H458 H 0.24597 0.64915 0.43895 0.0
H459 H 0.33042 0.63159 0.4523 0.0
H460 H 0.29242 0.66206 0.52042 0.0
H461 H 0.31763 0.67674 0.51759 0.0
H462 H 0.31898 0.64671 0.52271 0.0
H463 H 0.3382 0.6276 0.48517 0.0
H464 H 0.3479 0.65111 0.4674 0.0
C465 C 0.26139 0.67344 0.39848 0.0
C466 C 0.23785 0.69537 0.43727 0.0
C467 C 0.37171 0.72783 0.4676 0.0
C468 C 0.38605 0.71657 0.48415 0.0
C469 C 0.3782 0.69743 0.49659 0.0
C470 C 0.35687 0.68914 0.49189 0.0
C471 C 0.34319 0.69991 0.47438 0.0
C472 C 0.35037 0.71928 0.46312 0.0
C473 C 0.33325 0.72865 0.44544 0.0
C474 C 0.31496 0.71134 0.44747 0.0
C475 C 0.32107 0.69441 0.46417 0.0
C476 C 0.34464 0.72846 0.41737 0.0
C477 C 0.32464 0.75245 0.45712 0.0
C478 C 0.28739 0.61909 0.48332 0.0
C479 C 0.26862 0.60781 0.47416 0.0
C480 C 0.25369 0.61929 0.45838 0.0
C481 C 0.25779 0.64141 0.45125 0.0
C482 C 0.27719 0.65207 0.4597 0.0
C483 C 0.29138 0.64102 0.47581 0.0
C484 C 0.31156 0.65453 0.48228 0.0
C485 C 0.30732 0.67545 0.46713 0.0
C486 C 0.28721 0.67392 0.45389 0.0
C487 C 0.33326 0.64059 0.47147 0.0
C488 C 0.31033 0.66026 0.5123 0.0
H489 H 0.30514 0.75377 0.41078 0.0
H490 H 0.23632 0.71567 0.38297 0.0
H491 H 0.23579 0.71258 0.4474 0.0
H492 H 0.23688 0.68347 0.45312 0.0
H493 H 0.22316 0.69305 0.42492 0.0
H494 H 0.27355 0.67703 0.38196 0.0
H495 H 0.24448 0.67145 0.39038 0.0
H496 H 0.26757 0.65694 0.40499 0.0
H497 H 0.37711 0.74275 0.45804 0.0
H498 H 0.38894 0.68828 0.50922 0.0
H499 H 0.35215 0.67424 0.50153 0.0
H500 H 0.35565 0.71282 0.41292 0.0
H501 H 0.35546 0.74326 0.4152 0.0
H502 H 0.33238 0.72826 0.40192 0.0
H503 H 0.32446 0.75338 0.47892 0.0
H504 H 0.30691 0.75664 0.45272 0.0
H505 H 0.33571 0.76587 0.45006 0.0
H506 H 0.28333 0.76979 0.37759 0.0
C507 C 0.29033 0.74513 0.40536 0.0
C508 C 0.87202 0.89126 0.85349 0.0
C509 C 0.88447 0.90488 0.87045 0.0
C510 C 0.90497 0.89586 0.87921 0.0
C511 C 0.9005 0.86049 0.85402 0.0
C512 C 0.88032 0.86921 0.8456 0.0
C513 C 0.86925 0.85249 0.82762 0.0
H514 H 0.8715 0.74922 0.76246 0.0
C515 C 0.90432 0.83712 0.84225 0.0
C516 C 0.88604 0.83226 0.82687 0.0
H517 H 0.8211 0.80433 0.76196 0.0
H518 H 0.84166 0.82675 0.79248 0.0
H519 H 0.91629 0.7815 0.76146 0.0
H520 H 0.87676 0.75292 0.82395 0.0
H521 H 0.90519 0.75205 0.8323 0.0
H522 H 0.89732 0.73599 0.80334 0.0
H523 H 0.91509 0.75152 0.76525 0.0
H524 H 0.93467 0.76842 0.7826 0.0
C525 C 0.8681 0.8627 0.80046 0.0
C526 C 0.84589 0.8472 0.84072 0.0
C527 C 0.97575 0.79193 0.86025 0.0
C528 C 0.98359 0.7695 0.85378 0.0
C529 C 0.97038 0.755 0.83878 0.0
C530 C 0.94966 0.76308 0.82982 0.0
C531 C 0.94207 0.78574 0.83635 0.0
C532 C 0.95497 0.79958 0.85169 0.0
C533 C 0.9438 0.82262 0.85835 0.0
C534 C 0.92217 0.8206 0.84401 0.0
C535 C 0.92134 0.79912 0.83085 0.0
C536 C 0.95935 0.84052 0.84677 0.0
C537 C 0.93906 0.82552 0.88855 0.0
C538 C 0.86504 0.76618 0.76884 0.0
C539 C 0.84462 0.77499 0.75984 0.0
C540 C 0.8366 0.79703 0.76887 0.0
C541 C 0.84866 0.81011 0.78649 0.0
C542 C 0.86904 0.80116 0.79526 0.0
C543 C 0.8769 0.77951 0.78657 0.0
C544 C 0.89877 0.77281 0.79841 0.0
C545 C 0.90288 0.79418 0.81516 0.0
C546 C 0.88538 0.81069 0.81319 0.0
C547 C 0.91728 0.76816 0.77587 0.0
C548 C 0.89451 0.75228 0.81527 0.0
H549 H 0.92873 0.86802 0.87847 0.0
H550 H 0.85632 0.89769 0.84617 0.0
H551 H 0.84666 0.84716 0.8624 0.0
H552 H 0.8403 0.83015 0.83472 0.0
H553 H 0.8326 0.8601 0.83653 0.0
H554 H 0.88316 0.87289 0.79612 0.0
H555 H 0.85273 0.87406 0.79975 0.0
H556 H 0.86845 0.84966 0.78406 0.0
H557 H 0.98544 0.80321 0.87228 0.0
H558 H 0.97615 0.73755 0.83392 0.0
H559 H 0.9403 0.75138 0.81828 0.0
H560 H 0.96657 0.83453 0.82688 0.0
H561 H 0.97375 0.84374 0.85932 0.0
H562 H 0.95026 0.85681 0.84406 0.0
H563 H 0.93707 0.80886 0.89731 0.0
H564 H 0.92294 0.83517 0.8943 0.0
H565 H 0.95317 0.83394 0.89813 0.0
H566 H 0.91472 0.90579 0.89263 0.0
C567 C 0.91303 0.87381 0.8711 0.0
H568 H 0.1318 0.88817 0.12779 0.0
H569 H 0.1268 0.92545 0.15102 0.0
H570 H 0.19733 0.93789 0.13381 0.0
H571 H 0.20273 0.90028 0.11086 0.0
H572 H 0.18278 0.95325 0.18413 0.0
H573 H 0.1589 0.96102 0.09781 0.0
H574 H 0.13851 0.95099 0.05836 0.0
H575 H 0.07472 0.96242 0.10273 0.0
H576 H 0.09476 0.9722 0.14255 0.0
H577 H 0.15932 0.07455 0.2105 0.0
H578 H 0.17238 0.03691 0.19152 0.0
H579 H 0.1055 0.01222 0.20702 0.0
H580 H 0.09248 0.04948 0.22655 0.0
H581 H 0.12203 0.00471 0.15494 0.0
H582 H 0.1472 0.99509 0.242 0.0
H583 H 0.16848 0.00517 0.28077 0.0
H584 H 0.23109 0.9985 0.23344 0.0
H585 H 0.21013 0.98868 0.19428 0.0
C586 C 0.14632 0.89874 0.12903 0.0
C587 C 0.16762 0.89134 0.11727 0.0
C588 C 0.1434 0.92004 0.14227 0.0
C589 C 0.16157 0.93454 0.14373 0.0
C590 C 0.18308 0.92696 0.13284 0.0
C591 C 0.1861 0.9055 0.11971 0.0
C592 C 0.15761 0.95786 0.15584 0.0
C593 C 0.16977 0.96468 0.17751 0.0
C594 C 0.14054 0.97269 0.14724 0.0
C595 C 0.12836 0.96717 0.12323 0.0
C596 C 0.14054 0.96126 0.09919 0.0
C597 C 0.12904 0.95564 0.07675 0.0
C598 C 0.10533 0.95604 0.07804 0.0
C599 C 0.09308 0.96215 0.10175 0.0
C600 C 0.10451 0.96777 0.12426 0.0
C601 C 0.14754 0.06096 0.21042 0.0
C602 C 0.12478 0.06507 0.21976 0.0
C603 C 0.15501 0.03951 0.19949 0.0
C604 C 0.13985 0.02187 0.19776 0.0
C605 C 0.1174 0.02569 0.208 0.0
C606 C 0.10998 0.04702 0.21904 0.0
C607 C 0.14672 -0.00014 0.18368 0.0
C608 C 0.13515 0.99335 0.16147 0.0
C609 C 0.16448 0.98553 0.19164 0.0
C610 C 0.17707 0.99142 0.21516 0.0
C611 C 0.16549 0.99599 0.2398 0.0
C612 C 0.17749 0.00161 0.26186 0.0
C613 C 0.20112 0.00255 0.25955 0.0
C614 C 0.21279 0.99781 0.23519 0.0
C615 C 0.20086 0.9922 0.21306 0.0
H616 H 0.21039 0.00689 0.27665 0.0
H617 H 0.09645 0.95165 0.06066 0.0
H618 H 0.61677 0.69359 0.63032 0.0
H619 H 0.59895 0.68769 0.67353 0.0
H620 H 0.61188 0.61543 0.66022 0.0
H621 H 0.62994 0.62115 0.61714 0.0
H622 H 0.56148 0.66541 0.683 0.0
H623 H 0.61741 0.59143 0.71847 0.0
H624 H 0.65765 0.57819 0.71564 0.0
H625 H 0.67796 0.64615 0.70481 0.0
H626 H 0.63788 0.65988 0.70803 0.0
H627 H 0.50182 0.59553 0.76479 0.0
H628 H 0.52843 0.60899 0.73161 0.0
H629 H 0.56413 0.64395 0.79193 0.0
H630 H 0.53746 0.63022 0.82563 0.0
H631 H 0.59294 0.61906 0.75133 0.0
H632 H 0.53169 0.67514 0.76034 0.0
H633 H 0.49148 0.6885 0.76351 0.0
H634 H 0.48287 0.65852 0.68643 0.0
H635 H 0.52295 0.64469 0.68295 0.0
C636 C 0.61607 0.67645 0.63668 0.0
C637 C 0.62458 0.65782 0.62014 0.0
C638 C 0.60587 0.67313 0.66139 0.0
C639 C 0.60418 0.65116 0.67015 0.0
C640 C 0.61327 0.63257 0.65403 0.0
C641 C 0.62344 0.63587 0.62929 0.0
C642 C 0.59121 0.64746 0.69511 0.0
C643 C 0.56847 0.65548 0.69805 0.0
C644 C 0.60038 0.63469 0.71488 0.0
C645 C 0.62459 0.62666 0.71335 0.0
C646 C 0.63046 0.60359 0.71569 0.0
C647 C 0.65325 0.596 0.71402 0.0
C648 C 0.67035 0.61132 0.71005 0.0
C649 C 0.6647 0.63429 0.70783 0.0
C650 C 0.64194 0.64198 0.70956 0.0
C651 C 0.5155 0.60582 0.7711 0.0
C652 C 0.51765 0.61172 0.79784 0.0
C653 C 0.53059 0.61362 0.75209 0.0
C654 C 0.54812 0.62754 0.75935 0.0
C655 C 0.55066 0.63321 0.78601 0.0
C656 C 0.53539 0.6255 0.80516 0.0
C657 C 0.5632 0.63652 0.73868 0.0
C658 C 0.5862 0.62937 0.73647 0.0
C659 C 0.55436 0.65021 0.71959 0.0
C660 C 0.53031 0.65878 0.72145 0.0
C661 C 0.52119 0.67128 0.74413 0.0
C662 C 0.49842 0.67895 0.74597 0.0
C663 C 0.48462 0.67434 0.7252 0.0
C664 C 0.49358 0.66209 0.70251 0.0
C665 C 0.51633 0.65436 0.70057 0.0
H666 H 0.467 0.68028 0.72667 0.0
H667 H 0.68798 0.60538 0.70866 0.0
H668 H 0.83261 0.12037 0.07674 0.0
H669 H 0.81694 0.09619 0.10946 0.0
H670 H 0.74929 0.12148 0.0962 0.0
H671 H 0.76491 0.1457 0.06286 0.0
H672 H 0.79245 0.10228 0.15463 0.0
H673 H 0.71456 0.07477 0.10024 0.0
H674 H 0.70108 0.07288 0.05541 0.0
H675 H 0.76994 0.06663 0.02318 0.0
H676 H 0.7838 0.06806 0.06779 0.0
H677 H 0.75186 0.01623 0.23176 0.0
H678 H 0.74678 0.05001 0.20663 0.0
H679 H 0.77187 0.01131 0.13601 0.0
H680 H 0.77612 0.97757 0.16074 0.0
H681 H 0.74205 0.04235 0.12379 0.0
H682 H 0.80787 0.03955 0.1764 0.0
H683 H 0.82701 0.03758 0.21786 0.0
H684 H 0.7912 0.09912 0.24813 0.0
H685 H 0.77162 0.10126 0.20692 0.0
C686 C 0.8144 0.12101 0.08087 0.0
C687 C 0.8 0.13477 0.06692 0.0
C688 C 0.80546 0.10726 0.09976 0.0
C689 C 0.78194 0.10688 0.10514 0.0
C690 C 0.76749 0.12137 0.09216 0.0
C691 C 0.77646 0.13522 0.07318 0.0
C692 C 0.77287 0.09002 0.12292 0.0
C693 C 0.78106 0.08943 0.14808 0.0
C694 C 0.75829 0.07306 0.11425 0.0
C695 C 0.75018 0.07187 0.08734 0.0
C696 C 0.7268 0.07294 0.08357 0.0
C697 C 0.7191 0.07192 0.05821 0.0
C698 C 0.73465 0.0697 0.03647 0.0
C699 C 0.75793 0.0684 0.04004 0.0
C700 C 0.76571 0.06933 0.06535 0.0
C701 C 0.75553 0.01481 0.21073 0.0
C702 C 0.76481 0.99444 0.19825 0.0
C703 C 0.75276 0.03413 0.19642 0.0
C704 C 0.75943 0.03332 0.16953 0.0
C705 C 0.7667 0.01243 0.15672 0.0
C706 C 0.76934 0.99319 0.17093 0.0
C707 C 0.76203 0.05434 0.15528 0.0
C708 C 0.75268 0.05571 0.13077 0.0
C709 C 0.77626 0.07158 0.1641 0.0
C710 C 0.78809 0.0704 0.18878 0.0
C711 C 0.80399 0.05257 0.19198 0.0
C712 C 0.81491 0.05143 0.21541 0.0
C713 C 0.81026 0.06818 0.23566 0.0
C714 C 0.79473 0.08613 0.23246 0.0
C715 C 0.78371 0.08731 0.20909 0.0
H716 H 0.81874 0.06727 0.25378 0.0
H717 H 0.72865 0.06895 0.01686 0.0
H718 H 0.42763 0.33181 0.53635 0.0
H719 H 0.46471 0.31557 0.54586 0.0
H720 H 0.43229 0.26427 0.58945 0.0
H721 H 0.39485 0.28017 0.57947 0.0
H722 H 0.4704 0.29227 0.61387 0.0
H723 H 0.45271 0.24428 0.53815 0.0
H724 H 0.43971 0.23848 0.4934 0.0
H725 H 0.49433 0.27722 0.4634 0.0
H726 H 0.50746 0.28355 0.50804 0.0
H727 H 0.58041 0.24935 0.63237 0.0
H728 H 0.54042 0.24817 0.62315 0.0
H729 H 0.55446 0.28007 0.55054 0.0
H730 H 0.59461 0.27911 0.55825 0.0
H731 H 0.52236 0.25517 0.54299 0.0
H732 H 0.53643 0.31018 0.61275 0.0
H733 H 0.54967 0.32354 0.65559 0.0
H734 H 0.50325 0.28069 0.69467 0.0
H735 H 0.48994 0.26686 0.65199 0.0
C736 C 0.42833 0.31713 0.54805 0.0
C737 C 0.40834 0.30726 0.55722 0.0
C738 C 0.44952 0.30783 0.55335 0.0
C739 C 0.45112 0.28873 0.56822 0.0
C740 C 0.43128 0.27901 0.57786 0.0
C741 C 0.40999 0.28806 0.57212 0.0
C742 C 0.47375 0.27923 0.57367 0.0
C743 C 0.48167 0.28361 0.59864 0.0
C744 C 0.48852 0.26878 0.55342 0.0
C745 C 0.481 0.26446 0.52647 0.0
C746 C 0.46188 0.25166 0.52203 0.0
C747 C 0.4545 0.24826 0.49668 0.0
C748 C 0.46618 0.25749 0.47557 0.0
C749 C 0.48533 0.27005 0.47976 0.0
C750 C 0.49276 0.27352 0.50508 0.0
C751 C 0.57516 0.25541 0.61401 0.0
C752 C 0.59079 0.26489 0.59639 0.0
C753 C 0.55214 0.25506 0.60895 0.0
C754 C 0.54418 0.26482 0.58662 0.0
C755 C 0.56 0.2727 0.56811 0.0
C756 C 0.58302 0.27247 0.57277 0.0
C757 C 0.51946 0.26856 0.58326 0.0
C758 C 0.51107 0.26324 0.55858 0.0
C759 C 0.50447 0.27899 0.60354 0.0
C760 C 0.51242 0.28727 0.6292 0.0
C761 C 0.52917 0.3035 0.63048 0.0
C762 C 0.53667 0.31117 0.65472 0.0
C763 C 0.52737 0.30291 0.67783 0.0
C764 C 0.51049 0.28702 0.67675 0.0
C765 C 0.50296 0.27926 0.65254 0.0
H766 H 0.53319 0.30887 0.69659 0.0
H767 H 0.4604 0.2549 0.45597 0.0
H768 H 0.61878 0.6496 0.46358 0.0
H769 H 0.6106 0.63304 0.42052 0.0
H770 H 0.67551 0.59628 0.41494 0.0
H771 H 0.68417 0.61356 0.45774 0.0
H772 H 0.6654 0.60915 0.36786 0.0
H773 H 0.62688 0.57212 0.43711 0.0
H774 H 0.60198 0.5694 0.47705 0.0
H775 H 0.54533 0.59592 0.43772 0.0
H776 H 0.57002 0.59934 0.39771 0.0
H777 H 0.63407 0.51245 0.28791 0.0
H778 H 0.64772 0.54042 0.31969 0.0
H779 H 0.58507 0.58021 0.31795 0.0
H780 H 0.57144 0.55254 0.28577 0.0
H781 H 0.59407 0.5676 0.36712 0.0
H782 H 0.63373 0.60142 0.29598 0.0
H783 H 0.65958 0.60183 0.25644 0.0
H784 H 0.71499 0.57768 0.29953 0.0
H785 H 0.6894 0.57681 0.33926 0.0
C786 C 0.63143 0.63818 0.45305 0.0
C787 C 0.65197 0.63256 0.46418 0.0
C788 C 0.62673 0.62872 0.42845 0.0
C789 C 0.64221 0.61298 0.41478 0.0
C790 C 0.66327 0.6083 0.42519 0.0
C791 C 0.66817 0.61811 0.44967 0.0
C792 C 0.63566 0.60019 0.39072 0.0
C793 C 0.64989 0.59992 0.36772 0.0
C794 C 0.61529 0.58832 0.39045 0.0
C795 C 0.60038 0.58627 0.41451 0.0
C796 C 0.60917 0.5776 0.43705 0.0
C797 C 0.59509 0.57594 0.45971 0.0
C798 C 0.57211 0.58262 0.45997 0.0
C799 C 0.56316 0.5909 0.43754 0.0
C800 C 0.57719 0.59271 0.41486 0.0
C801 C 0.6235 0.52754 0.29356 0.0
C802 C 0.60154 0.53013 0.28454 0.0
C803 C 0.63132 0.5435 0.3118 0.0
C804 C 0.61736 0.56233 0.32125 0.0
C805 C 0.59606 0.56572 0.31098 0.0
C806 C 0.58827 0.54985 0.29269 0.0
C807 C 0.62365 0.57673 0.34417 0.0
C808 C 0.60942 0.5771 0.36711 0.0
C809 C 0.64415 0.58831 0.34441 0.0
C810 C 0.65959 0.58887 0.32055 0.0
C811 C 0.65139 0.59601 0.29698 0.0
C812 C 0.666 0.59636 0.27454 0.0
C813 C 0.6889 0.58974 0.27545 0.0
C814 C 0.69724 0.58279 0.29884 0.0
C815 C 0.6827 0.58239 0.32134 0.0
H816 H 0.70019 0.59003 0.25806 0.0
H817 H 0.56123 0.58129 0.47752 0.0
H818 H 0.91817 0.17109 0.99542 0.0
H819 H 0.95376 0.1691 0.96852 0.0
H820 H 0.91814 0.19054 0.90234 0.0
H821 H 0.88227 0.19284 0.92936 0.0
H822 H 0.94723 0.15202 0.89082 0.0
H823 H 0.95012 0.22634 0.92949 0.0
H824 H 0.94807 0.25714 0.96425 0.0
H825 H 0.0041 0.2256 0.00025 0.0
H826 H 0.00609 0.19423 0.96614 0.0
H827 H 0.05598 0.15326 0.82031 0.0
H828 H 0.01824 0.16611 0.83931 0.0
H829 H 0.03884 0.15123 0.91622 0.0
H830 H 0.07656 0.13884 0.89751 0.0
H831 H 0.01551 0.19205 0.91666 0.0
H832 H 0.00764 0.1148 0.88175 0.0
H833 H 0.00963 0.0841 0.84679 0.0
H834 H 0.96296 0.12224 0.80324 0.0
H835 H 0.96093 0.15331 0.83782 0.0
C836 C 0.91789 0.17548 0.97517 0.0
C837 C 0.89744 0.18209 0.96446 0.0
C838 C 0.93826 0.17446 0.95988 0.0
C839 C 0.93857 0.17983 0.93352 0.0
C840 C 0.91821 0.18644 0.9227 0.0
C841 C 0.89781 0.18781 0.93814 0.0
C842 C 0.96017 0.17745 0.91723 0.0
C843 C 0.96206 0.16114 0.89608 0.0
C844 C 0.97951 0.18917 0.92436 0.0
C845 C 0.97813 0.20779 0.94531 0.0
C846 C 0.96182 0.22578 0.945 0.0
C847 C 0.96069 0.24338 0.96458 0.0
C848 C 0.97593 0.24332 0.98445 0.0
C849 C 0.99232 0.22563 0.98482 0.0
C850 C 0.99342 0.20791 0.9654 0.0
C851 C 0.05248 0.15293 0.84129 0.0
C852 C 0.06916 0.14489 0.85741 0.0
C853 C 0.03091 0.16015 0.85208 0.0
C854 C 0.02572 0.15946 0.87914 0.0
C855 C 0.04249 0.15188 0.89529 0.0
C856 C 0.06396 0.1446 0.88454 0.0
C857 C 0.00272 0.16612 0.89087 0.0
C858 C 0.00058 0.18324 0.91114 0.0
C859 C 0.98315 0.15516 0.88294 0.0
C860 C 0.98437 0.13649 0.86219 0.0
C861 C 0.99796 0.11672 0.8646 0.0
C862 C 0.99907 0.09924 0.84489 0.0
C863 C 0.98649 0.10125 0.82277 0.0
C864 C 0.97273 0.12073 0.82036 0.0
C865 C 0.97159 0.13828 0.84001 0.0
H866 H 0.98736 0.0877 0.80753 0.0
H867 H 0.97508 0.257 0.99954 0.0
H868 H 0.2758 0.39246 0.52269 0.0
H869 H 0.26065 0.42867 0.50854 0.0
H870 H 0.32672 0.45666 0.51329 0.0
H871 H 0.34202 0.42069 0.52724 0.0
H872 H 0.25845 0.47109 0.53361 0.0
H873 H 0.33553 0.49107 0.46403 0.0
H874 H 0.36442 0.47014 0.43418 0.0
H875 H 0.31959 0.4153 0.42383 0.0
H876 H 0.2903 0.43604 0.45327 0.0
H877 H 0.27346 0.58769 0.52042 0.0
H878 H 0.27476 0.54713 0.52735 0.0
H879 H 0.25887 0.53258 0.44701 0.0
H880 H 0.25817 0.57318 0.43975 0.0
H881 H 0.2949 0.50793 0.45829 0.0
H882 H 0.22063 0.52252 0.49715 0.0
H883 H 0.19013 0.54233 0.52569 0.0
H884 H 0.22531 0.52623 0.59381 0.0
H885 H 0.2562 0.50661 0.56567 0.0
C886 C 0.28712 0.4063 0.52064 0.0
C887 C 0.31014 0.40368 0.52612 0.0
C888 C 0.27841 0.42698 0.51262 0.0
C889 C 0.2926 0.44525 0.50965 0.0
C890 C 0.31554 0.44267 0.51511 0.0
C891 C 0.32423 0.4221 0.52321 0.0
C892 C 0.2836 0.46728 0.50132 0.0
C893 C 0.26625 0.47913 0.51704 0.0
C894 C 0.29341 0.47744 0.47927 0.0
C895 C 0.31076 0.46507 0.46102 0.0
C896 C 0.33177 0.47462 0.45525 0.0
C897 C 0.34823 0.46277 0.43842 0.0
C898 C 0.34386 0.44138 0.42717 0.0
C899 C 0.32298 0.43184 0.43262 0.0
C900 C 0.30645 0.44362 0.4494 0.0
C901 C 0.26998 0.57587 0.50432 0.0
C902 C 0.26583 0.58362 0.47951 0.0
C903 C 0.27052 0.55269 0.50836 0.0
C904 C 0.2668 0.53681 0.48773 0.0
C905 C 0.26174 0.54455 0.46321 0.0
C906 C 0.26117 0.56776 0.45916 0.0
C907 C 0.27033 0.51219 0.49122 0.0
C908 C 0.28675 0.49983 0.47461 0.0
C909 C 0.25938 0.50145 0.51218 0.0
C910 C 0.24081 0.51319 0.52925 0.0
C911 C 0.22195 0.52334 0.5182 0.0
C912 C 0.20457 0.53451 0.53432 0.0
C913 C 0.20579 0.53556 0.56155 0.0
C914 C 0.22438 0.5254 0.57272 0.0
C915 C 0.24182 0.51422 0.55669 0.0
H916 H 0.19232 0.54422 0.57399 0.0
H917 H 0.35665 0.43223 0.41419 0.0
H918 H 0.11978 0.7638 0.0343 0.0
H919 H 0.09697 0.75097 0.9983 0.0
H920 H 0.12245 0.80413 0.95186 0.0
H921 H 0.14493 0.81728 0.9878 0.0
H922 H 0.07754 0.80528 0.95483 0.0
H923 H 0.13693 0.74758 0.93626 0.0
H924 H 0.16291 0.71608 0.94663 0.0
H925 H 0.10601 0.67605 0.96639 0.0
H926 H 0.07967 0.70744 0.95649 0.0
H927 H 0.02531 0.78425 0.84132 0.0
H928 H 0.05841 0.78089 0.86766 0.0
H929 H 0.02296 0.73548 0.91706 0.0
H930 H 0.98985 0.73853 0.89029 0.0
H931 H 0.07314 0.72806 0.9121 0.0
H932 H 0.01437 0.78624 0.93566 0.0
H933 H 0.98751 0.81699 0.92526 0.0
H934 H 0.04301 0.85556 0.89719 0.0
H935 H 0.0702 0.82487 0.90718 0.0
C936 C 0.12084 0.77251 0.01625 0.0
C937 C 0.13395 0.79175 0.01403 0.0
C938 C 0.10785 0.76508 0.99564 0.0
C939 C 0.10801 0.77659 0.97238 0.0
C940 C 0.12199 0.79506 0.96968 0.0
C941 C 0.13483 0.80257 0.99026 0.0
C942 C 0.09194 0.77103 0.95194 0.0
C943 C 0.07692 0.78846 0.94524 0.0
C944 C 0.09051 0.7489 0.94005 0.0
C945 C 0.10632 0.72995 0.94586 0.0
C946 C 0.12995 0.73213 0.94301 0.0
C947 C 0.14474 0.71428 0.94877 0.0
C948 C 0.13611 0.6941 0.95722 0.0
C949 C 0.11267 0.6917 0.95987 0.0
C950 C 0.0978 0.70951 0.95416 0.0
C951 C 0.02503 0.77274 0.85706 0.0
C952 C 0.00518 0.76168 0.86396 0.0
C953 C 0.04388 0.77083 0.87208 0.0
C954 C 0.04295 0.7582 0.89448 0.0
C955 C 0.024 0.74523 0.89977 0.0
C956 C 0.00514 0.74698 0.88454 0.0
C957 C 0.05934 0.76244 0.91482 0.0
C958 C 0.07408 0.74485 0.92166 0.0
C959 C 0.0605 0.78438 0.92714 0.0
C960 C 0.04429 0.8032 0.92196 0.0
C961 C 0.02083 0.80125 0.92718 0.0
C962 C 0.00555 0.81867 0.92139 0.0
C963 C 0.01354 0.83819 0.91049 0.0
C964 C 0.03684 0.84041 0.90558 0.0
C965 C 0.0522 0.82303 0.91136 0.0
H966 H 0.00166 0.85161 0.90589 0.0
H967 H 0.14759 0.6803 0.96168 0.0
H968 H 0.79891 0.10042 0.96975 0.0
H969 H 0.80377 0.06272 0.94714 0.0
H970 H 0.87587 0.07119 0.93687 0.0
H971 H 0.8712 0.10888 0.95913 0.0
H972 H 0.85891 0.05212 0.89285 0.0
H973 H 0.8541 0.04136 0.98622 0.0
H974 H 0.83581 0.04513 0.03092 0.0
H975 H 0.77845 0.01001 0.00412 0.0
H976 H 0.79629 0.00628 0.95915 0.0
H977 H 0.90962 0.94256 0.87548 0.0
H978 H 0.8966 0.98092 0.89102 0.0
H979 H 0.82779 0.95929 0.89936 0.0
H980 H 0.84087 0.9205 0.88476 0.0
H981 H 0.83775 0.98502 0.94134 0.0
H982 H 0.84451 0.99168 0.84902 0.0
H983 H 0.86285 0.98758 0.80439 0.0
H984 H 0.91582 0.03043 0.82851 0.0
H985 H 0.89799 0.03452 0.87341 0.0
C986 C 0.81578 0.09435 0.96247 0.0
C987 C 0.8347 0.10759 0.96644 0.0
C988 C 0.81852 0.07277 0.94964 0.0
C989 C 0.84022 0.06408 0.9406 0.0
C990 C 0.85899 0.07757 0.94373 0.0
C991 C 0.85629 0.09908 0.95658 0.0
C992 C 0.84369 0.04064 0.92867 0.0
C993 C 0.8544 0.03743 0.90347 0.0
C994 C 0.83714 0.02152 0.94226 0.0
C995 C 0.82643 0.02375 0.96928 0.0
C996 C 0.83751 0.0346 0.98982 0.0
C997 C 0.82725 0.03669 0.01521 0.0
C998 C 0.806 0.0278 0.02035 0.0
C999 C 0.79493 0.01685 0.0001 0.0
C1000 C 0.80511 0.01474 0.97467 0.0
C1001 C 0.89173 0.94589 0.88077 0.0
C1002 C 0.8763 0.92843 0.87894 0.0
C1003 C 0.88426 0.96792 0.88935 0.0
C1004 C 0.86116 0.97307 0.896 0.0
C1005 C 0.84567 0.95572 0.89418 0.0
C1006 C 0.85315 0.93361 0.88565 0.0
C1007 C 0.85349 0.99645 0.90569 0.0
C1008 C 0.84195 0.99968 0.93048 0.0
C1009 C 0.85922 0.01559 0.89169 0.0
C1010 C 0.86997 0.01328 0.86465 0.0
C1011 C 0.86015 0.0001 0.84486 0.0
C1012 C 0.87045 0.9978 0.8195 0.0
C1013 C 0.89051 0.0087 0.81363 0.0
C1014 C 0.90029 0.02198 0.83309 0.0
C1015 C 0.89007 0.02432 0.8585 0.0
H1016 H 0.89845 0.0069 0.79398 0.0
H1017 H 0.79811 0.02936 0.04003 0.0
H1018 H 0.36936 0.30718 0.45214 0.0
H1019 H 0.38851 0.30988 0.40871 0.0
H1020 H 0.40625 0.37825 0.43033 0.0
H1021 H 0.38684 0.3759 0.47358 0.0
H1022 H 0.38342 0.34403 0.36835 0.0
H1023 H 0.46464 0.37692 0.41245 0.0
H1024 H 0.48463 0.37445 0.4533 0.0
H1025 H 0.45603 0.31003 0.46595 0.0
H1026 H 0.4364 0.31182 0.42486 0.0
H1027 H 0.45656 0.40003 0.27997 0.0
H1028 H 0.4311 0.38718 0.31497 0.0
H1029 H 0.47542 0.32812 0.32097 0.0
H1030 H 0.50114 0.34108 0.2863 0.0
H1031 H 0.46693 0.35097 0.36763 0.0
H1032 H 0.42344 0.32198 0.29884 0.0
H1033 H 0.40306 0.32255 0.25817 0.0
H1034 H 0.3564 0.37455 0.29373 0.0
H1035 H 0.37671 0.37454 0.33451 0.0
C1036 C 0.37715 0.32287 0.44753 0.0
C1037 C 0.3768 0.34126 0.46632 0.0
C1038 C 0.38792 0.32441 0.42271 0.0
C1039 C 0.39884 0.34419 0.41652 0.0
C1040 C 0.39793 0.36283 0.43489 0.0
C1041 C 0.38685 0.36145 0.45954 0.0
C1042 C 0.41261 0.34495 0.39161 0.0
C1043 C 0.40168 0.3455 0.36805 0.0
C1044 C 0.43645 0.34625 0.39139 0.0
C1045 C 0.44884 0.34466 0.4157 0.0
C1046 C 0.46275 0.36216 0.42385 0.0
C1047 C 0.47404 0.36086 0.44704 0.0
C1048 C 0.47157 0.3421 0.46223 0.0
C1049 C 0.45792 0.32454 0.45418 0.0
C1050 C 0.4467 0.32571 0.43095 0.0
C1051 C 0.46066 0.38412 0.28847 0.0
C1052 C 0.48087 0.37161 0.28049 0.0
C1053 C 0.44604 0.37672 0.30833 0.0
C1054 C 0.45137 0.35668 0.32054 0.0
C1055 C 0.471 0.34362 0.31176 0.0
C1056 C 0.48557 0.35095 0.29181 0.0
C1057 C 0.43774 0.3507 0.34416 0.0
C1058 C 0.44871 0.34926 0.36768 0.0
C1059 C 0.41399 0.34826 0.3442 0.0
C1060 C 0.40173 0.34838 0.31969 0.0
C1061 C 0.40896 0.33368 0.29793 0.0
C1062 C 0.39739 0.33388 0.27486 0.0
C1063 C 0.37848 0.34861 0.27335 0.0
C1064 C 0.37107 0.36315 0.29492 0.0
C1065 C 0.38259 0.36304 0.31803 0.0
H1066 H 0.36953 0.34873 0.25547 0.0
H1067 H 0.48026 0.34116 0.48022 0.0
H1068 H 0.23837 0.85298 0.02137 0.0
H1069 H 0.2541 0.87853 0.98929 0.0
H1070 H 0.18645 0.90356 0.97596 0.0
H1071 H 0.17065 0.87828 0.00736 0.0
H1072 H 0.24041 0.88729 0.93172 0.0
H1073 H 0.18965 0.96037 0.99057 0.0
H1074 H 0.17602 0.97018 0.03648 0.0
H1075 H 0.23266 0.93224 0.06353 0.0
H1076 H 0.24686 0.92254 0.01781 0.0
H1077 H 0.19316 0.97566 0.86517 0.0
H1078 H 0.20555 0.94405 0.89041 0.0
H1079 H 0.25549 0.98573 0.92526 0.0
H1080 H 0.24317 0.01747 0.89966 0.0
H1081 H 0.22611 0.96834 0.96155 0.0
H1082 H 0.2743 0.93922 0.88965 0.0
H1083 H 0.28582 0.92817 0.84346 0.0
H1084 H 0.23501 0.87822 0.84195 0.0
H1085 H 0.22292 0.88918 0.88801 0.0
C1086 C 0.22687 0.86363 0.01122 0.0
C1087 C 0.20328 0.86385 0.01721 0.0
C1088 C 0.23588 0.87814 0.99292 0.0
C1089 C 0.22138 0.89301 0.98061 0.0
C1090 C 0.19787 0.89229 0.98548 0.0
C1091 C 0.1889 0.87786 0.00352 0.0
C1092 C 0.23022 0.91084 0.96429 0.0
C1093 C 0.23778 0.90505 0.93821 0.0
C1094 C 0.22711 0.93393 0.97314 0.0
C1095 C 0.21928 0.94067 0.00073 0.0
C1096 C 0.19933 0.95432 0.0063 0.0
C1097 C 0.19147 0.95981 0.0323 0.0
C1098 C 0.20345 0.9518 0.0529 0.0
C1099 C 0.22338 0.93839 0.04755 0.0
C1100 C 0.23133 0.93289 0.0216 0.0
C1101 C 0.20719 0.97784 0.87769 0.0
C1102 C 0.21719 0.99891 0.88063 0.0
C1103 C 0.21437 0.95976 0.89196 0.0
C1104 C 0.23155 0.9625 0.90959 0.0
C1105 C 0.24234 0.98324 0.9116 0.0
C1106 C 0.23535 0.00129 0.89699 0.0
C1107 C 0.23544 0.94488 0.92847 0.0
C1108 C 0.22986 0.9507 0.95511 0.0
C1109 C 0.24046 0.92187 0.92008 0.0
C1110 C 0.24767 0.91508 0.89234 0.0
C1111 C 0.26547 0.92597 0.87944 0.0
C1112 C 0.27212 0.91971 0.85327 0.0
C1113 C 0.26115 0.90251 0.83978 0.0
C1114 C 0.24352 0.89152 0.85244 0.0
C1115 C 0.23679 0.89772 0.87861 0.0
H1116 H 0.26632 0.89769 0.81951 0.0
H1117 H 0.19732 0.95601 0.07301 0.0
H1118 H 0.57468 0.66235 0.53045 0.0
H1119 H 0.53861 0.67659 0.516 0.0
H1120 H 0.56568 0.74277 0.50832 0.0
H1121 H 0.60212 0.72866 0.52319 0.0
H1122 H 0.52319 0.74541 0.53241 0.0
H1123 H 0.55872 0.7107 0.45453 0.0
H1124 H 0.58044 0.68091 0.42678 0.0
H1125 H 0.52674 0.63507 0.43877 0.0
H1126 H 0.50497 0.66432 0.4672 0.0
H1127 H 0.41663 0.72875 0.44585 0.0
H1128 H 0.45721 0.73413 0.44955 0.0
H1129 H 0.4497 0.72385 0.53236 0.0
H1130 H 0.40912 0.71931 0.52895 0.0
H1131 H 0.48636 0.70285 0.46119 0.0
H1132 H 0.48954 0.74813 0.56578 0.0
H1133 H 0.46891 0.77928 0.59251 0.0
H1134 H 0.44663 0.80802 0.52274 0.0
H1135 H 0.4674 0.77725 0.49554 0.0
C1136 C 0.57308 0.67995 0.52572 0.0
C1137 C 0.59133 0.69437 0.52799 0.0
C1138 C 0.55244 0.68803 0.51731 0.0
C1139 C 0.54958 0.71064 0.51073 0.0
C1140 C 0.56762 0.72523 0.5132 0.0
C1141 C 0.5884 0.71713 0.52165 0.0
C1142 C 0.52745 0.71876 0.5018 0.0
C1143 C 0.51516 0.73633 0.51667 0.0
C1144 C 0.51735 0.70737 0.48064 0.0
C1145 C 0.53021 0.68975 0.46312 0.0
C1146 C 0.55159 0.69422 0.45141 0.0
C1147 C 0.56394 0.6774 0.43558 0.0
C1148 C 0.555 0.65609 0.43106 0.0
C1149 C 0.53368 0.65156 0.44234 0.0
C1150 C 0.52132 0.66827 0.45831 0.0
C1151 C 0.42351 0.72837 0.465 0.0
C1152 C 0.40971 0.72344 0.48709 0.0
C1153 C 0.44673 0.73129 0.46704 0.0
C1154 C 0.45653 0.72947 0.49123 0.0
C1155 C 0.44254 0.72569 0.51355 0.0
C1156 C 0.41936 0.72283 0.51153 0.0
C1157 C 0.48157 0.72866 0.4928 0.0
C1158 C 0.49447 0.7124 0.47652 0.0
C1159 C 0.49232 0.74155 0.51234 0.0
C1160 C 0.47997 0.76028 0.52861 0.0
C1161 C 0.48038 0.76117 0.55611 0.0
C1162 C 0.46862 0.77875 0.57136 0.0
C1163 C 0.45644 0.79559 0.55934 0.0
C1164 C 0.45602 0.79493 0.53203 0.0
C1165 C 0.46776 0.7774 0.51669 0.0
H1166 H 0.44734 0.80918 0.57118 0.0
H1167 H 0.56458 0.64313 0.41876 0.0
H1168 H 0.30832 0.3847 0.62644 0.0
H1169 H 0.31227 0.40064 0.6711 0.0
H1170 H 0.38213 0.37591 0.66725 0.0
H1171 H 0.37844 0.36006 0.62252 0.0
H1172 H 0.35701 0.36967 0.71638 0.0
H1173 H 0.37282 0.42785 0.65503 0.0
H1174 H 0.36332 0.45194 0.61909 0.0
H1175 H 0.30416 0.47957 0.66452 0.0
H1176 H 0.31316 0.45536 0.70059 0.0
H1177 H 0.41636 0.43897 0.80307 0.0
H1178 H 0.3996 0.41477 0.76995 0.0
H1179 H 0.33879 0.45823 0.77662 0.0
H1180 H 0.35608 0.48338 0.80844 0.0
H1181 H 0.35278 0.45367 0.72866 0.0
H1182 H 0.33963 0.40065 0.79309 0.0
H1183 H 0.34793 0.37649 0.82934 0.0
H1184 H 0.39939 0.3389 0.78014 0.0
H1185 H 0.39164 0.36304 0.74368 0.0
C1186 C 0.32448 0.38249 0.63516 0.0
C1187 C 0.34315 0.37133 0.62085 0.0
C1188 C 0.32668 0.39157 0.66067 0.0
C1189 C 0.3475 0.38946 0.67237 0.0
C1190 C 0.36591 0.37761 0.65854 0.0
C1191 C 0.36381 0.36876 0.63293 0.0
C1192 C 0.35068 0.40105 0.69821 0.0
C1193 C 0.35618 0.38803 0.7192 0.0
C1194 C 0.34881 0.42495 0.70195 0.0
C1195 C 0.3435 0.4396 0.68035 0.0
C1196 C 0.35768 0.43891 0.65725 0.0
C1197 C 0.35241 0.45261 0.63688 0.0
C1198 C 0.3331 0.46722 0.63948 0.0
C1199 C 0.31908 0.46821 0.66251 0.0
C1200 C 0.32426 0.45451 0.68292 0.0
C1201 C 0.3993 0.44325 0.79775 0.0
C1202 C 0.38777 0.46338 0.8081 0.0
C1203 C 0.38956 0.42917 0.77903 0.0
C1204 C 0.36787 0.43462 0.7707 0.0
C1205 C 0.35558 0.45369 0.78263 0.0
C1206 C 0.36543 0.46797 0.80109 0.0
C1207 C 0.35952 0.42238 0.74717 0.0
C1208 C 0.35314 0.43528 0.72637 0.0
C1209 C 0.36036 0.39838 0.7438 0.0
C1210 C 0.36513 0.38378 0.76567 0.0
C1211 C 0.35284 0.38735 0.79004 0.0
C1212 C 0.35743 0.37363 0.81062 0.0
C1213 C 0.3742 0.3562 0.80706 0.0
C1214 C 0.3864 0.35241 0.78288 0.0
C1215 C 0.38189 0.36609 0.76223 0.0
H1216 H 0.37772 0.3456 0.82302 0.0
H1217 H 0.32905 0.47781 0.62369 0.0
H1218 H 0.08552 0.83553 0.08863 0.0
H1219 H 0.05054 0.84217 0.11579 0.0
H1220 H 0.08151 0.8111 0.1799 0.0
H1221 H 0.11697 0.80401 0.15244 0.0
H1222 H 0.03572 0.79949 0.17456 0.0
H1223 H 0.07723 0.86606 0.18404 0.0
H1224 H 0.10109 0.89674 0.16961 0.0
H1225 H 0.04821 0.92093 0.12281 0.0
H1226 H 0.02404 0.89019 0.13681 0.0
H1227 H 0.93864 0.85853 0.2513 0.0
H1228 H 0.97744 0.84441 0.2377 0.0
H1229 H 0.96642 0.86005 0.15807 0.0
H1230 H 0.92757 0.87317 0.17105 0.0
H1231 H 0.00601 0.87955 0.18185 0.0
H1232 H 0.9671 0.80861 0.16945 0.0
H1233 H 0.94404 0.77768 0.18508 0.0
H1234 H 0.99334 0.76242 0.24072 0.0
H1235 H 0.01654 0.79351 0.22564 0.0
C1236 C 0.08497 0.82992 0.10843 0.0
C1237 C 0.10413 0.81945 0.11846 0.0
C1238 C 0.06493 0.83376 0.12395 0.0
C1239 C 0.06358 0.82751 0.14999 0.0
C1240 C 0.08228 0.81614 0.15987 0.0
C1241 C 0.10249 0.81214 0.14418 0.0
C1242 C 0.04276 0.83403 0.16669 0.0
C1243 C 0.02942 0.81704 0.17674 0.0
C1244 C 0.03462 0.85694 0.1696 0.0
C1245 C 0.04886 0.87574 0.1614 0.0
C1246 C 0.07072 0.87785 0.17057 0.0
C1247 C 0.0843 0.89526 0.16247 0.0
C1248 C 0.0762 0.91074 0.14522 0.0
C1249 C 0.05444 0.90891 0.13616 0.0
C1250 C 0.04077 0.89152 0.14424 0.0
C1251 C 0.94432 0.85855 0.2308 0.0
C1252 C 0.93005 0.8673 0.21232 0.0
C1253 C 0.96651 0.85058 0.22314 0.0
C1254 C 0.97473 0.85139 0.19696 0.0
C1255 C 0.96038 0.85951 0.17842 0.0
C1256 C 0.93823 0.86717 0.18595 0.0
C1257 C 0.9986 0.84495 0.18868 0.0
C1258 C 0.01254 0.86206 0.18026 0.0
C1259 C 0.00732 0.82225 0.1877 0.0
C1260 C 0.99338 0.80358 0.19668 0.0
C1261 C 0.97289 0.79882 0.18521 0.0
C1262 C 0.95983 0.78122 0.19392 0.0
C1263 C 0.96717 0.76814 0.21395 0.0
C1264 C 0.98764 0.7726 0.22525 0.0
C1265 C 0.00075 0.7902 0.21662 0.0
H1266 H 0.95704 0.75452 0.22066 0.0
H1267 H 0.08674 0.92417 0.13891 0.0
H1268 H 0.65703 0.58025 0.55318 0.0
H1269 H 0.67175 0.54425 0.56744 0.0
H1270 H 0.7374 0.57233 0.57597 0.0
H1271 H 0.72283 0.60863 0.56136 0.0
H1272 H 0.74098 0.53012 0.55163 0.0
H1273 H 0.70536 0.56466 0.62943 0.0
H1274 H 0.675 0.58599 0.65664 0.0
H1275 H 0.63005 0.53164 0.64381 0.0
H1276 H 0.65995 0.51019 0.61591 0.0
H1277 H 0.72735 0.42319 0.6381 0.0
H1278 H 0.73094 0.46405 0.63455 0.0
H1279 H 0.72197 0.4559 0.55147 0.0
H1280 H 0.71929 0.41511 0.55472 0.0
H1281 H 0.69902 0.49223 0.62241 0.0
H1282 H 0.74492 0.49634 0.51832 0.0
H1283 H 0.77682 0.47655 0.49203 0.0
H1284 H 0.8057 0.45557 0.5623 0.0
H1285 H 0.77417 0.47552 0.58906 0.0
C1286 C 0.67462 0.57887 0.55806 0.0
C1287 C 0.68875 0.59736 0.55613 0.0
C1288 C 0.68297 0.55827 0.56635 0.0
C1289 C 0.70558 0.55573 0.57311 0.0
C1290 C 0.71988 0.57401 0.57094 0.0
C1291 C 0.7115 0.59472 0.56264 0.0
C1292 C 0.71405 0.53369 0.58195 0.0
C1293 C 0.73202 0.52185 0.56727 0.0
C1294 C 0.70285 0.52332 0.60301 0.0
C1295 C 0.68493 0.53583 0.62044 0.0
C1296 C 0.68897 0.55727 0.63229 0.0
C1297 C 0.67183 0.5694 0.64784 0.0
C1298 C 0.65061 0.56018 0.65197 0.0
C1299 C 0.64651 0.53876 0.6406 0.0
C1300 C 0.66356 0.5266 0.62491 0.0
C1301 C 0.72688 0.43003 0.61894 0.0
C1302 C 0.72288 0.41596 0.5967 0.0
C1303 C 0.72876 0.45341 0.61699 0.0
C1304 C 0.72681 0.46308 0.59275 0.0
C1305 C 0.72391 0.44886 0.57033 0.0
C1306 C 0.72211 0.42554 0.57226 0.0
C1307 C 0.72517 0.4881 0.5911 0.0
C1308 C 0.70844 0.50057 0.60717 0.0
C1309 C 0.73787 0.49918 0.57171 0.0
C1310 C 0.75708 0.48737 0.55571 0.0
C1311 C 0.75815 0.48765 0.52819 0.0
C1312 C 0.77616 0.47636 0.5132 0.0
C1313 C 0.79326 0.46478 0.52548 0.0
C1314 C 0.79241 0.4645 0.5528 0.0
C1315 C 0.77445 0.47577 0.56789 0.0
H1316 H 0.80717 0.45604 0.51383 0.0
H1317 H 0.63734 0.56962 0.66395 0.0
H1318 H 0.88099 0.23645 0.04862 0.0
H1319 H 0.90361 0.25061 0.08414 0.0
H1320 H 0.8822 0.19603 0.13089 0.0
H1321 H 0.85955 0.18171 0.09552 0.0
H1322 H 0.88551 0.23741 0.1606 0.0
H1323 H 0.929 0.18859 0.09559 0.0
H1324 H 0.94363 0.1767 0.05058 0.0
H1325 H 0.97707 0.23959 0.04493 0.0
H1326 H 0.96211 0.25211 0.08968 0.0
H1327 H 0.97566 0.20434 0.23646 0.0
H1328 H 0.94409 0.21074 0.20862 0.0
H1329 H 0.97993 0.26406 0.17231 0.0
H1330 H 0.01176 0.25751 0.20013 0.0
H1331 H 0.96829 0.23155 0.13691 0.0
H1332 H 0.92984 0.27657 0.20698 0.0
H1333 H 0.91507 0.28655 0.2524 0.0
H1334 H 0.87292 0.22902 0.24984 0.0
H1335 H 0.88766 0.21847 0.20452 0.0
C1336 C 0.88077 0.22767 0.06662 0.0
C1337 C 0.86876 0.20774 0.06909 0.0
C1338 C 0.89367 0.23582 0.08689 0.0
C1339 C 0.8947 0.22423 0.10999 0.0
C1340 C 0.88159 0.20521 0.1132 0.0
C1341 C 0.86881 0.19696 0.09288 0.0
C1342 C 0.91135 0.23024 0.12951 0.0
C1343 C 0.90363 0.23617 0.15553 0.0
C1344 C 0.93493 0.22902 0.12263 0.0
C1345 C 0.94415 0.22144 0.09582 0.0
C1346 C 0.93926 0.19999 0.08463 0.0
C1347 C 0.94761 0.19313 0.05917 0.0
C1348 C 0.96116 0.20742 0.04483 0.0
C1349 C 0.96645 0.22858 0.05597 0.0
C1350 C 0.95802 0.23559 0.08138 0.0
C1351 C 0.97651 0.21783 0.22302 0.0
C1352 C 0.99613 0.23036 0.22029 0.0
C1353 C 0.95842 0.22158 0.20723 0.0
C1354 C 0.95962 0.23793 0.18843 0.0
C1355 C 0.97865 0.25142 0.18677 0.0
C1356 C 0.99673 0.24777 0.20274 0.0
C1357 C 0.94256 0.23848 0.1683 0.0
C1358 C 0.9502 0.23352 0.14203 0.0
C1359 C 0.91896 0.24038 0.17508 0.0
C1360 C 0.90997 0.24666 0.20235 0.0
C1361 C 0.91754 0.26594 0.21615 0.0
C1362 C 0.90915 0.27172 0.24188 0.0
C1363 C 0.89309 0.25842 0.25401 0.0
C1364 C 0.88536 0.23932 0.24041 0.0
C1365 C 0.8937 0.23345 0.21468 0.0
H1366 H 0.88662 0.26292 0.27393 0.0
H1367 H 0.96761 0.20203 0.02514 0.0
H1368 H 0.18708 0.76747 0.15194 0.0
H1369 H 0.1946 0.76021 0.19716 0.0
H1370 H 0.21022 0.83037 0.21186 0.0
H1371 H 0.2032 0.83769 0.16646 0.0
H1372 H 0.24098 0.80368 0.23107 0.0
H1373 H 0.16047 0.80979 0.23633 0.0
H1374 H 0.12182 0.80216 0.22337 0.0
H1375 H 0.13204 0.73201 0.2391 0.0
H1376 H 0.17093 0.73912 0.2517 0.0
H1377 H 0.24882 0.78849 0.36709 0.0
H1378 H 0.23312 0.80258 0.32758 0.0
H1379 H 0.22404 0.73384 0.29823 0.0
H1380 H 0.24027 0.71957 0.33712 0.0
H1381 H 0.18741 0.76419 0.28924 0.0
H1382 H 0.26981 0.75863 0.27863 0.0
H1383 H 0.30831 0.7671 0.29152 0.0
H1384 H 0.29321 0.83837 0.28651 0.0
H1385 H 0.25447 0.83031 0.27396 0.0
C1386 C 0.19206 0.78139 0.16478 0.0
C1387 C 0.19461 0.80314 0.15555 0.0
C1388 C 0.1962 0.77724 0.1907 0.0
C1389 C 0.20266 0.79483 0.208 0.0
C1390 C 0.2052 0.81657 0.19886 0.0
C1391 C 0.20119 0.82071 0.1729 0.0
C1392 C 0.20766 0.79023 0.2353 0.0
C1393 C 0.22906 0.79547 0.24396 0.0
C1394 C 0.19221 0.7793 0.25205 0.0
C1395 C 0.16871 0.77496 0.24478 0.0
C1396 C 0.15455 0.7927 0.23685 0.0
C1397 C 0.13258 0.78847 0.22959 0.0
C1398 C 0.12449 0.76661 0.23037 0.0
C1399 C 0.13834 0.74894 0.23849 0.0
C1400 C 0.16034 0.75306 0.24572 0.0
C1401 C 0.24343 0.77636 0.35227 0.0
C1402 C 0.246 0.75288 0.35522 0.0
C1403 C 0.23433 0.78445 0.32981 0.0
C1404 C 0.22759 0.76922 0.30997 0.0
C1405 C 0.22905 0.74586 0.31341 0.0
C1406 C 0.23827 0.73775 0.33574 0.0
C1407 C 0.22076 0.77737 0.28466 0.0
C1408 C 0.1991 0.77274 0.27641 0.0
C1409 C 0.23585 0.78907 0.26834 0.0
C1410 C 0.25918 0.79389 0.27567 0.0
C1411 C 0.27465 0.77611 0.28049 0.0
C1412 C 0.29652 0.78084 0.2877 0.0
C1413 C 0.30318 0.80327 0.28991 0.0
C1414 C 0.28801 0.82101 0.28484 0.0
C1415 C 0.2661 0.81637 0.27768 0.0
H1416 H 0.32012 0.80689 0.29549 0.0
H1417 H 0.10748 0.76337 0.22474 0.0
H1418 H 0.6903 0.69982 0.62417 0.0
H1419 H 0.71893 0.7118 0.65377 0.0
H1420 H 0.77176 0.69304 0.59386 0.0
H1421 H 0.74307 0.68085 0.56378 0.0
H1422 H 0.7822 0.68129 0.64593 0.0
H1423 H 0.75699 0.74506 0.60072 0.0
H1424 H 0.72842 0.77076 0.58343 0.0
H1425 H 0.7023 0.79067 0.66178 0.0
H1426 H 0.73028 0.76449 0.67957 0.0
H1427 H 0.86099 0.74997 0.71548 0.0
H1428 H 0.83889 0.73106 0.68213 0.0
H1429 H 0.77701 0.75118 0.72799 0.0
H1430 H 0.79892 0.77001 0.76125 0.0
H1431 H 0.77484 0.76228 0.67814 0.0
H1432 H 0.79798 0.69618 0.72297 0.0
H1433 H 0.82564 0.66938 0.74025 0.0
H1434 H 0.85597 0.65424 0.66259 0.0
H1435 H 0.82867 0.68121 0.64489 0.0
C1436 C 0.70799 0.69808 0.6172 0.0
C1437 C 0.71436 0.6897 0.59142 0.0
C1438 C 0.72433 0.7049 0.63421 0.0
C1439 C 0.74739 0.70355 0.62586 0.0
C1440 C 0.75401 0.69423 0.6006 0.0
C1441 C 0.73759 0.68741 0.58344 0.0
C1442 C 0.76416 0.71337 0.64316 0.0
C1443 C 0.78092 0.69907 0.65268 0.0
C1444 C 0.76224 0.73652 0.65205 0.0
C1445 C 0.74565 0.75266 0.64148 0.0
C1446 C 0.74505 0.75477 0.61428 0.0
C1447 C 0.72897 0.76945 0.60438 0.0
C1448 C 0.71358 0.78239 0.62148 0.0
C1449 C 0.71424 0.78065 0.64855 0.0
C1450 C 0.7302 0.76586 0.65855 0.0
C1451 C 0.8427 0.75 0.71862 0.0
C1452 C 0.83165 0.76163 0.74085 0.0
C1453 C 0.8301 0.73922 0.69956 0.0
C1454 C 0.8063 0.73975 0.70258 0.0
C1455 C 0.79535 0.75072 0.72518 0.0
C1456 C 0.80788 0.76151 0.74413 0.0
C1457 C 0.79252 0.73009 0.68168 0.0
C1458 C 0.77634 0.74453 0.6713 0.0
C1459 C 0.79506 0.70712 0.67203 0.0
C1460 C 0.81146 0.69091 0.68266 0.0
C1461 C 0.81068 0.68729 0.70961 0.0
C1462 C 0.82626 0.67204 0.71947 0.0
C1463 C 0.8426 0.66017 0.70254 0.0
C1464 C 0.84334 0.66348 0.67569 0.0
C1465 C 0.82781 0.67874 0.66573 0.0
H1466 H 0.85464 0.64836 0.71021 0.0
H1467 H 0.70115 0.79377 0.61376 0.0
H1468 H 0.74768 0.21327 0.01742 0.0
H1469 H 0.71963 0.24123 0.03847 0.0
H1470 H 0.77291 0.27568 0.07659 0.0
H1471 H 0.80096 0.24788 0.05586 0.0
H1472 H 0.73607 0.27023 0.11011 0.0
H1473 H 0.75125 0.29651 0.02352 0.0
H1474 H 0.75395 0.29274 0.97518 0.0
H1475 H 0.683 0.27953 0.97493 0.0
H1476 H 0.67996 0.28289 0.02332 0.0
H1477 H 0.68296 0.37504 0.15301 0.0
H1478 H 0.70828 0.34623 0.12932 0.0
H1479 H 0.65146 0.31829 0.09125 0.0
H1480 H 0.62607 0.3477 0.11409 0.0
H1481 H 0.68806 0.31869 0.05746 0.0
H1482 H 0.67218 0.29368 0.14355 0.0
H1483 H 0.66911 0.29683 0.19189 0.0
H1484 H 0.74069 0.3066 0.19323 0.0
H1485 H 0.74413 0.30385 0.14486 0.0
C1486 C 0.75341 0.22676 0.03034 0.0
C1487 C 0.77658 0.22842 0.03483 0.0
C1488 C 0.73738 0.24276 0.04226 0.0
C1489 C 0.74426 0.26062 0.05887 0.0
C1490 C 0.76727 0.26204 0.06379 0.0
C1491 C 0.78329 0.24617 0.05183 0.0
C1492 C 0.72758 0.278 0.07117 0.0
C1493 C 0.72573 0.28098 0.09861 0.0
C1494 C 0.71367 0.29156 0.05613 0.0
C1495 C 0.71544 0.2897 0.02704 0.0
C1496 C 0.73627 0.29261 0.01316 0.0
C1497 C 0.73785 0.29058 0.98575 0.0
C1498 C 0.71867 0.28583 0.97199 0.0
C1499 C 0.69785 0.28317 0.98562 0.0
C1500 C 0.69618 0.28515 0.01304 0.0
C1501 C 0.67587 0.36307 0.13921 0.0
C1502 C 0.65245 0.36361 0.13556 0.0
C1503 C 0.69035 0.34644 0.12591 0.0
C1504 C 0.68168 0.32986 0.10891 0.0
C1505 C 0.65847 0.33083 0.10443 0.0
C1506 C 0.64397 0.34753 0.11766 0.0
C1507 C 0.69679 0.31116 0.09642 0.0
C1508 C 0.69831 0.30787 0.06898 0.0
C1509 C 0.71035 0.29721 0.11146 0.0
C1510 C 0.70837 0.29876 0.14057 0.0
C1511 C 0.68724 0.29667 0.15414 0.0
C1512 C 0.68543 0.29836 0.18156 0.0
C1513 C 0.70469 0.30196 0.19562 0.0
C1514 C 0.72579 0.30383 0.18231 0.0
C1515 C 0.72768 0.30219 0.15489 0.0
H1516 H 0.70326 0.30326 0.21685 0.0
H1517 H 0.71993 0.28426 0.95077 0.0
H1518 H 0.33865 0.25615 0.57279 0.0
H1519 H 0.32936 0.2269 0.60311 0.0
H1520 H 0.27992 0.27327 0.6453 0.0
H1521 H 0.28981 0.30279 0.61578 0.0
H1522 H 0.30108 0.25079 0.67868 0.0
H1523 H 0.26549 0.23065 0.5984 0.0
H1524 H 0.26472 0.22125 0.55085 0.0
H1525 H 0.31066 0.16392 0.55725 0.0
H1526 H 0.3119 0.17315 0.60481 0.0
H1527 H 0.22218 0.15384 0.70611 0.0
H1528 H 0.24019 0.17891 0.6757 0.0
H1529 H 0.30037 0.17795 0.71966 0.0
H1530 H 0.2821 0.1533 0.75074 0.0
H1531 H 0.27713 0.17608 0.64333 0.0
H1532 H 0.3214 0.23169 0.71978 0.0
H1533 H 0.31746 0.24318 0.76704 0.0
H1534 H 0.24588 0.23282 0.76783 0.0
H1535 H 0.24935 0.22159 0.72054 0.0
C1536 C 0.32582 0.26008 0.58856 0.0
C1537 C 0.3148 0.28168 0.59178 0.0
C1538 C 0.3205 0.24335 0.60585 0.0
C1539 C 0.30368 0.24775 0.62626 0.0
C1540 C 0.29298 0.26946 0.62974 0.0
C1541 C 0.29857 0.2863 0.61277 0.0
C1542 C 0.29669 0.22972 0.64366 0.0
C1543 C 0.296 0.2344 0.67092 0.0
C1544 C 0.28985 0.20838 0.6336 0.0
C1545 C 0.28897 0.20272 0.60508 0.0
C1546 C 0.27553 0.21612 0.58962 0.0
C1547 C 0.27499 0.21082 0.56269 0.0
C1548 C 0.28768 0.19204 0.55103 0.0
C1549 C 0.30087 0.17848 0.5663 0.0
C1550 C 0.30148 0.18373 0.59324 0.0
C1551 C 0.23925 0.15897 0.70932 0.0
C1552 C 0.25062 0.15186 0.73099 0.0
C1553 C 0.2496 0.17311 0.69178 0.0
C1554 C 0.27152 0.18048 0.69557 0.0
C1555 C 0.28334 0.17265 0.71656 0.0
C1556 C 0.27295 0.15846 0.73417 0.0
C1557 C 0.28128 0.1973 0.67826 0.0
C1558 C 0.28256 0.19234 0.65105 0.0
C1559 C 0.28803 0.21864 0.68832 0.0
C1560 C 0.28572 0.22551 0.71672 0.0
C1561 C 0.30483 0.2319 0.73005 0.0
C1562 C 0.30267 0.23838 0.75683 0.0
C1563 C 0.28145 0.23863 0.77045 0.0
C1564 C 0.26232 0.23251 0.75729 0.0
C1565 C 0.26438 0.22607 0.73051 0.0
H1566 H 0.27982 0.24363 0.79119 0.0
H1567 H 0.28725 0.18797 0.53017 0.0
H1568 H 0.70547 0.69953 0.46801 0.0
H1569 H 0.71699 0.72965 0.44029 0.0
H1570 H 0.67626 0.77859 0.49058 0.0
H1571 H 0.66525 0.74849 0.51908 0.0
H1572 H 0.69626 0.75677 0.4114 0.0
H1573 H 0.70074 0.82996 0.49003 0.0
H1574 H 0.70675 0.83613 0.53721 0.0
H1575 H 0.74547 0.77291 0.53539 0.0
H1576 H 0.73983 0.76648 0.48818 0.0
H1577 H 0.73005 0.85007 0.34046 0.0
H1578 H 0.70794 0.82936 0.37237 0.0
H1579 H 0.76785 0.81836 0.41521 0.0
H1580 H 0.78961 0.84015 0.38446 0.0
H1581 H 0.73319 0.82443 0.44837 0.0
H1582 H 0.75017 0.77864 0.36754 0.0
H1583 H 0.74963 0.76967 0.31989 0.0
H1584 H 0.67674 0.77282 0.32564 0.0
H1585 H 0.67687 0.78209 0.37331 0.0
C1586 C 0.6989 0.71668 0.47321 0.0
C1587 C 0.6846 0.72165 0.49589 0.0
C1588 C 0.70545 0.7339 0.45725 0.0
C1589 C 0.69768 0.75645 0.46344 0.0
C1590 C 0.68282 0.76139 0.48566 0.0
C1591 C 0.6765 0.74417 0.50189 0.0
C1592 C 0.70574 0.77462 0.44679 0.0
C1593 C 0.70415 0.77166 0.41954 0.0
C1594 C 0.71618 0.79401 0.45731 0.0
C1595 C 0.71961 0.79763 0.48569 0.0
C1596 C 0.71053 0.81739 0.49972 0.0
C1597 C 0.71387 0.82093 0.52646 0.0
C1598 C 0.72641 0.80489 0.53931 0.0
C1599 C 0.73567 0.78528 0.52545 0.0
C1600 C 0.73237 0.78166 0.49871 0.0
C1601 C 0.73838 0.84373 0.35704 0.0
C1602 C 0.76172 0.84643 0.35964 0.0
C1603 C 0.72576 0.8317 0.37513 0.0
C1604 C 0.73634 0.82187 0.39588 0.0
C1605 C 0.75931 0.82565 0.3993 0.0
C1606 C 0.77183 0.83788 0.38146 0.0
C1607 C 0.72422 0.80625 0.41298 0.0
C1608 C 0.7249 0.80975 0.4403 0.0
C1609 C 0.71363 0.78693 0.4025 0.0
C1610 C 0.71353 0.78133 0.37389 0.0
C1611 C 0.73403 0.77758 0.3586 0.0
C1612 C 0.7338 0.77242 0.3316 0.0
C1613 C 0.71316 0.77075 0.31973 0.0
C1614 C 0.69271 0.77417 0.33485 0.0
C1615 C 0.69285 0.77938 0.36185 0.0
H1616 H 0.71301 0.76675 0.29883 0.0
H1617 H 0.72902 0.80771 0.55999 0.0
H1618 H 0.79738 0.1632 0.91703 0.0
H1619 H 0.78674 0.17284 0.87332 0.0
H1620 H 0.79914 0.24316 0.89243 0.0
H1621 H 0.80978 0.23376 0.93599 0.0
H1622 H 0.758 0.23709 0.87049 0.0
H1623 H 0.83657 0.21184 0.85382 0.0
H1624 H 0.86918 0.1845 0.85423 0.0
H1625 H 0.83494 0.13636 0.80619 0.0
H1626 H 0.80195 0.1633 0.80583 0.0
H1627 H 0.76206 0.28886 0.75187 0.0
H1628 H 0.77312 0.27275 0.79219 0.0
H1629 H 0.76001 0.2057 0.76023 0.0
H1630 H 0.74957 0.22169 0.71915 0.0
H1631 H 0.79895 0.20621 0.78783 0.0
H1632 H 0.72148 0.23207 0.8019 0.0
H1633 H 0.68857 0.25905 0.80161 0.0
H1634 H 0.71993 0.30525 0.85491 0.0
H1635 H 0.75322 0.2787 0.85519 0.0
C1636 C 0.79787 0.18071 0.9119 0.0
C1637 C 0.80437 0.19773 0.93002 0.0
C1638 C 0.79187 0.18616 0.88691 0.0
C1639 C 0.79223 0.20869 0.87967 0.0
C1640 C 0.79873 0.22567 0.89768 0.0
C1641 C 0.80487 0.22024 0.92254 0.0
C1642 C 0.78541 0.21486 0.85354 0.0
C1643 C 0.76706 0.23049 0.85242 0.0
C1644 C 0.7968 0.20562 0.83 0.0
C1645 C 0.81668 0.18948 0.83005 0.0
C1646 C 0.83591 0.19534 0.84353 0.0
C1647 C 0.85448 0.17994 0.84372 0.0
C1648 C 0.85411 0.15868 0.83031 0.0
C1649 C 0.83519 0.15282 0.81661 0.0
C1650 C 0.81655 0.16815 0.8164 0.0
C1651 C 0.76194 0.27063 0.75311 0.0
C1652 C 0.75492 0.25656 0.73225 0.0
C1653 C 0.76805 0.26147 0.77632 0.0
C1654 C 0.76704 0.23808 0.77933 0.0
C1655 C 0.76077 0.22382 0.75831 0.0
C1656 C 0.75466 0.233 0.73497 0.0
C1657 C 0.77188 0.22889 0.80484 0.0
C1658 C 0.78976 0.21265 0.80587 0.0
C1659 C 0.75999 0.23747 0.82838 0.0
C1660 C 0.73993 0.25345 0.82839 0.0
C1661 C 0.72144 0.24806 0.8134 0.0
C1662 C 0.70271 0.26326 0.81326 0.0
C1663 C 0.70218 0.28387 0.82819 0.0
C1664 C 0.72037 0.28929 0.84334 0.0
C1665 C 0.73917 0.27415 0.84351 0.0
H1666 H 0.68766 0.29562 0.82806 0.0
H1667 H 0.8685 0.14677 0.83047 0.0
H1668 H 0.31118 0.29643 0.46214 0.0
H1669 H 0.28332 0.28734 0.43035 0.0
H1670 H 0.22951 0.31512 0.48491 0.0
H1671 H 0.25737 0.32396 0.51724 0.0
H1672 H 0.21892 0.27506 0.46311 0.0
H1673 H 0.24601 0.34369 0.43138 0.0
H1674 H 0.27479 0.37042 0.41771 0.0
H1675 H 0.29992 0.323 0.35494 0.0
H1676 H 0.27151 0.29583 0.36846 0.0
H1677 H 0.14095 0.25553 0.36479 0.0
H1678 H 0.16278 0.27728 0.39598 0.0
H1679 H 0.22507 0.25227 0.35404 0.0
H1680 H 0.20337 0.23106 0.32237 0.0
H1681 H 0.22729 0.29664 0.37087 0.0
H1682 H 0.20434 0.22643 0.40715 0.0
H1683 H 0.17645 0.199 0.42139 0.0
H1684 H 0.144 0.24977 0.47606 0.0
H1685 H 0.17154 0.2776 0.46187 0.0
C1686 C 0.29344 0.30069 0.46746 0.0
C1687 C 0.28651 0.31089 0.49231 0.0
C1688 C 0.27753 0.29562 0.44913 0.0
C1689 C 0.25437 0.30089 0.45509 0.0
C1690 C 0.24733 0.31103 0.47988 0.0
C1691 C 0.26327 0.31605 0.49832 0.0
C1692 C 0.23757 0.29474 0.43575 0.0
C1693 C 0.22042 0.28022 0.4431 0.0
C1694 C 0.23976 0.30121 0.40953 0.0
C1695 C 0.25668 0.31765 0.40105 0.0
C1696 C 0.25775 0.3389 0.41475 0.0
C1697 C 0.27399 0.35414 0.40702 0.0
C1698 C 0.28919 0.3484 0.38549 0.0
C1699 C 0.28813 0.32743 0.37161 0.0
C1700 C 0.27193 0.31211 0.37928 0.0
C1701 C 0.15927 0.25505 0.3619 0.0
C1702 C 0.17046 0.24138 0.3413 0.0
C1703 C 0.17172 0.26736 0.37983 0.0
C1704 C 0.19554 0.26611 0.37752 0.0
C1705 C 0.2067 0.2534 0.35623 0.0
C1706 C 0.19428 0.24112 0.33831 0.0
C1707 C 0.20901 0.27663 0.39818 0.0
C1708 C 0.22553 0.29192 0.39104 0.0
C1709 C 0.20628 0.27089 0.42461 0.0
C1710 C 0.18981 0.25415 0.43323 0.0
C1711 C 0.19114 0.23178 0.42206 0.0
C1712 C 0.17542 0.21616 0.43015 0.0
C1713 C 0.15842 0.22266 0.44956 0.0
C1714 C 0.15715 0.24477 0.46099 0.0
C1715 C 0.17281 0.26047 0.45294 0.0
H1716 H 0.14626 0.21054 0.4558 0.0
H1717 H 0.30177 0.36021 0.37955 0.0
H1718 H 0.20155 0.74928 0.03116 0.0
H1719 H 0.22995 0.72143 0.01134 0.0
H1720 H 0.2828 0.75793 0.04777 0.0
H1721 H 0.25445 0.78624 0.0674 0.0
H1722 H 0.29546 0.74434 0.99779 0.0
H1723 H 0.26415 0.70952 0.07287 0.0
H1724 H 0.23371 0.69657 0.10271 0.0
H1725 H 0.21134 0.65239 0.04064 0.0
H1726 H 0.24145 0.66532 0.01031 0.0
H1727 H 0.37706 0.65188 0.9688 0.0
H1728 H 0.35218 0.68132 0.99251 0.0
H1729 H 0.29405 0.65231 0.95829 0.0
H1730 H 0.31872 0.62314 0.9343 0.0
H1731 H 0.28632 0.66251 0.0106 0.0
H1732 H 0.31634 0.6993 0.93505 0.0
H1733 H 0.34671 0.71249 0.90529 0.0
H1734 H 0.3718 0.75297 0.9689 0.0
H1735 H 0.34174 0.73975 0.99914 0.0
C1736 C 0.2192 0.75144 0.03502 0.0
C1737 C 0.22569 0.7699 0.05109 0.0
C1738 C 0.23542 0.73544 0.02372 0.0
C1739 C 0.25845 0.73738 0.02846 0.0
C1740 C 0.2651 0.75605 0.04397 0.0
C1741 C 0.24886 0.77218 0.05522 0.0
C1742 C 0.27547 0.71983 0.01717 0.0
C1743 C 0.29369 0.72648 0.00095 0.0
C1744 C 0.27299 0.6965 0.02102 0.0
C1745 C 0.25496 0.68853 0.03927 0.0
C1746 C 0.25265 0.69716 0.06554 0.0
C1747 C 0.23546 0.6898 0.08255 0.0
C1748 C 0.22057 0.6737 0.07357 0.0
C1749 C 0.22288 0.66487 0.04757 0.0
C1750 C 0.24002 0.67219 0.03047 0.0
C1751 C 0.359 0.65186 0.9662 0.0
C1752 C 0.34988 0.63512 0.94968 0.0
C1753 C 0.34481 0.66866 0.9798 0.0
C1754 C 0.32129 0.66905 0.97703 0.0
C1755 C 0.31214 0.65224 0.96081 0.0
C1756 C 0.32628 0.63551 0.9472 0.0
C1757 C 0.30606 0.68698 0.99089 0.0
C1758 C 0.28819 0.6804 0.00764 0.0
C1759 C 0.30893 0.71034 0.98759 0.0
C1760 C 0.32696 0.71834 0.96942 0.0
C1761 C 0.32845 0.71086 0.94274 0.0
C1762 C 0.34559 0.71837 0.92578 0.0
C1763 C 0.36122 0.73351 0.93522 0.0
C1764 C 0.35971 0.74121 0.96163 0.0
C1765 C 0.34262 0.73373 0.97869 0.0
H1766 H 0.37447 0.73931 0.92205 0.0
H1767 H 0.20728 0.66803 0.08676 0.0
loop_
_geom_bond_atom_site_label_1
_geom_bond_atom_site_label_2
_geom_bond_distance
_geom_bond_site_symmetry_2
_ccdc_geom_bond_type
Fe0 O2 1.918 . S
Fe0 O5 1.997 . S
Fe0 O6 2.002 . S
Fe0 O11 1.976 . S
Fe0 O14 1.996 . S
Fe1 O2 1.918 . S
Fe1 O9 1.997 . S
Fe1 O12 1.996 . S
Fe1 O16 1.976 . S
Fe1 O19 2.002 . S
O2 Fe0 1.918 . S
O2 Fe1 1.918 . S
O2 Fe3 1.918 . S
Fe3 O2 1.918 . S
Fe3 O4 2.002 . S
Fe3 O13 1.976 . S
Fe3 O17 1.996 . S
Fe3 O20 1.997 . S
O4 Fe3 2.002 . S
O4 C21 1.295 . S
O5 Fe0 1.997 . S
O5 C21 1.235 . S
O6 Fe0 2.002 . S
O6 C7 1.295 . S
C7 O6 1.295 . S
C7 O9 1.235 . S
C8 O13 1.287 . S
C8 O14 1.255 . S
O9 Fe1 1.997 . S
O9 C7 1.235 . S
C10 O16 1.287 . S
C10 O17 1.255 . S
O11 Fe0 1.976 . S
O11 C18 1.287 . S
O12 Fe1 1.996 . S
O12 C18 1.255 . S
O13 Fe3 1.976 . S
O13 C8 1.287 . S
O14 Fe0 1.996 . S
O14 C8 1.255 . S
C15 O19 1.295 . S
C15 O20 1.235 . S
O16 Fe1 1.976 . S
O16 C10 1.287 . S
O17 Fe3 1.996 . S
O17 C10 1.255 . S
C18 O11 1.287 . S
C18 O12 1.255 . S
O19 Fe1 2.002 . S
O19 C15 1.295 . S
O20 Fe3 1.997 . S
O20 C15 1.235 . S
C21 O4 1.295 . S
C21 O5 1.235 . S
Fe22 O24 1.918 . S
Fe22 O27 1.997 . S
Fe22 O28 2.002 . S
Fe22 O33 1.976 . S
Fe22 O36 1.996 . S
Fe23 O24 1.918 . S
Fe23 O31 1.997 . S
Fe23 O34 1.996 . S
Fe23 O38 1.976 . S
Fe23 O41 2.002 . S
O24 Fe22 1.918 . S
O24 Fe23 1.918 . S
O24 Fe25 1.918 . S
Fe25 O24 1.918 . S
Fe25 O26 2.002 . S
Fe25 O35 1.976 . S
Fe25 O39 1.996 . S
Fe25 O42 1.997 . S
O26 Fe25 2.002 . S
O26 C43 1.295 . S
O27 Fe22 1.997 . S
O27 C43 1.235 . S
O28 Fe22 2.002 . S
O28 C29 1.295 . S
C29 O28 1.295 . S
C29 O31 1.235 . S
C30 O35 1.287 . S
C30 O36 1.255 . S
O31 Fe23 1.997 . S
O31 C29 1.235 . S
C32 O38 1.287 . S
C32 O39 1.255 . S
O33 Fe22 1.976 . S
O33 C40 1.287 . S
O34 Fe23 1.996 . S
O34 C40 1.255 . S
O35 Fe25 1.976 . S
O35 C30 1.287 . S
O36 Fe22 1.996 . S
O36 C30 1.255 . S
C37 O41 1.295 . S
C37 O42 1.235 . S
O38 Fe23 1.976 . S
O38 C32 1.287 . S
O39 Fe25 1.996 . S
O39 C32 1.255 . S
C40 O33 1.287 . S
C40 O34 1.255 . S
O41 Fe23 2.002 . S
O41 C37 1.295 . S
O42 Fe25 1.997 . S
O42 C37 1.235 . S
C43 O26 1.295 . S
C43 O27 1.235 . S
Fe44 O46 1.925 . S
Fe44 O49 1.960 1_554 S
Fe44 O50 1.979 1_554 S
Fe44 O55 2.012 . S
Fe44 O58 2.017 . S
Fe45 O46 1.918 . S
Fe45 O53 1.997 1_554 S
Fe45 O56 1.996 . S
Fe45 O60 1.976 . S
Fe45 O63 2.002 1_554 S
O46 Fe44 1.925 . S
O46 Fe45 1.918 . S
O46 Fe47 1.918 . S
Fe47 O46 1.918 . S
Fe47 O48 2.002 1_554 S
Fe47 O57 1.976 . S
Fe47 O61 1.996 . S
Fe47 O64 1.997 1_554 S
O48 Fe47 2.002 1_556 S
O48 C65 1.295 . S
O49 Fe44 1.960 1_556 S
O49 C65 1.235 . S
O50 Fe44 1.979 1_556 S
O50 C51 1.295 . S
C51 O50 1.295 . S
C51 O53 1.235 . S
C52 O57 1.287 . S
C52 O58 1.255 . S
O53 Fe45 1.997 1_556 S
O53 C51 1.235 . S
C54 O60 1.287 . S
C54 O61 1.255 . S
O55 Fe44 2.012 . S
O55 C62 1.287 . S
O56 Fe45 1.996 . S
O56 C62 1.255 . S
O57 Fe47 1.976 . S
O57 C52 1.287 . S
O58 Fe44 2.017 . S
O58 C52 1.255 . S
C59 O63 1.295 . S
C59 O64 1.235 . S
O60 Fe45 1.976 . S
O60 C54 1.287 . S
O61 Fe47 1.996 . S
O61 C54 1.255 . S
C62 O55 1.287 . S
C62 O56 1.255 . S
O63 Fe45 2.002 1_556 S
O63 C59 1.295 . S
O64 Fe47 1.997 1_556 S
O64 C59 1.235 . S
C65 O48 1.295 . S
C65 O49 1.235 . S
Fe66 O68 1.918 . S
Fe66 O71 1.997 . S
Fe66 O72 2.002 . S
Fe66 O77 1.976 . S
Fe66 O80 1.996 . S
Fe67 O68 1.918 . S
Fe67 O75 1.997 . S
Fe67 O78 1.996 . S
Fe67 O82 1.976 . S
Fe67 O85 2.002 . S
O68 Fe66 1.918 . S
O68 Fe67 1.918 . S
O68 Fe69 1.918 . S
Fe69 O68 1.918 . S
Fe69 O70 2.002 . S
Fe69 O79 1.976 . S
Fe69 O83 1.996 . S
Fe69 O86 1.997 . S
O70 Fe69 2.002 . S
O70 C87 1.295 . S
O71 Fe66 1.997 . S
O71 C87 1.235 . S
O72 Fe66 2.002 . S
O72 C73 1.295 . S
C73 O72 1.295 . S
C73 O75 1.235 . S
C74 O79 1.287 . S
C74 O80 1.255 . S
O75 Fe67 1.997 . S
O75 C73 1.235 . S
C76 O82 1.287 . S
C76 O83 1.255 . S
O77 Fe66 1.976 . S
O77 C84 1.287 . S
O78 Fe67 1.996 . S
O78 C84 1.255 . S
O79 Fe69 1.976 . S
O79 C74 1.287 . S
O80 Fe66 1.996 . S
O80 C74 1.255 . S
C81 O85 1.295 . S
C81 O86 1.235 . S
O82 Fe67 1.976 . S
O82 C76 1.287 . S
O83 Fe69 1.996 . S
O83 C76 1.255 . S
C84 O77 1.287 . S
C84 O78 1.255 . S
O85 Fe67 2.002 . S
O85 C81 1.295 . S
O86 Fe69 1.997 . S
O86 C81 1.235 . S
C87 O70 1.295 . S
C87 O71 1.235 . S
C88 C89 1.391 . S
C88 C92 1.391 . S
C88 H130 0.948 . S
C89 C88 1.391 . S
C89 C90 1.391 . S
C90 C89 1.391 . S
C90 H146 0.947 . S
C90 C147 1.392 . S
C91 C92 1.391 . S
C91 C95 1.397 . S
C91 C147 1.419 . S
C92 C88 1.391 . S
C92 C91 1.391 . S
C92 C93 1.399 . S
C93 C92 1.399 . S
C93 C96 1.396 . S
C93 C105 1.453 . S
C93 C106 1.684 . S
H94 C118 0.948 . S
C95 C91 1.397 . S
C95 C96 1.394 . S
C95 C114 1.723 . S
C96 C93 1.396 . S
C96 C95 1.394 . S
C96 C126 1.723 . S
H97 C120 0.947 . S
H98 C121 0.948 . S
H99 C127 0.982 . S
H100 C128 0.979 . S
H101 C128 0.980 . S
H102 C128 0.983 . S
H103 C127 0.979 . S
H104 C127 0.977 . S
C105 C93 1.453 . S
C105 H134 0.982 . S
C105 H135 0.979 . S
C105 H136 0.977 . S
C106 C93 1.684 . S
C106 H131 0.979 . S
C106 H132 0.980 . S
C106 H133 0.983 . S
C107 C108 1.391 . S
C107 C112 1.391 . S
C107 H137 0.948 . S
C108 C107 1.391 . S
C108 C109 1.391 . S
C109 C108 1.391 . S
C109 C110 1.392 . S
C109 H138 0.947 . S
C110 C109 1.392 . S
C110 C111 1.419 . S
C110 H139 0.948 . S
C111 C110 1.419 . S
C111 C112 1.391 . S
C111 C115 1.397 . S
C112 C107 1.391 . S
C112 C111 1.391 . S
C112 C113 1.399 . S
C113 C112 1.399 . S
C113 C114 1.396 . S
C113 C116 1.453 . S
C113 C117 1.684 . S
C114 C95 1.723 . S
C114 C113 1.396 . S
C114 C115 1.394 . S
C115 C111 1.397 . S
C115 C114 1.394 . S
C115 C125 1.723 . S
C116 C113 1.453 . S
C116 H140 0.982 . S
C116 H141 0.979 . S
C116 H142 0.977 . S
C117 C113 1.684 . S
C117 H143 0.979 . S
C117 H144 0.980 . S
C117 H145 0.983 . S
C118 H94 0.948 . S
C118 C119 1.391 . S
C118 C123 1.391 . S
C119 C118 1.391 . S
C119 C120 1.391 . S
C120 H97 0.947 . S
C120 C119 1.391 . S
C120 C121 1.392 . S
C121 H98 0.948 . S
C121 C120 1.392 . S
C121 C122 1.419 . S
C122 C121 1.419 . S
C122 C123 1.391 . S
C122 C126 1.397 . S
C123 C118 1.391 . S
C123 C122 1.391 . S
C123 C124 1.399 . S
C124 C123 1.399 . S
C124 C125 1.396 . S
C124 C127 1.453 . S
C124 C128 1.684 . S
C125 C115 1.723 . S
C125 C124 1.396 . S
C125 C126 1.394 . S
C126 C96 1.723 . S
C126 C122 1.397 . S
C126 C125 1.394 . S
C127 H99 0.982 . S
C127 H103 0.979 . S
C127 H104 0.977 . S
C127 C124 1.453 . S
C128 H100 0.979 . S
C128 H101 0.980 . S
C128 H102 0.983 . S
C128 C124 1.684 . S
H129 C147 0.948 . S
H130 C88 0.948 . S
H131 C106 0.979 . S
H132 C106 0.980 . S
H133 C106 0.983 . S
H134 C105 0.982 . S
H135 C105 0.979 . S
H136 C105 0.977 . S
H137 C107 0.948 . S
H138 C109 0.947 . S
H139 C110 0.948 . S
H140 C116 0.982 . S
H141 C116 0.979 . S
H142 C116 0.977 . S
H143 C117 0.979 . S
H144 C117 0.980 . S
H145 C117 0.983 . S
H146 C90 0.947 . S
C147 C90 1.392 . S
C147 C91 1.419 . S
C147 H129 0.948 . S
C148 C149 1.391 . S
C148 C152 1.391 . S
C148 H190 0.948 . S
C149 C148 1.391 . S
C149 C150 1.391 . S
C150 C149 1.391 . S
C150 H206 0.947 . S
C150 C207 1.392 . S
C151 C152 1.391 . S
C151 C155 1.397 . S
C151 C207 1.419 . S
C152 C148 1.391 . S
C152 C151 1.391 . S
C152 C153 1.399 . S
C153 C152 1.399 . S
C153 C156 1.396 . S
C153 C165 1.453 . S
C153 C166 1.684 . S
H154 C178 0.948 . S
C155 C151 1.397 . S
C155 C156 1.394 . S
C155 C174 1.723 . S
C156 C153 1.396 . S
C156 C155 1.394 . S
C156 C186 1.723 . S
H157 C180 0.947 . S
H158 C181 0.948 . S
H159 C187 0.982 . S
H160 C188 0.979 . S
H161 C188 0.980 . S
H162 C188 0.983 . S
H163 C187 0.979 . S
H164 C187 0.977 . S
C165 C153 1.453 . S
C165 H194 0.982 . S
C165 H195 0.979 . S
C165 H196 0.977 . S
C166 C153 1.684 . S
C166 H191 0.979 . S
C166 H192 0.980 . S
C166 H193 0.983 . S
C167 C168 1.391 . S
C167 C172 1.391 . S
C167 H197 0.948 . S
C168 C167 1.391 . S
C168 C169 1.391 . S
C169 C168 1.391 . S
C169 C170 1.392 . S
C169 H198 0.947 . S
C170 C169 1.392 . S
C170 C171 1.419 . S
C170 H199 0.948 . S
C171 C170 1.419 . S
C171 C172 1.391 . S
C171 C175 1.397 . S
C172 C167 1.391 . S
C172 C171 1.391 . S
C172 C173 1.399 . S
C173 C172 1.399 . S
C173 C174 1.396 . S
C173 C176 1.453 . S
C173 C177 1.684 . S
C174 C155 1.723 . S
C174 C173 1.396 . S
C174 C175 1.394 . S
C175 C171 1.397 . S
C175 C174 1.394 . S
C175 C185 1.723 . S
C176 C173 1.453 . S
C176 H200 0.982 . S
C176 H201 0.979 . S
C176 H202 0.977 . S
C177 C173 1.684 . S
C177 H203 0.979 . S
C177 H204 0.980 . S
C177 H205 0.983 . S
C178 H154 0.948 . S
C178 C179 1.391 . S
C178 C183 1.391 . S
C179 C178 1.391 . S
C179 C180 1.391 . S
C180 H157 0.947 . S
C180 C179 1.391 . S
C180 C181 1.392 . S
C181 H158 0.948 . S
C181 C180 1.392 . S
C181 C182 1.419 . S
C182 C181 1.419 . S
C182 C183 1.391 . S
C182 C186 1.397 . S
C183 C178 1.391 . S
C183 C182 1.391 . S
C183 C184 1.399 . S
C184 C183 1.399 . S
C184 C185 1.396 . S
C184 C187 1.453 . S
C184 C188 1.684 . S
C185 C175 1.723 . S
C185 C184 1.396 . S
C185 C186 1.394 . S
C186 C156 1.723 . S
C186 C182 1.397 . S
C186 C185 1.394 . S
C187 H159 0.982 . S
C187 H163 0.979 . S
C187 H164 0.977 . S
C187 C184 1.453 . S
C188 H160 0.979 . S
C188 H161 0.980 . S
C188 H162 0.983 . S
C188 C184 1.684 . S
H189 C207 0.948 . S
H190 C148 0.948 . S
H191 C166 0.979 . S
H192 C166 0.980 . S
H193 C166 0.983 . S
H194 C165 0.982 . S
H195 C165 0.979 . S
H196 C165 0.977 . S
H197 C167 0.948 . S
H198 C169 0.947 . S
H199 C170 0.948 . S
H200 C176 0.982 . S
H201 C176 0.979 . S
H202 C176 0.977 . S
H203 C177 0.979 . S
H204 C177 0.980 . S
H205 C177 0.983 . S
H206 C150 0.947 . S
C207 C150 1.392 . S
C207 C151 1.419 . S
C207 H189 0.948 . S
C208 C209 1.391 . S
C208 C212 1.391 . S
C208 H250 0.948 . S
C209 C208 1.391 . S
C209 C210 1.391 . S
C210 C209 1.391 . S
C210 H266 0.947 . S
C210 C267 1.392 . S
C211 C212 1.391 . S
C211 C215 1.397 . S
C211 C267 1.419 . S
C212 C208 1.391 . S
C212 C211 1.391 . S
C212 C213 1.399 . S
C213 C212 1.399 . S
C213 C216 1.396 . S
C213 C225 1.453 . S
C213 C226 1.684 . S
H214 C238 0.948 . S
C215 C211 1.397 . S
C215 C216 1.394 . S
C215 C234 1.723 . S
C216 C213 1.396 . S
C216 C215 1.394 . S
C216 C246 1.723 . S
H217 C240 0.947 . S
H218 C241 0.948 . S
H219 C247 0.982 . S
H220 C248 0.979 . S
H221 C248 0.980 . S
H222 C248 0.983 . S
H223 C247 0.979 . S
H224 C247 0.977 . S
C225 C213 1.453 . S
C225 H254 0.982 . S
C225 H255 0.979 . S
C225 H256 0.977 . S
C226 C213 1.684 . S
C226 H251 0.979 . S
C226 H252 0.980 . S
C226 H253 0.983 . S
C227 C228 1.391 . S
C227 C232 1.391 . S
C227 H257 0.948 . S
C228 C227 1.391 . S
C228 C229 1.391 . S
C229 C228 1.391 . S
C229 C230 1.392 . S
C229 H258 0.947 . S
C230 C229 1.392 . S
C230 C231 1.419 . S
C230 H259 0.948 . S
C231 C230 1.419 . S
C231 C232 1.391 . S
C231 C235 1.397 . S
C232 C227 1.391 . S
C232 C231 1.391 . S
C232 C233 1.399 . S
C233 C232 1.399 . S
C233 C234 1.396 . S
C233 C236 1.453 . S
C233 C237 1.684 . S
C234 C215 1.723 . S
C234 C233 1.396 . S
C234 C235 1.394 . S
C235 C231 1.397 . S
C235 C234 1.394 . S
C235 C245 1.723 . S
C236 C233 1.453 . S
C236 H260 0.982 . S
C236 H261 0.979 . S
C236 H262 0.977 . S
C237 C233 1.684 . S
C237 H263 0.979 . S
C237 H264 0.980 . S
C237 H265 0.983 . S
C238 H214 0.948 . S
C238 C239 1.391 . S
C238 C243 1.391 . S
C239 C238 1.391 . S
C239 C240 1.391 . S
C240 H217 0.947 . S
C240 C239 1.391 . S
C240 C241 1.392 . S
C241 H218 0.948 . S
C241 C240 1.392 . S
C241 C242 1.419 . S
C242 C241 1.419 . S
C242 C243 1.391 . S
C242 C246 1.397 . S
C243 C238 1.391 . S
C243 C242 1.391 . S
C243 C244 1.399 . S
C244 C243 1.399 . S
C244 C245 1.396 . S
C244 C247 1.453 . S
C244 C248 1.684 . S
C245 C235 1.723 . S
C245 C244 1.396 . S
C245 C246 1.394 . S
C246 C216 1.723 . S
C246 C242 1.397 . S
C246 C245 1.394 . S
C247 H219 0.982 . S
C247 H223 0.979 . S
C247 H224 0.977 . S
C247 C244 1.453 . S
C248 H220 0.979 . S
C248 H221 0.980 . S
C248 H222 0.983 . S
C248 C244 1.684 . S
H249 C267 0.948 . S
H250 C208 0.948 . S
H251 C226 0.979 . S
H252 C226 0.980 . S
H253 C226 0.983 . S
H254 C225 0.982 . S
H255 C225 0.979 . S
H256 C225 0.977 . S
H257 C227 0.948 . S
H258 C229 0.947 . S
H259 C230 0.948 . S
H260 C236 0.982 . S
H261 C236 0.979 . S
H262 C236 0.977 . S
H263 C237 0.979 . S
H264 C237 0.980 . S
H265 C237 0.983 . S
H266 C210 0.947 . S
C267 C210 1.392 . S
C267 C211 1.419 . S
C267 H249 0.948 . S
C268 C269 1.391 . S
C268 C272 1.391 . S
C268 H310 0.948 . S
C269 C268 1.391 . S
C269 C270 1.391 . S
C270 C269 1.391 . S
C270 H326 0.947 . S
C270 C327 1.392 . S
C271 C272 1.391 . S
C271 C275 1.397 . S
C271 C327 1.419 . S
C272 C268 1.391 . S
C272 C271 1.391 . S
C272 C273 1.399 . S
C273 C272 1.399 . S
C273 C276 1.396 . S
C273 C285 1.453 . S
C273 C286 1.684 . S
H274 C298 0.948 . S
C275 C271 1.397 . S
C275 C276 1.394 . S
C275 C294 1.723 . S
C276 C273 1.396 . S
C276 C275 1.394 . S
C276 C306 1.723 . S
H277 C300 0.947 . S
H278 C301 0.948 . S
H279 C307 0.982 . S
H280 C308 0.979 . S
H281 C308 0.980 . S
H282 C308 0.983 . S
H283 C307 0.979 . S
H284 C307 0.977 . S
C285 C273 1.453 . S
C285 H314 0.982 . S
C285 H315 0.979 . S
C285 H316 0.977 . S
C286 C273 1.684 . S
C286 H311 0.979 . S
C286 H312 0.980 . S
C286 H313 0.983 . S
C287 C288 1.391 . S
C287 C292 1.391 . S
C287 H317 0.948 . S
C288 C287 1.391 . S
C288 C289 1.391 . S
C289 C288 1.391 . S
C289 C290 1.392 . S
C289 H318 0.947 . S
C290 C289 1.392 . S
C290 C291 1.419 . S
C290 H319 0.948 . S
C291 C290 1.419 . S
C291 C292 1.391 . S
C291 C295 1.397 . S
C292 C287 1.391 . S
C292 C291 1.391 . S
C292 C293 1.399 . S
C293 C292 1.399 . S
C293 C294 1.396 . S
C293 C296 1.453 . S
C293 C297 1.684 . S
C294 C275 1.723 . S
C294 C293 1.396 . S
C294 C295 1.394 . S
C295 C291 1.397 . S
C295 C294 1.394 . S
C295 C305 1.723 . S
C296 C293 1.453 . S
C296 H320 0.982 . S
C296 H321 0.979 . S
C296 H322 0.977 . S
C297 C293 1.684 . S
C297 H323 0.979 . S
C297 H324 0.980 . S
C297 H325 0.983 . S
C298 H274 0.948 . S
C298 C299 1.391 . S
C298 C303 1.391 . S
C299 C298 1.391 . S
C299 C300 1.391 . S
C300 H277 0.947 . S
C300 C299 1.391 . S
C300 C301 1.392 . S
C301 H278 0.948 . S
C301 C300 1.392 . S
C301 C302 1.419 . S
C302 C301 1.419 . S
C302 C303 1.391 . S
C302 C306 1.397 . S
C303 C298 1.391 . S
C303 C302 1.391 . S
C303 C304 1.399 . S
C304 C303 1.399 . S
C304 C305 1.396 . S
C304 C307 1.453 . S
C304 C308 1.684 . S
C305 C295 1.723 . S
C305 C304 1.396 . S
C305 C306 1.394 . S
C306 C276 1.723 . S
C306 C302 1.397 . S
C306 C305 1.394 . S
C307 H279 0.982 . S
C307 H283 0.979 . S
C307 H284 0.977 . S
C307 C304 1.453 . S
C308 H280 0.979 . S
C308 H281 0.980 . S
C308 H282 0.983 . S
C308 C304 1.684 . S
H309 C327 0.948 . S
H310 C268 0.948 . S
H311 C286 0.979 . S
H312 C286 0.980 . S
H313 C286 0.983 . S
H314 C285 0.982 . S
H315 C285 0.979 . S
H316 C285 0.977 . S
H317 C287 0.948 . S
H318 C289 0.947 . S
H319 C290 0.948 . S
H320 C296 0.982 . S
H321 C296 0.979 . S
H322 C296 0.977 . S
H323 C297 0.979 . S
H324 C297 0.980 . S
H325 C297 0.983 . S
H326 C270 0.947 . S
C327 C270 1.392 . S
C327 C271 1.419 . S
C327 H309 0.948 . S
C328 C329 1.391 . S
C328 C332 1.391 . S
C328 H370 0.948 . S
C329 C328 1.391 . S
C329 C330 1.391 . S
C330 C329 1.391 . S
C330 H386 0.947 . S
C330 C387 1.392 . S
C331 C332 1.391 . S
C331 C335 1.397 . S
C331 C387 1.419 . S
C332 C328 1.391 . S
C332 C331 1.391 . S
C332 C333 1.399 . S
C333 C332 1.399 . S
C333 C336 1.396 . S
C333 C345 1.453 . S
C333 C346 1.684 . S
H334 C358 0.948 . S
C335 C331 1.397 . S
C335 C336 1.394 . S
C335 C354 1.723 . S
C336 C333 1.396 . S
C336 C335 1.394 . S
C336 C366 1.723 . S
H337 C360 0.947 . S
H338 C361 0.948 . S
H339 C367 0.982 . S
H340 C368 0.979 . S
H341 C368 0.980 . S
H342 C368 0.983 . S
H343 C367 0.979 . S
H344 C367 0.977 . S
C345 C333 1.453 . S
C345 H374 0.982 . S
C345 H375 0.979 . S
C345 H376 0.977 . S
C346 C333 1.684 . S
C346 H371 0.979 . S
C346 H372 0.980 . S
C346 H373 0.983 . S
C347 C348 1.391 . S
C347 C352 1.391 . S
C347 H377 0.948 . S
C348 C347 1.391 . S
C348 C349 1.391 . S
C349 C348 1.391 . S
C349 C350 1.392 . S
C349 H378 0.947 . S
C350 C349 1.392 . S
C350 C351 1.419 . S
C350 H379 0.948 . S
C351 C350 1.419 . S
C351 C352 1.391 . S
C351 C355 1.397 . S
C352 C347 1.391 . S
C352 C351 1.391 . S
C352 C353 1.399 . S
C353 C352 1.399 . S
C353 C354 1.396 . S
C353 C356 1.453 . S
C353 C357 1.684 . S
C354 C335 1.723 . S
C354 C353 1.396 . S
C354 C355 1.394 . S
C355 C351 1.397 . S
C355 C354 1.394 . S
C355 C365 1.723 . S
C356 C353 1.453 . S
C356 H380 0.982 . S
C356 H381 0.979 . S
C356 H382 0.977 . S
C357 C353 1.684 . S
C357 H383 0.979 . S
C357 H384 0.980 . S
C357 H385 0.983 . S
C358 H334 0.948 . S
C358 C359 1.391 . S
C358 C363 1.391 . S
C359 C358 1.391 . S
C359 C360 1.391 . S
C360 H337 0.947 . S
C360 C359 1.391 . S
C360 C361 1.392 . S
C361 H338 0.948 . S
C361 C360 1.392 . S
C361 C362 1.419 . S
C362 C361 1.419 . S
C362 C363 1.391 . S
C362 C366 1.397 . S
C363 C358 1.391 . S
C363 C362 1.391 . S
C363 C364 1.399 . S
C364 C363 1.399 . S
C364 C365 1.396 . S
C364 C367 1.453 . S
C364 C368 1.684 . S
C365 C355 1.723 . S
C365 C364 1.396 . S
C365 C366 1.394 . S
C366 C336 1.723 . S
C366 C362 1.397 . S
C366 C365 1.394 . S
C367 H339 0.982 . S
C367 H343 0.979 . S
C367 H344 0.977 . S
C367 C364 1.453 . S
C368 H340 0.979 . S
C368 H341 0.980 . S
C368 H342 0.983 . S
C368 C364 1.684 . S
H369 C387 0.948 . S
H370 C328 0.948 . S
H371 C346 0.979 . S
H372 C346 0.980 . S
H373 C346 0.983 . S
H374 C345 0.982 . S
H375 C345 0.979 . S
H376 C345 0.977 . S
H377 C347 0.948 . S
H378 C349 0.947 . S
H379 C350 0.948 . S
H380 C356 0.982 . S
H381 C356 0.979 . S
H382 C356 0.977 . S
H383 C357 0.979 . S
H384 C357 0.980 . S
H385 C357 0.983 . S
H386 C330 0.947 . S
C387 C330 1.392 . S
C387 C331 1.419 . S
C387 H369 0.948 . S
C388 C389 1.391 . S
C388 C392 1.391 . S
C388 H430 0.948 . S
C389 C388 1.391 . S
C389 C390 1.391 . S
C390 C389 1.391 . S
C390 H446 0.947 . S
C390 C447 1.392 . S
C391 C392 1.391 . S
C391 C395 1.397 . S
C391 C447 1.419 . S
C392 C388 1.391 . S
C392 C391 1.391 . S
C392 C393 1.399 . S
C393 C392 1.399 . S
C393 C396 1.396 . S
C393 C405 1.453 . S
C393 C406 1.684 . S
H394 C418 0.948 . S
C395 C391 1.397 . S
C395 C396 1.394 . S
C395 C414 1.723 . S
C396 C393 1.396 . S
C396 C395 1.394 . S
C396 C426 1.723 . S
H397 C420 0.947 . S
H398 C421 0.948 . S
H399 C427 0.982 . S
H400 C428 0.979 . S
H401 C428 0.980 . S
H402 C428 0.983 . S
H403 C427 0.979 . S
H404 C427 0.977 . S
C405 C393 1.453 . S
C405 H434 0.982 . S
C405 H435 0.979 . S
C405 H436 0.977 . S
C406 C393 1.684 . S
C406 H431 0.979 . S
C406 H432 0.980 . S
C406 H433 0.983 . S
C407 C408 1.391 . S
C407 C412 1.391 . S
C407 H437 0.948 . S
C408 C407 1.391 . S
C408 C409 1.391 . S
C409 C408 1.391 . S
C409 C410 1.392 . S
C409 H438 0.947 . S
C410 C409 1.392 . S
C410 C411 1.419 . S
C410 H439 0.948 . S
C411 C410 1.419 . S
C411 C412 1.391 . S
C411 C415 1.397 . S
C412 C407 1.391 . S
C412 C411 1.391 . S
C412 C413 1.399 . S
C413 C412 1.399 . S
C413 C414 1.396 . S
C413 C416 1.453 . S
C413 C417 1.684 . S
C414 C395 1.723 . S
C414 C413 1.396 . S
C414 C415 1.394 . S
C415 C411 1.397 . S
C415 C414 1.394 . S
C415 C425 1.723 . S
C416 C413 1.453 . S
C416 H440 0.982 . S
C416 H441 0.979 . S
C416 H442 0.977 . S
C417 C413 1.684 . S
C417 H443 0.979 . S
C417 H444 0.980 . S
C417 H445 0.983 . S
C418 H394 0.948 . S
C418 C419 1.391 . S
C418 C423 1.391 . S
C419 C418 1.391 . S
C419 C420 1.391 . S
C420 H397 0.947 . S
C420 C419 1.391 . S
C420 C421 1.392 . S
C421 H398 0.948 . S
C421 C420 1.392 . S
C421 C422 1.419 . S
C422 C421 1.419 . S
C422 C423 1.391 . S
C422 C426 1.397 . S
C423 C418 1.391 . S
C423 C422 1.391 . S
C423 C424 1.399 . S
C424 C423 1.399 . S
C424 C425 1.396 . S
C424 C427 1.453 . S
C424 C428 1.684 . S
C425 C415 1.723 . S
C425 C424 1.396 . S
C425 C426 1.394 . S
C426 C396 1.723 . S
C426 C422 1.397 . S
C426 C425 1.394 . S
C427 H399 0.982 . S
C427 H403 0.979 . S
C427 H404 0.977 . S
C427 C424 1.453 . S
C428 H400 0.979 . S
C428 H401 0.980 . S
C428 H402 0.983 . S
C428 C424 1.684 . S
H429 C447 0.948 . S
H430 C388 0.948 . S
H431 C406 0.979 . S
H432 C406 0.980 . S
H433 C406 0.983 . S
H434 C405 0.982 . S
H435 C405 0.979 . S
H436 C405 0.977 . S
H437 C407 0.948 . S
H438 C409 0.947 . S
H439 C410 0.948 . S
H440 C416 0.982 . S
H441 C416 0.979 . S
H442 C416 0.977 . S
H443 C417 0.979 . S
H444 C417 0.980 . S
H445 C417 0.983 . S
H446 C390 0.947 . S
C447 C390 1.392 . S
C447 C391 1.419 . S
C447 H429 0.948 . S
C448 C449 1.391 . S
C448 C452 1.391 . S
C448 H490 0.948 . S
C449 C448 1.391 . S
C449 C450 1.391 . S
C450 C449 1.391 . S
C450 H506 0.947 . S
C450 C507 1.392 . S
C451 C452 1.391 . S
C451 C455 1.397 . S
C451 C507 1.419 . S
C452 C448 1.391 . S
C452 C451 1.391 . S
C452 C453 1.399 . S
C453 C452 1.399 . S
C453 C456 1.396 . S
C453 C465 1.453 . S
C453 C466 1.684 . S
H454 C478 0.948 . S
C455 C451 1.397 . S
C455 C456 1.394 . S
C455 C474 1.723 . S
C456 C453 1.396 . S
C456 C455 1.394 . S
C456 C486 1.723 . S
H457 C480 0.947 . S
H458 C481 0.948 . S
H459 C487 0.982 . S
H460 C488 0.979 . S
H461 C488 0.980 . S
H462 C488 0.983 . S
H463 C487 0.979 . S
H464 C487 0.977 . S
C465 C453 1.453 . S
C465 H494 0.982 . S
C465 H495 0.979 . S
C465 H496 0.977 . S
C466 C453 1.684 . S
C466 H491 0.979 . S
C466 H492 0.980 . S
C466 H493 0.983 . S
C467 C468 1.391 . S
C467 C472 1.391 . S
C467 H497 0.948 . S
C468 C467 1.391 . S
C468 C469 1.391 . S
C469 C468 1.391 . S
C469 C470 1.392 . S
C469 H498 0.947 . S
C470 C469 1.392 . S
C470 C471 1.419 . S
C470 H499 0.948 . S
C471 C470 1.419 . S
C471 C472 1.391 . S
C471 C475 1.397 . S
C472 C467 1.391 . S
C472 C471 1.391 . S
C472 C473 1.399 . S
C473 C472 1.399 . S
C473 C474 1.396 . S
C473 C476 1.453 . S
C473 C477 1.684 . S
C474 C455 1.723 . S
C474 C473 1.396 . S
C474 C475 1.394 . S
C475 C471 1.397 . S
C475 C474 1.394 . S
C475 C485 1.723 . S
C476 C473 1.453 . S
C476 H500 0.982 . S
C476 H501 0.979 . S
C476 H502 0.977 . S
C477 C473 1.684 . S
C477 H503 0.979 . S
C477 H504 0.980 . S
C477 H505 0.983 . S
C478 H454 0.948 . S
C478 C479 1.391 . S
C478 C483 1.391 . S
C479 C478 1.391 . S
C479 C480 1.391 . S
C480 H457 0.947 . S
C480 C479 1.391 . S
C480 C481 1.392 . S
C481 H458 0.948 . S
C481 C480 1.392 . S
C481 C482 1.419 . S
C482 C481 1.419 . S
C482 C483 1.391 . S
C482 C486 1.397 . S
C483 C478 1.391 . S
C483 C482 1.391 . S
C483 C484 1.399 . S
C484 C483 1.399 . S
C484 C485 1.396 . S
C484 C487 1.453 . S
C484 C488 1.684 . S
C485 C475 1.723 . S
C485 C484 1.396 . S
C485 C486 1.394 . S
C486 C456 1.723 . S
C486 C482 1.397 . S
C486 C485 1.394 . S
C487 H459 0.982 . S
C487 H463 0.979 . S
C487 H464 0.977 . S
C487 C484 1.453 . S
C488 H460 0.979 . S
C488 H461 0.980 . S
C488 H462 0.983 . S
C488 C484 1.684 . S
H489 C507 0.948 . S
H490 C448 0.948 . S
H491 C466 0.979 . S
H492 C466 0.980 . S
H493 C466 0.983 . S
H494 C465 0.982 . S
H495 C465 0.979 . S
H496 C465 0.977 . S
H497 C467 0.948 . S
H498 C469 0.947 . S
H499 C470 0.948 . S
H500 C476 0.982 . S
H501 C476 0.979 . S
H502 C476 0.977 . S
H503 C477 0.979 . S
H504 C477 0.980 . S
H505 C477 0.983 . S
H506 C450 0.947 . S
C507 C450 1.392 . S
C507 C451 1.419 . S
C507 H489 0.948 . S
C508 C509 1.391 . S
C508 C512 1.391 . S
C508 H550 0.948 . S
C509 C508 1.391 . S
C509 C510 1.391 . S
C510 C509 1.391 . S
C510 H566 0.947 . S
C510 C567 1.392 . S
C511 C512 1.391 . S
C511 C515 1.397 . S
C511 C567 1.419 . S
C512 C508 1.391 . S
C512 C511 1.391 . S
C512 C513 1.399 . S
C513 C512 1.399 . S
C513 C516 1.396 . S
C513 C525 1.453 . S
C513 C526 1.684 . S
H514 C538 0.948 . S
C515 C511 1.397 . S
C515 C516 1.394 . S
C515 C534 1.723 . S
C516 C513 1.396 . S
C516 C515 1.394 . S
C516 C546 1.723 . S
H517 C540 0.947 . S
H518 C541 0.948 . S
H519 C547 0.982 . S
H520 C548 0.979 . S
H521 C548 0.980 . S
H522 C548 0.983 . S
H523 C547 0.979 . S
H524 C547 0.977 . S
C525 C513 1.453 . S
C525 H554 0.982 . S
C525 H555 0.979 . S
C525 H556 0.977 . S
C526 C513 1.684 . S
C526 H551 0.979 . S
C526 H552 0.980 . S
C526 H553 0.983 . S
C527 C528 1.391 . S
C527 C532 1.391 . S
C527 H557 0.948 . S
C528 C527 1.391 . S
C528 C529 1.391 . S
C529 C528 1.391 . S
C529 C530 1.392 . S
C529 H558 0.947 . S
C530 C529 1.392 . S
C530 C531 1.419 . S
C530 H559 0.948 . S
C531 C530 1.419 . S
C531 C532 1.391 . S
C531 C535 1.397 . S
C532 C527 1.391 . S
C532 C531 1.391 . S
C532 C533 1.399 . S
C533 C532 1.399 . S
C533 C534 1.396 . S
C533 C536 1.453 . S
C533 C537 1.684 . S
C534 C515 1.723 . S
C534 C533 1.396 . S
C534 C535 1.394 . S
C535 C531 1.397 . S
C535 C534 1.394 . S
C535 C545 1.723 . S
C536 C533 1.453 . S
C536 H560 0.982 . S
C536 H561 0.979 . S
C536 H562 0.977 . S
C537 C533 1.684 . S
C537 H563 0.979 . S
C537 H564 0.980 . S
C537 H565 0.983 . S
C538 H514 0.948 . S
C538 C539 1.391 . S
C538 C543 1.391 . S
C539 C538 1.391 . S
C539 C540 1.391 . S
C540 H517 0.947 . S
C540 C539 1.391 . S
C540 C541 1.392 . S
C541 H518 0.948 . S
C541 C540 1.392 . S
C541 C542 1.419 . S
C542 C541 1.419 . S
C542 C543 1.391 . S
C542 C546 1.397 . S
C543 C538 1.391 . S
C543 C542 1.391 . S
C543 C544 1.399 . S
C544 C543 1.399 . S
C544 C545 1.396 . S
C544 C547 1.453 . S
C544 C548 1.684 . S
C545 C535 1.723 . S
C545 C544 1.396 . S
C545 C546 1.394 . S
C546 C516 1.723 . S
C546 C542 1.397 . S
C546 C545 1.394 . S
C547 H519 0.982 . S
C547 H523 0.979 . S
C547 H524 0.977 . S
C547 C544 1.453 . S
C548 H520 0.979 . S
C548 H521 0.980 . S
C548 H522 0.983 . S
C548 C544 1.684 . S
H549 C567 0.948 . S
H550 C508 0.948 . S
H551 C526 0.979 . S
H552 C526 0.980 . S
H553 C526 0.983 . S
H554 C525 0.982 . S
H555 C525 0.979 . S
H556 C525 0.977 . S
H557 C527 0.948 . S
H558 C529 0.947 . S
H559 C530 0.948 . S
H560 C536 0.982 . S
H561 C536 0.979 . S
H562 C536 0.977 . S
H563 C537 0.979 . S
H564 C537 0.980 . S
H565 C537 0.983 . S
H566 C510 0.947 . S
C567 C510 1.392 . S
C567 C511 1.419 . S
C567 H549 0.948 . S
H568 C586 0.951 . S
H569 C588 0.951 . S
H570 C590 0.950 . S
H571 C591 0.950 . S
H572 C593 0.950 . S
H573 C596 0.950 . S
H574 C597 0.950 . S
H575 C599 0.950 1_545 S
H576 C600 0.950 1_545 S
H577 C601 0.951 . S
H578 C603 0.951 . S
H579 C605 0.950 . S
H580 C606 0.950 . S
H581 C608 0.950 . S
H582 C611 0.950 . S
H583 C612 0.950 . S
H584 C614 0.950 . S
H585 C615 0.950 . S
C586 H568 0.951 . S
C586 C587 1.366 . S
C586 C588 1.388 . S
C587 C586 1.366 . S
C587 C591 1.385 . S
C588 H569 0.951 . S
C588 C586 1.388 . S
C588 C589 1.366 . S
C589 C588 1.366 . S
C589 C590 1.414 . S
C589 C592 1.499 . S
C590 H570 0.950 . S
C590 C589 1.414 . S
C590 C591 1.374 . S
C591 H571 0.950 . S
C591 C587 1.385 . S
C591 C590 1.374 . S
C592 C589 1.499 . S
C592 C593 1.373 . S
C592 C594 1.389 . S
C593 H572 0.950 . S
C593 C592 1.373 . S
C593 C609 1.377 . S
C594 C592 1.389 . S
C594 C595 1.524 . S
C594 C608 1.377 1_565 S
C595 C594 1.524 . S
C595 C596 1.397 . S
C595 C600 1.363 . S
C596 H573 0.950 . S
C596 C595 1.397 . S
C596 C597 1.334 . S
C597 H574 0.950 . S
C597 C596 1.334 . S
C597 C598 1.287 . S
C598 C597 1.287 . S
C598 C599 1.524 . S
C598 H617 0.913 . S
C599 H575 0.950 1_565 S
C599 C598 1.524 . S
C599 C600 1.415 . S
C600 H576 0.950 1_565 S
C600 C595 1.363 . S
C600 C599 1.415 . S
C601 H577 0.951 . S
C601 C602 1.366 . S
C601 C603 1.388 . S
C602 C601 1.366 . S
C602 C606 1.385 . S
C603 H578 0.951 . S
C603 C601 1.388 . S
C603 C604 1.366 . S
C604 C603 1.366 . S
C604 C605 1.414 . S
C604 C607 1.499 . S
C605 H579 0.950 . S
C605 C604 1.414 . S
C605 C606 1.374 . S
C606 H580 0.950 . S
C606 C602 1.385 . S
C606 C605 1.374 . S
C607 C604 1.499 . S
C607 C608 1.373 . S
C607 C609 1.389 1_545 S
C608 H581 0.950 . S
C608 C594 1.377 1_545 S
C608 C607 1.373 . S
C609 C593 1.377 . S
C609 C607 1.389 1_565 S
C609 C610 1.524 . S
C610 C609 1.524 . S
C610 C611 1.397 1_565 S
C610 C615 1.363 . S
C611 H582 0.950 . S
C611 C610 1.397 1_545 S
C611 C612 1.334 . S
C612 H583 0.950 . S
C612 C611 1.334 . S
C612 C613 1.287 1_545 S
C613 C612 1.287 1_565 S
C613 C614 1.524 . S
C613 H616 0.999 . S
C614 H584 0.950 . S
C614 C613 1.524 . S
C614 C615 1.415 . S
C615 H585 0.950 . S
C615 C610 1.363 . S
C615 C614 1.415 . S
H616 C613 0.999 . S
H617 C598 0.913 . S
H618 C636 0.951 . S
H619 C638 0.951 . S
H620 C640 0.950 . S
H621 C641 0.950 . S
H622 C643 0.950 . S
H623 C646 0.950 . S
H624 C647 0.950 . S
H625 C649 0.950 . S
H626 C650 0.950 . S
H627 C651 0.951 . S
H628 C653 0.951 . S
H629 C655 0.950 . S
H630 C656 0.950 . S
H631 C658 0.950 . S
H632 C661 0.950 . S
H633 C662 0.950 . S
H634 C664 0.950 . S
H635 C665 0.950 . S
C636 H618 0.951 . S
C636 C637 1.366 . S
C636 C638 1.388 . S
C637 C636 1.366 . S
C637 C641 1.385 . S
C638 H619 0.951 . S
C638 C636 1.388 . S
C638 C639 1.366 . S
C639 C638 1.366 . S
C639 C640 1.414 . S
C639 C642 1.499 . S
C640 H620 0.950 . S
C640 C639 1.414 . S
C640 C641 1.374 . S
C641 H621 0.950 . S
C641 C637 1.385 . S
C641 C640 1.374 . S
C642 C639 1.499 . S
C642 C643 1.373 . S
C642 C644 1.389 . S
C643 H622 0.950 . S
C643 C642 1.373 . S
C643 C659 1.377 . S
C644 C642 1.389 . S
C644 C645 1.524 . S
C644 C658 1.377 . S
C645 C644 1.524 . S
C645 C646 1.397 . S
C645 C650 1.363 . S
C646 H623 0.950 . S
C646 C645 1.397 . S
C646 C647 1.334 . S
C647 H624 0.950 . S
C647 C646 1.334 . S
C647 C648 1.287 . S
C648 C647 1.287 . S
C648 C649 1.524 . S
C648 H667 0.913 . S
C649 H625 0.950 . S
C649 C648 1.524 . S
C649 C650 1.415 . S
C650 H626 0.950 . S
C650 C645 1.363 . S
C650 C649 1.415 . S
C651 H627 0.951 . S
C651 C652 1.366 . S
C651 C653 1.388 . S
C652 C651 1.366 . S
C652 C656 1.385 . S
C653 H628 0.951 . S
C653 C651 1.388 . S
C653 C654 1.366 . S
C654 C653 1.366 . S
C654 C655 1.414 . S
C654 C657 1.499 . S
C655 H629 0.950 . S
C655 C654 1.414 . S
C655 C656 1.374 . S
C656 H630 0.950 . S
C656 C652 1.385 . S
C656 C655 1.374 . S
C657 C654 1.499 . S
C657 C658 1.373 . S
C657 C659 1.389 . S
C658 H631 0.950 . S
C658 C644 1.377 . S
C658 C657 1.373 . S
C659 C643 1.377 . S
C659 C657 1.389 . S
C659 C660 1.524 . S
C660 C659 1.524 . S
C660 C661 1.397 . S
C660 C665 1.363 . S
C661 H632 0.950 . S
C661 C660 1.397 . S
C661 C662 1.334 . S
C662 H633 0.950 . S
C662 C661 1.334 . S
C662 C663 1.287 . S
C663 C662 1.287 . S
C663 C664 1.524 . S
C663 H666 0.999 . S
C664 H634 0.950 . S
C664 C663 1.524 . S
C664 C665 1.415 . S
C665 H635 0.950 . S
C665 C660 1.363 . S
C665 C664 1.415 . S
H666 C663 0.999 . S
H667 C648 0.913 . S
H668 C686 0.951 . S
H669 C688 0.951 . S
H670 C690 0.950 . S
H671 C691 0.950 . S
H672 C693 0.950 . S
H673 C696 0.950 . S
H674 C697 0.950 . S
H675 C699 0.950 . S
H676 C700 0.950 . S
H677 C701 0.951 . S
H678 C703 0.951 . S
H679 C705 0.950 . S
H680 C706 0.950 . S
H681 C708 0.950 . S
H682 C711 0.950 . S
H683 C712 0.950 . S
H684 C714 0.950 . S
H685 C715 0.950 . S
C686 H668 0.951 . S
C686 C687 1.366 . S
C686 C688 1.388 . S
C687 C686 1.366 . S
C687 C691 1.385 . S
C688 H669 0.951 . S
C688 C686 1.388 . S
C688 C689 1.366 . S
C689 C688 1.366 . S
C689 C690 1.414 . S
C689 C692 1.499 . S
C690 H670 0.950 . S
C690 C689 1.414 . S
C690 C691 1.374 . S
C691 H671 0.950 . S
C691 C687 1.385 . S
C691 C690 1.374 . S
C692 C689 1.499 . S
C692 C693 1.373 . S
C692 C694 1.389 . S
C693 H672 0.950 . S
C693 C692 1.373 . S
C693 C709 1.377 . S
C694 C692 1.389 . S
C694 C695 1.524 . S
C694 C708 1.377 . S
C695 C694 1.524 . S
C695 C696 1.397 . S
C695 C700 1.363 . S
C696 H673 0.950 . S
C696 C695 1.397 . S
C696 C697 1.334 . S
C697 H674 0.950 . S
C697 C696 1.334 . S
C697 C698 1.287 . S
C698 C697 1.287 . S
C698 C699 1.524 . S
C698 H717 0.913 . S
C699 H675 0.950 . S
C699 C698 1.524 . S
C699 C700 1.415 . S
C700 H676 0.950 . S
C700 C695 1.363 . S
C700 C699 1.415 . S
C701 H677 0.951 . S
C701 C702 1.366 1_545 S
C701 C703 1.388 . S
C702 C701 1.366 1_565 S
C702 C706 1.385 . S
C703 H678 0.951 . S
C703 C701 1.388 . S
C703 C704 1.366 . S
C704 C703 1.366 . S
C704 C705 1.414 1_545 S
C704 C707 1.499 . S
C705 H679 0.950 . S
C705 C704 1.414 1_565 S
C705 C706 1.374 . S
C706 H680 0.950 . S
C706 C702 1.385 . S
C706 C705 1.374 . S
C707 C704 1.499 . S
C707 C708 1.373 . S
C707 C709 1.389 . S
C708 H681 0.950 . S
C708 C694 1.377 . S
C708 C707 1.373 . S
C709 C693 1.377 . S
C709 C707 1.389 . S
C709 C710 1.524 . S
C710 C709 1.524 . S
C710 C711 1.397 . S
C710 C715 1.363 . S
C711 H682 0.950 . S
C711 C710 1.397 . S
C711 C712 1.334 . S
C712 H683 0.950 . S
C712 C711 1.334 . S
C712 C713 1.287 . S
C713 C712 1.287 . S
C713 C714 1.524 . S
C713 H716 0.999 . S
C714 H684 0.950 . S
C714 C713 1.524 . S
C714 C715 1.415 . S
C715 H685 0.950 . S
C715 C710 1.363 . S
C715 C714 1.415 . S
H716 C713 0.999 . S
H717 C698 0.913 . S
H718 C736 0.951 . S
H719 C738 0.951 . S
H720 C740 0.950 . S
H721 C741 0.950 . S
H722 C743 0.950 . S
H723 C746 0.950 . S
H724 C747 0.950 . S
H725 C749 0.950 . S
H726 C750 0.950 . S
H727 C751 0.951 . S
H728 C753 0.951 . S
H729 C755 0.950 . S
H730 C756 0.950 . S
H731 C758 0.950 . S
H732 C761 0.950 . S
H733 C762 0.950 . S
H734 C764 0.950 . S
H735 C765 0.950 . S
C736 H718 0.951 . S
C736 C737 1.366 . S
C736 C738 1.388 . S
C737 C736 1.366 . S
C737 C741 1.385 . S
C738 H719 0.951 . S
C738 C736 1.388 . S
C738 C739 1.366 . S
C739 C738 1.366 . S
C739 C740 1.414 . S
C739 C742 1.499 . S
C740 H720 0.950 . S
C740 C739 1.414 . S
C740 C741 1.374 . S
C741 H721 0.950 . S
C741 C737 1.385 . S
C741 C740 1.374 . S
C742 C739 1.499 . S
C742 C743 1.373 . S
C742 C744 1.389 . S
C743 H722 0.950 . S
C743 C742 1.373 . S
C743 C759 1.377 . S
C744 C742 1.389 . S
C744 C745 1.524 . S
C744 C758 1.377 . S
C745 C744 1.524 . S
C745 C746 1.397 . S
C745 C750 1.363 . S
C746 H723 0.950 . S
C746 C745 1.397 . S
C746 C747 1.334 . S
C747 H724 0.950 . S
C747 C746 1.334 . S
C747 C748 1.287 . S
C748 C747 1.287 . S
C748 C749 1.524 . S
C748 H767 0.913 . S
C749 H725 0.950 . S
C749 C748 1.524 . S
C749 C750 1.415 . S
C750 H726 0.950 . S
C750 C745 1.363 . S
C750 C749 1.415 . S
C751 H727 0.951 . S
C751 C752 1.366 . S
C751 C753 1.388 . S
C752 C751 1.366 . S
C752 C756 1.385 . S
C753 H728 0.951 . S
C753 C751 1.388 . S
C753 C754 1.366 . S
C754 C753 1.366 . S
C754 C755 1.414 . S
C754 C757 1.499 . S
C755 H729 0.950 . S
C755 C754 1.414 . S
C755 C756 1.374 . S
C756 H730 0.950 . S
C756 C752 1.385 . S
C756 C755 1.374 . S
C757 C754 1.499 . S
C757 C758 1.373 . S
C757 C759 1.389 . S
C758 H731 0.950 . S
C758 C744 1.377 . S
C758 C757 1.373 . S
C759 C743 1.377 . S
C759 C757 1.389 . S
C759 C760 1.524 . S
C760 C759 1.524 . S
C760 C761 1.397 . S
C760 C765 1.363 . S
C761 H732 0.950 . S
C761 C760 1.397 . S
C761 C762 1.334 . S
C762 H733 0.950 . S
C762 C761 1.334 . S
C762 C763 1.287 . S
C763 C762 1.287 . S
C763 C764 1.524 . S
C763 H766 0.999 . S
C764 H734 0.950 . S
C764 C763 1.524 . S
C764 C765 1.415 . S
C765 H735 0.950 . S
C765 C760 1.363 . S
C765 C764 1.415 . S
H766 C763 0.999 . S
H767 C748 0.913 . S
H768 C786 0.951 . S
H769 C788 0.951 . S
H770 C790 0.950 . S
H771 C791 0.950 . S
H772 C793 0.950 . S
H773 C796 0.950 . S
H774 C797 0.950 . S
H775 C799 0.950 . S
H776 C800 0.950 . S
H777 C801 0.951 . S
H778 C803 0.951 . S
H779 C805 0.950 . S
H780 C806 0.950 . S
H781 C808 0.950 . S
H782 C811 0.950 . S
H783 C812 0.950 . S
H784 C814 0.950 . S
H785 C815 0.950 . S
C786 H768 0.951 . S
C786 C787 1.366 . S
C786 C788 1.388 . S
C787 C786 1.366 . S
C787 C791 1.385 . S
C788 H769 0.951 . S
C788 C786 1.388 . S
C788 C789 1.366 . S
C789 C788 1.366 . S
C789 C790 1.414 . S
C789 C792 1.499 . S
C790 H770 0.950 . S
C790 C789 1.414 . S
C790 C791 1.374 . S
C791 H771 0.950 . S
C791 C787 1.385 . S
C791 C790 1.374 . S
C792 C789 1.499 . S
C792 C793 1.373 . S
C792 C794 1.389 . S
C793 H772 0.950 . S
C793 C792 1.373 . S
C793 C809 1.377 . S
C794 C792 1.389 . S
C794 C795 1.524 . S
C794 C808 1.377 . S
C795 C794 1.524 . S
C795 C796 1.397 . S
C795 C800 1.363 . S
C796 H773 0.950 . S
C796 C795 1.397 . S
C796 C797 1.334 . S
C797 H774 0.950 . S
C797 C796 1.334 . S
C797 C798 1.287 . S
C798 C797 1.287 . S
C798 C799 1.524 . S
C798 H817 0.913 . S
C799 H775 0.950 . S
C799 C798 1.524 . S
C799 C800 1.415 . S
C800 H776 0.950 . S
C800 C795 1.363 . S
C800 C799 1.415 . S
C801 H777 0.951 . S
C801 C802 1.366 . S
C801 C803 1.388 . S
C802 C801 1.366 . S
C802 C806 1.385 . S
C803 H778 0.951 . S
C803 C801 1.388 . S
C803 C804 1.366 . S
C804 C803 1.366 . S
C804 C805 1.414 . S
C804 C807 1.499 . S
C805 H779 0.950 . S
C805 C804 1.414 . S
C805 C806 1.374 . S
C806 H780 0.950 . S
C806 C802 1.385 . S
C806 C805 1.374 . S
C807 C804 1.499 . S
C807 C808 1.373 . S
C807 C809 1.389 . S
C808 H781 0.950 . S
C808 C794 1.377 . S
C808 C807 1.373 . S
C809 C793 1.377 . S
C809 C807 1.389 . S
C809 C810 1.524 . S
C810 C809 1.524 . S
C810 C811 1.397 . S
C810 C815 1.363 . S
C811 H782 0.950 . S
C811 C810 1.397 . S
C811 C812 1.334 . S
C812 H783 0.950 . S
C812 C811 1.334 . S
C812 C813 1.287 . S
C813 C812 1.287 . S
C813 C814 1.524 . S
C813 H816 0.999 . S
C814 H784 0.950 . S
C814 C813 1.524 . S
C814 C815 1.415 . S
C815 H785 0.950 . S
C815 C810 1.363 . S
C815 C814 1.415 . S
H816 C813 0.999 . S
H817 C798 0.913 . S
H818 C836 0.951 . S
H819 C838 0.951 . S
H820 C840 0.950 . S
H821 C841 0.950 . S
H822 C843 0.950 . S
H823 C846 0.950 . S
H824 C847 0.950 . S
H825 C849 0.950 1_454 S
H826 C850 0.950 . S
H827 C851 0.951 . S
H828 C853 0.951 . S
H829 C855 0.950 . S
H830 C856 0.950 . S
H831 C858 0.950 . S
H832 C861 0.950 . S
H833 C862 0.950 . S
H834 C864 0.950 . S
H835 C865 0.950 . S
C836 H818 0.951 . S
C836 C837 1.366 . S
C836 C838 1.388 . S
C837 C836 1.366 . S
C837 C841 1.385 . S
C838 H819 0.951 . S
C838 C836 1.388 . S
C838 C839 1.366 . S
C839 C838 1.366 . S
C839 C840 1.414 . S
C839 C842 1.499 . S
C840 H820 0.950 . S
C840 C839 1.414 . S
C840 C841 1.374 . S
C841 H821 0.950 . S
C841 C837 1.385 . S
C841 C840 1.374 . S
C842 C839 1.499 . S
C842 C843 1.373 . S
C842 C844 1.389 . S
C843 H822 0.950 . S
C843 C842 1.373 . S
C843 C859 1.377 . S
C844 C842 1.389 . S
C844 C845 1.524 . S
C844 C858 1.377 1_655 S
C845 C844 1.524 . S
C845 C846 1.397 . S
C845 C850 1.363 1_655 S
C846 H823 0.950 . S
C846 C845 1.397 . S
C846 C847 1.334 . S
C847 H824 0.950 . S
C847 C846 1.334 . S
C847 C848 1.287 . S
C848 C847 1.287 . S
C848 C849 1.524 . S
C848 H867 0.913 . S
C849 H825 0.950 1_656 S
C849 C848 1.524 . S
C849 C850 1.415 1_655 S
C850 H826 0.950 . S
C850 C845 1.363 1_455 S
C850 C849 1.415 1_455 S
C851 H827 0.951 . S
C851 C852 1.366 . S
C851 C853 1.388 . S
C852 C851 1.366 . S
C852 C856 1.385 . S
C853 H828 0.951 . S
C853 C851 1.388 . S
C853 C854 1.366 . S
C854 C853 1.366 . S
C854 C855 1.414 . S
C854 C857 1.499 . S
C855 H829 0.950 . S
C855 C854 1.414 . S
C855 C856 1.374 . S
C856 H830 0.950 . S
C856 C852 1.385 . S
C856 C855 1.374 . S
C857 C854 1.499 . S
C857 C858 1.373 . S
C857 C859 1.389 1_455 S
C858 H831 0.950 . S
C858 C844 1.377 1_455 S
C858 C857 1.373 . S
C859 C843 1.377 . S
C859 C857 1.389 1_655 S
C859 C860 1.524 1_655 S
C860 C859 1.524 1_455 S
C860 C861 1.397 . S
C860 C865 1.363 1_455 S
C861 H832 0.950 . S
C861 C860 1.397 . S
C861 C862 1.334 . S
C862 H833 0.950 . S
C862 C861 1.334 . S
C862 C863 1.287 . S
C863 C862 1.287 . S
C863 C864 1.524 1_455 S
C863 H866 0.999 . S
C864 H834 0.950 . S
C864 C863 1.524 1_655 S
C864 C865 1.415 . S
C865 H835 0.950 . S
C865 C860 1.363 1_655 S
C865 C864 1.415 . S
H866 C863 0.999 . S
H867 C848 0.913 . S
H868 C886 0.951 . S
H869 C888 0.951 . S
H870 C890 0.950 . S
H871 C891 0.950 . S
H872 C893 0.950 . S
H873 C896 0.950 . S
H874 C897 0.950 . S
H875 C899 0.950 . S
H876 C900 0.950 . S
H877 C901 0.951 . S
H878 C903 0.951 . S
H879 C905 0.950 . S
H880 C906 0.950 . S
H881 C908 0.950 . S
H882 C911 0.950 . S
H883 C912 0.950 . S
H884 C914 0.950 . S
H885 C915 0.950 . S
C886 H868 0.951 . S
C886 C887 1.366 . S
C886 C888 1.388 . S
C887 C886 1.366 . S
C887 C891 1.385 . S
C888 H869 0.951 . S
C888 C886 1.388 . S
C888 C889 1.366 . S
C889 C888 1.366 . S
C889 C890 1.414 . S
C889 C892 1.499 . S
C890 H870 0.950 . S
C890 C889 1.414 . S
C890 C891 1.374 . S
C891 H871 0.950 . S
C891 C887 1.385 . S
C891 C890 1.374 . S
C892 C889 1.499 . S
C892 C893 1.373 . S
C892 C894 1.389 . S
C893 H872 0.950 . S
C893 C892 1.373 . S
C893 C909 1.377 . S
C894 C892 1.389 . S
C894 C895 1.524 . S
C894 C908 1.377 . S
C895 C894 1.524 . S
C895 C896 1.397 . S
C895 C900 1.363 . S
C896 H873 0.950 . S
C896 C895 1.397 . S
C896 C897 1.334 . S
C897 H874 0.950 . S
C897 C896 1.334 . S
C897 C898 1.287 . S
C898 C897 1.287 . S
C898 C899 1.524 . S
C898 H917 0.913 . S
C899 H875 0.950 . S
C899 C898 1.524 . S
C899 C900 1.415 . S
C900 H876 0.950 . S
C900 C895 1.363 . S
C900 C899 1.415 . S
C901 H877 0.951 . S
C901 C902 1.366 . S
C901 C903 1.388 . S
C902 C901 1.366 . S
C902 C906 1.385 . S
C903 H878 0.951 . S
C903 C901 1.388 . S
C903 C904 1.366 . S
C904 C903 1.366 . S
C904 C905 1.414 . S
C904 C907 1.499 . S
C905 H879 0.950 . S
C905 C904 1.414 . S
C905 C906 1.374 . S
C906 H880 0.950 . S
C906 C902 1.385 . S
C906 C905 1.374 . S
C907 C904 1.499 . S
C907 C908 1.373 . S
C907 C909 1.389 . S
C908 H881 0.950 . S
C908 C894 1.377 . S
C908 C907 1.373 . S
C909 C893 1.377 . S
C909 C907 1.389 . S
C909 C910 1.524 . S
C910 C909 1.524 . S
C910 C911 1.397 . S
C910 C915 1.363 . S
C911 H882 0.950 . S
C911 C910 1.397 . S
C911 C912 1.334 . S
C912 H883 0.950 . S
C912 C911 1.334 . S
C912 C913 1.287 . S
C913 C912 1.287 . S
C913 C914 1.524 . S
C913 H916 0.999 . S
C914 H884 0.950 . S
C914 C913 1.524 . S
C914 C915 1.415 . S
C915 H885 0.950 . S
C915 C910 1.363 . S
C915 C914 1.415 . S
H916 C913 0.999 . S
H917 C898 0.913 . S
H918 C936 0.951 . S
H919 C938 0.951 . S
H920 C940 0.950 . S
H921 C941 0.950 . S
H922 C943 0.950 . S
H923 C946 0.950 . S
H924 C947 0.950 . S
H925 C949 0.950 . S
H926 C950 0.950 . S
H927 C951 0.956 . S
H928 C953 0.951 . S
H929 C955 0.950 . S
H930 C956 0.950 . S
H931 C958 0.950 . S
H932 C961 0.921 1_655 S
H933 C962 0.950 1_655 S
H934 C964 0.950 . S
H935 C965 0.950 . S
C936 H918 0.951 . S
C936 C937 1.366 . S
C936 C938 1.388 . S
C937 C936 1.366 . S
C937 C941 1.385 1_554 S
C938 H919 0.951 . S
C938 C936 1.388 . S
C938 C939 1.366 1_554 S
C939 C938 1.366 1_556 S
C939 C940 1.414 . S
C939 C942 1.499 . S
C940 H920 0.950 . S
C940 C939 1.414 . S
C940 C941 1.374 . S
C941 H921 0.950 . S
C941 C937 1.385 1_556 S
C941 C940 1.374 . S
C942 C939 1.499 . S
C942 C943 1.373 . S
C942 C944 1.389 . S
C943 H922 0.950 . S
C943 C942 1.373 . S
C943 C959 1.377 . S
C944 C942 1.389 . S
C944 C945 1.524 . S
C944 C958 1.377 . S
C945 C944 1.524 . S
C945 C946 1.397 . S
C945 C950 1.363 . S
C946 H923 0.950 . S
C946 C945 1.397 . S
C946 C947 1.334 . S
C947 H924 0.950 . S
C947 C946 1.334 . S
C947 C948 1.287 1_556 S
C948 C947 1.287 1_554 S
C948 C949 1.524 . S
C948 H967 0.913 . S
C949 H925 0.950 . S
C949 C948 1.524 . S
C949 C950 1.415 1_554 S
C950 H926 0.950 . S
C950 C945 1.363 . S
C950 C949 1.415 1_556 S
C951 H927 0.956 . S
C951 C952 1.341 1_455 S
C951 C953 1.408 . S
C952 C951 1.341 1_655 S
C952 C956 1.385 . S
C953 H928 0.951 . S
C953 C951 1.408 . S
C953 C954 1.366 . S
C954 C953 1.366 . S
C954 C955 1.414 1_455 S
C954 C957 1.499 . S
C955 H929 0.950 . S
C955 C954 1.414 1_655 S
C955 C956 1.374 . S
C956 H930 0.950 . S
C956 C952 1.385 . S
C956 C955 1.374 . S
C957 C954 1.499 . S
C957 C958 1.373 . S
C957 C959 1.389 . S
C958 H931 0.950 . S
C958 C944 1.377 . S
C958 C957 1.373 . S
C959 C943 1.377 . S
C959 C957 1.389 . S
C959 C960 1.524 . S
C960 C959 1.524 . S
C960 C961 1.397 . S
C960 C965 1.363 . S
C961 H932 0.921 1_455 S
C961 C960 1.397 . S
C961 C962 1.334 . S
C962 H933 0.950 1_455 S
C962 C961 1.334 . S
C962 C963 1.287 . S
C963 C962 1.287 . S
C963 C964 1.524 . S
C963 H966 0.999 . S
C964 H934 0.950 . S
C964 C963 1.524 . S
C964 C965 1.415 . S
C965 H935 0.950 . S
C965 C960 1.363 . S
C965 C964 1.415 . S
H966 C963 0.999 . S
H967 C948 0.913 . S
H968 C986 0.951 . S
H969 C988 0.951 . S
H970 C990 0.950 . S
H971 C991 0.950 . S
H972 C993 0.950 . S
H973 C996 0.950 . S
H974 C997 0.973 . S
H975 C999 0.950 . S
H976 C1000 0.950 . S
H977 C1001 0.951 . S
H978 C1003 0.951 . S
H979 C1005 0.950 . S
H980 C1006 0.950 . S
H981 C1008 0.950 . S
H982 C1011 0.950 . S
H983 C1012 0.950 . S
H984 C1014 0.950 . S
H985 C1015 0.946 1_545 S
C986 H968 0.951 . S
C986 C987 1.366 . S
C986 C988 1.388 . S
C987 C986 1.366 . S
C987 C991 1.385 . S
C988 H969 0.951 . S
C988 C986 1.388 . S
C988 C989 1.366 . S
C989 C988 1.366 . S
C989 C990 1.414 . S
C989 C992 1.499 . S
C990 H970 0.950 . S
C990 C989 1.414 . S
C990 C991 1.374 . S
C991 H971 0.950 . S
C991 C987 1.385 . S
C991 C990 1.374 . S
C992 C989 1.499 . S
C992 C993 1.373 . S
C992 C994 1.389 . S
C993 H972 0.950 . S
C993 C992 1.373 . S
C993 C1009 1.377 1_545 S
C994 C992 1.389 . S
C994 C995 1.524 . S
C994 C1008 1.377 1_545 S
C995 C994 1.524 . S
C995 C996 1.397 . S
C995 C1000 1.363 . S
C996 H973 0.950 . S
C996 C995 1.397 . S
C996 C997 1.334 . S
C997 H974 0.973 . S
C997 C996 1.334 . S
C997 C998 1.287 . S
C998 C997 1.287 . S
C998 C999 1.524 . S
C998 H1017 0.913 . S
C999 H975 0.950 . S
C999 C998 1.524 . S
C999 C1000 1.415 . S
C1000 H976 0.950 . S
C1000 C995 1.363 . S
C1000 C999 1.415 . S
C1001 H977 0.951 . S
C1001 C1002 1.366 . S
C1001 C1003 1.388 . S
C1002 C1001 1.366 . S
C1002 C1006 1.385 . S
C1003 H978 0.951 . S
C1003 C1001 1.388 . S
C1003 C1004 1.366 . S
C1004 C1003 1.366 . S
C1004 C1005 1.414 . S
C1004 C1007 1.499 . S
C1005 H979 0.950 . S
C1005 C1004 1.414 . S
C1005 C1006 1.374 . S
C1006 H980 0.950 . S
C1006 C1002 1.385 . S
C1006 C1005 1.374 . S
C1007 C1004 1.499 . S
C1007 C1008 1.373 . S
C1007 C1009 1.389 . S
C1008 H981 0.950 . S
C1008 C994 1.377 1_565 S
C1008 C1007 1.373 . S
C1009 C993 1.377 1_565 S
C1009 C1007 1.389 . S
C1009 C1010 1.524 . S
C1010 C1009 1.524 . S
C1010 C1011 1.397 . S
C1010 C1015 1.363 . S
C1011 H982 0.950 . S
C1011 C1010 1.397 . S
C1011 C1012 1.334 . S
C1012 H983 0.950 . S
C1012 C1011 1.334 . S
C1012 C1013 1.287 . S
C1013 C1012 1.287 . S
C1013 C1014 1.524 . S
C1013 H1016 0.999 . S
C1014 H984 0.950 . S
C1014 C1013 1.524 . S
C1014 C1015 1.415 . S
C1015 H985 0.946 1_565 S
C1015 C1010 1.363 . S
C1015 C1014 1.415 . S
H1016 C1013 0.999 . S
H1017 C998 0.913 . S
H1018 C1036 0.951 . S
H1019 C1038 0.951 . S
H1020 C1040 0.950 . S
H1021 C1041 0.950 . S
H1022 C1043 0.950 . S
H1023 C1046 0.950 . S
H1024 C1047 0.950 . S
H1025 C1049 0.950 . S
H1026 C1050 0.950 . S
H1027 C1051 0.951 . S
H1028 C1053 0.951 . S
H1029 C1055 0.950 . S
H1030 C1056 0.950 . S
H1031 C1058 0.950 . S
H1032 C1061 0.950 . S
H1033 C1062 0.950 . S
H1034 C1064 0.950 . S
H1035 C1065 0.950 . S
C1036 H1018 0.951 . S
C1036 C1037 1.366 . S
C1036 C1038 1.388 . S
C1037 C1036 1.366 . S
C1037 C1041 1.385 . S
C1038 H1019 0.951 . S
C1038 C1036 1.388 . S
C1038 C1039 1.366 . S
C1039 C1038 1.366 . S
C1039 C1040 1.414 . S
C1039 C1042 1.499 . S
C1040 H1020 0.950 . S
C1040 C1039 1.414 . S
C1040 C1041 1.374 . S
C1041 H1021 0.950 . S
C1041 C1037 1.385 . S
C1041 C1040 1.374 . S
C1042 C1039 1.499 . S
C1042 C1043 1.373 . S
C1042 C1044 1.389 . S
C1043 H1022 0.950 . S
C1043 C1042 1.373 . S
C1043 C1059 1.377 . S
C1044 C1042 1.389 . S
C1044 C1045 1.524 . S
C1044 C1058 1.377 . S
C1045 C1044 1.524 . S
C1045 C1046 1.397 . S
C1045 C1050 1.363 . S
C1046 H1023 0.950 . S
C1046 C1045 1.397 . S
C1046 C1047 1.334 . S
C1047 H1024 0.950 . S
C1047 C1046 1.334 . S
C1047 C1048 1.287 . S
C1048 C1047 1.287 . S
C1048 C1049 1.524 . S
C1048 H1067 0.913 . S
C1049 H1025 0.950 . S
C1049 C1048 1.524 . S
C1049 C1050 1.415 . S
C1050 H1026 0.950 . S
C1050 C1045 1.363 . S
C1050 C1049 1.415 . S
C1051 H1027 0.951 . S
C1051 C1052 1.366 . S
C1051 C1053 1.388 . S
C1052 C1051 1.366 . S
C1052 C1056 1.385 . S
C1053 H1028 0.951 . S
C1053 C1051 1.388 . S
C1053 C1054 1.366 . S
C1054 C1053 1.366 . S
C1054 C1055 1.414 . S
C1054 C1057 1.499 . S
C1055 H1029 0.950 . S
C1055 C1054 1.414 . S
C1055 C1056 1.374 . S
C1056 H1030 0.950 . S
C1056 C1052 1.385 . S
C1056 C1055 1.374 . S
C1057 C1054 1.499 . S
C1057 C1058 1.373 . S
C1057 C1059 1.389 . S
C1058 H1031 0.950 . S
C1058 C1044 1.377 . S
C1058 C1057 1.373 . S
C1059 C1043 1.377 . S
C1059 C1057 1.389 . S
C1059 C1060 1.524 . S
C1060 C1059 1.524 . S
C1060 C1061 1.397 . S
C1060 C1065 1.363 . S
C1061 H1032 0.950 . S
C1061 C1060 1.397 . S
C1061 C1062 1.334 . S
C1062 H1033 0.950 . S
C1062 C1061 1.334 . S
C1062 C1063 1.287 . S
C1063 C1062 1.287 . S
C1063 C1064 1.524 . S
C1063 H1066 0.999 . S
C1064 H1034 0.950 . S
C1064 C1063 1.524 . S
C1064 C1065 1.415 . S
C1065 H1035 0.950 . S
C1065 C1060 1.363 . S
C1065 C1064 1.415 . S
H1066 C1063 0.999 . S
H1067 C1048 0.913 . S
H1068 C1086 0.951 . S
H1069 C1088 0.951 . S
H1070 C1090 0.950 . S
H1071 C1091 0.950 . S
H1072 C1093 0.950 . S
H1073 C1096 0.950 1_556 S
H1074 C1097 0.950 . S
H1075 C1099 0.950 1_545 S
H1076 C1100 0.950 . S
H1077 C1101 0.954 . S
H1078 C1103 0.951 . S
H1079 C1105 0.950 . S
H1080 C1106 0.950 . S
H1081 C1108 0.950 . S
H1082 C1111 0.950 . S
H1083 C1112 0.950 . S
H1084 C1114 0.950 . S
H1085 C1115 0.950 . S
C1086 H1068 0.951 . S
C1086 C1087 1.366 . S
C1086 C1088 1.388 . S
C1087 C1086 1.366 . S
C1087 C1091 1.385 1_554 S
C1088 H1069 0.951 . S
C1088 C1086 1.388 . S
C1088 C1089 1.366 1_554 S
C1089 C1088 1.366 1_556 S
C1089 C1090 1.414 . S
C1089 C1092 1.499 . S
C1090 H1070 0.950 . S
C1090 C1089 1.414 . S
C1090 C1091 1.374 . S
C1091 H1071 0.950 . S
C1091 C1087 1.385 1_556 S
C1091 C1090 1.374 . S
C1092 C1089 1.499 . S
C1092 C1093 1.373 . S
C1092 C1094 1.389 . S
C1093 H1072 0.950 . S
C1093 C1092 1.373 . S
C1093 C1109 1.377 . S
C1094 C1092 1.389 . S
C1094 C1095 1.524 . S
C1094 C1108 1.377 . S
C1095 C1094 1.524 . S
C1095 C1096 1.397 1_556 S
C1095 C1100 1.363 1_556 S
C1096 H1073 0.950 1_554 S
C1096 C1095 1.397 1_554 S
C1096 C1097 1.334 . S
C1097 H1074 0.950 . S
C1097 C1096 1.334 . S
C1097 C1098 1.287 . S
C1098 C1097 1.287 . S
C1098 C1099 1.524 . S
C1098 H1117 0.913 . S
C1099 H1075 0.950 1_565 S
C1099 C1098 1.524 . S
C1099 C1100 1.415 . S
C1100 H1076 0.950 . S
C1100 C1095 1.363 1_554 S
C1100 C1099 1.415 . S
C1101 H1077 0.954 . S
C1101 C1102 1.366 . S
C1101 C1103 1.388 1_545 S
C1102 C1101 1.366 . S
C1102 C1106 1.385 . S
C1103 H1078 0.951 . S
C1103 C1101 1.388 1_565 S
C1103 C1104 1.366 . S
C1104 C1103 1.366 . S
C1104 C1105 1.414 1_565 S
C1104 C1107 1.499 . S
C1105 H1079 0.950 . S
C1105 C1104 1.414 1_545 S
C1105 C1106 1.374 . S
C1106 H1080 0.950 . S
C1106 C1102 1.385 . S
C1106 C1105 1.374 . S
C1107 C1104 1.499 . S
C1107 C1108 1.373 . S
C1107 C1109 1.389 . S
C1108 H1081 0.950 . S
C1108 C1094 1.377 . S
C1108 C1107 1.373 . S
C1109 C1093 1.377 . S
C1109 C1107 1.389 . S
C1109 C1110 1.524 . S
C1110 C1109 1.524 . S
C1110 C1111 1.397 . S
C1110 C1115 1.363 . S
C1111 H1082 0.950 . S
C1111 C1110 1.397 . S
C1111 C1112 1.334 . S
C1112 H1083 0.950 . S
C1112 C1111 1.334 . S
C1112 C1113 1.287 . S
C1113 C1112 1.287 . S
C1113 C1114 1.524 . S
C1113 H1116 0.999 . S
C1114 H1084 0.950 . S
C1114 C1113 1.524 . S
C1114 C1115 1.415 . S
C1115 H1085 0.950 . S
C1115 C1110 1.363 . S
C1115 C1114 1.415 . S
H1116 C1113 0.999 . S
H1117 C1098 0.913 . S
H1118 C1136 0.951 . S
H1119 C1138 0.951 . S
H1120 C1140 0.950 . S
H1121 C1141 0.950 . S
H1122 C1143 0.950 . S
H1123 C1146 0.950 . S
H1124 C1147 0.950 . S
H1125 C1149 0.950 . S
H1126 C1150 0.950 . S
H1127 C1151 0.951 . S
H1128 C1153 0.951 . S
H1129 C1155 0.950 . S
H1130 C1156 0.950 . S
H1131 C1158 0.950 . S
H1132 C1161 0.950 . S
H1133 C1162 0.950 . S
H1134 C1164 0.950 . S
H1135 C1165 0.950 . S
C1136 H1118 0.951 . S
C1136 C1137 1.366 . S
C1136 C1138 1.388 . S
C1137 C1136 1.366 . S
C1137 C1141 1.385 . S
C1138 H1119 0.951 . S
C1138 C1136 1.388 . S
C1138 C1139 1.366 . S
C1139 C1138 1.366 . S
C1139 C1140 1.414 . S
C1139 C1142 1.499 . S
C1140 H1120 0.950 . S
C1140 C1139 1.414 . S
C1140 C1141 1.374 . S
C1141 H1121 0.950 . S
C1141 C1137 1.385 . S
C1141 C1140 1.374 . S
C1142 C1139 1.499 . S
C1142 C1143 1.373 . S
C1142 C1144 1.389 . S
C1143 H1122 0.950 . S
C1143 C1142 1.373 . S
C1143 C1159 1.377 . S
C1144 C1142 1.389 . S
C1144 C1145 1.524 . S
C1144 C1158 1.377 . S
C1145 C1144 1.524 . S
C1145 C1146 1.397 . S
C1145 C1150 1.363 . S
C1146 H1123 0.950 . S
C1146 C1145 1.397 . S
C1146 C1147 1.334 . S
C1147 H1124 0.950 . S
C1147 C1146 1.334 . S
C1147 C1148 1.287 . S
C1148 C1147 1.287 . S
C1148 C1149 1.524 . S
C1148 H1167 0.913 . S
C1149 H1125 0.950 . S
C1149 C1148 1.524 . S
C1149 C1150 1.415 . S
C1150 H1126 0.950 . S
C1150 C1145 1.363 . S
C1150 C1149 1.415 . S
C1151 H1127 0.951 . S
C1151 C1152 1.366 . S
C1151 C1153 1.388 . S
C1152 C1151 1.366 . S
C1152 C1156 1.385 . S
C1153 H1128 0.951 . S
C1153 C1151 1.388 . S
C1153 C1154 1.366 . S
C1154 C1153 1.366 . S
C1154 C1155 1.414 . S
C1154 C1157 1.499 . S
C1155 H1129 0.950 . S
C1155 C1154 1.414 . S
C1155 C1156 1.374 . S
C1156 H1130 0.950 . S
C1156 C1152 1.385 . S
C1156 C1155 1.374 . S
C1157 C1154 1.499 . S
C1157 C1158 1.373 . S
C1157 C1159 1.389 . S
C1158 H1131 0.950 . S
C1158 C1144 1.377 . S
C1158 C1157 1.373 . S
C1159 C1143 1.377 . S
C1159 C1157 1.389 . S
C1159 C1160 1.524 . S
C1160 C1159 1.524 . S
C1160 C1161 1.397 . S
C1160 C1165 1.363 . S
C1161 H1132 0.950 . S
C1161 C1160 1.397 . S
C1161 C1162 1.334 . S
C1162 H1133 0.950 . S
C1162 C1161 1.334 . S
C1162 C1163 1.287 . S
C1163 C1162 1.287 . S
C1163 C1164 1.524 . S
C1163 H1166 0.999 . S
C1164 H1134 0.950 . S
C1164 C1163 1.524 . S
C1164 C1165 1.415 . S
C1165 H1135 0.950 . S
C1165 C1160 1.363 . S
C1165 C1164 1.415 . S
H1166 C1163 0.999 . S
H1167 C1148 0.913 . S
H1168 C1186 0.951 . S
H1169 C1188 0.951 . S
H1170 C1190 0.950 . S
H1171 C1191 0.950 . S
H1172 C1193 0.950 . S
H1173 C1196 0.950 . S
H1174 C1197 0.950 . S
H1175 C1199 0.950 . S
H1176 C1200 0.950 . S
H1177 C1201 0.951 . S
H1178 C1203 0.951 . S
H1179 C1205 0.950 . S
H1180 C1206 0.950 . S
H1181 C1208 0.950 . S
H1182 C1211 0.950 . S
H1183 C1212 0.950 . S
H1184 C1214 0.950 . S
H1185 C1215 0.950 . S
C1186 H1168 0.951 . S
C1186 C1187 1.366 . S
C1186 C1188 1.388 . S
C1187 C1186 1.366 . S
C1187 C1191 1.385 . S
C1188 H1169 0.951 . S
C1188 C1186 1.388 . S
C1188 C1189 1.366 . S
C1189 C1188 1.366 . S
C1189 C1190 1.414 . S
C1189 C1192 1.499 . S
C1190 H1170 0.950 . S
C1190 C1189 1.414 . S
C1190 C1191 1.374 . S
C1191 H1171 0.950 . S
C1191 C1187 1.385 . S
C1191 C1190 1.374 . S
C1192 C1189 1.499 . S
C1192 C1193 1.373 . S
C1192 C1194 1.389 . S
C1193 H1172 0.950 . S
C1193 C1192 1.373 . S
C1193 C1209 1.377 . S
C1194 C1192 1.389 . S
C1194 C1195 1.524 . S
C1194 C1208 1.377 . S
C1195 C1194 1.524 . S
C1195 C1196 1.397 . S
C1195 C1200 1.363 . S
C1196 H1173 0.950 . S
C1196 C1195 1.397 . S
C1196 C1197 1.334 . S
C1197 H1174 0.950 . S
C1197 C1196 1.334 . S
C1197 C1198 1.287 . S
C1198 C1197 1.287 . S
C1198 C1199 1.524 . S
C1198 H1217 0.913 . S
C1199 H1175 0.950 . S
C1199 C1198 1.524 . S
C1199 C1200 1.415 . S
C1200 H1176 0.950 . S
C1200 C1195 1.363 . S
C1200 C1199 1.415 . S
C1201 H1177 0.951 . S
C1201 C1202 1.366 . S
C1201 C1203 1.388 . S
C1202 C1201 1.366 . S
C1202 C1206 1.385 . S
C1203 H1178 0.951 . S
C1203 C1201 1.388 . S
C1203 C1204 1.366 . S
C1204 C1203 1.366 . S
C1204 C1205 1.414 . S
C1204 C1207 1.499 . S
C1205 H1179 0.950 . S
C1205 C1204 1.414 . S
C1205 C1206 1.374 . S
C1206 H1180 0.950 . S
C1206 C1202 1.385 . S
C1206 C1205 1.374 . S
C1207 C1204 1.499 . S
C1207 C1208 1.373 . S
C1207 C1209 1.389 . S
C1208 H1181 0.950 . S
C1208 C1194 1.377 . S
C1208 C1207 1.373 . S
C1209 C1193 1.377 . S
C1209 C1207 1.389 . S
C1209 C1210 1.524 . S
C1210 C1209 1.524 . S
C1210 C1211 1.397 . S
C1210 C1215 1.363 . S
C1211 H1182 0.950 . S
C1211 C1210 1.397 . S
C1211 C1212 1.334 . S
C1212 H1183 0.950 . S
C1212 C1211 1.334 . S
C1212 C1213 1.287 . S
C1213 C1212 1.287 . S
C1213 C1214 1.524 . S
C1213 H1216 0.999 . S
C1214 H1184 0.950 . S
C1214 C1213 1.524 . S
C1214 C1215 1.415 . S
C1215 H1185 0.950 . S
C1215 C1210 1.363 . S
C1215 C1214 1.415 . S
H1216 C1213 0.999 . S
H1217 C1198 0.913 . S
H1218 C1236 0.951 . S
H1219 C1238 0.951 . S
H1220 C1240 0.950 . S
H1221 C1241 0.950 . S
H1222 C1243 0.950 . S
H1223 C1246 0.950 . S
H1224 C1247 0.950 . S
H1225 C1249 0.950 . S
H1226 C1250 0.950 . S
H1227 C1251 0.951 . S
H1228 C1253 0.951 . S
H1229 C1255 0.950 . S
H1230 C1256 0.950 . S
H1231 C1258 0.950 . S
H1232 C1261 0.950 . S
H1233 C1262 0.950 . S
H1234 C1264 0.950 . S
H1235 C1265 0.950 1_455 S
C1236 H1218 0.951 . S
C1236 C1237 1.366 . S
C1236 C1238 1.388 . S
C1237 C1236 1.366 . S
C1237 C1241 1.385 . S
C1238 H1219 0.951 . S
C1238 C1236 1.388 . S
C1238 C1239 1.366 . S
C1239 C1238 1.366 . S
C1239 C1240 1.414 . S
C1239 C1242 1.499 . S
C1240 H1220 0.950 . S
C1240 C1239 1.414 . S
C1240 C1241 1.374 . S
C1241 H1221 0.950 . S
C1241 C1237 1.385 . S
C1241 C1240 1.374 . S
C1242 C1239 1.499 . S
C1242 C1243 1.373 . S
C1242 C1244 1.389 . S
C1243 H1222 0.950 . S
C1243 C1242 1.373 . S
C1243 C1259 1.377 1_455 S
C1244 C1242 1.389 . S
C1244 C1245 1.524 . S
C1244 C1258 1.377 1_455 S
C1245 C1244 1.524 . S
C1245 C1246 1.397 . S
C1245 C1250 1.363 . S
C1246 H1223 0.950 . S
C1246 C1245 1.397 . S
C1246 C1247 1.334 . S
C1247 H1224 0.950 . S
C1247 C1246 1.334 . S
C1247 C1248 1.287 . S
C1248 C1247 1.287 . S
C1248 C1249 1.524 . S
C1248 H1267 0.913 . S
C1249 H1225 0.950 . S
C1249 C1248 1.524 . S
C1249 C1250 1.415 . S
C1250 H1226 0.950 . S
C1250 C1245 1.363 . S
C1250 C1249 1.415 . S
C1251 H1227 0.951 . S
C1251 C1252 1.366 . S
C1251 C1253 1.388 . S
C1252 C1251 1.366 . S
C1252 C1256 1.385 . S
C1253 H1228 0.951 . S
C1253 C1251 1.388 . S
C1253 C1254 1.366 . S
C1254 C1253 1.366 . S
C1254 C1255 1.414 . S
C1254 C1257 1.499 . S
C1255 H1229 0.950 . S
C1255 C1254 1.414 . S
C1255 C1256 1.374 . S
C1256 H1230 0.950 . S
C1256 C1252 1.385 . S
C1256 C1255 1.374 . S
C1257 C1254 1.499 . S
C1257 C1258 1.373 . S
C1257 C1259 1.389 . S
C1258 H1231 0.950 . S
C1258 C1244 1.377 1_655 S
C1258 C1257 1.373 . S
C1259 C1243 1.377 1_655 S
C1259 C1257 1.389 . S
C1259 C1260 1.524 . S
C1260 C1259 1.524 . S
C1260 C1261 1.397 . S
C1260 C1265 1.363 . S
C1261 H1232 0.950 . S
C1261 C1260 1.397 . S
C1261 C1262 1.334 . S
C1262 H1233 0.950 . S
C1262 C1261 1.334 . S
C1262 C1263 1.287 . S
C1263 C1262 1.287 . S
C1263 C1264 1.524 . S
C1263 H1266 0.999 . S
C1264 H1234 0.950 . S
C1264 C1263 1.524 . S
C1264 C1265 1.415 . S
C1265 H1235 0.950 1_655 S
C1265 C1260 1.363 . S
C1265 C1264 1.415 . S
H1266 C1263 0.999 . S
H1267 C1248 0.913 . S
H1268 C1286 0.951 . S
H1269 C1288 0.951 . S
H1270 C1290 0.950 . S
H1271 C1291 0.950 . S
H1272 C1293 0.950 . S
H1273 C1296 0.950 . S
H1274 C1297 0.950 . S
H1275 C1299 0.950 . S
H1276 C1300 0.950 . S
H1277 C1301 0.951 . S
H1278 C1303 0.951 . S
H1279 C1305 0.950 . S
H1280 C1306 0.950 . S
H1281 C1308 0.950 . S
H1282 C1311 0.950 . S
H1283 C1312 0.950 . S
H1284 C1314 0.950 . S
H1285 C1315 0.950 . S
C1286 H1268 0.951 . S
C1286 C1287 1.366 . S
C1286 C1288 1.388 . S
C1287 C1286 1.366 . S
C1287 C1291 1.385 . S
C1288 H1269 0.951 . S
C1288 C1286 1.388 . S
C1288 C1289 1.366 . S
C1289 C1288 1.366 . S
C1289 C1290 1.414 . S
C1289 C1292 1.499 . S
C1290 H1270 0.950 . S
C1290 C1289 1.414 . S
C1290 C1291 1.374 . S
C1291 H1271 0.950 . S
C1291 C1287 1.385 . S
C1291 C1290 1.374 . S
C1292 C1289 1.499 . S
C1292 C1293 1.373 . S
C1292 C1294 1.389 . S
C1293 H1272 0.950 . S
C1293 C1292 1.373 . S
C1293 C1309 1.377 . S
C1294 C1292 1.389 . S
C1294 C1295 1.524 . S
C1294 C1308 1.377 . S
C1295 C1294 1.524 . S
C1295 C1296 1.397 . S
C1295 C1300 1.363 . S
C1296 H1273 0.950 . S
C1296 C1295 1.397 . S
C1296 C1297 1.334 . S
C1297 H1274 0.950 . S
C1297 C1296 1.334 . S
C1297 C1298 1.287 . S
C1298 C1297 1.287 . S
C1298 C1299 1.524 . S
C1298 H1317 0.913 . S
C1299 H1275 0.950 . S
C1299 C1298 1.524 . S
C1299 C1300 1.415 . S
C1300 H1276 0.950 . S
C1300 C1295 1.363 . S
C1300 C1299 1.415 . S
C1301 H1277 0.951 . S
C1301 C1302 1.366 . S
C1301 C1303 1.388 . S
C1302 C1301 1.366 . S
C1302 C1306 1.385 . S
C1303 H1278 0.951 . S
C1303 C1301 1.388 . S
C1303 C1304 1.366 . S
C1304 C1303 1.366 . S
C1304 C1305 1.414 . S
C1304 C1307 1.499 . S
C1305 H1279 0.950 . S
C1305 C1304 1.414 . S
C1305 C1306 1.374 . S
C1306 H1280 0.950 . S
C1306 C1302 1.385 . S
C1306 C1305 1.374 . S
C1307 C1304 1.499 . S
C1307 C1308 1.373 . S
C1307 C1309 1.389 . S
C1308 H1281 0.950 . S
C1308 C1294 1.377 . S
C1308 C1307 1.373 . S
C1309 C1293 1.377 . S
C1309 C1307 1.389 . S
C1309 C1310 1.524 . S
C1310 C1309 1.524 . S
C1310 C1311 1.397 . S
C1310 C1315 1.363 . S
C1311 H1282 0.950 . S
C1311 C1310 1.397 . S
C1311 C1312 1.334 . S
C1312 H1283 0.950 . S
C1312 C1311 1.334 . S
C1312 C1313 1.287 . S
C1313 C1312 1.287 . S
C1313 C1314 1.524 . S
C1313 H1316 0.999 . S
C1314 H1284 0.950 . S
C1314 C1313 1.524 . S
C1314 C1315 1.415 . S
C1315 H1285 0.950 . S
C1315 C1310 1.363 . S
C1315 C1314 1.415 . S
H1316 C1313 0.999 . S
H1317 C1298 0.913 . S
H1318 C1336 0.951 . S
H1319 C1338 0.951 . S
H1320 C1340 0.950 . S
H1321 C1341 0.950 . S
H1322 C1343 0.950 . S
H1323 C1346 0.950 . S
H1324 C1347 0.950 . S
H1325 C1349 0.950 1_455 S
H1326 C1350 0.950 . S
H1327 C1351 0.951 . S
H1328 C1353 0.951 . S
H1329 C1355 0.950 . S
H1330 C1356 0.950 . S
H1331 C1358 0.950 . S
H1332 C1361 0.950 . S
H1333 C1362 0.950 . S
H1334 C1364 0.950 . S
H1335 C1365 0.950 . S
C1336 H1318 0.951 . S
C1336 C1337 1.366 . S
C1336 C1338 1.388 . S
C1337 C1336 1.366 . S
C1337 C1341 1.385 . S
C1338 H1319 0.951 . S
C1338 C1336 1.388 . S
C1338 C1339 1.366 . S
C1339 C1338 1.366 . S
C1339 C1340 1.414 . S
C1339 C1342 1.499 . S
C1340 H1320 0.950 . S
C1340 C1339 1.414 . S
C1340 C1341 1.374 . S
C1341 H1321 0.950 . S
C1341 C1337 1.385 . S
C1341 C1340 1.374 . S
C1342 C1339 1.499 . S
C1342 C1343 1.373 . S
C1342 C1344 1.389 . S
C1343 H1322 0.950 . S
C1343 C1342 1.373 . S
C1343 C1359 1.377 . S
C1344 C1342 1.389 . S
C1344 C1345 1.524 . S
C1344 C1358 1.377 . S
C1345 C1344 1.524 . S
C1345 C1346 1.397 . S
C1345 C1350 1.363 . S
C1346 H1323 0.950 . S
C1346 C1345 1.397 . S
C1346 C1347 1.334 . S
C1347 H1324 0.950 . S
C1347 C1346 1.334 . S
C1347 C1348 1.287 . S
C1348 C1347 1.287 . S
C1348 C1349 1.524 . S
C1348 H1367 0.913 . S
C1349 H1325 0.950 1_655 S
C1349 C1348 1.524 . S
C1349 C1350 1.415 . S
C1350 H1326 0.950 . S
C1350 C1345 1.363 . S
C1350 C1349 1.415 . S
C1351 H1327 0.951 . S
C1351 C1352 1.366 1_655 S
C1351 C1353 1.388 . S
C1352 C1351 1.366 1_455 S
C1352 C1356 1.385 . S
C1353 H1328 0.951 . S
C1353 C1351 1.388 . S
C1353 C1354 1.366 . S
C1354 C1353 1.366 . S
C1354 C1355 1.414 1_655 S
C1354 C1357 1.499 . S
C1355 H1329 0.950 . S
C1355 C1354 1.414 1_455 S
C1355 C1356 1.374 . S
C1356 H1330 0.950 . S
C1356 C1352 1.385 . S
C1356 C1355 1.374 . S
C1357 C1354 1.499 . S
C1357 C1358 1.373 . S
C1357 C1359 1.389 . S
C1358 H1331 0.950 . S
C1358 C1344 1.377 . S
C1358 C1357 1.373 . S
C1359 C1343 1.377 . S
C1359 C1357 1.389 . S
C1359 C1360 1.524 . S
C1360 C1359 1.524 . S
C1360 C1361 1.397 . S
C1360 C1365 1.363 . S
C1361 H1332 0.950 . S
C1361 C1360 1.397 . S
C1361 C1362 1.334 . S
C1362 H1333 0.950 . S
C1362 C1361 1.334 . S
C1362 C1363 1.287 . S
C1363 C1362 1.287 . S
C1363 C1364 1.524 . S
C1363 H1366 0.999 . S
C1364 H1334 0.950 . S
C1364 C1363 1.524 . S
C1364 C1365 1.415 . S
C1365 H1335 0.950 . S
C1365 C1360 1.363 . S
C1365 C1364 1.415 . S
H1366 C1363 0.999 . S
H1367 C1348 0.913 . S
H1368 C1386 0.951 . S
H1369 C1388 0.951 . S
H1370 C1390 0.950 . S
H1371 C1391 0.950 . S
H1372 C1393 0.950 . S
H1373 C1396 0.950 . S
H1374 C1397 0.950 . S
H1375 C1399 0.950 . S
H1376 C1400 0.950 . S
H1377 C1401 0.951 . S
H1378 C1403 0.951 . S
H1379 C1405 0.950 . S
H1380 C1406 0.950 . S
H1381 C1408 0.950 . S
H1382 C1411 0.950 . S
H1383 C1412 0.950 . S
H1384 C1414 0.950 . S
H1385 C1415 0.950 . S
C1386 H1368 0.951 . S
C1386 C1387 1.366 . S
C1386 C1388 1.388 . S
C1387 C1386 1.366 . S
C1387 C1391 1.385 . S
C1388 H1369 0.951 . S
C1388 C1386 1.388 . S
C1388 C1389 1.366 . S
C1389 C1388 1.366 . S
C1389 C1390 1.414 . S
C1389 C1392 1.499 . S
C1390 H1370 0.950 . S
C1390 C1389 1.414 . S
C1390 C1391 1.374 . S
C1391 H1371 0.950 . S
C1391 C1387 1.385 . S
C1391 C1390 1.374 . S
C1392 C1389 1.499 . S
C1392 C1393 1.373 . S
C1392 C1394 1.389 . S
C1393 H1372 0.950 . S
C1393 C1392 1.373 . S
C1393 C1409 1.377 . S
C1394 C1392 1.389 . S
C1394 C1395 1.524 . S
C1394 C1408 1.377 . S
C1395 C1394 1.524 . S
C1395 C1396 1.397 . S
C1395 C1400 1.363 . S
C1396 H1373 0.950 . S
C1396 C1395 1.397 . S
C1396 C1397 1.334 . S
C1397 H1374 0.950 . S
C1397 C1396 1.334 . S
C1397 C1398 1.287 . S
C1398 C1397 1.287 . S
C1398 C1399 1.524 . S
C1398 H1417 0.913 . S
C1399 H1375 0.950 . S
C1399 C1398 1.524 . S
C1399 C1400 1.415 . S
C1400 H1376 0.950 . S
C1400 C1395 1.363 . S
C1400 C1399 1.415 . S
C1401 H1377 0.951 . S
C1401 C1402 1.366 . S
C1401 C1403 1.388 . S
C1402 C1401 1.366 . S
C1402 C1406 1.385 . S
C1403 H1378 0.951 . S
C1403 C1401 1.388 . S
C1403 C1404 1.366 . S
C1404 C1403 1.366 . S
C1404 C1405 1.414 . S
C1404 C1407 1.499 . S
C1405 H1379 0.950 . S
C1405 C1404 1.414 . S
C1405 C1406 1.374 . S
C1406 H1380 0.950 . S
C1406 C1402 1.385 . S
C1406 C1405 1.374 . S
C1407 C1404 1.499 . S
C1407 C1408 1.373 . S
C1407 C1409 1.389 . S
C1408 H1381 0.950 . S
C1408 C1394 1.377 . S
C1408 C1407 1.373 . S
C1409 C1393 1.377 . S
C1409 C1407 1.389 . S
C1409 C1410 1.524 . S
C1410 C1409 1.524 . S
C1410 C1411 1.397 . S
C1410 C1415 1.363 . S
C1411 H1382 0.950 . S
C1411 C1410 1.397 . S
C1411 C1412 1.334 . S
C1412 H1383 0.950 . S
C1412 C1411 1.334 . S
C1412 C1413 1.287 . S
C1413 C1412 1.287 . S
C1413 C1414 1.524 . S
C1413 H1416 0.999 . S
C1414 H1384 0.950 . S
C1414 C1413 1.524 . S
C1414 C1415 1.415 . S
C1415 H1385 0.950 . S
C1415 C1410 1.363 . S
C1415 C1414 1.415 . S
H1416 C1413 0.999 . S
H1417 C1398 0.913 . S
H1418 C1436 0.951 . S
H1419 C1438 0.951 . S
H1420 C1440 0.950 . S
H1421 C1441 0.950 . S
H1422 C1443 0.950 . S
H1423 C1446 0.950 . S
H1424 C1447 0.950 . S
H1425 C1449 0.950 . S
H1426 C1450 0.950 . S
H1427 C1451 0.951 . S
H1428 C1453 0.951 . S
H1429 C1455 0.950 . S
H1430 C1456 0.950 . S
H1431 C1458 0.950 . S
H1432 C1461 0.950 . S
H1433 C1462 0.950 . S
H1434 C1464 0.950 . S
H1435 C1465 0.950 . S
C1436 H1418 0.951 . S
C1436 C1437 1.366 . S
C1436 C1438 1.388 . S
C1437 C1436 1.366 . S
C1437 C1441 1.385 . S
C1438 H1419 0.951 . S
C1438 C1436 1.388 . S
C1438 C1439 1.366 . S
C1439 C1438 1.366 . S
C1439 C1440 1.414 . S
C1439 C1442 1.499 . S
C1440 H1420 0.950 . S
C1440 C1439 1.414 . S
C1440 C1441 1.374 . S
C1441 H1421 0.950 . S
C1441 C1437 1.385 . S
C1441 C1440 1.374 . S
C1442 C1439 1.499 . S
C1442 C1443 1.373 . S
C1442 C1444 1.389 . S
C1443 H1422 0.950 . S
C1443 C1442 1.373 . S
C1443 C1459 1.377 . S
C1444 C1442 1.389 . S
C1444 C1445 1.524 . S
C1444 C1458 1.377 . S
C1445 C1444 1.524 . S
C1445 C1446 1.397 . S
C1445 C1450 1.363 . S
C1446 H1423 0.950 . S
C1446 C1445 1.397 . S
C1446 C1447 1.334 . S
C1447 H1424 0.950 . S
C1447 C1446 1.334 . S
C1447 C1448 1.287 . S
C1448 C1447 1.287 . S
C1448 C1449 1.524 . S
C1448 H1467 0.913 . S
C1449 H1425 0.950 . S
C1449 C1448 1.524 . S
C1449 C1450 1.415 . S
C1450 H1426 0.950 . S
C1450 C1445 1.363 . S
C1450 C1449 1.415 . S
C1451 H1427 0.951 . S
C1451 C1452 1.366 . S
C1451 C1453 1.388 . S
C1452 C1451 1.366 . S
C1452 C1456 1.385 . S
C1453 H1428 0.951 . S
C1453 C1451 1.388 . S
C1453 C1454 1.366 . S
C1454 C1453 1.366 . S
C1454 C1455 1.414 . S
C1454 C1457 1.499 . S
C1455 H1429 0.950 . S
C1455 C1454 1.414 . S
C1455 C1456 1.374 . S
C1456 H1430 0.950 . S
C1456 C1452 1.385 . S
C1456 C1455 1.374 . S
C1457 C1454 1.499 . S
C1457 C1458 1.373 . S
C1457 C1459 1.389 . S
C1458 H1431 0.950 . S
C1458 C1444 1.377 . S
C1458 C1457 1.373 . S
C1459 C1443 1.377 . S
C1459 C1457 1.389 . S
C1459 C1460 1.524 . S
C1460 C1459 1.524 . S
C1460 C1461 1.397 . S
C1460 C1465 1.363 . S
C1461 H1432 0.950 . S
C1461 C1460 1.397 . S
C1461 C1462 1.334 . S
C1462 H1433 0.950 . S
C1462 C1461 1.334 . S
C1462 C1463 1.287 . S
C1463 C1462 1.287 . S
C1463 C1464 1.524 . S
C1463 H1466 0.999 . S
C1464 H1434 0.950 . S
C1464 C1463 1.524 . S
C1464 C1465 1.415 . S
C1465 H1435 0.950 . S
C1465 C1460 1.363 . S
C1465 C1464 1.415 . S
H1466 C1463 0.999 . S
H1467 C1448 0.913 . S
H1468 C1486 0.951 . S
H1469 C1488 0.951 . S
H1470 C1490 0.950 . S
H1471 C1491 0.950 . S
H1472 C1493 0.950 . S
H1473 C1496 0.950 . S
H1474 C1497 0.950 . S
H1475 C1499 0.950 . S
H1476 C1500 0.950 . S
H1477 C1501 0.951 . S
H1478 C1503 0.951 . S
H1479 C1505 0.950 . S
H1480 C1506 0.950 . S
H1481 C1508 0.950 . S
H1482 C1511 0.950 . S
H1483 C1512 0.950 . S
H1484 C1514 0.950 . S
H1485 C1515 0.950 . S
C1486 H1468 0.951 . S
C1486 C1487 1.366 . S
C1486 C1488 1.388 . S
C1487 C1486 1.366 . S
C1487 C1491 1.385 . S
C1488 H1469 0.951 . S
C1488 C1486 1.388 . S
C1488 C1489 1.366 . S
C1489 C1488 1.366 . S
C1489 C1490 1.414 . S
C1489 C1492 1.499 . S
C1490 H1470 0.950 . S
C1490 C1489 1.414 . S
C1490 C1491 1.374 . S
C1491 H1471 0.950 . S
C1491 C1487 1.385 . S
C1491 C1490 1.374 . S
C1492 C1489 1.499 . S
C1492 C1493 1.373 . S
C1492 C1494 1.389 . S
C1493 H1472 0.950 . S
C1493 C1492 1.373 . S
C1493 C1509 1.377 . S
C1494 C1492 1.389 . S
C1494 C1495 1.524 . S
C1494 C1508 1.377 . S
C1495 C1494 1.524 . S
C1495 C1496 1.397 . S
C1495 C1500 1.363 . S
C1496 H1473 0.950 . S
C1496 C1495 1.397 . S
C1496 C1497 1.334 1_554 S
C1497 H1474 0.950 . S
C1497 C1496 1.334 1_556 S
C1497 C1498 1.287 . S
C1498 C1497 1.287 . S
C1498 C1499 1.524 . S
C1498 H1517 0.913 . S
C1499 H1475 0.950 . S
C1499 C1498 1.524 . S
C1499 C1500 1.415 1_556 S
C1500 H1476 0.950 . S
C1500 C1495 1.363 . S
C1500 C1499 1.415 1_554 S
C1501 H1477 0.951 . S
C1501 C1502 1.366 . S
C1501 C1503 1.388 . S
C1502 C1501 1.366 . S
C1502 C1506 1.385 . S
C1503 H1478 0.951 . S
C1503 C1501 1.388 . S
C1503 C1504 1.366 . S
C1504 C1503 1.366 . S
C1504 C1505 1.414 . S
C1504 C1507 1.499 . S
C1505 H1479 0.950 . S
C1505 C1504 1.414 . S
C1505 C1506 1.374 . S
C1506 H1480 0.950 . S
C1506 C1502 1.385 . S
C1506 C1505 1.374 . S
C1507 C1504 1.499 . S
C1507 C1508 1.373 . S
C1507 C1509 1.389 . S
C1508 H1481 0.950 . S
C1508 C1494 1.377 . S
C1508 C1507 1.373 . S
C1509 C1493 1.377 . S
C1509 C1507 1.389 . S
C1509 C1510 1.524 . S
C1510 C1509 1.524 . S
C1510 C1511 1.397 . S
C1510 C1515 1.363 . S
C1511 H1482 0.950 . S
C1511 C1510 1.397 . S
C1511 C1512 1.334 . S
C1512 H1483 0.950 . S
C1512 C1511 1.334 . S
C1512 C1513 1.287 . S
C1513 C1512 1.287 . S
C1513 C1514 1.524 . S
C1513 H1516 0.999 . S
C1514 H1484 0.950 . S
C1514 C1513 1.524 . S
C1514 C1515 1.415 . S
C1515 H1485 0.950 . S
C1515 C1510 1.363 . S
C1515 C1514 1.415 . S
H1516 C1513 0.999 . S
H1517 C1498 0.913 . S
H1518 C1536 0.951 . S
H1519 C1538 0.951 . S
H1520 C1540 0.950 . S
H1521 C1541 0.950 . S
H1522 C1543 0.950 . S
H1523 C1546 0.950 . S
H1524 C1547 0.950 . S
H1525 C1549 0.950 . S
H1526 C1550 0.950 . S
H1527 C1551 0.951 . S
H1528 C1553 0.951 . S
H1529 C1555 0.950 . S
H1530 C1556 0.950 . S
H1531 C1558 0.950 . S
H1532 C1561 0.950 . S
H1533 C1562 0.950 . S
H1534 C1564 0.950 . S
H1535 C1565 0.950 . S
C1536 H1518 0.951 . S
C1536 C1537 1.366 . S
C1536 C1538 1.388 . S
C1537 C1536 1.366 . S
C1537 C1541 1.385 . S
C1538 H1519 0.951 . S
C1538 C1536 1.388 . S
C1538 C1539 1.366 . S
C1539 C1538 1.366 . S
C1539 C1540 1.414 . S
C1539 C1542 1.499 . S
C1540 H1520 0.950 . S
C1540 C1539 1.414 . S
C1540 C1541 1.374 . S
C1541 H1521 0.950 . S
C1541 C1537 1.385 . S
C1541 C1540 1.374 . S
C1542 C1539 1.499 . S
C1542 C1543 1.373 . S
C1542 C1544 1.389 . S
C1543 H1522 0.950 . S
C1543 C1542 1.373 . S
C1543 C1559 1.377 . S
C1544 C1542 1.389 . S
C1544 C1545 1.524 . S
C1544 C1558 1.377 . S
C1545 C1544 1.524 . S
C1545 C1546 1.397 . S
C1545 C1550 1.363 . S
C1546 H1523 0.950 . S
C1546 C1545 1.397 . S
C1546 C1547 1.334 . S
C1547 H1524 0.950 . S
C1547 C1546 1.334 . S
C1547 C1548 1.287 . S
C1548 C1547 1.287 . S
C1548 C1549 1.524 . S
C1548 H1567 0.913 . S
C1549 H1525 0.950 . S
C1549 C1548 1.524 . S
C1549 C1550 1.415 . S
C1550 H1526 0.950 . S
C1550 C1545 1.363 . S
C1550 C1549 1.415 . S
C1551 H1527 0.951 . S
C1551 C1552 1.366 . S
C1551 C1553 1.388 . S
C1552 C1551 1.366 . S
C1552 C1556 1.385 . S
C1553 H1528 0.951 . S
C1553 C1551 1.388 . S
C1553 C1554 1.366 . S
C1554 C1553 1.366 . S
C1554 C1555 1.414 . S
C1554 C1557 1.499 . S
C1555 H1529 0.950 . S
C1555 C1554 1.414 . S
C1555 C1556 1.374 . S
C1556 H1530 0.950 . S
C1556 C1552 1.385 . S
C1556 C1555 1.374 . S
C1557 C1554 1.499 . S
C1557 C1558 1.373 . S
C1557 C1559 1.389 . S
C1558 H1531 0.950 . S
C1558 C1544 1.377 . S
C1558 C1557 1.373 . S
C1559 C1543 1.377 . S
C1559 C1557 1.389 . S
C1559 C1560 1.524 . S
C1560 C1559 1.524 . S
C1560 C1561 1.397 . S
C1560 C1565 1.363 . S
C1561 H1532 0.950 . S
C1561 C1560 1.397 . S
C1561 C1562 1.334 . S
C1562 H1533 0.950 . S
C1562 C1561 1.334 . S
C1562 C1563 1.287 . S
C1563 C1562 1.287 . S
C1563 C1564 1.524 . S
C1563 H1566 0.999 . S
C1564 H1534 0.950 . S
C1564 C1563 1.524 . S
C1564 C1565 1.415 . S
C1565 H1535 0.950 . S
C1565 C1560 1.363 . S
C1565 C1564 1.415 . S
H1566 C1563 0.999 . S
H1567 C1548 0.913 . S
H1568 C1586 0.951 . S
H1569 C1588 0.951 . S
H1570 C1590 0.950 . S
H1571 C1591 0.950 . S
H1572 C1593 0.950 . S
H1573 C1596 0.950 . S
H1574 C1597 0.950 . S
H1575 C1599 0.950 . S
H1576 C1600 0.950 . S
H1577 C1601 0.951 . S
H1578 C1603 0.951 . S
H1579 C1605 0.950 . S
H1580 C1606 0.950 . S
H1581 C1608 0.950 . S
H1582 C1611 0.950 . S
H1583 C1612 0.950 . S
H1584 C1614 0.950 . S
H1585 C1615 0.950 . S
C1586 H1568 0.951 . S
C1586 C1587 1.366 . S
C1586 C1588 1.388 . S
C1587 C1586 1.366 . S
C1587 C1591 1.385 . S
C1588 H1569 0.951 . S
C1588 C1586 1.388 . S
C1588 C1589 1.366 . S
C1589 C1588 1.366 . S
C1589 C1590 1.414 . S
C1589 C1592 1.499 . S
C1590 H1570 0.950 . S
C1590 C1589 1.414 . S
C1590 C1591 1.374 . S
C1591 H1571 0.950 . S
C1591 C1587 1.385 . S
C1591 C1590 1.374 . S
C1592 C1589 1.499 . S
C1592 C1593 1.373 . S
C1592 C1594 1.389 . S
C1593 H1572 0.950 . S
C1593 C1592 1.373 . S
C1593 C1609 1.377 . S
C1594 C1592 1.389 . S
C1594 C1595 1.524 . S
C1594 C1608 1.377 . S
C1595 C1594 1.524 . S
C1595 C1596 1.397 . S
C1595 C1600 1.363 . S
C1596 H1573 0.950 . S
C1596 C1595 1.397 . S
C1596 C1597 1.334 . S
C1597 H1574 0.950 . S
C1597 C1596 1.334 . S
C1597 C1598 1.287 . S
C1598 C1597 1.287 . S
C1598 C1599 1.524 . S
C1598 H1617 0.913 . S
C1599 H1575 0.950 . S
C1599 C1598 1.524 . S
C1599 C1600 1.415 . S
C1600 H1576 0.950 . S
C1600 C1595 1.363 . S
C1600 C1599 1.415 . S
C1601 H1577 0.951 . S
C1601 C1602 1.366 . S
C1601 C1603 1.388 . S
C1602 C1601 1.366 . S
C1602 C1606 1.385 . S
C1603 H1578 0.951 . S
C1603 C1601 1.388 . S
C1603 C1604 1.366 . S
C1604 C1603 1.366 . S
C1604 C1605 1.414 . S
C1604 C1607 1.499 . S
C1605 H1579 0.950 . S
C1605 C1604 1.414 . S
C1605 C1606 1.374 . S
C1606 H1580 0.950 . S
C1606 C1602 1.385 . S
C1606 C1605 1.374 . S
C1607 C1604 1.499 . S
C1607 C1608 1.373 . S
C1607 C1609 1.389 . S
C1608 H1581 0.950 . S
C1608 C1594 1.377 . S
C1608 C1607 1.373 . S
C1609 C1593 1.377 . S
C1609 C1607 1.389 . S
C1609 C1610 1.524 . S
C1610 C1609 1.524 . S
C1610 C1611 1.397 . S
C1610 C1615 1.363 . S
C1611 H1582 0.950 . S
C1611 C1610 1.397 . S
C1611 C1612 1.334 . S
C1612 H1583 0.950 . S
C1612 C1611 1.334 . S
C1612 C1613 1.287 . S
C1613 C1612 1.287 . S
C1613 C1614 1.524 . S
C1613 H1616 0.999 . S
C1614 H1584 0.950 . S
C1614 C1613 1.524 . S
C1614 C1615 1.415 . S
C1615 H1585 0.950 . S
C1615 C1610 1.363 . S
C1615 C1614 1.415 . S
H1616 C1613 0.999 . S
H1617 C1598 0.913 . S
H1618 C1636 0.951 . S
H1619 C1638 0.951 . S
H1620 C1640 0.950 . S
H1621 C1641 0.950 . S
H1622 C1643 0.950 . S
H1623 C1646 0.950 . S
H1624 C1647 0.950 . S
H1625 C1649 0.950 . S
H1626 C1650 0.950 . S
H1627 C1651 0.951 . S
H1628 C1653 0.951 . S
H1629 C1655 0.950 . S
H1630 C1656 0.950 . S
H1631 C1658 0.950 . S
H1632 C1661 0.950 . S
H1633 C1662 0.950 . S
H1634 C1664 0.950 . S
H1635 C1665 0.950 . S
C1636 H1618 0.951 . S
C1636 C1637 1.366 . S
C1636 C1638 1.388 . S
C1637 C1636 1.366 . S
C1637 C1641 1.385 . S
C1638 H1619 0.951 . S
C1638 C1636 1.388 . S
C1638 C1639 1.366 . S
C1639 C1638 1.366 . S
C1639 C1640 1.414 . S
C1639 C1642 1.499 . S
C1640 H1620 0.950 . S
C1640 C1639 1.414 . S
C1640 C1641 1.374 . S
C1641 H1621 0.950 . S
C1641 C1637 1.385 . S
C1641 C1640 1.374 . S
C1642 C1639 1.499 . S
C1642 C1643 1.373 . S
C1642 C1644 1.389 . S
C1643 H1622 0.950 . S
C1643 C1642 1.373 . S
C1643 C1659 1.377 . S
C1644 C1642 1.389 . S
C1644 C1645 1.524 . S
C1644 C1658 1.377 . S
C1645 C1644 1.524 . S
C1645 C1646 1.397 . S
C1645 C1650 1.363 . S
C1646 H1623 0.950 . S
C1646 C1645 1.397 . S
C1646 C1647 1.334 . S
C1647 H1624 0.950 . S
C1647 C1646 1.334 . S
C1647 C1648 1.287 . S
C1648 C1647 1.287 . S
C1648 C1649 1.524 . S
C1648 H1667 0.913 . S
C1649 H1625 0.950 . S
C1649 C1648 1.524 . S
C1649 C1650 1.415 . S
C1650 H1626 0.950 . S
C1650 C1645 1.363 . S
C1650 C1649 1.415 . S
C1651 H1627 0.951 . S
C1651 C1652 1.366 . S
C1651 C1653 1.388 . S
C1652 C1651 1.366 . S
C1652 C1656 1.385 . S
C1653 H1628 0.951 . S
C1653 C1651 1.388 . S
C1653 C1654 1.366 . S
C1654 C1653 1.366 . S
C1654 C1655 1.414 . S
C1654 C1657 1.499 . S
C1655 H1629 0.950 . S
C1655 C1654 1.414 . S
C1655 C1656 1.374 . S
C1656 H1630 0.950 . S
C1656 C1652 1.385 . S
C1656 C1655 1.374 . S
C1657 C1654 1.499 . S
C1657 C1658 1.373 . S
C1657 C1659 1.389 . S
C1658 H1631 0.950 . S
C1658 C1644 1.377 . S
C1658 C1657 1.373 . S
C1659 C1643 1.377 . S
C1659 C1657 1.389 . S
C1659 C1660 1.524 . S
C1660 C1659 1.524 . S
C1660 C1661 1.397 . S
C1660 C1665 1.363 . S
C1661 H1632 0.950 . S
C1661 C1660 1.397 . S
C1661 C1662 1.334 . S
C1662 H1633 0.950 . S
C1662 C1661 1.334 . S
C1662 C1663 1.287 . S
C1663 C1662 1.287 . S
C1663 C1664 1.524 . S
C1663 H1666 0.999 . S
C1664 H1634 0.950 . S
C1664 C1663 1.524 . S
C1664 C1665 1.415 . S
C1665 H1635 0.950 . S
C1665 C1660 1.363 . S
C1665 C1664 1.415 . S
H1666 C1663 0.999 . S
H1667 C1648 0.913 . S
H1668 C1686 0.951 . S
H1669 C1688 0.951 . S
H1670 C1690 0.950 . S
H1671 C1691 0.950 . S
H1672 C1693 0.950 . S
H1673 C1696 0.950 . S
H1674 C1697 0.950 . S
H1675 C1699 0.950 . S
H1676 C1700 0.950 . S
H1677 C1701 0.951 . S
H1678 C1703 0.951 . S
H1679 C1705 0.950 . S
H1680 C1706 0.950 . S
H1681 C1708 0.950 . S
H1682 C1711 0.950 . S
H1683 C1712 0.950 . S
H1684 C1714 0.950 . S
H1685 C1715 0.950 . S
C1686 H1668 0.951 . S
C1686 C1687 1.366 . S
C1686 C1688 1.388 . S
C1687 C1686 1.366 . S
C1687 C1691 1.385 . S
C1688 H1669 0.951 . S
C1688 C1686 1.388 . S
C1688 C1689 1.366 . S
C1689 C1688 1.366 . S
C1689 C1690 1.414 . S
C1689 C1692 1.499 . S
C1690 H1670 0.950 . S
C1690 C1689 1.414 . S
C1690 C1691 1.374 . S
C1691 H1671 0.950 . S
C1691 C1687 1.385 . S
C1691 C1690 1.374 . S
C1692 C1689 1.499 . S
C1692 C1693 1.373 . S
C1692 C1694 1.389 . S
C1693 H1672 0.950 . S
C1693 C1692 1.373 . S
C1693 C1709 1.377 . S
C1694 C1692 1.389 . S
C1694 C1695 1.524 . S
C1694 C1708 1.377 . S
C1695 C1694 1.524 . S
C1695 C1696 1.397 . S
C1695 C1700 1.363 . S
C1696 H1673 0.950 . S
C1696 C1695 1.397 . S
C1696 C1697 1.334 . S
C1697 H1674 0.950 . S
C1697 C1696 1.334 . S
C1697 C1698 1.287 . S
C1698 C1697 1.287 . S
C1698 C1699 1.524 . S
C1698 H1717 0.913 . S
C1699 H1675 0.950 . S
C1699 C1698 1.524 . S
C1699 C1700 1.415 . S
C1700 H1676 0.950 . S
C1700 C1695 1.363 . S
C1700 C1699 1.415 . S
C1701 H1677 0.951 . S
C1701 C1702 1.366 . S
C1701 C1703 1.388 . S
C1702 C1701 1.366 . S
C1702 C1706 1.385 . S
C1703 H1678 0.951 . S
C1703 C1701 1.388 . S
C1703 C1704 1.366 . S
C1704 C1703 1.366 . S
C1704 C1705 1.414 . S
C1704 C1707 1.499 . S
C1705 H1679 0.950 . S
C1705 C1704 1.414 . S
C1705 C1706 1.374 . S
C1706 H1680 0.950 . S
C1706 C1702 1.385 . S
C1706 C1705 1.374 . S
C1707 C1704 1.499 . S
C1707 C1708 1.373 . S
C1707 C1709 1.389 . S
C1708 H1681 0.950 . S
C1708 C1694 1.377 . S
C1708 C1707 1.373 . S
C1709 C1693 1.377 . S
C1709 C1707 1.389 . S
C1709 C1710 1.524 . S
C1710 C1709 1.524 . S
C1710 C1711 1.397 . S
C1710 C1715 1.363 . S
C1711 H1682 0.950 . S
C1711 C1710 1.397 . S
C1711 C1712 1.334 . S
C1712 H1683 0.950 . S
C1712 C1711 1.334 . S
C1712 C1713 1.287 . S
C1713 C1712 1.287 . S
C1713 C1714 1.524 . S
C1713 H1716 0.999 . S
C1714 H1684 0.950 . S
C1714 C1713 1.524 . S
C1714 C1715 1.415 . S
C1715 H1685 0.950 . S
C1715 C1710 1.363 . S
C1715 C1714 1.415 . S
H1716 C1713 0.999 . S
H1717 C1698 0.913 . S
H1718 C1736 0.951 . S
H1719 C1738 0.951 . S
H1720 C1740 0.950 . S
H1721 C1741 0.950 . S
H1722 C1743 0.950 . S
H1723 C1746 0.950 . S
H1724 C1747 0.950 . S
H1725 C1749 0.950 . S
H1726 C1750 0.950 1_556 S
H1727 C1751 0.951 . S
H1728 C1753 0.951 . S
H1729 C1755 0.950 . S
H1730 C1756 0.950 . S
H1731 C1758 0.950 . S
H1732 C1761 0.950 . S
H1733 C1762 0.950 . S
H1734 C1764 0.950 . S
H1735 C1765 0.950 1_554 S
C1736 H1718 0.951 . S
C1736 C1737 1.366 . S
C1736 C1738 1.388 . S
C1737 C1736 1.366 . S
C1737 C1741 1.385 . S
C1738 H1719 0.951 . S
C1738 C1736 1.388 . S
C1738 C1739 1.366 . S
C1739 C1738 1.366 . S
C1739 C1740 1.414 . S
C1739 C1742 1.499 . S
C1740 H1720 0.950 . S
C1740 C1739 1.414 . S
C1740 C1741 1.374 . S
C1741 H1721 0.950 . S
C1741 C1737 1.385 . S
C1741 C1740 1.374 . S
C1742 C1739 1.499 . S
C1742 C1743 1.373 . S
C1742 C1744 1.389 . S
C1743 H1722 0.950 . S
C1743 C1742 1.373 . S
C1743 C1759 1.377 1_554 S
C1744 C1742 1.389 . S
C1744 C1745 1.524 . S
C1744 C1758 1.377 1_554 S
C1745 C1744 1.524 . S
C1745 C1746 1.397 . S
C1745 C1750 1.363 . S
C1746 H1723 0.950 . S
C1746 C1745 1.397 . S
C1746 C1747 1.334 . S
C1747 H1724 0.950 . S
C1747 C1746 1.334 . S
C1747 C1748 1.287 . S
C1748 C1747 1.287 . S
C1748 C1749 1.524 . S
C1748 H1767 0.913 . S
C1749 H1725 0.950 . S
C1749 C1748 1.524 . S
C1749 C1750 1.415 . S
C1750 H1726 0.950 1_554 S
C1750 C1745 1.363 . S
C1750 C1749 1.415 . S
C1751 H1727 0.951 . S
C1751 C1752 1.366 . S
C1751 C1753 1.388 . S
C1752 C1751 1.366 . S
C1752 C1756 1.385 . S
C1753 H1728 0.951 . S
C1753 C1751 1.388 . S
C1753 C1754 1.366 . S
C1754 C1753 1.366 . S
C1754 C1755 1.414 . S
C1754 C1757 1.499 . S
C1755 H1729 0.950 . S
C1755 C1754 1.414 . S
C1755 C1756 1.374 . S
C1756 H1730 0.950 . S
C1756 C1752 1.385 . S
C1756 C1755 1.374 . S
C1757 C1754 1.499 . S
C1757 C1758 1.373 . S
C1757 C1759 1.389 . S
C1758 H1731 0.950 . S
C1758 C1744 1.377 1_556 S
C1758 C1757 1.373 . S
C1759 C1743 1.377 1_556 S
C1759 C1757 1.389 . S
C1759 C1760 1.524 . S
C1760 C1759 1.524 . S
C1760 C1761 1.397 . S
C1760 C1765 1.363 . S
C1761 H1732 0.950 . S
C1761 C1760 1.397 . S
C1761 C1762 1.334 . S
C1762 H1733 0.950 . S
C1762 C1761 1.334 . S
C1762 C1763 1.287 . S
C1763 C1762 1.287 . S
C1763 C1764 1.524 . S
C1763 H1766 0.999 . S
C1764 H1734 0.950 . S
C1764 C1763 1.524 . S
C1764 C1765 1.415 . S
C1765 H1735 0.950 1_556 S
C1765 C1760 1.363 . S
C1765 C1764 1.415 . S
H1766 C1763 0.999 . S
H1767 C1748 0.913 . S
C587 C7 1.244 . S
C602 C89 1.194 . S
C637 C37 1.457 . S
C652 C168 1.393 . S
C687 C54 1.212 . S
C702 C239 1.190 . S
C752 C299 1.620 . S
C737 C87 1.606 . S
C802 C329 1.309 . S
C787 C30 1.409 . S
C837 C51 1.273 . S
C852 C419 1.282 . S
C887 C84 1.597 . S
C902 C479 1.590 . S
C937 C10 1.244 . S
C952 C528 1.222 . S
C987 C59 1.290 . S
C1002 C509 1.239 . S
C1052 C348 1.413 . S
C1037 C74 1.420 . S
C1102 C408 1.108 . S
C1087 C18 1.254 . S
C1137 C32 1.611 . S
C1152 C468 1.505 . S
C1202 C149 1.311 . S
C1187 C73 1.469 . S
C1237 C15 1.261 . S
C1252 C228 1.209 . S
C1302 C288 1.532 . S
C1287 C43 1.620 . S
C1352 C108 1.203 . S
C1337 C62 1.221 . S
C1402 C449 1.580 . S
C1387 C21 1.617 . S
C1452 C539 0.979 . S
C1437 C29 1.017 . S
C1487 C52 1.248 . S
C1502 C359 1.230 . S
C1552 C389 1.008 . S
C1537 C81 1.009 . S
C1602 C209 0.942 . S
C1587 C40 0.975 . S
C1637 C65 1.592 . S
C1652 C269 1.557 . S
C1702 C119 0.936 . S
C1687 C76 0.967 . S
C1752 C179 1.232 . S
C1737 C8 1.301 . S
