# Generated by pormake.
# Topology pyr, (3,6)-cn, num edge types: 1
# Building blocks:
#     Node 0, Type 0, BuildingBlock: ESEHIV_clean_linker_0, # of connection points: 3
#     Node 1, Type 0, BuildingBlock: ESEHIV_clean_linker_0, # of connection points: 3
#     Node 2, Type 0, BuildingBlock: ESEHIV_clean_linker_0, # of connection points: 3
#     Node 3, Type 0, BuildingBlock: ESEHIV_clean_linker_0, # of connection points: 3
#     Node 4, Type 0, BuildingBlock: ESEHIV_clean_linker_0, # of connection points: 3
#     Node 5, Type 0, BuildingBlock: ESEHIV_clean_linker_0, # of connection points: 3
#     Node 6, Type 0, BuildingBlock: ESEHIV_clean_linker_0, # of connection points: 3
#     Node 7, Type 0, BuildingBlock: ESEHIV_clean_linker_0, # of connection points: 3
#     Node 8, Type 1, BuildingBlock: INOVEN_clean_sbu_0, # of connection points: 6
#     Node 9, Type 1, BuildingBlock: INOVEN_clean_sbu_0, # of connection points: 6
#     Node 10, Type 1, BuildingBlock: INOVEN_clean_sbu_0, # of connection points: 6
#     Node 11, Type 1, BuildingBlock: INOVEN_clean_sbu_0, # of connection points: 6
#     Edge 12, Type (0, 1), BuildingBlock: EZIPEK_clean_linker_0, # of connection points: 2
#     Edge 13, Type (0, 1), BuildingBlock: EZIPEK_clean_linker_0, # of connection points: 2
#     Edge 14, Type (0, 1), BuildingBlock: EZIPEK_clean_linker_0, # of connection points: 2
#     Edge 15, Type (0, 1), BuildingBlock: EZIPEK_clean_linker_0, # of connection points: 2
#     Edge 16, Type (0, 1), BuildingBlock: EZIPEK_clean_linker_0, # of connection points: 2
#     Edge 17, Type (0, 1), BuildingBlock: EZIPEK_clean_linker_0, # of connection points: 2
#     Edge 18, Type (0, 1), BuildingBlock: EZIPEK_clean_linker_0, # of connection points: 2
#     Edge 19, Type (0, 1), BuildingBlock: EZIPEK_clean_linker_0, # of connection points: 2
#     Edge 20, Type (0, 1), BuildingBlock: EZIPEK_clean_linker_0, # of connection points: 2
#     Edge 21, Type (0, 1), BuildingBlock: EZIPEK_clean_linker_0, # of connection points: 2
#     Edge 22, Type (0, 1), BuildingBlock: EZIPEK_clean_linker_0, # of connection points: 2
#     Edge 23, Type (0, 1), BuildingBlock: EZIPEK_clean_linker_0, # of connection points: 2
#     Edge 24, Type (0, 1), BuildingBlock: EZIPEK_clean_linker_0, # of connection points: 2
#     Edge 25, Type (0, 1), BuildingBlock: EZIPEK_clean_linker_0, # of connection points: 2
#     Edge 26, Type (0, 1), BuildingBlock: EZIPEK_clean_linker_0, # of connection points: 2
#     Edge 27, Type (0, 1), BuildingBlock: EZIPEK_clean_linker_0, # of connection points: 2
#     Edge 28, Type (0, 1), BuildingBlock: EZIPEK_clean_linker_0, # of connection points: 2
#     Edge 29, Type (0, 1), BuildingBlock: EZIPEK_clean_linker_0, # of connection points: 2
#     Edge 30, Type (0, 1), BuildingBlock: EZIPEK_clean_linker_0, # of connection points: 2
#     Edge 31, Type (0, 1), BuildingBlock: EZIPEK_clean_linker_0, # of connection points: 2
#     Edge 32, Type (0, 1), BuildingBlock: EZIPEK_clean_linker_0, # of connection points: 2
#     Edge 33, Type (0, 1), BuildingBlock: EZIPEK_clean_linker_0, # of connection points: 2
#     Edge 34, Type (0, 1), BuildingBlock: EZIPEK_clean_linker_0, # of connection points: 2
#     Edge 35, Type (0, 1), BuildingBlock: EZIPEK_clean_linker_0, # of connection points: 2
# Relax obj value: 0.216
# Max RMSD: 0.166
# Mean RMSD: 0.077
data_MOF--net-pyr--node1-INOVEN_clean_sbu_0--node2-ESEHIV_clean_linker_0--edge1-EZIPEK_clean_linker_0
_symmetry_space_group_name_H-M    P1
_symmetry_Int_Tables_number       1
_symmetry_cell_setting            triclinic
loop_
_symmetry_equiv_pos_as_xyz
'x, y, z'
_cell_length_a     25.846634
_cell_length_b     27.937861
_cell_length_c     25.983445
_cell_angle_alpha  91.543784
_cell_angle_beta   88.94842
_cell_angle_gamma 102.48001
loop_
_atom_site_label
_atom_site_type_symbol
_atom_site_fract_x
_atom_site_fract_y
_atom_site_fract_z
_atom_type_partial_charge
H0 H 0.33192 0.36313 0.25668 0.0
H1 H 0.41393 0.24718 0.27005 0.0
H2 H 0.44812 0.343 0.14145 0.0
C3 C 0.3643 0.34651 0.2437 0.0
C4 C 0.38875 0.35884 0.19575 0.0
C5 C 0.37293 0.30614 0.26997 0.0
C6 C 0.4107 0.28083 0.25166 0.0
C7 C 0.43734 0.29338 0.20495 0.0
C8 C 0.42835 0.33418 0.17811 0.0
H9 H 0.25489 0.93798 0.70311 0.0
H10 H 0.29103 0.79957 0.66257 0.0
H11 H 0.21166 0.87229 0.55374 0.0
C12 C 0.25426 0.90838 0.67506 0.0
C13 C 0.23194 0.91027 0.62668 0.0
C14 C 0.27389 0.86775 0.68818 0.0
C15 C 0.27388 0.8301 0.6522 0.0
C16 C 0.25186 0.8315 0.60329 0.0
C17 C 0.2299 0.87136 0.59081 0.0
H18 H 0.71177 0.34514 0.94815 0.0
H19 H 0.71929 0.46293 0.84206 0.0
H20 H 0.59225 0.33316 0.83123 0.0
C21 C 0.6956 0.3602 0.91562 0.0
C22 C 0.64874 0.33195 0.89271 0.0
C23 C 0.722 0.40745 0.8986 0.0
C24 C 0.69982 0.42702 0.8553 0.0
C25 C 0.65282 0.40138 0.82905 0.0
C26 C 0.62804 0.3535 0.84919 0.0
H27 H 0.82434 0.74426 0.44899 0.0
H28 H 0.94835 0.75193 0.33373 0.0
H29 H 0.82344 0.62102 0.34506 0.0
C30 C 0.84229 0.7276 0.41716 0.0
C31 C 0.8177 0.67899 0.40119 0.0
C32 C 0.89012 0.75491 0.39518 0.0
C33 C 0.91217 0.73209 0.35161 0.0
C34 C 0.88808 0.68371 0.33101 0.0
C35 C 0.84138 0.65797 0.3579 0.0
H36 H 0.59442 0.83818 0.79451 0.0
H37 H 0.71488 0.75225 0.79723 0.0
H38 H 0.66238 0.8116 0.93678 0.0
C39 C 0.62011 0.81942 0.81445 0.0
C40 C 0.62417 0.82692 0.86784 0.0
C41 C 0.65387 0.79403 0.78714 0.0
C42 C 0.68688 0.7709 0.81609 0.0
C43 C 0.68954 0.77648 0.86975 0.0
C44 C 0.65782 0.80436 0.89573 0.0
H45 H 0.83199 0.32363 0.39026 0.0
H46 H 0.89264 0.19316 0.39839 0.0
H47 H 0.87003 0.2746 0.53693 0.0
C48 C 0.85089 0.30006 0.41258 0.0
C49 C 0.85063 0.30437 0.46634 0.0
C50 C 0.86475 0.2595 0.38812 0.0
C51 C 0.88479 0.22611 0.41704 0.0
C52 C 0.88629 0.23105 0.47104 0.0
C53 C 0.87193 0.27195 0.49524 0.0
H54 H 0.34615 0.75757 0.16415 0.0
H55 H 0.3314 0.64197 0.27401 0.0
H56 H 0.46412 0.7671 0.28227 0.0
C57 C 0.36123 0.74247 0.19729 0.0
C58 C 0.40847 0.76973 0.22037 0.0
C59 C 0.33254 0.6965 0.21564 0.0
C60 C 0.353 0.67677 0.25971 0.0
C61 C 0.40093 0.70077 0.2854 0.0
C62 C 0.42792 0.74765 0.26431 0.0
H63 H 0.09115 0.34849 0.78291 0.0
H64 H 0.21366 0.35131 0.66642 0.0
H65 H 0.22282 0.47391 0.7726 0.0
C66 C 0.12808 0.36671 0.76506 0.0
C67 C 0.15449 0.41435 0.78563 0.0
C68 C 0.14856 0.34253 0.72155 0.0
C69 C 0.19697 0.36831 0.69881 0.0
C70 C 0.22397 0.41591 0.71558 0.0
C71 C 0.20231 0.43789 0.7592 0.0
Gd72 Gd 0.02175 0.06676 0.5241 0.0
Gd73 Gd 1.00412 1.02519 0.61103 0.0
C74 C 0.05498 0.14153 0.62143 0.0
C75 C 0.05808 0.11457 0.44382 0.0
C76 C 0.11074 0.14448 0.43168 0.0
C77 C 0.1527 0.12233 0.41644 0.0
C78 C 0.11947 0.19587 0.43559 0.0
C79 C 0.20853 0.20231 0.40243 0.0
C80 C 0.16837 0.22468 0.42157 0.0
C81 C 0.20134 0.15118 0.40177 0.0
C82 C 0.12542 0.0607 0.58038 0.0
C83 C 0.96885 0.95402 0.50599 0.0
C84 C 0.97829 0.96609 0.68629 0.0
C85 C 0.92411 0.93695 0.69114 0.0
C86 C 0.8875 0.94267 0.65374 0.0
C87 C 0.90821 0.90362 0.73063 0.0
C88 C 0.81953 0.8821 0.69456 0.0
C89 C 0.85582 0.87645 0.73253 0.0
C90 C 0.8361 0.91468 0.65466 0.0
C91 C 0.92358 0.07054 0.58648 0.0
O92 O 0.03414 0.13788 0.57479 0.0
O93 O 0.05499 0.09901 0.64325 0.0
O94 O 0.05418 0.06724 0.44684 0.0
O95 O 0.03158 0.13254 0.48014 0.0
O96 O 0.08008 1.03491 0.56522 0.0
O97 O 0.0804 1.03599 0.56508 0.0
O98 O 0.98251 0.95623 0.55537 0.0
O99 O 0.97339 0.9971 0.48417 0.0
O100 O 0.98234 1.01314 0.69166 0.0
O101 O 1.00401 0.95515 0.64571 0.0
O102 O 0.94643 0.07308 0.63013 0.0
O103 O 0.94357 1.04271 0.55735 0.0
H104 H 0.14745 0.08283 0.41377 0.0
H105 H 0.08794 0.21383 0.44772 0.0
H106 H 0.17335 0.26419 0.42136 0.0
H107 H 0.23199 0.13364 0.38634 0.0
H108 H 0.8991 0.96826 0.62294 0.0
H109 H 0.93595 0.89883 0.7598 0.0
H110 H 0.84346 0.85124 0.7636 0.0
H111 H 0.80883 0.91921 0.6249 0.0
Gd112 Gd 0.57473 1.05131 0.07499 0.0
Gd113 Gd 0.48708 1.05101 1.03597 0.0
C114 C 0.50481 0.11932 0.12737 0.0
C115 C 0.66608 0.06629 0.11897 0.0
C116 C 0.70812 0.10436 0.1406 0.0
C117 C 0.74129 0.09034 0.1765 0.0
C118 C 0.71212 0.15418 0.13066 0.0
C119 C 0.77573 0.1755 0.19936 0.0
C120 C 0.74667 0.18988 0.15962 0.0
C121 C 0.77488 0.12574 0.20585 0.0
C122 C 0.50835 0.96135 0.10681 0.0
C123 C 0.5533 0.98218 0.97971 0.0
C124 C 0.39419 1.03402 0.99461 0.0
C125 C 0.36466 0.99282 0.96424 0.0
C126 C 0.33452 1.00274 0.92334 0.0
C127 C 0.37416 0.94549 0.96943 0.0
C128 C 0.331 0.92101 0.88831 0.0
C129 C 0.35698 0.90942 0.9316 0.0
C130 C 0.31777 0.96695 0.88548 0.0
C131 C 0.55535 0.13914 1.00286 0.0
O132 O 0.55342 0.11978 0.11161 0.0
O133 O 0.46916 0.08169 0.1125 0.0
O134 O 0.62108 0.05845 0.1442 0.0
O135 O 0.66038 0.06507 0.06922 0.0
O136 O 0.5567 0.96935 0.09033 0.0
O137 O 0.49585 1.0037 0.10457 0.0
O138 O 0.50515 0.9877 0.98912 0.0
O139 O 0.59231 1.01072 1.00414 0.0
O140 O 0.43702 0.05766 0.97201 0.0
O141 O 0.40165 1.02611 1.04271 0.0
O142 O 0.50806 0.13394 1.02172 0.0
O143 O 0.56678 0.09635 1.00462 0.0
H144 H 0.73864 1.05194 0.18426 0.0
H145 H 0.6865 0.16533 0.10291 0.0
H146 H 0.74692 0.22828 0.15449 0.0
H147 H 0.79719 0.11423 0.23636 0.0
H148 H 0.32725 1.03916 0.91875 0.0
H149 H 0.39765 0.9374 1.00083 0.0
H150 H 0.36715 0.87393 0.93417 0.0
H151 H 0.29735 0.97607 0.85226 0.0
Gd152 Gd 0.51216 0.50936 0.53185 0.0
Gd153 Gd 0.52823 0.58795 0.5864 0.0
C154 C 0.57021 0.50412 0.64676 0.0
C155 C 0.53076 0.43362 0.4821 0.0
C156 C 0.58351 0.42293 0.47851 0.0
C157 C 0.59173 0.37871 0.45725 0.0
C158 C 0.62584 0.45662 0.50105 0.0
C159 C 0.68336 0.40042 0.48532 0.0
C160 C 0.67524 0.44518 0.50518 0.0
C161 C 0.64174 0.36765 0.46029 0.0
C162 C 0.41857 0.50527 0.58847 0.0
C163 C 0.47473 0.59522 0.47013 0.0
C164 C 0.50781 0.6637 0.63428 0.0
C165 C 0.45807 0.67943 0.62654 0.0
C166 C 0.4547 0.72847 0.63322 0.0
C167 C 0.41507 0.64527 0.60555 0.0
C168 C 0.36716 0.70929 0.59458 0.0
C169 C 0.3704 0.66022 0.58891 0.0
C170 C 0.40914 0.74326 0.61773 0.0
C171 C 0.6222 0.59074 0.53045 0.0
O172 O 0.56054 0.48407 0.59959 0.0
O173 O 0.55974 0.54835 0.65282 0.0
O174 O 0.51069 0.43133 0.52843 0.0
O175 O 0.52625 0.47334 0.45944 0.0
O176 O 0.42152 0.49463 0.53969 0.0
O177 O 0.46593 0.52019 0.60407 0.0
O178 O 0.4823 0.61451 0.51772 0.0
O179 O 0.4855 0.55115 0.46414 0.0
O180 O 0.53892 0.66726 0.59395 0.0
O181 O 0.50224 0.62135 0.65579 0.0
O182 O 0.61829 0.59806 0.57982 0.0
O183 O 0.57471 0.5776 0.51435 0.0
H184 H 0.5594 0.35238 0.43988 0.0
H185 H 0.62006 0.49105 0.51741 0.0
H186 H 0.70663 0.47053 0.52508 0.0
H187 H 0.64751 0.33267 0.44504 0.0
H188 H 0.48766 0.75537 0.64878 0.0
H189 H 0.41702 0.6072 0.59985 0.0
H190 H 0.3387 0.63374 0.57087 0.0
H191 H 0.40725 0.78153 0.62222 0.0
Gd192 Gd 0.02188 0.51543 0.08779 0.0
Gd193 Gd 0.03084 0.58954 1.02992 0.0
C194 C 0.13193 0.60097 0.10103 0.0
C195 C 0.04892 0.44394 0.13478 0.0
C196 C 0.10281 0.43418 0.13743 0.0
C197 C 0.11822 0.41058 0.17972 0.0
C198 C 0.14063 0.4518 0.09893 0.0
C199 C 0.20799 0.42191 0.14438 0.0
C200 C 0.19261 0.44552 0.10224 0.0
C201 C 0.17052 0.40442 0.18315 0.0
C202 C 0.97001 0.57977 0.14295 0.0
C203 C 0.9207 0.50525 1.0155 0.0
C204 C 1.01242 0.66446 0.98194 0.0
C205 C 0.96322 0.67963 0.96924 0.0
C206 C 0.96114 0.70644 0.92481 0.0
C207 C 0.91779 0.66676 1.00081 0.0
C208 C 0.86914 0.70815 0.94401 0.0
C209 C 0.87112 0.68119 0.98841 0.0
C210 C 0.91436 0.72061 0.91223 0.0
C211 C 0.08018 0.52298 0.97441 0.0
O212 O 0.10907 0.55418 0.1065 0.0
O213 O 0.10716 0.62626 0.07166 0.0
O214 O 0.04244 0.48386 0.15839 0.0
O215 O 0.02752 0.43896 0.08947 0.0
O216 O 0.95265 0.53272 0.13635 0.0
O217 O 1.01362 0.59105 0.11669 0.0
O218 O 0.94421 0.55183 1.00923 0.0
O219 O 0.94463 0.47973 1.04586 0.0
O220 O 1.02028 0.62497 0.95845 0.0
O221 O 0.02347 0.66535 1.03064 0.0
O222 O 0.10007 0.56937 0.98319 0.0
O223 O 0.03664 0.5133 1.00077 0.0
H224 H 0.08998 0.39728 0.21016 0.0
H225 H 0.13021 0.47106 0.06644 0.0
H226 H 0.22088 0.45902 0.07189 0.0
H227 H 0.18175 0.38582 0.21584 0.0
H228 H 0.99568 0.71643 0.89992 0.0
H229 H 0.91844 0.6457 1.03512 0.0
H230 H 0.83662 0.67142 1.01337 0.0
H231 H 0.91342 0.74152 0.87788 0.0
C232 C 0.34026 0.28102 0.35902 0.0
C233 C 0.33103 0.2812 0.30542 0.0
C234 C 0.24042 0.23437 0.31741 0.0
C235 C 0.2509 0.23077 0.37029 0.0
N236 N 0.31051 0.24583 0.44186 0.0
N237 N 0.2757 0.25113 0.23202 0.0
C238 C 0.30081 0.25279 0.39138 0.0
C239 C 0.282 0.25611 0.2842 0.0
N240 N 0.38611 0.30862 0.37878 0.0
N241 N 0.19028 0.21768 0.29887 0.0
H242 H 0.30376 0.26809 0.20552 0.0
H243 H 0.24408 0.22707 0.21459 0.0
H244 H 0.15861 0.19884 0.32084 0.0
H245 H 0.1788 0.22577 0.26246 0.0
H246 H 0.39341 0.31382 0.418 0.0
H247 H 0.41579 0.3292 0.35571 0.0
H248 H 0.34762 0.25675 0.45855 0.0
H249 H 0.28171 0.22634 0.46657 0.0
C250 C 0.25617 0.84815 0.78042 0.0
C251 C 0.29338 0.8648 0.74061 0.0
C252 C 0.36217 0.89487 0.80369 0.0
C253 C 0.32216 0.88832 0.84246 0.0
N254 N 0.23369 0.8534 0.87137 0.0
N255 N 0.38255 0.89884 0.71211 0.0
C256 C 0.2701 0.86209 0.83206 0.0
C257 C 0.34709 0.8855 0.7516 0.0
N258 N 0.20753 0.8201 0.76834 0.0
N259 N 0.41402 0.91147 0.81689 0.0
H260 H 0.37282 0.8907 0.67359 0.0
H261 H 0.42091 0.9193 0.71699 0.0
H262 H 0.42583 0.91908 0.85492 0.0
H263 H 0.44571 0.91383 0.79113 0.0
H264 H 0.17955 0.804 0.79551 0.0
H265 H 0.19659 0.80981 0.7305 0.0
H266 H 0.19341 0.83926 0.86629 0.0
H267 H 0.24421 0.86157 0.90973 0.0
C268 C 0.5901 0.45432 0.78816 0.0
C269 C 0.62999 0.42586 0.78156 0.0
C270 C 0.63395 0.45115 0.68762 0.0
C271 C 0.59117 0.47667 0.69334 0.0
N272 N 0.5224 0.49203 0.75131 0.0
N273 N 0.68401 0.39289 0.71995 0.0
C274 C 0.56805 0.4754 0.74445 0.0
C275 C 0.64989 0.42321 0.72968 0.0
N276 N 0.57352 0.46251 0.83714 0.0
N277 N 0.662 0.45573 0.64236 0.0
H278 H 0.6972 0.37342 0.74889 0.0
H279 H 0.69568 0.38385 0.68304 0.0
H280 H 0.65356 0.4768 0.61245 0.0
H281 H 0.69662 0.44296 0.63621 0.0
H282 H 0.55015 0.48762 0.84648 0.0
H283 H 0.58673 0.44698 0.86911 0.0
H284 H 0.49961 0.48723 0.78498 0.0
H285 H 0.5041 0.50608 0.72158 0.0
C286 C 0.88099 0.64734 0.23535 0.0
C287 C 0.91105 0.65936 0.28173 0.0
C288 C 0.98285 0.62456 0.23524 0.0
C289 C 0.95117 0.60962 0.19023 0.0
N290 N 0.86548 0.60242 0.1527 0.0
N291 N 0.98966 0.65214 0.32598 0.0
C292 C 0.89898 0.61982 0.19225 0.0
C293 C 0.96197 0.64634 0.28115 0.0
N294 N 0.83558 0.66439 0.23118 0.0
N295 N 0.03336 0.61718 0.23479 0.0
H296 H 0.97607 0.66691 0.35956 0.0
H297 H 0.02375 0.63892 0.33147 0.0
H298 H 0.04825 0.59789 0.20523 0.0
H299 H 0.06156 0.63237 0.26206 0.0
H300 H 0.81437 0.66252 0.19725 0.0
H301 H 0.82162 0.68472 0.26047 0.0
H302 H 0.82515 0.60218 0.15377 0.0
H303 H 0.87731 0.58503 0.1199 0.0
C304 C 0.50799 0.24403 0.19479 0.0
C305 C 0.45955 0.25415 0.17843 0.0
C306 C 0.44373 0.17947 0.12418 0.0
C307 C 0.48867 0.16537 0.14582 0.0
N308 N 0.55963 0.1824 0.20744 0.0
N309 N 0.37621 0.22601 0.13498 0.0
C310 C 0.52008 0.19744 0.18241 0.0
C311 C 0.42631 0.22054 0.14506 0.0
N312 N 0.54224 0.27906 0.22234 0.0
N313 N 0.41802 0.1557 0.0821 0.0
H314 H 0.36185 0.25655 0.14643 0.0
H315 H 0.34734 0.19831 0.11831 0.0
H316 H 0.42482 0.12396 0.06463 0.0
H317 H 0.3916 0.17042 0.06087 0.0
H318 H 0.58049 0.27616 0.23147 0.0
H319 H 0.53388 0.31315 0.23194 0.0
H320 H 0.58066 0.20213 0.23779 0.0
H321 H 0.56814 0.14786 0.20142 0.0
C322 C 0.16435 0.95945 0.64663 0.0
C323 C 0.208 0.95228 0.61591 0.0
C324 C 0.20626 1.02662 0.56868 0.0
C325 C 0.16355 1.03388 0.60062 0.0
N326 N 0.11786 1.01912 0.6818 0.0
N327 N 0.27845 0.98444 0.55565 0.0
C328 C 0.14772 1.00403 0.6435 0.0
C329 C 0.23162 0.98762 0.5793 0.0
N330 N 0.13756 0.9231 0.6774 0.0
N331 N 0.22089 0.05568 0.52715 0.0
H332 H 0.29804 0.95634 0.56261 0.0
H333 H 0.2999 1.01163 0.53226 0.0
H334 H 0.20454 0.08595 0.52029 0.0
H335 H 0.24735 1.04863 0.49871 0.0
H336 H 0.10242 0.92525 0.69675 0.0
H337 H 0.14727 0.88885 0.67944 0.0
H338 H 0.10776 1.00016 0.7158 0.0
H339 H 0.11033 0.0542 0.68242 0.0
C340 C 0.77089 0.4479 0.98162 0.0
C341 C 0.77281 0.4357 0.92769 0.0
C342 C 0.87047 0.47362 0.93059 0.0
C343 C 0.8693 0.48133 0.98537 0.0
N344 N 0.81694 0.47019 0.06318 0.0
N345 N 0.82875 0.43123 0.85347 0.0
C346 C 0.81901 0.46657 1.01071 0.0
C347 C 0.82385 0.44749 0.90299 0.0
N348 N 0.72241 0.44391 1.00498 0.0
N349 N 0.91661 0.49131 0.90431 0.0
H350 H 0.7967 0.41182 0.8324 0.0
H351 H 0.86503 0.43304 0.83472 0.0
H352 H 0.95187 0.5076 0.92255 0.0
H353 H 0.91917 0.49292 0.86434 0.0
H354 H 0.71708 0.45663 1.04229 0.0
H355 H 0.68696 0.43224 0.98526 0.0
H356 H 0.7836 0.45497 0.08507 0.0
H357 H 0.84999 0.48558 0.0852 0.0
C358 C 0.76944 0.65144 0.48766 0.0
C359 C 0.76839 0.65119 0.43273 0.0
C360 C 0.67536 0.60177 0.44177 0.0
C361 C 0.67312 0.61118 0.49652 0.0
N362 N 0.72125 0.66138 0.56605 0.0
N363 N 0.71212 0.63187 0.35868 0.0
C364 C 0.72107 0.64052 0.51791 0.0
C365 C 0.71897 0.62786 0.41017 0.0
N366 N 0.81711 0.66086 0.51178 0.0
N367 N 0.63729 0.56638 0.41926 0.0
H368 H 0.7414 0.65169 0.33477 0.0
H369 H 0.67551 0.61986 0.34108 0.0
H370 H 0.60718 0.54411 0.44004 0.0
H371 H 0.63952 0.55525 0.38081 0.0
H372 H 0.82046 0.65781 0.55145 0.0
H373 H 0.85287 0.66504 0.4914 0.0
H374 H 0.7545 0.68547 0.58085 0.0
H375 H 0.68742 0.66169 0.588 0.0
C376 C 0.35195 0.43312 0.1835 0.0
C377 C 0.36144 0.38843 0.16222 0.0
C378 C 0.27499 0.37191 0.12051 0.0
C379 C 0.26281 0.41341 0.14654 0.0
N380 N 0.29239 0.48969 0.1934 0.0
N381 N 0.34354 0.33085 0.09063 0.0
C382 C 0.30258 0.44647 0.17454 0.0
C383 C 0.32675 0.36288 0.12412 0.0
N384 N 0.38928 0.46052 0.21503 0.0
N385 N 0.2365 0.33985 0.0941 0.0
H386 H 0.38243 0.32648 0.08936 0.0
H387 H 0.32121 0.31381 0.05967 0.0
H388 H 0.19833 0.34562 0.08941 0.0
H389 H 0.24126 0.30578 0.08002 0.0
H390 H 0.38434 0.49132 0.23628 0.0
H391 H 0.42595 0.45131 0.21997 0.0
H392 H 0.32 0.51664 0.2124 0.0
H393 H 0.25643 0.49988 0.18767 0.0
C394 C 0.5988 0.28011 0.96855 0.0
C395 C 0.622 0.28123 0.91799 0.0
C396 C 0.60232 0.18816 0.92125 0.0
C397 C 0.58322 0.18749 0.97363 0.0
N398 N 0.57477 0.23735 0.04903 0.0
N399 N 0.65184 0.23367 0.84979 0.0
C400 C 0.58458 0.2349 0.99733 0.0
C401 C 0.62526 0.23433 0.89556 0.0
N402 N 0.58867 0.32269 0.98917 0.0
N403 N 0.59652 0.14461 0.89465 0.0
H404 H 0.66745 0.26556 0.82979 0.0
H405 H 0.66167 0.20226 0.83362 0.0
H406 H 0.58045 0.1111 0.91136 0.0
H407 H 0.6036 0.14192 0.85522 0.0
H408 H 0.56641 0.32429 1.02274 0.0
H409 H 0.59793 0.35581 0.96993 0.0
H410 H 0.58033 0.27006 0.07045 0.0
H411 H 0.56699 0.20645 0.07172 0.0
C412 C 0.92135 0.81104 0.47588 0.0
C413 C 0.91577 0.80622 0.42116 0.0
C414 C 0.95396 0.8973 0.42054 0.0
C415 C 0.94981 0.90312 0.47579 0.0
N416 N 0.91226 0.86017 0.55214 0.0
N417 N 0.9191 0.85111 0.34285 0.0
C418 C 0.92878 0.85836 0.50218 0.0
C419 C 0.92994 0.85126 0.39401 0.0
N420 N 0.92134 0.77024 0.50352 0.0
N421 N 0.98339 0.93445 0.39264 0.0
H422 H 0.90083 0.81948 0.32256 0.0
H423 H 0.9234 0.8832 0.32213 0.0
H424 H 1.00572 0.96631 0.40937 0.0
H425 H 0.9914 0.93069 0.35345 0.0
H426 H 0.92927 0.77178 0.54282 0.0
H427 H 0.92053 0.73615 0.48583 0.0
H428 H 0.89301 0.82911 0.57174 0.0
H429 H 0.91025 0.89281 0.57114 0.0
C430 C 0.30018 0.79808 0.53424 0.0
C431 C 0.25487 0.79092 0.56651 0.0
C432 C 0.27041 0.71372 0.59544 0.0
C433 C 0.32207 0.72678 0.57319 0.0
N434 N 0.37615 0.76653 0.5037 0.0
N435 N 0.18269 0.73248 0.60151 0.0
C436 C 0.33322 0.76372 0.53574 0.0
C437 C 0.23433 0.74398 0.58579 0.0
N438 N 0.314 0.84012 0.50712 0.0
N439 N 0.25783 0.67665 0.6297 0.0
H440 H 0.15806 0.75721 0.59705 0.0
H441 H 0.16404 0.69795 0.61438 0.0
H442 H 0.28381 0.65473 0.63942 0.0
H443 H 0.22244 0.66937 0.65075 0.0
H444 H 0.34986 0.85078 0.48735 0.0
H445 H 0.28883 0.86458 0.50523 0.0
H446 H 0.38504 0.79106 0.47372 0.0
H447 H 0.40017 0.74092 0.5046 0.0
C448 C 0.69999 0.77652 0.70591 0.0
C449 C 0.66571 0.80303 0.73078 0.0
C450 C 0.72228 0.8799 0.7074 0.0
C451 C 0.76377 0.85468 0.69717 0.0
N452 N 0.78861 0.77909 0.67055 0.0
N453 N 0.6269 0.86988 0.70776 0.0
C454 C 0.75128 0.80268 0.69016 0.0
C455 C 0.67078 0.85169 0.71551 0.0
N456 N 0.6843 0.7268 0.70201 0.0
N457 N 0.73186 0.92975 0.71265 0.0
H458 H 0.58905 0.8473 0.71016 0.0
H459 H 0.62889 0.90489 0.69376 0.0
H460 H 0.76952 0.95223 0.70932 0.0
H461 H 0.70241 0.94814 0.7244 0.0
H462 H 0.70669 0.70394 0.68462 0.0
H463 H 0.64684 0.70916 0.71547 0.0
H464 H 0.78295 0.74119 0.66654 0.0
H465 H 0.82557 0.79809 0.6574 0.0
C466 C 0.78669 0.22824 0.33225 0.0
C467 C 0.84256 0.24449 0.33666 0.0
C468 C 0.85425 0.22546 0.24529 0.0
C469 C 0.7985 0.20987 0.24121 0.0
N470 N 0.71112 0.20906 0.27632 0.0
N471 N 0.92875 0.26788 0.2966 0.0
C472 C 0.76462 0.21602 0.28312 0.0
C473 C 0.87621 0.2462 0.29278 0.0
N474 N 0.75479 0.22129 0.37527 0.0
N475 N 0.88591 0.21877 0.20423 0.0
H476 H 0.94575 0.28281 0.33118 0.0
H477 H 0.95456 0.27425 0.2651 0.0
H478 H 0.87045 0.20603 0.16835 0.0
H479 H 0.92695 0.22402 0.20614 0.0
H480 H 0.71497 0.20357 0.37448 0.0
H481 H 0.76854 0.22885 0.41263 0.0
H482 H 0.68542 0.2186 0.30419 0.0
H483 H 0.69272 0.19829 0.24132 0.0
C484 C 0.39289 0.66968 0.38217 0.0
C485 C 0.42158 0.67591 0.33388 0.0
C486 C 0.48716 0.63351 0.37635 0.0
C487 C 0.45616 0.62357 0.42307 0.0
N488 N 0.37353 0.62778 0.46442 0.0
N489 N 0.49393 0.6554 0.28517 0.0
C490 C 0.40762 0.64094 0.42407 0.0
C491 C 0.46819 0.65554 0.33149 0.0
N492 N 0.35169 0.69273 0.38896 0.0
N493 N 0.53673 0.62385 0.37528 0.0
H494 H 0.48231 0.6711 0.25254 0.0
H495 H 0.52383 0.63633 0.27792 0.0
H496 H 0.55208 0.6089 0.40636 0.0
H497 H 0.56437 0.63481 0.34594 0.0
H498 H 0.33207 0.69486 0.424 0.0
H499 H 0.34006 0.7136 0.36039 0.0
H500 H 0.33519 0.6338 0.46628 0.0
H501 H 0.38218 0.60657 0.49411 0.0
C502 C 0.12554 0.42012 0.88408 0.0
C503 C 0.13217 0.44071 0.83368 0.0
C504 C 0.10382 0.51467 0.87462 0.0
C505 C 0.09501 0.49323 0.92481 0.0
N506 N 0.08708 0.41854 0.97096 0.0
N507 N 0.11534 0.50505 0.7813 0.0
C508 C 0.10267 0.44385 0.92724 0.0
C509 C 0.11821 0.48746 0.8295 0.0
N510 N 0.14364 0.3785 0.8919 0.0
N511 N 0.09743 0.56146 0.86906 0.0
H512 H 0.12362 0.48631 0.74796 0.0
H513 H 0.09974 0.53545 0.77371 0.0
H514 H 0.07932 0.57995 0.89687 0.0
H515 H 0.11148 0.58256 0.83727 0.0
H516 H 0.14628 0.36427 0.92814 0.0
H517 H 0.1608 0.36067 0.8626 0.0
H518 H 0.08578 0.38124 0.9743 0.0
H519 H 0.07032 0.4339 1.0022 0.0
C520 C 0.62972 0.91605 0.88761 0.0
C521 C 0.60181 0.86665 0.89238 0.0
C522 C 0.53611 0.89286 0.94931 0.0
C523 C 0.56424 0.94257 0.94454 0.0
N524 N 0.62658 1.00185 0.89612 0.0
N525 N 0.52241 0.80889 0.91625 0.0
C526 C 0.60768 0.95423 0.90966 0.0
C527 C 0.5529 0.85538 0.91944 0.0
N528 N 0.67803 0.92652 0.86315 0.0
N529 N 0.49555 0.88068 0.98431 0.0
H530 H 0.53439 0.78045 0.89572 0.0
H531 H 0.48355 0.79946 0.93003 0.0
H532 H 0.4819 0.90589 1.00806 0.0
H533 H 0.47817 0.84469 0.99351 0.0
H534 H 0.70302 0.96119 0.86413 0.0
H535 H 0.69508 0.89997 0.84479 0.0
H536 H 0.65481 1.01221 0.86712 0.0
H537 H 0.60969 1.03051 0.90982 0.0
C538 C 0.92772 0.19737 0.54469 0.0
C539 C 0.89203 0.18921 0.50309 0.0
C540 C 0.86749 0.10199 0.52355 0.0
C541 C 0.90181 0.11114 0.56618 0.0
N542 N 0.94134 0.17226 0.6303 0.0
N543 N 0.8135 0.1366 0.46644 0.0
C544 C 0.92451 0.1603 0.58122 0.0
C545 C 0.85751 0.14228 0.49623 0.0
N546 N 0.96552 0.23973 0.54887 0.0
N547 N 0.84391 0.05498 0.50954 0.0
H548 H 0.80202 0.16579 0.44925 0.0
H549 H 0.78499 0.10399 0.46394 0.0
H550 H 0.84621 1.02495 0.53176 0.0
H551 H 0.82383 1.04597 0.475 0.0
H552 H 0.99493 0.24511 0.57669 0.0
H553 H 0.9708 0.267 0.52141 0.0
H554 H 0.95595 0.2084 0.6427 0.0
H555 H 0.93317 0.14758 0.6602 0.0
C556 C 0.27818 0.6276 0.15527 0.0
C557 C 0.28027 0.67009 0.18805 0.0
C558 C 0.18526 0.66635 0.16499 0.0
C559 C 0.18382 0.62534 0.13024 0.0
N560 N 0.23251 0.5708 0.08863 0.0
N561 N 0.23544 0.73216 0.21969 0.0
C562 C 0.23131 0.60687 0.12494 0.0
C563 C 0.23359 0.68991 0.19135 0.0
N564 N 0.32171 0.60721 0.15259 0.0
N565 N 0.13924 0.68163 0.17516 0.0
H566 H 0.26735 0.74798 0.24295 0.0
H567 H 0.20678 0.75312 0.21823 0.0
H568 H 0.10372 0.6666 0.15686 0.0
H569 H 0.13479 0.70651 0.20455 0.0
H570 H 0.32294 0.57431 0.13348 0.0
H571 H 0.35676 0.62228 0.17176 0.0
H572 H 0.266 0.55753 0.07862 0.0
H573 H 0.20031 0.55617 0.06524 0.0
C574 C 0.27081 0.46932 0.64031 0.0
C575 C 0.27457 0.44237 0.68562 0.0
C576 C 0.37193 0.45366 0.66611 0.0
C577 C 0.36909 0.48404 0.62299 0.0
N578 N 0.31428 0.52535 0.57431 0.0
N579 N 0.33196 0.41618 0.74542 0.0
C580 C 0.31792 0.49286 0.6117 0.0
C581 C 0.32623 0.4371 0.69957 0.0
N582 N 0.22162 0.47162 0.62361 0.0
N583 N 0.41725 0.43715 0.67328 0.0
H584 H 0.29991 0.40258 0.76977 0.0
H585 H 0.36866 0.41622 0.76133 0.0
H586 H 0.45001 0.44515 0.64864 0.0
H587 H 0.42049 0.4111 0.70026 0.0
H588 H 0.21473 0.48487 0.58789 0.0
H589 H 0.187 0.45719 0.64422 0.0
H590 H 0.28026 0.53846 0.56783 0.0
H591 H 0.34679 0.54248 0.55232 0.0
C592 C 0.77827 0.79299 0.91296 0.0
C593 C 0.73201 0.75893 0.89663 0.0
C594 C 0.77522 0.69078 0.91225 0.0
C595 C 0.8202 0.7248 0.93119 0.0
N596 N 0.85924 0.80664 0.96179 0.0
N597 N 0.68207 0.67561 0.89053 0.0
C598 C 0.81994 0.77542 0.93552 0.0
C599 C 0.7291 0.70779 0.89958 0.0
N600 N 0.78402 0.84189 0.90411 0.0
N601 N 0.77743 0.64271 0.90401 0.0
H602 H 0.6476 0.6871 0.88133 0.0
H603 H 0.67599 0.63813 0.89673 0.0
H604 H 0.81055 0.62886 0.91264 0.0
H605 H 0.74813 0.61737 0.88492 0.0
H606 H 0.81946 0.8674 0.90972 0.0
H607 H 0.7551 0.8566 0.88685 0.0
H608 H 0.85818 0.843 0.97069 0.0
H609 H 0.89034 0.79496 0.9791 0.0
C610 C 0.41477 0.86342 0.2003 0.0
C611 C 0.43674 0.82039 0.19558 0.0
C612 C 0.50146 0.86767 0.13093 0.0
C613 C 0.48088 0.91216 0.13656 0.0
N614 N 0.41941 0.95032 0.18537 0.0
N615 N 0.49723 0.78103 0.14915 0.0
C616 C 0.43768 0.90899 0.1734 0.0
C617 C 0.47959 0.82311 0.1595 0.0
N618 N 0.36985 0.86031 0.22971 0.0
N619 N 0.54321 0.86723 0.09806 0.0
H620 H 0.48437 0.74905 0.1698 0.0
H621 H 0.52187 0.77621 0.11823 0.0
H622 H 0.5532 0.89074 0.06753 0.0
H623 H 0.56839 0.84298 0.10076 0.0
H624 H 0.34598 0.88589 0.22939 0.0
H625 H 0.35435 0.83011 0.25228 0.0
H626 H 0.39446 0.95336 0.21661 0.0
H627 H 0.43163 0.9832 0.1666 0.0
C628 C 0.11347 0.2841 0.64292 0.0
C629 C 0.12046 0.29101 0.69747 0.0
C630 C 0.0765 0.20134 0.70322 0.0
C631 C 0.07785 0.19305 0.64834 0.0
N632 N 0.11383 0.22972 0.5685 0.0
N633 N 0.11663 0.24914 0.77789 0.0
C634 C 0.10077 0.23545 0.61907 0.0
C635 C 0.10406 0.24754 0.72704 0.0
N636 N 0.11701 0.32419 0.61314 0.0
N637 N 0.04673 0.16619 0.7333 0.0
H638 H 0.13812 0.2806 0.79626 0.0
H639 H 0.11068 0.21791 0.80018 0.0
H640 H 0.02324 0.134 0.71826 0.0
H641 H 0.04021 0.1718 0.77249 0.0
H642 H 0.10762 0.32147 0.57416 0.0
H643 H 0.12281 0.35974 0.62865 0.0
H644 H 0.13447 0.25859 0.54659 0.0
H645 H 0.11089 0.1955 0.55054 0.0
C646 C 0.82561 0.38498 0.47557 0.0
C647 C 0.81645 0.33533 0.49019 0.0
C648 C 0.72978 0.34211 0.52431 0.0
C649 C 0.7331 0.38475 0.4955 0.0
N650 N 0.78519 0.44844 0.44329 0.0
N651 N 0.75452 0.26435 0.52472 0.0
C652 C 0.78176 0.40761 0.47201 0.0
C653 C 0.76774 0.31338 0.51502 0.0
N654 N 0.8757 0.4092 0.46279 0.0
N655 N 0.68924 0.32822 0.55891 0.0
H656 H 0.7784 0.2397 0.51596 0.0
H657 H 0.71678 0.24692 0.53728 0.0
H658 H 0.66094 0.34919 0.56648 0.0
H659 H 0.68748 0.29921 0.58378 0.0
H660 H 0.88546 0.44651 0.45508 0.0
H661 H 0.90811 0.39261 0.46507 0.0
H662 H 0.81838 0.46327 0.42096 0.0
H663 H 0.75355 0.46553 0.43879 0.0
loop_
_geom_bond_atom_site_label_1
_geom_bond_atom_site_label_2
_geom_bond_distance
_geom_bond_site_symmetry_2
_ccdc_geom_bond_type
H0 C3 0.931 . S
H1 C6 0.928 . S
H2 C8 0.930 . S
C3 H0 0.931 . S
C3 C4 1.413 . S
C3 C5 1.360 . S
C4 C3 1.413 . S
C4 C8 1.429 . S
C5 C3 1.360 . S
C5 C6 1.372 . S
C6 H1 0.928 . S
C6 C5 1.372 . S
C6 C7 1.404 . S
C7 C6 1.404 . S
C7 C8 1.391 . S
C8 H2 0.930 . S
C8 C4 1.429 . S
C8 C7 1.391 . S
H9 C12 0.931 . S
H10 C15 0.928 . S
H11 C17 0.930 . S
C12 H9 0.931 . S
C12 C13 1.413 . S
C12 C14 1.360 . S
C13 C12 1.413 . S
C13 C17 1.429 . S
C14 C12 1.360 . S
C14 C15 1.372 . S
C15 H10 0.928 . S
C15 C14 1.372 . S
C15 C16 1.404 . S
C16 C15 1.404 . S
C16 C17 1.391 . S
C17 H11 0.930 . S
C17 C13 1.429 . S
C17 C16 1.391 . S
H18 C21 0.931 . S
H19 C24 0.928 . S
H20 C26 0.930 . S
C21 H18 0.931 . S
C21 C22 1.413 . S
C21 C23 1.360 . S
C22 C21 1.413 . S
C22 C26 1.429 . S
C23 C21 1.360 . S
C23 C24 1.372 . S
C24 H19 0.928 . S
C24 C23 1.372 . S
C24 C25 1.404 . S
C25 C24 1.404 . S
C25 C26 1.391 . S
C26 H20 0.930 . S
C26 C22 1.429 . S
C26 C25 1.391 . S
H27 C30 0.931 . S
H28 C33 0.928 . S
H29 C35 0.930 . S
C30 H27 0.931 . S
C30 C31 1.413 . S
C30 C32 1.360 . S
C31 C30 1.413 . S
C31 C35 1.429 . S
C32 C30 1.360 . S
C32 C33 1.372 . S
C33 H28 0.928 . S
C33 C32 1.372 . S
C33 C34 1.404 . S
C34 C33 1.404 . S
C34 C35 1.391 . S
C35 H29 0.930 . S
C35 C31 1.429 . S
C35 C34 1.391 . S
H36 C39 0.931 . S
H37 C42 0.928 . S
H38 C44 0.930 . S
C39 H36 0.931 . S
C39 C40 1.413 . S
C39 C41 1.360 . S
C40 C39 1.413 . S
C40 C44 1.429 . S
C41 C39 1.360 . S
C41 C42 1.372 . S
C42 H37 0.928 . S
C42 C41 1.372 . S
C42 C43 1.404 . S
C43 C42 1.404 . S
C43 C44 1.391 . S
C44 H38 0.930 . S
C44 C40 1.429 . S
C44 C43 1.391 . S
H45 C48 0.931 . S
H46 C51 0.928 . S
H47 C53 0.930 . S
C48 H45 0.931 . S
C48 C49 1.413 . S
C48 C50 1.360 . S
C49 C48 1.413 . S
C49 C53 1.429 . S
C50 C48 1.360 . S
C50 C51 1.372 . S
C51 H46 0.928 . S
C51 C50 1.372 . S
C51 C52 1.404 . S
C52 C51 1.404 . S
C52 C53 1.391 . S
C53 H47 0.930 . S
C53 C49 1.429 . S
C53 C52 1.391 . S
H54 C57 0.931 . S
H55 C60 0.928 . S
H56 C62 0.930 . S
C57 H54 0.931 . S
C57 C58 1.413 . S
C57 C59 1.360 . S
C58 C57 1.413 . S
C58 C62 1.429 . S
C59 C57 1.360 . S
C59 C60 1.372 . S
C60 H55 0.928 . S
C60 C59 1.372 . S
C60 C61 1.404 . S
C61 C60 1.404 . S
C61 C62 1.391 . S
C62 H56 0.930 . S
C62 C58 1.429 . S
C62 C61 1.391 . S
H63 C66 0.931 . S
H64 C69 0.928 . S
H65 C71 0.930 . S
C66 H63 0.931 . S
C66 C67 1.413 . S
C66 C68 1.360 . S
C67 C66 1.413 . S
C67 C71 1.429 . S
C68 C66 1.360 . S
C68 C69 1.372 . S
C69 H64 0.928 . S
C69 C68 1.372 . S
C69 C70 1.404 . S
C70 C69 1.404 . S
C70 C71 1.391 . S
C71 H65 0.930 . S
C71 C67 1.429 . S
C71 C70 1.391 . S
Gd72 C75 2.818 . S
Gd72 O92 2.377 . S
Gd72 O94 2.448 . S
Gd72 O95 2.506 . S
Gd72 O96 2.435 1_545 S
Gd72 O97 2.717 1_545 S
Gd72 O99 2.395 1_445 S
Gd72 O103 2.327 1_455 S
Gd73 C84 2.818 . S
Gd73 O93 2.395 1_665 S
Gd73 O97 2.327 1_655 S
Gd73 O98 2.377 . S
Gd73 O100 2.448 . S
Gd73 O101 2.506 . S
Gd73 O102 2.435 1_565 S
Gd73 O103 2.717 1_565 S
C74 O92 1.240 . S
C74 O93 1.240 . S
C75 Gd72 2.818 . S
C75 C76 1.510 . S
C75 O94 1.249 . S
C75 O95 1.252 . S
C76 C75 1.510 . S
C76 C77 1.404 . S
C76 C78 1.352 . S
C77 C76 1.404 . S
C77 C81 1.389 . S
C77 H104 0.930 . S
C78 C76 1.352 . S
C78 C80 1.374 . S
C78 H105 0.931 . S
C79 C80 1.359 . S
C79 C81 1.364 . S
C80 C78 1.374 . S
C80 C79 1.359 . S
C80 H106 0.931 . S
C81 C77 1.389 . S
C81 C79 1.364 . S
C81 H107 0.931 . S
C82 O96 1.256 . S
C82 O97 1.257 . S
C83 O98 1.240 . S
C83 O99 1.240 . S
C84 Gd73 2.818 . S
C84 C85 1.510 . S
C84 O100 1.249 . S
C84 O101 1.252 . S
C85 C84 1.510 . S
C85 C86 1.404 . S
C85 C87 1.352 . S
C86 C85 1.404 . S
C86 C90 1.389 . S
C86 H108 0.930 . S
C87 C85 1.352 . S
C87 C89 1.374 . S
C87 H109 0.931 . S
C88 C89 1.359 . S
C88 C90 1.364 . S
C89 C87 1.374 . S
C89 C88 1.359 . S
C89 H110 0.931 . S
C90 C86 1.389 . S
C90 C88 1.364 . S
C90 H111 0.931 . S
C91 O102 1.256 . S
C91 O103 1.257 . S
O92 Gd72 2.377 . S
O92 C74 1.240 . S
O93 Gd73 2.395 1_445 S
O93 C74 1.240 . S
O94 Gd72 2.448 . S
O94 C75 1.249 . S
O95 Gd72 2.506 . S
O95 C75 1.252 . S
O96 Gd72 2.435 1_565 S
O96 C82 1.256 . S
O97 Gd72 2.717 1_565 S
O97 Gd73 2.327 1_455 S
O97 C82 1.257 . S
O98 Gd73 2.377 . S
O98 C83 1.240 . S
O99 Gd72 2.395 1_665 S
O99 C83 1.240 . S
O100 Gd73 2.448 . S
O100 C84 1.249 . S
O101 Gd73 2.506 . S
O101 C84 1.252 . S
O102 Gd73 2.435 1_545 S
O102 C91 1.256 . S
O103 Gd72 2.327 1_655 S
O103 Gd73 2.717 1_545 S
O103 C91 1.257 . S
H104 C77 0.930 . S
H105 C78 0.931 . S
H106 C80 0.931 . S
H107 C81 0.931 . S
H108 C86 0.930 . S
H109 C87 0.931 . S
H110 C89 0.931 . S
H111 C90 0.931 . S
Gd112 C115 2.818 1_565 S
Gd112 O132 2.377 1_565 S
Gd112 O134 2.448 1_565 S
Gd112 O135 2.506 1_565 S
Gd112 O136 2.435 . S
Gd112 O137 2.717 . S
Gd112 O139 2.395 1_554 S
Gd112 O143 2.327 1_564 S
Gd113 C124 2.818 1_545 S
Gd113 O133 2.395 1_556 S
Gd113 O137 2.327 1_546 S
Gd113 O138 2.377 1_545 S
Gd113 O140 2.448 1_545 S
Gd113 O141 2.506 1_545 S
Gd113 O142 2.435 . S
Gd113 O143 2.717 . S
C114 O132 1.240 . S
C114 O133 1.240 . S
C115 Gd112 2.818 1_545 S
C115 C116 1.510 . S
C115 O134 1.249 . S
C115 O135 1.252 . S
C116 C115 1.510 . S
C116 C117 1.404 . S
C116 C118 1.352 . S
C117 C116 1.404 . S
C117 C121 1.389 . S
C117 H144 0.930 . S
C118 C116 1.352 . S
C118 C120 1.374 . S
C118 H145 0.931 . S
C119 C120 1.359 . S
C119 C121 1.364 . S
C120 C118 1.374 . S
C120 C119 1.359 . S
C120 H146 0.931 . S
C121 C117 1.389 . S
C121 C119 1.364 . S
C121 H147 0.931 . S
C122 O136 1.256 . S
C122 O137 1.257 . S
C123 O138 1.240 . S
C123 O139 1.240 . S
C124 Gd113 2.818 1_565 S
C124 C125 1.510 . S
C124 O140 1.249 . S
C124 O141 1.252 . S
C125 C124 1.510 . S
C125 C126 1.404 . S
C125 C127 1.352 . S
C126 C125 1.404 . S
C126 C130 1.389 . S
C126 H148 0.930 . S
C127 C125 1.352 . S
C127 C129 1.374 . S
C127 H149 0.931 . S
C128 C129 1.359 . S
C128 C130 1.364 . S
C129 C127 1.374 . S
C129 C128 1.359 . S
C129 H150 0.931 . S
C130 C126 1.389 . S
C130 C128 1.364 . S
C130 H151 0.931 . S
C131 O142 1.256 . S
C131 O143 1.257 . S
O132 Gd112 2.377 1_545 S
O132 C114 1.240 . S
O133 Gd113 2.395 1_554 S
O133 C114 1.240 . S
O134 Gd112 2.448 1_545 S
O134 C115 1.249 . S
O135 Gd112 2.506 1_545 S
O135 C115 1.252 . S
O136 Gd112 2.435 . S
O136 C122 1.256 . S
O137 Gd112 2.717 . S
O137 Gd113 2.327 1_564 S
O137 C122 1.257 . S
O138 Gd113 2.377 1_565 S
O138 C123 1.240 . S
O139 Gd112 2.395 1_556 S
O139 C123 1.240 . S
O140 Gd113 2.448 1_565 S
O140 C124 1.249 . S
O141 Gd113 2.506 1_565 S
O141 C124 1.252 . S
O142 Gd113 2.435 . S
O142 C131 1.256 . S
O143 Gd112 2.327 1_546 S
O143 Gd113 2.717 . S
O143 C131 1.257 . S
H144 C117 0.930 . S
H145 C118 0.931 . S
H146 C120 0.931 . S
H147 C121 0.931 . S
H148 C126 0.930 . S
H149 C127 0.931 . S
H150 C129 0.931 . S
H151 C130 0.931 . S
Gd152 C155 2.818 . S
Gd152 O172 2.377 . S
Gd152 O174 2.448 . S
Gd152 O175 2.506 . S
Gd152 O176 2.435 . S
Gd152 O177 2.717 . S
Gd152 O179 2.395 . S
Gd152 O183 2.327 . S
Gd153 C164 2.818 . S
Gd153 O173 2.395 . S
Gd153 O177 2.327 . S
Gd153 O178 2.377 . S
Gd153 O180 2.448 . S
Gd153 O181 2.506 . S
Gd153 O182 2.435 . S
Gd153 O183 2.717 . S
C154 O172 1.240 . S
C154 O173 1.240 . S
C155 Gd152 2.818 . S
C155 C156 1.510 . S
C155 O174 1.249 . S
C155 O175 1.252 . S
C156 C155 1.510 . S
C156 C157 1.404 . S
C156 C158 1.352 . S
C157 C156 1.404 . S
C157 C161 1.389 . S
C157 H184 0.930 . S
C158 C156 1.352 . S
C158 C160 1.374 . S
C158 H185 0.931 . S
C159 C160 1.359 . S
C159 C161 1.364 . S
C160 C158 1.374 . S
C160 C159 1.359 . S
C160 H186 0.931 . S
C161 C157 1.389 . S
C161 C159 1.364 . S
C161 H187 0.931 . S
C162 O176 1.256 . S
C162 O177 1.257 . S
C163 O178 1.240 . S
C163 O179 1.240 . S
C164 Gd153 2.818 . S
C164 C165 1.510 . S
C164 O180 1.249 . S
C164 O181 1.252 . S
C165 C164 1.510 . S
C165 C166 1.404 . S
C165 C167 1.352 . S
C166 C165 1.404 . S
C166 C170 1.389 . S
C166 H188 0.930 . S
C167 C165 1.352 . S
C167 C169 1.374 . S
C167 H189 0.931 . S
C168 C169 1.359 . S
C168 C170 1.364 . S
C169 C167 1.374 . S
C169 C168 1.359 . S
C169 H190 0.931 . S
C170 C166 1.389 . S
C170 C168 1.364 . S
C170 H191 0.931 . S
C171 O182 1.256 . S
C171 O183 1.257 . S
O172 Gd152 2.377 . S
O172 C154 1.240 . S
O173 Gd153 2.395 . S
O173 C154 1.240 . S
O174 Gd152 2.448 . S
O174 C155 1.249 . S
O175 Gd152 2.506 . S
O175 C155 1.252 . S
O176 Gd152 2.435 . S
O176 C162 1.256 . S
O177 Gd152 2.717 . S
O177 Gd153 2.327 . S
O177 C162 1.257 . S
O178 Gd153 2.377 . S
O178 C163 1.240 . S
O179 Gd152 2.395 . S
O179 C163 1.240 . S
O180 Gd153 2.448 . S
O180 C164 1.249 . S
O181 Gd153 2.506 . S
O181 C164 1.252 . S
O182 Gd153 2.435 . S
O182 C171 1.256 . S
O183 Gd152 2.327 . S
O183 Gd153 2.717 . S
O183 C171 1.257 . S
H184 C157 0.930 . S
H185 C158 0.931 . S
H186 C160 0.931 . S
H187 C161 0.931 . S
H188 C166 0.930 . S
H189 C167 0.931 . S
H190 C169 0.931 . S
H191 C170 0.931 . S
Gd192 C195 2.818 . S
Gd192 O212 2.377 . S
Gd192 O214 2.448 . S
Gd192 O215 2.506 . S
Gd192 O216 2.435 1_455 S
Gd192 O217 2.717 1_455 S
Gd192 O219 2.395 1_455 S
Gd192 O223 2.327 1_554 S
Gd193 C204 2.819 1_455 S
Gd193 O213 2.395 1_556 S
Gd193 O217 2.327 1_456 S
Gd193 O218 2.377 1_455 S
Gd193 O220 2.449 1_455 S
Gd193 O221 2.506 1_455 S
Gd193 O222 2.435 . S
Gd193 O223 2.717 . S
C194 O212 1.240 . S
C194 O213 1.240 . S
C195 Gd192 2.818 . S
C195 C196 1.510 . S
C195 O214 1.249 . S
C195 O215 1.252 . S
C196 C195 1.510 . S
C196 C197 1.404 . S
C196 C198 1.352 . S
C197 C196 1.404 . S
C197 C201 1.389 . S
C197 H224 0.930 . S
C198 C196 1.352 . S
C198 C200 1.374 . S
C198 H225 0.931 . S
C199 C200 1.359 . S
C199 C201 1.364 . S
C200 C198 1.374 . S
C200 C199 1.359 . S
C200 H226 0.931 . S
C201 C197 1.389 . S
C201 C199 1.364 . S
C201 H227 0.931 . S
C202 O216 1.256 . S
C202 O217 1.257 . S
C203 O218 1.240 . S
C203 O219 1.240 1_556 S
C204 Gd193 2.819 1_655 S
C204 C205 1.510 . S
C204 O220 1.249 . S
C204 O221 1.252 . S
C205 C204 1.510 . S
C205 C206 1.404 . S
C205 C207 1.352 . S
C206 C205 1.404 . S
C206 C210 1.389 . S
C206 H228 0.930 . S
C207 C205 1.352 . S
C207 C209 1.374 . S
C207 H229 0.931 . S
C208 C209 1.359 . S
C208 C210 1.364 . S
C209 C207 1.374 . S
C209 C208 1.359 . S
C209 H230 0.931 . S
C210 C206 1.389 . S
C210 C208 1.364 . S
C210 H231 0.931 . S
C211 O222 1.256 . S
C211 O223 1.257 . S
O212 Gd192 2.377 . S
O212 C194 1.240 . S
O213 Gd193 2.395 1_554 S
O213 C194 1.240 . S
O214 Gd192 2.448 . S
O214 C195 1.249 . S
O215 Gd192 2.506 . S
O215 C195 1.252 . S
O216 Gd192 2.435 1_655 S
O216 C202 1.256 . S
O217 Gd192 2.717 1_655 S
O217 Gd193 2.327 1_654 S
O217 C202 1.257 . S
O218 Gd193 2.377 1_655 S
O218 C203 1.240 . S
O219 Gd192 2.395 1_655 S
O219 C203 1.240 1_554 S
O220 Gd193 2.449 1_655 S
O220 C204 1.249 . S
O221 Gd193 2.506 1_655 S
O221 C204 1.252 . S
O222 Gd193 2.435 . S
O222 C211 1.256 . S
O223 Gd192 2.327 1_556 S
O223 Gd193 2.717 . S
O223 C211 1.257 . S
H224 C197 0.930 . S
H225 C198 0.931 . S
H226 C200 0.931 . S
H227 C201 0.931 . S
H228 C206 0.930 . S
H229 C207 0.931 . S
H230 C209 0.931 . S
H231 C210 0.931 . S
C232 C233 1.363 . S
C232 C238 1.379 . S
C232 N240 1.356 . S
C233 C232 1.363 . S
C233 C239 1.363 . S
C234 C235 1.363 . S
C234 C239 1.379 . S
C234 N241 1.356 . S
C235 C234 1.363 . S
C235 C238 1.363 . S
N236 C238 1.356 . S
N236 H248 0.984 . S
N236 H249 0.985 . S
N237 C239 1.356 . S
N237 H242 0.984 . S
N237 H243 0.985 . S
C238 C232 1.379 . S
C238 C235 1.363 . S
C238 N236 1.356 . S
C239 C233 1.363 . S
C239 C234 1.379 . S
C239 N237 1.356 . S
N240 C232 1.356 . S
N240 H246 0.984 . S
N240 H247 0.984 . S
N241 C234 1.356 . S
N241 H244 0.984 . S
N241 H245 0.985 . S
H242 N237 0.984 . S
H243 N237 0.985 . S
H244 N241 0.984 . S
H245 N241 0.985 . S
H246 N240 0.984 . S
H247 N240 0.984 . S
H248 N236 0.984 . S
H249 N236 0.985 . S
C250 C251 1.363 . S
C250 C256 1.379 . S
C250 N258 1.356 . S
C251 C250 1.363 . S
C251 C257 1.363 . S
C252 C253 1.363 . S
C252 C257 1.379 . S
C252 N259 1.356 . S
C253 C252 1.363 . S
C253 C256 1.363 . S
N254 C256 1.356 . S
N254 H266 0.984 . S
N254 H267 0.985 . S
N255 C257 1.356 . S
N255 H260 0.984 . S
N255 H261 0.985 . S
C256 C250 1.379 . S
C256 C253 1.363 . S
C256 N254 1.356 . S
C257 C251 1.363 . S
C257 C252 1.379 . S
C257 N255 1.356 . S
N258 C250 1.356 . S
N258 H264 0.984 . S
N258 H265 0.984 . S
N259 C252 1.356 . S
N259 H262 0.984 . S
N259 H263 0.985 . S
H260 N255 0.984 . S
H261 N255 0.985 . S
H262 N259 0.984 . S
H263 N259 0.985 . S
H264 N258 0.984 . S
H265 N258 0.984 . S
H266 N254 0.984 . S
H267 N254 0.985 . S
C268 C269 1.363 . S
C268 C274 1.379 . S
C268 N276 1.356 . S
C269 C268 1.363 . S
C269 C275 1.363 . S
C270 C271 1.363 . S
C270 C275 1.379 . S
C270 N277 1.356 . S
C271 C270 1.363 . S
C271 C274 1.363 . S
N272 C274 1.356 . S
N272 H284 0.984 . S
N272 H285 0.985 . S
N273 C275 1.356 . S
N273 H278 0.984 . S
N273 H279 0.985 . S
C274 C268 1.379 . S
C274 C271 1.363 . S
C274 N272 1.356 . S
C275 C269 1.363 . S
C275 C270 1.379 . S
C275 N273 1.356 . S
N276 C268 1.356 . S
N276 H282 0.984 . S
N276 H283 0.984 . S
N277 C270 1.356 . S
N277 H280 0.984 . S
N277 H281 0.985 . S
H278 N273 0.984 . S
H279 N273 0.985 . S
H280 N277 0.984 . S
H281 N277 0.985 . S
H282 N276 0.984 . S
H283 N276 0.984 . S
H284 N272 0.984 . S
H285 N272 0.985 . S
C286 C287 1.363 . S
C286 C292 1.379 . S
C286 N294 1.356 . S
C287 C286 1.363 . S
C287 C293 1.363 . S
C288 C289 1.363 . S
C288 C293 1.379 . S
C288 N295 1.356 . S
C289 C288 1.363 . S
C289 C292 1.363 . S
N290 C292 1.356 . S
N290 H302 0.984 . S
N290 H303 0.985 . S
N291 C293 1.356 . S
N291 H296 0.984 . S
N291 H297 0.985 . S
C292 C286 1.379 . S
C292 C289 1.363 . S
C292 N290 1.356 . S
C293 C287 1.363 . S
C293 C288 1.379 . S
C293 N291 1.356 . S
N294 C286 1.356 . S
N294 H300 0.984 . S
N294 H301 0.984 . S
N295 C288 1.356 . S
N295 H298 0.984 . S
N295 H299 0.985 . S
H296 N291 0.984 . S
H297 N291 0.985 . S
H298 N295 0.984 . S
H299 N295 0.985 . S
H300 N294 0.984 . S
H301 N294 0.984 . S
H302 N290 0.984 . S
H303 N290 0.985 . S
C304 C305 1.363 . S
C304 C310 1.379 . S
C304 N312 1.356 . S
C305 C304 1.363 . S
C305 C311 1.363 . S
C306 C307 1.363 . S
C306 C311 1.379 . S
C306 N313 1.356 . S
C307 C306 1.363 . S
C307 C310 1.363 . S
N308 C310 1.356 . S
N308 H320 0.984 . S
N308 H321 0.985 . S
N309 C311 1.356 . S
N309 H314 0.984 . S
N309 H315 0.985 . S
C310 C304 1.379 . S
C310 C307 1.363 . S
C310 N308 1.356 . S
C311 C305 1.363 . S
C311 C306 1.379 . S
C311 N309 1.356 . S
N312 C304 1.356 . S
N312 H318 0.984 . S
N312 H319 0.984 . S
N313 C306 1.356 . S
N313 H316 0.984 . S
N313 H317 0.985 . S
H314 N309 0.984 . S
H315 N309 0.985 . S
H316 N313 0.984 . S
H317 N313 0.985 . S
H318 N312 0.984 . S
H319 N312 0.984 . S
H320 N308 0.984 . S
H321 N308 0.985 . S
C322 C323 1.363 . S
C322 C328 1.379 . S
C322 N330 1.356 . S
C323 C322 1.363 . S
C323 C329 1.363 . S
C324 C325 1.363 . S
C324 C329 1.379 . S
C324 N331 1.356 . S
C325 C324 1.363 . S
C325 C328 1.363 . S
N326 C328 1.356 . S
N326 H338 0.984 . S
N326 H339 0.985 . S
N327 C329 1.356 . S
N327 H332 0.984 . S
N327 H333 0.985 . S
C328 C322 1.379 . S
C328 C325 1.363 . S
C328 N326 1.356 . S
C329 C323 1.363 . S
C329 C324 1.379 . S
C329 N327 1.356 . S
N330 C322 1.356 . S
N330 H336 0.984 . S
N330 H337 0.984 . S
N331 C324 1.356 . S
N331 H334 0.984 . S
N331 H335 0.985 . S
H332 N327 0.984 . S
H333 N327 0.985 . S
H334 N331 0.984 . S
H335 N331 0.985 . S
H336 N330 0.984 . S
H337 N330 0.984 . S
H338 N326 0.984 . S
H339 N326 0.985 . S
C340 C341 1.363 . S
C340 C346 1.379 . S
C340 N348 1.356 . S
C341 C340 1.363 . S
C341 C347 1.363 . S
C342 C343 1.363 . S
C342 C347 1.379 . S
C342 N349 1.356 . S
C343 C342 1.363 . S
C343 C346 1.363 . S
N344 C346 1.356 . S
N344 H356 0.984 1_556 S
N344 H357 0.985 1_556 S
N345 C347 1.356 . S
N345 H350 0.984 . S
N345 H351 0.985 . S
C346 C340 1.379 . S
C346 C343 1.363 . S
C346 N344 1.356 . S
C347 C341 1.363 . S
C347 C342 1.379 . S
C347 N345 1.356 . S
N348 C340 1.356 . S
N348 H354 0.984 . S
N348 H355 0.984 . S
N349 C342 1.356 . S
N349 H352 0.984 . S
N349 H353 0.985 . S
H350 N345 0.984 . S
H351 N345 0.985 . S
H352 N349 0.984 . S
H353 N349 0.985 . S
H354 N348 0.984 . S
H355 N348 0.984 . S
H356 N344 0.984 1_554 S
H357 N344 0.985 1_554 S
C358 C359 1.363 . S
C358 C364 1.379 . S
C358 N366 1.356 . S
C359 C358 1.363 . S
C359 C365 1.363 . S
C360 C361 1.363 . S
C360 C365 1.379 . S
C360 N367 1.356 . S
C361 C360 1.363 . S
C361 C364 1.363 . S
N362 C364 1.356 . S
N362 H374 0.984 . S
N362 H375 0.985 . S
N363 C365 1.356 . S
N363 H368 0.984 . S
N363 H369 0.985 . S
C364 C358 1.379 . S
C364 C361 1.363 . S
C364 N362 1.356 . S
C365 C359 1.363 . S
C365 C360 1.379 . S
C365 N363 1.356 . S
N366 C358 1.356 . S
N366 H372 0.984 . S
N366 H373 0.984 . S
N367 C360 1.356 . S
N367 H370 0.984 . S
N367 H371 0.985 . S
H368 N363 0.984 . S
H369 N363 0.985 . S
H370 N367 0.984 . S
H371 N367 0.985 . S
H372 N366 0.984 . S
H373 N366 0.984 . S
H374 N362 0.984 . S
H375 N362 0.985 . S
C376 C377 1.363 . S
C376 C382 1.379 . S
C376 N384 1.356 . S
C377 C376 1.363 . S
C377 C383 1.363 . S
C378 C379 1.363 . S
C378 C383 1.379 . S
C378 N385 1.356 . S
C379 C378 1.363 . S
C379 C382 1.363 . S
N380 C382 1.356 . S
N380 H392 0.984 . S
N380 H393 0.985 . S
N381 C383 1.356 . S
N381 H386 0.984 . S
N381 H387 0.985 . S
C382 C376 1.379 . S
C382 C379 1.363 . S
C382 N380 1.356 . S
C383 C377 1.363 . S
C383 C378 1.379 . S
C383 N381 1.356 . S
N384 C376 1.356 . S
N384 H390 0.984 . S
N384 H391 0.984 . S
N385 C378 1.356 . S
N385 H388 0.984 . S
N385 H389 0.985 . S
H386 N381 0.984 . S
H387 N381 0.985 . S
H388 N385 0.984 . S
H389 N385 0.985 . S
H390 N384 0.984 . S
H391 N384 0.984 . S
H392 N380 0.984 . S
H393 N380 0.985 . S
C394 C395 1.363 . S
C394 C400 1.379 . S
C394 N402 1.356 . S
C395 C394 1.363 . S
C395 C401 1.363 . S
C396 C397 1.363 . S
C396 C401 1.379 . S
C396 N403 1.356 . S
C397 C396 1.363 . S
C397 C400 1.363 . S
N398 C400 1.356 . S
N398 H410 0.984 . S
N398 H411 0.985 . S
N399 C401 1.356 . S
N399 H404 0.984 . S
N399 H405 0.985 . S
C400 C394 1.379 . S
C400 C397 1.363 . S
C400 N398 1.356 . S
C401 C395 1.363 . S
C401 C396 1.379 . S
C401 N399 1.356 . S
N402 C394 1.356 . S
N402 H408 0.984 . S
N402 H409 0.984 . S
N403 C396 1.356 . S
N403 H406 0.984 . S
N403 H407 0.985 . S
H404 N399 0.984 . S
H405 N399 0.985 . S
H406 N403 0.984 . S
H407 N403 0.985 . S
H408 N402 0.984 . S
H409 N402 0.984 . S
H410 N398 0.984 . S
H411 N398 0.985 . S
C412 C413 1.363 . S
C412 C418 1.379 . S
C412 N420 1.356 . S
C413 C412 1.363 . S
C413 C419 1.363 . S
C414 C415 1.363 . S
C414 C419 1.379 . S
C414 N421 1.356 . S
C415 C414 1.363 . S
C415 C418 1.363 . S
N416 C418 1.356 . S
N416 H428 0.984 . S
N416 H429 0.985 . S
N417 C419 1.356 . S
N417 H422 0.984 . S
N417 H423 0.985 . S
C418 C412 1.379 . S
C418 C415 1.363 . S
C418 N416 1.356 . S
C419 C413 1.363 . S
C419 C414 1.379 . S
C419 N417 1.356 . S
N420 C412 1.356 . S
N420 H426 0.984 . S
N420 H427 0.984 . S
N421 C414 1.356 . S
N421 H424 0.984 . S
N421 H425 0.985 . S
H422 N417 0.984 . S
H423 N417 0.985 . S
H424 N421 0.984 . S
H425 N421 0.985 . S
H426 N420 0.984 . S
H427 N420 0.984 . S
H428 N416 0.984 . S
H429 N416 0.985 . S
C430 C431 1.363 . S
C430 C436 1.379 . S
C430 N438 1.356 . S
C431 C430 1.363 . S
C431 C437 1.363 . S
C432 C433 1.363 . S
C432 C437 1.379 . S
C432 N439 1.356 . S
C433 C432 1.363 . S
C433 C436 1.363 . S
N434 C436 1.356 . S
N434 H446 0.984 . S
N434 H447 0.985 . S
N435 C437 1.356 . S
N435 H440 0.984 . S
N435 H441 0.985 . S
C436 C430 1.379 . S
C436 C433 1.363 . S
C436 N434 1.356 . S
C437 C431 1.363 . S
C437 C432 1.379 . S
C437 N435 1.356 . S
N438 C430 1.356 . S
N438 H444 0.984 . S
N438 H445 0.984 . S
N439 C432 1.356 . S
N439 H442 0.984 . S
N439 H443 0.985 . S
H440 N435 0.984 . S
H441 N435 0.985 . S
H442 N439 0.984 . S
H443 N439 0.985 . S
H444 N438 0.984 . S
H445 N438 0.984 . S
H446 N434 0.984 . S
H447 N434 0.985 . S
C448 C449 1.363 . S
C448 C454 1.379 . S
C448 N456 1.356 . S
C449 C448 1.363 . S
C449 C455 1.363 . S
C450 C451 1.363 . S
C450 C455 1.379 . S
C450 N457 1.356 . S
C451 C450 1.363 . S
C451 C454 1.363 . S
N452 C454 1.356 . S
N452 H464 0.984 . S
N452 H465 0.985 . S
N453 C455 1.356 . S
N453 H458 0.984 . S
N453 H459 0.985 . S
C454 C448 1.379 . S
C454 C451 1.363 . S
C454 N452 1.356 . S
C455 C449 1.363 . S
C455 C450 1.379 . S
C455 N453 1.356 . S
N456 C448 1.356 . S
N456 H462 0.984 . S
N456 H463 0.984 . S
N457 C450 1.356 . S
N457 H460 0.984 . S
N457 H461 0.985 . S
H458 N453 0.984 . S
H459 N453 0.985 . S
H460 N457 0.984 . S
H461 N457 0.985 . S
H462 N456 0.984 . S
H463 N456 0.984 . S
H464 N452 0.984 . S
H465 N452 0.985 . S
C466 C467 1.363 . S
C466 C472 1.379 . S
C466 N474 1.356 . S
C467 C466 1.363 . S
C467 C473 1.363 . S
C468 C469 1.363 . S
C468 C473 1.379 . S
C468 N475 1.356 . S
C469 C468 1.363 . S
C469 C472 1.363 . S
N470 C472 1.356 . S
N470 H482 0.984 . S
N470 H483 0.985 . S
N471 C473 1.356 . S
N471 H476 0.984 . S
N471 H477 0.985 . S
C472 C466 1.379 . S
C472 C469 1.363 . S
C472 N470 1.356 . S
C473 C467 1.363 . S
C473 C468 1.379 . S
C473 N471 1.356 . S
N474 C466 1.356 . S
N474 H480 0.984 . S
N474 H481 0.984 . S
N475 C468 1.356 . S
N475 H478 0.984 . S
N475 H479 0.985 . S
H476 N471 0.984 . S
H477 N471 0.985 . S
H478 N475 0.984 . S
H479 N475 0.985 . S
H480 N474 0.984 . S
H481 N474 0.984 . S
H482 N470 0.984 . S
H483 N470 0.985 . S
C484 C485 1.363 . S
C484 C490 1.379 . S
C484 N492 1.356 . S
C485 C484 1.363 . S
C485 C491 1.363 . S
C486 C487 1.363 . S
C486 C491 1.379 . S
C486 N493 1.356 . S
C487 C486 1.363 . S
C487 C490 1.363 . S
N488 C490 1.356 . S
N488 H500 0.984 . S
N488 H501 0.985 . S
N489 C491 1.356 . S
N489 H494 0.984 . S
N489 H495 0.985 . S
C490 C484 1.379 . S
C490 C487 1.363 . S
C490 N488 1.356 . S
C491 C485 1.363 . S
C491 C486 1.379 . S
C491 N489 1.356 . S
N492 C484 1.356 . S
N492 H498 0.984 . S
N492 H499 0.984 . S
N493 C486 1.356 . S
N493 H496 0.984 . S
N493 H497 0.985 . S
H494 N489 0.984 . S
H495 N489 0.985 . S
H496 N493 0.984 . S
H497 N493 0.985 . S
H498 N492 0.984 . S
H499 N492 0.984 . S
H500 N488 0.984 . S
H501 N488 0.985 . S
C502 C503 1.363 . S
C502 C508 1.379 . S
C502 N510 1.356 . S
C503 C502 1.363 . S
C503 C509 1.363 . S
C504 C505 1.363 . S
C504 C509 1.379 . S
C504 N511 1.356 . S
C505 C504 1.363 . S
C505 C508 1.363 . S
N506 C508 1.356 . S
N506 H518 0.984 . S
N506 H519 0.985 . S
N507 C509 1.356 . S
N507 H512 0.984 . S
N507 H513 0.985 . S
C508 C502 1.379 . S
C508 C505 1.363 . S
C508 N506 1.356 . S
C509 C503 1.363 . S
C509 C504 1.379 . S
C509 N507 1.356 . S
N510 C502 1.356 . S
N510 H516 0.984 . S
N510 H517 0.984 . S
N511 C504 1.356 . S
N511 H514 0.984 . S
N511 H515 0.985 . S
H512 N507 0.984 . S
H513 N507 0.985 . S
H514 N511 0.984 . S
H515 N511 0.985 . S
H516 N510 0.984 . S
H517 N510 0.984 . S
H518 N506 0.984 . S
H519 N506 0.985 . S
C520 C521 1.363 . S
C520 C526 1.379 . S
C520 N528 1.356 . S
C521 C520 1.363 . S
C521 C527 1.363 . S
C522 C523 1.363 . S
C522 C527 1.379 . S
C522 N529 1.356 . S
C523 C522 1.363 . S
C523 C526 1.363 . S
N524 C526 1.356 . S
N524 H536 0.984 . S
N524 H537 0.985 . S
N525 C527 1.356 . S
N525 H530 0.984 . S
N525 H531 0.985 . S
C526 C520 1.379 . S
C526 C523 1.363 . S
C526 N524 1.356 . S
C527 C521 1.363 . S
C527 C522 1.379 . S
C527 N525 1.356 . S
N528 C520 1.356 . S
N528 H534 0.984 . S
N528 H535 0.984 . S
N529 C522 1.356 . S
N529 H532 0.984 . S
N529 H533 0.985 . S
H530 N525 0.984 . S
H531 N525 0.985 . S
H532 N529 0.984 . S
H533 N529 0.985 . S
H534 N528 0.984 . S
H535 N528 0.984 . S
H536 N524 0.984 . S
H537 N524 0.985 . S
C538 C539 1.363 . S
C538 C544 1.379 . S
C538 N546 1.356 . S
C539 C538 1.363 . S
C539 C545 1.363 . S
C540 C541 1.363 . S
C540 C545 1.379 . S
C540 N547 1.356 . S
C541 C540 1.363 . S
C541 C544 1.363 . S
N542 C544 1.356 . S
N542 H554 0.984 1_655 S
N542 H555 0.985 . S
N543 C545 1.356 . S
N543 H548 0.984 . S
N543 H549 0.985 . S
C544 C538 1.379 . S
C544 C541 1.363 . S
C544 N542 1.356 . S
C545 C539 1.363 . S
C545 C540 1.379 . S
C545 N543 1.356 . S
N546 C538 1.356 . S
N546 H552 0.984 . S
N546 H553 0.984 . S
N547 C540 1.356 . S
N547 H550 0.984 1_545 S
N547 H551 0.985 . S
H548 N543 0.984 . S
H549 N543 0.985 . S
H550 N547 0.984 1_565 S
H551 N547 0.985 . S
H552 N546 0.984 . S
H553 N546 0.984 . S
H554 N542 0.984 1_455 S
H555 N542 0.985 . S
C556 C557 1.363 . S
C556 C562 1.379 . S
C556 N564 1.356 . S
C557 C556 1.363 . S
C557 C563 1.363 . S
C558 C559 1.363 . S
C558 C563 1.379 . S
C558 N565 1.356 . S
C559 C558 1.363 . S
C559 C562 1.363 . S
N560 C562 1.356 . S
N560 H572 0.984 . S
N560 H573 0.985 . S
N561 C563 1.356 . S
N561 H566 0.984 . S
N561 H567 0.985 . S
C562 C556 1.379 . S
C562 C559 1.363 . S
C562 N560 1.356 . S
C563 C557 1.363 . S
C563 C558 1.379 . S
C563 N561 1.356 . S
N564 C556 1.356 . S
N564 H570 0.984 . S
N564 H571 0.984 . S
N565 C558 1.356 . S
N565 H568 0.984 . S
N565 H569 0.985 . S
H566 N561 0.984 . S
H567 N561 0.985 . S
H568 N565 0.984 . S
H569 N565 0.985 . S
H570 N564 0.984 . S
H571 N564 0.984 . S
H572 N560 0.984 . S
H573 N560 0.985 . S
C574 C575 1.363 . S
C574 C580 1.379 . S
C574 N582 1.356 . S
C575 C574 1.363 . S
C575 C581 1.363 . S
C576 C577 1.363 . S
C576 C581 1.379 . S
C576 N583 1.356 . S
C577 C576 1.363 . S
C577 C580 1.363 . S
N578 C580 1.356 . S
N578 H590 0.984 . S
N578 H591 0.985 . S
N579 C581 1.356 . S
N579 H584 0.984 . S
N579 H585 0.985 . S
C580 C574 1.379 . S
C580 C577 1.363 . S
C580 N578 1.356 . S
C581 C575 1.363 . S
C581 C576 1.379 . S
C581 N579 1.356 . S
N582 C574 1.356 . S
N582 H588 0.984 . S
N582 H589 0.984 . S
N583 C576 1.356 . S
N583 H586 0.984 . S
N583 H587 0.985 . S
H584 N579 0.984 . S
H585 N579 0.985 . S
H586 N583 0.984 . S
H587 N583 0.985 . S
H588 N582 0.984 . S
H589 N582 0.984 . S
H590 N578 0.984 . S
H591 N578 0.985 . S
C592 C593 1.363 . S
C592 C598 1.379 . S
C592 N600 1.356 . S
C593 C592 1.363 . S
C593 C599 1.363 . S
C594 C595 1.363 . S
C594 C599 1.379 . S
C594 N601 1.356 . S
C595 C594 1.363 . S
C595 C598 1.363 . S
N596 C598 1.356 . S
N596 H608 0.984 . S
N596 H609 0.985 . S
N597 C599 1.356 . S
N597 H602 0.984 . S
N597 H603 0.985 . S
C598 C592 1.379 . S
C598 C595 1.363 . S
C598 N596 1.356 . S
C599 C593 1.363 . S
C599 C594 1.379 . S
C599 N597 1.356 . S
N600 C592 1.356 . S
N600 H606 0.984 . S
N600 H607 0.984 . S
N601 C594 1.356 . S
N601 H604 0.984 . S
N601 H605 0.985 . S
H602 N597 0.984 . S
H603 N597 0.985 . S
H604 N601 0.984 . S
H605 N601 0.985 . S
H606 N600 0.984 . S
H607 N600 0.984 . S
H608 N596 0.984 . S
H609 N596 0.985 . S
C610 C611 1.363 . S
C610 C616 1.379 . S
C610 N618 1.356 . S
C611 C610 1.363 . S
C611 C617 1.363 . S
C612 C613 1.363 . S
C612 C617 1.379 . S
C612 N619 1.356 . S
C613 C612 1.363 . S
C613 C616 1.363 . S
N614 C616 1.356 . S
N614 H626 0.984 . S
N614 H627 0.985 . S
N615 C617 1.356 . S
N615 H620 0.984 . S
N615 H621 0.985 . S
C616 C610 1.379 . S
C616 C613 1.363 . S
C616 N614 1.356 . S
C617 C611 1.363 . S
C617 C612 1.379 . S
C617 N615 1.356 . S
N618 C610 1.356 . S
N618 H624 0.984 . S
N618 H625 0.984 . S
N619 C612 1.356 . S
N619 H622 0.984 . S
N619 H623 0.985 . S
H620 N615 0.984 . S
H621 N615 0.985 . S
H622 N619 0.984 . S
H623 N619 0.985 . S
H624 N618 0.984 . S
H625 N618 0.984 . S
H626 N614 0.984 . S
H627 N614 0.985 . S
C628 C629 1.363 . S
C628 C634 1.379 . S
C628 N636 1.356 . S
C629 C628 1.363 . S
C629 C635 1.363 . S
C630 C631 1.363 . S
C630 C635 1.379 . S
C630 N637 1.356 . S
C631 C630 1.363 . S
C631 C634 1.363 . S
N632 C634 1.356 . S
N632 H644 0.984 . S
N632 H645 0.985 . S
N633 C635 1.356 . S
N633 H638 0.984 . S
N633 H639 0.985 . S
C634 C628 1.379 . S
C634 C631 1.363 . S
C634 N632 1.356 . S
C635 C629 1.363 . S
C635 C630 1.379 . S
C635 N633 1.356 . S
N636 C628 1.356 . S
N636 H642 0.984 . S
N636 H643 0.984 . S
N637 C630 1.356 . S
N637 H640 0.984 . S
N637 H641 0.985 . S
H638 N633 0.984 . S
H639 N633 0.985 . S
H640 N637 0.984 . S
H641 N637 0.985 . S
H642 N636 0.984 . S
H643 N636 0.984 . S
H644 N632 0.984 . S
H645 N632 0.985 . S
C646 C647 1.363 . S
C646 C652 1.379 . S
C646 N654 1.356 . S
C647 C646 1.363 . S
C647 C653 1.363 . S
C648 C649 1.363 . S
C648 C653 1.379 . S
C648 N655 1.356 . S
C649 C648 1.363 . S
C649 C652 1.363 . S
N650 C652 1.356 . S
N650 H662 0.984 . S
N650 H663 0.985 . S
N651 C653 1.356 . S
N651 H656 0.984 . S
N651 H657 0.985 . S
C652 C646 1.379 . S
C652 C649 1.363 . S
C652 N650 1.356 . S
C653 C647 1.363 . S
C653 C648 1.379 . S
C653 N651 1.356 . S
N654 C646 1.356 . S
N654 H660 0.984 . S
N654 H661 0.984 . S
N655 C648 1.356 . S
N655 H658 0.984 . S
N655 H659 0.985 . S
H656 N651 0.984 . S
H657 N651 0.985 . S
H658 N655 0.984 . S
H659 N655 0.985 . S
H660 N654 0.984 . S
H661 N654 0.984 . S
H662 N650 0.984 . S
H663 N650 0.985 . S
C233 C5 1.026 . S
C235 C79 1.043 . S
C251 C14 1.025 . S
C253 C128 1.034 . S
C271 C154 2.505 . S
C269 C25 2.551 . S
C287 C34 2.521 . S
C289 C202 2.470 . S
C307 C114 2.007 . S
C305 C7 1.858 . S
C325 C82 0.800 . S
C323 C13 0.801 . S
C343 C203 1.955 . S
C341 C23 1.998 . S
C361 C171 1.782 . S
C359 C31 1.804 . S
C377 C4 1.388 . S
C379 C199 1.444 . S
C397 C131 2.348 . S
C395 C22 2.432 . S
C413 C32 2.371 . S
C415 C83 2.362 . S
C431 C16 1.104 . S
C433 C168 1.128 . S
C451 C88 1.034 . S
C449 C41 1.014 . S
C467 C50 1.033 . S
C469 C119 1.038 . S
C485 C61 2.545 . S
C487 C163 2.499 . S
C503 C67 2.529 . S
C505 C211 2.478 . S
C521 C40 1.876 . S
C523 C123 2.021 . S
C541 C91 0.779 . S
C539 C52 0.779 . S
C559 C194 1.960 . S
C557 C59 2.006 . S
C577 C162 1.782 . S
C575 C70 1.799 . S
C593 C43 1.380 . S
C595 C208 1.440 . S
C613 C122 2.357 . S
C611 C58 2.442 . S
C631 C74 2.346 . S
C629 C68 2.353 . S
C647 C49 1.114 . S
C649 C159 1.132 . S
