# Generated by pormake.
# Topology anh, (6,3)-cn, num edge types: 1
# Building blocks:
#     Node 0, Type 0, BuildingBlock: BETFEN_clean_sbu_0, # of connection points: 6
#     Node 1, Type 0, BuildingBlock: BETFEN_clean_sbu_0, # of connection points: 6
#     Node 2, Type 0, BuildingBlock: BETFEN_clean_sbu_0, # of connection points: 6
#     Node 3, Type 1, BuildingBlock: KAKCAD_clean_linker_0, # of connection points: 3
#     Node 4, Type 1, BuildingBlock: KAKCAD_clean_linker_0, # of connection points: 3
#     Node 5, Type 1, BuildingBlock: KAKCAD_clean_linker_0, # of connection points: 3
#     Node 6, Type 1, BuildingBlock: KAKCAD_clean_linker_0, # of connection points: 3
#     Node 7, Type 1, BuildingBlock: KAKCAD_clean_linker_0, # of connection points: 3
#     Node 8, Type 1, BuildingBlock: KAKCAD_clean_linker_0, # of connection points: 3
#     Edge 9, Type (0, 1), BuildingBlock: UVAHIK_clean_linker_0, # of connection points: 2
#     Edge 10, Type (0, 1), BuildingBlock: UVAHIK_clean_linker_0, # of connection points: 2
#     Edge 11, Type (0, 1), BuildingBlock: UVAHIK_clean_linker_0, # of connection points: 2
#     Edge 12, Type (0, 1), BuildingBlock: UVAHIK_clean_linker_0, # of connection points: 2
#     Edge 13, Type (0, 1), BuildingBlock: UVAHIK_clean_linker_0, # of connection points: 2
#     Edge 14, Type (0, 1), BuildingBlock: UVAHIK_clean_linker_0, # of connection points: 2
#     Edge 15, Type (0, 1), BuildingBlock: UVAHIK_clean_linker_0, # of connection points: 2
#     Edge 16, Type (0, 1), BuildingBlock: UVAHIK_clean_linker_0, # of connection points: 2
#     Edge 17, Type (0, 1), BuildingBlock: UVAHIK_clean_linker_0, # of connection points: 2
#     Edge 18, Type (0, 1), BuildingBlock: UVAHIK_clean_linker_0, # of connection points: 2
#     Edge 19, Type (0, 1), BuildingBlock: UVAHIK_clean_linker_0, # of connection points: 2
#     Edge 20, Type (0, 1), BuildingBlock: UVAHIK_clean_linker_0, # of connection points: 2
#     Edge 21, Type (0, 1), BuildingBlock: UVAHIK_clean_linker_0, # of connection points: 2
#     Edge 22, Type (0, 1), BuildingBlock: UVAHIK_clean_linker_0, # of connection points: 2
#     Edge 23, Type (0, 1), BuildingBlock: UVAHIK_clean_linker_0, # of connection points: 2
#     Edge 24, Type (0, 1), BuildingBlock: UVAHIK_clean_linker_0, # of connection points: 2
#     Edge 25, Type (0, 1), BuildingBlock: UVAHIK_clean_linker_0, # of connection points: 2
#     Edge 26, Type (0, 1), BuildingBlock: UVAHIK_clean_linker_0, # of connection points: 2
# Relax obj value: 0.165
# Max RMSD: 0.198
# Mean RMSD: 0.150
data_MOF--net-anh--node1-BETFEN_clean_sbu_0--node2-KAKCAD_clean_linker_0--edge1-UVAHIK_clean_linker_0
_symmetry_space_group_name_H-M    P1
_symmetry_Int_Tables_number       1
_symmetry_cell_setting            triclinic
loop_
_symmetry_equiv_pos_as_xyz
'x, y, z'
_cell_length_a     44.52998
_cell_length_b     45.864253
_cell_length_c     82.651951
_cell_angle_alpha  90.603028
_cell_angle_beta   92.116774
_cell_angle_gamma 108.24258
loop_
_atom_site_label
_atom_site_type_symbol
_atom_site_fract_x
_atom_site_fract_y
_atom_site_fract_z
_atom_type_partial_charge
Pr0 Pr 0.02302 0.53521 0.15627 0.0
Pr1 Pr 0.04159 0.60234 0.14871 0.0
C2 C 0.99752 0.47857 0.16809 0.0
C3 C 0.96659 0.45452 0.16948 0.0
C4 C 0.96214 0.42512 0.16284 0.0
C5 C 0.93368 0.40155 0.16459 0.0
C6 C 0.90903 0.40676 0.17317 0.0
C7 C 0.91339 0.43642 0.17961 0.0
C8 C 0.94182 0.46006 0.17776 0.0
C9 C 0.03075 0.54712 0.12345 0.0
C10 C 0.96642 0.5679 0.14887 0.0
C11 C 0.06878 0.66 0.13852 0.0
C12 C 0.09926 0.68397 0.14195 0.0
C13 C 0.12262 0.67796 0.152 0.0
C14 C 0.15123 0.70105 0.15565 0.0
C15 C 0.15702 0.73061 0.14934 0.0
C16 C 0.13354 0.73636 0.13914 0.0
C17 C 0.10492 0.71322 0.13549 0.0
C18 C 0.03508 0.58999 0.18163 0.0
C19 C 0.09806 0.56877 0.15366 0.0
O20 O 1.00295 0.50384 0.17681 0.0
O21 O 1.00886 0.48334 0.15365 0.0
O22 O 1.01654 0.55992 0.13274 0.0
O23 O 0.04083 0.52696 0.1309 0.0
O24 O 0.9879 0.59061 0.14214 0.0
O25 O 0.9745 0.54618 0.1566 0.0
O26 O 0.06994 0.63554 0.13063 0.0
O27 O 0.04964 0.65353 0.15051 0.0
O28 O 0.04893 0.57753 0.17201 0.0
O29 O 0.02487 0.61028 0.17447 0.0
O30 O 0.07748 0.54596 0.16083 0.0
O31 O 0.08917 0.59068 0.1467 0.0
H32 H 0.98085 0.42027 0.15639 0.0
H33 H 0.93103 0.37922 0.1592 0.0
H34 H 0.89515 0.44125 0.18644 0.0
H35 H 0.9445 0.48252 0.18301 0.0
H36 H 0.11856 0.6555 0.15715 0.0
H37 H 0.16853 0.69589 0.16371 0.0
H38 H 0.13735 0.75871 0.13391 0.0
H39 H 0.08714 0.71822 0.12769 0.0
Pr40 Pr 0.56644 0.06002 0.51153 0.0
Pr41 Pr 0.49601 0.03933 0.51608 0.0
C42 C 0.62588 0.08651 0.50191 0.0
C43 C 0.64904 0.11713 0.49981 0.0
C44 C 0.68059 0.1225 0.50513 0.0
C45 C 0.70331 0.15092 0.50282 0.0
C46 C 0.695 0.17461 0.49502 0.0
C47 C 0.66315 0.16929 0.48992 0.0
C48 C 0.64038 0.14086 0.49233 0.0
C49 C 0.54961 0.05031 0.5436 0.0
C50 C 0.52989 0.11373 0.51618 0.0
C51 C 0.43613 1.01137 0.52467 0.0
C52 C 0.41246 0.98124 0.52123 0.0
C53 C 0.41955 0.95953 0.51128 0.0
C54 C 0.39673 0.93118 0.50766 0.0
C55 C 0.36636 0.92402 0.51393 0.0
C56 C 0.35954 0.94584 0.52404 0.0
C57 C 0.38242 0.97421 0.52765 0.0
C58 C 0.51233 0.04771 0.48381 0.0
C59 C 0.53344 0.98555 0.51324 0.0
O60 O 0.60104 0.07815 0.49191 0.0
O61 O 0.6195 0.07796 0.51677 0.0
O62 O 0.53726 0.0639 0.53343 0.0
O63 O 0.57242 0.04224 0.53755 0.0
O64 O 0.50574 0.0919 0.52183 0.0
O65 O 0.55385 0.10676 0.50993 0.0
O66 O 0.46101 1.01129 0.53358 0.0
O67 O 0.44317 1.02963 0.51238 0.0
O68 O 0.52501 0.03461 0.49411 0.0
O69 O 0.4897 0.05591 0.48991 0.0
O70 O 0.55853 1.00715 0.50827 0.0
O71 O 0.50834 0.99255 0.51793 0.0
H72 H 0.68773 0.10457 0.51101 0.0
H73 H 0.7274 0.15432 0.50721 0.0
H74 H 0.65589 0.18683 0.48374 0.0
H75 H 0.61611 0.13736 0.48819 0.0
H76 H 0.44265 0.96466 0.50617 0.0
H77 H 0.40269 0.91515 0.49967 0.0
H78 H 0.33657 0.94095 0.52925 0.0
H79 H 0.3766 0.99071 0.53539 0.0
Pr80 Pr 0.53351 0.5447 0.81642 0.0
Pr81 Pr 0.55901 0.61585 0.82913 0.0
C82 C 0.52032 0.49212 0.79932 0.0
C83 C 0.52457 0.46255 0.80357 0.0
C84 C 0.51701 0.4505 0.819 0.0
C85 C 0.52319 0.4237 0.82352 0.0
C86 C 0.53731 0.40853 0.81277 0.0
C87 C 0.54497 0.42062 0.79734 0.0
C88 C 0.53858 0.44743 0.79277 0.0
C89 C 0.53793 0.54823 0.8504 0.0
C90 C 0.61108 0.57961 0.82554 0.0
C91 C 0.56593 0.66858 0.84527 0.0
C92 C 0.54227 0.68111 0.85214 0.0
C93 C 0.51725 0.68441 0.84228 0.0
C94 C 0.49366 0.69416 0.84891 0.0
C95 C 0.49419 0.70056 0.86562 0.0
C96 C 0.51929 0.69733 0.87552 0.0
C97 C 0.54313 0.68766 0.86882 0.0
C98 C 0.56169 0.60481 0.79606 0.0
C99 C 0.48078 0.58047 0.82223 0.0
O100 O 0.54652 0.51489 0.79768 0.0
O101 O 0.49887 0.49991 0.80722 0.0
O102 O 0.54449 0.56961 0.84057 0.0
O103 O 0.52878 0.52216 0.84247 0.0
O104 O 0.60478 0.60226 0.83329 0.0
O105 O 0.58922 0.55823 0.81685 0.0
O106 O 0.56941 0.6444 0.8524 0.0
O107 O 0.56593 0.66671 0.82942 0.0
O108 O 0.53931 0.59121 0.80489 0.0
O109 O 0.58337 0.62647 0.80411 0.0
O110 O 0.48638 0.55702 0.8149 0.0
O111 O 0.50359 0.60346 0.82926 0.0
H112 H 0.50673 0.462 0.8277 0.0
H113 H 0.51739 0.41512 0.83554 0.0
H114 H 0.55562 0.40919 0.78878 0.0
H115 H 0.54491 0.45657 0.78089 0.0
H116 H 0.51562 0.67925 0.82939 0.0
H117 H 0.47523 0.69714 0.8408 0.0
H118 H 0.52038 0.702 0.88843 0.0
H119 H 0.56201 0.68491 0.8767 0.0
C120 C 0.54779 0.08017 0.30337 0.0
C121 C 0.54302 0.05183 0.31092 0.0
C122 C 0.54736 0.08191 0.28649 0.0
C123 C 0.54214 0.05534 0.27674 0.0
C124 C 0.5377 1.02704 0.28428 0.0
C125 C 0.53813 1.02531 0.30116 0.0
C126 C 0.54099 0.05708 0.25877 0.0
C127 C 0.56265 0.0813 0.25095 0.0
C128 C 0.56164 0.08325 0.23399 0.0
C129 C 0.53853 0.06052 0.22477 0.0
C130 C 0.51655 0.03611 0.23239 0.0
C131 C 0.51803 0.03465 0.24937 0.0
C132 C 0.49149 1.01235 0.2228 0.0
C133 C 0.47392 1.02067 0.21021 0.0
C134 C 0.48397 0.98119 0.22673 0.0
C135 C 0.45897 0.95898 0.21855 0.0
C136 C 0.4408 0.96735 0.20626 0.0
C137 C 0.58515 0.10898 0.22606 0.0
C138 C 0.59229 0.13917 0.23223 0.0
C139 C 0.60164 0.10343 0.21281 0.0
C140 C 0.62548 0.12744 0.2062 0.0
C141 C 0.63307 0.15754 0.2126 0.0
C142 C 0.61589 0.16318 0.22555 0.0
C143 C 0.44878 0.99843 0.20206 0.0
H144 H 0.55112 0.10097 0.31051 0.0
H145 H 0.55042 0.104 0.28107 0.0
H146 H 0.53415 1.00622 0.27713 0.0
H147 H 0.53486 1.00318 0.30658 0.0
H148 H 0.58091 0.09832 0.25808 0.0
H149 H 0.50062 1.01642 0.25535 0.0
H150 H 0.53761 0.06186 0.21169 0.0
H151 H 0.479 0.04449 0.20696 0.0
H152 H 0.49726 0.97399 0.23626 0.0
H153 H 0.45333 0.93533 0.2222 0.0
H154 H 0.57979 0.14419 0.24235 0.0
H155 H 0.59677 0.08038 0.20785 0.0
H156 H 0.43546 1.0056 0.19254 0.0
H157 H 0.62131 0.18604 0.23084 0.0
H158 H 0.63812 0.12242 0.19613 0.0
C159 C 0.52535 0.57001 0.61389 0.0
C160 C 0.54831 0.56072 0.62265 0.0
C161 C 0.52348 0.56822 0.59696 0.0
C162 C 0.54424 0.55672 0.58844 0.0
C163 C 0.56693 0.54703 0.5972 0.0
C164 C 0.56909 0.54922 0.61413 0.0
C165 C 0.54249 0.55526 0.57045 0.0
C166 C 0.54132 0.58087 0.56167 0.0
C167 C 0.53987 0.58022 0.54465 0.0
C168 C 0.53882 0.55265 0.53628 0.0
C169 C 0.54042 0.52664 0.54507 0.0
C170 C 0.54237 0.52848 0.56208 0.0
C171 C 0.5411 0.49722 0.53728 0.0
C172 C 0.5131 0.47513 0.5313 0.0
C173 C 0.5686 0.48847 0.53902 0.0
C174 C 0.56799 0.45827 0.53543 0.0
C175 C 0.53967 0.43553 0.53019 0.0
C176 C 0.54081 0.60948 0.53644 0.0
C177 C 0.51374 0.61306 0.52851 0.0
C178 C 0.56714 0.63583 0.53938 0.0
C179 C 0.56619 0.66507 0.53505 0.0
C180 C 0.53869 0.66909 0.52775 0.0
C181 C 0.51267 0.64246 0.52424 0.0
C182 C 0.51239 0.44474 0.52777 0.0
H183 H 0.50917 0.57916 0.62013 0.0
H184 H 0.50565 0.57568 0.59052 0.0
H185 H 0.58336 0.53825 0.59093 0.0
H186 H 0.58688 0.54172 0.62057 0.0
H187 H 0.54209 0.6018 0.56815 0.0
H188 H 0.54336 0.50867 0.56887 0.0
H189 H 0.5378 0.55175 0.52317 0.0
H190 H 0.49132 0.48091 0.53024 0.0
H191 H 0.59042 0.50479 0.54385 0.0
H192 H 0.58973 0.45263 0.53713 0.0
H193 H 0.49284 0.59334 0.52636 0.0
H194 H 0.58813 0.63396 0.54577 0.0
H195 H 0.49001 0.42812 0.52391 0.0
H196 H 0.49116 0.64437 0.51847 0.0
H197 H 0.58662 0.68472 0.5382 0.0
C198 C 0.06808 0.58087 0.94241 0.0
C199 C 0.04095 0.56289 0.95004 0.0
C200 C 0.06903 0.58143 0.92554 0.0
C201 C 0.04306 0.56365 0.91578 0.0
C202 C 1.01614 0.54524 0.9234 0.0
C203 C 1.015 0.54504 0.94028 0.0
C204 C 0.04379 0.56491 0.89776 0.0
C205 C 0.07197 0.56805 0.88984 0.0
C206 C 0.07334 0.57083 0.87291 0.0
C207 C 0.04556 0.56956 0.86377 0.0
C208 C 1.01694 0.5656 0.87149 0.0
C209 C 1.01643 0.56363 0.88842 0.0
C210 C 0.98726 0.56411 0.86225 0.0
C211 C 0.98585 0.58789 0.85198 0.0
C212 C 0.95929 0.54027 0.86504 0.0
C213 C 0.93027 0.54077 0.85824 0.0
C214 C 0.92849 0.56531 0.84863 0.0
C215 C 0.104 0.57494 0.86508 0.0
C216 C 0.1324 0.59398 0.8725 0.0
C217 C 0.10549 0.55879 0.85073 0.0
C218 C 0.13479 0.56081 0.84431 0.0
C219 C 0.16326 0.57908 0.85208 0.0
C220 C 0.16157 0.59591 0.86615 0.0
C221 C 0.95667 0.5886 0.84532 0.0
H222 H 0.08876 0.59453 0.94947 0.0
H223 H 0.09003 0.59624 0.92016 0.0
H224 H 0.99584 0.53086 0.91634 0.0
H225 H 0.99352 0.53118 0.94563 0.0
H226 H 0.09291 0.56783 0.89687 0.0
H227 H 0.99466 0.56197 0.89434 0.0
H228 H 0.04614 0.57168 0.85073 0.0
H229 H 1.00706 0.60662 0.84973 0.0
H230 H 0.95977 0.52165 0.8729 0.0
H231 H 0.90903 0.52262 0.86114 0.0
H232 H 0.13215 0.60714 0.88343 0.0
H233 H 0.08409 0.54383 0.84473 0.0
H234 H 0.95606 0.60769 0.83785 0.0
H235 H 0.18286 0.60995 0.87261 0.0
H236 H 0.13511 0.54785 0.83333 0.0
C237 C 0.99938 0.54748 0.36286 0.0
C238 C 0.02726 0.552 0.35442 0.0
C239 C 0.99999 0.54637 0.37977 0.0
C240 C 0.02854 0.54993 0.38861 0.0
C241 C 0.05637 0.55419 0.38016 0.0
C242 C 0.05572 0.55514 0.36326 0.0
C243 C 0.0294 0.54966 0.40659 0.0
C244 C 1.0059 0.52783 0.41481 0.0
C245 C 1.00654 0.52745 0.43182 0.0
C246 C 0.03105 0.54949 0.44067 0.0
C247 C 0.05473 0.57161 0.43262 0.0
C248 C 0.05369 0.57142 0.4156 0.0
C249 C 0.08033 0.59553 0.44176 0.0
C250 C 0.07338 0.61231 0.45463 0.0
C251 C 0.11174 0.60305 0.43696 0.0
C252 C 0.13547 0.62747 0.44444 0.0
C253 C 0.12839 0.64514 0.45688 0.0
C254 C 0.98185 0.50346 0.44015 0.0
C255 C 0.94986 0.49612 0.43501 0.0
C256 C 0.99021 0.48655 0.45265 0.0
C257 C 0.96717 0.46209 0.45943 0.0
C258 C 0.93527 0.45426 0.45399 0.0
C259 C 0.92682 0.47188 0.44188 0.0
C260 C 0.09715 0.63691 0.46209 0.0
H261 H 0.97702 0.5447 0.35639 0.0
H262 H 0.9782 0.54327 0.38593 0.0
H263 H 0.07868 0.55671 0.38663 0.0
H264 H 0.07766 0.55892 0.35713 0.0
H265 H 0.98751 0.5105 0.40791 0.0
H266 H 0.07139 0.58888 0.40933 0.0
H267 H 0.03169 0.54942 0.45379 0.0
H268 H 0.04934 0.60721 0.4585 0.0
H269 H 0.11791 0.5902 0.42726 0.0
H270 H 0.15938 0.63266 0.44038 0.0
H271 H 0.94268 0.50892 0.42549 0.0
H272 H 1.01469 0.49156 0.45679 0.0
H273 H 0.09077 0.65015 0.47152 0.0
H274 H 0.90252 0.4663 0.43732 0.0
H275 H 0.97437 0.44912 0.46885 0.0
C276 C 0.42619 0.97837 0.71342 0.0
C277 C 0.4571 0.98982 0.70789 0.0
C278 C 0.42088 0.97758 0.73003 0.0
C279 C 0.44637 0.98857 0.74137 0.0
C280 C 0.47727 0.99947 0.73582 0.0
C281 C 0.48258 1.00003 0.71929 0.0
C282 C 0.44104 0.98997 0.75894 0.0
C283 C 0.4209 0.96466 0.76677 0.0
C284 C 0.41719 0.96604 0.78354 0.0
C285 C 0.43412 0.99276 0.79243 0.0
C286 C 0.45378 1.01849 0.78479 0.0
C287 C 0.45683 1.01688 0.76798 0.0
C288 C 0.47082 0.04699 0.79436 0.0
C289 C 0.45707 0.05573 0.80789 0.0
C290 C 0.50064 0.06606 0.78991 0.0
C291 C 0.51545 0.09386 0.79819 0.0
C292 C 0.50119 0.10302 0.81139 0.0
C293 C 0.3976 0.93923 0.79235 0.0
C294 C 0.37839 0.94346 0.80471 0.0
C295 C 0.4013 0.91022 0.79004 0.0
C296 C 0.3884 0.88673 0.80081 0.0
C297 C 0.37157 0.89186 0.81406 0.0
C298 C 0.36554 0.92002 0.81548 0.0
C299 C 0.47226 0.08309 0.81642 0.0
H300 H 0.40612 0.97012 0.70491 0.0
H301 H 0.39682 0.96918 0.73399 0.0
H302 H 0.4974 1.00781 0.7443 0.0
H303 H 0.50664 1.00927 0.71542 0.0
H304 H 0.40858 0.94382 0.75989 0.0
H305 H 0.47117 0.03677 0.76176 0.0
H306 H 0.43264 0.99305 0.80548 0.0
H307 H 0.43404 0.04196 0.81168 0.0
H308 H 0.51248 0.05982 0.77986 0.0
H309 H 0.53753 0.10859 0.79379 0.0
H310 H 0.3747 0.96549 0.80658 0.0
H311 H 0.41612 0.90636 0.78068 0.0
H312 H 0.46083 0.08889 0.82676 0.0
H313 H 0.35226 0.92447 0.82542 0.0
H314 H 0.39376 0.86539 0.79945 0.0
C315 C 0.52382 0.53674 0.03243 0.0
C316 C 0.52353 0.56328 0.0242 0.0
C317 C 0.52423 0.53644 0.04934 0.0
C318 C 0.5236 0.56244 0.05826 0.0
C319 C 0.52273 0.58881 0.05004 0.0
C320 C 0.52309 0.58936 0.03312 0.0
C321 C 0.52445 0.56212 0.07614 0.0
C322 C 0.5498 0.5565 0.08464 0.0
C323 C 0.55118 0.55641 0.10165 0.0
C324 C 0.52608 0.56091 0.11015 0.0
C325 C 0.50029 0.56617 0.10169 0.0
C326 C 0.49999 0.56733 0.08471 0.0
C327 C 0.47294 0.56957 0.1103 0.0
C328 C 0.45452 0.54556 0.11954 0.0
C329 C 0.46334 0.59563 0.10799 0.0
C330 C 0.43533 0.59733 0.11443 0.0
C331 C 0.41577 0.57264 0.123 0.0
C332 C 0.57981 0.55314 0.11025 0.0
C333 C 0.59268 0.53032 0.10529 0.0
C334 C 0.59632 0.57477 0.12223 0.0
C335 C 0.62595 0.5746 0.12846 0.0
C336 C 0.63945 0.55255 0.12298 0.0
C337 C 0.62208 0.52993 0.11164 0.0
C338 C 0.42611 0.54695 0.12573 0.0
H339 H 0.52431 0.51643 0.02577 0.0
H340 H 0.52485 0.51585 0.05546 0.0
H341 H 0.52237 0.60914 0.05672 0.0
H342 H 0.52279 0.61004 0.02699 0.0
H343 H 0.56907 0.55327 0.07796 0.0
H344 H 0.48015 0.57128 0.07812 0.0
H345 H 0.52663 0.56043 0.12327 0.0
H346 H 0.46133 0.52508 0.12132 0.0
H347 H 0.4773 0.61451 0.10096 0.0
H348 H 0.42883 0.6179 0.11245 0.0
H349 H 0.58039 0.51329 0.09612 0.0
H350 H 0.58706 0.59274 0.12619 0.0
H351 H 0.4117 0.52729 0.13206 0.0
H352 H 0.63189 0.51276 0.10709 0.0
H353 H 0.63865 0.59216 0.13729 0.0
C354 C 0.15184 0.59065 0.14261 0.0
C355 C 0.13161 0.56976 0.15283 0.0
C356 C 0.18319 0.59129 0.14123 0.0
C357 C 0.23714 0.54464 0.14862 0.0
H358 H 0.30113 0.62176 0.1399 0.0
C359 C 0.3711 0.55851 0.14252 0.0
C360 C 0.38414 0.57314 0.12832 0.0
C361 C 0.34097 0.55821 0.14704 0.0
C362 C 0.28349 0.60006 0.14232 0.0
H363 H 0.12875 0.53347 0.16986 0.0
H364 H 0.18389 0.53518 0.16783 0.0
H365 H 0.24771 0.62131 0.14557 0.0
H366 H 0.37482 0.59848 0.10766 0.0
H367 H 0.32322 0.599 0.11595 0.0
H368 H 0.27349 0.52365 0.14556 0.0
C369 C 0.17527 0.55063 0.16057 0.0
C370 C 0.25277 0.59971 0.14548 0.0
C371 C 0.14367 0.54976 0.16182 0.0
C372 C 0.36623 0.58768 0.11889 0.0
C373 C 0.33644 0.58783 0.12357 0.0
C374 C 0.26808 0.54509 0.14569 0.0
C375 C 0.19546 0.57135 0.15019 0.0
C376 C 0.22892 0.57192 0.14831 0.0
C377 C 0.32342 0.57299 0.13763 0.0
C378 C 0.29139 0.57273 0.1422 0.0
H379 H 0.14336 0.60627 0.13539 0.0
H380 H 0.19759 0.60709 0.13282 0.0
H381 H 0.21947 0.52274 0.15055 0.0
H382 H 0.38421 0.54743 0.15025 0.0
H383 H 0.33155 0.54677 0.158 0.0
C384 C 0.71284 0.23237 0.49317 0.0
C385 C 0.7196 0.20444 0.49195 0.0
C386 C 0.73597 0.26024 0.49012 0.0
C387 C 0.82237 0.2964 0.48856 0.0
H388 H 0.80064 0.35559 0.46122 0.0
C389 C 0.91756 0.39908 0.4621 0.0
C390 C 0.91106 0.42698 0.46031 0.0
C391 C 0.8942 0.37283 0.46703 0.0
C392 C 0.80706 0.33959 0.4691 0.0
H393 H 0.75606 0.18417 0.48625 0.0
H394 H 0.79636 0.23272 0.48123 0.0
H395 H 0.75977 0.30831 0.46786 0.0
H396 H 0.87524 0.44943 0.46283 0.0
H397 H 0.83461 0.40378 0.47171 0.0
H398 H 0.86958 0.32761 0.4899 0.0
C399 C 0.77326 0.23305 0.48473 0.0
C400 C 0.7836 0.31243 0.47287 0.0
C401 C 0.75012 0.20519 0.48765 0.0
C402 C 0.88086 0.42817 0.4639 0.0
C403 C 0.85754 0.40196 0.46894 0.0
C404 C 0.84578 0.32364 0.48489 0.0
C405 C 0.76646 0.26089 0.4859 0.0
C406 C 0.79106 0.29039 0.48251 0.0
C407 C 0.86379 0.37384 0.4704 0.0
C408 C 0.83852 0.34548 0.47498 0.0
H409 H 0.68978 0.23277 0.49668 0.0
H410 H 0.7301 0.28136 0.49129 0.0
H411 H 0.82876 0.28007 0.49623 0.0
H412 H 0.94044 0.39728 0.45919 0.0
H413 H 0.89978 0.35152 0.46774 0.0
C414 C 0.47768 0.7371 0.88345 0.0
C415 C 0.46953 0.71246 0.87216 0.0
C416 C 0.45636 0.75315 0.88646 0.0
C417 C 0.3763 0.75827 0.87235 0.0
H418 H 0.42589 0.84357 0.86786 0.0
C419 C 0.3736 0.88088 0.84356 0.0
C420 C 0.36503 0.86993 0.82754 0.0
C421 C 0.37534 0.86071 0.85582 0.0
C422 C 0.41137 0.82004 0.8695 0.0
H423 H 0.43095 0.68228 0.85726 0.0
H424 H 0.39495 0.71123 0.86146 0.0
H425 H 0.45103 0.80815 0.87863 0.0
H426 H 0.34801 0.829 0.8122 0.0
H427 H 0.35136 0.79377 0.83359 0.0
H428 H 0.33742 0.77027 0.86141 0.0
C429 C 0.41742 0.71837 0.86822 0.0
C430 C 0.42584 0.7995 0.8758 0.0
C431 C 0.43842 0.70197 0.86552 0.0
C432 C 0.35508 0.83811 0.82439 0.0
C433 C 0.35666 0.81791 0.83669 0.0
C434 C 0.36195 0.77882 0.86572 0.0
C435 C 0.42682 0.74535 0.87794 0.0
C436 C 0.40901 0.76795 0.87641 0.0
C437 C 0.36844 0.82922 0.85231 0.0
C438 C 0.37984 0.80956 0.86349 0.0
H439 H 0.50129 0.74555 0.88901 0.0
H440 H 0.46403 0.77305 0.89455 0.0
H441 H 0.36222 0.73439 0.87318 0.0
H442 H 0.38156 0.90528 0.84639 0.0
H443 H 0.38432 0.87 0.86778 0.0
C444 C 0.92419 0.59176 0.14193 0.0
C445 C 0.93264 0.56636 0.14738 0.0
C446 C 0.8924 0.59035 0.14031 0.0
C447 C 0.81133 0.54511 0.15232 0.0
H448 H 0.78575 0.58718 0.11649 0.0
C449 C 0.68023 0.52781 0.13196 0.0
C450 C 0.67242 0.5544 0.12805 0.0
C451 C 0.71174 0.52939 0.13542 0.0
C452 C 0.79257 0.57556 0.12665 0.0
H453 H 0.91419 0.51949 0.15543 0.0
H454 H 0.85871 0.51668 0.15214 0.0
H455 H 0.84084 0.58919 0.12005 0.0
H456 H 0.69157 0.60353 0.12486 0.0
H457 H 0.7465 0.60627 0.13086 0.0
H458 H 0.7626 0.53087 0.15858 0.0
C459 C 0.87665 0.538 0.14946 0.0
C460 C 0.82424 0.57677 0.12874 0.0
C461 C 0.90852 0.53953 0.15126 0.0
C462 C 0.69674 0.58268 0.12799 0.0
C463 C 0.72824 0.5842 0.13125 0.0
C464 C 0.77954 0.54363 0.15011 0.0
C465 C 0.86812 0.56337 0.1439 0.0
C466 C 0.83416 0.56171 0.14165 0.0
C467 C 0.73615 0.55754 0.13482 0.0
C468 C 0.76985 0.55898 0.13729 0.0
H469 H 0.94217 0.6129 0.139 0.0
H470 H 0.88693 0.61061 0.13634 0.0
H471 H 0.81805 0.53359 0.16254 0.0
H472 H 0.66198 0.50572 0.13219 0.0
H473 H 0.7171 0.50843 0.13805 0.0
C474 C 0.34976 0.86691 0.50858 0.0
C475 C 0.34175 0.89419 0.50965 0.0
C476 C 0.32687 0.83911 0.504 0.0
C477 C 0.24027 0.80029 0.50038 0.0
H478 H 0.26271 0.74732 0.4694 0.0
C479 C 0.15504 0.68022 0.48049 0.0
C480 C 0.15327 0.67275 0.46385 0.0
C481 C 0.17827 0.70646 0.48685 0.0
C482 C 0.25602 0.7619 0.47802 0.0
H483 H 0.30322 0.91345 0.50669 0.0
H484 H 0.26332 0.86498 0.49877 0.0
H485 H 0.30246 0.79465 0.4791 0.0
H486 H 0.17423 0.68759 0.44084 0.0
H487 H 0.21469 0.73299 0.45193 0.0
H488 H 0.1936 0.76781 0.499 0.0
C489 C 0.28725 0.86503 0.50169 0.0
C490 C 0.27891 0.78888 0.48371 0.0
C491 C 0.31015 0.89284 0.50624 0.0
C492 C 0.17527 0.6922 0.45376 0.0
C493 C 0.19849 0.71831 0.46012 0.0
C494 C 0.21739 0.77321 0.49473 0.0
C495 C 0.29537 0.83786 0.5004 0.0
C496 C 0.27126 0.80853 0.49487 0.0
C497 C 0.2003 0.72578 0.47673 0.0
C498 C 0.22492 0.75384 0.48336 0.0
H499 H 0.37374 0.86699 0.51138 0.0
H500 H 0.33382 0.81853 0.50336 0.0
H501 H 0.23368 0.81476 0.5091 0.0
H502 H 0.13872 0.66559 0.48864 0.0
H503 H 0.17923 0.7114 0.49974 0.0
C504 C 0.51991 0.35698 0.82529 0.0
C505 C 0.54336 0.37986 0.81764 0.0
C506 C 0.52492 0.32948 0.82949 0.0
C507 C 0.57032 0.27951 0.81724 0.0
H508 H 0.52721 0.23183 0.85283 0.0
C509 C 0.54772 0.14941 0.81959 0.0
C510 C 0.51482 0.13434 0.81885 0.0
C511 C 0.55981 0.18045 0.82423 0.0
C512 C 0.53985 0.24505 0.84301 0.0
H513 H 0.59093 0.39249 0.80892 0.0
H514 H 0.59986 0.34428 0.81635 0.0
H515 H 0.53355 0.28661 0.85188 0.0
H516 H 0.46916 0.14016 0.82331 0.0
H517 H 0.49032 0.19342 0.83193 0.0
H518 H 0.57545 0.23761 0.80807 0.0
C519 C 0.57741 0.34748 0.8189 0.0
C520 C 0.54327 0.27631 0.84237 0.0
C521 C 0.57228 0.375 0.8146 0.0
C522 C 0.49461 0.15053 0.82398 0.0
C523 C 0.50674 0.18124 0.82891 0.0
C524 C 0.56721 0.24832 0.81799 0.0
C525 C 0.5536 0.32424 0.82622 0.0
C526 C 0.55702 0.29349 0.82902 0.0
C527 C 0.5393 0.19675 0.82858 0.0
C528 C 0.55054 0.23055 0.83044 0.0
H529 H 0.49724 0.35995 0.8276 0.0
H530 H 0.50572 0.31186 0.83471 0.0
H531 H 0.58092 0.29196 0.80675 0.0
H532 H 0.56411 0.13756 0.81611 0.0
H533 H 0.58505 0.19197 0.82394 0.0
C534 C 0.56029 0.94455 0.51005 0.0
C535 C 0.53333 0.95273 0.5138 0.0
C536 C 0.56033 0.9139 0.51096 0.0
C537 C 0.51679 0.83796 0.52885 0.0
H538 H 0.56384 0.80602 0.49862 0.0
C539 C 0.50904 0.70843 0.52726 0.0
C540 C 0.53691 0.70097 0.52465 0.0
C541 C 0.50805 0.73863 0.52543 0.0
C542 C 0.5508 0.81452 0.50731 0.0
H543 H 0.48497 0.93429 0.52129 0.0
H544 H 0.48486 0.8812 0.52264 0.0
H545 H 0.56325 0.8588 0.49647 0.0
H546 H 0.58542 0.72011 0.51749 0.0
H547 H 0.58383 0.77241 0.51451 0.0
H548 H 0.50435 0.79367 0.53969 0.0
C549 C 0.50633 0.89851 0.51926 0.0
C550 C 0.55048 0.84504 0.50608 0.0
C551 C 0.50631 0.92915 0.51837 0.0
C552 C 0.56356 0.72474 0.51981 0.0
C553 C 0.56254 0.75489 0.51792 0.0
C554 C 0.51707 0.80744 0.53006 0.0
C555 C 0.53338 0.89028 0.51564 0.0
C556 C 0.53352 0.85739 0.51685 0.0
C557 C 0.53485 0.7625 0.52083 0.0
C558 C 0.53413 0.79513 0.51934 0.0
H559 H 0.58163 0.96192 0.50654 0.0
H560 H 0.58183 0.9089 0.50827 0.0
H561 H 0.50387 0.84646 0.53761 0.0
H562 H 0.48805 0.69107 0.53115 0.0
H563 H 0.4861 0.74321 0.52759 0.0
C564 C 0.65073 0.55198 0.82081 0.0
C565 C 0.64397 0.57821 0.82645 0.0
C566 C 0.68167 0.55052 0.82185 0.0
C567 C 0.76533 0.59878 0.82558 0.0
H568 H 0.77975 0.5254 0.84228 0.0
C569 C 0.89017 0.59515 0.84514 0.0
C570 C 0.89707 0.56749 0.84315 0.0
C571 C 0.85963 0.59647 0.84165 0.0
C572 C 0.77621 0.54589 0.83731 0.0
H573 H 0.66469 0.62362 0.83745 0.0
H574 H 0.71861 0.62107 0.83916 0.0
H575 H 0.7259 0.52753 0.83898 0.0
H576 H 0.8777 0.51987 0.8352 0.0
H577 H 0.82464 0.52228 0.82872 0.0
H578 H 0.81554 0.61713 0.8238 0.0
C579 C 0.69995 0.60168 0.8339 0.0
C580 C 0.74527 0.54712 0.83548 0.0
C581 C 0.66898 0.60303 0.83301 0.0
C582 C 0.87301 0.54144 0.83704 0.0
C583 C 0.84254 0.54281 0.83341 0.0
C584 C 0.79627 0.59747 0.82728 0.0
C585 C 0.70664 0.57536 0.8284 0.0
C586 C 0.73948 0.57367 0.82974 0.0
C587 C 0.83526 0.57021 0.83595 0.0
C588 C 0.80219 0.5711 0.83331 0.0
H589 H 0.63209 0.53241 0.81569 0.0
H590 H 0.6861 0.53002 0.81738 0.0
H591 H 0.7616 0.6194 0.82091 0.0
H592 H 0.90805 0.61551 0.85004 0.0
H593 H 0.85493 0.61787 0.84399 0.0
C594 C 0.21607 0.74908 0.15476 0.0
C595 C 0.18714 0.75543 0.15364 0.0
C596 C 0.24419 0.77218 0.1593 0.0
C597 C 0.28059 0.85673 0.16253 0.0
H598 H 0.33894 0.83726 0.19331 0.0
C599 C 0.38431 0.95015 0.19542 0.0
C600 C 0.41294 0.94383 0.19833 0.0
C601 C 0.35754 0.92745 0.18893 0.0
C602 C 0.32317 0.84303 0.18452 0.0
H603 H 0.16526 0.79121 0.15647 0.0
H604 H 0.21428 0.83146 0.16431 0.0
H605 H 0.29096 0.79721 0.18393 0.0
H606 H 0.43614 0.90896 0.19609 0.0
H607 H 0.38953 0.86943 0.18467 0.0
H608 H 0.31276 0.90261 0.16319 0.0
C609 C 0.21528 0.80868 0.16148 0.0
C610 C 0.29561 0.82003 0.17915 0.0
C611 C 0.18715 0.78558 0.15696 0.0
C612 C 0.41433 0.91445 0.19424 0.0
C613 C 0.38758 0.89177 0.18772 0.0
C614 C 0.3082 0.87974 0.16788 0.0
C615 C 0.24413 0.80224 0.1628 0.0
C616 C 0.27389 0.82661 0.16814 0.0
C617 C 0.35873 0.89786 0.18515 0.0
C618 C 0.32979 0.87322 0.17901 0.0
H619 H 0.21705 0.72626 0.15202 0.0
H620 H 0.26606 0.76653 0.15994 0.0
H621 H 0.26461 0.86249 0.15386 0.0
H622 H 0.38228 0.97239 0.19864 0.0
H623 H 0.33563 0.93285 0.18732 0.0
C624 C 0.55659 0.17051 0.51174 0.0
C625 C 0.53056 0.14673 0.51712 0.0
C626 C 0.55739 0.20141 0.51273 0.0
C627 C 0.50563 0.25157 0.51765 0.0
H628 H 0.58518 0.31462 0.52848 0.0
C629 C 0.51863 0.3827 0.51612 0.0
C630 C 0.53847 0.40232 0.52811 0.0
C631 C 0.51748 0.35173 0.51443 0.0
C632 C 0.56264 0.29741 0.52554 0.0
H633 H 0.48482 0.13745 0.52775 0.0
H634 H 0.48626 0.19104 0.52956 0.0
H635 H 0.5834 0.26107 0.52654 0.0
H636 H 0.572 0.40348 0.54804 0.0
H637 H 0.57018 0.35019 0.54504 0.0
H638 H 0.48479 0.28793 0.51694 0.0
C639 C 0.50604 0.18584 0.52439 0.0
C640 C 0.56169 0.2665 0.52422 0.0
C641 C 0.50529 0.15493 0.52344 0.0
C642 C 0.55697 0.38968 0.53837 0.0
C643 C 0.55588 0.35883 0.53667 0.0
C644 C 0.50661 0.28252 0.5189 0.0
C645 C 0.53214 0.2097 0.51909 0.0
C646 C 0.53315 0.24295 0.52031 0.0
C647 C 0.53616 0.33922 0.52467 0.0
C648 C 0.53512 0.30603 0.52295 0.0
H649 H 0.57653 0.16531 0.50675 0.0
H650 H 0.57776 0.21882 0.50829 0.0
H651 H 0.48321 0.23439 0.51443 0.0
H652 H 0.50422 0.39134 0.50782 0.0
H653 H 0.50225 0.3377 0.5049 0.0
C654 C 0.42208 0.55489 0.81809 0.0
C655 C 0.44759 0.58082 0.82299 0.0
C656 C 0.39081 0.55471 0.81963 0.0
C657 C 0.34124 0.60536 0.82419 0.0
H658 H 0.28231 0.53418 0.84309 0.0
C659 C 0.22062 0.60689 0.84717 0.0
C660 C 0.1947 0.57973 0.84607 0.0
C661 C 0.25073 0.60694 0.84289 0.0
C662 C 0.2982 0.55405 0.83752 0.0
H663 H 0.45999 0.62717 0.8331 0.0
H664 H 0.40556 0.62685 0.8357 0.0
H665 H 0.336 0.53442 0.83824 0.0
H666 H 0.18033 0.53143 0.8391 0.0
H667 H 0.23248 0.53177 0.83105 0.0
H668 H 0.3035 0.62499 0.82337 0.0
C669 C 0.40976 0.60668 0.8306 0.0
C670 C 0.32907 0.5542 0.83479 0.0
C671 C 0.44101 0.60678 0.82919 0.0
C672 C 0.19957 0.55285 0.84 0.0
C673 C 0.22968 0.55295 0.83561 0.0
C674 C 0.31027 0.60512 0.82679 0.0
C675 C 0.38428 0.58054 0.82599 0.0
C676 C 0.35105 0.57995 0.82823 0.0
C677 C 0.25581 0.57988 0.83724 0.0
C678 C 0.28837 0.57957 0.83364 0.0
H679 H 0.4262 0.53448 0.81328 0.0
H680 H 0.37171 0.53432 0.81582 0.0
H681 H 0.35748 0.6254 0.81892 0.0
H682 H 0.21776 0.62817 0.85153 0.0
H683 H 0.27021 0.62809 0.84447 0.0
C684 C 0.84977 0.38636 0.1755 0.0
C685 C 0.87931 0.38117 0.17572 0.0
C686 C 0.82206 0.36239 0.17826 0.0
C687 C 0.78835 0.27783 0.17742 0.0
H688 H 0.7289 0.29179 0.2073 0.0
C689 C 0.6887 0.17817 0.20333 0.0
C690 C 0.65965 0.18281 0.20631 0.0
C691 C 0.7144 0.20242 0.19844 0.0
C692 C 0.74493 0.28756 0.19871 0.0
H693 H 0.90262 0.34648 0.17924 0.0
H694 H 0.85434 0.30475 0.18377 0.0
H695 H 0.77552 0.33406 0.20083 0.0
H696 H 0.63445 0.2163 0.20591 0.0
H697 H 0.67907 0.2585 0.19711 0.0
H698 H 0.75781 0.2314 0.17523 0.0
C699 C 0.85261 0.32732 0.18128 0.0
C700 C 0.77172 0.31183 0.19503 0.0
C701 C 0.88031 0.3513 0.17865 0.0
C702 C 0.65666 0.2121 0.20392 0.0
C703 C 0.6823 0.23631 0.19893 0.0
C704 C 0.76145 0.25361 0.18101 0.0
C705 C 0.82317 0.3326 0.18119 0.0
C706 C 0.79391 0.30717 0.18448 0.0
C707 C 0.71165 0.2319 0.1963 0.0
C708 C 0.73952 0.25805 0.19183 0.0
H709 H 0.84796 0.40891 0.17304 0.0
H710 H 0.79968 0.36711 0.17794 0.0
H711 H 0.80477 0.27362 0.16905 0.0
H712 H 0.69191 0.156 0.20528 0.0
H713 H 0.73671 0.1982 0.19681 0.0
C714 C 0.05344 0.54102 0.097 0.0
C715 C 0.03258 0.55176 0.10586 0.0
C716 C 0.05476 0.54456 0.08025 0.0
C717 C 1.0071 0.55023 0.04465 0.0
H718 H 0.08726 0.58307 0.02401 0.0
C719 C 0.02336 0.53605 0.97614 0.0
C720 C 0.03965 0.5629 0.96805 0.0
C721 C 0.02201 0.53615 0.99301 0.0
C722 C 0.06472 0.57398 0.02964 0.0
H723 H 0.99689 0.57479 0.10428 0.0
H724 H 0.99863 0.58028 0.07481 0.0
H725 H 0.08623 0.58118 0.0536 0.0
H726 H 0.06687 0.6111 0.9716 0.0
H727 H 0.0655 0.61076 0.00106 0.0
H728 H 0.98568 0.54232 0.02067 0.0
C729 C 1.01407 0.56933 0.08089 0.0
C730 C 0.06416 0.57277 0.04652 0.0
C731 C 1.01317 0.5663 0.09771 0.0
C732 C 0.05467 0.58979 0.97735 0.0
C733 C 0.05375 0.58972 0.99423 0.0
C734 C 1.00773 0.55094 0.02776 0.0
C735 C 0.03486 0.55845 0.07202 0.0
C736 C 0.03535 0.56083 0.05417 0.0
C737 C 0.03734 0.56293 0.00221 0.0
C738 C 0.03655 0.56277 0.0201 0.0
H739 H 0.06874 0.52983 0.10302 0.0
H740 H 0.07084 0.5358 0.07367 0.0
H741 H 0.98462 0.54073 0.05028 0.0
H742 H 1.01201 0.51474 0.96949 0.0
H743 H 1.00951 0.51509 -0.0011 0.0
C744 C 0.50072 0.06147 0.45571 0.0
C745 C 0.5183 0.04876 0.46634 0.0
C746 C 0.50501 0.0614 0.43907 0.0
C747 C 0.50342 0.03971 0.40431 0.0
H748 H 0.58674 0.06006 0.38663 0.0
C749 C 0.51956 1.02567 0.33616 0.0
C750 C 0.54233 0.04986 0.32887 0.0
C751 C 0.51799 1.02443 0.353 0.0
C752 C 0.56332 0.05444 0.39139 0.0
H753 H 0.55477 1.0267 0.46799 0.0
H754 H 0.56225 1.02643 0.43877 0.0
H755 H 0.58166 0.06098 0.41598 0.0
H756 H 0.58193 0.09123 0.33364 0.0
H757 H 0.57884 0.08934 0.36305 0.0
H758 H 0.48503 0.03377 0.37981 0.0
C759 C 0.54521 0.03657 0.44334 0.0
C760 C 0.5604 0.05467 0.4082 0.0
C761 C 0.54084 0.03658 0.46004 0.0
C762 C 0.56387 0.07248 0.33886 0.0
C763 C 0.56233 0.0712 0.35572 0.0
C764 C 0.50632 0.03938 0.38755 0.0
C765 C 0.52703 0.04865 0.43265 0.0
C766 C 0.5304 0.04755 0.41484 0.0
C767 C 0.53915 0.04733 0.36299 0.0
C768 C 0.53629 0.04688 0.38087 0.0
H769 H 0.48336 0.07125 0.46023 0.0
H770 H 0.49106 0.07141 0.43121 0.0
H771 H 0.47994 0.03371 0.40902 0.0
H772 H 0.50243 1.00801 0.32884 0.0
H773 H 0.50008 1.00553 0.35821 0.0
C774 C 0.53494 0.57849 0.77036 0.0
C775 C 0.56192 0.59837 0.77852 0.0
C776 C 0.53457 0.57329 0.75365 0.0
C777 C 0.57644 0.6068 0.71672 0.0
H778 H 0.5284 0.52777 0.69738 0.0
C779 C 0.58032 0.57664 0.64874 0.0
C780 C 0.55078 0.56342 0.64061 0.0
C781 C 0.58254 0.58009 0.66563 0.0
C782 C 0.54179 0.55001 0.70262 0.0
H783 H 0.61003 0.62764 0.77574 0.0
H784 H 0.6099 0.61785 0.74665 0.0
H785 H 0.53143 0.53483 0.72675 0.0
H786 H 0.50053 0.54283 0.64381 0.0
H787 H 0.50445 0.54854 0.67335 0.0
H788 H 0.58719 0.62166 0.69251 0.0
C789 C 0.5886 0.60693 0.75302 0.0
C790 C 0.54344 0.55415 0.71946 0.0
C791 C 0.5888 0.61241 0.76972 0.0
C792 C 0.52357 0.55328 0.64974 0.0
C793 C 0.52585 0.55634 0.66664 0.0
C794 C 0.5751 0.60251 0.6999 0.0
C795 C 0.56135 0.58754 0.7447 0.0
C796 C 0.56058 0.58269 0.72676 0.0
C797 C 0.55532 0.56999 0.67475 0.0
C798 C 0.55756 0.57416 0.69266 0.0
H799 H 0.51383 0.56737 0.77685 0.0
H800 H 0.51297 0.55861 0.74771 0.0
H801 H 0.58937 0.62928 0.7218 0.0
H802 H 0.60166 0.58484 0.64201 0.0
H803 H 0.60559 0.59051 0.67156 0.0
C804 C 0.55398 1.02841 0.57078 0.0
C805 C 0.53872 0.04348 0.56018 0.0
C806 C 0.54331 1.02133 0.58638 0.0
C807 C 0.49592 0.0425 0.61758 0.0
H808 H 0.49537 0.96484 0.6359 0.0
C809 C 0.44429 1.00404 0.67981 0.0
C810 C 0.46297 0.99225 0.69031 0.0
C811 C 0.45146 1.00866 0.66351 0.0
C812 C 0.49557 0.98669 0.63098 0.0
H813 H 0.50029 0.06287 0.55749 0.0
H814 H 0.48136 0.05018 0.58468 0.0
H815 H 0.5121 0.97648 0.6083 0.0
H816 H 0.50306 0.97498 0.69182 0.0
H817 H 0.5157 0.98322 0.66344 0.0
H818 H 0.47949 0.05273 0.64031 0.0
C819 C 0.50186 0.04423 0.58105 0.0
C820 C 0.50522 0.99341 0.61518 0.0
C821 C 0.51261 0.05138 0.56546 0.0
C822 C 0.4884 0.98436 0.68406 0.0
C823 C 0.49546 0.98882 0.66777 0.0
C824 C 0.48618 0.03574 0.63337 0.0
C825 C 0.51707 1.02907 0.5917 0.0
C826 C 0.50578 1.02151 0.60833 0.0
C827 C 0.47733 1.0014 0.65736 0.0
C828 C 0.48613 1.00786 0.64029 0.0
H829 H 0.5742 1.02209 0.56702 0.0
H830 H 0.55588 1.01008 0.59434 0.0
H831 H 0.49648 0.06453 0.61277 0.0
H832 H 0.4247 1.01057 0.68429 0.0
H833 H 0.43685 1.0181 0.65575 0.0
C834 C 0.54183 0.52813 0.87796 0.0
C835 C 0.53863 0.55177 0.86814 0.0
C836 C 0.54107 0.53064 0.89479 0.0
C837 C 0.54453 0.58671 0.92863 0.0
H838 H 0.5086 0.51181 0.95197 0.0
C839 C 0.54857 0.58547 -0.00136 0.0
C840 C 0.52413 0.56375 0.00634 0.0
C841 C 0.5501 0.58483 0.98178 0.0
C842 C 0.51825 0.5331 0.9457 0.0
H843 H 0.53156 0.59633 0.86799 0.0
H844 H 0.52884 0.60037 0.89731 0.0
H845 H 0.51101 0.5094 0.92285 0.0
H846 H 0.48152 0.5251 0.00262 0.0
H847 H 0.48302 0.52484 0.97317 0.0
H848 H 0.54999 0.61059 0.95143 0.0
C849 C 0.53319 0.58032 0.89221 0.0
C850 C 0.52027 0.53163 0.92891 0.0
C851 C 0.53467 0.57805 0.87538 0.0
C852 C 0.50077 0.5419 -0.00309 0.0
C853 C 0.50186 0.54165 0.98004 0.0
C854 C 0.54192 0.58825 0.94541 0.0
C855 C 0.53622 0.55654 0.90217 0.0
C856 C 0.53369 0.55836 0.92011 0.0
C857 C 0.52683 0.56281 0.97221 0.0
C858 C 0.52892 0.56143 0.95422 0.0
H859 H 0.54507 0.50769 0.87263 0.0
H860 H 0.54434 0.51219 0.90197 0.0
H861 H 0.55538 0.60781 0.9224 0.0
H862 H 0.56699 0.60238 0.00572 0.0
H863 H 0.57001 0.60116 0.97633 0.0
C864 C 0.04791 0.56451 0.20641 0.0
C865 C 0.03332 0.58445 0.19916 0.0
C866 C 0.04674 0.55997 0.22312 0.0
C867 C 0.03326 0.59629 0.26126 0.0
H868 H 0.02233 0.51582 0.27894 0.0
C869 C 1.00978 0.57136 0.32861 0.0
C870 C 0.02683 0.55413 0.3365 0.0
C871 C 1.01014 0.57423 0.3118 0.0
C872 C 0.02567 0.53848 0.27418 0.0
H873 H 1.00544 0.61467 0.20355 0.0
H874 H 1.0029 0.60641 0.23261 0.0
H875 H 0.02363 0.52222 0.24965 0.0
H876 H 0.05705 0.52583 0.33287 0.0
H877 H 0.05787 0.53103 0.30349 0.0
H878 H 0.03511 0.6125 0.28576 0.0
C879 C 1.01585 0.59476 0.22552 0.0
C880 C 0.02647 0.54217 0.2574 0.0
C881 C 1.01713 0.59937 0.20885 0.0
C882 C 0.04392 0.5395 0.32716 0.0
C883 C 0.04413 0.54223 0.31033 0.0
C884 C 0.03233 0.59257 0.278 0.0
C885 C 0.03085 0.57521 0.23289 0.0
C886 C 0.0302 0.57113 0.25073 0.0
C887 C 0.02744 0.55983 0.30248 0.0
C888 C 0.02846 0.56362 0.28465 0.0
H889 H 0.06053 0.55269 0.1992 0.0
H890 H 0.05881 0.54499 0.22841 0.0
H891 H 0.03681 0.61904 0.25658 0.0
H892 H 0.99661 0.58314 0.33547 0.0
H893 H 0.99677 0.58769 0.30609 0.0
loop_
_geom_bond_atom_site_label_1
_geom_bond_atom_site_label_2
_geom_bond_distance
_geom_bond_site_symmetry_2
_ccdc_geom_bond_type
Pr0 C2 2.880 . S
Pr0 O20 2.562 . S
Pr0 O21 2.490 . S
Pr0 O22 2.695 1_655 S
Pr0 O23 2.512 . S
Pr0 O25 2.437 . S
Pr0 O28 2.434 . S
Pr0 O30 2.438 1_655 S
Pr1 C11 2.880 . S
Pr1 O22 2.436 . S
Pr1 O24 2.438 1_455 S
Pr1 O26 2.562 . S
Pr1 O27 2.490 . S
Pr1 O28 2.694 1_455 S
Pr1 O29 2.512 . S
Pr1 O31 2.437 . S
C2 Pr0 2.880 . S
C2 C3 1.491 . S
C2 O20 1.254 . S
C2 O21 1.225 . S
C3 C2 1.491 . S
C3 C4 1.392 . S
C3 C8 1.356 . S
C4 C3 1.392 . S
C4 C5 1.368 . S
C4 H32 0.929 . S
C5 C4 1.368 . S
C5 C6 1.386 . S
C5 H33 0.929 . S
C6 C5 1.386 . S
C6 C7 1.373 . S
C7 C6 1.373 . S
C7 C8 1.409 . S
C7 H34 0.931 . S
C8 C3 1.356 . S
C8 C7 1.409 . S
C8 H35 0.930 . S
C9 O22 1.270 . S
C9 O23 1.248 1_455 S
C10 O24 1.267 . S
C10 O25 1.278 . S
C11 Pr1 2.880 . S
C11 C12 1.491 . S
C11 O26 1.254 . S
C11 O27 1.225 . S
C12 C11 1.491 . S
C12 C13 1.392 . S
C12 C17 1.356 . S
C13 C12 1.392 . S
C13 C14 1.368 . S
C13 H36 0.929 . S
C14 C13 1.368 . S
C14 C15 1.386 . S
C14 H37 0.929 . S
C15 C14 1.386 . S
C15 C16 1.373 . S
C16 C15 1.373 . S
C16 C17 1.409 . S
C16 H38 0.931 . S
C17 C12 1.356 . S
C17 C16 1.409 . S
C17 H39 0.930 . S
C18 O28 1.269 1_455 S
C18 O29 1.248 . S
C19 O30 1.267 . S
C19 O31 1.278 . S
O20 Pr0 2.562 . S
O20 C2 1.254 . S
O21 Pr0 2.490 . S
O21 C2 1.225 . S
O22 Pr0 2.695 1_455 S
O22 Pr1 2.436 . S
O22 C9 1.270 . S
O23 Pr0 2.512 . S
O23 C9 1.248 1_655 S
O24 Pr1 2.438 1_655 S
O24 C10 1.267 . S
O25 Pr0 2.437 . S
O25 C10 1.278 . S
O26 Pr1 2.562 . S
O26 C11 1.254 . S
O27 Pr1 2.490 . S
O27 C11 1.225 . S
O28 Pr0 2.434 . S
O28 Pr1 2.694 1_655 S
O28 C18 1.269 1_655 S
O29 Pr1 2.512 . S
O29 C18 1.248 . S
O30 Pr0 2.438 1_455 S
O30 C19 1.267 . S
O31 Pr1 2.437 . S
O31 C19 1.278 . S
H32 C4 0.929 . S
H33 C5 0.929 . S
H34 C7 0.931 . S
H35 C8 0.930 . S
H36 C13 0.929 . S
H37 C14 0.929 . S
H38 C16 0.931 . S
H39 C17 0.930 . S
Pr40 C42 2.880 . S
Pr40 O60 2.562 . S
Pr40 O61 2.490 . S
Pr40 O62 2.695 . S
Pr40 O63 2.512 . S
Pr40 O65 2.437 . S
Pr40 O68 2.436 . S
Pr40 O70 2.438 1_545 S
Pr41 C51 2.880 1_545 S
Pr41 O62 2.436 . S
Pr41 O64 2.438 . S
Pr41 O66 2.562 1_545 S
Pr41 O67 2.490 1_545 S
Pr41 O68 2.695 . S
Pr41 O69 2.512 . S
Pr41 O71 2.437 1_545 S
C42 Pr40 2.880 . S
C42 C43 1.491 . S
C42 O60 1.254 . S
C42 O61 1.225 . S
C43 C42 1.491 . S
C43 C44 1.392 . S
C43 C48 1.356 . S
C44 C43 1.392 . S
C44 C45 1.368 . S
C44 H72 0.929 . S
C45 C44 1.368 . S
C45 C46 1.386 . S
C45 H73 0.929 . S
C46 C45 1.386 . S
C46 C47 1.373 . S
C47 C46 1.373 . S
C47 C48 1.409 . S
C47 H74 0.931 . S
C48 C43 1.356 . S
C48 C47 1.409 . S
C48 H75 0.930 . S
C49 O62 1.270 . S
C49 O63 1.248 . S
C50 O64 1.267 . S
C50 O65 1.278 . S
C51 Pr41 2.880 1_565 S
C51 C52 1.491 . S
C51 O66 1.254 . S
C51 O67 1.225 . S
C52 C51 1.491 . S
C52 C53 1.392 . S
C52 C57 1.356 . S
C53 C52 1.392 . S
C53 C54 1.368 . S
C53 H76 0.929 . S
C54 C53 1.368 . S
C54 C55 1.386 . S
C54 H77 0.929 . S
C55 C54 1.386 . S
C55 C56 1.373 . S
C56 C55 1.373 . S
C56 C57 1.409 . S
C56 H78 0.931 . S
C57 C52 1.356 . S
C57 C56 1.409 . S
C57 H79 0.930 . S
C58 O68 1.270 . S
C58 O69 1.248 . S
C59 O70 1.267 . S
C59 O71 1.278 . S
O60 Pr40 2.562 . S
O60 C42 1.254 . S
O61 Pr40 2.490 . S
O61 C42 1.225 . S
O62 Pr40 2.695 . S
O62 Pr41 2.436 . S
O62 C49 1.270 . S
O63 Pr40 2.512 . S
O63 C49 1.248 . S
O64 Pr41 2.438 . S
O64 C50 1.267 . S
O65 Pr40 2.437 . S
O65 C50 1.278 . S
O66 Pr41 2.562 1_565 S
O66 C51 1.254 . S
O67 Pr41 2.490 1_565 S
O67 C51 1.225 . S
O68 Pr40 2.436 . S
O68 Pr41 2.695 . S
O68 C58 1.270 . S
O69 Pr41 2.512 . S
O69 C58 1.248 . S
O70 Pr40 2.438 1_565 S
O70 C59 1.267 . S
O71 Pr41 2.437 1_565 S
O71 C59 1.278 . S
H72 C44 0.929 . S
H73 C45 0.929 . S
H74 C47 0.931 . S
H75 C48 0.930 . S
H76 C53 0.929 . S
H77 C54 0.929 . S
H78 C56 0.931 . S
H79 C57 0.930 . S
Pr80 C82 2.880 . S
Pr80 O100 2.562 . S
Pr80 O101 2.490 . S
Pr80 O102 2.695 . S
Pr80 O103 2.512 . S
Pr80 O105 2.437 . S
Pr80 O108 2.436 . S
Pr80 O110 2.438 . S
Pr81 C91 2.880 . S
Pr81 O102 2.436 . S
Pr81 O104 2.438 . S
Pr81 O106 2.562 . S
Pr81 O107 2.490 . S
Pr81 O108 2.695 . S
Pr81 O109 2.512 . S
Pr81 O111 2.437 . S
C82 Pr80 2.880 . S
C82 C83 1.491 . S
C82 O100 1.254 . S
C82 O101 1.225 . S
C83 C82 1.491 . S
C83 C84 1.392 . S
C83 C88 1.356 . S
C84 C83 1.392 . S
C84 C85 1.368 . S
C84 H112 0.929 . S
C85 C84 1.368 . S
C85 C86 1.386 . S
C85 H113 0.929 . S
C86 C85 1.386 . S
C86 C87 1.373 . S
C87 C86 1.373 . S
C87 C88 1.409 . S
C87 H114 0.931 . S
C88 C83 1.356 . S
C88 C87 1.409 . S
C88 H115 0.930 . S
C89 O102 1.270 . S
C89 O103 1.248 . S
C90 O104 1.267 . S
C90 O105 1.278 . S
C91 Pr81 2.880 . S
C91 C92 1.491 . S
C91 O106 1.254 . S
C91 O107 1.225 . S
C92 C91 1.491 . S
C92 C93 1.392 . S
C92 C97 1.356 . S
C93 C92 1.392 . S
C93 C94 1.368 . S
C93 H116 0.929 . S
C94 C93 1.368 . S
C94 C95 1.386 . S
C94 H117 0.929 . S
C95 C94 1.386 . S
C95 C96 1.373 . S
C96 C95 1.373 . S
C96 C97 1.409 . S
C96 H118 0.931 . S
C97 C92 1.356 . S
C97 C96 1.409 . S
C97 H119 0.930 . S
C98 O108 1.270 . S
C98 O109 1.248 . S
C99 O110 1.267 . S
C99 O111 1.278 . S
O100 Pr80 2.562 . S
O100 C82 1.254 . S
O101 Pr80 2.490 . S
O101 C82 1.225 . S
O102 Pr80 2.695 . S
O102 Pr81 2.436 . S
O102 C89 1.270 . S
O103 Pr80 2.512 . S
O103 C89 1.248 . S
O104 Pr81 2.438 . S
O104 C90 1.267 . S
O105 Pr80 2.437 . S
O105 C90 1.278 . S
O106 Pr81 2.562 . S
O106 C91 1.254 . S
O107 Pr81 2.490 . S
O107 C91 1.225 . S
O108 Pr80 2.436 . S
O108 Pr81 2.695 . S
O108 C98 1.270 . S
O109 Pr81 2.512 . S
O109 C98 1.248 . S
O110 Pr80 2.438 . S
O110 C99 1.267 . S
O111 Pr81 2.437 . S
O111 C99 1.278 . S
H112 C84 0.929 . S
H113 C85 0.929 . S
H114 C87 0.931 . S
H115 C88 0.930 . S
H116 C93 0.929 . S
H117 C94 0.929 . S
H118 C96 0.931 . S
H119 C97 0.930 . S
C120 C121 1.386 . S
C120 C122 1.397 . S
C120 H144 0.931 . S
C121 C120 1.386 . S
C121 C125 1.397 . S
C122 C120 1.397 . S
C122 C123 1.384 . S
C122 H145 0.930 . S
C123 C122 1.384 . S
C123 C124 1.377 . S
C123 C126 1.481 . S
C124 C123 1.377 . S
C124 C125 1.389 . S
C124 H146 0.929 1_545 S
C125 C121 1.397 . S
C125 C124 1.389 . S
C125 H147 0.931 1_545 S
C126 C123 1.481 . S
C126 C127 1.387 . S
C126 C131 1.390 . S
C127 C126 1.387 . S
C127 C128 1.401 . S
C127 H148 0.930 . S
C128 C127 1.401 . S
C128 C129 1.376 . S
C128 C137 1.511 . S
C129 C128 1.376 . S
C129 C130 1.392 . S
C129 H150 0.931 . S
C130 C129 1.392 . S
C130 C131 1.361 . S
C130 C132 1.500 1_545 S
C131 C126 1.390 . S
C131 C130 1.361 . S
C131 H149 0.931 1_545 S
C132 C130 1.500 1_565 S
C132 C133 1.371 . S
C132 C134 1.365 . S
C133 C132 1.371 . S
C133 C143 1.386 . S
C133 H151 0.931 1_565 S
C134 C132 1.365 . S
C134 C135 1.409 . S
C134 H152 0.929 . S
C135 C134 1.409 . S
C135 C136 1.380 . S
C135 H153 0.930 . S
C136 C135 1.380 . S
C136 C143 1.357 . S
C137 C128 1.511 . S
C137 C138 1.341 . S
C137 C139 1.371 . S
C138 C137 1.341 . S
C138 C142 1.394 . S
C138 H154 0.930 . S
C139 C137 1.371 . S
C139 C140 1.392 . S
C139 H155 0.931 . S
C140 C139 1.392 . S
C140 C141 1.331 . S
C140 H158 0.932 . S
C141 C140 1.331 . S
C141 C142 1.336 . S
C142 C138 1.394 . S
C142 C141 1.336 . S
C142 H157 0.929 . S
C143 C133 1.386 . S
C143 C136 1.357 . S
C143 H156 0.928 . S
H144 C120 0.931 . S
H145 C122 0.930 . S
H146 C124 0.929 1_565 S
H147 C125 0.931 1_565 S
H148 C127 0.930 . S
H149 C131 0.931 1_565 S
H150 C129 0.931 . S
H151 C133 0.931 1_545 S
H152 C134 0.929 . S
H153 C135 0.930 . S
H154 C138 0.930 . S
H155 C139 0.931 . S
H156 C143 0.928 . S
H157 C142 0.929 . S
H158 C140 0.932 . S
C159 C160 1.386 . S
C159 C161 1.397 . S
C159 H183 0.931 . S
C160 C159 1.386 . S
C160 C164 1.397 . S
C161 C159 1.397 . S
C161 C162 1.384 . S
C161 H184 0.930 . S
C162 C161 1.384 . S
C162 C163 1.377 . S
C162 C165 1.481 . S
C163 C162 1.377 . S
C163 C164 1.389 . S
C163 H185 0.929 . S
C164 C160 1.397 . S
C164 C163 1.389 . S
C164 H186 0.931 . S
C165 C162 1.481 . S
C165 C166 1.387 . S
C165 C170 1.390 . S
C166 C165 1.387 . S
C166 C167 1.401 . S
C166 H187 0.930 . S
C167 C166 1.401 . S
C167 C168 1.376 . S
C167 C176 1.511 . S
C168 C167 1.376 . S
C168 C169 1.392 . S
C168 H189 0.931 . S
C169 C168 1.392 . S
C169 C170 1.361 . S
C169 C171 1.500 . S
C170 C165 1.390 . S
C170 C169 1.361 . S
C170 H188 0.931 . S
C171 C169 1.500 . S
C171 C172 1.371 . S
C171 C173 1.365 . S
C172 C171 1.371 . S
C172 C182 1.386 . S
C172 H190 0.931 . S
C173 C171 1.365 . S
C173 C174 1.409 . S
C173 H191 0.929 . S
C174 C173 1.409 . S
C174 C175 1.380 . S
C174 H192 0.930 . S
C175 C174 1.380 . S
C175 C182 1.357 . S
C176 C167 1.511 . S
C176 C177 1.341 . S
C176 C178 1.371 . S
C177 C176 1.341 . S
C177 C181 1.394 . S
C177 H193 0.930 . S
C178 C176 1.371 . S
C178 C179 1.392 . S
C178 H194 0.931 . S
C179 C178 1.392 . S
C179 C180 1.331 . S
C179 H197 0.932 . S
C180 C179 1.331 . S
C180 C181 1.336 . S
C181 C177 1.394 . S
C181 C180 1.336 . S
C181 H196 0.929 . S
C182 C172 1.386 . S
C182 C175 1.357 . S
C182 H195 0.928 . S
H183 C159 0.931 . S
H184 C161 0.930 . S
H185 C163 0.929 . S
H186 C164 0.931 . S
H187 C166 0.930 . S
H188 C170 0.931 . S
H189 C168 0.931 . S
H190 C172 0.931 . S
H191 C173 0.929 . S
H192 C174 0.930 . S
H193 C177 0.930 . S
H194 C178 0.931 . S
H195 C182 0.928 . S
H196 C181 0.929 . S
H197 C179 0.932 . S
C198 C199 1.386 . S
C198 C200 1.397 . S
C198 H222 0.931 . S
C199 C198 1.386 . S
C199 C203 1.397 1_455 S
C200 C198 1.397 . S
C200 C201 1.384 . S
C200 H223 0.930 . S
C201 C200 1.384 . S
C201 C202 1.377 1_455 S
C201 C204 1.481 . S
C202 C201 1.377 1_655 S
C202 C203 1.389 . S
C202 H224 0.929 . S
C203 C199 1.397 1_655 S
C203 C202 1.389 . S
C203 H225 0.931 . S
C204 C201 1.481 . S
C204 C205 1.387 . S
C204 C209 1.390 1_455 S
C205 C204 1.387 . S
C205 C206 1.401 . S
C205 H226 0.930 . S
C206 C205 1.401 . S
C206 C207 1.376 . S
C206 C215 1.511 . S
C207 C206 1.376 . S
C207 C208 1.392 1_455 S
C207 H228 0.931 . S
C208 C207 1.392 1_655 S
C208 C209 1.361 . S
C208 C210 1.500 . S
C209 C204 1.390 1_655 S
C209 C208 1.361 . S
C209 H227 0.931 . S
C210 C208 1.500 . S
C210 C211 1.371 . S
C210 C212 1.365 . S
C211 C210 1.371 . S
C211 C221 1.386 . S
C211 H229 0.931 . S
C212 C210 1.365 . S
C212 C213 1.409 . S
C212 H230 0.929 . S
C213 C212 1.409 . S
C213 C214 1.380 . S
C213 H231 0.930 . S
C214 C213 1.380 . S
C214 C221 1.357 . S
C215 C206 1.511 . S
C215 C216 1.341 . S
C215 C217 1.371 . S
C216 C215 1.341 . S
C216 C220 1.394 . S
C216 H232 0.930 . S
C217 C215 1.371 . S
C217 C218 1.392 . S
C217 H233 0.931 . S
C218 C217 1.392 . S
C218 C219 1.331 . S
C218 H236 0.932 . S
C219 C218 1.331 . S
C219 C220 1.336 . S
C220 C216 1.394 . S
C220 C219 1.336 . S
C220 H235 0.929 . S
C221 C211 1.386 . S
C221 C214 1.357 . S
C221 H234 0.928 . S
H222 C198 0.931 . S
H223 C200 0.930 . S
H224 C202 0.929 . S
H225 C203 0.931 . S
H226 C205 0.930 . S
H227 C209 0.931 . S
H228 C207 0.931 . S
H229 C211 0.931 . S
H230 C212 0.929 . S
H231 C213 0.930 . S
H232 C216 0.930 . S
H233 C217 0.931 . S
H234 C221 0.928 . S
H235 C220 0.929 . S
H236 C218 0.932 . S
C237 C238 1.386 . S
C237 C239 1.397 . S
C237 H261 0.931 . S
C238 C237 1.386 . S
C238 C242 1.397 1_655 S
C239 C237 1.397 . S
C239 C240 1.384 . S
C239 H262 0.930 . S
C240 C239 1.384 . S
C240 C241 1.377 1_655 S
C240 C243 1.480 . S
C241 C240 1.377 1_455 S
C241 C242 1.389 . S
C241 H263 0.929 . S
C242 C238 1.397 1_455 S
C242 C241 1.389 . S
C242 H264 0.931 . S
C243 C240 1.480 . S
C243 C244 1.401 . S
C243 C248 1.377 1_655 S
C244 C243 1.401 . S
C244 C245 1.401 . S
C244 H265 0.930 . S
C245 C244 1.401 . S
C245 C246 1.376 1_655 S
C245 C254 1.511 . S
C246 C245 1.376 1_455 S
C246 C247 1.392 . S
C246 H267 0.931 . S
C247 C246 1.392 . S
C247 C248 1.361 . S
C247 C249 1.500 . S
C248 C243 1.377 1_455 S
C248 C247 1.361 . S
C248 H266 0.931 . S
C249 C247 1.500 . S
C249 C250 1.371 . S
C249 C251 1.365 . S
C250 C249 1.371 . S
C250 C260 1.386 . S
C250 H268 0.931 . S
C251 C249 1.365 . S
C251 C252 1.409 . S
C251 H269 0.929 . S
C252 C251 1.409 . S
C252 C253 1.380 . S
C252 H270 0.930 . S
C253 C252 1.380 . S
C253 C260 1.357 . S
C254 C245 1.511 . S
C254 C255 1.341 . S
C254 C256 1.371 . S
C255 C254 1.341 . S
C255 C259 1.394 . S
C255 H271 0.930 . S
C256 C254 1.371 . S
C256 C257 1.392 . S
C256 H272 0.931 . S
C257 C256 1.392 . S
C257 C258 1.331 . S
C257 H275 0.932 . S
C258 C257 1.331 . S
C258 C259 1.336 . S
C259 C255 1.394 . S
C259 C258 1.336 . S
C259 H274 0.929 . S
C260 C250 1.386 . S
C260 C253 1.357 . S
C260 H273 0.928 . S
H261 C237 0.931 . S
H262 C239 0.930 . S
H263 C241 0.929 . S
H264 C242 0.931 . S
H265 C244 0.930 . S
H266 C248 0.931 . S
H267 C246 0.931 . S
H268 C250 0.931 . S
H269 C251 0.929 . S
H270 C252 0.930 . S
H271 C255 0.930 . S
H272 C256 0.931 . S
H273 C260 0.928 . S
H274 C259 0.929 . S
H275 C257 0.932 . S
C276 C277 1.386 1_565 S
C276 C278 1.397 . S
C276 H300 0.931 . S
C277 C276 1.386 1_545 S
C277 C281 1.397 . S
C278 C276 1.397 . S
C278 C279 1.384 1_565 S
C278 H301 0.930 . S
C279 C278 1.384 1_545 S
C279 C280 1.377 . S
C279 C282 1.481 . S
C280 C279 1.377 . S
C280 C281 1.389 . S
C280 H302 0.929 . S
C281 C277 1.397 . S
C281 C280 1.389 . S
C281 H303 0.931 . S
C282 C279 1.481 . S
C282 C283 1.387 1_545 S
C282 C287 1.390 . S
C283 C282 1.387 1_565 S
C283 C284 1.401 . S
C283 H304 0.930 . S
C284 C283 1.401 . S
C284 C285 1.376 1_565 S
C284 C293 1.511 . S
C285 C284 1.376 1_545 S
C285 C286 1.392 . S
C285 H306 0.931 . S
C286 C285 1.392 . S
C286 C287 1.361 . S
C286 C288 1.500 . S
C287 C282 1.390 . S
C287 C286 1.361 . S
C287 H305 0.931 . S
C288 C286 1.500 . S
C288 C289 1.371 . S
C288 C290 1.365 . S
C289 C288 1.371 . S
C289 C299 1.386 . S
C289 H307 0.931 . S
C290 C288 1.365 . S
C290 C291 1.409 . S
C290 H308 0.929 . S
C291 C290 1.409 . S
C291 C292 1.380 . S
C291 H309 0.930 . S
C292 C291 1.380 . S
C292 C299 1.357 . S
C293 C284 1.511 . S
C293 C294 1.341 . S
C293 C295 1.371 . S
C294 C293 1.341 . S
C294 C298 1.394 . S
C294 H310 0.930 . S
C295 C293 1.371 . S
C295 C296 1.392 . S
C295 H311 0.931 . S
C296 C295 1.392 . S
C296 C297 1.331 . S
C296 H314 0.932 . S
C297 C296 1.331 . S
C297 C298 1.336 . S
C298 C294 1.394 . S
C298 C297 1.336 . S
C298 H313 0.929 . S
C299 C289 1.386 . S
C299 C292 1.357 . S
C299 H312 0.928 . S
H300 C276 0.931 . S
H301 C278 0.930 . S
H302 C280 0.929 . S
H303 C281 0.931 . S
H304 C283 0.930 . S
H305 C287 0.931 . S
H306 C285 0.931 . S
H307 C289 0.931 . S
H308 C290 0.929 . S
H309 C291 0.930 . S
H310 C294 0.930 . S
H311 C295 0.931 . S
H312 C299 0.928 . S
H313 C298 0.929 . S
H314 C296 0.932 . S
C315 C316 1.386 . S
C315 C317 1.397 . S
C315 H339 0.931 . S
C316 C315 1.386 . S
C316 C320 1.397 . S
C317 C315 1.397 . S
C317 C318 1.384 . S
C317 H340 0.930 . S
C318 C317 1.384 . S
C318 C319 1.377 . S
C318 C321 1.481 . S
C319 C318 1.377 . S
C319 C320 1.389 . S
C319 H341 0.929 . S
C320 C316 1.397 . S
C320 C319 1.389 . S
C320 H342 0.931 . S
C321 C318 1.481 . S
C321 C322 1.387 . S
C321 C326 1.390 . S
C322 C321 1.387 . S
C322 C323 1.401 . S
C322 H343 0.930 . S
C323 C322 1.401 . S
C323 C324 1.376 . S
C323 C332 1.511 . S
C324 C323 1.376 . S
C324 C325 1.392 . S
C324 H345 0.931 . S
C325 C324 1.392 . S
C325 C326 1.361 . S
C325 C327 1.500 . S
C326 C321 1.390 . S
C326 C325 1.361 . S
C326 H344 0.931 . S
C327 C325 1.500 . S
C327 C328 1.371 . S
C327 C329 1.365 . S
C328 C327 1.371 . S
C328 C338 1.386 . S
C328 H346 0.931 . S
C329 C327 1.365 . S
C329 C330 1.409 . S
C329 H347 0.929 . S
C330 C329 1.409 . S
C330 C331 1.380 . S
C330 H348 0.930 . S
C331 C330 1.380 . S
C331 C338 1.357 . S
C332 C323 1.511 . S
C332 C333 1.341 . S
C332 C334 1.371 . S
C333 C332 1.341 . S
C333 C337 1.394 . S
C333 H349 0.930 . S
C334 C332 1.371 . S
C334 C335 1.392 . S
C334 H350 0.931 . S
C335 C334 1.392 . S
C335 C336 1.331 . S
C335 H353 0.932 . S
C336 C335 1.331 . S
C336 C337 1.336 . S
C337 C333 1.394 . S
C337 C336 1.336 . S
C337 H352 0.929 . S
C338 C328 1.386 . S
C338 C331 1.357 . S
C338 H351 0.928 . S
H339 C315 0.931 . S
H340 C317 0.930 . S
H341 C319 0.929 . S
H342 C320 0.931 . S
H343 C322 0.930 . S
H344 C326 0.931 . S
H345 C324 0.931 . S
H346 C328 0.931 . S
H347 C329 0.929 . S
H348 C330 0.930 . S
H349 C333 0.930 . S
H350 C334 0.931 . S
H351 C338 0.928 . S
H352 C337 0.929 . S
H353 C335 0.932 . S
C354 C355 1.349 . S
C354 C356 1.327 . S
C354 H379 0.950 . S
C355 C354 1.349 . S
C355 C371 1.349 . S
C356 C354 1.327 . S
C356 C375 1.429 . S
C356 H380 0.950 . S
C357 C374 1.574 . S
C357 C376 1.368 . S
C357 H381 0.949 . S
H358 C362 0.949 . S
C359 C360 1.349 . S
C359 C361 1.327 . S
C359 H382 0.950 . S
C360 C359 1.349 . S
C360 C372 1.349 . S
C361 C359 1.327 . S
C361 C377 1.429 . S
C361 H383 0.950 . S
C362 H358 0.949 . S
C362 C370 1.574 . S
C362 C378 1.368 . S
H363 C371 0.950 . S
H364 C369 0.950 . S
H365 C370 0.949 . S
H366 C372 0.950 . S
H367 C373 0.950 . S
H368 C374 0.949 . S
C369 H364 0.950 . S
C369 C371 1.327 . S
C369 C375 1.429 . S
C370 C362 1.574 . S
C370 H365 0.949 . S
C370 C376 1.368 . S
C371 C355 1.349 . S
C371 H363 0.950 . S
C371 C369 1.327 . S
C372 C360 1.349 . S
C372 H366 0.950 . S
C372 C373 1.327 . S
C373 H367 0.950 . S
C373 C372 1.327 . S
C373 C377 1.429 . S
C374 C357 1.574 . S
C374 H368 0.949 . S
C374 C378 1.368 . S
C375 C356 1.429 . S
C375 C369 1.429 . S
C375 C376 1.523 . S
C376 C357 1.368 . S
C376 C370 1.368 . S
C376 C375 1.523 . S
C377 C361 1.429 . S
C377 C373 1.429 . S
C377 C378 1.523 . S
C378 C362 1.368 . S
C378 C374 1.368 . S
C378 C377 1.523 . S
H379 C354 0.950 . S
H380 C356 0.950 . S
H381 C357 0.949 . S
H382 C359 0.950 . S
H383 C361 0.950 . S
C384 C385 1.349 . S
C384 C386 1.327 . S
C384 H409 0.950 . S
C385 C384 1.349 . S
C385 C401 1.349 . S
C386 C384 1.327 . S
C386 C405 1.429 . S
C386 H410 0.950 . S
C387 C404 1.574 . S
C387 C406 1.368 . S
C387 H411 0.949 . S
H388 C392 0.949 . S
C389 C390 1.349 . S
C389 C391 1.327 . S
C389 H412 0.950 . S
C390 C389 1.349 . S
C390 C402 1.349 . S
C391 C389 1.327 . S
C391 C407 1.429 . S
C391 H413 0.950 . S
C392 H388 0.949 . S
C392 C400 1.574 . S
C392 C408 1.368 . S
H393 C401 0.950 . S
H394 C399 0.950 . S
H395 C400 0.949 . S
H396 C402 0.950 . S
H397 C403 0.950 . S
H398 C404 0.949 . S
C399 H394 0.950 . S
C399 C401 1.327 . S
C399 C405 1.429 . S
C400 C392 1.574 . S
C400 H395 0.949 . S
C400 C406 1.368 . S
C401 C385 1.349 . S
C401 H393 0.950 . S
C401 C399 1.327 . S
C402 C390 1.349 . S
C402 H396 0.950 . S
C402 C403 1.327 . S
C403 H397 0.950 . S
C403 C402 1.327 . S
C403 C407 1.429 . S
C404 C387 1.574 . S
C404 H398 0.949 . S
C404 C408 1.368 . S
C405 C386 1.429 . S
C405 C399 1.429 . S
C405 C406 1.523 . S
C406 C387 1.368 . S
C406 C400 1.368 . S
C406 C405 1.523 . S
C407 C391 1.429 . S
C407 C403 1.429 . S
C407 C408 1.523 . S
C408 C392 1.368 . S
C408 C404 1.368 . S
C408 C407 1.523 . S
H409 C384 0.950 . S
H410 C386 0.950 . S
H411 C387 0.949 . S
H412 C389 0.950 . S
H413 C391 0.950 . S
C414 C415 1.349 . S
C414 C416 1.327 . S
C414 H439 0.950 . S
C415 C414 1.349 . S
C415 C431 1.349 . S
C416 C414 1.327 . S
C416 C435 1.429 . S
C416 H440 0.950 . S
C417 C434 1.574 . S
C417 C436 1.368 . S
C417 H441 0.949 . S
H418 C422 0.949 . S
C419 C420 1.349 . S
C419 C421 1.327 . S
C419 H442 0.950 . S
C420 C419 1.349 . S
C420 C432 1.349 . S
C421 C419 1.327 . S
C421 C437 1.429 . S
C421 H443 0.950 . S
C422 H418 0.949 . S
C422 C430 1.574 . S
C422 C438 1.368 . S
H423 C431 0.950 . S
H424 C429 0.950 . S
H425 C430 0.949 . S
H426 C432 0.950 . S
H427 C433 0.950 . S
H428 C434 0.949 . S
C429 H424 0.950 . S
C429 C431 1.327 . S
C429 C435 1.429 . S
C430 C422 1.574 . S
C430 H425 0.949 . S
C430 C436 1.368 . S
C431 C415 1.349 . S
C431 H423 0.950 . S
C431 C429 1.327 . S
C432 C420 1.349 . S
C432 H426 0.950 . S
C432 C433 1.327 . S
C433 H427 0.950 . S
C433 C432 1.327 . S
C433 C437 1.429 . S
C434 C417 1.574 . S
C434 H428 0.949 . S
C434 C438 1.368 . S
C435 C416 1.429 . S
C435 C429 1.429 . S
C435 C436 1.523 . S
C436 C417 1.368 . S
C436 C430 1.368 . S
C436 C435 1.523 . S
C437 C421 1.429 . S
C437 C433 1.429 . S
C437 C438 1.523 . S
C438 C422 1.368 . S
C438 C434 1.368 . S
C438 C437 1.523 . S
H439 C414 0.950 . S
H440 C416 0.950 . S
H441 C417 0.949 . S
H442 C419 0.950 . S
H443 C421 0.950 . S
C444 C445 1.349 . S
C444 C446 1.327 . S
C444 H469 0.950 . S
C445 C444 1.349 . S
C445 C461 1.349 . S
C446 C444 1.327 . S
C446 C465 1.429 . S
C446 H470 0.950 . S
C447 C464 1.574 . S
C447 C466 1.368 . S
C447 H471 0.949 . S
H448 C452 0.949 . S
C449 C450 1.349 . S
C449 C451 1.327 . S
C449 H472 0.950 . S
C450 C449 1.349 . S
C450 C462 1.349 . S
C451 C449 1.327 . S
C451 C467 1.429 . S
C451 H473 0.950 . S
C452 H448 0.949 . S
C452 C460 1.574 . S
C452 C468 1.368 . S
H453 C461 0.950 . S
H454 C459 0.950 . S
H455 C460 0.949 . S
H456 C462 0.950 . S
H457 C463 0.950 . S
H458 C464 0.949 . S
C459 H454 0.950 . S
C459 C461 1.327 . S
C459 C465 1.429 . S
C460 C452 1.574 . S
C460 H455 0.949 . S
C460 C466 1.368 . S
C461 C445 1.349 . S
C461 H453 0.950 . S
C461 C459 1.327 . S
C462 C450 1.349 . S
C462 H456 0.950 . S
C462 C463 1.327 . S
C463 H457 0.950 . S
C463 C462 1.327 . S
C463 C467 1.429 . S
C464 C447 1.574 . S
C464 H458 0.949 . S
C464 C468 1.368 . S
C465 C446 1.429 . S
C465 C459 1.429 . S
C465 C466 1.523 . S
C466 C447 1.368 . S
C466 C460 1.368 . S
C466 C465 1.523 . S
C467 C451 1.429 . S
C467 C463 1.429 . S
C467 C468 1.523 . S
C468 C452 1.368 . S
C468 C464 1.368 . S
C468 C467 1.523 . S
H469 C444 0.950 . S
H470 C446 0.950 . S
H471 C447 0.949 . S
H472 C449 0.950 . S
H473 C451 0.950 . S
C474 C475 1.349 . S
C474 C476 1.327 . S
C474 H499 0.950 . S
C475 C474 1.349 . S
C475 C491 1.349 . S
C476 C474 1.327 . S
C476 C495 1.429 . S
C476 H500 0.950 . S
C477 C494 1.574 . S
C477 C496 1.368 . S
C477 H501 0.949 . S
H478 C482 0.949 . S
C479 C480 1.349 . S
C479 C481 1.327 . S
C479 H502 0.950 . S
C480 C479 1.349 . S
C480 C492 1.349 . S
C481 C479 1.327 . S
C481 C497 1.429 . S
C481 H503 0.950 . S
C482 H478 0.949 . S
C482 C490 1.574 . S
C482 C498 1.368 . S
H483 C491 0.950 . S
H484 C489 0.950 . S
H485 C490 0.949 . S
H486 C492 0.950 . S
H487 C493 0.950 . S
H488 C494 0.949 . S
C489 H484 0.950 . S
C489 C491 1.327 . S
C489 C495 1.429 . S
C490 C482 1.574 . S
C490 H485 0.949 . S
C490 C496 1.368 . S
C491 C475 1.349 . S
C491 H483 0.950 . S
C491 C489 1.327 . S
C492 C480 1.349 . S
C492 H486 0.950 . S
C492 C493 1.327 . S
C493 H487 0.950 . S
C493 C492 1.327 . S
C493 C497 1.429 . S
C494 C477 1.574 . S
C494 H488 0.949 . S
C494 C498 1.368 . S
C495 C476 1.429 . S
C495 C489 1.429 . S
C495 C496 1.523 . S
C496 C477 1.368 . S
C496 C490 1.368 . S
C496 C495 1.523 . S
C497 C481 1.429 . S
C497 C493 1.429 . S
C497 C498 1.523 . S
C498 C482 1.368 . S
C498 C494 1.368 . S
C498 C497 1.523 . S
H499 C474 0.950 . S
H500 C476 0.950 . S
H501 C477 0.949 . S
H502 C479 0.950 . S
H503 C481 0.950 . S
C504 C505 1.349 . S
C504 C506 1.327 . S
C504 H529 0.950 . S
C505 C504 1.349 . S
C505 C521 1.349 . S
C506 C504 1.327 . S
C506 C525 1.429 . S
C506 H530 0.950 . S
C507 C524 1.574 . S
C507 C526 1.368 . S
C507 H531 0.949 . S
H508 C512 0.949 . S
C509 C510 1.349 . S
C509 C511 1.327 . S
C509 H532 0.950 . S
C510 C509 1.349 . S
C510 C522 1.349 . S
C511 C509 1.327 . S
C511 C527 1.429 . S
C511 H533 0.950 . S
C512 H508 0.949 . S
C512 C520 1.574 . S
C512 C528 1.368 . S
H513 C521 0.950 . S
H514 C519 0.950 . S
H515 C520 0.949 . S
H516 C522 0.950 . S
H517 C523 0.950 . S
H518 C524 0.949 . S
C519 H514 0.950 . S
C519 C521 1.327 . S
C519 C525 1.429 . S
C520 C512 1.574 . S
C520 H515 0.949 . S
C520 C526 1.368 . S
C521 C505 1.349 . S
C521 H513 0.950 . S
C521 C519 1.327 . S
C522 C510 1.349 . S
C522 H516 0.950 . S
C522 C523 1.327 . S
C523 H517 0.950 . S
C523 C522 1.327 . S
C523 C527 1.429 . S
C524 C507 1.574 . S
C524 H518 0.949 . S
C524 C528 1.368 . S
C525 C506 1.429 . S
C525 C519 1.429 . S
C525 C526 1.523 . S
C526 C507 1.368 . S
C526 C520 1.368 . S
C526 C525 1.523 . S
C527 C511 1.429 . S
C527 C523 1.429 . S
C527 C528 1.523 . S
C528 C512 1.368 . S
C528 C524 1.368 . S
C528 C527 1.523 . S
H529 C504 0.950 . S
H530 C506 0.950 . S
H531 C507 0.949 . S
H532 C509 0.950 . S
H533 C511 0.950 . S
C534 C535 1.349 . S
C534 C536 1.327 . S
C534 H559 0.950 . S
C535 C534 1.349 . S
C535 C551 1.349 . S
C536 C534 1.327 . S
C536 C555 1.429 . S
C536 H560 0.950 . S
C537 C554 1.574 . S
C537 C556 1.368 . S
C537 H561 0.949 . S
H538 C542 0.949 . S
C539 C540 1.349 . S
C539 C541 1.327 . S
C539 H562 0.950 . S
C540 C539 1.349 . S
C540 C552 1.349 . S
C541 C539 1.327 . S
C541 C557 1.429 . S
C541 H563 0.950 . S
C542 H538 0.949 . S
C542 C550 1.574 . S
C542 C558 1.368 . S
H543 C551 0.950 . S
H544 C549 0.950 . S
H545 C550 0.949 . S
H546 C552 0.950 . S
H547 C553 0.950 . S
H548 C554 0.949 . S
C549 H544 0.950 . S
C549 C551 1.327 . S
C549 C555 1.429 . S
C550 C542 1.574 . S
C550 H545 0.949 . S
C550 C556 1.368 . S
C551 C535 1.349 . S
C551 H543 0.950 . S
C551 C549 1.327 . S
C552 C540 1.349 . S
C552 H546 0.950 . S
C552 C553 1.327 . S
C553 H547 0.950 . S
C553 C552 1.327 . S
C553 C557 1.429 . S
C554 C537 1.574 . S
C554 H548 0.949 . S
C554 C558 1.368 . S
C555 C536 1.429 . S
C555 C549 1.429 . S
C555 C556 1.523 . S
C556 C537 1.368 . S
C556 C550 1.368 . S
C556 C555 1.523 . S
C557 C541 1.429 . S
C557 C553 1.429 . S
C557 C558 1.523 . S
C558 C542 1.368 . S
C558 C554 1.368 . S
C558 C557 1.523 . S
H559 C534 0.950 . S
H560 C536 0.950 . S
H561 C537 0.949 . S
H562 C539 0.950 . S
H563 C541 0.950 . S
C564 C565 1.349 . S
C564 C566 1.327 . S
C564 H589 0.950 . S
C565 C564 1.349 . S
C565 C581 1.349 . S
C566 C564 1.327 . S
C566 C585 1.429 . S
C566 H590 0.950 . S
C567 C584 1.574 . S
C567 C586 1.368 . S
C567 H591 0.949 . S
H568 C572 0.949 . S
C569 C570 1.349 . S
C569 C571 1.327 . S
C569 H592 0.950 . S
C570 C569 1.349 . S
C570 C582 1.349 . S
C571 C569 1.327 . S
C571 C587 1.429 . S
C571 H593 0.950 . S
C572 H568 0.949 . S
C572 C580 1.574 . S
C572 C588 1.368 . S
H573 C581 0.950 . S
H574 C579 0.950 . S
H575 C580 0.949 . S
H576 C582 0.950 . S
H577 C583 0.950 . S
H578 C584 0.949 . S
C579 H574 0.950 . S
C579 C581 1.327 . S
C579 C585 1.429 . S
C580 C572 1.574 . S
C580 H575 0.949 . S
C580 C586 1.368 . S
C581 C565 1.349 . S
C581 H573 0.950 . S
C581 C579 1.327 . S
C582 C570 1.349 . S
C582 H576 0.950 . S
C582 C583 1.327 . S
C583 H577 0.950 . S
C583 C582 1.327 . S
C583 C587 1.429 . S
C584 C567 1.574 . S
C584 H578 0.949 . S
C584 C588 1.368 . S
C585 C566 1.429 . S
C585 C579 1.429 . S
C585 C586 1.523 . S
C586 C567 1.368 . S
C586 C580 1.368 . S
C586 C585 1.523 . S
C587 C571 1.429 . S
C587 C583 1.429 . S
C587 C588 1.523 . S
C588 C572 1.368 . S
C588 C584 1.368 . S
C588 C587 1.523 . S
H589 C564 0.950 . S
H590 C566 0.950 . S
H591 C567 0.949 . S
H592 C569 0.950 . S
H593 C571 0.950 . S
C594 C595 1.349 . S
C594 C596 1.327 . S
C594 H619 0.950 . S
C595 C594 1.349 . S
C595 C611 1.349 . S
C596 C594 1.327 . S
C596 C615 1.429 . S
C596 H620 0.950 . S
C597 C614 1.574 . S
C597 C616 1.368 . S
C597 H621 0.949 . S
H598 C602 0.949 . S
C599 C600 1.349 . S
C599 C601 1.327 . S
C599 H622 0.950 . S
C600 C599 1.349 . S
C600 C612 1.349 . S
C601 C599 1.327 . S
C601 C617 1.429 . S
C601 H623 0.950 . S
C602 H598 0.949 . S
C602 C610 1.574 . S
C602 C618 1.368 . S
H603 C611 0.950 . S
H604 C609 0.950 . S
H605 C610 0.949 . S
H606 C612 0.950 . S
H607 C613 0.950 . S
H608 C614 0.949 . S
C609 H604 0.950 . S
C609 C611 1.327 . S
C609 C615 1.429 . S
C610 C602 1.574 . S
C610 H605 0.949 . S
C610 C616 1.368 . S
C611 C595 1.349 . S
C611 H603 0.950 . S
C611 C609 1.327 . S
C612 C600 1.349 . S
C612 H606 0.950 . S
C612 C613 1.327 . S
C613 H607 0.950 . S
C613 C612 1.327 . S
C613 C617 1.429 . S
C614 C597 1.574 . S
C614 H608 0.949 . S
C614 C618 1.368 . S
C615 C596 1.429 . S
C615 C609 1.429 . S
C615 C616 1.523 . S
C616 C597 1.368 . S
C616 C610 1.368 . S
C616 C615 1.523 . S
C617 C601 1.429 . S
C617 C613 1.429 . S
C617 C618 1.523 . S
C618 C602 1.368 . S
C618 C614 1.368 . S
C618 C617 1.523 . S
H619 C594 0.950 . S
H620 C596 0.950 . S
H621 C597 0.949 . S
H622 C599 0.950 . S
H623 C601 0.950 . S
C624 C625 1.349 . S
C624 C626 1.327 . S
C624 H649 0.950 . S
C625 C624 1.349 . S
C625 C641 1.349 . S
C626 C624 1.327 . S
C626 C645 1.429 . S
C626 H650 0.950 . S
C627 C644 1.574 . S
C627 C646 1.368 . S
C627 H651 0.949 . S
H628 C632 0.949 . S
C629 C630 1.349 . S
C629 C631 1.327 . S
C629 H652 0.950 . S
C630 C629 1.349 . S
C630 C642 1.349 . S
C631 C629 1.327 . S
C631 C647 1.429 . S
C631 H653 0.950 . S
C632 H628 0.949 . S
C632 C640 1.574 . S
C632 C648 1.368 . S
H633 C641 0.950 . S
H634 C639 0.950 . S
H635 C640 0.949 . S
H636 C642 0.950 . S
H637 C643 0.950 . S
H638 C644 0.949 . S
C639 H634 0.950 . S
C639 C641 1.327 . S
C639 C645 1.429 . S
C640 C632 1.574 . S
C640 H635 0.949 . S
C640 C646 1.368 . S
C641 C625 1.349 . S
C641 H633 0.950 . S
C641 C639 1.327 . S
C642 C630 1.349 . S
C642 H636 0.950 . S
C642 C643 1.327 . S
C643 H637 0.950 . S
C643 C642 1.327 . S
C643 C647 1.429 . S
C644 C627 1.574 . S
C644 H638 0.949 . S
C644 C648 1.368 . S
C645 C626 1.429 . S
C645 C639 1.429 . S
C645 C646 1.523 . S
C646 C627 1.368 . S
C646 C640 1.368 . S
C646 C645 1.523 . S
C647 C631 1.429 . S
C647 C643 1.429 . S
C647 C648 1.523 . S
C648 C632 1.368 . S
C648 C644 1.368 . S
C648 C647 1.523 . S
H649 C624 0.950 . S
H650 C626 0.950 . S
H651 C627 0.949 . S
H652 C629 0.950 . S
H653 C631 0.950 . S
C654 C655 1.349 . S
C654 C656 1.327 . S
C654 H679 0.950 . S
C655 C654 1.349 . S
C655 C671 1.349 . S
C656 C654 1.327 . S
C656 C675 1.429 . S
C656 H680 0.950 . S
C657 C674 1.574 . S
C657 C676 1.368 . S
C657 H681 0.949 . S
H658 C662 0.949 . S
C659 C660 1.349 . S
C659 C661 1.327 . S
C659 H682 0.950 . S
C660 C659 1.349 . S
C660 C672 1.349 . S
C661 C659 1.327 . S
C661 C677 1.429 . S
C661 H683 0.950 . S
C662 H658 0.949 . S
C662 C670 1.574 . S
C662 C678 1.368 . S
H663 C671 0.950 . S
H664 C669 0.950 . S
H665 C670 0.949 . S
H666 C672 0.950 . S
H667 C673 0.950 . S
H668 C674 0.949 . S
C669 H664 0.950 . S
C669 C671 1.327 . S
C669 C675 1.429 . S
C670 C662 1.574 . S
C670 H665 0.949 . S
C670 C676 1.368 . S
C671 C655 1.349 . S
C671 H663 0.950 . S
C671 C669 1.327 . S
C672 C660 1.349 . S
C672 H666 0.950 . S
C672 C673 1.327 . S
C673 H667 0.950 . S
C673 C672 1.327 . S
C673 C677 1.429 . S
C674 C657 1.574 . S
C674 H668 0.949 . S
C674 C678 1.368 . S
C675 C656 1.429 . S
C675 C669 1.429 . S
C675 C676 1.523 . S
C676 C657 1.368 . S
C676 C670 1.368 . S
C676 C675 1.523 . S
C677 C661 1.429 . S
C677 C673 1.429 . S
C677 C678 1.523 . S
C678 C662 1.368 . S
C678 C674 1.368 . S
C678 C677 1.523 . S
H679 C654 0.950 . S
H680 C656 0.950 . S
H681 C657 0.949 . S
H682 C659 0.950 . S
H683 C661 0.950 . S
C684 C685 1.349 . S
C684 C686 1.327 . S
C684 H709 0.950 . S
C685 C684 1.349 . S
C685 C701 1.349 . S
C686 C684 1.327 . S
C686 C705 1.429 . S
C686 H710 0.950 . S
C687 C704 1.574 . S
C687 C706 1.368 . S
C687 H711 0.949 . S
H688 C692 0.949 . S
C689 C690 1.349 . S
C689 C691 1.327 . S
C689 H712 0.950 . S
C690 C689 1.349 . S
C690 C702 1.349 . S
C691 C689 1.327 . S
C691 C707 1.429 . S
C691 H713 0.950 . S
C692 H688 0.949 . S
C692 C700 1.574 . S
C692 C708 1.368 . S
H693 C701 0.950 . S
H694 C699 0.950 . S
H695 C700 0.949 . S
H696 C702 0.950 . S
H697 C703 0.950 . S
H698 C704 0.949 . S
C699 H694 0.950 . S
C699 C701 1.327 . S
C699 C705 1.429 . S
C700 C692 1.574 . S
C700 H695 0.949 . S
C700 C706 1.368 . S
C701 C685 1.349 . S
C701 H693 0.950 . S
C701 C699 1.327 . S
C702 C690 1.349 . S
C702 H696 0.950 . S
C702 C703 1.327 . S
C703 H697 0.950 . S
C703 C702 1.327 . S
C703 C707 1.429 . S
C704 C687 1.574 . S
C704 H698 0.949 . S
C704 C708 1.368 . S
C705 C686 1.429 . S
C705 C699 1.429 . S
C705 C706 1.523 . S
C706 C687 1.368 . S
C706 C700 1.368 . S
C706 C705 1.523 . S
C707 C691 1.429 . S
C707 C703 1.429 . S
C707 C708 1.523 . S
C708 C692 1.368 . S
C708 C704 1.368 . S
C708 C707 1.523 . S
H709 C684 0.950 . S
H710 C686 0.950 . S
H711 C687 0.949 . S
H712 C689 0.950 . S
H713 C691 0.950 . S
C714 C715 1.349 . S
C714 C716 1.327 . S
C714 H739 0.950 . S
C715 C714 1.349 . S
C715 C731 1.349 1_455 S
C716 C714 1.327 . S
C716 C735 1.429 . S
C716 H740 0.950 . S
C717 C734 1.574 . S
C717 C736 1.368 1_655 S
C717 H741 0.949 . S
H718 C722 0.949 . S
C719 C720 1.349 1_655 S
C719 C721 1.383 . S
C719 H742 0.950 . S
C720 C719 1.349 1_455 S
C720 C732 1.349 . S
C721 C719 1.383 . S
C721 C737 1.398 1_656 S
C721 H743 0.926 1_556 S
C722 H718 0.949 . S
C722 C730 1.574 . S
C722 C738 1.368 . S
H723 C731 0.950 . S
H724 C729 0.950 . S
H725 C730 0.949 . S
H726 C732 0.950 . S
H727 C733 0.985 . S
H728 C734 0.949 . S
C729 H724 0.950 . S
C729 C731 1.327 . S
C729 C735 1.429 1_655 S
C730 C722 1.574 . S
C730 H725 0.949 . S
C730 C736 1.368 . S
C731 C715 1.349 1_655 S
C731 H723 0.950 . S
C731 C729 1.327 . S
C732 C720 1.349 . S
C732 H726 0.950 . S
C732 C733 1.258 1_556 S
C733 H727 0.985 . S
C733 C732 1.258 1_554 S
C733 C737 1.466 . S
C734 C717 1.574 . S
C734 H728 0.949 . S
C734 C738 1.368 1_655 S
C735 C716 1.429 . S
C735 C729 1.429 1_455 S
C735 C736 1.523 . S
C736 C717 1.368 1_455 S
C736 C730 1.368 . S
C736 C735 1.523 . S
C737 C721 1.398 1_454 S
C737 C733 1.466 . S
C737 C738 1.523 . S
C738 C722 1.368 . S
C738 C734 1.368 1_455 S
C738 C737 1.523 . S
H739 C714 0.950 . S
H740 C716 0.950 . S
H741 C717 0.949 . S
H742 C719 0.950 . S
H743 C721 0.926 1_554 S
C744 C745 1.349 . S
C744 C746 1.327 . S
C744 H769 0.950 . S
C745 C744 1.349 . S
C745 C761 1.349 . S
C746 C744 1.327 . S
C746 C765 1.429 . S
C746 H770 0.950 . S
C747 C764 1.574 . S
C747 C766 1.368 . S
C747 H771 0.949 1_545 S
H748 C752 0.949 . S
C749 C750 1.349 . S
C749 C751 1.327 . S
C749 H772 0.950 1_545 S
C750 C749 1.349 . S
C750 C762 1.349 . S
C751 C749 1.327 . S
C751 C767 1.429 . S
C751 H773 0.950 1_545 S
C752 H748 0.949 . S
C752 C760 1.574 . S
C752 C768 1.368 . S
H753 C761 0.950 1_565 S
H754 C759 0.950 1_565 S
H755 C760 0.949 . S
H756 C762 0.950 . S
H757 C763 0.950 . S
H758 C764 0.949 1_565 S
C759 H754 0.950 1_545 S
C759 C761 1.327 . S
C759 C765 1.429 . S
C760 C752 1.574 . S
C760 H755 0.949 . S
C760 C766 1.368 . S
C761 C745 1.349 . S
C761 H753 0.950 1_545 S
C761 C759 1.327 . S
C762 C750 1.349 . S
C762 H756 0.950 . S
C762 C763 1.327 . S
C763 H757 0.950 . S
C763 C762 1.327 . S
C763 C767 1.429 . S
C764 C747 1.574 . S
C764 H758 0.949 1_545 S
C764 C768 1.368 . S
C765 C746 1.429 . S
C765 C759 1.429 . S
C765 C766 1.523 . S
C766 C747 1.368 . S
C766 C760 1.368 . S
C766 C765 1.523 . S
C767 C751 1.429 . S
C767 C763 1.429 . S
C767 C768 1.523 . S
C768 C752 1.368 . S
C768 C764 1.368 . S
C768 C767 1.523 . S
H769 C744 0.950 . S
H770 C746 0.950 . S
H771 C747 0.949 1_565 S
H772 C749 0.950 1_565 S
H773 C751 0.950 1_565 S
C774 C775 1.349 . S
C774 C776 1.327 . S
C774 H799 0.950 . S
C775 C774 1.349 . S
C775 C791 1.349 . S
C776 C774 1.327 . S
C776 C795 1.429 . S
C776 H800 0.950 . S
C777 C794 1.574 . S
C777 C796 1.368 . S
C777 H801 0.949 . S
H778 C782 0.949 . S
C779 C780 1.349 . S
C779 C781 1.327 . S
C779 H802 0.950 . S
C780 C779 1.349 . S
C780 C792 1.349 . S
C781 C779 1.327 . S
C781 C797 1.429 . S
C781 H803 0.950 . S
C782 H778 0.949 . S
C782 C790 1.574 . S
C782 C798 1.368 . S
H783 C791 0.950 . S
H784 C789 0.950 . S
H785 C790 0.949 . S
H786 C792 0.950 . S
H787 C793 0.950 . S
H788 C794 0.949 . S
C789 H784 0.950 . S
C789 C791 1.327 . S
C789 C795 1.429 . S
C790 C782 1.574 . S
C790 H785 0.949 . S
C790 C796 1.368 . S
C791 C775 1.349 . S
C791 H783 0.950 . S
C791 C789 1.327 . S
C792 C780 1.349 . S
C792 H786 0.950 . S
C792 C793 1.327 . S
C793 H787 0.950 . S
C793 C792 1.327 . S
C793 C797 1.429 . S
C794 C777 1.574 . S
C794 H788 0.949 . S
C794 C798 1.368 . S
C795 C776 1.429 . S
C795 C789 1.429 . S
C795 C796 1.523 . S
C796 C777 1.368 . S
C796 C790 1.368 . S
C796 C795 1.523 . S
C797 C781 1.429 . S
C797 C793 1.429 . S
C797 C798 1.523 . S
C798 C782 1.368 . S
C798 C794 1.368 . S
C798 C797 1.523 . S
H799 C774 0.950 . S
H800 C776 0.950 . S
H801 C777 0.949 . S
H802 C779 0.950 . S
H803 C781 0.950 . S
C804 C805 1.349 1_565 S
C804 C806 1.327 . S
C804 H829 0.950 . S
C805 C804 1.349 1_545 S
C805 C821 1.349 . S
C806 C804 1.327 . S
C806 C825 1.429 1_565 S
C806 H830 0.950 . S
C807 C824 1.574 . S
C807 C826 1.368 . S
C807 H831 0.949 . S
H808 C812 0.949 . S
C809 C810 1.349 . S
C809 C811 1.327 . S
C809 H832 0.950 . S
C810 C809 1.349 . S
C810 C822 1.349 1_545 S
C811 C809 1.327 . S
C811 C827 1.429 . S
C811 H833 0.950 . S
C812 H808 0.949 . S
C812 C820 1.574 . S
C812 C828 1.368 1_565 S
H813 C821 0.950 . S
H814 C819 0.950 . S
H815 C820 0.949 . S
H816 C822 0.950 . S
H817 C823 0.950 . S
H818 C824 0.949 . S
C819 H814 0.950 . S
C819 C821 1.327 . S
C819 C825 1.429 . S
C820 C812 1.574 . S
C820 H815 0.949 . S
C820 C826 1.368 1_565 S
C821 C805 1.349 . S
C821 H813 0.950 . S
C821 C819 1.327 . S
C822 C810 1.349 1_565 S
C822 H816 0.950 . S
C822 C823 1.327 . S
C823 H817 0.950 . S
C823 C822 1.327 . S
C823 C827 1.429 1_565 S
C824 C807 1.574 . S
C824 H818 0.949 . S
C824 C828 1.368 . S
C825 C806 1.429 1_545 S
C825 C819 1.429 . S
C825 C826 1.523 . S
C826 C807 1.368 . S
C826 C820 1.368 1_545 S
C826 C825 1.523 . S
C827 C811 1.429 . S
C827 C823 1.429 1_545 S
C827 C828 1.523 . S
C828 C812 1.368 1_545 S
C828 C824 1.368 . S
C828 C827 1.523 . S
H829 C804 0.950 . S
H830 C806 0.950 . S
H831 C807 0.949 . S
H832 C809 0.950 . S
H833 C811 0.950 . S
C834 C835 1.349 . S
C834 C836 1.327 . S
C834 H859 0.950 . S
C835 C834 1.349 . S
C835 C851 1.349 . S
C836 C834 1.327 . S
C836 C855 1.429 . S
C836 H860 0.950 . S
C837 C854 1.574 . S
C837 C856 1.368 . S
C837 H861 0.949 . S
H838 C842 0.949 . S
C839 C840 1.349 . S
C839 C841 1.347 . S
C839 H862 0.950 . S
C840 C839 1.349 . S
C840 C852 1.349 . S
C841 C839 1.347 . S
C841 C857 1.419 1_554 S
C841 H863 0.940 1_554 S
C842 H838 0.949 . S
C842 C850 1.574 . S
C842 C858 1.368 . S
H843 C851 0.950 . S
H844 C849 0.950 . S
H845 C850 0.949 . S
H846 C852 0.950 . S
H847 C853 0.950 1_556 S
H848 C854 0.949 . S
C849 H844 0.950 . S
C849 C851 1.327 . S
C849 C855 1.429 . S
C850 C842 1.574 . S
C850 H845 0.949 . S
C850 C856 1.368 . S
C851 C835 1.349 . S
C851 H843 0.950 . S
C851 C849 1.327 . S
C852 C840 1.349 . S
C852 H846 0.950 . S
C852 C853 1.327 . S
C853 H847 0.950 1_554 S
C853 C852 1.327 . S
C853 C857 1.429 1_554 S
C854 C837 1.574 . S
C854 H848 0.949 . S
C854 C858 1.368 . S
C855 C836 1.429 . S
C855 C849 1.429 . S
C855 C856 1.523 . S
C856 C837 1.368 . S
C856 C850 1.368 . S
C856 C855 1.523 . S
C857 C841 1.419 1_556 S
C857 C853 1.429 1_556 S
C857 C858 1.523 . S
C858 C842 1.368 . S
C858 C854 1.368 . S
C858 C857 1.523 . S
H859 C834 0.950 . S
H860 C836 0.950 . S
H861 C837 0.949 . S
H862 C839 0.950 . S
H863 C841 0.940 1_556 S
C864 C865 1.349 . S
C864 C866 1.327 . S
C864 H889 0.950 . S
C865 C864 1.349 . S
C865 C881 1.349 . S
C866 C864 1.327 . S
C866 C885 1.429 . S
C866 H890 0.950 . S
C867 C884 1.574 . S
C867 C886 1.368 1_655 S
C867 H891 0.949 . S
H868 C872 0.949 . S
C869 C870 1.349 . S
C869 C871 1.327 . S
C869 H892 0.950 . S
C870 C869 1.349 . S
C870 C882 1.349 1_655 S
C871 C869 1.327 . S
C871 C887 1.438 . S
C871 H893 0.950 . S
C872 H868 0.949 . S
C872 C880 1.574 . S
C872 C888 1.378 . S
H873 C881 0.950 1_655 S
H874 C879 0.968 . S
H875 C880 0.949 . S
H876 C882 0.950 . S
H877 C883 0.950 . S
H878 C884 0.949 . S
C879 H874 0.968 . S
C879 C881 1.325 1_655 S
C879 C885 1.414 1_655 S
C880 C872 1.574 . S
C880 H875 0.949 . S
C880 C886 1.368 . S
C881 C865 1.349 . S
C881 H873 0.950 1_455 S
C881 C879 1.325 1_455 S
C882 C870 1.349 1_455 S
C882 H876 0.950 . S
C882 C883 1.327 . S
C883 H877 0.950 . S
C883 C882 1.327 . S
C883 C887 1.421 1_455 S
C884 C867 1.574 . S
C884 H878 0.949 . S
C884 C888 1.360 1_655 S
C885 C866 1.429 . S
C885 C879 1.414 1_455 S
C885 C886 1.523 . S
C886 C867 1.368 1_455 S
C886 C880 1.368 . S
C886 C885 1.523 . S
C887 C871 1.438 . S
C887 C883 1.421 1_655 S
C887 C888 1.521 1_655 S
C888 C872 1.378 . S
C888 C884 1.360 1_455 S
C888 C887 1.521 1_455 S
H889 C864 0.950 . S
H890 C866 0.950 . S
H891 C867 0.949 . S
H892 C869 0.950 . S
H893 C871 0.950 . S
C355 C19 1.871 . S
C360 C331 1.839 . S
C385 C46 1.155 . S
C390 C258 1.156 . S
C415 C95 0.331 . S
C420 C297 0.242 . S
C445 C10 1.950 . S
C450 C336 1.922 . S
C480 C253 1.249 . S
C475 C55 1.248 . S
C510 C292 0.412 . S
C505 C86 0.428 . S
C535 C59 3.061 . S
C540 C180 3.019 . S
C565 C90 1.992 . S
C570 C214 1.974 . S
C595 C15 1.232 . S
C600 C136 1.238 . S
C630 C175 2.907 . S
C625 C50 2.927 . S
C660 C219 1.820 . S
C655 C99 1.844 . S
C685 C6 1.157 . S
C690 C141 1.157 . S
C720 C199 1.381 . S
C715 C9 1.333 . S
C745 C58 1.450 . S
C750 C121 1.507 . S
C775 C98 1.690 . S
C780 C160 1.760 . S
C810 C277 1.110 . S
C805 C49 1.087 . S
C840 C316 1.373 . S
C835 C89 1.331 . S
C865 C18 1.440 . S
C870 C238 1.488 . S
