# Generated by pormake.
# Topology eea, (3,6)-cn, num edge types: 1
# Building blocks:
#     Node 0, Type 0, BuildingBlock: VETTIZ_charged_linker_0, # of connection points: 3
#     Node 1, Type 0, BuildingBlock: VETTIZ_charged_linker_0, # of connection points: 3
#     Node 2, Type 0, BuildingBlock: VETTIZ_charged_linker_0, # of connection points: 3
#     Node 3, Type 0, BuildingBlock: VETTIZ_charged_linker_0, # of connection points: 3
#     Node 4, Type 0, BuildingBlock: VETTIZ_charged_linker_0, # of connection points: 3
#     Node 5, Type 0, BuildingBlock: VETTIZ_charged_linker_0, # of connection points: 3
#     Node 6, Type 0, BuildingBlock: VETTIZ_charged_linker_0, # of connection points: 3
#     Node 7, Type 0, BuildingBlock: VETTIZ_charged_linker_0, # of connection points: 3
#     Node 8, Type 0, BuildingBlock: VETTIZ_charged_linker_0, # of connection points: 3
#     Node 9, Type 0, BuildingBlock: VETTIZ_charged_linker_0, # of connection points: 3
#     Node 10, Type 0, BuildingBlock: VETTIZ_charged_linker_0, # of connection points: 3
#     Node 11, Type 0, BuildingBlock: VETTIZ_charged_linker_0, # of connection points: 3
#     Node 12, Type 0, BuildingBlock: VETTIZ_charged_linker_0, # of connection points: 3
#     Node 13, Type 0, BuildingBlock: VETTIZ_charged_linker_0, # of connection points: 3
#     Node 14, Type 0, BuildingBlock: VETTIZ_charged_linker_0, # of connection points: 3
#     Node 15, Type 0, BuildingBlock: VETTIZ_charged_linker_0, # of connection points: 3
#     Node 16, Type 0, BuildingBlock: VETTIZ_charged_linker_0, # of connection points: 3
#     Node 17, Type 0, BuildingBlock: VETTIZ_charged_linker_0, # of connection points: 3
#     Node 18, Type 1, BuildingBlock: KUMJIN_clean_sbu_0, # of connection points: 6
#     Node 19, Type 1, BuildingBlock: KUMJIN_clean_sbu_0, # of connection points: 6
#     Node 20, Type 1, BuildingBlock: KUMJIN_clean_sbu_0, # of connection points: 6
#     Node 21, Type 1, BuildingBlock: KUMJIN_clean_sbu_0, # of connection points: 6
#     Node 22, Type 1, BuildingBlock: KUMJIN_clean_sbu_0, # of connection points: 6
#     Node 23, Type 1, BuildingBlock: KUMJIN_clean_sbu_0, # of connection points: 6
#     Node 24, Type 1, BuildingBlock: KUMJIN_clean_sbu_0, # of connection points: 6
#     Node 25, Type 1, BuildingBlock: KUMJIN_clean_sbu_0, # of connection points: 6
#     Node 26, Type 1, BuildingBlock: KUMJIN_clean_sbu_0, # of connection points: 6
#     Edge 27, Type (0, 1), BuildingBlock: CIFDUS_clean_linker_0, # of connection points: 2
#     Edge 28, Type (0, 1), BuildingBlock: CIFDUS_clean_linker_0, # of connection points: 2
#     Edge 29, Type (0, 1), BuildingBlock: CIFDUS_clean_linker_0, # of connection points: 2
#     Edge 30, Type (0, 1), BuildingBlock: CIFDUS_clean_linker_0, # of connection points: 2
#     Edge 31, Type (0, 1), BuildingBlock: CIFDUS_clean_linker_0, # of connection points: 2
#     Edge 32, Type (0, 1), BuildingBlock: CIFDUS_clean_linker_0, # of connection points: 2
#     Edge 33, Type (0, 1), BuildingBlock: CIFDUS_clean_linker_0, # of connection points: 2
#     Edge 34, Type (0, 1), BuildingBlock: CIFDUS_clean_linker_0, # of connection points: 2
#     Edge 35, Type (0, 1), BuildingBlock: CIFDUS_clean_linker_0, # of connection points: 2
#     Edge 36, Type (0, 1), BuildingBlock: CIFDUS_clean_linker_0, # of connection points: 2
#     Edge 37, Type (0, 1), BuildingBlock: CIFDUS_clean_linker_0, # of connection points: 2
#     Edge 38, Type (0, 1), BuildingBlock: CIFDUS_clean_linker_0, # of connection points: 2
#     Edge 39, Type (0, 1), BuildingBlock: CIFDUS_clean_linker_0, # of connection points: 2
#     Edge 40, Type (0, 1), BuildingBlock: CIFDUS_clean_linker_0, # of connection points: 2
#     Edge 41, Type (0, 1), BuildingBlock: CIFDUS_clean_linker_0, # of connection points: 2
#     Edge 42, Type (0, 1), BuildingBlock: CIFDUS_clean_linker_0, # of connection points: 2
#     Edge 43, Type (0, 1), BuildingBlock: CIFDUS_clean_linker_0, # of connection points: 2
#     Edge 44, Type (0, 1), BuildingBlock: CIFDUS_clean_linker_0, # of connection points: 2
#     Edge 45, Type (0, 1), BuildingBlock: CIFDUS_clean_linker_0, # of connection points: 2
#     Edge 46, Type (0, 1), BuildingBlock: CIFDUS_clean_linker_0, # of connection points: 2
#     Edge 47, Type (0, 1), BuildingBlock: CIFDUS_clean_linker_0, # of connection points: 2
#     Edge 48, Type (0, 1), BuildingBlock: CIFDUS_clean_linker_0, # of connection points: 2
#     Edge 49, Type (0, 1), BuildingBlock: CIFDUS_clean_linker_0, # of connection points: 2
#     Edge 50, Type (0, 1), BuildingBlock: CIFDUS_clean_linker_0, # of connection points: 2
#     Edge 51, Type (0, 1), BuildingBlock: CIFDUS_clean_linker_0, # of connection points: 2
#     Edge 52, Type (0, 1), BuildingBlock: CIFDUS_clean_linker_0, # of connection points: 2
#     Edge 53, Type (0, 1), BuildingBlock: CIFDUS_clean_linker_0, # of connection points: 2
#     Edge 54, Type (0, 1), BuildingBlock: CIFDUS_clean_linker_0, # of connection points: 2
#     Edge 55, Type (0, 1), BuildingBlock: CIFDUS_clean_linker_0, # of connection points: 2
#     Edge 56, Type (0, 1), BuildingBlock: CIFDUS_clean_linker_0, # of connection points: 2
#     Edge 57, Type (0, 1), BuildingBlock: CIFDUS_clean_linker_0, # of connection points: 2
#     Edge 58, Type (0, 1), BuildingBlock: CIFDUS_clean_linker_0, # of connection points: 2
#     Edge 59, Type (0, 1), BuildingBlock: CIFDUS_clean_linker_0, # of connection points: 2
#     Edge 60, Type (0, 1), BuildingBlock: CIFDUS_clean_linker_0, # of connection points: 2
#     Edge 61, Type (0, 1), BuildingBlock: CIFDUS_clean_linker_0, # of connection points: 2
#     Edge 62, Type (0, 1), BuildingBlock: CIFDUS_clean_linker_0, # of connection points: 2
#     Edge 63, Type (0, 1), BuildingBlock: CIFDUS_clean_linker_0, # of connection points: 2
#     Edge 64, Type (0, 1), BuildingBlock: CIFDUS_clean_linker_0, # of connection points: 2
#     Edge 65, Type (0, 1), BuildingBlock: CIFDUS_clean_linker_0, # of connection points: 2
#     Edge 66, Type (0, 1), BuildingBlock: CIFDUS_clean_linker_0, # of connection points: 2
#     Edge 67, Type (0, 1), BuildingBlock: CIFDUS_clean_linker_0, # of connection points: 2
#     Edge 68, Type (0, 1), BuildingBlock: CIFDUS_clean_linker_0, # of connection points: 2
#     Edge 69, Type (0, 1), BuildingBlock: CIFDUS_clean_linker_0, # of connection points: 2
#     Edge 70, Type (0, 1), BuildingBlock: CIFDUS_clean_linker_0, # of connection points: 2
#     Edge 71, Type (0, 1), BuildingBlock: CIFDUS_clean_linker_0, # of connection points: 2
#     Edge 72, Type (0, 1), BuildingBlock: CIFDUS_clean_linker_0, # of connection points: 2
#     Edge 73, Type (0, 1), BuildingBlock: CIFDUS_clean_linker_0, # of connection points: 2
#     Edge 74, Type (0, 1), BuildingBlock: CIFDUS_clean_linker_0, # of connection points: 2
#     Edge 75, Type (0, 1), BuildingBlock: CIFDUS_clean_linker_0, # of connection points: 2
#     Edge 76, Type (0, 1), BuildingBlock: CIFDUS_clean_linker_0, # of connection points: 2
#     Edge 77, Type (0, 1), BuildingBlock: CIFDUS_clean_linker_0, # of connection points: 2
#     Edge 78, Type (0, 1), BuildingBlock: CIFDUS_clean_linker_0, # of connection points: 2
#     Edge 79, Type (0, 1), BuildingBlock: CIFDUS_clean_linker_0, # of connection points: 2
#     Edge 80, Type (0, 1), BuildingBlock: CIFDUS_clean_linker_0, # of connection points: 2
# Relax obj value: 0.009
# Max RMSD: 0.094
# Mean RMSD: 0.066
data_MOF--net-eea--node1-KUMJIN_clean_sbu_0--node2-VETTIZ_charged_linker_0--edge1-CIFDUS_clean_linker_0
_symmetry_space_group_name_H-M    P1
_symmetry_Int_Tables_number       1
_symmetry_cell_setting            triclinic
loop_
_symmetry_equiv_pos_as_xyz
'x, y, z'
_cell_length_a     55.311867
_cell_length_b     56.687094
_cell_length_c     80.560303
_cell_angle_alpha  90.030493
_cell_angle_beta   90.077825
_cell_angle_gamma 119.88152
loop_
_atom_site_label
_atom_site_type_symbol
_atom_site_fract_x
_atom_site_fract_y
_atom_site_fract_z
_atom_type_partial_charge
C0 C 0.22704 0.18034 0.40049 0.0
C1 C 0.23405 0.20578 0.40746 0.0
C2 C 0.25081 0.21436 0.4219 0.0
C3 C 0.25259 0.17251 0.42231 0.0
C4 C 0.23665 0.16423 0.408 0.0
C5 C 0.23171 0.13705 0.40193 0.0
H6 H 0.25074 0.02884 0.4129 0.0
C7 C 0.25898 0.15103 0.42707 0.0
C8 C 0.24688 0.1302 0.41512 0.0
H9 H 0.20823 0.04276 0.37227 0.0
H10 H 0.21731 0.08523 0.38483 0.0
H11 H 0.30187 0.08805 0.41391 0.0
H12 H 0.22552 0.04846 0.44159 0.0
H13 H 0.25161 0.0692 0.45579 0.0
H14 H 0.25381 0.04219 0.4453 0.0
H15 H 0.29605 0.06426 0.43021 0.0
H16 H 0.31065 0.10013 0.43432 0.0
C17 C 0.2455 0.14117 0.38465 0.0
C18 C 0.19993 0.11684 0.40206 0.0
C19 C 0.31438 0.16076 0.47982 0.0
C20 C 0.32325 0.14386 0.48726 0.0
C21 C 0.31621 0.11885 0.47965 0.0
C22 C 0.30087 0.11082 0.4649 0.0
C23 C 0.29233 0.12792 0.45754 0.0
C24 C 0.29903 0.15241 0.46498 0.0
C25 C 0.28814 0.16786 0.45521 0.0
C26 C 0.27376 0.14849 0.44078 0.0
C27 C 0.27634 0.1252 0.44227 0.0
C28 C 0.31338 0.19506 0.44941 0.0
C29 C 0.26714 0.17113 0.46629 0.0
C30 C 0.2436 0.04111 0.40657 0.0
C31 C 0.22896 0.03248 0.39148 0.0
C32 C 0.21945 0.04885 0.38394 0.0
C33 C 0.22491 0.07359 0.3912 0.0
C34 C 0.24004 0.08209 0.40617 0.0
C35 C 0.24897 0.0658 0.41358 0.0
C36 C 0.2649 0.07785 0.42933 0.0
C37 C 0.26438 0.1043 0.43015 0.0
C38 C 0.24973 0.10672 0.41662 0.0
C39 C 0.2949 0.08274 0.42701 0.0
C40 C 0.24839 0.05849 0.44383 0.0
H41 H 0.27259 0.20562 0.4403 0.0
H42 H 0.21408 0.17288 0.3895 0.0
H43 H 0.19012 0.11998 0.41327 0.0
H44 H 0.19477 0.09539 0.40263 0.0
H45 H 0.18969 0.11968 0.39097 0.0
H46 H 0.2651 0.16116 0.38396 0.0
H47 H 0.2314 0.14071 0.37466 0.0
H48 H 0.25188 0.12599 0.38186 0.0
H49 H 0.31957 0.18018 0.48531 0.0
H50 H 0.32229 0.10521 0.48526 0.0
H51 H 0.29625 0.09153 0.45982 0.0
H52 H 0.33188 0.19271 0.44702 0.0
H53 H 0.3194 0.2112 0.45896 0.0
H54 H 0.30953 0.2023 0.43751 0.0
H55 H 0.25392 0.15215 0.4734 0.0
H56 H 0.25234 0.17483 0.45913 0.0
H57 H 0.27816 0.18792 0.47539 0.0
H58 H 0.2572 0.23406 0.42737 0.0
C59 C 0.25998 0.19788 0.42935 0.0
C60 C 0.97086 0.18463 0.39558 0.0
C61 C 0.98909 0.21085 0.40176 0.0
C62 C 0.9844 0.21783 0.41776 0.0
C63 C 0.94309 0.1735 0.42082 0.0
C64 C 0.94789 0.16645 0.40522 0.0
C65 C 0.92527 0.1385 0.40011 0.0
H66 H 0.79826 0.02874 0.41421 0.0
C67 C 0.91668 0.15065 0.42724 0.0
C68 C 0.90603 0.13012 0.41511 0.0
H69 H 0.85391 0.04349 0.3728 0.0
H70 H 0.88824 0.08534 0.38527 0.0
H71 H 0.84727 0.04584 0.44157 0.0
H72 H 0.81103 0.09059 0.4198 0.0
H73 H 0.81369 0.09594 0.44144 0.0
H74 H 0.7921 0.0621 0.43341 0.0
H75 H 0.81343 0.03989 0.44753 0.0
H76 H 0.84484 0.06606 0.45726 0.0
C77 C 0.93851 0.12019 0.39789 0.0
C78 C 0.9111 0.14154 0.38429 0.0
C79 C 0.88124 0.15803 0.48425 0.0
C80 C 0.85715 0.14076 0.49345 0.0
C81 C 0.83731 0.11574 0.48629 0.0
C82 C 0.84139 0.10807 0.4704 0.0
C83 C 0.86559 0.12555 0.46143 0.0
C84 C 0.88501 0.15006 0.4684 0.0
C85 C 0.90932 0.16628 0.45702 0.0
C86 C 0.90167 0.14719 0.44223 0.0
C87 C 0.87595 0.12338 0.44482 0.0
C88 C 0.93612 0.17045 0.46578 0.0
C89 C 0.90965 0.19303 0.4525 0.0
C90 C 0.81786 0.0408 0.40783 0.0
C91 C 0.82277 0.03276 0.39217 0.0
C92 C 0.84886 0.04936 0.38451 0.0
C93 C 0.86903 0.07369 0.39186 0.0
C94 C 0.86345 0.08176 0.40719 0.0
C95 C 0.8385 0.06511 0.41513 0.0
C96 C 0.83709 0.07629 0.43187 0.0
C97 C 0.86486 0.10278 0.43236 0.0
C98 C 0.88006 0.10597 0.41775 0.0
C99 C 0.83536 0.05602 0.44535 0.0
C100 C 0.81211 0.08142 0.43179 0.0
H101 H 0.95925 0.20603 0.43935 0.0
H102 H 0.9738 0.17879 0.38327 0.0
H103 H 0.90837 0.15966 0.38528 0.0
H104 H 0.88995 0.12425 0.38218 0.0
H105 H 0.92393 0.1442 0.3731 0.0
H106 H 0.95664 0.12657 0.40637 0.0
H107 H 0.94606 0.12124 0.385 0.0
H108 H 0.92403 0.09871 0.40116 0.0
H109 H 0.89673 0.1776 0.48916 0.0
H110 H 0.81871 0.10184 0.49309 0.0
H111 H 0.8255 0.08879 0.46571 0.0
H112 H 0.93213 0.15155 0.4723 0.0
H113 H 0.94351 0.18699 0.47516 0.0
H114 H 0.95328 0.17502 0.45706 0.0
H115 H 0.88824 0.1902 0.45261 0.0
H116 H 0.9173 0.20009 0.43978 0.0
H117 H 0.92244 0.20952 0.46146 0.0
H118 H 0.99831 0.23784 0.42284 0.0
C119 C 0.96168 0.19933 0.42733 0.0
C120 C 0.96869 0.79795 0.39179 0.0
C121 C 0.98927 0.7921 0.39748 0.0
C122 C 0.98575 0.77975 0.41317 0.0
C123 C 0.94187 0.77902 0.41715 0.0
C124 C 0.94508 0.79095 0.40172 0.0
C125 C 0.92042 0.79432 0.39729 0.0
H126 H 0.79018 0.7702 0.41657 0.0
C127 C 0.91499 0.77398 0.42431 0.0
C128 C 0.90214 0.78272 0.41263 0.0
H129 H 0.83729 0.80865 0.37232 0.0
H130 H 0.8767 0.80559 0.38315 0.0
H131 H 0.80819 0.72464 0.42057 0.0
H132 H 0.83936 0.80458 0.4411 0.0
H133 H 0.84473 0.78587 0.45654 0.0
H134 H 0.80965 0.77547 0.44977 0.0
H135 H 0.78949 0.73316 0.43538 0.0
H136 H 0.81401 0.72289 0.4419 0.0
C137 C 0.90643 0.77706 0.38161 0.0
C138 C 0.93081 0.82502 0.39516 0.0
C139 C 0.88515 0.73194 0.48216 0.0
C140 C 0.86123 0.72477 0.49189 0.0
C141 C 0.84054 0.72987 0.48541 0.0
C142 C 0.84321 0.74125 0.46962 0.0
C143 C 0.8669 0.74788 0.45999 0.0
C144 C 0.88753 0.74345 0.46632 0.0
C145 C 0.91131 0.75204 0.45423 0.0
C146 C 0.90161 0.76258 0.43973 0.0
C147 C 0.87548 0.75986 0.44318 0.0
C148 C 0.91314 0.7265 0.4494 0.0
C149 C 0.93804 0.77498 0.46243 0.0
C150 C 0.80896 0.77784 0.40918 0.0
C151 C 0.81051 0.78928 0.39348 0.0
C152 C 0.83558 0.79965 0.38443 0.0
C153 C 0.85833 0.79769 0.3907 0.0
C154 C 0.85612 0.78543 0.40628 0.0
C155 C 0.83186 0.77634 0.41534 0.0
C156 C 0.83338 0.76512 0.43196 0.0
C157 C 0.86213 0.76796 0.43122 0.0
C158 C 0.87542 0.77965 0.4161 0.0
C159 C 0.81001 0.73491 0.43267 0.0
C160 C 0.83151 0.78346 0.44563 0.0
H161 H 0.96111 0.76406 0.43482 0.0
H162 H 0.97065 0.8072 0.37975 0.0
H163 H 0.94702 0.83717 0.40459 0.0
H164 H 0.91417 0.8301 0.39706 0.0
H165 H 0.94017 0.83222 0.38269 0.0
H166 H 0.9056 0.75707 0.38238 0.0
H167 H 0.9183 0.78756 0.37026 0.0
H168 H 0.88461 0.77213 0.38003 0.0
H169 H 0.90143 0.72823 0.48662 0.0
H170 H 0.8222 0.72522 0.49264 0.0
H171 H 0.82655 0.74434 0.46551 0.0
H172 H 0.89215 0.70793 0.44943 0.0
H173 H 0.92648 0.72306 0.45825 0.0
H174 H 0.92097 0.72757 0.43666 0.0
H175 H 0.9334 0.78939 0.46919 0.0
H176 H 0.95435 0.78757 0.45337 0.0
H177 H 0.94683 0.76654 0.47153 0.0
H178 H 1.00135 0.77527 0.41792 0.0
C179 C 0.96236 0.77333 0.42301 0.0
C180 C 0.17726 0.20455 0.62484 0.0
C181 C 0.20324 0.21006 0.61852 0.0
C182 C 0.21244 0.22424 0.60337 0.0
C183 C 0.16944 0.22593 0.60076 0.0
C184 C 0.161 0.21291 0.61593 0.0
C185 C 0.13329 0.20922 0.62125 0.0
H186 H 0.02048 0.2233 0.6068 0.0
C187 C 0.14711 0.23109 0.59454 0.0
C188 C 0.12612 0.22166 0.60669 0.0
H189 H 0.03822 0.18827 0.64948 0.0
H190 H 0.08207 0.19797 0.63753 0.0
H191 H 0.08497 0.27533 0.60151 0.0
H192 H 0.04121 0.19486 0.5801 0.0
H193 H 0.06054 0.21798 0.56433 0.0
H194 H 0.0331 0.22082 0.57455 0.0
H195 H 0.05605 0.26481 0.58753 0.0
H196 H 0.09106 0.27776 0.57995 0.0
C197 C 0.13783 0.22564 0.6375 0.0
C198 C 0.11255 0.17827 0.62281 0.0
C199 C 0.1535 0.27013 0.53642 0.0
C200 C 0.13566 0.2762 0.52705 0.0
C201 C 0.11081 0.2721 0.53463 0.0
C202 C 0.10369 0.26194 0.55089 0.0
C203 C 0.12148 0.25562 0.55993 0.0
C204 C 0.14602 0.2599 0.5527 0.0
C205 C 0.16253 0.25227 0.56426 0.0
C206 C 0.14363 0.24219 0.57942 0.0
C207 C 0.11952 0.24423 0.57685 0.0
C208 C 0.19061 0.27825 0.56815 0.0
C209 C 0.16561 0.22928 0.55598 0.0
C210 C 0.03411 0.21814 0.61361 0.0
C211 C 0.02593 0.20511 0.62918 0.0
C212 C 0.04398 0.19823 0.6375 0.0
C213 C 0.0695 0.20392 0.63051 0.0
C214 C 0.07725 0.21645 0.61485 0.0
C215 C 0.05971 0.22338 0.60663 0.0
C216 C 0.07115 0.23556 0.58977 0.0
C217 C 0.0986 0.23528 0.58944 0.0
C218 C 0.10195 0.22404 0.60422 0.0
C219 C 0.07597 0.26488 0.58951 0.0
C220 C 0.05048 0.21657 0.57639 0.0
H221 H 0.20363 0.24238 0.58284 0.0
H222 H 0.16977 0.19398 0.63655 0.0
H223 H 0.11648 0.16672 0.61304 0.0
H224 H 0.09061 0.17291 0.62097 0.0
H225 H 0.11461 0.17041 0.63505 0.0
H226 H 0.15892 0.24408 0.63781 0.0
H227 H 0.13599 0.21323 0.64859 0.0
H228 H 0.12331 0.23361 0.63875 0.0
H229 H 0.17269 0.27283 0.53112 0.0
H230 H 0.09686 0.27707 0.52804 0.0
H231 H 0.08453 0.25941 0.55582 0.0
H232 H 0.18808 0.29653 0.56849 0.0
H233 H 0.20651 0.2818 0.55858 0.0
H234 H 0.19889 0.27761 0.58053 0.0
H235 H 0.14544 0.21378 0.55043 0.0
H236 H 0.17143 0.2181 0.56482 0.0
H237 H 0.18138 0.23745 0.54591 0.0
H238 H 0.23234 0.22864 0.59822 0.0
C239 C 0.19566 0.23206 0.59443 0.0
C240 C 0.80111 0.83799 0.6252 0.0
C241 C 0.79762 0.8136 0.61854 0.0
C242 C 0.78417 0.80454 0.60303 0.0
C243 C 0.77708 0.84335 0.60147 0.0
C244 C 0.79071 0.85242 0.61652 0.0
C245 C 0.79205 0.87826 0.6222 0.0
H246 H 0.76336 0.97913 0.6083 0.0
C247 C 0.76818 0.86274 0.59597 0.0
C248 C 0.77704 0.88327 0.60808 0.0
H249 H 0.80407 0.96792 0.65103 0.0
H250 H 0.7992 0.92689 0.63895 0.0
H251 H 0.79287 0.96191 0.58072 0.0
H252 H 0.71522 0.91861 0.60681 0.0
H253 H 0.70841 0.90479 0.58675 0.0
H254 H 0.71969 0.94041 0.58957 0.0
H255 H 0.76351 0.96636 0.57653 0.0
H256 H 0.76792 0.94058 0.5661 0.0
C257 C 0.82315 0.90064 0.62323 0.0
C258 C 0.77588 0.8725 0.6388 0.0
C259 C 0.71172 0.84618 0.54272 0.0
C260 C 0.70024 0.86078 0.5351 0.0
C261 C 0.70538 0.88561 0.54216 0.0
C262 C 0.72103 0.8955 0.5567 0.0
C263 C 0.73176 0.88046 0.5644 0.0
C264 C 0.72733 0.85638 0.55738 0.0
C265 C 0.74058 0.84339 0.56747 0.0
C266 C 0.75319 0.86348 0.58178 0.0
C267 C 0.74785 0.88506 0.57983 0.0
C268 C 0.76324 0.84245 0.5567 0.0
C269 C 0.71724 0.81518 0.57338 0.0
C270 C 0.77099 0.96774 0.61517 0.0
C271 C 0.78421 0.97692 0.63064 0.0
C272 C 0.79418 0.96158 0.63898 0.0
C273 C 0.79118 0.93763 0.63198 0.0
C274 C 0.77794 0.92879 0.61649 0.0
C275 C 0.76795 0.9437 0.60844 0.0
C276 C 0.75371 0.93087 0.59235 0.0
C277 C 0.75703 0.90589 0.59199 0.0
C278 C 0.77137 0.90488 0.60608 0.0
C279 C 0.77007 0.95089 0.5781 0.0
C280 C 0.72269 0.92337 0.59376 0.0
H281 H 0.76375 0.81126 0.58279 0.0
H282 H 0.811 0.84534 0.63717 0.0
H283 H 0.75839 0.85112 0.63934 0.0
H284 H 0.76581 0.88497 0.64043 0.0
H285 H 0.78973 0.87573 0.64959 0.0
H286 H 0.83522 0.89862 0.61283 0.0
H287 H 0.83274 0.89915 0.63502 0.0
H288 H 0.8264 0.92142 0.62205 0.0
H289 H 0.70814 0.82704 0.53759 0.0
H290 H 0.69737 0.89757 0.53635 0.0
H291 H 0.72401 0.91446 0.5614 0.0
H292 H 0.77401 0.86087 0.54874 0.0
H293 H 0.75397 0.82438 0.54839 0.0
H294 H 0.77999 0.84243 0.56415 0.0
H295 H 0.69842 0.81618 0.57716 0.0
H296 H 0.72314 0.8077 0.58443 0.0
H297 H 0.71095 0.79982 0.56332 0.0
H298 H 0.78152 0.78596 0.59753 0.0
C299 C 0.77393 0.81928 0.59447 0.0
C300 C 0.04102 0.8164 0.62582 0.0
C301 C 0.02401 0.79059 0.61875 0.0
C302 C 0.02989 0.78549 0.60254 0.0
C303 C 0.06933 0.83133 0.60077 0.0
C304 C 0.06364 0.83628 0.61671 0.0
C305 C 0.08474 0.86425 0.62271 0.0
H306 H 0.20307 0.9841 0.60924 0.0
C307 C 0.0945 0.85609 0.5948 0.0
C308 C 0.10371 0.8754 0.60768 0.0
H309 H 0.15265 0.95767 0.65365 0.0
H310 H 0.12025 0.91546 0.64024 0.0
H311 H 0.19891 0.92573 0.60072 0.0
H312 H 0.15301 0.96433 0.58433 0.0
H313 H 0.15457 0.94589 0.56727 0.0
H314 H 0.18646 0.97333 0.57581 0.0
H315 H 0.21363 0.95577 0.58805 0.0
H316 H 0.1952 0.92232 0.57899 0.0
C317 C 0.10004 0.86102 0.63793 0.0
C318 C 0.06934 0.88024 0.62627 0.0
C319 C 0.13125 0.85933 0.53624 0.0
C320 C 0.15341 0.88 0.52714 0.0
C321 C 0.17032 0.90544 0.53479 0.0
C322 C 0.16545 0.91024 0.55119 0.0
C323 C 0.1433 0.88944 0.56015 0.0
C324 C 0.12645 0.86458 0.55261 0.0
C325 C 0.10334 0.84524 0.56393 0.0
C326 C 0.10918 0.86259 0.57945 0.0
C327 C 0.13281 0.88836 0.5772 0.0
C328 C 0.10708 0.82029 0.56707 0.0
C329 C 0.07516 0.83831 0.5558 0.0
C330 C 0.1852 0.96908 0.61613 0.0
C331 C 0.18057 0.97418 0.63259 0.0
C332 C 0.15665 0.95434 0.64095 0.0
C333 C 0.13793 0.92975 0.63316 0.0
C334 C 0.14304 0.92482 0.61679 0.0
C335 C 0.16624 0.94444 0.6085 0.0
C336 C 0.168 0.93594 0.59104 0.0
C337 C 0.14246 0.90769 0.59036 0.0
C338 C 0.12794 0.90127 0.60548 0.0
C339 C 0.1954 0.93498 0.58945 0.0
C340 C 0.1656 0.95589 0.57888 0.0
H341 H 0.05564 0.80049 0.58124 0.0
H342 H 0.03725 0.82078 0.63834 0.0
H343 H 0.05283 0.87544 0.61682 0.0
H344 H 0.08314 0.9025 0.62557 0.0
H345 H 0.05916 0.87491 0.63864 0.0
H346 H 0.10209 0.84254 0.63671 0.0
H347 H 0.0885 0.85904 0.6496 0.0
H348 H 0.12168 0.87793 0.63925 0.0
H349 H 0.11771 0.83965 0.53067 0.0
H350 H 0.18767 0.9216 0.52814 0.0
H351 H 0.17922 0.92998 0.55628 0.0
H352 H 0.12957 0.82645 0.56764 0.0
H353 H 0.09738 0.805 0.55699 0.0
H354 H 0.09849 0.81039 0.57912 0.0
H355 H 0.07658 0.8566 0.54974 0.0
H356 H 0.05802 0.83164 0.56484 0.0
H357 H 0.0691 0.82235 0.54613 0.0
H358 H 0.01697 0.76581 0.5968 0.0
C359 C 0.05232 0.80569 0.59351 0.0
C360 C 0.91064 0.52624 0.72608 0.0
C361 C 0.91241 0.54828 0.73509 0.0
C362 C 0.92084 0.55164 0.75186 0.0
C363 C 0.92453 0.51085 0.75049 0.0
C364 C 0.9167 0.50785 0.73399 0.0
C365 C 0.91509 0.48297 0.72627 0.0
H366 H 0.91765 0.36595 0.73552 0.0
C367 C 0.92834 0.48769 0.75507 0.0
C368 C 0.92289 0.47132 0.74094 0.0
H369 H 0.90159 0.39805 0.69082 0.0
H370 H 0.91102 0.43896 0.70551 0.0
H371 H 0.97176 0.42348 0.74686 0.0
H372 H 0.88494 0.38356 0.76051 0.0
H373 H 0.90496 0.39639 0.7787 0.0
H374 H 0.90769 0.37102 0.76666 0.0
H375 H 0.95624 0.39405 0.76002 0.0
H376 H 0.97011 0.42795 0.76832 0.0
C377 C 0.93701 0.49221 0.71218 0.0
C378 C 0.8846 0.464 0.72056 0.0
C379 C 0.95567 0.47973 0.81407 0.0
C380 C 0.96012 0.46034 0.82229 0.0
C381 C 0.95603 0.43713 0.81343 0.0
C382 C 0.94802 0.43353 0.79667 0.0
C383 C 0.94397 0.45329 0.78862 0.0
C384 C 0.9476 0.4758 0.79737 0.0
C385 C 0.94213 0.4946 0.78693 0.0
C386 C 0.93523 0.48001 0.77034 0.0
C387 C 0.93628 0.45581 0.77137 0.0
C388 C 0.96931 0.52256 0.78613 0.0
C389 C 0.91678 0.4955 0.79442 0.0
C390 C 0.91623 0.38187 0.72892 0.0
C391 C 0.90857 0.37876 0.71206 0.0
C392 C 0.90749 0.40007 0.70379 0.0
C393 C 0.91275 0.42367 0.71239 0.0
C394 C 0.9192 0.42598 0.72943 0.0
C395 C 0.92151 0.40558 0.73732 0.0
C396 C 0.92934 0.41188 0.75534 0.0
C397 C 0.93061 0.43913 0.75708 0.0
C398 C 0.92438 0.4471 0.7419 0.0
C399 C 0.95827 0.41433 0.75794 0.0
C400 C 0.90571 0.38956 0.76598 0.0
H401 H 0.933 0.53663 0.77241 0.0
H402 H 0.90464 0.52332 0.71311 0.0
H403 H 0.86967 0.46381 0.72987 0.0
H404 H 0.87918 0.44256 0.71927 0.0
H405 H 0.88038 0.47097 0.70857 0.0
H406 H 0.95525 0.51263 0.71483 0.0
H407 H 0.928 0.49352 0.70012 0.0
H408 H 0.94601 0.47873 0.7108 0.0
H409 H 0.95896 0.49799 0.82036 0.0
H410 H 0.95891 0.42165 0.81949 0.0
H411 H 0.9453 0.41549 0.79062 0.0
H412 H 0.98792 0.51991 0.78555 0.0
H413 H 0.97156 0.53505 0.79728 0.0
H414 H 0.97065 0.53431 0.7749 0.0
H415 H 0.9017 0.4756 0.80006 0.0
H416 H 0.90447 0.49916 0.78502 0.0
H417 H 0.92344 0.51122 0.80429 0.0
H418 H 0.92215 0.56834 0.75911 0.0
C419 C 0.92693 0.53308 0.75959 0.0
C420 C 0.64215 0.5048 0.72149 0.0
C421 C 0.66174 0.53143 0.72631 0.0
C422 C 0.65775 0.54185 0.74131 0.0
C423 C 0.61503 0.49947 0.74642 0.0
C424 C 0.61884 0.48935 0.73161 0.0
C425 C 0.59503 0.46132 0.72786 0.0
H426 H 0.4697 0.35506 0.74968 0.0
C427 C 0.58857 0.47847 0.75389 0.0
C428 C 0.57664 0.45613 0.74298 0.0
H429 H 0.51733 0.36383 0.70528 0.0
H430 H 0.55362 0.4078 0.71469 0.0
H431 H 0.52067 0.37635 0.77435 0.0
H432 H 0.48094 0.41605 0.75067 0.0
H433 H 0.48759 0.42752 0.77132 0.0
H434 H 0.46507 0.39181 0.76713 0.0
H435 H 0.48842 0.37265 0.78178 0.0
H436 H 0.5217 0.39993 0.78883 0.0
C437 C 0.60668 0.44153 0.7271 0.0
C438 C 0.58072 0.46279 0.71164 0.0
C439 C 0.55719 0.49462 0.81027 0.0
C440 C 0.5338 0.47836 0.82028 0.0
C441 C 0.5139 0.45226 0.81457 0.0
C442 C 0.5171 0.44248 0.79926 0.0
C443 C 0.54048 0.45889 0.7894 0.0
C444 C 0.56014 0.48443 0.79496 0.0
C445 C 0.58371 0.49881 0.78276 0.0
C446 C 0.57492 0.47758 0.76905 0.0
C447 C 0.5495 0.45436 0.77302 0.0
C448 C 0.61102 0.50409 0.79135 0.0
C449 C 0.58393 0.52487 0.77673 0.0
C450 C 0.48803 0.36631 0.74203 0.0
C451 C 0.49053 0.35591 0.72668 0.0
C452 C 0.51465 0.3715 0.71704 0.0
C453 C 0.53579 0.397 0.72257 0.0
C454 C 0.53285 0.40714 0.73791 0.0
C455 C 0.50931 0.39176 0.74737 0.0
C456 C 0.5097 0.40559 0.76336 0.0
C457 C 0.53719 0.43201 0.76186 0.0
C458 C 0.55069 0.43285 0.74694 0.0
C459 C 0.50994 0.38778 0.77792 0.0
C460 C 0.48448 0.41043 0.7633 0.0
H461 H 0.63282 0.5351 0.76268 0.0
H462 H 0.64455 0.49647 0.70991 0.0
H463 H 0.58176 0.48283 0.71045 0.0
H464 H 0.55822 0.44775 0.71125 0.0
H465 H 0.59097 0.46006 0.70054 0.0
H466 H 0.62266 0.4465 0.73694 0.0
H467 H 0.61671 0.44288 0.71493 0.0
H468 H 0.59064 0.42016 0.72939 0.0
H469 H 0.57295 0.5147 0.81432 0.0
H470 H 0.49547 0.43948 0.82184 0.0
H471 H 0.50108 0.42252 0.79566 0.0
H472 H 0.60739 0.48615 0.79887 0.0
H473 H 0.61902 0.52189 0.79983 0.0
H474 H 0.6276 0.50736 0.7825 0.0
H475 H 0.56242 0.52176 0.77629 0.0
H476 H 0.59184 0.53062 0.76394 0.0
H477 H 0.59643 0.54229 0.78518 0.0
H478 H 0.6727 0.56232 0.74526 0.0
C479 C 0.63463 0.526 0.75141 0.0
C480 C 0.63681 0.11982 0.728 0.0
C481 C 0.65462 0.11093 0.7344 0.0
C482 C 0.64898 0.09877 0.75024 0.0
C483 C 0.60823 0.10409 0.75298 0.0
C484 C 0.61361 0.11588 0.73739 0.0
C485 C 0.59151 0.1225 0.73208 0.0
H486 H 0.46846 0.11812 0.74726 0.0
C487 C 0.58223 0.10239 0.75934 0.0
C488 C 0.57215 0.1129 0.74705 0.0
H489 H 0.52164 0.15105 0.70437 0.0
H490 H 0.55465 0.13966 0.71633 0.0
H491 H 0.47688 0.06458 0.7533 0.0
H492 H 0.51778 0.14611 0.77303 0.0
H493 H 0.51613 0.12454 0.78913 0.0
H494 H 0.48422 0.12051 0.78034 0.0
H495 H 0.45986 0.07735 0.76653 0.0
H496 H 0.47993 0.06312 0.77502 0.0
C497 C 0.57707 0.1056 0.71633 0.0
C498 C 0.60555 0.15368 0.72966 0.0
C499 C 0.54714 0.06479 0.81738 0.0
C500 C 0.52391 0.06081 0.82681 0.0
C501 C 0.50516 0.06797 0.81957 0.0
C502 C 0.50927 0.07858 0.80339 0.0
C503 C 0.5325 0.08234 0.79418 0.0
C504 C 0.55104 0.07558 0.80124 0.0
C505 C 0.57463 0.08104 0.78963 0.0
C506 C 0.56747 0.09261 0.77458 0.0
C507 C 0.54263 0.09315 0.77725 0.0
C508 C 0.57312 0.05358 0.78566 0.0
C509 C 0.60224 0.10241 0.7979 0.0
C510 C 0.48703 0.12244 0.74039 0.0
C511 C 0.4923 0.13511 0.72474 0.0
C512 C 0.51709 0.14117 0.71638 0.0
C513 C 0.53622 0.13453 0.72336 0.0
C514 C 0.53077 0.12192 0.73902 0.0
C515 C 0.50664 0.11636 0.74735 0.0
C516 C 0.50526 0.10456 0.76433 0.0
C517 C 0.53202 0.10314 0.7646 0.0
C518 C 0.54681 0.11317 0.74966 0.0
C519 C 0.47905 0.07593 0.76499 0.0
C520 C 0.50566 0.12473 0.77748 0.0
H521 H 0.62305 0.08608 0.77152 0.0
H522 H 0.64039 0.1289 0.71578 0.0
H523 H 0.62252 0.16465 0.7389 0.0
H524 H 0.59106 0.16152 0.73167 0.0
H525 H 0.61488 0.15975 0.7171 0.0
H526 H 0.57449 0.08488 0.71724 0.0
H527 H 0.58961 0.11543 0.70505 0.0
H528 H 0.55579 0.10215 0.71449 0.0
H529 H 0.56184 0.05924 0.82231 0.0
H530 H 0.48735 0.06566 0.82649 0.0
H531 H 0.49416 0.08349 0.79868 0.0
H532 H 0.55121 0.03647 0.78592 0.0
H533 H 0.58517 0.04894 0.79484 0.0
H534 H 0.58054 0.05295 0.77303 0.0
H535 H 0.59963 0.11862 0.804 0.0
H536 H 0.6194 0.11315 0.78896 0.0
H537 H 0.60896 0.09289 0.80756 0.0
H538 H 0.66243 0.09186 0.75545 0.0
C539 C 0.62608 0.09546 0.75956 0.0
C540 C 0.83926 0.5349 0.9595 0.0
C541 C 0.86555 0.54067 0.95339 0.0
C542 C 0.87404 0.55313 0.9377 0.0
C543 C 0.83103 0.55446 0.93461 0.0
C544 C 0.82254 0.54226 0.95001 0.0
C545 C 0.79475 0.53918 0.95494 0.0
H546 H 0.68978 0.56591 0.93863 0.0
C547 C 0.8094 0.56024 0.92806 0.0
C548 C 0.78808 0.55152 0.94002 0.0
H549 H 0.69808 0.52493 0.98157 0.0
H550 H 0.74005 0.52803 0.96992 0.0
H551 H 0.75363 0.61099 0.93512 0.0
H552 H 0.70448 0.53252 0.91227 0.0
H553 H 0.72721 0.5541 0.89693 0.0
H554 H 0.70196 0.56159 0.90602 0.0
H555 H 0.72759 0.60428 0.91964 0.0
H556 H 0.76303 0.61451 0.91407 0.0
C557 C 0.7991 0.55593 0.97095 0.0
C558 C 0.77351 0.5085 0.95678 0.0
C559 C 0.82232 0.60566 0.87123 0.0
C560 C 0.80678 0.61529 0.86256 0.0
C561 C 0.78165 0.61123 0.8696 0.0
C562 C 0.77231 0.59829 0.88499 0.0
C563 C 0.7883 0.58936 0.89372 0.0
C564 C 0.8128 0.59298 0.88681 0.0
C565 C 0.8275 0.58309 0.89828 0.0
C566 C 0.80753 0.57252 0.913 0.0
C567 C 0.78462 0.57631 0.91023 0.0
C568 C 0.85611 0.60779 0.90311 0.0
C569 C 0.82943 0.5599 0.88937 0.0
C570 C 0.70068 0.55769 0.94558 0.0
C571 C 0.69073 0.54549 0.96117 0.0
C572 C 0.70526 0.53447 0.96957 0.0
C573 C 0.72975 0.53646 0.96281 0.0
C574 C 0.73984 0.54944 0.9474 0.0
C575 C 0.72491 0.55926 0.93894 0.0
C576 C 0.73782 0.57147 0.92245 0.0
C577 C 0.76337 0.56807 0.92249 0.0
C578 C 0.76476 0.55538 0.93721 0.0
C579 C 0.74584 0.60186 0.92265 0.0
C580 C 0.71687 0.5543 0.90861 0.0
H581 H 0.86476 0.56922 0.91645 0.0
H582 H 0.83221 0.52554 0.97155 0.0
H583 H 0.77681 0.49652 0.94701 0.0
H584 H 0.75173 0.50378 0.95518 0.0
H585 H 0.77571 0.50077 0.96904 0.0
H586 H 0.81872 0.57588 0.97019 0.0
H587 H 0.80061 0.54501 0.982 0.0
H588 H 0.78246 0.56089 0.97307 0.0
H589 H 0.84191 0.60882 0.86629 0.0
H590 H 0.76925 0.61834 0.86319 0.0
H591 H 0.75313 0.59612 0.88961 0.0
H592 H 0.85531 0.62702 0.90306 0.0
H593 H 0.87267 0.61036 0.89429 0.0
H594 H 0.86259 0.60633 0.91588 0.0
H595 H 0.80942 0.54596 0.88302 0.0
H596 H 0.83321 0.54693 0.89797 0.0
H597 H 0.84611 0.56816 0.87983 0.0
H598 H 0.894 0.55755 0.93263 0.0
C599 C 0.85697 0.55986 0.92828 0.0
C600 C 0.44522 0.14807 0.95696 0.0
C601 C 0.4395 0.12333 0.94952 0.0
C602 C 0.42878 0.11779 0.93317 0.0
C603 C 0.42853 0.16041 0.93235 0.0
C604 C 0.43971 0.16623 0.94817 0.0
C605 C 0.44477 0.19342 0.95425 0.0
H606 H 0.43154 0.30461 0.94296 0.0
C607 C 0.42465 0.18322 0.92684 0.0
C608 C 0.43433 0.20271 0.93958 0.0
H609 H 0.47035 0.28652 0.984 0.0
H610 H 0.46081 0.24479 0.97081 0.0
H611 H 0.4617 0.2884 0.9151 0.0
H612 H 0.37995 0.24282 0.93686 0.0
H613 H 0.37684 0.23847 0.91516 0.0
H614 H 0.39014 0.27197 0.92382 0.0
H615 H 0.43392 0.29461 0.90959 0.0
H616 H 0.43859 0.26892 0.89921 0.0
C617 C 0.47656 0.21206 0.95709 0.0
C618 C 0.4267 0.18857 0.96993 0.0
C619 C 0.37837 0.17768 0.87123 0.0
C620 C 0.37155 0.19533 0.8628 0.0
C621 C 0.37845 0.22048 0.87021 0.0
C622 C 0.39148 0.22771 0.88582 0.0
C623 C 0.39788 0.2097 0.89416 0.0
C624 C 0.39155 0.18528 0.88676 0.0
C625 C 0.40041 0.16891 0.89723 0.0
C626 C 0.41289 0.18741 0.9122 0.0
C627 C 0.4112 0.21121 0.91041 0.0
C628 C 0.42262 0.16548 0.88748 0.0
C629 C 0.37395 0.14182 0.90181 0.0
C630 C 0.43823 0.29185 0.94909 0.0
C631 C 0.45143 0.29899 0.96476 0.0
C632 C 0.45951 0.28142 0.9722 0.0
C633 C 0.45419 0.25719 0.96442 0.0
C634 C 0.4408 0.2503 0.94891 0.0
C635 C 0.43338 0.26766 0.94138 0.0
C636 C 0.42044 0.25747 0.92453 0.0
C637 C 0.42101 0.23098 0.92334 0.0
C638 C 0.43271 0.22681 0.93775 0.0
C639 C 0.43939 0.27839 0.91133 0.0
C640 C 0.39028 0.25251 0.92495 0.0
H641 H 0.41496 0.13054 0.91227 0.0
H642 H 0.45335 0.15307 0.96949 0.0
H643 H 0.40562 0.17046 0.96823 0.0
H644 H 0.42294 0.20553 0.9727 0.0
H645 H 0.43638 0.18487 0.98098 0.0
H646 H 0.48889 0.20622 0.94888 0.0
H647 H 0.48246 0.21081 0.97011 0.0
H648 H 0.48387 0.23357 0.95396 0.0
H649 H 0.37374 0.15839 0.86578 0.0
H650 H 0.37327 0.23436 0.86404 0.0
H651 H 0.39592 0.24699 0.89085 0.0
H652 H 0.43527 0.18338 0.87939 0.0
H653 H 0.41272 0.14717 0.87939 0.0
H654 H 0.43802 0.1643 0.89568 0.0
H655 H 0.35633 0.14533 0.90475 0.0
H656 H 0.37663 0.13215 0.913 0.0
H657 H 0.36728 0.1271 0.89135 0.0
H658 H 0.42479 0.09929 0.92691 0.0
C659 C 0.42323 0.1361 0.92461 0.0
C660 C 0.70384 0.14417 0.96475 0.0
C661 C 0.68693 0.11767 0.95848 0.0
C662 C 0.69278 0.11126 0.94261 0.0
C663 C 0.73228 0.15679 0.93973 0.0
C664 C 0.72652 0.16328 0.95524 0.0
C665 C 0.7476 0.19195 0.96026 0.0
H666 H 0.86984 0.30725 0.94471 0.0
C667 C 0.75765 0.18076 0.93323 0.0
C668 C 0.76686 0.20147 0.94524 0.0
H669 H 0.81507 0.29002 0.9869 0.0
H670 H 0.78249 0.24663 0.97505 0.0
H671 H 0.86178 0.24704 0.93957 0.0
H672 H 0.82118 0.28803 0.9185 0.0
H673 H 0.82169 0.26674 0.90285 0.0
H674 H 0.85421 0.29389 0.91095 0.0
H675 H 0.87878 0.27599 0.92607 0.0
H676 H 0.85936 0.24202 0.91789 0.0
C677 C 0.76265 0.19045 0.97611 0.0
C678 C 0.73223 0.20831 0.9624 0.0
C679 C 0.79582 0.17579 0.87657 0.0
C680 C 0.81893 0.19461 0.86722 0.0
C681 C 0.83629 0.22082 0.87383 0.0
C682 C 0.83101 0.22803 0.88953 0.0
C683 C 0.80801 0.20892 0.89879 0.0
C684 C 0.79069 0.1834 0.89219 0.0
C685 C 0.76694 0.16592 0.90365 0.0
C686 C 0.77279 0.18516 0.91819 0.0
C687 C 0.79703 0.21022 0.91534 0.0
C688 C 0.76963 0.14089 0.90861 0.0
C689 C 0.7393 0.15884 0.89472 0.0
C690 C 0.85077 0.29443 0.95142 0.0
C691 C 0.84559 0.30231 0.96703 0.0
C692 C 0.82031 0.28446 0.97515 0.0
C693 C 0.80117 0.25922 0.96817 0.0
C694 C 0.80703 0.25155 0.95277 0.0
C695 C 0.83121 0.26933 0.9445 0.0
C696 C 0.83323 0.25856 0.92779 0.0
C697 C 0.80676 0.23097 0.92765 0.0
C698 C 0.7916 0.22679 0.94241 0.0
C699 C 0.85972 0.25583 0.92766 0.0
C700 C 0.83276 0.27776 0.91424 0.0
H701 H 0.71844 0.12429 0.92128 0.0
H702 H 0.69997 0.14966 0.97693 0.0
H703 H 0.71474 0.20142 0.95338 0.0
H704 H 0.74575 0.23023 0.95984 0.0
H705 H 0.72335 0.20569 0.97507 0.0
H706 H 0.76733 0.17355 0.97514 0.0
H707 H 0.74945 0.18671 0.98726 0.0
H708 H 0.78298 0.2089 0.97821 0.0
H709 H 0.78189 0.15558 0.8718 0.0
H710 H 0.85436 0.23561 0.86699 0.0
H711 H 0.84523 0.24816 0.89393 0.0
H712 H 0.7919 0.14627 0.9093 0.0
H713 H 0.75914 0.12417 0.89942 0.0
H714 H 0.76128 0.13308 0.9211 0.0
H715 H 0.74169 0.17647 0.88735 0.0
H716 H 0.72204 0.15414 0.90339 0.0
H717 H 0.73283 0.14146 0.88606 0.0
H718 H 0.67986 0.09113 0.93742 0.0
C719 C 0.71518 0.1306 0.93322 0.0
C720 C 0.55081 0.83731 0.06574 0.0
C721 C 0.55588 0.86226 0.07265 0.0
C722 C 0.572 0.87164 0.08729 0.0
C723 C 0.57584 0.831 0.08856 0.0
C724 C 0.56105 0.8221 0.07387 0.0
C725 C 0.55787 0.79525 0.06834 0.0
H726 H 0.5773 0.68827 0.08487 0.0
C727 C 0.58254 0.81018 0.0943 0.0
C728 C 0.57221 0.78915 0.08249 0.0
H729 H 0.54216 0.70228 0.04046 0.0
H730 H 0.54894 0.74451 0.05192 0.0
H731 H 0.62875 0.74972 0.0874 0.0
H732 H 0.54811 0.70788 0.11065 0.0
H733 H 0.57165 0.72941 0.12577 0.0
H734 H 0.5762 0.7026 0.11694 0.0
H735 H 0.61986 0.72403 0.10295 0.0
H736 H 0.63338 0.75923 0.10842 0.0
C737 C 0.57356 0.7998 0.05168 0.0
C738 C 0.52639 0.77413 0.0674 0.0
C739 C 0.6315 0.82281 0.14974 0.0
C740 C 0.63884 0.80629 0.15899 0.0
C741 C 0.63244 0.78067 0.15261 0.0
C742 C 0.61922 0.77176 0.13717 0.0
C743 C 0.61214 0.78858 0.12801 0.0
C744 C 0.61808 0.81351 0.13442 0.0
C745 C 0.60815 0.82824 0.12328 0.0
C746 C 0.59564 0.80822 0.10899 0.0
C747 C 0.59818 0.78513 0.11179 0.0
C748 C 0.63389 0.85532 0.11776 0.0
C749 C 0.58576 0.83164 0.13286 0.0
C750 C 0.57135 0.7005 0.07746 0.0
C751 C 0.55911 0.69169 0.06171 0.0
C752 C 0.55124 0.70823 0.05273 0.0
C753 C 0.55541 0.73292 0.05934 0.0
C754 C 0.56774 0.74139 0.07508 0.0
C755 C 0.57561 0.72529 0.0838 0.0
C756 C 0.58901 0.73767 0.10016 0.0
C757 C 0.58815 0.76399 0.09978 0.0
C758 C 0.57544 0.76603 0.08514 0.0
C759 C 0.6193 0.74286 0.0999 0.0
C760 C 0.57055 0.71846 0.1142 0.0
H761 H 0.59373 0.86449 0.10641 0.0
H762 H 0.5387 0.82951 0.05446 0.0
H763 H 0.51534 0.77589 0.07845 0.0
H764 H 0.5221 0.75294 0.06735 0.0
H765 H 0.51676 0.77741 0.05617 0.0
H766 H 0.59202 0.82062 0.05104 0.0
H767 H 0.55986 0.79738 0.04096 0.0
H768 H 0.58216 0.78604 0.05008 0.0
H769 H 0.63575 0.84242 0.15445 0.0
H770 H 0.63804 0.76766 0.15948 0.0
H771 H 0.61507 0.75213 0.13296 0.0
H772 H 0.65268 0.85305 0.11661 0.0
H773 H 0.63882 0.87182 0.12687 0.0
H774 H 0.6313 0.862 0.10532 0.0
H775 H 0.57297 0.81363 0.14084 0.0
H776 H 0.57052 0.83298 0.12464 0.0
H777 H 0.59555 0.84984 0.14103 0.0
H778 H 0.57714 0.89112 0.09264 0.0
C779 C 0.58185 0.85619 0.09526 0.0
C780 C 0.29611 0.8471 0.06182 0.0
C781 C 0.31487 0.87299 0.06824 0.0
C782 C 0.31109 0.8794 0.0846 0.0
C783 C 0.26997 0.83496 0.08772 0.0
C784 C 0.27372 0.82856 0.0717 0.0
C785 C 0.25076 0.80081 0.06651 0.0
H786 H 0.1289 0.68656 0.08462 0.0
C787 C 0.24434 0.81163 0.09452 0.0
C788 C 0.23293 0.79153 0.0821 0.0
H789 H 0.17471 0.70695 0.03845 0.0
H790 H 0.21064 0.74898 0.05043 0.0
H791 H 0.18065 0.70513 0.1081 0.0
H792 H 0.13771 0.74648 0.09143 0.0
H793 H 0.14402 0.75281 0.1128 0.0
H794 H 0.12283 0.71835 0.10562 0.0
H795 H 0.14835 0.69869 0.11719 0.0
H796 H 0.18153 0.72541 0.1248 0.0
C797 C 0.26392 0.78287 0.06274 0.0
C798 C 0.23507 0.80441 0.05164 0.0
C799 C 0.21168 0.81591 0.15316 0.0
C800 C 0.18865 0.79728 0.1627 0.0
C801 C 0.17045 0.77139 0.15591 0.0
C802 C 0.1745 0.76444 0.13989 0.0
C803 C 0.19707 0.78348 0.13037 0.0
C804 C 0.2155 0.80855 0.13712 0.0
C805 C 0.23865 0.82588 0.12521 0.0
C806 C 0.23085 0.80714 0.11019 0.0
C807 C 0.20632 0.78245 0.11328 0.0
C808 C 0.26659 0.83145 0.13306 0.0
C809 C 0.23697 0.85181 0.12138 0.0
C810 C 0.14652 0.70017 0.07701 0.0
C811 C 0.14878 0.69339 0.06051 0.0
C812 C 0.17247 0.71151 0.05123 0.0
C813 C 0.19326 0.73603 0.05818 0.0
C814 C 0.19041 0.74268 0.07461 0.0
C815 C 0.1674 0.72474 0.08375 0.0
C816 C 0.16778 0.73499 0.10101 0.0
C817 C 0.19456 0.76229 0.10067 0.0
C818 C 0.20777 0.76674 0.08517 0.0
C819 C 0.16946 0.71506 0.11352 0.0
C820 C 0.14171 0.73824 0.103 0.0
H821 H 0.2872 0.8668 0.10668 0.0
H822 H 0.29829 0.84174 0.04922 0.0
H823 H 0.23436 0.82362 0.05282 0.0
H824 H 0.21299 0.78825 0.05091 0.0
H825 H 0.2455 0.80524 0.03971 0.0
H826 H 0.28056 0.78676 0.07191 0.0
H827 H 0.2735 0.78728 0.05019 0.0
H828 H 0.24886 0.76089 0.06368 0.0
H829 H 0.22609 0.836 0.1579 0.0
H830 H 0.15297 0.75632 0.16304 0.0
H831 H 0.15972 0.7445 0.13549 0.0
H832 H 0.26393 0.81324 0.13988 0.0
H833 H 0.27446 0.84859 0.14205 0.0
H834 H 0.28292 0.83578 0.12377 0.0
H835 H 0.2149 0.8471 0.12092 0.0
H836 H 0.24559 0.86061 0.10911 0.0
H837 H 0.24782 0.8676 0.13107 0.0
H838 H 0.3254 0.89916 0.08984 0.0
C839 C 0.28891 0.86056 0.09437 0.0
C840 C 0.29284 0.44604 0.05576 0.0
C841 C 0.31275 0.4397 0.062 0.0
C842 C 0.30999 0.43022 0.07845 0.0
C843 C 0.2675 0.43223 0.08198 0.0
C844 C 0.27026 0.44188 0.06591 0.0
C845 C 0.24605 0.44573 0.06105 0.0
H846 H 0.11799 0.42809 0.07966 0.0
C847 C 0.24119 0.42887 0.08903 0.0
C848 C 0.22837 0.43663 0.07676 0.0
H849 H 0.16504 0.46151 0.03464 0.0
H850 H 0.20352 0.4576 0.04608 0.0
H851 H 0.13456 0.38122 0.08596 0.0
H852 H 0.16816 0.46335 0.1035 0.0
H853 H 0.17234 0.44525 0.11984 0.0
H854 H 0.13768 0.43565 0.11263 0.0
H855 H 0.11639 0.39183 0.09982 0.0
H856 H 0.14031 0.38155 0.10748 0.0
C857 C 0.23091 0.42676 0.04616 0.0
C858 C 0.25745 0.47627 0.05743 0.0
C859 C 0.21218 0.39254 0.14807 0.0
C860 C 0.18868 0.38669 0.15785 0.0
C861 C 0.16812 0.39167 0.151 0.0
C862 C 0.17056 0.40169 0.13479 0.0
C863 C 0.19389 0.40704 0.12514 0.0
C864 C 0.21435 0.4027 0.13185 0.0
C865 C 0.23774 0.40972 0.11972 0.0
C866 C 0.22806 0.41924 0.10473 0.0
C867 C 0.20224 0.41739 0.10795 0.0
C868 C 0.2388 0.38342 0.11596 0.0
C869 C 0.26491 0.43307 0.12731 0.0
C870 C 0.13651 0.43436 0.07222 0.0
C871 C 0.13832 0.44473 0.05613 0.0
C872 C 0.16311 0.45338 0.04704 0.0
C873 C 0.18536 0.45097 0.05368 0.0
C874 C 0.18297 0.44 0.06968 0.0
C875 C 0.159 0.43245 0.07876 0.0
C876 C 0.16053 0.42265 0.09587 0.0
C877 C 0.18896 0.42468 0.09545 0.0
C878 C 0.20202 0.43459 0.08001 0.0
C879 C 0.13666 0.3928 0.09754 0.0
C880 C 0.15944 0.44251 0.10872 0.0
H881 H 0.28683 0.41917 0.1008 0.0
H882 H 0.29428 0.45309 0.04312 0.0
H883 H 0.27466 0.48918 0.06615 0.0
H884 H 0.24165 0.48251 0.05925 0.0
H885 H 0.2658 0.48152 0.04461 0.0
H886 H 0.2291 0.4065 0.04803 0.0
H887 H 0.24256 0.43541 0.03444 0.0
H888 H 0.20936 0.42262 0.04451 0.0
H889 H 0.22832 0.38881 0.15276 0.0
H890 H 0.15008 0.388 0.15822 0.0
H891 H 0.15405 0.40479 0.1304 0.0
H892 H 0.21761 0.36516 0.11648 0.0
H893 H 0.25208 0.38043 0.1251 0.0
H894 H 0.24627 0.38311 0.1033 0.0
H895 H 0.26072 0.44803 0.13375 0.0
H896 H 0.28084 0.44501 0.11789 0.0
H897 H 0.274 0.42514 0.13655 0.0
H898 H 0.32509 0.42531 0.08354 0.0
C899 C 0.28769 0.42662 0.08845 0.0
C900 C 0.50762 0.87567 0.29634 0.0
C901 C 0.5341 0.88311 0.28982 0.0
C902 C 0.54025 0.89271 0.27337 0.0
C903 C 0.49467 0.88864 0.27037 0.0
C904 C 0.48836 0.87888 0.28645 0.0
C905 C 0.45992 0.87376 0.29163 0.0
H906 H 0.34444 0.88319 0.27453 0.0
C907 C 0.47092 0.89092 0.26367 0.0
C908 C 0.45048 0.8824 0.27612 0.0
H909 H 0.36189 0.85141 0.31886 0.0
H910 H 0.40553 0.85935 0.30708 0.0
H911 H 0.40749 0.93371 0.26838 0.0
H912 H 0.36386 0.85164 0.24947 0.0
H913 H 0.38327 0.87312 0.23308 0.0
H914 H 0.35601 0.87717 0.24255 0.0
H915 H 0.37888 0.92207 0.25405 0.0
H916 H 0.4141 0.9347 0.24695 0.0
C917 C 0.46371 0.89234 0.30665 0.0
C918 C 0.44129 0.84298 0.29516 0.0
C919 C 0.47575 0.92577 0.20465 0.0
C920 C 0.45779 0.93132 0.19505 0.0
C921 C 0.43257 0.92674 0.20235 0.0
C922 C 0.42539 0.91686 0.21866 0.0
C923 C 0.44356 0.91145 0.22802 0.0
C924 C 0.46829 0.916 0.22098 0.0
C925 C 0.4854 0.90977 0.23288 0.0
C926 C 0.46663 0.90021 0.2481 0.0
C927 C 0.44211 0.90124 0.24521 0.0
C928 C 0.51313 0.93653 0.23626 0.0
C929 C 0.48906 0.88663 0.22531 0.0
C930 C 0.35782 0.87822 0.28175 0.0
C931 C 0.34978 0.8669 0.29774 0.0
C932 C 0.36753 0.86011 0.30654 0.0
C933 C 0.39294 0.86482 0.29968 0.0
C934 C 0.40077 0.87629 0.28374 0.0
C935 C 0.38311 0.88244 0.27497 0.0
C936 C 0.39412 0.89316 0.25786 0.0
C937 C 0.42154 0.89299 0.25792 0.0
C938 C 0.42551 0.88332 0.2732 0.0
C939 C 0.3988 0.92239 0.25657 0.0
C940 C 0.37328 0.87296 0.24496 0.0
H941 H 0.52689 0.90291 0.25124 0.0
H942 H 0.50243 0.8685 0.309 0.0
H943 H 0.44633 0.83068 0.28655 0.0
H944 H 0.41891 0.83567 0.2931 0.0
H945 H 0.44438 0.83797 0.30804 0.0
H946 H 0.48216 0.91292 0.30483 0.0
H947 H 0.46703 0.88381 0.31828 0.0
H948 H 0.44598 0.89583 0.30844 0.0
H949 H 0.49518 0.92875 0.19958 0.0
H950 H 0.41847 0.93126 0.19555 0.0
H951 H 0.40599 0.91401 0.2234 0.0
H952 H 0.51044 0.95463 0.23498 0.0
H953 H 0.52963 0.93905 0.22741 0.0
H954 H 0.52081 0.93783 0.2491 0.0
H955 H 0.46931 0.87097 0.21942 0.0
H956 H 0.49414 0.87553 0.23466 0.0
H957 H 0.5055 0.89459 0.21562 0.0
H958 H 0.56046 0.89847 0.26809 0.0
C959 C 0.52073 0.89535 0.26362 0.0
C960 C 0.13999 0.50493 0.28956 0.0
C961 C 0.13441 0.47912 0.2841 0.0
C962 C 0.12071 0.46933 0.26871 0.0
C963 C 0.11813 0.51046 0.26476 0.0
C964 C 0.1317 0.52012 0.27977 0.0
C965 C 0.13594 0.54778 0.28392 0.0
H966 H 0.11411 0.65192 0.26532 0.0
C967 C 0.11216 0.5312 0.25775 0.0
C968 C 0.12261 0.55312 0.26897 0.0
H969 H 0.15945 0.64485 0.3071 0.0
H970 H 0.15079 0.60141 0.29703 0.0
H971 H 0.1433 0.63429 0.23914 0.0
H972 H 0.06446 0.58882 0.26387 0.0
H973 H 0.05928 0.58013 0.24266 0.0
H974 H 0.07189 0.61489 0.2488 0.0
H975 H 0.11293 0.63507 0.23215 0.0
H976 H 0.12111 0.60975 0.22478 0.0
C977 C 0.16773 0.56808 0.28488 0.0
C978 C 0.11984 0.54533 0.30014 0.0
C979 C 0.06163 0.5152 0.2022 0.0
C980 C 0.05403 0.53133 0.19265 0.0
C981 C 0.0601 0.55699 0.19881 0.0
C982 C 0.07345 0.56648 0.21414 0.0
C983 C 0.08104 0.55027 0.2235 0.0
C984 C 0.07526 0.52514 0.21749 0.0
C985 C 0.08558 0.51113 0.22906 0.0
C986 C 0.09854 0.53205 0.24293 0.0
C987 C 0.09556 0.55481 0.23961 0.0
C988 C 0.10764 0.50697 0.21974 0.0
C989 C 0.06005 0.48447 0.23517 0.0
C990 C 0.12245 0.64124 0.27228 0.0
C991 C 0.13723 0.65197 0.28721 0.0
C992 C 0.14739 0.63697 0.29582 0.0
C993 C 0.14256 0.61175 0.28986 0.0
C994 C 0.12761 0.60131 0.27501 0.0
C995 C 0.11817 0.61619 0.26638 0.0
C996 C 0.10389 0.60257 0.25041 0.0
C997 C 0.10581 0.57678 0.25106 0.0
C998 C 0.11948 0.57603 0.26557 0.0
C999 C 0.12092 0.62131 0.23579 0.0
C1000 C 0.07328 0.59633 0.25131 0.0
H1001 H 0.10224 0.47618 0.2475 0.0
H1002 H 0.15019 0.51302 0.30137 0.0
H1003 H 0.09937 0.52613 0.30022 0.0
H1004 H 0.11475 0.5617 0.30167 0.0
H1005 H 0.13177 0.5451 0.31119 0.0
H1006 H 0.1795 0.56193 0.27641 0.0
H1007 H 0.17583 0.56912 0.29764 0.0
H1008 H 0.17332 0.58879 0.28077 0.0
H1009 H 0.05745 0.49549 0.19775 0.0
H1010 H 0.05414 0.56964 0.19184 0.0
H1011 H 0.07728 0.5861 0.21811 0.0
H1012 H 0.12054 0.52459 0.21151 0.0
H1013 H 0.09757 0.48842 0.21186 0.0
H1014 H 0.12272 0.5057 0.22815 0.0
H1015 H 0.04204 0.48761 0.23756 0.0
H1016 H 0.06385 0.47721 0.24707 0.0
H1017 H 0.05343 0.46807 0.22575 0.0
H1018 H 0.1165 0.44973 0.26402 0.0
C1019 C 0.11256 0.4848 0.25905 0.0
C1020 C 0.36836 0.49588 0.29456 0.0
C1021 C 0.34913 0.46918 0.28954 0.0
C1022 C 0.35375 0.45935 0.27448 0.0
C1023 C 0.3962 0.50231 0.26975 0.0
C1024 C 0.39184 0.5119 0.28462 0.0
C1025 C 0.41526 0.54009 0.2886 0.0
H1026 H 0.54031 0.6484 0.26761 0.0
C1027 C 0.42271 0.52384 0.26248 0.0
C1028 C 0.43409 0.54599 0.2736 0.0
H1029 H 0.49195 0.6386 0.31182 0.0
H1030 H 0.45618 0.59438 0.30222 0.0
H1031 H 0.5309 0.58891 0.26693 0.0
H1032 H 0.48962 0.62646 0.2427 0.0
H1033 H 0.48966 0.60342 0.2282 0.0
H1034 H 0.52241 0.63107 0.23562 0.0
H1035 H 0.54589 0.61187 0.24979 0.0
H1036 H 0.52369 0.57576 0.24669 0.0
C1037 C 0.42946 0.53862 0.30485 0.0
C1038 C 0.4031 0.55944 0.28946 0.0
C1039 C 0.45739 0.50975 0.20633 0.0
C1040 C 0.48187 0.52627 0.1972 0.0
C1041 C 0.50086 0.55239 0.20325 0.0
C1042 C 0.49612 0.56183 0.21823 0.0
C1043 C 0.47211 0.545 0.22748 0.0
C1044 C 0.45304 0.5195 0.22151 0.0
C1045 C 0.42905 0.5045 0.23344 0.0
C1046 C 0.4369 0.52533 0.24738 0.0
C1047 C 0.46222 0.54891 0.24374 0.0
C1048 C 0.42915 0.47856 0.23937 0.0
C1049 C 0.40191 0.49888 0.22452 0.0
C1050 C 0.52193 0.63692 0.27519 0.0
C1051 C 0.51912 0.64715 0.29053 0.0
C1052 C 0.49493 0.63114 0.30006 0.0
C1053 C 0.47407 0.60548 0.29442 0.0
C1054 C 0.47737 0.59552 0.27909 0.0
C1055 C 0.50098 0.61132 0.26977 0.0
C1056 C 0.50119 0.59774 0.25381 0.0
C1057 C 0.47392 0.57104 0.25509 0.0
C1058 C 0.45997 0.56971 0.26991 0.0
C1059 C 0.52678 0.59342 0.25413 0.0
C1060 C 0.50091 0.61552 0.23925 0.0
H1061 H 0.37922 0.46707 0.25322 0.0
H1062 H 0.36555 0.50385 0.30617 0.0
H1063 H 0.38743 0.55458 0.27944 0.0
H1064 H 0.41898 0.58097 0.28753 0.0
H1065 H 0.39258 0.55746 0.30153 0.0
H1066 H 0.42961 0.5191 0.30563 0.0
H1067 H 0.41826 0.53997 0.31593 0.0
H1068 H 0.45161 0.55454 0.30567 0.0
H1069 H 0.44252 0.48949 0.20204 0.0
H1070 H 0.51967 0.56557 0.19638 0.0
H1071 H 0.51163 0.58183 0.22209 0.0
H1072 H 0.45082 0.48221 0.24034 0.0
H1073 H 0.4176 0.46142 0.23057 0.0
H1074 H 0.42037 0.47212 0.25194 0.0
H1075 H 0.40529 0.51709 0.2174 0.0
H1076 H 0.38472 0.49442 0.23317 0.0
H1077 H 0.39491 0.48169 0.21563 0.0
H1078 H 0.33916 0.43889 0.27033 0.0
C1079 C 0.377 0.47576 0.26454 0.0
Eu1080 Eu 0.48607 0.975 0.99084 0.0
C1081 C 0.55135 0.07687 0.03646 0.0
C1082 C 0.59932 0.08717 0.03448 0.0
C1083 C 0.58903 0.12362 0.03923 0.0
C1084 C 0.57049 0.06826 0.03408 0.0
C1085 C 0.56038 0.10455 0.03944 0.0
C1086 C 0.60846 0.11495 0.03672 0.0
C1087 C 0.51228 0.09213 0.04399 0.0
N1088 N 0.52387 0.05793 0.03671 0.0
C1089 C 0.50437 0.06491 0.04104 0.0
C1090 C 0.54039 0.1121 0.04299 0.0
Eu1091 Eu 0.51191 0.01251 0.03082 0.0
N1092 N 0.56095 0.04127 0.03203 0.0
C1093 C 0.57916 0.03162 0.03144 0.0
C1094 C 0.61809 0.07753 0.03297 0.0
C1095 C 0.60794 0.04959 0.03166 0.0
H1096 H 0.48261 0.04949 0.04172 0.0
H1097 H 0.62228 0.04187 0.03076 0.0
H1098 H 0.63052 0.1298 0.03692 0.0
H1099 H 0.49671 0.09769 0.04703 0.0
H1100 H 0.57169 0.01012 0.03032 0.0
H1101 H 0.37471 0.9417 0.99337 0.0
H1102 H 0.64039 0.09139 0.03314 0.0
H1103 H 0.51602 0.94074 0.97608 0.0
H1104 H 0.42492 0.97477 0.99275 0.0
H1105 H 0.50337 0.89331 0.96945 0.0
H1106 H 0.59639 0.14502 0.04134 0.0
H1107 H 0.35814 0.89248 0.99079 0.0
H1108 H 0.36956 0.85534 0.98573 0.0
H1109 H 0.54648 0.13316 0.04535 0.0
H1110 H 0.40464 0.84209 0.97916 0.0
N1111 N 0.43712 0.94471 0.99044 0.0
C1112 C 0.41817 0.95343 0.99158 0.0
C1113 C 0.38031 0.90694 0.99055 0.0
C1114 C 0.39973 0.89827 0.98824 0.0
C1115 C 0.38957 0.9347 0.99196 0.0
C1116 C 0.42834 0.91794 0.98812 0.0
H1117 H 0.45457 0.85619 0.97275 0.0
N1118 N 0.47504 0.93026 0.98354 0.0
C1119 C 0.4876 0.89781 0.9738 0.0
C1120 C 0.44797 0.91046 0.98457 0.0
C1121 C 0.49468 0.92461 0.97752 0.0
C1122 C 0.46005 0.87691 0.97572 0.0
C1123 C 0.43971 0.88316 0.98085 0.0
O1124 O 0.50608 0.98305 0.96643 0.0
O1125 O 0.52083 0.00993 1.00415 0.0
O1126 O 0.50666 0.04014 0.01261 0.0
O1127 O 0.4739 0.00769 0.99463 0.0
O1128 O 0.53216 0.98959 0.98752 0.0
O1129 O 0.47059 0.98845 0.96992 0.0
O1130 O 0.4913 0.00698 0.05485 0.0
O1131 O 0.47718 0.97694 0.01779 0.0
O1132 O 0.49493 0.94789 1.0074 0.0
O1133 O 0.52227 0.97835 0.02841 0.0
O1134 O 0.46612 0.99891 0.03344 0.0
O1135 O 0.52592 0.9997 0.05271 0.0
C1136 C 0.54154 0.00989 0.99766 0.0
C1137 C 0.47721 0.97569 0.94308 0.0
C1138 C 0.47242 0.97862 0.91296 0.0
C1139 C 0.48394 0.99128 0.92836 0.0
C1140 C 0.45469 0.95022 0.91257 0.0
C1141 C 0.45932 0.94748 0.94226 0.0
C1142 C 0.44828 0.93485 0.92708 0.0
C1143 C 0.48768 0.03274 1.00072 0.0
C1144 C 0.4885 0.98877 0.9593 0.0
C1145 C 0.41139 0.86324 0.98178 0.0
C1146 C 0.39142 0.87078 0.98551 0.0
C1147 C 0.45663 0.97763 0.0241 0.0
C1148 C 0.51864 0.01408 0.07894 0.0
C1149 C 0.51051 0.99888 0.09384 0.0
C1150 C 0.52111 0.01179 0.10932 0.0
C1151 C 0.53943 0.04012 0.10953 0.0
C1152 C 0.5371 0.04218 0.07962 0.0
C1153 C 0.54731 0.05509 0.09483 0.0
C1154 C 0.51167 0.9547 0.02048 0.0
C1155 C 0.50791 0.00067 0.06273 0.0
H1156 H 0.49754 0.01314 0.92895 0.0
H1157 H 0.4458 0.9398 0.90096 0.0
H1158 H 0.4538 0.9352 0.95336 0.0
H1159 H 0.43456 0.91303 0.92657 0.0
H1160 H 0.49644 0.97709 0.09334 0.0
H1161 H 0.54757 0.05085 0.12114 0.0
H1162 H 0.54362 0.05416 0.06839 0.0
H1163 H 0.56145 0.07684 0.09523 0.0
Eu1164 Eu 0.02788 0.50653 0.98595 0.0
C1165 C 0.92003 0.47103 0.02794 0.0
C1166 C 0.90922 0.50696 0.02333 0.0
C1167 C 0.87185 0.46091 0.02877 0.0
C1168 C 0.92876 0.4979 0.02435 0.0
C1169 C 0.89158 0.45238 0.03071 0.0
C1170 C 0.88067 0.48817 0.02505 0.0
C1171 C 0.90462 0.41923 0.03893 0.0
N1172 N 0.93964 0.46356 0.02989 0.0
C1173 C 0.93259 0.43853 0.03611 0.0
C1174 C 0.88396 0.42603 0.03593 0.0
Eu1175 Eu 0.98635 0.4967 0.024 0.0
N1176 N 0.95651 0.51553 0.02292 0.0
C1177 C 0.96628 0.54288 0.02194 0.0
C1178 C 0.91906 0.53477 0.02117 0.0
C1179 C 0.94774 0.55286 0.02078 0.0
H1180 H 0.94855 0.4332 0.03834 0.0
H1181 H 0.95561 0.57448 0.01949 0.0
H1182 H 0.86533 0.49467 0.02408 0.0
H1183 H 0.89903 0.39913 0.04337 0.0
H1184 H 0.98837 0.5571 0.02152 0.0
H1185 H 0.05364 0.42534 0.99087 0.0
H1186 H 0.90475 0.54255 0.02026 0.0
H1187 H 0.06904 0.57142 0.97465 0.0
H1188 H 0.02269 0.44482 0.98887 0.0
H1189 H 0.11931 0.60412 0.97086 0.0
H1190 H 0.84985 0.4468 0.03062 0.0
H1191 H 0.10482 0.45548 0.99014 0.0
H1192 H 0.14579 0.50262 0.98691 0.0
H1193 H 0.86231 0.41109 0.03819 0.0
H1194 H 0.1637 0.55131 0.98161 0.0
N1195 N 0.05591 0.48579 0.98735 0.0
C1196 C 0.04494 0.45827 0.98843 0.0
C1197 C 0.09131 0.46418 0.98921 0.0
C1198 C 0.1024 0.49222 0.98723 0.0
C1199 C 0.06244 0.4471 0.98959 0.0
C1200 C 0.08391 0.50253 0.98621 0.0
H1201 H 0.15398 0.58927 0.97537 0.0
N1202 N 0.07548 0.53882 0.98167 0.0
C1203 C 0.1125 0.58336 0.97448 0.0
C1204 C 0.09402 0.52993 0.98341 0.0
C1205 C 0.08411 0.56483 0.97659 0.0
C1206 C 0.132 0.57491 0.97708 0.0
C1207 C 0.12285 0.54779 0.98132 0.0
O1208 O 0.02712 0.5208 0.96088 0.0
O1209 O 0.99093 0.50718 0.99687 0.0
O1210 O 0.95874 0.46166 1.00695 0.0
O1211 O 0.99119 0.46306 0.9877 0.0
O1212 O 0.0159 0.53862 0.98094 0.0
O1213 O 0.01612 0.47883 0.96479 0.0
O1214 O 0.99347 0.48515 0.04859 0.0
O1215 O 0.02282 0.49637 0.01274 0.0
O1216 O 0.05511 0.53923 1.00428 0.0
O1217 O 0.02164 0.54092 0.02099 0.0
O1218 O 1.00025 0.46566 0.02929 0.0
O1219 O 0.99598 0.52412 0.04525 0.0
C1220 C 0.99354 0.52826 0.98979 0.0
C1221 C 0.037 0.49879 0.93923 0.0
C1222 C 0.03886 0.49008 0.90968 0.0
C1223 C 0.02351 0.48884 0.92394 0.0
C1224 C 0.06794 0.50134 0.91108 0.0
C1225 C 0.06593 0.50975 0.94032 0.0
C1226 C 0.08129 0.51099 0.92632 0.0
C1227 C 0.96607 0.45115 0.99458 0.0
C1228 C 0.02065 0.49761 0.9539 0.0
C1229 C 0.14145 0.53785 0.983 0.0
C1230 C 0.13125 0.51012 0.98597 0.0
C1231 C 0.02217 0.47639 0.02003 0.0
C1232 C 0.98288 0.50351 0.07179 0.0
C1233 C 0.99865 0.51097 0.08651 0.0
C1234 C 0.98549 0.50612 0.10209 0.0
C1235 C 0.95626 0.49375 0.10269 0.0
C1236 C 0.9538 0.49145 0.07263 0.0
C1237 C 0.94059 0.48661 0.08804 0.0
C1238 C 0.04761 0.55138 0.01551 0.0
C1239 C 0.99707 0.50723 0.05579 0.0
H1240 H 1.00107 0.48001 0.92321 0.0
H1241 H 0.0805 0.50314 0.90034 0.0
H1242 H 0.07669 0.51744 0.95193 0.0
H1243 H 0.10366 0.51966 0.92725 0.0
H1244 H 0.02113 0.52007 0.08583 0.0
H1245 H 0.94557 0.48998 0.11448 0.0
H1246 H 0.94132 0.48562 0.06144 0.0
H1247 H 0.91812 0.47724 0.08862 0.0
Eu1248 Eu 0.51077 0.48873 0.02812 0.0
C1249 C 0.45501 0.53676 0.98246 0.0
C1250 C 0.40588 0.50298 0.98303 0.0
C1251 C 0.42024 0.55072 0.97913 0.0
C1252 C 0.43412 0.50993 0.98409 0.0
C1253 C 0.44833 0.55739 0.97963 0.0
C1254 C 0.39906 0.52357 0.98085 0.0
C1255 C 0.49763 0.58937 0.97685 0.0
N1256 N 0.48193 0.54254 0.98296 0.0
C1257 C 0.5032 0.56819 0.97962 0.0
C1258 C 0.47009 0.58402 0.97704 0.0
Eu1259 Eu 0.48965 0.50583 0.98841 0.0
N1260 N 0.4414 0.4905 0.98611 0.0
C1261 C 0.42154 0.46359 0.98606 0.0
C1262 C 0.38535 0.4755 0.98386 0.0
C1263 C 0.39324 0.4557 0.98518 0.0
H1264 H 0.52452 0.5724 0.97956 0.0
H1265 H 0.37755 0.43437 0.98557 0.0
H1266 H 0.37748 0.51864 0.98014 0.0
H1267 H 0.51456 0.6098 0.97458 0.0
H1268 H 0.42734 0.44809 0.98716 0.0
H1269 H 0.62232 0.56336 0.02936 0.0
H1270 H 0.36342 0.46933 0.98317 0.0
H1271 H 0.47913 0.42365 0.03985 0.0
H1272 H 0.57216 0.54789 0.0286 0.0
H1273 H 0.49101 0.38766 0.04541 0.0
H1274 H 0.41469 0.56632 0.97711 0.0
H1275 H 0.63838 0.52982 0.03152 0.0
H1276 H 0.62632 0.48109 0.03496 0.0
H1277 H 0.46582 0.60045 0.97485 0.0
H1278 H 0.59055 0.43316 0.03925 0.0
N1279 N 0.55957 0.50578 0.02984 0.0
C1280 C 0.5787 0.53294 0.0296 0.0
C1281 C 0.61625 0.52286 0.03119 0.0
C1282 C 0.59655 0.49517 0.03242 0.0
C1283 C 0.60726 0.54185 0.03001 0.0
C1284 C 0.56799 0.48719 0.03181 0.0
H1285 H 0.54004 0.39818 0.04343 0.0
N1286 N 0.52081 0.45369 0.03421 0.0
C1287 C 0.50722 0.40795 0.04211 0.0
C1288 C 0.54795 0.46026 0.034 0.0
C1289 C 0.50057 0.42833 0.03898 0.0
C1290 C 0.53491 0.41395 0.04093 0.0
C1291 C 0.55577 0.44051 0.03716 0.0
O1292 O 0.48719 0.47447 0.05124 0.0
O1293 O 0.47762 0.49256 0.01463 0.0
O1294 O 0.49325 0.53664 1.00722 0.0
O1295 O 0.52345 0.53407 0.02639 0.0
O1296 O 0.46436 0.4587 0.02941 0.0
O1297 O 0.52554 0.51295 0.05092 0.0
O1298 O 0.51259 0.52048 0.96518 0.0
O1299 O 0.52233 0.50112 1.00175 0.0
O1300 O 0.50278 0.4547 0.01013 0.0
O1301 O 0.47646 0.46082 0.98948 0.0
O1302 O 0.53643 0.53496 0.98694 0.0
O1303 O 0.47419 0.48169 0.96568 0.0
C1304 C 0.4561 0.47175 0.02002 0.0
C1305 C 0.51283 0.4882 0.07617 0.0
C1306 C 0.50875 0.48553 0.10651 0.0
C1307 C 0.50235 0.4928 0.09101 0.0
C1308 C 0.52546 0.4732 0.10674 0.0
C1309 C 0.52985 0.4764 0.07684 0.0
C1310 C 0.53598 0.46884 0.09204 0.0
C1311 C 0.51087 0.54663 0.01978 0.0
C1312 C 0.50524 0.49499 0.06004 0.0
C1313 C 0.58413 0.4481 0.03704 0.0
C1314 C 0.60449 0.47539 0.03463 0.0
C1315 C 0.54416 0.5213 0.99616 0.0
C1316 C 0.48696 0.50585 0.94025 0.0
C1317 C 0.49577 0.49847 0.9258 0.0
C1318 C 0.4898 0.50495 0.91 0.0
C1319 C 0.47485 0.51899 0.90893 0.0
C1320 C 0.47195 0.51968 0.93893 0.0
C1321 C 0.46596 0.52622 0.92332 0.0
C1322 C 0.48668 0.44662 0.99671 0.0
C1323 C 0.49446 0.49969 0.95654 0.0
H1324 H 0.48958 0.50234 0.09046 0.0
H1325 H 0.5303 0.46672 0.11831 0.0
H1326 H 0.53829 0.47291 0.06564 0.0
H1327 H 0.5489 0.45947 0.09243 0.0
H1328 H 0.50762 0.48802 0.92689 0.0
H1329 H 0.46962 0.52398 0.89697 0.0
H1330 H 0.46498 0.52551 0.94991 0.0
H1331 H 0.45436 0.53689 0.92236 0.0
Eu1332 Eu 0.15825 0.30967 0.32306 0.0
C1333 C 0.22221 0.41716 0.36392 0.0
C1334 C 0.27071 0.42927 0.362 0.0
C1335 C 0.25841 0.46478 0.36413 0.0
C1336 C 0.24216 0.40945 0.36232 0.0
C1337 C 0.23009 0.44488 0.36522 0.0
C1338 C 0.27869 0.45699 0.36251 0.0
C1339 C 0.18166 0.43106 0.36992 0.0
N1340 N 0.1951 0.39744 0.36503 0.0
C1341 C 0.17492 0.40385 0.36864 0.0
C1342 C 0.20933 0.4517 0.36799 0.0
Eu1343 Eu 0.18499 0.35201 0.36128 0.0
N1344 N 0.23372 0.38252 0.36189 0.0
C1345 C 0.25283 0.37397 0.36255 0.0
C1346 C 0.29038 0.42062 0.36162 0.0
C1347 C 0.28139 0.39284 0.36218 0.0
H1348 H 0.15346 0.38792 0.36997 0.0
H1349 H 0.29644 0.38593 0.36223 0.0
H1350 H 0.30051 0.47252 0.36208 0.0
H1351 H 0.16552 0.4361 0.37236 0.0
H1352 H 0.2462 0.35257 0.36285 0.0
H1353 H 0.04596 0.27161 0.32672 0.0
H1354 H 0.31252 0.43519 0.36132 0.0
H1355 H 0.19014 0.27661 0.30927 0.0
H1356 H 0.09558 0.30626 0.32499 0.0
H1357 H 0.17959 0.22943 0.30419 0.0
H1358 H 0.26488 0.48621 0.36492 0.0
H1359 H 0.03161 0.22274 0.32577 0.0
H1360 H 0.0452 0.18685 0.32192 0.0
H1361 H 0.21452 0.47277 0.36904 0.0
H1362 H 0.08166 0.17529 0.31574 0.0
N1363 N 0.10969 0.27757 0.32363 0.0
C1364 C 0.0898 0.28512 0.3245 0.0
C1365 C 0.05352 0.23792 0.32504 0.0
C1366 C 0.07383 0.23033 0.323 0.0
C1367 C 0.06153 0.26547 0.32551 0.0
C1368 C 0.10208 0.25092 0.32221 0.0
H1369 H 0.1318 0.19108 0.30877 0.0
N1370 N 0.14905 0.26499 0.31717 0.0
C1371 C 0.16334 0.23332 0.30843 0.0
C1372 C 0.12247 0.24441 0.31887 0.0
C1373 C 0.16924 0.26001 0.31131 0.0
C1374 C 0.13637 0.21173 0.31108 0.0
C1375 C 0.11538 0.21715 0.31605 0.0
O1376 O 0.1782 0.31759 0.29863 0.0
O1377 O 0.19349 0.34667 0.33485 0.0
O1378 O 0.17771 0.37661 0.34156 0.0
O1379 O 0.14412 0.34098 0.32569 0.0
O1380 O 0.20398 0.32374 0.31965 0.0
O1381 O 0.14059 0.31953 0.30156 0.0
O1382 O 0.16509 0.34831 0.38538 0.0
O1383 O 0.15043 0.31451 0.34976 0.0
O1384 O 0.16876 0.28529 0.34096 0.0
O1385 O 0.19701 0.31881 0.36038 0.0
O1386 O 0.13899 0.33724 0.36442 0.0
O1387 O 0.20022 0.34176 0.38374 0.0
C1388 C 0.2138 0.34525 0.32877 0.0
C1389 C 0.14871 0.30631 0.27523 0.0
C1390 C 0.14377 0.30669 0.24497 0.0
C1391 C 0.15442 0.32075 0.2601 0.0
C1392 C 0.128 0.27808 0.24524 0.0
C1393 C 0.13273 0.27784 0.27508 0.0
C1394 C 0.1226 0.26385 0.26016 0.0
C1395 C 0.15748 0.36683 0.33034 0.0
C1396 C 0.15922 0.32086 0.29114 0.0
C1397 C 0.0875 0.19639 0.31766 0.0
C1398 C 0.06674 0.20297 0.32117 0.0
C1399 C 0.12976 0.31501 0.35602 0.0
C1400 C 0.19235 0.35662 0.40971 0.0
C1401 C 0.18483 0.34164 0.42474 0.0
C1402 C 0.19514 0.35496 0.44016 0.0
C1403 C 0.21255 0.38344 0.44018 0.0
C1404 C 0.20983 0.38489 0.41021 0.0
C1405 C 0.21975 0.39818 0.42537 0.0
C1406 C 0.18643 0.29421 0.35365 0.0
C1407 C 0.18199 0.34275 0.39356 0.0
H1408 H 0.1665 0.34278 0.26018 0.0
H1409 H 0.11983 0.26663 0.23385 0.0
H1410 H 0.12801 0.26642 0.2865 0.0
H1411 H 0.11037 0.24185 0.26017 0.0
H1412 H 0.17147 0.31973 0.42438 0.0
H1413 H 0.22049 0.39445 0.45173 0.0
H1414 H 0.21579 0.3967 0.39888 0.0
H1415 H 0.23315 0.42006 0.42565 0.0
Eu1416 Eu 0.68873 0.8436 0.32881 0.0
C1417 C 0.57918 0.79643 0.36966 0.0
C1418 C 0.5652 0.83025 0.36552 0.0
C1419 C 0.53 0.78293 0.36984 0.0
C1420 C 0.58618 0.82308 0.36666 0.0
C1421 C 0.55107 0.77621 0.37188 0.0
C1422 C 0.53705 0.80991 0.36663 0.0
C1423 C 0.56698 0.74523 0.38015 0.0
N1424 N 0.60004 0.79073 0.37182 0.0
C1425 C 0.59453 0.76607 0.37794 0.0
C1426 C 0.54511 0.75017 0.3768 0.0
Eu1427 Eu 0.64606 0.82652 0.3671 0.0
N1428 N 0.61359 0.84227 0.36587 0.0
C1429 C 0.62147 0.86925 0.36533 0.0
C1430 C 0.57317 0.85775 0.36384 0.0
C1431 C 0.60144 0.87736 0.36404 0.0
H1432 H 0.61148 0.76231 0.38057 0.0
H1433 H 0.60783 0.89873 0.36311 0.0
H1434 H 0.52063 0.81498 0.36557 0.0
H1435 H 0.56265 0.72543 0.38447 0.0
H1436 H 0.64322 0.88464 0.36533 0.0
H1437 H 0.72302 0.76816 0.33045 0.0
H1438 H 0.5577 0.86409 0.36286 0.0
H1439 H 0.72544 0.9089 0.31765 0.0
H1440 H 0.68906 0.78408 0.32967 0.0
H1441 H 0.77475 0.94465 0.31387 0.0
H1442 H 0.50825 0.76761 0.37127 0.0
H1443 H 0.77356 0.80134 0.32998 0.0
H1444 H 0.8119 0.84996 0.32764 0.0
H1445 H 0.52379 0.73407 0.37864 0.0
H1446 H 0.82607 0.89812 0.32335 0.0
N1447 N 0.71985 0.82614 0.32909 0.0
C1448 C 0.71096 0.79891 0.32934 0.0
C1449 C 0.7587 0.80851 0.32957 0.0
C1450 C 0.76768 0.83628 0.32838 0.0
C1451 C 0.7302 0.78973 0.32981 0.0
C1452 C 0.74747 0.84455 0.32802 0.0
H1453 H 0.81235 0.93358 0.31795 0.0
N1454 N 0.73535 0.87851 0.3245 0.0
C1455 C 0.76966 0.92424 0.31734 0.0
C1456 C 0.75549 0.87164 0.32581 0.0
C1457 C 0.74183 0.90402 0.31946 0.0
C1458 C 0.79081 0.91793 0.31971 0.0
C1459 C 0.78384 0.89122 0.32363 0.0
O1460 O 0.68598 0.85918 0.3045 0.0
O1461 O 0.64962 0.83824 0.3403 0.0
O1462 O 0.62213 0.79101 0.34994 0.0
O1463 O 0.65495 0.79837 0.32922 0.0
O1464 O 0.67126 0.87189 0.32529 0.0
O1465 O 0.67915 0.81824 0.30665 0.0
O1466 O 0.65337 0.8135 0.39116 0.0
O1467 O 0.68502 0.83212 0.35544 0.0
O1468 O 0.71306 0.87814 0.34703 0.0
O1469 O 0.67892 0.87167 0.36655 0.0
O1470 O 0.66475 0.79912 0.37104 0.0
O1471 O 0.65069 0.85021 0.38951 0.0
C1472 C 0.64885 0.85821 0.3339 0.0
C1473 C 0.69793 0.84132 0.28146 0.0
C1474 C 0.6994 0.83601 0.25149 0.0
C1475 C 0.68414 0.83194 0.26621 0.0
C1476 C 0.72868 0.84949 0.25228 0.0
C1477 C 0.72713 0.85452 0.28202 0.0
C1478 C 0.7424 0.85859 0.26749 0.0
C1479 C 0.63078 0.78314 0.3369 0.0
C1480 C 0.68152 0.83729 0.2966 0.0
C1481 C 0.80415 0.88332 0.32478 0.0
C1482 C 0.79608 0.85589 0.32718 0.0
C1483 C 0.68663 0.81272 0.36197 0.0
C1484 C 0.63596 0.82495 0.41446 0.0
C1485 C 0.64902 0.82759 0.42982 0.0
C1486 C 0.63326 0.81889 0.44454 0.0
C1487 C 0.6041 0.80727 0.44354 0.0
C1488 C 0.60697 0.81376 0.41376 0.0
C1489 C 0.59113 0.80485 0.42824 0.0
C1490 C 0.70402 0.88622 0.35987 0.0
C1491 C 0.6529 0.83309 0.39931 0.0
H1492 H 0.66156 0.82186 0.26577 0.0
H1493 H 0.74094 0.85269 0.24117 0.0
H1494 H 0.73813 0.86173 0.29362 0.0
H1495 H 0.76494 0.86881 0.26801 0.0
H1496 H 0.67152 0.83679 0.43028 0.0
H1497 H 0.59127 0.79995 0.45456 0.0
H1498 H 0.59658 0.81184 0.40207 0.0
H1499 H 0.56871 0.796 0.42761 0.0
Eu1500 Eu 0.18692 0.83271 0.36382 0.0
C1501 C 0.10821 0.8589 0.32268 0.0
C1502 C 0.06215 0.82003 0.32681 0.0
C1503 C 0.06763 0.86488 0.32249 0.0
C1504 C 0.09131 0.8314 0.32569 0.0
C1505 C 0.09651 0.87584 0.32062 0.0
C1506 C 0.05048 0.83702 0.32561 0.0
C1507 C 0.14243 0.91258 0.31353 0.0
N1508 N 0.13598 0.8688 0.32083 0.0
C1509 C 0.15302 0.89494 0.31563 0.0
C1510 C 0.11411 0.9031 0.31626 0.0
Eu1511 Eu 0.15255 0.83813 0.3256 0.0
N1512 N 0.10324 0.81554 0.32676 0.0
C1513 C 0.08707 0.7879 0.32769 0.0
C1514 C 0.04556 0.79185 0.32873 0.0
C1515 C 0.05806 0.77568 0.32891 0.0
H1516 H 0.17496 0.90235 0.31366 0.0
H1517 H 0.04538 0.75382 0.3301 0.0
H1518 H 0.02816 0.82871 0.32665 0.0
H1519 H 0.1561 0.93348 0.30984 0.0
H1520 H 0.09645 0.77518 0.32799 0.0
H1521 H 0.29475 0.91507 0.35648 0.0
H1522 H 0.02309 0.78234 0.32971 0.0
H1523 H 0.16481 0.77109 0.38004 0.0
H1524 H 0.24398 0.89484 0.35917 0.0
H1525 H 0.18295 0.73995 0.38597 0.0
H1526 H 0.05827 0.87762 0.32115 0.0
H1527 H 0.31629 0.88598 0.35834 0.0
H1528 H 0.3105 0.83976 0.3637 0.0
H1529 H 0.10594 0.91678 0.31457 0.0
H1530 H 0.28 0.79193 0.37171 0.0
N1531 N 0.23633 0.85436 0.36212 0.0
C1532 C 0.25292 0.88181 0.36012 0.0
C1533 C 0.2939 0.87694 0.35957 0.0
C1534 C 0.27701 0.84912 0.3627 0.0
C1535 C 0.28183 0.89343 0.35856 0.0
C1536 C 0.24795 0.83837 0.36408 0.0
H1537 H 0.23247 0.75464 0.38039 0.0
N1538 N 0.20338 0.80255 0.37067 0.0
C1539 C 0.19664 0.75997 0.38093 0.0
C1540 C 0.23088 0.81154 0.36845 0.0
C1541 C 0.18644 0.77764 0.37758 0.0
C1542 C 0.22457 0.76831 0.37772 0.0
C1543 C 0.24223 0.79459 0.37172 0.0
O1544 O 0.16873 0.82189 0.38866 0.0
O1545 O 0.14797 0.82871 0.35266 0.0
O1546 O 0.15628 0.87026 0.34367 0.0
O1547 O 0.19414 0.87561 0.35925 0.0
O1548 O 0.143 0.79881 0.3692 0.0
O1549 O 0.20386 0.86185 0.38436 0.0
O1550 O 0.16866 0.85218 0.30064 0.0
O1551 O 0.19109 0.84112 0.33655 0.0
O1552 O 0.17994 0.79728 0.34758 0.0
O1553 O 0.14712 0.79562 0.32835 0.0
O1554 O 0.19684 0.87136 0.32008 0.0
O1555 O 0.13674 0.81024 0.30445 0.0
C1556 C 0.12997 0.80742 0.35994 0.0
C1557 C 0.19923 0.84277 0.41113 0.0
C1558 C 0.19857 0.84137 0.4415 0.0
C1559 C 0.18802 0.845 0.42636 0.0
C1560 C 0.22065 0.83578 0.44115 0.0
C1561 C 0.22137 0.83738 0.41111 0.0
C1562 C 0.23201 0.83394 0.42606 0.0
C1563 C 0.17731 0.88438 0.35392 0.0
C1564 C 0.18689 0.84484 0.39538 0.0
C1565 C 0.27093 0.80473 0.36948 0.0
C1566 C 0.28829 0.83197 0.36495 0.0
C1567 C 0.20944 0.86185 0.32899 0.0
C1568 C 0.13798 0.82991 0.27835 0.0
C1569 C 0.14504 0.82314 0.26298 0.0
C1570 C 0.13182 0.82421 0.24824 0.0
C1571 C 0.11175 0.83254 0.24918 0.0
C1572 C 0.11777 0.83791 0.27895 0.0
C1573 C 0.10481 0.83929 0.26442 0.0
C1574 C 0.16137 0.78525 0.33555 0.0
C1575 C 0.15203 0.82886 0.29362 0.0
H1576 H 0.17075 0.84895 0.4264 0.0
H1577 H 0.22936 0.83313 0.45258 0.0
H1578 H 0.23032 0.83568 0.39956 0.0
H1579 H 0.24907 0.82973 0.42595 0.0
H1580 H 0.16044 0.81664 0.26257 0.0
H1581 H 0.1015 0.83403 0.23808 0.0
H1582 H 0.11205 0.84314 0.29061 0.0
H1583 H 0.08933 0.84564 0.26497 0.0
Eu1584 Eu 0.82576 0.6457 0.65569 0.0
C1585 C 0.89023 0.75387 0.69806 0.0
C1586 C 0.93878 0.76631 0.69587 0.0
C1587 C 0.92634 0.80146 0.69968 0.0
C1588 C 0.91024 0.74641 0.69592 0.0
C1589 C 0.89801 0.78144 0.70025 0.0
C1590 C 0.94669 0.79391 0.69748 0.0
C1591 C 0.84939 0.76719 0.70445 0.0
N1592 N 0.86315 0.73403 0.69862 0.0
C1593 C 0.84277 0.74014 0.70229 0.0
C1594 C 0.87712 0.78798 0.70327 0.0
Eu1595 Eu 0.85302 0.68879 0.69378 0.0
N1596 N 0.90182 0.71958 0.69439 0.0
C1597 C 0.92103 0.71114 0.69388 0.0
C1598 C 0.9585 0.75783 0.6945 0.0
C1599 C 0.94958 0.73008 0.6937 0.0
H1600 H 0.82127 0.72416 0.70312 0.0
H1601 H 0.96466 0.72326 0.69288 0.0
H1602 H 0.9685 0.8095 0.69735 0.0
H1603 H 0.83311 0.77198 0.70702 0.0
H1604 H 0.91457 0.68983 0.69316 0.0
H1605 H 0.71316 0.60566 0.65444 0.0
H1606 H 0.98062 0.77246 0.69435 0.0
H1607 H 0.86098 0.6131 0.6473 0.0
H1608 H 0.76275 0.64107 0.65418 0.0
H1609 H 0.85181 0.56597 0.64432 0.0
H1610 H 0.93273 0.82278 0.70122 0.0
H1611 H 0.6999 0.55703 0.65483 0.0
H1612 H 0.71484 0.52181 0.65363 0.0
H1613 H 0.88222 0.80892 0.705 0.0
H1614 H 0.75256 0.51099 0.65071 0.0
N1615 N 0.77761 0.61298 0.65488 0.0
C1616 C 0.75733 0.62 0.65427 0.0
C1617 C 0.72174 0.57253 0.65471 0.0
C1618 C 0.74263 0.56547 0.65428 0.0
C1619 C 0.72914 0.59994 0.65444 0.0
C1620 C 0.77074 0.58645 0.65422 0.0
H1621 H 0.80366 0.52733 0.64692 0.0
N1622 N 0.81853 0.6012 0.65181 0.0
C1623 C 0.83477 0.56972 0.64671 0.0
C1624 C 0.79187 0.58036 0.65259 0.0
C1625 C 0.83988 0.59639 0.64835 0.0
C1626 C 0.80757 0.54797 0.64823 0.0
C1627 C 0.78564 0.55313 0.65098 0.0
O1628 O 0.84588 0.65169 0.63149 0.0
O1629 O 0.86047 0.68304 0.66728 0.0
O1630 O 0.84412 0.71267 0.67437 0.0
O1631 O 0.81171 0.67712 0.65761 0.0
O1632 O 0.87195 0.66108 0.65208 0.0
O1633 O 0.80861 0.65472 0.63362 0.0
O1634 O 0.83335 0.68323 0.71814 0.0
O1635 O 0.81768 0.6524 0.68193 0.0
O1636 O 0.83154 0.62106 0.67568 0.0
O1637 O 0.86597 0.65647 0.69131 0.0
O1638 O 0.8074 0.67516 0.69747 0.0
O1639 O 0.8679 0.67602 0.71532 0.0
C1640 C 0.88119 0.68285 0.66091 0.0
C1641 C 0.81716 0.64036 0.60776 0.0
C1642 C 0.81333 0.64046 0.57744 0.0
C1643 C 0.8233 0.65465 0.59259 0.0
C1644 C 0.79768 0.61184 0.57778 0.0
C1645 C 0.80142 0.61188 0.60771 0.0
C1646 C 0.79185 0.59774 0.59278 0.0
C1647 C 0.82422 0.70271 0.66288 0.0
C1648 C 0.82734 0.65519 0.62358 0.0
C1649 C 0.75777 0.53206 0.65176 0.0
C1650 C 0.73629 0.53822 0.65343 0.0
C1651 C 0.79751 0.6538 0.68821 0.0
C1652 C 0.86034 0.68842 0.74215 0.0
C1653 C 0.85071 0.67199 0.75652 0.0
C1654 C 0.85992 0.6834 0.77249 0.0
C1655 C 0.8792 0.71143 0.7737 0.0
C1656 C 0.87951 0.71624 0.74377 0.0
C1657 C 0.88889 0.72761 0.75947 0.0
C1658 C 0.8517 0.6305 0.68689 0.0
C1659 C 0.84992 0.67644 0.72559 0.0
H1660 H 0.83527 0.67668 0.59261 0.0
H1661 H 0.78999 0.6003 0.56638 0.0
H1662 H 0.79656 0.60059 0.61921 0.0
H1663 H 0.77978 0.57574 0.59284 0.0
H1664 H 0.83569 0.65051 0.75526 0.0
H1665 H 0.88708 0.72086 0.78568 0.0
H1666 H 0.88713 0.72914 0.73291 0.0
H1667 H 0.90375 0.74912 0.76063 0.0
Eu1668 Eu 0.36148 0.1691 0.65616 0.0
C1669 C 0.25641 0.12436 0.69785 0.0
C1670 C 0.23348 0.15009 0.69103 0.0
C1671 C 0.20586 0.10239 0.69872 0.0
C1672 C 0.25798 0.14847 0.69279 0.0
C1673 C 0.23039 0.10124 0.70123 0.0
C1674 C 0.2074 0.12675 0.69362 0.0
C1675 C 0.25493 0.07827 0.71053 0.0
N1676 N 0.2805 0.12383 0.70008 0.0
C1677 C 0.28027 0.10175 0.70707 0.0
C1678 C 0.22987 0.07788 0.70738 0.0
Eu1679 Eu 0.32224 0.1644 0.69378 0.0
N1680 N 0.28349 0.17077 0.6906 0.0
C1681 C 0.28615 0.19573 0.68803 0.0
C1682 C 0.23599 0.17532 0.68726 0.0
C1683 C 0.26245 0.19833 0.68604 0.0
H1684 H 0.29974 0.10213 0.70941 0.0
H1685 H 0.26462 0.21805 0.68351 0.0
H1686 H 0.18833 0.12752 0.69215 0.0
H1687 H 0.25473 0.0605 0.71561 0.0
H1688 H 0.30659 0.21356 0.68711 0.0
H1689 H 0.41072 0.10698 0.66497 0.0
H1690 H 0.21767 0.1774 0.68573 0.0
H1691 H 0.38996 0.23158 0.63942 0.0
H1692 H 0.37152 0.11555 0.66127 0.0
H1693 H 0.43701 0.27082 0.63402 0.0
H1694 H 0.18562 0.08475 0.70107 0.0
H1695 H 0.45922 0.14533 0.66457 0.0
H1696 H 0.49213 0.19513 0.66014 0.0
H1697 H 0.21027 0.05968 0.7101 0.0
H1698 H 0.49934 0.23992 0.65179 0.0
N1699 N 0.39748 0.1585 0.65938 0.0
C1700 C 0.39255 0.13251 0.6611 0.0
C1701 C 0.44209 0.14925 0.66297 0.0
C1702 C 0.44703 0.17564 0.66011 0.0
C1703 C 0.41474 0.12754 0.66316 0.0
C1704 C 0.42398 0.17968 0.65819 0.0
H1705 H 0.47893 0.26817 0.64164 0.0
N1706 N 0.40544 0.20779 0.65066 0.0
C1707 C 0.4348 0.25256 0.6397 0.0
C1708 C 0.42811 0.20504 0.65364 0.0
C1709 C 0.40829 0.23038 0.64272 0.0
C1710 C 0.45841 0.251 0.64408 0.0
C1711 C 0.45527 0.22681 0.65072 0.0
O1712 O 0.35613 0.17952 0.6309 0.0
O1713 O 0.33205 0.18126 0.66807 0.0
O1714 O 0.29772 0.12625 0.67761 0.0
O1715 O 0.33297 0.12481 0.66285 0.0
O1716 O 0.32202 0.1646 0.64471 0.0
O1717 O 0.36203 0.14483 0.63525 0.0
O1718 O 0.32823 0.15711 0.71962 0.0
O1719 O 0.35198 0.15293 0.68186 0.0
O1720 O 0.38538 0.20812 0.67147 0.0
O1721 O 0.3507 0.20892 0.68745 0.0
O1722 O 0.35971 0.16568 0.70605 0.0
O1723 O 0.32203 0.19107 0.71334 0.0
C1724 C 0.31417 0.17411 0.65661 0.0
C1725 C 0.3779 0.16848 0.60966 0.0
C1726 C 0.38366 0.17619 0.57973 0.0
C1727 C 0.3666 0.1677 0.59394 0.0
C1728 C 0.41238 0.18572 0.5816 0.0
C1729 C 0.40648 0.17769 0.61124 0.0
C1730 C 0.42363 0.18639 0.59726 0.0
C1731 C 0.30664 0.11356 0.66764 0.0
C1732 C 0.35949 0.16038 0.6242 0.0
C1733 C 0.4783 0.2233 0.65372 0.0
C1734 C 0.47419 0.19778 0.65844 0.0
C1735 C 0.36912 0.15881 0.69364 0.0
C1736 C 0.30936 0.17231 0.74049 0.0
C1737 C 0.32338 0.18013 0.75581 0.0
C1738 C 0.3084 0.17429 0.7708 0.0
C1739 C 0.27909 0.16055 0.77018 0.0
C1740 C 0.28016 0.15882 0.74012 0.0
C1741 C 0.26514 0.15299 0.75492 0.0
C1742 C 0.37658 0.22039 0.68182 0.0
C1743 C 0.32573 0.17742 0.72521 0.0
H1744 H 0.34439 0.16006 0.59279 0.0
H1745 H 0.42619 0.19278 0.57099 0.0
H1746 H 0.41554 0.17819 0.6232 0.0
H1747 H 0.44572 0.19368 0.59856 0.0
H1748 H 0.34597 0.19027 0.75607 0.0
H1749 H 0.26697 0.15594 0.78147 0.0
H1750 H 0.26902 0.15267 0.72846 0.0
H1751 H 0.24258 0.14253 0.75458 0.0
Eu1752 Eu 0.85485 0.17036 0.69724 0.0
C1753 C 0.78316 0.19895 0.65876 0.0
C1754 C 0.73728 0.15935 0.66204 0.0
C1755 C 0.74247 0.20443 0.66226 0.0
C1756 C 0.76643 0.17102 0.66003 0.0
C1757 C 0.77112 0.21584 0.65923 0.0
C1758 C 0.72558 0.17622 0.66367 0.0
C1759 C 0.81555 0.25354 0.65113 0.0
N1760 N 0.81075 0.20941 0.65567 0.0
C1761 C 0.82642 0.23597 0.65062 0.0
C1762 C 0.78794 0.24357 0.65586 0.0
Eu1763 Eu 0.82806 0.17821 0.65709 0.0
N1764 N 0.77832 0.15515 0.65851 0.0
C1765 C 0.76176 0.12752 0.6572 0.0
C1766 C 0.72063 0.13104 0.66201 0.0
C1767 C 0.73288 0.11509 0.65921 0.0
H1768 H 0.84772 0.244 0.64656 0.0
H1769 H 0.72009 0.09316 0.65857 0.0
H1770 H 0.70335 0.16761 0.66551 0.0
H1771 H 0.82846 0.27471 0.64776 0.0
H1772 H 0.77037 0.11467 0.65459 0.0
H1773 H 0.95802 0.26 0.69122 0.0
H1774 H 0.69824 0.12134 0.66359 0.0
H1775 H 0.83793 0.10794 0.71066 0.0
H1776 H 0.90664 0.23475 0.69327 0.0
H1777 H 0.86087 0.08042 0.71514 0.0
H1778 H 0.733 0.21716 0.66292 0.0
H1779 H 0.98425 0.2352 0.69252 0.0
H1780 H 0.98365 0.19088 0.69628 0.0
H1781 H 0.77947 0.25717 0.6561 0.0
H1782 H 0.95715 0.1419 0.70252 0.0
N1783 N 0.90389 0.19618 0.6956 0.0
C1784 C 0.91789 0.22379 0.69393 0.0
C1785 C 0.96173 0.22407 0.69352 0.0
C1786 C 0.94726 0.19585 0.69588 0.0
C1787 C 0.947 0.23814 0.6928 0.0
C1788 C 0.91794 0.18233 0.69709 0.0
H1789 H 0.91143 0.10062 0.70984 0.0
N1790 N 0.87497 0.14269 0.70227 0.0
C1791 C 0.87292 0.10121 0.71085 0.0
C1792 C 0.90301 0.15472 0.70041 0.0
C1793 C 0.86003 0.11678 0.70834 0.0
C1794 C 0.90146 0.11268 0.70782 0.0
C1795 C 0.917 0.13993 0.70287 0.0
O1796 O 0.83646 0.15505 0.72164 0.0
O1797 O 0.81854 0.16934 0.68422 0.0
O1798 O 0.85475 0.21994 0.66906 0.0
O1799 O 0.85168 0.2084 0.69686 0.0
O1800 O 0.80992 0.13688 0.69974 0.0
O1801 O 0.87086 0.19606 0.7194 0.0
O1802 O 0.84493 0.20077 0.63397 0.0
O1803 O 0.86709 0.18809 0.67161 0.0
O1804 O 0.8481 0.13514 0.68105 0.0
O1805 O 0.81717 0.13406 0.66086 0.0
O1806 O 0.86273 0.17152 0.6481 0.0
O1807 O 0.81441 0.15776 0.63311 0.0
C1808 C 0.79897 0.148 0.69071 0.0
C1809 C 0.86454 0.1742 0.74542 0.0
C1810 C 0.8649 0.17656 0.77578 0.0
C1811 C 0.85555 0.18044 0.76027 0.0
C1812 C 0.88349 0.16641 0.77614 0.0
C1813 C 0.88329 0.16437 0.74608 0.0
C1814 C 0.89266 0.16048 0.76138 0.0
C1815 C 0.85524 0.22578 0.68499 0.0
C1816 C 0.85346 0.17734 0.72947 0.0
C1817 C 0.94607 0.15301 0.70091 0.0
C1818 C 0.96117 0.18092 0.6974 0.0
C1819 C 0.8787 0.18067 0.66083 0.0
C1820 C 0.81748 0.18375 0.60945 0.0
C1821 C 0.82242 0.17539 0.59396 0.0
C1822 C 0.81 0.17825 0.57936 0.0
C1823 C 0.79286 0.19002 0.58058 0.0
C1824 C 0.8001 0.19512 0.61034 0.0
C1825 C 0.788 0.19836 0.59594 0.0
C1826 C 0.83013 0.12306 0.66885 0.0
C1827 C 0.83004 0.17966 0.62452 0.0
H1828 H 0.84091 0.18788 0.75975 0.0
H1829 H 0.8913 0.16346 0.78784 0.0
H1830 H 0.89058 0.15962 0.73481 0.0
H1831 H 0.90711 0.15285 0.76181 0.0
H1832 H 0.83544 0.16611 0.59336 0.0
H1833 H 0.7833 0.19295 0.56962 0.0
H1834 H 0.79578 0.20138 0.62213 0.0
H1835 H 0.77469 0.20728 0.59669 0.0
H1836 H 0.35496 0.86853 0.05087 0.0
H1837 H 0.32601 0.92452 0.0626 0.0
H1838 H 0.36576 0.96094 0.04805 0.0
H1839 H 0.41075 0.97799 0.03425 0.0
H1840 H 0.44231 0.92363 0.02422 0.0
H1841 H 0.39945 0.88539 0.03539 0.0
C1842 C 0.35725 0.88863 0.05 0.0
C1843 C 0.33774 0.89394 0.05792 0.0
C1844 C 0.38062 0.90975 0.04189 0.0
C1845 C 0.34095 0.92008 0.05679 0.0
C1846 C 0.36363 0.94088 0.04844 0.0
C1847 C 0.40802 0.95765 0.03428 0.0
C1848 C 0.42943 0.95355 0.02822 0.0
C1849 C 0.38389 0.93612 0.04129 0.0
C1850 C 0.42586 0.92721 0.02851 0.0
C1851 C 0.40147 0.9054 0.03507 0.0
H1852 H 0.1381 0.48828 0.04171 0.0
H1853 H 0.08422 0.40407 0.05452 0.0
H1854 H 0.04389 0.40599 0.0437 0.0
H1855 H 0.02351 0.43205 0.03136 0.0
H1856 H 0.0769 0.5172 0.02081 0.0
H1857 H 0.11756 0.51453 0.02975 0.0
C1858 C 0.11755 0.47033 0.04199 0.0
C1859 C 0.11418 0.44605 0.0489 0.0
C1860 C 0.09428 0.47176 0.03609 0.0
C1861 C 0.08734 0.42303 0.04937 0.0
C1862 C 0.06427 0.42411 0.04315 0.0
C1863 C 0.04411 0.44993 0.0309 0.0
C1864 C 0.04719 0.47454 0.0248 0.0
C1865 C 0.06742 0.44842 0.03661 0.0
C1866 C 0.07391 0.49775 0.02479 0.0
C1867 C 0.09724 0.49629 0.03009 0.0
H1868 H 0.51486 0.65461 0.04338 0.0
H1869 H 0.593 0.66926 0.06442 0.0
H1870 H 0.58463 0.62542 0.05396 0.0
H1871 H 0.5552 0.58281 0.03858 0.0
H1872 H 0.4783 0.56974 0.01648 0.0
H1873 H 0.48647 0.61317 0.02731 0.0
C1874 C 0.53031 0.64848 0.0455 0.0
C1875 C 0.55446 0.66532 0.05477 0.0
C1876 C 0.52563 0.62343 0.03921 0.0
C1877 C 0.57394 0.65661 0.0576 0.0
C1878 C 0.56928 0.63156 0.05152 0.0
C1879 C 0.54022 0.58946 0.03619 0.0
C1880 C 0.51623 0.57301 0.02671 0.0
C1881 C 0.54515 0.61474 0.04234 0.0
C1882 C 0.49709 0.58203 0.02363 0.0
C1883 C 0.50168 0.60689 0.02986 0.0
H1884 H 0.88148 0.35057 0.95163 0.0
H1885 H 0.85727 0.31408 1.00027 0.0
H1886 H 0.89101 0.35696 0.01304 0.0
H1887 H 0.92891 0.40456 0.01047 0.0
H1888 H 0.95581 0.43956 0.96189 0.0
H1889 H 0.92034 0.39722 0.94904 0.0
C1890 C 0.88374 0.35166 0.96501 0.0
C1891 C 0.86645 0.32878 0.97485 0.0
C1892 C 0.90397 0.37618 0.97234 0.0
C1893 C 0.86961 0.33126 0.99225 0.0
C1894 C 0.8892 0.35579 0.99962 0.0
C1895 C 0.9267 0.40299 0.99711 0.0
C1896 C 0.94467 0.42521 0.98716 0.0
C1897 C 0.90657 0.37837 0.9898 0.0
C1898 C 0.94222 0.42265 0.96981 0.0
C1899 C 0.92189 0.39849 0.96246 0.0
H1900 H 0.6444 0.50278 0.97552 0.0
H1901 H 0.68128 0.58804 0.96379 0.0
H1902 H 0.64032 0.58842 0.97468 0.0
H1903 H 0.59299 0.56427 0.98634 0.0
H1904 H 0.55427 0.47839 0.99629 0.0
H1905 H 0.59678 0.47855 0.98768 0.0
C1906 C 0.64354 0.52147 0.97551 0.0
C1907 C 0.66592 0.54533 0.96873 0.0
C1908 C 0.61952 0.52145 0.98156 0.0
C1909 C 0.66429 0.56932 0.96871 0.0
C1910 C 0.64087 0.56959 0.975 0.0
C1911 C 0.59399 0.54565 0.98678 0.0
C1912 C 0.57067 0.52152 0.99238 0.0
C1913 C 0.61821 0.54574 0.98126 0.0
C1914 C 0.5721 0.49743 0.99252 0.0
C1915 C 0.59639 0.49747 0.98742 0.0
H1916 H 0.48209 0.13311 0.97099 0.0
H1917 H 0.40724 0.06789 0.949 0.0
H1918 H 0.41538 0.0345 0.96307 0.0
H1919 H 0.4439 0.02358 0.98111 0.0
H1920 H 0.51797 0.08826 1.00403 0.0
H1921 H 0.50944 0.12203 0.99046 0.0
C1922 C 0.46733 0.11162 0.96943 0.0
C1923 C 0.44424 0.10316 0.95872 0.0
C1924 C 0.47188 0.09237 0.9778 0.0
C1925 C 0.42556 0.07512 0.95679 0.0
C1926 C 0.43005 0.05594 0.96496 0.0
C1927 C 0.45818 0.04505 0.98323 0.0
C1928 C 0.4816 0.05331 0.99355 0.0
C1929 C 0.45322 0.06432 0.97538 0.0
C1930 C 0.4997 0.08127 0.99621 0.0
C1931 C 0.49492 0.10062 0.98839 0.0
H1932 H 0.64482 0.1207 0.97445 0.0
H1933 H 0.67653 0.06635 0.96448 0.0
H1934 H 0.63559 0.02894 0.97752 0.0
H1935 H 0.58876 0.01051 0.98926 0.0
H1936 H 0.55532 0.06369 0.99786 0.0
H1937 H 0.5989 0.10266 0.9883 0.0
C1938 C 0.64292 0.10077 0.97541 0.0
C1939 C 0.66353 0.09623 0.96832 0.0
C1940 C 0.61894 0.07909 0.98269 0.0
C1941 C 0.66076 0.07025 0.9696 0.0
C1942 C 0.63737 0.04885 0.97708 0.0
C1943 C 0.59126 0.03075 0.98929 0.0
C1944 C 0.56904 0.03426 0.99452 0.0
C1945 C 0.61602 0.05285 0.98327 0.0
C1946 C 0.57231 0.06049 0.99427 0.0
C1947 C 0.59717 0.08277 0.98863 0.0
H1948 H 0.91989 0.57483 0.96093 0.0
H1949 H 0.85406 0.49213 0.96774 0.0
H1950 H 0.88715 0.48072 0.98078 0.0
H1951 H 0.9363 0.49367 0.98787 0.0
H1952 H 1.00095 0.5772 0.98165 0.0
H1953 H 0.96708 0.58877 0.97071 0.0
C1954 C 0.91274 0.55434 0.96537 0.0
C1955 C 0.88462 0.53429 0.96314 0.0
C1956 C 0.93183 0.54801 0.97286 0.0
C1957 C 0.87559 0.50794 0.96925 0.0
C1958 C 0.89457 0.50139 0.97662 0.0
C1959 C 0.94276 0.51448 0.98447 0.0
C1960 C 0.97116 0.53463 0.98572 0.0
C1961 C 0.92295 0.52113 0.97818 0.0
C1962 C 0.97927 0.56138 0.9809 0.0
C1963 C 0.9599 0.56803 0.97461 0.0
H1964 H 0.46556 0.34819 0.95075 0.0
H1965 H 0.44979 0.30772 0.99821 0.0
H1966 H 0.46055 0.34987 0.01231 0.0
H1967 H 0.47355 0.39821 0.0112 0.0
H1968 H 0.48599 0.43756 0.96373 0.0
H1969 H 0.47655 0.39568 0.9496 0.0
C1970 C 0.46401 0.34834 0.96416 0.0
C1971 C 0.45703 0.32463 0.97332 0.0
C1972 C 0.4695 0.37251 0.97222 0.0
C1973 C 0.45569 0.32566 0.99075 0.0
C1974 C 0.46162 0.34976 0.99888 0.0
C1975 C 0.47451 0.39765 0.99781 0.0
C1976 C 0.48072 0.42096 0.98854 0.0
C1977 C 0.46861 0.37333 0.98975 0.0
C1978 C 0.48112 0.41978 0.97113 0.0
C1979 C 0.47582 0.39588 0.96304 0.0
H1980 H 0.15489 0.65794 0.04044 0.0
H1981 H 0.09229 0.67091 0.06378 0.0
H1982 H 0.05552 0.62834 0.05199 0.0
H1983 H 0.04104 0.58728 0.03504 0.0
H1984 H 0.10398 0.57445 0.01192 0.0
H1985 H 0.14047 0.61724 0.02332 0.0
C1986 C 0.1332 0.65162 0.0428 0.0
C1987 C 0.12644 0.66764 0.05302 0.0
C1988 C 0.11212 0.62714 0.03594 0.0
C1989 C 0.09817 0.65884 0.05615 0.0
C1990 C 0.07709 0.63454 0.04934 0.0
C1991 C 0.06272 0.59385 0.03246 0.0
C1992 C 0.0696 0.57771 0.02242 0.0
C1993 C 0.0838 0.61847 0.03924 0.0
C1994 C 0.0979 0.58659 0.01931 0.0
C1995 C 0.11889 0.61104 0.02593 0.0
H1996 H 0.35451 0.48378 0.04564 0.0
H1997 H 0.3222 0.39839 0.05499 0.0
H1998 H 0.36213 0.40025 0.04086 0.0
H1999 H 0.4084 0.42683 0.0284 0.0
H2000 H 0.4431 0.5129 0.0207 0.0
H2001 H 0.40021 0.51012 0.03115 0.0
C2002 C 0.35607 0.46556 0.04429 0.0
C2003 C 0.33548 0.44098 0.05143 0.0
C2004 C 0.37963 0.46693 0.03645 0.0
C2005 C 0.33786 0.41755 0.04971 0.0
C2006 C 0.3607 0.4186 0.04164 0.0
C2007 C 0.40636 0.4449 0.02874 0.0
C2008 C 0.42882 0.46994 0.02355 0.0
C2009 C 0.38204 0.44328 0.03534 0.0
C2010 C 0.42601 0.49325 0.02428 0.0
C2011 C 0.40151 0.4917 0.03044 0.0
H2012 H 0.55064 0.87064 0.03953 0.0
H2013 H 0.5348 0.89055 0.08861 0.0
H2014 H 0.52003 0.92077 0.07676 0.0
H2015 H 0.51299 0.94288 0.05264 0.0
H2016 H 0.52622 0.92181 1.00345 0.0
H2017 H 0.53993 0.89027 0.01508 0.0
C2018 C 0.54356 0.88125 0.04763 0.0
C2019 C 0.54447 0.87866 0.06499 0.0
C2020 C 0.53455 0.89839 0.0407 0.0
C2021 C 0.53521 0.8927 0.07524 0.0
C2022 C 0.52652 0.90989 0.06848 0.0
C2023 C 0.51884 0.93132 0.04448 0.0
C2024 C 0.51862 0.93461 0.02722 0.0
C2025 C 0.5265 0.9132 0.05127 0.0
C2026 C 0.52585 0.9193 0.01675 0.0
C2027 C 0.5339 0.90143 0.02343 0.0
H2028 H 0.03025 0.20663 0.38544 0.0
H2029 H 0.99933 0.26174 0.39494 0.0
H2030 H 0.03864 0.2978 0.37991 0.0
H2031 H 0.08354 0.31484 0.366 0.0
H2032 H 0.11708 0.26155 0.35813 0.0
H2033 H 0.07495 0.22352 0.37015 0.0
C2034 C 0.03205 0.22646 0.38401 0.0
C2035 C 0.01207 0.23163 0.39142 0.0
C2036 C 0.05516 0.2474 0.3756 0.0
C2037 C 0.01465 0.25742 0.38955 0.0
C2038 C 0.03706 0.27802 0.38092 0.0
C2039 C 0.08141 0.29477 0.36672 0.0
C2040 C 0.10313 0.29089 0.36096 0.0
C2041 C 0.0577 0.27341 0.37419 0.0
C2042 C 0.10037 0.26492 0.36216 0.0
C2043 C 0.07639 0.24325 0.36919 0.0
H2044 H 0.8066 0.83243 0.38134 0.0
H2045 H 0.75829 0.74613 0.39032 0.0
H2046 H 0.71612 0.74558 0.38065 0.0
H2047 H 0.69241 0.76982 0.37066 0.0
H2048 H 0.73969 0.85655 0.36343 0.0
H2049 H 0.78259 0.85686 0.3713 0.0
C2050 C 0.78686 0.81352 0.38101 0.0
C2051 C 0.78556 0.78934 0.38655 0.0
C2052 C 0.76245 0.81346 0.37578 0.0
C2053 C 0.75978 0.76501 0.38622 0.0
C2054 C 0.73566 0.76468 0.38069 0.0
C2055 C 0.71218 0.78874 0.37071 0.0
C2056 C 0.71298 0.81298 0.36597 0.0
C2057 C 0.73665 0.78881 0.37562 0.0
C2058 C 0.7386 0.83748 0.36652 0.0
C2059 C 0.76314 0.83768 0.37114 0.0
H2060 H 0.18156 0.9933 0.37629 0.0
H2061 H 0.26549 0.01354 0.38929 0.0
H2062 H 0.25683 0.96966 0.37889 0.0
H2063 H 0.22525 0.9251 0.36693 0.0
H2064 H 0.14166 0.90472 0.35307 0.0
H2065 H 0.15054 0.94925 0.36272 0.0
C2066 C 0.19806 0.98826 0.37663 0.0
C2067 C 0.22401 0.00659 0.38378 0.0
C2068 C 0.19302 0.96295 0.37051 0.0
C2069 C 0.24512 0.99961 0.3842 0.0
C2070 C 0.24025 0.97456 0.37818 0.0
C2071 C 0.20894 0.93034 0.36601 0.0
C2072 C 0.18282 0.91155 0.35935 0.0
C2073 C 0.2142 0.95594 0.37152 0.0
C2074 C 0.16202 0.91885 0.35809 0.0
C2075 C 0.16705 0.94429 0.36365 0.0
H2076 H 0.53956 0.6616 0.32201 0.0
H2077 H 0.54908 0.69386 0.27244 0.0
H2078 H 0.58604 0.73815 0.28206 0.0
H2079 H 0.61471 0.76847 0.30489 0.0
H2080 H 0.60414 0.73622 0.3544 0.0
H2081 H 0.5685 0.69145 0.34459 0.0
C2082 C 0.5495 0.67836 0.31333 0.0
C2083 C 0.54141 0.67429 0.29653 0.0
C2084 C 0.57061 0.7039 0.31897 0.0
C2085 C 0.55501 0.69623 0.28542 0.0
C2086 C 0.57612 0.72165 0.29092 0.0
C2087 C 0.60477 0.75149 0.31343 0.0
C2088 C 0.61169 0.75563 0.33038 0.0
C2089 C 0.58406 0.72578 0.30768 0.0
C2090 C 0.59862 0.73362 0.34139 0.0
C2091 C 0.57836 0.70798 0.33575 0.0
H2092 H 0.32964 0.90199 0.29958 0.0
H2093 H 0.30956 0.82056 0.31275 0.0
H2094 H 0.26472 0.81169 0.3241 0.0
H2095 H 0.23003 0.82652 0.32907 0.0
H2096 H 0.25161 0.90884 0.31717 0.0
H2097 H 0.29667 0.9178 0.30639 0.0
C2098 C 0.31541 0.88229 0.30491 0.0
C2099 C 0.32286 0.86189 0.30514 0.0
C2100 C 0.2898 0.87745 0.3116 0.0
C2101 C 0.30437 0.83662 0.31239 0.0
C2102 C 0.27865 0.8315 0.31882 0.0
C2103 C 0.24485 0.84655 0.32442 0.0
C2104 C 0.23764 0.86714 0.32417 0.0
C2105 C 0.271 0.85169 0.31838 0.0
C2106 C 0.25677 0.89275 0.31766 0.0
C2107 C 0.28254 0.89788 0.31146 0.0
H2108 H 0.10441 0.42461 0.28954 0.0
H2109 H 0.18253 0.49587 0.30212 0.0
H2110 H 0.19588 0.46794 0.31864 0.0
H2111 H 0.18624 0.42261 0.32841 0.0
H2112 H 0.10847 0.35172 0.31456 0.0
H2113 H 0.09438 0.3801 0.29964 0.0
C2114 C 0.12449 0.43406 0.29575 0.0
C2115 C 0.14248 0.4623 0.29444 0.0
C2116 C 0.13219 0.41788 0.30504 0.0
C2117 C 0.16813 0.47421 0.30297 0.0
C2118 C 0.17587 0.45822 0.31237 0.0
C2119 C 0.16611 0.41345 0.32227 0.0
C2120 C 0.14856 0.385 0.32257 0.0
C2121 C 0.15816 0.42995 0.31339 0.0
C2122 C 0.12258 0.37348 0.31446 0.0
C2123 C 0.11443 0.38971 0.30588 0.0
H2124 H 0.33428 0.41891 0.30095 0.0
H2125 H 0.30868 0.47926 0.30139 0.0
H2126 H 0.2652 0.44729 0.31557 0.0
H2127 H 0.23209 0.39997 0.3249 0.0
H2128 H 0.2592 0.34063 0.32463 0.0
H2129 H 0.30436 0.37428 0.3135 0.0
C2130 C 0.31926 0.42511 0.30429 0.0
C2131 C 0.32442 0.4512 0.2999 0.0
C2132 C 0.29448 0.4067 0.31244 0.0
C2133 C 0.30507 0.4592 0.30457 0.0
C2134 C 0.28017 0.44088 0.31261 0.0
C2135 C 0.24823 0.39474 0.32285 0.0
C2136 C 0.24241 0.36788 0.32567 0.0
C2137 C 0.27429 0.41428 0.31624 0.0
C2138 C 0.26328 0.3612 0.32262 0.0
C2139 C 0.28906 0.38039 0.31617 0.0
H2140 H 0.53357 0.83984 0.30555 0.0
H2141 H 0.58477 0.92597 0.2969 0.0
H2142 H 0.62389 0.92617 0.31113 0.0
H2143 H 0.64483 0.90147 0.32411 0.0
H2144 H 0.59541 0.81485 0.33123 0.0
H2145 H 0.55442 0.81513 0.31982 0.0
C2146 C 0.5532 0.85865 0.30704 0.0
C2147 C 0.55633 0.88288 0.30016 0.0
C2148 C 0.57598 0.85848 0.31493 0.0
C2149 C 0.58194 0.90708 0.30202 0.0
C2150 C 0.60431 0.9072 0.31014 0.0
C2151 C 0.62496 0.88272 0.32334 0.0
C2152 C 0.62304 0.8583 0.32881 0.0
C2153 C 0.60178 0.88297 0.31634 0.0
C2154 C 0.59731 0.83404 0.32747 0.0
C2155 C 0.57391 0.83418 0.32081 0.0
H2156 H 0.13878 0.66716 0.31964 0.0
H2157 H 0.14698 0.6973 0.2695 0.0
H2158 H 0.15382 0.74045 0.28006 0.0
H2159 H 0.1582 0.77011 0.30355 0.0
H2160 H 0.15339 0.74126 0.35355 0.0
H2161 H 0.14538 0.69745 0.34306 0.0
C2162 C 0.14251 0.68324 0.31097 0.0
C2163 C 0.14214 0.67867 0.29374 0.0
C2164 C 0.14726 0.70839 0.31712 0.0
C2165 C 0.14648 0.69979 0.28279 0.0
C2166 C 0.15066 0.72466 0.28882 0.0
C2167 C 0.15534 0.75415 0.31211 0.0
C2168 C 0.15657 0.75885 0.32929 0.0
C2169 C 0.15106 0.72917 0.30595 0.0
C2170 C 0.15309 0.73824 0.34029 0.0
C2171 C 0.14828 0.71313 0.33428 0.0
H2172 H 0.78389 0.98432 0.40628 0.0
H2173 H 0.81212 0.02391 0.35873 0.0
H2174 H 0.77875 0.98231 0.34465 0.0
H2175 H 0.74117 0.93455 0.34565 0.0
H2176 H 0.7106 0.89586 0.393 0.0
H2177 H 0.74443 0.93748 0.40728 0.0
C2178 C 0.78256 0.98413 0.39285 0.0
C2179 C 0.80107 0.00741 0.3837 0.0
C2180 C 0.76266 0.96024 0.38473 0.0
C2181 C 0.79892 0.00628 0.36623 0.0
C2182 C 0.77956 0.98249 0.3581 0.0
C2183 C 0.74214 0.93517 0.35906 0.0
C2184 C 0.7237 0.91206 0.36822 0.0
C2185 C 0.76144 0.95929 0.3672 0.0
C2186 C 0.72456 0.91344 0.38565 0.0
C2187 C 0.74398 0.93719 0.39383 0.0
H2188 H 0.00946 0.75853 0.3899 0.0
H2189 H 0.02569 0.84037 0.38236 0.0
H2190 H 0.07005 0.85236 0.36872 0.0
H2191 H 0.10651 0.84046 0.36155 0.0
H2192 H 0.08874 0.75797 0.36866 0.0
H2193 H 0.04298 0.74543 0.37995 0.0
C2194 C 0.02263 0.77896 0.38517 0.0
C2195 C 0.01446 0.79862 0.38737 0.0
C2196 C 0.04801 0.78565 0.37738 0.0
C2197 C 0.03151 0.82486 0.38087 0.0
C2198 C 0.05696 0.83176 0.37317 0.0
C2199 C 0.0923 0.81962 0.36517 0.0
C2200 C 0.1009 0.80006 0.36409 0.0
C2201 C 0.06577 0.81247 0.37169 0.0
C2202 C 0.08252 0.7733 0.36926 0.0
C2203 C 0.05636 0.76613 0.37576 0.0
H2204 H 0.2276 0.21276 0.37443 0.0
H2205 H 0.21775 0.23845 0.42324 0.0
H2206 H 0.20302 0.26845 0.41086 0.0
H2207 H 0.19273 0.28744 0.38621 0.0
H2208 H 0.20005 0.26004 0.33758 0.0
H2209 H 0.21514 0.23008 0.34984 0.0
C2210 C 0.22184 0.22456 0.38241 0.0
C2211 C 0.22409 0.22338 0.39979 0.0
C2212 C 0.21272 0.24137 0.37523 0.0
C2213 C 0.21691 0.23929 0.40984 0.0
C2214 C 0.20823 0.25634 0.40278 0.0
C2215 C 0.19766 0.27489 0.37832 0.0
C2216 C 0.19508 0.27573 0.36101 0.0
C2217 C 0.20617 0.25763 0.3855 0.0
C2218 C 0.20128 0.25927 0.35092 0.0
C2219 C 0.21017 0.24234 0.35795 0.0
H2220 H 0.67621 0.58096 0.7141 0.0
H2221 H 0.7018 0.5206 0.71496 0.0
H2222 H 0.74553 0.55222 0.70088 0.0
H2223 H 0.77891 0.59937 0.69181 0.0
H2224 H 0.75226 0.65904 0.69108 0.0
H2225 H 0.70645 0.6254 0.70149 0.0
C2226 C 0.69128 0.57469 0.71102 0.0
C2227 C 0.68618 0.54881 0.71578 0.0
C2228 C 0.7162 0.59291 0.70302 0.0
C2229 C 0.70548 0.54058 0.71148 0.0
C2230 C 0.73048 0.55867 0.70351 0.0
C2231 C 0.76273 0.60465 0.69346 0.0
C2232 C 0.76874 0.63152 0.69061 0.0
C2233 C 0.73644 0.58521 0.69968 0.0
C2234 C 0.7479 0.63838 0.69313 0.0
C2235 C 0.7218 0.61923 0.69915 0.0
H2236 H 0.43677 0.10297 0.71809 0.0
H2237 H 0.50442 0.18567 0.7149 0.0
H2238 H 0.47261 0.20018 0.7039 0.0
H2239 H 0.42486 0.18978 0.69673 0.0
H2240 H 0.35758 0.1069 0.69835 0.0
H2241 H 0.38968 0.09191 0.7084 0.0
C2242 C 0.44445 0.12413 0.71495 0.0
C2243 C 0.47282 0.1433 0.71747 0.0
C2244 C 0.4261 0.13224 0.70832 0.0
C2245 C 0.48266 0.17059 0.71311 0.0
C2246 C 0.46448 0.1789 0.70686 0.0
C2247 C 0.41749 0.16837 0.69891 0.0
C2248 C 0.38921 0.1493 0.69633 0.0
C2249 C 0.43611 0.15998 0.70458 0.0
C2250 C 0.37952 0.12174 0.69974 0.0
C2251 C 0.3978 0.11325 0.70564 0.0
H2252 H 0.87211 0.32899 0.72336 0.0
H2253 H 0.92501 0.37007 0.68158 0.0
H2254 H 0.91143 0.32606 0.66845 0.0
H2255 H 0.88656 0.27547 0.66998 0.0
H2256 H 0.83426 0.23586 0.71238 0.0
H2257 H 0.84543 0.27963 0.72408 0.0
C2258 C 0.88075 0.32829 0.7114 0.0
C2259 C 0.89985 0.35257 0.70357 0.0
C2260 C 0.87292 0.30315 0.70404 0.0
C2261 C 0.91035 0.35151 0.68787 0.0
C2262 C 0.90263 0.32639 0.6804 0.0
C2263 C 0.87738 0.27655 0.68163 0.0
C2264 C 0.85995 0.25256 0.69041 0.0
C2265 C 0.88418 0.30201 0.68848 0.0
C2266 C 0.84813 0.25411 0.70552 0.0
C2267 C 0.85446 0.27911 0.71224 0.0
H2268 H 0.23722 0.99939 0.63236 0.0
H2269 H 0.16882 0.00698 0.65187 0.0
H2270 H 0.20171 0.04997 0.66525 0.0
H2271 H 0.24988 0.08644 0.67023 0.0
H2272 H 0.31822 0.07865 0.65066 0.0
H2273 H 0.28535 0.0349 0.63836 0.0
C2274 C 0.22951 0.01053 0.63947 0.0
C2275 C 0.2006 1.00005 0.64102 0.0
C2276 C 0.24852 0.03524 0.6471 0.0
C2277 C 0.19096 0.01449 0.65055 0.0
C2278 C 0.20975 0.03913 0.65815 0.0
C2279 C 0.25764 0.07501 0.66353 0.0
C2280 C 0.28655 0.0859 0.66147 0.0
C2281 C 0.23859 0.04981 0.6564 0.0
C2282 C 0.29612 0.07087 0.65247 0.0
C2283 C 0.27732 0.04581 0.64539 0.0
H2284 H 1.00266 0.23712 0.63539 0.0
H2285 H 0.98699 0.1549 0.63977 0.0
H2286 H 0.94116 0.14056 0.65176 0.0
H2287 H 0.90408 0.15066 0.65931 0.0
H2288 H 0.91951 0.23272 0.65554 0.0
H2289 H 0.96677 0.24799 0.64526 0.0
C2290 C 0.98914 0.2161 0.63897 0.0
C2291 C 0.99811 0.19704 0.63651 0.0
C2292 C 0.96285 0.20802 0.64613 0.0
C2293 C 0.98056 0.16993 0.64148 0.0
C2294 C 0.95434 0.16171 0.64835 0.0
C2295 C 0.91817 0.17201 0.65668 0.0
C2296 C 0.9088 0.19075 0.65872 0.0
C2297 C 0.94514 0.18049 0.65059 0.0
C2298 C 0.92673 0.21816 0.65465 0.0
C2299 C 0.95359 0.22679 0.64856 0.0
H2300 H 0.76915 0.75913 0.62301 0.0
H2301 H 0.84646 0.8311 0.63581 0.0
H2302 H 0.86094 0.80348 0.65179 0.0
H2303 H 0.85216 0.75833 0.66125 0.0
H2304 H 0.77482 0.68685 0.64748 0.0
H2305 H 0.75998 0.7148 0.63278 0.0
C2306 C 0.78931 0.76876 0.62913 0.0
C2307 C 0.80679 0.79704 0.62808 0.0
C2308 C 0.79751 0.75283 0.63819 0.0
C2309 C 0.83257 0.80931 0.63646 0.0
C2310 C 0.84089 0.79354 0.64557 0.0
C2311 C 0.83197 0.74896 0.65516 0.0
C2312 C 0.81476 0.72051 0.65538 0.0
C2313 C 0.82357 0.76521 0.64646 0.0
C2314 C 0.78867 0.70865 0.64739 0.0
C2315 C 0.78009 0.72462 0.63895 0.0
H2316 H 0.98232 0.79324 0.63526 0.0
H2317 H 0.01314 0.73878 0.62342 0.0
H2318 H 0.97306 0.70142 0.63723 0.0
H2319 H 0.92762 0.68337 0.65078 0.0
H2320 H 0.89441 0.73646 0.66053 0.0
H2321 H 0.93716 0.77528 0.64991 0.0
C2322 C 0.98036 0.77325 0.63591 0.0
C2323 C 1.00054 0.76869 0.62824 0.0
C2324 C 0.95686 0.75166 0.64358 0.0
C2325 C 0.99769 0.74267 0.62905 0.0
C2326 C 0.97484 0.72134 0.63699 0.0
C2327 C 0.92996 0.70355 0.6508 0.0
C2328 C 0.90817 0.70715 0.65677 0.0
C2329 C 0.95406 0.72547 0.64401 0.0
C2330 C 0.91118 0.73327 0.65643 0.0
C2331 C 0.93552 0.75542 0.65017 0.0
H2332 H 0.25763 0.23888 0.62875 0.0
H2333 H 0.18605 0.15813 0.62808 0.0
H2334 H 0.21345 0.14001 0.64105 0.0
H2335 H 0.25878 0.14662 0.6508 0.0
H2336 H 0.32989 0.22745 0.65283 0.0
H2337 H 0.30186 0.24614 0.64127 0.0
C2338 C 0.24809 0.21735 0.63152 0.0
C2339 C 0.21994 0.1998 0.62729 0.0
C2340 C 0.26391 0.20713 0.63926 0.0
C2341 C 0.20768 0.17202 0.63118 0.0
C2342 C 0.22335 0.16164 0.63856 0.0
C2343 C 0.26787 0.16838 0.64902 0.0
C2344 C 0.29612 0.18575 0.65291 0.0
C2345 C 0.25158 0.17892 0.64244 0.0
C2346 C 0.30797 0.21384 0.65028 0.0
C2347 C 0.29201 0.22446 0.64353 0.0
H2348 H 0.82937 0.01596 0.64727 0.0
H2349 H 0.7471 0.99553 0.63026 0.0
H2350 H 0.75414 0.03897 0.6405 0.0
H2351 H 0.78389 0.08295 0.6538 0.0
H2352 H 0.86534 0.10277 0.67185 0.0
H2353 H 0.85806 0.05895 0.66206 0.0
C2354 C 0.81278 0.02077 0.64604 0.0
C2355 C 0.78786 0.00257 0.63787 0.0
C2356 C 0.81678 0.04562 0.65217 0.0
C2357 C 0.76674 0.00938 0.63619 0.0
C2358 C 0.77065 0.03415 0.64214 0.0
C2359 C 0.80005 0.07776 0.65557 0.0
C2360 C 0.82511 0.09614 0.66347 0.0
C2361 C 0.79569 0.05252 0.64999 0.0
C2362 C 0.84573 0.08887 0.6659 0.0
C2363 C 0.84166 0.06388 0.66024 0.0
H2364 H 0.46955 0.34158 0.69533 0.0
H2365 H 0.46099 0.30953 0.74491 0.0
H2366 H 0.42369 0.26531 0.73553 0.0
H2367 H 0.39429 0.23521 0.71304 0.0
H2368 H 0.4034 0.26673 0.66345 0.0
H2369 H 0.43995 0.31158 0.67288 0.0
C2370 C 0.45972 0.32486 0.70405 0.0
C2371 C 0.46809 0.32892 0.7208 0.0
C2372 C 0.43845 0.29937 0.69853 0.0
C2373 C 0.45475 0.30711 0.73199 0.0
C2374 C 0.43349 0.28175 0.72663 0.0
C2375 C 0.40422 0.25207 0.7044 0.0
C2376 C 0.39668 0.24786 0.68758 0.0
C2377 C 0.42521 0.27764 0.70994 0.0
C2378 C 0.40952 0.26953 0.67637 0.0
C2379 C 0.43023 0.29515 0.6818 0.0
H2380 H 0.69743 0.1565 0.72023 0.0
H2381 H 0.66554 0.07053 0.72674 0.0
H2382 H 0.70616 0.07403 0.71244 0.0
H2383 H 0.75227 0.10194 0.69963 0.0
H2384 H 0.78629 0.18851 0.69518 0.0
H2385 H 0.74356 0.18448 0.70687 0.0
C2386 C 0.6993 0.13854 0.71832 0.0
C2387 C 0.67853 0.11328 0.72456 0.0
C2388 C 0.72318 0.14084 0.71044 0.0
C2389 C 0.68134 0.0902 0.72216 0.0
C2390 C 0.70455 0.09219 0.71397 0.0
C2391 C 0.75008 0.11983 0.70102 0.0
C2392 C 0.77203 0.14533 0.69605 0.0
C2393 C 0.72582 0.11745 0.70828 0.0
C2394 C 0.76933 0.1685 0.69839 0.0
C2395 C 0.74498 0.16623 0.70524 0.0
H2396 H 0.86829 0.53561 0.71486 0.0
H2397 H 0.9397 0.6037 0.73758 0.0
H2398 H 0.92708 0.63507 0.72468 0.0
H2399 H 0.89603 0.64308 0.70694 0.0
H2400 H 0.82445 0.57499 0.68423 0.0
H2401 H 0.83727 0.54369 0.69691 0.0
C2402 C 0.88126 0.55734 0.71684 0.0
C2403 C 0.90492 0.56733 0.72713 0.0
C2404 C 0.87396 0.57523 0.70934 0.0
C2405 C 0.92122 0.59549 0.72984 0.0
C2406 C 0.91411 0.61344 0.72241 0.0
C2407 C 0.88319 0.62141 0.70472 0.0
C2408 C 0.85945 0.61147 0.6945 0.0
C2409 C 0.89052 0.60351 0.71215 0.0
C2410 C 0.84305 0.58328 0.69184 0.0
C2411 C 0.85028 0.56533 0.69916 0.0
H2412 H 0.50953 0.96728 0.18266 0.0
H2413 H 0.42313 0.91998 0.16802 0.0
H2414 H 0.43491 0.93949 0.14021 0.0
H2415 H 0.46966 0.97156 0.1201 0.0
H2416 H 0.55609 0.01743 0.13481 0.0
H2417 H 0.5444 0.99654 0.16221 0.0
C2418 C 0.49324 0.96081 0.17336 0.0
C2419 C 0.46537 0.94223 0.17768 0.0
C2420 C 0.50018 0.97194 0.15726 0.0
C2421 C 0.44469 0.93461 0.16533 0.0
C2422 C 0.45144 0.94564 0.1493 0.0
C2423 C 0.48598 0.97667 0.12922 0.0
C2424 C 0.51371 0.99638 0.12536 0.0
C2425 C 0.4791 0.96456 0.14513 0.0
C2426 C 0.53451 0.00277 0.13745 0.0
C2427 C 0.52786 0.99076 0.15317 0.0
H2428 H 0.06557 0.55959 0.16372 0.0
H2429 H 0.00984 0.48124 0.18517 0.0
H2430 H 0.98397 0.46629 0.15899 0.0
H2431 H 0.97618 0.47614 0.13026 0.0
H2432 H 0.03235 0.55442 0.10885 0.0
H2433 H 0.05903 0.56875 0.13472 0.0
C2434 C 0.04774 0.53925 0.16266 0.0
C2435 C 0.03952 0.52162 0.17641 0.0
C2436 C 0.033 0.53081 0.14758 0.0
C2437 C 0.01669 0.49515 0.17475 0.0
C2438 C 1.00179 0.48665 0.15982 0.0
C2439 C 0.99424 0.49635 0.1313 0.0
C2440 C 1.00218 0.51424 0.11768 0.0
C2441 C 0.00958 0.50441 0.1462 0.0
C2442 C 0.02589 0.54021 0.11911 0.0
C2443 C 0.04109 0.54846 0.13392 0.0
H2444 H 0.45045 0.50525 0.16896 0.0
H2445 H 0.52978 0.52611 0.19094 0.0
H2446 H 0.54493 0.51542 0.165 0.0
H2447 H 0.53688 0.50261 0.1358 0.0
H2448 H 0.4577 0.48098 0.11323 0.0
H2449 H 0.44155 0.4901 0.13946 0.0
C2450 C 0.47085 0.50703 0.16807 0.0
C2451 C 0.48901 0.51654 0.18183 0.0
C2452 C 0.47966 0.50118 0.15294 0.0
C2453 C 0.51552 0.51902 0.18049 0.0
C2454 C 0.52422 0.51296 0.16566 0.0
C2455 C 0.5159 0.49943 0.13661 0.0
C2456 C 0.49859 0.49102 0.12246 0.0
C2457 C 0.50666 0.50441 0.15174 0.0
C2458 C 0.47169 0.48775 0.12379 0.0
C2459 C 0.46233 0.49275 0.13886 0.0
H2460 H 0.99862 0.44987 0.83641 0.0
H2461 H 0.94361 0.48122 0.84771 0.0
H2462 H 0.96257 0.49253 0.87579 0.0
H2463 H 0.99646 0.49574 0.89664 0.0
H2464 H 0.04986 0.46237 0.88576 0.0
H2465 H 0.02968 0.44954 0.85804 0.0
C2466 C 0.99037 0.45869 0.84508 0.0
C2467 C 0.96988 0.46489 0.83984 0.0
C2468 C 1.00122 0.465 0.86127 0.0
C2469 C 0.95976 0.4767 0.85126 0.0
C2470 C 0.97049 0.48306 0.86737 0.0
C2471 C 1.00336 0.48522 0.88834 0.0
C2472 C 0.02489 0.48032 0.89329 0.0
C2473 C 0.9915 0.47765 0.87244 0.0
C2474 C 0.03376 0.46695 0.88221 0.0
C2475 C 0.02211 0.45944 0.86637 0.0
H2476 H 0.5162 0.45056 0.84938 0.0
H2477 H 0.54169 0.52894 0.82749 0.0
H2478 H 0.5313 0.54443 0.85346 0.0
H2479 H 0.51292 0.53497 0.88201 0.0
H2480 H 0.48651 0.45614 0.90354 0.0
H2481 H 0.49927 0.44159 0.8781 0.0
C2482 C 0.51942 0.47102 0.85027 0.0
C2483 C 0.52952 0.48848 0.83645 0.0
C2484 C 0.51314 0.47969 0.86517 0.0
C2485 C 0.53413 0.51513 0.83795 0.0
C2486 C 0.528 0.52394 0.85276 0.0
C2487 C 0.50987 0.51458 0.88111 0.0
C2488 C 0.49865 0.49665 0.89466 0.0
C2489 C 0.51714 0.50627 0.86638 0.0
C2490 C 0.49531 0.47045 0.89338 0.0
C2491 C 0.50247 0.46205 0.87879 0.0
H2492 H 0.47418 0.02529 0.84142 0.0
H2493 H 0.56269 0.0697 0.85111 0.0
H2494 H 0.55479 0.04955 0.87878 0.0
H2495 H 0.5226 0.01798 0.90017 0.0
H2496 H 0.43423 0.97445 0.89015 0.0
H2497 H 0.44221 0.99602 0.863 0.0
C2498 C 0.49179 0.03097 0.84962 0.0
C2499 C 0.51903 0.04904 0.84399 0.0
C2500 C 0.48711 0.01944 0.8656 0.0
C2501 C 0.5415 0.05556 0.85486 0.0
C2502 C 0.53699 0.04417 0.8708 0.0
C2503 C 0.50511 0.01355 0.89212 0.0
C2504 C 0.47785 0.99442 0.8972 0.0
C2505 C 0.50987 0.02591 0.8763 0.0
C2506 C 0.45544 0.98879 0.88652 0.0
C2507 C 0.45998 0.00115 0.87096 0.0
H2508 H 0.18697 0.31206 0.51386 0.0
H2509 H 0.10008 0.26405 0.50047 0.0
H2510 H 0.11061 0.28277 0.47244 0.0
H2511 H 0.14436 0.31442 0.45173 0.0
H2512 H 0.2312 0.36175 0.46526 0.0
H2513 H 0.22087 0.34141 0.49285 0.0
C2514 C 0.17032 0.30534 0.50479 0.0
C2515 C 0.14266 0.28675 0.50954 0.0
C2516 C 0.17652 0.31616 0.48855 0.0
C2517 C 0.12149 0.27871 0.49746 0.0
C2518 C 0.12752 0.28929 0.4813 0.0
C2519 C 0.16106 0.31997 0.46063 0.0
C2520 C 0.18852 0.33986 0.45635 0.0
C2521 C 0.15494 0.30828 0.4767 0.0
C2522 C 0.20981 0.34687 0.4682 0.0
C2523 C 0.20394 0.33518 0.48403 0.0
H2524 H 0.70993 0.83894 0.50742 0.0
H2525 H 0.65146 0.85983 0.52867 0.0
H2526 H 0.62517 0.84787 0.50276 0.0
H2527 H 0.6205 0.83447 0.47362 0.0
H2528 H 0.67785 0.81216 0.45225 0.0
H2529 H 0.70291 0.82182 0.47862 0.0
C2530 C 0.69118 0.84043 0.50644 0.0
C2531 C 0.68288 0.85059 0.51988 0.0
C2532 C 0.67613 0.83357 0.49144 0.0
C2533 C 0.65861 0.85256 0.5184 0.0
C2534 C 0.6435 0.84565 0.50361 0.0
C2535 C 0.63814 0.83119 0.47477 0.0
C2536 C 0.64733 0.82277 0.4609 0.0
C2537 C 0.65234 0.8366 0.48997 0.0
C2538 C 0.67058 0.81911 0.46262 0.0
C2539 C 0.68484 0.82447 0.47774 0.0
H2540 H 0.15647 0.83662 0.51509 0.0
H2541 H 0.16394 0.91304 0.50027 0.0
H2542 H 0.17683 0.90711 0.47219 0.0
H2543 H 0.18838 0.88128 0.45215 0.0
H2544 H 0.18264 0.80575 0.46735 0.0
H2545 H 0.16653 0.81009 0.49482 0.0
C2546 C 0.16057 0.85178 0.50565 0.0
C2547 C 0.15932 0.87526 0.50979 0.0
C2548 C 0.16842 0.84844 0.48957 0.0
C2549 C 0.16503 0.8949 0.49745 0.0
C2550 C 0.17234 0.8915 0.48137 0.0
C2551 C 0.18324 0.86563 0.46142 0.0
C2552 C 0.18677 0.84327 0.45772 0.0
C2553 C 0.17446 0.86852 0.47733 0.0
C2554 C 0.18034 0.82329 0.46994 0.0
C2555 C 0.17109 0.82573 0.48565 0.0
H2556 H 0.62641 0.77813 0.18798 0.0
H2557 H 0.68334 0.85594 0.16631 0.0
H2558 H 0.70711 0.87199 0.19299 0.0
H2559 H 0.7117 0.86391 0.22248 0.0
H2560 H 0.65441 0.7864 0.24434 0.0
H2561 H 0.63072 0.77021 0.21762 0.0
C2562 C 0.64414 0.79853 0.18911 0.0
C2563 C 0.65318 0.81581 0.17521 0.0
C2564 C 0.65756 0.80768 0.20451 0.0
C2565 C 0.67589 0.84234 0.17687 0.0
C2566 C 0.68954 0.85149 0.1921 0.0
C2567 C 0.69414 0.84342 0.22134 0.0
C2568 C 0.68487 0.82634 0.23532 0.0
C2569 C 0.68056 0.83434 0.20599 0.0
C2570 C 0.6618 0.79999 0.23377 0.0
C2571 C 0.64833 0.79069 0.21849 0.0
H2572 H 0.13834 0.78464 0.17591 0.0
H2573 H 0.2263 0.82689 0.18728 0.0
H2574 H 0.21666 0.83871 0.21476 0.0
H2575 H 0.18301 0.83707 0.23562 0.0
H2576 H 0.09509 0.79336 0.22407 0.0
H2577 H 0.10499 0.7818 0.19675 0.0
C2578 C 0.15545 0.79612 0.18444 0.0
C2579 C 0.18302 0.80472 0.17947 0.0
C2580 C 0.14975 0.80259 0.20026 0.0
C2581 C 0.20489 0.8202 0.19064 0.0
C2582 C 0.19938 0.82682 0.20642 0.0
C2583 C 0.16602 0.82478 0.22718 0.0
C2584 C 0.13833 0.81629 0.2319 0.0
C2585 C 0.17186 0.8181 0.21139 0.0
C2586 C 0.11661 0.80059 0.22071 0.0
C2587 C 0.12223 0.79384 0.20508 0.0
H2588 H 0.14071 0.34806 0.17257 0.0
H2589 H 0.22878 0.3991 0.18192 0.0
H2590 H 0.2228 0.37999 0.20983 0.0
H2591 H 0.19236 0.34794 0.23166 0.0
H2592 H 0.10434 0.29773 0.22184 0.0
H2593 H 0.11045 0.31779 0.19433 0.0
C2594 C 0.15862 0.35538 0.18074 0.0
C2595 C 0.18518 0.37513 0.17501 0.0
C2596 C 0.15501 0.34445 0.19683 0.0
C2597 C 0.20813 0.38372 0.1858 0.0
C2598 C 0.20469 0.37292 0.20186 0.0
C2599 C 0.17451 0.34168 0.22356 0.0
C2600 C 0.14794 0.3212 0.22882 0.0
C2601 C 0.17821 0.35319 0.20754 0.0
C2602 C 0.12507 0.31318 0.21807 0.0
C2603 C 0.12853 0.32467 0.20231 0.0
H2604 H 0.82331 0.60134 0.8337 0.0
H2605 H 0.81321 0.66499 0.85609 0.0
H2606 H 0.82825 0.69124 0.83042 0.0
H2607 H 0.84379 0.6962 0.80151 0.0
H2608 H 0.85297 0.63254 0.77834 0.0
H2609 H 0.8384 0.60615 0.80414 0.0
C2610 C 0.8246 0.62104 0.83293 0.0
C2611 C 0.81717 0.6312 0.84684 0.0
C2612 C 0.83286 0.63595 0.81791 0.0
C2613 C 0.81866 0.65663 0.84558 0.0
C2614 C 0.82727 0.67168 0.83089 0.0
C2615 C 0.84276 0.67661 0.80209 0.0
C2616 C 0.84966 0.66652 0.78795 0.0
C2617 C 0.83432 0.66154 0.81695 0.0
C2618 C 0.84762 0.64079 0.78894 0.0
C2619 C 0.83945 0.62575 0.80375 0.0
H2620 H 0.38324 0.22614 0.83478 0.0
H2621 H 0.32687 0.14638 0.85427 0.0
H2622 H 0.30237 0.13287 0.82767 0.0
H2623 H 0.29683 0.14369 0.79883 0.0
H2624 H 0.35358 0.22317 0.77913 0.0
H2625 H 0.37803 0.23679 0.80578 0.0
C2626 C 0.36548 0.20587 0.83322 0.0
C2627 C 0.35688 0.18732 0.84651 0.0
C2628 C 0.35158 0.19816 0.81783 0.0
C2629 C 0.33408 0.16097 0.84421 0.0
C2630 C 0.31998 0.15327 0.82902 0.0
C2631 C 0.31444 0.16405 0.80041 0.0
C2632 C 0.3233 0.18241 0.78702 0.0
C2633 C 0.32851 0.17168 0.81574 0.0
C2634 C 0.34645 0.20857 0.7892 0.0
C2635 C 0.36037 0.21642 0.80445 0.0
H2636 H 0.83382 0.22383 0.8384 0.0
H2637 H 0.81871 0.14766 0.85935 0.0
H2638 H 0.83097 0.13513 0.83294 0.0
H2639 H 0.84714 0.14624 0.80405 0.0
H2640 H 0.86182 0.22215 0.78293 0.0
H2641 H 0.84852 0.23428 0.80916 0.0
C2642 C 0.83329 0.20453 0.83718 0.0
C2643 C 0.82544 0.18676 0.85087 0.0
C2644 C 0.84029 0.19739 0.82191 0.0
C2645 C 0.82444 0.16162 0.849 0.0
C2646 C 0.8316 0.1545 0.83392 0.0
C2647 C 0.8475 0.16548 0.80521 0.0
C2648 C 0.85561 0.18332 0.79156 0.0
C2649 C 0.83973 0.17228 0.82032 0.0
C2650 C 0.85549 0.20796 0.79319 0.0
C2651 C 0.84802 0.21497 0.80822 0.0
H2652 H 0.31427 0.16614 0.51496 0.0
H2653 H 0.36865 0.13909 0.49488 0.0
H2654 H 0.39268 0.14758 0.52149 0.0
H2655 H 0.39641 0.15997 0.55086 0.0
H2656 H 0.34297 0.18812 0.57101 0.0
H2657 H 0.32041 0.18186 0.544 0.0
C2658 C 0.33168 0.16254 0.51635 0.0
C2659 C 0.33945 0.15172 0.503 0.0
C2660 C 0.3454 0.1674 0.53174 0.0
C2661 C 0.36191 0.14695 0.50504 0.0
C2662 C 0.37574 0.15188 0.52024 0.0
C2663 C 0.38018 0.16522 0.5493 0.0
C2664 C 0.37132 0.17432 0.56301 0.0
C2665 C 0.36737 0.16168 0.53374 0.0
C2666 C 0.34991 0.18061 0.56076 0.0
C2667 C 0.33709 0.17718 0.54529 0.0
H2668 H 0.80864 0.13376 0.50695 0.0
H2669 H 0.89585 0.16606 0.51815 0.0
H2670 H 0.88908 0.18015 0.5456 0.0
H2671 H 0.85847 0.18392 0.56642 0.0
H2672 H 0.77113 0.15081 0.55524 0.0
H2673 H 0.7779 0.13635 0.52796 0.0
C2674 C 0.82614 0.1436 0.51544 0.0
C2675 C 0.85275 0.14884 0.51037 0.0
C2676 C 0.8221 0.15161 0.53127 0.0
C2677 C 0.8752 0.16206 0.52154 0.0
C2678 C 0.87132 0.17 0.53732 0.0
C2679 C 0.84086 0.1733 0.55809 0.0
C2680 C 0.81435 0.16866 0.56292 0.0
C2681 C 0.84488 0.16498 0.54232 0.0
C2682 C 0.79186 0.1551 0.55181 0.0
C2683 C 0.79567 0.14667 0.5362 0.0
H2684 H 0.81328 0.68386 0.50516 0.0
H2685 H 0.90045 0.73635 0.51639 0.0
H2686 H 0.89347 0.71573 0.54394 0.0
H2687 H 0.86226 0.68248 0.56504 0.0
H2688 H 0.77512 0.63086 0.55332 0.0
H2689 H 0.78237 0.65182 0.52602 0.0
C2690 C 0.83077 0.6911 0.51366 0.0
C2691 C 0.85735 0.71181 0.50862 0.0
C2692 C 0.82657 0.67932 0.52952 0.0
C2693 C 0.8798 0.7203 0.51978 0.0
C2694 C 0.87578 0.70863 0.53562 0.0
C2695 C 0.84485 0.67605 0.55655 0.0
C2696 C 0.81818 0.65498 0.56124 0.0
C2697 C 0.84921 0.68813 0.54068 0.0
C2698 C 0.79591 0.64675 0.55 0.0
C2699 C 0.80001 0.65877 0.53437 0.0
loop_
_geom_bond_atom_site_label_1
_geom_bond_atom_site_label_2
_geom_bond_distance
_geom_bond_site_symmetry_2
_ccdc_geom_bond_type
C0 C1 1.391 . S
C0 C4 1.391 . S
C0 H42 0.948 . S
C1 C0 1.391 . S
C1 C2 1.391 . S
C2 C1 1.391 . S
C2 H58 0.947 . S
C2 C59 1.392 . S
C3 C4 1.391 . S
C3 C7 1.397 . S
C3 C59 1.419 . S
C4 C0 1.391 . S
C4 C3 1.391 . S
C4 C5 1.399 . S
C5 C4 1.399 . S
C5 C8 1.396 . S
C5 C17 1.453 . S
C5 C18 1.684 . S
H6 C30 0.948 . S
C7 C3 1.397 . S
C7 C8 1.394 . S
C7 C26 1.723 . S
C8 C5 1.396 . S
C8 C7 1.394 . S
C8 C38 1.723 . S
H9 C32 0.947 . S
H10 C33 0.948 . S
H11 C39 0.982 . S
H12 C40 0.979 . S
H13 C40 0.980 . S
H14 C40 0.983 . S
H15 C39 0.979 . S
H16 C39 0.977 . S
C17 C5 1.453 . S
C17 H46 0.982 . S
C17 H47 0.979 . S
C17 H48 0.977 . S
C18 C5 1.684 . S
C18 H43 0.979 . S
C18 H44 0.980 . S
C18 H45 0.983 . S
C19 C20 1.391 . S
C19 C24 1.391 . S
C19 H49 0.948 . S
C20 C19 1.391 . S
C20 C21 1.391 . S
C21 C20 1.391 . S
C21 C22 1.392 . S
C21 H50 0.947 . S
C22 C21 1.392 . S
C22 C23 1.419 . S
C22 H51 0.948 . S
C23 C22 1.419 . S
C23 C24 1.391 . S
C23 C27 1.397 . S
C24 C19 1.391 . S
C24 C23 1.391 . S
C24 C25 1.399 . S
C25 C24 1.399 . S
C25 C26 1.396 . S
C25 C28 1.453 . S
C25 C29 1.684 . S
C26 C7 1.723 . S
C26 C25 1.396 . S
C26 C27 1.394 . S
C27 C23 1.397 . S
C27 C26 1.394 . S
C27 C37 1.723 . S
C28 C25 1.453 . S
C28 H52 0.982 . S
C28 H53 0.979 . S
C28 H54 0.977 . S
C29 C25 1.684 . S
C29 H55 0.979 . S
C29 H56 0.980 . S
C29 H57 0.983 . S
C30 H6 0.948 . S
C30 C31 1.391 . S
C30 C35 1.391 . S
C31 C30 1.391 . S
C31 C32 1.391 . S
C32 H9 0.947 . S
C32 C31 1.391 . S
C32 C33 1.392 . S
C33 H10 0.948 . S
C33 C32 1.392 . S
C33 C34 1.419 . S
C34 C33 1.419 . S
C34 C35 1.391 . S
C34 C38 1.397 . S
C35 C30 1.391 . S
C35 C34 1.391 . S
C35 C36 1.399 . S
C36 C35 1.399 . S
C36 C37 1.396 . S
C36 C39 1.453 . S
C36 C40 1.684 . S
C37 C27 1.723 . S
C37 C36 1.396 . S
C37 C38 1.394 . S
C38 C8 1.723 . S
C38 C34 1.397 . S
C38 C37 1.394 . S
C39 H11 0.982 . S
C39 H15 0.979 . S
C39 H16 0.977 . S
C39 C36 1.453 . S
C40 H12 0.979 . S
C40 H13 0.980 . S
C40 H14 0.983 . S
C40 C36 1.684 . S
H41 C59 0.948 . S
H42 C0 0.948 . S
H43 C18 0.979 . S
H44 C18 0.980 . S
H45 C18 0.983 . S
H46 C17 0.982 . S
H47 C17 0.979 . S
H48 C17 0.977 . S
H49 C19 0.948 . S
H50 C21 0.947 . S
H51 C22 0.948 . S
H52 C28 0.982 . S
H53 C28 0.979 . S
H54 C28 0.977 . S
H55 C29 0.979 . S
H56 C29 0.980 . S
H57 C29 0.983 . S
H58 C2 0.947 . S
C59 C2 1.392 . S
C59 C3 1.419 . S
C59 H41 0.948 . S
C60 C61 1.391 . S
C60 C64 1.391 . S
C60 H102 0.948 . S
C61 C60 1.391 . S
C61 C62 1.391 . S
C62 C61 1.391 . S
C62 H118 0.947 . S
C62 C119 1.392 . S
C63 C64 1.391 . S
C63 C67 1.397 . S
C63 C119 1.419 . S
C64 C60 1.391 . S
C64 C63 1.391 . S
C64 C65 1.399 . S
C65 C64 1.399 . S
C65 C68 1.396 . S
C65 C77 1.453 . S
C65 C78 1.684 . S
H66 C90 0.948 . S
C67 C63 1.397 . S
C67 C68 1.394 . S
C67 C86 1.723 . S
C68 C65 1.396 . S
C68 C67 1.394 . S
C68 C98 1.723 . S
H69 C92 0.947 . S
H70 C93 0.948 . S
H71 C99 0.982 . S
H72 C100 0.979 . S
H73 C100 0.980 . S
H74 C100 0.983 . S
H75 C99 0.979 . S
H76 C99 0.977 . S
C77 C65 1.453 . S
C77 H106 0.982 . S
C77 H107 0.979 . S
C77 H108 0.977 . S
C78 C65 1.684 . S
C78 H103 0.979 . S
C78 H104 0.980 . S
C78 H105 0.983 . S
C79 C80 1.391 . S
C79 C84 1.391 . S
C79 H109 0.948 . S
C80 C79 1.391 . S
C80 C81 1.391 . S
C81 C80 1.391 . S
C81 C82 1.392 . S
C81 H110 0.947 . S
C82 C81 1.392 . S
C82 C83 1.419 . S
C82 H111 0.948 . S
C83 C82 1.419 . S
C83 C84 1.391 . S
C83 C87 1.397 . S
C84 C79 1.391 . S
C84 C83 1.391 . S
C84 C85 1.399 . S
C85 C84 1.399 . S
C85 C86 1.396 . S
C85 C88 1.453 . S
C85 C89 1.684 . S
C86 C67 1.723 . S
C86 C85 1.396 . S
C86 C87 1.394 . S
C87 C83 1.397 . S
C87 C86 1.394 . S
C87 C97 1.723 . S
C88 C85 1.453 . S
C88 H112 0.982 . S
C88 H113 0.979 . S
C88 H114 0.977 . S
C89 C85 1.684 . S
C89 H115 0.979 . S
C89 H116 0.980 . S
C89 H117 0.983 . S
C90 H66 0.948 . S
C90 C91 1.391 . S
C90 C95 1.391 . S
C91 C90 1.391 . S
C91 C92 1.391 . S
C92 H69 0.947 . S
C92 C91 1.391 . S
C92 C93 1.392 . S
C93 H70 0.948 . S
C93 C92 1.392 . S
C93 C94 1.419 . S
C94 C93 1.419 . S
C94 C95 1.391 . S
C94 C98 1.397 . S
C95 C90 1.391 . S
C95 C94 1.391 . S
C95 C96 1.399 . S
C96 C95 1.399 . S
C96 C97 1.396 . S
C96 C99 1.453 . S
C96 C100 1.684 . S
C97 C87 1.723 . S
C97 C96 1.396 . S
C97 C98 1.394 . S
C98 C68 1.723 . S
C98 C94 1.397 . S
C98 C97 1.394 . S
C99 H71 0.982 . S
C99 H75 0.979 . S
C99 H76 0.977 . S
C99 C96 1.453 . S
C100 H72 0.979 . S
C100 H73 0.980 . S
C100 H74 0.983 . S
C100 C96 1.684 . S
H101 C119 0.948 . S
H102 C60 0.948 . S
H103 C78 0.979 . S
H104 C78 0.980 . S
H105 C78 0.983 . S
H106 C77 0.982 . S
H107 C77 0.979 . S
H108 C77 0.977 . S
H109 C79 0.948 . S
H110 C81 0.947 . S
H111 C82 0.948 . S
H112 C88 0.982 . S
H113 C88 0.979 . S
H114 C88 0.977 . S
H115 C89 0.979 . S
H116 C89 0.980 . S
H117 C89 0.983 . S
H118 C62 0.947 . S
C119 C62 1.392 . S
C119 C63 1.419 . S
C119 H101 0.948 . S
C120 C121 1.391 . S
C120 C124 1.391 . S
C120 H162 0.948 . S
C121 C120 1.391 . S
C121 C122 1.391 . S
C122 C121 1.391 . S
C122 H178 0.947 . S
C122 C179 1.392 . S
C123 C124 1.391 . S
C123 C127 1.397 . S
C123 C179 1.419 . S
C124 C120 1.391 . S
C124 C123 1.391 . S
C124 C125 1.399 . S
C125 C124 1.399 . S
C125 C128 1.396 . S
C125 C137 1.453 . S
C125 C138 1.684 . S
H126 C150 0.948 . S
C127 C123 1.397 . S
C127 C128 1.394 . S
C127 C146 1.723 . S
C128 C125 1.396 . S
C128 C127 1.394 . S
C128 C158 1.723 . S
H129 C152 0.947 . S
H130 C153 0.948 . S
H131 C159 0.982 . S
H132 C160 0.979 . S
H133 C160 0.980 . S
H134 C160 0.983 . S
H135 C159 0.979 . S
H136 C159 0.977 . S
C137 C125 1.453 . S
C137 H166 0.982 . S
C137 H167 0.979 . S
C137 H168 0.977 . S
C138 C125 1.684 . S
C138 H163 0.979 . S
C138 H164 0.980 . S
C138 H165 0.983 . S
C139 C140 1.391 . S
C139 C144 1.391 . S
C139 H169 0.948 . S
C140 C139 1.391 . S
C140 C141 1.391 . S
C141 C140 1.391 . S
C141 C142 1.392 . S
C141 H170 0.947 . S
C142 C141 1.392 . S
C142 C143 1.419 . S
C142 H171 0.948 . S
C143 C142 1.419 . S
C143 C144 1.391 . S
C143 C147 1.397 . S
C144 C139 1.391 . S
C144 C143 1.391 . S
C144 C145 1.399 . S
C145 C144 1.399 . S
C145 C146 1.396 . S
C145 C148 1.453 . S
C145 C149 1.684 . S
C146 C127 1.723 . S
C146 C145 1.396 . S
C146 C147 1.394 . S
C147 C143 1.397 . S
C147 C146 1.394 . S
C147 C157 1.723 . S
C148 C145 1.453 . S
C148 H172 0.982 . S
C148 H173 0.979 . S
C148 H174 0.977 . S
C149 C145 1.684 . S
C149 H175 0.979 . S
C149 H176 0.980 . S
C149 H177 0.983 . S
C150 H126 0.948 . S
C150 C151 1.391 . S
C150 C155 1.391 . S
C151 C150 1.391 . S
C151 C152 1.391 . S
C152 H129 0.947 . S
C152 C151 1.391 . S
C152 C153 1.392 . S
C153 H130 0.948 . S
C153 C152 1.392 . S
C153 C154 1.419 . S
C154 C153 1.419 . S
C154 C155 1.391 . S
C154 C158 1.397 . S
C155 C150 1.391 . S
C155 C154 1.391 . S
C155 C156 1.399 . S
C156 C155 1.399 . S
C156 C157 1.396 . S
C156 C159 1.453 . S
C156 C160 1.684 . S
C157 C147 1.723 . S
C157 C156 1.396 . S
C157 C158 1.394 . S
C158 C128 1.723 . S
C158 C154 1.397 . S
C158 C157 1.394 . S
C159 H131 0.982 . S
C159 H135 0.979 . S
C159 H136 0.977 . S
C159 C156 1.453 . S
C160 H132 0.979 . S
C160 H133 0.980 . S
C160 H134 0.983 . S
C160 C156 1.684 . S
H161 C179 0.948 . S
H162 C120 0.948 . S
H163 C138 0.979 . S
H164 C138 0.980 . S
H165 C138 0.983 . S
H166 C137 0.982 . S
H167 C137 0.979 . S
H168 C137 0.977 . S
H169 C139 0.948 . S
H170 C141 0.947 . S
H171 C142 0.948 . S
H172 C148 0.982 . S
H173 C148 0.979 . S
H174 C148 0.977 . S
H175 C149 0.979 . S
H176 C149 0.980 . S
H177 C149 0.983 . S
H178 C122 0.947 . S
C179 C122 1.392 . S
C179 C123 1.419 . S
C179 H161 0.948 . S
C180 C181 1.391 . S
C180 C184 1.391 . S
C180 H222 0.948 . S
C181 C180 1.391 . S
C181 C182 1.391 . S
C182 C181 1.391 . S
C182 H238 0.947 . S
C182 C239 1.392 . S
C183 C184 1.391 . S
C183 C187 1.397 . S
C183 C239 1.419 . S
C184 C180 1.391 . S
C184 C183 1.391 . S
C184 C185 1.399 . S
C185 C184 1.399 . S
C185 C188 1.396 . S
C185 C197 1.453 . S
C185 C198 1.684 . S
H186 C210 0.948 . S
C187 C183 1.397 . S
C187 C188 1.394 . S
C187 C206 1.723 . S
C188 C185 1.396 . S
C188 C187 1.394 . S
C188 C218 1.723 . S
H189 C212 0.947 . S
H190 C213 0.948 . S
H191 C219 0.982 . S
H192 C220 0.979 . S
H193 C220 0.980 . S
H194 C220 0.983 . S
H195 C219 0.979 . S
H196 C219 0.977 . S
C197 C185 1.453 . S
C197 H226 0.982 . S
C197 H227 0.979 . S
C197 H228 0.977 . S
C198 C185 1.684 . S
C198 H223 0.979 . S
C198 H224 0.980 . S
C198 H225 0.983 . S
C199 C200 1.391 . S
C199 C204 1.391 . S
C199 H229 0.948 . S
C200 C199 1.391 . S
C200 C201 1.391 . S
C201 C200 1.391 . S
C201 C202 1.392 . S
C201 H230 0.947 . S
C202 C201 1.392 . S
C202 C203 1.419 . S
C202 H231 0.948 . S
C203 C202 1.419 . S
C203 C204 1.391 . S
C203 C207 1.397 . S
C204 C199 1.391 . S
C204 C203 1.391 . S
C204 C205 1.399 . S
C205 C204 1.399 . S
C205 C206 1.396 . S
C205 C208 1.453 . S
C205 C209 1.684 . S
C206 C187 1.723 . S
C206 C205 1.396 . S
C206 C207 1.394 . S
C207 C203 1.397 . S
C207 C206 1.394 . S
C207 C217 1.723 . S
C208 C205 1.453 . S
C208 H232 0.982 . S
C208 H233 0.979 . S
C208 H234 0.977 . S
C209 C205 1.684 . S
C209 H235 0.979 . S
C209 H236 0.980 . S
C209 H237 0.983 . S
C210 H186 0.948 . S
C210 C211 1.391 . S
C210 C215 1.391 . S
C211 C210 1.391 . S
C211 C212 1.391 . S
C212 H189 0.947 . S
C212 C211 1.391 . S
C212 C213 1.392 . S
C213 H190 0.948 . S
C213 C212 1.392 . S
C213 C214 1.419 . S
C214 C213 1.419 . S
C214 C215 1.391 . S
C214 C218 1.397 . S
C215 C210 1.391 . S
C215 C214 1.391 . S
C215 C216 1.399 . S
C216 C215 1.399 . S
C216 C217 1.396 . S
C216 C219 1.453 . S
C216 C220 1.684 . S
C217 C207 1.723 . S
C217 C216 1.396 . S
C217 C218 1.394 . S
C218 C188 1.723 . S
C218 C214 1.397 . S
C218 C217 1.394 . S
C219 H191 0.982 . S
C219 H195 0.979 . S
C219 H196 0.977 . S
C219 C216 1.453 . S
C220 H192 0.979 . S
C220 H193 0.980 . S
C220 H194 0.983 . S
C220 C216 1.684 . S
H221 C239 0.948 . S
H222 C180 0.948 . S
H223 C198 0.979 . S
H224 C198 0.980 . S
H225 C198 0.983 . S
H226 C197 0.982 . S
H227 C197 0.979 . S
H228 C197 0.977 . S
H229 C199 0.948 . S
H230 C201 0.947 . S
H231 C202 0.948 . S
H232 C208 0.982 . S
H233 C208 0.979 . S
H234 C208 0.977 . S
H235 C209 0.979 . S
H236 C209 0.980 . S
H237 C209 0.983 . S
H238 C182 0.947 . S
C239 C182 1.392 . S
C239 C183 1.419 . S
C239 H221 0.948 . S
C240 C241 1.391 . S
C240 C244 1.391 . S
C240 H282 0.948 . S
C241 C240 1.391 . S
C241 C242 1.391 . S
C242 C241 1.391 . S
C242 H298 0.947 . S
C242 C299 1.392 . S
C243 C244 1.391 . S
C243 C247 1.397 . S
C243 C299 1.419 . S
C244 C240 1.391 . S
C244 C243 1.391 . S
C244 C245 1.399 . S
C245 C244 1.399 . S
C245 C248 1.396 . S
C245 C257 1.453 . S
C245 C258 1.684 . S
H246 C270 0.948 . S
C247 C243 1.397 . S
C247 C248 1.394 . S
C247 C266 1.723 . S
C248 C245 1.396 . S
C248 C247 1.394 . S
C248 C278 1.723 . S
H249 C272 0.947 . S
H250 C273 0.948 . S
H251 C279 0.982 . S
H252 C280 0.979 . S
H253 C280 0.980 . S
H254 C280 0.983 . S
H255 C279 0.979 . S
H256 C279 0.977 . S
C257 C245 1.453 . S
C257 H286 0.982 . S
C257 H287 0.979 . S
C257 H288 0.977 . S
C258 C245 1.684 . S
C258 H283 0.979 . S
C258 H284 0.980 . S
C258 H285 0.983 . S
C259 C260 1.391 . S
C259 C264 1.391 . S
C259 H289 0.948 . S
C260 C259 1.391 . S
C260 C261 1.391 . S
C261 C260 1.391 . S
C261 C262 1.392 . S
C261 H290 0.947 . S
C262 C261 1.392 . S
C262 C263 1.419 . S
C262 H291 0.948 . S
C263 C262 1.419 . S
C263 C264 1.391 . S
C263 C267 1.397 . S
C264 C259 1.391 . S
C264 C263 1.391 . S
C264 C265 1.399 . S
C265 C264 1.399 . S
C265 C266 1.396 . S
C265 C268 1.453 . S
C265 C269 1.684 . S
C266 C247 1.723 . S
C266 C265 1.396 . S
C266 C267 1.394 . S
C267 C263 1.397 . S
C267 C266 1.394 . S
C267 C277 1.723 . S
C268 C265 1.453 . S
C268 H292 0.982 . S
C268 H293 0.979 . S
C268 H294 0.977 . S
C269 C265 1.684 . S
C269 H295 0.979 . S
C269 H296 0.980 . S
C269 H297 0.983 . S
C270 H246 0.948 . S
C270 C271 1.391 . S
C270 C275 1.391 . S
C271 C270 1.391 . S
C271 C272 1.391 . S
C272 H249 0.947 . S
C272 C271 1.391 . S
C272 C273 1.392 . S
C273 H250 0.948 . S
C273 C272 1.392 . S
C273 C274 1.419 . S
C274 C273 1.419 . S
C274 C275 1.391 . S
C274 C278 1.397 . S
C275 C270 1.391 . S
C275 C274 1.391 . S
C275 C276 1.399 . S
C276 C275 1.399 . S
C276 C277 1.396 . S
C276 C279 1.453 . S
C276 C280 1.684 . S
C277 C267 1.723 . S
C277 C276 1.396 . S
C277 C278 1.394 . S
C278 C248 1.723 . S
C278 C274 1.397 . S
C278 C277 1.394 . S
C279 H251 0.982 . S
C279 H255 0.979 . S
C279 H256 0.977 . S
C279 C276 1.453 . S
C280 H252 0.979 . S
C280 H253 0.980 . S
C280 H254 0.983 . S
C280 C276 1.684 . S
H281 C299 0.948 . S
H282 C240 0.948 . S
H283 C258 0.979 . S
H284 C258 0.980 . S
H285 C258 0.983 . S
H286 C257 0.982 . S
H287 C257 0.979 . S
H288 C257 0.977 . S
H289 C259 0.948 . S
H290 C261 0.947 . S
H291 C262 0.948 . S
H292 C268 0.982 . S
H293 C268 0.979 . S
H294 C268 0.977 . S
H295 C269 0.979 . S
H296 C269 0.980 . S
H297 C269 0.983 . S
H298 C242 0.947 . S
C299 C242 1.392 . S
C299 C243 1.419 . S
C299 H281 0.948 . S
C300 C301 1.391 . S
C300 C304 1.391 . S
C300 H342 0.948 . S
C301 C300 1.391 . S
C301 C302 1.391 . S
C302 C301 1.391 . S
C302 H358 0.947 . S
C302 C359 1.392 . S
C303 C304 1.391 . S
C303 C307 1.397 . S
C303 C359 1.419 . S
C304 C300 1.391 . S
C304 C303 1.391 . S
C304 C305 1.399 . S
C305 C304 1.399 . S
C305 C308 1.396 . S
C305 C317 1.453 . S
C305 C318 1.684 . S
H306 C330 0.948 . S
C307 C303 1.397 . S
C307 C308 1.394 . S
C307 C326 1.723 . S
C308 C305 1.396 . S
C308 C307 1.394 . S
C308 C338 1.723 . S
H309 C332 0.947 . S
H310 C333 0.948 . S
H311 C339 0.982 . S
H312 C340 0.979 . S
H313 C340 0.980 . S
H314 C340 0.983 . S
H315 C339 0.979 . S
H316 C339 0.977 . S
C317 C305 1.453 . S
C317 H346 0.982 . S
C317 H347 0.979 . S
C317 H348 0.977 . S
C318 C305 1.684 . S
C318 H343 0.979 . S
C318 H344 0.980 . S
C318 H345 0.983 . S
C319 C320 1.391 . S
C319 C324 1.391 . S
C319 H349 0.948 . S
C320 C319 1.391 . S
C320 C321 1.391 . S
C321 C320 1.391 . S
C321 C322 1.392 . S
C321 H350 0.947 . S
C322 C321 1.392 . S
C322 C323 1.419 . S
C322 H351 0.948 . S
C323 C322 1.419 . S
C323 C324 1.391 . S
C323 C327 1.397 . S
C324 C319 1.391 . S
C324 C323 1.391 . S
C324 C325 1.399 . S
C325 C324 1.399 . S
C325 C326 1.396 . S
C325 C328 1.453 . S
C325 C329 1.684 . S
C326 C307 1.723 . S
C326 C325 1.396 . S
C326 C327 1.394 . S
C327 C323 1.397 . S
C327 C326 1.394 . S
C327 C337 1.723 . S
C328 C325 1.453 . S
C328 H352 0.982 . S
C328 H353 0.979 . S
C328 H354 0.977 . S
C329 C325 1.684 . S
C329 H355 0.979 . S
C329 H356 0.980 . S
C329 H357 0.983 . S
C330 H306 0.948 . S
C330 C331 1.391 . S
C330 C335 1.391 . S
C331 C330 1.391 . S
C331 C332 1.391 . S
C332 H309 0.947 . S
C332 C331 1.391 . S
C332 C333 1.392 . S
C333 H310 0.948 . S
C333 C332 1.392 . S
C333 C334 1.419 . S
C334 C333 1.419 . S
C334 C335 1.391 . S
C334 C338 1.397 . S
C335 C330 1.391 . S
C335 C334 1.391 . S
C335 C336 1.399 . S
C336 C335 1.399 . S
C336 C337 1.396 . S
C336 C339 1.453 . S
C336 C340 1.684 . S
C337 C327 1.723 . S
C337 C336 1.396 . S
C337 C338 1.394 . S
C338 C308 1.723 . S
C338 C334 1.397 . S
C338 C337 1.394 . S
C339 H311 0.982 . S
C339 H315 0.979 . S
C339 H316 0.977 . S
C339 C336 1.453 . S
C340 H312 0.979 . S
C340 H313 0.980 . S
C340 H314 0.983 . S
C340 C336 1.684 . S
H341 C359 0.948 . S
H342 C300 0.948 . S
H343 C318 0.979 . S
H344 C318 0.980 . S
H345 C318 0.983 . S
H346 C317 0.982 . S
H347 C317 0.979 . S
H348 C317 0.977 . S
H349 C319 0.948 . S
H350 C321 0.947 . S
H351 C322 0.948 . S
H352 C328 0.982 . S
H353 C328 0.979 . S
H354 C328 0.977 . S
H355 C329 0.979 . S
H356 C329 0.980 . S
H357 C329 0.983 . S
H358 C302 0.947 . S
C359 C302 1.392 . S
C359 C303 1.419 . S
C359 H341 0.948 . S
C360 C361 1.391 . S
C360 C364 1.391 . S
C360 H402 0.948 . S
C361 C360 1.391 . S
C361 C362 1.391 . S
C362 C361 1.391 . S
C362 H418 0.947 . S
C362 C419 1.392 . S
C363 C364 1.391 . S
C363 C367 1.397 . S
C363 C419 1.419 . S
C364 C360 1.391 . S
C364 C363 1.391 . S
C364 C365 1.399 . S
C365 C364 1.399 . S
C365 C368 1.396 . S
C365 C377 1.453 . S
C365 C378 1.684 . S
H366 C390 0.948 . S
C367 C363 1.397 . S
C367 C368 1.394 . S
C367 C386 1.723 . S
C368 C365 1.396 . S
C368 C367 1.394 . S
C368 C398 1.723 . S
H369 C392 0.947 . S
H370 C393 0.948 . S
H371 C399 0.982 . S
H372 C400 0.979 . S
H373 C400 0.980 . S
H374 C400 0.983 . S
H375 C399 0.979 . S
H376 C399 0.977 . S
C377 C365 1.453 . S
C377 H406 0.982 . S
C377 H407 0.979 . S
C377 H408 0.977 . S
C378 C365 1.684 . S
C378 H403 0.979 . S
C378 H404 0.980 . S
C378 H405 0.983 . S
C379 C380 1.391 . S
C379 C384 1.391 . S
C379 H409 0.948 . S
C380 C379 1.391 . S
C380 C381 1.391 . S
C381 C380 1.391 . S
C381 C382 1.392 . S
C381 H410 0.947 . S
C382 C381 1.392 . S
C382 C383 1.419 . S
C382 H411 0.948 . S
C383 C382 1.419 . S
C383 C384 1.391 . S
C383 C387 1.397 . S
C384 C379 1.391 . S
C384 C383 1.391 . S
C384 C385 1.399 . S
C385 C384 1.399 . S
C385 C386 1.396 . S
C385 C388 1.453 . S
C385 C389 1.684 . S
C386 C367 1.723 . S
C386 C385 1.396 . S
C386 C387 1.394 . S
C387 C383 1.397 . S
C387 C386 1.394 . S
C387 C397 1.723 . S
C388 C385 1.453 . S
C388 H412 0.982 . S
C388 H413 0.979 . S
C388 H414 0.977 . S
C389 C385 1.684 . S
C389 H415 0.979 . S
C389 H416 0.980 . S
C389 H417 0.983 . S
C390 H366 0.948 . S
C390 C391 1.391 . S
C390 C395 1.391 . S
C391 C390 1.391 . S
C391 C392 1.391 . S
C392 H369 0.947 . S
C392 C391 1.391 . S
C392 C393 1.392 . S
C393 H370 0.948 . S
C393 C392 1.392 . S
C393 C394 1.419 . S
C394 C393 1.419 . S
C394 C395 1.391 . S
C394 C398 1.397 . S
C395 C390 1.391 . S
C395 C394 1.391 . S
C395 C396 1.399 . S
C396 C395 1.399 . S
C396 C397 1.396 . S
C396 C399 1.453 . S
C396 C400 1.684 . S
C397 C387 1.723 . S
C397 C396 1.396 . S
C397 C398 1.394 . S
C398 C368 1.723 . S
C398 C394 1.397 . S
C398 C397 1.394 . S
C399 H371 0.982 . S
C399 H375 0.979 . S
C399 H376 0.977 . S
C399 C396 1.453 . S
C400 H372 0.979 . S
C400 H373 0.980 . S
C400 H374 0.983 . S
C400 C396 1.684 . S
H401 C419 0.948 . S
H402 C360 0.948 . S
H403 C378 0.979 . S
H404 C378 0.980 . S
H405 C378 0.983 . S
H406 C377 0.982 . S
H407 C377 0.979 . S
H408 C377 0.977 . S
H409 C379 0.948 . S
H410 C381 0.947 . S
H411 C382 0.948 . S
H412 C388 0.982 . S
H413 C388 0.979 . S
H414 C388 0.977 . S
H415 C389 0.979 . S
H416 C389 0.980 . S
H417 C389 0.983 . S
H418 C362 0.947 . S
C419 C362 1.392 . S
C419 C363 1.419 . S
C419 H401 0.948 . S
C420 C421 1.391 . S
C420 C424 1.391 . S
C420 H462 0.948 . S
C421 C420 1.391 . S
C421 C422 1.391 . S
C422 C421 1.391 . S
C422 H478 0.947 . S
C422 C479 1.392 . S
C423 C424 1.391 . S
C423 C427 1.397 . S
C423 C479 1.419 . S
C424 C420 1.391 . S
C424 C423 1.391 . S
C424 C425 1.399 . S
C425 C424 1.399 . S
C425 C428 1.396 . S
C425 C437 1.453 . S
C425 C438 1.684 . S
H426 C450 0.948 . S
C427 C423 1.397 . S
C427 C428 1.394 . S
C427 C446 1.723 . S
C428 C425 1.396 . S
C428 C427 1.394 . S
C428 C458 1.723 . S
H429 C452 0.947 . S
H430 C453 0.948 . S
H431 C459 0.982 . S
H432 C460 0.979 . S
H433 C460 0.980 . S
H434 C460 0.983 . S
H435 C459 0.979 . S
H436 C459 0.977 . S
C437 C425 1.453 . S
C437 H466 0.982 . S
C437 H467 0.979 . S
C437 H468 0.977 . S
C438 C425 1.684 . S
C438 H463 0.979 . S
C438 H464 0.980 . S
C438 H465 0.983 . S
C439 C440 1.391 . S
C439 C444 1.391 . S
C439 H469 0.948 . S
C440 C439 1.391 . S
C440 C441 1.391 . S
C441 C440 1.391 . S
C441 C442 1.392 . S
C441 H470 0.947 . S
C442 C441 1.392 . S
C442 C443 1.419 . S
C442 H471 0.948 . S
C443 C442 1.419 . S
C443 C444 1.391 . S
C443 C447 1.397 . S
C444 C439 1.391 . S
C444 C443 1.391 . S
C444 C445 1.399 . S
C445 C444 1.399 . S
C445 C446 1.396 . S
C445 C448 1.453 . S
C445 C449 1.684 . S
C446 C427 1.723 . S
C446 C445 1.396 . S
C446 C447 1.394 . S
C447 C443 1.397 . S
C447 C446 1.394 . S
C447 C457 1.723 . S
C448 C445 1.453 . S
C448 H472 0.982 . S
C448 H473 0.979 . S
C448 H474 0.977 . S
C449 C445 1.684 . S
C449 H475 0.979 . S
C449 H476 0.980 . S
C449 H477 0.983 . S
C450 H426 0.948 . S
C450 C451 1.391 . S
C450 C455 1.391 . S
C451 C450 1.391 . S
C451 C452 1.391 . S
C452 H429 0.947 . S
C452 C451 1.391 . S
C452 C453 1.392 . S
C453 H430 0.948 . S
C453 C452 1.392 . S
C453 C454 1.419 . S
C454 C453 1.419 . S
C454 C455 1.391 . S
C454 C458 1.397 . S
C455 C450 1.391 . S
C455 C454 1.391 . S
C455 C456 1.399 . S
C456 C455 1.399 . S
C456 C457 1.396 . S
C456 C459 1.453 . S
C456 C460 1.684 . S
C457 C447 1.723 . S
C457 C456 1.396 . S
C457 C458 1.394 . S
C458 C428 1.723 . S
C458 C454 1.397 . S
C458 C457 1.394 . S
C459 H431 0.982 . S
C459 H435 0.979 . S
C459 H436 0.977 . S
C459 C456 1.453 . S
C460 H432 0.979 . S
C460 H433 0.980 . S
C460 H434 0.983 . S
C460 C456 1.684 . S
H461 C479 0.948 . S
H462 C420 0.948 . S
H463 C438 0.979 . S
H464 C438 0.980 . S
H465 C438 0.983 . S
H466 C437 0.982 . S
H467 C437 0.979 . S
H468 C437 0.977 . S
H469 C439 0.948 . S
H470 C441 0.947 . S
H471 C442 0.948 . S
H472 C448 0.982 . S
H473 C448 0.979 . S
H474 C448 0.977 . S
H475 C449 0.979 . S
H476 C449 0.980 . S
H477 C449 0.983 . S
H478 C422 0.947 . S
C479 C422 1.392 . S
C479 C423 1.419 . S
C479 H461 0.948 . S
C480 C481 1.391 . S
C480 C484 1.391 . S
C480 H522 0.948 . S
C481 C480 1.391 . S
C481 C482 1.391 . S
C482 C481 1.391 . S
C482 H538 0.947 . S
C482 C539 1.392 . S
C483 C484 1.391 . S
C483 C487 1.397 . S
C483 C539 1.419 . S
C484 C480 1.391 . S
C484 C483 1.391 . S
C484 C485 1.399 . S
C485 C484 1.399 . S
C485 C488 1.396 . S
C485 C497 1.453 . S
C485 C498 1.684 . S
H486 C510 0.948 . S
C487 C483 1.397 . S
C487 C488 1.394 . S
C487 C506 1.723 . S
C488 C485 1.396 . S
C488 C487 1.394 . S
C488 C518 1.723 . S
H489 C512 0.947 . S
H490 C513 0.948 . S
H491 C519 0.982 . S
H492 C520 0.979 . S
H493 C520 0.980 . S
H494 C520 0.983 . S
H495 C519 0.979 . S
H496 C519 0.977 . S
C497 C485 1.453 . S
C497 H526 0.982 . S
C497 H527 0.979 . S
C497 H528 0.977 . S
C498 C485 1.684 . S
C498 H523 0.979 . S
C498 H524 0.980 . S
C498 H525 0.983 . S
C499 C500 1.391 . S
C499 C504 1.391 . S
C499 H529 0.948 . S
C500 C499 1.391 . S
C500 C501 1.391 . S
C501 C500 1.391 . S
C501 C502 1.392 . S
C501 H530 0.947 . S
C502 C501 1.392 . S
C502 C503 1.419 . S
C502 H531 0.948 . S
C503 C502 1.419 . S
C503 C504 1.391 . S
C503 C507 1.397 . S
C504 C499 1.391 . S
C504 C503 1.391 . S
C504 C505 1.399 . S
C505 C504 1.399 . S
C505 C506 1.396 . S
C505 C508 1.453 . S
C505 C509 1.684 . S
C506 C487 1.723 . S
C506 C505 1.396 . S
C506 C507 1.394 . S
C507 C503 1.397 . S
C507 C506 1.394 . S
C507 C517 1.723 . S
C508 C505 1.453 . S
C508 H532 0.982 . S
C508 H533 0.979 . S
C508 H534 0.977 . S
C509 C505 1.684 . S
C509 H535 0.979 . S
C509 H536 0.980 . S
C509 H537 0.983 . S
C510 H486 0.948 . S
C510 C511 1.391 . S
C510 C515 1.391 . S
C511 C510 1.391 . S
C511 C512 1.391 . S
C512 H489 0.947 . S
C512 C511 1.391 . S
C512 C513 1.392 . S
C513 H490 0.948 . S
C513 C512 1.392 . S
C513 C514 1.419 . S
C514 C513 1.419 . S
C514 C515 1.391 . S
C514 C518 1.397 . S
C515 C510 1.391 . S
C515 C514 1.391 . S
C515 C516 1.399 . S
C516 C515 1.399 . S
C516 C517 1.396 . S
C516 C519 1.453 . S
C516 C520 1.684 . S
C517 C507 1.723 . S
C517 C516 1.396 . S
C517 C518 1.394 . S
C518 C488 1.723 . S
C518 C514 1.397 . S
C518 C517 1.394 . S
C519 H491 0.982 . S
C519 H495 0.979 . S
C519 H496 0.977 . S
C519 C516 1.453 . S
C520 H492 0.979 . S
C520 H493 0.980 . S
C520 H494 0.983 . S
C520 C516 1.684 . S
H521 C539 0.948 . S
H522 C480 0.948 . S
H523 C498 0.979 . S
H524 C498 0.980 . S
H525 C498 0.983 . S
H526 C497 0.982 . S
H527 C497 0.979 . S
H528 C497 0.977 . S
H529 C499 0.948 . S
H530 C501 0.947 . S
H531 C502 0.948 . S
H532 C508 0.982 . S
H533 C508 0.979 . S
H534 C508 0.977 . S
H535 C509 0.979 . S
H536 C509 0.980 . S
H537 C509 0.983 . S
H538 C482 0.947 . S
C539 C482 1.392 . S
C539 C483 1.419 . S
C539 H521 0.948 . S
C540 C541 1.391 . S
C540 C544 1.391 . S
C540 H582 0.948 . S
C541 C540 1.391 . S
C541 C542 1.391 . S
C542 C541 1.391 . S
C542 H598 0.947 . S
C542 C599 1.392 . S
C543 C544 1.391 . S
C543 C547 1.397 . S
C543 C599 1.419 . S
C544 C540 1.391 . S
C544 C543 1.391 . S
C544 C545 1.399 . S
C545 C544 1.399 . S
C545 C548 1.396 . S
C545 C557 1.453 . S
C545 C558 1.684 . S
H546 C570 0.948 . S
C547 C543 1.397 . S
C547 C548 1.394 . S
C547 C566 1.723 . S
C548 C545 1.396 . S
C548 C547 1.394 . S
C548 C578 1.723 . S
H549 C572 0.947 . S
H550 C573 0.948 . S
H551 C579 0.982 . S
H552 C580 0.979 . S
H553 C580 0.980 . S
H554 C580 0.983 . S
H555 C579 0.979 . S
H556 C579 0.977 . S
C557 C545 1.453 . S
C557 H586 0.982 . S
C557 H587 0.979 . S
C557 H588 0.977 . S
C558 C545 1.684 . S
C558 H583 0.979 . S
C558 H584 0.980 . S
C558 H585 0.983 . S
C559 C560 1.391 . S
C559 C564 1.391 . S
C559 H589 0.948 . S
C560 C559 1.391 . S
C560 C561 1.391 . S
C561 C560 1.391 . S
C561 C562 1.392 . S
C561 H590 0.947 . S
C562 C561 1.392 . S
C562 C563 1.419 . S
C562 H591 0.948 . S
C563 C562 1.419 . S
C563 C564 1.391 . S
C563 C567 1.397 . S
C564 C559 1.391 . S
C564 C563 1.391 . S
C564 C565 1.399 . S
C565 C564 1.399 . S
C565 C566 1.396 . S
C565 C568 1.453 . S
C565 C569 1.684 . S
C566 C547 1.723 . S
C566 C565 1.396 . S
C566 C567 1.394 . S
C567 C563 1.397 . S
C567 C566 1.394 . S
C567 C577 1.723 . S
C568 C565 1.453 . S
C568 H592 0.982 . S
C568 H593 0.979 . S
C568 H594 0.977 . S
C569 C565 1.684 . S
C569 H595 0.979 . S
C569 H596 0.980 . S
C569 H597 0.983 . S
C570 H546 0.948 . S
C570 C571 1.391 . S
C570 C575 1.391 . S
C571 C570 1.391 . S
C571 C572 1.391 . S
C572 H549 0.947 . S
C572 C571 1.391 . S
C572 C573 1.392 . S
C573 H550 0.948 . S
C573 C572 1.392 . S
C573 C574 1.419 . S
C574 C573 1.419 . S
C574 C575 1.391 . S
C574 C578 1.397 . S
C575 C570 1.391 . S
C575 C574 1.391 . S
C575 C576 1.399 . S
C576 C575 1.399 . S
C576 C577 1.396 . S
C576 C579 1.453 . S
C576 C580 1.684 . S
C577 C567 1.723 . S
C577 C576 1.396 . S
C577 C578 1.394 . S
C578 C548 1.723 . S
C578 C574 1.397 . S
C578 C577 1.394 . S
C579 H551 0.982 . S
C579 H555 0.979 . S
C579 H556 0.977 . S
C579 C576 1.453 . S
C580 H552 0.979 . S
C580 H553 0.980 . S
C580 H554 0.983 . S
C580 C576 1.684 . S
H581 C599 0.948 . S
H582 C540 0.948 . S
H583 C558 0.979 . S
H584 C558 0.980 . S
H585 C558 0.983 . S
H586 C557 0.982 . S
H587 C557 0.979 . S
H588 C557 0.977 . S
H589 C559 0.948 . S
H590 C561 0.947 . S
H591 C562 0.948 . S
H592 C568 0.982 . S
H593 C568 0.979 . S
H594 C568 0.977 . S
H595 C569 0.979 . S
H596 C569 0.980 . S
H597 C569 0.983 . S
H598 C542 0.947 . S
C599 C542 1.392 . S
C599 C543 1.419 . S
C599 H581 0.948 . S
C600 C601 1.391 . S
C600 C604 1.391 . S
C600 H642 0.948 . S
C601 C600 1.391 . S
C601 C602 1.391 . S
C602 C601 1.391 . S
C602 H658 0.947 . S
C602 C659 1.392 . S
C603 C604 1.391 . S
C603 C607 1.397 . S
C603 C659 1.419 . S
C604 C600 1.391 . S
C604 C603 1.391 . S
C604 C605 1.399 . S
C605 C604 1.399 . S
C605 C608 1.396 . S
C605 C617 1.453 . S
C605 C618 1.684 . S
H606 C630 0.948 . S
C607 C603 1.397 . S
C607 C608 1.394 . S
C607 C626 1.723 . S
C608 C605 1.396 . S
C608 C607 1.394 . S
C608 C638 1.723 . S
H609 C632 0.947 . S
H610 C633 0.948 . S
H611 C639 0.982 . S
H612 C640 0.979 . S
H613 C640 0.980 . S
H614 C640 0.983 . S
H615 C639 0.979 . S
H616 C639 0.977 . S
C617 C605 1.453 . S
C617 H646 0.982 . S
C617 H647 0.979 . S
C617 H648 0.977 . S
C618 C605 1.684 . S
C618 H643 0.979 . S
C618 H644 0.980 . S
C618 H645 0.983 . S
C619 C620 1.391 . S
C619 C624 1.391 . S
C619 H649 0.948 . S
C620 C619 1.391 . S
C620 C621 1.391 . S
C621 C620 1.391 . S
C621 C622 1.392 . S
C621 H650 0.947 . S
C622 C621 1.392 . S
C622 C623 1.419 . S
C622 H651 0.948 . S
C623 C622 1.419 . S
C623 C624 1.391 . S
C623 C627 1.397 . S
C624 C619 1.391 . S
C624 C623 1.391 . S
C624 C625 1.399 . S
C625 C624 1.399 . S
C625 C626 1.396 . S
C625 C628 1.453 . S
C625 C629 1.684 . S
C626 C607 1.723 . S
C626 C625 1.396 . S
C626 C627 1.394 . S
C627 C623 1.397 . S
C627 C626 1.394 . S
C627 C637 1.723 . S
C628 C625 1.453 . S
C628 H652 0.982 . S
C628 H653 0.979 . S
C628 H654 0.977 . S
C629 C625 1.684 . S
C629 H655 0.979 . S
C629 H656 0.980 . S
C629 H657 0.983 . S
C630 H606 0.948 . S
C630 C631 1.391 . S
C630 C635 1.391 . S
C631 C630 1.391 . S
C631 C632 1.391 . S
C632 H609 0.947 . S
C632 C631 1.391 . S
C632 C633 1.392 . S
C633 H610 0.948 . S
C633 C632 1.392 . S
C633 C634 1.419 . S
C634 C633 1.419 . S
C634 C635 1.391 . S
C634 C638 1.397 . S
C635 C630 1.391 . S
C635 C634 1.391 . S
C635 C636 1.399 . S
C636 C635 1.399 . S
C636 C637 1.396 . S
C636 C639 1.453 . S
C636 C640 1.684 . S
C637 C627 1.723 . S
C637 C636 1.396 . S
C637 C638 1.394 . S
C638 C608 1.723 . S
C638 C634 1.397 . S
C638 C637 1.394 . S
C639 H611 0.982 . S
C639 H615 0.979 . S
C639 H616 0.977 . S
C639 C636 1.453 . S
C640 H612 0.979 . S
C640 H613 0.980 . S
C640 H614 0.983 . S
C640 C636 1.684 . S
H641 C659 0.948 . S
H642 C600 0.948 . S
H643 C618 0.979 . S
H644 C618 0.980 . S
H645 C618 0.983 . S
H646 C617 0.982 . S
H647 C617 0.979 . S
H648 C617 0.977 . S
H649 C619 0.948 . S
H650 C621 0.947 . S
H651 C622 0.948 . S
H652 C628 0.982 . S
H653 C628 0.979 . S
H654 C628 0.977 . S
H655 C629 0.979 . S
H656 C629 0.980 . S
H657 C629 0.983 . S
H658 C602 0.947 . S
C659 C602 1.392 . S
C659 C603 1.419 . S
C659 H641 0.948 . S
C660 C661 1.391 . S
C660 C664 1.391 . S
C660 H702 0.948 . S
C661 C660 1.391 . S
C661 C662 1.391 . S
C662 C661 1.391 . S
C662 H718 0.947 . S
C662 C719 1.392 . S
C663 C664 1.391 . S
C663 C667 1.397 . S
C663 C719 1.419 . S
C664 C660 1.391 . S
C664 C663 1.391 . S
C664 C665 1.399 . S
C665 C664 1.399 . S
C665 C668 1.396 . S
C665 C677 1.453 . S
C665 C678 1.684 . S
H666 C690 0.948 . S
C667 C663 1.397 . S
C667 C668 1.394 . S
C667 C686 1.723 . S
C668 C665 1.396 . S
C668 C667 1.394 . S
C668 C698 1.723 . S
H669 C692 0.947 . S
H670 C693 0.948 . S
H671 C699 0.982 . S
H672 C700 0.979 . S
H673 C700 0.980 . S
H674 C700 0.983 . S
H675 C699 0.979 . S
H676 C699 0.977 . S
C677 C665 1.453 . S
C677 H706 0.982 . S
C677 H707 0.979 . S
C677 H708 0.977 . S
C678 C665 1.684 . S
C678 H703 0.979 . S
C678 H704 0.980 . S
C678 H705 0.983 . S
C679 C680 1.391 . S
C679 C684 1.391 . S
C679 H709 0.948 . S
C680 C679 1.391 . S
C680 C681 1.391 . S
C681 C680 1.391 . S
C681 C682 1.392 . S
C681 H710 0.947 . S
C682 C681 1.392 . S
C682 C683 1.419 . S
C682 H711 0.948 . S
C683 C682 1.419 . S
C683 C684 1.391 . S
C683 C687 1.397 . S
C684 C679 1.391 . S
C684 C683 1.391 . S
C684 C685 1.399 . S
C685 C684 1.399 . S
C685 C686 1.396 . S
C685 C688 1.453 . S
C685 C689 1.684 . S
C686 C667 1.723 . S
C686 C685 1.396 . S
C686 C687 1.394 . S
C687 C683 1.397 . S
C687 C686 1.394 . S
C687 C697 1.723 . S
C688 C685 1.453 . S
C688 H712 0.982 . S
C688 H713 0.979 . S
C688 H714 0.977 . S
C689 C685 1.684 . S
C689 H715 0.979 . S
C689 H716 0.980 . S
C689 H717 0.983 . S
C690 H666 0.948 . S
C690 C691 1.391 . S
C690 C695 1.391 . S
C691 C690 1.391 . S
C691 C692 1.391 . S
C692 H669 0.947 . S
C692 C691 1.391 . S
C692 C693 1.392 . S
C693 H670 0.948 . S
C693 C692 1.392 . S
C693 C694 1.419 . S
C694 C693 1.419 . S
C694 C695 1.391 . S
C694 C698 1.397 . S
C695 C690 1.391 . S
C695 C694 1.391 . S
C695 C696 1.399 . S
C696 C695 1.399 . S
C696 C697 1.396 . S
C696 C699 1.453 . S
C696 C700 1.684 . S
C697 C687 1.723 . S
C697 C696 1.396 . S
C697 C698 1.394 . S
C698 C668 1.723 . S
C698 C694 1.397 . S
C698 C697 1.394 . S
C699 H671 0.982 . S
C699 H675 0.979 . S
C699 H676 0.977 . S
C699 C696 1.453 . S
C700 H672 0.979 . S
C700 H673 0.980 . S
C700 H674 0.983 . S
C700 C696 1.684 . S
H701 C719 0.948 . S
H702 C660 0.948 . S
H703 C678 0.979 . S
H704 C678 0.980 . S
H705 C678 0.983 . S
H706 C677 0.982 . S
H707 C677 0.979 . S
H708 C677 0.977 . S
H709 C679 0.948 . S
H710 C681 0.947 . S
H711 C682 0.948 . S
H712 C688 0.982 . S
H713 C688 0.979 . S
H714 C688 0.977 . S
H715 C689 0.979 . S
H716 C689 0.980 . S
H717 C689 0.983 . S
H718 C662 0.947 . S
C719 C662 1.392 . S
C719 C663 1.419 . S
C719 H701 0.948 . S
C720 C721 1.391 . S
C720 C724 1.391 . S
C720 H762 0.948 . S
C721 C720 1.391 . S
C721 C722 1.391 . S
C722 C721 1.391 . S
C722 H778 0.947 . S
C722 C779 1.392 . S
C723 C724 1.391 . S
C723 C727 1.397 . S
C723 C779 1.419 . S
C724 C720 1.391 . S
C724 C723 1.391 . S
C724 C725 1.399 . S
C725 C724 1.399 . S
C725 C728 1.396 . S
C725 C737 1.453 . S
C725 C738 1.684 . S
H726 C750 0.948 . S
C727 C723 1.397 . S
C727 C728 1.394 . S
C727 C746 1.723 . S
C728 C725 1.396 . S
C728 C727 1.394 . S
C728 C758 1.723 . S
H729 C752 0.947 . S
H730 C753 0.948 . S
H731 C759 0.982 . S
H732 C760 0.979 . S
H733 C760 0.980 . S
H734 C760 0.983 . S
H735 C759 0.979 . S
H736 C759 0.977 . S
C737 C725 1.453 . S
C737 H766 0.982 . S
C737 H767 0.979 . S
C737 H768 0.977 . S
C738 C725 1.684 . S
C738 H763 0.979 . S
C738 H764 0.980 . S
C738 H765 0.983 . S
C739 C740 1.391 . S
C739 C744 1.391 . S
C739 H769 0.948 . S
C740 C739 1.391 . S
C740 C741 1.391 . S
C741 C740 1.391 . S
C741 C742 1.392 . S
C741 H770 0.947 . S
C742 C741 1.392 . S
C742 C743 1.419 . S
C742 H771 0.948 . S
C743 C742 1.419 . S
C743 C744 1.391 . S
C743 C747 1.397 . S
C744 C739 1.391 . S
C744 C743 1.391 . S
C744 C745 1.399 . S
C745 C744 1.399 . S
C745 C746 1.396 . S
C745 C748 1.453 . S
C745 C749 1.684 . S
C746 C727 1.723 . S
C746 C745 1.396 . S
C746 C747 1.394 . S
C747 C743 1.397 . S
C747 C746 1.394 . S
C747 C757 1.723 . S
C748 C745 1.453 . S
C748 H772 0.982 . S
C748 H773 0.979 . S
C748 H774 0.977 . S
C749 C745 1.684 . S
C749 H775 0.979 . S
C749 H776 0.980 . S
C749 H777 0.983 . S
C750 H726 0.948 . S
C750 C751 1.391 . S
C750 C755 1.391 . S
C751 C750 1.391 . S
C751 C752 1.391 . S
C752 H729 0.947 . S
C752 C751 1.391 . S
C752 C753 1.392 . S
C753 H730 0.948 . S
C753 C752 1.392 . S
C753 C754 1.419 . S
C754 C753 1.419 . S
C754 C755 1.391 . S
C754 C758 1.397 . S
C755 C750 1.391 . S
C755 C754 1.391 . S
C755 C756 1.399 . S
C756 C755 1.399 . S
C756 C757 1.396 . S
C756 C759 1.453 . S
C756 C760 1.684 . S
C757 C747 1.723 . S
C757 C756 1.396 . S
C757 C758 1.394 . S
C758 C728 1.723 . S
C758 C754 1.397 . S
C758 C757 1.394 . S
C759 H731 0.982 . S
C759 H735 0.979 . S
C759 H736 0.977 . S
C759 C756 1.453 . S
C760 H732 0.979 . S
C760 H733 0.980 . S
C760 H734 0.983 . S
C760 C756 1.684 . S
H761 C779 0.948 . S
H762 C720 0.948 . S
H763 C738 0.979 . S
H764 C738 0.980 . S
H765 C738 0.983 . S
H766 C737 0.982 . S
H767 C737 0.979 . S
H768 C737 0.977 . S
H769 C739 0.948 . S
H770 C741 0.947 . S
H771 C742 0.948 . S
H772 C748 0.982 . S
H773 C748 0.979 . S
H774 C748 0.977 . S
H775 C749 0.979 . S
H776 C749 0.980 . S
H777 C749 0.983 . S
H778 C722 0.947 . S
C779 C722 1.392 . S
C779 C723 1.419 . S
C779 H761 0.948 . S
C780 C781 1.391 . S
C780 C784 1.391 . S
C780 H822 0.948 . S
C781 C780 1.391 . S
C781 C782 1.391 . S
C782 C781 1.391 . S
C782 H838 0.947 . S
C782 C839 1.392 . S
C783 C784 1.391 . S
C783 C787 1.397 . S
C783 C839 1.419 . S
C784 C780 1.391 . S
C784 C783 1.391 . S
C784 C785 1.399 . S
C785 C784 1.399 . S
C785 C788 1.396 . S
C785 C797 1.453 . S
C785 C798 1.684 . S
H786 C810 0.948 . S
C787 C783 1.397 . S
C787 C788 1.394 . S
C787 C806 1.723 . S
C788 C785 1.396 . S
C788 C787 1.394 . S
C788 C818 1.723 . S
H789 C812 0.947 . S
H790 C813 0.948 . S
H791 C819 0.982 . S
H792 C820 0.979 . S
H793 C820 0.980 . S
H794 C820 0.983 . S
H795 C819 0.979 . S
H796 C819 0.977 . S
C797 C785 1.453 . S
C797 H826 0.982 . S
C797 H827 0.979 . S
C797 H828 0.977 . S
C798 C785 1.684 . S
C798 H823 0.979 . S
C798 H824 0.980 . S
C798 H825 0.983 . S
C799 C800 1.391 . S
C799 C804 1.391 . S
C799 H829 0.948 . S
C800 C799 1.391 . S
C800 C801 1.391 . S
C801 C800 1.391 . S
C801 C802 1.392 . S
C801 H830 0.947 . S
C802 C801 1.392 . S
C802 C803 1.419 . S
C802 H831 0.948 . S
C803 C802 1.419 . S
C803 C804 1.391 . S
C803 C807 1.397 . S
C804 C799 1.391 . S
C804 C803 1.391 . S
C804 C805 1.399 . S
C805 C804 1.399 . S
C805 C806 1.396 . S
C805 C808 1.453 . S
C805 C809 1.684 . S
C806 C787 1.723 . S
C806 C805 1.396 . S
C806 C807 1.394 . S
C807 C803 1.397 . S
C807 C806 1.394 . S
C807 C817 1.723 . S
C808 C805 1.453 . S
C808 H832 0.982 . S
C808 H833 0.979 . S
C808 H834 0.977 . S
C809 C805 1.684 . S
C809 H835 0.979 . S
C809 H836 0.980 . S
C809 H837 0.983 . S
C810 H786 0.948 . S
C810 C811 1.391 . S
C810 C815 1.391 . S
C811 C810 1.391 . S
C811 C812 1.391 . S
C812 H789 0.947 . S
C812 C811 1.391 . S
C812 C813 1.392 . S
C813 H790 0.948 . S
C813 C812 1.392 . S
C813 C814 1.419 . S
C814 C813 1.419 . S
C814 C815 1.391 . S
C814 C818 1.397 . S
C815 C810 1.391 . S
C815 C814 1.391 . S
C815 C816 1.399 . S
C816 C815 1.399 . S
C816 C817 1.396 . S
C816 C819 1.453 . S
C816 C820 1.684 . S
C817 C807 1.723 . S
C817 C816 1.396 . S
C817 C818 1.394 . S
C818 C788 1.723 . S
C818 C814 1.397 . S
C818 C817 1.394 . S
C819 H791 0.982 . S
C819 H795 0.979 . S
C819 H796 0.977 . S
C819 C816 1.453 . S
C820 H792 0.979 . S
C820 H793 0.980 . S
C820 H794 0.983 . S
C820 C816 1.684 . S
H821 C839 0.948 . S
H822 C780 0.948 . S
H823 C798 0.979 . S
H824 C798 0.980 . S
H825 C798 0.983 . S
H826 C797 0.982 . S
H827 C797 0.979 . S
H828 C797 0.977 . S
H829 C799 0.948 . S
H830 C801 0.947 . S
H831 C802 0.948 . S
H832 C808 0.982 . S
H833 C808 0.979 . S
H834 C808 0.977 . S
H835 C809 0.979 . S
H836 C809 0.980 . S
H837 C809 0.983 . S
H838 C782 0.947 . S
C839 C782 1.392 . S
C839 C783 1.419 . S
C839 H821 0.948 . S
C840 C841 1.391 . S
C840 C844 1.391 . S
C840 H882 0.948 . S
C841 C840 1.391 . S
C841 C842 1.391 . S
C842 C841 1.391 . S
C842 H898 0.947 . S
C842 C899 1.392 . S
C843 C844 1.391 . S
C843 C847 1.397 . S
C843 C899 1.419 . S
C844 C840 1.391 . S
C844 C843 1.391 . S
C844 C845 1.399 . S
C845 C844 1.399 . S
C845 C848 1.396 . S
C845 C857 1.453 . S
C845 C858 1.684 . S
H846 C870 0.948 . S
C847 C843 1.397 . S
C847 C848 1.394 . S
C847 C866 1.723 . S
C848 C845 1.396 . S
C848 C847 1.394 . S
C848 C878 1.723 . S
H849 C872 0.947 . S
H850 C873 0.948 . S
H851 C879 0.982 . S
H852 C880 0.979 . S
H853 C880 0.980 . S
H854 C880 0.983 . S
H855 C879 0.979 . S
H856 C879 0.977 . S
C857 C845 1.453 . S
C857 H886 0.982 . S
C857 H887 0.979 . S
C857 H888 0.977 . S
C858 C845 1.684 . S
C858 H883 0.979 . S
C858 H884 0.980 . S
C858 H885 0.983 . S
C859 C860 1.391 . S
C859 C864 1.391 . S
C859 H889 0.948 . S
C860 C859 1.391 . S
C860 C861 1.391 . S
C861 C860 1.391 . S
C861 C862 1.392 . S
C861 H890 0.947 . S
C862 C861 1.392 . S
C862 C863 1.419 . S
C862 H891 0.948 . S
C863 C862 1.419 . S
C863 C864 1.391 . S
C863 C867 1.397 . S
C864 C859 1.391 . S
C864 C863 1.391 . S
C864 C865 1.399 . S
C865 C864 1.399 . S
C865 C866 1.396 . S
C865 C868 1.453 . S
C865 C869 1.684 . S
C866 C847 1.723 . S
C866 C865 1.396 . S
C866 C867 1.394 . S
C867 C863 1.397 . S
C867 C866 1.394 . S
C867 C877 1.723 . S
C868 C865 1.453 . S
C868 H892 0.982 . S
C868 H893 0.979 . S
C868 H894 0.977 . S
C869 C865 1.684 . S
C869 H895 0.979 . S
C869 H896 0.980 . S
C869 H897 0.983 . S
C870 H846 0.948 . S
C870 C871 1.391 . S
C870 C875 1.391 . S
C871 C870 1.391 . S
C871 C872 1.391 . S
C872 H849 0.947 . S
C872 C871 1.391 . S
C872 C873 1.392 . S
C873 H850 0.948 . S
C873 C872 1.392 . S
C873 C874 1.419 . S
C874 C873 1.419 . S
C874 C875 1.391 . S
C874 C878 1.397 . S
C875 C870 1.391 . S
C875 C874 1.391 . S
C875 C876 1.399 . S
C876 C875 1.399 . S
C876 C877 1.396 . S
C876 C879 1.453 . S
C876 C880 1.684 . S
C877 C867 1.723 . S
C877 C876 1.396 . S
C877 C878 1.394 . S
C878 C848 1.723 . S
C878 C874 1.397 . S
C878 C877 1.394 . S
C879 H851 0.982 . S
C879 H855 0.979 . S
C879 H856 0.977 . S
C879 C876 1.453 . S
C880 H852 0.979 . S
C880 H853 0.980 . S
C880 H854 0.983 . S
C880 C876 1.684 . S
H881 C899 0.948 . S
H882 C840 0.948 . S
H883 C858 0.979 . S
H884 C858 0.980 . S
H885 C858 0.983 . S
H886 C857 0.982 . S
H887 C857 0.979 . S
H888 C857 0.977 . S
H889 C859 0.948 . S
H890 C861 0.947 . S
H891 C862 0.948 . S
H892 C868 0.982 . S
H893 C868 0.979 . S
H894 C868 0.977 . S
H895 C869 0.979 . S
H896 C869 0.980 . S
H897 C869 0.983 . S
H898 C842 0.947 . S
C899 C842 1.392 . S
C899 C843 1.419 . S
C899 H881 0.948 . S
C900 C901 1.391 . S
C900 C904 1.391 . S
C900 H942 0.948 . S
C901 C900 1.391 . S
C901 C902 1.391 . S
C902 C901 1.391 . S
C902 H958 0.947 . S
C902 C959 1.392 . S
C903 C904 1.391 . S
C903 C907 1.397 . S
C903 C959 1.419 . S
C904 C900 1.391 . S
C904 C903 1.391 . S
C904 C905 1.399 . S
C905 C904 1.399 . S
C905 C908 1.396 . S
C905 C917 1.453 . S
C905 C918 1.684 . S
H906 C930 0.948 . S
C907 C903 1.397 . S
C907 C908 1.394 . S
C907 C926 1.723 . S
C908 C905 1.396 . S
C908 C907 1.394 . S
C908 C938 1.723 . S
H909 C932 0.947 . S
H910 C933 0.948 . S
H911 C939 0.982 . S
H912 C940 0.979 . S
H913 C940 0.980 . S
H914 C940 0.983 . S
H915 C939 0.979 . S
H916 C939 0.977 . S
C917 C905 1.453 . S
C917 H946 0.982 . S
C917 H947 0.979 . S
C917 H948 0.977 . S
C918 C905 1.684 . S
C918 H943 0.979 . S
C918 H944 0.980 . S
C918 H945 0.983 . S
C919 C920 1.391 . S
C919 C924 1.391 . S
C919 H949 0.948 . S
C920 C919 1.391 . S
C920 C921 1.391 . S
C921 C920 1.391 . S
C921 C922 1.392 . S
C921 H950 0.947 . S
C922 C921 1.392 . S
C922 C923 1.419 . S
C922 H951 0.948 . S
C923 C922 1.419 . S
C923 C924 1.391 . S
C923 C927 1.397 . S
C924 C919 1.391 . S
C924 C923 1.391 . S
C924 C925 1.399 . S
C925 C924 1.399 . S
C925 C926 1.396 . S
C925 C928 1.453 . S
C925 C929 1.684 . S
C926 C907 1.723 . S
C926 C925 1.396 . S
C926 C927 1.394 . S
C927 C923 1.397 . S
C927 C926 1.394 . S
C927 C937 1.723 . S
C928 C925 1.453 . S
C928 H952 0.982 . S
C928 H953 0.979 . S
C928 H954 0.977 . S
C929 C925 1.684 . S
C929 H955 0.979 . S
C929 H956 0.980 . S
C929 H957 0.983 . S
C930 H906 0.948 . S
C930 C931 1.391 . S
C930 C935 1.391 . S
C931 C930 1.391 . S
C931 C932 1.391 . S
C932 H909 0.947 . S
C932 C931 1.391 . S
C932 C933 1.392 . S
C933 H910 0.948 . S
C933 C932 1.392 . S
C933 C934 1.419 . S
C934 C933 1.419 . S
C934 C935 1.391 . S
C934 C938 1.397 . S
C935 C930 1.391 . S
C935 C934 1.391 . S
C935 C936 1.399 . S
C936 C935 1.399 . S
C936 C937 1.396 . S
C936 C939 1.453 . S
C936 C940 1.684 . S
C937 C927 1.723 . S
C937 C936 1.396 . S
C937 C938 1.394 . S
C938 C908 1.723 . S
C938 C934 1.397 . S
C938 C937 1.394 . S
C939 H911 0.982 . S
C939 H915 0.979 . S
C939 H916 0.977 . S
C939 C936 1.453 . S
C940 H912 0.979 . S
C940 H913 0.980 . S
C940 H914 0.983 . S
C940 C936 1.684 . S
H941 C959 0.948 . S
H942 C900 0.948 . S
H943 C918 0.979 . S
H944 C918 0.980 . S
H945 C918 0.983 . S
H946 C917 0.982 . S
H947 C917 0.979 . S
H948 C917 0.977 . S
H949 C919 0.948 . S
H950 C921 0.947 . S
H951 C922 0.948 . S
H952 C928 0.982 . S
H953 C928 0.979 . S
H954 C928 0.977 . S
H955 C929 0.979 . S
H956 C929 0.980 . S
H957 C929 0.983 . S
H958 C902 0.947 . S
C959 C902 1.392 . S
C959 C903 1.419 . S
C959 H941 0.948 . S
C960 C961 1.391 . S
C960 C964 1.391 . S
C960 H1002 0.948 . S
C961 C960 1.391 . S
C961 C962 1.391 . S
C962 C961 1.391 . S
C962 H1018 0.947 . S
C962 C1019 1.392 . S
C963 C964 1.391 . S
C963 C967 1.397 . S
C963 C1019 1.419 . S
C964 C960 1.391 . S
C964 C963 1.391 . S
C964 C965 1.399 . S
C965 C964 1.399 . S
C965 C968 1.396 . S
C965 C977 1.453 . S
C965 C978 1.684 . S
H966 C990 0.948 . S
C967 C963 1.397 . S
C967 C968 1.394 . S
C967 C986 1.723 . S
C968 C965 1.396 . S
C968 C967 1.394 . S
C968 C998 1.723 . S
H969 C992 0.947 . S
H970 C993 0.948 . S
H971 C999 0.982 . S
H972 C1000 0.979 . S
H973 C1000 0.980 . S
H974 C1000 0.983 . S
H975 C999 0.979 . S
H976 C999 0.977 . S
C977 C965 1.453 . S
C977 H1006 0.982 . S
C977 H1007 0.979 . S
C977 H1008 0.977 . S
C978 C965 1.684 . S
C978 H1003 0.979 . S
C978 H1004 0.980 . S
C978 H1005 0.983 . S
C979 C980 1.391 . S
C979 C984 1.391 . S
C979 H1009 0.948 . S
C980 C979 1.391 . S
C980 C981 1.391 . S
C981 C980 1.391 . S
C981 C982 1.392 . S
C981 H1010 0.947 . S
C982 C981 1.392 . S
C982 C983 1.419 . S
C982 H1011 0.948 . S
C983 C982 1.419 . S
C983 C984 1.391 . S
C983 C987 1.397 . S
C984 C979 1.391 . S
C984 C983 1.391 . S
C984 C985 1.399 . S
C985 C984 1.399 . S
C985 C986 1.396 . S
C985 C988 1.453 . S
C985 C989 1.684 . S
C986 C967 1.723 . S
C986 C985 1.396 . S
C986 C987 1.394 . S
C987 C983 1.397 . S
C987 C986 1.394 . S
C987 C997 1.723 . S
C988 C985 1.453 . S
C988 H1012 0.982 . S
C988 H1013 0.979 . S
C988 H1014 0.977 . S
C989 C985 1.684 . S
C989 H1015 0.979 . S
C989 H1016 0.980 . S
C989 H1017 0.983 . S
C990 H966 0.948 . S
C990 C991 1.391 . S
C990 C995 1.391 . S
C991 C990 1.391 . S
C991 C992 1.391 . S
C992 H969 0.947 . S
C992 C991 1.391 . S
C992 C993 1.392 . S
C993 H970 0.948 . S
C993 C992 1.392 . S
C993 C994 1.419 . S
C994 C993 1.419 . S
C994 C995 1.391 . S
C994 C998 1.397 . S
C995 C990 1.391 . S
C995 C994 1.391 . S
C995 C996 1.399 . S
C996 C995 1.399 . S
C996 C997 1.396 . S
C996 C999 1.453 . S
C996 C1000 1.684 . S
C997 C987 1.723 . S
C997 C996 1.396 . S
C997 C998 1.394 . S
C998 C968 1.723 . S
C998 C994 1.397 . S
C998 C997 1.394 . S
C999 H971 0.982 . S
C999 H975 0.979 . S
C999 H976 0.977 . S
C999 C996 1.453 . S
C1000 H972 0.979 . S
C1000 H973 0.980 . S
C1000 H974 0.983 . S
C1000 C996 1.684 . S
H1001 C1019 0.948 . S
H1002 C960 0.948 . S
H1003 C978 0.979 . S
H1004 C978 0.980 . S
H1005 C978 0.983 . S
H1006 C977 0.982 . S
H1007 C977 0.979 . S
H1008 C977 0.977 . S
H1009 C979 0.948 . S
H1010 C981 0.947 . S
H1011 C982 0.948 . S
H1012 C988 0.982 . S
H1013 C988 0.979 . S
H1014 C988 0.977 . S
H1015 C989 0.979 . S
H1016 C989 0.980 . S
H1017 C989 0.983 . S
H1018 C962 0.947 . S
C1019 C962 1.392 . S
C1019 C963 1.419 . S
C1019 H1001 0.948 . S
C1020 C1021 1.391 . S
C1020 C1024 1.391 . S
C1020 H1062 0.948 . S
C1021 C1020 1.391 . S
C1021 C1022 1.391 . S
C1022 C1021 1.391 . S
C1022 H1078 0.947 . S
C1022 C1079 1.392 . S
C1023 C1024 1.391 . S
C1023 C1027 1.397 . S
C1023 C1079 1.419 . S
C1024 C1020 1.391 . S
C1024 C1023 1.391 . S
C1024 C1025 1.399 . S
C1025 C1024 1.399 . S
C1025 C1028 1.396 . S
C1025 C1037 1.453 . S
C1025 C1038 1.684 . S
H1026 C1050 0.948 . S
C1027 C1023 1.397 . S
C1027 C1028 1.394 . S
C1027 C1046 1.723 . S
C1028 C1025 1.396 . S
C1028 C1027 1.394 . S
C1028 C1058 1.723 . S
H1029 C1052 0.947 . S
H1030 C1053 0.948 . S
H1031 C1059 0.982 . S
H1032 C1060 0.979 . S
H1033 C1060 0.980 . S
H1034 C1060 0.983 . S
H1035 C1059 0.979 . S
H1036 C1059 0.977 . S
C1037 C1025 1.453 . S
C1037 H1066 0.982 . S
C1037 H1067 0.979 . S
C1037 H1068 0.977 . S
C1038 C1025 1.684 . S
C1038 H1063 0.979 . S
C1038 H1064 0.980 . S
C1038 H1065 0.983 . S
C1039 C1040 1.391 . S
C1039 C1044 1.391 . S
C1039 H1069 0.948 . S
C1040 C1039 1.391 . S
C1040 C1041 1.391 . S
C1041 C1040 1.391 . S
C1041 C1042 1.392 . S
C1041 H1070 0.947 . S
C1042 C1041 1.392 . S
C1042 C1043 1.419 . S
C1042 H1071 0.948 . S
C1043 C1042 1.419 . S
C1043 C1044 1.391 . S
C1043 C1047 1.397 . S
C1044 C1039 1.391 . S
C1044 C1043 1.391 . S
C1044 C1045 1.399 . S
C1045 C1044 1.399 . S
C1045 C1046 1.396 . S
C1045 C1048 1.453 . S
C1045 C1049 1.684 . S
C1046 C1027 1.723 . S
C1046 C1045 1.396 . S
C1046 C1047 1.394 . S
C1047 C1043 1.397 . S
C1047 C1046 1.394 . S
C1047 C1057 1.723 . S
C1048 C1045 1.453 . S
C1048 H1072 0.982 . S
C1048 H1073 0.979 . S
C1048 H1074 0.977 . S
C1049 C1045 1.684 . S
C1049 H1075 0.979 . S
C1049 H1076 0.980 . S
C1049 H1077 0.983 . S
C1050 H1026 0.948 . S
C1050 C1051 1.391 . S
C1050 C1055 1.391 . S
C1051 C1050 1.391 . S
C1051 C1052 1.391 . S
C1052 H1029 0.947 . S
C1052 C1051 1.391 . S
C1052 C1053 1.392 . S
C1053 H1030 0.948 . S
C1053 C1052 1.392 . S
C1053 C1054 1.419 . S
C1054 C1053 1.419 . S
C1054 C1055 1.391 . S
C1054 C1058 1.397 . S
C1055 C1050 1.391 . S
C1055 C1054 1.391 . S
C1055 C1056 1.399 . S
C1056 C1055 1.399 . S
C1056 C1057 1.396 . S
C1056 C1059 1.453 . S
C1056 C1060 1.684 . S
C1057 C1047 1.723 . S
C1057 C1056 1.396 . S
C1057 C1058 1.394 . S
C1058 C1028 1.723 . S
C1058 C1054 1.397 . S
C1058 C1057 1.394 . S
C1059 H1031 0.982 . S
C1059 H1035 0.979 . S
C1059 H1036 0.977 . S
C1059 C1056 1.453 . S
C1060 H1032 0.979 . S
C1060 H1033 0.980 . S
C1060 H1034 0.983 . S
C1060 C1056 1.684 . S
H1061 C1079 0.948 . S
H1062 C1020 0.948 . S
H1063 C1038 0.979 . S
H1064 C1038 0.980 . S
H1065 C1038 0.983 . S
H1066 C1037 0.982 . S
H1067 C1037 0.979 . S
H1068 C1037 0.977 . S
H1069 C1039 0.948 . S
H1070 C1041 0.947 . S
H1071 C1042 0.948 . S
H1072 C1048 0.982 . S
H1073 C1048 0.979 . S
H1074 C1048 0.977 . S
H1075 C1049 0.979 . S
H1076 C1049 0.980 . S
H1077 C1049 0.983 . S
H1078 C1022 0.947 . S
C1079 C1022 1.392 . S
C1079 C1023 1.419 . S
C1079 H1061 0.948 . S
Eu1080 N1111 2.657 . S
Eu1080 N1118 2.609 . S
Eu1080 O1124 2.558 . S
Eu1080 O1125 2.612 1_565 S
Eu1080 O1127 2.339 1_565 S
Eu1080 O1128 2.563 1_565 S
Eu1080 O1129 2.419 . S
Eu1080 O1131 2.380 1_556 S
Eu1080 O1132 2.432 . S
Eu1080 C1144 2.848 . S
C1081 C1084 1.429 . S
C1081 C1085 1.411 . S
C1081 N1088 1.377 . S
C1082 C1084 1.420 . S
C1082 C1086 1.423 . S
C1082 C1094 1.392 . S
C1083 C1085 1.420 . S
C1083 C1086 1.351 . S
C1083 H1106 0.931 . S
C1084 C1081 1.429 . S
C1084 C1082 1.420 . S
C1084 N1092 1.362 . S
C1085 C1081 1.411 . S
C1085 C1083 1.420 . S
C1085 C1090 1.395 . S
C1086 C1082 1.423 . S
C1086 C1083 1.351 . S
C1086 H1098 0.930 . S
C1087 C1089 1.400 . S
C1087 C1090 1.386 . S
C1087 H1099 0.930 . S
N1088 C1081 1.377 . S
N1088 C1089 1.321 . S
N1088 Eu1091 2.609 . S
C1089 C1087 1.400 . S
C1089 N1088 1.321 . S
C1089 H1096 0.930 . S
C1090 C1085 1.395 . S
C1090 C1087 1.386 . S
C1090 H1109 0.930 . S
Eu1091 N1088 2.609 . S
Eu1091 N1092 2.657 . S
Eu1091 O1125 2.380 1_554 S
Eu1091 O1126 2.432 . S
Eu1091 O1130 2.558 . S
Eu1091 O1131 2.612 1_545 S
Eu1091 O1133 2.339 1_545 S
Eu1091 O1134 2.563 1_545 S
Eu1091 O1135 2.419 . S
Eu1091 C1155 2.848 . S
N1092 C1084 1.362 . S
N1092 Eu1091 2.657 . S
N1092 C1093 1.334 . S
C1093 N1092 1.334 . S
C1093 C1095 1.413 . S
C1093 H1100 0.929 . S
C1094 C1082 1.392 . S
C1094 C1095 1.367 . S
C1094 H1102 0.930 . S
C1095 C1093 1.413 . S
C1095 C1094 1.367 . S
C1095 H1097 0.930 . S
H1096 C1089 0.930 . S
H1097 C1095 0.930 . S
H1098 C1086 0.930 . S
H1099 C1087 0.930 . S
H1100 C1093 0.929 . S
H1101 C1115 0.930 . S
H1102 C1094 0.930 . S
H1103 C1121 0.930 . S
H1104 C1112 0.929 . S
H1105 C1119 0.930 . S
H1106 C1083 0.931 . S
H1107 C1113 0.930 . S
H1108 C1146 0.930 . S
H1109 C1090 0.930 . S
H1110 C1145 0.931 . S
N1111 Eu1080 2.657 . S
N1111 C1112 1.334 . S
N1111 C1116 1.362 . S
C1112 H1104 0.929 . S
C1112 N1111 1.334 . S
C1112 C1115 1.413 . S
C1113 H1107 0.930 . S
C1113 C1114 1.392 . S
C1113 C1115 1.367 . S
C1114 C1113 1.392 . S
C1114 C1116 1.420 . S
C1114 C1146 1.423 . S
C1115 H1101 0.930 . S
C1115 C1112 1.413 . S
C1115 C1113 1.367 . S
C1116 N1111 1.362 . S
C1116 C1114 1.420 . S
C1116 C1120 1.429 . S
H1117 C1122 0.930 . S
N1118 Eu1080 2.609 . S
N1118 C1120 1.377 . S
N1118 C1121 1.321 . S
C1119 H1105 0.930 . S
C1119 C1121 1.400 . S
C1119 C1122 1.386 . S
C1120 C1116 1.429 . S
C1120 N1118 1.377 . S
C1120 C1123 1.411 . S
C1121 H1103 0.930 . S
C1121 N1118 1.321 . S
C1121 C1119 1.400 . S
C1122 H1117 0.930 . S
C1122 C1119 1.386 . S
C1122 C1123 1.395 . S
C1123 C1120 1.411 . S
C1123 C1122 1.395 . S
C1123 C1145 1.420 . S
O1124 Eu1080 2.558 . S
O1124 C1144 1.257 . S
O1125 Eu1080 2.612 1_545 S
O1125 Eu1091 2.380 1_556 S
O1125 C1136 1.276 . S
O1126 Eu1091 2.432 . S
O1126 C1143 1.264 1_554 S
O1127 Eu1080 2.339 1_545 S
O1127 C1143 1.254 . S
O1128 Eu1080 2.563 1_545 S
O1128 C1136 1.235 . S
O1129 Eu1080 2.419 . S
O1129 C1144 1.249 . S
O1130 Eu1091 2.558 . S
O1130 C1155 1.257 . S
O1131 Eu1080 2.380 1_554 S
O1131 Eu1091 2.612 1_565 S
O1131 C1147 1.276 . S
O1132 Eu1080 2.432 . S
O1132 C1154 1.264 1_556 S
O1133 Eu1091 2.339 1_565 S
O1133 C1154 1.254 . S
O1134 Eu1091 2.563 1_565 S
O1134 C1147 1.235 . S
O1135 Eu1091 2.419 . S
O1135 C1155 1.249 . S
C1136 O1125 1.276 . S
C1136 O1128 1.235 . S
C1137 C1139 1.393 1_565 S
C1137 C1141 1.395 . S
C1137 C1144 1.492 . S
C1138 C1139 1.392 . S
C1138 C1140 1.386 1_545 S
C1139 C1137 1.393 1_545 S
C1139 C1138 1.392 . S
C1139 H1156 0.930 . S
C1140 C1138 1.386 1_565 S
C1140 C1142 1.395 . S
C1140 H1157 0.930 . S
C1141 C1137 1.395 . S
C1141 C1142 1.379 . S
C1141 H1158 0.930 . S
C1142 C1140 1.395 . S
C1142 C1141 1.379 . S
C1142 H1159 0.930 . S
C1143 O1126 1.264 1_556 S
C1143 O1127 1.254 . S
C1144 Eu1080 2.848 . S
C1144 O1124 1.257 . S
C1144 O1129 1.249 . S
C1144 C1137 1.492 . S
C1145 H1110 0.931 . S
C1145 C1123 1.420 . S
C1145 C1146 1.351 . S
C1146 H1108 0.930 . S
C1146 C1114 1.423 . S
C1146 C1145 1.351 . S
C1147 O1131 1.276 . S
C1147 O1134 1.235 . S
C1148 C1149 1.393 1_545 S
C1148 C1152 1.395 . S
C1148 C1155 1.492 . S
C1149 C1148 1.393 1_565 S
C1149 C1150 1.392 . S
C1149 H1160 0.930 . S
C1150 C1149 1.392 . S
C1150 C1151 1.386 1_565 S
C1151 C1150 1.386 1_545 S
C1151 C1153 1.395 . S
C1151 H1161 0.930 . S
C1152 C1148 1.395 . S
C1152 C1153 1.379 . S
C1152 H1162 0.930 . S
C1153 C1151 1.395 . S
C1153 C1152 1.379 . S
C1153 H1163 0.930 . S
C1154 O1132 1.264 1_554 S
C1154 O1133 1.254 . S
C1155 Eu1091 2.848 . S
C1155 O1130 1.257 . S
C1155 O1135 1.249 . S
C1155 C1148 1.492 . S
H1156 C1139 0.930 . S
H1157 C1140 0.930 . S
H1158 C1141 0.930 . S
H1159 C1142 0.930 . S
H1160 C1149 0.930 . S
H1161 C1151 0.930 . S
H1162 C1152 0.930 . S
H1163 C1153 0.930 . S
Eu1164 N1195 2.657 . S
Eu1164 N1202 2.609 . S
Eu1164 O1208 2.558 . S
Eu1164 O1209 2.612 1_455 S
Eu1164 O1211 2.339 1_455 S
Eu1164 O1212 2.563 1_455 S
Eu1164 O1213 2.419 . S
Eu1164 O1215 2.380 1_556 S
Eu1164 O1216 2.432 . S
Eu1164 C1228 2.848 . S
C1165 C1168 1.429 . S
C1165 C1169 1.411 . S
C1165 N1172 1.377 . S
C1166 C1168 1.420 . S
C1166 C1170 1.423 . S
C1166 C1178 1.392 . S
C1167 C1169 1.420 . S
C1167 C1170 1.351 . S
C1167 H1190 0.931 . S
C1168 C1165 1.429 . S
C1168 C1166 1.420 . S
C1168 N1176 1.362 . S
C1169 C1165 1.411 . S
C1169 C1167 1.420 . S
C1169 C1174 1.395 . S
C1170 C1166 1.423 . S
C1170 C1167 1.351 . S
C1170 H1182 0.930 . S
C1171 C1173 1.400 . S
C1171 C1174 1.386 . S
C1171 H1183 0.930 . S
N1172 C1165 1.377 . S
N1172 C1173 1.321 . S
N1172 Eu1175 2.609 . S
C1173 C1171 1.400 . S
C1173 N1172 1.321 . S
C1173 H1180 0.930 . S
C1174 C1169 1.395 . S
C1174 C1171 1.386 . S
C1174 H1193 0.930 . S
Eu1175 N1172 2.609 . S
Eu1175 N1176 2.657 . S
Eu1175 O1209 2.380 1_554 S
Eu1175 O1210 2.432 . S
Eu1175 O1214 2.558 . S
Eu1175 O1215 2.612 1_655 S
Eu1175 O1217 2.339 1_655 S
Eu1175 O1218 2.563 1_655 S
Eu1175 O1219 2.419 . S
Eu1175 C1239 2.848 . S
N1176 C1168 1.362 . S
N1176 Eu1175 2.657 . S
N1176 C1177 1.334 . S
C1177 N1176 1.334 . S
C1177 C1179 1.413 . S
C1177 H1184 0.929 . S
C1178 C1166 1.392 . S
C1178 C1179 1.367 . S
C1178 H1186 0.930 . S
C1179 C1177 1.413 . S
C1179 C1178 1.367 . S
C1179 H1181 0.930 . S
H1180 C1173 0.930 . S
H1181 C1179 0.930 . S
H1182 C1170 0.930 . S
H1183 C1171 0.930 . S
H1184 C1177 0.929 . S
H1185 C1199 0.930 . S
H1186 C1178 0.930 . S
H1187 C1205 0.930 . S
H1188 C1196 0.929 . S
H1189 C1203 0.930 . S
H1190 C1167 0.931 . S
H1191 C1197 0.930 . S
H1192 C1230 0.930 . S
H1193 C1174 0.930 . S
H1194 C1229 0.931 . S
N1195 Eu1164 2.657 . S
N1195 C1196 1.334 . S
N1195 C1200 1.362 . S
C1196 H1188 0.929 . S
C1196 N1195 1.334 . S
C1196 C1199 1.413 . S
C1197 H1191 0.930 . S
C1197 C1198 1.392 . S
C1197 C1199 1.367 . S
C1198 C1197 1.392 . S
C1198 C1200 1.420 . S
C1198 C1230 1.423 . S
C1199 H1185 0.930 . S
C1199 C1196 1.413 . S
C1199 C1197 1.367 . S
C1200 N1195 1.362 . S
C1200 C1198 1.420 . S
C1200 C1204 1.429 . S
H1201 C1206 0.930 . S
N1202 Eu1164 2.609 . S
N1202 C1204 1.377 . S
N1202 C1205 1.321 . S
C1203 H1189 0.930 . S
C1203 C1205 1.400 . S
C1203 C1206 1.386 . S
C1204 C1200 1.429 . S
C1204 N1202 1.377 . S
C1204 C1207 1.411 . S
C1205 H1187 0.930 . S
C1205 N1202 1.321 . S
C1205 C1203 1.400 . S
C1206 H1201 0.930 . S
C1206 C1203 1.386 . S
C1206 C1207 1.395 . S
C1207 C1204 1.411 . S
C1207 C1206 1.395 . S
C1207 C1229 1.420 . S
O1208 Eu1164 2.558 . S
O1208 C1228 1.257 . S
O1209 Eu1164 2.612 1_655 S
O1209 Eu1175 2.380 1_556 S
O1209 C1220 1.276 . S
O1210 Eu1175 2.432 . S
O1210 C1227 1.264 1_554 S
O1211 Eu1164 2.339 1_655 S
O1211 C1227 1.254 . S
O1212 Eu1164 2.563 1_655 S
O1212 C1220 1.235 . S
O1213 Eu1164 2.419 . S
O1213 C1228 1.249 . S
O1214 Eu1175 2.558 . S
O1214 C1239 1.257 . S
O1215 Eu1164 2.380 1_554 S
O1215 Eu1175 2.612 1_455 S
O1215 C1231 1.276 . S
O1216 Eu1164 2.432 . S
O1216 C1238 1.264 1_556 S
O1217 Eu1175 2.339 1_455 S
O1217 C1238 1.254 . S
O1218 Eu1175 2.563 1_455 S
O1218 C1231 1.235 . S
O1219 Eu1175 2.419 . S
O1219 C1239 1.249 . S
C1220 O1209 1.276 . S
C1220 O1212 1.235 . S
C1221 C1223 1.393 1_455 S
C1221 C1225 1.395 . S
C1221 C1228 1.492 . S
C1222 C1223 1.392 . S
C1222 C1224 1.386 1_655 S
C1223 C1221 1.393 1_655 S
C1223 C1222 1.392 . S
C1223 H1240 0.930 . S
C1224 C1222 1.386 1_455 S
C1224 C1226 1.395 . S
C1224 H1241 0.930 . S
C1225 C1221 1.395 . S
C1225 C1226 1.379 . S
C1225 H1242 0.930 . S
C1226 C1224 1.395 . S
C1226 C1225 1.379 . S
C1226 H1243 0.930 . S
C1227 O1210 1.264 1_556 S
C1227 O1211 1.254 . S
C1228 Eu1164 2.848 . S
C1228 O1208 1.257 . S
C1228 O1213 1.249 . S
C1228 C1221 1.492 . S
C1229 H1194 0.931 . S
C1229 C1207 1.420 . S
C1229 C1230 1.351 . S
C1230 H1192 0.930 . S
C1230 C1198 1.423 . S
C1230 C1229 1.351 . S
C1231 O1215 1.276 . S
C1231 O1218 1.235 . S
C1232 C1233 1.393 1_655 S
C1232 C1236 1.395 . S
C1232 C1239 1.492 . S
C1233 C1232 1.393 1_455 S
C1233 C1234 1.392 . S
C1233 H1244 0.930 . S
C1234 C1233 1.392 . S
C1234 C1235 1.386 1_455 S
C1235 C1234 1.386 1_655 S
C1235 C1237 1.395 . S
C1235 H1245 0.930 . S
C1236 C1232 1.395 . S
C1236 C1237 1.379 . S
C1236 H1246 0.930 . S
C1237 C1235 1.395 . S
C1237 C1236 1.379 . S
C1237 H1247 0.930 . S
C1238 O1216 1.264 1_554 S
C1238 O1217 1.254 . S
C1239 Eu1175 2.848 . S
C1239 O1214 1.257 . S
C1239 O1219 1.249 . S
C1239 C1232 1.492 . S
H1240 C1223 0.930 . S
H1241 C1224 0.930 . S
H1242 C1225 0.930 . S
H1243 C1226 0.930 . S
H1244 C1233 0.930 . S
H1245 C1235 0.930 . S
H1246 C1236 0.930 . S
H1247 C1237 0.930 . S
Eu1248 N1279 2.657 . S
Eu1248 N1286 2.609 . S
Eu1248 O1292 2.558 . S
Eu1248 O1293 2.612 . S
Eu1248 O1295 2.339 . S
Eu1248 O1296 2.563 . S
Eu1248 O1297 2.419 . S
Eu1248 O1299 2.380 1_554 S
Eu1248 O1300 2.432 . S
Eu1248 C1312 2.848 . S
C1249 C1252 1.429 . S
C1249 C1253 1.411 . S
C1249 N1256 1.377 . S
C1250 C1252 1.420 . S
C1250 C1254 1.423 . S
C1250 C1262 1.392 . S
C1251 C1253 1.420 . S
C1251 C1254 1.351 . S
C1251 H1274 0.931 . S
C1252 C1249 1.429 . S
C1252 C1250 1.420 . S
C1252 N1260 1.362 . S
C1253 C1249 1.411 . S
C1253 C1251 1.420 . S
C1253 C1258 1.395 . S
C1254 C1250 1.423 . S
C1254 C1251 1.351 . S
C1254 H1266 0.930 . S
C1255 C1257 1.400 . S
C1255 C1258 1.386 . S
C1255 H1267 0.930 . S
N1256 C1249 1.377 . S
N1256 C1257 1.321 . S
N1256 Eu1259 2.609 . S
C1257 C1255 1.400 . S
C1257 N1256 1.321 . S
C1257 H1264 0.930 . S
C1258 C1253 1.395 . S
C1258 C1255 1.386 . S
C1258 H1277 0.930 . S
Eu1259 N1256 2.609 . S
Eu1259 N1260 2.657 . S
Eu1259 O1293 2.380 1_556 S
Eu1259 O1294 2.432 . S
Eu1259 O1298 2.558 . S
Eu1259 O1299 2.612 . S
Eu1259 O1301 2.339 . S
Eu1259 O1302 2.563 . S
Eu1259 O1303 2.419 . S
Eu1259 C1323 2.848 . S
N1260 C1252 1.362 . S
N1260 Eu1259 2.657 . S
N1260 C1261 1.334 . S
C1261 N1260 1.334 . S
C1261 C1263 1.413 . S
C1261 H1268 0.929 . S
C1262 C1250 1.392 . S
C1262 C1263 1.367 . S
C1262 H1270 0.930 . S
C1263 C1261 1.413 . S
C1263 C1262 1.367 . S
C1263 H1265 0.930 . S
H1264 C1257 0.930 . S
H1265 C1263 0.930 . S
H1266 C1254 0.930 . S
H1267 C1255 0.930 . S
H1268 C1261 0.929 . S
H1269 C1283 0.930 . S
H1270 C1262 0.930 . S
H1271 C1289 0.930 . S
H1272 C1280 0.929 . S
H1273 C1287 0.930 . S
H1274 C1251 0.931 . S
H1275 C1281 0.930 . S
H1276 C1314 0.930 . S
H1277 C1258 0.930 . S
H1278 C1313 0.931 . S
N1279 Eu1248 2.657 . S
N1279 C1280 1.334 . S
N1279 C1284 1.362 . S
C1280 H1272 0.929 . S
C1280 N1279 1.334 . S
C1280 C1283 1.413 . S
C1281 H1275 0.930 . S
C1281 C1282 1.392 . S
C1281 C1283 1.367 . S
C1282 C1281 1.392 . S
C1282 C1284 1.420 . S
C1282 C1314 1.423 . S
C1283 H1269 0.930 . S
C1283 C1280 1.413 . S
C1283 C1281 1.367 . S
C1284 N1279 1.362 . S
C1284 C1282 1.420 . S
C1284 C1288 1.429 . S
H1285 C1290 0.930 . S
N1286 Eu1248 2.609 . S
N1286 C1288 1.377 . S
N1286 C1289 1.321 . S
C1287 H1273 0.930 . S
C1287 C1289 1.400 . S
C1287 C1290 1.386 . S
C1288 C1284 1.429 . S
C1288 N1286 1.377 . S
C1288 C1291 1.411 . S
C1289 H1271 0.930 . S
C1289 N1286 1.321 . S
C1289 C1287 1.400 . S
C1290 H1285 0.930 . S
C1290 C1287 1.386 . S
C1290 C1291 1.395 . S
C1291 C1288 1.411 . S
C1291 C1290 1.395 . S
C1291 C1313 1.420 . S
O1292 Eu1248 2.558 . S
O1292 C1312 1.257 . S
O1293 Eu1248 2.612 . S
O1293 Eu1259 2.380 1_554 S
O1293 C1304 1.276 . S
O1294 Eu1259 2.432 . S
O1294 C1311 1.264 1_556 S
O1295 Eu1248 2.339 . S
O1295 C1311 1.254 . S
O1296 Eu1248 2.563 . S
O1296 C1304 1.235 . S
O1297 Eu1248 2.419 . S
O1297 C1312 1.249 . S
O1298 Eu1259 2.558 . S
O1298 C1323 1.257 . S
O1299 Eu1248 2.380 1_556 S
O1299 Eu1259 2.612 . S
O1299 C1315 1.276 . S
O1300 Eu1248 2.432 . S
O1300 C1322 1.264 1_554 S
O1301 Eu1259 2.339 . S
O1301 C1322 1.254 . S
O1302 Eu1259 2.563 . S
O1302 C1315 1.235 . S
O1303 Eu1259 2.419 . S
O1303 C1323 1.249 . S
C1304 O1293 1.276 . S
C1304 O1296 1.235 . S
C1305 C1307 1.393 . S
C1305 C1309 1.395 . S
C1305 C1312 1.492 . S
C1306 C1307 1.392 . S
C1306 C1308 1.386 . S
C1307 C1305 1.393 . S
C1307 C1306 1.392 . S
C1307 H1324 0.930 . S
C1308 C1306 1.386 . S
C1308 C1310 1.395 . S
C1308 H1325 0.930 . S
C1309 C1305 1.395 . S
C1309 C1310 1.379 . S
C1309 H1326 0.930 . S
C1310 C1308 1.395 . S
C1310 C1309 1.379 . S
C1310 H1327 0.930 . S
C1311 O1294 1.264 1_554 S
C1311 O1295 1.254 . S
C1312 Eu1248 2.848 . S
C1312 O1292 1.257 . S
C1312 O1297 1.249 . S
C1312 C1305 1.492 . S
C1313 H1278 0.931 . S
C1313 C1291 1.420 . S
C1313 C1314 1.351 . S
C1314 H1276 0.930 . S
C1314 C1282 1.423 . S
C1314 C1313 1.351 . S
C1315 O1299 1.276 . S
C1315 O1302 1.235 . S
C1316 C1317 1.393 . S
C1316 C1320 1.395 . S
C1316 C1323 1.492 . S
C1317 C1316 1.393 . S
C1317 C1318 1.392 . S
C1317 H1328 0.930 . S
C1318 C1317 1.392 . S
C1318 C1319 1.386 . S
C1319 C1318 1.386 . S
C1319 C1321 1.395 . S
C1319 H1329 0.930 . S
C1320 C1316 1.395 . S
C1320 C1321 1.379 . S
C1320 H1330 0.930 . S
C1321 C1319 1.395 . S
C1321 C1320 1.379 . S
C1321 H1331 0.930 . S
C1322 O1300 1.264 1_556 S
C1322 O1301 1.254 . S
C1323 Eu1259 2.848 . S
C1323 O1298 1.257 . S
C1323 O1303 1.249 . S
C1323 C1316 1.492 . S
H1324 C1307 0.930 . S
H1325 C1308 0.930 . S
H1326 C1309 0.930 . S
H1327 C1310 0.930 . S
H1328 C1317 0.930 . S
H1329 C1319 0.930 . S
H1330 C1320 0.930 . S
H1331 C1321 0.930 . S
Eu1332 N1363 2.657 . S
Eu1332 N1370 2.609 . S
Eu1332 O1376 2.558 . S
Eu1332 O1377 2.612 . S
Eu1332 O1379 2.339 . S
Eu1332 O1380 2.563 . S
Eu1332 O1381 2.419 . S
Eu1332 O1383 2.380 . S
Eu1332 O1384 2.432 . S
Eu1332 C1396 2.848 . S
C1333 C1336 1.429 . S
C1333 C1337 1.411 . S
C1333 N1340 1.377 . S
C1334 C1336 1.420 . S
C1334 C1338 1.423 . S
C1334 C1346 1.392 . S
C1335 C1337 1.420 . S
C1335 C1338 1.351 . S
C1335 H1358 0.931 . S
C1336 C1333 1.429 . S
C1336 C1334 1.420 . S
C1336 N1344 1.362 . S
C1337 C1333 1.411 . S
C1337 C1335 1.420 . S
C1337 C1342 1.395 . S
C1338 C1334 1.423 . S
C1338 C1335 1.351 . S
C1338 H1350 0.930 . S
C1339 C1341 1.400 . S
C1339 C1342 1.386 . S
C1339 H1351 0.930 . S
N1340 C1333 1.377 . S
N1340 C1341 1.321 . S
N1340 Eu1343 2.609 . S
C1341 C1339 1.400 . S
C1341 N1340 1.321 . S
C1341 H1348 0.930 . S
C1342 C1337 1.395 . S
C1342 C1339 1.386 . S
C1342 H1361 0.930 . S
Eu1343 N1340 2.609 . S
Eu1343 N1344 2.657 . S
Eu1343 O1377 2.380 . S
Eu1343 O1378 2.432 . S
Eu1343 O1382 2.558 . S
Eu1343 O1383 2.612 . S
Eu1343 O1385 2.339 . S
Eu1343 O1386 2.563 . S
Eu1343 O1387 2.419 . S
Eu1343 C1407 2.848 . S
N1344 C1336 1.362 . S
N1344 Eu1343 2.657 . S
N1344 C1345 1.334 . S
C1345 N1344 1.334 . S
C1345 C1347 1.413 . S
C1345 H1352 0.929 . S
C1346 C1334 1.392 . S
C1346 C1347 1.367 . S
C1346 H1354 0.930 . S
C1347 C1345 1.413 . S
C1347 C1346 1.367 . S
C1347 H1349 0.930 . S
H1348 C1341 0.930 . S
H1349 C1347 0.930 . S
H1350 C1338 0.930 . S
H1351 C1339 0.930 . S
H1352 C1345 0.929 . S
H1353 C1367 0.930 . S
H1354 C1346 0.930 . S
H1355 C1373 0.930 . S
H1356 C1364 0.929 . S
H1357 C1371 0.930 . S
H1358 C1335 0.931 . S
H1359 C1365 0.930 . S
H1360 C1398 0.930 . S
H1361 C1342 0.930 . S
H1362 C1397 0.931 . S
N1363 Eu1332 2.657 . S
N1363 C1364 1.334 . S
N1363 C1368 1.362 . S
C1364 H1356 0.929 . S
C1364 N1363 1.334 . S
C1364 C1367 1.413 . S
C1365 H1359 0.930 . S
C1365 C1366 1.392 . S
C1365 C1367 1.367 . S
C1366 C1365 1.392 . S
C1366 C1368 1.420 . S
C1366 C1398 1.423 . S
C1367 H1353 0.930 . S
C1367 C1364 1.413 . S
C1367 C1365 1.367 . S
C1368 N1363 1.362 . S
C1368 C1366 1.420 . S
C1368 C1372 1.429 . S
H1369 C1374 0.930 . S
N1370 Eu1332 2.609 . S
N1370 C1372 1.377 . S
N1370 C1373 1.321 . S
C1371 H1357 0.930 . S
C1371 C1373 1.400 . S
C1371 C1374 1.386 . S
C1372 C1368 1.429 . S
C1372 N1370 1.377 . S
C1372 C1375 1.411 . S
C1373 H1355 0.930 . S
C1373 N1370 1.321 . S
C1373 C1371 1.400 . S
C1374 H1369 0.930 . S
C1374 C1371 1.386 . S
C1374 C1375 1.395 . S
C1375 C1372 1.411 . S
C1375 C1374 1.395 . S
C1375 C1397 1.420 . S
O1376 Eu1332 2.558 . S
O1376 C1396 1.257 . S
O1377 Eu1332 2.612 . S
O1377 Eu1343 2.380 . S
O1377 C1388 1.276 . S
O1378 Eu1343 2.432 . S
O1378 C1395 1.264 . S
O1379 Eu1332 2.339 . S
O1379 C1395 1.254 . S
O1380 Eu1332 2.563 . S
O1380 C1388 1.235 . S
O1381 Eu1332 2.419 . S
O1381 C1396 1.249 . S
O1382 Eu1343 2.558 . S
O1382 C1407 1.257 . S
O1383 Eu1332 2.380 . S
O1383 Eu1343 2.612 . S
O1383 C1399 1.276 . S
O1384 Eu1332 2.432 . S
O1384 C1406 1.264 . S
O1385 Eu1343 2.339 . S
O1385 C1406 1.254 . S
O1386 Eu1343 2.563 . S
O1386 C1399 1.235 . S
O1387 Eu1343 2.419 . S
O1387 C1407 1.249 . S
C1388 O1377 1.276 . S
C1388 O1380 1.235 . S
C1389 C1391 1.393 . S
C1389 C1393 1.395 . S
C1389 C1396 1.492 . S
C1390 C1391 1.392 . S
C1390 C1392 1.386 . S
C1391 C1389 1.393 . S
C1391 C1390 1.392 . S
C1391 H1408 0.930 . S
C1392 C1390 1.386 . S
C1392 C1394 1.395 . S
C1392 H1409 0.930 . S
C1393 C1389 1.395 . S
C1393 C1394 1.379 . S
C1393 H1410 0.930 . S
C1394 C1392 1.395 . S
C1394 C1393 1.379 . S
C1394 H1411 0.930 . S
C1395 O1378 1.264 . S
C1395 O1379 1.254 . S
C1396 Eu1332 2.848 . S
C1396 O1376 1.257 . S
C1396 O1381 1.249 . S
C1396 C1389 1.492 . S
C1397 H1362 0.931 . S
C1397 C1375 1.420 . S
C1397 C1398 1.351 . S
C1398 H1360 0.930 . S
C1398 C1366 1.423 . S
C1398 C1397 1.351 . S
C1399 O1383 1.276 . S
C1399 O1386 1.235 . S
C1400 C1401 1.393 . S
C1400 C1404 1.395 . S
C1400 C1407 1.492 . S
C1401 C1400 1.393 . S
C1401 C1402 1.392 . S
C1401 H1412 0.930 . S
C1402 C1401 1.392 . S
C1402 C1403 1.386 . S
C1403 C1402 1.386 . S
C1403 C1405 1.395 . S
C1403 H1413 0.930 . S
C1404 C1400 1.395 . S
C1404 C1405 1.379 . S
C1404 H1414 0.930 . S
C1405 C1403 1.395 . S
C1405 C1404 1.379 . S
C1405 H1415 0.930 . S
C1406 O1384 1.264 . S
C1406 O1385 1.254 . S
C1407 Eu1343 2.848 . S
C1407 O1382 1.257 . S
C1407 O1387 1.249 . S
C1407 C1400 1.492 . S
H1408 C1391 0.930 . S
H1409 C1392 0.930 . S
H1410 C1393 0.930 . S
H1411 C1394 0.930 . S
H1412 C1401 0.930 . S
H1413 C1403 0.930 . S
H1414 C1404 0.930 . S
H1415 C1405 0.930 . S
Eu1416 N1447 2.657 . S
Eu1416 N1454 2.609 . S
Eu1416 O1460 2.558 . S
Eu1416 O1461 2.612 . S
Eu1416 O1463 2.339 . S
Eu1416 O1464 2.563 . S
Eu1416 O1465 2.419 . S
Eu1416 O1467 2.380 . S
Eu1416 O1468 2.432 . S
Eu1416 C1480 2.848 . S
C1417 C1420 1.429 . S
C1417 C1421 1.411 . S
C1417 N1424 1.377 . S
C1418 C1420 1.420 . S
C1418 C1422 1.423 . S
C1418 C1430 1.392 . S
C1419 C1421 1.420 . S
C1419 C1422 1.351 . S
C1419 H1442 0.931 . S
C1420 C1417 1.429 . S
C1420 C1418 1.420 . S
C1420 N1428 1.362 . S
C1421 C1417 1.411 . S
C1421 C1419 1.420 . S
C1421 C1426 1.395 . S
C1422 C1418 1.423 . S
C1422 C1419 1.351 . S
C1422 H1434 0.930 . S
C1423 C1425 1.400 . S
C1423 C1426 1.386 . S
C1423 H1435 0.930 . S
N1424 C1417 1.377 . S
N1424 C1425 1.321 . S
N1424 Eu1427 2.609 . S
C1425 C1423 1.400 . S
C1425 N1424 1.321 . S
C1425 H1432 0.930 . S
C1426 C1421 1.395 . S
C1426 C1423 1.386 . S
C1426 H1445 0.930 . S
Eu1427 N1424 2.609 . S
Eu1427 N1428 2.657 . S
Eu1427 O1461 2.380 . S
Eu1427 O1462 2.432 . S
Eu1427 O1466 2.558 . S
Eu1427 O1467 2.612 . S
Eu1427 O1469 2.339 . S
Eu1427 O1470 2.563 . S
Eu1427 O1471 2.419 . S
Eu1427 C1491 2.848 . S
N1428 C1420 1.362 . S
N1428 Eu1427 2.657 . S
N1428 C1429 1.334 . S
C1429 N1428 1.334 . S
C1429 C1431 1.413 . S
C1429 H1436 0.929 . S
C1430 C1418 1.392 . S
C1430 C1431 1.367 . S
C1430 H1438 0.930 . S
C1431 C1429 1.413 . S
C1431 C1430 1.367 . S
C1431 H1433 0.930 . S
H1432 C1425 0.930 . S
H1433 C1431 0.930 . S
H1434 C1422 0.930 . S
H1435 C1423 0.930 . S
H1436 C1429 0.929 . S
H1437 C1451 0.930 . S
H1438 C1430 0.930 . S
H1439 C1457 0.930 . S
H1440 C1448 0.929 . S
H1441 C1455 0.930 . S
H1442 C1419 0.931 . S
H1443 C1449 0.930 . S
H1444 C1482 0.930 . S
H1445 C1426 0.930 . S
H1446 C1481 0.931 . S
N1447 Eu1416 2.657 . S
N1447 C1448 1.334 . S
N1447 C1452 1.362 . S
C1448 H1440 0.929 . S
C1448 N1447 1.334 . S
C1448 C1451 1.413 . S
C1449 H1443 0.930 . S
C1449 C1450 1.392 . S
C1449 C1451 1.367 . S
C1450 C1449 1.392 . S
C1450 C1452 1.420 . S
C1450 C1482 1.423 . S
C1451 H1437 0.930 . S
C1451 C1448 1.413 . S
C1451 C1449 1.367 . S
C1452 N1447 1.362 . S
C1452 C1450 1.420 . S
C1452 C1456 1.429 . S
H1453 C1458 0.930 . S
N1454 Eu1416 2.609 . S
N1454 C1456 1.377 . S
N1454 C1457 1.321 . S
C1455 H1441 0.930 . S
C1455 C1457 1.400 . S
C1455 C1458 1.386 . S
C1456 C1452 1.429 . S
C1456 N1454 1.377 . S
C1456 C1459 1.411 . S
C1457 H1439 0.930 . S
C1457 N1454 1.321 . S
C1457 C1455 1.400 . S
C1458 H1453 0.930 . S
C1458 C1455 1.386 . S
C1458 C1459 1.395 . S
C1459 C1456 1.411 . S
C1459 C1458 1.395 . S
C1459 C1481 1.420 . S
O1460 Eu1416 2.558 . S
O1460 C1480 1.257 . S
O1461 Eu1416 2.612 . S
O1461 Eu1427 2.380 . S
O1461 C1472 1.276 . S
O1462 Eu1427 2.432 . S
O1462 C1479 1.264 . S
O1463 Eu1416 2.339 . S
O1463 C1479 1.254 . S
O1464 Eu1416 2.563 . S
O1464 C1472 1.235 . S
O1465 Eu1416 2.419 . S
O1465 C1480 1.249 . S
O1466 Eu1427 2.558 . S
O1466 C1491 1.257 . S
O1467 Eu1416 2.380 . S
O1467 Eu1427 2.612 . S
O1467 C1483 1.276 . S
O1468 Eu1416 2.432 . S
O1468 C1490 1.264 . S
O1469 Eu1427 2.339 . S
O1469 C1490 1.254 . S
O1470 Eu1427 2.563 . S
O1470 C1483 1.235 . S
O1471 Eu1427 2.419 . S
O1471 C1491 1.249 . S
C1472 O1461 1.276 . S
C1472 O1464 1.235 . S
C1473 C1475 1.393 . S
C1473 C1477 1.395 . S
C1473 C1480 1.492 . S
C1474 C1475 1.392 . S
C1474 C1476 1.386 . S
C1475 C1473 1.393 . S
C1475 C1474 1.392 . S
C1475 H1492 0.930 . S
C1476 C1474 1.386 . S
C1476 C1478 1.395 . S
C1476 H1493 0.930 . S
C1477 C1473 1.395 . S
C1477 C1478 1.379 . S
C1477 H1494 0.930 . S
C1478 C1476 1.395 . S
C1478 C1477 1.379 . S
C1478 H1495 0.930 . S
C1479 O1462 1.264 . S
C1479 O1463 1.254 . S
C1480 Eu1416 2.848 . S
C1480 O1460 1.257 . S
C1480 O1465 1.249 . S
C1480 C1473 1.492 . S
C1481 H1446 0.931 . S
C1481 C1459 1.420 . S
C1481 C1482 1.351 . S
C1482 H1444 0.930 . S
C1482 C1450 1.423 . S
C1482 C1481 1.351 . S
C1483 O1467 1.276 . S
C1483 O1470 1.235 . S
C1484 C1485 1.393 . S
C1484 C1488 1.395 . S
C1484 C1491 1.492 . S
C1485 C1484 1.393 . S
C1485 C1486 1.392 . S
C1485 H1496 0.930 . S
C1486 C1485 1.392 . S
C1486 C1487 1.386 . S
C1487 C1486 1.386 . S
C1487 C1489 1.395 . S
C1487 H1497 0.930 . S
C1488 C1484 1.395 . S
C1488 C1489 1.379 . S
C1488 H1498 0.930 . S
C1489 C1487 1.395 . S
C1489 C1488 1.379 . S
C1489 H1499 0.930 . S
C1490 O1468 1.264 . S
C1490 O1469 1.254 . S
C1491 Eu1427 2.848 . S
C1491 O1466 1.257 . S
C1491 O1471 1.249 . S
C1491 C1484 1.492 . S
H1492 C1475 0.930 . S
H1493 C1476 0.930 . S
H1494 C1477 0.930 . S
H1495 C1478 0.930 . S
H1496 C1485 0.930 . S
H1497 C1487 0.930 . S
H1498 C1488 0.930 . S
H1499 C1489 0.930 . S
Eu1500 N1531 2.657 . S
Eu1500 N1538 2.609 . S
Eu1500 O1544 2.558 . S
Eu1500 O1545 2.612 . S
Eu1500 O1547 2.339 . S
Eu1500 O1548 2.563 . S
Eu1500 O1549 2.419 . S
Eu1500 O1551 2.380 . S
Eu1500 O1552 2.432 . S
Eu1500 C1564 2.848 . S
C1501 C1504 1.429 . S
C1501 C1505 1.411 . S
C1501 N1508 1.377 . S
C1502 C1504 1.420 . S
C1502 C1506 1.423 . S
C1502 C1514 1.392 . S
C1503 C1505 1.420 . S
C1503 C1506 1.351 . S
C1503 H1526 0.931 . S
C1504 C1501 1.429 . S
C1504 C1502 1.420 . S
C1504 N1512 1.362 . S
C1505 C1501 1.411 . S
C1505 C1503 1.420 . S
C1505 C1510 1.395 . S
C1506 C1502 1.423 . S
C1506 C1503 1.351 . S
C1506 H1518 0.930 . S
C1507 C1509 1.400 . S
C1507 C1510 1.386 . S
C1507 H1519 0.930 . S
N1508 C1501 1.377 . S
N1508 C1509 1.321 . S
N1508 Eu1511 2.609 . S
C1509 C1507 1.400 . S
C1509 N1508 1.321 . S
C1509 H1516 0.930 . S
C1510 C1505 1.395 . S
C1510 C1507 1.386 . S
C1510 H1529 0.930 . S
Eu1511 N1508 2.609 . S
Eu1511 N1512 2.657 . S
Eu1511 O1545 2.380 . S
Eu1511 O1546 2.432 . S
Eu1511 O1550 2.558 . S
Eu1511 O1551 2.612 . S
Eu1511 O1553 2.339 . S
Eu1511 O1554 2.563 . S
Eu1511 O1555 2.419 . S
Eu1511 C1575 2.848 . S
N1512 C1504 1.362 . S
N1512 Eu1511 2.657 . S
N1512 C1513 1.334 . S
C1513 N1512 1.334 . S
C1513 C1515 1.413 . S
C1513 H1520 0.929 . S
C1514 C1502 1.392 . S
C1514 C1515 1.367 . S
C1514 H1522 0.930 . S
C1515 C1513 1.413 . S
C1515 C1514 1.367 . S
C1515 H1517 0.930 . S
H1516 C1509 0.930 . S
H1517 C1515 0.930 . S
H1518 C1506 0.930 . S
H1519 C1507 0.930 . S
H1520 C1513 0.929 . S
H1521 C1535 0.930 . S
H1522 C1514 0.930 . S
H1523 C1541 0.930 . S
H1524 C1532 0.929 . S
H1525 C1539 0.930 . S
H1526 C1503 0.931 . S
H1527 C1533 0.930 . S
H1528 C1566 0.930 . S
H1529 C1510 0.930 . S
H1530 C1565 0.931 . S
N1531 Eu1500 2.657 . S
N1531 C1532 1.334 . S
N1531 C1536 1.362 . S
C1532 H1524 0.929 . S
C1532 N1531 1.334 . S
C1532 C1535 1.413 . S
C1533 H1527 0.930 . S
C1533 C1534 1.392 . S
C1533 C1535 1.367 . S
C1534 C1533 1.392 . S
C1534 C1536 1.420 . S
C1534 C1566 1.423 . S
C1535 H1521 0.930 . S
C1535 C1532 1.413 . S
C1535 C1533 1.367 . S
C1536 N1531 1.362 . S
C1536 C1534 1.420 . S
C1536 C1540 1.429 . S
H1537 C1542 0.930 . S
N1538 Eu1500 2.609 . S
N1538 C1540 1.377 . S
N1538 C1541 1.321 . S
C1539 H1525 0.930 . S
C1539 C1541 1.400 . S
C1539 C1542 1.386 . S
C1540 C1536 1.429 . S
C1540 N1538 1.377 . S
C1540 C1543 1.411 . S
C1541 H1523 0.930 . S
C1541 N1538 1.321 . S
C1541 C1539 1.400 . S
C1542 H1537 0.930 . S
C1542 C1539 1.386 . S
C1542 C1543 1.395 . S
C1543 C1540 1.411 . S
C1543 C1542 1.395 . S
C1543 C1565 1.420 . S
O1544 Eu1500 2.558 . S
O1544 C1564 1.257 . S
O1545 Eu1500 2.612 . S
O1545 Eu1511 2.380 . S
O1545 C1556 1.276 . S
O1546 Eu1511 2.432 . S
O1546 C1563 1.264 . S
O1547 Eu1500 2.339 . S
O1547 C1563 1.254 . S
O1548 Eu1500 2.563 . S
O1548 C1556 1.235 . S
O1549 Eu1500 2.419 . S
O1549 C1564 1.249 . S
O1550 Eu1511 2.558 . S
O1550 C1575 1.257 . S
O1551 Eu1500 2.380 . S
O1551 Eu1511 2.612 . S
O1551 C1567 1.276 . S
O1552 Eu1500 2.432 . S
O1552 C1574 1.264 . S
O1553 Eu1511 2.339 . S
O1553 C1574 1.254 . S
O1554 Eu1511 2.563 . S
O1554 C1567 1.235 . S
O1555 Eu1511 2.419 . S
O1555 C1575 1.249 . S
C1556 O1545 1.276 . S
C1556 O1548 1.235 . S
C1557 C1559 1.393 . S
C1557 C1561 1.395 . S
C1557 C1564 1.492 . S
C1558 C1559 1.392 . S
C1558 C1560 1.386 . S
C1559 C1557 1.393 . S
C1559 C1558 1.392 . S
C1559 H1576 0.930 . S
C1560 C1558 1.386 . S
C1560 C1562 1.395 . S
C1560 H1577 0.930 . S
C1561 C1557 1.395 . S
C1561 C1562 1.379 . S
C1561 H1578 0.930 . S
C1562 C1560 1.395 . S
C1562 C1561 1.379 . S
C1562 H1579 0.930 . S
C1563 O1546 1.264 . S
C1563 O1547 1.254 . S
C1564 Eu1500 2.848 . S
C1564 O1544 1.257 . S
C1564 O1549 1.249 . S
C1564 C1557 1.492 . S
C1565 H1530 0.931 . S
C1565 C1543 1.420 . S
C1565 C1566 1.351 . S
C1566 H1528 0.930 . S
C1566 C1534 1.423 . S
C1566 C1565 1.351 . S
C1567 O1551 1.276 . S
C1567 O1554 1.235 . S
C1568 C1569 1.393 . S
C1568 C1572 1.395 . S
C1568 C1575 1.492 . S
C1569 C1568 1.393 . S
C1569 C1570 1.392 . S
C1569 H1580 0.930 . S
C1570 C1569 1.392 . S
C1570 C1571 1.386 . S
C1571 C1570 1.386 . S
C1571 C1573 1.395 . S
C1571 H1581 0.930 . S
C1572 C1568 1.395 . S
C1572 C1573 1.379 . S
C1572 H1582 0.930 . S
C1573 C1571 1.395 . S
C1573 C1572 1.379 . S
C1573 H1583 0.930 . S
C1574 O1552 1.264 . S
C1574 O1553 1.254 . S
C1575 Eu1511 2.848 . S
C1575 O1550 1.257 . S
C1575 O1555 1.249 . S
C1575 C1568 1.492 . S
H1576 C1559 0.930 . S
H1577 C1560 0.930 . S
H1578 C1561 0.930 . S
H1579 C1562 0.930 . S
H1580 C1569 0.930 . S
H1581 C1571 0.930 . S
H1582 C1572 0.930 . S
H1583 C1573 0.930 . S
Eu1584 N1615 2.657 . S
Eu1584 N1622 2.609 . S
Eu1584 O1628 2.558 . S
Eu1584 O1629 2.612 . S
Eu1584 O1631 2.339 . S
Eu1584 O1632 2.563 . S
Eu1584 O1633 2.419 . S
Eu1584 O1635 2.380 . S
Eu1584 O1636 2.432 . S
Eu1584 C1648 2.848 . S
C1585 C1588 1.429 . S
C1585 C1589 1.411 . S
C1585 N1592 1.377 . S
C1586 C1588 1.420 . S
C1586 C1590 1.423 . S
C1586 C1598 1.392 . S
C1587 C1589 1.420 . S
C1587 C1590 1.351 . S
C1587 H1610 0.931 . S
C1588 C1585 1.429 . S
C1588 C1586 1.420 . S
C1588 N1596 1.362 . S
C1589 C1585 1.411 . S
C1589 C1587 1.420 . S
C1589 C1594 1.395 . S
C1590 C1586 1.423 . S
C1590 C1587 1.351 . S
C1590 H1602 0.930 . S
C1591 C1593 1.400 . S
C1591 C1594 1.386 . S
C1591 H1603 0.930 . S
N1592 C1585 1.377 . S
N1592 C1593 1.321 . S
N1592 Eu1595 2.609 . S
C1593 C1591 1.400 . S
C1593 N1592 1.321 . S
C1593 H1600 0.930 . S
C1594 C1589 1.395 . S
C1594 C1591 1.386 . S
C1594 H1613 0.930 . S
Eu1595 N1592 2.609 . S
Eu1595 N1596 2.657 . S
Eu1595 O1629 2.380 . S
Eu1595 O1630 2.432 . S
Eu1595 O1634 2.558 . S
Eu1595 O1635 2.612 . S
Eu1595 O1637 2.339 . S
Eu1595 O1638 2.563 . S
Eu1595 O1639 2.419 . S
Eu1595 C1659 2.848 . S
N1596 C1588 1.362 . S
N1596 Eu1595 2.657 . S
N1596 C1597 1.334 . S
C1597 N1596 1.334 . S
C1597 C1599 1.413 . S
C1597 H1604 0.929 . S
C1598 C1586 1.392 . S
C1598 C1599 1.367 . S
C1598 H1606 0.930 . S
C1599 C1597 1.413 . S
C1599 C1598 1.367 . S
C1599 H1601 0.930 . S
H1600 C1593 0.930 . S
H1601 C1599 0.930 . S
H1602 C1590 0.930 . S
H1603 C1591 0.930 . S
H1604 C1597 0.929 . S
H1605 C1619 0.930 . S
H1606 C1598 0.930 . S
H1607 C1625 0.930 . S
H1608 C1616 0.929 . S
H1609 C1623 0.930 . S
H1610 C1587 0.931 . S
H1611 C1617 0.930 . S
H1612 C1650 0.930 . S
H1613 C1594 0.930 . S
H1614 C1649 0.931 . S
N1615 Eu1584 2.657 . S
N1615 C1616 1.334 . S
N1615 C1620 1.362 . S
C1616 H1608 0.929 . S
C1616 N1615 1.334 . S
C1616 C1619 1.413 . S
C1617 H1611 0.930 . S
C1617 C1618 1.392 . S
C1617 C1619 1.367 . S
C1618 C1617 1.392 . S
C1618 C1620 1.420 . S
C1618 C1650 1.423 . S
C1619 H1605 0.930 . S
C1619 C1616 1.413 . S
C1619 C1617 1.367 . S
C1620 N1615 1.362 . S
C1620 C1618 1.420 . S
C1620 C1624 1.429 . S
H1621 C1626 0.930 . S
N1622 Eu1584 2.609 . S
N1622 C1624 1.377 . S
N1622 C1625 1.321 . S
C1623 H1609 0.930 . S
C1623 C1625 1.400 . S
C1623 C1626 1.386 . S
C1624 C1620 1.429 . S
C1624 N1622 1.377 . S
C1624 C1627 1.411 . S
C1625 H1607 0.930 . S
C1625 N1622 1.321 . S
C1625 C1623 1.400 . S
C1626 H1621 0.930 . S
C1626 C1623 1.386 . S
C1626 C1627 1.395 . S
C1627 C1624 1.411 . S
C1627 C1626 1.395 . S
C1627 C1649 1.420 . S
O1628 Eu1584 2.558 . S
O1628 C1648 1.257 . S
O1629 Eu1584 2.612 . S
O1629 Eu1595 2.380 . S
O1629 C1640 1.276 . S
O1630 Eu1595 2.432 . S
O1630 C1647 1.264 . S
O1631 Eu1584 2.339 . S
O1631 C1647 1.254 . S
O1632 Eu1584 2.563 . S
O1632 C1640 1.235 . S
O1633 Eu1584 2.419 . S
O1633 C1648 1.249 . S
O1634 Eu1595 2.558 . S
O1634 C1659 1.257 . S
O1635 Eu1584 2.380 . S
O1635 Eu1595 2.612 . S
O1635 C1651 1.276 . S
O1636 Eu1584 2.432 . S
O1636 C1658 1.264 . S
O1637 Eu1595 2.339 . S
O1637 C1658 1.254 . S
O1638 Eu1595 2.563 . S
O1638 C1651 1.235 . S
O1639 Eu1595 2.419 . S
O1639 C1659 1.249 . S
C1640 O1629 1.276 . S
C1640 O1632 1.235 . S
C1641 C1643 1.393 . S
C1641 C1645 1.395 . S
C1641 C1648 1.492 . S
C1642 C1643 1.392 . S
C1642 C1644 1.386 . S
C1643 C1641 1.393 . S
C1643 C1642 1.392 . S
C1643 H1660 0.930 . S
C1644 C1642 1.386 . S
C1644 C1646 1.395 . S
C1644 H1661 0.930 . S
C1645 C1641 1.395 . S
C1645 C1646 1.379 . S
C1645 H1662 0.930 . S
C1646 C1644 1.395 . S
C1646 C1645 1.379 . S
C1646 H1663 0.930 . S
C1647 O1630 1.264 . S
C1647 O1631 1.254 . S
C1648 Eu1584 2.848 . S
C1648 O1628 1.257 . S
C1648 O1633 1.249 . S
C1648 C1641 1.492 . S
C1649 H1614 0.931 . S
C1649 C1627 1.420 . S
C1649 C1650 1.351 . S
C1650 H1612 0.930 . S
C1650 C1618 1.423 . S
C1650 C1649 1.351 . S
C1651 O1635 1.276 . S
C1651 O1638 1.235 . S
C1652 C1653 1.393 . S
C1652 C1656 1.395 . S
C1652 C1659 1.492 . S
C1653 C1652 1.393 . S
C1653 C1654 1.392 . S
C1653 H1664 0.930 . S
C1654 C1653 1.392 . S
C1654 C1655 1.386 . S
C1655 C1654 1.386 . S
C1655 C1657 1.395 . S
C1655 H1665 0.930 . S
C1656 C1652 1.395 . S
C1656 C1657 1.379 . S
C1656 H1666 0.930 . S
C1657 C1655 1.395 . S
C1657 C1656 1.379 . S
C1657 H1667 0.930 . S
C1658 O1636 1.264 . S
C1658 O1637 1.254 . S
C1659 Eu1595 2.848 . S
C1659 O1634 1.257 . S
C1659 O1639 1.249 . S
C1659 C1652 1.492 . S
H1660 C1643 0.930 . S
H1661 C1644 0.930 . S
H1662 C1645 0.930 . S
H1663 C1646 0.930 . S
H1664 C1653 0.930 . S
H1665 C1655 0.930 . S
H1666 C1656 0.930 . S
H1667 C1657 0.930 . S
Eu1668 N1699 2.657 . S
Eu1668 N1706 2.609 . S
Eu1668 O1712 2.558 . S
Eu1668 O1713 2.612 . S
Eu1668 O1715 2.339 . S
Eu1668 O1716 2.563 . S
Eu1668 O1717 2.419 . S
Eu1668 O1719 2.380 . S
Eu1668 O1720 2.432 . S
Eu1668 C1732 2.848 . S
C1669 C1672 1.429 . S
C1669 C1673 1.411 . S
C1669 N1676 1.377 . S
C1670 C1672 1.420 . S
C1670 C1674 1.423 . S
C1670 C1682 1.392 . S
C1671 C1673 1.420 . S
C1671 C1674 1.351 . S
C1671 H1694 0.931 . S
C1672 C1669 1.429 . S
C1672 C1670 1.420 . S
C1672 N1680 1.362 . S
C1673 C1669 1.411 . S
C1673 C1671 1.420 . S
C1673 C1678 1.395 . S
C1674 C1670 1.423 . S
C1674 C1671 1.351 . S
C1674 H1686 0.930 . S
C1675 C1677 1.400 . S
C1675 C1678 1.386 . S
C1675 H1687 0.930 . S
N1676 C1669 1.377 . S
N1676 C1677 1.321 . S
N1676 Eu1679 2.609 . S
C1677 C1675 1.400 . S
C1677 N1676 1.321 . S
C1677 H1684 0.930 . S
C1678 C1673 1.395 . S
C1678 C1675 1.386 . S
C1678 H1697 0.930 . S
Eu1679 N1676 2.609 . S
Eu1679 N1680 2.657 . S
Eu1679 O1713 2.380 . S
Eu1679 O1714 2.432 . S
Eu1679 O1718 2.558 . S
Eu1679 O1719 2.612 . S
Eu1679 O1721 2.339 . S
Eu1679 O1722 2.563 . S
Eu1679 O1723 2.419 . S
Eu1679 C1743 2.848 . S
N1680 C1672 1.362 . S
N1680 Eu1679 2.657 . S
N1680 C1681 1.334 . S
C1681 N1680 1.334 . S
C1681 C1683 1.413 . S
C1681 H1688 0.929 . S
C1682 C1670 1.392 . S
C1682 C1683 1.367 . S
C1682 H1690 0.930 . S
C1683 C1681 1.413 . S
C1683 C1682 1.367 . S
C1683 H1685 0.930 . S
H1684 C1677 0.930 . S
H1685 C1683 0.930 . S
H1686 C1674 0.930 . S
H1687 C1675 0.930 . S
H1688 C1681 0.929 . S
H1689 C1703 0.930 . S
H1690 C1682 0.930 . S
H1691 C1709 0.930 . S
H1692 C1700 0.929 . S
H1693 C1707 0.930 . S
H1694 C1671 0.931 . S
H1695 C1701 0.930 . S
H1696 C1734 0.930 . S
H1697 C1678 0.930 . S
H1698 C1733 0.931 . S
N1699 Eu1668 2.657 . S
N1699 C1700 1.334 . S
N1699 C1704 1.362 . S
C1700 H1692 0.929 . S
C1700 N1699 1.334 . S
C1700 C1703 1.413 . S
C1701 H1695 0.930 . S
C1701 C1702 1.392 . S
C1701 C1703 1.367 . S
C1702 C1701 1.392 . S
C1702 C1704 1.420 . S
C1702 C1734 1.423 . S
C1703 H1689 0.930 . S
C1703 C1700 1.413 . S
C1703 C1701 1.367 . S
C1704 N1699 1.362 . S
C1704 C1702 1.420 . S
C1704 C1708 1.429 . S
H1705 C1710 0.930 . S
N1706 Eu1668 2.609 . S
N1706 C1708 1.377 . S
N1706 C1709 1.321 . S
C1707 H1693 0.930 . S
C1707 C1709 1.400 . S
C1707 C1710 1.386 . S
C1708 C1704 1.429 . S
C1708 N1706 1.377 . S
C1708 C1711 1.411 . S
C1709 H1691 0.930 . S
C1709 N1706 1.321 . S
C1709 C1707 1.400 . S
C1710 H1705 0.930 . S
C1710 C1707 1.386 . S
C1710 C1711 1.395 . S
C1711 C1708 1.411 . S
C1711 C1710 1.395 . S
C1711 C1733 1.420 . S
O1712 Eu1668 2.558 . S
O1712 C1732 1.257 . S
O1713 Eu1668 2.612 . S
O1713 Eu1679 2.380 . S
O1713 C1724 1.276 . S
O1714 Eu1679 2.432 . S
O1714 C1731 1.264 . S
O1715 Eu1668 2.339 . S
O1715 C1731 1.254 . S
O1716 Eu1668 2.563 . S
O1716 C1724 1.235 . S
O1717 Eu1668 2.419 . S
O1717 C1732 1.249 . S
O1718 Eu1679 2.558 . S
O1718 C1743 1.257 . S
O1719 Eu1668 2.380 . S
O1719 Eu1679 2.612 . S
O1719 C1735 1.276 . S
O1720 Eu1668 2.432 . S
O1720 C1742 1.264 . S
O1721 Eu1679 2.339 . S
O1721 C1742 1.254 . S
O1722 Eu1679 2.563 . S
O1722 C1735 1.235 . S
O1723 Eu1679 2.419 . S
O1723 C1743 1.249 . S
C1724 O1713 1.276 . S
C1724 O1716 1.235 . S
C1725 C1727 1.393 . S
C1725 C1729 1.395 . S
C1725 C1732 1.492 . S
C1726 C1727 1.392 . S
C1726 C1728 1.386 . S
C1727 C1725 1.393 . S
C1727 C1726 1.392 . S
C1727 H1744 0.930 . S
C1728 C1726 1.386 . S
C1728 C1730 1.395 . S
C1728 H1745 0.930 . S
C1729 C1725 1.395 . S
C1729 C1730 1.379 . S
C1729 H1746 0.930 . S
C1730 C1728 1.395 . S
C1730 C1729 1.379 . S
C1730 H1747 0.930 . S
C1731 O1714 1.264 . S
C1731 O1715 1.254 . S
C1732 Eu1668 2.848 . S
C1732 O1712 1.257 . S
C1732 O1717 1.249 . S
C1732 C1725 1.492 . S
C1733 H1698 0.931 . S
C1733 C1711 1.420 . S
C1733 C1734 1.351 . S
C1734 H1696 0.930 . S
C1734 C1702 1.423 . S
C1734 C1733 1.351 . S
C1735 O1719 1.276 . S
C1735 O1722 1.235 . S
C1736 C1737 1.393 . S
C1736 C1740 1.395 . S
C1736 C1743 1.492 . S
C1737 C1736 1.393 . S
C1737 C1738 1.392 . S
C1737 H1748 0.930 . S
C1738 C1737 1.392 . S
C1738 C1739 1.386 . S
C1739 C1738 1.386 . S
C1739 C1741 1.395 . S
C1739 H1749 0.930 . S
C1740 C1736 1.395 . S
C1740 C1741 1.379 . S
C1740 H1750 0.930 . S
C1741 C1739 1.395 . S
C1741 C1740 1.379 . S
C1741 H1751 0.930 . S
C1742 O1720 1.264 . S
C1742 O1721 1.254 . S
C1743 Eu1679 2.848 . S
C1743 O1718 1.257 . S
C1743 O1723 1.249 . S
C1743 C1736 1.492 . S
H1744 C1727 0.930 . S
H1745 C1728 0.930 . S
H1746 C1729 0.930 . S
H1747 C1730 0.930 . S
H1748 C1737 0.930 . S
H1749 C1739 0.930 . S
H1750 C1740 0.930 . S
H1751 C1741 0.930 . S
Eu1752 N1783 2.657 . S
Eu1752 N1790 2.609 . S
Eu1752 O1796 2.558 . S
Eu1752 O1797 2.612 . S
Eu1752 O1799 2.339 . S
Eu1752 O1800 2.563 . S
Eu1752 O1801 2.419 . S
Eu1752 O1803 2.380 . S
Eu1752 O1804 2.432 . S
Eu1752 C1816 2.848 . S
C1753 C1756 1.429 . S
C1753 C1757 1.411 . S
C1753 N1760 1.377 . S
C1754 C1756 1.420 . S
C1754 C1758 1.423 . S
C1754 C1766 1.392 . S
C1755 C1757 1.420 . S
C1755 C1758 1.351 . S
C1755 H1778 0.931 . S
C1756 C1753 1.429 . S
C1756 C1754 1.420 . S
C1756 N1764 1.362 . S
C1757 C1753 1.411 . S
C1757 C1755 1.420 . S
C1757 C1762 1.395 . S
C1758 C1754 1.423 . S
C1758 C1755 1.351 . S
C1758 H1770 0.930 . S
C1759 C1761 1.400 . S
C1759 C1762 1.386 . S
C1759 H1771 0.930 . S
N1760 C1753 1.377 . S
N1760 C1761 1.321 . S
N1760 Eu1763 2.609 . S
C1761 C1759 1.400 . S
C1761 N1760 1.321 . S
C1761 H1768 0.930 . S
C1762 C1757 1.395 . S
C1762 C1759 1.386 . S
C1762 H1781 0.930 . S
Eu1763 N1760 2.609 . S
Eu1763 N1764 2.657 . S
Eu1763 O1797 2.380 . S
Eu1763 O1798 2.432 . S
Eu1763 O1802 2.558 . S
Eu1763 O1803 2.612 . S
Eu1763 O1805 2.339 . S
Eu1763 O1806 2.563 . S
Eu1763 O1807 2.419 . S
Eu1763 C1827 2.848 . S
N1764 C1756 1.362 . S
N1764 Eu1763 2.657 . S
N1764 C1765 1.334 . S
C1765 N1764 1.334 . S
C1765 C1767 1.413 . S
C1765 H1772 0.929 . S
C1766 C1754 1.392 . S
C1766 C1767 1.367 . S
C1766 H1774 0.930 . S
C1767 C1765 1.413 . S
C1767 C1766 1.367 . S
C1767 H1769 0.930 . S
H1768 C1761 0.930 . S
H1769 C1767 0.930 . S
H1770 C1758 0.930 . S
H1771 C1759 0.930 . S
H1772 C1765 0.929 . S
H1773 C1787 0.930 . S
H1774 C1766 0.930 . S
H1775 C1793 0.930 . S
H1776 C1784 0.929 . S
H1777 C1791 0.930 . S
H1778 C1755 0.931 . S
H1779 C1785 0.930 . S
H1780 C1818 0.930 . S
H1781 C1762 0.930 . S
H1782 C1817 0.931 . S
N1783 Eu1752 2.657 . S
N1783 C1784 1.334 . S
N1783 C1788 1.362 . S
C1784 H1776 0.929 . S
C1784 N1783 1.334 . S
C1784 C1787 1.413 . S
C1785 H1779 0.930 . S
C1785 C1786 1.392 . S
C1785 C1787 1.367 . S
C1786 C1785 1.392 . S
C1786 C1788 1.420 . S
C1786 C1818 1.423 . S
C1787 H1773 0.930 . S
C1787 C1784 1.413 . S
C1787 C1785 1.367 . S
C1788 N1783 1.362 . S
C1788 C1786 1.420 . S
C1788 C1792 1.429 . S
H1789 C1794 0.930 . S
N1790 Eu1752 2.609 . S
N1790 C1792 1.377 . S
N1790 C1793 1.321 . S
C1791 H1777 0.930 . S
C1791 C1793 1.400 . S
C1791 C1794 1.386 . S
C1792 C1788 1.429 . S
C1792 N1790 1.377 . S
C1792 C1795 1.411 . S
C1793 H1775 0.930 . S
C1793 N1790 1.321 . S
C1793 C1791 1.400 . S
C1794 H1789 0.930 . S
C1794 C1791 1.386 . S
C1794 C1795 1.395 . S
C1795 C1792 1.411 . S
C1795 C1794 1.395 . S
C1795 C1817 1.420 . S
O1796 Eu1752 2.558 . S
O1796 C1816 1.257 . S
O1797 Eu1752 2.612 . S
O1797 Eu1763 2.380 . S
O1797 C1808 1.276 . S
O1798 Eu1763 2.432 . S
O1798 C1815 1.264 . S
O1799 Eu1752 2.339 . S
O1799 C1815 1.254 . S
O1800 Eu1752 2.563 . S
O1800 C1808 1.235 . S
O1801 Eu1752 2.419 . S
O1801 C1816 1.249 . S
O1802 Eu1763 2.558 . S
O1802 C1827 1.257 . S
O1803 Eu1752 2.380 . S
O1803 Eu1763 2.612 . S
O1803 C1819 1.276 . S
O1804 Eu1752 2.432 . S
O1804 C1826 1.264 . S
O1805 Eu1763 2.339 . S
O1805 C1826 1.254 . S
O1806 Eu1763 2.563 . S
O1806 C1819 1.235 . S
O1807 Eu1763 2.419 . S
O1807 C1827 1.249 . S
C1808 O1797 1.276 . S
C1808 O1800 1.235 . S
C1809 C1811 1.393 . S
C1809 C1813 1.395 . S
C1809 C1816 1.492 . S
C1810 C1811 1.392 . S
C1810 C1812 1.386 . S
C1811 C1809 1.393 . S
C1811 C1810 1.392 . S
C1811 H1828 0.930 . S
C1812 C1810 1.386 . S
C1812 C1814 1.395 . S
C1812 H1829 0.930 . S
C1813 C1809 1.395 . S
C1813 C1814 1.379 . S
C1813 H1830 0.930 . S
C1814 C1812 1.395 . S
C1814 C1813 1.379 . S
C1814 H1831 0.930 . S
C1815 O1798 1.264 . S
C1815 O1799 1.254 . S
C1816 Eu1752 2.848 . S
C1816 O1796 1.257 . S
C1816 O1801 1.249 . S
C1816 C1809 1.492 . S
C1817 H1782 0.931 . S
C1817 C1795 1.420 . S
C1817 C1818 1.351 . S
C1818 H1780 0.930 . S
C1818 C1786 1.423 . S
C1818 C1817 1.351 . S
C1819 O1803 1.276 . S
C1819 O1806 1.235 . S
C1820 C1821 1.393 . S
C1820 C1824 1.395 . S
C1820 C1827 1.492 . S
C1821 C1820 1.393 . S
C1821 C1822 1.392 . S
C1821 H1832 0.930 . S
C1822 C1821 1.392 . S
C1822 C1823 1.386 . S
C1823 C1822 1.386 . S
C1823 C1825 1.395 . S
C1823 H1833 0.930 . S
C1824 C1820 1.395 . S
C1824 C1825 1.379 . S
C1824 H1834 0.930 . S
C1825 C1823 1.395 . S
C1825 C1824 1.379 . S
C1825 H1835 0.930 . S
C1826 O1804 1.264 . S
C1826 O1805 1.254 . S
C1827 Eu1763 2.848 . S
C1827 O1802 1.257 . S
C1827 O1807 1.249 . S
C1827 C1820 1.492 . S
H1828 C1811 0.930 . S
H1829 C1812 0.930 . S
H1830 C1813 0.930 . S
H1831 C1814 0.930 . S
H1832 C1821 0.930 . S
H1833 C1823 0.930 . S
H1834 C1824 0.930 . S
H1835 C1825 0.930 . S
H1836 C1842 0.930 . S
H1837 C1845 0.930 . S
H1838 C1846 0.930 . S
H1839 C1847 0.930 . S
H1840 C1850 0.930 . S
H1841 C1851 0.930 . S
C1842 H1836 0.930 . S
C1842 C1843 1.355 . S
C1842 C1844 1.415 . S
C1843 C1842 1.355 . S
C1843 C1845 1.419 . S
C1844 C1842 1.415 . S
C1844 C1849 1.425 . S
C1844 C1851 1.409 . S
C1845 H1837 0.930 . S
C1845 C1843 1.419 . S
C1845 C1846 1.362 . S
C1846 H1838 0.930 . S
C1846 C1845 1.362 . S
C1846 C1849 1.409 . S
C1847 H1839 0.930 . S
C1847 C1848 1.355 . S
C1847 C1849 1.415 . S
C1848 C1847 1.355 . S
C1848 C1850 1.419 . S
C1849 C1844 1.425 . S
C1849 C1846 1.409 . S
C1849 C1847 1.415 . S
C1850 H1840 0.930 . S
C1850 C1848 1.419 . S
C1850 C1851 1.362 . S
C1851 H1841 0.930 . S
C1851 C1844 1.409 . S
C1851 C1850 1.362 . S
H1852 C1858 0.930 . S
H1853 C1861 0.930 . S
H1854 C1862 0.930 . S
H1855 C1863 0.930 . S
H1856 C1866 0.930 . S
H1857 C1867 0.930 . S
C1858 H1852 0.930 . S
C1858 C1859 1.355 . S
C1858 C1860 1.415 . S
C1859 C1858 1.355 . S
C1859 C1861 1.419 . S
C1860 C1858 1.415 . S
C1860 C1865 1.425 . S
C1860 C1867 1.409 . S
C1861 H1853 0.930 . S
C1861 C1859 1.419 . S
C1861 C1862 1.362 . S
C1862 H1854 0.930 . S
C1862 C1861 1.362 . S
C1862 C1865 1.409 . S
C1863 H1855 0.930 . S
C1863 C1864 1.355 . S
C1863 C1865 1.415 . S
C1864 C1863 1.355 . S
C1864 C1866 1.419 . S
C1865 C1860 1.425 . S
C1865 C1862 1.409 . S
C1865 C1863 1.415 . S
C1866 H1856 0.930 . S
C1866 C1864 1.419 . S
C1866 C1867 1.362 . S
C1867 H1857 0.930 . S
C1867 C1860 1.409 . S
C1867 C1866 1.362 . S
H1868 C1874 0.930 . S
H1869 C1877 0.930 . S
H1870 C1878 0.930 . S
H1871 C1879 0.930 . S
H1872 C1882 0.930 . S
H1873 C1883 0.930 . S
C1874 H1868 0.930 . S
C1874 C1875 1.355 . S
C1874 C1876 1.415 . S
C1875 C1874 1.355 . S
C1875 C1877 1.419 . S
C1876 C1874 1.415 . S
C1876 C1881 1.425 . S
C1876 C1883 1.409 . S
C1877 H1869 0.930 . S
C1877 C1875 1.419 . S
C1877 C1878 1.362 . S
C1878 H1870 0.930 . S
C1878 C1877 1.362 . S
C1878 C1881 1.409 . S
C1879 H1871 0.930 . S
C1879 C1880 1.355 . S
C1879 C1881 1.415 . S
C1880 C1879 1.355 . S
C1880 C1882 1.419 . S
C1881 C1876 1.425 . S
C1881 C1878 1.409 . S
C1881 C1879 1.415 . S
C1882 H1872 0.930 . S
C1882 C1880 1.419 . S
C1882 C1883 1.362 . S
C1883 H1873 0.930 . S
C1883 C1876 1.409 . S
C1883 C1882 1.362 . S
H1884 C1890 0.930 . S
H1885 C1893 0.930 . S
H1886 C1894 0.930 . S
H1887 C1895 0.985 . S
H1888 C1898 0.930 . S
H1889 C1899 0.930 . S
C1890 H1884 0.930 . S
C1890 C1891 1.355 . S
C1890 C1892 1.415 . S
C1891 C1890 1.355 . S
C1891 C1893 1.419 . S
C1892 C1890 1.415 . S
C1892 C1897 1.425 . S
C1892 C1899 1.409 . S
C1893 H1885 0.930 . S
C1893 C1891 1.419 . S
C1893 C1894 1.362 . S
C1894 H1886 0.930 . S
C1894 C1893 1.362 . S
C1894 C1897 1.409 . S
C1895 H1887 0.985 . S
C1895 C1896 1.355 . S
C1895 C1897 1.415 . S
C1896 C1895 1.355 . S
C1896 C1898 1.419 . S
C1897 C1892 1.425 . S
C1897 C1894 1.409 . S
C1897 C1895 1.415 . S
C1898 H1888 0.930 . S
C1898 C1896 1.419 . S
C1898 C1899 1.362 . S
C1899 H1889 0.930 . S
C1899 C1892 1.409 . S
C1899 C1898 1.362 . S
H1900 C1906 0.930 . S
H1901 C1909 0.930 . S
H1902 C1910 0.930 . S
H1903 C1911 0.930 . S
H1904 C1914 0.930 . S
H1905 C1915 0.930 . S
C1906 H1900 0.930 . S
C1906 C1907 1.355 . S
C1906 C1908 1.415 . S
C1907 C1906 1.355 . S
C1907 C1909 1.419 . S
C1908 C1906 1.415 . S
C1908 C1913 1.425 . S
C1908 C1915 1.409 . S
C1909 H1901 0.930 . S
C1909 C1907 1.419 . S
C1909 C1910 1.362 . S
C1910 H1902 0.930 . S
C1910 C1909 1.362 . S
C1910 C1913 1.409 . S
C1911 H1903 0.930 . S
C1911 C1912 1.355 . S
C1911 C1913 1.415 . S
C1912 C1911 1.355 . S
C1912 C1914 1.419 . S
C1913 C1908 1.425 . S
C1913 C1910 1.409 . S
C1913 C1911 1.415 . S
C1914 H1904 0.930 . S
C1914 C1912 1.419 . S
C1914 C1915 1.362 . S
C1915 H1905 0.930 . S
C1915 C1908 1.409 . S
C1915 C1914 1.362 . S
H1916 C1922 0.930 . S
H1917 C1925 0.930 . S
H1918 C1926 0.930 . S
H1919 C1927 0.930 . S
H1920 C1930 0.930 1_554 S
H1921 C1931 0.887 1_554 S
C1922 H1916 0.930 . S
C1922 C1923 1.355 . S
C1922 C1924 1.415 . S
C1923 C1922 1.355 . S
C1923 C1925 1.419 . S
C1924 C1922 1.415 . S
C1924 C1929 1.425 . S
C1924 C1931 1.409 . S
C1925 H1917 0.930 . S
C1925 C1923 1.419 . S
C1925 C1926 1.362 . S
C1926 H1918 0.930 . S
C1926 C1925 1.362 . S
C1926 C1929 1.409 . S
C1927 H1919 0.930 . S
C1927 C1928 1.355 . S
C1927 C1929 1.415 . S
C1928 C1927 1.355 . S
C1928 C1930 1.419 . S
C1929 C1924 1.425 . S
C1929 C1926 1.409 . S
C1929 C1927 1.415 . S
C1930 H1920 0.930 1_556 S
C1930 C1928 1.419 . S
C1930 C1931 1.362 . S
C1931 H1921 0.887 1_556 S
C1931 C1924 1.409 . S
C1931 C1930 1.362 . S
H1932 C1938 0.930 . S
H1933 C1941 0.930 . S
H1934 C1942 0.930 . S
H1935 C1943 0.930 . S
H1936 C1946 0.930 . S
H1937 C1947 0.930 . S
C1938 H1932 0.930 . S
C1938 C1939 1.355 . S
C1938 C1940 1.415 . S
C1939 C1938 1.355 . S
C1939 C1941 1.419 . S
C1940 C1938 1.415 . S
C1940 C1945 1.425 . S
C1940 C1947 1.409 . S
C1941 H1933 0.930 . S
C1941 C1939 1.419 . S
C1941 C1942 1.362 . S
C1942 H1934 0.930 . S
C1942 C1941 1.362 . S
C1942 C1945 1.409 . S
C1943 H1935 0.930 . S
C1943 C1944 1.355 . S
C1943 C1945 1.415 . S
C1944 C1943 1.355 . S
C1944 C1946 1.419 . S
C1945 C1940 1.425 . S
C1945 C1942 1.409 . S
C1945 C1943 1.415 . S
C1946 H1936 0.930 . S
C1946 C1944 1.419 . S
C1946 C1947 1.362 . S
C1947 H1937 0.930 . S
C1947 C1940 1.409 . S
C1947 C1946 1.362 . S
H1948 C1954 0.930 . S
H1949 C1957 0.930 . S
H1950 C1958 0.930 . S
H1951 C1959 0.930 . S
H1952 C1962 0.930 1_554 S
H1953 C1963 0.895 1_554 S
C1954 H1948 0.930 . S
C1954 C1955 1.355 . S
C1954 C1956 1.415 . S
C1955 C1954 1.355 . S
C1955 C1957 1.419 . S
C1956 C1954 1.415 . S
C1956 C1961 1.425 . S
C1956 C1963 1.409 . S
C1957 H1949 0.930 . S
C1957 C1955 1.419 . S
C1957 C1958 1.362 . S
C1958 H1950 0.930 . S
C1958 C1957 1.362 . S
C1958 C1961 1.409 . S
C1959 H1951 0.930 . S
C1959 C1960 1.355 . S
C1959 C1961 1.415 . S
C1960 C1959 1.355 . S
C1960 C1962 1.419 . S
C1961 C1956 1.425 . S
C1961 C1958 1.409 . S
C1961 C1959 1.415 . S
C1962 H1952 0.930 1_556 S
C1962 C1960 1.419 . S
C1962 C1963 1.362 . S
C1963 H1953 0.895 1_556 S
C1963 C1956 1.409 . S
C1963 C1962 1.362 . S
H1964 C1970 0.930 . S
H1965 C1973 0.930 . S
H1966 C1974 0.930 . S
H1967 C1975 0.930 . S
H1968 C1978 0.930 . S
H1969 C1979 0.930 . S
C1970 H1964 0.930 . S
C1970 C1971 1.355 . S
C1970 C1972 1.415 . S
C1971 C1970 1.355 . S
C1971 C1973 1.419 . S
C1972 C1970 1.415 . S
C1972 C1977 1.425 . S
C1972 C1979 1.409 . S
C1973 H1965 0.930 . S
C1973 C1971 1.419 . S
C1973 C1974 1.362 . S
C1974 H1966 0.930 . S
C1974 C1973 1.362 . S
C1974 C1977 1.409 . S
C1975 H1967 0.930 . S
C1975 C1976 1.355 . S
C1975 C1977 1.415 . S
C1976 C1975 1.355 . S
C1976 C1978 1.419 . S
C1977 C1972 1.425 . S
C1977 C1974 1.409 . S
C1977 C1975 1.415 . S
C1978 H1968 0.930 . S
C1978 C1976 1.419 . S
C1978 C1979 1.362 . S
C1979 H1969 0.930 . S
C1979 C1972 1.409 . S
C1979 C1978 1.362 . S
H1980 C1986 0.930 . S
H1981 C1989 0.930 . S
H1982 C1990 0.930 . S
H1983 C1991 0.930 . S
H1984 C1994 0.930 . S
H1985 C1995 0.930 . S
C1986 H1980 0.930 . S
C1986 C1987 1.355 . S
C1986 C1988 1.415 . S
C1987 C1986 1.355 . S
C1987 C1989 1.419 . S
C1988 C1986 1.415 . S
C1988 C1993 1.425 . S
C1988 C1995 1.409 . S
C1989 H1981 0.930 . S
C1989 C1987 1.419 . S
C1989 C1990 1.362 . S
C1990 H1982 0.930 . S
C1990 C1989 1.362 . S
C1990 C1993 1.409 . S
C1991 H1983 0.930 . S
C1991 C1992 1.355 . S
C1991 C1993 1.415 . S
C1992 C1991 1.355 . S
C1992 C1994 1.419 . S
C1993 C1988 1.425 . S
C1993 C1990 1.409 . S
C1993 C1991 1.415 . S
C1994 H1984 0.930 . S
C1994 C1992 1.419 . S
C1994 C1995 1.362 . S
C1995 H1985 0.930 . S
C1995 C1988 1.409 . S
C1995 C1994 1.362 . S
H1996 C2002 0.930 . S
H1997 C2005 0.930 . S
H1998 C2006 0.930 . S
H1999 C2007 0.930 . S
H2000 C2010 0.930 1_556 S
H2001 C2011 0.957 . S
C2002 H1996 0.930 . S
C2002 C2003 1.355 . S
C2002 C2004 1.415 . S
C2003 C2002 1.355 . S
C2003 C2005 1.419 . S
C2004 C2002 1.415 . S
C2004 C2009 1.425 . S
C2004 C2011 1.409 . S
C2005 H1997 0.930 . S
C2005 C2003 1.419 . S
C2005 C2006 1.362 . S
C2006 H1998 0.930 . S
C2006 C2005 1.362 . S
C2006 C2009 1.409 . S
C2007 H1999 0.930 . S
C2007 C2008 1.355 . S
C2007 C2009 1.415 . S
C2008 C2007 1.355 . S
C2008 C2010 1.419 . S
C2009 C2004 1.425 . S
C2009 C2006 1.409 . S
C2009 C2007 1.415 . S
C2010 H2000 0.930 1_554 S
C2010 C2008 1.419 . S
C2010 C2011 1.362 . S
C2011 H2001 0.957 . S
C2011 C2004 1.409 . S
C2011 C2010 1.362 . S
H2012 C2018 0.930 . S
H2013 C2021 0.930 . S
H2014 C2022 0.930 . S
H2015 C2023 0.930 . S
H2016 C2026 0.930 1_556 S
H2017 C2027 0.930 1_556 S
C2018 H2012 0.930 . S
C2018 C2019 1.355 . S
C2018 C2020 1.415 . S
C2019 C2018 1.355 . S
C2019 C2021 1.419 . S
C2020 C2018 1.415 . S
C2020 C2025 1.425 . S
C2020 C2027 1.409 . S
C2021 H2013 0.930 . S
C2021 C2019 1.419 . S
C2021 C2022 1.362 . S
C2022 H2014 0.930 . S
C2022 C2021 1.362 . S
C2022 C2025 1.409 . S
C2023 H2015 0.930 . S
C2023 C2024 1.355 . S
C2023 C2025 1.415 . S
C2024 C2023 1.355 . S
C2024 C2026 1.419 . S
C2025 C2020 1.425 . S
C2025 C2022 1.409 . S
C2025 C2023 1.415 . S
C2026 H2016 0.930 1_554 S
C2026 C2024 1.419 . S
C2026 C2027 1.362 . S
C2027 H2017 0.930 1_554 S
C2027 C2020 1.409 . S
C2027 C2026 1.362 . S
H2028 C2034 0.930 . S
H2029 C2037 0.930 1_655 S
H2030 C2038 0.930 . S
H2031 C2039 0.930 . S
H2032 C2042 0.930 . S
H2033 C2043 0.930 . S
C2034 H2028 0.930 . S
C2034 C2035 1.397 . S
C2034 C2036 1.415 . S
C2035 C2034 1.397 . S
C2035 C2037 1.402 . S
C2036 C2034 1.415 . S
C2036 C2041 1.425 . S
C2036 C2043 1.409 . S
C2037 H2029 0.930 1_455 S
C2037 C2035 1.402 . S
C2037 C2038 1.362 . S
C2038 H2030 0.930 . S
C2038 C2037 1.362 . S
C2038 C2041 1.409 . S
C2039 H2031 0.930 . S
C2039 C2040 1.355 . S
C2039 C2041 1.415 . S
C2040 C2039 1.355 . S
C2040 C2042 1.419 . S
C2041 C2036 1.425 . S
C2041 C2038 1.409 . S
C2041 C2039 1.415 . S
C2042 H2032 0.930 . S
C2042 C2040 1.419 . S
C2042 C2043 1.362 . S
C2043 H2033 0.930 . S
C2043 C2036 1.409 . S
C2043 C2042 1.362 . S
H2044 C2050 0.930 . S
H2045 C2053 0.930 . S
H2046 C2054 0.930 . S
H2047 C2055 0.930 . S
H2048 C2058 0.930 . S
H2049 C2059 0.930 . S
C2050 H2044 0.930 . S
C2050 C2051 1.355 . S
C2050 C2052 1.415 . S
C2051 C2050 1.355 . S
C2051 C2053 1.419 . S
C2052 C2050 1.415 . S
C2052 C2057 1.425 . S
C2052 C2059 1.409 . S
C2053 H2045 0.930 . S
C2053 C2051 1.419 . S
C2053 C2054 1.362 . S
C2054 H2046 0.930 . S
C2054 C2053 1.362 . S
C2054 C2057 1.409 . S
C2055 H2047 0.930 . S
C2055 C2056 1.355 . S
C2055 C2057 1.415 . S
C2056 C2055 1.355 . S
C2056 C2058 1.419 . S
C2057 C2052 1.425 . S
C2057 C2054 1.409 . S
C2057 C2055 1.415 . S
C2058 H2048 0.930 . S
C2058 C2056 1.419 . S
C2058 C2059 1.362 . S
C2059 H2049 0.930 . S
C2059 C2052 1.409 . S
C2059 C2058 1.362 . S
H2060 C2066 0.930 . S
H2061 C2069 0.930 1_545 S
H2062 C2070 0.930 . S
H2063 C2071 0.930 . S
H2064 C2074 0.930 . S
H2065 C2075 0.930 . S
C2066 H2060 0.930 . S
C2066 C2067 1.355 1_565 S
C2066 C2068 1.415 . S
C2067 C2066 1.355 1_545 S
C2067 C2069 1.419 1_545 S
C2068 C2066 1.415 . S
C2068 C2073 1.425 . S
C2068 C2075 1.409 . S
C2069 H2061 0.930 1_565 S
C2069 C2067 1.419 1_565 S
C2069 C2070 1.362 . S
C2070 H2062 0.930 . S
C2070 C2069 1.362 . S
C2070 C2073 1.409 . S
C2071 H2063 0.930 . S
C2071 C2072 1.355 . S
C2071 C2073 1.415 . S
C2072 C2071 1.355 . S
C2072 C2074 1.419 . S
C2073 C2068 1.425 . S
C2073 C2070 1.409 . S
C2073 C2071 1.415 . S
C2074 H2064 0.930 . S
C2074 C2072 1.419 . S
C2074 C2075 1.362 . S
C2075 H2065 0.930 . S
C2075 C2068 1.409 . S
C2075 C2074 1.362 . S
H2076 C2082 0.930 . S
H2077 C2085 0.930 . S
H2078 C2086 0.930 . S
H2079 C2087 0.930 . S
H2080 C2090 0.930 . S
H2081 C2091 0.930 . S
C2082 H2076 0.930 . S
C2082 C2083 1.355 . S
C2082 C2084 1.415 . S
C2083 C2082 1.355 . S
C2083 C2085 1.419 . S
C2084 C2082 1.415 . S
C2084 C2089 1.425 . S
C2084 C2091 1.409 . S
C2085 H2077 0.930 . S
C2085 C2083 1.419 . S
C2085 C2086 1.362 . S
C2086 H2078 0.930 . S
C2086 C2085 1.362 . S
C2086 C2089 1.409 . S
C2087 H2079 0.930 . S
C2087 C2088 1.355 . S
C2087 C2089 1.415 . S
C2088 C2087 1.355 . S
C2088 C2090 1.419 . S
C2089 C2084 1.425 . S
C2089 C2086 1.409 . S
C2089 C2087 1.415 . S
C2090 H2080 0.930 . S
C2090 C2088 1.419 . S
C2090 C2091 1.362 . S
C2091 H2081 0.930 . S
C2091 C2084 1.409 . S
C2091 C2090 1.362 . S
H2092 C2098 0.930 . S
H2093 C2101 0.930 . S
H2094 C2102 0.930 . S
H2095 C2103 0.930 . S
H2096 C2106 0.930 . S
H2097 C2107 0.930 . S
C2098 H2092 0.930 . S
C2098 C2099 1.355 . S
C2098 C2100 1.415 . S
C2099 C2098 1.355 . S
C2099 C2101 1.419 . S
C2100 C2098 1.415 . S
C2100 C2105 1.425 . S
C2100 C2107 1.409 . S
C2101 H2093 0.930 . S
C2101 C2099 1.419 . S
C2101 C2102 1.362 . S
C2102 H2094 0.930 . S
C2102 C2101 1.362 . S
C2102 C2105 1.409 . S
C2103 H2095 0.930 . S
C2103 C2104 1.355 . S
C2103 C2105 1.415 . S
C2104 C2103 1.355 . S
C2104 C2106 1.419 . S
C2105 C2100 1.425 . S
C2105 C2102 1.409 . S
C2105 C2103 1.415 . S
C2106 H2096 0.930 . S
C2106 C2104 1.419 . S
C2106 C2107 1.362 . S
C2107 H2097 0.930 . S
C2107 C2100 1.409 . S
C2107 C2106 1.362 . S
H2108 C2114 0.930 . S
H2109 C2117 0.930 . S
H2110 C2118 0.930 . S
H2111 C2119 0.930 . S
H2112 C2122 0.930 . S
H2113 C2123 0.930 . S
C2114 H2108 0.930 . S
C2114 C2115 1.355 . S
C2114 C2116 1.415 . S
C2115 C2114 1.355 . S
C2115 C2117 1.419 . S
C2116 C2114 1.415 . S
C2116 C2121 1.425 . S
C2116 C2123 1.409 . S
C2117 H2109 0.930 . S
C2117 C2115 1.419 . S
C2117 C2118 1.362 . S
C2118 H2110 0.930 . S
C2118 C2117 1.362 . S
C2118 C2121 1.409 . S
C2119 H2111 0.930 . S
C2119 C2120 1.355 . S
C2119 C2121 1.415 . S
C2120 C2119 1.355 . S
C2120 C2122 1.419 . S
C2121 C2116 1.425 . S
C2121 C2118 1.409 . S
C2121 C2119 1.415 . S
C2122 H2112 0.930 . S
C2122 C2120 1.419 . S
C2122 C2123 1.362 . S
C2123 H2113 0.930 . S
C2123 C2116 1.409 . S
C2123 C2122 1.362 . S
H2124 C2130 0.930 . S
H2125 C2133 0.930 . S
H2126 C2134 0.930 . S
H2127 C2135 0.930 . S
H2128 C2138 0.930 . S
H2129 C2139 0.930 . S
C2130 H2124 0.930 . S
C2130 C2131 1.355 . S
C2130 C2132 1.415 . S
C2131 C2130 1.355 . S
C2131 C2133 1.419 . S
C2132 C2130 1.415 . S
C2132 C2137 1.425 . S
C2132 C2139 1.409 . S
C2133 H2125 0.930 . S
C2133 C2131 1.419 . S
C2133 C2134 1.362 . S
C2134 H2126 0.930 . S
C2134 C2133 1.362 . S
C2134 C2137 1.409 . S
C2135 H2127 0.930 . S
C2135 C2136 1.355 . S
C2135 C2137 1.415 . S
C2136 C2135 1.355 . S
C2136 C2138 1.419 . S
C2137 C2132 1.425 . S
C2137 C2134 1.409 . S
C2137 C2135 1.415 . S
C2138 H2128 0.930 . S
C2138 C2136 1.419 . S
C2138 C2139 1.362 . S
C2139 H2129 0.930 . S
C2139 C2132 1.409 . S
C2139 C2138 1.362 . S
H2140 C2146 0.930 . S
H2141 C2149 0.930 . S
H2142 C2150 0.930 . S
H2143 C2151 0.930 . S
H2144 C2154 0.930 . S
H2145 C2155 0.930 . S
C2146 H2140 0.930 . S
C2146 C2147 1.355 . S
C2146 C2148 1.415 . S
C2147 C2146 1.355 . S
C2147 C2149 1.419 . S
C2148 C2146 1.415 . S
C2148 C2153 1.425 . S
C2148 C2155 1.409 . S
C2149 H2141 0.930 . S
C2149 C2147 1.419 . S
C2149 C2150 1.362 . S
C2150 H2142 0.930 . S
C2150 C2149 1.362 . S
C2150 C2153 1.409 . S
C2151 H2143 0.930 . S
C2151 C2152 1.355 . S
C2151 C2153 1.415 . S
C2152 C2151 1.355 . S
C2152 C2154 1.419 . S
C2153 C2148 1.425 . S
C2153 C2150 1.409 . S
C2153 C2151 1.415 . S
C2154 H2144 0.930 . S
C2154 C2152 1.419 . S
C2154 C2155 1.362 . S
C2155 H2145 0.930 . S
C2155 C2148 1.409 . S
C2155 C2154 1.362 . S
H2156 C2162 0.930 . S
H2157 C2165 0.930 . S
H2158 C2166 0.930 . S
H2159 C2167 0.930 . S
H2160 C2170 0.930 . S
H2161 C2171 0.930 . S
C2162 H2156 0.930 . S
C2162 C2163 1.355 . S
C2162 C2164 1.415 . S
C2163 C2162 1.355 . S
C2163 C2165 1.419 . S
C2164 C2162 1.415 . S
C2164 C2169 1.425 . S
C2164 C2171 1.409 . S
C2165 H2157 0.930 . S
C2165 C2163 1.419 . S
C2165 C2166 1.362 . S
C2166 H2158 0.930 . S
C2166 C2165 1.362 . S
C2166 C2169 1.409 . S
C2167 H2159 0.930 . S
C2167 C2168 1.355 . S
C2167 C2169 1.415 . S
C2168 C2167 1.355 . S
C2168 C2170 1.419 . S
C2169 C2164 1.425 . S
C2169 C2166 1.409 . S
C2169 C2167 1.415 . S
C2170 H2160 0.930 . S
C2170 C2168 1.419 . S
C2170 C2171 1.362 . S
C2171 H2161 0.930 . S
C2171 C2164 1.409 . S
C2171 C2170 1.362 . S
H2172 C2178 0.930 . S
H2173 C2181 0.930 . S
H2174 C2182 0.930 . S
H2175 C2183 0.930 . S
H2176 C2186 0.930 . S
H2177 C2187 0.930 . S
C2178 H2172 0.930 . S
C2178 C2179 1.355 1_565 S
C2178 C2180 1.415 . S
C2179 C2178 1.355 1_545 S
C2179 C2181 1.419 . S
C2180 C2178 1.415 . S
C2180 C2185 1.425 . S
C2180 C2187 1.409 . S
C2181 H2173 0.930 . S
C2181 C2179 1.419 . S
C2181 C2182 1.362 1_545 S
C2182 H2174 0.930 . S
C2182 C2181 1.362 1_565 S
C2182 C2185 1.409 . S
C2183 H2175 0.930 . S
C2183 C2184 1.355 . S
C2183 C2185 1.415 . S
C2184 C2183 1.355 . S
C2184 C2186 1.419 . S
C2185 C2180 1.425 . S
C2185 C2182 1.409 . S
C2185 C2183 1.415 . S
C2186 H2176 0.930 . S
C2186 C2184 1.419 . S
C2186 C2187 1.362 . S
C2187 H2177 0.930 . S
C2187 C2180 1.409 . S
C2187 C2186 1.362 . S
H2188 C2194 0.930 . S
H2189 C2197 0.930 1_655 S
H2190 C2198 0.930 . S
H2191 C2199 0.930 . S
H2192 C2202 0.930 . S
H2193 C2203 0.930 . S
C2194 H2188 0.930 . S
C2194 C2195 1.355 . S
C2194 C2196 1.415 . S
C2195 C2194 1.355 . S
C2195 C2197 1.419 . S
C2196 C2194 1.415 . S
C2196 C2201 1.425 . S
C2196 C2203 1.409 . S
C2197 H2189 0.930 1_455 S
C2197 C2195 1.419 . S
C2197 C2198 1.362 . S
C2198 H2190 0.930 . S
C2198 C2197 1.362 . S
C2198 C2201 1.409 . S
C2199 H2191 0.930 . S
C2199 C2200 1.355 . S
C2199 C2201 1.415 . S
C2200 C2199 1.355 . S
C2200 C2202 1.419 . S
C2201 C2196 1.425 . S
C2201 C2198 1.409 . S
C2201 C2199 1.415 . S
C2202 H2192 0.930 . S
C2202 C2200 1.419 . S
C2202 C2203 1.362 . S
C2203 H2193 0.930 . S
C2203 C2196 1.409 . S
C2203 C2202 1.362 . S
H2204 C2210 0.930 . S
H2205 C2213 0.930 . S
H2206 C2214 0.930 . S
H2207 C2215 0.930 . S
H2208 C2218 0.930 . S
H2209 C2219 0.930 . S
C2210 H2204 0.930 . S
C2210 C2211 1.355 . S
C2210 C2212 1.415 . S
C2211 C2210 1.355 . S
C2211 C2213 1.419 . S
C2212 C2210 1.415 . S
C2212 C2217 1.425 . S
C2212 C2219 1.409 . S
C2213 H2205 0.930 . S
C2213 C2211 1.419 . S
C2213 C2214 1.362 . S
C2214 H2206 0.930 . S
C2214 C2213 1.362 . S
C2214 C2217 1.409 . S
C2215 H2207 0.930 . S
C2215 C2216 1.355 . S
C2215 C2217 1.415 . S
C2216 C2215 1.355 . S
C2216 C2218 1.419 . S
C2217 C2212 1.425 . S
C2217 C2214 1.409 . S
C2217 C2215 1.415 . S
C2218 H2208 0.930 . S
C2218 C2216 1.419 . S
C2218 C2219 1.362 . S
C2219 H2209 0.930 . S
C2219 C2212 1.409 . S
C2219 C2218 1.362 . S
H2220 C2226 0.930 . S
H2221 C2229 0.930 . S
H2222 C2230 0.930 . S
H2223 C2231 0.930 . S
H2224 C2234 0.930 . S
H2225 C2235 0.930 . S
C2226 H2220 0.930 . S
C2226 C2227 1.355 . S
C2226 C2228 1.415 . S
C2227 C2226 1.355 . S
C2227 C2229 1.419 . S
C2228 C2226 1.415 . S
C2228 C2233 1.425 . S
C2228 C2235 1.409 . S
C2229 H2221 0.930 . S
C2229 C2227 1.419 . S
C2229 C2230 1.362 . S
C2230 H2222 0.930 . S
C2230 C2229 1.362 . S
C2230 C2233 1.409 . S
C2231 H2223 0.930 . S
C2231 C2232 1.355 . S
C2231 C2233 1.415 . S
C2232 C2231 1.355 . S
C2232 C2234 1.419 . S
C2233 C2228 1.425 . S
C2233 C2230 1.409 . S
C2233 C2231 1.415 . S
C2234 H2224 0.930 . S
C2234 C2232 1.419 . S
C2234 C2235 1.362 . S
C2235 H2225 0.930 . S
C2235 C2228 1.409 . S
C2235 C2234 1.362 . S
H2236 C2242 0.930 . S
H2237 C2245 0.930 . S
H2238 C2246 0.930 . S
H2239 C2247 0.930 . S
H2240 C2250 0.930 . S
H2241 C2251 0.930 . S
C2242 H2236 0.930 . S
C2242 C2243 1.355 . S
C2242 C2244 1.415 . S
C2243 C2242 1.355 . S
C2243 C2245 1.419 . S
C2244 C2242 1.415 . S
C2244 C2249 1.425 . S
C2244 C2251 1.409 . S
C2245 H2237 0.930 . S
C2245 C2243 1.419 . S
C2245 C2246 1.362 . S
C2246 H2238 0.930 . S
C2246 C2245 1.362 . S
C2246 C2249 1.409 . S
C2247 H2239 0.930 . S
C2247 C2248 1.355 . S
C2247 C2249 1.415 . S
C2248 C2247 1.355 . S
C2248 C2250 1.419 . S
C2249 C2244 1.425 . S
C2249 C2246 1.409 . S
C2249 C2247 1.415 . S
C2250 H2240 0.930 . S
C2250 C2248 1.419 . S
C2250 C2251 1.362 . S
C2251 H2241 0.930 . S
C2251 C2244 1.409 . S
C2251 C2250 1.362 . S
H2252 C2258 0.930 . S
H2253 C2261 0.930 . S
H2254 C2262 0.930 . S
H2255 C2263 0.930 . S
H2256 C2266 0.930 . S
H2257 C2267 0.930 . S
C2258 H2252 0.930 . S
C2258 C2259 1.355 . S
C2258 C2260 1.415 . S
C2259 C2258 1.355 . S
C2259 C2261 1.419 . S
C2260 C2258 1.415 . S
C2260 C2265 1.425 . S
C2260 C2267 1.409 . S
C2261 H2253 0.930 . S
C2261 C2259 1.419 . S
C2261 C2262 1.362 . S
C2262 H2254 0.930 . S
C2262 C2261 1.362 . S
C2262 C2265 1.409 . S
C2263 H2255 0.930 . S
C2263 C2264 1.355 . S
C2263 C2265 1.415 . S
C2264 C2263 1.355 . S
C2264 C2266 1.419 . S
C2265 C2260 1.425 . S
C2265 C2262 1.409 . S
C2265 C2263 1.415 . S
C2266 H2256 0.930 . S
C2266 C2264 1.419 . S
C2266 C2267 1.362 . S
C2267 H2257 0.930 . S
C2267 C2260 1.409 . S
C2267 C2266 1.362 . S
H2268 C2274 0.930 . S
H2269 C2277 0.930 1_565 S
H2270 C2278 0.930 . S
H2271 C2279 0.930 . S
H2272 C2282 0.930 . S
H2273 C2283 0.930 . S
C2274 H2268 0.930 . S
C2274 C2275 1.355 1_545 S
C2274 C2276 1.415 . S
C2275 C2274 1.355 1_565 S
C2275 C2277 1.419 1_565 S
C2276 C2274 1.415 . S
C2276 C2281 1.425 . S
C2276 C2283 1.409 . S
C2277 H2269 0.930 1_545 S
C2277 C2275 1.419 1_545 S
C2277 C2278 1.362 . S
C2278 H2270 0.930 . S
C2278 C2277 1.362 . S
C2278 C2281 1.409 . S
C2279 H2271 0.930 . S
C2279 C2280 1.355 . S
C2279 C2281 1.415 . S
C2280 C2279 1.355 . S
C2280 C2282 1.419 . S
C2281 C2276 1.425 . S
C2281 C2278 1.409 . S
C2281 C2279 1.415 . S
C2282 H2272 0.930 . S
C2282 C2280 1.419 . S
C2282 C2283 1.362 . S
C2283 H2273 0.930 . S
C2283 C2276 1.409 . S
C2283 C2282 1.362 . S
H2284 C2290 0.930 . S
H2285 C2293 0.930 1_455 S
H2286 C2294 0.930 . S
H2287 C2295 0.930 . S
H2288 C2298 0.930 . S
H2289 C2299 0.930 . S
C2290 H2284 0.930 . S
C2290 C2291 1.355 . S
C2290 C2292 1.415 . S
C2291 C2290 1.355 . S
C2291 C2293 1.419 . S
C2292 C2290 1.415 . S
C2292 C2297 1.425 . S
C2292 C2299 1.409 . S
C2293 H2285 0.930 1_655 S
C2293 C2291 1.419 . S
C2293 C2294 1.362 . S
C2294 H2286 0.930 . S
C2294 C2293 1.362 . S
C2294 C2297 1.409 . S
C2295 H2287 0.930 . S
C2295 C2296 1.355 . S
C2295 C2297 1.415 . S
C2296 C2295 1.355 . S
C2296 C2298 1.419 . S
C2297 C2292 1.425 . S
C2297 C2294 1.409 . S
C2297 C2295 1.415 . S
C2298 H2288 0.930 . S
C2298 C2296 1.419 . S
C2298 C2299 1.362 . S
C2299 H2289 0.930 . S
C2299 C2292 1.409 . S
C2299 C2298 1.362 . S
H2300 C2306 0.930 . S
H2301 C2309 0.930 . S
H2302 C2310 0.930 . S
H2303 C2311 0.930 . S
H2304 C2314 0.930 . S
H2305 C2315 0.930 . S
C2306 H2300 0.930 . S
C2306 C2307 1.355 . S
C2306 C2308 1.415 . S
C2307 C2306 1.355 . S
C2307 C2309 1.419 . S
C2308 C2306 1.415 . S
C2308 C2313 1.425 . S
C2308 C2315 1.409 . S
C2309 H2301 0.930 . S
C2309 C2307 1.419 . S
C2309 C2310 1.362 . S
C2310 H2302 0.930 . S
C2310 C2309 1.362 . S
C2310 C2313 1.409 . S
C2311 H2303 0.930 . S
C2311 C2312 1.355 . S
C2311 C2313 1.415 . S
C2312 C2311 1.355 . S
C2312 C2314 1.419 . S
C2313 C2308 1.425 . S
C2313 C2310 1.409 . S
C2313 C2311 1.415 . S
C2314 H2304 0.930 . S
C2314 C2312 1.419 . S
C2314 C2315 1.362 . S
C2315 H2305 0.930 . S
C2315 C2308 1.409 . S
C2315 C2314 1.362 . S
H2316 C2322 0.930 . S
H2317 C2325 0.930 . S
H2318 C2326 0.930 . S
H2319 C2327 0.930 . S
H2320 C2330 0.930 . S
H2321 C2331 0.930 . S
C2322 H2316 0.930 . S
C2322 C2323 1.361 . S
C2322 C2324 1.415 . S
C2323 C2322 1.361 . S
C2323 C2325 1.417 1_655 S
C2324 C2322 1.415 . S
C2324 C2329 1.425 . S
C2324 C2331 1.409 . S
C2325 H2317 0.930 . S
C2325 C2323 1.417 1_455 S
C2325 C2326 1.362 1_455 S
C2326 H2318 0.930 . S
C2326 C2325 1.362 1_655 S
C2326 C2329 1.409 . S
C2327 H2319 0.930 . S
C2327 C2328 1.355 . S
C2327 C2329 1.415 . S
C2328 C2327 1.355 . S
C2328 C2330 1.419 . S
C2329 C2324 1.425 . S
C2329 C2326 1.409 . S
C2329 C2327 1.415 . S
C2330 H2320 0.930 . S
C2330 C2328 1.419 . S
C2330 C2331 1.362 . S
C2331 H2321 0.930 . S
C2331 C2324 1.409 . S
C2331 C2330 1.362 . S
H2332 C2338 0.930 . S
H2333 C2341 0.930 . S
H2334 C2342 0.930 . S
H2335 C2343 0.930 . S
H2336 C2346 0.930 . S
H2337 C2347 0.930 . S
C2338 H2332 0.930 . S
C2338 C2339 1.355 . S
C2338 C2340 1.415 . S
C2339 C2338 1.355 . S
C2339 C2341 1.419 . S
C2340 C2338 1.415 . S
C2340 C2345 1.425 . S
C2340 C2347 1.409 . S
C2341 H2333 0.930 . S
C2341 C2339 1.419 . S
C2341 C2342 1.362 . S
C2342 H2334 0.930 . S
C2342 C2341 1.362 . S
C2342 C2345 1.409 . S
C2343 H2335 0.930 . S
C2343 C2344 1.355 . S
C2343 C2345 1.415 . S
C2344 C2343 1.355 . S
C2344 C2346 1.419 . S
C2345 C2340 1.425 . S
C2345 C2342 1.409 . S
C2345 C2343 1.415 . S
C2346 H2336 0.930 . S
C2346 C2344 1.419 . S
C2346 C2347 1.362 . S
C2347 H2337 0.930 . S
C2347 C2340 1.409 . S
C2347 C2346 1.362 . S
H2348 C2354 0.930 . S
H2349 C2357 0.930 . S
H2350 C2358 0.930 . S
H2351 C2359 0.930 . S
H2352 C2362 0.930 . S
H2353 C2363 0.930 . S
C2354 H2348 0.930 . S
C2354 C2355 1.355 1_545 S
C2354 C2356 1.415 . S
C2355 C2354 1.355 1_565 S
C2355 C2357 1.419 . S
C2356 C2354 1.415 . S
C2356 C2361 1.425 . S
C2356 C2363 1.409 . S
C2357 H2349 0.930 . S
C2357 C2355 1.419 . S
C2357 C2358 1.362 1_565 S
C2358 H2350 0.930 . S
C2358 C2357 1.362 1_545 S
C2358 C2361 1.409 . S
C2359 H2351 0.930 . S
C2359 C2360 1.355 . S
C2359 C2361 1.415 . S
C2360 C2359 1.355 . S
C2360 C2362 1.419 . S
C2361 C2356 1.425 . S
C2361 C2358 1.409 . S
C2361 C2359 1.415 . S
C2362 H2352 0.930 . S
C2362 C2360 1.419 . S
C2362 C2363 1.362 . S
C2363 H2353 0.930 . S
C2363 C2356 1.409 . S
C2363 C2362 1.362 . S
H2364 C2370 0.930 . S
H2365 C2373 0.930 . S
H2366 C2374 0.930 . S
H2367 C2375 0.930 . S
H2368 C2378 0.930 . S
H2369 C2379 0.930 . S
C2370 H2364 0.930 . S
C2370 C2371 1.355 . S
C2370 C2372 1.415 . S
C2371 C2370 1.355 . S
C2371 C2373 1.419 . S
C2372 C2370 1.415 . S
C2372 C2377 1.425 . S
C2372 C2379 1.409 . S
C2373 H2365 0.930 . S
C2373 C2371 1.419 . S
C2373 C2374 1.362 . S
C2374 H2366 0.930 . S
C2374 C2373 1.362 . S
C2374 C2377 1.409 . S
C2375 H2367 0.930 . S
C2375 C2376 1.355 . S
C2375 C2377 1.415 . S
C2376 C2375 1.355 . S
C2376 C2378 1.419 . S
C2377 C2372 1.425 . S
C2377 C2374 1.409 . S
C2377 C2375 1.415 . S
C2378 H2368 0.930 . S
C2378 C2376 1.419 . S
C2378 C2379 1.362 . S
C2379 H2369 0.930 . S
C2379 C2372 1.409 . S
C2379 C2378 1.362 . S
H2380 C2386 0.930 . S
H2381 C2389 0.930 . S
H2382 C2390 0.930 . S
H2383 C2391 0.930 . S
H2384 C2394 0.930 . S
H2385 C2395 0.930 . S
C2386 H2380 0.930 . S
C2386 C2387 1.355 . S
C2386 C2388 1.415 . S
C2387 C2386 1.355 . S
C2387 C2389 1.419 . S
C2388 C2386 1.415 . S
C2388 C2393 1.425 . S
C2388 C2395 1.409 . S
C2389 H2381 0.930 . S
C2389 C2387 1.419 . S
C2389 C2390 1.362 . S
C2390 H2382 0.930 . S
C2390 C2389 1.362 . S
C2390 C2393 1.409 . S
C2391 H2383 0.930 . S
C2391 C2392 1.355 . S
C2391 C2393 1.415 . S
C2392 C2391 1.355 . S
C2392 C2394 1.419 . S
C2393 C2388 1.425 . S
C2393 C2390 1.409 . S
C2393 C2391 1.415 . S
C2394 H2384 0.930 . S
C2394 C2392 1.419 . S
C2394 C2395 1.362 . S
C2395 H2385 0.930 . S
C2395 C2388 1.409 . S
C2395 C2394 1.362 . S
H2396 C2402 0.930 . S
H2397 C2405 0.930 . S
H2398 C2406 0.930 . S
H2399 C2407 0.930 . S
H2400 C2410 0.930 . S
H2401 C2411 0.930 . S
C2402 H2396 0.930 . S
C2402 C2403 1.355 . S
C2402 C2404 1.415 . S
C2403 C2402 1.355 . S
C2403 C2405 1.419 . S
C2404 C2402 1.415 . S
C2404 C2409 1.425 . S
C2404 C2411 1.409 . S
C2405 H2397 0.930 . S
C2405 C2403 1.419 . S
C2405 C2406 1.362 . S
C2406 H2398 0.930 . S
C2406 C2405 1.362 . S
C2406 C2409 1.409 . S
C2407 H2399 0.930 . S
C2407 C2408 1.355 . S
C2407 C2409 1.415 . S
C2408 C2407 1.355 . S
C2408 C2410 1.419 . S
C2409 C2404 1.425 . S
C2409 C2406 1.409 . S
C2409 C2407 1.415 . S
C2410 H2400 0.930 . S
C2410 C2408 1.419 . S
C2410 C2411 1.362 . S
C2411 H2401 0.930 . S
C2411 C2404 1.409 . S
C2411 C2410 1.362 . S
H2412 C2418 0.930 . S
H2413 C2421 0.930 . S
H2414 C2422 0.930 . S
H2415 C2423 0.930 . S
H2416 C2426 0.930 1_545 S
H2417 C2427 0.930 1_545 S
C2418 H2412 0.930 . S
C2418 C2419 1.355 . S
C2418 C2420 1.415 . S
C2419 C2418 1.355 . S
C2419 C2421 1.419 . S
C2420 C2418 1.415 . S
C2420 C2425 1.425 . S
C2420 C2427 1.409 . S
C2421 H2413 0.930 . S
C2421 C2419 1.419 . S
C2421 C2422 1.362 . S
C2422 H2414 0.930 . S
C2422 C2421 1.362 . S
C2422 C2425 1.409 . S
C2423 H2415 0.930 . S
C2423 C2424 1.355 . S
C2423 C2425 1.415 . S
C2424 C2423 1.355 . S
C2424 C2426 1.419 . S
C2425 C2420 1.425 . S
C2425 C2422 1.409 . S
C2425 C2423 1.415 . S
C2426 H2416 0.930 1_565 S
C2426 C2424 1.419 . S
C2426 C2427 1.362 . S
C2427 H2417 0.930 1_565 S
C2427 C2420 1.409 . S
C2427 C2426 1.362 . S
H2428 C2434 0.930 . S
H2429 C2437 0.930 . S
H2430 C2438 0.930 . S
H2431 C2439 0.930 . S
H2432 C2442 0.930 . S
H2433 C2443 0.930 . S
C2434 H2428 0.930 . S
C2434 C2435 1.355 . S
C2434 C2436 1.415 . S
C2435 C2434 1.355 . S
C2435 C2437 1.419 . S
C2436 C2434 1.415 . S
C2436 C2441 1.425 . S
C2436 C2443 1.409 . S
C2437 H2429 0.930 . S
C2437 C2435 1.419 . S
C2437 C2438 1.362 . S
C2438 H2430 0.930 . S
C2438 C2437 1.362 . S
C2438 C2441 1.409 . S
C2439 H2431 0.930 . S
C2439 C2440 1.355 . S
C2439 C2441 1.415 . S
C2440 C2439 1.355 . S
C2440 C2442 1.419 . S
C2441 C2436 1.425 . S
C2441 C2438 1.409 . S
C2441 C2439 1.415 . S
C2442 H2432 0.930 . S
C2442 C2440 1.419 . S
C2442 C2443 1.362 . S
C2443 H2433 0.930 . S
C2443 C2436 1.409 . S
C2443 C2442 1.362 . S
H2444 C2450 0.930 . S
H2445 C2453 0.930 . S
H2446 C2454 0.930 . S
H2447 C2455 0.930 . S
H2448 C2458 0.930 . S
H2449 C2459 0.930 . S
C2450 H2444 0.930 . S
C2450 C2451 1.355 . S
C2450 C2452 1.415 . S
C2451 C2450 1.355 . S
C2451 C2453 1.419 . S
C2452 C2450 1.415 . S
C2452 C2457 1.425 . S
C2452 C2459 1.409 . S
C2453 H2445 0.930 . S
C2453 C2451 1.419 . S
C2453 C2454 1.362 . S
C2454 H2446 0.930 . S
C2454 C2453 1.362 . S
C2454 C2457 1.409 . S
C2455 H2447 0.930 . S
C2455 C2456 1.355 . S
C2455 C2457 1.415 . S
C2456 C2455 1.355 . S
C2456 C2458 1.419 . S
C2457 C2452 1.425 . S
C2457 C2454 1.409 . S
C2457 C2455 1.415 . S
C2458 H2448 0.930 . S
C2458 C2456 1.419 . S
C2458 C2459 1.362 . S
C2459 H2449 0.930 . S
C2459 C2452 1.409 . S
C2459 C2458 1.362 . S
H2460 C2466 0.930 . S
H2461 C2469 0.930 . S
H2462 C2470 0.930 . S
H2463 C2471 0.930 . S
H2464 C2474 0.931 . S
H2465 C2475 0.930 . S
C2466 H2460 0.930 . S
C2466 C2467 1.355 . S
C2466 C2468 1.415 . S
C2467 C2466 1.355 . S
C2467 C2469 1.419 . S
C2468 C2466 1.415 . S
C2468 C2473 1.425 . S
C2468 C2475 1.409 . S
C2469 H2461 0.930 . S
C2469 C2467 1.419 . S
C2469 C2470 1.362 . S
C2470 H2462 0.930 . S
C2470 C2469 1.362 . S
C2470 C2473 1.409 . S
C2471 H2463 0.930 . S
C2471 C2472 1.355 . S
C2471 C2473 1.415 . S
C2472 C2471 1.355 . S
C2472 C2474 1.419 . S
C2473 C2468 1.425 . S
C2473 C2470 1.409 . S
C2473 C2471 1.415 . S
C2474 H2464 0.931 . S
C2474 C2472 1.419 . S
C2474 C2475 1.362 . S
C2475 H2465 0.930 . S
C2475 C2468 1.409 . S
C2475 C2474 1.362 . S
H2476 C2482 0.930 . S
H2477 C2485 0.930 . S
H2478 C2486 0.930 . S
H2479 C2487 0.930 . S
H2480 C2490 0.930 . S
H2481 C2491 0.930 . S
C2482 H2476 0.930 . S
C2482 C2483 1.355 . S
C2482 C2484 1.415 . S
C2483 C2482 1.355 . S
C2483 C2485 1.419 . S
C2484 C2482 1.415 . S
C2484 C2489 1.425 . S
C2484 C2491 1.409 . S
C2485 H2477 0.930 . S
C2485 C2483 1.419 . S
C2485 C2486 1.362 . S
C2486 H2478 0.930 . S
C2486 C2485 1.362 . S
C2486 C2489 1.409 . S
C2487 H2479 0.930 . S
C2487 C2488 1.355 . S
C2487 C2489 1.415 . S
C2488 C2487 1.355 . S
C2488 C2490 1.419 . S
C2489 C2484 1.425 . S
C2489 C2486 1.409 . S
C2489 C2487 1.415 . S
C2490 H2480 0.930 . S
C2490 C2488 1.419 . S
C2490 C2491 1.362 . S
C2491 H2481 0.930 . S
C2491 C2484 1.409 . S
C2491 C2490 1.362 . S
H2492 C2498 0.930 . S
H2493 C2501 0.930 . S
H2494 C2502 0.930 . S
H2495 C2503 0.930 . S
H2496 C2506 0.939 . S
H2497 C2507 0.930 . S
C2498 H2492 0.930 . S
C2498 C2499 1.355 . S
C2498 C2500 1.415 . S
C2499 C2498 1.355 . S
C2499 C2501 1.419 . S
C2500 C2498 1.415 . S
C2500 C2505 1.425 . S
C2500 C2507 1.409 . S
C2501 H2493 0.930 . S
C2501 C2499 1.419 . S
C2501 C2502 1.362 . S
C2502 H2494 0.930 . S
C2502 C2501 1.362 . S
C2502 C2505 1.409 . S
C2503 H2495 0.930 . S
C2503 C2504 1.355 . S
C2503 C2505 1.415 . S
C2504 C2503 1.355 . S
C2504 C2506 1.419 . S
C2505 C2500 1.425 . S
C2505 C2502 1.409 . S
C2505 C2503 1.415 . S
C2506 H2496 0.939 . S
C2506 C2504 1.419 . S
C2506 C2507 1.362 . S
C2507 H2497 0.930 . S
C2507 C2500 1.409 . S
C2507 C2506 1.362 . S
H2508 C2514 0.930 . S
H2509 C2517 0.930 . S
H2510 C2518 0.930 . S
H2511 C2519 0.930 . S
H2512 C2522 0.930 . S
H2513 C2523 0.930 . S
C2514 H2508 0.930 . S
C2514 C2515 1.355 . S
C2514 C2516 1.415 . S
C2515 C2514 1.355 . S
C2515 C2517 1.419 . S
C2516 C2514 1.415 . S
C2516 C2521 1.425 . S
C2516 C2523 1.409 . S
C2517 H2509 0.930 . S
C2517 C2515 1.419 . S
C2517 C2518 1.362 . S
C2518 H2510 0.930 . S
C2518 C2517 1.362 . S
C2518 C2521 1.409 . S
C2519 H2511 0.930 . S
C2519 C2520 1.355 . S
C2519 C2521 1.415 . S
C2520 C2519 1.355 . S
C2520 C2522 1.419 . S
C2521 C2516 1.425 . S
C2521 C2518 1.409 . S
C2521 C2519 1.415 . S
C2522 H2512 0.930 . S
C2522 C2520 1.419 . S
C2522 C2523 1.362 . S
C2523 H2513 0.930 . S
C2523 C2516 1.409 . S
C2523 C2522 1.362 . S
H2524 C2530 0.930 . S
H2525 C2533 0.930 . S
H2526 C2534 0.930 . S
H2527 C2535 0.930 . S
H2528 C2538 0.930 . S
H2529 C2539 0.930 . S
C2530 H2524 0.930 . S
C2530 C2531 1.355 . S
C2530 C2532 1.415 . S
C2531 C2530 1.355 . S
C2531 C2533 1.419 . S
C2532 C2530 1.415 . S
C2532 C2537 1.425 . S
C2532 C2539 1.409 . S
C2533 H2525 0.930 . S
C2533 C2531 1.419 . S
C2533 C2534 1.362 . S
C2534 H2526 0.930 . S
C2534 C2533 1.362 . S
C2534 C2537 1.409 . S
C2535 H2527 0.930 . S
C2535 C2536 1.355 . S
C2535 C2537 1.415 . S
C2536 C2535 1.355 . S
C2536 C2538 1.419 . S
C2537 C2532 1.425 . S
C2537 C2534 1.409 . S
C2537 C2535 1.415 . S
C2538 H2528 0.930 . S
C2538 C2536 1.419 . S
C2538 C2539 1.362 . S
C2539 H2529 0.930 . S
C2539 C2532 1.409 . S
C2539 C2538 1.362 . S
H2540 C2546 0.930 . S
H2541 C2549 0.930 . S
H2542 C2550 0.930 . S
H2543 C2551 0.930 . S
H2544 C2554 0.930 . S
H2545 C2555 0.930 . S
C2546 H2540 0.930 . S
C2546 C2547 1.355 . S
C2546 C2548 1.415 . S
C2547 C2546 1.355 . S
C2547 C2549 1.419 . S
C2548 C2546 1.415 . S
C2548 C2553 1.425 . S
C2548 C2555 1.409 . S
C2549 H2541 0.930 . S
C2549 C2547 1.419 . S
C2549 C2550 1.362 . S
C2550 H2542 0.930 . S
C2550 C2549 1.362 . S
C2550 C2553 1.409 . S
C2551 H2543 0.930 . S
C2551 C2552 1.355 . S
C2551 C2553 1.415 . S
C2552 C2551 1.355 . S
C2552 C2554 1.419 . S
C2553 C2548 1.425 . S
C2553 C2550 1.409 . S
C2553 C2551 1.415 . S
C2554 H2544 0.930 . S
C2554 C2552 1.419 . S
C2554 C2555 1.362 . S
C2555 H2545 0.930 . S
C2555 C2548 1.409 . S
C2555 C2554 1.362 . S
H2556 C2562 0.930 . S
H2557 C2565 0.930 . S
H2558 C2566 0.930 . S
H2559 C2567 0.930 . S
H2560 C2570 0.930 . S
H2561 C2571 0.930 . S
C2562 H2556 0.930 . S
C2562 C2563 1.355 . S
C2562 C2564 1.415 . S
C2563 C2562 1.355 . S
C2563 C2565 1.419 . S
C2564 C2562 1.415 . S
C2564 C2569 1.425 . S
C2564 C2571 1.409 . S
C2565 H2557 0.930 . S
C2565 C2563 1.419 . S
C2565 C2566 1.362 . S
C2566 H2558 0.930 . S
C2566 C2565 1.362 . S
C2566 C2569 1.409 . S
C2567 H2559 0.930 . S
C2567 C2568 1.355 . S
C2567 C2569 1.415 . S
C2568 C2567 1.355 . S
C2568 C2570 1.419 . S
C2569 C2564 1.425 . S
C2569 C2566 1.409 . S
C2569 C2567 1.415 . S
C2570 H2560 0.930 . S
C2570 C2568 1.419 . S
C2570 C2571 1.362 . S
C2571 H2561 0.930 . S
C2571 C2564 1.409 . S
C2571 C2570 1.362 . S
H2572 C2578 0.930 . S
H2573 C2581 0.930 . S
H2574 C2582 0.930 . S
H2575 C2583 0.930 . S
H2576 C2586 0.930 . S
H2577 C2587 0.930 . S
C2578 H2572 0.930 . S
C2578 C2579 1.355 . S
C2578 C2580 1.415 . S
C2579 C2578 1.355 . S
C2579 C2581 1.419 . S
C2580 C2578 1.415 . S
C2580 C2585 1.425 . S
C2580 C2587 1.409 . S
C2581 H2573 0.930 . S
C2581 C2579 1.419 . S
C2581 C2582 1.362 . S
C2582 H2574 0.930 . S
C2582 C2581 1.362 . S
C2582 C2585 1.409 . S
C2583 H2575 0.930 . S
C2583 C2584 1.355 . S
C2583 C2585 1.415 . S
C2584 C2583 1.355 . S
C2584 C2586 1.419 . S
C2585 C2580 1.425 . S
C2585 C2582 1.409 . S
C2585 C2583 1.415 . S
C2586 H2576 0.930 . S
C2586 C2584 1.419 . S
C2586 C2587 1.362 . S
C2587 H2577 0.930 . S
C2587 C2580 1.409 . S
C2587 C2586 1.362 . S
H2588 C2594 0.930 . S
H2589 C2597 0.930 . S
H2590 C2598 0.930 . S
H2591 C2599 0.930 . S
H2592 C2602 0.930 . S
H2593 C2603 0.930 . S
C2594 H2588 0.930 . S
C2594 C2595 1.355 . S
C2594 C2596 1.415 . S
C2595 C2594 1.355 . S
C2595 C2597 1.419 . S
C2596 C2594 1.415 . S
C2596 C2601 1.425 . S
C2596 C2603 1.409 . S
C2597 H2589 0.930 . S
C2597 C2595 1.419 . S
C2597 C2598 1.362 . S
C2598 H2590 0.930 . S
C2598 C2597 1.362 . S
C2598 C2601 1.409 . S
C2599 H2591 0.930 . S
C2599 C2600 1.355 . S
C2599 C2601 1.415 . S
C2600 C2599 1.355 . S
C2600 C2602 1.419 . S
C2601 C2596 1.425 . S
C2601 C2598 1.409 . S
C2601 C2599 1.415 . S
C2602 H2592 0.930 . S
C2602 C2600 1.419 . S
C2602 C2603 1.362 . S
C2603 H2593 0.930 . S
C2603 C2596 1.409 . S
C2603 C2602 1.362 . S
H2604 C2610 0.930 . S
H2605 C2613 0.930 . S
H2606 C2614 0.930 . S
H2607 C2615 0.930 . S
H2608 C2618 0.930 . S
H2609 C2619 0.930 . S
C2610 H2604 0.930 . S
C2610 C2611 1.355 . S
C2610 C2612 1.415 . S
C2611 C2610 1.355 . S
C2611 C2613 1.419 . S
C2612 C2610 1.415 . S
C2612 C2617 1.425 . S
C2612 C2619 1.409 . S
C2613 H2605 0.930 . S
C2613 C2611 1.419 . S
C2613 C2614 1.362 . S
C2614 H2606 0.930 . S
C2614 C2613 1.362 . S
C2614 C2617 1.409 . S
C2615 H2607 0.930 . S
C2615 C2616 1.355 . S
C2615 C2617 1.415 . S
C2616 C2615 1.355 . S
C2616 C2618 1.419 . S
C2617 C2612 1.425 . S
C2617 C2614 1.409 . S
C2617 C2615 1.415 . S
C2618 H2608 0.930 . S
C2618 C2616 1.419 . S
C2618 C2619 1.362 . S
C2619 H2609 0.930 . S
C2619 C2612 1.409 . S
C2619 C2618 1.362 . S
H2620 C2626 0.930 . S
H2621 C2629 0.930 . S
H2622 C2630 0.930 . S
H2623 C2631 0.930 . S
H2624 C2634 0.930 . S
H2625 C2635 0.930 . S
C2626 H2620 0.930 . S
C2626 C2627 1.355 . S
C2626 C2628 1.415 . S
C2627 C2626 1.355 . S
C2627 C2629 1.419 . S
C2628 C2626 1.415 . S
C2628 C2633 1.425 . S
C2628 C2635 1.409 . S
C2629 H2621 0.930 . S
C2629 C2627 1.419 . S
C2629 C2630 1.362 . S
C2630 H2622 0.930 . S
C2630 C2629 1.362 . S
C2630 C2633 1.409 . S
C2631 H2623 0.930 . S
C2631 C2632 1.355 . S
C2631 C2633 1.415 . S
C2632 C2631 1.355 . S
C2632 C2634 1.419 . S
C2633 C2628 1.425 . S
C2633 C2630 1.409 . S
C2633 C2631 1.415 . S
C2634 H2624 0.930 . S
C2634 C2632 1.419 . S
C2634 C2635 1.362 . S
C2635 H2625 0.930 . S
C2635 C2628 1.409 . S
C2635 C2634 1.362 . S
H2636 C2642 0.930 . S
H2637 C2645 0.930 . S
H2638 C2646 0.930 . S
H2639 C2647 0.930 . S
H2640 C2650 0.930 . S
H2641 C2651 0.930 . S
C2642 H2636 0.930 . S
C2642 C2643 1.355 . S
C2642 C2644 1.415 . S
C2643 C2642 1.355 . S
C2643 C2645 1.419 . S
C2644 C2642 1.415 . S
C2644 C2649 1.425 . S
C2644 C2651 1.409 . S
C2645 H2637 0.930 . S
C2645 C2643 1.419 . S
C2645 C2646 1.362 . S
C2646 H2638 0.930 . S
C2646 C2645 1.362 . S
C2646 C2649 1.409 . S
C2647 H2639 0.930 . S
C2647 C2648 1.355 . S
C2647 C2649 1.415 . S
C2648 C2647 1.355 . S
C2648 C2650 1.419 . S
C2649 C2644 1.425 . S
C2649 C2646 1.409 . S
C2649 C2647 1.415 . S
C2650 H2640 0.930 . S
C2650 C2648 1.419 . S
C2650 C2651 1.362 . S
C2651 H2641 0.930 . S
C2651 C2644 1.409 . S
C2651 C2650 1.362 . S
H2652 C2658 0.930 . S
H2653 C2661 0.930 . S
H2654 C2662 0.930 . S
H2655 C2663 0.930 . S
H2656 C2666 0.930 . S
H2657 C2667 0.930 . S
C2658 H2652 0.930 . S
C2658 C2659 1.355 . S
C2658 C2660 1.415 . S
C2659 C2658 1.355 . S
C2659 C2661 1.419 . S
C2660 C2658 1.415 . S
C2660 C2665 1.425 . S
C2660 C2667 1.409 . S
C2661 H2653 0.930 . S
C2661 C2659 1.419 . S
C2661 C2662 1.362 . S
C2662 H2654 0.930 . S
C2662 C2661 1.362 . S
C2662 C2665 1.409 . S
C2663 H2655 0.930 . S
C2663 C2664 1.355 . S
C2663 C2665 1.415 . S
C2664 C2663 1.355 . S
C2664 C2666 1.419 . S
C2665 C2660 1.425 . S
C2665 C2662 1.409 . S
C2665 C2663 1.415 . S
C2666 H2656 0.930 . S
C2666 C2664 1.419 . S
C2666 C2667 1.362 . S
C2667 H2657 0.930 . S
C2667 C2660 1.409 . S
C2667 C2666 1.362 . S
H2668 C2674 0.930 . S
H2669 C2677 0.930 . S
H2670 C2678 0.930 . S
H2671 C2679 0.930 . S
H2672 C2682 0.930 . S
H2673 C2683 0.930 . S
C2674 H2668 0.930 . S
C2674 C2675 1.355 . S
C2674 C2676 1.415 . S
C2675 C2674 1.355 . S
C2675 C2677 1.419 . S
C2676 C2674 1.415 . S
C2676 C2681 1.425 . S
C2676 C2683 1.409 . S
C2677 H2669 0.930 . S
C2677 C2675 1.419 . S
C2677 C2678 1.362 . S
C2678 H2670 0.930 . S
C2678 C2677 1.362 . S
C2678 C2681 1.409 . S
C2679 H2671 0.930 . S
C2679 C2680 1.355 . S
C2679 C2681 1.415 . S
C2680 C2679 1.355 . S
C2680 C2682 1.419 . S
C2681 C2676 1.425 . S
C2681 C2678 1.409 . S
C2681 C2679 1.415 . S
C2682 H2672 0.930 . S
C2682 C2680 1.419 . S
C2682 C2683 1.362 . S
C2683 H2673 0.930 . S
C2683 C2676 1.409 . S
C2683 C2682 1.362 . S
H2684 C2690 0.930 . S
H2685 C2693 0.930 . S
H2686 C2694 0.930 . S
H2687 C2695 0.930 . S
H2688 C2698 0.930 . S
H2689 C2699 0.930 . S
C2690 H2684 0.930 . S
C2690 C2691 1.355 . S
C2690 C2692 1.415 . S
C2691 C2690 1.355 . S
C2691 C2693 1.419 . S
C2692 C2690 1.415 . S
C2692 C2697 1.425 . S
C2692 C2699 1.409 . S
C2693 H2685 0.930 . S
C2693 C2691 1.419 . S
C2693 C2694 1.362 . S
C2694 H2686 0.930 . S
C2694 C2693 1.362 . S
C2694 C2697 1.409 . S
C2695 H2687 0.930 . S
C2695 C2696 1.355 . S
C2695 C2697 1.415 . S
C2696 C2695 1.355 . S
C2696 C2698 1.419 . S
C2697 C2692 1.425 . S
C2697 C2694 1.409 . S
C2697 C2695 1.415 . S
C2698 H2688 0.930 . S
C2698 C2696 1.419 . S
C2698 C2699 1.362 . S
C2699 H2689 0.930 . S
C2699 C2692 1.409 . S
C2699 C2698 1.362 . S
C1843 C781 1.420 . S
C1848 C1147 1.425 . S
C1859 C871 1.453 . S
C1864 C1231 1.392 . S
C1875 C751 1.483 . S
C1880 C1311 1.461 . S
C1891 C691 1.412 . S
C1896 C1227 1.421 . S
C1912 C1315 1.384 . S
C1907 C571 1.411 . S
C1923 C601 1.391 . S
C1928 C1143 1.371 . S
C1944 C1136 1.393 . S
C1939 C661 1.436 . S
C1960 C1220 1.439 . S
C1955 C541 1.403 . S
C1971 C631 1.480 . S
C1976 C1322 1.464 . S
C1987 C811 1.443 . S
C1992 C1238 1.435 . S
C2003 C841 1.351 . S
C2008 C1304 1.383 . S
C2024 C1154 1.390 . S
C2019 C721 1.363 . S
C2040 C1399 1.408 . S
C2035 C61 1.407 1_455 S
C2051 C151 1.444 . S
C2056 C1483 1.381 . S
C2067 C31 1.474 . S
C2072 C1563 1.445 . S
C2083 C1051 1.396 . S
C2088 C1479 1.365 . S
C2099 C931 1.375 . S
C2104 C1567 1.355 . S
C2115 C961 1.435 . S
C2120 C1395 1.358 . S
C2131 C1021 1.383 . S
C2136 C1388 1.357 . S
C2147 C901 1.419 . S
C2152 C1472 1.444 . S
C2168 C1574 1.400 . S
C2163 C991 1.483 . S
C2179 C91 1.427 . S
C2184 C1490 1.418 . S
C2200 C1556 1.291 . S
C2195 C121 1.388 1_455 S
C2211 C1 1.343 . S
C2216 C1406 1.344 . S
C2232 C1651 1.379 . S
C2227 C421 1.428 . S
C2243 C511 1.422 . S
C2248 C1735 1.359 . S
C2264 C1815 1.452 . S
C2259 C391 1.446 . S
C2280 C1731 1.378 . S
C2275 C331 1.382 . S
C2296 C1819 1.295 . S
C2291 C211 1.363 1_655 S
C2307 C241 1.433 . S
C2312 C1647 1.355 . S
C2323 C301 1.440 1_655 S
C2328 C1640 1.351 . S
C2339 C181 1.417 . S
C2344 C1724 1.372 . S
C2360 C1826 1.477 . S
C2355 C271 1.494 . S
C2371 C451 1.440 . S
C2376 C1742 1.362 . S
C2387 C481 1.404 . S
C2392 C1808 1.343 . S
C2403 C361 1.411 . S
C2408 C1658 1.422 . S
C2419 C920 1.424 . S
C2424 C1150 1.306 . S
C2440 C1234 1.416 . S
C2435 C980 1.500 . S
C2451 C1040 1.447 . S
C2456 C1306 1.368 . S
C2467 C380 1.478 . S
C2472 C1222 1.336 . S
C2483 C440 1.461 . S
C2488 C1318 1.404 . S
C2504 C1138 1.319 . S
C2499 C500 1.442 . S
C2515 C200 1.413 . S
C2520 C1402 1.345 . S
C2531 C260 1.484 . S
C2536 C1486 1.417 . S
C2547 C320 1.433 . S
C2552 C1558 1.330 . S
C2563 C740 1.504 . S
C2568 C1474 1.400 . S
C2584 C1570 1.349 . S
C2579 C800 1.481 . S
C2595 C860 1.418 . S
C2600 C1390 1.300 . S
C2611 C560 1.437 . S
C2616 C1654 1.402 . S
C2627 C620 1.491 . S
C2632 C1738 1.421 . S
C2648 C1810 1.396 . S
C2643 C680 1.479 . S
C2659 C20 1.493 . S
C2664 C1726 1.412 . S
C2675 C80 1.480 . S
C2680 C1822 1.331 . S
C2691 C140 1.419 . S
C2696 C1642 1.298 . S
