# Generated by pormake.
# Topology anh, (6,3)-cn, num edge types: 1
# Building blocks:
#     Node 0, Type 0, BuildingBlock: GEDQOX_clean_sbu_0, # of connection points: 6
#     Node 1, Type 0, BuildingBlock: GEDQOX_clean_sbu_0, # of connection points: 6
#     Node 2, Type 0, BuildingBlock: GEDQOX_clean_sbu_0, # of connection points: 6
#     Node 3, Type 1, BuildingBlock: BETDAH_clean_linker_0, # of connection points: 3
#     Node 4, Type 1, BuildingBlock: BETDAH_clean_linker_0, # of connection points: 3
#     Node 5, Type 1, BuildingBlock: BETDAH_clean_linker_0, # of connection points: 3
#     Node 6, Type 1, BuildingBlock: BETDAH_clean_linker_0, # of connection points: 3
#     Node 7, Type 1, BuildingBlock: BETDAH_clean_linker_0, # of connection points: 3
#     Node 8, Type 1, BuildingBlock: BETDAH_clean_linker_0, # of connection points: 3
#     Edge 9, Type (0, 1), BuildingBlock: XIVTED_clean_linker_0, # of connection points: 2
#     Edge 10, Type (0, 1), BuildingBlock: XIVTED_clean_linker_0, # of connection points: 2
#     Edge 11, Type (0, 1), BuildingBlock: XIVTED_clean_linker_0, # of connection points: 2
#     Edge 12, Type (0, 1), BuildingBlock: XIVTED_clean_linker_0, # of connection points: 2
#     Edge 13, Type (0, 1), BuildingBlock: XIVTED_clean_linker_0, # of connection points: 2
#     Edge 14, Type (0, 1), BuildingBlock: XIVTED_clean_linker_0, # of connection points: 2
#     Edge 15, Type (0, 1), BuildingBlock: XIVTED_clean_linker_0, # of connection points: 2
#     Edge 16, Type (0, 1), BuildingBlock: XIVTED_clean_linker_0, # of connection points: 2
#     Edge 17, Type (0, 1), BuildingBlock: XIVTED_clean_linker_0, # of connection points: 2
#     Edge 18, Type (0, 1), BuildingBlock: XIVTED_clean_linker_0, # of connection points: 2
#     Edge 19, Type (0, 1), BuildingBlock: XIVTED_clean_linker_0, # of connection points: 2
#     Edge 20, Type (0, 1), BuildingBlock: XIVTED_clean_linker_0, # of connection points: 2
#     Edge 21, Type (0, 1), BuildingBlock: XIVTED_clean_linker_0, # of connection points: 2
#     Edge 22, Type (0, 1), BuildingBlock: XIVTED_clean_linker_0, # of connection points: 2
#     Edge 23, Type (0, 1), BuildingBlock: XIVTED_clean_linker_0, # of connection points: 2
#     Edge 24, Type (0, 1), BuildingBlock: XIVTED_clean_linker_0, # of connection points: 2
#     Edge 25, Type (0, 1), BuildingBlock: XIVTED_clean_linker_0, # of connection points: 2
#     Edge 26, Type (0, 1), BuildingBlock: XIVTED_clean_linker_0, # of connection points: 2
# Relax obj value: 0.146
# Max RMSD: 0.186
# Mean RMSD: 0.109
data_MOF--net-anh--node1-GEDQOX_clean_sbu_0--node2-BETDAH_clean_linker_0--edge1-XIVTED_clean_linker_0
_symmetry_space_group_name_H-M    P1
_symmetry_Int_Tables_number       1
_symmetry_cell_setting            triclinic
loop_
_symmetry_equiv_pos_as_xyz
'x, y, z'
_cell_length_a     32.010252
_cell_length_b     30.519047
_cell_length_c     49.727834
_cell_angle_alpha  96.009208
_cell_angle_beta   93.591154
_cell_angle_gamma 104.08102
loop_
_atom_site_label
_atom_site_type_symbol
_atom_site_fract_x
_atom_site_fract_y
_atom_site_fract_z
_atom_type_partial_charge
Nd0 Nd 0.09506 0.55886 0.13148 0.0
Nd1 Nd 0.07566 0.46864 0.14816 0.0
C2 C 0.12927 0.63701 0.11335 0.0
C3 C 0.16815 0.67338 0.12399 0.0
C4 C 0.19192 0.70121 0.10663 0.0
C5 C 0.2293 0.73504 0.11693 0.0
C6 C 0.24332 0.74174 0.14482 0.0
C7 C 0.21945 0.71351 0.16205 0.0
C8 C 0.18248 0.67957 0.15174 0.0
C9 C 0.09249 0.55929 0.18668 0.0
C10 C 0.1792 0.51056 0.1407 0.0
C11 C 1.04652 0.395 0.17238 0.0
C12 C 1.00516 0.36626 0.17901 0.0
C13 C 0.96933 0.38413 0.18347 0.0
C14 C 0.93046 0.35603 0.18976 0.0
C15 C 0.92663 0.30948 0.19169 0.0
C16 C 0.96272 0.29189 0.1871 0.0
C17 C 1.00149 0.31999 0.18085 0.0
C18 C 0.08122 0.46695 0.09346 0.0
C19 C 0.99141 0.51503 0.13326 0.0
O20 O 0.13617 0.59835 0.10328 0.0
O21 O 0.09731 0.63138 0.12879 0.0
O22 O 0.07643 0.58565 0.17274 0.0
O23 O 0.11056 0.53495 0.1718 0.0
O24 O 0.16393 0.54263 0.13026 0.0
O25 O 0.15171 0.47871 0.15178 0.0
O26 O 1.05932 0.43621 0.18532 0.0
O27 O 1.05344 0.39342 0.14674 0.0
O28 O 0.09854 0.44281 0.10861 0.0
O29 O 0.06138 0.49145 0.10717 0.0
O30 O 1.00594 0.48511 0.14665 0.0
O31 O 1.01995 0.54475 0.12157 0.0
H32 H 0.18163 0.69676 0.08513 0.0
H33 H 0.2469 0.75633 0.10314 0.0
H34 H 0.22974 0.71718 0.18352 0.0
H35 H 0.16511 0.65799 0.1655 0.0
H36 H 0.9714 0.41978 0.18216 0.0
H37 H 0.90359 0.37094 0.1934 0.0
H38 H 0.96088 0.25616 0.18788 0.0
H39 H 1.02868 0.30548 0.17735 0.0
Nd40 Nd 0.55612 0.05762 0.52529 0.0
Nd41 Nd 0.64854 0.07872 0.51543 0.0
C42 C 0.47802 0.0259 0.54056 0.0
C43 C 0.44347 0.9851 0.53047 0.0
C44 C 0.41235 0.96629 0.54743 0.0
C45 C 0.38028 0.9266 0.53791 0.0
C46 C 0.37889 0.90518 0.51124 0.0
C47 C 0.41024 0.92447 0.49437 0.0
C48 C 0.44235 0.96383 0.50394 0.0
C49 C 0.5692 0.06087 0.47131 0.0
C50 C 0.60523 0.9734 0.51947 0.0
C51 C 0.72575 0.10619 0.49758 0.0
C52 C 0.75325 0.14613 0.48783 0.0
C53 C 0.7972 0.14851 0.48619 0.0
C54 C 0.82413 0.18597 0.47684 0.0
C55 C 0.80753 0.22179 0.4689 0.0
C56 C 0.76326 0.21922 0.4706 0.0
C57 C 0.73631 0.18163 0.47999 0.0
C58 C 0.63364 0.07443 0.56916 0.0
C59 C 0.60137 0.16268 0.52581 0.0
O60 O 0.51284 0.01841 0.55237 0.0
O61 O 0.48668 0.05661 0.52387 0.0
O62 O 0.53977 0.07611 0.48309 0.0
O63 O 0.58938 0.0425 0.48758 0.0
O64 O 0.5719 0.98785 0.5277 0.0
O65 O 0.63837 1.00142 0.51079 0.0
O66 O 0.69099 0.08469 0.48185 0.0
O67 O 0.71909 0.11005 0.52327 0.0
O68 O 0.66198 0.05673 0.55757 0.0
O69 O 0.61516 0.09394 0.55276 0.0
O70 O 0.63029 0.14765 0.51206 0.0
O71 O 0.57283 0.13431 0.53789 0.0
H72 H 0.41308 0.98207 0.56807 0.0
H73 H 0.35702 0.91235 0.55157 0.0
H74 H 0.40981 0.90945 0.4736 0.0
H75 H 0.46637 0.97769 0.4906 0.0
H76 H 0.81078 0.12141 0.49225 0.0
H77 H 0.85816 0.1872 0.4763 0.0
H78 H 0.74937 0.24604 0.46447 0.0
H79 H 0.70232 0.18022 0.48108 0.0
Nd80 Nd 0.54694 0.61193 0.83153 0.0
Nd81 Nd 0.64872 0.64042 0.84566 0.0
C82 C 0.46822 0.58771 0.80635 0.0
C83 C 0.42788 0.55561 0.81098 0.0
C84 C 0.39382 0.54188 0.7904 0.0
C85 C 0.35611 0.50963 0.79433 0.0
C86 C 0.35197 0.4907 0.81896 0.0
C87 C 0.38626 0.50485 0.83957 0.0
C88 C 0.42394 0.53691 0.83557 0.0
C89 C 0.56609 0.61745 0.8872 0.0
C90 C 0.60096 0.72049 0.8419 0.0
C91 C 0.72895 0.6444 0.86306 0.0
C92 C 0.75235 0.60811 0.86085 0.0
C93 C 0.74515 0.5738 0.87805 0.0
C94 C 0.76128 0.53547 0.8728 0.0
C95 C 0.78475 0.53044 0.85017 0.0
C96 C 0.79351 0.56574 0.83371 0.0
C97 C 0.77781 0.60427 0.83913 0.0
C98 C 0.62016 0.6393 0.79222 0.0
C99 C 0.59645 0.53016 0.8354 0.0
O100 O 0.48173 0.62364 0.8245 0.0
O101 O 0.49927 0.56912 0.79924 0.0
O102 O 0.52691 0.60636 0.87561 0.0
O103 O 0.59169 0.6257 0.8692 0.0
O104 O 0.56881 0.68919 0.82757 0.0
O105 O 0.63259 0.70908 0.85577 0.0
O106 O 0.6977 0.63987 0.87918 0.0
O107 O 0.71847 0.65785 0.84003 0.0
O108 O 0.65374 0.66909 0.8046 0.0
O109 O 0.60435 0.61078 0.80778 0.0
O110 O 0.63358 0.56163 0.84106 0.0
O111 O 0.55903 0.54063 0.83084 0.0
H112 H 0.39651 0.55584 0.77124 0.0
H113 H 0.33009 0.49974 0.77818 0.0
H114 H 0.38432 0.49046 0.8586 0.0
H115 H 0.45023 0.54672 0.85155 0.0
H116 H 0.72586 0.57574 0.89506 0.0
H117 H 0.75496 0.50958 0.88638 0.0
H118 H 0.81127 0.56305 0.81604 0.0
H119 H 0.78404 0.63017 0.82553 0.0
H120 H 0.49708 0.96798 0.26781 0.0
H121 H 0.62058 0.05964 0.26138 0.0
H122 H 0.54427 0.98481 0.1894 0.0
C123 C 0.52145 0.98408 0.25531 0.0
C124 C 0.51556 0.97232 0.22698 0.0
C125 C 0.55914 0.01546 0.26791 0.0
C126 C 0.59157 0.03535 0.25183 0.0
C127 C 0.58602 0.02414 0.22341 0.0
C128 C 0.54829 0.99264 0.21132 0.0
N129 N 0.61735 0.04341 0.20607 0.0
C130 C 0.65355 0.07962 0.21356 0.0
H131 H 0.60108 0.49026 0.59911 0.0
H132 H 0.60643 0.62365 0.57662 0.0
H133 H 0.61104 0.51416 0.51576 0.0
C134 C 0.60252 0.51289 0.5836 0.0
C135 C 0.60531 0.49612 0.55652 0.0
C136 C 0.603 0.55876 0.59111 0.0
C137 C 0.60651 0.58841 0.57104 0.0
C138 C 0.60951 0.57244 0.5438 0.0
C139 C 0.60914 0.52643 0.53678 0.0
N140 N 0.6126 0.60141 0.52293 0.0
C141 C 0.61252 0.64739 0.52662 0.0
H142 H 0.93855 0.3429 0.90082 0.0
H143 H 1.04807 0.28446 0.89884 0.0
H144 H 0.959 0.26595 0.82778 0.0
C145 C 0.9564 0.32124 0.89052 0.0
C146 C 0.94348 0.30372 0.86328 0.0
C147 C 0.99403 0.31473 0.90377 0.0
C148 C 1.01872 0.28977 0.88919 0.0
C149 C 1.00573 0.27166 0.8619 0.0
C150 C 0.96796 0.27836 0.8491 0.0
N151 N 1.0322 0.24979 0.84648 0.0
C152 C 0.07534 0.27151 0.84525 0.0
H153 H 0.15905 0.64233 0.38871 0.0
H154 H 0.06101 0.52093 0.39654 0.0
H155 H 0.13322 0.60339 0.46781 0.0
C156 C 0.14104 0.61903 0.4014 0.0
C157 C 0.15005 0.62753 0.42968 0.0
C158 C 0.10897 0.58073 0.3893 0.0
C159 C 0.08574 0.55051 0.40581 0.0
C160 C 0.09432 0.55911 0.43428 0.0
C161 C 0.12642 0.59741 0.44592 0.0
N162 N 0.07177 0.53024 0.45204 0.0
C163 C 1.03578 0.49414 0.44434 0.0
H164 H 0.60953 0.21071 0.76344 0.0
H165 H 0.62753 0.08166 0.78292 0.0
H166 H 0.61478 0.18367 0.84629 0.0
C167 C 0.61324 0.18788 0.77818 0.0
C168 C 0.6121 0.20266 0.80573 0.0
C169 C 0.61977 0.14473 0.76953 0.0
C170 C 0.62248 0.11491 0.78907 0.0
C171 C 0.61999 0.12855 0.81678 0.0
C172 C 0.61593 0.17285 0.82495 0.0
N173 N 0.62194 0.0991 0.83704 0.0
C174 C 0.6213 0.05294 0.83234 0.0
H175 H 0.68307 0.54612 0.07397 0.0
H176 H 0.54881 0.53357 0.08588 0.0
H177 H 0.63437 0.50559 0.14889 0.0
C178 C 0.65687 0.53823 0.08682 0.0
C179 C 0.6657 0.52548 0.11263 0.0
C180 C 0.61537 0.54124 0.07697 0.0
C181 C 0.5807 0.53173 0.09348 0.0
C182 C 0.58631 0.51906 0.11951 0.0
C183 C 0.62928 0.51538 0.12889 0.0
N184 N 0.54991 0.51012 0.13636 0.0
C185 C 0.50553 0.51216 0.13126 0.0
H186 H 0.24557 0.57281 0.12041 0.0
H187 H 0.44005 0.44843 0.14973 0.0
H188 H 0.22635 0.44913 0.15758 0.0
H189 H 0.45967 0.57339 0.11406 0.0
H190 H 0.36303 0.44756 0.15215 0.0
H191 H 0.32218 0.57315 0.11762 0.0
C192 C 0.25705 0.54552 0.12808 0.0
C193 C 0.22783 0.51087 0.13934 0.0
C194 C 0.38387 0.47523 0.14368 0.0
C195 C 0.31851 0.51109 0.136 0.0
C196 C 0.42838 0.47571 0.14218 0.0
C197 C 0.45761 0.51085 0.13144 0.0
C198 C 0.36694 0.51029 0.13444 0.0
C199 C 0.43927 0.54521 0.12236 0.0
C200 C 0.30147 0.5458 0.12642 0.0
C201 C 0.24645 0.47684 0.14875 0.0
N202 N 0.39594 0.544 0.12405 0.0
N203 N 0.2897 0.47786 0.14685 0.0
H204 H 0.87372 0.22373 0.43614 0.0
H205 H 0.95648 0.49548 0.45861 0.0
H206 H 0.80822 0.3119 0.48076 0.0
H207 H 1.03071 0.40724 0.42382 0.0
H208 H 0.89587 0.42898 0.45991 0.0
H209 H 0.92584 0.29076 0.42502 0.0
C210 C 0.8702 0.25718 0.44355 0.0
C211 C 0.8368 0.26212 0.45973 0.0
C212 C 0.92514 0.42411 0.45163 0.0
C213 C 0.89619 0.33908 0.44679 0.0
C214 C 0.95951 0.46201 0.45076 0.0
C215 C 0.99813 0.45634 0.44103 0.0
C216 C 0.9298 0.38038 0.44287 0.0
C217 C 1.0011 0.41262 0.43135 0.0
C218 C 0.89986 0.29544 0.43706 0.0
C219 C 0.83327 0.30635 0.46816 0.0
N220 N 0.9674 0.37611 0.43269 0.0
N221 N 0.86281 0.34309 0.46178 0.0
H222 H 0.54305 0.75801 0.81502 0.0
H223 H 0.68125 0.017 0.85616 0.0
H224 H 0.6641 0.79575 0.86539 0.0
H225 H 0.55856 0.98007 0.808 0.0
H226 H 0.67667 0.936 0.85851 0.0
H227 H 0.54867 0.83853 0.81148 0.0
C228 C 0.57077 0.78313 0.82546 0.0
C229 C 0.60311 0.76971 0.8406 0.0
C230 C 0.65081 0.94543 0.84727 0.0
C231 C 0.60987 0.8626 0.83642 0.0
C232 C 0.65356 0.99165 0.84583 0.0
C233 C 0.62039 0.00496 0.8317 0.0
C234 C 0.61446 0.91221 0.83456 0.0
C235 C 0.58495 0.97101 0.81893 0.0
C236 C 0.57399 0.82925 0.82335 0.0
C237 C 0.63827 0.80418 0.85355 0.0
N238 N 0.58285 0.92621 0.82069 0.0
N239 N 0.64071 0.84883 0.85114 0.0
H240 H 0.9508 0.57553 0.11038 0.0
H241 H 0.7008 0.46115 0.13849 0.0
H242 H 0.91862 0.45677 0.15206 0.0
H243 H 0.74259 0.58696 0.10454 0.0
H244 H 0.77749 0.45739 0.14428 0.0
H245 H 0.87453 0.57794 0.10792 0.0
C246 C 0.92799 0.54968 0.11905 0.0
C247 C 0.94278 0.51585 0.13147 0.0
C248 C 0.76995 0.48598 0.13565 0.0
C249 C 0.8522 0.51848 0.12859 0.0
C250 C 0.72565 0.4884 0.13254 0.0
C251 C 0.7135 0.52438 0.12075 0.0
C252 C 0.8036 0.51973 0.12697 0.0
C253 C 0.74878 0.55793 0.11333 0.0
C254 C 0.88377 0.55117 0.11765 0.0
C255 C 0.90998 0.48373 0.14223 0.0
N256 N 0.79096 0.55461 0.11637 0.0
N257 N 0.86707 0.48579 0.14049 0.0
H258 H 0.29305 0.88303 0.52099 0.0
H259 H 0.23191 0.65727 0.41479 0.0
H260 H 0.38723 0.83094 0.47779 0.0
H261 H 0.146 0.68897 0.4731 0.0
H262 H 0.28794 0.72399 0.43556 0.0
H263 H 0.23753 0.81453 0.5022 0.0
C264 C 0.30221 0.8571 0.50776 0.0
C265 C 0.34495 0.86302 0.50087 0.0
C266 C 0.25688 0.7163 0.44388 0.0
C267 C 0.28131 0.78493 0.47891 0.0
C268 C 0.22484 0.67843 0.43192 0.0
C269 C 0.1843 0.6677 0.44224 0.0
C270 C 0.24819 0.74395 0.46615 0.0
C271 C 0.17698 0.69591 0.46467 0.0
C272 C 0.27041 0.81811 0.49693 0.0
C273 C 0.35462 0.82844 0.48327 0.0
N274 N 0.20856 0.73291 0.47581 0.0
N275 N 0.32304 0.79106 0.47281 0.0
H276 H 0.53116 0.45532 0.81487 0.0
H277 H 0.66386 0.27018 0.84297 0.0
H278 H 0.66316 0.49274 0.85084 0.0
H279 H 0.55047 0.24248 0.78626 0.0
H280 H 0.65967 0.34984 0.85198 0.0
H281 H 0.53342 0.37541 0.81001 0.0
C282 C 0.56059 0.44684 0.8219 0.0
C283 C 0.59707 0.48114 0.83321 0.0
C284 C 0.63552 0.32621 0.83773 0.0
C285 C 0.59974 0.38907 0.82779 0.0
C286 C 0.63771 0.2807 0.83276 0.0
C287 C 0.60745 0.24965 0.81384 0.0
C288 C 0.60241 0.34061 0.82401 0.0
C289 C 0.57455 0.26529 0.80091 0.0
C290 C 0.56188 0.40108 0.81903 0.0
C291 C 0.63428 0.46767 0.84187 0.0
N292 N 0.57288 0.30948 0.80625 0.0
N293 N 0.63463 0.4228 0.83903 0.0
H294 H 0.54224 0.90482 0.53538 0.0
H295 H 0.67664 0.71507 0.51356 0.0
H296 H 0.66931 0.93103 0.50654 0.0
H297 H 0.54889 0.68764 0.54085 0.0
H298 H 0.6753 0.79488 0.51204 0.0
H299 H 0.54438 0.82587 0.53826 0.0
C300 C 0.57061 0.89406 0.5296 0.0
C301 C 0.60566 0.92489 0.52067 0.0
C302 C 0.64758 0.77158 0.51849 0.0
C303 C 0.60834 0.83409 0.52405 0.0
C304 C 0.64845 0.72613 0.51944 0.0
C305 C 0.61292 0.69514 0.52746 0.0
C306 C 0.61077 0.78609 0.52555 0.0
C307 C 0.57699 0.71077 0.53468 0.0
C308 C 0.5718 0.84886 0.53129 0.0
C309 C 0.64147 0.90868 0.51349 0.0
N310 N 0.57677 0.75516 0.53352 0.0
N311 N 0.64188 0.86455 0.51535 0.0
H312 H 0.74361 0.44195 0.85578 0.0
H313 H 0.94971 0.35184 0.82018 0.0
H314 H 0.86091 0.52326 0.82975 0.0
H315 H 0.86026 0.29391 0.87595 0.0
H316 H 0.90215 0.40007 0.80824 0.0
H317 H 0.77305 0.37511 0.84939 0.0
C318 C 0.77544 0.44584 0.84865 0.0
C319 C 0.8002 0.48868 0.84389 0.0
C320 C 0.8923 0.37577 0.82246 0.0
C321 C 0.83319 0.41201 0.83567 0.0
C322 C 0.91912 0.34792 0.82902 0.0
C323 C 0.9089 0.3194 0.84924 0.0
C324 C 0.85515 0.37479 0.83623 0.0
C325 C 0.86923 0.31587 0.8604 0.0
C326 C 0.79191 0.40755 0.84471 0.0
C327 C 0.84054 0.49113 0.83369 0.0
N328 N 0.84404 0.34394 0.85409 0.0
N329 N 0.85591 0.45343 0.83017 0.0
H330 H 0.25411 0.80127 0.19144 0.0
H331 H 0.50688 0.90671 0.18297 0.0
H332 H 0.32237 0.76423 0.12405 0.0
H333 H 0.43196 0.96164 0.24081 0.0
H334 H 0.44063 0.85258 0.16197 0.0
H335 H 0.31981 0.85796 0.21085 0.0
C336 C 0.28297 0.80503 0.18073 0.0
C337 C 0.28271 0.77778 0.15611 0.0
C338 C 0.4387 0.87656 0.17922 0.0
C339 C 0.3583 0.84285 0.17827 0.0
C340 C 0.47656 0.90773 0.19119 0.0
C341 C 0.47531 0.93901 0.21382 0.0
C342 C 0.39913 0.87628 0.19 0.0
C343 C 0.4349 0.93783 0.22375 0.0
C344 C 0.32045 0.83759 0.19177 0.0
C345 C 0.32097 0.78468 0.14296 0.0
N346 N 0.39859 0.90699 0.21186 0.0
N347 N 0.35725 0.81629 0.15428 0.0
H348 H 0.54717 0.20357 0.55348 0.0
H349 H 0.65492 0.45734 0.52227 0.0
H350 H 0.65534 0.23411 0.50495 0.0
H351 H 0.55214 0.42234 0.57434 0.0
H352 H 0.65383 0.37625 0.51321 0.0
H353 H 0.5472 0.28364 0.55911 0.0
C354 C 0.571 0.22708 0.54393 0.0
C355 C 0.60138 0.21179 0.52874 0.0
C356 C 0.63149 0.38639 0.52657 0.0
C357 C 0.60156 0.30454 0.53519 0.0
C358 C 0.6319 0.43265 0.53162 0.0
C359 C 0.60381 0.44689 0.54929 0.0
C360 C 0.60256 0.35403 0.53912 0.0
C361 C 0.57492 0.41326 0.56096 0.0
C362 C 0.57098 0.27304 0.54718 0.0
C363 C 0.63134 0.24424 0.51687 0.0
N364 N 0.57513 0.3687 0.55572 0.0
N365 N 0.63072 0.28907 0.52037 0.0
H366 H 0.30583 0.41833 0.78299 0.0
H367 H 0.12353 0.33673 0.8831 0.0
H368 H 0.30777 0.484 0.86442 0.0
H369 H 0.12282 0.26943 0.80244 0.0
H370 H 0.19311 0.38891 0.87752 0.0
H371 H 0.24017 0.36193 0.7902 0.0
C372 C 0.29232 0.42101 0.80235 0.0
C373 C 0.31223 0.45605 0.8231 0.0
C374 C 0.17804 0.3625 0.86111 0.0
C375 C 0.2373 0.39132 0.83161 0.0
C376 C 0.13855 0.33271 0.86437 0.0
C377 C 0.11815 0.29893 0.84324 0.0
C378 C 0.1968 0.35846 0.83643 0.0
C379 C 0.1381 0.29508 0.81921 0.0
C380 C 0.255 0.38861 0.80652 0.0
C381 C 0.29373 0.45735 0.84794 0.0
N382 N 0.17638 0.32469 0.81637 0.0
N383 N 0.25724 0.42556 0.85146 0.0
H384 H 0.84332 0.30989 0.17433 0.0
H385 H 0.7329 0.08343 0.23779 0.0
H386 H 0.91494 0.23946 0.22345 0.0
H387 H 0.66136 0.1591 0.19306 0.0
H388 H 0.79961 0.14271 0.23533 0.0
H389 H 0.77613 0.25773 0.18332 0.0
C390 C 0.84501 0.2838 0.18724 0.0
C391 C 0.88514 0.2791 0.19799 0.0
C392 C 0.76928 0.14671 0.22634 0.0
C393 C 0.80791 0.21854 0.2081 0.0
C394 C 0.73129 0.11304 0.22789 0.0
C395 C 0.6919 0.1169 0.21579 0.0
C396 C 0.76772 0.18414 0.21232 0.0
C397 C 0.69127 0.15531 0.20282 0.0
C398 C 0.80653 0.25379 0.19225 0.0
C399 C 0.88498 0.24401 0.21426 0.0
N400 N 0.72865 0.18734 0.20126 0.0
N401 N 0.8471 0.21505 0.2187 0.0
H402 H 0.13266 0.43344 0.06004 0.0
H403 H 0.94376 0.32656 0.94535 0.0
H404 H 1.00973 0.46776 0.06049 0.0
H405 H 0.07712 0.35448 0.92687 0.0
H406 H 0.96696 0.3703 0.98992 0.0
H407 H 0.1132 0.39829 0.01284 0.0
C408 C 0.10186 0.4342 0.04997 0.0
C409 C 0.07269 0.45342 0.064 0.0
C410 C 0.99106 0.36691 0.97604 0.0
C411 C 1.04983 0.41226 0.01062 0.0
C412 C 0.97793 0.34192 0.95056 0.0
C413 C 1.00844 0.3371 0.93204 0.0
C414 C 1.03513 0.38648 0.98345 0.0
C415 C 1.05239 0.35675 0.94045 0.0
C416 C 0.0908 0.41412 0.02315 0.0
C417 C 1.03316 0.45348 0.05025 0.0
N418 N 0.06445 0.38047 0.9656 0.0
N419 N 1.02252 0.43242 0.02438 0.0
H420 H 0.62599 0.02645 0.44117 0.0
H421 H 0.50059 0.04074 0.29963 0.0
H422 H 0.51812 0.08725 0.4338 0.0
H423 H 0.62778 0.01628 0.30435 0.0
H424 H 0.50559 0.05451 0.34912 0.0
H425 H 0.62678 0.01907 0.39144 0.0
C426 C 0.60264 0.03838 0.42911 0.0
C427 C 0.57182 0.05729 0.44158 0.0
C428 C 0.53261 0.04643 0.33941 0.0
C429 C 0.57229 0.0487 0.38492 0.0
C430 C 0.52968 0.03845 0.31116 0.0
C431 C 0.56377 0.02723 0.2979 0.0
C432 C 0.56969 0.04263 0.35472 0.0
C433 C 0.60089 0.02507 0.31382 0.0
C434 C 0.60314 0.03425 0.40078 0.0
C435 C 0.54233 0.07228 0.42505 0.0
N436 N 0.60273 0.03225 0.34144 0.0
N437 N 0.54311 0.06737 0.39764 0.0
H438 H 0.56124 0.56893 0.7615 0.0
H439 H 0.64938 0.63883 0.62079 0.0
H440 H 0.65874 0.69188 0.75506 0.0
H441 H 0.5511 0.5165 0.62753 0.0
H442 H 0.64857 0.66244 0.66928 0.0
H443 H 0.55229 0.55273 0.71196 0.0
C444 C 0.58036 0.59281 0.74963 0.0
C445 C 0.61093 0.63166 0.76237 0.0
C446 C 0.62698 0.63057 0.66011 0.0
C447 C 0.60129 0.61314 0.70567 0.0
C448 C 0.62725 0.61718 0.63238 0.0
C449 C 0.60056 0.57539 0.62007 0.0
C450 C 0.59981 0.60199 0.67572 0.0
C451 C 0.57285 0.54857 0.63623 0.0
C452 C 0.57538 0.58348 0.72133 0.0
C453 C 0.63496 0.66139 0.74602 0.0
N454 N 0.57339 0.56218 0.66318 0.0
N455 N 0.62988 0.65134 0.71853 0.0
H456 H 0.65158 0.0209 0.60712 0.0
H457 H 0.65669 0.20042 0.73276 0.0
H458 H 0.61015 0.14338 0.59835 0.0
H459 H 0.59474 0.05956 0.73886 0.0
H460 H 0.65865 0.18087 0.68426 0.0
H461 H 0.64849 0.03497 0.65672 0.0
C462 C 0.6419 0.05065 0.61565 0.0
C463 C 0.63112 0.08108 0.59877 0.0
C464 C 0.64473 0.15435 0.69633 0.0
C465 C 0.62861 0.0977 0.65489 0.0
C466 C 0.64313 0.16541 0.72406 0.0
C467 C 0.62436 0.1319 0.74016 0.0
C468 C 0.62879 0.10919 0.6845 0.0
C469 C 0.60952 0.08669 0.72749 0.0
C470 C 0.63998 0.05848 0.64378 0.0
C471 C 0.61859 0.11904 0.61068 0.0
N472 N 0.61212 0.0766 0.70037 0.0
N473 N 0.61829 0.12664 0.63805 0.0
H474 H 0.63935 0.59843 0.90958 0.0
H475 H 0.56258 0.59422 0.05965 0.0
H476 H 0.51713 0.62247 0.92956 0.0
H477 H 0.6526 0.51941 0.03035 0.0
H478 H 0.55241 0.61583 0.01417 0.0
H479 H 0.65278 0.58197 0.95624 0.0
C480 C 0.61582 0.60119 0.92395 0.0
C481 C 0.5773 0.61225 0.91583 0.0
C482 C 0.57445 0.59476 0.01779 0.0
C483 C 0.59211 0.59307 0.96904 0.0
C484 C 0.58008 0.58204 0.04375 0.0
C485 C 0.60856 0.55478 0.04916 0.0
C486 C 0.59784 0.58077 -0.00301 0.0
C487 C 0.63095 0.54114 0.02757 0.0
C488 C 0.62322 0.59129 0.95046 0.0
C489 C 0.54731 0.61419 0.93506 0.0
N490 N 0.62524 0.55439 0.00258 0.0
N491 N 0.55537 0.60484 0.96076 0.0
H492 H 0.06185 0.6166 0.22115 0.0
H493 H 0.10792 0.50427 0.35472 0.0
H494 H 0.12146 0.50401 0.21965 0.0
H495 H 0.09125 0.64043 0.35603 0.0
H496 H 0.10106 0.49621 0.30475 0.0
H497 H 0.06114 0.61873 0.27034 0.0
C498 C 0.07474 0.59225 0.2312 0.0
C499 C 0.09194 0.56022 0.21638 0.0
C500 C 0.09866 0.5277 0.31604 0.0
C501 C 0.09086 0.56217 0.27265 0.0
C502 C 0.10221 0.53214 0.34444 0.0
C503 C 0.10031 0.57313 0.35937 0.0
C504 C 0.09254 0.56429 0.30263 0.0
C505 C 0.09323 0.60842 0.3452 0.0
C506 C 0.07432 0.59349 0.25927 0.0
C507 C 0.10802 0.52932 0.2304 0.0
N508 N 0.08961 0.6032 0.31764 0.0
N509 N 0.10706 0.531 0.25782 0.0
loop_
_geom_bond_atom_site_label_1
_geom_bond_atom_site_label_2
_geom_bond_distance
_geom_bond_site_symmetry_2
_ccdc_geom_bond_type
Nd0 C2 2.836 . S
Nd0 O20 2.500 . S
Nd0 O21 2.492 . S
Nd0 O22 2.487 . S
Nd0 O23 2.682 . S
Nd0 O24 2.410 . S
Nd0 O29 2.414 . S
Nd0 O31 2.424 1_455 S
Nd1 C11 2.836 1_455 S
Nd1 O23 2.414 . S
Nd1 O25 2.424 . S
Nd1 O26 2.500 1_455 S
Nd1 O27 2.492 1_455 S
Nd1 O28 2.487 . S
Nd1 O29 2.682 . S
Nd1 O30 2.410 1_455 S
C2 Nd0 2.836 . S
C2 C3 1.498 . S
C2 O20 1.258 . S
C2 O21 1.239 . S
C3 C2 1.498 . S
C3 C4 1.366 . S
C3 C8 1.407 . S
C4 C3 1.366 . S
C4 C5 1.392 . S
C4 H32 0.930 . S
C5 C4 1.392 . S
C5 C6 1.398 . S
C5 H33 0.929 . S
C6 C5 1.398 . S
C6 C7 1.352 . S
C7 C6 1.352 . S
C7 C8 1.384 . S
C7 H34 0.930 . S
C8 C3 1.407 . S
C8 C7 1.384 . S
C8 H35 0.929 . S
C9 O22 1.241 . S
C9 O23 1.273 . S
C10 O24 1.251 . S
C10 O25 1.268 . S
C11 Nd1 2.836 1_655 S
C11 C12 1.498 . S
C11 O26 1.258 . S
C11 O27 1.239 . S
C12 C11 1.498 . S
C12 C13 1.366 . S
C12 C17 1.407 . S
C13 C12 1.366 . S
C13 C14 1.392 . S
C13 H36 0.930 . S
C14 C13 1.392 . S
C14 C15 1.398 . S
C14 H37 0.929 . S
C15 C14 1.398 . S
C15 C16 1.352 . S
C16 C15 1.352 . S
C16 C17 1.384 . S
C16 H38 0.930 . S
C17 C12 1.407 . S
C17 C16 1.384 . S
C17 H39 0.929 . S
C18 O28 1.241 . S
C18 O29 1.273 . S
C19 O30 1.251 . S
C19 O31 1.268 . S
O20 Nd0 2.500 . S
O20 C2 1.258 . S
O21 Nd0 2.492 . S
O21 C2 1.239 . S
O22 Nd0 2.487 . S
O22 C9 1.241 . S
O23 Nd0 2.682 . S
O23 Nd1 2.414 . S
O23 C9 1.273 . S
O24 Nd0 2.410 . S
O24 C10 1.251 . S
O25 Nd1 2.424 . S
O25 C10 1.268 . S
O26 Nd1 2.500 1_655 S
O26 C11 1.258 . S
O27 Nd1 2.492 1_655 S
O27 C11 1.239 . S
O28 Nd1 2.487 . S
O28 C18 1.241 . S
O29 Nd0 2.414 . S
O29 Nd1 2.682 . S
O29 C18 1.273 . S
O30 Nd1 2.410 1_655 S
O30 C19 1.251 . S
O31 Nd0 2.424 1_655 S
O31 C19 1.268 . S
H32 C4 0.930 . S
H33 C5 0.929 . S
H34 C7 0.930 . S
H35 C8 0.929 . S
H36 C13 0.930 . S
H37 C14 0.929 . S
H38 C16 0.930 . S
H39 C17 0.929 . S
Nd40 C42 2.836 1_545 S
Nd40 O60 2.500 1_545 S
Nd40 O61 2.492 1_545 S
Nd40 O62 2.487 . S
Nd40 O63 2.682 . S
Nd40 O64 2.410 1_545 S
Nd40 O69 2.414 . S
Nd40 O71 2.424 . S
Nd41 C51 2.836 . S
Nd41 O63 2.414 . S
Nd41 O65 2.424 1_545 S
Nd41 O66 2.500 . S
Nd41 O67 2.492 . S
Nd41 O68 2.487 . S
Nd41 O69 2.682 . S
Nd41 O70 2.410 . S
C42 Nd40 2.836 1_565 S
C42 C43 1.498 . S
C42 O60 1.258 . S
C42 O61 1.239 . S
C43 C42 1.498 . S
C43 C44 1.366 . S
C43 C48 1.407 . S
C44 C43 1.366 . S
C44 C45 1.392 . S
C44 H72 0.930 . S
C45 C44 1.392 . S
C45 C46 1.398 . S
C45 H73 0.929 . S
C46 C45 1.398 . S
C46 C47 1.352 . S
C47 C46 1.352 . S
C47 C48 1.384 . S
C47 H74 0.930 . S
C48 C43 1.407 . S
C48 C47 1.384 . S
C48 H75 0.929 . S
C49 O62 1.241 . S
C49 O63 1.273 . S
C50 O64 1.251 . S
C50 O65 1.268 . S
C51 Nd41 2.836 . S
C51 C52 1.498 . S
C51 O66 1.258 . S
C51 O67 1.239 . S
C52 C51 1.498 . S
C52 C53 1.366 . S
C52 C57 1.407 . S
C53 C52 1.366 . S
C53 C54 1.392 . S
C53 H76 0.930 . S
C54 C53 1.392 . S
C54 C55 1.398 . S
C54 H77 0.929 . S
C55 C54 1.398 . S
C55 C56 1.352 . S
C56 C55 1.352 . S
C56 C57 1.384 . S
C56 H78 0.930 . S
C57 C52 1.407 . S
C57 C56 1.384 . S
C57 H79 0.929 . S
C58 O68 1.241 . S
C58 O69 1.273 . S
C59 O70 1.251 . S
C59 O71 1.268 . S
O60 Nd40 2.500 1_565 S
O60 C42 1.258 . S
O61 Nd40 2.492 1_565 S
O61 C42 1.239 . S
O62 Nd40 2.487 . S
O62 C49 1.241 . S
O63 Nd40 2.682 . S
O63 Nd41 2.414 . S
O63 C49 1.273 . S
O64 Nd40 2.410 1_565 S
O64 C50 1.251 . S
O65 Nd41 2.424 1_565 S
O65 C50 1.268 . S
O66 Nd41 2.500 . S
O66 C51 1.258 . S
O67 Nd41 2.492 . S
O67 C51 1.239 . S
O68 Nd41 2.487 . S
O68 C58 1.241 . S
O69 Nd40 2.414 . S
O69 Nd41 2.682 . S
O69 C58 1.273 . S
O70 Nd41 2.410 . S
O70 C59 1.251 . S
O71 Nd40 2.424 . S
O71 C59 1.268 . S
H72 C44 0.930 . S
H73 C45 0.929 . S
H74 C47 0.930 . S
H75 C48 0.929 . S
H76 C53 0.930 . S
H77 C54 0.929 . S
H78 C56 0.930 . S
H79 C57 0.929 . S
Nd80 C82 2.836 . S
Nd80 O100 2.500 . S
Nd80 O101 2.492 . S
Nd80 O102 2.487 . S
Nd80 O103 2.682 . S
Nd80 O104 2.410 . S
Nd80 O109 2.414 . S
Nd80 O111 2.424 . S
Nd81 C91 2.836 . S
Nd81 O103 2.414 . S
Nd81 O105 2.424 . S
Nd81 O106 2.500 . S
Nd81 O107 2.492 . S
Nd81 O108 2.487 . S
Nd81 O109 2.682 . S
Nd81 O110 2.410 . S
C82 Nd80 2.836 . S
C82 C83 1.498 . S
C82 O100 1.258 . S
C82 O101 1.239 . S
C83 C82 1.498 . S
C83 C84 1.366 . S
C83 C88 1.407 . S
C84 C83 1.366 . S
C84 C85 1.392 . S
C84 H112 0.930 . S
C85 C84 1.392 . S
C85 C86 1.398 . S
C85 H113 0.929 . S
C86 C85 1.398 . S
C86 C87 1.352 . S
C87 C86 1.352 . S
C87 C88 1.384 . S
C87 H114 0.930 . S
C88 C83 1.407 . S
C88 C87 1.384 . S
C88 H115 0.929 . S
C89 O102 1.241 . S
C89 O103 1.273 . S
C90 O104 1.251 . S
C90 O105 1.268 . S
C91 Nd81 2.836 . S
C91 C92 1.498 . S
C91 O106 1.258 . S
C91 O107 1.239 . S
C92 C91 1.498 . S
C92 C93 1.366 . S
C92 C97 1.407 . S
C93 C92 1.366 . S
C93 C94 1.392 . S
C93 H116 0.930 . S
C94 C93 1.392 . S
C94 C95 1.398 . S
C94 H117 0.929 . S
C95 C94 1.398 . S
C95 C96 1.352 . S
C96 C95 1.352 . S
C96 C97 1.384 . S
C96 H118 0.930 . S
C97 C92 1.407 . S
C97 C96 1.384 . S
C97 H119 0.929 . S
C98 O108 1.241 . S
C98 O109 1.273 . S
C99 O110 1.251 . S
C99 O111 1.268 . S
O100 Nd80 2.500 . S
O100 C82 1.258 . S
O101 Nd80 2.492 . S
O101 C82 1.239 . S
O102 Nd80 2.487 . S
O102 C89 1.241 . S
O103 Nd80 2.682 . S
O103 Nd81 2.414 . S
O103 C89 1.273 . S
O104 Nd80 2.410 . S
O104 C90 1.251 . S
O105 Nd81 2.424 . S
O105 C90 1.268 . S
O106 Nd81 2.500 . S
O106 C91 1.258 . S
O107 Nd81 2.492 . S
O107 C91 1.239 . S
O108 Nd81 2.487 . S
O108 C98 1.241 . S
O109 Nd80 2.414 . S
O109 Nd81 2.682 . S
O109 C98 1.273 . S
O110 Nd81 2.410 . S
O110 C99 1.251 . S
O111 Nd80 2.424 . S
O111 C99 1.268 . S
H112 C84 0.930 . S
H113 C85 0.929 . S
H114 C87 0.930 . S
H115 C88 0.929 . S
H116 C93 0.930 . S
H117 C94 0.929 . S
H118 C96 0.930 . S
H119 C97 0.929 . S
H120 C123 0.929 . S
H121 C126 0.929 . S
H122 C128 0.930 . S
C123 H120 0.929 . S
C123 C124 1.398 . S
C123 C125 1.396 . S
C124 C123 1.398 . S
C124 C128 1.407 . S
C125 C123 1.396 . S
C125 C126 1.394 . S
C126 H121 0.929 . S
C126 C125 1.394 . S
C126 C127 1.382 . S
C127 C126 1.382 . S
C127 C128 1.392 . S
C127 N129 1.420 . S
C128 H122 0.930 . S
C128 C124 1.407 . S
C128 C127 1.392 . S
N129 C127 1.420 . S
N129 C130 1.244 . S
C130 N129 1.244 . S
H131 C134 0.929 . S
H132 C137 0.929 . S
H133 C139 0.930 . S
C134 H131 0.929 . S
C134 C135 1.398 . S
C134 C136 1.396 . S
C135 C134 1.398 . S
C135 C139 1.407 . S
C136 C134 1.396 . S
C136 C137 1.394 . S
C137 H132 0.929 . S
C137 C136 1.394 . S
C137 C138 1.382 . S
C138 C137 1.382 . S
C138 C139 1.392 . S
C138 N140 1.420 . S
C139 H133 0.930 . S
C139 C135 1.407 . S
C139 C138 1.392 . S
N140 C138 1.420 . S
N140 C141 1.244 . S
C141 N140 1.244 . S
H142 C145 0.929 1_655 S
H143 C148 0.929 . S
H144 C150 0.930 . S
C145 H142 0.929 1_455 S
C145 C146 1.400 . S
C145 C147 1.396 . S
C146 C145 1.400 . S
C146 C150 1.429 . S
C147 C145 1.396 . S
C147 C148 1.394 . S
C148 H143 0.929 . S
C148 C147 1.394 . S
C148 C149 1.382 . S
C149 C148 1.382 . S
C149 C150 1.392 . S
C149 N151 1.420 . S
C150 H144 0.930 . S
C150 C146 1.429 . S
C150 C149 1.392 . S
N151 C149 1.420 . S
N151 C152 1.244 . S
C152 N151 1.244 . S
H153 C156 0.929 . S
H154 C159 0.929 . S
H155 C161 0.930 . S
C156 H153 0.929 . S
C156 C157 1.398 . S
C156 C158 1.396 . S
C157 C156 1.398 . S
C157 C161 1.407 . S
C158 C156 1.396 . S
C158 C159 1.394 1_455 S
C159 H154 0.929 . S
C159 C158 1.394 1_655 S
C159 C160 1.382 . S
C160 C159 1.382 . S
C160 C161 1.392 1_655 S
C160 N162 1.420 . S
C161 H155 0.930 . S
C161 C157 1.407 . S
C161 C160 1.392 1_455 S
N162 C160 1.420 . S
N162 C163 1.244 . S
C163 N162 1.244 . S
H164 C167 0.929 . S
H165 C170 0.929 . S
H166 C172 0.930 . S
C167 H164 0.929 . S
C167 C168 1.398 . S
C167 C169 1.396 . S
C168 C167 1.398 . S
C168 C172 1.407 . S
C169 C167 1.396 . S
C169 C170 1.394 1_545 S
C170 H165 0.929 . S
C170 C169 1.394 1_565 S
C170 C171 1.382 1_565 S
C171 C170 1.382 1_545 S
C171 C172 1.392 . S
C171 N173 1.420 1_545 S
C172 H166 0.930 . S
C172 C168 1.407 . S
C172 C171 1.392 . S
N173 C171 1.420 1_565 S
N173 C174 1.244 . S
C174 N173 1.244 . S
H175 C178 0.929 . S
H176 C181 0.929 . S
H177 C183 0.930 . S
C178 H175 0.929 . S
C178 C179 1.398 . S
C178 C180 1.396 . S
C179 C178 1.398 . S
C179 C183 1.407 . S
C180 C178 1.396 . S
C180 C181 1.394 . S
C181 H176 0.929 . S
C181 C180 1.394 . S
C181 C182 1.382 . S
C182 C181 1.382 . S
C182 C183 1.392 . S
C182 N184 1.420 . S
C183 H177 0.930 . S
C183 C179 1.407 . S
C183 C182 1.392 . S
N184 C182 1.420 . S
N184 C185 1.244 . S
C185 N184 1.244 . S
H186 C192 0.930 . S
H187 C196 0.930 . S
H188 C201 0.929 . S
H189 C199 0.929 . S
H190 C194 0.929 . S
H191 C200 0.929 . S
C192 H186 0.930 . S
C192 C193 1.367 . S
C192 C200 1.378 . S
C193 C192 1.367 . S
C193 C201 1.433 . S
C194 H190 0.929 . S
C194 C196 1.378 . S
C194 C198 1.350 . S
C195 C198 1.463 . S
C195 C200 1.350 . S
C195 N203 1.427 . S
C196 H187 0.930 . S
C196 C194 1.378 . S
C196 C197 1.367 . S
C197 C196 1.367 . S
C197 C199 1.433 . S
C198 C194 1.350 . S
C198 C195 1.463 . S
C198 N202 1.427 . S
C199 H189 0.929 . S
C199 C197 1.433 . S
C199 N202 1.384 . S
C200 H191 0.929 . S
C200 C192 1.378 . S
C200 C195 1.350 . S
C201 H188 0.929 . S
C201 C193 1.433 . S
C201 N203 1.384 . S
N202 C198 1.427 . S
N202 C199 1.384 . S
N203 C195 1.427 . S
N203 C201 1.384 . S
H204 C210 0.930 . S
H205 C214 0.930 . S
H206 C219 0.929 . S
H207 C217 0.929 . S
H208 C212 0.929 . S
H209 C218 0.929 . S
C210 H204 0.930 . S
C210 C211 1.367 . S
C210 C218 1.378 . S
C211 C210 1.367 . S
C211 C219 1.433 . S
C212 H208 0.929 . S
C212 C214 1.378 . S
C212 C216 1.350 . S
C213 C216 1.463 . S
C213 C218 1.350 . S
C213 N221 1.427 . S
C214 H205 0.930 . S
C214 C212 1.378 . S
C214 C215 1.367 . S
C215 C214 1.367 . S
C215 C217 1.433 . S
C216 C212 1.350 . S
C216 C213 1.463 . S
C216 N220 1.427 . S
C217 H207 0.929 . S
C217 C215 1.433 . S
C217 N220 1.384 . S
C218 H209 0.929 . S
C218 C210 1.378 . S
C218 C213 1.350 . S
C219 H206 0.929 . S
C219 C211 1.433 . S
C219 N221 1.384 . S
N220 C216 1.427 . S
N220 C217 1.384 . S
N221 C213 1.427 . S
N221 C219 1.384 . S
H222 C228 0.930 . S
H223 C232 0.930 . S
H224 C237 0.929 . S
H225 C235 0.929 . S
H226 C230 0.929 . S
H227 C236 0.929 . S
C228 H222 0.930 . S
C228 C229 1.367 . S
C228 C236 1.378 . S
C229 C228 1.367 . S
C229 C237 1.433 . S
C230 H226 0.929 . S
C230 C232 1.378 . S
C230 C234 1.350 . S
C231 C234 1.463 . S
C231 C236 1.350 . S
C231 N239 1.427 . S
C232 H223 0.930 . S
C232 C230 1.378 . S
C232 C233 1.367 . S
C233 C232 1.367 . S
C233 C235 1.433 . S
C234 C230 1.350 . S
C234 C231 1.463 . S
C234 N238 1.427 . S
C235 H225 0.929 . S
C235 C233 1.433 . S
C235 N238 1.384 . S
C236 H227 0.929 . S
C236 C228 1.378 . S
C236 C231 1.350 . S
C237 H224 0.929 . S
C237 C229 1.433 . S
C237 N239 1.384 . S
N238 C234 1.427 . S
N238 C235 1.384 . S
N239 C231 1.427 . S
N239 C237 1.384 . S
H240 C246 0.930 . S
H241 C250 0.930 . S
H242 C255 0.929 . S
H243 C253 0.929 . S
H244 C248 0.929 . S
H245 C254 0.929 . S
C246 H240 0.930 . S
C246 C247 1.367 . S
C246 C254 1.378 . S
C247 C246 1.367 . S
C247 C255 1.433 . S
C248 H244 0.929 . S
C248 C250 1.378 . S
C248 C252 1.350 . S
C249 C252 1.463 . S
C249 C254 1.350 . S
C249 N257 1.427 . S
C250 H241 0.930 . S
C250 C248 1.378 . S
C250 C251 1.367 . S
C251 C250 1.367 . S
C251 C253 1.433 . S
C252 C248 1.350 . S
C252 C249 1.463 . S
C252 N256 1.427 . S
C253 H243 0.929 . S
C253 C251 1.433 . S
C253 N256 1.384 . S
C254 H245 0.929 . S
C254 C246 1.378 . S
C254 C249 1.350 . S
C255 H242 0.929 . S
C255 C247 1.433 . S
C255 N257 1.384 . S
N256 C252 1.427 . S
N256 C253 1.384 . S
N257 C249 1.427 . S
N257 C255 1.384 . S
H258 C264 0.930 . S
H259 C268 0.930 . S
H260 C273 0.929 . S
H261 C271 0.929 . S
H262 C266 0.929 . S
H263 C272 0.929 . S
C264 H258 0.930 . S
C264 C265 1.367 . S
C264 C272 1.378 . S
C265 C264 1.367 . S
C265 C273 1.433 . S
C266 H262 0.929 . S
C266 C268 1.378 . S
C266 C270 1.350 . S
C267 C270 1.463 . S
C267 C272 1.350 . S
C267 N275 1.427 . S
C268 H259 0.930 . S
C268 C266 1.378 . S
C268 C269 1.367 . S
C269 C268 1.367 . S
C269 C271 1.433 . S
C270 C266 1.350 . S
C270 C267 1.463 . S
C270 N274 1.427 . S
C271 H261 0.929 . S
C271 C269 1.433 . S
C271 N274 1.384 . S
C272 H263 0.929 . S
C272 C264 1.378 . S
C272 C267 1.350 . S
C273 H260 0.929 . S
C273 C265 1.433 . S
C273 N275 1.384 . S
N274 C270 1.427 . S
N274 C271 1.384 . S
N275 C267 1.427 . S
N275 C273 1.384 . S
H276 C282 0.930 . S
H277 C286 0.930 . S
H278 C291 0.929 . S
H279 C289 0.929 . S
H280 C284 0.929 . S
H281 C290 0.929 . S
C282 H276 0.930 . S
C282 C283 1.367 . S
C282 C290 1.378 . S
C283 C282 1.367 . S
C283 C291 1.433 . S
C284 H280 0.929 . S
C284 C286 1.378 . S
C284 C288 1.350 . S
C285 C288 1.463 . S
C285 C290 1.350 . S
C285 N293 1.427 . S
C286 H277 0.930 . S
C286 C284 1.378 . S
C286 C287 1.367 . S
C287 C286 1.367 . S
C287 C289 1.433 . S
C288 C284 1.350 . S
C288 C285 1.463 . S
C288 N292 1.427 . S
C289 H279 0.929 . S
C289 C287 1.433 . S
C289 N292 1.384 . S
C290 H281 0.929 . S
C290 C282 1.378 . S
C290 C285 1.350 . S
C291 H278 0.929 . S
C291 C283 1.433 . S
C291 N293 1.384 . S
N292 C288 1.427 . S
N292 C289 1.384 . S
N293 C285 1.427 . S
N293 C291 1.384 . S
H294 C300 0.930 . S
H295 C304 0.930 . S
H296 C309 0.929 . S
H297 C307 0.929 . S
H298 C302 0.929 . S
H299 C308 0.929 . S
C300 H294 0.930 . S
C300 C301 1.367 . S
C300 C308 1.378 . S
C301 C300 1.367 . S
C301 C309 1.433 . S
C302 H298 0.929 . S
C302 C304 1.378 . S
C302 C306 1.350 . S
C303 C306 1.463 . S
C303 C308 1.350 . S
C303 N311 1.427 . S
C304 H295 0.930 . S
C304 C302 1.378 . S
C304 C305 1.367 . S
C305 C304 1.367 . S
C305 C307 1.433 . S
C306 C302 1.350 . S
C306 C303 1.463 . S
C306 N310 1.427 . S
C307 H297 0.929 . S
C307 C305 1.433 . S
C307 N310 1.384 . S
C308 H299 0.929 . S
C308 C300 1.378 . S
C308 C303 1.350 . S
C309 H296 0.929 . S
C309 C301 1.433 . S
C309 N311 1.384 . S
N310 C306 1.427 . S
N310 C307 1.384 . S
N311 C303 1.427 . S
N311 C309 1.384 . S
H312 C318 0.930 . S
H313 C322 0.930 . S
H314 C327 0.929 . S
H315 C325 0.929 . S
H316 C320 0.929 . S
H317 C326 0.929 . S
C318 H312 0.930 . S
C318 C319 1.367 . S
C318 C326 1.378 . S
C319 C318 1.367 . S
C319 C327 1.433 . S
C320 H316 0.929 . S
C320 C322 1.378 . S
C320 C324 1.350 . S
C321 C324 1.463 . S
C321 C326 1.350 . S
C321 N329 1.427 . S
C322 H313 0.930 . S
C322 C320 1.378 . S
C322 C323 1.367 . S
C323 C322 1.367 . S
C323 C325 1.433 . S
C324 C320 1.350 . S
C324 C321 1.463 . S
C324 N328 1.427 . S
C325 H315 0.929 . S
C325 C323 1.433 . S
C325 N328 1.384 . S
C326 H317 0.929 . S
C326 C318 1.378 . S
C326 C321 1.350 . S
C327 H314 0.929 . S
C327 C319 1.433 . S
C327 N329 1.384 . S
N328 C324 1.427 . S
N328 C325 1.384 . S
N329 C321 1.427 . S
N329 C327 1.384 . S
H330 C336 0.930 . S
H331 C340 0.930 . S
H332 C345 0.929 . S
H333 C343 0.929 1_545 S
H334 C338 0.929 . S
H335 C344 0.929 . S
C336 H330 0.930 . S
C336 C337 1.367 . S
C336 C344 1.378 . S
C337 C336 1.367 . S
C337 C345 1.433 . S
C338 H334 0.929 . S
C338 C340 1.378 . S
C338 C342 1.350 . S
C339 C342 1.463 . S
C339 C344 1.350 . S
C339 N347 1.427 . S
C340 H331 0.930 . S
C340 C338 1.378 . S
C340 C341 1.367 . S
C341 C340 1.367 . S
C341 C343 1.433 . S
C342 C338 1.350 . S
C342 C339 1.463 . S
C342 N346 1.427 . S
C343 H333 0.929 1_565 S
C343 C341 1.433 . S
C343 N346 1.384 . S
C344 H335 0.929 . S
C344 C336 1.378 . S
C344 C339 1.350 . S
C345 H332 0.929 . S
C345 C337 1.433 . S
C345 N347 1.384 . S
N346 C342 1.427 . S
N346 C343 1.384 . S
N347 C339 1.427 . S
N347 C345 1.384 . S
H348 C354 0.930 . S
H349 C358 0.930 . S
H350 C363 0.929 . S
H351 C361 0.929 . S
H352 C356 0.929 . S
H353 C362 0.929 . S
C354 H348 0.930 . S
C354 C355 1.367 . S
C354 C362 1.378 . S
C355 C354 1.367 . S
C355 C363 1.433 . S
C356 H352 0.929 . S
C356 C358 1.378 . S
C356 C360 1.350 . S
C357 C360 1.463 . S
C357 C362 1.350 . S
C357 N365 1.427 . S
C358 H349 0.930 . S
C358 C356 1.378 . S
C358 C359 1.367 . S
C359 C358 1.367 . S
C359 C361 1.433 . S
C360 C356 1.350 . S
C360 C357 1.463 . S
C360 N364 1.427 . S
C361 H351 0.929 . S
C361 C359 1.433 . S
C361 N364 1.384 . S
C362 H353 0.929 . S
C362 C354 1.378 . S
C362 C357 1.350 . S
C363 H350 0.929 . S
C363 C355 1.433 . S
C363 N365 1.384 . S
N364 C360 1.427 . S
N364 C361 1.384 . S
N365 C357 1.427 . S
N365 C363 1.384 . S
H366 C372 0.930 . S
H367 C376 0.930 . S
H368 C381 0.929 . S
H369 C379 0.929 . S
H370 C374 0.929 . S
H371 C380 0.929 . S
C372 H366 0.930 . S
C372 C373 1.367 . S
C372 C380 1.378 . S
C373 C372 1.367 . S
C373 C381 1.433 . S
C374 H370 0.929 . S
C374 C376 1.378 . S
C374 C378 1.350 . S
C375 C378 1.463 . S
C375 C380 1.350 . S
C375 N383 1.427 . S
C376 H367 0.930 . S
C376 C374 1.378 . S
C376 C377 1.367 . S
C377 C376 1.367 . S
C377 C379 1.433 . S
C378 C374 1.350 . S
C378 C375 1.463 . S
C378 N382 1.427 . S
C379 H369 0.929 . S
C379 C377 1.433 . S
C379 N382 1.384 . S
C380 H371 0.929 . S
C380 C372 1.378 . S
C380 C375 1.350 . S
C381 H368 0.929 . S
C381 C373 1.433 . S
C381 N383 1.384 . S
N382 C378 1.427 . S
N382 C379 1.384 . S
N383 C375 1.427 . S
N383 C381 1.384 . S
H384 C390 0.930 . S
H385 C394 0.930 . S
H386 C399 0.929 . S
H387 C397 0.929 . S
H388 C392 0.929 . S
H389 C398 0.929 . S
C390 H384 0.930 . S
C390 C391 1.367 . S
C390 C398 1.378 . S
C391 C390 1.367 . S
C391 C399 1.433 . S
C392 H388 0.929 . S
C392 C394 1.378 . S
C392 C396 1.350 . S
C393 C396 1.463 . S
C393 C398 1.350 . S
C393 N401 1.427 . S
C394 H385 0.930 . S
C394 C392 1.378 . S
C394 C395 1.367 . S
C395 C394 1.367 . S
C395 C397 1.433 . S
C396 C392 1.350 . S
C396 C393 1.463 . S
C396 N400 1.427 . S
C397 H387 0.929 . S
C397 C395 1.433 . S
C397 N400 1.384 . S
C398 H389 0.929 . S
C398 C390 1.378 . S
C398 C393 1.350 . S
C399 H386 0.929 . S
C399 C391 1.433 . S
C399 N401 1.384 . S
N400 C396 1.427 . S
N400 C397 1.384 . S
N401 C393 1.427 . S
N401 C399 1.384 . S
H402 C408 0.930 . S
H403 C412 0.930 1_655 S
H404 C417 0.929 . S
H405 C415 0.929 . S
H406 C410 0.929 1_655 S
H407 C416 0.929 . S
C408 H402 0.930 . S
C408 C409 1.367 . S
C408 C416 1.378 . S
C409 C408 1.367 . S
C409 C417 1.433 1_455 S
C410 H406 0.929 1_455 S
C410 C412 1.378 . S
C410 C414 1.350 1_556 S
C411 C414 1.463 . S
C411 C416 1.350 . S
C411 N419 1.429 . S
C412 H403 0.930 1_455 S
C412 C410 1.378 . S
C412 C413 1.367 . S
C413 C412 1.367 . S
C413 C415 1.433 . S
C414 C410 1.350 1_554 S
C414 C411 1.463 . S
C414 N418 1.427 1_554 S
C415 H405 0.929 . S
C415 C413 1.433 . S
C415 N418 1.384 . S
C416 H407 0.929 . S
C416 C408 1.378 . S
C416 C411 1.350 . S
C417 H404 0.929 . S
C417 C409 1.433 1_655 S
C417 N419 1.383 1_655 S
N418 C414 1.427 1_556 S
N418 C415 1.384 . S
N419 C411 1.429 . S
N419 C417 1.383 1_455 S
H420 C426 0.930 . S
H421 C430 0.930 . S
H422 C435 0.929 . S
H423 C433 0.929 . S
H424 C428 0.929 . S
H425 C434 0.929 . S
C426 H420 0.930 . S
C426 C427 1.367 . S
C426 C434 1.378 . S
C427 C426 1.367 . S
C427 C435 1.433 . S
C428 H424 0.929 . S
C428 C430 1.378 . S
C428 C432 1.350 . S
C429 C432 1.463 . S
C429 C434 1.350 . S
C429 N437 1.427 . S
C430 H421 0.930 . S
C430 C428 1.378 . S
C430 C431 1.367 . S
C431 C430 1.367 . S
C431 C433 1.433 . S
C432 C428 1.350 . S
C432 C429 1.463 . S
C432 N436 1.427 . S
C433 H423 0.929 . S
C433 C431 1.433 . S
C433 N436 1.384 . S
C434 H425 0.929 . S
C434 C426 1.378 . S
C434 C429 1.350 . S
C435 H422 0.929 . S
C435 C427 1.433 . S
C435 N437 1.384 . S
N436 C432 1.427 . S
N436 C433 1.384 . S
N437 C429 1.427 . S
N437 C435 1.384 . S
H438 C444 0.930 . S
H439 C448 0.930 . S
H440 C453 0.929 . S
H441 C451 0.929 . S
H442 C446 0.929 . S
H443 C452 0.929 . S
C444 H438 0.930 . S
C444 C445 1.367 . S
C444 C452 1.378 . S
C445 C444 1.367 . S
C445 C453 1.433 . S
C446 H442 0.929 . S
C446 C448 1.378 . S
C446 C450 1.350 . S
C447 C450 1.463 . S
C447 C452 1.350 . S
C447 N455 1.427 . S
C448 H439 0.930 . S
C448 C446 1.378 . S
C448 C449 1.367 . S
C449 C448 1.367 . S
C449 C451 1.433 . S
C450 C446 1.350 . S
C450 C447 1.463 . S
C450 N454 1.427 . S
C451 H441 0.929 . S
C451 C449 1.433 . S
C451 N454 1.384 . S
C452 H443 0.929 . S
C452 C444 1.378 . S
C452 C447 1.350 . S
C453 H440 0.929 . S
C453 C445 1.433 . S
C453 N455 1.384 . S
N454 C450 1.427 . S
N454 C451 1.384 . S
N455 C447 1.427 . S
N455 C453 1.384 . S
H456 C462 0.930 1_565 S
H457 C466 0.930 . S
H458 C471 0.929 . S
H459 C469 0.929 . S
H460 C464 0.929 . S
H461 C470 0.933 . S
C462 H456 0.930 1_545 S
C462 C463 1.367 . S
C462 C470 1.377 1_545 S
C463 C462 1.367 . S
C463 C471 1.433 . S
C464 H460 0.929 . S
C464 C466 1.378 . S
C464 C468 1.350 . S
C465 C468 1.463 . S
C465 C470 1.346 1_545 S
C465 N473 1.427 . S
C466 H457 0.930 . S
C466 C464 1.378 . S
C466 C467 1.367 . S
C467 C466 1.367 . S
C467 C469 1.433 1_545 S
C468 C464 1.350 . S
C468 C465 1.463 . S
C468 N472 1.427 1_545 S
C469 H459 0.929 . S
C469 C467 1.433 1_565 S
C469 N472 1.384 . S
C470 H461 0.933 . S
C470 C462 1.377 1_565 S
C470 C465 1.346 1_565 S
C471 H458 0.929 . S
C471 C463 1.433 . S
C471 N473 1.384 . S
N472 C468 1.427 1_565 S
N472 C469 1.384 . S
N473 C465 1.427 . S
N473 C471 1.384 . S
H474 C480 0.930 . S
H475 C484 0.930 . S
H476 C489 0.929 . S
H477 C487 0.929 . S
H478 C482 0.929 . S
H479 C488 0.929 . S
C480 H474 0.930 . S
C480 C481 1.367 . S
C480 C488 1.378 . S
C481 C480 1.367 . S
C481 C489 1.433 . S
C482 H478 0.929 . S
C482 C484 1.378 . S
C482 C486 1.350 . S
C483 C486 1.463 1_556 S
C483 C488 1.350 . S
C483 N491 1.427 . S
C484 H475 0.930 . S
C484 C482 1.378 . S
C484 C485 1.367 . S
C485 C484 1.367 . S
C485 C487 1.433 . S
C486 C482 1.350 . S
C486 C483 1.463 1_554 S
C486 N490 1.427 . S
C487 H477 0.929 . S
C487 C485 1.433 . S
C487 N490 1.384 . S
C488 H479 0.929 . S
C488 C480 1.378 . S
C488 C483 1.350 . S
C489 H476 0.929 . S
C489 C481 1.433 . S
C489 N491 1.384 . S
N490 C486 1.427 . S
N490 C487 1.384 . S
N491 C483 1.427 . S
N491 C489 1.384 . S
H492 C498 0.920 1_655 S
H493 C502 0.930 . S
H494 C507 0.929 . S
H495 C505 0.929 . S
H496 C500 0.929 . S
H497 C506 0.929 . S
C498 H492 0.920 1_455 S
C498 C499 1.379 . S
C498 C506 1.377 1_455 S
C499 C498 1.379 . S
C499 C507 1.433 . S
C500 H496 0.929 . S
C500 C502 1.378 . S
C500 C504 1.350 . S
C501 C504 1.463 . S
C501 C506 1.350 1_455 S
C501 N509 1.427 . S
C502 H493 0.930 . S
C502 C500 1.378 . S
C502 C503 1.367 . S
C503 C502 1.367 . S
C503 C505 1.433 1_455 S
C504 C500 1.350 . S
C504 C501 1.463 . S
C504 N508 1.427 1_455 S
C505 H495 0.929 . S
C505 C503 1.433 1_655 S
C505 N508 1.384 . S
C506 H497 0.929 . S
C506 C498 1.377 1_655 S
C506 C501 1.350 1_655 S
C507 H494 0.929 . S
C507 C499 1.433 . S
C507 N509 1.384 . S
N508 C504 1.427 1_655 S
N508 C505 1.384 . S
N509 C501 1.427 . S
N509 C507 1.384 . S
C193 C10 3.174 . S
C197 C185 3.099 . S
C211 C55 1.282 . S
C215 C163 1.290 . S
C229 C90 1.947 . S
C233 C174 1.913 . S
C247 C19 2.926 . S
C251 C179 2.911 . S
C269 C157 1.160 . S
C265 C46 1.166 . S
C287 C168 1.892 . S
C283 C99 1.909 . S
C301 C50 1.951 . S
C305 C141 1.904 . S
C319 C95 0.531 . S
C323 C146 0.475 1_655 S
C337 C6 1.158 . S
C341 C124 1.160 1_565 S
C359 C135 1.849 . S
C355 C59 1.876 . S
C377 C152 0.440 . S
C373 C86 0.502 . S
C391 C15 1.291 . S
C395 C130 1.300 . S
C413 C147 1.224 . S
C409 C18 1.195 . S
C427 C49 1.518 . S
C431 C125 1.523 . S
C445 C98 1.434 . S
C449 C136 1.456 . S
C467 C169 1.463 . S
C463 C58 1.408 . S
C485 C180 1.762 . S
C481 C89 1.678 . S
C499 C9 1.509 . S
C503 C158 1.530 . S
