# Generated by pormake.
# Topology ssa, (4,4)-cn, num edge types: 1
# Building blocks:
#     Node 0, Type 0, BuildingBlock: ESEHIV_clean_sbu_0, # of connection points: 4
#     Node 1, Type 0, BuildingBlock: ESEHIV_clean_sbu_0, # of connection points: 4
#     Node 2, Type 0, BuildingBlock: ESEHIV_clean_sbu_0, # of connection points: 4
#     Node 3, Type 0, BuildingBlock: ESEHIV_clean_sbu_0, # of connection points: 4
#     Node 4, Type 0, BuildingBlock: ESEHIV_clean_sbu_0, # of connection points: 4
#     Node 5, Type 0, BuildingBlock: ESEHIV_clean_sbu_0, # of connection points: 4
#     Node 6, Type 1, BuildingBlock: MUDLON_clean_linker_0, # of connection points: 4
#     Node 7, Type 1, BuildingBlock: MUDLON_clean_linker_0, # of connection points: 4
#     Node 8, Type 1, BuildingBlock: MUDLON_clean_linker_0, # of connection points: 4
#     Node 9, Type 1, BuildingBlock: MUDLON_clean_linker_0, # of connection points: 4
#     Node 10, Type 1, BuildingBlock: MUDLON_clean_linker_0, # of connection points: 4
#     Node 11, Type 1, BuildingBlock: MUDLON_clean_linker_0, # of connection points: 4
#     Edge 12, Type (0, 1), BuildingBlock: OJICUG_clean_linker_0, # of connection points: 2
#     Edge 13, Type (0, 1), BuildingBlock: OJICUG_clean_linker_0, # of connection points: 2
#     Edge 14, Type (0, 1), BuildingBlock: OJICUG_clean_linker_0, # of connection points: 2
#     Edge 15, Type (0, 1), BuildingBlock: OJICUG_clean_linker_0, # of connection points: 2
#     Edge 16, Type (0, 1), BuildingBlock: OJICUG_clean_linker_0, # of connection points: 2
#     Edge 17, Type (0, 1), BuildingBlock: OJICUG_clean_linker_0, # of connection points: 2
#     Edge 18, Type (0, 1), BuildingBlock: OJICUG_clean_linker_0, # of connection points: 2
#     Edge 19, Type (0, 1), BuildingBlock: OJICUG_clean_linker_0, # of connection points: 2
#     Edge 20, Type (0, 1), BuildingBlock: OJICUG_clean_linker_0, # of connection points: 2
#     Edge 21, Type (0, 1), BuildingBlock: OJICUG_clean_linker_0, # of connection points: 2
#     Edge 22, Type (0, 1), BuildingBlock: OJICUG_clean_linker_0, # of connection points: 2
#     Edge 23, Type (0, 1), BuildingBlock: OJICUG_clean_linker_0, # of connection points: 2
#     Edge 24, Type (0, 1), BuildingBlock: OJICUG_clean_linker_0, # of connection points: 2
#     Edge 25, Type (0, 1), BuildingBlock: OJICUG_clean_linker_0, # of connection points: 2
#     Edge 26, Type (0, 1), BuildingBlock: OJICUG_clean_linker_0, # of connection points: 2
#     Edge 27, Type (0, 1), BuildingBlock: OJICUG_clean_linker_0, # of connection points: 2
#     Edge 28, Type (0, 1), BuildingBlock: OJICUG_clean_linker_0, # of connection points: 2
#     Edge 29, Type (0, 1), BuildingBlock: OJICUG_clean_linker_0, # of connection points: 2
#     Edge 30, Type (0, 1), BuildingBlock: OJICUG_clean_linker_0, # of connection points: 2
#     Edge 31, Type (0, 1), BuildingBlock: OJICUG_clean_linker_0, # of connection points: 2
#     Edge 32, Type (0, 1), BuildingBlock: OJICUG_clean_linker_0, # of connection points: 2
#     Edge 33, Type (0, 1), BuildingBlock: OJICUG_clean_linker_0, # of connection points: 2
#     Edge 34, Type (0, 1), BuildingBlock: OJICUG_clean_linker_0, # of connection points: 2
#     Edge 35, Type (0, 1), BuildingBlock: OJICUG_clean_linker_0, # of connection points: 2
# Relax obj value: 0.008
# Max RMSD: 0.106
# Mean RMSD: 0.067
data_MOF--net-ssa--node1-ESEHIV_clean_sbu_0--node2-MUDLON_clean_linker_0--edge1-OJICUG_clean_linker_0
_symmetry_space_group_name_H-M    P1
_symmetry_Int_Tables_number       1
_symmetry_cell_setting            triclinic
loop_
_symmetry_equiv_pos_as_xyz
'x, y, z'
_cell_length_a     55.965238
_cell_length_b     59.488105
_cell_length_c     32.418517
_cell_angle_alpha  88.163371
_cell_angle_beta   90.908719
_cell_angle_gamma 121.99314
loop_
_atom_site_label
_atom_site_type_symbol
_atom_site_fract_x
_atom_site_fract_y
_atom_site_fract_z
_atom_type_partial_charge
Cu0 Cu 0.05359 0.49159 0.02699 0.0
N1 N 0.0479 0.47562 0.97584 0.0
N2 N 0.02428 0.45185 0.92105 0.0
C3 C 0.02487 0.4668 0.95194 0.0
C4 C 0.04833 0.45189 0.92481 0.0
C5 C 0.06281 0.46648 0.95873 0.0
O6 O 0.01927 0.49022 0.0418 0.0
C7 C 0.09192 0.48186 0.06528 0.0
O8 O 0.10759 0.4983 0.03533 0.0
H9 H 0.00825 0.47039 0.95793 0.0
H10 H 0.08198 0.46886 0.97134 0.0
N11 N 0.08133 0.52756 0.02373 0.0
N12 N 0.11172 0.56822 0.04628 0.0
C13 C 0.09293 0.54265 0.05688 0.0
C14 C 0.09304 0.54404 0.99072 0.0
C15 C 0.11182 0.56925 0.00458 0.0
C16 C 0.99442 0.47005 0.03862 0.0
O17 O 0.991 0.44675 0.03289 0.0
H18 H 0.08703 0.53502 0.08824 0.0
H19 H 0.08804 0.53819 0.95895 0.0
O20 O 0.06623 0.47521 0.06773 0.0
H21 H 0.05409 0.44069 0.90617 0.0
H22 H 0.1245 0.5869 0.9855 0.0
Cu23 Cu 0.56543 0.03918 0.47452 0.0
N24 N 0.58408 0.0358 0.42984 0.0
N25 N 0.59501 0.01523 0.38424 0.0
C26 C 0.57681 0.01241 0.4137 0.0
C27 C 0.61445 0.04142 0.3814 0.0
C28 C 0.60752 0.05412 0.40932 0.0
O29 O 0.5269 0.00878 0.47281 0.0
C30 C 0.61091 0.05757 0.52845 0.0
O31 O 0.62464 0.07054 0.49481 0.0
H32 H 0.55901 0.99355 0.42435 0.0
H33 H 0.61923 0.07513 0.4149 0.0
N34 N 0.56396 0.06989 0.47214 0.0
N35 N 0.5512 0.09775 0.49198 0.0
C36 C 0.54767 0.07359 0.49759 0.0
C37 C 0.57849 0.09256 0.44949 0.0
C38 C 0.57068 0.10985 0.46177 0.0
C39 C 0.51084 0.01027 0.44604 0.0
O40 O 0.52085 0.03197 0.42295 0.0
H41 H 0.53405 0.05897 0.52067 0.0
H42 H 0.59386 0.09644 0.42612 0.0
O43 O 0.58443 0.04106 0.52632 0.0
H44 H 0.63239 0.05065 0.36072 0.0
H45 H 0.57868 0.12971 0.4494 0.0
Cu46 Cu 0.55436 0.52447 0.00082 0.0
N47 N 0.53796 0.50625 0.95233 0.0
N48 N 0.52103 0.47269 0.90876 0.0
C49 C 0.52695 0.48009 0.94838 0.0
C50 C 0.52811 0.49516 0.88701 0.0
C51 C 0.53859 0.51582 0.91396 0.0
O52 O 0.59128 0.5289 0.00356 0.0
C53 C 0.50326 0.49639 0.04077 0.0
O54 O 0.49521 0.50029 0.00437 0.0
H55 H 0.52478 0.46704 0.97397 0.0
H56 H 0.54719 0.53648 0.90584 0.0
N57 N 0.55985 0.55827 0.00038 0.0
N58 N 0.56639 0.59532 0.02717 0.0
C59 C 0.55586 0.56915 0.0333 0.0
C60 C 0.57335 0.5782 0.97228 0.0
C61 C 0.57735 0.60109 0.98869 0.0
C62 C 0.59454 0.50936 0.00163 0.0
O63 O 0.57268 0.48525 0.00767 0.0
H64 H 0.54726 0.55844 0.06229 0.0
H65 H 0.58124 0.57658 0.943 0.0
O66 O 0.52921 0.50477 0.04666 0.0
H67 H 0.52664 0.49682 0.85386 0.0
H68 H 0.58841 0.62063 0.97401 0.0
Cu69 Cu 0.0618 0.51515 0.54346 0.0
N70 N 0.08934 0.50649 0.54057 0.0
N71 N 0.1157 0.49292 0.5127 0.0
C72 C 0.09495 0.49782 0.50645 0.0
C73 C 0.12355 0.49887 0.55242 0.0
C74 C 0.10716 0.50716 0.5696 0.0
O75 O 0.07088 0.54221 0.50071 0.0
C76 C 0.0202 0.46235 0.55691 0.0
O77 O 0.04145 0.4629 0.57573 0.0
H78 H 0.08407 0.49538 0.47747 0.0
H79 H 0.10796 0.51289 0.60113 0.0
N80 N 0.0609 0.52831 0.59455 0.0
N81 N 0.04219 0.53608 0.64865 0.0
C82 C 0.03721 0.52425 0.61195 0.0
C83 C 0.08177 0.54332 0.621 0.0
C84 C 0.07029 0.54814 0.65442 0.0
C85 C 0.09515 0.56333 0.50307 0.0
O86 O 0.11148 0.56562 0.53427 0.0
H87 H 0.01677 0.51316 0.59737 0.0
H88 H 0.10377 0.55042 0.61633 0.0
O89 O 0.0246 0.4832 0.53755 0.0
H90 H 0.13952 0.49683 0.56818 0.0
H91 H 0.0818 0.55946 0.681 0.0
Cu92 Cu 0.49268 0.99242 0.96948 0.0
N93 N 0.46918 0.99376 0.92895 0.0
N94 N 0.45234 0.01177 0.88478 0.0
C95 C 0.47172 0.01632 0.91406 0.0
C96 C 0.43676 0.98514 0.88148 0.0
C97 C 0.44714 0.9741 0.90883 0.0
O98 O 0.52885 0.02593 0.96633 0.0
C99 C 0.45209 0.96108 0.02654 0.0
O100 O 0.44414 0.94547 0.99485 0.0
H101 H 0.48809 0.03576 0.92389 0.0
H102 H 0.43913 0.95321 0.91356 0.0
N103 N 0.50001 0.96563 0.96211 0.0
N104 N 0.51419 0.93817 0.98159 0.0
C105 C 0.51501 0.96067 0.98954 0.0
C106 C 0.48945 0.94568 0.93539 0.0
C107 C 0.49806 0.92854 0.94756 0.0
C108 C 0.53951 0.03271 0.93026 0.0
O109 O 0.526 0.01696 0.89954 0.0
H110 H 0.52493 0.97255 0.01636 0.0
H111 H 0.47557 0.94312 0.90998 0.0
O112 O 0.47376 0.98445 0.02264 0.0
H113 H 0.41906 0.97431 0.86093 0.0
H114 H 0.49241 0.9102 0.93314 0.0
Cu115 Cu 0.55283 0.53315 0.55467 0.0
N116 N 0.56331 0.56879 0.55049 0.0
N117 N 0.57232 0.60661 0.51933 0.0
C118 C 0.55802 0.57998 0.51763 0.0
C119 C 0.58746 0.61262 0.55446 0.0
C120 C 0.58174 0.58921 0.57377 0.0
O121 O 0.53079 0.5156 0.50565 0.0
C122 C 0.59444 0.53419 0.6026 0.0
O123 O 0.58171 0.54046 0.62939 0.0
H124 H 0.54564 0.56905 0.49131 0.0
H125 H 0.59161 0.58738 0.60151 0.0
N126 N 0.52823 0.5136 0.59805 0.0
N127 N 0.50191 0.47668 0.63605 0.0
C128 C 0.52271 0.48924 0.60807 0.0
C129 C 0.51034 0.5168 0.62079 0.0
C130 C 0.49379 0.49377 0.6442 0.0
C131 C 0.50746 0.51466 0.5043 0.0
O132 O 0.50217 0.52638 0.53327 0.0
H133 H 0.533 0.48043 0.59356 0.0
H134 H 0.50863 0.53409 0.61916 0.0
O135 O 0.5862 0.53089 0.56508 0.0
H136 H 0.60234 0.6325 0.56458 0.0
H137 H 0.47698 0.48977 0.66506 0.0
H138 H 0.38147 0.48079 0.31987 0.0
N139 N 0.36642 0.43687 0.27466 0.0
H140 H 0.41561 0.498 0.3755 0.0
H141 H 0.39144 0.41401 0.31116 0.0
H142 H 0.42584 0.43121 0.36765 0.0
H143 H 0.36386 0.40614 0.21476 0.0
H144 H 0.39659 0.41904 0.15651 0.0
H145 H 0.40681 0.48774 0.25061 0.0
H146 H 0.43973 0.50052 0.19335 0.0
H147 H 0.3589 0.47786 0.25267 0.0
H148 H 0.31589 0.39652 0.29658 0.0
H149 H 0.31506 0.47724 0.25638 0.0
H150 H 0.27157 0.39525 0.29875 0.0
H151 H 0.21431 0.47684 0.32591 0.0
H152 H 0.19887 0.4914 0.38416 0.0
H153 H 0.12141 0.41466 0.39087 0.0
H154 H 0.13678 0.4006 0.33208 0.0
H155 H 0.13995 0.39641 0.23919 0.0
H156 H 0.11683 0.40759 0.18433 0.0
H157 H 0.17762 0.49081 0.2011 0.0
H158 H 0.2004 0.47953 0.25564 0.0
H159 H 0.22588 0.45843 0.22889 0.0
H160 H 0.27009 0.4604 0.22579 0.0
H161 H 0.2476 0.41061 0.33613 0.0
N162 N 0.18281 0.42976 0.28662 0.0
H163 H 0.2026 0.40777 0.33835 0.0
C164 C 0.38342 0.44572 0.31157 0.0
C165 C 0.39043 0.46941 0.33046 0.0
C166 C 0.41016 0.47936 0.36232 0.0
C167 C 0.42347 0.46598 0.37597 0.0
C168 C 0.41616 0.4421 0.35755 0.0
C169 C 0.39627 0.43208 0.32574 0.0
C170 C 0.38284 0.4458 0.23714 0.0
C171 C 0.37998 0.42684 0.20961 0.0
C172 C 0.39873 0.43421 0.17661 0.0
C173 C 0.42093 0.46069 0.17101 0.0
C174 C 0.42308 0.4799 0.1975 0.0
C175 C 0.40407 0.4726 0.23003 0.0
C176 C 0.34074 0.43715 0.27461 0.0
C177 C 0.33999 0.45975 0.2628 0.0
C178 C 0.31474 0.45931 0.26471 0.0
C179 C 0.28961 0.43623 0.27809 0.0
C180 C 0.29048 0.41358 0.28916 0.0
C181 C 0.31575 0.41415 0.28759 0.0
C182 C 0.17651 0.43763 0.32458 0.0
C183 C 0.19418 0.46309 0.34031 0.0
C184 C 0.18538 0.47132 0.37372 0.0
C185 C 0.15875 0.45428 0.39183 0.0
C186 C 0.14181 0.42842 0.37717 0.0
C187 C 0.15062 0.42026 0.34388 0.0
C188 C 0.17216 0.437 0.25102 0.0
C189 C 0.14852 0.41702 0.23042 0.0
C190 C 0.13517 0.42344 0.19952 0.0
C191 C 0.14542 0.45007 0.18844 0.0
C192 C 0.1694 0.4701 0.20865 0.0
C193 C 0.18247 0.46367 0.23986 0.0
C194 C 0.21046 0.43311 0.28448 0.0
C195 C 0.23018 0.44806 0.2529 0.0
C196 C 0.25585 0.44928 0.25108 0.0
C197 C 0.26262 0.43566 0.28063 0.0
C198 C 0.24308 0.42102 0.31234 0.0
C199 C 0.21737 0.41961 0.31395 0.0
H200 H 0.70189 0.11419 0.83793 0.0
N201 N 0.71153 0.15252 0.78391 0.0
H202 H 0.66235 0.0912 0.8862 0.0
H203 H 0.67931 0.17182 0.80932 0.0
H204 H 0.63937 0.14863 0.85695 0.0
H205 H 0.66398 0.14625 0.74649 0.0
H206 H 0.63954 0.11923 0.68753 0.0
H207 H 0.72698 0.12571 0.73853 0.0
H208 H 0.70242 0.09849 0.67861 0.0
H209 H 0.76348 0.1786 0.81399 0.0
H210 H 0.70572 0.18992 0.74033 0.0
H211 H 0.80033 0.2251 0.80173 0.0
H212 H 0.74261 0.23587 0.72608 0.0
H213 H 0.91011 0.34003 0.74152 0.0
H214 H 0.94838 0.36503 0.78981 0.0
H215 H 0.90408 0.4002 0.83711 0.0
H216 H 0.86518 0.374 0.78974 0.0
H217 H 0.87308 0.38847 0.69645 0.0
H218 H 0.90592 0.41374 0.64064 0.0
H219 H 0.913 0.34649 0.61606 0.0
H220 H 0.88121 0.3219 0.67315 0.0
H221 H 0.86875 0.29989 0.73747 0.0
H222 H 0.83113 0.25415 0.75018 0.0
H223 H 0.7708 0.27849 0.75267 0.0
N224 N 0.8634 0.34336 0.73045 0.0
H225 H 0.80873 0.3243 0.73776 0.0
C226 C 0.69337 0.14443 0.81957 0.0
C227 C 0.68901 0.12243 0.84325 0.0
C228 C 0.66643 0.10935 0.87085 0.0
C229 C 0.64757 0.11794 0.87496 0.0
C230 C 0.65346 0.14146 0.85411 0.0
C231 C 0.67633 0.15476 0.82689 0.0
C232 C 0.69748 0.13803 0.74724 0.0
C233 C 0.67265 0.13596 0.7322 0.0
C234 C 0.65847 0.12025 0.69852 0.0
C235 C 0.66883 0.10644 0.67876 0.0
C236 C 0.69391 0.10889 0.69325 0.0
C237 C 0.70799 0.12446 0.7273 0.0
C238 C 0.73191 0.18056 0.77795 0.0
C239 C 0.75878 0.19114 0.79515 0.0
C240 C 0.77991 0.21769 0.78764 0.0
C241 C 0.77473 0.23436 0.76234 0.0
C242 C 0.74746 0.22384 0.74595 0.0
C243 C 0.72625 0.19732 0.75387 0.0
C244 C 0.88438 0.35474 0.76253 0.0
C245 C 0.90811 0.35238 0.76316 0.0
C246 C 0.93035 0.36717 0.79035 0.0
C247 C 0.92954 0.38488 0.8172 0.0
C248 C 0.90536 0.38655 0.81732 0.0
C249 C 0.88305 0.37158 0.79032 0.0
C250 C 0.87484 0.35344 0.68965 0.0
C251 C 0.88093 0.37886 0.67801 0.0
C252 C 0.89977 0.3933 0.64589 0.0
C253 C 0.91277 0.38245 0.62426 0.0
C254 C 0.90407 0.35579 0.63282 0.0
C255 C 0.88552 0.3415 0.66542 0.0
C256 C 0.84158 0.31571 0.73606 0.0
C257 C 0.84748 0.29551 0.74006 0.0
C258 C 0.82581 0.26919 0.74797 0.0
C259 C 0.79774 0.26241 0.75279 0.0
C260 C 0.79197 0.28271 0.74858 0.0
C261 C 0.81364 0.30898 0.7402 0.0
H262 H 0.54669 0.86865 0.26325 0.0
N263 N 0.5869 0.87628 0.20827 0.0
H264 H 0.54968 0.90092 0.31055 0.0
H265 H 0.63167 0.92393 0.22265 0.0
H266 H 0.63423 0.95747 0.26692 0.0
H267 H 0.61663 0.90334 0.14187 0.0
H268 H 0.59939 0.91508 0.08005 0.0
H269 H 0.53194 0.85555 0.18859 0.0
H270 H 0.51432 0.8675 0.12709 0.0
H271 H 0.54672 0.83167 0.25022 0.0
H272 H 0.62582 0.86647 0.18605 0.0
H273 H 0.54807 0.79212 0.2668 0.0
H274 H 0.62633 0.82617 0.1989 0.0
H275 H 0.54712 0.66375 0.28548 0.0
H276 H 0.54187 0.63991 0.35001 0.0
H277 H 0.61883 0.70792 0.39487 0.0
H278 H 0.62515 0.73059 0.32822 0.0
H279 H 0.6315 0.70738 0.22289 0.0
H280 H 0.62479 0.68025 0.16324 0.0
H281 H 0.53691 0.65524 0.15892 0.0
H282 H 0.54378 0.68214 0.21849 0.0
H283 H 0.54515 0.71413 0.25827 0.0
H284 H 0.54292 0.75361 0.24464 0.0
H285 H 0.63409 0.80187 0.24639 0.0
N286 N 0.59277 0.71207 0.26142 0.0
H287 H 0.6357 0.76191 0.25593 0.0
C288 C 0.58932 0.89362 0.24023 0.0
C289 C 0.56627 0.88756 0.26516 0.0
C290 C 0.56783 0.90645 0.29159 0.0
C291 C 0.59213 0.93219 0.29264 0.0
C292 C 0.61533 0.93789 0.26798 0.0
C293 C 0.61394 0.91874 0.24241 0.0
C294 C 0.57557 0.87875 0.16958 0.0
C295 C 0.59421 0.89494 0.13819 0.0
C296 C 0.58434 0.90175 0.10316 0.0
C297 C 0.55553 0.89249 0.09894 0.0
C298 C 0.5366 0.87483 0.12932 0.0
C299 C 0.54658 0.86804 0.16449 0.0
C300 C 0.58665 0.85237 0.21787 0.0
C301 C 0.56448 0.83086 0.23981 0.0
C302 C 0.56508 0.80793 0.24865 0.0
C303 C 0.58747 0.8057 0.23468 0.0
C304 C 0.60915 0.82717 0.21156 0.0
C305 C 0.60882 0.85023 0.2037 0.0
C306 C 0.58696 0.69888 0.30148 0.0
C307 C 0.56296 0.67357 0.309 0.0
C308 C 0.5598 0.65997 0.34657 0.0
C309 C 0.58008 0.67165 0.37815 0.0
C310 C 0.60315 0.69772 0.37122 0.0
C311 C 0.60666 0.71096 0.33322 0.0
C312 C 0.58825 0.6968 0.22522 0.0
C313 C 0.61088 0.69616 0.2088 0.0
C314 C 0.60701 0.68077 0.17464 0.0
C315 C 0.58028 0.66555 0.15635 0.0
C316 C 0.55769 0.66653 0.17253 0.0
C317 C 0.56165 0.68208 0.2065 0.0
C318 C 0.59065 0.73511 0.25689 0.0
C319 C 0.56457 0.7332 0.25488 0.0
C320 C 0.56341 0.75599 0.24777 0.0
C321 C 0.58835 0.78125 0.24371 0.0
C322 C 0.61437 0.78293 0.24778 0.0
C323 C 0.61543 0.76012 0.25378 0.0
H324 H 0.9508 0.56234 0.90184 0.0
N325 N 0.90864 0.53632 0.84984 0.0
H326 H 0.96472 0.54387 0.95819 0.0
H327 H 0.87596 0.48599 0.88255 0.0
H328 H 0.88881 0.46712 0.94079 0.0
H329 H 0.90428 0.49278 0.81637 0.0
H330 H 0.93607 0.49288 0.76557 0.0
H331 H 0.94816 0.57795 0.80648 0.0
H332 H 0.97957 0.57834 0.75432 0.0
H333 H 0.89142 0.56553 0.88279 0.0
H334 H 0.86539 0.50143 0.79979 0.0
H335 H 0.84873 0.56562 0.86705 0.0
H336 H 0.82337 0.50239 0.78167 0.0
H337 H 0.72372 0.57636 0.81947 0.0
H338 H 0.69261 0.5682 0.87744 0.0
H339 H 0.68251 0.49152 0.89978 0.0
H340 H 0.71206 0.49927 0.8402 0.0
H341 H 0.69349 0.49504 0.76408 0.0
H342 H 0.66024 0.48774 0.70836 0.0
H343 H 0.71076 0.57077 0.67281 0.0
H344 H 0.74388 0.57773 0.72841 0.0
H345 H 0.78927 0.58244 0.80056 0.0
H346 H 0.83039 0.57931 0.81426 0.0
H347 H 0.77889 0.49432 0.80085 0.0
N348 N 0.73668 0.54333 0.78861 0.0
H349 H 0.73829 0.49814 0.78445 0.0
C350 C 0.91249 0.52562 0.8881 0.0
C351 C 0.93686 0.54169 0.91096 0.0
C352 C 0.94465 0.53099 0.94349 0.0
C353 C 0.92801 0.50379 0.9544 0.0
C354 C 0.90247 0.48801 0.93301 0.0
C355 C 0.89487 0.49879 0.89995 0.0
C356 C 0.92399 0.53545 0.81526 0.0
C357 C 0.92041 0.51148 0.80255 0.0
C358 C 0.9386 0.5116 0.77333 0.0
C359 C 0.96065 0.53566 0.75608 0.0
C360 C 0.96324 0.55949 0.76754 0.0
C361 C 0.94512 0.55933 0.79691 0.0
C362 C 0.88188 0.53383 0.84219 0.0
C363 C 0.87642 0.55147 0.8611 0.0
C364 C 0.85212 0.55169 0.85154 0.0
C365 C 0.83274 0.53447 0.82216 0.0
C366 C 0.83769 0.51596 0.8044 0.0
C367 C 0.86191 0.5155 0.81456 0.0
C368 C 0.72047 0.53865 0.82556 0.0
C369 C 0.71496 0.55793 0.83723 0.0
C370 C 0.69732 0.55325 0.87071 0.0
C371 C 0.68495 0.52917 0.89372 0.0
C372 C 0.69124 0.51014 0.8826 0.0
C373 C 0.70851 0.51469 0.84863 0.0
C374 C 0.72112 0.53703 0.75046 0.0
C375 C 0.69792 0.51144 0.74338 0.0
C376 C 0.67882 0.50736 0.71166 0.0
C377 C 0.68261 0.52875 0.68638 0.0
C378 C 0.70724 0.55381 0.69135 0.0
C379 C 0.72621 0.55786 0.72316 0.0
C380 C 0.76074 0.54061 0.79199 0.0
C381 C 0.78704 0.56322 0.79997 0.0
C382 C 0.81042 0.56126 0.80841 0.0
C383 C 0.808 0.53643 0.80982 0.0
C384 C 0.78171 0.51379 0.80012 0.0
C385 C 0.75834 0.51589 0.79098 0.0
H386 H 0.20578 0.684 0.32427 0.0
N387 N 0.17808 0.69817 0.26939 0.0
H388 H 0.18465 0.65181 0.38165 0.0
H389 H 0.12512 0.67353 0.29563 0.0
H390 H 0.10377 0.64167 0.3537 0.0
H391 H 0.14909 0.69603 0.20238 0.0
H392 H 0.13745 0.66709 0.14369 0.0
H393 H 0.20091 0.6684 0.25333 0.0
H394 H 0.19025 0.64019 0.19439 0.0
H395 H 0.23383 0.71421 0.25896 0.0
H396 H 0.17877 0.74064 0.29335 0.0
H397 H 0.27456 0.75895 0.26647 0.0
H398 H 0.21951 0.78528 0.30301 0.0
H399 H 0.39066 0.87941 0.31154 0.0
H400 H 0.42727 0.90623 0.36138 0.0
H401 H 0.37731 0.93671 0.40394 0.0
H402 H 0.34105 0.91024 0.35305 0.0
H403 H 0.35808 0.92936 0.25595 0.0
H404 H 0.38487 0.94944 0.19192 0.0
H405 H 0.39322 0.88187 0.17884 0.0
H406 H 0.36649 0.86202 0.2426 0.0
H407 H 0.34462 0.83835 0.31571 0.0
H408 H 0.30419 0.79285 0.31285 0.0
H409 H 0.25314 0.82221 0.2638 0.0
N410 N 0.34528 0.88362 0.29244 0.0
H411 H 0.29336 0.86755 0.26857 0.0
C412 C 0.16697 0.68124 0.3058 0.0
C413 C 0.18359 0.67505 0.33072 0.0
C414 C 0.17144 0.65667 0.36364 0.0
C415 C 0.14245 0.64409 0.3723 0.0
C416 C 0.12604 0.65069 0.34762 0.0
C417 C 0.13822 0.66906 0.31474 0.0
C418 C 0.17581 0.68447 0.23221 0.0
C419 C 0.15859 0.68429 0.20024 0.0
C420 C 0.15206 0.66779 0.16668 0.0
C421 C 0.16271 0.65109 0.16445 0.0
C422 C 0.1813 0.65244 0.19544 0.0
C423 C 0.18768 0.66884 0.22907 0.0
C424 C 0.203 0.72411 0.27482 0.0
C425 C 0.2304 0.72955 0.26827 0.0
C426 C 0.25385 0.75524 0.27306 0.0
C427 C 0.25047 0.77596 0.28502 0.0
C428 C 0.22303 0.77011 0.29278 0.0
C429 C 0.19967 0.74456 0.28756 0.0
C430 C 0.3632 0.89311 0.32827 0.0
C431 C 0.38712 0.89117 0.33246 0.0
C432 C 0.40807 0.9065 0.36117 0.0
C433 C 0.40543 0.92398 0.38616 0.0
C434 C 0.38019 0.92381 0.38462 0.0
C435 C 0.35935 0.90856 0.35584 0.0
C436 C 0.35991 0.89409 0.25367 0.0
C437 C 0.36557 0.91888 0.23899 0.0
C438 C 0.38107 0.9304 0.20273 0.0
C439 C 0.39111 0.91722 0.18033 0.0
C440 C 0.38546 0.89236 0.19516 0.0
C441 C 0.37014 0.88095 0.23158 0.0
C442 C 0.32187 0.85646 0.29288 0.0
C443 C 0.32466 0.83503 0.30492 0.0
C444 C 0.30149 0.80891 0.30283 0.0
C445 C 0.2752 0.80369 0.28826 0.0
C446 C 0.27273 0.82531 0.27609 0.0
C447 C 0.29575 0.85129 0.27855 0.0
H448 H 0.43351 0.12156 0.62515 0.0
N449 N 0.45761 0.1486 0.69256 0.0
H450 H 0.45617 0.11246 0.56981 0.0
H451 H 0.5145 0.17404 0.67982 0.0
H452 H 0.53737 0.16436 0.62555 0.0
H453 H 0.49848 0.1542 0.74643 0.0
H454 H 0.49456 0.12097 0.79635 0.0
H455 H 0.41134 0.1026 0.71296 0.0
H456 H 0.40717 0.06894 0.7632 0.0
H457 H 0.41826 0.15915 0.67389 0.0
H458 H 0.4994 0.19236 0.73205 0.0
H459 H 0.41713 0.19827 0.69111 0.0
H460 H 0.49795 0.23088 0.75141 0.0
H461 H 0.41384 0.32381 0.76078 0.0
H462 H 0.42307 0.3638 0.72358 0.0
H463 H 0.48951 0.36492 0.65555 0.0
H464 H 0.48131 0.32604 0.69464 0.0
H465 H 0.50579 0.3461 0.76649 0.0
H466 H 0.52607 0.38488 0.80843 0.0
H467 H 0.44895 0.34916 0.87899 0.0
H468 H 0.42923 0.30949 0.83798 0.0
H469 H 0.40823 0.25682 0.76442 0.0
H470 H 0.41083 0.21849 0.74733 0.0
H471 H 0.50056 0.27003 0.7276 0.0
N472 N 0.44946 0.30721 0.76586 0.0
H473 H 0.49791 0.30777 0.74651 0.0
C474 C 0.4722 0.14824 0.65668 0.0
C475 C 0.45627 0.13154 0.62465 0.0
C476 C 0.46925 0.12615 0.59337 0.0
C477 C 0.49857 0.13725 0.59366 0.0
C478 C 0.51477 0.1555 0.62428 0.0
C479 C 0.5017 0.16098 0.65554 0.0
C480 C 0.45502 0.13101 0.72618 0.0
C481 C 0.47827 0.13603 0.75049 0.0
C482 C 0.47601 0.1169 0.7791 0.0
C483 C 0.45057 0.09227 0.78367 0.0
C484 C 0.42713 0.08762 0.76013 0.0
C485 C 0.42938 0.10686 0.73174 0.0
C486 C 0.45866 0.17263 0.7019 0.0
C487 C 0.43578 0.1749 0.69054 0.0
C488 C 0.43509 0.19718 0.70086 0.0
C489 C 0.45728 0.21774 0.72326 0.0
C490 C 0.48055 0.21562 0.73393 0.0
C491 C 0.48132 0.19337 0.72316 0.0
C492 C 0.44724 0.32214 0.73159 0.0
C493 C 0.42961 0.33205 0.7366 0.0
C494 C 0.43507 0.35511 0.71536 0.0
C495 C 0.45785 0.36829 0.68774 0.0
C496 C 0.47259 0.35594 0.67801 0.0
C497 C 0.46755 0.33324 0.69997 0.0
C498 C 0.46577 0.32441 0.79909 0.0
C499 C 0.49377 0.34556 0.79262 0.0
C500 C 0.50517 0.3683 0.81605 0.0
C501 C 0.48881 0.37058 0.84616 0.0
C502 C 0.46218 0.34821 0.85598 0.0
C503 C 0.45092 0.32531 0.83279 0.0
C504 C 0.45266 0.28529 0.75676 0.0
C505 C 0.42847 0.25976 0.75668 0.0
C506 C 0.43001 0.2379 0.74647 0.0
C507 C 0.4559 0.24105 0.73557 0.0
C508 C 0.48028 0.26668 0.73622 0.0
C509 C 0.47873 0.28852 0.74689 0.0
C510 C 0.08872 0.45311 0.12657 0.0
C511 C 0.10492 0.4727 0.09632 0.0
H512 H 0.08885 0.43043 0.17941 0.0
C513 C 0.13429 0.4841 0.09607 0.0
H514 H 0.06607 0.44393 0.12757 0.0
C515 C 0.14724 0.47652 0.12567 0.0
C516 C 0.13119 0.45716 0.15614 0.0
H517 H 0.14747 0.49922 0.07323 0.0
H518 H 0.16992 0.48581 0.12464 0.0
C519 C 0.10174 0.4453 0.15607 0.0
C520 C 0.61031 0.06175 0.60515 0.0
C521 C 0.62549 0.06592 0.56866 0.0
H522 H 0.6122 0.07134 0.6688 0.0
C523 C 0.6551 0.08121 0.5699 0.0
H524 H 0.58749 0.05014 0.60517 0.0
C525 C 0.66922 0.09329 0.60624 0.0
C526 C 0.65402 0.09056 0.64205 0.0
H527 H 0.66741 0.08472 0.5423 0.0
H528 H 0.69198 0.1059 0.60567 0.0
C529 C 0.62445 0.07409 0.64146 0.0
C530 C 0.54887 0.60494 0.08961 0.0
C531 C 0.56885 0.61357 0.05772 0.0
H532 H 0.53679 0.61448 0.14561 0.0
C533 C 0.59201 0.63987 0.05753 0.0
H534 H 0.53068 0.58489 0.09045 0.0
C535 C 0.59553 0.65686 0.08915 0.0
C536 C 0.57583 0.64803 0.12149 0.0
H537 H 0.60792 0.64711 0.03368 0.0
H538 H 0.61377 0.6769 0.08841 0.0
C539 C 0.55225 0.62197 0.12102 0.0
C540 C 0.99296 0.51619 0.67276 0.0
C541 C 0.02175 0.53602 0.67547 0.0
H542 H 0.95116 0.50078 0.69522 0.0
C543 C 0.03014 0.55583 0.70469 0.0
H544 H 0.98563 0.5004 0.65109 0.0
C545 C 0.01034 0.55579 0.7305 0.0
C546 C 0.98156 0.536 0.72774 0.0
H547 H 0.052 0.57155 0.70752 0.0
H548 H 0.0177 0.57111 0.75311 0.0
C549 C 0.97314 0.51622 0.69848 0.0
C550 C 0.41494 0.92368 0.06966 0.0
C551 C 0.43654 0.95059 0.06605 0.0
H552 H 0.38374 0.89224 0.1082 0.0
C553 C 0.44304 0.96669 0.10039 0.0
H554 H 0.40931 0.91065 0.04387 0.0
C555 C 0.4282 0.95598 0.13754 0.0
C556 C 0.40682 0.92896 0.14108 0.0
H557 H 0.45958 0.98747 0.09861 0.0
H558 H 0.43376 0.96873 0.16368 0.0
C559 C 0.40035 0.91301 0.10667 0.0
C560 C 0.50861 0.44086 0.65982 0.0
C561 C 0.49045 0.44994 0.65127 0.0
H562 H 0.51275 0.40849 0.67871 0.0
C563 C 0.46125 0.43211 0.65471 0.0
H564 H 0.53123 0.45436 0.65778 0.0
C565 C 0.45042 0.4054 0.66562 0.0
C566 C 0.46866 0.39619 0.67374 0.0
H567 H 0.44687 0.43866 0.64772 0.0
H568 H 0.42779 0.39196 0.6672 0.0
C569 C 0.49792 0.41444 0.67122 0.0
C570 C 0.61909 0.99458 0.35506 0.0
C571 C 0.5943 0.99441 0.3618 0.0
H572 H 0.6378 0.97463 0.33019 0.0
C573 C 0.56874 0.97352 0.34665 0.0
H574 H 0.63899 0.01031 0.36704 0.0
C575 C 0.56802 0.95342 0.32435 0.0
C576 C 0.59281 0.95332 0.31756 0.0
H577 H 0.54939 0.97312 0.35122 0.0
H578 H 0.54802 0.93832 0.31173 0.0
C579 C 0.61832 0.97412 0.33371 0.0
C580 C 0.6187 0.49259 0.95973 0.0
C581 C 0.62006 0.5134 0.98113 0.0
H582 H 0.63743 0.48125 0.91467 0.0
C583 C 0.64446 0.53884 0.97738 0.0
H584 H 0.60011 0.47278 0.96162 0.0
C585 C 0.6663 0.54367 0.95091 0.0
C586 C 0.66403 0.52327 0.92694 0.0
H587 H 0.64621 0.55526 0.9937 0.0
H588 H 0.68457 0.56362 0.94829 0.0
C589 C 0.64028 0.49749 0.93273 0.0
C590 C 0.13225 0.60807 0.47546 0.0
C591 C 0.10601 0.58445 0.47036 0.0
H592 H 0.16401 0.64544 0.44908 0.0
C593 C 0.09121 0.58101 0.43332 0.0
H594 H 0.14416 0.6115 0.50371 0.0
C595 C 0.1028 0.6005 0.4017 0.0
C596 C 0.12939 0.62386 0.4065 0.0
H597 H 0.071 0.56302 0.42837 0.0
H598 H 0.09125 0.59693 0.37306 0.0
C599 C 0.14377 0.62751 0.44399 0.0
C600 C 0.43672 0.02539 0.82194 0.0
C601 C 0.45009 0.03146 0.86068 0.0
H602 H 0.42653 0.03978 0.76728 0.0
C603 C 0.4622 0.05745 0.87476 0.0
H604 H 0.42742 0.00576 0.80976 0.0
C605 C 0.46181 0.07701 0.85023 0.0
C606 C 0.4491 0.07106 0.81112 0.0
H607 H 0.47214 0.06283 0.90472 0.0
H608 H 0.47158 0.09687 0.86183 0.0
C609 C 0.43619 0.04494 0.79751 0.0
C610 C 0.46036 0.49976 0.47428 0.0
C611 C 0.48618 0.50116 0.47152 0.0
H612 H 0.42038 0.4872 0.44702 0.0
C613 C 0.49093 0.48985 0.43766 0.0
H614 H 0.45574 0.50796 0.50012 0.0
C615 C 0.47038 0.47789 0.4068 0.0
C616 C 0.44484 0.47712 0.40936 0.0
H617 H 0.51057 0.49056 0.43474 0.0
H618 H 0.47474 0.46984 0.3805 0.0
C619 C 0.44 0.48791 0.44371 0.0
C620 C 0.97301 0.42448 0.90886 0.0
C621 C 1.00072 0.43555 0.89457 0.0
H622 H 0.929 0.3994 0.89645 0.0
C623 C 1.00495 0.42968 0.85477 0.0
H624 H 0.96908 0.42803 0.93978 0.0
C625 C 0.98192 0.41328 0.82965 0.0
C626 C 0.95412 0.40215 0.84399 0.0
H627 H 0.02608 0.43802 0.84292 0.0
H628 H 0.98595 0.40966 0.79876 0.0
C629 C 0.95001 0.40796 0.88399 0.0
C630 C 0.95056 0.45804 -0.00075 0.0
C631 C 0.9717 0.47482 0.02695 0.0
H632 H 0.92076 0.45417 0.95367 0.0
C633 C 0.97415 0.49879 0.03666 0.0
H634 H 0.94784 0.43927 0.99147 0.0
C635 C 0.95783 0.50703 0.01599 0.0
C636 C 0.93927 0.49186 0.98421 0.0
H637 H 0.98992 0.51197 0.05842 0.0
H638 H 0.96109 0.52609 0.02328 0.0
C639 C 0.93479 0.4666 0.97768 0.0
C640 C 0.46254 0.99236 0.41866 0.0
C641 C 0.48219 0.98757 0.43764 0.0
H642 H 0.42303 0.97614 0.38793 0.0
C643 C 0.47512 0.96125 0.44397 0.0
H644 H 0.46737 0.01244 0.41349 0.0
C645 C 0.4495 0.94022 0.42905 0.0
C646 C 0.43042 0.94519 0.40822 0.0
H647 H 0.48997 0.95703 0.45837 0.0
H648 H 0.44501 0.92017 0.43267 0.0
C649 C 0.43696 0.97147 0.40431 0.0
C650 C 0.4993 0.4241 0.91895 0.0
C651 C 0.51251 0.44699 0.89305 0.0
H652 H 0.48208 0.38226 0.92503 0.0
C653 C 0.51821 0.44446 0.85197 0.0
H654 H 0.49425 0.42513 0.95062 0.0
C655 C 0.51095 0.41981 0.83721 0.0
C656 C 0.49791 0.39695 0.86314 0.0
H657 H 0.52859 0.46154 0.83112 0.0
H658 H 0.51512 0.41864 0.80509 0.0
C659 C 0.49212 0.39941 0.9042 0.0
C660 C 0.15449 0.48898 0.48558 0.0
C661 C 0.12655 0.48287 0.48316 0.0
H662 H 0.18666 0.48474 0.4587 0.0
C663 C 0.10933 0.46697 0.45103 0.0
H664 H 0.16835 0.50134 0.50978 0.0
C665 C 0.11978 0.45758 0.42184 0.0
C666 C 0.14776 0.46384 0.42393 0.0
H667 H 0.08763 0.46159 0.44851 0.0
H668 H 0.10599 0.44574 0.39714 0.0
C669 C 0.16504 0.47967 0.45614 0.0
C670 C 0.59034 0.06563 0.94596 0.0
C671 C 0.56636 0.05775 0.92153 0.0
H672 H 0.63539 0.09115 0.95019 0.0
C673 C 0.56893 0.07211 0.88494 0.0
H674 H 0.58885 0.05467 0.97414 0.0
C675 C 0.59519 0.09311 0.87172 0.0
C676 C 0.6196 0.09987 0.89437 0.0
H677 H 0.55069 0.06637 0.8656 0.0
H678 H 0.59658 0.10283 0.84222 0.0
C679 C 0.61688 0.08637 0.93219 0.0
C680 C 0.60043 0.6454 0.47277 0.0
C681 C 0.57414 0.62449 0.4868 0.0
H682 H 0.62314 0.6758 0.42695 0.0
C683 C 0.54971 0.62002 0.46661 0.0
H684 H 0.61958 0.64894 0.48751 0.0
C685 C 0.55151 0.63595 0.43259 0.0
C686 C 0.5779 0.65628 0.41705 0.0
H687 H 0.5292 0.60406 0.47715 0.0
H688 H 0.5321 0.63205 0.41836 0.0
C689 C 0.60234 0.66089 0.43805 0.0
C690 C 0.55099 0.13552 0.52206 0.0
C691 C 0.53747 0.10823 0.51489 0.0
H692 H 0.54933 0.16623 0.55241 0.0
C693 C 0.51063 0.09099 0.53198 0.0
H694 H 0.57174 0.1493 0.50951 0.0
C695 C 0.4979 0.1006 0.55656 0.0
C696 C 0.51162 0.12776 0.56476 0.0
H697 H 0.49945 0.06993 0.52663 0.0
H698 H 0.47759 0.08651 0.57019 0.0
C699 C 0.53825 0.14518 0.54692 0.0
C700 C 0.45367 0.46927 0.06595 0.0
C701 C 0.4826 0.48503 0.07484 0.0
H702 H 0.41148 0.44903 0.08956 0.0
C703 C 0.49118 0.49167 0.1159 0.0
H704 H 0.44647 0.46384 0.03454 0.0
C705 C 0.4711 0.48357 0.14723 0.0
C706 C 0.44216 0.4683 0.13813 0.0
H707 H 0.51332 0.50396 0.12356 0.0
H708 H 0.47817 0.48939 0.17858 0.0
C709 C 0.43365 0.46077 0.09736 0.0
C710 C 0.98766 0.41651 0.58481 0.0
C711 C 0.99128 0.43956 0.56536 0.0
H712 H 0.96042 0.3807 0.61868 0.0
C713 C 0.96762 0.44171 0.55958 0.0
H714 H 1.0054 0.4141 0.58951 0.0
C715 C 0.94137 0.42214 0.57599 0.0
C716 C 0.93832 0.40009 0.59854 0.0
H717 H 0.96969 0.45919 0.54458 0.0
H718 H 0.92381 0.42491 0.57261 0.0
C719 C 0.96161 0.3971 0.60125 0.0
C720 C 0.5512 0.94212 0.02834 0.0
C721 C 0.52577 0.92609 0.00739 0.0
H722 H 0.58042 0.9441 0.07346 0.0
C723 C 0.51091 0.8985 0.01465 0.0
H724 H 0.56312 0.96342 0.02313 0.0
C725 C 0.52077 0.88732 0.04373 0.0
C726 C 0.54588 0.90353 0.06549 0.0
H727 H 0.49112 0.88572 -0.00085 0.0
H728 H 0.50859 0.86608 0.04959 0.0
C729 C 0.56119 0.931 0.0569 0.0
C730 C 0.61041 0.51426 0.65578 0.0
C731 C 0.61581 0.52867 0.61833 0.0
H732 H 0.627 0.50269 0.70608 0.0
C733 C 0.64264 0.54047 0.60039 0.0
H734 H 0.58987 0.50498 0.67027 0.0
C735 C 0.66426 0.5394 0.62128 0.0
C736 C 0.65918 0.5261 0.66 0.0
H737 H 0.64735 0.55188 0.57169 0.0
H738 H 0.68518 0.54977 0.60791 0.0
C739 C 0.63171 0.5128 0.67619 0.0
C740 C 0.13475 0.61573 0.06287 0.0
C741 C 0.12704 0.58972 0.07427 0.0
H742 H 0.15238 0.65566 0.08218 0.0
C743 C 0.13319 0.58468 0.11445 0.0
H744 H 0.13025 0.62027 0.03222 0.0
C745 C 0.1456 0.6048 0.14309 0.0
C746 C 0.15233 0.6306 0.13232 0.0
H747 H 0.12801 0.565 0.12406 0.0
H748 H 0.14892 0.59981 0.17419 0.0
C749 C 0.14719 0.63594 0.09163 0.0
loop_
_geom_bond_atom_site_label_1
_geom_bond_atom_site_label_2
_geom_bond_distance
_geom_bond_site_symmetry_2
_ccdc_geom_bond_type
Cu0 N1 1.999 . S
Cu0 O6 1.974 . S
Cu0 N11 1.985 1_655 S
Cu0 O20 1.959 1_655 S
N1 Cu0 1.999 . S
N1 C3 1.263 . S
N1 C5 1.389 . S
N2 C3 1.362 . S
N2 C4 1.421 . S
C3 N1 1.263 . S
C3 N2 1.362 . S
C3 H9 0.930 1_554 S
C4 N2 1.421 . S
C4 C5 1.351 . S
C4 H21 0.930 . S
C5 N1 1.389 . S
C5 C4 1.351 . S
C5 H10 0.930 . S
O6 Cu0 1.974 . S
O6 C16 1.282 1_554 S
C7 O8 1.261 . S
C7 O20 1.251 . S
O8 C7 1.261 . S
H9 C3 0.930 1_556 S
H10 C5 0.930 . S
N11 Cu0 1.985 1_455 S
N11 C13 1.335 . S
N11 C14 1.390 . S
N12 C13 1.345 . S
N12 C15 1.336 . S
C13 N11 1.335 . S
C13 N12 1.345 . S
C13 H18 0.930 . S
C14 N11 1.390 . S
C14 C15 1.346 . S
C14 H19 0.930 . S
C15 N12 1.336 . S
C15 C14 1.346 . S
C15 H22 0.929 . S
C16 O6 1.282 1_556 S
C16 O17 1.216 . S
O17 C16 1.216 . S
H18 C13 0.930 . S
H19 C14 0.930 . S
O20 Cu0 1.959 1_455 S
O20 C7 1.251 . S
H21 C4 0.930 . S
H22 C15 0.929 . S
Cu23 N24 1.999 . S
Cu23 O29 1.974 . S
Cu23 N34 1.985 1_565 S
Cu23 O43 1.959 1_565 S
N24 Cu23 1.999 . S
N24 C26 1.263 . S
N24 C28 1.389 . S
N25 C26 1.358 . S
N25 C27 1.400 . S
C26 N24 1.263 . S
C26 N25 1.358 . S
C26 H32 0.930 . S
C27 N25 1.400 . S
C27 C28 1.351 . S
C27 H44 0.930 . S
C28 N24 1.389 . S
C28 C27 1.351 . S
C28 H33 0.930 . S
O29 Cu23 1.974 . S
O29 C39 1.282 . S
C30 O31 1.261 . S
C30 O43 1.251 . S
O31 C30 1.261 . S
H32 C26 0.930 . S
H33 C28 0.930 . S
N34 Cu23 1.985 1_545 S
N34 C36 1.335 . S
N34 C37 1.390 . S
N35 C36 1.345 . S
N35 C38 1.336 . S
C36 N34 1.335 . S
C36 N35 1.345 . S
C36 H41 0.930 . S
C37 N34 1.390 . S
C37 C38 1.346 . S
C37 H42 0.930 . S
C38 N35 1.336 . S
C38 C37 1.346 . S
C38 H45 0.929 . S
C39 O29 1.282 . S
C39 O40 1.216 . S
O40 C39 1.216 . S
H41 C36 0.930 . S
H42 C37 0.930 . S
O43 Cu23 1.959 1_545 S
O43 C30 1.251 . S
H44 C27 0.930 . S
H45 C38 0.929 . S
Cu46 N47 1.999 . S
Cu46 O52 1.974 . S
Cu46 N57 1.985 1_556 S
Cu46 O66 1.959 1_556 S
N47 Cu46 1.999 . S
N47 C49 1.263 . S
N47 C51 1.389 . S
N48 C49 1.358 . S
N48 C50 1.400 . S
C49 N47 1.263 . S
C49 N48 1.358 . S
C49 H55 0.930 . S
C50 N48 1.400 . S
C50 C51 1.351 . S
C50 H67 0.930 . S
C51 N47 1.389 . S
C51 C50 1.351 . S
C51 H56 0.930 . S
O52 Cu46 1.974 . S
O52 C62 1.282 . S
C53 O54 1.261 . S
C53 O66 1.251 . S
O54 C53 1.261 . S
H55 C49 0.930 . S
H56 C51 0.930 . S
N57 Cu46 1.985 1_554 S
N57 C59 1.335 . S
N57 C60 1.390 . S
N58 C59 1.345 . S
N58 C61 1.336 . S
C59 N57 1.335 . S
C59 N58 1.345 . S
C59 H64 0.930 . S
C60 N57 1.390 . S
C60 C61 1.346 . S
C60 H65 0.930 . S
C61 N58 1.336 . S
C61 C60 1.346 . S
C61 H68 0.929 . S
C62 O52 1.282 . S
C62 O63 1.216 1_556 S
O63 C62 1.216 1_554 S
H64 C59 0.930 . S
H65 C60 0.930 . S
O66 Cu46 1.959 1_554 S
O66 C53 1.251 . S
H67 C50 0.930 . S
H68 C61 0.929 . S
Cu69 N70 1.999 . S
Cu69 O75 1.974 . S
Cu69 N80 1.985 . S
Cu69 O89 1.959 . S
N70 Cu69 1.999 . S
N70 C72 1.263 . S
N70 C74 1.389 . S
N71 C72 1.358 . S
N71 C73 1.400 . S
C72 N70 1.263 . S
C72 N71 1.358 . S
C72 H78 0.930 . S
C73 N71 1.400 . S
C73 C74 1.351 . S
C73 H90 0.930 . S
C74 N70 1.389 . S
C74 C73 1.351 . S
C74 H79 0.930 . S
O75 Cu69 1.974 . S
O75 C85 1.282 . S
C76 O77 1.261 . S
C76 O89 1.251 . S
O77 C76 1.261 . S
H78 C72 0.930 . S
H79 C74 0.930 . S
N80 Cu69 1.985 . S
N80 C82 1.335 . S
N80 C83 1.390 . S
N81 C82 1.345 . S
N81 C84 1.336 . S
C82 N80 1.335 . S
C82 N81 1.345 . S
C82 H87 0.930 1_455 S
C83 N80 1.390 . S
C83 C84 1.346 . S
C83 H88 0.930 . S
C84 N81 1.336 . S
C84 C83 1.346 . S
C84 H91 0.929 . S
C85 O75 1.282 . S
C85 O86 1.216 . S
O86 C85 1.216 . S
H87 C82 0.930 1_655 S
H88 C83 0.930 . S
O89 Cu69 1.959 . S
O89 C76 1.251 . S
H90 C73 0.930 . S
H91 C84 0.929 . S
Cu92 N93 1.999 . S
Cu92 O98 1.974 1_554 S
Cu92 N103 1.985 1_545 S
Cu92 O112 1.959 1_545 S
N93 Cu92 1.999 . S
N93 C95 1.263 1_554 S
N93 C97 1.389 . S
N94 C95 1.358 . S
N94 C96 1.382 1_556 S
C95 N93 1.263 1_556 S
C95 N94 1.358 . S
C95 H101 0.930 . S
C96 N94 1.382 1_554 S
C96 C97 1.362 . S
C96 H113 0.937 . S
C97 N93 1.389 . S
C97 C96 1.362 . S
C97 H102 0.930 . S
O98 Cu92 1.974 1_556 S
O98 C108 1.282 . S
C99 O100 1.265 . S
C99 O112 1.251 . S
O100 C99 1.265 . S
H101 C95 0.930 . S
H102 C97 0.930 . S
N103 Cu92 1.985 1_565 S
N103 C105 1.335 . S
N103 C106 1.390 . S
N104 C105 1.345 . S
N104 C107 1.336 . S
C105 N103 1.335 . S
C105 N104 1.345 . S
C105 H110 0.930 . S
C106 N103 1.390 . S
C106 C107 1.346 . S
C106 H111 0.930 1_564 S
C107 N104 1.336 . S
C107 C106 1.346 . S
C107 H114 0.929 . S
C108 O98 1.282 . S
C108 O109 1.216 . S
O109 C108 1.216 . S
H110 C105 0.930 . S
H111 C106 0.930 1_546 S
O112 Cu92 1.959 1_565 S
O112 C99 1.251 . S
H113 C96 0.937 . S
H114 C107 0.929 . S
Cu115 N116 1.999 . S
Cu115 O121 1.974 . S
Cu115 N126 1.985 . S
Cu115 O135 1.959 . S
N116 Cu115 1.999 . S
N116 C118 1.263 . S
N116 C120 1.389 . S
N117 C118 1.358 . S
N117 C119 1.400 . S
C118 N116 1.263 . S
C118 N117 1.358 . S
C118 H124 0.930 . S
C119 N117 1.400 . S
C119 C120 1.351 . S
C119 H136 0.930 . S
C120 N116 1.389 . S
C120 C119 1.351 . S
C120 H125 0.930 . S
O121 Cu115 1.974 . S
O121 C131 1.282 . S
C122 O123 1.261 . S
C122 O135 1.251 . S
O123 C122 1.261 . S
H124 C118 0.930 . S
H125 C120 0.930 . S
N126 Cu115 1.985 . S
N126 C128 1.335 . S
N126 C129 1.390 . S
N127 C128 1.345 . S
N127 C130 1.336 . S
C128 N126 1.335 . S
C128 N127 1.345 . S
C128 H133 0.930 . S
C129 N126 1.390 . S
C129 C130 1.346 . S
C129 H134 0.930 . S
C130 N127 1.336 . S
C130 C129 1.346 . S
C130 H137 0.929 . S
C131 O121 1.282 . S
C131 O132 1.216 . S
O132 C131 1.216 . S
H133 C128 0.930 . S
H134 C129 0.930 . S
O135 Cu115 1.959 . S
O135 C122 1.251 . S
H136 C119 0.930 . S
H137 C130 0.929 . S
H138 C165 0.929 . S
N139 C164 1.433 . S
N139 C170 1.435 . S
N139 C176 1.423 . S
H140 C166 0.930 . S
H141 C169 0.931 . S
H142 C168 0.929 . S
H143 C171 0.930 . S
H144 C172 0.932 . S
H145 C175 0.929 . S
H146 C174 0.931 . S
H147 C177 0.929 . S
H148 C181 0.932 . S
H149 C178 0.931 . S
H150 C180 0.929 . S
H151 C183 0.929 . S
H152 C184 0.930 . S
H153 C186 0.929 . S
H154 C187 0.931 . S
H155 C189 0.930 . S
H156 C190 0.932 . S
H157 C192 0.931 . S
H158 C193 0.929 . S
H159 C195 0.929 . S
H160 C196 0.931 . S
H161 C198 0.929 . S
N162 C182 1.433 . S
N162 C188 1.435 . S
N162 C194 1.423 . S
H163 C199 0.932 . S
C164 N139 1.433 . S
C164 C165 1.363 . S
C164 C169 1.370 . S
C165 H138 0.929 . S
C165 C164 1.363 . S
C165 C166 1.385 . S
C166 H140 0.930 . S
C166 C165 1.385 . S
C166 C167 1.357 . S
C167 C166 1.357 . S
C167 C168 1.406 . S
C168 H142 0.929 . S
C168 C167 1.406 . S
C168 C169 1.391 . S
C169 H141 0.931 . S
C169 C164 1.370 . S
C169 C168 1.391 . S
C170 N139 1.435 . S
C170 C171 1.358 . S
C170 C175 1.371 . S
C171 H143 0.930 . S
C171 C170 1.358 . S
C171 C172 1.405 . S
C172 H144 0.932 . S
C172 C171 1.405 . S
C172 C173 1.383 . S
C173 C172 1.383 . S
C173 C174 1.393 . S
C174 H146 0.931 . S
C174 C173 1.393 . S
C174 C175 1.382 . S
C175 H145 0.929 . S
C175 C170 1.371 . S
C175 C174 1.382 . S
C176 N139 1.423 . S
C176 C177 1.362 . S
C176 C181 1.388 . S
C177 H147 0.929 . S
C177 C176 1.362 . S
C177 C178 1.376 . S
C178 H149 0.931 . S
C178 C177 1.376 . S
C178 C179 1.396 . S
C179 C178 1.396 . S
C179 C180 1.348 . S
C179 C197 1.472 . S
C180 H150 0.929 . S
C180 C179 1.348 . S
C180 C181 1.443 . S
C181 H148 0.932 . S
C181 C176 1.388 . S
C181 C180 1.443 . S
C182 N162 1.433 . S
C182 C183 1.363 . S
C182 C187 1.370 . S
C183 H151 0.929 . S
C183 C182 1.363 . S
C183 C184 1.385 . S
C184 H152 0.930 . S
C184 C183 1.385 . S
C184 C185 1.357 . S
C185 C184 1.357 . S
C185 C186 1.406 . S
C186 H153 0.929 . S
C186 C185 1.406 . S
C186 C187 1.391 . S
C187 H154 0.931 . S
C187 C182 1.370 . S
C187 C186 1.391 . S
C188 N162 1.435 . S
C188 C189 1.358 . S
C188 C193 1.371 . S
C189 H155 0.930 . S
C189 C188 1.358 . S
C189 C190 1.405 . S
C190 H156 0.932 . S
C190 C189 1.405 . S
C190 C191 1.383 . S
C191 C190 1.383 . S
C191 C192 1.393 . S
C192 H157 0.931 . S
C192 C191 1.393 . S
C192 C193 1.382 . S
C193 H158 0.929 . S
C193 C188 1.371 . S
C193 C192 1.382 . S
C194 N162 1.423 . S
C194 C195 1.362 . S
C194 C199 1.388 . S
C195 H159 0.929 . S
C195 C194 1.362 . S
C195 C196 1.376 . S
C196 H160 0.931 . S
C196 C195 1.376 . S
C196 C197 1.396 . S
C197 C179 1.472 . S
C197 C196 1.396 . S
C197 C198 1.348 . S
C198 H161 0.929 . S
C198 C197 1.348 . S
C198 C199 1.443 . S
C199 H163 0.932 . S
C199 C194 1.388 . S
C199 C198 1.443 . S
H200 C227 0.929 . S
N201 C226 1.433 . S
N201 C232 1.435 . S
N201 C238 1.423 . S
H202 C228 0.930 . S
H203 C231 0.931 . S
H204 C230 0.929 . S
H205 C233 0.930 . S
H206 C234 0.932 . S
H207 C237 0.929 . S
H208 C236 0.931 . S
H209 C239 0.929 . S
H210 C243 0.932 . S
H211 C240 0.931 . S
H212 C242 0.929 . S
H213 C245 0.929 . S
H214 C246 0.930 . S
H215 C248 0.929 . S
H216 C249 0.931 . S
H217 C251 0.930 . S
H218 C252 0.932 . S
H219 C254 0.931 . S
H220 C255 0.929 . S
H221 C257 0.929 . S
H222 C258 0.931 . S
H223 C260 0.929 . S
N224 C244 1.433 . S
N224 C250 1.435 . S
N224 C256 1.423 . S
H225 C261 0.932 . S
C226 N201 1.433 . S
C226 C227 1.363 . S
C226 C231 1.370 . S
C227 H200 0.929 . S
C227 C226 1.363 . S
C227 C228 1.385 . S
C228 H202 0.930 . S
C228 C227 1.385 . S
C228 C229 1.357 . S
C229 C228 1.357 . S
C229 C230 1.406 . S
C230 H204 0.929 . S
C230 C229 1.406 . S
C230 C231 1.391 . S
C231 H203 0.931 . S
C231 C226 1.370 . S
C231 C230 1.391 . S
C232 N201 1.435 . S
C232 C233 1.358 . S
C232 C237 1.371 . S
C233 H205 0.930 . S
C233 C232 1.358 . S
C233 C234 1.405 . S
C234 H206 0.932 . S
C234 C233 1.405 . S
C234 C235 1.383 . S
C235 C234 1.383 . S
C235 C236 1.393 . S
C236 H208 0.931 . S
C236 C235 1.393 . S
C236 C237 1.382 . S
C237 H207 0.929 . S
C237 C232 1.371 . S
C237 C236 1.382 . S
C238 N201 1.423 . S
C238 C239 1.362 . S
C238 C243 1.388 . S
C239 H209 0.929 . S
C239 C238 1.362 . S
C239 C240 1.376 . S
C240 H211 0.931 . S
C240 C239 1.376 . S
C240 C241 1.396 . S
C241 C240 1.396 . S
C241 C242 1.348 . S
C241 C259 1.472 . S
C242 H212 0.929 . S
C242 C241 1.348 . S
C242 C243 1.443 . S
C243 H210 0.932 . S
C243 C238 1.388 . S
C243 C242 1.443 . S
C244 N224 1.433 . S
C244 C245 1.363 . S
C244 C249 1.370 . S
C245 H213 0.929 . S
C245 C244 1.363 . S
C245 C246 1.385 . S
C246 H214 0.930 . S
C246 C245 1.385 . S
C246 C247 1.357 . S
C247 C246 1.357 . S
C247 C248 1.406 . S
C248 H215 0.929 . S
C248 C247 1.406 . S
C248 C249 1.391 . S
C249 H216 0.931 . S
C249 C244 1.370 . S
C249 C248 1.391 . S
C250 N224 1.435 . S
C250 C251 1.358 . S
C250 C255 1.371 . S
C251 H217 0.930 . S
C251 C250 1.358 . S
C251 C252 1.405 . S
C252 H218 0.932 . S
C252 C251 1.405 . S
C252 C253 1.383 . S
C253 C252 1.383 . S
C253 C254 1.393 . S
C254 H219 0.931 . S
C254 C253 1.393 . S
C254 C255 1.382 . S
C255 H220 0.929 . S
C255 C250 1.371 . S
C255 C254 1.382 . S
C256 N224 1.423 . S
C256 C257 1.362 . S
C256 C261 1.388 . S
C257 H221 0.929 . S
C257 C256 1.362 . S
C257 C258 1.376 . S
C258 H222 0.931 . S
C258 C257 1.376 . S
C258 C259 1.396 . S
C259 C241 1.472 . S
C259 C258 1.396 . S
C259 C260 1.348 . S
C260 H223 0.929 . S
C260 C259 1.348 . S
C260 C261 1.443 . S
C261 H225 0.932 . S
C261 C256 1.388 . S
C261 C260 1.443 . S
H262 C289 0.929 . S
N263 C288 1.433 . S
N263 C294 1.435 . S
N263 C300 1.423 . S
H264 C290 0.930 . S
H265 C293 0.931 . S
H266 C292 0.929 . S
H267 C295 0.930 . S
H268 C296 0.932 . S
H269 C299 0.929 . S
H270 C298 0.931 . S
H271 C301 0.929 . S
H272 C305 0.932 . S
H273 C302 0.931 . S
H274 C304 0.929 . S
H275 C307 0.929 . S
H276 C308 0.930 . S
H277 C310 0.929 . S
H278 C311 0.931 . S
H279 C313 0.930 . S
H280 C314 0.932 . S
H281 C316 0.931 . S
H282 C317 0.929 . S
H283 C319 0.929 . S
H284 C320 0.931 . S
H285 C322 0.929 . S
N286 C306 1.433 . S
N286 C312 1.435 . S
N286 C318 1.423 . S
H287 C323 0.932 . S
C288 N263 1.433 . S
C288 C289 1.363 . S
C288 C293 1.370 . S
C289 H262 0.929 . S
C289 C288 1.363 . S
C289 C290 1.385 . S
C290 H264 0.930 . S
C290 C289 1.385 . S
C290 C291 1.357 . S
C291 C290 1.357 . S
C291 C292 1.406 . S
C292 H266 0.929 . S
C292 C291 1.406 . S
C292 C293 1.391 . S
C293 H265 0.931 . S
C293 C288 1.370 . S
C293 C292 1.391 . S
C294 N263 1.435 . S
C294 C295 1.358 . S
C294 C299 1.371 . S
C295 H267 0.930 . S
C295 C294 1.358 . S
C295 C296 1.405 . S
C296 H268 0.932 . S
C296 C295 1.405 . S
C296 C297 1.383 . S
C297 C296 1.383 . S
C297 C298 1.393 . S
C298 H270 0.931 . S
C298 C297 1.393 . S
C298 C299 1.382 . S
C299 H269 0.929 . S
C299 C294 1.371 . S
C299 C298 1.382 . S
C300 N263 1.423 . S
C300 C301 1.362 . S
C300 C305 1.388 . S
C301 H271 0.929 . S
C301 C300 1.362 . S
C301 C302 1.376 . S
C302 H273 0.931 . S
C302 C301 1.376 . S
C302 C303 1.396 . S
C303 C302 1.396 . S
C303 C304 1.348 . S
C303 C321 1.472 . S
C304 H274 0.929 . S
C304 C303 1.348 . S
C304 C305 1.443 . S
C305 H272 0.932 . S
C305 C300 1.388 . S
C305 C304 1.443 . S
C306 N286 1.433 . S
C306 C307 1.363 . S
C306 C311 1.370 . S
C307 H275 0.929 . S
C307 C306 1.363 . S
C307 C308 1.385 . S
C308 H276 0.930 . S
C308 C307 1.385 . S
C308 C309 1.357 . S
C309 C308 1.357 . S
C309 C310 1.406 . S
C310 H277 0.929 . S
C310 C309 1.406 . S
C310 C311 1.391 . S
C311 H278 0.931 . S
C311 C306 1.370 . S
C311 C310 1.391 . S
C312 N286 1.435 . S
C312 C313 1.358 . S
C312 C317 1.371 . S
C313 H279 0.930 . S
C313 C312 1.358 . S
C313 C314 1.405 . S
C314 H280 0.932 . S
C314 C313 1.405 . S
C314 C315 1.383 . S
C315 C314 1.383 . S
C315 C316 1.393 . S
C316 H281 0.931 . S
C316 C315 1.393 . S
C316 C317 1.382 . S
C317 H282 0.929 . S
C317 C312 1.371 . S
C317 C316 1.382 . S
C318 N286 1.423 . S
C318 C319 1.362 . S
C318 C323 1.388 . S
C319 H283 0.929 . S
C319 C318 1.362 . S
C319 C320 1.376 . S
C320 H284 0.931 . S
C320 C319 1.376 . S
C320 C321 1.396 . S
C321 C303 1.472 . S
C321 C320 1.396 . S
C321 C322 1.348 . S
C322 H285 0.929 . S
C322 C321 1.348 . S
C322 C323 1.443 . S
C323 H287 0.932 . S
C323 C318 1.388 . S
C323 C322 1.443 . S
H324 C351 0.929 . S
N325 C350 1.433 . S
N325 C356 1.435 . S
N325 C362 1.423 . S
H326 C352 0.930 . S
H327 C355 0.931 . S
H328 C354 0.929 . S
H329 C357 0.930 . S
H330 C358 0.932 . S
H331 C361 0.929 . S
H332 C360 0.931 . S
H333 C363 0.929 . S
H334 C367 0.932 . S
H335 C364 0.931 . S
H336 C366 0.929 . S
H337 C369 0.929 . S
H338 C370 0.930 . S
H339 C372 0.929 . S
H340 C373 0.931 . S
H341 C375 0.930 . S
H342 C376 0.932 . S
H343 C378 0.931 . S
H344 C379 0.929 . S
H345 C381 0.929 . S
H346 C382 0.931 . S
H347 C384 0.929 . S
N348 C368 1.433 . S
N348 C374 1.435 . S
N348 C380 1.423 . S
H349 C385 0.932 . S
C350 N325 1.433 . S
C350 C351 1.363 . S
C350 C355 1.370 . S
C351 H324 0.929 . S
C351 C350 1.363 . S
C351 C352 1.385 . S
C352 H326 0.930 . S
C352 C351 1.385 . S
C352 C353 1.357 . S
C353 C352 1.357 . S
C353 C354 1.406 . S
C354 H328 0.929 . S
C354 C353 1.406 . S
C354 C355 1.391 . S
C355 H327 0.931 . S
C355 C350 1.370 . S
C355 C354 1.391 . S
C356 N325 1.435 . S
C356 C357 1.358 . S
C356 C361 1.371 . S
C357 H329 0.930 . S
C357 C356 1.358 . S
C357 C358 1.405 . S
C358 H330 0.932 . S
C358 C357 1.405 . S
C358 C359 1.383 . S
C359 C358 1.383 . S
C359 C360 1.393 . S
C360 H332 0.931 . S
C360 C359 1.393 . S
C360 C361 1.382 . S
C361 H331 0.929 . S
C361 C356 1.371 . S
C361 C360 1.382 . S
C362 N325 1.423 . S
C362 C363 1.362 . S
C362 C367 1.388 . S
C363 H333 0.929 . S
C363 C362 1.362 . S
C363 C364 1.376 . S
C364 H335 0.931 . S
C364 C363 1.376 . S
C364 C365 1.396 . S
C365 C364 1.396 . S
C365 C366 1.348 . S
C365 C383 1.472 . S
C366 H336 0.929 . S
C366 C365 1.348 . S
C366 C367 1.443 . S
C367 H334 0.932 . S
C367 C362 1.388 . S
C367 C366 1.443 . S
C368 N348 1.433 . S
C368 C369 1.363 . S
C368 C373 1.370 . S
C369 H337 0.929 . S
C369 C368 1.363 . S
C369 C370 1.385 . S
C370 H338 0.930 . S
C370 C369 1.385 . S
C370 C371 1.357 . S
C371 C370 1.357 . S
C371 C372 1.406 . S
C372 H339 0.929 . S
C372 C371 1.406 . S
C372 C373 1.391 . S
C373 H340 0.931 . S
C373 C368 1.370 . S
C373 C372 1.391 . S
C374 N348 1.435 . S
C374 C375 1.358 . S
C374 C379 1.371 . S
C375 H341 0.930 . S
C375 C374 1.358 . S
C375 C376 1.405 . S
C376 H342 0.932 . S
C376 C375 1.405 . S
C376 C377 1.383 . S
C377 C376 1.383 . S
C377 C378 1.393 . S
C378 H343 0.931 . S
C378 C377 1.393 . S
C378 C379 1.382 . S
C379 H344 0.929 . S
C379 C374 1.371 . S
C379 C378 1.382 . S
C380 N348 1.423 . S
C380 C381 1.362 . S
C380 C385 1.388 . S
C381 H345 0.929 . S
C381 C380 1.362 . S
C381 C382 1.376 . S
C382 H346 0.931 . S
C382 C381 1.376 . S
C382 C383 1.396 . S
C383 C365 1.472 . S
C383 C382 1.396 . S
C383 C384 1.348 . S
C384 H347 0.929 . S
C384 C383 1.348 . S
C384 C385 1.443 . S
C385 H349 0.932 . S
C385 C380 1.388 . S
C385 C384 1.443 . S
H386 C413 0.929 . S
N387 C412 1.433 . S
N387 C418 1.435 . S
N387 C424 1.423 . S
H388 C414 0.930 . S
H389 C417 0.931 . S
H390 C416 0.929 . S
H391 C419 0.930 . S
H392 C420 0.932 . S
H393 C423 0.929 . S
H394 C422 0.931 . S
H395 C425 0.929 . S
H396 C429 0.932 . S
H397 C426 0.931 . S
H398 C428 0.929 . S
H399 C431 0.929 . S
H400 C432 0.930 . S
H401 C434 0.929 . S
H402 C435 0.931 . S
H403 C437 0.930 . S
H404 C438 0.932 . S
H405 C440 0.931 . S
H406 C441 0.929 . S
H407 C443 0.929 . S
H408 C444 0.931 . S
H409 C446 0.929 . S
N410 C430 1.433 . S
N410 C436 1.435 . S
N410 C442 1.423 . S
H411 C447 0.932 . S
C412 N387 1.433 . S
C412 C413 1.363 . S
C412 C417 1.370 . S
C413 H386 0.929 . S
C413 C412 1.363 . S
C413 C414 1.385 . S
C414 H388 0.930 . S
C414 C413 1.385 . S
C414 C415 1.357 . S
C415 C414 1.357 . S
C415 C416 1.406 . S
C416 H390 0.929 . S
C416 C415 1.406 . S
C416 C417 1.391 . S
C417 H389 0.931 . S
C417 C412 1.370 . S
C417 C416 1.391 . S
C418 N387 1.435 . S
C418 C419 1.358 . S
C418 C423 1.371 . S
C419 H391 0.930 . S
C419 C418 1.358 . S
C419 C420 1.405 . S
C420 H392 0.932 . S
C420 C419 1.405 . S
C420 C421 1.383 . S
C421 C420 1.383 . S
C421 C422 1.393 . S
C422 H394 0.931 . S
C422 C421 1.393 . S
C422 C423 1.382 . S
C423 H393 0.929 . S
C423 C418 1.371 . S
C423 C422 1.382 . S
C424 N387 1.423 . S
C424 C425 1.362 . S
C424 C429 1.388 . S
C425 H395 0.929 . S
C425 C424 1.362 . S
C425 C426 1.376 . S
C426 H397 0.931 . S
C426 C425 1.376 . S
C426 C427 1.396 . S
C427 C426 1.396 . S
C427 C428 1.348 . S
C427 C445 1.472 . S
C428 H398 0.929 . S
C428 C427 1.348 . S
C428 C429 1.443 . S
C429 H396 0.932 . S
C429 C424 1.388 . S
C429 C428 1.443 . S
C430 N410 1.433 . S
C430 C431 1.363 . S
C430 C435 1.370 . S
C431 H399 0.929 . S
C431 C430 1.363 . S
C431 C432 1.385 . S
C432 H400 0.930 . S
C432 C431 1.385 . S
C432 C433 1.357 . S
C433 C432 1.357 . S
C433 C434 1.406 . S
C434 H401 0.929 . S
C434 C433 1.406 . S
C434 C435 1.391 . S
C435 H402 0.931 . S
C435 C430 1.370 . S
C435 C434 1.391 . S
C436 N410 1.435 . S
C436 C437 1.358 . S
C436 C441 1.371 . S
C437 H403 0.930 . S
C437 C436 1.358 . S
C437 C438 1.405 . S
C438 H404 0.932 . S
C438 C437 1.405 . S
C438 C439 1.383 . S
C439 C438 1.383 . S
C439 C440 1.393 . S
C440 H405 0.931 . S
C440 C439 1.393 . S
C440 C441 1.382 . S
C441 H406 0.929 . S
C441 C436 1.371 . S
C441 C440 1.382 . S
C442 N410 1.423 . S
C442 C443 1.362 . S
C442 C447 1.388 . S
C443 H407 0.929 . S
C443 C442 1.362 . S
C443 C444 1.376 . S
C444 H408 0.931 . S
C444 C443 1.376 . S
C444 C445 1.396 . S
C445 C427 1.472 . S
C445 C444 1.396 . S
C445 C446 1.348 . S
C446 H409 0.929 . S
C446 C445 1.348 . S
C446 C447 1.443 . S
C447 H411 0.932 . S
C447 C442 1.388 . S
C447 C446 1.443 . S
H448 C475 0.929 . S
N449 C474 1.433 . S
N449 C480 1.435 . S
N449 C486 1.423 . S
H450 C476 0.930 . S
H451 C479 0.931 . S
H452 C478 0.929 . S
H453 C481 0.930 . S
H454 C482 0.932 . S
H455 C485 0.929 . S
H456 C484 0.931 . S
H457 C487 0.929 . S
H458 C491 0.932 . S
H459 C488 0.931 . S
H460 C490 0.929 . S
H461 C493 0.929 . S
H462 C494 0.930 . S
H463 C496 0.929 . S
H464 C497 0.931 . S
H465 C499 0.930 . S
H466 C500 0.932 . S
H467 C502 0.931 . S
H468 C503 0.929 . S
H469 C505 0.929 . S
H470 C506 0.931 . S
H471 C508 0.929 . S
N472 C492 1.433 . S
N472 C498 1.435 . S
N472 C504 1.423 . S
H473 C509 0.932 . S
C474 N449 1.433 . S
C474 C475 1.363 . S
C474 C479 1.370 . S
C475 H448 0.929 . S
C475 C474 1.363 . S
C475 C476 1.385 . S
C476 H450 0.930 . S
C476 C475 1.385 . S
C476 C477 1.357 . S
C477 C476 1.357 . S
C477 C478 1.406 . S
C478 H452 0.929 . S
C478 C477 1.406 . S
C478 C479 1.391 . S
C479 H451 0.931 . S
C479 C474 1.370 . S
C479 C478 1.391 . S
C480 N449 1.435 . S
C480 C481 1.358 . S
C480 C485 1.371 . S
C481 H453 0.930 . S
C481 C480 1.358 . S
C481 C482 1.405 . S
C482 H454 0.932 . S
C482 C481 1.405 . S
C482 C483 1.383 . S
C483 C482 1.383 . S
C483 C484 1.393 . S
C484 H456 0.931 . S
C484 C483 1.393 . S
C484 C485 1.382 . S
C485 H455 0.929 . S
C485 C480 1.371 . S
C485 C484 1.382 . S
C486 N449 1.423 . S
C486 C487 1.362 . S
C486 C491 1.388 . S
C487 H457 0.929 . S
C487 C486 1.362 . S
C487 C488 1.376 . S
C488 H459 0.931 . S
C488 C487 1.376 . S
C488 C489 1.396 . S
C489 C488 1.396 . S
C489 C490 1.348 . S
C489 C507 1.472 . S
C490 H460 0.929 . S
C490 C489 1.348 . S
C490 C491 1.443 . S
C491 H458 0.932 . S
C491 C486 1.388 . S
C491 C490 1.443 . S
C492 N472 1.433 . S
C492 C493 1.363 . S
C492 C497 1.370 . S
C493 H461 0.929 . S
C493 C492 1.363 . S
C493 C494 1.385 . S
C494 H462 0.930 . S
C494 C493 1.385 . S
C494 C495 1.357 . S
C495 C494 1.357 . S
C495 C496 1.406 . S
C496 H463 0.929 . S
C496 C495 1.406 . S
C496 C497 1.391 . S
C497 H464 0.931 . S
C497 C492 1.370 . S
C497 C496 1.391 . S
C498 N472 1.435 . S
C498 C499 1.358 . S
C498 C503 1.371 . S
C499 H465 0.930 . S
C499 C498 1.358 . S
C499 C500 1.405 . S
C500 H466 0.932 . S
C500 C499 1.405 . S
C500 C501 1.383 . S
C501 C500 1.383 . S
C501 C502 1.393 . S
C502 H467 0.931 . S
C502 C501 1.393 . S
C502 C503 1.382 . S
C503 H468 0.929 . S
C503 C498 1.371 . S
C503 C502 1.382 . S
C504 N472 1.423 . S
C504 C505 1.362 . S
C504 C509 1.388 . S
C505 H469 0.929 . S
C505 C504 1.362 . S
C505 C506 1.376 . S
C506 H470 0.931 . S
C506 C505 1.376 . S
C506 C507 1.396 . S
C507 C489 1.472 . S
C507 C506 1.396 . S
C507 C508 1.348 . S
C508 H471 0.929 . S
C508 C507 1.348 . S
C508 C509 1.443 . S
C509 H473 0.932 . S
C509 C504 1.388 . S
C509 C508 1.443 . S
C510 C511 1.387 . S
C510 H514 0.950 . S
C510 C519 1.390 . S
C511 C510 1.387 . S
C511 C513 1.387 . S
H512 C519 0.950 . S
C513 C511 1.387 . S
C513 C515 1.390 . S
C513 H517 0.950 . S
H514 C510 0.950 . S
C515 C513 1.390 . S
C515 C516 1.387 . S
C515 H518 0.950 . S
C516 C515 1.387 . S
C516 C519 1.387 . S
H517 C513 0.950 . S
H518 C515 0.950 . S
C519 C510 1.390 . S
C519 H512 0.950 . S
C519 C516 1.387 . S
C520 C521 1.387 . S
C520 H524 0.950 . S
C520 C529 1.390 . S
C521 C520 1.387 . S
C521 C523 1.387 . S
H522 C529 0.950 . S
C523 C521 1.387 . S
C523 C525 1.390 . S
C523 H527 0.950 . S
H524 C520 0.950 . S
C525 C523 1.390 . S
C525 C526 1.387 . S
C525 H528 0.950 . S
C526 C525 1.387 . S
C526 C529 1.387 . S
H527 C523 0.950 . S
H528 C525 0.950 . S
C529 C520 1.390 . S
C529 H522 0.950 . S
C529 C526 1.387 . S
C530 C531 1.387 . S
C530 H534 0.950 . S
C530 C539 1.390 . S
C531 C530 1.387 . S
C531 C533 1.387 . S
H532 C539 0.950 . S
C533 C531 1.387 . S
C533 C535 1.390 . S
C533 H537 0.950 . S
H534 C530 0.950 . S
C535 C533 1.390 . S
C535 C536 1.387 . S
C535 H538 0.950 . S
C536 C535 1.387 . S
C536 C539 1.387 . S
H537 C533 0.950 . S
H538 C535 0.950 . S
C539 C530 1.390 . S
C539 H532 0.950 . S
C539 C536 1.387 . S
C540 C541 1.387 . S
C540 H544 0.950 . S
C540 C549 1.390 . S
C541 C540 1.387 . S
C541 C543 1.387 . S
H542 C549 0.950 . S
C543 C541 1.387 . S
C543 C545 1.390 . S
C543 H547 0.950 1_655 S
H544 C540 0.950 . S
C545 C543 1.390 . S
C545 C546 1.387 . S
C545 H548 0.950 . S
C546 C545 1.387 . S
C546 C549 1.387 . S
H547 C543 0.950 1_455 S
H548 C545 0.950 . S
C549 C540 1.390 . S
C549 H542 0.950 . S
C549 C546 1.387 . S
C550 C551 1.387 . S
C550 H554 0.950 . S
C550 C559 1.390 . S
C551 C550 1.387 . S
C551 C553 1.387 . S
H552 C559 0.950 . S
C553 C551 1.387 . S
C553 C555 1.390 . S
C553 H557 0.950 . S
H554 C550 0.950 . S
C555 C553 1.390 . S
C555 C556 1.387 . S
C555 H558 0.950 . S
C556 C555 1.387 . S
C556 C559 1.387 . S
H557 C553 0.950 . S
H558 C555 0.950 . S
C559 C550 1.390 . S
C559 H552 0.950 . S
C559 C556 1.387 . S
C560 C561 1.387 . S
C560 H564 0.950 . S
C560 C569 1.390 . S
C561 C560 1.387 . S
C561 C563 1.387 . S
H562 C569 0.950 . S
C563 C561 1.387 . S
C563 C565 1.390 . S
C563 H567 0.950 . S
H564 C560 0.950 . S
C565 C563 1.390 . S
C565 C566 1.387 . S
C565 H568 0.950 . S
C566 C565 1.387 . S
C566 C569 1.387 . S
H567 C563 0.950 . S
H568 C565 0.950 . S
C569 C560 1.390 . S
C569 H562 0.950 . S
C569 C566 1.387 . S
C570 C571 1.387 . S
C570 H574 0.950 . S
C570 C579 1.390 . S
C571 C570 1.387 . S
C571 C573 1.387 . S
H572 C579 0.950 . S
C573 C571 1.387 . S
C573 C575 1.390 . S
C573 H577 0.950 . S
H574 C570 0.950 . S
C575 C573 1.390 . S
C575 C576 1.387 . S
C575 H578 0.950 . S
C576 C575 1.387 . S
C576 C579 1.387 . S
H577 C573 0.950 . S
H578 C575 0.950 . S
C579 C570 1.390 . S
C579 H572 0.950 . S
C579 C576 1.387 . S
C580 C581 1.387 . S
C580 H584 0.950 . S
C580 C589 1.390 . S
C581 C580 1.387 . S
C581 C583 1.387 . S
H582 C589 0.950 . S
C583 C581 1.387 . S
C583 C585 1.390 . S
C583 H587 0.950 . S
H584 C580 0.950 . S
C585 C583 1.390 . S
C585 C586 1.387 . S
C585 H588 0.950 . S
C586 C585 1.387 . S
C586 C589 1.387 . S
H587 C583 0.950 . S
H588 C585 0.950 . S
C589 C580 1.390 . S
C589 H582 0.950 . S
C589 C586 1.387 . S
C590 C591 1.387 . S
C590 H594 0.950 . S
C590 C599 1.390 . S
C591 C590 1.387 . S
C591 C593 1.387 . S
H592 C599 0.950 . S
C593 C591 1.387 . S
C593 C595 1.390 . S
C593 H597 0.950 . S
H594 C590 0.950 . S
C595 C593 1.390 . S
C595 C596 1.387 . S
C595 H598 0.950 . S
C596 C595 1.387 . S
C596 C599 1.387 . S
H597 C593 0.950 . S
H598 C595 0.950 . S
C599 C590 1.390 . S
C599 H592 0.950 . S
C599 C596 1.387 . S
C600 C601 1.387 . S
C600 H604 0.950 . S
C600 C609 1.390 . S
C601 C600 1.387 . S
C601 C603 1.387 . S
H602 C609 0.950 . S
C603 C601 1.387 . S
C603 C605 1.390 . S
C603 H607 0.950 . S
H604 C600 0.950 . S
C605 C603 1.390 . S
C605 C606 1.387 . S
C605 H608 0.950 . S
C606 C605 1.387 . S
C606 C609 1.387 . S
H607 C603 0.950 . S
H608 C605 0.950 . S
C609 C600 1.390 . S
C609 H602 0.950 . S
C609 C606 1.387 . S
C610 C611 1.387 . S
C610 H614 0.950 . S
C610 C619 1.390 . S
C611 C610 1.387 . S
C611 C613 1.387 . S
H612 C619 0.950 . S
C613 C611 1.387 . S
C613 C615 1.390 . S
C613 H617 0.950 . S
H614 C610 0.950 . S
C615 C613 1.390 . S
C615 C616 1.387 . S
C615 H618 0.950 . S
C616 C615 1.387 . S
C616 C619 1.387 . S
H617 C613 0.950 . S
H618 C615 0.950 . S
C619 C610 1.390 . S
C619 H612 0.950 . S
C619 C616 1.387 . S
C620 C621 1.387 . S
C620 H624 0.950 1_556 S
C620 C629 1.390 . S
C621 C620 1.387 . S
C621 C623 1.387 . S
H622 C629 0.950 . S
C623 C621 1.387 . S
C623 C625 1.390 . S
C623 H627 0.950 . S
H624 C620 0.950 1_554 S
C625 C623 1.390 . S
C625 C626 1.387 . S
C625 H628 0.950 . S
C626 C625 1.387 . S
C626 C629 1.387 . S
H627 C623 0.950 . S
H628 C625 0.950 . S
C629 C620 1.390 . S
C629 H622 0.950 . S
C629 C626 1.387 . S
C630 C631 1.387 . S
C630 H634 0.950 . S
C630 C639 1.390 . S
C631 C630 1.387 . S
C631 C633 1.387 . S
H632 C639 0.950 . S
C633 C631 1.387 . S
C633 C635 1.390 . S
C633 H637 0.950 1_556 S
H634 C630 0.950 . S
C635 C633 1.390 . S
C635 C636 1.387 . S
C635 H638 0.936 1_556 S
C636 C635 1.387 . S
C636 C639 1.387 . S
H637 C633 0.950 1_554 S
H638 C635 0.936 1_554 S
C639 C630 1.390 . S
C639 H632 0.950 . S
C639 C636 1.387 . S
C640 C641 1.387 . S
C640 H644 0.950 . S
C640 C649 1.390 . S
C641 C640 1.387 . S
C641 C643 1.387 . S
H642 C649 0.950 . S
C643 C641 1.387 . S
C643 C645 1.390 . S
C643 H647 0.950 . S
H644 C640 0.950 . S
C645 C643 1.390 . S
C645 C646 1.387 . S
C645 H648 0.950 . S
C646 C645 1.387 . S
C646 C649 1.387 . S
H647 C643 0.950 . S
H648 C645 0.950 . S
C649 C640 1.390 . S
C649 H642 0.950 . S
C649 C646 1.387 . S
C650 C651 1.387 . S
C650 H654 0.950 . S
C650 C659 1.390 . S
C651 C650 1.387 . S
C651 C653 1.387 . S
H652 C659 0.950 . S
C653 C651 1.387 . S
C653 C655 1.390 . S
C653 H657 0.950 . S
H654 C650 0.950 . S
C655 C653 1.390 . S
C655 C656 1.387 . S
C655 H658 0.950 . S
C656 C655 1.387 . S
C656 C659 1.387 . S
H657 C653 0.950 . S
H658 C655 0.950 . S
C659 C650 1.390 . S
C659 H652 0.950 . S
C659 C656 1.387 . S
C660 C661 1.387 . S
C660 H664 0.950 . S
C660 C669 1.390 . S
C661 C660 1.387 . S
C661 C663 1.387 . S
H662 C669 0.950 . S
C663 C661 1.387 . S
C663 C665 1.390 . S
C663 H667 0.950 . S
H664 C660 0.950 . S
C665 C663 1.390 . S
C665 C666 1.387 . S
C665 H668 0.950 . S
C666 C665 1.387 . S
C666 C669 1.387 . S
H667 C663 0.950 . S
H668 C665 0.950 . S
C669 C660 1.390 . S
C669 H662 0.950 . S
C669 C666 1.387 . S
C670 C671 1.387 . S
C670 H674 0.950 . S
C670 C679 1.390 . S
C671 C670 1.387 . S
C671 C673 1.387 . S
H672 C679 0.950 . S
C673 C671 1.387 . S
C673 C675 1.390 . S
C673 H677 0.950 . S
H674 C670 0.950 . S
C675 C673 1.390 . S
C675 C676 1.387 . S
C675 H678 0.950 . S
C676 C675 1.387 . S
C676 C679 1.387 . S
H677 C673 0.950 . S
H678 C675 0.950 . S
C679 C670 1.390 . S
C679 H672 0.950 . S
C679 C676 1.387 . S
C680 C681 1.387 . S
C680 H684 0.950 . S
C680 C689 1.390 . S
C681 C680 1.387 . S
C681 C683 1.387 . S
H682 C689 0.950 . S
C683 C681 1.387 . S
C683 C685 1.390 . S
C683 H687 0.950 . S
H684 C680 0.950 . S
C685 C683 1.390 . S
C685 C686 1.387 . S
C685 H688 0.950 . S
C686 C685 1.387 . S
C686 C689 1.387 . S
H687 C683 0.950 . S
H688 C685 0.950 . S
C689 C680 1.390 . S
C689 H682 0.950 . S
C689 C686 1.387 . S
C690 C691 1.387 . S
C690 H694 0.950 . S
C690 C699 1.390 . S
C691 C690 1.387 . S
C691 C693 1.387 . S
H692 C699 0.950 . S
C693 C691 1.387 . S
C693 C695 1.390 . S
C693 H697 0.950 . S
H694 C690 0.950 . S
C695 C693 1.390 . S
C695 C696 1.387 . S
C695 H698 0.950 . S
C696 C695 1.387 . S
C696 C699 1.387 . S
H697 C693 0.950 . S
H698 C695 0.950 . S
C699 C690 1.390 . S
C699 H692 0.950 . S
C699 C696 1.387 . S
C700 C701 1.387 . S
C700 H704 0.950 . S
C700 C709 1.390 . S
C701 C700 1.387 . S
C701 C703 1.387 . S
H702 C709 0.950 . S
C703 C701 1.387 . S
C703 C705 1.390 . S
C703 H707 0.950 . S
H704 C700 0.950 . S
C705 C703 1.390 . S
C705 C706 1.387 . S
C705 H708 0.950 . S
C706 C705 1.387 . S
C706 C709 1.387 . S
H707 C703 0.950 . S
H708 C705 0.950 . S
C709 C700 1.390 . S
C709 H702 0.950 . S
C709 C706 1.387 . S
C710 C711 1.387 . S
C710 H714 0.950 . S
C710 C719 1.390 1_455 S
C711 C710 1.387 . S
C711 C713 1.387 1_455 S
H712 C719 0.950 . S
C713 C711 1.387 1_655 S
C713 C715 1.390 . S
C713 H717 0.950 . S
H714 C710 0.950 . S
C715 C713 1.390 . S
C715 C716 1.387 . S
C715 H718 0.950 . S
C716 C715 1.387 . S
C716 C719 1.387 . S
H717 C713 0.950 . S
H718 C715 0.950 . S
C719 C710 1.390 1_655 S
C719 H712 0.950 . S
C719 C716 1.387 . S
C720 C721 1.387 . S
C720 H724 0.950 . S
C720 C729 1.390 . S
C721 C720 1.387 . S
C721 C723 1.387 . S
H722 C729 0.950 . S
C723 C721 1.387 . S
C723 C725 1.390 . S
C723 H727 0.950 . S
H724 C720 0.950 . S
C725 C723 1.390 . S
C725 C726 1.387 . S
C725 H728 0.950 . S
C726 C725 1.387 . S
C726 C729 1.387 . S
H727 C723 0.950 . S
H728 C725 0.950 . S
C729 C720 1.390 . S
C729 H722 0.950 . S
C729 C726 1.387 . S
C730 C731 1.387 . S
C730 H734 0.950 . S
C730 C739 1.390 . S
C731 C730 1.387 . S
C731 C733 1.387 . S
H732 C739 0.950 . S
C733 C731 1.387 . S
C733 C735 1.390 . S
C733 H737 0.950 . S
H734 C730 0.950 . S
C735 C733 1.390 . S
C735 C736 1.387 . S
C735 H738 0.950 . S
C736 C735 1.387 . S
C736 C739 1.387 . S
H737 C733 0.950 . S
H738 C735 0.950 . S
C739 C730 1.390 . S
C739 H732 0.950 . S
C739 C736 1.387 . S
C740 C741 1.387 . S
C740 H744 0.950 . S
C740 C749 1.390 . S
C741 C740 1.387 . S
C741 C743 1.387 . S
H742 C749 0.950 . S
C743 C741 1.387 . S
C743 C745 1.390 . S
C743 H747 0.950 . S
H744 C740 0.950 . S
C745 C743 1.390 . S
C745 C746 1.387 . S
C745 H748 0.950 . S
C746 C745 1.387 . S
C746 C749 1.387 . S
H747 C743 0.950 . S
H748 C745 0.950 . S
C749 C740 1.390 . S
C749 H742 0.950 . S
C749 C746 1.387 . S
C511 C7 1.806 . S
C516 C191 1.707 . S
C521 C30 1.768 . S
C526 C235 1.722 . S
C536 C315 1.689 . S
C531 N58 1.667 . S
C546 C359 1.420 . S
C541 N81 1.391 1_655 S
C556 C439 1.794 . S
C551 C99 1.864 . S
C566 C495 1.645 . S
C561 N127 1.709 . S
C571 N25 1.946 . S
C576 C291 1.771 . S
C581 C62 1.596 . S
C586 C371 1.516 . S
C596 C415 1.849 . S
C591 C85 2.036 . S
C606 C483 1.621 . S
C601 N94 1.601 . S
C611 C131 1.811 . S
C616 C167 1.695 . S
C626 C247 1.724 . S
C621 N2 1.685 1_556 S
C636 C353 1.840 . S
C631 C16 1.947 . S
C641 C39 1.622 . S
C646 C433 1.433 . S
C656 C501 1.687 . S
C651 N48 1.645 . S
C661 N71 1.542 . S
C666 C185 1.509 . S
C671 C108 1.738 . S
C676 C229 1.663 . S
C681 N117 1.787 . S
C686 C309 1.567 . S
C691 N35 1.913 . S
C696 C477 1.804 . S
C706 C173 1.582 . S
C701 C53 1.706 . S
C711 C76 1.826 . S
C716 C253 1.742 . S
C721 N104 1.435 . S
C726 C297 1.408 . S
C731 C122 1.836 . S
C736 C377 1.791 . S
C741 N12 1.406 . S
C746 C421 1.395 . S
