# Generated by pormake.
# Topology anh, (6,3)-cn, num edge types: 1
# Building blocks:
#     Node 0, Type 0, BuildingBlock: VOLQOD_clean_sbu_1, # of connection points: 6
#     Node 1, Type 0, BuildingBlock: VOLQOD_clean_sbu_1, # of connection points: 6
#     Node 2, Type 0, BuildingBlock: VOLQOD_clean_sbu_1, # of connection points: 6
#     Node 3, Type 1, BuildingBlock: MIDCAF_clean_linker_0, # of connection points: 3
#     Node 4, Type 1, BuildingBlock: MIDCAF_clean_linker_0, # of connection points: 3
#     Node 5, Type 1, BuildingBlock: MIDCAF_clean_linker_0, # of connection points: 3
#     Node 6, Type 1, BuildingBlock: MIDCAF_clean_linker_0, # of connection points: 3
#     Node 7, Type 1, BuildingBlock: MIDCAF_clean_linker_0, # of connection points: 3
#     Node 8, Type 1, BuildingBlock: MIDCAF_clean_linker_0, # of connection points: 3
#     Edge 9, Type (0, 1), None
#     Edge 10, Type (0, 1), None
#     Edge 11, Type (0, 1), None
#     Edge 12, Type (0, 1), None
#     Edge 13, Type (0, 1), None
#     Edge 14, Type (0, 1), None
#     Edge 15, Type (0, 1), None
#     Edge 16, Type (0, 1), None
#     Edge 17, Type (0, 1), None
#     Edge 18, Type (0, 1), None
#     Edge 19, Type (0, 1), None
#     Edge 20, Type (0, 1), None
#     Edge 21, Type (0, 1), None
#     Edge 22, Type (0, 1), None
#     Edge 23, Type (0, 1), None
#     Edge 24, Type (0, 1), None
#     Edge 25, Type (0, 1), None
#     Edge 26, Type (0, 1), None
# Relax obj value: 0.167
# Max RMSD: 0.230
# Mean RMSD: 0.114
data_MOF--net-anh--node1-VOLQOD_clean_sbu_1--node2-MIDCAF_clean_linker_0--edge1-none
_symmetry_space_group_name_H-M    P1
_symmetry_Int_Tables_number       1
_symmetry_cell_setting            triclinic
loop_
_symmetry_equiv_pos_as_xyz
'x, y, z'
_cell_length_a     19.868893
_cell_length_b     19.806771
_cell_length_c     41.658385
_cell_angle_alpha  90.048197
_cell_angle_beta   89.643448
_cell_angle_gamma 120.29121
loop_
_atom_site_label
_atom_site_type_symbol
_atom_site_fract_x
_atom_site_fract_y
_atom_site_fract_z
_atom_type_partial_charge
O0 O 0.96452 0.53237 0.23456 0.0
Zn1 Zn -0.02984 0.56123 0.18792 0.0
O2 O -0.02025 0.48516 0.16099 0.0
Zn3 Zn 0.88917 0.42999 0.13367 0.0
Zn4 Zn -0.01033 0.40953 0.18798 0.0
Zn5 Zn 0.07042 0.54014 0.13332 0.0
O6 O 0.91714 0.44102 0.08663 0.0
O7 O 0.04254 0.53254 0.08662 0.0
O8 O 0.87497 0.56928 0.17632 0.0
O9 O 0.82207 0.47681 0.13892 0.0
O10 O 0.82276 0.31714 0.1466 0.0
O11 O 0.8923 0.30371 0.18489 0.0
O12 O 0.08494 0.40147 0.17596 0.0
O13 O 0.06802 0.66675 0.18469 0.0
O14 O 0.13534 0.49068 0.13701 0.0
O15 O 0.13869 0.65199 0.1469 0.0
C16 C -0.02019 0.48561 0.24948 0.0
C17 C -0.02009 0.48737 0.0717 0.0
C18 C 0.83095 0.27576 0.16788 0.0
C19 C 0.82164 0.52967 0.15603 0.0
C20 C 0.13649 0.43875 0.15446 0.0
C21 C 0.13033 0.69377 0.168 0.0
O22 O -0.00497 0.43863 0.23457 0.0
O23 O 0.43445 0.00389 0.42311 0.0
Zn24 Zn 0.4046 -0.00185 0.46979 0.0
O25 O 0.47926 -0.01307 0.4966 0.0
Zn26 Zn 0.53413 0.07727 0.52415 0.0
Zn27 Zn 0.55488 0.97643 0.46975 0.0
Zn28 Zn 0.42357 0.89591 0.52404 0.0
O29 O 0.52506 0.04839 0.57076 0.0
O30 O 0.43074 0.92377 0.57074 0.0
O31 O 0.39641 0.09371 0.48226 0.0
O32 O 0.48571 0.14325 0.52072 0.0
O33 O 0.64602 0.14489 0.51069 0.0
O34 O 0.66022 0.07449 0.47264 0.0
O35 O 0.56348 0.88137 0.48229 0.0
O36 O 0.29896 0.90023 0.47278 0.0
O37 O 0.47246 0.8302 0.52054 0.0
O38 O 0.31225 0.82856 0.51038 0.0
C39 C 0.4802 -0.0131 0.40822 0.0
C40 C 0.47764 -0.01402 0.58565 0.0
C41 C 0.68759 0.13649 0.48947 0.0
C42 C 0.43384 0.14497 0.50369 0.0
C43 C 0.52535 0.82941 0.50357 0.0
C44 C 0.27123 0.83764 0.48935 0.0
O45 O 0.52579 0.97023 0.42315 0.0
O46 O 0.42318 0.44176 0.75678 0.0
Zn47 Zn 0.39895 0.41347 0.8036 0.0
O48 O 0.48478 0.48984 0.83034 0.0
Zn49 Zn 0.44829 0.54343 0.85818 0.0
Zn50 Zn 0.57053 0.56663 0.80319 0.0
Zn51 Zn 0.5212 0.4359 0.85779 0.0
O52 O 0.46747 0.53491 0.90488 0.0
O53 O 0.50364 0.44558 0.90474 0.0
O54 O 0.29514 0.40539 0.81533 0.0
O55 O 0.3338 0.49438 0.85414 0.0
O56 O 0.49245 0.65534 0.84512 0.0
O57 O 0.5774 0.67161 0.80676 0.0
O58 O 0.67467 0.57577 0.81474 0.0
O59 O 0.39053 0.3079 0.80749 0.0
O60 O 0.63543 0.48409 0.85262 0.0
O61 O 0.47558 0.32356 0.84521 0.0
C62 C 0.48515 0.48962 0.74167 0.0
C63 C 0.48584 0.49046 0.91974 0.0
C64 C 0.5423 0.69784 0.82391 0.0
C65 C 0.28072 0.4427 0.83663 0.0
C66 C 0.68876 0.53698 0.83533 0.0
C67 C 0.42508 0.28114 0.82445 0.0
O68 O 0.54703 0.53776 0.75644 0.0
C69 C 0.19785 0.8054 0.20621 0.0
C70 C 0.19904 0.76934 0.1773 0.0
C71 C 0.26991 0.79938 0.16029 0.0
C72 C 0.33905 0.85969 0.17327 0.0
H73 H 0.56902 0.08894 0.16025 0.0
H74 H 0.6896 0.19534 0.13762 0.0
H75 H 0.81674 0.18386 0.2193 0.0
H76 H 0.69651 0.07847 0.24189 0.0
H77 H 0.59909 0.00884 0.30948 0.0
H78 H 0.59878 0.00942 0.36808 0.0
H79 H 0.36162 0.96272 0.36838 0.0
H80 H 0.36127 0.96042 0.30976 0.0
H81 H 0.26449 0.88832 0.24253 0.0
H82 H 0.14437 0.78429 0.21989 0.0
H83 H 0.27284 0.77335 0.13783 0.0
H84 H 0.39332 0.87842 0.1605 0.0
N85 N 0.48085 -0.01665 0.20423 0.0
N86 N 0.54818 0.02474 0.253 0.0
N87 N 0.4127 0.94278 0.25324 0.0
C88 C 0.54899 0.02534 0.2204 0.0
C89 C 0.48033 -0.01608 0.26957 0.0
C90 C 0.41243 0.94159 0.22062 0.0
C91 C 0.62302 0.07665 0.20321 0.0
C92 C 0.62307 0.10781 0.17292 0.0
C93 C 0.69227 0.16889 0.15997 0.0
C94 C 0.76269 0.19929 0.17695 0.0
C95 C 0.76358 0.16259 0.20568 0.0
C96 C 0.69443 0.10231 0.21876 0.0
C97 C 0.48017 -0.0155 0.30504 0.0
C98 C 0.5469 -0.00131 0.32206 0.0
C99 C 0.54663 -0.00131 0.3556 0.0
C100 C 0.48022 -0.01377 0.37277 0.0
C101 C 0.41377 0.97287 0.35576 0.0
C102 C 0.41345 0.97115 0.32222 0.0
C103 C 0.33864 0.89039 0.20364 0.0
C104 C 0.26693 0.86487 0.21933 0.0
C105 C 0.38398 0.20592 0.54095 0.0
C106 C 0.41654 0.20708 0.5109 0.0
C107 C 0.45094 0.27608 0.49262 0.0
C108 C 0.45821 0.3449 0.50548 0.0
H109 H 0.47216 0.5765 0.49211 0.0
H110 H 0.48158 0.69573 0.47001 0.0
H111 H 0.60229 0.82245 0.55487 0.0
H112 H 0.59391 0.70478 0.57701 0.0
H113 H 0.57769 0.6093 0.64254 0.0
H114 H 0.5789 0.60944 0.70117 0.0
H115 H 0.39128 0.36906 0.70203 0.0
H116 H 0.39113 0.36832 0.64343 0.0
H117 H 0.36911 0.27214 0.57782 0.0
H118 H 0.35827 0.15344 0.55559 0.0
H119 H 0.47793 0.27839 0.46966 0.0
H120 H 0.48977 0.39867 0.49184 0.0
N121 N 0.48165 0.48811 0.53746 0.0
N122 N 0.50995 0.55626 0.58629 0.0
N123 N 0.45622 0.42066 0.58647 0.0
C124 C 0.50877 0.55668 0.55367 0.0
C125 C 0.4836 0.48858 0.60285 0.0
C126 C 0.45548 0.41978 0.55384 0.0
C127 C 0.53077 0.63072 0.53664 0.0
C128 C 0.50339 0.63044 0.50552 0.0
C129 C 0.50924 0.69866 0.49271 0.0
C130 C 0.54329 0.76782 0.51073 0.0
C131 C 0.57681 0.76982 0.54043 0.0
C132 C 0.57107 0.70209 0.5532 0.0
C133 C 0.48434 0.48878 0.63837 0.0
C134 C 0.53675 0.55648 0.65525 0.0
C135 C 0.5377 0.55647 0.68881 0.0
C136 C 0.48513 0.48929 0.70617 0.0
C137 C 0.43227 0.42182 0.6893 0.0
C138 C 0.43244 0.4213 0.65574 0.0
C139 C 0.43192 0.34537 0.5369 0.0
C140 C 0.39116 0.27424 0.55377 0.0
C141 C 0.80336 0.59038 0.87019 0.0
C142 C 0.76826 0.55379 0.8413 0.0
C143 C 0.7985 0.51436 0.8238 0.0
C144 C 0.85949 0.50654 0.83639 0.0
H145 H 0.08843 0.50398 0.82332 0.0
H146 H 0.1972 0.4915 0.80213 0.0
H147 H 0.19076 0.36393 0.88695 0.0
H148 H 0.08264 0.37546 0.90816 0.0
H149 H 0.10123 0.51647 0.97307 0.0
H150 H 0.10057 0.51658 0.03176 0.0
H151 H 0.86042 0.46043 0.03193 0.0
H152 H 0.86184 0.4629 0.97315 0.0
H153 H 0.8866 0.60757 0.90612 0.0
H154 H 0.77981 0.61979 0.8843 0.0
H155 H 0.77074 0.4841 0.80182 0.0
H156 H 0.87835 0.47137 0.82352 0.0
N157 N -0.01618 0.48956 0.86784 0.0
N158 N 0.02589 0.46608 0.91698 0.0
N159 N 0.93933 0.51334 0.91663 0.0
C160 C 0.02676 0.46525 0.88437 0.0
C161 C -0.01777 0.48973 0.93322 0.0
C162 C 0.9401 0.51397 0.88399 0.0
C163 C 0.07816 0.44226 0.86773 0.0
C164 C 0.10818 0.47063 0.83686 0.0
C165 C 0.16986 0.46297 0.82458 0.0
C166 C 0.20119 0.42604 0.84287 0.0
C167 C 0.1665 0.39155 0.87228 0.0
C168 C 0.1053 0.39919 0.88454 0.0
C169 C -0.01839 0.48975 0.96864 0.0
C170 C 0.04841 0.50435 0.98567 0.0
C171 C 0.04815 0.50475 0.0192 0.0
C172 C -0.0196 0.48838 0.03629 0.0
C173 C 0.91329 0.47288 0.01929 0.0
C174 C 0.91423 0.47467 0.98573 0.0
C175 C 0.88974 0.53702 0.86685 0.0
C176 C 0.86373 0.58233 0.88282 0.0
C177 C 0.16009 0.77066 0.45119 0.0
C178 C 0.19546 0.76932 0.48011 0.0
C179 C 0.16435 0.69849 0.49725 0.0
C180 C 0.10371 0.62934 0.48436 0.0
H181 H 0.87369 0.39933 0.49719 0.0
H182 H 0.76704 0.27863 0.51968 0.0
H183 H 0.77992 0.15028 0.43813 0.0
H184 H 0.88562 0.27062 0.4157 0.0
H185 H 0.95497 0.36697 0.34827 0.0
H186 H 0.95524 0.36658 0.28967 0.0
H187 H 0.0052 0.60565 0.2892 0.0
H188 H 0.00657 0.60665 0.34781 0.0
H189 H 0.07733 0.70399 0.41493 0.0
H190 H 0.18202 0.82415 0.43742 0.0
H191 H 0.18981 0.69549 0.51974 0.0
H192 H 0.08418 0.57499 0.49721 0.0
N193 N -0.01977 0.48723 0.45339 0.0
N194 N 0.93951 0.41925 0.40461 0.0
N195 N 0.02179 0.55504 0.40438 0.0
C196 C 0.93837 0.41876 0.43721 0.0
C197 C -0.01924 0.48708 0.38806 0.0
C198 C 0.02242 0.55565 0.437 0.0
C199 C 0.88675 0.34472 0.45433 0.0
C200 C 0.85505 0.34499 0.48453 0.0
C201 C 0.79382 0.27573 0.49739 0.0
C202 C 0.7638 0.20494 0.4804 0.0
C203 C 0.80091 0.20374 0.45175 0.0
C204 C 0.86137 0.27294 0.43877 0.0
C205 C -0.01919 0.48686 0.35261 0.0
C206 C 0.96602 0.41943 0.33565 0.0
C207 C 0.96651 0.41929 0.30212 0.0
C208 C -0.01988 0.48604 0.28491 0.0
C209 C -0.00584 0.55324 0.30186 0.0
C210 C -0.00467 0.55392 0.33539 0.0
C211 C 0.07371 0.62972 0.45395 0.0
C212 C 0.10023 0.70155 0.43816 0.0
C213 C 0.37802 0.16669 0.78766 0.0
C214 C 0.41714 0.20486 0.81587 0.0
C215 C 0.45891 0.17617 0.83266 0.0
C216 C 0.46712 0.11526 0.81994 0.0
H217 H 0.46082 0.87897 0.83276 0.0
H218 H 0.47846 0.7749 0.85496 0.0
H219 H 0.61813 0.7904 0.7722 0.0
H220 H 0.59987 0.89336 0.75011 0.0
H221 H 0.44855 0.86509 0.68413 0.0
H222 H 0.44703 0.86466 0.62539 0.0
H223 H 0.50729 0.10688 0.62533 0.0
H224 H 0.50626 0.10659 0.68405 0.0
H225 H 0.35961 0.08146 0.75208 0.0
H226 H 0.34477 0.18661 0.77422 0.0
H227 H 0.48925 0.20383 0.85461 0.0
H228 H 0.50351 0.0976 0.83237 0.0
N229 N 0.48049 -0.01252 0.78915 0.0
N230 N 0.50199 0.94274 0.74003 0.0
N231 N 0.45555 0.03021 0.74042 0.0
C232 C 0.50376 0.94333 0.77262 0.0
C233 C 0.47817 -0.01387 0.72384 0.0
C234 C 0.45605 0.03094 0.77301 0.0
C235 C 0.52732 0.89284 0.78936 0.0
C236 C 0.49687 0.8614 0.81977 0.0
C237 C 0.50704 0.80175 0.83246 0.0
C238 C 0.5485 0.77322 0.81506 0.0
C239 C 0.58526 0.81029 0.78614 0.0
C240 C 0.57433 0.86906 0.77334 0.0
C241 C 0.47744 -0.01415 0.68851 0.0
C242 C 0.46127 0.91809 0.67151 0.0
C243 C 0.46004 0.91773 0.638 0.0
C244 C 0.47717 -0.01423 0.62097 0.0
C245 C 0.49423 0.05378 0.63796 0.0
C246 C 0.49328 0.0535 0.67147 0.0
C247 C 0.43432 0.08265 0.79011 0.0
C248 C 0.38694 0.10661 0.77483 0.0
C249 C 0.76132 0.585 0.1218 0.0
C250 C 0.75869 0.5459 0.15016 0.0
C251 C 0.68824 0.50459 0.16724 0.0
C252 C 0.61975 0.49767 0.15472 0.0
H253 H 0.38876 0.49533 0.16827 0.0
H254 H 0.26753 0.48323 0.1894 0.0
H255 H 0.14768 0.36311 0.1033 0.0
H256 H 0.26719 0.37407 0.08218 0.0
H257 H 0.39124 0.51515 0.01839 0.0
H258 H 0.39316 0.51745 0.95971 0.0
H259 H 0.57843 0.46354 0.95938 0.0
H260 H 0.57823 0.46369 0.01814 0.0
H261 H 0.69637 0.60505 0.08629 0.0
H262 H 0.81498 0.61593 0.10803 0.0
H263 H 0.68496 0.4725 0.1888 0.0
H264 H 0.5651 0.46118 0.16719 0.0
N265 N 0.47959 0.4839 0.12346 0.0
N266 N 0.41526 0.46324 0.07419 0.0
N267 N 0.54925 0.51017 0.07484 0.0
C268 C 0.41271 0.46067 0.10677 0.0
C269 C 0.48308 0.48759 0.0581 0.0
C270 C 0.54823 0.50904 0.10747 0.0
C271 C 0.33792 0.4373 0.12325 0.0
C272 C 0.33586 0.46364 0.15442 0.0
C273 C 0.26654 0.45622 0.16664 0.0
C274 C 0.19882 0.4217 0.14795 0.0
C275 C 0.19921 0.389 0.11822 0.0
C276 C 0.26797 0.39628 0.10604 0.0
C277 C 0.48463 0.4893 0.02272 0.0
C278 C 0.43247 0.50401 0.00575 0.0
C279 C 0.4338 0.50568 0.97224 0.0
C280 C 0.48584 0.49052 0.95511 0.0
C281 C 0.5375 0.47505 0.97206 0.0
C282 C 0.53765 0.47553 0.00561 0.0
C283 C 0.62115 0.53088 0.12473 0.0
C284 C 0.6932 0.57779 0.10922 0.0
loop_
_geom_bond_atom_site_label_1
_geom_bond_atom_site_label_2
_geom_bond_distance
_geom_bond_site_symmetry_2
_ccdc_geom_bond_type
O0 Zn1 1.953 . S
O0 C16 1.225 1_655 S
Zn1 O0 1.953 . S
Zn1 O2 1.949 1_655 S
Zn1 O8 1.919 . S
Zn1 O13 1.924 1_655 S
O2 Zn1 1.949 1_455 S
O2 Zn3 1.923 1_455 S
O2 Zn4 1.950 . S
O2 Zn5 1.945 . S
Zn3 O2 1.923 1_655 S
Zn3 O6 1.933 . S
Zn3 O9 1.941 . S
Zn3 O10 1.965 . S
Zn4 O2 1.950 . S
Zn4 O11 1.938 1_455 S
Zn4 O12 1.906 . S
Zn4 O22 1.953 . S
Zn5 O2 1.945 . S
Zn5 O7 1.932 . S
Zn5 O14 1.977 . S
Zn5 O15 1.910 . S
O6 Zn3 1.933 . S
O6 C17 1.226 1_655 S
O7 Zn5 1.932 . S
O7 C17 1.307 . S
O8 Zn1 1.919 . S
O8 C19 1.253 . S
O9 Zn3 1.941 . S
O9 C19 1.283 . S
O10 Zn3 1.965 . S
O10 C18 1.303 . S
O11 Zn4 1.938 1_655 S
O11 C18 1.247 . S
O12 Zn4 1.906 . S
O12 C20 1.304 . S
O13 Zn1 1.924 1_455 S
O13 C21 1.311 . S
O14 Zn5 1.977 . S
O14 C20 1.272 . S
O15 Zn5 1.910 . S
O15 C21 1.231 . S
C16 O0 1.225 1_455 S
C16 O22 1.298 . S
C17 O6 1.226 1_455 S
C17 O7 1.307 . S
C18 O10 1.303 . S
C18 O11 1.247 . S
C19 O8 1.253 . S
C19 O9 1.283 . S
C20 O12 1.304 . S
C20 O14 1.272 . S
C21 O13 1.311 . S
C21 O15 1.231 . S
O22 Zn4 1.953 . S
O22 C16 1.298 . S
O23 Zn24 1.953 . S
O23 C39 1.225 . S
Zn24 O23 1.953 . S
Zn24 O25 1.949 . S
Zn24 O31 1.919 . S
Zn24 O36 1.924 1_545 S
O25 Zn24 1.949 . S
O25 Zn26 1.923 . S
O25 Zn27 1.950 1_545 S
O25 Zn28 1.945 1_545 S
Zn26 O25 1.923 . S
Zn26 O29 1.933 . S
Zn26 O32 1.941 . S
Zn26 O33 1.965 . S
Zn27 O25 1.950 1_565 S
Zn27 O34 1.938 1_565 S
Zn27 O35 1.906 . S
Zn27 O45 1.953 . S
Zn28 O25 1.945 1_565 S
Zn28 O30 1.932 . S
Zn28 O37 1.977 . S
Zn28 O38 1.910 . S
O29 Zn26 1.933 . S
O29 C40 1.226 . S
O30 Zn28 1.932 . S
O30 C40 1.307 1_565 S
O31 Zn24 1.919 . S
O31 C42 1.253 . S
O32 Zn26 1.941 . S
O32 C42 1.283 . S
O33 Zn26 1.965 . S
O33 C41 1.303 . S
O34 Zn27 1.938 1_545 S
O34 C41 1.247 . S
O35 Zn27 1.906 . S
O35 C43 1.304 . S
O36 Zn24 1.924 1_565 S
O36 C44 1.311 . S
O37 Zn28 1.977 . S
O37 C43 1.272 . S
O38 Zn28 1.910 . S
O38 C44 1.231 . S
C39 O23 1.225 . S
C39 O45 1.298 1_545 S
C40 O29 1.226 . S
C40 O30 1.307 1_545 S
C41 O33 1.303 . S
C41 O34 1.247 . S
C42 O31 1.253 . S
C42 O32 1.283 . S
C43 O35 1.304 . S
C43 O37 1.272 . S
C44 O36 1.311 . S
C44 O38 1.231 . S
O45 Zn27 1.953 . S
O45 C39 1.298 1_565 S
O46 Zn47 1.953 . S
O46 C62 1.225 . S
Zn47 O46 1.953 . S
Zn47 O48 1.949 . S
Zn47 O54 1.919 . S
Zn47 O59 1.924 . S
O48 Zn47 1.949 . S
O48 Zn49 1.923 . S
O48 Zn50 1.950 . S
O48 Zn51 1.945 . S
Zn49 O48 1.923 . S
Zn49 O52 1.933 . S
Zn49 O55 1.941 . S
Zn49 O56 1.965 . S
Zn50 O48 1.950 . S
Zn50 O57 1.938 . S
Zn50 O58 1.906 . S
Zn50 O68 1.953 . S
Zn51 O48 1.945 . S
Zn51 O53 1.932 . S
Zn51 O60 1.977 . S
Zn51 O61 1.910 . S
O52 Zn49 1.933 . S
O52 C63 1.226 . S
O53 Zn51 1.932 . S
O53 C63 1.307 . S
O54 Zn47 1.919 . S
O54 C65 1.253 . S
O55 Zn49 1.941 . S
O55 C65 1.283 . S
O56 Zn49 1.965 . S
O56 C64 1.303 . S
O57 Zn50 1.938 . S
O57 C64 1.247 . S
O58 Zn50 1.906 . S
O58 C66 1.304 . S
O59 Zn47 1.924 . S
O59 C67 1.311 . S
O60 Zn51 1.977 . S
O60 C66 1.272 . S
O61 Zn51 1.910 . S
O61 C67 1.231 . S
C62 O46 1.225 . S
C62 O68 1.298 . S
C63 O52 1.226 . S
C63 O53 1.307 . S
C64 O56 1.303 . S
C64 O57 1.247 . S
C65 O54 1.253 . S
C65 O55 1.283 . S
C66 O58 1.304 . S
C66 O60 1.272 . S
C67 O59 1.311 . S
C67 O61 1.231 . S
O68 Zn50 1.953 . S
O68 C62 1.298 . S
C69 C70 1.384 . S
C69 H82 0.947 . S
C69 C104 1.382 . S
C70 C69 1.384 . S
C70 C71 1.378 . S
C71 C70 1.378 . S
C71 C72 1.378 . S
C71 H83 0.952 . S
C72 C71 1.378 . S
C72 H84 0.950 . S
C72 C103 1.383 . S
H73 C92 0.947 . S
H74 C93 0.946 . S
H75 C95 0.953 . S
H76 C96 0.945 . S
H77 C98 0.952 . S
H78 C99 0.949 . S
H79 C101 0.950 . S
H80 C102 0.948 . S
H81 C104 0.951 . S
H82 C69 0.947 . S
H83 C71 0.952 . S
H84 C72 0.950 . S
N85 C88 1.382 . S
N85 C90 1.363 1_545 S
N86 C88 1.371 . S
N86 C89 1.372 . S
N87 C89 1.361 1_565 S
N87 C90 1.377 . S
C88 N85 1.382 . S
C88 N86 1.371 . S
C88 C91 1.480 . S
C89 N86 1.372 . S
C89 N87 1.361 1_545 S
C89 C97 1.457 . S
C90 N85 1.363 1_565 S
C90 N87 1.377 . S
C90 C103 1.479 . S
C91 C88 1.480 . S
C91 C92 1.383 . S
C91 C96 1.385 . S
C92 H73 0.947 . S
C92 C91 1.383 . S
C92 C93 1.388 . S
C93 H74 0.946 . S
C93 C92 1.388 . S
C93 C94 1.384 . S
C94 C93 1.384 . S
C94 C95 1.377 . S
C95 H75 0.953 . S
C95 C94 1.377 . S
C95 C96 1.369 . S
C96 H76 0.945 . S
C96 C91 1.385 . S
C96 C95 1.369 . S
C97 C89 1.457 . S
C97 C98 1.372 . S
C97 C102 1.364 1_545 S
C98 H77 0.952 . S
C98 C97 1.372 . S
C98 C99 1.389 . S
C99 H78 0.949 . S
C99 C98 1.389 . S
C99 C100 1.387 . S
C100 C99 1.387 . S
C100 C101 1.372 1_545 S
C101 H79 0.950 . S
C101 C100 1.372 1_565 S
C101 C102 1.379 . S
C102 H80 0.948 . S
C102 C97 1.364 1_565 S
C102 C101 1.379 . S
C103 C72 1.383 . S
C103 C90 1.479 . S
C103 C104 1.398 . S
C104 C69 1.382 . S
C104 H81 0.951 . S
C104 C103 1.398 . S
C105 C106 1.384 . S
C105 H118 0.947 . S
C105 C140 1.382 . S
C106 C105 1.384 . S
C106 C107 1.378 . S
C107 C106 1.378 . S
C107 C108 1.378 . S
C107 H119 0.952 . S
C108 C107 1.378 . S
C108 H120 0.950 . S
C108 C139 1.383 . S
H109 C128 0.947 . S
H110 C129 0.946 . S
H111 C131 0.953 . S
H112 C132 0.945 . S
H113 C134 0.952 . S
H114 C135 0.949 . S
H115 C137 0.950 . S
H116 C138 0.948 . S
H117 C140 0.951 . S
H118 C105 0.947 . S
H119 C107 0.952 . S
H120 C108 0.950 . S
N121 C124 1.382 . S
N121 C126 1.363 . S
N122 C124 1.371 . S
N122 C125 1.372 . S
N123 C125 1.361 . S
N123 C126 1.377 . S
C124 N121 1.382 . S
C124 N122 1.371 . S
C124 C127 1.480 . S
C125 N122 1.372 . S
C125 N123 1.361 . S
C125 C133 1.457 . S
C126 N121 1.363 . S
C126 N123 1.377 . S
C126 C139 1.479 . S
C127 C124 1.480 . S
C127 C128 1.383 . S
C127 C132 1.385 . S
C128 H109 0.947 . S
C128 C127 1.383 . S
C128 C129 1.388 . S
C129 H110 0.946 . S
C129 C128 1.388 . S
C129 C130 1.384 . S
C130 C129 1.384 . S
C130 C131 1.377 . S
C131 H111 0.953 . S
C131 C130 1.377 . S
C131 C132 1.369 . S
C132 H112 0.945 . S
C132 C127 1.385 . S
C132 C131 1.369 . S
C133 C125 1.457 . S
C133 C134 1.372 . S
C133 C138 1.364 . S
C134 H113 0.952 . S
C134 C133 1.372 . S
C134 C135 1.389 . S
C135 H114 0.949 . S
C135 C134 1.389 . S
C135 C136 1.387 . S
C136 C135 1.387 . S
C136 C137 1.372 . S
C137 H115 0.950 . S
C137 C136 1.372 . S
C137 C138 1.379 . S
C138 H116 0.948 . S
C138 C133 1.364 . S
C138 C137 1.379 . S
C139 C108 1.383 . S
C139 C126 1.479 . S
C139 C140 1.398 . S
C140 C105 1.382 . S
C140 H117 0.951 . S
C140 C139 1.398 . S
C141 C142 1.384 . S
C141 H154 0.947 . S
C141 C176 1.382 . S
C142 C141 1.384 . S
C142 C143 1.378 . S
C143 C142 1.378 . S
C143 C144 1.378 . S
C143 H155 0.952 . S
C144 C143 1.378 . S
C144 H156 0.950 . S
C144 C175 1.383 . S
H145 C164 0.947 . S
H146 C165 0.946 . S
H147 C167 0.953 . S
H148 C168 0.945 . S
H149 C170 0.952 . S
H150 C171 0.949 . S
H151 C173 0.950 . S
H152 C174 0.948 . S
H153 C176 0.951 . S
H154 C141 0.947 . S
H155 C143 0.952 . S
H156 C144 0.950 . S
N157 C160 1.382 . S
N157 C162 1.363 1_455 S
N158 C160 1.371 . S
N158 C161 1.372 . S
N159 C161 1.361 1_655 S
N159 C162 1.377 . S
C160 N157 1.382 . S
C160 N158 1.371 . S
C160 C163 1.480 . S
C161 N158 1.372 . S
C161 N159 1.361 1_455 S
C161 C169 1.457 . S
C162 N157 1.363 1_655 S
C162 N159 1.377 . S
C162 C175 1.479 . S
C163 C160 1.480 . S
C163 C164 1.383 . S
C163 C168 1.385 . S
C164 H145 0.947 . S
C164 C163 1.383 . S
C164 C165 1.388 . S
C165 H146 0.946 . S
C165 C164 1.388 . S
C165 C166 1.384 . S
C166 C165 1.384 . S
C166 C167 1.377 . S
C167 H147 0.953 . S
C167 C166 1.377 . S
C167 C168 1.369 . S
C168 H148 0.945 . S
C168 C163 1.385 . S
C168 C167 1.369 . S
C169 C161 1.457 . S
C169 C170 1.372 . S
C169 C174 1.364 1_455 S
C170 H149 0.952 . S
C170 C169 1.372 . S
C170 C171 1.389 1_556 S
C171 H150 0.949 . S
C171 C170 1.389 1_554 S
C171 C172 1.387 . S
C172 C171 1.387 . S
C172 C173 1.372 1_455 S
C173 H151 0.950 . S
C173 C172 1.372 1_655 S
C173 C174 1.379 1_554 S
C174 H152 0.948 . S
C174 C169 1.364 1_655 S
C174 C173 1.379 1_556 S
C175 C144 1.383 . S
C175 C162 1.479 . S
C175 C176 1.398 . S
C176 C141 1.382 . S
C176 H153 0.951 . S
C176 C175 1.398 . S
C177 C178 1.384 . S
C177 H190 0.947 . S
C177 C212 1.382 . S
C178 C177 1.384 . S
C178 C179 1.378 . S
C179 C178 1.378 . S
C179 C180 1.378 . S
C179 H191 0.952 . S
C180 C179 1.378 . S
C180 H192 0.950 . S
C180 C211 1.383 . S
H181 C200 0.947 . S
H182 C201 0.946 . S
H183 C203 0.953 . S
H184 C204 0.945 . S
H185 C206 0.952 . S
H186 C207 0.949 . S
H187 C209 0.950 . S
H188 C210 0.948 . S
H189 C212 0.951 . S
H190 C177 0.947 . S
H191 C179 0.952 . S
H192 C180 0.950 . S
N193 C196 1.382 1_455 S
N193 C198 1.363 . S
N194 C196 1.371 . S
N194 C197 1.372 1_655 S
N195 C197 1.361 . S
N195 C198 1.377 . S
C196 N193 1.382 1_655 S
C196 N194 1.371 . S
C196 C199 1.480 . S
C197 N194 1.372 1_455 S
C197 N195 1.361 . S
C197 C205 1.457 . S
C198 N193 1.363 . S
C198 N195 1.377 . S
C198 C211 1.479 . S
C199 C196 1.480 . S
C199 C200 1.383 . S
C199 C204 1.385 . S
C200 H181 0.947 . S
C200 C199 1.383 . S
C200 C201 1.388 . S
C201 H182 0.946 . S
C201 C200 1.388 . S
C201 C202 1.384 . S
C202 C201 1.384 . S
C202 C203 1.377 . S
C203 H183 0.953 . S
C203 C202 1.377 . S
C203 C204 1.369 . S
C204 H184 0.945 . S
C204 C199 1.385 . S
C204 C203 1.369 . S
C205 C197 1.457 . S
C205 C206 1.372 1_455 S
C205 C210 1.364 . S
C206 H185 0.952 . S
C206 C205 1.372 1_655 S
C206 C207 1.389 . S
C207 H186 0.949 . S
C207 C206 1.389 . S
C207 C208 1.387 1_655 S
C208 C207 1.387 1_455 S
C208 C209 1.372 . S
C209 H187 0.950 . S
C209 C208 1.372 . S
C209 C210 1.379 . S
C210 H188 0.948 . S
C210 C205 1.364 . S
C210 C209 1.379 . S
C211 C180 1.383 . S
C211 C198 1.479 . S
C211 C212 1.398 . S
C212 C177 1.382 . S
C212 H189 0.951 . S
C212 C211 1.398 . S
C213 C214 1.384 . S
C213 H226 0.947 . S
C213 C248 1.382 . S
C214 C213 1.384 . S
C214 C215 1.378 . S
C215 C214 1.378 . S
C215 C216 1.378 . S
C215 H227 0.952 . S
C216 C215 1.378 . S
C216 H228 0.950 . S
C216 C247 1.383 . S
H217 C236 0.947 . S
H218 C237 0.946 . S
H219 C239 0.953 . S
H220 C240 0.945 . S
H221 C242 0.952 . S
H222 C243 0.949 . S
H223 C245 0.950 . S
H224 C246 0.948 . S
H225 C248 0.951 . S
H226 C213 0.947 . S
H227 C215 0.952 . S
H228 C216 0.950 . S
N229 C232 1.382 1_545 S
N229 C234 1.363 . S
N230 C232 1.371 . S
N230 C233 1.372 1_565 S
N231 C233 1.361 . S
N231 C234 1.377 . S
C232 N229 1.382 1_565 S
C232 N230 1.371 . S
C232 C235 1.480 . S
C233 N230 1.372 1_545 S
C233 N231 1.361 . S
C233 C241 1.457 . S
C234 N229 1.363 . S
C234 N231 1.377 . S
C234 C247 1.479 . S
C235 C232 1.480 . S
C235 C236 1.383 . S
C235 C240 1.385 . S
C236 H217 0.947 . S
C236 C235 1.383 . S
C236 C237 1.388 . S
C237 H218 0.946 . S
C237 C236 1.388 . S
C237 C238 1.384 . S
C238 C237 1.384 . S
C238 C239 1.377 . S
C239 H219 0.953 . S
C239 C238 1.377 . S
C239 C240 1.369 . S
C240 H220 0.945 . S
C240 C235 1.385 . S
C240 C239 1.369 . S
C241 C233 1.457 . S
C241 C242 1.372 1_545 S
C241 C246 1.364 . S
C242 H221 0.952 . S
C242 C241 1.372 1_565 S
C242 C243 1.389 . S
C243 H222 0.949 . S
C243 C242 1.389 . S
C243 C244 1.387 1_565 S
C244 C243 1.387 1_545 S
C244 C245 1.372 . S
C245 H223 0.950 . S
C245 C244 1.372 . S
C245 C246 1.379 . S
C246 H224 0.948 . S
C246 C241 1.364 . S
C246 C245 1.379 . S
C247 C216 1.383 . S
C247 C234 1.479 . S
C247 C248 1.398 . S
C248 C213 1.382 . S
C248 H225 0.951 . S
C248 C247 1.398 . S
C249 C250 1.384 . S
C249 H262 0.947 . S
C249 C284 1.382 . S
C250 C249 1.384 . S
C250 C251 1.378 . S
C251 C250 1.378 . S
C251 C252 1.378 . S
C251 H263 0.952 . S
C252 C251 1.378 . S
C252 H264 0.950 . S
C252 C283 1.383 . S
H253 C272 0.947 . S
H254 C273 0.946 . S
H255 C275 0.953 . S
H256 C276 0.945 . S
H257 C278 0.952 . S
H258 C279 0.949 . S
H259 C281 0.950 . S
H260 C282 0.948 . S
H261 C284 0.951 . S
H262 C249 0.947 . S
H263 C251 0.952 . S
H264 C252 0.950 . S
N265 C268 1.382 . S
N265 C270 1.363 . S
N266 C268 1.371 . S
N266 C269 1.372 . S
N267 C269 1.361 . S
N267 C270 1.377 . S
C268 N265 1.382 . S
C268 N266 1.371 . S
C268 C271 1.480 . S
C269 N266 1.372 . S
C269 N267 1.361 . S
C269 C277 1.457 . S
C270 N265 1.363 . S
C270 N267 1.377 . S
C270 C283 1.479 . S
C271 C268 1.480 . S
C271 C272 1.383 . S
C271 C276 1.385 . S
C272 H253 0.947 . S
C272 C271 1.383 . S
C272 C273 1.388 . S
C273 H254 0.946 . S
C273 C272 1.388 . S
C273 C274 1.384 . S
C274 C273 1.384 . S
C274 C275 1.377 . S
C275 H255 0.953 . S
C275 C274 1.377 . S
C275 C276 1.369 . S
C276 H256 0.945 . S
C276 C271 1.385 . S
C276 C275 1.369 . S
C277 C269 1.457 . S
C277 C278 1.372 . S
C277 C282 1.364 . S
C278 H257 0.952 . S
C278 C277 1.372 . S
C278 C279 1.389 1_554 S
C279 H258 0.949 . S
C279 C278 1.389 1_556 S
C279 C280 1.387 . S
C280 C279 1.387 . S
C280 C281 1.372 . S
C281 H259 0.950 . S
C281 C280 1.372 . S
C281 C282 1.379 1_556 S
C282 H260 0.948 . S
C282 C277 1.364 . S
C282 C281 1.379 1_554 S
C283 C252 1.383 . S
C283 C270 1.479 . S
C283 C284 1.398 . S
C284 C249 1.382 . S
C284 H261 0.951 . S
C284 C283 1.398 . S
C20 C274 1.291 . S
C41 C202 1.624 . S
C64 C238 1.729 . S
C19 C250 1.650 . S
C178 C44 1.675 . S
C214 C67 1.608 . S
C43 C130 1.312 . S
C66 C142 1.414 . S
C21 C70 1.672 . S
C106 C42 1.571 . S
C166 C65 1.493 . S
C18 C94 1.633 . S
C172 C17 1.449 . S
C39 C100 1.450 . S
C62 C136 1.499 . S
C244 C40 1.421 . S
C280 C63 1.486 . S
C16 C208 1.450 . S
