# Generated by pormake.
# Topology tsx, (6,3)-cn, num edge types: 1
# Building blocks:
#     Node 0, Type 0, BuildingBlock: VOLQOD_clean_sbu_1, # of connection points: 6
#     Node 1, Type 0, BuildingBlock: VOLQOD_clean_sbu_1, # of connection points: 6
#     Node 2, Type 1, BuildingBlock: ESEHIV_clean_linker_0, # of connection points: 3
#     Node 3, Type 1, BuildingBlock: ESEHIV_clean_linker_0, # of connection points: 3
#     Node 4, Type 1, BuildingBlock: ESEHIV_clean_linker_0, # of connection points: 3
#     Node 5, Type 1, BuildingBlock: ESEHIV_clean_linker_0, # of connection points: 3
#     Edge 6, Type (0, 1), BuildingBlock: XIVTED_clean_linker_0, # of connection points: 2
#     Edge 7, Type (0, 1), BuildingBlock: XIVTED_clean_linker_0, # of connection points: 2
#     Edge 8, Type (0, 1), BuildingBlock: XIVTED_clean_linker_0, # of connection points: 2
#     Edge 9, Type (0, 1), BuildingBlock: XIVTED_clean_linker_0, # of connection points: 2
#     Edge 10, Type (0, 1), BuildingBlock: XIVTED_clean_linker_0, # of connection points: 2
#     Edge 11, Type (0, 1), BuildingBlock: XIVTED_clean_linker_0, # of connection points: 2
#     Edge 12, Type (0, 1), BuildingBlock: XIVTED_clean_linker_0, # of connection points: 2
#     Edge 13, Type (0, 1), BuildingBlock: XIVTED_clean_linker_0, # of connection points: 2
#     Edge 14, Type (0, 1), BuildingBlock: XIVTED_clean_linker_0, # of connection points: 2
#     Edge 15, Type (0, 1), BuildingBlock: XIVTED_clean_linker_0, # of connection points: 2
#     Edge 16, Type (0, 1), BuildingBlock: XIVTED_clean_linker_0, # of connection points: 2
#     Edge 17, Type (0, 1), BuildingBlock: XIVTED_clean_linker_0, # of connection points: 2
# Relax obj value: 0.075
# Max RMSD: 0.108
# Mean RMSD: 0.082
data_MOF--net-tsx--node1-VOLQOD_clean_sbu_1--node2-ESEHIV_clean_linker_0--edge1-XIVTED_clean_linker_0
_symmetry_space_group_name_H-M    P1
_symmetry_Int_Tables_number       1
_symmetry_cell_setting            triclinic
loop_
_symmetry_equiv_pos_as_xyz
'x, y, z'
_cell_length_a     19.419878
_cell_length_b     20.098555
_cell_length_c     38.407018
_cell_angle_alpha  90.451075
_cell_angle_beta   89.868554
_cell_angle_gamma 90.384572
loop_
_atom_site_label
_atom_site_type_symbol
_atom_site_fract_x
_atom_site_fract_y
_atom_site_fract_z
_atom_type_partial_charge
O0 O 0.04265 0.0143 0.07769 0.0
Zn1 Zn 0.06023 0.01304 0.02598 0.0
O2 O 0.97924 0.04 -0.00019 0.0
Zn3 Zn 0.95158 0.96971 0.96762 0.0
Zn4 Zn 0.90447 0.05677 0.03247 0.0
Zn5 Zn -0.00037 0.11951 0.97295 0.0
O6 O 0.9408 0.00282 0.91869 0.0
O7 O 0.99145 0.1021 0.9212 0.0
O8 O 0.0934 0.92265 0.0107 0.0
O9 O 0.02418 0.89953 0.96616 0.0
O10 O 0.86509 0.92374 0.98344 0.0
O11 O 0.83531 0.98215 0.03034 0.0
O12 O 0.85859 0.14403 0.02235 0.0
O13 O 0.13764 0.07769 0.01807 0.0
O14 O 0.93082 0.19061 0.98456 0.0
O15 O 0.09517 0.15399 0.98272 0.0
C16 C 0.99299 0.03647 0.09602 0.0
C17 C 0.96336 0.05503 0.90382 0.0
C18 C 0.8258 0.93335 0.00953 0.0
C19 C 0.07529 0.88528 0.98535 0.0
C20 C 0.87686 0.19297 0.00348 0.0
C21 C 0.14437 0.13121 0.00085 0.0
O22 O 0.93821 0.05788 0.08195 0.0
O23 O 0.56332 0.43915 0.58208 0.0
Zn24 Zn 0.59866 0.43956 0.53269 0.0
O25 O 0.52523 0.45678 0.49946 0.0
Zn26 Zn 0.50641 0.37717 0.47131 0.0
Zn27 Zn 0.44343 0.48365 0.52528 0.0
Zn28 Zn 0.55313 0.52857 0.46884 0.0
O29 O 0.51645 0.39579 0.4195 0.0
O30 O 0.56148 0.4976 0.41958 0.0
O31 O 0.64417 0.35193 0.52255 0.0
O32 O 0.57537 0.30628 0.48268 0.0
O33 O 0.41061 0.34145 0.48091 0.0
O34 O 0.36753 0.41751 0.51702 0.0
O35 O 0.40838 0.57285 0.51033 0.0
O36 O 0.6696 0.51289 0.53092 0.0
O37 O 0.48163 0.59986 0.46826 0.0
O38 O 0.64129 0.57177 0.48447 0.0
C39 C 0.50887 0.46307 0.59564 0.0
C40 C 0.54187 0.44545 0.40333 0.0
C41 C 0.36123 0.36389 0.49941 0.0
C42 C 0.62763 0.30347 0.50263 0.0
C43 C 0.42831 0.61206 0.48644 0.0
C44 C 0.6806 0.56108 0.51025 0.0
O45 O 0.4606 0.4858 0.57687 0.0
H46 H 0.94009 0.05451 0.36823 0.0
H47 H 0.12577 0.94418 0.35172 0.0
H48 H 0.03597 0.95731 0.45435 0.0
C49 C 0.98108 0.02372 0.3782 0.0
C50 C 0.98284 0.00899 0.41384 0.0
C51 C 0.03217 0.00013 0.35551 0.0
C52 C 0.08608 0.96224 0.36914 0.0
C53 C 0.08816 0.94585 0.40472 0.0
C54 C 0.03641 0.97028 0.42702 0.0
H55 H 0.90736 0.94016 0.646 0.0
H56 H 0.01168 0.12663 0.63211 0.0
H57 H 0.96267 0.00466 0.54299 0.0
C58 C 0.9283 0.9776 0.62877 0.0
C59 C 0.92923 0.96576 0.59263 0.0
C60 C 0.95617 0.0361 0.64326 0.0
C61 C 0.98841 0.08206 0.62115 0.0
C62 C 0.99246 0.07006 0.58505 0.0
C63 C 0.96161 0.01252 0.57092 0.0
H64 H 0.37849 0.54893 0.85414 0.0
H65 H 0.57397 0.45408 0.86685 0.0
H66 H 0.47091 0.53784 0.95575 0.0
C67 C 0.42088 0.53479 0.87071 0.0
C68 C 0.41849 0.54999 0.90651 0.0
C69 C 0.47743 0.50192 0.85587 0.0
C70 C 0.53011 0.47995 0.87781 0.0
C71 C 0.52673 0.4911 0.91393 0.0
C72 C 0.47131 0.52669 0.92811 0.0
H73 H 0.49256 0.37222 0.13218 0.0
H74 H 0.61331 0.55046 0.14322 0.0
H75 H 0.55661 0.47931 0.0412 0.0
C76 C 0.52162 0.41254 0.12051 0.0
C77 C 0.52117 0.42022 0.08416 0.0
C78 C 0.55505 0.45925 0.14201 0.0
C79 C 0.5888 0.51365 0.12661 0.0
C80 C 0.5895 0.52199 0.09025 0.0
C81 C 0.55615 0.47428 0.06924 0.0
H82 H 0.18287 0.24367 0.96546 0.0
H83 H 0.43316 0.45514 0.03222 0.0
H84 H 0.25422 0.10617 0.04309 0.0
H85 H 0.5099 0.2844 0.08691 0.0
H86 H 0.3498 0.38446 0.00287 0.0
H87 H 0.28446 0.31233 0.97563 0.0
C88 C 0.21997 0.22796 0.98469 0.0
C89 C 0.20915 0.16979 0.00398 0.0
C90 C 0.38556 0.36145 0.0205 0.0
C91 C 0.3251 0.24948 0.01676 0.0
C92 C 0.43348 0.40222 0.03738 0.0
C93 C 0.47806 0.37565 0.06229 0.0
C94 C 0.38203 0.29341 0.0287 0.0
C95 C 0.47565 0.30701 0.06828 0.0
C96 C 0.27803 0.26765 0.99077 0.0
C97 C 0.25973 0.15111 0.02795 0.0
N98 N 0.42785 0.26844 0.05193 0.0
N99 N 0.31496 0.19122 0.03392 0.0
H100 H 0.07775 0.81808 0.92355 0.0
H101 H 0.35611 0.54814 0.97161 0.0
H102 H 0.1688 0.81966 0.02608 0.0
H103 H 0.35464 0.653 0.87365 0.0
H104 H 0.26705 0.62418 0.99339 0.0
H105 H 0.15632 0.72953 0.90625 0.0
C106 C 0.11356 0.79919 0.94261 0.0
C107 C 0.11737 0.82684 0.9762 0.0
C108 C 0.2863 0.6296 0.96707 0.0
C109 C 0.20668 0.72529 0.95654 0.0
C110 C 0.33732 0.58669 0.95462 0.0
C111 C 0.36289 0.5934 0.92048 0.0
C112 C 0.25981 0.67825 0.94495 0.0
C113 C 0.33549 0.64398 0.89966 0.0
C114 C 0.15843 0.7489 0.93264 0.0
C115 C 0.16485 0.80022 -0.00021 0.0
N116 N 0.28522 0.68397 0.91214 0.0
N117 N 0.20803 0.75077 0.98948 0.0
H118 H 0.77497 0.90682 0.07404 0.0
H119 H 0.54934 0.59144 0.0318 0.0
H120 H 0.76587 0.83868 0.96719 0.0
H121 H 0.70361 0.59159 0.11295 0.0
H122 H 0.59922 0.69508 0.00967 0.0
H123 H 0.71271 0.80658 0.09176 0.0
C124 C 0.75836 0.8717 0.05418 0.0
C125 C 0.77609 0.88075 0.0191 0.0
C126 C 0.62159 0.67196 0.03234 0.0
C127 C 0.70492 0.76665 0.03932 0.0
C128 C 0.59383 0.61247 0.04489 0.0
C129 C 0.62165 0.58247 0.07472 0.0
C130 C 0.67605 0.70243 0.0503 0.0
C131 C 0.67865 0.61344 0.09068 0.0
C132 C 0.72349 0.81439 0.0644 0.0
C133 C 0.7536 0.83321 0.99454 0.0
N134 N 0.70327 0.67214 0.07857 0.0
N135 N 0.71912 0.77778 0.00513 0.0
H136 H 0.90411 0.31105 0.97119 0.0
H137 H 0.51025 0.41781 0.97288 0.0
H138 H 0.74594 0.20831 0.02941 0.0
H139 H 0.66602 0.50274 0.90626 0.0
H140 H 0.60014 0.35863 0.00462 0.0
H141 H 0.82236 0.39881 0.95837 0.0
C142 C 0.8524 0.30729 0.98166 0.0
C143 C 0.83142 0.25142 0.00074 0.0
C144 C 0.61477 0.39101 0.98341 0.0
C145 C 0.73729 0.35165 0.98585 0.0
C146 C 0.56358 0.42501 0.96549 0.0
C147 C 0.58092 0.46417 0.93667 0.0
C148 C 0.68358 0.39643 0.97232 0.0
C149 C 0.65057 0.47185 0.92792 0.0
C150 C 0.8057 0.35752 0.97433 0.0
C151 C 0.76409 0.24998 0.01416 0.0
N152 N 0.6993 0.43764 0.94542 0.0
N153 N 0.71901 0.29884 0.00596 0.0
H154 H 0.74423 0.65131 0.46732 0.0
H155 H 0.81459 0.89985 0.61657 0.0
H156 H 0.7344 0.58725 0.57428 0.0
H157 H 0.96851 0.89075 0.53506 0.0
H158 H 0.76718 0.79473 0.59576 0.0
H159 H 0.81382 0.74796 0.4859 0.0
C160 C 0.75777 0.65688 0.49454 0.0
C161 C 0.7332 0.61152 0.51937 0.0
C162 C 0.81155 0.81587 0.58262 0.0
C163 C 0.81033 0.72192 0.54052 0.0
C164 C 0.83908 0.87576 0.59453 0.0
C165 C 0.89694 0.90405 0.57815 0.0
C166 C 0.84035 0.78472 0.5534 0.0
C167 C 0.92381 0.87136 0.54854 0.0
C168 C 0.79736 0.71177 0.50501 0.0
C169 C 0.75223 0.62093 0.55428 0.0
N170 N 0.89493 0.81344 0.53691 0.0
N171 N 0.78837 0.67597 0.56395 0.0
H172 H 0.60247 0.18517 0.46927 0.0
H173 H -0.00373 0.07836 0.4751 0.0
H174 H 0.75689 0.28837 0.53025 0.0
H175 H 0.84459 -0.00267 0.40452 0.0
H176 H 0.90424 0.13615 0.50692 0.0
H177 H 0.68499 0.09729 0.45709 0.0
C178 C 0.6535 0.18902 0.48046 0.0
C179 C 0.67327 0.24503 0.50013 0.0
C180 C 0.89102 0.10486 0.48481 0.0
C181 C 0.76836 0.14472 0.48597 0.0
C182 C 0.94339 0.07172 0.46683 0.0
C183 C 0.92778 0.03435 0.43686 0.0
C184 C 0.82293 0.1002 0.47259 0.0
C185 C 0.85869 0.02699 0.4271 0.0
C186 C 0.70065 0.13872 0.47352 0.0
C187 C 0.73974 0.24657 0.51451 0.0
N188 N 0.80892 0.0603 0.44465 0.0
N189 N 0.78537 0.19769 0.50663 0.0
H190 H 0.23963 0.40415 0.52831 0.0
H191 H 0.08515 0.03686 0.53413 0.0
H192 H 0.33518 0.23533 0.47804 0.0
H193 H 0.99326 0.20643 0.5853 0.0
H194 H 0.16524 0.11159 0.50437 0.0
H195 H 0.1387 0.33575 0.54059 0.0
C196 C 0.23918 0.35279 0.51954 0.0
C197 C 0.29655 0.32513 0.50265 0.0
C198 C 0.12702 0.13257 0.52177 0.0
C199 C 0.18094 0.24622 0.51689 0.0
C200 C 0.081 0.08996 0.53863 0.0
C201 C 0.0333 0.11545 0.56271 0.0
C202 C 0.12554 0.20107 0.52923 0.0
C203 C 0.03032 0.1846 0.56756 0.0
C204 C 0.18136 0.31373 0.52653 0.0
C205 C 0.29243 0.25857 0.49143 0.0
N206 N 0.07641 0.22491 0.55132 0.0
N207 N 0.23599 0.22108 0.4992 0.0
H208 H 0.33382 0.67716 0.52741 0.0
H209 H 0.14795 0.84031 0.3707 0.0
H210 H 0.42438 0.67701 0.42461 0.0
H211 H 0.15128 0.94591 0.46929 0.0
H212 H 0.2374 0.76744 0.39194 0.0
H213 H 0.25475 0.76514 0.50891 0.0
C214 C 0.33748 0.69603 0.50113 0.0
C215 C 0.3854 0.66962 0.47743 0.0
C216 C 0.21875 0.80696 0.40876 0.0
C217 C 0.29494 0.76838 0.45622 0.0
C218 C 0.16793 0.84912 0.39662 0.0
C219 C 0.14238 0.90054 0.41793 0.0
C220 C 0.2431 0.81463 0.44282 0.0
C221 C 0.16872 0.9068 0.45195 0.0
C222 C 0.2927 0.74619 0.49072 0.0
C223 C 0.38829 0.69596 0.44373 0.0
N224 N 0.21736 0.86389 0.4635 0.0
N225 N 0.34283 0.74313 0.43395 0.0
H226 H 0.89009 0.05452 0.14398 0.0
H227 H 0.13714 0.02741 0.30929 0.0
H228 H 0.10847 0.01823 0.13564 0.0
H229 H 0.91654 8e-05 0.31457 0.0
H230 H 0.12826 0.03982 0.2462 0.0
H231 H 0.89984 0.051 0.20736 0.0
C232 C 0.94017 0.04613 0.15545 0.0
C233 C -0.00147 0.03636 0.13443 0.0
C234 C 0.08186 0.03132 0.26126 0.0
C235 C 0.00997 0.03258 0.20696 0.0
C236 C 0.08685 0.02394 0.29727 0.0
C237 C 0.02754 0.01229 0.31741 0.0
C238 C 0.01705 0.02766 0.24523 0.0
C239 C 0.96362 0.00984 0.30032 0.0
C240 C 0.9456 0.04392 0.19163 0.0
C241 C 0.06204 0.02557 0.1508 0.0
N242 N 0.96011 0.01737 0.26527 0.0
N243 N 0.06609 0.02407 0.18611 0.0
H244 H 0.03723 0.13641 0.86031 0.0
H245 H 0.84966 0.00687 0.68768 0.0
H246 H 0.87899 0.9845 0.85999 0.0
H247 H 0.05471 0.09148 0.68653 0.0
H248 H 0.84832 0.01676 0.75101 0.0
H249 H 0.0326 0.13866 0.79652 0.0
C250 C 0.00113 0.10396 0.84687 0.0
C251 C 0.95865 0.05992 0.86548 0.0
C252 C 0.89347 0.03337 0.73684 0.0
C253 C 0.95286 0.06274 0.79275 0.0
C254 C 0.8945 0.02749 0.70068 0.0
C255 C 0.95283 0.04745 0.68161 0.0
C256 C 0.95078 0.06022 0.75424 0.0
C257 C 0.00846 0.07573 0.69998 0.0
C258 C -0.00122 0.10512 0.81052 0.0
C259 C 0.91303 0.01886 0.8467 0.0
N260 N 0.00615 0.08108 0.7353 0.0
N261 N 0.91126 0.02136 0.81139 0.0
H262 H 0.41927 0.53806 0.63404 0.0
H263 H 0.52986 0.3957 0.81842 0.0
H264 H 0.5832 0.39554 0.64456 0.0
H265 H 0.43657 0.58847 0.80524 0.0
H266 H 0.53778 0.3844 0.755 0.0
H267 H 0.41102 0.5455 0.69738 0.0
C268 C 0.45331 0.50804 0.64966 0.0
C269 C 0.50217 0.46624 0.63397 0.0
C270 C 0.51553 0.42902 0.76616 0.0
C271 C 0.49268 0.47439 0.70649 0.0
C272 C 0.51124 0.43573 0.80234 0.0
C273 C 0.48214 0.49303 0.8174 0.0
C274 C 0.48976 0.47952 0.74489 0.0
C275 C 0.45793 0.5427 0.79503 0.0
C276 C 0.44876 0.51258 0.6858 0.0
C277 C 0.54507 0.42868 0.65558 0.0
N278 N 0.46199 0.53462 0.75999 0.0
N279 N 0.53917 0.43344 0.6908 0.0
H280 H 0.57001 0.55027 0.36094 0.0
H281 H 0.56359 0.34644 0.1822 0.0
H282 H 0.5227 0.34 0.35776 0.0
H283 H 0.53759 0.55929 0.19005 0.0
H284 H 0.56011 0.34012 0.24598 0.0
H285 H 0.57276 0.55134 0.29773 0.0
C286 C 0.56048 0.50409 0.34698 0.0
C287 C 0.54593 0.44491 0.36481 0.0
C288 C 0.55518 0.38806 0.23359 0.0
C289 C 0.54896 0.44602 0.29199 0.0
C290 C 0.55691 0.39176 0.19723 0.0
C291 C 0.55174 0.45363 0.18062 0.0
C292 C 0.54883 0.44668 0.25341 0.0
C293 C 0.54368 0.51069 0.20153 0.0
C294 C 0.56172 0.50489 0.31079 0.0
C295 C 0.53386 0.38678 0.3451 0.0
N296 N 0.54289 0.50583 0.23672 0.0
N297 N 0.53581 0.38872 0.30965 0.0
loop_
_geom_bond_atom_site_label_1
_geom_bond_atom_site_label_2
_geom_bond_distance
_geom_bond_site_symmetry_2
_ccdc_geom_bond_type
O0 Zn1 1.953 . S
O0 C16 1.225 1_565 S
Zn1 O0 1.953 . S
Zn1 O2 1.943 1_564 S
Zn1 O8 1.919 . S
Zn1 O13 1.924 1_565 S
O2 Zn1 1.943 1_546 S
O2 Zn3 1.928 1_445 S
O2 Zn4 1.945 1_456 S
O2 Zn5 1.950 . S
Zn3 O2 1.928 1_665 S
Zn3 O6 1.933 . S
Zn3 O9 1.941 1_655 S
Zn3 O10 1.965 . S
Zn4 O2 1.945 1_654 S
Zn4 O11 1.938 1_545 S
Zn4 O12 1.906 . S
Zn4 O22 1.953 . S
Zn5 O2 1.950 . S
Zn5 O7 1.932 . S
Zn5 O14 1.977 1_455 S
Zn5 O15 1.910 . S
O6 Zn3 1.933 . S
O6 C17 1.226 1_665 S
O7 Zn5 1.932 . S
O7 C17 1.307 . S
O8 Zn1 1.919 . S
O8 C19 1.253 1_554 S
O9 Zn3 1.941 1_455 S
O9 C19 1.283 . S
O10 Zn3 1.965 . S
O10 C18 1.303 1_556 S
O11 Zn4 1.938 1_565 S
O11 C18 1.247 . S
O12 Zn4 1.906 . S
O12 C20 1.304 1_554 S
O13 Zn1 1.924 1_545 S
O13 C21 1.311 . S
O14 Zn5 1.977 1_655 S
O14 C20 1.272 . S
O15 Zn5 1.910 . S
O15 C21 1.231 1_556 S
C16 O0 1.225 1_545 S
C16 O22 1.298 1_455 S
C17 O6 1.226 1_445 S
C17 O7 1.307 . S
C18 O10 1.303 1_554 S
C18 O11 1.247 . S
C19 O8 1.253 1_556 S
C19 O9 1.283 . S
C20 O12 1.304 1_556 S
C20 O14 1.272 . S
C21 O13 1.311 . S
C21 O15 1.231 1_554 S
O22 Zn4 1.953 . S
O22 C16 1.298 1_655 S
O23 Zn24 1.953 . S
O23 C39 1.225 . S
Zn24 O23 1.953 . S
Zn24 O25 1.949 . S
Zn24 O31 1.919 . S
Zn24 O36 1.924 . S
O25 Zn24 1.949 . S
O25 Zn26 1.923 . S
O25 Zn27 1.950 . S
O25 Zn28 1.945 . S
Zn26 O25 1.923 . S
Zn26 O29 1.933 . S
Zn26 O32 1.941 . S
Zn26 O33 1.965 . S
Zn27 O25 1.950 . S
Zn27 O34 1.938 . S
Zn27 O35 1.906 . S
Zn27 O45 1.953 . S
Zn28 O25 1.945 . S
Zn28 O30 1.932 . S
Zn28 O37 1.977 . S
Zn28 O38 1.910 . S
O29 Zn26 1.933 . S
O29 C40 1.226 . S
O30 Zn28 1.932 . S
O30 C40 1.307 . S
O31 Zn24 1.919 . S
O31 C42 1.253 . S
O32 Zn26 1.941 . S
O32 C42 1.283 . S
O33 Zn26 1.965 . S
O33 C41 1.303 . S
O34 Zn27 1.938 . S
O34 C41 1.247 . S
O35 Zn27 1.906 . S
O35 C43 1.304 . S
O36 Zn24 1.924 . S
O36 C44 1.311 . S
O37 Zn28 1.977 . S
O37 C43 1.272 . S
O38 Zn28 1.910 . S
O38 C44 1.231 . S
C39 O23 1.225 . S
C39 O45 1.298 . S
C40 O29 1.226 . S
C40 O30 1.307 . S
C41 O33 1.303 . S
C41 O34 1.247 . S
C42 O31 1.253 . S
C42 O32 1.283 . S
C43 O35 1.304 . S
C43 O37 1.272 . S
C44 O36 1.311 . S
C44 O38 1.231 . S
O45 Zn27 1.953 . S
O45 C39 1.298 . S
H46 C49 0.931 . S
H47 C52 0.928 . S
H48 C54 0.930 1_545 S
C49 H46 0.931 . S
C49 C50 1.413 . S
C49 C51 1.357 1_545 S
C50 C49 1.413 . S
C50 C54 1.422 1_645 S
C51 C49 1.357 1_565 S
C51 C52 1.376 1_655 S
C52 H47 0.928 . S
C52 C51 1.376 1_455 S
C52 C53 1.404 . S
C53 C52 1.404 . S
C53 C54 1.398 . S
C54 H48 0.930 1_565 S
C54 C50 1.422 1_465 S
C54 C53 1.398 . S
H55 C58 0.931 . S
H56 C61 0.928 . S
H57 C63 0.930 . S
C58 H55 0.931 . S
C58 C59 1.413 . S
C58 C60 1.360 1_665 S
C59 C58 1.413 . S
C59 C63 1.429 1_665 S
C60 C58 1.360 1_445 S
C60 C61 1.372 . S
C61 H56 0.928 . S
C61 C60 1.372 . S
C61 C62 1.404 . S
C62 C61 1.404 . S
C62 C63 1.391 . S
C63 H57 0.930 . S
C63 C59 1.429 1_445 S
C63 C62 1.391 . S
H64 C67 0.931 . S
H65 C70 0.928 . S
H66 C72 0.930 . S
C67 H64 0.931 . S
C67 C68 1.413 . S
C67 C69 1.360 . S
C68 C67 1.413 . S
C68 C72 1.429 . S
C69 C67 1.360 . S
C69 C70 1.372 . S
C70 H65 0.928 . S
C70 C69 1.372 . S
C70 C71 1.404 . S
C71 C70 1.404 . S
C71 C72 1.391 . S
C72 H66 0.930 . S
C72 C68 1.429 . S
C72 C71 1.391 . S
H73 C76 0.931 . S
H74 C79 0.928 . S
H75 C81 0.930 . S
C76 H73 0.931 . S
C76 C77 1.413 . S
C76 C78 1.360 . S
C77 C76 1.413 . S
C77 C81 1.429 . S
C78 C76 1.360 . S
C78 C79 1.372 . S
C79 H74 0.928 . S
C79 C78 1.372 . S
C79 C80 1.404 . S
C80 C79 1.404 . S
C80 C81 1.391 . S
C81 H75 0.930 . S
C81 C77 1.429 . S
C81 C80 1.391 . S
H82 C88 0.897 1_556 S
H83 C92 0.930 . S
H84 C97 0.929 . S
H85 C95 0.929 . S
H86 C90 0.929 . S
H87 C96 0.929 1_556 S
C88 H82 0.897 1_554 S
C88 C89 1.390 . S
C88 C96 1.389 . S
C89 C88 1.390 . S
C89 C97 1.433 . S
C90 H86 0.929 . S
C90 C92 1.378 . S
C90 C94 1.350 . S
C91 C94 1.463 . S
C91 C96 1.350 . S
C91 N99 1.427 . S
C92 H83 0.930 . S
C92 C90 1.378 . S
C92 C93 1.367 . S
C93 C92 1.367 . S
C93 C95 1.433 . S
C94 C90 1.350 . S
C94 C91 1.463 . S
C94 N98 1.427 . S
C95 H85 0.929 . S
C95 C93 1.433 . S
C95 N98 1.384 . S
C96 H87 0.929 1_554 S
C96 C88 1.389 . S
C96 C91 1.350 . S
C97 H84 0.929 . S
C97 C89 1.433 . S
C97 N99 1.384 . S
N98 C94 1.427 . S
N98 C95 1.384 . S
N99 C91 1.427 . S
N99 C97 1.384 . S
H100 C106 0.930 . S
H101 C110 0.930 . S
H102 C115 0.929 1_554 S
H103 C113 0.929 . S
H104 C108 0.929 . S
H105 C114 0.929 . S
C106 H100 0.930 . S
C106 C107 1.367 . S
C106 C114 1.378 . S
C107 C106 1.367 . S
C107 C115 1.433 . S
C108 H104 0.929 . S
C108 C110 1.378 . S
C108 C112 1.350 . S
C109 C112 1.463 . S
C109 C114 1.350 . S
C109 N117 1.427 . S
C110 H101 0.930 . S
C110 C108 1.378 . S
C110 C111 1.367 . S
C111 C110 1.367 . S
C111 C113 1.433 . S
C112 C108 1.350 . S
C112 C109 1.463 . S
C112 N116 1.427 . S
C113 H103 0.929 . S
C113 C111 1.433 . S
C113 N116 1.384 . S
C114 H105 0.929 . S
C114 C106 1.378 . S
C114 C109 1.350 . S
C115 H102 0.929 1_556 S
C115 C107 1.433 . S
C115 N117 1.384 . S
N116 C112 1.427 . S
N116 C113 1.384 . S
N117 C109 1.427 . S
N117 C115 1.384 . S
H118 C124 0.930 . S
H119 C128 0.930 . S
H120 C133 0.930 1_556 S
H121 C131 0.929 . S
H122 C126 0.929 . S
H123 C132 0.929 . S
C124 H118 0.930 . S
C124 C125 1.367 . S
C124 C132 1.378 . S
C125 C124 1.367 . S
C125 C133 1.433 . S
C126 H122 0.929 . S
C126 C128 1.378 . S
C126 C130 1.350 . S
C127 C130 1.463 . S
C127 C132 1.350 . S
C127 N135 1.427 . S
C128 H119 0.930 . S
C128 C126 1.378 . S
C128 C129 1.367 . S
C129 C128 1.367 . S
C129 C131 1.433 . S
C130 C126 1.350 . S
C130 C127 1.463 . S
C130 N134 1.427 . S
C131 H121 0.929 . S
C131 C129 1.433 . S
C131 N134 1.384 . S
C132 H123 0.929 . S
C132 C124 1.378 . S
C132 C127 1.350 . S
C133 H120 0.930 1_554 S
C133 C125 1.433 . S
C133 N135 1.383 . S
N134 C130 1.427 . S
N134 C131 1.384 . S
N135 C127 1.427 . S
N135 C133 1.383 . S
H136 C142 0.930 1_554 S
H137 C146 0.930 . S
H138 C151 0.929 . S
H139 C149 0.929 . S
H140 C144 0.929 . S
H141 C150 0.929 . S
C142 H136 0.930 1_556 S
C142 C143 1.367 . S
C142 C150 1.378 . S
C143 C142 1.367 . S
C143 C151 1.433 . S
C144 H140 0.929 . S
C144 C146 1.378 . S
C144 C148 1.350 . S
C145 C148 1.463 . S
C145 C150 1.350 . S
C145 N153 1.427 . S
C146 H137 0.930 . S
C146 C144 1.378 . S
C146 C147 1.367 . S
C147 C146 1.367 . S
C147 C149 1.433 . S
C148 C144 1.350 . S
C148 C145 1.463 . S
C148 N152 1.427 . S
C149 H139 0.929 . S
C149 C147 1.433 . S
C149 N152 1.384 . S
C150 H141 0.929 . S
C150 C142 1.378 . S
C150 C145 1.350 . S
C151 H138 0.929 . S
C151 C143 1.433 . S
C151 N153 1.384 . S
N152 C148 1.427 . S
N152 C149 1.384 . S
N153 C145 1.427 . S
N153 C151 1.384 . S
H154 C160 0.930 . S
H155 C164 0.930 . S
H156 C169 0.929 . S
H157 C167 0.929 . S
H158 C162 0.929 . S
H159 C168 0.929 . S
C160 H154 0.930 . S
C160 C161 1.367 . S
C160 C168 1.378 . S
C161 C160 1.367 . S
C161 C169 1.433 . S
C162 H158 0.929 . S
C162 C164 1.378 . S
C162 C166 1.350 . S
C163 C166 1.463 . S
C163 C168 1.350 . S
C163 N171 1.427 . S
C164 H155 0.930 . S
C164 C162 1.378 . S
C164 C165 1.367 . S
C165 C164 1.367 . S
C165 C167 1.433 . S
C166 C162 1.350 . S
C166 C163 1.463 . S
C166 N170 1.427 . S
C167 H157 0.929 . S
C167 C165 1.433 . S
C167 N170 1.384 . S
C168 H159 0.929 . S
C168 C160 1.378 . S
C168 C163 1.350 . S
C169 H156 0.929 . S
C169 C161 1.433 . S
C169 N171 1.384 . S
N170 C166 1.427 . S
N170 C167 1.384 . S
N171 C163 1.427 . S
N171 C169 1.384 . S
H172 C178 0.930 . S
H173 C182 0.930 . S
H174 C187 0.929 . S
H175 C185 0.929 . S
H176 C180 0.929 . S
H177 C186 0.929 . S
C178 H172 0.930 . S
C178 C179 1.367 . S
C178 C186 1.378 . S
C179 C178 1.367 . S
C179 C187 1.433 . S
C180 H176 0.929 . S
C180 C182 1.378 . S
C180 C184 1.350 . S
C181 C184 1.463 . S
C181 C186 1.350 . S
C181 N189 1.427 . S
C182 H173 0.930 . S
C182 C180 1.378 . S
C182 C183 1.367 . S
C183 C182 1.367 . S
C183 C185 1.433 . S
C184 C180 1.350 . S
C184 C181 1.463 . S
C184 N188 1.427 . S
C185 H175 0.929 . S
C185 C183 1.433 . S
C185 N188 1.384 . S
C186 H177 0.929 . S
C186 C178 1.378 . S
C186 C181 1.350 . S
C187 H174 0.929 . S
C187 C179 1.433 . S
C187 N189 1.384 . S
N188 C184 1.427 . S
N188 C185 1.384 . S
N189 C181 1.427 . S
N189 C187 1.384 . S
H190 C196 0.930 . S
H191 C200 0.930 . S
H192 C205 0.929 . S
H193 C203 0.929 . S
H194 C198 0.929 . S
H195 C204 0.929 . S
C196 H190 0.930 . S
C196 C197 1.367 . S
C196 C204 1.378 . S
C197 C196 1.367 . S
C197 C205 1.433 . S
C198 H194 0.929 . S
C198 C200 1.378 . S
C198 C202 1.350 . S
C199 C202 1.463 . S
C199 C204 1.350 . S
C199 N207 1.427 . S
C200 H191 0.930 . S
C200 C198 1.378 . S
C200 C201 1.367 . S
C201 C200 1.367 . S
C201 C203 1.433 . S
C202 C198 1.350 . S
C202 C199 1.463 . S
C202 N206 1.427 . S
C203 H193 0.929 . S
C203 C201 1.433 . S
C203 N206 1.384 . S
C204 H195 0.929 . S
C204 C196 1.378 . S
C204 C199 1.350 . S
C205 H192 0.929 . S
C205 C197 1.433 . S
C205 N207 1.384 . S
N206 C202 1.427 . S
N206 C203 1.384 . S
N207 C199 1.427 . S
N207 C205 1.384 . S
H208 C214 0.930 . S
H209 C218 0.930 . S
H210 C223 0.929 . S
H211 C221 0.929 . S
H212 C216 0.929 . S
H213 C222 0.929 . S
C214 H208 0.930 . S
C214 C215 1.367 . S
C214 C222 1.378 . S
C215 C214 1.367 . S
C215 C223 1.433 . S
C216 H212 0.929 . S
C216 C218 1.378 . S
C216 C220 1.350 . S
C217 C220 1.463 . S
C217 C222 1.350 . S
C217 N225 1.427 . S
C218 H209 0.930 . S
C218 C216 1.378 . S
C218 C219 1.367 . S
C219 C218 1.367 . S
C219 C221 1.433 . S
C220 C216 1.350 . S
C220 C217 1.463 . S
C220 N224 1.427 . S
C221 H211 0.929 . S
C221 C219 1.433 . S
C221 N224 1.384 . S
C222 H213 0.929 . S
C222 C214 1.378 . S
C222 C217 1.350 . S
C223 H210 0.929 . S
C223 C215 1.433 . S
C223 N225 1.384 . S
N224 C220 1.427 . S
N224 C221 1.384 . S
N225 C217 1.427 . S
N225 C223 1.384 . S
H226 C232 0.930 . S
H227 C236 0.930 . S
H228 C241 0.929 . S
H229 C239 0.929 . S
H230 C234 0.929 . S
H231 C240 0.929 . S
C232 H226 0.930 . S
C232 C233 1.367 1_655 S
C232 C240 1.378 . S
C233 C232 1.367 1_455 S
C233 C241 1.433 1_545 S
C234 H230 0.929 . S
C234 C236 1.378 . S
C234 C238 1.350 1_565 S
C235 C238 1.463 . S
C235 C240 1.350 1_455 S
C235 N243 1.427 1_545 S
C236 H227 0.930 . S
C236 C234 1.378 . S
C236 C237 1.367 1_565 S
C237 C236 1.367 1_545 S
C237 C239 1.433 1_455 S
C238 C234 1.350 1_545 S
C238 C235 1.463 . S
C238 N242 1.427 1_455 S
C239 H229 0.929 . S
C239 C237 1.433 1_655 S
C239 N242 1.384 . S
C240 H231 0.929 . S
C240 C232 1.378 . S
C240 C235 1.350 1_655 S
C241 H228 0.929 . S
C241 C233 1.433 1_565 S
C241 N243 1.384 . S
N242 C238 1.427 1_655 S
N242 C239 1.384 . S
N243 C235 1.427 1_565 S
N243 C241 1.384 . S
H244 C250 0.930 . S
H245 C254 0.930 . S
H246 C259 0.929 . S
H247 C257 0.929 . S
H248 C252 0.929 . S
H249 C258 0.929 . S
C250 H244 0.930 . S
C250 C251 1.367 . S
C250 C258 1.378 . S
C251 C250 1.367 . S
C251 C259 1.433 1_445 S
C252 H248 0.929 . S
C252 C254 1.378 . S
C252 C256 1.350 1_665 S
C253 C256 1.463 . S
C253 C258 1.350 . S
C253 N261 1.427 1_445 S
C254 H245 0.930 . S
C254 C252 1.378 . S
C254 C255 1.367 1_665 S
C255 C254 1.367 1_445 S
C255 C257 1.433 . S
C256 C252 1.350 1_445 S
C256 C253 1.463 . S
C256 N260 1.427 . S
C257 H247 0.929 . S
C257 C255 1.433 . S
C257 N260 1.384 . S
C258 H249 0.929 . S
C258 C250 1.378 . S
C258 C253 1.350 . S
C259 H246 0.929 . S
C259 C251 1.433 1_665 S
C259 N261 1.384 . S
N260 C256 1.427 . S
N260 C257 1.384 . S
N261 C253 1.427 1_665 S
N261 C259 1.384 . S
H262 C268 0.930 . S
H263 C272 0.930 . S
H264 C277 0.929 . S
H265 C275 0.929 . S
H266 C270 0.929 . S
H267 C276 0.929 . S
C268 H262 0.930 . S
C268 C269 1.367 . S
C268 C276 1.378 . S
C269 C268 1.367 . S
C269 C277 1.433 . S
C270 H266 0.929 . S
C270 C272 1.378 . S
C270 C274 1.350 . S
C271 C274 1.463 . S
C271 C276 1.350 . S
C271 N279 1.427 . S
C272 H263 0.930 . S
C272 C270 1.378 . S
C272 C273 1.367 . S
C273 C272 1.367 . S
C273 C275 1.433 . S
C274 C270 1.350 . S
C274 C271 1.463 . S
C274 N278 1.427 . S
C275 H265 0.929 . S
C275 C273 1.433 . S
C275 N278 1.384 . S
C276 H267 0.929 . S
C276 C268 1.378 . S
C276 C271 1.350 . S
C277 H264 0.929 . S
C277 C269 1.433 . S
C277 N279 1.384 . S
N278 C274 1.427 . S
N278 C275 1.384 . S
N279 C271 1.427 . S
N279 C277 1.384 . S
H280 C286 0.930 . S
H281 C290 0.930 . S
H282 C295 0.929 . S
H283 C293 0.929 . S
H284 C288 0.929 . S
H285 C294 0.929 . S
C286 H280 0.930 . S
C286 C287 1.367 . S
C286 C294 1.378 . S
C287 C286 1.367 . S
C287 C295 1.433 . S
C288 H284 0.929 . S
C288 C290 1.378 . S
C288 C292 1.350 . S
C289 C292 1.463 . S
C289 C294 1.350 . S
C289 N297 1.427 . S
C290 H281 0.930 . S
C290 C288 1.378 . S
C290 C291 1.367 . S
C291 C290 1.367 . S
C291 C293 1.433 . S
C292 C288 1.350 . S
C292 C289 1.463 . S
C292 N296 1.427 . S
C293 H283 0.929 . S
C293 C291 1.433 . S
C293 N296 1.384 . S
C294 H285 0.929 . S
C294 C286 1.378 . S
C294 C289 1.350 . S
C295 H282 0.929 . S
C295 C287 1.433 . S
C295 N297 1.384 . S
N296 C292 1.427 . S
N296 C293 1.384 . S
N297 C289 1.427 . S
N297 C295 1.384 . S
C93 C77 1.419 . S
C89 C21 1.421 . S
C107 C19 1.421 . S
C111 C68 1.422 . S
C125 C18 1.391 . S
C129 C80 1.399 . S
C143 C20 1.407 . S
C147 C71 1.406 . S
C161 C44 1.420 . S
C165 C59 1.420 . S
C179 C42 1.416 . S
C183 C50 1.421 . S
C201 C62 1.399 . S
C197 C41 1.388 . S
C219 C53 1.405 . S
C215 C43 1.407 . S
C233 C16 1.496 . S
C237 C51 1.495 1_445 S
C251 C17 1.466 . S
C255 C60 1.466 . S
C273 C69 1.495 . S
C269 C39 1.496 . S
C287 C40 1.465 . S
C291 C78 1.466 . S
