# Generated by pormake.
# Topology anh, (6,3)-cn, num edge types: 1
# Building blocks:
#     Node 0, Type 0, BuildingBlock: BETFAJ_clean_sbu_0, # of connection points: 6
#     Node 1, Type 0, BuildingBlock: BETFAJ_clean_sbu_0, # of connection points: 6
#     Node 2, Type 0, BuildingBlock: BETFAJ_clean_sbu_0, # of connection points: 6
#     Node 3, Type 1, BuildingBlock: BETDAH_clean_linker_0, # of connection points: 3
#     Node 4, Type 1, BuildingBlock: BETDAH_clean_linker_0, # of connection points: 3
#     Node 5, Type 1, BuildingBlock: BETDAH_clean_linker_0, # of connection points: 3
#     Node 6, Type 1, BuildingBlock: BETDAH_clean_linker_0, # of connection points: 3
#     Node 7, Type 1, BuildingBlock: BETDAH_clean_linker_0, # of connection points: 3
#     Node 8, Type 1, BuildingBlock: BETDAH_clean_linker_0, # of connection points: 3
#     Edge 9, Type (0, 1), BuildingBlock: UVAHIK_clean_linker_0, # of connection points: 2
#     Edge 10, Type (0, 1), BuildingBlock: UVAHIK_clean_linker_0, # of connection points: 2
#     Edge 11, Type (0, 1), BuildingBlock: UVAHIK_clean_linker_0, # of connection points: 2
#     Edge 12, Type (0, 1), BuildingBlock: UVAHIK_clean_linker_0, # of connection points: 2
#     Edge 13, Type (0, 1), BuildingBlock: UVAHIK_clean_linker_0, # of connection points: 2
#     Edge 14, Type (0, 1), BuildingBlock: UVAHIK_clean_linker_0, # of connection points: 2
#     Edge 15, Type (0, 1), BuildingBlock: UVAHIK_clean_linker_0, # of connection points: 2
#     Edge 16, Type (0, 1), BuildingBlock: UVAHIK_clean_linker_0, # of connection points: 2
#     Edge 17, Type (0, 1), BuildingBlock: UVAHIK_clean_linker_0, # of connection points: 2
#     Edge 18, Type (0, 1), BuildingBlock: UVAHIK_clean_linker_0, # of connection points: 2
#     Edge 19, Type (0, 1), BuildingBlock: UVAHIK_clean_linker_0, # of connection points: 2
#     Edge 20, Type (0, 1), BuildingBlock: UVAHIK_clean_linker_0, # of connection points: 2
#     Edge 21, Type (0, 1), BuildingBlock: UVAHIK_clean_linker_0, # of connection points: 2
#     Edge 22, Type (0, 1), BuildingBlock: UVAHIK_clean_linker_0, # of connection points: 2
#     Edge 23, Type (0, 1), BuildingBlock: UVAHIK_clean_linker_0, # of connection points: 2
#     Edge 24, Type (0, 1), BuildingBlock: UVAHIK_clean_linker_0, # of connection points: 2
#     Edge 25, Type (0, 1), BuildingBlock: UVAHIK_clean_linker_0, # of connection points: 2
#     Edge 26, Type (0, 1), BuildingBlock: UVAHIK_clean_linker_0, # of connection points: 2
# Relax obj value: 0.120
# Max RMSD: 0.167
# Mean RMSD: 0.106
data_MOF--net-anh--node1-BETFAJ_clean_sbu_0--node2-BETDAH_clean_linker_0--edge1-UVAHIK_clean_linker_0
_symmetry_space_group_name_H-M    P1
_symmetry_Int_Tables_number       1
_symmetry_cell_setting            triclinic
loop_
_symmetry_equiv_pos_as_xyz
'x, y, z'
_cell_length_a     41.377926
_cell_length_b     47.402604
_cell_length_c     63.809933
_cell_angle_alpha  94.50846
_cell_angle_beta   91.534402
_cell_angle_gamma 128.04933
loop_
_atom_site_label
_atom_site_type_symbol
_atom_site_fract_x
_atom_site_fract_y
_atom_site_fract_z
_atom_type_partial_charge
Sm0 Sm 0.11314 0.54576 0.15099 0.0
Sm1 Sm 0.06553 0.57452 0.17072 0.0
C2 C 0.15641 0.53106 0.13023 0.0
C3 C 0.16497 0.50531 0.13043 0.0
C4 C 0.20267 0.51543 0.12428 0.0
C5 C 0.21276 0.49241 0.12564 0.0
C6 C 0.18521 0.45882 0.13315 0.0
C7 C 0.14705 0.44845 0.13898 0.0
C8 C 0.13709 0.47166 0.13776 0.0
C9 C 0.10736 0.54613 0.19374 0.0
C10 C 0.16054 0.63348 0.16055 0.0
C11 C 1.03133 0.59231 0.19731 0.0
C12 C 0.99127 0.58485 0.19903 0.0
C13 C 0.96731 0.56566 0.21524 0.0
C14 C 0.92809 0.55617 0.21634 0.0
C15 C 0.91234 0.56608 0.20137 0.0
C16 C 0.93696 0.58643 0.18561 0.0
C17 C 0.97601 0.59566 0.1844 0.0
C18 C 0.05489 0.56456 0.12675 0.0
C19 C 1.0163 0.4864 0.15876 0.0
O20 O 0.17188 0.55503 0.14696 0.0
O21 O 0.11885 0.518 0.12346 0.0
O22 O 0.1134 0.56982 0.18291 0.0
O23 O 0.10759 0.52235 0.1823 0.0
O24 O 0.15681 0.60736 0.14843 0.0
O25 O 0.13202 0.62678 0.17297 0.0
O26 O 1.03156 0.56501 0.19896 0.0
O27 O 0.05404 0.61242 0.18284 0.0
O28 O 0.07405 0.55893 0.13893 0.0
O29 O 0.0391 0.57644 0.1382 0.0
O30 O 1.01866 0.5125 0.16999 0.0
O31 O 0.0465 0.49277 0.14775 0.0
H32 H 0.22457 0.54137 0.11867 0.0
H33 H 0.24214 0.50089 0.12078 0.0
H34 H 0.12539 0.42283 0.14496 0.0
H35 H 0.10797 0.46361 0.14281 0.0
H36 H 0.97859 0.55733 0.22683 0.0
H37 H 0.90987 0.54071 0.22874 0.0
H38 H 0.92539 0.59404 0.1737 0.0
H39 H 0.99374 0.61051 0.17173 0.0
Sm40 Sm 0.6419 0.06785 0.48562 0.0
Sm41 Sm 0.58924 0.08866 0.47337 0.0
C42 C 0.67354 0.04009 0.50354 0.0
C43 C 0.66025 0.00491 0.509 0.0
C44 C 0.67532 0.00328 0.52842 0.0
C45 C 0.66465 0.97057 0.53363 0.0
C46 C 0.63882 0.93876 0.51945 0.0
C47 C 0.62298 0.94038 0.50016 0.0
C48 C 0.63347 0.9731 0.49502 0.0
C49 C 0.63866 0.07499 0.44348 0.0
C50 C 0.54192 0.00442 0.47275 0.0
C51 C 0.55619 0.11751 0.4589 0.0
C52 C 0.56072 0.1503 0.46552 0.0
C53 C 0.54869 0.16405 0.45132 0.0
C54 C 0.55231 0.19489 0.45771 0.0
C55 C 0.56793 0.21249 0.47848 0.0
C56 C 0.58031 0.19866 0.49258 0.0
C57 C 0.57691 0.16799 0.48613 0.0
C58 C 0.59508 0.08329 0.51575 0.0
C59 C 0.691 0.15229 0.48262 0.0
O60 O 0.6597 0.05466 0.5143 0.0
O61 O 0.67432 0.0442 0.48348 0.0
O62 O 0.60808 0.05993 0.45428 0.0
O63 O 0.67173 0.08508 0.45453 0.0
O64 O 0.57476 0.01466 0.48485 0.0
O65 O 0.54249 0.02797 0.46268 0.0
O66 O 0.58828 0.12249 0.45144 0.0
O67 O 0.53881 0.0929 0.47183 0.0
O68 O 0.62454 0.09806 0.50434 0.0
O69 O 0.56128 0.07207 0.50514 0.0
O70 O 0.65556 0.14235 0.47383 0.0
O71 O 0.69349 0.12904 0.49103 0.0
H72 H 0.69571 0.02744 0.53951 0.0
H73 H 0.67675 0.97027 0.5488 0.0
H74 H 0.60333 0.91657 0.48876 0.0
H75 H 0.62114 0.9736 0.47998 0.0
H76 H 0.53641 0.15087 0.4353 0.0
H77 H 0.54311 0.20507 0.44632 0.0
H78 H 0.59192 0.21109 0.50876 0.0
H79 H 0.58653 0.15783 0.49732 0.0
Sm80 Sm 0.57983 0.57873 0.84856 0.0
Sm81 Sm 0.5218 0.49897 0.84708 0.0
C82 C 0.62061 0.64659 0.84072 0.0
C83 C 0.613 0.6716 0.83493 0.0
C84 C 0.57431 0.66344 0.8362 0.0
C85 C 0.56755 0.68724 0.82996 0.0
C86 C 0.59937 0.71953 0.82226 0.0
C87 C 0.63811 0.72751 0.82115 0.0
C88 C 0.6448 0.70375 0.82741 0.0
C89 C 0.56776 0.55414 0.88724 0.0
C90 C 0.47706 0.53752 0.84943 0.0
C91 C 0.48469 0.43089 0.85285 0.0
C92 C 0.49316 0.4054 0.84741 0.0
C93 C 0.47665 0.37557 0.85852 0.0
C94 C 0.48455 0.35121 0.85335 0.0
C95 C 0.50906 0.3562 0.8369 0.0
C96 C 0.52586 0.38647 0.82596 0.0
C97 C 0.51814 0.41089 0.83123 0.0
C98 C 0.53346 0.5227 0.80809 0.0
C99 C 0.6254 0.54068 0.84877 0.0
O100 O 0.60868 0.62 0.82626 0.0
O101 O 0.61298 0.63677 0.8597 0.0
O102 O 0.54006 0.54256 0.87253 0.0
O103 O 0.60388 0.58061 0.88217 0.0
O104 O 0.51401 0.56629 0.84493 0.0
O105 O 0.47293 0.50834 0.85349 0.0
O106 O 0.51088 0.45807 0.86719 0.0
O107 O 0.47422 0.4404 0.83694 0.0
O108 O 0.56158 0.53491 0.82274 0.0
O109 O 0.49785 0.49615 0.81345 0.0
O110 O 0.5871 0.51054 0.84989 0.0
O111 O 0.63102 0.57117 0.84692 0.0
H112 H 0.54934 0.63862 0.84187 0.0
H113 H 0.53724 0.68007 0.83083 0.0
H114 H 0.66347 0.75234 0.81563 0.0
H115 H 0.67487 0.71045 0.82631 0.0
H116 H 0.45765 0.37112 0.8712 0.0
H117 H 0.47171 0.32863 0.86239 0.0
H118 H 0.54441 0.39103 0.81305 0.0
H119 H 0.53144 0.43395 0.82255 0.0
H120 H 0.5294 0.99388 0.222 0.0
H121 H 0.63494 0.09837 0.20884 0.0
H122 H 0.5453 0.01953 0.15809 0.0
C123 C 0.54703 0.01279 0.21073 0.0
C124 C 0.53259 0.00245 0.18924 0.0
C125 C 0.58389 0.04715 0.21792 0.0
C126 C 0.60654 0.07183 0.20333 0.0
C127 C 0.59281 0.06181 0.18163 0.0
C128 C 0.556 0.02708 0.17475 0.0
N129 N 0.6149 0.08569 0.16624 0.0
C130 C 0.65215 0.12059 0.17025 0.0
H131 H 0.58196 0.50477 0.58941 0.0
H132 H 0.56726 0.58515 0.57932 0.0
H133 H 0.56589 0.52262 0.5262 0.0
C134 C 0.57848 0.51961 0.57872 0.0
C135 C 0.57464 0.51056 0.55682 0.0
C136 C 0.57544 0.54622 0.58696 0.0
C137 C 0.56963 0.56465 0.57303 0.0
C138 C 0.5665 0.55625 0.55105 0.0
C139 C 0.56856 0.52904 0.54315 0.0
N140 N 0.56053 0.57399 0.53633 0.0
C141 C 0.56452 0.60513 0.54138 0.0
H142 H 0.97805 0.54103 0.90197 0.0
H143 H 0.08016 0.54036 0.89297 0.0
H144 H 1.0137 0.53985 0.83914 0.0
C145 C 0.99766 0.54066 0.8912 0.0
C146 C 0.99081 0.54084 0.86951 0.0
C147 C 1.02936 0.54046 0.8996 0.0
C148 C 0.0559 0.54044 0.88624 0.0
C149 C 0.05102 0.53986 0.86433 0.0
C150 C 1.01783 0.53987 0.85597 0.0
N151 N 0.0787 0.53943 0.8507 0.0
C152 C 0.11316 0.53973 0.85576 0.0
H153 H 0.16776 0.64052 0.4127 0.0
H154 H 0.07037 0.5349 0.42865 0.0
H155 H 0.15819 0.62 0.47755 0.0
C156 C 0.15167 0.62241 0.42454 0.0
C157 C 0.16695 0.635 0.44587 0.0
C158 C 0.11698 0.58647 0.41816 0.0
C159 C 0.09722 0.5626 0.43348 0.0
C160 C 0.11202 0.57468 0.45499 0.0
C161 C 0.14697 0.61076 0.46099 0.0
N162 N 0.0927 0.55155 0.47103 0.0
C163 C 0.05728 0.51555 0.4678 0.0
H164 H 0.58289 0.11273 0.73647 0.0
H165 H 0.56726 0.01544 0.74315 0.0
H166 H 0.54413 0.06403 0.7941 0.0
C167 C 0.57592 0.09204 0.74607 0.0
C168 C 0.56362 0.09199 0.76637 0.0
C169 C 0.57691 0.06435 0.73753 0.0
C170 C 0.56666 0.03687 0.74974 0.0
C171 C 0.55526 0.03704 0.77031 0.0
C172 C 0.55332 0.06429 0.77832 0.0
N173 N 0.54466 0.01004 0.78335 0.0
C174 C 0.55168 0.98501 0.77956 0.0
H175 H 0.5464 0.42764 0.09035 0.0
H176 H 0.42629 0.33192 0.0652 0.0
H177 H 0.47372 0.3403 0.12801 0.0
C178 C 0.51827 0.40119 0.09231 0.0
C179 C 0.5141 0.38648 0.11125 0.0
C180 C 0.48702 0.38167 0.07555 0.0
C181 C 0.45113 0.34698 0.07782 0.0
C182 C 0.44645 0.3322 0.09675 0.0
C183 C 0.47797 0.35177 0.11333 0.0
N184 N 0.40849 0.29914 0.09987 0.0
C185 C 0.37772 0.29984 0.10715 0.0
C186 C 0.16896 0.3981 0.12756 0.0
C187 C 0.19676 0.43505 0.13505 0.0
C188 C 0.18121 0.37644 0.128 0.0
C189 C 0.26125 0.37283 0.15155 0.0
H190 H 0.24274 0.31769 0.09813 0.0
C191 C 0.36692 0.33872 0.12756 0.0
C192 C 0.35036 0.30657 0.11467 0.0
C193 C 0.34181 0.34787 0.13313 0.0
C194 C 0.24744 0.33221 0.11333 0.0
H195 H 0.25831 0.47789 0.14987 0.0
H196 H 0.27979 0.44029 0.1505 0.0
H197 H 0.20954 0.34562 0.10254 0.0
H198 H 0.2951 0.25801 0.09782 0.0
H199 H 0.25053 0.27365 0.10779 0.0
H200 H 0.30011 0.3603 0.16215 0.0
C201 C 0.24854 0.42795 0.14433 0.0
C202 C 0.22842 0.34827 0.11584 0.0
C203 C 0.23642 0.4496 0.14374 0.0
C204 C 0.30822 0.28294 0.10788 0.0
C205 C 0.28293 0.29203 0.11348 0.0
C206 C 0.28012 0.35663 0.14908 0.0
C207 C 0.22132 0.39129 0.13615 0.0
C208 C 0.23612 0.36965 0.13475 0.0
C209 C 0.29964 0.32495 0.12586 0.0
C210 C 0.27445 0.33707 0.12972 0.0
H211 H 0.13822 0.38621 0.12073 0.0
H212 H 0.15953 0.34821 0.1217 0.0
H213 H 0.26719 0.38867 0.16643 0.0
H214 H 0.3996 0.35739 0.13273 0.0
H215 H 0.3559 0.37369 0.14235 0.0
C216 C 0.72641 0.21535 0.47362 0.0
C217 C 0.72888 0.19014 0.48211 0.0
C218 C 0.76205 0.25039 0.47196 0.0
C219 C 0.87281 0.31771 0.49212 0.0
H220 H 0.87973 0.36171 0.44196 0.0
C221 C 1.02421 0.45327 0.47523 0.0
C222 C 1.02095 0.47821 0.46723 0.0
C223 C 0.98887 0.41785 0.47646 0.0
C224 C 0.8782 0.35003 0.45618 0.0
H225 H 0.77118 0.18249 0.49575 0.0
H226 H 0.83333 0.24348 0.49272 0.0
H227 H 0.81792 0.30104 0.44571 0.0
H228 H 0.97881 0.48619 0.4541 0.0
H229 H 0.91678 0.42428 0.45624 0.0
H230 H 0.93309 0.36671 0.50258 0.0
C231 C 0.80371 0.23626 0.48754 0.0
C232 C 0.84265 0.31515 0.45835 0.0
C233 C 0.768 0.20116 0.48921 0.0
C234 C 0.98198 0.4672 0.46015 0.0
C235 C 0.94654 0.43173 0.46135 0.0
C236 C 0.90837 0.35257 0.48993 0.0
C237 C 0.80128 0.2613 0.47872 0.0
C238 C 0.83938 0.29849 0.47638 0.0
C239 C 0.94945 0.40664 0.46975 0.0
C240 C 0.91159 0.36927 0.47194 0.0
H241 H 0.69687 0.208 0.46806 0.0
H242 H 0.75877 0.26901 0.46545 0.0
H243 H 0.87127 0.30609 0.50636 0.0
H244 H 0.05407 0.46132 0.48086 0.0
H245 H 0.99247 0.39925 0.48271 0.0
C246 C 0.56973 0.75246 0.82715 0.0
C247 C 0.59244 0.74492 0.81546 0.0
C248 C 0.56446 0.77725 0.82111 0.0
C249 C 0.61055 0.85454 0.79013 0.0
H250 H 0.50727 0.83811 0.79585 0.0
C251 C 0.59488 0.96743 0.78816 0.0
C252 C 0.55797 0.95822 0.77894 0.0
C253 C 0.59916 0.94069 0.79025 0.0
C254 C 0.53619 0.84297 0.79389 0.0
H255 H 0.62623 0.75673 0.7878 0.0
H256 H 0.617 0.79986 0.77727 0.0
H257 H 0.51344 0.79214 0.80395 0.0
H258 H 0.49686 0.91463 0.76422 0.0
H259 H 0.50435 0.86769 0.76747 0.0
H260 H 0.6332 0.90527 0.77991 0.0
C261 C 0.60391 0.78713 0.79135 0.0
C262 C 0.53989 0.81678 0.79882 0.0
C263 C 0.6092 0.76238 0.79739 0.0
C264 C 0.52572 0.9222 0.77127 0.0
C265 C 0.52993 0.89539 0.77333 0.0
C266 C 0.60686 0.88075 0.78521 0.0
C267 C 0.5817 0.79508 0.80321 0.0
C268 C 0.57722 0.82235 0.79718 0.0
C269 C 0.56645 0.90421 0.78321 0.0
C270 C 0.56973 0.87544 0.78719 0.0
H271 H 0.55686 0.73988 0.84129 0.0
H272 H 0.54769 0.78308 0.8308 0.0
H273 H 0.63989 0.85991 0.78885 0.0
H274 H 0.61992 0.99512 0.79441 0.0
H275 H 0.6275 0.94845 0.79817 0.0
C276 C 0.83716 0.51634 0.20263 0.0
C277 C 0.86923 0.55287 0.20103 0.0
C278 C 0.79609 0.50247 0.19923 0.0
C279 C 0.73501 0.52063 0.16954 0.0
H280 H 0.64413 0.43749 0.19368 0.0
C281 C 0.56948 0.44459 0.13346 0.0
C282 C 0.54813 0.40731 0.12848 0.0
C283 C 0.60508 0.46522 0.14753 0.0
C284 C 0.66922 0.46079 0.18686 0.0
H285 H 0.88364 0.60413 0.19626 0.0
H286 H 0.8118 0.58007 0.19066 0.0
H287 H 0.7146 0.46997 0.2097 0.0
H288 H 0.54587 0.36208 0.1353 0.0
H289 H 0.60819 0.39813 0.1598 0.0
H290 H 0.69003 0.5109 0.14634 0.0
C291 C 0.81836 0.56192 0.19402 0.0
C292 C 0.70955 0.47935 0.196 0.0
C293 C 0.85946 0.57574 0.19725 0.0
C294 C 0.56157 0.39071 0.1389 0.0
C295 C 0.59722 0.41137 0.15298 0.0
C296 C 0.69479 0.50224 0.16051 0.0
C297 C 0.78619 0.52488 0.19428 0.0
C298 C 0.74302 0.50885 0.18705 0.0
C299 C 0.62006 0.44901 0.15692 0.0
C300 C 0.66157 0.47153 0.1687 0.0
H301 H 0.84377 0.49801 0.20531 0.0
H302 H 0.77223 0.47374 0.19926 0.0
H303 H 0.75996 0.54281 0.16197 0.0
H304 H 0.55929 0.45798 0.12601 0.0
H305 H 0.62164 0.49407 0.15054 0.0
C306 C 0.46822 0.95492 0.45847 0.0
C307 C 0.50385 0.96618 0.47078 0.0
C308 C 0.43194 0.91925 0.45718 0.0
C309 C 0.3919 0.82647 0.46571 0.0
H310 H 0.28707 0.80882 0.46509 0.0
C311 C 0.23674 0.68248 0.466 0.0
C312 C 0.20406 0.67338 0.4519 0.0
C313 C 0.27305 0.71828 0.47 0.0
C314 C 0.31603 0.8132 0.46508 0.0
H315 H 0.52914 0.94834 0.49127 0.0
H316 H 0.46584 0.8863 0.48914 0.0
H317 H 0.35089 0.87059 0.46826 0.0
H318 H 0.18335 0.69515 0.4317 0.0
H319 H 0.24639 0.75717 0.43849 0.0
H320 H 0.3569 0.76898 0.4624 0.0
C321 C 0.46603 0.90498 0.4803 0.0
C322 C 0.35272 0.8487 0.46686 0.0
C323 C 0.50235 0.94069 0.4816 0.0
C324 C 0.20806 0.70112 0.44248 0.0
C325 C 0.24415 0.73682 0.44654 0.0
C326 C 0.35516 0.79092 0.46395 0.0
C327 C 0.43021 0.8938 0.46817 0.0
C328 C 0.39118 0.85587 0.46699 0.0
C329 C 0.27739 0.74588 0.46014 0.0
C330 C 0.31668 0.78378 0.46339 0.0
H331 H 0.4682 0.97371 0.44986 0.0
H332 H 0.40527 0.91156 0.44739 0.0
H333 H 0.42085 0.83084 0.46552 0.0
H334 H 0.23476 0.66175 0.47343 0.0
H335 H 0.29781 0.72432 0.48075 0.0
C336 C 0.48527 0.29254 0.83129 0.0
C337 C 0.51661 0.32975 0.83096 0.0
C338 C 0.49201 0.26766 0.82525 0.0
C339 C 0.55602 0.25576 0.79312 0.0
H340 H 0.5188 0.17672 0.82576 0.0
C341 C 0.59113 0.15662 0.77258 0.0
C342 C 0.5601 0.12007 0.77477 0.0
C343 C 0.58735 0.18289 0.78018 0.0
C344 C 0.52895 0.19834 0.81629 0.0
H345 H 0.58012 0.36982 0.82445 0.0
H346 H 0.59147 0.3263 0.81353 0.0
H347 H 0.50906 0.221 0.83756 0.0
H348 H 0.50048 0.08237 0.78634 0.0
H349 H 0.49344 0.12792 0.79922 0.0
H350 H 0.57508 0.23282 0.77158 0.0
C351 C 0.56157 0.31645 0.81833 0.0
C352 C 0.52345 0.22378 0.82312 0.0
C353 C 0.55497 0.34138 0.82453 0.0
C354 C 0.52523 0.11038 0.78472 0.0
C355 C 0.52127 0.13657 0.79215 0.0
C356 C 0.56121 0.23015 0.78619 0.0
C357 C 0.53013 0.27931 0.81857 0.0
C358 C 0.53682 0.25272 0.81158 0.0
C359 C 0.55225 0.1732 0.78998 0.0
C360 C 0.54763 0.20101 0.79764 0.0
H361 H 0.45512 0.28246 0.83577 0.0
H362 H 0.46699 0.23918 0.82535 0.0
H363 H 0.56618 0.2775 0.78374 0.0
H364 H 0.61858 0.16496 0.76519 0.0
H365 H 0.61218 0.21084 0.77853 0.0
C366 C 0.66036 0.90467 0.53473 0.0
C367 C 0.62962 0.90439 0.52447 0.0
C368 C 0.65238 0.87249 0.53887 0.0
C369 C 0.56762 0.77543 0.54231 0.0
H370 H 0.65302 0.76604 0.53315 0.0
C371 C 0.53821 0.63855 0.53526 0.0
C372 C 0.56936 0.63808 0.54383 0.0
C373 C 0.54464 0.6712 0.53526 0.0
C374 C 0.62904 0.76836 0.53611 0.0
H375 H 0.56591 0.86972 0.51097 0.0
H376 H 0.55237 0.81351 0.51762 0.0
H377 H 0.66586 0.82243 0.5283 0.0
H378 H 0.63106 0.67041 0.55956 0.0
H379 H 0.64242 0.72769 0.55985 0.0
H380 H 0.53056 0.72095 0.54973 0.0
C381 C 0.58256 0.83875 0.52274 0.0
C382 C 0.6364 0.80076 0.53331 0.0
C383 C 0.5905 0.871 0.51866 0.0
C384 C 0.60661 0.67035 0.55294 0.0
C385 C 0.61315 0.70304 0.55293 0.0
C386 C 0.56021 0.74293 0.54505 0.0
C387 C 0.61351 0.83907 0.53275 0.0
C388 C 0.60576 0.80471 0.53629 0.0
C389 C 0.5825 0.70394 0.54374 0.0
C390 C 0.5908 0.73896 0.5419 0.0
H391 H 0.69101 0.92976 0.53922 0.0
H392 H 0.67681 0.87386 0.54687 0.0
H393 H 0.54353 0.77767 0.54504 0.0
H394 H 0.50937 0.61383 0.52796 0.0
H395 H 0.52059 0.67092 0.52784 0.0
C396 C 0.65865 0.5085 0.85126 0.0
C397 C 0.66284 0.5403 0.84959 0.0
C398 C 0.69329 0.50845 0.85214 0.0
C399 C 0.81334 0.5722 0.85967 0.0
H400 H 0.79974 0.48474 0.84367 0.0
C401 C 0.95351 0.56862 0.87442 0.0
C402 C 0.95601 0.54324 0.8629 0.0
C403 C 0.91892 0.56823 0.87173 0.0
C404 C 0.80487 0.5098 0.84814 0.0
H405 H 0.70953 0.59727 0.84745 0.0
H406 H 0.76854 0.59728 0.84873 0.0
H407 H 0.74017 0.48399 0.84121 0.0
H408 H 0.92094 0.49697 0.83899 0.0
H409 H 0.86132 0.49653 0.83391 0.0
H410 H 0.87794 0.59822 0.86622 0.0
C411 C 0.73846 0.57195 0.84972 0.0
C412 C 0.76981 0.50928 0.84694 0.0
C413 C 0.70387 0.57196 0.84881 0.0
C414 C 0.9216 0.51763 0.84806 0.0
C415 C 0.88655 0.51709 0.8454 0.0
C416 C 0.84826 0.57269 0.86091 0.0
C417 C 0.73454 0.54022 0.85147 0.0
C418 C 0.77275 0.5405 0.85268 0.0
C419 C 0.88385 0.54224 0.85733 0.0
C420 C 0.84539 0.54152 0.85528 0.0
H421 H 0.62825 0.48325 0.85196 0.0
H422 H 0.68739 0.48312 0.85369 0.0
H423 H 0.81857 0.59717 0.8646 0.0
H424 H 0.9784 0.58874 0.88623 0.0
H425 H 0.91948 0.58806 0.88172 0.0
C426 C 0.22937 0.68077 0.14745 0.0
C427 C 0.19818 0.67161 0.16058 0.0
C428 C 0.26495 0.71674 0.1479 0.0
C429 C 0.30611 0.81133 0.16536 0.0
H430 H 0.41292 0.83319 0.1634 0.0
C431 C 0.45835 0.95253 0.19356 0.0
C432 C 0.49299 0.96588 0.18232 0.0
C433 C 0.42197 0.91726 0.18836 0.0
C434 C 0.3833 0.82756 0.16366 0.0
H435 H 0.18034 0.69349 0.18455 0.0
H436 H 0.24212 0.75557 0.18555 0.0
H437 H 0.35053 0.77038 0.15928 0.0
H438 H 0.51623 0.95273 0.1565 0.0
H439 H 0.45242 0.89081 0.14735 0.0
H440 H 0.33892 0.86847 0.17025 0.0
C441 C 0.23895 0.7352 0.17457 0.0
C442 C 0.34744 0.79149 0.16128 0.0
C443 C 0.20347 0.69937 0.1741 0.0
C444 C 0.49001 0.94329 0.16538 0.0
C445 C 0.4536 0.90775 0.16029 0.0
C446 C 0.3419 0.84732 0.16783 0.0
C447 C 0.27024 0.74448 0.16149 0.0
C448 C 0.30835 0.78285 0.16245 0.0
C449 C 0.41923 0.89421 0.17184 0.0
C450 C 0.38102 0.85593 0.16734 0.0
H451 H 0.22638 0.66017 0.1368 0.0
H452 H 0.28814 0.72284 0.13744 0.0
H453 H 0.27659 0.80586 0.16585 0.0
H454 H 0.45952 0.96933 0.20658 0.0
H455 H 0.39633 0.90772 0.19773 0.0
C456 C 0.60395 0.27339 0.49962 0.0
C457 C 0.57069 0.24471 0.48557 0.0
C458 C 0.60575 0.30299 0.50688 0.0
C459 C 0.56657 0.3522 0.49453 0.0
H460 H 0.59364 0.38668 0.55436 0.0
C461 C 0.5466 0.45504 0.53178 0.0
C462 C 0.57575 0.48111 0.54823 0.0
C463 C 0.54709 0.42695 0.52389 0.0
C464 C 0.58664 0.37782 0.53755 0.0
H465 H 0.51321 0.22496 0.4682 0.0
H466 H 0.51683 0.2769 0.48059 0.0
H467 H 0.59302 0.33679 0.54084 0.0
H468 H 0.62872 0.49854 0.56906 0.0
H469 H 0.63015 0.44993 0.55508 0.0
H470 H 0.56059 0.39336 0.49113 0.0
C471 C 0.54162 0.27649 0.48587 0.0
C472 C 0.5862 0.34913 0.52983 0.0
C473 C 0.53963 0.24675 0.47872 0.0
C474 C 0.60557 0.4786 0.55654 0.0
C475 C 0.60628 0.45066 0.54854 0.0
C476 C 0.56733 0.38108 0.50222 0.0
C477 C 0.57453 0.30481 0.50015 0.0
C478 C 0.57595 0.33587 0.50825 0.0
C479 C 0.57694 0.42436 0.53216 0.0
C480 C 0.57714 0.39416 0.52386 0.0
H481 H 0.62883 0.27314 0.50494 0.0
H482 H 0.63182 0.32464 0.51764 0.0
H483 H 0.5591 0.3429 0.47777 0.0
H484 H 0.52284 0.45592 0.52526 0.0
H485 H 0.52353 0.40687 0.51157 0.0
C486 C 0.44252 0.56845 0.84614 0.0
C487 C 0.4398 0.53808 0.85023 0.0
C488 C 0.40819 0.56882 0.84699 0.0
C489 C 0.29687 0.51578 0.86459 0.0
H490 H 0.29368 0.58152 0.83414 0.0
C491 C 0.14745 0.50975 0.86074 0.0
C492 C 0.15034 0.54018 0.85673 0.0
C493 C 0.18199 0.50962 0.86026 0.0
C494 C 0.29356 0.56302 0.8431 0.0
H495 H 0.39596 0.48387 0.85846 0.0
H496 H 0.33723 0.48418 0.85968 0.0
H497 H 0.35208 0.58111 0.8327 0.0
H498 H 0.194 0.59454 0.84886 0.0
H499 H 0.25334 0.59477 0.84833 0.0
H500 H 0.2383 0.49765 0.87495 0.0
C501 C 0.36617 0.50844 0.85606 0.0
C502 C 0.32796 0.56278 0.84225 0.0
C503 C 0.40049 0.5081 0.8552 0.0
C504 C 0.18975 0.57046 0.85222 0.0
C505 C 0.22427 0.57037 0.8517 0.0
C506 C 0.26245 0.516 0.86543 0.0
C507 C 0.36868 0.53882 0.85199 0.0
C508 C 0.33095 0.53914 0.85296 0.0
C509 C 0.22169 0.53989 0.85561 0.0
C510 C 0.25947 0.53964 0.85472 0.0
H511 H 0.47155 0.5924 0.84228 0.0
H512 H 0.4132 0.59331 0.84394 0.0
H513 H 0.29673 0.49727 0.87355 0.0
H514 H 0.11804 0.48552 0.86402 0.0
H515 H 0.17696 0.48507 0.86315 0.0
C516 C 0.97565 0.41913 0.14949 0.0
C517 C 0.97869 0.4484 0.15936 0.0
C518 C 0.9409 0.38345 0.15097 0.0
C519 C 0.8526 0.32878 0.18333 0.0
H520 H 0.80712 0.25528 0.13526 0.0
C521 C 0.69433 0.18634 0.18131 0.0
C522 C 0.69063 0.15693 0.17133 0.0
C523 C 0.7303 0.22172 0.18055 0.0
C524 C 0.81969 0.27532 0.14895 0.0
H525 H 0.9468 0.46269 0.17827 0.0
H526 H 0.8864 0.40091 0.18054 0.0
H527 H 0.86762 0.3169 0.13217 0.0
H528 H 0.72113 0.14085 0.15296 0.0
H529 H 0.78422 0.20246 0.15182 0.0
H530 H 0.80451 0.28723 0.20007 0.0
C531 C 0.91114 0.40539 0.17197 0.0
C532 C 0.85449 0.31077 0.14716 0.0
C533 C 0.94581 0.44098 0.17051 0.0
C534 C 0.72349 0.16323 0.16086 0.0
C535 C 0.75942 0.19853 0.16006 0.0
C536 C 0.81778 0.29335 0.1851 0.0
C537 C 0.90824 0.37607 0.16235 0.0
C538 C 0.87141 0.33807 0.1643 0.0
C539 C 0.76319 0.22835 0.16968 0.0
C540 C 0.80076 0.2661 0.16793 0.0
H541 H 1.00037 0.42369 0.14085 0.0
H542 H 0.94006 0.36165 0.14352 0.0
H543 H 0.8651 0.34883 0.19701 0.0
H544 H 0.66909 0.18203 0.18929 0.0
H545 H 0.73181 0.24391 0.18795 0.0
C546 C 0.06469 0.54199 0.09257 0.0
C547 C 0.05314 0.561 0.10343 0.0
C548 C 0.06345 0.53904 0.07049 0.0
C549 C 0.0673 0.58357 0.02499 0.0
H550 H 1.01511 0.49052 0.99227 0.0
C551 C 1.00086 0.51587 0.9336 0.0
C552 C 1.03475 0.54078 0.92278 0.0
C553 C 1.00505 0.5175 0.95558 0.0
C554 C 1.02985 0.51669 0.00121 0.0
H555 H 1.03123 0.59185 0.0998 0.0
H556 H 1.02969 0.58724 0.06124 0.0
H557 H 1.01834 0.4952 0.03088 0.0
H558 H 0.09969 0.58668 0.92646 0.0
H559 H 0.10695 0.58989 0.96504 0.0
H560 H 0.07876 0.60506 0.99533 0.0
C561 C 0.03967 0.57458 0.06978 0.0
C562 C 1.03191 0.5194 0.02329 0.0
C563 C 0.04033 0.57704 0.09182 0.0
C564 C 0.07312 0.56704 0.93439 0.0
C565 C 0.07718 0.56902 0.95644 0.0
C566 C 0.0658 0.58096 0.00292 0.0
C567 C 0.0512 0.55553 0.05886 0.0
C568 C 0.05028 0.55281 0.03542 0.0
C569 C 0.04311 0.5444 0.96729 0.0
C570 C 0.0467 0.54743 0.99077 0.0
H571 H 0.07442 0.52919 0.10112 0.0
H572 H 0.07267 0.52431 0.06254 0.0
H573 H 0.08194 0.60973 0.03391 0.0
H574 H 0.97096 0.49527 0.92503 0.0
H575 H 0.97819 0.49831 0.96349 0.0
C576 C 0.59923 0.0642 0.40928 0.0
C577 C 0.63646 0.07726 0.4206 0.0
C578 C 0.5973 0.06551 0.38746 0.0
C579 C 0.65013 0.06936 0.34091 0.0
H580 H 0.58507 0.09184 0.31341 0.0
C581 C 0.60854 0.0883 0.25198 0.0
C582 C 0.59806 0.05653 0.2408 0.0
C583 C 0.61734 0.09478 0.27399 0.0
C584 C 0.60377 0.08592 0.32087 0.0
H585 H 0.70108 0.10286 0.41815 0.0
H586 H 0.69778 0.10523 0.38018 0.0
H587 H 0.59179 0.096 0.35194 0.0
H588 H 0.59045 0.00754 0.24366 0.0
H589 H 0.60585 0.01879 0.28188 0.0
H590 H 0.66195 0.05909 0.30992 0.0
C591 C 0.66993 0.09353 0.38804 0.0
C592 C 0.60721 0.08788 0.34292 0.0
C593 C 0.67186 0.0923 0.40981 0.0
C594 C 0.59817 0.03214 0.2519 0.0
C595 C 0.60727 0.03873 0.27378 0.0
C596 C 0.64653 0.06723 0.3189 0.0
C597 C 0.63256 0.07983 0.37655 0.0
C598 C 0.63015 0.07932 0.35319 0.0
C599 C 0.61633 0.06982 0.28515 0.0
C600 C 0.62294 0.07509 0.3086 0.0
H601 H 0.5715 0.05258 0.41723 0.0
H602 H 0.56796 0.05444 0.37906 0.0
H603 H 0.66774 0.06227 0.34827 0.0
H604 H 0.60848 0.10746 0.24381 0.0
H605 H 0.62458 0.11914 0.28229 0.0
C606 C 0.57963 0.5496 0.77901 0.0
C607 C 0.54058 0.53227 0.78634 0.0
C608 C 0.58512 0.55572 0.75781 0.0
C609 C 0.52399 0.52347 0.70531 0.0
H610 H 0.62781 0.60363 0.68733 0.0
C611 C 0.54351 0.55108 0.6184 0.0
C612 C 0.57571 0.55281 0.61009 0.0
C613 C 0.54092 0.55287 0.6402 0.0
C614 C 0.59867 0.58115 0.69218 0.0
H615 H 0.47725 0.50965 0.77777 0.0
H616 H 0.48702 0.52187 0.7412 0.0
H617 H 0.61964 0.5992 0.72501 0.0
H618 H 0.63149 0.55951 0.61801 0.0
H619 H 0.62744 0.56342 0.65626 0.0
H620 H 0.50293 0.50592 0.67244 0.0
C621 C 0.51318 0.52938 0.75138 0.0
C622 C 0.59399 0.57841 0.71377 0.0
C623 C 0.50757 0.52262 0.77241 0.0
C624 C 0.6063 0.558 0.62404 0.0
C625 C 0.60409 0.56042 0.64587 0.0
C626 C 0.52846 0.5266 0.68382 0.0
C627 C 0.55179 0.54524 0.7436 0.0
C628 C 0.55664 0.54934 0.72065 0.0
C629 C 0.57087 0.55704 0.65413 0.0
C630 C 0.5659 0.55527 0.67703 0.0
H631 H 0.6056 0.55726 0.78946 0.0
H632 H 0.6152 0.56759 0.75248 0.0
H633 H 0.49511 0.50017 0.70981 0.0
H634 H 0.51937 0.5468 0.60798 0.0
H635 H 0.51511 0.55036 0.64619 0.0
C636 C 0.63679 0.10111 0.55038 0.0
C637 C 0.59838 0.07972 0.53831 0.0
C638 C 0.63923 0.09845 0.57199 0.0
C639 C 0.58655 0.03869 0.61256 0.0
H640 H 0.63497 0.12556 0.65118 0.0
C641 C 0.55683 0.03361 0.70055 0.0
C642 C 0.58604 0.06332 0.71534 0.0
C643 C 0.56269 0.03464 0.67905 0.0
C644 C 0.62218 0.10108 0.64077 0.0
H645 H 0.5327 0.03798 0.53902 0.0
H646 H 0.53712 0.03267 0.57662 0.0
H647 H 0.63805 0.12906 0.61337 0.0
H648 H 0.64521 0.11656 0.7196 0.0
H649 H 0.65677 0.11779 0.68227 0.0
H650 H 0.57119 0.0106 0.63976 0.0
C651 C 0.5652 0.05172 0.56946 0.0
C652 C 0.6238 0.10317 0.61904 0.0
C653 C 0.56267 0.05493 0.54801 0.0
C654 C 0.62215 0.09339 0.70842 0.0
C655 C 0.62846 0.09416 0.68698 0.0
C656 C 0.58563 0.03665 0.63432 0.0
C657 C 0.60341 0.07375 0.5817 0.0
C658 C 0.60532 0.07192 0.60473 0.0
C659 C 0.5983 0.06521 0.67188 0.0
C660 C 0.60269 0.06772 0.64876 0.0
H661 H 0.66478 0.12037 0.54323 0.0
H662 H 0.66905 0.11567 0.58112 0.0
H663 H 0.57237 0.01423 0.60181 0.0
H664 H 0.52849 0.01029 0.70551 0.0
H665 H 0.53835 0.012 0.66804 0.0
C666 C 0.51911 0.51326 0.91221 0.0
C667 C 0.5598 0.53774 0.90704 0.0
C668 C 0.51097 0.49663 0.93058 0.0
C669 C 0.55129 0.46824 0.96762 0.0
H670 H 0.47882 0.46685 0.00566 0.0
C671 C 0.48678 0.37958 0.03617 0.0
C672 C 0.49215 0.39808 0.05588 0.0
C673 C 0.49442 0.39626 0.0178 0.0
C674 C 0.4991 0.46706 0.99517 0.0
H675 H 0.62388 0.56392 0.91679 0.0
H676 H 0.60952 0.53425 0.94892 0.0
H677 H 0.49467 0.49781 0.97411 0.0
H678 H 0.50838 0.44787 0.07188 0.0
H679 H 0.52094 0.47677 0.03971 0.0
H680 H 0.55542 0.43719 0.98862 0.0
C681 C 0.58405 0.52818 0.93877 0.0
C682 C 0.50801 0.4846 0.97711 0.0
C683 C 0.59226 0.54528 0.92052 0.0
C684 C 0.50422 0.43313 0.05686 0.0
C685 C 0.5112 0.44956 0.03849 0.0
C686 C 0.54187 0.4502 0.98553 0.0
C687 C 0.5433 0.50375 0.94396 0.0
C688 C 0.5343 0.48547 0.96321 0.0
C689 C 0.50682 0.43145 0.01882 0.0
C690 C 0.51582 0.44959 -0.0005 0.0
H691 H 0.4935 0.50688 0.90203 0.0
H692 H 0.47927 0.47768 0.93413 0.0
H693 H 0.57139 0.4683 0.95706 0.0
H694 H 0.47771 0.35261 0.03505 0.0
H695 H 0.49055 0.38166 0.00278 0.0
C696 C 0.10341 0.57328 0.22787 0.0
C697 C 0.10099 0.54542 0.2164 0.0
C698 C 0.09797 0.57274 0.24942 0.0
C699 C 0.10632 0.5358 0.29602 0.0
H700 H 0.04699 0.56669 0.32124 0.0
C701 C 0.0941 0.54219 0.3858 0.0
C702 C 0.10284 0.57426 0.39529 0.0
C703 C 0.08655 0.53355 0.36382 0.0
C704 C 0.06381 0.55813 0.31446 0.0
H705 H 0.09047 0.49494 0.21831 0.0
H706 H 0.08107 0.49399 0.25594 0.0
H707 H 0.04882 0.56211 0.28298 0.0
H708 H 0.10767 0.62108 0.38934 0.0
H709 H 0.09528 0.60644 0.35115 0.0
H710 H 0.12231 0.53275 0.32744 0.0
C711 C 0.08744 0.51639 0.24836 0.0
C712 C 0.06488 0.55555 0.29254 0.0
C713 C 0.09271 0.51687 0.2268 0.0
C714 C 0.10158 0.59642 0.38246 0.0
C715 C 0.09404 0.5878 0.36055 0.0
C716 C 0.10536 0.53848 0.31793 0.0
C717 C 0.09024 0.54442 0.25995 0.0
C718 C 0.08665 0.54485 0.28309 0.0
C719 C 0.08743 0.55672 0.35089 0.0
C720 C 0.08462 0.55021 0.32746 0.0
H721 H 0.10996 0.59571 0.22025 0.0
H722 H 0.10085 0.59498 0.25793 0.0
H723 H 0.12379 0.5279 0.28928 0.0
H724 H 0.09495 0.52463 0.39526 0.0
H725 H 0.08094 0.50911 0.35691 0.0
loop_
_geom_bond_atom_site_label_1
_geom_bond_atom_site_label_2
_geom_bond_distance
_geom_bond_site_symmetry_2
_ccdc_geom_bond_type
Sm0 C2 2.846 . S
Sm0 O20 2.543 . S
Sm0 O21 2.450 . S
Sm0 O22 2.681 . S
Sm0 O23 2.464 . S
Sm0 O24 2.396 . S
Sm0 O28 2.386 . S
Sm0 O31 2.408 1_455 S
Sm1 C11 2.846 1_455 S
Sm1 O22 2.386 . S
Sm1 O25 2.408 . S
Sm1 O26 2.543 1_455 S
Sm1 O27 2.450 1_455 S
Sm1 O28 2.681 . S
Sm1 O29 2.464 . S
Sm1 O30 2.396 1_455 S
C2 Sm0 2.846 . S
C2 C3 1.506 . S
C2 O20 1.261 . S
C2 O21 1.242 . S
C3 C2 1.506 . S
C3 C4 1.358 . S
C3 C8 1.382 . S
C4 C3 1.358 . S
C4 C5 1.385 . S
C4 H32 0.930 . S
C5 C4 1.385 . S
C5 C6 1.395 . S
C5 H33 0.929 . S
C6 C5 1.395 . S
C6 C7 1.335 . S
C7 C6 1.335 . S
C7 C8 1.398 . S
C7 H34 0.930 . S
C8 C3 1.382 . S
C8 C7 1.398 . S
C8 H35 0.929 . S
C9 O22 1.271 . S
C9 O23 1.251 . S
C10 O24 1.252 . S
C10 O25 1.272 . S
C11 Sm1 2.846 1_655 S
C11 C12 1.506 . S
C11 O26 1.261 . S
C11 O27 1.242 . S
C12 C11 1.506 . S
C12 C13 1.358 . S
C12 C17 1.382 . S
C13 C12 1.358 . S
C13 C14 1.385 . S
C13 H36 0.930 . S
C14 C13 1.385 . S
C14 C15 1.395 . S
C14 H37 0.929 . S
C15 C14 1.395 . S
C15 C16 1.335 . S
C16 C15 1.335 . S
C16 C17 1.398 . S
C16 H38 0.930 . S
C17 C12 1.382 . S
C17 C16 1.398 . S
C17 H39 0.929 . S
C18 O28 1.271 . S
C18 O29 1.251 . S
C19 O30 1.252 . S
C19 O31 1.272 . S
O20 Sm0 2.543 . S
O20 C2 1.261 . S
O21 Sm0 2.450 . S
O21 C2 1.242 . S
O22 Sm0 2.681 . S
O22 Sm1 2.386 . S
O22 C9 1.271 . S
O23 Sm0 2.464 . S
O23 C9 1.251 . S
O24 Sm0 2.396 . S
O24 C10 1.252 . S
O25 Sm1 2.408 . S
O25 C10 1.272 . S
O26 Sm1 2.543 1_655 S
O26 C11 1.261 . S
O27 Sm1 2.450 1_655 S
O27 C11 1.242 . S
O28 Sm0 2.386 . S
O28 Sm1 2.681 . S
O28 C18 1.271 . S
O29 Sm1 2.464 . S
O29 C18 1.251 . S
O30 Sm1 2.396 1_655 S
O30 C19 1.252 . S
O31 Sm0 2.408 1_655 S
O31 C19 1.272 . S
H32 C4 0.930 . S
H33 C5 0.929 . S
H34 C7 0.930 . S
H35 C8 0.929 . S
H36 C13 0.930 . S
H37 C14 0.929 . S
H38 C16 0.930 . S
H39 C17 0.929 . S
Sm40 C42 2.846 1_545 S
Sm40 O60 2.543 1_545 S
Sm40 O61 2.450 1_545 S
Sm40 O62 2.681 . S
Sm40 O63 2.464 . S
Sm40 O64 2.396 1_545 S
Sm40 O68 2.386 . S
Sm40 O71 2.408 . S
Sm41 C51 2.846 . S
Sm41 O62 2.386 . S
Sm41 O65 2.408 1_545 S
Sm41 O66 2.543 . S
Sm41 O67 2.450 . S
Sm41 O68 2.681 . S
Sm41 O69 2.464 . S
Sm41 O70 2.396 . S
C42 Sm40 2.846 1_565 S
C42 C43 1.506 . S
C42 O60 1.261 . S
C42 O61 1.242 . S
C43 C42 1.506 . S
C43 C44 1.358 . S
C43 C48 1.382 . S
C44 C43 1.358 . S
C44 C45 1.385 . S
C44 H72 0.930 . S
C45 C44 1.385 . S
C45 C46 1.395 . S
C45 H73 0.929 . S
C46 C45 1.395 . S
C46 C47 1.335 . S
C47 C46 1.335 . S
C47 C48 1.398 . S
C47 H74 0.930 . S
C48 C43 1.382 . S
C48 C47 1.398 . S
C48 H75 0.929 . S
C49 O62 1.271 . S
C49 O63 1.251 . S
C50 O64 1.252 . S
C50 O65 1.272 . S
C51 Sm41 2.846 . S
C51 C52 1.506 . S
C51 O66 1.261 . S
C51 O67 1.242 . S
C52 C51 1.506 . S
C52 C53 1.358 . S
C52 C57 1.382 . S
C53 C52 1.358 . S
C53 C54 1.385 . S
C53 H76 0.930 . S
C54 C53 1.385 . S
C54 C55 1.395 . S
C54 H77 0.929 . S
C55 C54 1.395 . S
C55 C56 1.335 . S
C56 C55 1.335 . S
C56 C57 1.398 . S
C56 H78 0.930 . S
C57 C52 1.382 . S
C57 C56 1.398 . S
C57 H79 0.929 . S
C58 O68 1.271 . S
C58 O69 1.251 . S
C59 O70 1.252 . S
C59 O71 1.272 . S
O60 Sm40 2.543 1_565 S
O60 C42 1.261 . S
O61 Sm40 2.450 1_565 S
O61 C42 1.242 . S
O62 Sm40 2.681 . S
O62 Sm41 2.386 . S
O62 C49 1.271 . S
O63 Sm40 2.464 . S
O63 C49 1.251 . S
O64 Sm40 2.396 1_565 S
O64 C50 1.252 . S
O65 Sm41 2.408 1_565 S
O65 C50 1.272 . S
O66 Sm41 2.543 . S
O66 C51 1.261 . S
O67 Sm41 2.450 . S
O67 C51 1.242 . S
O68 Sm40 2.386 . S
O68 Sm41 2.681 . S
O68 C58 1.271 . S
O69 Sm41 2.464 . S
O69 C58 1.251 . S
O70 Sm41 2.396 . S
O70 C59 1.252 . S
O71 Sm40 2.408 . S
O71 C59 1.272 . S
H72 C44 0.930 . S
H73 C45 0.929 . S
H74 C47 0.930 . S
H75 C48 0.929 . S
H76 C53 0.930 . S
H77 C54 0.929 . S
H78 C56 0.930 . S
H79 C57 0.929 . S
Sm80 C82 2.846 . S
Sm80 O100 2.543 . S
Sm80 O101 2.450 . S
Sm80 O102 2.681 . S
Sm80 O103 2.464 . S
Sm80 O104 2.396 . S
Sm80 O108 2.386 . S
Sm80 O111 2.408 . S
Sm81 C91 2.846 . S
Sm81 O102 2.386 . S
Sm81 O105 2.408 . S
Sm81 O106 2.543 . S
Sm81 O107 2.450 . S
Sm81 O108 2.681 . S
Sm81 O109 2.464 . S
Sm81 O110 2.396 . S
C82 Sm80 2.846 . S
C82 C83 1.506 . S
C82 O100 1.261 . S
C82 O101 1.242 . S
C83 C82 1.506 . S
C83 C84 1.358 . S
C83 C88 1.382 . S
C84 C83 1.358 . S
C84 C85 1.385 . S
C84 H112 0.930 . S
C85 C84 1.385 . S
C85 C86 1.395 . S
C85 H113 0.929 . S
C86 C85 1.395 . S
C86 C87 1.335 . S
C87 C86 1.335 . S
C87 C88 1.398 . S
C87 H114 0.930 . S
C88 C83 1.382 . S
C88 C87 1.398 . S
C88 H115 0.929 . S
C89 O102 1.271 . S
C89 O103 1.251 . S
C90 O104 1.252 . S
C90 O105 1.272 . S
C91 Sm81 2.846 . S
C91 C92 1.506 . S
C91 O106 1.261 . S
C91 O107 1.242 . S
C92 C91 1.506 . S
C92 C93 1.358 . S
C92 C97 1.382 . S
C93 C92 1.358 . S
C93 C94 1.385 . S
C93 H116 0.930 . S
C94 C93 1.385 . S
C94 C95 1.395 . S
C94 H117 0.929 . S
C95 C94 1.395 . S
C95 C96 1.335 . S
C96 C95 1.335 . S
C96 C97 1.398 . S
C96 H118 0.930 . S
C97 C92 1.382 . S
C97 C96 1.398 . S
C97 H119 0.929 . S
C98 O108 1.271 . S
C98 O109 1.251 . S
C99 O110 1.252 . S
C99 O111 1.272 . S
O100 Sm80 2.543 . S
O100 C82 1.261 . S
O101 Sm80 2.450 . S
O101 C82 1.242 . S
O102 Sm80 2.681 . S
O102 Sm81 2.386 . S
O102 C89 1.271 . S
O103 Sm80 2.464 . S
O103 C89 1.251 . S
O104 Sm80 2.396 . S
O104 C90 1.252 . S
O105 Sm81 2.408 . S
O105 C90 1.272 . S
O106 Sm81 2.543 . S
O106 C91 1.261 . S
O107 Sm81 2.450 . S
O107 C91 1.242 . S
O108 Sm80 2.386 . S
O108 Sm81 2.681 . S
O108 C98 1.271 . S
O109 Sm81 2.464 . S
O109 C98 1.251 . S
O110 Sm81 2.396 . S
O110 C99 1.252 . S
O111 Sm80 2.408 . S
O111 C99 1.272 . S
H112 C84 0.930 . S
H113 C85 0.929 . S
H114 C87 0.930 . S
H115 C88 0.929 . S
H116 C93 0.930 . S
H117 C94 0.929 . S
H118 C96 0.930 . S
H119 C97 0.929 . S
H120 C123 0.929 1_565 S
H121 C126 0.929 . S
H122 C128 0.930 . S
C123 H120 0.929 1_545 S
C123 C124 1.398 . S
C123 C125 1.396 . S
C124 C123 1.398 . S
C124 C128 1.407 . S
C125 C123 1.396 . S
C125 C126 1.394 . S
C126 H121 0.929 . S
C126 C125 1.394 . S
C126 C127 1.382 . S
C127 C126 1.382 . S
C127 C128 1.392 . S
C127 N129 1.420 . S
C128 H122 0.930 . S
C128 C124 1.407 . S
C128 C127 1.392 . S
N129 C127 1.420 . S
N129 C130 1.244 . S
C130 N129 1.244 . S
H131 C134 0.929 . S
H132 C137 0.929 . S
H133 C139 0.930 . S
C134 H131 0.929 . S
C134 C135 1.398 . S
C134 C136 1.396 . S
C135 C134 1.398 . S
C135 C139 1.407 . S
C136 C134 1.396 . S
C136 C137 1.394 . S
C137 H132 0.929 . S
C137 C136 1.394 . S
C137 C138 1.382 . S
C138 C137 1.382 . S
C138 C139 1.392 . S
C138 N140 1.420 . S
C139 H133 0.930 . S
C139 C135 1.407 . S
C139 C138 1.392 . S
N140 C138 1.420 . S
N140 C141 1.244 . S
C141 N140 1.244 . S
H142 C145 0.929 . S
H143 C148 0.929 . S
H144 C150 0.930 . S
C145 H142 0.929 . S
C145 C146 1.398 . S
C145 C147 1.396 . S
C146 C145 1.398 . S
C146 C150 1.407 . S
C147 C145 1.396 . S
C147 C148 1.394 . S
C148 H143 0.929 . S
C148 C147 1.394 . S
C148 C149 1.382 . S
C149 C148 1.382 . S
C149 C150 1.392 . S
C149 N151 1.420 . S
C150 H144 0.930 . S
C150 C146 1.407 . S
C150 C149 1.392 . S
N151 C149 1.420 . S
N151 C152 1.244 . S
C152 N151 1.244 . S
H153 C156 0.929 . S
H154 C159 0.929 . S
H155 C161 0.930 . S
C156 H153 0.929 . S
C156 C157 1.398 . S
C156 C158 1.396 . S
C157 C156 1.398 . S
C157 C161 1.407 . S
C158 C156 1.396 . S
C158 C159 1.394 1_455 S
C159 H154 0.929 . S
C159 C158 1.394 1_655 S
C159 C160 1.382 . S
C160 C159 1.382 . S
C160 C161 1.392 1_655 S
C160 N162 1.420 . S
C161 H155 0.930 . S
C161 C157 1.407 . S
C161 C160 1.392 1_455 S
N162 C160 1.420 . S
N162 C163 1.244 . S
C163 N162 1.244 . S
H164 C167 0.929 . S
H165 C170 0.908 1_565 S
H166 C172 0.930 . S
C167 H164 0.929 . S
C167 C168 1.398 . S
C167 C169 1.396 . S
C168 C167 1.398 . S
C168 C172 1.407 . S
C169 C167 1.396 . S
C169 C170 1.394 . S
C170 H165 0.908 1_545 S
C170 C169 1.394 . S
C170 C171 1.382 . S
C171 C170 1.382 . S
C171 C172 1.392 . S
C171 N173 1.420 . S
C172 H166 0.930 . S
C172 C168 1.407 . S
C172 C171 1.392 . S
N173 C171 1.420 . S
N173 C174 1.244 1_545 S
C174 N173 1.244 1_565 S
H175 C178 0.929 . S
H176 C181 0.929 . S
H177 C183 0.930 . S
C178 H175 0.929 . S
C178 C179 1.398 . S
C178 C180 1.396 . S
C179 C178 1.398 . S
C179 C183 1.407 . S
C180 C178 1.396 . S
C180 C181 1.394 . S
C181 H176 0.929 . S
C181 C180 1.394 . S
C181 C182 1.382 . S
C182 C181 1.382 . S
C182 C183 1.392 . S
C182 N184 1.420 . S
C183 H177 0.930 . S
C183 C179 1.407 . S
C183 C182 1.392 . S
N184 C182 1.420 . S
N184 C185 1.244 . S
C185 N184 1.244 . S
C186 C187 1.349 . S
C186 C188 1.327 . S
C186 H211 0.950 . S
C187 C186 1.349 . S
C187 C203 1.349 . S
C188 C186 1.327 . S
C188 C207 1.429 . S
C188 H212 0.950 . S
C189 C206 1.574 . S
C189 C208 1.368 . S
C189 H213 0.949 . S
H190 C194 0.949 . S
C191 C192 1.349 . S
C191 C193 1.327 . S
C191 H214 0.950 . S
C192 C191 1.349 . S
C192 C204 1.349 . S
C193 C191 1.327 . S
C193 C209 1.429 . S
C193 H215 0.950 . S
C194 H190 0.949 . S
C194 C202 1.574 . S
C194 C210 1.368 . S
H195 C203 0.950 . S
H196 C201 0.950 . S
H197 C202 0.949 . S
H198 C204 0.950 . S
H199 C205 0.950 . S
H200 C206 0.949 . S
C201 H196 0.950 . S
C201 C203 1.327 . S
C201 C207 1.429 . S
C202 C194 1.574 . S
C202 H197 0.949 . S
C202 C208 1.368 . S
C203 C187 1.349 . S
C203 H195 0.950 . S
C203 C201 1.327 . S
C204 C192 1.349 . S
C204 H198 0.950 . S
C204 C205 1.327 . S
C205 H199 0.950 . S
C205 C204 1.327 . S
C205 C209 1.429 . S
C206 C189 1.574 . S
C206 H200 0.949 . S
C206 C210 1.368 . S
C207 C188 1.429 . S
C207 C201 1.429 . S
C207 C208 1.523 . S
C208 C189 1.368 . S
C208 C202 1.368 . S
C208 C207 1.523 . S
C209 C193 1.429 . S
C209 C205 1.429 . S
C209 C210 1.523 . S
C210 C194 1.368 . S
C210 C206 1.368 . S
C210 C209 1.523 . S
H211 C186 0.950 . S
H212 C188 0.950 . S
H213 C189 0.949 . S
H214 C191 0.950 . S
H215 C193 0.950 . S
C216 C217 1.349 . S
C216 C218 1.327 . S
C216 H241 0.950 . S
C217 C216 1.349 . S
C217 C233 1.349 . S
C218 C216 1.327 . S
C218 C237 1.429 . S
C218 H242 0.950 . S
C219 C236 1.574 . S
C219 C238 1.368 . S
C219 H243 0.949 . S
H220 C224 0.949 . S
C221 C222 1.349 . S
C221 C223 1.327 . S
C221 H244 0.950 . S
C222 C221 1.349 . S
C222 C234 1.349 . S
C223 C221 1.327 . S
C223 C239 1.429 . S
C223 H245 0.950 . S
C224 H220 0.949 . S
C224 C232 1.574 . S
C224 C240 1.368 . S
H225 C233 0.950 . S
H226 C231 0.950 . S
H227 C232 0.949 . S
H228 C234 0.950 . S
H229 C235 0.950 . S
H230 C236 0.949 . S
C231 H226 0.950 . S
C231 C233 1.327 . S
C231 C237 1.429 . S
C232 C224 1.574 . S
C232 H227 0.949 . S
C232 C238 1.368 . S
C233 C217 1.349 . S
C233 H225 0.950 . S
C233 C231 1.327 . S
C234 C222 1.349 . S
C234 H228 0.950 . S
C234 C235 1.327 . S
C235 H229 0.950 . S
C235 C234 1.327 . S
C235 C239 1.429 . S
C236 C219 1.574 . S
C236 H230 0.949 . S
C236 C240 1.368 . S
C237 C218 1.429 . S
C237 C231 1.429 . S
C237 C238 1.523 . S
C238 C219 1.368 . S
C238 C232 1.368 . S
C238 C237 1.523 . S
C239 C223 1.429 . S
C239 C235 1.429 . S
C239 C240 1.523 . S
C240 C224 1.368 . S
C240 C236 1.368 . S
C240 C239 1.523 . S
H241 C216 0.950 . S
H242 C218 0.950 . S
H243 C219 0.949 . S
H244 C221 0.950 . S
H245 C223 0.950 . S
C246 C247 1.349 . S
C246 C248 1.327 . S
C246 H271 0.950 . S
C247 C246 1.349 . S
C247 C263 1.349 . S
C248 C246 1.327 . S
C248 C267 1.429 . S
C248 H272 0.950 . S
C249 C266 1.574 . S
C249 C268 1.368 . S
C249 H273 0.949 . S
H250 C254 0.949 . S
C251 C252 1.349 . S
C251 C253 1.327 . S
C251 H274 0.950 . S
C252 C251 1.349 . S
C252 C264 1.349 . S
C253 C251 1.327 . S
C253 C269 1.429 . S
C253 H275 0.950 . S
C254 H250 0.949 . S
C254 C262 1.574 . S
C254 C270 1.368 . S
H255 C263 0.950 . S
H256 C261 0.950 . S
H257 C262 0.949 . S
H258 C264 0.950 . S
H259 C265 0.950 . S
H260 C266 0.949 . S
C261 H256 0.950 . S
C261 C263 1.327 . S
C261 C267 1.429 . S
C262 C254 1.574 . S
C262 H257 0.949 . S
C262 C268 1.368 . S
C263 C247 1.349 . S
C263 H255 0.950 . S
C263 C261 1.327 . S
C264 C252 1.349 . S
C264 H258 0.950 . S
C264 C265 1.327 . S
C265 H259 0.950 . S
C265 C264 1.327 . S
C265 C269 1.429 . S
C266 C249 1.574 . S
C266 H260 0.949 . S
C266 C270 1.368 . S
C267 C248 1.429 . S
C267 C261 1.429 . S
C267 C268 1.523 . S
C268 C249 1.368 . S
C268 C262 1.368 . S
C268 C267 1.523 . S
C269 C253 1.429 . S
C269 C265 1.429 . S
C269 C270 1.523 . S
C270 C254 1.368 . S
C270 C266 1.368 . S
C270 C269 1.523 . S
H271 C246 0.950 . S
H272 C248 0.950 . S
H273 C249 0.949 . S
H274 C251 0.950 . S
H275 C253 0.950 . S
C276 C277 1.349 . S
C276 C278 1.327 . S
C276 H301 0.950 . S
C277 C276 1.349 . S
C277 C293 1.349 . S
C278 C276 1.327 . S
C278 C297 1.429 . S
C278 H302 0.950 . S
C279 C296 1.574 . S
C279 C298 1.368 . S
C279 H303 0.949 . S
H280 C284 0.949 . S
C281 C282 1.349 . S
C281 C283 1.327 . S
C281 H304 0.950 . S
C282 C281 1.349 . S
C282 C294 1.349 . S
C283 C281 1.327 . S
C283 C299 1.429 . S
C283 H305 0.950 . S
C284 H280 0.949 . S
C284 C292 1.574 . S
C284 C300 1.368 . S
H285 C293 0.950 . S
H286 C291 0.950 . S
H287 C292 0.949 . S
H288 C294 0.950 . S
H289 C295 0.950 . S
H290 C296 0.949 . S
C291 H286 0.950 . S
C291 C293 1.327 . S
C291 C297 1.429 . S
C292 C284 1.574 . S
C292 H287 0.949 . S
C292 C298 1.368 . S
C293 C277 1.349 . S
C293 H285 0.950 . S
C293 C291 1.327 . S
C294 C282 1.349 . S
C294 H288 0.950 . S
C294 C295 1.327 . S
C295 H289 0.950 . S
C295 C294 1.327 . S
C295 C299 1.429 . S
C296 C279 1.574 . S
C296 H290 0.949 . S
C296 C300 1.368 . S
C297 C278 1.429 . S
C297 C291 1.429 . S
C297 C298 1.523 . S
C298 C279 1.368 . S
C298 C292 1.368 . S
C298 C297 1.523 . S
C299 C283 1.429 . S
C299 C295 1.429 . S
C299 C300 1.523 . S
C300 C284 1.368 . S
C300 C296 1.368 . S
C300 C299 1.523 . S
H301 C276 0.950 . S
H302 C278 0.950 . S
H303 C279 0.949 . S
H304 C281 0.950 . S
H305 C283 0.950 . S
C306 C307 1.349 . S
C306 C308 1.327 . S
C306 H331 0.950 . S
C307 C306 1.349 . S
C307 C323 1.349 . S
C308 C306 1.327 . S
C308 C327 1.429 . S
C308 H332 0.950 . S
C309 C326 1.574 . S
C309 C328 1.368 . S
C309 H333 0.949 . S
H310 C314 0.949 . S
C311 C312 1.349 . S
C311 C313 1.327 . S
C311 H334 0.950 . S
C312 C311 1.349 . S
C312 C324 1.349 . S
C313 C311 1.327 . S
C313 C329 1.429 . S
C313 H335 0.950 . S
C314 H310 0.949 . S
C314 C322 1.574 . S
C314 C330 1.368 . S
H315 C323 0.950 . S
H316 C321 0.950 . S
H317 C322 0.949 . S
H318 C324 0.950 . S
H319 C325 0.950 . S
H320 C326 0.949 . S
C321 H316 0.950 . S
C321 C323 1.327 . S
C321 C327 1.429 . S
C322 C314 1.574 . S
C322 H317 0.949 . S
C322 C328 1.368 . S
C323 C307 1.349 . S
C323 H315 0.950 . S
C323 C321 1.327 . S
C324 C312 1.349 . S
C324 H318 0.950 . S
C324 C325 1.327 . S
C325 H319 0.950 . S
C325 C324 1.327 . S
C325 C329 1.429 . S
C326 C309 1.574 . S
C326 H320 0.949 . S
C326 C330 1.368 . S
C327 C308 1.429 . S
C327 C321 1.429 . S
C327 C328 1.523 . S
C328 C309 1.368 . S
C328 C322 1.368 . S
C328 C327 1.523 . S
C329 C313 1.429 . S
C329 C325 1.429 . S
C329 C330 1.523 . S
C330 C314 1.368 . S
C330 C326 1.368 . S
C330 C329 1.523 . S
H331 C306 0.950 . S
H332 C308 0.950 . S
H333 C309 0.949 . S
H334 C311 0.950 . S
H335 C313 0.950 . S
C336 C337 1.349 . S
C336 C338 1.327 . S
C336 H361 0.950 . S
C337 C336 1.349 . S
C337 C353 1.349 . S
C338 C336 1.327 . S
C338 C357 1.429 . S
C338 H362 0.950 . S
C339 C356 1.574 . S
C339 C358 1.368 . S
C339 H363 0.949 . S
H340 C344 0.949 . S
C341 C342 1.349 . S
C341 C343 1.327 . S
C341 H364 0.950 . S
C342 C341 1.349 . S
C342 C354 1.349 . S
C343 C341 1.327 . S
C343 C359 1.429 . S
C343 H365 0.950 . S
C344 H340 0.949 . S
C344 C352 1.574 . S
C344 C360 1.368 . S
H345 C353 0.950 . S
H346 C351 0.950 . S
H347 C352 0.949 . S
H348 C354 0.950 . S
H349 C355 0.950 . S
H350 C356 0.949 . S
C351 H346 0.950 . S
C351 C353 1.327 . S
C351 C357 1.429 . S
C352 C344 1.574 . S
C352 H347 0.949 . S
C352 C358 1.368 . S
C353 C337 1.349 . S
C353 H345 0.950 . S
C353 C351 1.327 . S
C354 C342 1.349 . S
C354 H348 0.950 . S
C354 C355 1.327 . S
C355 H349 0.950 . S
C355 C354 1.327 . S
C355 C359 1.429 . S
C356 C339 1.574 . S
C356 H350 0.949 . S
C356 C360 1.368 . S
C357 C338 1.429 . S
C357 C351 1.429 . S
C357 C358 1.523 . S
C358 C339 1.368 . S
C358 C352 1.368 . S
C358 C357 1.523 . S
C359 C343 1.429 . S
C359 C355 1.429 . S
C359 C360 1.523 . S
C360 C344 1.368 . S
C360 C356 1.368 . S
C360 C359 1.523 . S
H361 C336 0.950 . S
H362 C338 0.950 . S
H363 C339 0.949 . S
H364 C341 0.950 . S
H365 C343 0.950 . S
C366 C367 1.349 . S
C366 C368 1.327 . S
C366 H391 0.950 . S
C367 C366 1.349 . S
C367 C383 1.349 . S
C368 C366 1.327 . S
C368 C387 1.429 . S
C368 H392 0.950 . S
C369 C386 1.574 . S
C369 C388 1.368 . S
C369 H393 0.949 . S
H370 C374 0.949 . S
C371 C372 1.349 . S
C371 C373 1.327 . S
C371 H394 0.950 . S
C372 C371 1.349 . S
C372 C384 1.349 . S
C373 C371 1.327 . S
C373 C389 1.429 . S
C373 H395 0.950 . S
C374 H370 0.949 . S
C374 C382 1.574 . S
C374 C390 1.368 . S
H375 C383 0.950 . S
H376 C381 0.950 . S
H377 C382 0.949 . S
H378 C384 0.950 . S
H379 C385 0.950 . S
H380 C386 0.949 . S
C381 H376 0.950 . S
C381 C383 1.327 . S
C381 C387 1.429 . S
C382 C374 1.574 . S
C382 H377 0.949 . S
C382 C388 1.368 . S
C383 C367 1.349 . S
C383 H375 0.950 . S
C383 C381 1.327 . S
C384 C372 1.349 . S
C384 H378 0.950 . S
C384 C385 1.327 . S
C385 H379 0.950 . S
C385 C384 1.327 . S
C385 C389 1.429 . S
C386 C369 1.574 . S
C386 H380 0.949 . S
C386 C390 1.368 . S
C387 C368 1.429 . S
C387 C381 1.429 . S
C387 C388 1.523 . S
C388 C369 1.368 . S
C388 C382 1.368 . S
C388 C387 1.523 . S
C389 C373 1.429 . S
C389 C385 1.429 . S
C389 C390 1.523 . S
C390 C374 1.368 . S
C390 C386 1.368 . S
C390 C389 1.523 . S
H391 C366 0.950 . S
H392 C368 0.950 . S
H393 C369 0.949 . S
H394 C371 0.950 . S
H395 C373 0.950 . S
C396 C397 1.349 . S
C396 C398 1.327 . S
C396 H421 0.950 . S
C397 C396 1.349 . S
C397 C413 1.349 . S
C398 C396 1.327 . S
C398 C417 1.429 . S
C398 H422 0.950 . S
C399 C416 1.574 . S
C399 C418 1.368 . S
C399 H423 0.949 . S
H400 C404 0.949 . S
C401 C402 1.349 . S
C401 C403 1.327 . S
C401 H424 0.950 . S
C402 C401 1.349 . S
C402 C414 1.349 . S
C403 C401 1.327 . S
C403 C419 1.429 . S
C403 H425 0.950 . S
C404 H400 0.949 . S
C404 C412 1.574 . S
C404 C420 1.368 . S
H405 C413 0.950 . S
H406 C411 0.950 . S
H407 C412 0.949 . S
H408 C414 0.950 . S
H409 C415 0.950 . S
H410 C416 0.949 . S
C411 H406 0.950 . S
C411 C413 1.327 . S
C411 C417 1.429 . S
C412 C404 1.574 . S
C412 H407 0.949 . S
C412 C418 1.368 . S
C413 C397 1.349 . S
C413 H405 0.950 . S
C413 C411 1.327 . S
C414 C402 1.349 . S
C414 H408 0.950 . S
C414 C415 1.327 . S
C415 H409 0.950 . S
C415 C414 1.327 . S
C415 C419 1.429 . S
C416 C399 1.574 . S
C416 H410 0.949 . S
C416 C420 1.368 . S
C417 C398 1.429 . S
C417 C411 1.429 . S
C417 C418 1.523 . S
C418 C399 1.368 . S
C418 C412 1.368 . S
C418 C417 1.523 . S
C419 C403 1.429 . S
C419 C415 1.429 . S
C419 C420 1.523 . S
C420 C404 1.368 . S
C420 C416 1.368 . S
C420 C419 1.523 . S
H421 C396 0.950 . S
H422 C398 0.950 . S
H423 C399 0.949 . S
H424 C401 0.950 . S
H425 C403 0.950 . S
C426 C427 1.349 . S
C426 C428 1.327 . S
C426 H451 0.950 . S
C427 C426 1.349 . S
C427 C443 1.349 . S
C428 C426 1.327 . S
C428 C447 1.429 . S
C428 H452 0.950 . S
C429 C446 1.574 . S
C429 C448 1.368 . S
C429 H453 0.949 . S
H430 C434 0.949 . S
C431 C432 1.349 . S
C431 C433 1.327 . S
C431 H454 0.950 . S
C432 C431 1.349 . S
C432 C444 1.349 . S
C433 C431 1.327 . S
C433 C449 1.429 . S
C433 H455 0.950 . S
C434 H430 0.949 . S
C434 C442 1.574 . S
C434 C450 1.368 . S
H435 C443 0.950 . S
H436 C441 0.950 . S
H437 C442 0.949 . S
H438 C444 0.950 . S
H439 C445 0.950 . S
H440 C446 0.949 . S
C441 H436 0.950 . S
C441 C443 1.327 . S
C441 C447 1.429 . S
C442 C434 1.574 . S
C442 H437 0.949 . S
C442 C448 1.368 . S
C443 C427 1.349 . S
C443 H435 0.950 . S
C443 C441 1.327 . S
C444 C432 1.349 . S
C444 H438 0.950 . S
C444 C445 1.327 . S
C445 H439 0.950 . S
C445 C444 1.327 . S
C445 C449 1.429 . S
C446 C429 1.574 . S
C446 H440 0.949 . S
C446 C450 1.368 . S
C447 C428 1.429 . S
C447 C441 1.429 . S
C447 C448 1.523 . S
C448 C429 1.368 . S
C448 C442 1.368 . S
C448 C447 1.523 . S
C449 C433 1.429 . S
C449 C445 1.429 . S
C449 C450 1.523 . S
C450 C434 1.368 . S
C450 C446 1.368 . S
C450 C449 1.523 . S
H451 C426 0.950 . S
H452 C428 0.950 . S
H453 C429 0.949 . S
H454 C431 0.950 . S
H455 C433 0.950 . S
C456 C457 1.349 . S
C456 C458 1.327 . S
C456 H481 0.950 . S
C457 C456 1.349 . S
C457 C473 1.349 . S
C458 C456 1.327 . S
C458 C477 1.429 . S
C458 H482 0.950 . S
C459 C476 1.574 . S
C459 C478 1.368 . S
C459 H483 0.949 . S
H460 C464 0.949 . S
C461 C462 1.349 . S
C461 C463 1.327 . S
C461 H484 0.950 . S
C462 C461 1.349 . S
C462 C474 1.349 . S
C463 C461 1.327 . S
C463 C479 1.429 . S
C463 H485 0.950 . S
C464 H460 0.949 . S
C464 C472 1.574 . S
C464 C480 1.368 . S
H465 C473 0.950 . S
H466 C471 0.950 . S
H467 C472 0.949 . S
H468 C474 0.950 . S
H469 C475 0.950 . S
H470 C476 0.949 . S
C471 H466 0.950 . S
C471 C473 1.327 . S
C471 C477 1.429 . S
C472 C464 1.574 . S
C472 H467 0.949 . S
C472 C478 1.368 . S
C473 C457 1.349 . S
C473 H465 0.950 . S
C473 C471 1.327 . S
C474 C462 1.349 . S
C474 H468 0.950 . S
C474 C475 1.327 . S
C475 H469 0.950 . S
C475 C474 1.327 . S
C475 C479 1.429 . S
C476 C459 1.574 . S
C476 H470 0.949 . S
C476 C480 1.368 . S
C477 C458 1.429 . S
C477 C471 1.429 . S
C477 C478 1.523 . S
C478 C459 1.368 . S
C478 C472 1.368 . S
C478 C477 1.523 . S
C479 C463 1.429 . S
C479 C475 1.429 . S
C479 C480 1.523 . S
C480 C464 1.368 . S
C480 C476 1.368 . S
C480 C479 1.523 . S
H481 C456 0.950 . S
H482 C458 0.950 . S
H483 C459 0.949 . S
H484 C461 0.950 . S
H485 C463 0.950 . S
C486 C487 1.349 . S
C486 C488 1.327 . S
C486 H511 0.950 . S
C487 C486 1.349 . S
C487 C503 1.349 . S
C488 C486 1.327 . S
C488 C507 1.429 . S
C488 H512 0.950 . S
C489 C506 1.574 . S
C489 C508 1.368 . S
C489 H513 0.949 . S
H490 C494 0.949 . S
C491 C492 1.349 . S
C491 C493 1.327 . S
C491 H514 0.950 . S
C492 C491 1.349 . S
C492 C504 1.349 . S
C493 C491 1.327 . S
C493 C509 1.429 . S
C493 H515 0.950 . S
C494 H490 0.949 . S
C494 C502 1.574 . S
C494 C510 1.368 . S
H495 C503 0.950 . S
H496 C501 0.950 . S
H497 C502 0.949 . S
H498 C504 0.950 . S
H499 C505 0.950 . S
H500 C506 0.949 . S
C501 H496 0.950 . S
C501 C503 1.327 . S
C501 C507 1.429 . S
C502 C494 1.574 . S
C502 H497 0.949 . S
C502 C508 1.368 . S
C503 C487 1.349 . S
C503 H495 0.950 . S
C503 C501 1.327 . S
C504 C492 1.349 . S
C504 H498 0.950 . S
C504 C505 1.327 . S
C505 H499 0.950 . S
C505 C504 1.327 . S
C505 C509 1.429 . S
C506 C489 1.574 . S
C506 H500 0.949 . S
C506 C510 1.368 . S
C507 C488 1.429 . S
C507 C501 1.429 . S
C507 C508 1.523 . S
C508 C489 1.368 . S
C508 C502 1.368 . S
C508 C507 1.523 . S
C509 C493 1.429 . S
C509 C505 1.429 . S
C509 C510 1.523 . S
C510 C494 1.368 . S
C510 C506 1.368 . S
C510 C509 1.523 . S
H511 C486 0.950 . S
H512 C488 0.950 . S
H513 C489 0.949 . S
H514 C491 0.950 . S
H515 C493 0.950 . S
C516 C517 1.349 . S
C516 C518 1.327 . S
C516 H541 0.950 . S
C517 C516 1.349 . S
C517 C533 1.349 . S
C518 C516 1.327 . S
C518 C537 1.429 . S
C518 H542 0.950 . S
C519 C536 1.574 . S
C519 C538 1.368 . S
C519 H543 0.949 . S
H520 C524 0.949 . S
C521 C522 1.349 . S
C521 C523 1.327 . S
C521 H544 0.950 . S
C522 C521 1.349 . S
C522 C534 1.349 . S
C523 C521 1.327 . S
C523 C539 1.429 . S
C523 H545 0.950 . S
C524 H520 0.949 . S
C524 C532 1.574 . S
C524 C540 1.368 . S
H525 C533 0.950 . S
H526 C531 0.950 . S
H527 C532 0.949 . S
H528 C534 0.950 . S
H529 C535 0.950 . S
H530 C536 0.949 . S
C531 H526 0.950 . S
C531 C533 1.327 . S
C531 C537 1.429 . S
C532 C524 1.574 . S
C532 H527 0.949 . S
C532 C538 1.368 . S
C533 C517 1.349 . S
C533 H525 0.950 . S
C533 C531 1.327 . S
C534 C522 1.349 . S
C534 H528 0.950 . S
C534 C535 1.327 . S
C535 H529 0.950 . S
C535 C534 1.327 . S
C535 C539 1.429 . S
C536 C519 1.574 . S
C536 H530 0.949 . S
C536 C540 1.368 . S
C537 C518 1.429 . S
C537 C531 1.429 . S
C537 C538 1.523 . S
C538 C519 1.368 . S
C538 C532 1.368 . S
C538 C537 1.523 . S
C539 C523 1.429 . S
C539 C535 1.429 . S
C539 C540 1.523 . S
C540 C524 1.368 . S
C540 C536 1.368 . S
C540 C539 1.523 . S
H541 C516 0.950 . S
H542 C518 0.950 . S
H543 C519 0.949 . S
H544 C521 0.950 . S
H545 C523 0.950 . S
C546 C547 1.349 . S
C546 C548 1.327 . S
C546 H571 0.950 . S
C547 C546 1.349 . S
C547 C563 1.349 . S
C548 C546 1.327 . S
C548 C567 1.429 . S
C548 H572 0.950 . S
C549 C566 1.586 . S
C549 C568 1.368 . S
C549 H573 0.949 1_455 S
H550 C554 0.973 . S
C551 C552 1.349 . S
C551 C553 1.327 . S
C551 H574 0.950 1_455 S
C552 C551 1.349 . S
C552 C564 1.349 . S
C553 C551 1.327 . S
C553 C569 1.429 . S
C553 H575 0.950 1_455 S
C554 H550 0.973 . S
C554 C562 1.574 . S
C554 C570 1.368 1_554 S
H555 C563 0.950 1_655 S
H556 C561 0.950 1_655 S
H557 C562 0.949 . S
H558 C564 0.950 . S
H559 C565 0.950 . S
H560 C566 0.942 1_656 S
C561 H556 0.950 1_455 S
C561 C563 1.327 . S
C561 C567 1.429 . S
C562 C554 1.574 . S
C562 H557 0.949 . S
C562 C568 1.368 . S
C563 C547 1.349 . S
C563 H555 0.950 1_455 S
C563 C561 1.327 . S
C564 C552 1.349 . S
C564 H558 0.950 . S
C564 C565 1.327 . S
C565 H559 0.950 . S
C565 C564 1.327 . S
C565 C569 1.429 . S
C566 C549 1.586 . S
C566 H560 0.942 1_454 S
C566 C570 1.364 1_554 S
C567 C548 1.429 . S
C567 C561 1.429 . S
C567 C568 1.523 . S
C568 C549 1.368 . S
C568 C562 1.368 . S
C568 C567 1.523 . S
C569 C553 1.429 . S
C569 C565 1.429 . S
C569 C570 1.523 . S
C570 C554 1.368 1_556 S
C570 C566 1.364 1_556 S
C570 C569 1.523 . S
H571 C546 0.950 . S
H572 C548 0.950 . S
H573 C549 0.949 1_655 S
H574 C551 0.950 1_655 S
H575 C553 0.950 1_655 S
C576 C577 1.349 . S
C576 C578 1.327 . S
C576 H601 0.950 1_545 S
C577 C576 1.349 . S
C577 C593 1.349 . S
C578 C576 1.327 . S
C578 C597 1.429 . S
C578 H602 0.950 1_545 S
C579 C596 1.574 . S
C579 C598 1.368 . S
C579 H603 0.949 . S
H580 C584 0.949 1_565 S
C581 C582 1.349 . S
C581 C583 1.327 . S
C581 H604 0.950 . S
C582 C581 1.349 . S
C582 C594 1.349 . S
C583 C581 1.327 . S
C583 C599 1.429 . S
C583 H605 0.950 . S
C584 H580 0.949 1_545 S
C584 C592 1.574 . S
C584 C600 1.368 . S
H585 C593 0.950 . S
H586 C591 0.950 . S
H587 C592 0.949 1_565 S
H588 C594 0.950 1_565 S
H589 C595 0.950 1_565 S
H590 C596 0.949 . S
C591 H586 0.950 . S
C591 C593 1.327 . S
C591 C597 1.429 . S
C592 C584 1.574 . S
C592 H587 0.949 1_545 S
C592 C598 1.368 . S
C593 C577 1.349 . S
C593 H585 0.950 . S
C593 C591 1.327 . S
C594 C582 1.349 . S
C594 H588 0.950 1_545 S
C594 C595 1.327 . S
C595 H589 0.950 1_545 S
C595 C594 1.327 . S
C595 C599 1.429 . S
C596 C579 1.574 . S
C596 H590 0.949 . S
C596 C600 1.368 . S
C597 C578 1.429 . S
C597 C591 1.429 . S
C597 C598 1.523 . S
C598 C579 1.368 . S
C598 C592 1.368 . S
C598 C597 1.523 . S
C599 C583 1.429 . S
C599 C595 1.429 . S
C599 C600 1.523 . S
C600 C584 1.368 . S
C600 C596 1.368 . S
C600 C599 1.523 . S
H601 C576 0.950 1_565 S
H602 C578 0.950 1_565 S
H603 C579 0.949 . S
H604 C581 0.950 . S
H605 C583 0.950 . S
C606 C607 1.349 . S
C606 C608 1.327 . S
C606 H631 0.950 . S
C607 C606 1.349 . S
C607 C623 1.349 . S
C608 C606 1.327 . S
C608 C627 1.429 . S
C608 H632 0.950 . S
C609 C626 1.574 . S
C609 C628 1.368 . S
C609 H633 0.949 . S
H610 C614 0.949 . S
C611 C612 1.349 . S
C611 C613 1.327 . S
C611 H634 0.950 . S
C612 C611 1.349 . S
C612 C624 1.349 . S
C613 C611 1.327 . S
C613 C629 1.429 . S
C613 H635 0.950 . S
C614 H610 0.949 . S
C614 C622 1.574 . S
C614 C630 1.368 . S
H615 C623 0.950 . S
H616 C621 0.950 . S
H617 C622 0.949 . S
H618 C624 0.950 . S
H619 C625 0.950 . S
H620 C626 0.949 . S
C621 H616 0.950 . S
C621 C623 1.327 . S
C621 C627 1.429 . S
C622 C614 1.574 . S
C622 H617 0.949 . S
C622 C628 1.368 . S
C623 C607 1.349 . S
C623 H615 0.950 . S
C623 C621 1.327 . S
C624 C612 1.349 . S
C624 H618 0.950 . S
C624 C625 1.327 . S
C625 H619 0.950 . S
C625 C624 1.327 . S
C625 C629 1.429 . S
C626 C609 1.574 . S
C626 H620 0.949 . S
C626 C630 1.368 . S
C627 C608 1.429 . S
C627 C621 1.429 . S
C627 C628 1.523 . S
C628 C609 1.368 . S
C628 C622 1.368 . S
C628 C627 1.523 . S
C629 C613 1.429 . S
C629 C625 1.429 . S
C629 C630 1.523 . S
C630 C614 1.368 . S
C630 C626 1.368 . S
C630 C629 1.523 . S
H631 C606 0.950 . S
H632 C608 0.950 . S
H633 C609 0.949 . S
H634 C611 0.950 . S
H635 C613 0.950 . S
C636 C637 1.349 . S
C636 C638 1.327 . S
C636 H661 0.950 . S
C637 C636 1.349 . S
C637 C653 1.349 . S
C638 C636 1.327 . S
C638 C657 1.429 . S
C638 H662 0.950 . S
C639 C656 1.574 . S
C639 C658 1.368 . S
C639 H663 0.949 1_545 S
H640 C644 0.949 . S
C641 C642 1.349 . S
C641 C643 1.327 . S
C641 H664 0.950 1_545 S
C642 C641 1.349 . S
C642 C654 1.349 . S
C643 C641 1.327 . S
C643 C659 1.429 . S
C643 H665 0.950 1_545 S
C644 H640 0.949 . S
C644 C652 1.574 . S
C644 C660 1.368 . S
H645 C653 0.950 1_565 S
H646 C651 0.950 1_565 S
H647 C652 0.949 . S
H648 C654 0.950 . S
H649 C655 0.950 . S
H650 C656 0.949 1_565 S
C651 H646 0.950 1_545 S
C651 C653 1.327 . S
C651 C657 1.429 . S
C652 C644 1.574 . S
C652 H647 0.949 . S
C652 C658 1.368 . S
C653 C637 1.349 . S
C653 H645 0.950 1_545 S
C653 C651 1.327 . S
C654 C642 1.349 . S
C654 H648 0.950 . S
C654 C655 1.327 . S
C655 H649 0.950 . S
C655 C654 1.327 . S
C655 C659 1.429 . S
C656 C639 1.574 . S
C656 H650 0.949 1_545 S
C656 C660 1.368 . S
C657 C638 1.429 . S
C657 C651 1.429 . S
C657 C658 1.523 . S
C658 C639 1.368 . S
C658 C652 1.368 . S
C658 C657 1.523 . S
C659 C643 1.429 . S
C659 C655 1.429 . S
C659 C660 1.523 . S
C660 C644 1.368 . S
C660 C656 1.368 . S
C660 C659 1.523 . S
H661 C636 0.950 . S
H662 C638 0.950 . S
H663 C639 0.949 1_565 S
H664 C641 0.950 1_565 S
H665 C643 0.950 1_565 S
C666 C667 1.349 . S
C666 C668 1.327 . S
C666 H691 0.950 . S
C667 C666 1.349 . S
C667 C683 1.349 . S
C668 C666 1.327 . S
C668 C687 1.429 . S
C668 H692 0.950 . S
C669 C686 1.574 . S
C669 C688 1.368 . S
C669 H693 0.949 . S
H670 C674 0.949 1_554 S
C671 C672 1.349 . S
C671 C673 1.327 . S
C671 H694 0.950 . S
C672 C671 1.349 . S
C672 C684 1.349 . S
C673 C671 1.327 . S
C673 C689 1.429 . S
C673 H695 0.950 . S
C674 H670 0.949 1_556 S
C674 C682 1.574 . S
C674 C690 1.368 1_556 S
H675 C683 0.950 . S
H676 C681 0.950 . S
H677 C682 0.949 . S
H678 C684 0.950 . S
H679 C685 0.950 . S
H680 C686 0.949 1_554 S
C681 H676 0.950 . S
C681 C683 1.327 . S
C681 C687 1.429 . S
C682 C674 1.574 . S
C682 H677 0.949 . S
C682 C688 1.368 . S
C683 C667 1.349 . S
C683 H675 0.950 . S
C683 C681 1.327 . S
C684 C672 1.349 . S
C684 H678 0.950 . S
C684 C685 1.327 . S
C685 H679 0.950 . S
C685 C684 1.327 . S
C685 C689 1.429 . S
C686 C669 1.574 . S
C686 H680 0.949 1_556 S
C686 C690 1.368 1_556 S
C687 C668 1.429 . S
C687 C681 1.429 . S
C687 C688 1.523 . S
C688 C669 1.368 . S
C688 C682 1.368 . S
C688 C687 1.523 . S
C689 C673 1.429 . S
C689 C685 1.429 . S
C689 C690 1.523 . S
C690 C674 1.368 1_554 S
C690 C686 1.368 1_554 S
C690 C689 1.523 . S
H691 C666 0.950 . S
H692 C668 0.950 . S
H693 C669 0.949 . S
H694 C671 0.950 . S
H695 C673 0.950 . S
C696 C697 1.349 . S
C696 C698 1.327 . S
C696 H721 0.950 . S
C697 C696 1.349 . S
C697 C713 1.349 . S
C698 C696 1.327 . S
C698 C717 1.429 . S
C698 H722 0.950 . S
C699 C716 1.574 . S
C699 C718 1.368 . S
C699 H723 0.949 . S
H700 C704 0.949 . S
C701 C702 1.349 . S
C701 C703 1.327 . S
C701 H724 0.950 . S
C702 C701 1.349 . S
C702 C714 1.349 . S
C703 C701 1.327 . S
C703 C719 1.429 . S
C703 H725 0.950 . S
C704 H700 0.949 . S
C704 C712 1.574 . S
C704 C720 1.368 . S
H705 C713 0.950 . S
H706 C711 0.950 . S
H707 C712 0.949 . S
H708 C714 0.950 . S
H709 C715 0.950 . S
H710 C716 0.949 . S
C711 H706 0.950 . S
C711 C713 1.327 . S
C711 C717 1.429 . S
C712 C704 1.574 . S
C712 H707 0.949 . S
C712 C718 1.368 . S
C713 C697 1.349 . S
C713 H705 0.950 . S
C713 C711 1.327 . S
C714 C702 1.349 . S
C714 H708 0.950 . S
C714 C715 1.327 . S
C715 H709 0.950 . S
C715 C714 1.327 . S
C715 C719 1.429 . S
C716 C699 1.574 . S
C716 H710 0.949 . S
C716 C720 1.368 . S
C717 C698 1.429 . S
C717 C711 1.429 . S
C717 C718 1.523 . S
C718 C699 1.368 . S
C718 C712 1.368 . S
C718 C717 1.523 . S
C719 C703 1.429 . S
C719 C715 1.429 . S
C719 C720 1.523 . S
C720 C704 1.368 . S
C720 C716 1.368 . S
C720 C719 1.523 . S
H721 C696 0.950 . S
H722 C698 0.950 . S
H723 C699 0.949 . S
H724 C701 0.950 . S
H725 C703 0.950 . S
C187 C6 0.575 . S
C192 C185 0.573 . S
C217 C59 1.930 . S
C222 C163 1.885 . S
C247 C86 1.230 . S
C252 C174 1.219 . S
C277 C15 0.258 . S
C282 C179 0.191 . S
C312 C157 1.816 . S
C307 C50 1.837 . S
C342 C168 1.119 . S
C337 C95 1.126 . S
C367 C46 1.274 . S
C372 C141 1.263 . S
C397 C99 2.993 . S
C402 C146 2.954 1_655 S
C427 C10 1.853 . S
C432 C124 1.838 1_565 S
C462 C135 1.103 . S
C457 C55 1.106 . S
C492 C152 2.976 . S
C487 C90 3.009 . S
C517 C19 1.931 . S
C522 C130 1.894 . S
C552 C147 1.715 . S
C547 C18 1.680 . S
C577 C49 1.421 . S
C582 C125 1.480 . S
C607 C98 1.513 . S
C612 C136 1.546 . S
C642 C169 1.529 . S
C637 C58 1.513 . S
C672 C180 1.296 . S
C667 C89 1.266 . S
C697 C9 1.400 . S
C702 C158 1.448 . S
