# Generated by pormake.
# Topology pto, (3,4)-cn, num edge types: 1
# Building blocks:
#     Node 0, Type 0, BuildingBlock: PAMTOO_clean_linker_0, # of connection points: 3
#     Node 1, Type 0, BuildingBlock: PAMTOO_clean_linker_0, # of connection points: 3
#     Node 2, Type 0, BuildingBlock: PAMTOO_clean_linker_0, # of connection points: 3
#     Node 3, Type 0, BuildingBlock: PAMTOO_clean_linker_0, # of connection points: 3
#     Node 4, Type 0, BuildingBlock: PAMTOO_clean_linker_0, # of connection points: 3
#     Node 5, Type 0, BuildingBlock: PAMTOO_clean_linker_0, # of connection points: 3
#     Node 6, Type 0, BuildingBlock: PAMTOO_clean_linker_0, # of connection points: 3
#     Node 7, Type 0, BuildingBlock: PAMTOO_clean_linker_0, # of connection points: 3
#     Node 8, Type 1, BuildingBlock: KOZSID_clean_sbu_0, # of connection points: 4
#     Node 9, Type 1, BuildingBlock: KOZSID_clean_sbu_0, # of connection points: 4
#     Node 10, Type 1, BuildingBlock: KOZSID_clean_sbu_0, # of connection points: 4
#     Node 11, Type 1, BuildingBlock: KOZSID_clean_sbu_0, # of connection points: 4
#     Node 12, Type 1, BuildingBlock: KOZSID_clean_sbu_0, # of connection points: 4
#     Node 13, Type 1, BuildingBlock: KOZSID_clean_sbu_0, # of connection points: 4
#     Edge 14, Type (0, 1), BuildingBlock: CIFDUS_clean_linker_0, # of connection points: 2
#     Edge 15, Type (0, 1), BuildingBlock: CIFDUS_clean_linker_0, # of connection points: 2
#     Edge 16, Type (0, 1), BuildingBlock: CIFDUS_clean_linker_0, # of connection points: 2
#     Edge 17, Type (0, 1), BuildingBlock: CIFDUS_clean_linker_0, # of connection points: 2
#     Edge 18, Type (0, 1), BuildingBlock: CIFDUS_clean_linker_0, # of connection points: 2
#     Edge 19, Type (0, 1), BuildingBlock: CIFDUS_clean_linker_0, # of connection points: 2
#     Edge 20, Type (0, 1), BuildingBlock: CIFDUS_clean_linker_0, # of connection points: 2
#     Edge 21, Type (0, 1), BuildingBlock: CIFDUS_clean_linker_0, # of connection points: 2
#     Edge 22, Type (0, 1), BuildingBlock: CIFDUS_clean_linker_0, # of connection points: 2
#     Edge 23, Type (0, 1), BuildingBlock: CIFDUS_clean_linker_0, # of connection points: 2
#     Edge 24, Type (0, 1), BuildingBlock: CIFDUS_clean_linker_0, # of connection points: 2
#     Edge 25, Type (0, 1), BuildingBlock: CIFDUS_clean_linker_0, # of connection points: 2
#     Edge 26, Type (0, 1), BuildingBlock: CIFDUS_clean_linker_0, # of connection points: 2
#     Edge 27, Type (0, 1), BuildingBlock: CIFDUS_clean_linker_0, # of connection points: 2
#     Edge 28, Type (0, 1), BuildingBlock: CIFDUS_clean_linker_0, # of connection points: 2
#     Edge 29, Type (0, 1), BuildingBlock: CIFDUS_clean_linker_0, # of connection points: 2
#     Edge 30, Type (0, 1), BuildingBlock: CIFDUS_clean_linker_0, # of connection points: 2
#     Edge 31, Type (0, 1), BuildingBlock: CIFDUS_clean_linker_0, # of connection points: 2
#     Edge 32, Type (0, 1), BuildingBlock: CIFDUS_clean_linker_0, # of connection points: 2
#     Edge 33, Type (0, 1), BuildingBlock: CIFDUS_clean_linker_0, # of connection points: 2
#     Edge 34, Type (0, 1), BuildingBlock: CIFDUS_clean_linker_0, # of connection points: 2
#     Edge 35, Type (0, 1), BuildingBlock: CIFDUS_clean_linker_0, # of connection points: 2
#     Edge 36, Type (0, 1), BuildingBlock: CIFDUS_clean_linker_0, # of connection points: 2
#     Edge 37, Type (0, 1), BuildingBlock: CIFDUS_clean_linker_0, # of connection points: 2
# Relax obj value: 0.026
# Max RMSD: 0.175
# Mean RMSD: 0.073
data_MOF--net-pto--node1-KOZSID_clean_sbu_0--node2-PAMTOO_clean_linker_0--edge1-CIFDUS_clean_linker_0
_symmetry_space_group_name_H-M    P1
_symmetry_Int_Tables_number       1
_symmetry_cell_setting            triclinic
loop_
_symmetry_equiv_pos_as_xyz
'x, y, z'
_cell_length_a     34.637175
_cell_length_b     43.958251
_cell_length_c     40.161156
_cell_angle_alpha  81.612826
_cell_angle_beta   80.056646
_cell_angle_gamma 103.31035
loop_
_atom_site_label
_atom_site_type_symbol
_atom_site_fract_x
_atom_site_fract_y
_atom_site_fract_z
_atom_type_partial_charge
H0 H 0.20519 0.28768 0.40425 0.0
H1 H 0.28136 0.2521 0.33116 0.0
H2 H 0.2608 0.34358 0.30245 0.0
H3 H 0.25965 0.30522 0.24721 0.0
C4 C 0.27881 0.28977 0.25577 0.0
O5 O 0.29576 0.30118 0.28166 0.0
H6 H 0.25928 0.26501 0.2654 0.0
C7 C 0.22494 0.29096 0.37921 0.0
C8 C 0.2309 0.31888 0.35458 0.0
C9 C 0.24265 0.26649 0.37093 0.0
C10 C 0.26714 0.2705 0.33803 0.0
C11 C 0.27326 0.29812 0.31353 0.0
C12 C 0.25552 0.32227 0.32181 0.0
H13 H 0.20544 0.80687 0.72729 0.0
H14 H 0.25135 0.75573 0.80456 0.0
H15 H 0.2949 0.85743 0.77615 0.0
H16 H 0.35747 0.82276 0.78663 0.0
C17 C 0.33856 0.8024 0.80718 0.0
O18 O 0.29994 0.80637 0.81584 0.0
H19 H 0.3373 0.78 0.7971 0.0
C20 C 0.22504 0.80687 0.74562 0.0
C21 C 0.25003 0.83583 0.74914 0.0
C22 C 0.22541 0.77781 0.76527 0.0
C23 C 0.25081 0.77789 0.78901 0.0
C24 C 0.27562 0.80658 0.79292 0.0
C25 C 0.27515 0.83546 0.77314 0.0
H26 H 0.74496 0.83035 0.28935 0.0
H27 H 0.76448 0.74068 0.2705 0.0
H28 H 0.80062 0.7767 0.3569 0.0
H29 H 0.86163 0.75361 0.31747 0.0
C30 C 0.84205 0.73497 0.30723 0.0
O31 O 0.80174 0.73204 0.32107 0.0
H32 H 0.84842 0.74271 0.2787 0.0
C33 C 0.75557 0.80956 0.29685 0.0
C34 C 0.77286 0.80675 0.3261 0.0
C35 C 0.75168 0.78558 0.27708 0.0
C36 C 0.76637 0.759 0.28598 0.0
C37 C 0.78488 0.75644 0.3142 0.0
C38 C 0.78727 0.77978 0.33458 0.0
H39 H 0.77143 0.33442 0.78036 0.0
H40 H 0.71672 0.24178 0.76193 0.0
H41 H 0.82811 0.29904 0.69537 0.0
H42 H 0.77666 0.26539 0.65875 0.0
C43 C 0.75881 0.24417 0.67864 0.0
O44 O 0.77345 0.24456 0.70845 0.0
H45 H 0.72646 0.24497 0.68418 0.0
C46 C 0.77161 0.31602 0.76512 0.0
C47 C 0.80351 0.32059 0.7365 0.0
C48 C 0.74014 0.28773 0.77464 0.0
C49 C 0.74051 0.26388 0.7549 0.0
C50 C 0.77239 0.26804 0.72655 0.0
C51 C 0.80381 0.29619 0.71749 0.0
H52 H 0.72648 0.82276 0.76114 0.0
H53 H 0.77028 0.74663 0.80792 0.0
H54 H 0.81724 0.78859 0.70092 0.0
H55 H 0.788 0.7163 0.72303 0.0
C56 C 0.80376 0.71424 0.74488 0.0
O57 O 0.81924 0.74425 0.75124 0.0
H58 H 0.78097 0.69961 0.76798 0.0
C59 C 0.74635 0.80703 0.75913 0.0
C60 C 0.77234 0.80904 0.72736 0.0
C61 C 0.74535 0.78476 0.78841 0.0
C62 C 0.77092 0.7642 0.78575 0.0
C63 C 0.79622 0.76525 0.75404 0.0
C64 C 0.79706 0.78773 0.72506 0.0
H65 H 0.78413 0.26878 0.37488 0.0
H66 H 0.70862 0.22317 0.31194 0.0
H67 H 0.74494 0.32481 0.29616 0.0
H68 H 0.66265 0.30168 0.28943 0.0
C69 C 0.66358 0.27812 0.28279 0.0
O70 O 0.70324 0.27603 0.27643 0.0
H71 H 0.64524 0.25923 0.30513 0.0
C72 C 0.76742 0.27036 0.35452 0.0
C73 C 0.7669 0.30054 0.33706 0.0
C74 C 0.74689 0.24218 0.34542 0.0
C75 C 0.72512 0.24448 0.31907 0.0
C76 C 0.72416 0.2742 0.30181 0.0
C77 C 0.74524 0.30202 0.31052 0.0
H78 H 0.20588 0.28753 0.68044 0.0
H79 H 0.24418 0.32732 0.76566 0.0
H80 H 0.26465 0.23835 0.74839 0.0
H81 H 0.23634 0.24604 0.8212 0.0
C82 C 0.25605 0.27042 0.81923 0.0
O83 O 0.27667 0.2823 0.7855 0.0
H84 H 0.23654 0.286 0.82746 0.0
C85 C 0.2199 0.28663 0.70252 0.0
C86 C 0.23425 0.25992 0.71246 0.0
C87 C 0.2228 0.31149 0.72155 0.0
C88 C 0.24198 0.30937 0.74979 0.0
C89 C 0.25739 0.28337 0.75899 0.0
C90 C 0.25311 0.25862 0.74066 0.0
H91 H 0.19343 0.77515 0.40523 0.0
H92 H 0.24619 0.74962 0.31146 0.0
H93 H 0.29594 0.84131 0.33354 0.0
H94 H 0.30551 0.84568 0.25888 0.0
C95 C 0.29738 0.81971 0.25884 0.0
O96 O 0.30221 0.8034 0.28932 0.0
H97 H 0.26505 0.81231 0.25664 0.0
C98 C 0.21549 0.7813 0.381 0.0
C99 C 0.24419 0.81125 0.37183 0.0
C100 C 0.21626 0.75889 0.35933 0.0
C101 C 0.24516 0.76681 0.32818 0.0
C102 C 0.2737 0.79647 0.3189 0.0
C103 C 0.27347 0.81848 0.34084 0.0
C104 C 0.05467 0.56271 0.40482 0.0
C105 C 0.06005 0.568 0.43715 0.0
C106 C 0.0399 0.54023 0.46007 0.0
C107 C 0.02304 0.51968 0.44064 0.0
N108 N 0.03146 0.53281 0.40694 0.0
Co109 Co 0.01045 0.51281 0.37012 0.0
N110 N 0.96606 0.48043 0.40411 0.0
C111 C 0.96427 0.47319 0.43822 0.0
C112 C 0.93082 0.44913 0.45534 0.0
C113 C 0.91064 0.44024 0.43039 0.0
C114 C 0.93305 0.4594 0.39928 0.0
N115 N 0.98993 0.49306 0.3329 0.0
C116 C 0.95476 0.4712 0.33401 0.0
C117 C 0.95361 0.46325 0.30188 0.0
C118 C 0.98971 0.48004 0.28027 0.0
C119 C 0.01082 0.49737 0.30021 0.0
N120 N 0.05488 0.54507 0.33646 0.0
C121 C 0.06969 0.54313 0.30384 0.0
C122 C 0.10047 0.5694 0.28684 0.0
C123 C 0.10512 0.58905 0.31029 0.0
C124 C 0.07667 0.57362 0.34027 0.0
N125 N 0.04588 0.48406 0.3729 0.0
C126 C 0.09793 0.44425 0.36715 0.0
C127 C 0.11251 0.47565 0.37116 0.0
C128 C 0.08587 0.49527 0.37395 0.0
C129 C 0.05667 0.43266 0.36808 0.0
C130 C 0.0312 0.45278 0.37129 0.0
N131 N 0.97534 0.5416 0.36702 0.0
C132 C 0.95281 0.5807 0.33252 0.0
C133 C 0.93205 0.58797 0.36221 0.0
C134 C 0.93222 0.57065 0.39436 0.0
C135 C 0.95387 0.54748 0.39619 0.0
C136 C 0.97414 0.55748 0.33548 0.0
H137 H 0.95411 0.53494 0.42125 0.0
H138 H 0.99077 0.55313 0.3122 0.0
H139 H 0.0979 0.51979 0.37566 0.0
H140 H 0.99988 0.44317 0.37106 0.0
C141 C 0.99222 0.4915 0.45361 0.0
C142 C 0.07227 0.58589 0.37237 0.0
C143 C 0.92515 0.45361 0.36564 0.0
C144 C 0.04843 0.52 0.28842 0.0
H145 H 0.07595 0.58971 0.44379 0.0
H146 H 0.03574 0.5363 0.48785 0.0
H147 H 0.92198 0.43936 0.4827 0.0
H148 H 0.88329 0.4211 0.43443 0.0
H149 H 0.92984 0.44609 0.29512 0.0
H150 H 0.99931 0.47969 0.25325 0.0
H151 H 0.11616 0.57448 0.26009 0.0
H152 H 0.1267 0.61213 0.3058 0.0
H153 H 0.1444 0.48531 0.37057 0.0
H154 H 0.04437 0.40838 0.36532 0.0
H155 H 0.95395 0.59369 0.30714 0.0
H156 H 0.91615 0.5752 0.41797 0.0
C157 C 0.10312 0.57987 0.76445 0.0
C158 C 0.11426 0.57974 0.79604 0.0
C159 C 0.09402 0.55055 0.81626 0.0
C160 C 0.07174 0.53461 0.79595 0.0
N161 N 0.07672 0.55202 0.76432 0.0
Co162 Co 0.0505 0.53858 0.72687 0.0
N163 N 0.00735 0.50472 0.75998 0.0
C164 C 0.00894 0.49258 0.79238 0.0
C165 C 0.9748 0.46903 0.80912 0.0
C166 C 0.95049 0.46585 0.78565 0.0
C167 C 0.9713 0.4877 0.75569 0.0
N168 N 0.02476 0.52495 0.68919 0.0
C169 C 0.98761 0.50572 0.69071 0.0
C170 C 0.98225 0.50171 0.65798 0.0
C171 C 0.01764 0.51861 0.63536 0.0
C172 C 0.04252 0.53203 0.65541 0.0
N173 N 0.09372 0.57259 0.69404 0.0
C174 C 0.10459 0.57451 0.65985 0.0
C175 C 0.13538 0.6012 0.64405 0.0
C176 C 0.14437 0.61692 0.67003 0.0
C177 C 0.11843 0.59883 0.70024 0.0
N178 N 0.0839 0.50834 0.72141 0.0
C179 C 0.1309 0.46397 0.71635 0.0
C180 C 0.1488 0.49615 0.71641 0.0
C181 C 0.12482 0.51767 0.71951 0.0
C182 C 0.08883 0.45499 0.71817 0.0
C183 C 0.06624 0.47747 0.72004 0.0
N184 N 0.01703 0.56866 0.73237 0.0
C185 C 0.98899 0.60978 0.70766 0.0
C186 C 0.96854 0.61151 0.74043 0.0
C187 C 0.97326 0.59127 0.76904 0.0
C188 C 0.99765 0.57025 0.76448 0.0
C189 C 0.01284 0.5882 0.7042 0.0
H190 H 1.00062 0.55511 0.78703 0.0
H191 H 0.02797 0.58739 0.67866 0.0
H192 H 0.13945 0.54187 0.72058 0.0
H193 H 0.03421 0.46955 0.72098 0.0
C194 C 0.04034 0.50661 0.8075 0.0
C195 C 0.11932 0.60599 0.73461 0.0
C196 C 0.95857 0.48827 0.7226 0.0
C197 C 0.08026 0.55445 0.6432 0.0
H198 H 0.13466 0.59876 0.80371 0.0
H199 H 0.094 0.54258 0.84307 0.0
H200 H 0.96804 0.45609 0.83542 0.0
H201 H 0.9213 0.44872 0.7898 0.0
H202 H 0.95582 0.48754 0.65124 0.0
H203 H 0.02408 0.5213 0.60758 0.0
H204 H 0.14844 0.60909 0.61677 0.0
H205 H 0.16726 0.63909 0.66712 0.0
H206 H 0.18115 0.50495 0.71417 0.0
H207 H 0.07279 0.4306 0.71898 0.0
H208 H 0.98698 0.62515 0.68473 0.0
H209 H 0.9577 0.59118 0.79488 0.0
C210 C 0.27635 1.00256 0.58625 0.0
C211 C 0.31534 1.00124 0.58899 0.0
C212 C 0.34123 0.02279 0.56184 0.0
C213 C 0.31665 0.03598 0.54419 0.0
N214 N 0.27661 0.02453 0.55873 0.0
Co215 Co 0.23013 0.03601 0.54096 0.0
N216 N 0.26806 0.06607 0.49972 0.0
C217 C 0.30901 0.07203 0.49135 0.0
C218 C 0.32679 0.09494 0.4623 0.0
C219 C 0.29541 0.10468 0.45184 0.0
C220 C 0.26023 0.08707 0.47528 0.0
N221 N 0.18367 0.04748 0.52312 0.0
C222 C 0.18406 0.07036 0.4964 0.0
C223 C 0.14512 0.07166 0.49354 0.0
C224 C 0.1191 0.04912 0.51983 0.0
C225 C 0.14358 0.03543 0.53714 0.0
N226 N 0.19222 0.00613 0.58238 0.0
C227 C 0.15123 0.99996 0.59051 0.0
C228 C 0.13351 0.97766 0.62007 0.0
C229 C 0.16497 0.96868 0.63126 0.0
C230 C 0.20018 0.98611 0.60776 0.0
N231 N 0.23373 0.07177 0.56657 0.0
C232 C 0.23784 0.12542 0.59828 0.0
C233 C 0.2009 0.10301 0.60146 0.0
C234 C 0.19951 0.0767 0.58542 0.0
C235 C 0.27284 0.12011 0.57964 0.0
C236 C 0.27018 0.09321 0.56444 0.0
N237 N 0.22643 1.00026 0.51513 0.0
C238 C 0.18691 0.95296 0.5003 0.0
C239 C 0.22128 0.94891 0.4792 0.0
C240 C 0.25832 0.97119 0.47658 0.0
C241 C 0.26023 0.9962 0.49475 0.0
C242 C 0.19008 0.9786 0.51757 0.0
H243 H 0.28949 0.01191 0.49185 0.0
H244 H 0.16262 0.98022 0.53291 0.0
H245 H 0.17028 0.06096 0.58819 0.0
H246 H 0.29798 0.09045 0.55076 0.0
C247 C 0.33008 0.0577 0.51292 0.0
C248 C 0.24007 0.98128 0.60935 0.0
C249 C 0.22051 0.09257 0.47455 0.0
C250 C 0.13015 0.01382 0.56852 0.0
H251 H 0.32403 0.98574 0.60821 0.0
H252 H 0.37399 0.02762 0.5552 0.0
H253 H 0.35885 0.10432 0.45089 0.0
H254 H 0.2982 0.12335 0.43008 0.0
H255 H 0.13651 0.08792 0.47504 0.0
H256 H 0.08634 0.04428 0.52645 0.0
H257 H 0.10145 0.9683 0.63148 0.0
H258 H 0.16226 0.95069 0.65365 0.0
H259 H 0.17292 0.10614 0.61557 0.0
H260 H 0.30228 0.13654 0.57697 0.0
H261 H 0.15749 0.93626 0.50394 0.0
H262 H 0.28592 0.96976 0.46024 0.0
C263 C 0.49632 0.82565 0.08796 0.0
C264 C 0.49533 0.85593 0.09352 0.0
C265 C 0.52762 0.8768 0.0707 0.0
C266 C 0.54633 0.85819 0.05252 0.0
N267 N 0.52779 0.82665 0.06215 0.0
Co268 Co 0.54495 0.79115 0.04249 0.0
N269 N 0.59438 0.82163 0.01097 0.0
C270 C 0.60702 0.8534 0.00944 0.0
C271 C 0.64195 0.86806 0.9852 0.0
C272 C 0.65215 0.8443 0.97015 0.0
C273 C 0.62269 0.81639 0.98615 0.0
N274 N 0.56134 0.75579 0.02195 0.0
C275 C 0.59199 0.75697 0.99531 0.0
C276 C 0.59152 0.72693 0.9882 0.0
C277 C 0.55908 0.70604 0.01083 0.0
C278 C 0.54168 0.72443 0.03036 0.0
N279 N 0.49623 0.76055 0.07481 0.0
C280 C 0.48506 0.72851 0.07799 0.0
C281 C 0.45138 0.71367 0.10352 0.0
C282 C 0.44066 0.73761 0.11789 0.0
C283 C 0.46853 0.76576 0.10018 0.0
N284 N 0.51275 0.79659 0.00665 0.0
C285 C 0.47145 0.80389 0.95245 0.0
C286 C 0.46536 0.77409 0.97333 0.0
C287 C 0.48601 0.77103 1.00013 0.0
C288 C 0.49763 0.83008 0.95994 0.0
C289 C 0.51777 0.82594 0.98684 0.0
N290 N 0.57725 0.78573 0.07834 0.0
C291 C 0.6009 0.75183 0.11892 0.0
C292 C 0.62021 0.77802 0.13149 0.0
C293 C 0.61804 0.80818 0.11643 0.0
C294 C 0.59709 0.81148 0.08995 0.0
C295 C 0.57955 0.75615 0.09283 0.0
H296 H 0.59706 0.83516 0.0796 0.0
H297 H 0.565 0.73512 0.085 0.0
H298 H 0.48034 0.74765 0.01487 0.0
H299 H 0.53762 0.84682 0.99082 0.0
C300 C 0.58337 0.86922 0.02867 0.0
C301 C 0.46795 0.79669 0.109 0.0
C302 C 0.62181 0.78587 0.97568 0.0
C303 C 0.50689 0.71304 0.0567 0.0
H304 H 0.47404 0.86219 0.1127 0.0
H305 H 0.53711 0.9024 0.06843 0.0
H306 H 0.65739 0.89321 0.97845 0.0
H307 H 0.67781 0.84731 0.94919 0.0
H308 H 0.6123 0.72083 0.96847 0.0
H309 H 0.54912 0.68053 0.0126 0.0
H310 H 0.43666 0.68842 0.11103 0.0
H311 H 0.41547 0.73468 0.13926 0.0
H312 H 0.44558 0.75298 0.96853 0.0
H313 H 0.50274 0.85382 0.94507 0.0
H314 H 0.6022 0.72796 0.12902 0.0
H315 H 0.63175 0.82934 0.12536 0.0
C316 C 0.79641 0.97467 0.56396 0.0
C317 C 0.83506 0.97311 0.56767 0.0
C318 C 0.86181 0.99645 0.54266 0.0
C319 C 0.83811 0.01091 0.52522 0.0
N320 N 0.79777 0.99821 0.5375 0.0
Co321 Co 0.75261 0.01232 0.51996 0.0
N322 N 0.79213 0.04729 0.48385 0.0
C323 C 0.8331 0.05336 0.47677 0.0
C324 C 0.85216 0.07981 0.4517 0.0
C325 C 0.82161 0.09175 0.44263 0.0
C326 C 0.78552 0.07173 0.46277 0.0
N327 N 0.70752 0.02695 0.50288 0.0
C328 C 0.70905 0.0538 0.48062 0.0
C329 C 0.67057 0.05621 0.47748 0.0
C330 C 0.64364 0.03033 0.49915 0.0
C331 C 0.66714 0.01364 0.5142 0.0
N332 N 0.71303 0.97712 0.55583 0.0
C333 C 0.67201 0.9693 0.5608 0.0
C334 C 0.65297 0.94385 0.58711 0.0
C335 C 0.6836 0.93479 0.59973 0.0
C336 C 0.71971 0.95536 0.58032 0.0
N337 N 0.75215 0.04205 0.55256 0.0
C338 C 0.74798 0.09139 0.58944 0.0
C339 C 0.71357 0.06675 0.59128 0.0
C340 C 0.7163 0.04257 0.57283 0.0
C341 C 0.78522 0.08947 0.57096 0.0
C342 C 0.78667 0.06452 0.55313 0.0
N343 N 0.7528 0.98259 0.48687 0.0
C344 C 0.71624 0.94211 0.46053 0.0
C345 C 0.75231 0.93969 0.44067 0.0
C346 C 0.78875 0.95924 0.44439 0.0
C347 C 0.7883 0.98014 0.46755 0.0
C348 C 0.71717 0.96362 0.48289 0.0
H349 H 0.81711 0.99402 0.46928 0.0
H350 H 0.68849 0.96419 0.49674 0.0
H351 H 0.68868 0.02516 0.57446 0.0
H352 H 0.81573 0.06446 0.53899 0.0
C353 C 0.85282 0.03617 0.49702 0.0
C354 C 0.75949 0.95326 0.58624 0.0
C355 C 0.74605 0.07822 0.46298 0.0
C356 C 0.65226 0.98707 0.54106 0.0
H357 H 0.84306 0.95673 0.58648 0.0
H358 H 0.89464 1.00216 0.53773 0.0
H359 H 0.88449 0.09013 0.4424 0.0
H360 H 0.82562 0.11343 0.42427 0.0
H361 H 0.66282 0.07519 0.46182 0.0
H362 H 0.61082 0.02497 0.50433 0.0
H363 H 0.62065 0.9333 0.59621 0.0
H364 H 0.67982 0.91528 0.62088 0.0
H365 H 0.68427 0.06643 0.60629 0.0
H366 H 0.8129 0.10777 0.569 0.0
H367 H 0.68711 0.92716 0.45935 0.0
H368 H 0.81764 0.95874 0.42933 0.0
C369 C 0.45916 0.32389 0.06002 0.0
C370 C 0.45616 0.3537 0.06599 0.0
C371 C 0.487 0.37561 0.04282 0.0
C372 C 0.50718 0.35805 0.02428 0.0
N373 N 0.49103 0.32618 0.03404 0.0
Co374 Co 0.51227 0.29192 0.01516 0.0
N375 N 0.55789 0.3243 0.9813 0.0
C376 C 0.56525 0.35639 0.97674 0.0
C377 C 0.59765 0.37244 0.95056 0.0
C378 C 0.61181 0.34927 0.93737 0.0
C379 C 0.58725 0.32026 0.95655 0.0
N380 N 0.53396 0.25765 0.99672 0.0
C381 C 0.56617 0.25994 0.97107 0.0
C382 C 0.57111 0.23016 0.96688 0.0
C383 C 0.54059 0.20823 0.99038 0.0
C384 C 0.51902 0.22578 0.00764 0.0
N385 N 0.46621 0.25954 0.04854 0.0
C386 C 0.45777 0.22747 0.05201 0.0
C387 C 0.4237 0.21145 0.07661 0.0
C388 C 0.40952 0.23463 0.0898 0.0
C389 C 0.43606 0.26358 0.07253 0.0
N390 N 0.47782 0.29225 0.98035 0.0
C391 C 0.42731 0.29259 0.93211 0.0
C392 C 0.43298 0.26409 0.94839 0.0
C393 C 0.45798 0.26445 0.97224 0.0
C394 C 0.44785 0.32096 0.94019 0.0
C395 C 0.47284 0.32026 0.96399 0.0
N396 N 0.54649 0.29158 0.05016 0.0
C397 C 0.56743 0.26305 0.09714 0.0
C398 C 0.58982 0.2915 0.10367 0.0
C399 C 0.59126 0.31991 0.08208 0.0
C400 C 0.56977 0.31939 0.05563 0.0
C401 C 0.54622 0.26363 0.07054 0.0
H402 H 0.57195 0.34187 0.04035 0.0
H403 H 0.52942 0.24115 0.06727 0.0
H404 H 0.4607 0.24189 0.98379 0.0
H405 H 0.4876 0.34271 0.96885 0.0
C406 C 0.54119 0.3708 0.99745 0.0
C407 C 0.4315 0.29416 0.08015 0.0
C408 C 0.59257 0.28959 0.94975 0.0
C409 C 0.48339 0.21303 0.03287 0.0
H410 H 0.43416 0.35913 0.08526 0.0
H411 H 0.49404 0.40128 0.03997 0.0
H412 H 0.60936 0.39796 0.94189 0.0
H413 H 0.63713 0.35334 0.91583 0.0
H414 H 0.59417 0.22481 0.9485 0.0
H415 H 0.53448 0.18254 0.99408 0.0
H416 H 0.41097 0.18594 0.08432 0.0
H417 H 0.3828 0.23065 0.11002 0.0
H418 H 0.41847 0.24146 0.94263 0.0
H419 H 0.44423 0.34371 0.92868 0.0
H420 H 0.56606 0.24029 0.11254 0.0
H421 H 0.60795 0.34267 0.08606 0.0
H422 H 0.19236 0.34931 0.31286 0.0
H423 H 0.22133 0.34379 0.41342 0.0
H424 H 0.18493 0.38392 0.42569 0.0
H425 H 0.14276 0.41956 0.4081 0.0
H426 H 0.11321 0.42322 0.30793 0.0
H427 H 0.15283 0.38547 0.29478 0.0
C428 C 0.19129 0.35722 0.33728 0.0
C429 C 0.20969 0.34369 0.36212 0.0
C430 C 0.17035 0.38011 0.34411 0.0
C431 C 0.20714 0.35367 0.39396 0.0
C432 C 0.18653 0.37672 0.4009 0.0
C433 C 0.14564 0.41231 0.3833 0.0
C434 C 0.12547 0.42406 0.35888 0.0
C435 C 0.16779 0.39 0.37623 0.0
C436 C 0.1287 0.41437 0.32697 0.0
C437 C 0.15117 0.39277 0.31952 0.0
H438 H 0.24856 0.72423 0.75599 0.0
H439 H 0.14509 0.76371 0.76303 0.0
H440 H 0.10318 0.71416 0.75337 0.0
H441 H 0.09591 0.65923 0.74324 0.0
H442 H 0.19949 0.62015 0.73544 0.0
H443 H 0.24163 0.66982 0.74507 0.0
C444 C 0.21675 0.72182 0.75569 0.0
C445 C 0.19985 0.74745 0.76035 0.0
C446 C 0.19302 0.69342 0.74982 0.0
C447 C 0.15877 0.7443 0.75933 0.0
C448 C 0.13481 0.716 0.75387 0.0
C449 C 0.12779 0.66189 0.74349 0.0
C450 C 0.14495 0.63653 0.73864 0.0
C451 C 0.15162 0.69043 0.74902 0.0
C452 C 0.18607 0.63972 0.73905 0.0
C453 C 0.20998 0.66796 0.74464 0.0
H454 H 0.87586 0.71498 0.36006 0.0
H455 H 0.82972 0.68489 0.27389 0.0
H456 H 0.85081 0.63546 0.28472 0.0
H457 H 0.88641 0.60268 0.31642 0.0
H458 H 0.93433 0.63368 0.40169 0.0
H459 H 0.90801 0.6806 0.39392 0.0
C460 C 0.87032 0.69745 0.34384 0.0
C461 C 0.85212 0.70365 0.31581 0.0
C462 C 0.88285 0.66934 0.35007 0.0
C463 C 0.84429 0.68066 0.29527 0.0
C464 C 0.85635 0.6525 0.30146 0.0
C465 C 0.89104 0.61969 0.33332 0.0
C466 C 0.91251 0.61474 0.35947 0.0
C467 C 0.87639 0.64689 0.32836 0.0
C468 C 0.91759 0.63672 0.38157 0.0
C469 C 0.90283 0.66371 0.37697 0.0
H470 H 0.79766 0.38136 0.73665 0.0
H471 H 0.88489 0.32661 0.71653 0.0
H472 H 0.94045 0.37469 0.70681 0.0
H473 H 0.96438 0.43133 0.70915 0.0
H474 H 0.8779 0.48556 0.73278 0.0
H475 H 0.82164 0.43861 0.73639 0.0
C476 C 0.82883 0.37993 0.73019 0.0
C477 C 0.83706 0.35034 0.72759 0.0
C478 C 0.86066 0.40754 0.72545 0.0
C479 C 0.87762 0.34906 0.71842 0.0
C480 C 0.90945 0.37651 0.71311 0.0
C481 C 0.93313 0.4328 0.71447 0.0
C482 C 0.92481 0.46153 0.72044 0.0
C483 C 0.90132 0.4057 0.7172 0.0
C484 C 0.88456 0.46354 0.72784 0.0
C485 C 0.85261 0.43674 0.73004 0.0
H486 H 0.22206 0.20634 0.35906 0.0
H487 H 0.2461 0.25911 0.43905 0.0
H488 H 0.23864 0.20941 0.47912 0.0
H489 H 0.22975 0.1511 0.49008 0.0
H490 H 0.20656 0.09877 0.40983 0.0
H491 H 0.20932 0.14812 0.37091 0.0
C492 C 0.22567 0.20693 0.38528 0.0
C493 C 0.23506 0.23632 0.39602 0.0
C494 C 0.22157 0.17837 0.40798 0.0
C495 C 0.2388 0.23674 0.43024 0.0
C496 C 0.23474 0.20838 0.45307 0.0
C497 C 0.22479 0.1507 0.46418 0.0
C498 C 0.21784 0.12175 0.45252 0.0
C499 C 0.22672 0.17912 0.44206 0.0
C500 C 0.2117 0.12102 0.41905 0.0
C501 C 0.21344 0.14915 0.39691 0.0
H502 H 0.41424 0.83367 0.81266 0.0
H503 H 0.30485 0.765 0.87104 0.0
H504 H 0.33574 0.75966 0.92136 0.0
H505 H 0.39411 0.77446 0.94848 0.0
H506 H 0.50449 0.84158 0.88881 0.0
H507 H 0.47277 0.84795 0.83951 0.0
C508 C 0.39711 0.81776 0.83653 0.0
C509 C 0.3571 0.80022 0.83847 0.0
C510 C 0.41522 0.81459 0.86511 0.0
C511 C 0.33546 0.77915 0.86925 0.0
C512 C 0.35316 0.77603 0.89791 0.0
C513 C 0.41135 0.7903 0.92463 0.0
C514 C 0.45162 0.80762 0.92255 0.0
C515 C 0.39308 0.79358 0.89611 0.0
C516 C 0.47325 0.82836 0.89147 0.0
C517 C 0.45523 0.83187 0.86311 0.0
H518 H 0.71894 0.842 0.34145 0.0
H519 H 0.8337 0.82826 0.35954 0.0
H520 H 0.83713 0.8675 0.39669 0.0
H521 H 0.80711 0.90509 0.42488 0.0
H522 H 0.69587 0.92256 0.40188 0.0
H523 H 0.69197 0.88271 0.36559 0.0
C524 C 0.74516 0.8479 0.35291 0.0
C525 C 0.77581 0.83178 0.34771 0.0
C526 C 0.74759 0.87116 0.37355 0.0
C527 C 0.80907 0.83956 0.36356 0.0
C528 C 0.8113 0.86228 0.38463 0.0
C529 C 0.78233 0.90067 0.41152 0.0
C530 C 0.7516 0.91673 0.41666 0.0
C531 C 0.78065 0.87815 0.38993 0.0
C532 C 0.71949 0.91013 0.39931 0.0
C533 C 0.71734 0.88746 0.37824 0.0
H534 H 0.74887 0.29988 0.83754 0.0
H535 H 0.65818 0.26558 0.7809 0.0
H536 H 0.60425 0.2619 0.83074 0.0
H537 H 0.58303 0.27125 0.88959 0.0
H538 H 0.67393 0.30579 0.94568 0.0
H539 H 0.7279 0.30696 0.89679 0.0
C540 C 0.71728 0.29167 0.8361 0.0
C541 C 0.70746 0.28331 0.80552 0.0
C542 C 0.68661 0.28988 0.86466 0.0
C543 C 0.66646 0.27204 0.80423 0.0
C544 C 0.63566 0.27012 0.83262 0.0
C545 C 0.61473 0.2788 0.89095 0.0
C546 C 0.6249 0.28864 0.92075 0.0
C547 C 0.64539 0.27936 0.8628 0.0
C548 C 0.6658 0.29831 0.92271 0.0
C549 C 0.69648 0.29896 0.89486 0.0
H550 H 0.25111 0.8471 0.68067 0.0
H551 H 0.24912 0.89281 0.76877 0.0
H552 H 0.24668 0.94222 0.73318 0.0
H553 H 0.24309 0.97204 0.677 0.0
H554 H 0.24424 0.92583 0.58955 0.0
H555 H 0.2485 0.87676 0.62487 0.0
C556 C 0.24984 0.8678 0.69216 0.0
C557 C 0.25002 0.86621 0.72737 0.0
C558 C 0.24813 0.89595 0.67164 0.0
C559 C 0.24929 0.89347 0.74168 0.0
C560 C 0.24766 0.92166 0.7214 0.0
C561 C 0.24435 0.95112 0.66593 0.0
C562 C 0.24324 0.95209 0.63105 0.0
C563 C 0.24679 0.92312 0.68641 0.0
C564 C 0.24499 0.92522 0.6165 0.0
C565 C 0.24742 0.89731 0.63664 0.0
H566 H 0.68844 0.7428 0.26467 0.0
H567 H 0.772 0.83496 0.22238 0.0
H568 H 0.73999 0.84015 0.17277 0.0
H569 H 0.68822 0.81853 0.14179 0.0
H570 H 0.60058 0.72833 0.18688 0.0
H571 H 0.63495 0.72195 0.23443 0.0
C572 C 0.69966 0.76391 0.24444 0.0
C573 C 0.7325 0.78844 0.24697 0.0
C574 C 0.68059 0.76697 0.21642 0.0
C575 C 0.7466 0.81587 0.22093 0.0
C576 C 0.72839 0.81878 0.19259 0.0
C577 C 0.67613 0.79763 0.16216 0.0
C578 C 0.64172 0.77396 0.16039 0.0
C579 C 0.69521 0.79455 0.19017 0.0
C580 C 0.62739 0.74673 0.1869 0.0
C581 C 0.64681 0.74315 0.21442 0.0
H582 H 0.70614 0.20884 0.64742 0.0
H583 H 0.82122 0.21494 0.67677 0.0
H584 H 0.82789 0.16801 0.65243 0.0
H585 H 0.80069 0.12513 0.62286 0.0
H586 H 0.68714 0.12136 0.59086 0.0
H587 H 0.67994 0.16707 0.61662 0.0
C588 C 0.73246 0.19965 0.64876 0.0
C589 C 0.76252 0.21467 0.66474 0.0
C590 C 0.73632 0.17301 0.63432 0.0
C591 C 0.79714 0.20321 0.66539 0.0
C592 C 0.80105 0.1765 0.65134 0.0
C593 C 0.77451 0.13442 0.62131 0.0
C594 C 0.7443 0.11946 0.60526 0.0
C595 C 0.77079 0.16118 0.63574 0.0
C596 C 0.71044 0.13181 0.60375 0.0
C597 C 0.7064 0.15818 0.61823 0.0
H598 H 0.28323 0.30819 0.18715 0.0
H599 H 0.34659 0.26832 0.25851 0.0
H600 H 0.39949 0.26619 0.21051 0.0
H601 H 0.42787 0.27602 0.14805 0.0
H602 H 0.36343 0.31417 0.07671 0.0
H603 H 0.31066 0.31678 0.12475 0.0
C604 C 0.30882 0.29929 0.19209 0.0
C605 C 0.31172 0.28923 0.2262 0.0
C606 C 0.33874 0.29779 0.1644 0.0
C607 C 0.34436 0.27689 0.23239 0.0
C608 C 0.37445 0.27554 0.20501 0.0
C609 C 0.40212 0.28479 0.14326 0.0
C610 C 0.39923 0.29503 0.10925 0.0
C611 C 0.37199 0.286 0.17093 0.0
C612 C 0.36597 0.30632 0.1029 0.0
C613 C 0.33597 0.30779 0.13028 0.0
H614 H 0.85829 0.70257 0.78376 0.0
H615 H 0.82183 0.68707 0.68897 0.0
H616 H 0.8699 0.65482 0.6788 0.0
H617 H 0.91941 0.62848 0.69841 0.0
H618 H 0.95774 0.64506 0.79245 0.0
H619 H 0.91167 0.67894 0.80148 0.0
C620 C 0.86145 0.6925 0.76065 0.0
C621 C 0.83685 0.69746 0.737 0.0
C622 C 0.8891 0.67378 0.75504 0.0
C623 C 0.84071 0.68389 0.7074 0.0
C624 C 0.86807 0.66531 0.70165 0.0
C625 C 0.91835 0.63989 0.7206 0.0
C626 C 0.942 0.63379 0.74481 0.0
C627 C 0.89208 0.65976 0.72549 0.0
C628 C 0.93941 0.64859 0.77368 0.0
C629 C 0.91322 0.66824 0.77878 0.0
H630 H 0.84243 0.31367 0.35171 0.0
H631 H 0.74286 0.35534 0.34107 0.0
H632 H 0.78231 0.40613 0.34973 0.0
H633 H 0.84665 0.4397 0.35802 0.0
H634 H 0.94523 0.39747 0.36965 0.0
H635 H 0.90464 0.34597 0.36349 0.0
C636 C 0.82903 0.33365 0.35189 0.0
C637 C 0.78978 0.33061 0.34545 0.0
C638 C 0.85185 0.36284 0.357 0.0
C639 C 0.77325 0.35705 0.34534 0.0
C640 C 0.79573 0.38614 0.35045 0.0
C641 C 0.85885 0.41904 0.3595 0.0
C642 C 0.89865 0.42214 0.36425 0.0
C643 C 0.83528 0.38947 0.35586 0.0
C644 C 0.91453 0.39544 0.36604 0.0
C645 C 0.89138 0.36605 0.36247 0.0
H646 H 0.24724 0.373 0.73184 0.0
H647 H 0.15555 0.31185 0.69321 0.0
H648 H 0.12242 0.35459 0.68453 0.0
H649 H 0.11655 0.40792 0.69138 0.0
H650 H 0.20113 0.46466 0.74038 0.0
H651 H 0.23943 0.42498 0.74142 0.0
C652 C 0.21962 0.3685 0.72208 0.0
C653 C 0.20414 0.33865 0.71357 0.0
C654 C 0.19913 0.39258 0.71898 0.0
C655 C 0.16905 0.33441 0.69959 0.0
C656 C 0.14959 0.35884 0.69498 0.0
C657 C 0.14289 0.41166 0.70288 0.0
C658 C 0.15539 0.4398 0.71574 0.0
C659 C 0.16388 0.3878 0.70524 0.0
C660 C 0.19071 0.44399 0.72943 0.0
C661 C 0.21262 0.42098 0.73047 0.0
H662 H 0.14496 0.73543 0.34109 0.0
H663 H 0.22924 0.70914 0.39971 0.0
H664 H 0.19124 0.65299 0.41043 0.0
H665 H 0.1373 0.61101 0.39886 0.0
H666 H 0.05149 0.63709 0.34184 0.0
H667 H 0.08682 0.69362 0.33429 0.0
C668 C 0.15431 0.71736 0.35679 0.0
C669 C 0.18946 0.72615 0.36991 0.0
C670 C 0.13231 0.68515 0.36274 0.0
C671 C 0.20192 0.70273 0.38978 0.0
C672 C 0.18038 0.67068 0.39569 0.0
C673 C 0.12566 0.62917 0.38574 0.0
C674 C 0.0914 0.62009 0.37153 0.0
C675 C 0.14593 0.66154 0.38181 0.0
C676 C 0.07755 0.64371 0.35333 0.0
C677 C 0.09777 0.67595 0.34898 0.0
H678 H 0.76863 0.87059 0.72552 0.0
H679 H 0.77691 0.80159 0.66018 0.0
H680 H 0.77468 0.84024 0.61068 0.0
H681 H 0.76809 0.89343 0.58613 0.0
H682 H 0.75746 0.96135 0.65202 0.0
H683 H 0.76203 0.92323 0.70133 0.0
C684 C 0.7696 0.86383 0.70055 0.0
C685 C 0.77278 0.83306 0.69677 0.0
C686 C 0.76758 0.88598 0.67232 0.0
C687 C 0.77494 0.82513 0.66391 0.0
C688 C 0.77332 0.84716 0.63558 0.0
C689 C 0.76682 0.89967 0.61137 0.0
C690 C 0.7624 0.92989 0.6158 0.0
C691 C 0.76935 0.87758 0.63952 0.0
C692 C 0.7608 0.93808 0.64835 0.0
C693 C 0.76345 0.91634 0.6764 0.0
H694 H 0.69393 0.31283 0.21759 0.0
H695 H 0.59304 0.23693 0.27805 0.0
H696 H 0.56196 0.23391 0.22799 0.0
H697 H 0.56214 0.25424 0.16782 0.0
H698 H 0.66381 0.32933 0.10654 0.0
H699 H 0.69569 0.33146 0.15613 0.0
C700 C 0.66537 0.29544 0.21955 0.0
C701 C 0.64595 0.27495 0.25128 0.0
C702 C 0.64766 0.29387 0.19065 0.0
C703 C 0.60869 0.25277 0.25379 0.0
C704 C 0.59088 0.25109 0.22522 0.0
C705 C 0.5916 0.27072 0.16504 0.0
C706 C 0.61039 0.29165 0.13338 0.0
C707 C 0.60996 0.27166 0.19359 0.0
C708 C 0.64825 0.31326 0.13066 0.0
C709 C 0.66667 0.31439 0.15898 0.0
H710 H 0.26473 0.25903 0.64543 0.0
H711 H 0.19134 0.19921 0.74034 0.0
H712 H 0.1847 0.15243 0.71324 0.0
H713 H 0.20197 0.12815 0.66322 0.0
H714 H 0.27823 0.1872 0.56889 0.0
H715 H 0.28192 0.2345 0.59495 0.0
C716 C 0.24697 0.23575 0.6599 0.0
C717 C 0.22831 0.23245 0.69469 0.0
C718 C 0.24418 0.2088 0.64435 0.0
C719 C 0.20586 0.20219 0.71348 0.0
C720 C 0.20214 0.17548 0.69803 0.0
C721 C 0.21913 0.15142 0.6483 0.0
C722 C 0.2398 0.15414 0.61418 0.0
C723 C 0.2215 0.17842 0.66359 0.0
C724 C 0.26238 0.18442 0.59532 0.0
C725 C 0.26433 0.2115 0.61016 0.0
H726 H 0.37279 0.80782 0.25385 0.0
H727 H 0.28336 0.8202 0.19418 0.0
H728 H 0.32758 0.81377 0.14265 0.0
H729 H 0.3924 0.80537 0.11423 0.0
H730 H 0.48157 0.79272 0.17375 0.0
H731 H 0.43673 0.798 0.22583 0.0
C732 C 0.36273 0.8086 0.2297 0.0
C733 C 0.32435 0.81364 0.22802 0.0
C734 C 0.38833 0.80483 0.20018 0.0
C735 C 0.31236 0.81562 0.19626 0.0
C736 C 0.33768 0.81206 0.16678 0.0
C737 C 0.40165 0.80362 0.13875 0.0
C738 C 0.43989 0.79867 0.14054 0.0
C739 C 0.37574 0.80671 0.16841 0.0
C740 C 0.45207 0.79651 0.17213 0.0
C741 C 0.42652 0.79957 0.20176 0.0
H742 H 0.73627 0.21931 0.41438 0.0
H743 H 0.7613 0.19332 0.3149 0.0
H744 H 0.76223 0.14023 0.34234 0.0
H745 H 0.75607 0.1009 0.39472 0.0
H746 H 0.73108 0.12632 0.49422 0.0
H747 H 0.72983 0.17976 0.46694 0.0
C748 C 0.74223 0.20207 0.39876 0.0
C749 C 0.74861 0.21028 0.36264 0.0
C750 C 0.74251 0.17142 0.41476 0.0
C751 C 0.75584 0.18753 0.34275 0.0
C752 C 0.7565 0.15718 0.35841 0.0
C753 C 0.75025 0.11824 0.41025 0.0
C754 C 0.74374 0.11003 0.44624 0.0
C755 C 0.74975 0.1488 0.39436 0.0
C756 C 0.73612 0.13238 0.4664 0.0
C757 C 0.73554 0.16286 0.45081 0.0
H758 H 0.32876 0.31346 0.81546 0.0
H759 H 0.24772 0.22618 0.877 0.0
H760 H 0.29311 0.22528 0.91733 0.0
H761 H 0.35517 0.24971 0.93546 0.0
H762 H 0.43781 0.3359 0.87254 0.0
H763 H 0.39231 0.33691 0.83256 0.0
C764 C 0.32139 0.29402 0.83743 0.0
C765 C 0.28547 0.26945 0.8428 0.0
C766 C 0.34773 0.29358 0.86039 0.0
C767 C 0.27564 0.24496 0.87197 0.0
C768 C 0.30149 0.2445 0.89506 0.0
C769 C 0.36364 0.26848 0.91275 0.0
C770 C 0.39997 0.29272 0.90721 0.0
C771 C 0.33764 0.26868 0.88951 0.0
C772 C 0.40981 0.31719 0.87791 0.0
C773 C 0.38391 0.31769 0.85483 0.0
H774 H 0.18412 0.83901 0.39309 0.0
H775 H 0.30598 0.83696 0.40099 0.0
H776 H 0.30919 0.87826 0.43604 0.0
H777 H 0.27793 0.91567 0.46336 0.0
H778 H 0.1581 0.92119 0.45102 0.0
H779 H 0.15328 0.87759 0.41957 0.0
C780 C 0.21115 0.84749 0.40283 0.0
C781 C 0.24469 0.83492 0.39472 0.0
C782 C 0.21316 0.87188 0.4222 0.0
C783 C 0.27982 0.84633 0.40699 0.0
C784 C 0.28165 0.86994 0.42697 0.0
C785 C 0.25087 0.90774 0.4535 0.0
C786 C 0.21843 0.92198 0.4599 0.0
C787 C 0.24867 0.88315 0.43445 0.0
C788 C 0.18338 0.91055 0.44731 0.0
C789 C 0.18065 0.88567 0.42896 0.0
H790 H 0.76142 0.78257 0.85281 0.0
H791 H 0.66503 0.78278 0.79772 0.0
H792 H 0.61827 0.78268 0.85077 0.0
H793 H 0.60501 0.7839 0.91278 0.0
H794 H 0.70103 0.78459 0.96805 0.0
H795 H 0.74774 0.78284 0.91527 0.0
C796 C 0.73007 0.78227 0.85257 0.0
C797 C 0.71677 0.78283 0.82135 0.0
C798 C 0.70338 0.78252 0.8832 0.0
C799 C 0.67614 0.78273 0.82134 0.0
C800 C 0.64935 0.78259 0.85167 0.0
C801 C 0.63619 0.78359 0.91305 0.0
C802 C 0.64991 0.78445 0.94386 0.0
C803 C 0.6627 0.78278 0.88267 0.0
C804 C 0.69017 0.78402 0.94436 0.0
C805 C 0.71672 0.783 0.91427 0.0
loop_
_geom_bond_atom_site_label_1
_geom_bond_atom_site_label_2
_geom_bond_distance
_geom_bond_site_symmetry_2
_ccdc_geom_bond_type
H0 C7 0.929 . S
H1 C10 0.930 . S
H2 C12 0.929 . S
H3 C4 0.969 . S
C4 H3 0.969 . S
C4 O5 1.550 . S
C4 H6 0.973 . S
O5 C4 1.550 . S
O5 C11 1.412 . S
H6 C4 0.973 . S
C7 H0 0.929 . S
C7 C8 1.400 . S
C7 C9 1.364 . S
C8 C7 1.400 . S
C8 C12 1.377 . S
C9 C7 1.364 . S
C9 C10 1.374 . S
C10 H1 0.930 . S
C10 C9 1.374 . S
C10 C11 1.383 . S
C11 O5 1.412 . S
C11 C10 1.383 . S
C11 C12 1.394 . S
C12 H2 0.929 . S
C12 C8 1.377 . S
C12 C11 1.394 . S
H13 C20 0.929 . S
H14 C23 0.930 . S
H15 C25 0.929 . S
H16 C17 0.969 . S
C17 H16 0.969 . S
C17 O18 1.550 . S
C17 H19 0.973 . S
O18 C17 1.550 . S
O18 C24 1.412 . S
H19 C17 0.973 . S
C20 H13 0.929 . S
C20 C21 1.400 . S
C20 C22 1.364 . S
C21 C20 1.400 . S
C21 C25 1.377 . S
C22 C20 1.364 . S
C22 C23 1.374 . S
C23 H14 0.930 . S
C23 C22 1.374 . S
C23 C24 1.383 . S
C24 O18 1.412 . S
C24 C23 1.383 . S
C24 C25 1.394 . S
C25 H15 0.929 . S
C25 C21 1.377 . S
C25 C24 1.394 . S
H26 C33 0.929 . S
H27 C36 0.930 . S
H28 C38 0.929 . S
H29 C30 0.969 . S
C30 H29 0.969 . S
C30 O31 1.550 . S
C30 H32 0.973 . S
O31 C30 1.550 . S
O31 C37 1.412 . S
H32 C30 0.973 . S
C33 H26 0.929 . S
C33 C34 1.400 . S
C33 C35 1.364 . S
C34 C33 1.400 . S
C34 C38 1.377 . S
C35 C33 1.364 . S
C35 C36 1.374 . S
C36 H27 0.930 . S
C36 C35 1.374 . S
C36 C37 1.383 . S
C37 O31 1.412 . S
C37 C36 1.383 . S
C37 C38 1.394 . S
C38 H28 0.929 . S
C38 C34 1.377 . S
C38 C37 1.394 . S
H39 C46 0.929 . S
H40 C49 0.930 . S
H41 C51 0.929 . S
H42 C43 0.969 . S
C43 H42 0.969 . S
C43 O44 1.550 . S
C43 H45 0.973 . S
O44 C43 1.550 . S
O44 C50 1.412 . S
H45 C43 0.973 . S
C46 H39 0.929 . S
C46 C47 1.400 . S
C46 C48 1.364 . S
C47 C46 1.400 . S
C47 C51 1.377 . S
C48 C46 1.364 . S
C48 C49 1.374 . S
C49 H40 0.930 . S
C49 C48 1.374 . S
C49 C50 1.383 . S
C50 O44 1.412 . S
C50 C49 1.383 . S
C50 C51 1.394 . S
C51 H41 0.929 . S
C51 C47 1.377 . S
C51 C50 1.394 . S
H52 C59 0.929 . S
H53 C62 0.930 . S
H54 C64 0.929 . S
H55 C56 0.969 . S
C56 H55 0.969 . S
C56 O57 1.550 . S
C56 H58 0.973 . S
O57 C56 1.550 . S
O57 C63 1.412 . S
H58 C56 0.973 . S
C59 H52 0.929 . S
C59 C60 1.400 . S
C59 C61 1.364 . S
C60 C59 1.400 . S
C60 C64 1.377 . S
C61 C59 1.364 . S
C61 C62 1.374 . S
C62 H53 0.930 . S
C62 C61 1.374 . S
C62 C63 1.383 . S
C63 O57 1.412 . S
C63 C62 1.383 . S
C63 C64 1.394 . S
C64 H54 0.929 . S
C64 C60 1.377 . S
C64 C63 1.394 . S
H65 C72 0.929 . S
H66 C75 0.930 . S
H67 C77 0.929 . S
H68 C69 0.969 . S
C69 H68 0.969 . S
C69 O70 1.550 . S
C69 H71 0.973 . S
O70 C69 1.550 . S
O70 C76 1.412 . S
H71 C69 0.973 . S
C72 H65 0.929 . S
C72 C73 1.400 . S
C72 C74 1.364 . S
C73 C72 1.400 . S
C73 C77 1.377 . S
C74 C72 1.364 . S
C74 C75 1.374 . S
C75 H66 0.930 . S
C75 C74 1.374 . S
C75 C76 1.383 . S
C76 O70 1.412 . S
C76 C75 1.383 . S
C76 C77 1.394 . S
C77 H67 0.929 . S
C77 C73 1.377 . S
C77 C76 1.394 . S
H78 C85 0.929 . S
H79 C88 0.930 . S
H80 C90 0.929 . S
H81 C82 0.969 . S
C82 H81 0.969 . S
C82 O83 1.550 . S
C82 H84 0.973 . S
O83 C82 1.550 . S
O83 C89 1.412 . S
H84 C82 0.973 . S
C85 H78 0.929 . S
C85 C86 1.400 . S
C85 C87 1.364 . S
C86 C85 1.400 . S
C86 C90 1.377 . S
C87 C85 1.364 . S
C87 C88 1.374 . S
C88 H79 0.930 . S
C88 C87 1.374 . S
C88 C89 1.383 . S
C89 O83 1.412 . S
C89 C88 1.383 . S
C89 C90 1.394 . S
C90 H80 0.929 . S
C90 C86 1.377 . S
C90 C89 1.394 . S
H91 C98 0.929 . S
H92 C101 0.930 . S
H93 C103 0.929 . S
H94 C95 0.969 . S
C95 H94 0.969 . S
C95 O96 1.550 . S
C95 H97 0.973 . S
O96 C95 1.550 . S
O96 C102 1.412 . S
H97 C95 0.973 . S
C98 H91 0.929 . S
C98 C99 1.400 . S
C98 C100 1.364 . S
C99 C98 1.400 . S
C99 C103 1.377 . S
C100 C98 1.364 . S
C100 C101 1.374 . S
C101 H92 0.930 . S
C101 C100 1.374 . S
C101 C102 1.383 . S
C102 O96 1.412 . S
C102 C101 1.383 . S
C102 C103 1.394 . S
C103 H93 0.929 . S
C103 C99 1.377 . S
C103 C102 1.394 . S
C104 C105 1.443 . S
C104 N108 1.376 . S
C104 C142 1.389 . S
C105 C104 1.443 . S
C105 C106 1.340 . S
C105 H145 0.951 . S
C106 C105 1.340 . S
C106 C107 1.439 1_455 S
C106 H146 0.950 . S
C107 C106 1.439 1_655 S
C107 N108 1.374 1_655 S
C107 C141 1.395 . S
N108 C104 1.376 . S
N108 C107 1.374 1_455 S
N108 Co109 2.008 . S
Co109 N108 2.008 . S
Co109 N110 1.995 1_455 S
Co109 N115 2.008 1_455 S
Co109 N120 1.995 . S
Co109 N125 2.282 . S
Co109 N131 2.282 1_455 S
N110 Co109 1.995 1_655 S
N110 C111 1.376 . S
N110 C114 1.383 . S
C111 N110 1.376 . S
C111 C112 1.446 . S
C111 C141 1.391 . S
C112 C111 1.446 . S
C112 C113 1.339 . S
C112 H147 0.949 . S
C113 C112 1.339 . S
C113 C114 1.439 . S
C113 H148 0.950 . S
C114 N110 1.383 . S
C114 C113 1.439 . S
C114 C143 1.392 . S
N115 Co109 2.008 1_655 S
N115 C116 1.376 . S
N115 C119 1.374 1_655 S
C116 N115 1.376 . S
C116 C117 1.443 . S
C116 C143 1.389 . S
C117 C116 1.443 . S
C117 C118 1.340 . S
C117 H149 0.951 . S
C118 C117 1.340 . S
C118 C119 1.439 1_655 S
C118 H150 0.950 . S
C119 N115 1.374 1_455 S
C119 C118 1.439 1_455 S
C119 C144 1.395 . S
N120 Co109 1.995 . S
N120 C121 1.376 . S
N120 C124 1.383 . S
C121 N120 1.376 . S
C121 C122 1.446 . S
C121 C144 1.391 . S
C122 C121 1.446 . S
C122 C123 1.339 . S
C122 H151 0.949 . S
C123 C122 1.339 . S
C123 C124 1.439 . S
C123 H152 0.950 . S
C124 N120 1.383 . S
C124 C123 1.439 . S
C124 C142 1.392 . S
N125 Co109 2.282 . S
N125 C128 1.332 . S
N125 C130 1.332 . S
C126 C127 1.386 . S
C126 C129 1.388 . S
C127 C126 1.386 . S
C127 C128 1.382 . S
C127 H153 0.950 . S
C128 N125 1.332 . S
C128 C127 1.382 . S
C128 H139 0.952 . S
C129 C126 1.388 . S
C129 C130 1.382 . S
C129 H154 0.950 . S
C130 N125 1.332 . S
C130 C129 1.382 . S
C130 H140 0.948 . S
N131 Co109 2.282 1_655 S
N131 C135 1.332 . S
N131 C136 1.332 . S
C132 C133 1.388 . S
C132 C136 1.382 . S
C132 H155 0.950 . S
C133 C132 1.388 . S
C133 C134 1.386 . S
C134 C133 1.386 . S
C134 C135 1.382 . S
C134 H156 0.950 . S
C135 N131 1.332 . S
C135 C134 1.382 . S
C135 H137 0.952 . S
C136 N131 1.332 . S
C136 C132 1.382 . S
C136 H138 0.948 . S
H137 C135 0.952 . S
H138 C136 0.948 . S
H139 C128 0.952 . S
H140 C130 0.948 . S
C141 C107 1.395 . S
C141 C111 1.391 . S
C142 C104 1.389 . S
C142 C124 1.392 . S
C143 C114 1.392 . S
C143 C116 1.389 . S
C144 C119 1.395 . S
C144 C121 1.391 . S
H145 C105 0.951 . S
H146 C106 0.950 . S
H147 C112 0.949 . S
H148 C113 0.950 . S
H149 C117 0.951 . S
H150 C118 0.950 . S
H151 C122 0.949 . S
H152 C123 0.950 . S
H153 C127 0.950 . S
H154 C129 0.950 . S
H155 C132 0.950 . S
H156 C134 0.950 . S
C157 C158 1.443 . S
C157 N161 1.376 . S
C157 C195 1.389 . S
C158 C157 1.443 . S
C158 C159 1.340 . S
C158 H198 0.951 . S
C159 C158 1.340 . S
C159 C160 1.439 . S
C159 H199 0.950 . S
C160 C159 1.439 . S
C160 N161 1.374 . S
C160 C194 1.395 . S
N161 C157 1.376 . S
N161 C160 1.374 . S
N161 Co162 2.008 . S
Co162 N161 2.008 . S
Co162 N163 1.995 . S
Co162 N168 2.008 . S
Co162 N173 1.995 . S
Co162 N178 2.282 . S
Co162 N184 2.282 . S
N163 Co162 1.995 . S
N163 C164 1.376 . S
N163 C167 1.383 1_455 S
C164 N163 1.376 . S
C164 C165 1.446 1_455 S
C164 C194 1.391 . S
C165 C164 1.446 1_655 S
C165 C166 1.339 . S
C165 H200 0.949 . S
C166 C165 1.339 . S
C166 C167 1.439 . S
C166 H201 0.950 . S
C167 N163 1.383 1_655 S
C167 C166 1.439 . S
C167 C196 1.392 . S
N168 Co162 2.008 . S
N168 C169 1.376 . S
N168 C172 1.374 . S
C169 N168 1.376 . S
C169 C170 1.443 . S
C169 C196 1.389 1_455 S
C170 C169 1.443 . S
C170 C171 1.340 . S
C170 H202 0.951 1_455 S
C171 C170 1.340 . S
C171 C172 1.439 . S
C171 H203 0.950 . S
C172 N168 1.374 . S
C172 C171 1.439 . S
C172 C197 1.395 . S
N173 Co162 1.995 . S
N173 C174 1.376 . S
N173 C177 1.383 . S
C174 N173 1.376 . S
C174 C175 1.446 . S
C174 C197 1.391 . S
C175 C174 1.446 . S
C175 C176 1.339 . S
C175 H204 0.949 . S
C176 C175 1.339 . S
C176 C177 1.439 . S
C176 H205 0.950 . S
C177 N173 1.383 . S
C177 C176 1.439 . S
C177 C195 1.392 . S
N178 Co162 2.282 . S
N178 C181 1.332 . S
N178 C183 1.332 . S
C179 C180 1.386 . S
C179 C182 1.388 . S
C180 C179 1.386 . S
C180 C181 1.382 . S
C180 H206 0.950 . S
C181 N178 1.332 . S
C181 C180 1.382 . S
C181 H192 0.952 . S
C182 C179 1.388 . S
C182 C183 1.382 . S
C182 H207 0.950 . S
C183 N178 1.332 . S
C183 C182 1.382 . S
C183 H193 0.948 . S
N184 Co162 2.282 . S
N184 C188 1.332 1_455 S
N184 C189 1.332 . S
C185 C186 1.389 1_455 S
C185 C189 1.381 . S
C185 H208 0.950 . S
C186 C185 1.389 1_655 S
C186 C187 1.386 . S
C187 C186 1.386 . S
C187 C188 1.382 . S
C187 H209 0.950 . S
C188 N184 1.332 1_655 S
C188 C187 1.382 . S
C188 H190 0.952 . S
C189 N184 1.332 . S
C189 C185 1.381 . S
C189 H191 0.948 . S
H190 C188 0.952 . S
H191 C189 0.948 . S
H192 C181 0.952 . S
H193 C183 0.948 . S
C194 C160 1.395 . S
C194 C164 1.391 . S
C195 C157 1.389 . S
C195 C177 1.392 . S
C196 C167 1.392 . S
C196 C169 1.389 1_655 S
C197 C172 1.395 . S
C197 C174 1.391 . S
H198 C158 0.951 . S
H199 C159 0.950 . S
H200 C165 0.949 . S
H201 C166 0.950 . S
H202 C170 0.951 1_655 S
H203 C171 0.950 . S
H204 C175 0.949 . S
H205 C176 0.950 . S
H206 C180 0.950 . S
H207 C182 0.950 . S
H208 C185 0.950 . S
H209 C187 0.950 . S
C210 C211 1.443 . S
C210 N214 1.376 . S
C210 C248 1.389 . S
C211 C210 1.443 . S
C211 C212 1.340 . S
C211 H251 0.951 . S
C212 C211 1.340 . S
C212 C213 1.439 1_565 S
C212 H252 0.950 . S
C213 C212 1.439 1_545 S
C213 N214 1.374 1_545 S
C213 C247 1.395 . S
N214 C210 1.376 . S
N214 C213 1.374 1_565 S
N214 Co215 2.008 1_565 S
Co215 N214 2.008 1_545 S
Co215 N216 1.995 . S
Co215 N221 2.008 . S
Co215 N226 1.995 1_545 S
Co215 N231 2.282 . S
Co215 N237 2.282 1_545 S
N216 Co215 1.995 . S
N216 C217 1.376 . S
N216 C220 1.383 . S
C217 N216 1.376 . S
C217 C218 1.446 . S
C217 C247 1.391 . S
C218 C217 1.446 . S
C218 C219 1.339 . S
C218 H253 0.949 . S
C219 C218 1.339 . S
C219 C220 1.439 . S
C219 H254 0.950 . S
C220 N216 1.383 . S
C220 C219 1.439 . S
C220 C249 1.392 . S
N221 Co215 2.008 . S
N221 C222 1.376 . S
N221 C225 1.374 . S
C222 N221 1.376 . S
C222 C223 1.443 . S
C222 C249 1.389 . S
C223 C222 1.443 . S
C223 C224 1.340 . S
C223 H255 0.951 . S
C224 C223 1.340 . S
C224 C225 1.439 . S
C224 H256 0.950 . S
C225 N221 1.374 . S
C225 C224 1.439 . S
C225 C250 1.395 1_545 S
N226 Co215 1.995 1_565 S
N226 C227 1.376 . S
N226 C230 1.383 . S
C227 N226 1.376 . S
C227 C228 1.446 . S
C227 C250 1.391 . S
C228 C227 1.446 . S
C228 C229 1.339 . S
C228 H257 0.949 . S
C229 C228 1.339 . S
C229 C230 1.439 . S
C229 H258 0.950 . S
C230 N226 1.383 . S
C230 C229 1.439 . S
C230 C248 1.392 . S
N231 Co215 2.282 . S
N231 C234 1.332 . S
N231 C236 1.332 . S
C232 C233 1.386 . S
C232 C235 1.388 . S
C233 C232 1.386 . S
C233 C234 1.382 . S
C233 H259 0.950 . S
C234 N231 1.332 . S
C234 C233 1.382 . S
C234 H245 0.952 . S
C235 C232 1.388 . S
C235 C236 1.382 . S
C235 H260 0.950 . S
C236 N231 1.332 . S
C236 C235 1.382 . S
C236 H246 0.948 . S
N237 Co215 2.282 1_565 S
N237 C241 1.332 . S
N237 C242 1.332 . S
C238 C239 1.388 . S
C238 C242 1.382 . S
C238 H261 0.950 . S
C239 C238 1.388 . S
C239 C240 1.386 . S
C240 C239 1.386 . S
C240 C241 1.382 . S
C240 H262 0.950 . S
C241 N237 1.332 . S
C241 C240 1.382 . S
C241 H243 0.952 . S
C242 N237 1.332 . S
C242 C238 1.382 . S
C242 H244 0.948 . S
H243 C241 0.952 . S
H244 C242 0.948 . S
H245 C234 0.952 . S
H246 C236 0.948 . S
C247 C213 1.395 . S
C247 C217 1.391 . S
C248 C210 1.389 . S
C248 C230 1.392 . S
C249 C220 1.392 . S
C249 C222 1.389 . S
C250 C225 1.395 1_565 S
C250 C227 1.391 . S
H251 C211 0.951 . S
H252 C212 0.950 . S
H253 C218 0.949 . S
H254 C219 0.950 . S
H255 C223 0.951 . S
H256 C224 0.950 . S
H257 C228 0.949 . S
H258 C229 0.950 . S
H259 C233 0.950 . S
H260 C235 0.950 . S
H261 C238 0.950 . S
H262 C240 0.950 . S
C263 C264 1.443 . S
C263 N267 1.376 . S
C263 C301 1.389 . S
C264 C263 1.443 . S
C264 C265 1.340 . S
C264 H304 0.951 . S
C265 C264 1.340 . S
C265 C266 1.439 . S
C265 H305 0.950 . S
C266 C265 1.439 . S
C266 N267 1.374 . S
C266 C300 1.395 . S
N267 C263 1.376 . S
N267 C266 1.374 . S
N267 Co268 2.008 . S
Co268 N267 2.008 . S
Co268 N269 1.995 1_554 S
Co268 N274 2.008 . S
Co268 N279 1.995 . S
Co268 N284 2.282 1_554 S
Co268 N290 2.282 . S
N269 Co268 1.995 1_556 S
N269 C270 1.376 . S
N269 C273 1.383 . S
C270 N269 1.376 . S
C270 C271 1.446 . S
C270 C300 1.391 1_556 S
C271 C270 1.446 . S
C271 C272 1.339 . S
C271 H306 0.949 . S
C272 C271 1.339 . S
C272 C273 1.439 . S
C272 H307 0.950 . S
C273 N269 1.383 . S
C273 C272 1.439 . S
C273 C302 1.392 . S
N274 Co268 2.008 . S
N274 C275 1.376 1_554 S
N274 C278 1.374 . S
C275 N274 1.376 1_556 S
C275 C276 1.443 . S
C275 C302 1.389 . S
C276 C275 1.443 . S
C276 C277 1.340 . S
C276 H308 0.951 . S
C277 C276 1.340 . S
C277 C278 1.439 1_556 S
C277 H309 0.950 . S
C278 N274 1.374 . S
C278 C277 1.439 1_554 S
C278 C303 1.395 . S
N279 Co268 1.995 . S
N279 C280 1.376 . S
N279 C283 1.383 . S
C280 N279 1.376 . S
C280 C281 1.446 . S
C280 C303 1.391 . S
C281 C280 1.446 . S
C281 C282 1.339 . S
C281 H310 0.949 . S
C282 C281 1.339 . S
C282 C283 1.439 . S
C282 H311 0.950 . S
C283 N279 1.383 . S
C283 C282 1.439 . S
C283 C301 1.392 . S
N284 Co268 2.282 1_556 S
N284 C287 1.332 . S
N284 C289 1.332 . S
C285 C286 1.386 . S
C285 C288 1.388 . S
C286 C285 1.386 . S
C286 C287 1.382 . S
C286 H312 0.950 . S
C287 N284 1.332 . S
C287 C286 1.382 . S
C287 H298 0.952 1_556 S
C288 C285 1.388 . S
C288 C289 1.382 . S
C288 H313 0.950 . S
C289 N284 1.332 . S
C289 C288 1.382 . S
C289 H299 0.948 . S
N290 Co268 2.282 . S
N290 C294 1.332 . S
N290 C295 1.332 . S
C291 C292 1.388 . S
C291 C295 1.382 . S
C291 H314 0.950 . S
C292 C291 1.388 . S
C292 C293 1.386 . S
C293 C292 1.386 . S
C293 C294 1.382 . S
C293 H315 0.950 . S
C294 N290 1.332 . S
C294 C293 1.382 . S
C294 H296 0.952 . S
C295 N290 1.332 . S
C295 C291 1.382 . S
C295 H297 0.948 . S
H296 C294 0.952 . S
H297 C295 0.948 . S
H298 C287 0.952 1_554 S
H299 C289 0.948 . S
C300 C266 1.395 . S
C300 C270 1.391 1_554 S
C301 C263 1.389 . S
C301 C283 1.392 . S
C302 C273 1.392 . S
C302 C275 1.389 . S
C303 C278 1.395 . S
C303 C280 1.391 . S
H304 C264 0.951 . S
H305 C265 0.950 . S
H306 C271 0.949 . S
H307 C272 0.950 . S
H308 C276 0.951 . S
H309 C277 0.950 . S
H310 C281 0.949 . S
H311 C282 0.950 . S
H312 C286 0.950 . S
H313 C288 0.950 . S
H314 C291 0.950 . S
H315 C293 0.950 . S
C316 C317 1.443 . S
C316 N320 1.376 . S
C316 C354 1.389 . S
C317 C316 1.443 . S
C317 C318 1.340 . S
C317 H357 0.951 . S
C318 C317 1.340 . S
C318 C319 1.439 . S
C318 H358 0.950 . S
C319 C318 1.439 . S
C319 N320 1.374 . S
C319 C353 1.395 1_565 S
N320 C316 1.376 . S
N320 C319 1.374 . S
N320 Co321 1.988 1_565 S
Co321 N320 1.988 1_545 S
Co321 N322 2.012 . S
Co321 N327 2.029 . S
Co321 N332 1.978 1_545 S
Co321 N337 2.315 . S
Co321 N343 2.251 1_545 S
N322 Co321 2.012 . S
N322 C323 1.376 . S
N322 C326 1.383 . S
C323 N322 1.376 . S
C323 C324 1.446 . S
C323 C353 1.391 . S
C324 C323 1.446 . S
C324 C325 1.339 . S
C324 H359 0.949 . S
C325 C324 1.339 . S
C325 C326 1.439 . S
C325 H360 0.950 . S
C326 N322 1.383 . S
C326 C325 1.439 . S
C326 C355 1.392 . S
N327 Co321 2.029 . S
N327 C328 1.376 . S
N327 C331 1.374 . S
C328 N327 1.376 . S
C328 C329 1.443 . S
C328 C355 1.389 . S
C329 C328 1.443 . S
C329 C330 1.340 . S
C329 H361 0.951 . S
C330 C329 1.340 . S
C330 C331 1.439 . S
C330 H362 0.950 . S
C331 N327 1.374 . S
C331 C330 1.439 . S
C331 C356 1.395 1_545 S
N332 Co321 1.978 1_565 S
N332 C333 1.376 . S
N332 C336 1.383 . S
C333 N332 1.376 . S
C333 C334 1.446 . S
C333 C356 1.391 . S
C334 C333 1.446 . S
C334 C335 1.339 . S
C334 H363 0.949 . S
C335 C334 1.339 . S
C335 C336 1.439 . S
C335 H364 0.950 . S
C336 N332 1.383 . S
C336 C335 1.439 . S
C336 C354 1.392 . S
N337 Co321 2.315 . S
N337 C340 1.332 . S
N337 C342 1.332 . S
C338 C339 1.386 . S
C338 C341 1.388 . S
C339 C338 1.386 . S
C339 C340 1.382 . S
C339 H365 0.950 . S
C340 N337 1.332 . S
C340 C339 1.382 . S
C340 H351 0.952 . S
C341 C338 1.388 . S
C341 C342 1.382 . S
C341 H366 0.950 . S
C342 N337 1.332 . S
C342 C341 1.382 . S
C342 H352 0.948 . S
N343 Co321 2.251 1_565 S
N343 C347 1.332 . S
N343 C348 1.332 . S
C344 C345 1.388 . S
C344 C348 1.382 . S
C344 H367 0.950 . S
C345 C344 1.388 . S
C345 C346 1.386 . S
C346 C345 1.386 . S
C346 C347 1.382 . S
C346 H368 0.950 . S
C347 N343 1.332 . S
C347 C346 1.382 . S
C347 H349 0.952 . S
C348 N343 1.332 . S
C348 C344 1.382 . S
C348 H350 0.948 . S
H349 C347 0.952 . S
H350 C348 0.948 . S
H351 C340 0.952 . S
H352 C342 0.948 . S
C353 C319 1.395 1_545 S
C353 C323 1.391 . S
C354 C316 1.389 . S
C354 C336 1.392 . S
C355 C326 1.392 . S
C355 C328 1.389 . S
C356 C331 1.395 1_565 S
C356 C333 1.391 . S
H357 C317 0.951 . S
H358 C318 0.950 . S
H359 C324 0.949 . S
H360 C325 0.950 . S
H361 C329 0.951 . S
H362 C330 0.950 . S
H363 C334 0.949 . S
H364 C335 0.950 . S
H365 C339 0.950 . S
H366 C341 0.950 . S
H367 C344 0.950 . S
H368 C346 0.950 . S
C369 C370 1.443 . S
C369 N373 1.376 . S
C369 C407 1.389 . S
C370 C369 1.443 . S
C370 C371 1.340 . S
C370 H410 0.951 . S
C371 C370 1.340 . S
C371 C372 1.439 . S
C371 H411 0.950 . S
C372 C371 1.439 . S
C372 N373 1.374 . S
C372 C406 1.395 1_554 S
N373 C369 1.376 . S
N373 C372 1.374 . S
N373 Co374 2.015 . S
Co374 N373 2.015 . S
Co374 N375 1.989 1_554 S
Co374 N380 2.001 1_554 S
Co374 N385 2.000 . S
Co374 N390 2.274 1_554 S
Co374 N396 2.291 . S
N375 Co374 1.989 1_556 S
N375 C376 1.376 . S
N375 C379 1.383 . S
C376 N375 1.376 . S
C376 C377 1.446 . S
C376 C406 1.391 . S
C377 C376 1.446 . S
C377 C378 1.339 . S
C377 H412 0.949 . S
C378 C377 1.339 . S
C378 C379 1.439 . S
C378 H413 0.950 . S
C379 N375 1.383 . S
C379 C378 1.439 . S
C379 C408 1.392 . S
N380 Co374 2.001 1_556 S
N380 C381 1.376 . S
N380 C384 1.374 . S
C381 N380 1.376 . S
C381 C382 1.443 . S
C381 C408 1.389 . S
C382 C381 1.443 . S
C382 C383 1.340 . S
C382 H414 0.951 . S
C383 C382 1.340 . S
C383 C384 1.439 . S
C383 H415 0.950 . S
C384 N380 1.374 . S
C384 C383 1.439 . S
C384 C409 1.395 1_556 S
N385 Co374 2.000 . S
N385 C386 1.376 . S
N385 C389 1.383 . S
C386 N385 1.376 . S
C386 C387 1.446 . S
C386 C409 1.391 . S
C387 C386 1.446 . S
C387 C388 1.339 . S
C387 H416 0.949 . S
C388 C387 1.339 . S
C388 C389 1.439 . S
C388 H417 0.950 . S
C389 N385 1.383 . S
C389 C388 1.439 . S
C389 C407 1.392 . S
N390 Co374 2.274 1_556 S
N390 C393 1.332 . S
N390 C395 1.332 . S
C391 C392 1.386 . S
C391 C394 1.388 . S
C392 C391 1.386 . S
C392 C393 1.382 . S
C392 H418 0.950 . S
C393 N390 1.332 . S
C393 C392 1.382 . S
C393 H404 0.952 . S
C394 C391 1.388 . S
C394 C395 1.382 . S
C394 H419 0.950 . S
C395 N390 1.332 . S
C395 C394 1.382 . S
C395 H405 0.948 . S
N396 Co374 2.291 . S
N396 C400 1.332 . S
N396 C401 1.332 . S
C397 C398 1.388 . S
C397 C401 1.382 . S
C397 H420 0.950 . S
C398 C397 1.388 . S
C398 C399 1.386 . S
C399 C398 1.386 . S
C399 C400 1.382 . S
C399 H421 0.950 . S
C400 N396 1.332 . S
C400 C399 1.382 . S
C400 H402 0.952 . S
C401 N396 1.332 . S
C401 C397 1.382 . S
C401 H403 0.948 . S
H402 C400 0.952 . S
H403 C401 0.948 . S
H404 C393 0.952 . S
H405 C395 0.948 . S
C406 C372 1.395 1_556 S
C406 C376 1.391 . S
C407 C369 1.389 . S
C407 C389 1.392 . S
C408 C379 1.392 . S
C408 C381 1.389 . S
C409 C384 1.395 1_554 S
C409 C386 1.391 . S
H410 C370 0.951 . S
H411 C371 0.950 . S
H412 C377 0.949 . S
H413 C378 0.950 . S
H414 C382 0.951 . S
H415 C383 0.950 . S
H416 C387 0.949 . S
H417 C388 0.950 . S
H418 C392 0.950 . S
H419 C394 0.950 . S
H420 C397 0.950 . S
H421 C399 0.950 . S
H422 C428 0.930 . S
H423 C431 0.930 . S
H424 C432 0.930 . S
H425 C433 0.930 . S
H426 C436 0.930 . S
H427 C437 0.930 . S
C428 H422 0.930 . S
C428 C429 1.355 . S
C428 C430 1.415 . S
C429 C428 1.355 . S
C429 C431 1.419 . S
C430 C428 1.415 . S
C430 C435 1.425 . S
C430 C437 1.409 . S
C431 H423 0.930 . S
C431 C429 1.419 . S
C431 C432 1.362 . S
C432 H424 0.930 . S
C432 C431 1.362 . S
C432 C435 1.409 . S
C433 H425 0.930 . S
C433 C434 1.355 . S
C433 C435 1.415 . S
C434 C433 1.355 . S
C434 C436 1.419 . S
C435 C430 1.425 . S
C435 C432 1.409 . S
C435 C433 1.415 . S
C436 H426 0.930 . S
C436 C434 1.419 . S
C436 C437 1.362 . S
C437 H427 0.930 . S
C437 C430 1.409 . S
C437 C436 1.362 . S
H438 C444 0.930 . S
H439 C447 0.930 . S
H440 C448 0.930 . S
H441 C449 0.930 . S
H442 C452 0.930 . S
H443 C453 0.930 . S
C444 H438 0.930 . S
C444 C445 1.355 . S
C444 C446 1.415 . S
C445 C444 1.355 . S
C445 C447 1.419 . S
C446 C444 1.415 . S
C446 C451 1.425 . S
C446 C453 1.409 . S
C447 H439 0.930 . S
C447 C445 1.419 . S
C447 C448 1.362 . S
C448 H440 0.930 . S
C448 C447 1.362 . S
C448 C451 1.409 . S
C449 H441 0.930 . S
C449 C450 1.355 . S
C449 C451 1.415 . S
C450 C449 1.355 . S
C450 C452 1.419 . S
C451 C446 1.425 . S
C451 C448 1.409 . S
C451 C449 1.415 . S
C452 H442 0.930 . S
C452 C450 1.419 . S
C452 C453 1.362 . S
C453 H443 0.930 . S
C453 C446 1.409 . S
C453 C452 1.362 . S
H454 C460 0.930 . S
H455 C463 0.930 . S
H456 C464 0.930 . S
H457 C465 0.930 . S
H458 C468 0.930 . S
H459 C469 0.930 . S
C460 H454 0.930 . S
C460 C461 1.355 . S
C460 C462 1.415 . S
C461 C460 1.355 . S
C461 C463 1.419 . S
C462 C460 1.415 . S
C462 C467 1.425 . S
C462 C469 1.409 . S
C463 H455 0.930 . S
C463 C461 1.419 . S
C463 C464 1.362 . S
C464 H456 0.930 . S
C464 C463 1.362 . S
C464 C467 1.409 . S
C465 H457 0.930 . S
C465 C466 1.355 . S
C465 C467 1.415 . S
C466 C465 1.355 . S
C466 C468 1.419 . S
C467 C462 1.425 . S
C467 C464 1.409 . S
C467 C465 1.415 . S
C468 H458 0.930 . S
C468 C466 1.419 . S
C468 C469 1.362 . S
C469 H459 0.930 . S
C469 C462 1.409 . S
C469 C468 1.362 . S
H470 C476 0.930 . S
H471 C479 0.930 . S
H472 C480 0.930 . S
H473 C481 0.930 . S
H474 C484 0.930 . S
H475 C485 0.930 . S
C476 H470 0.930 . S
C476 C477 1.355 . S
C476 C478 1.415 . S
C477 C476 1.355 . S
C477 C479 1.419 . S
C478 C476 1.415 . S
C478 C483 1.425 . S
C478 C485 1.409 . S
C479 H471 0.930 . S
C479 C477 1.419 . S
C479 C480 1.362 . S
C480 H472 0.930 . S
C480 C479 1.362 . S
C480 C483 1.409 . S
C481 H473 0.930 . S
C481 C482 1.355 . S
C481 C483 1.415 . S
C482 C481 1.355 . S
C482 C484 1.419 . S
C483 C478 1.425 . S
C483 C480 1.409 . S
C483 C481 1.415 . S
C484 H474 0.930 . S
C484 C482 1.419 . S
C484 C485 1.362 . S
C485 H475 0.930 . S
C485 C478 1.409 . S
C485 C484 1.362 . S
H486 C492 0.930 . S
H487 C495 0.930 . S
H488 C496 0.930 . S
H489 C497 0.930 . S
H490 C500 0.930 . S
H491 C501 0.930 . S
C492 H486 0.930 . S
C492 C493 1.355 . S
C492 C494 1.415 . S
C493 C492 1.355 . S
C493 C495 1.419 . S
C494 C492 1.415 . S
C494 C499 1.425 . S
C494 C501 1.409 . S
C495 H487 0.930 . S
C495 C493 1.419 . S
C495 C496 1.362 . S
C496 H488 0.930 . S
C496 C495 1.362 . S
C496 C499 1.409 . S
C497 H489 0.930 . S
C497 C498 1.355 . S
C497 C499 1.415 . S
C498 C497 1.355 . S
C498 C500 1.419 . S
C499 C494 1.425 . S
C499 C496 1.409 . S
C499 C497 1.415 . S
C500 H490 0.930 . S
C500 C498 1.419 . S
C500 C501 1.362 . S
C501 H491 0.930 . S
C501 C494 1.409 . S
C501 C500 1.362 . S
H502 C508 0.930 . S
H503 C511 0.930 . S
H504 C512 0.930 . S
H505 C513 0.930 . S
H506 C516 0.930 . S
H507 C517 0.930 . S
C508 H502 0.930 . S
C508 C509 1.355 . S
C508 C510 1.415 . S
C509 C508 1.355 . S
C509 C511 1.419 . S
C510 C508 1.415 . S
C510 C515 1.425 . S
C510 C517 1.409 . S
C511 H503 0.930 . S
C511 C509 1.419 . S
C511 C512 1.362 . S
C512 H504 0.930 . S
C512 C511 1.362 . S
C512 C515 1.409 . S
C513 H505 0.930 . S
C513 C514 1.355 . S
C513 C515 1.415 . S
C514 C513 1.355 . S
C514 C516 1.419 . S
C515 C510 1.425 . S
C515 C512 1.409 . S
C515 C513 1.415 . S
C516 H506 0.930 . S
C516 C514 1.419 . S
C516 C517 1.362 . S
C517 H507 0.930 . S
C517 C510 1.409 . S
C517 C516 1.362 . S
H518 C524 0.930 . S
H519 C527 0.930 . S
H520 C528 0.930 . S
H521 C529 0.930 . S
H522 C532 0.930 . S
H523 C533 0.930 . S
C524 H518 0.930 . S
C524 C525 1.355 . S
C524 C526 1.415 . S
C525 C524 1.355 . S
C525 C527 1.419 . S
C526 C524 1.415 . S
C526 C531 1.425 . S
C526 C533 1.409 . S
C527 H519 0.930 . S
C527 C525 1.419 . S
C527 C528 1.362 . S
C528 H520 0.930 . S
C528 C527 1.362 . S
C528 C531 1.409 . S
C529 H521 0.930 . S
C529 C530 1.355 . S
C529 C531 1.415 . S
C530 C529 1.355 . S
C530 C532 1.419 . S
C531 C526 1.425 . S
C531 C528 1.409 . S
C531 C529 1.415 . S
C532 H522 0.930 . S
C532 C530 1.419 . S
C532 C533 1.362 . S
C533 H523 0.930 . S
C533 C526 1.409 . S
C533 C532 1.362 . S
H534 C540 0.930 . S
H535 C543 0.930 . S
H536 C544 0.930 . S
H537 C545 0.930 . S
H538 C548 0.930 . S
H539 C549 0.930 . S
C540 H534 0.930 . S
C540 C541 1.355 . S
C540 C542 1.415 . S
C541 C540 1.355 . S
C541 C543 1.419 . S
C542 C540 1.415 . S
C542 C547 1.425 . S
C542 C549 1.409 . S
C543 H535 0.930 . S
C543 C541 1.419 . S
C543 C544 1.362 . S
C544 H536 0.930 . S
C544 C543 1.362 . S
C544 C547 1.409 . S
C545 H537 0.930 . S
C545 C546 1.355 . S
C545 C547 1.415 . S
C546 C545 1.355 . S
C546 C548 1.419 . S
C547 C542 1.425 . S
C547 C544 1.409 . S
C547 C545 1.415 . S
C548 H538 0.930 . S
C548 C546 1.419 . S
C548 C549 1.362 . S
C549 H539 0.930 . S
C549 C542 1.409 . S
C549 C548 1.362 . S
H550 C556 0.930 . S
H551 C559 0.930 . S
H552 C560 0.930 . S
H553 C561 0.930 . S
H554 C564 0.930 . S
H555 C565 0.930 . S
C556 H550 0.930 . S
C556 C557 1.355 . S
C556 C558 1.415 . S
C557 C556 1.355 . S
C557 C559 1.419 . S
C558 C556 1.415 . S
C558 C563 1.425 . S
C558 C565 1.409 . S
C559 H551 0.930 . S
C559 C557 1.419 . S
C559 C560 1.362 . S
C560 H552 0.930 . S
C560 C559 1.362 . S
C560 C563 1.409 . S
C561 H553 0.930 . S
C561 C562 1.355 . S
C561 C563 1.415 . S
C562 C561 1.355 . S
C562 C564 1.419 . S
C563 C558 1.425 . S
C563 C560 1.409 . S
C563 C561 1.415 . S
C564 H554 0.930 . S
C564 C562 1.419 . S
C564 C565 1.362 . S
C565 H555 0.930 . S
C565 C558 1.409 . S
C565 C564 1.362 . S
H566 C572 0.930 . S
H567 C575 0.930 . S
H568 C576 0.930 . S
H569 C577 0.930 . S
H570 C580 0.930 . S
H571 C581 0.930 . S
C572 H566 0.930 . S
C572 C573 1.355 . S
C572 C574 1.415 . S
C573 C572 1.355 . S
C573 C575 1.419 . S
C574 C572 1.415 . S
C574 C579 1.425 . S
C574 C581 1.409 . S
C575 H567 0.930 . S
C575 C573 1.419 . S
C575 C576 1.362 . S
C576 H568 0.930 . S
C576 C575 1.362 . S
C576 C579 1.409 . S
C577 H569 0.930 . S
C577 C578 1.355 . S
C577 C579 1.415 . S
C578 C577 1.355 . S
C578 C580 1.419 . S
C579 C574 1.425 . S
C579 C576 1.409 . S
C579 C577 1.415 . S
C580 H570 0.930 . S
C580 C578 1.419 . S
C580 C581 1.362 . S
C581 H571 0.930 . S
C581 C574 1.409 . S
C581 C580 1.362 . S
H582 C588 0.930 . S
H583 C591 0.930 . S
H584 C592 0.930 . S
H585 C593 0.930 . S
H586 C596 0.930 . S
H587 C597 0.930 . S
C588 H582 0.930 . S
C588 C589 1.355 . S
C588 C590 1.415 . S
C589 C588 1.355 . S
C589 C591 1.419 . S
C590 C588 1.415 . S
C590 C595 1.425 . S
C590 C597 1.409 . S
C591 H583 0.930 . S
C591 C589 1.419 . S
C591 C592 1.362 . S
C592 H584 0.930 . S
C592 C591 1.362 . S
C592 C595 1.409 . S
C593 H585 0.930 . S
C593 C594 1.355 . S
C593 C595 1.415 . S
C594 C593 1.355 . S
C594 C596 1.419 . S
C595 C590 1.425 . S
C595 C592 1.409 . S
C595 C593 1.415 . S
C596 H586 0.930 . S
C596 C594 1.419 . S
C596 C597 1.362 . S
C597 H587 0.930 . S
C597 C590 1.409 . S
C597 C596 1.362 . S
H598 C604 0.930 . S
H599 C607 0.930 . S
H600 C608 0.930 . S
H601 C609 0.930 . S
H602 C612 0.930 . S
H603 C613 0.930 . S
C604 H598 0.930 . S
C604 C605 1.355 . S
C604 C606 1.415 . S
C605 C604 1.355 . S
C605 C607 1.419 . S
C606 C604 1.415 . S
C606 C611 1.425 . S
C606 C613 1.409 . S
C607 H599 0.930 . S
C607 C605 1.419 . S
C607 C608 1.362 . S
C608 H600 0.930 . S
C608 C607 1.362 . S
C608 C611 1.409 . S
C609 H601 0.930 . S
C609 C610 1.355 . S
C609 C611 1.415 . S
C610 C609 1.355 . S
C610 C612 1.419 . S
C611 C606 1.425 . S
C611 C608 1.409 . S
C611 C609 1.415 . S
C612 H602 0.930 . S
C612 C610 1.419 . S
C612 C613 1.362 . S
C613 H603 0.930 . S
C613 C606 1.409 . S
C613 C612 1.362 . S
H614 C620 0.930 . S
H615 C623 0.930 . S
H616 C624 0.930 . S
H617 C625 0.930 . S
H618 C628 0.930 1_455 S
H619 C629 0.930 . S
C620 H614 0.930 . S
C620 C621 1.355 . S
C620 C622 1.415 . S
C621 C620 1.355 . S
C621 C623 1.419 . S
C622 C620 1.415 . S
C622 C627 1.425 . S
C622 C629 1.409 . S
C623 H615 0.930 . S
C623 C621 1.419 . S
C623 C624 1.362 . S
C624 H616 0.930 . S
C624 C623 1.362 . S
C624 C627 1.409 . S
C625 H617 0.930 . S
C625 C626 1.355 . S
C625 C627 1.415 . S
C626 C625 1.355 . S
C626 C628 1.419 . S
C627 C622 1.425 . S
C627 C624 1.409 . S
C627 C625 1.415 . S
C628 H618 0.930 1_655 S
C628 C626 1.419 . S
C628 C629 1.362 . S
C629 H619 0.930 . S
C629 C622 1.409 . S
C629 C628 1.362 . S
H630 C636 0.930 . S
H631 C639 0.930 . S
H632 C640 0.930 . S
H633 C641 0.930 . S
H634 C644 0.930 . S
H635 C645 0.930 . S
C636 H630 0.930 . S
C636 C637 1.355 . S
C636 C638 1.415 . S
C637 C636 1.355 . S
C637 C639 1.419 . S
C638 C636 1.415 . S
C638 C643 1.425 . S
C638 C645 1.409 . S
C639 H631 0.930 . S
C639 C637 1.419 . S
C639 C640 1.362 . S
C640 H632 0.930 . S
C640 C639 1.362 . S
C640 C643 1.409 . S
C641 H633 0.930 . S
C641 C642 1.355 . S
C641 C643 1.415 . S
C642 C641 1.355 . S
C642 C644 1.419 . S
C643 C638 1.425 . S
C643 C640 1.409 . S
C643 C641 1.415 . S
C644 H634 0.930 . S
C644 C642 1.419 . S
C644 C645 1.362 . S
C645 H635 0.930 . S
C645 C638 1.409 . S
C645 C644 1.362 . S
H646 C652 0.930 . S
H647 C655 0.930 . S
H648 C656 0.930 . S
H649 C657 0.930 . S
H650 C660 0.930 . S
H651 C661 0.930 . S
C652 H646 0.930 . S
C652 C653 1.355 . S
C652 C654 1.415 . S
C653 C652 1.355 . S
C653 C655 1.419 . S
C654 C652 1.415 . S
C654 C659 1.425 . S
C654 C661 1.409 . S
C655 H647 0.930 . S
C655 C653 1.419 . S
C655 C656 1.362 . S
C656 H648 0.930 . S
C656 C655 1.362 . S
C656 C659 1.409 . S
C657 H649 0.930 . S
C657 C658 1.355 . S
C657 C659 1.415 . S
C658 C657 1.355 . S
C658 C660 1.419 . S
C659 C654 1.425 . S
C659 C656 1.409 . S
C659 C657 1.415 . S
C660 H650 0.930 . S
C660 C658 1.419 . S
C660 C661 1.362 . S
C661 H651 0.930 . S
C661 C654 1.409 . S
C661 C660 1.362 . S
H662 C668 0.930 . S
H663 C671 0.930 . S
H664 C672 0.930 . S
H665 C673 0.930 . S
H666 C676 0.930 . S
H667 C677 0.930 . S
C668 H662 0.930 . S
C668 C669 1.355 . S
C668 C670 1.415 . S
C669 C668 1.355 . S
C669 C671 1.419 . S
C670 C668 1.415 . S
C670 C675 1.425 . S
C670 C677 1.409 . S
C671 H663 0.930 . S
C671 C669 1.419 . S
C671 C672 1.362 . S
C672 H664 0.930 . S
C672 C671 1.362 . S
C672 C675 1.409 . S
C673 H665 0.930 . S
C673 C674 1.355 . S
C673 C675 1.415 . S
C674 C673 1.355 . S
C674 C676 1.419 . S
C675 C670 1.425 . S
C675 C672 1.409 . S
C675 C673 1.415 . S
C676 H666 0.930 . S
C676 C674 1.419 . S
C676 C677 1.362 . S
C677 H667 0.930 . S
C677 C670 1.409 . S
C677 C676 1.362 . S
H678 C684 0.930 . S
H679 C687 0.930 . S
H680 C688 0.930 . S
H681 C689 0.930 . S
H682 C692 0.930 . S
H683 C693 0.930 . S
C684 H678 0.930 . S
C684 C685 1.355 . S
C684 C686 1.415 . S
C685 C684 1.355 . S
C685 C687 1.419 . S
C686 C684 1.415 . S
C686 C691 1.425 . S
C686 C693 1.409 . S
C687 H679 0.930 . S
C687 C685 1.419 . S
C687 C688 1.362 . S
C688 H680 0.930 . S
C688 C687 1.362 . S
C688 C691 1.409 . S
C689 H681 0.930 . S
C689 C690 1.355 . S
C689 C691 1.415 . S
C690 C689 1.355 . S
C690 C692 1.419 . S
C691 C686 1.425 . S
C691 C688 1.409 . S
C691 C689 1.415 . S
C692 H682 0.930 . S
C692 C690 1.419 . S
C692 C693 1.362 . S
C693 H683 0.930 . S
C693 C686 1.409 . S
C693 C692 1.362 . S
H694 C700 0.930 . S
H695 C703 0.930 . S
H696 C704 0.930 . S
H697 C705 0.930 . S
H698 C708 0.930 . S
H699 C709 0.930 . S
C700 H694 0.930 . S
C700 C701 1.355 . S
C700 C702 1.415 . S
C701 C700 1.355 . S
C701 C703 1.419 . S
C702 C700 1.415 . S
C702 C707 1.425 . S
C702 C709 1.409 . S
C703 H695 0.930 . S
C703 C701 1.419 . S
C703 C704 1.362 . S
C704 H696 0.930 . S
C704 C703 1.362 . S
C704 C707 1.409 . S
C705 H697 0.930 . S
C705 C706 1.355 . S
C705 C707 1.415 . S
C706 C705 1.355 . S
C706 C708 1.419 . S
C707 C702 1.425 . S
C707 C704 1.409 . S
C707 C705 1.415 . S
C708 H698 0.930 . S
C708 C706 1.419 . S
C708 C709 1.362 . S
C709 H699 0.930 . S
C709 C702 1.409 . S
C709 C708 1.362 . S
H710 C716 0.930 . S
H711 C719 0.930 . S
H712 C720 0.930 . S
H713 C721 0.930 . S
H714 C724 0.930 . S
H715 C725 0.930 . S
C716 H710 0.930 . S
C716 C717 1.355 . S
C716 C718 1.415 . S
C717 C716 1.355 . S
C717 C719 1.419 . S
C718 C716 1.415 . S
C718 C723 1.425 . S
C718 C725 1.409 . S
C719 H711 0.930 . S
C719 C717 1.419 . S
C719 C720 1.362 . S
C720 H712 0.930 . S
C720 C719 1.362 . S
C720 C723 1.409 . S
C721 H713 0.930 . S
C721 C722 1.355 . S
C721 C723 1.415 . S
C722 C721 1.355 . S
C722 C724 1.419 . S
C723 C718 1.425 . S
C723 C720 1.409 . S
C723 C721 1.415 . S
C724 H714 0.930 . S
C724 C722 1.419 . S
C724 C725 1.362 . S
C725 H715 0.930 . S
C725 C718 1.409 . S
C725 C724 1.362 . S
H726 C732 0.930 . S
H727 C735 0.930 . S
H728 C736 0.930 . S
H729 C737 0.930 . S
H730 C740 0.930 . S
H731 C741 0.930 . S
C732 H726 0.930 . S
C732 C733 1.355 . S
C732 C734 1.415 . S
C733 C732 1.355 . S
C733 C735 1.419 . S
C734 C732 1.415 . S
C734 C739 1.425 . S
C734 C741 1.409 . S
C735 H727 0.930 . S
C735 C733 1.419 . S
C735 C736 1.362 . S
C736 H728 0.930 . S
C736 C735 1.362 . S
C736 C739 1.409 . S
C737 H729 0.930 . S
C737 C738 1.355 . S
C737 C739 1.415 . S
C738 C737 1.355 . S
C738 C740 1.419 . S
C739 C734 1.425 . S
C739 C736 1.409 . S
C739 C737 1.415 . S
C740 H730 0.930 . S
C740 C738 1.419 . S
C740 C741 1.362 . S
C741 H731 0.930 . S
C741 C734 1.409 . S
C741 C740 1.362 . S
H742 C748 0.930 . S
H743 C751 0.930 . S
H744 C752 0.930 . S
H745 C753 0.930 . S
H746 C756 0.930 . S
H747 C757 0.930 . S
C748 H742 0.930 . S
C748 C749 1.355 . S
C748 C750 1.415 . S
C749 C748 1.355 . S
C749 C751 1.419 . S
C750 C748 1.415 . S
C750 C755 1.425 . S
C750 C757 1.409 . S
C751 H743 0.930 . S
C751 C749 1.419 . S
C751 C752 1.362 . S
C752 H744 0.930 . S
C752 C751 1.362 . S
C752 C755 1.409 . S
C753 H745 0.930 . S
C753 C754 1.355 . S
C753 C755 1.415 . S
C754 C753 1.355 . S
C754 C756 1.419 . S
C755 C750 1.425 . S
C755 C752 1.409 . S
C755 C753 1.415 . S
C756 H746 0.930 . S
C756 C754 1.419 . S
C756 C757 1.362 . S
C757 H747 0.930 . S
C757 C750 1.409 . S
C757 C756 1.362 . S
H758 C764 0.930 . S
H759 C767 0.930 . S
H760 C768 0.930 . S
H761 C769 0.930 . S
H762 C772 0.930 . S
H763 C773 0.930 . S
C764 H758 0.930 . S
C764 C765 1.355 . S
C764 C766 1.415 . S
C765 C764 1.355 . S
C765 C767 1.419 . S
C766 C764 1.415 . S
C766 C771 1.425 . S
C766 C773 1.409 . S
C767 H759 0.930 . S
C767 C765 1.419 . S
C767 C768 1.362 . S
C768 H760 0.930 . S
C768 C767 1.362 . S
C768 C771 1.409 . S
C769 H761 0.930 . S
C769 C770 1.355 . S
C769 C771 1.415 . S
C770 C769 1.355 . S
C770 C772 1.419 . S
C771 C766 1.425 . S
C771 C768 1.409 . S
C771 C769 1.415 . S
C772 H762 0.930 . S
C772 C770 1.419 . S
C772 C773 1.362 . S
C773 H763 0.930 . S
C773 C766 1.409 . S
C773 C772 1.362 . S
H774 C780 0.930 . S
H775 C783 0.930 . S
H776 C784 0.930 . S
H777 C785 0.930 . S
H778 C788 0.930 . S
H779 C789 0.930 . S
C780 H774 0.930 . S
C780 C781 1.355 . S
C780 C782 1.415 . S
C781 C780 1.355 . S
C781 C783 1.419 . S
C782 C780 1.415 . S
C782 C787 1.425 . S
C782 C789 1.409 . S
C783 H775 0.930 . S
C783 C781 1.419 . S
C783 C784 1.362 . S
C784 H776 0.930 . S
C784 C783 1.362 . S
C784 C787 1.409 . S
C785 H777 0.930 . S
C785 C786 1.355 . S
C785 C787 1.415 . S
C786 C785 1.355 . S
C786 C788 1.419 . S
C787 C782 1.425 . S
C787 C784 1.409 . S
C787 C785 1.415 . S
C788 H778 0.930 . S
C788 C786 1.419 . S
C788 C789 1.362 . S
C789 H779 0.930 . S
C789 C782 1.409 . S
C789 C788 1.362 . S
H790 C796 0.930 . S
H791 C799 0.930 . S
H792 C800 0.930 . S
H793 C801 0.930 . S
H794 C804 0.930 . S
H795 C805 0.930 . S
C796 H790 0.930 . S
C796 C797 1.355 . S
C796 C798 1.415 . S
C797 C796 1.355 . S
C797 C799 1.419 . S
C798 C796 1.415 . S
C798 C803 1.425 . S
C798 C805 1.409 . S
C799 H791 0.930 . S
C799 C797 1.419 . S
C799 C800 1.362 . S
C800 H792 0.930 . S
C800 C799 1.362 . S
C800 C803 1.409 . S
C801 H793 0.930 . S
C801 C802 1.355 . S
C801 C803 1.415 . S
C802 C801 1.355 . S
C802 C804 1.419 . S
C803 C798 1.425 . S
C803 C800 1.409 . S
C803 C801 1.415 . S
C804 H794 0.930 . S
C804 C802 1.419 . S
C804 C805 1.362 . S
C805 H795 0.930 . S
C805 C798 1.409 . S
C805 C804 1.362 . S
C434 C126 1.828 . S
C429 C8 1.859 . S
C450 C195 1.704 . S
C445 C22 1.686 . S
C466 C133 1.734 . S
C461 C30 1.794 . S
C482 C196 1.340 . S
C477 C47 1.384 . S
C498 C249 1.777 . S
C493 C9 1.802 . S
C514 C285 1.723 . S
C509 C17 1.680 . S
C525 C34 1.620 . S
C530 C345 1.605 . S
C546 C408 1.503 . S
C541 C48 1.501 . S
C562 C248 1.840 . S
C557 C21 1.898 . S
C573 C35 1.796 . S
C578 C292 1.801 . S
C594 C338 1.376 . S
C589 C43 1.341 . S
C610 C407 1.555 . S
C605 C4 1.548 . S
C621 C56 1.516 . S
C626 C186 1.527 . S
C642 C143 1.731 . S
C637 C73 1.759 . S
C653 C87 1.719 . S
C658 C179 1.717 . S
C669 C100 1.954 . S
C674 C142 1.902 . S
C690 C354 1.650 . S
C685 C60 1.676 . S
C706 C398 1.432 . S
C701 C69 1.346 . S
C722 C232 1.867 . S
C717 C86 1.904 . S
C733 C95 1.493 . S
C738 C301 1.530 . S
C754 C355 1.662 . S
C749 C74 1.681 . S
C770 C391 1.424 . S
C765 C82 1.335 . S
C786 C239 1.971 . S
C781 C99 1.991 . S
C797 C61 1.650 . S
C802 C302 1.673 . S
