# Generated by pormake.
# Topology pto, (3,4)-cn, num edge types: 1
# Building blocks:
#     Node 0, Type 0, BuildingBlock: WUSLED_clean_sbu_0, # of connection points: 3
#     Node 1, Type 0, BuildingBlock: WUSLED_clean_sbu_0, # of connection points: 3
#     Node 2, Type 0, BuildingBlock: WUSLED_clean_sbu_0, # of connection points: 3
#     Node 3, Type 0, BuildingBlock: WUSLED_clean_sbu_0, # of connection points: 3
#     Node 4, Type 0, BuildingBlock: WUSLED_clean_sbu_0, # of connection points: 3
#     Node 5, Type 0, BuildingBlock: WUSLED_clean_sbu_0, # of connection points: 3
#     Node 6, Type 0, BuildingBlock: WUSLED_clean_sbu_0, # of connection points: 3
#     Node 7, Type 0, BuildingBlock: WUSLED_clean_sbu_0, # of connection points: 3
#     Node 8, Type 1, BuildingBlock: MUDLON_clean_linker_0, # of connection points: 4
#     Node 9, Type 1, BuildingBlock: MUDLON_clean_linker_0, # of connection points: 4
#     Node 10, Type 1, BuildingBlock: MUDLON_clean_linker_0, # of connection points: 4
#     Node 11, Type 1, BuildingBlock: MUDLON_clean_linker_0, # of connection points: 4
#     Node 12, Type 1, BuildingBlock: MUDLON_clean_linker_0, # of connection points: 4
#     Node 13, Type 1, BuildingBlock: MUDLON_clean_linker_0, # of connection points: 4
#     Edge 14, Type (0, 1), BuildingBlock: UVAHIK_clean_linker_0, # of connection points: 2
#     Edge 15, Type (0, 1), BuildingBlock: UVAHIK_clean_linker_0, # of connection points: 2
#     Edge 16, Type (0, 1), BuildingBlock: UVAHIK_clean_linker_0, # of connection points: 2
#     Edge 17, Type (0, 1), BuildingBlock: UVAHIK_clean_linker_0, # of connection points: 2
#     Edge 18, Type (0, 1), BuildingBlock: UVAHIK_clean_linker_0, # of connection points: 2
#     Edge 19, Type (0, 1), BuildingBlock: UVAHIK_clean_linker_0, # of connection points: 2
#     Edge 20, Type (0, 1), BuildingBlock: UVAHIK_clean_linker_0, # of connection points: 2
#     Edge 21, Type (0, 1), BuildingBlock: UVAHIK_clean_linker_0, # of connection points: 2
#     Edge 22, Type (0, 1), BuildingBlock: UVAHIK_clean_linker_0, # of connection points: 2
#     Edge 23, Type (0, 1), BuildingBlock: UVAHIK_clean_linker_0, # of connection points: 2
#     Edge 24, Type (0, 1), BuildingBlock: UVAHIK_clean_linker_0, # of connection points: 2
#     Edge 25, Type (0, 1), BuildingBlock: UVAHIK_clean_linker_0, # of connection points: 2
#     Edge 26, Type (0, 1), BuildingBlock: UVAHIK_clean_linker_0, # of connection points: 2
#     Edge 27, Type (0, 1), BuildingBlock: UVAHIK_clean_linker_0, # of connection points: 2
#     Edge 28, Type (0, 1), BuildingBlock: UVAHIK_clean_linker_0, # of connection points: 2
#     Edge 29, Type (0, 1), BuildingBlock: UVAHIK_clean_linker_0, # of connection points: 2
#     Edge 30, Type (0, 1), BuildingBlock: UVAHIK_clean_linker_0, # of connection points: 2
#     Edge 31, Type (0, 1), BuildingBlock: UVAHIK_clean_linker_0, # of connection points: 2
#     Edge 32, Type (0, 1), BuildingBlock: UVAHIK_clean_linker_0, # of connection points: 2
#     Edge 33, Type (0, 1), BuildingBlock: UVAHIK_clean_linker_0, # of connection points: 2
#     Edge 34, Type (0, 1), BuildingBlock: UVAHIK_clean_linker_0, # of connection points: 2
#     Edge 35, Type (0, 1), BuildingBlock: UVAHIK_clean_linker_0, # of connection points: 2
#     Edge 36, Type (0, 1), BuildingBlock: UVAHIK_clean_linker_0, # of connection points: 2
#     Edge 37, Type (0, 1), BuildingBlock: UVAHIK_clean_linker_0, # of connection points: 2
# Relax obj value: 0.005
# Max RMSD: 0.037
# Mean RMSD: 0.021
data_MOF--net-pto--node1-WUSLED_clean_sbu_0--node2-MUDLON_clean_linker_0--edge1-UVAHIK_clean_linker_0
_symmetry_space_group_name_H-M    P1
_symmetry_Int_Tables_number       1
_symmetry_cell_setting            triclinic
loop_
_symmetry_equiv_pos_as_xyz
'x, y, z'
_cell_length_a     58.358308
_cell_length_b     97.994916
_cell_length_c     78.794422
_cell_angle_alpha  89.576026
_cell_angle_beta   90.627301
_cell_angle_gamma 90.614592
loop_
_atom_site_label
_atom_site_type_symbol
_atom_site_fract_x
_atom_site_fract_y
_atom_site_fract_z
_atom_type_partial_charge
C0 C 0.2295 0.23579 0.35106 0.0
C1 C 0.2389 0.22432 0.3433 0.0
C2 C 0.22559 0.20982 0.36652 0.0
C3 C 0.23696 0.21144 0.35096 0.0
C4 C 0.2164 0.22141 0.37429 0.0
C5 C 0.21834 0.23427 0.3666 0.0
U6 U 0.25102 0.25895 0.31565 0.0
O7 O 0.23357 0.27501 0.30103 0.0
O8 O 0.26402 0.28013 0.3164 0.0
C9 C 0.24694 0.28475 0.30707 0.0
C10 C 0.23102 0.24932 0.34296 0.0
C11 C 0.23517 0.29672 0.3138 0.0
C12 C 0.20458 0.30678 0.33005 0.0
C13 C 0.21602 0.29525 0.3243 0.0
C14 C 0.2317 0.32135 0.31523 0.0
C15 C 0.21218 0.31999 0.32548 0.0
C16 C 0.24304 0.30982 0.30944 0.0
C17 C 0.28806 0.24384 0.28085 0.0
C18 C 0.2929 0.25288 0.25227 0.0
C19 C 0.32004 0.23662 0.26375 0.0
C20 C 0.30786 0.23607 0.27891 0.0
C21 C 0.31256 0.24489 0.25014 0.0
C22 C 0.28081 0.2524 0.26751 0.0
C23 C 0.27505 0.24263 0.29671 0.0
O24 O 0.25148 0.25505 0.34319 0.0
O25 O 0.22056 0.25038 0.32816 0.0
O26 O 0.2527 0.24387 0.29524 0.0
O27 O 0.28379 0.24913 0.30984 0.0
H28 H 0.24757 0.22533 0.33125 0.0
H29 H 0.24401 0.20273 0.34454 0.0
H30 H 0.20786 0.22057 0.38639 0.0
H31 H 0.21107 0.24304 0.37279 0.0
H32 H 0.1895 0.30534 0.33777 0.0
H33 H 0.20975 0.2852 0.32786 0.0
H34 H 0.23829 0.33133 0.31172 0.0
H35 H 0.2579 0.31113 0.30144 0.0
H36 H 0.2865 0.25927 0.24204 0.0
H37 H 0.33535 0.23055 0.26271 0.0
H38 H 0.31382 0.22949 0.28912 0.0
H39 H 0.26563 0.25856 0.26876 0.0
C40 C 0.22001 0.7831 0.6624 0.0
C41 C 0.23816 0.79262 0.66228 0.0
C42 C 0.21518 0.80833 0.64521 0.0
C43 C 0.23579 0.8051 0.65371 0.0
C44 C 0.19695 0.79881 0.64565 0.0
C45 C 0.19939 0.78631 0.65411 0.0
U46 U 0.24327 0.76034 0.69815 0.0
O47 O 0.22595 0.74399 0.71261 0.0
O48 O 0.25621 0.73938 0.69746 0.0
C49 C 0.23922 0.73447 0.70658 0.0
C50 C 0.22215 0.76978 0.67102 0.0
C51 C 0.22723 0.7224 0.6997 0.0
C52 C 0.2113 0.70952 0.67602 0.0
C53 C 0.22273 0.7211 0.68224 0.0
C54 C 0.20843 0.70053 0.70465 0.0
C55 C 0.20398 0.69908 0.68716 0.0
C56 C 0.21998 0.71206 0.71083 0.0
C57 C 0.28166 0.775 0.73288 0.0
C58 C 0.29903 0.76033 0.7543 0.0
C59 C 0.30299 0.7849 0.75646 0.0
C60 C 0.29013 0.78647 0.7415 0.0
C61 C 0.30765 0.77181 0.763 0.0
C62 C 0.28609 0.76191 0.73939 0.0
C63 C 0.26809 0.77677 0.71723 0.0
O64 O 0.24249 0.76414 0.67063 0.0
O65 O 0.21236 0.7688 0.68592 0.0
O66 O 0.24585 0.77516 0.71895 0.0
O67 O 0.2761 0.77065 0.70378 0.0
H68 H 0.25421 0.79038 0.6687 0.0
H69 H 0.25027 0.8121 0.65351 0.0
H70 H 0.18068 0.80103 0.63955 0.0
H71 H 0.18513 0.77914 0.65418 0.0
H72 H 0.20841 0.70869 0.66247 0.0
H73 H 0.2281 0.72901 0.67342 0.0
H74 H 0.20268 0.69286 0.71365 0.0
H75 H 0.22316 0.71294 0.72436 0.0
H76 H 0.30208 0.75012 0.75912 0.0
H77 H 0.3096 0.79393 0.76275 0.0
H78 H 0.28683 0.79664 0.73664 0.0
H79 H 0.27952 0.75294 0.73293 0.0
C80 C 0.73506 0.77453 0.28135 0.0
C81 C 0.74153 0.76543 0.26864 0.0
C82 C 0.71005 0.77317 0.25052 0.0
C83 C 0.72919 0.76479 0.25333 0.0
C84 C 0.70339 0.78205 0.2635 0.0
C85 C 0.71583 0.78274 0.27873 0.0
U86 U 0.77418 0.75951 0.31566 0.0
O87 O 0.80447 0.76856 0.32832 0.0
O88 O 0.77454 0.7624 0.34331 0.0
C89 C 0.79445 0.76882 0.34317 0.0
C90 C 0.74832 0.77575 0.29727 0.0
C91 C 0.79536 0.7821 0.35178 0.0
C92 C 0.77857 0.80401 0.35839 0.0
C93 C 0.77717 0.79132 0.35038 0.0
C94 C 0.81647 0.79847 0.36905 0.0
C95 C 0.79829 0.80774 0.36775 0.0
C96 C 0.81498 0.78575 0.36117 0.0
C97 C 0.7928 0.72232 0.31226 0.0
C98 C 0.81583 0.71095 0.33389 0.0
C99 C 0.80699 0.69951 0.30741 0.0
C100 C 0.79459 0.71085 0.30189 0.0
C101 C 0.81783 0.69943 0.32345 0.0
C102 C 0.80346 0.72233 0.32831 0.0
C103 C 0.77999 0.7342 0.30603 0.0
O104 O 0.7405 0.76861 0.31019 0.0
O105 O 0.7707 0.77518 0.29578 0.0
O106 O 0.79257 0.74447 0.30049 0.0
O107 O 0.76288 0.73803 0.31554 0.0
H108 H 0.75628 0.75894 0.27045 0.0
H109 H 0.73496 0.75793 0.24359 0.0
H110 H 0.6885 0.78845 0.26193 0.0
H111 H 0.71049 0.78975 0.28846 0.0
H112 H 0.7644 0.81099 0.35701 0.0
H113 H 0.76195 0.78875 0.34302 0.0
H114 H 0.83178 0.80099 0.37632 0.0
H115 H 0.8292 0.77878 0.36234 0.0
H116 H 0.82417 0.71127 0.34623 0.0
H117 H 0.80794 0.69075 0.29916 0.0
H118 H 0.78642 0.71068 0.28947 0.0
H119 H 0.80232 0.73116 0.33645 0.0
C120 C 0.77106 0.21476 0.68889 0.0
C121 C 0.7761 0.21722 0.67176 0.0
C122 C 0.77968 0.19278 0.66696 0.0
C123 C 0.78028 0.20633 0.66088 0.0
C124 C 0.77487 0.19042 0.68422 0.0
C125 C 0.77057 0.20132 0.69505 0.0
U126 U 0.7766 0.25216 0.70175 0.0
O127 O 0.75091 0.26601 0.71204 0.0
O128 O 0.78176 0.26119 0.72699 0.0
C129 C 0.76169 0.26715 0.72671 0.0
C130 C 0.76625 0.22606 0.70047 0.0
C131 C 0.7475 0.26479 0.74173 0.0
C132 C 0.72477 0.24975 0.75969 0.0
C133 C 0.73855 0.25177 0.74545 0.0
C134 C 0.72889 0.27372 0.76662 0.0
C135 C 0.7197 0.26072 0.7704 0.0
C136 C 0.74266 0.27571 0.7524 0.0
C137 C 0.81073 0.27745 0.6751 0.0
C138 C 0.8098 0.30183 0.68044 0.0
C139 C 0.83773 0.29271 0.66115 0.0
C140 C 0.82904 0.27955 0.66402 0.0
C141 C 0.8282 0.30403 0.6693 0.0
C142 C 0.8012 0.28865 0.68335 0.0
C143 C 0.80199 0.26353 0.67817 0.0
O144 O 0.78402 0.23089 0.70896 0.0
O145 O 0.75285 0.23566 0.69434 0.0
O146 O 0.77966 0.26194 0.67667 0.0
O147 O 0.81062 0.25735 0.6916 0.0
H148 H 0.77664 0.22755 0.66677 0.0
H149 H 0.78364 0.20853 0.64765 0.0
H150 H 0.77466 0.18017 0.68942 0.0
H151 H 0.76685 0.19924 0.70827 0.0
H152 H 0.71777 0.23966 0.76214 0.0
H153 H 0.74211 0.24323 0.73727 0.0
H154 H 0.72559 0.28234 0.77473 0.0
H155 H 0.74951 0.28582 0.74972 0.0
H156 H 0.80186 0.3103 0.68678 0.0
H157 H 0.85215 0.29398 0.65273 0.0
H158 H 0.83672 0.271 0.65765 0.0
H159 H 0.78708 0.28719 0.69203 0.0
C160 C 0.79252 0.72036 0.7059 0.0
C161 C 0.79996 0.71993 0.68904 0.0
C162 C 0.81597 0.69734 0.69401 0.0
C163 C 0.81153 0.7085 0.68313 0.0
C164 C 0.80842 0.69788 0.7109 0.0
C165 C 0.79679 0.70929 0.71676 0.0
U166 U 0.77556 0.75785 0.70282 0.0
O167 O 0.74275 0.76761 0.70834 0.0
O168 O 0.77362 0.77324 0.72293 0.0
C169 C 0.75128 0.77437 0.72134 0.0
C170 C 0.78062 0.73234 0.71242 0.0
C171 C 0.73838 0.77291 0.73715 0.0
C172 C 0.7239 0.75892 0.76032 0.0
C173 C 0.7367 0.76024 0.74548 0.0
C174 C 0.71456 0.78294 0.75869 0.0
C175 C 0.71255 0.77024 0.76704 0.0
C176 C 0.72737 0.78425 0.74387 0.0
C177 C 0.79538 0.78013 0.66594 0.0
C178 C 0.78759 0.80443 0.66482 0.0
C179 C 0.80556 0.79345 0.64101 0.0
C180 C 0.80476 0.78097 0.64968 0.0
C181 C 0.79701 0.80534 0.64847 0.0
C182 C 0.78673 0.79191 0.67346 0.0
C183 C 0.79463 0.76692 0.67486 0.0
O184 O 0.79401 0.74232 0.71777 0.0
O185 O 0.7631 0.7366 0.70326 0.0
O186 O 0.77445 0.76085 0.67512 0.0
O187 O 0.80537 0.76655 0.68961 0.0
H188 H 0.79684 0.72842 0.68048 0.0
H189 H 0.81686 0.70837 0.67001 0.0
H190 H 0.81187 0.6896 0.71971 0.0
H191 H 0.79128 0.7095 0.72984 0.0
H192 H 0.72249 0.74897 0.76633 0.0
H193 H 0.74511 0.75137 0.74041 0.0
H194 H 0.70631 0.79189 0.76366 0.0
H195 H 0.72858 0.79411 0.73761 0.0
H196 H 0.78064 0.81336 0.67084 0.0
H197 H 0.8132 0.79383 0.62855 0.0
H198 H 0.81153 0.77196 0.64371 0.0
H199 H 0.77931 0.79141 0.686 0.0
C200 C 0.73455 0.2418 0.28139 0.0
C201 C 0.73663 0.25391 0.27189 0.0
C202 C 0.70913 0.2452 0.25105 0.0
C203 C 0.72407 0.25559 0.25681 0.0
C204 C 0.70713 0.2331 0.26068 0.0
C205 C 0.71975 0.23142 0.27571 0.0
U206 U 0.77288 0.25591 0.31655 0.0
O207 O 0.77223 0.2521 0.34412 0.0
O208 O 0.80274 0.24697 0.32952 0.0
C209 C 0.79222 0.24604 0.34416 0.0
C210 C 0.74756 0.23992 0.29727 0.0
C211 C 0.79274 0.23253 0.35242 0.0
C212 C 0.78937 0.20781 0.35109 0.0
C213 C 0.7887 0.22058 0.34307 0.0
C214 C 0.79766 0.2188 0.37795 0.0
C215 C 0.79385 0.20677 0.36863 0.0
C216 C 0.79715 0.23155 0.3699 0.0
C217 C 0.79114 0.29348 0.31473 0.0
C218 C 0.81323 0.30446 0.33719 0.0
C219 C 0.80585 0.31653 0.31078 0.0
C220 C 0.79359 0.30523 0.30467 0.0
C221 C 0.81588 0.31628 0.3271 0.0
C222 C 0.80099 0.29314 0.33104 0.0
C223 C 0.77863 0.28163 0.30788 0.0
O224 O 0.76994 0.24098 0.29593 0.0
O225 O 0.73952 0.24639 0.31044 0.0
O226 O 0.76129 0.27718 0.31696 0.0
O227 O 0.79151 0.27177 0.30221 0.0
H228 H 0.74792 0.26206 0.27618 0.0
H229 H 0.72579 0.26508 0.2498 0.0
H230 H 0.696 0.22485 0.25648 0.0
H231 H 0.71798 0.222 0.28289 0.0
H232 H 0.7861 0.19875 0.34362 0.0
H233 H 0.78503 0.22114 0.32957 0.0
H234 H 0.80137 0.21833 0.39144 0.0
H235 H 0.80026 0.24067 0.37731 0.0
H236 H 0.8205 0.30397 0.34988 0.0
H237 H 0.80785 0.32536 0.30256 0.0
H238 H 0.78619 0.30562 0.292 0.0
H239 H 0.79926 0.28411 0.33897 0.0
C240 C 0.22738 0.23346 0.65803 0.0
C241 C 0.24552 0.22434 0.66054 0.0
C242 C 0.22611 0.20753 0.64268 0.0
C243 C 0.24495 0.21151 0.65286 0.0
C244 C 0.20793 0.21669 0.64031 0.0
C245 C 0.2086 0.22955 0.64789 0.0
U246 U 0.24754 0.25714 0.69331 0.0
O247 O 0.25821 0.27871 0.69267 0.0
O248 O 0.22862 0.27235 0.70788 0.0
C249 C 0.24099 0.2826 0.70204 0.0
C250 C 0.22756 0.24692 0.66619 0.0
C251 C 0.22801 0.29429 0.69545 0.0
C252 C 0.20635 0.30554 0.67298 0.0
C253 C 0.21843 0.29422 0.67904 0.0
C254 C 0.21317 0.31703 0.69972 0.0
C255 C 0.20361 0.31711 0.68325 0.0
C256 C 0.22527 0.30573 0.70574 0.0
C257 C 0.28782 0.24377 0.72789 0.0
C258 C 0.29251 0.25307 0.75627 0.0
C259 C 0.32242 0.23927 0.74431 0.0
C260 C 0.30937 0.23768 0.72947 0.0
C261 C 0.31407 0.24691 0.75792 0.0
C262 C 0.27955 0.25159 0.74135 0.0
C263 C 0.27429 0.24181 0.71218 0.0
O264 O 0.21762 0.24732 0.68105 0.0
O265 O 0.24715 0.25367 0.66577 0.0
O266 O 0.28162 0.24862 0.69883 0.0
O267 O 0.2519 0.24205 0.71379 0.0
H268 H 0.26008 0.22712 0.66849 0.0
H269 H 0.25908 0.20463 0.65508 0.0
H270 H 0.1933 0.21398 0.63241 0.0
H271 H 0.19442 0.23644 0.64586 0.0
H272 H 0.19941 0.30531 0.66018 0.0
H273 H 0.2204 0.28544 0.67093 0.0
H274 H 0.21107 0.32564 0.70808 0.0
H275 H 0.23248 0.30591 0.71847 0.0
H276 H 0.28576 0.25913 0.76647 0.0
H277 H 0.33887 0.23429 0.74528 0.0
H278 H 0.31605 0.23162 0.71923 0.0
H279 H 0.26306 0.25652 0.74035 0.0
C280 C 0.216 0.73546 0.3414 0.0
C281 C 0.22456 0.72386 0.3334 0.0
C282 C 0.19585 0.70957 0.34736 0.0
C283 C 0.21462 0.71102 0.33639 0.0
C284 C 0.1873 0.72129 0.35524 0.0
C285 C 0.19732 0.7341 0.3523 0.0
U286 U 0.25214 0.75968 0.31457 0.0
O287 O 0.24635 0.78109 0.30724 0.0
O288 O 0.27701 0.77561 0.32203 0.0
C289 C 0.26445 0.78551 0.31569 0.0
C290 C 0.22604 0.74905 0.33824 0.0
C291 C 0.26042 0.79701 0.32711 0.0
C292 C 0.24627 0.80606 0.35359 0.0
C293 C 0.2501 0.79497 0.34293 0.0
C294 C 0.26295 0.82132 0.33266 0.0
C295 C 0.25263 0.81938 0.34857 0.0
C296 C 0.26681 0.81022 0.32204 0.0
C297 C 0.27961 0.74668 0.27427 0.0
C298 C 0.30174 0.76172 0.25592 0.0
C299 C 0.29684 0.73785 0.24876 0.0
C300 C 0.28378 0.7358 0.26335 0.0
C301 C 0.30594 0.75084 0.24485 0.0
C302 C 0.28867 0.75965 0.27051 0.0
C303 C 0.26566 0.74441 0.28944 0.0
O304 O 0.24849 0.74991 0.33961 0.0
O305 O 0.21784 0.75551 0.32486 0.0
O306 O 0.24592 0.75073 0.28942 0.0
O307 O 0.27676 0.74527 0.304 0.0
H308 H 0.23894 0.72473 0.32485 0.0
H309 H 0.2218 0.70221 0.33024 0.0
H310 H 0.17263 0.72062 0.36351 0.0
H311 H 0.19037 0.74297 0.35846 0.0
H312 H 0.23854 0.80417 0.36583 0.0
H313 H 0.24504 0.7848 0.34703 0.0
H314 H 0.26773 0.83144 0.32826 0.0
H315 H 0.27469 0.81198 0.30982 0.0
H316 H 0.30827 0.77188 0.25319 0.0
H317 H 0.30001 0.72921 0.24065 0.0
H318 H 0.27695 0.72571 0.26611 0.0
H319 H 0.28553 0.76818 0.27882 0.0
H320 H 0.99743 0.43851 0.40986 0.0
N321 N 0.0154 0.45692 0.38894 0.0
H322 H 0.96687 0.42196 0.40361 0.0
H323 H 0.98807 0.4569 0.36051 0.0
H324 H 0.95784 0.44014 0.35388 0.0
H325 H 0.02759 0.44972 0.35681 0.0
H326 H 0.05902 0.43482 0.34935 0.0
H327 H 0.04945 0.44881 0.40921 0.0
H328 H 0.08163 0.43421 0.40179 0.0
H329 H 0.98807 0.4731 0.40621 0.0
H330 H 0.0381 0.47403 0.36626 0.0
H331 H 0.98517 0.49784 0.40456 0.0
H332 H 0.0364 0.49873 0.36533 0.0
H333 H 0.99215 0.57744 0.40749 0.0
H334 H 0.96142 0.59312 0.39979 0.0
H335 H 0.95372 0.57309 0.35133 0.0
H336 H 0.98485 0.55776 0.35898 0.0
H337 H 0.02436 0.56867 0.35652 0.0
H338 H 0.05529 0.58493 0.35096 0.0
H339 H 0.07756 0.58154 0.40335 0.0
H340 H 0.04561 0.56586 0.40893 0.0
H341 H 0.00582 0.54187 0.41331 0.0
H342 H 0.00604 0.51701 0.4126 0.0
H343 H 0.01621 0.51861 0.35829 0.0
N344 N 0.01163 0.55918 0.38782 0.0
H345 H 0.0174 0.54354 0.35947 0.0
C346 C 0.99507 0.44883 0.38567 0.0
C347 C 0.98849 0.43907 0.39777 0.0
C348 C 0.9712 0.42957 0.3941 0.0
C349 C 0.96017 0.4296 0.37814 0.0
C350 C 0.96593 0.43987 0.36631 0.0
C351 C 0.98327 0.44942 0.37003 0.0
C352 C 0.03612 0.45033 0.38364 0.0
C353 C 0.03947 0.44655 0.36667 0.0
C354 C 0.0576 0.43808 0.3624 0.0
C355 C 0.07278 0.43319 0.37499 0.0
C356 C 0.07004 0.43759 0.39181 0.0
C357 C 0.05186 0.44604 0.39606 0.0
C358 C 0.01328 0.47152 0.38651 0.0
C359 C 0.99842 0.47862 0.39706 0.0
C360 C 0.997 0.49282 0.39623 0.0
C361 C 0.01084 0.50042 0.385 0.0
C362 C 0.02531 0.49329 0.37404 0.0
C363 C 0.02642 0.47902 0.37468 0.0
C364 C 0.99083 0.56642 0.38391 0.0
C365 C 0.98343 0.57626 0.39537 0.0
C366 C 0.96582 0.58519 0.39094 0.0
C367 C 0.95517 0.58445 0.37487 0.0
C368 C 0.9618 0.57409 0.36371 0.0
C369 C 0.97951 0.56519 0.36815 0.0
C370 C 0.03246 0.56625 0.38327 0.0
C371 C 0.0361 0.57126 0.36674 0.0
C372 C 0.05397 0.58053 0.36356 0.0
C373 C 0.06874 0.58481 0.37679 0.0
C374 C 0.06616 0.57881 0.39296 0.0
C375 C 0.0481 0.56971 0.39616 0.0
C376 C 0.0113 0.54453 0.3865 0.0
C377 C 0.00805 0.53681 0.40128 0.0
C378 C 0.00797 0.52257 0.40077 0.0
C379 C 0.01084 0.51567 0.38533 0.0
C380 C 0.01412 0.5235 0.37044 0.0
C381 C 0.01454 0.53779 0.37104 0.0
H382 H 0.99316 0.44617 0.65548 0.0
N383 N 0.00412 0.45576 0.62383 0.0
H384 H 0.96228 0.43018 0.66205 0.0
H385 H 0.96898 0.44907 0.60374 0.0
H386 H 0.9372 0.43349 0.61035 0.0
H387 H 0.02254 0.43866 0.60212 0.0
H388 H 0.05394 0.42282 0.60753 0.0
H389 H 0.03201 0.45568 0.65197 0.0
H390 H 0.06308 0.43962 0.65775 0.0
H391 H 0.99432 0.47099 0.65197 0.0
H392 H 0.01697 0.47342 0.60018 0.0
H393 H 0.99464 0.49591 0.65361 0.0
H394 H 0.01845 0.49826 0.60187 0.0
H395 H 0.98519 0.55844 0.65789 0.0
H396 H 0.95543 0.57464 0.66568 0.0
H397 H 0.95433 0.59023 0.61423 0.0
H398 H 0.98454 0.5743 0.60679 0.0
H399 H 0.03659 0.56807 0.605 0.0
H400 H 0.06885 0.58373 0.61042 0.0
H401 H 0.0575 0.57981 0.66433 0.0
H402 H 0.02553 0.56421 0.6588 0.0
H403 H 0.01799 0.54111 0.65457 0.0
H404 H 0.01789 0.51617 0.6544 0.0
H405 H 0.99323 0.5168 0.60244 0.0
N406 N 0.00748 0.55794 0.62758 0.0
H407 H 0.99449 0.5417 0.60257 0.0
C408 C 0.98352 0.4487 0.629 0.0
C409 C 0.98082 0.44367 0.64562 0.0
C410 C 0.96299 0.43453 0.64939 0.0
C411 C 0.94737 0.43034 0.63667 0.0
C412 C 0.9492 0.43622 0.62037 0.0
C413 C 0.96716 0.44525 0.61659 0.0
C414 C 0.02492 0.44826 0.6266 0.0
C415 C 0.0317 0.4391 0.61413 0.0
C416 C 0.04946 0.42998 0.61733 0.0
C417 C 0.06078 0.42981 0.63318 0.0
C418 C 0.05479 0.43953 0.64539 0.0
C419 C 0.03699 0.44869 0.64213 0.0
C420 C 0.00525 0.47036 0.62578 0.0
C421 C 0.99949 0.47687 0.64097 0.0
C422 C 0.99987 0.49116 0.64193 0.0
C423 C 0.00627 0.49918 0.6278 0.0
C424 C 0.01281 0.49251 0.61287 0.0
C425 C 0.01218 0.4783 0.61189 0.0
C426 C 0.98715 0.56531 0.63177 0.0
C427 C 0.97825 0.5652 0.64827 0.0
C428 C 0.96117 0.57443 0.65267 0.0
C429 C 0.95276 0.58388 0.64063 0.0
C430 C 0.96075 0.5833 0.62388 0.0
C431 C 0.97781 0.57413 0.61955 0.0
C432 C 0.02875 0.56489 0.63142 0.0
C433 C 0.04153 0.57032 0.61798 0.0
C434 C 0.05977 0.57935 0.6211 0.0
C435 C 0.0656 0.5831 0.6378 0.0
C436 C 0.0536 0.57703 0.65133 0.0
C437 C 0.03527 0.56805 0.64817 0.0
C438 C 0.0066 0.54327 0.62842 0.0
C439 C 0.01271 0.53589 0.64313 0.0
C440 C 0.01244 0.52158 0.64305 0.0
C441 C 0.00583 0.5144 0.62833 0.0
C442 C 0.99903 0.52191 0.61387 0.0
C443 C 0.99953 0.53615 0.61393 0.0
H444 H 0.15545 0.07622 0.51881 0.0
N445 N 0.18387 0.05928 0.50399 0.0
H446 H 0.16404 0.0919 0.54198 0.0
H447 H 0.22319 0.05949 0.52318 0.0
H448 H 0.23197 0.07499 0.54675 0.0
H449 H 0.22539 0.06952 0.49395 0.0
H450 H 0.23172 0.08565 0.47073 0.0
H451 H 0.15425 0.06569 0.47945 0.0
H452 H 0.16054 0.08144 0.45565 0.0
H453 H 0.15345 0.0414 0.51549 0.0
H454 H 0.22084 0.04431 0.49394 0.0
H455 H 0.1558 0.01656 0.51569 0.0
H456 H 0.22298 0.0194 0.49321 0.0
H457 H 0.15339 0.94452 0.5151 0.0
H458 H 0.15472 0.92779 0.53833 0.0
H459 H 0.2276 0.93498 0.54384 0.0
H460 H 0.22594 0.95182 0.52081 0.0
H461 H 0.23157 0.95089 0.49048 0.0
H462 H 0.24083 0.93521 0.46756 0.0
H463 H 0.16899 0.93266 0.45376 0.0
H464 H 0.15998 0.94785 0.47721 0.0
H465 H 0.15377 0.97373 0.49529 0.0
H466 H 0.15377 0.99862 0.49619 0.0
H467 H 0.22602 0.99857 0.50907 0.0
N468 N 0.18872 0.95724 0.50081 0.0
H469 H 0.22588 0.97359 0.50726 0.0
C470 C 0.18859 0.06673 0.51933 0.0
C471 C 0.17201 0.07573 0.52512 0.0
C472 C 0.17697 0.08465 0.53841 0.0
C473 C 0.19875 0.08475 0.54625 0.0
C474 C 0.21513 0.0753 0.54086 0.0
C475 C 0.2101 0.06636 0.5275 0.0
C476 C 0.18921 0.06651 0.48852 0.0
C477 C 0.21125 0.07187 0.48548 0.0
C478 C 0.21486 0.08108 0.4721 0.0
C479 C 0.19655 0.08504 0.46144 0.0
C480 C 0.17492 0.07888 0.46384 0.0
C481 C 0.17131 0.06976 0.47729 0.0
C482 C 0.18671 0.04469 0.50449 0.0
C483 C 0.16873 0.03662 0.51073 0.0
C484 C 0.17006 0.02242 0.51067 0.0
C485 C 0.18941 0.01588 0.50415 0.0
C486 C 0.20784 0.02403 0.49838 0.0
C487 C 0.20657 0.03832 0.49864 0.0
C488 C 0.18948 0.94939 0.51628 0.0
C489 C 0.1695 0.9427 0.52164 0.0
C490 C 0.17037 0.93307 0.53478 0.0
C491 C 0.19133 0.92993 0.54279 0.0
C492 C 0.21117 0.93722 0.53801 0.0
C493 C 0.21026 0.94686 0.52482 0.0
C494 C 0.19504 0.95037 0.48556 0.0
C495 C 0.21792 0.94709 0.48234 0.0
C496 C 0.22317 0.93816 0.46917 0.0
C497 C 0.2056 0.93246 0.45896 0.0
C498 C 0.18289 0.93657 0.46161 0.0
C499 C 0.1777 0.94537 0.47484 0.0
C500 C 0.18967 0.97187 0.5014 0.0
C501 C 0.16957 0.97914 0.49828 0.0
C502 C 0.16962 0.99336 0.49895 0.0
C503 C 0.18984 1.00068 0.50297 0.0
C504 C 0.21016 0.99332 0.50586 0.0
C505 C 0.2101 0.97902 0.50501 0.0
H506 H 0.52181 0.75614 0.08606 0.0
N507 N 0.50875 0.779 0.06824 0.0
H508 H 0.55403 0.75451 0.10572 0.0
H509 H 0.54266 0.79704 0.07234 0.0
H510 H 0.57582 0.79529 0.09151 0.0
H511 H 0.48764 0.7971 0.0872 0.0
H512 H 0.45604 0.79297 0.10675 0.0
H513 H 0.48383 0.75521 0.0711 0.0
H514 H 0.45198 0.751 0.09042 0.0
H515 H 0.52286 0.75463 0.055 0.0
H516 H 0.4936 0.79358 0.04207 0.0
H517 H 0.52287 0.74842 0.02511 0.0
H518 H 0.49253 0.78724 0.01212 0.0
H519 H 0.54072 0.73433 0.93777 0.0
H520 H 0.57175 0.73723 0.91733 0.0
H521 H 0.55382 0.77965 0.91099 0.0
H522 H 0.52251 0.77652 0.93065 0.0
H523 H 0.48374 0.77531 0.93887 0.0
H524 H 0.45315 0.77728 0.91766 0.0
H525 H 0.45549 0.73373 0.9095 0.0
H526 H 0.48698 0.73205 0.93009 0.0
H527 H 0.49989 0.73624 0.97179 0.0
H528 H 0.49889 0.74231 1.00184 0.0
H529 H 0.51671 0.78397 0.98866 0.0
N530 N 0.50887 0.75235 0.94551 0.0
H531 H 0.51663 0.77794 0.95884 0.0
C532 C 0.52963 0.77685 0.07784 0.0
C533 C 0.5336 0.7647 0.08699 0.0
C534 C 0.55224 0.76373 0.0982 0.0
C535 C 0.56747 0.77483 0.1004 0.0
C536 C 0.56418 0.78666 0.09045 0.0
C537 C 0.5454 0.78764 0.07935 0.0
C538 C 0.48808 0.77654 0.0777 0.0
C539 C 0.4796 0.7871 0.08763 0.0
C540 C 0.46151 0.78471 0.09876 0.0
C541 C 0.45152 0.77163 0.10021 0.0
C542 C 0.45949 0.76114 0.08976 0.0
C543 C 0.47759 0.76356 0.07859 0.0
C544 C 0.50849 0.77471 0.05076 0.0
C545 C 0.51636 0.76185 0.04575 0.0
C546 C 0.51613 0.75825 0.02859 0.0
C547 C 0.50779 0.76735 0.0161 0.0
C548 C 0.49953 0.78008 0.02127 0.0
C549 C 0.49995 0.7837 0.03839 0.0
C550 C 0.52934 0.75515 0.93592 0.0
C551 C 0.54388 0.74431 0.93222 0.0
C552 C 0.56161 0.74601 0.92056 0.0
C553 C 0.56515 0.75865 0.91237 0.0
C554 C 0.55134 0.76971 0.91682 0.0
C555 C 0.53353 0.76797 0.92835 0.0
C556 C 0.48787 0.75351 0.93586 0.0
C557 C 0.47752 0.76617 0.93265 0.0
C558 C 0.45985 0.76726 0.92057 0.0
C559 C 0.45207 0.75569 0.9116 0.0
C560 C 0.46143 0.74291 0.9158 0.0
C561 C 0.47922 0.74188 0.92771 0.0
C562 C 0.5085 0.75652 0.96302 0.0
C563 C 0.50351 0.74668 0.97546 0.0
C564 C 0.50312 0.75016 0.99263 0.0
C565 C 0.50785 0.76363 0.99777 0.0
C566 C 0.5127 0.77353 0.98522 0.0
C567 C 0.51288 0.77005 0.96803 0.0
H568 H 0.79497 0.0591 0.52669 0.0
N569 N 0.83422 0.05751 0.5083 0.0
H570 H 0.78821 0.07496 0.54993 0.0
H571 H 0.86551 0.07224 0.52474 0.0
H572 H 0.85941 0.08758 0.54854 0.0
H573 H 0.86283 0.0674 0.4852 0.0
H574 H 0.85387 0.08344 0.46214 0.0
H575 H 0.79117 0.06442 0.49741 0.0
H576 H 0.782 0.08026 0.47435 0.0
H577 H 0.79692 0.04091 0.50203 0.0
H578 H 0.86851 0.04109 0.51584 0.0
H579 H 0.79675 0.01594 0.50155 0.0
H580 H 0.86837 0.0162 0.51628 0.0
H581 H 0.79683 0.94535 0.51883 0.0
H582 H 0.79059 0.92892 0.54176 0.0
H583 H 0.86204 0.9325 0.55629 0.0
H584 H 0.86821 0.94858 0.53282 0.0
H585 H 0.86818 0.93942 0.49354 0.0
H586 H 0.8609 0.9238 0.47006 0.0
H587 H 0.79154 0.93861 0.46569 0.0
H588 H 0.79909 0.95415 0.48947 0.0
H589 H 0.80116 0.97043 0.51773 0.0
H590 H 0.79906 0.99538 0.51805 0.0
H591 H 0.86728 0.99792 0.49728 0.0
N592 N 0.83837 0.95535 0.50859 0.0
H593 H 0.86952 0.97309 0.49787 0.0
C594 C 0.83069 0.0647 0.52387 0.0
C595 C 0.8091 0.06522 0.53151 0.0
C596 C 0.80533 0.07423 0.54489 0.0
C597 C 0.82317 0.08276 0.55094 0.0
C598 C 0.84512 0.08147 0.54393 0.0
C599 C 0.84875 0.0726 0.53048 0.0
C600 C 0.82778 0.06471 0.49301 0.0
C601 C 0.84511 0.06991 0.48257 0.0
C602 C 0.83993 0.07906 0.46941 0.0
C603 C 0.81722 0.08323 0.46652 0.0
C604 C 0.79969 0.0774 0.47642 0.0
C605 C 0.80491 0.06822 0.48954 0.0
C606 C 0.83293 0.04284 0.50868 0.0
C607 C 0.81258 0.03558 0.50503 0.0
C608 C 0.81248 0.02126 0.50492 0.0
C609 C 0.83264 0.01397 0.50864 0.0
C610 C 0.85268 0.02138 0.51286 0.0
C611 C 0.85279 0.03562 0.51277 0.0
C612 C 0.83311 0.94808 0.52404 0.0
C613 C 0.81103 0.94282 0.52715 0.0
C614 C 0.80748 0.93344 0.54036 0.0
C615 C 0.8259 0.9292 0.55074 0.0
C616 C 0.84758 0.9353 0.54832 0.0
C617 C 0.85112 0.9446 0.53506 0.0
C618 C 0.83425 0.94788 0.4932 0.0
C619 C 0.85158 0.93947 0.48725 0.0
C620 C 0.84736 0.93058 0.4738 0.0
C621 C 0.8256 0.92992 0.46598 0.0
C622 C 0.80841 0.93877 0.47156 0.0
C623 C 0.81271 0.94771 0.48505 0.0
C624 C 0.83574 0.96994 0.50805 0.0
C625 C 0.81566 0.97639 0.51334 0.0
C626 C 0.81443 0.99068 0.51337 0.0
C627 C 0.83314 0.99875 0.50793 0.0
C628 C 0.85278 0.99213 0.50204 0.0
C629 C 0.85406 0.97793 0.50221 0.0
H630 H 0.53128 0.21532 0.09062 0.0
N631 N 0.50982 0.23268 0.07022 0.0
H632 H 0.56341 0.22015 0.10989 0.0
H633 H 0.53411 0.25662 0.07168 0.0
H634 H 0.56643 0.26164 0.09099 0.0
H635 H 0.49534 0.25674 0.0836 0.0
H636 H 0.46329 0.25944 0.10278 0.0
H637 H 0.47673 0.21453 0.07628 0.0
H638 H 0.44364 0.21728 0.09468 0.0
H639 H 0.53084 0.2164 0.04894 0.0
H640 H 0.49153 0.25331 0.0507 0.0
H641 H 0.53208 0.21802 0.0181 0.0
H642 H 0.49127 0.25458 0.01967 0.0
H643 H 0.53184 0.21668 0.92596 0.0
H644 H 0.56404 0.22026 0.90674 0.0
H645 H 0.56723 0.26275 0.92103 0.0
H646 H 0.53475 0.25907 0.93988 0.0
H647 H 0.49452 0.25979 0.93081 0.0
H648 H 0.46377 0.26268 0.90982 0.0
H649 H 0.44692 0.21972 0.91429 0.0
H650 H 0.47864 0.21689 0.93449 0.0
H651 H 0.50821 0.21427 0.96406 0.0
H652 H 0.50802 0.21432 0.99499 0.0
H653 H 0.51172 0.25846 0.99432 0.0
N654 N 0.50983 0.23552 0.94325 0.0
H655 H 0.51029 0.25817 0.96321 0.0
C656 C 0.53036 0.23559 0.07985 0.0
C657 C 0.53919 0.22538 0.09047 0.0
C658 C 0.55757 0.22816 0.1014 0.0
C659 C 0.56747 0.24129 0.10198 0.0
C660 C 0.55903 0.25146 0.09093 0.0
C661 C 0.54066 0.24861 0.07987 0.0
C662 C 0.48864 0.23532 0.07877 0.0
C663 C 0.48403 0.24812 0.08583 0.0
C664 C 0.46549 0.24967 0.09673 0.0
C665 C 0.45102 0.23851 0.10059 0.0
C666 C 0.45476 0.226 0.09242 0.0
C667 C 0.47348 0.22443 0.08173 0.0
C668 C 0.51082 0.23454 0.05209 0.0
C669 C 0.52235 0.22482 0.04259 0.0
C670 C 0.5228 0.22571 0.02493 0.0
C671 C 0.51131 0.23627 0.01625 0.0
C672 C 0.50036 0.24632 0.02586 0.0
C673 C 0.50029 0.24554 0.04364 0.0
C674 C 0.53097 0.23755 0.93434 0.0
C675 C 0.53988 0.22667 0.92518 0.0
C676 C 0.55829 0.22875 0.91424 0.0
C677 C 0.56815 0.24182 0.91225 0.0
C678 C 0.55983 0.2526 0.92208 0.0
C679 C 0.54137 0.25049 0.933 0.0
C680 C 0.48902 0.23805 0.93392 0.0
C681 C 0.48398 0.25106 0.92741 0.0
C682 C 0.46626 0.2527 0.91548 0.0
C683 C 0.4531 0.24137 0.91005 0.0
C684 C 0.45709 0.22859 0.91776 0.0
C685 C 0.47499 0.22696 0.92947 0.0
C686 C 0.50968 0.23615 0.96143 0.0
C687 C 0.50894 0.22393 0.97065 0.0
C688 C 0.50906 0.22402 0.98835 0.0
C689 C 0.51033 0.2364 0.99729 0.0
C690 C 0.51068 0.24873 0.98794 0.0
C691 C 0.51018 0.2486 0.97013 0.0
C692 C 0.19021 0.33294 0.34739 0.0
C693 C 0.19955 0.33228 0.33104 0.0
C694 C 0.17798 0.34439 0.35243 0.0
C695 C 0.14628 0.37392 0.33481 0.0
H696 H 0.15187 0.38766 0.38072 0.0
C697 C 0.10201 0.42343 0.3553 0.0
C698 C 0.09023 0.42281 0.37078 0.0
C699 C 0.11687 0.413 0.35075 0.0
C700 C 0.15003 0.38389 0.36788 0.0
H701 H 0.20317 0.34321 0.30715 0.0
H702 H 0.18247 0.36329 0.31608 0.0
H703 H 0.17474 0.36821 0.37218 0.0
H704 H 0.08515 0.41074 0.39366 0.0
H705 H 0.11123 0.39268 0.3858 0.0
H706 H 0.12155 0.38958 0.33053 0.0
C707 C 0.18433 0.35487 0.32496 0.0
C708 C 0.16309 0.37272 0.36299 0.0
C709 C 0.19648 0.34341 0.31991 0.0
C710 C 0.09421 0.41169 0.38179 0.0
C711 C 0.10914 0.4013 0.37726 0.0
C712 C 0.13331 0.38511 0.33968 0.0
C713 C 0.1748 0.35549 0.34124 0.0
C714 C 0.1613 0.36755 0.34641 0.0
C715 C 0.12038 0.40173 0.36159 0.0
C716 C 0.13495 0.39019 0.35629 0.0
H717 H 0.19244 0.32462 0.35637 0.0
H718 H 0.17069 0.34444 0.365 0.0
H719 H 0.14413 0.37008 0.32204 0.0
H720 H 0.09963 0.43194 0.34664 0.0
H721 H 0.12557 0.41374 0.3387 0.0
C722 C 0.19534 0.67385 0.68788 0.0
C723 C 0.19151 0.6868 0.68064 0.0
C724 C 0.18303 0.66241 0.68222 0.0
C725 C 0.12951 0.65286 0.65927 0.0
H726 H 0.15763 0.61723 0.65736 0.0
C727 C 0.08194 0.60628 0.63131 0.0
C728 C 0.08258 0.59421 0.64106 0.0
C729 C 0.09641 0.61728 0.63522 0.0
C730 C 0.14953 0.62711 0.65793 0.0
H731 H 0.17174 0.69777 0.66157 0.0
H732 H 0.15089 0.67779 0.65132 0.0
H733 H 0.18072 0.63708 0.66563 0.0
H734 H 0.09948 0.58407 0.66221 0.0
H735 H 0.12487 0.60335 0.66904 0.0
H736 H 0.09837 0.6429 0.65148 0.0
C737 C 0.16312 0.67651 0.66162 0.0
C738 C 0.16273 0.63848 0.66271 0.0
C739 C 0.17534 0.68796 0.66736 0.0
C740 C 0.09851 0.59326 0.65453 0.0
C741 C 0.11314 0.60425 0.65836 0.0
C742 C 0.11639 0.64152 0.65438 0.0
C743 C 0.16663 0.6636 0.66909 0.0
C744 C 0.15285 0.65151 0.66352 0.0
C745 C 0.11197 0.61646 0.64891 0.0
C746 C 0.12622 0.62851 0.65371 0.0
H747 H 0.2079 0.67251 0.69796 0.0
H748 H 0.18605 0.65268 0.68841 0.0
H749 H 0.12117 0.66265 0.66007 0.0
H750 H 0.06968 0.6074 0.62098 0.0
H751 H 0.09527 0.6265 0.6276 0.0
C752 C 0.82982 0.68239 0.3458 0.0
C753 C 0.8314 0.68744 0.3291 0.0
C754 C 0.84247 0.671 0.35097 0.0
C755 C 0.89367 0.65126 0.34003 0.0
H756 H 0.86554 0.62259 0.36713 0.0
C757 C 0.93963 0.60058 0.35279 0.0
C758 C 0.93866 0.59512 0.36932 0.0
C759 C 0.92563 0.61144 0.34793 0.0
C760 C 0.87372 0.63057 0.35971 0.0
H761 H 0.84779 0.68462 0.30482 0.0
H762 H 0.86962 0.66472 0.31377 0.0
H763 H 0.84322 0.64257 0.35887 0.0
H764 H 0.92148 0.59652 0.39352 0.0
H765 H 0.89739 0.61567 0.38515 0.0
H766 H 0.92418 0.6394 0.34093 0.0
C767 C 0.8587 0.66958 0.3229 0.0
C768 C 0.86093 0.64202 0.35499 0.0
C769 C 0.84599 0.6809 0.31772 0.0
C770 C 0.92286 0.60057 0.38074 0.0
C771 C 0.90887 0.61147 0.37588 0.0
C772 C 0.90645 0.63986 0.34478 0.0
C773 C 0.85709 0.66449 0.33958 0.0
C774 C 0.87073 0.65246 0.345 0.0
C775 C 0.91035 0.61717 0.3595 0.0
C776 C 0.89661 0.62933 0.35459 0.0
H777 H 0.8186 0.68713 0.35483 0.0
H778 H 0.84101 0.6674 0.36394 0.0
H779 H 0.90186 0.65924 0.3326 0.0
H780 H 0.95176 0.59678 0.3437 0.0
H781 H 0.92696 0.61543 0.33512 0.0
C782 C 0.84459 0.3221 0.64995 0.0
C783 C 0.83752 0.31804 0.66625 0.0
C784 C 0.85387 0.33511 0.64714 0.0
C785 C 0.8821 0.36385 0.66962 0.0
H786 H 0.87016 0.38314 0.62735 0.0
C787 C 0.92011 0.41753 0.65586 0.0
C788 C 0.93069 0.41903 0.63998 0.0
C789 C 0.90627 0.40612 0.65938 0.0
C790 C 0.8737 0.37786 0.6392 0.0
H791 H 0.83464 0.32461 0.69237 0.0
H792 H 0.85024 0.34743 0.68736 0.0
H793 H 0.85063 0.36148 0.63302 0.0
H794 H 0.93467 0.40964 0.61531 0.0
H795 H 0.91028 0.39001 0.62135 0.0
H796 H 0.90528 0.38023 0.67573 0.0
C797 C 0.84891 0.34046 0.67679 0.0
C798 C 0.86257 0.36542 0.64243 0.0
C799 C 0.83969 0.32742 0.67961 0.0
C800 C 0.92647 0.40903 0.62755 0.0
C801 C 0.91252 0.39771 0.63103 0.0
C802 C 0.89312 0.37633 0.66643 0.0
C803 C 0.85625 0.34445 0.66053 0.0
C804 C 0.86689 0.35814 0.65758 0.0
C805 C 0.90254 0.39601 0.64706 0.0
C806 C 0.8893 0.38338 0.65107 0.0
H807 H 0.84289 0.31522 0.6393 0.0
H808 H 0.85959 0.33774 0.63449 0.0
H809 H 0.8861 0.35847 0.68132 0.0
H810 H 0.92269 0.4251 0.66565 0.0
H811 H 0.89857 0.40517 0.67179 0.0
C812 C 0.24124 0.18677 0.37455 0.0
C813 C 0.22307 0.19609 0.37456 0.0
C814 C 0.23885 0.17393 0.38226 0.0
C815 C 0.19499 0.14917 0.39751 0.0
H816 H 0.24475 0.13521 0.42541 0.0
C817 C 0.18229 0.1062 0.44682 0.0
C818 C 0.19951 0.09637 0.44891 0.0
C819 C 0.18551 0.11744 0.43609 0.0
C820 C 0.23082 0.13885 0.41745 0.0
H821 H 0.18799 0.19907 0.38244 0.0
H822 H 0.18402 0.17687 0.3962 0.0
H823 H 0.24981 0.15667 0.40995 0.0
H824 H 0.23345 0.09055 0.44088 0.0
H825 H 0.23914 0.1103 0.4222 0.0
H826 H 0.17585 0.13149 0.40529 0.0
C827 C 0.20005 0.1794 0.39007 0.0
C828 C 0.23371 0.15117 0.40859 0.0
C829 C 0.20243 0.19222 0.38237 0.0
C830 C 0.21993 0.09799 0.43974 0.0
C831 C 0.22319 0.1093 0.42903 0.0
C832 C 0.19208 0.13688 0.4064 0.0
C833 C 0.21823 0.1701 0.39014 0.0
C834 C 0.21571 0.15657 0.3987 0.0
C835 C 0.20608 0.11922 0.42721 0.0
C836 C 0.20985 0.13168 0.41666 0.0
H837 H 0.25744 0.18946 0.36878 0.0
H838 H 0.25313 0.16697 0.38196 0.0
H839 H 0.18093 0.15288 0.38974 0.0
H840 H 0.16655 0.1055 0.45395 0.0
H841 H 0.17213 0.125 0.43522 0.0
C842 C 0.31832 0.77862 0.79279 0.0
C843 C 0.32166 0.77013 0.77874 0.0
C844 C 0.33172 0.77713 0.80751 0.0
C845 C 0.38723 0.76384 0.82242 0.0
H846 H 0.35984 0.76469 0.86702 0.0
C847 C 0.43868 0.74933 0.8823 0.0
C848 C 0.43566 0.75705 0.89708 0.0
C849 C 0.42417 0.75098 0.86826 0.0
C850 C 0.36781 0.7646 0.85467 0.0
H851 H 0.34179 0.75347 0.76911 0.0
H852 H 0.36503 0.75079 0.79481 0.0
H853 H 0.33571 0.76755 0.84174 0.0
H854 H 0.41458 0.77245 0.90866 0.0
H855 H 0.38957 0.77559 0.88392 0.0
H856 H 0.41931 0.76103 0.83523 0.0
C857 C 0.35212 0.75865 0.79442 0.0
C858 C 0.35397 0.76622 0.84019 0.0
C859 C 0.33865 0.76009 0.77976 0.0
C860 C 0.41754 0.76641 0.89746 0.0
C861 C 0.40304 0.7681 0.88333 0.0
C862 C 0.40106 0.76229 0.83687 0.0
C863 C 0.34886 0.76717 0.80845 0.0
C864 C 0.36352 0.76575 0.8239 0.0
C865 C 0.40632 0.76049 0.8685 0.0
C866 C 0.39152 0.76253 0.85318 0.0
H867 H 0.30523 0.78637 0.79247 0.0
H868 H 0.32891 0.78391 0.81805 0.0
H869 H 0.39518 0.76369 0.81007 0.0
H870 H 0.45264 0.74219 0.88138 0.0
H871 H 0.42701 0.74478 0.85717 0.0
C872 C 0.78155 0.82642 0.38528 0.0
C873 C 0.80002 0.82127 0.37608 0.0
C874 C 0.78351 0.83896 0.39359 0.0
C875 C 0.82732 0.86318 0.41029 0.0
H876 H 0.77593 0.88779 0.41324 0.0
C877 C 0.8373 0.91598 0.44092 0.0
C878 C 0.82067 0.91935 0.45293 0.0
C879 C 0.83392 0.9049 0.43009 0.0
C880 C 0.79039 0.88098 0.41258 0.0
H881 H 0.8347 0.82548 0.36785 0.0
H882 H 0.83805 0.84742 0.38206 0.0
H883 H 0.77181 0.86668 0.39712 0.0
H884 H 0.78701 0.91395 0.46248 0.0
H885 H 0.78102 0.8947 0.44342 0.0
H886 H 0.84588 0.87746 0.42572 0.0
C887 C 0.82223 0.84163 0.38327 0.0
C888 C 0.78803 0.86886 0.40339 0.0
C889 C 0.82031 0.82906 0.37508 0.0
C890 C 0.80007 0.91175 0.45326 0.0
C891 C 0.79665 0.90069 0.44236 0.0
C892 C 0.82971 0.87531 0.41936 0.0
C893 C 0.80395 0.84669 0.39278 0.0
C894 C 0.80645 0.85978 0.40218 0.0
C895 C 0.81377 0.89694 0.43094 0.0
C896 C 0.81127 0.88433 0.42067 0.0
H897 H 0.76576 0.82059 0.38642 0.0
H898 H 0.7692 0.84242 0.40098 0.0
H899 H 0.84173 0.85633 0.40995 0.0
H900 H 0.85316 0.92177 0.44009 0.0
H901 H 0.84724 0.90243 0.42119 0.0
C902 C 0.68809 0.26845 0.78932 0.0
C903 C 0.70468 0.25871 0.78536 0.0
C904 C 0.67397 0.26663 0.80337 0.0
C905 C 0.66969 0.24818 0.84429 0.0
H906 H 0.60529 0.25707 0.84008 0.0
C907 C 0.60295 0.23475 0.896 0.0
C908 C 0.58578 0.24436 0.89906 0.0
C909 C 0.61827 0.23665 0.88263 0.0
C910 C 0.62329 0.2547 0.84155 0.0
H911 H 0.71955 0.23945 0.79321 0.0
H912 H 0.69463 0.23616 0.81763 0.0
H913 H 0.63015 0.25988 0.81567 0.0
H914 H 0.57151 0.26362 0.89055 0.0
H915 H 0.59851 0.2671 0.86757 0.0
H916 H 0.66275 0.24297 0.87021 0.0
C917 C 0.6927 0.24527 0.80992 0.0
C918 C 0.63754 0.2563 0.82754 0.0
C919 C 0.7068 0.24708 0.79582 0.0
C920 C 0.58467 0.25608 0.8887 0.0
C921 C 0.59996 0.25799 0.87536 0.0
C922 C 0.65541 0.24658 0.85833 0.0
C923 C 0.67609 0.25502 0.81384 0.0
C924 C 0.66093 0.2531 0.82874 0.0
C925 C 0.61673 0.2482 0.872 0.0
C926 C 0.63205 0.24987 0.85714 0.0
H927 H 0.68582 0.27744 0.78143 0.0
H928 H 0.66153 0.2744 0.80613 0.0
H929 H 0.68768 0.24578 0.84571 0.0
H930 H 0.60441 0.22567 0.90384 0.0
H931 H 0.6309 0.22888 0.88034 0.0
C932 C 0.22242 0.83365 0.64208 0.0
C933 C 0.21269 0.82147 0.63575 0.0
C934 C 0.21991 0.84596 0.63317 0.0
C935 C 0.18313 0.86281 0.60122 0.0
H936 H 0.23551 0.88673 0.59395 0.0
C937 C 0.18117 0.90602 0.55155 0.0
C938 C 0.19277 0.91834 0.55505 0.0
C939 C 0.18319 0.89483 0.5625 0.0
C940 C 0.22061 0.8803 0.59609 0.0
H941 H 0.19319 0.81274 0.6148 0.0
H942 H 0.18852 0.8342 0.59948 0.0
H943 H 0.23995 0.86602 0.61104 0.0
H944 H 0.21535 0.92863 0.57296 0.0
H945 H 0.21867 0.90908 0.59229 0.0
H946 H 0.16373 0.87701 0.58636 0.0
C947 C 0.19785 0.83424 0.61144 0.0
C948 C 0.22319 0.86841 0.60585 0.0
C949 C 0.20049 0.82194 0.62027 0.0
C950 C 0.20633 0.91924 0.56986 0.0
C951 C 0.20828 0.90803 0.5809 0.0
C952 C 0.18051 0.87472 0.59157 0.0
C953 C 0.20747 0.8464 0.6178 0.0
C954 C 0.20454 0.85944 0.60831 0.0
C955 C 0.19679 0.89566 0.57731 0.0
C956 C 0.19929 0.88351 0.58865 0.0
H957 H 0.23166 0.83373 0.65407 0.0
H958 H 0.22735 0.85519 0.63845 0.0
H959 H 0.16834 0.85622 0.60315 0.0
H960 H 0.17099 0.90488 0.54006 0.0
H961 H 0.17451 0.8854 0.55911 0.0
C962 C 0.69345 0.76046 0.22546 0.0
C963 C 0.69728 0.77283 0.23404 0.0
C964 C 0.68143 0.76021 0.21 0.0
C965 C 0.66204 0.78275 0.17454 0.0
H966 H 0.61822 0.75351 0.16601 0.0
C967 C 0.5905 0.78607 0.12365 0.0
C968 C 0.5856 0.77441 0.11387 0.0
C969 C 0.60617 0.7855 0.13716 0.0
C970 C 0.63062 0.76164 0.1681 0.0
H971 H 0.69174 0.79468 0.23282 0.0
H972 H 0.67015 0.79418 0.2063 0.0
H973 H 0.64135 0.75319 0.19197 0.0
H974 H 0.59411 0.75311 0.11039 0.0
H975 H 0.62117 0.75209 0.13423 0.0
H976 H 0.65075 0.79138 0.15087 0.0
C977 C 0.67675 0.78468 0.21134 0.0
C978 C 0.64392 0.76146 0.18298 0.0
C979 C 0.68885 0.78493 0.22673 0.0
C980 C 0.59716 0.76223 0.11779 0.0
C981 C 0.6127 0.76164 0.13142 0.0
C982 C 0.64862 0.78298 0.15974 0.0
C983 C 0.67288 0.77232 0.20275 0.0
C984 C 0.65962 0.7721 0.18649 0.0
C985 C 0.61721 0.77324 0.14134 0.0
C986 C 0.6326 0.7725 0.15644 0.0
H987 H 0.69948 0.75091 0.23078 0.0
H988 H 0.67899 0.75052 0.20367 0.0
H989 H 0.67429 0.79096 0.17662 0.0
H990 H 0.58164 0.79555 0.12129 0.0
H991 H 0.60904 0.79456 0.14471 0.0
C992 C 0.80062 0.18224 0.64264 0.0
C993 C 0.78396 0.18115 0.65536 0.0
C994 C 0.80445 0.1714 0.63164 0.0
C995 C 0.79725 0.1342 0.62733 0.0
H996 H 0.80385 0.14186 0.57929 0.0
C997 C 0.80346 0.09137 0.57711 0.0
C998 C 0.81871 0.0936 0.56363 0.0
C999 C 0.79883 0.10183 0.58856 0.0
C1000 C 0.80235 0.13954 0.59269 0.0
H1001 H 0.75813 0.16774 0.66631 0.0
H1002 H 0.76511 0.14876 0.64725 0.0
H1003 H 0.79685 0.1605 0.59876 0.0
H1004 H 0.84081 0.10871 0.55163 0.0
H1005 H 0.83344 0.12663 0.57183 0.0
H1006 H 0.80307 0.11326 0.6213 0.0
C1007 C 0.77531 0.158 0.64592 0.0
C1008 C 0.79829 0.15024 0.60384 0.0
C1009 C 0.77136 0.16888 0.65686 0.0
C1010 C 0.82928 0.1065 0.56199 0.0
C1011 C 0.82475 0.11689 0.57345 0.0
C1012 C 0.80147 0.12349 0.61618 0.0
C1013 C 0.79182 0.15916 0.63313 0.0
C1014 C 0.79579 0.14771 0.6213 0.0
C1015 C 0.80933 0.11475 0.58681 0.0
C1016 C 0.80421 0.12604 0.59871 0.0
H1017 H 0.81095 0.19142 0.6413 0.0
H1018 H 0.81754 0.17253 0.62207 0.0
H1019 H 0.79561 0.13195 0.64075 0.0
H1020 H 0.79514 0.08154 0.57884 0.0
H1021 H 0.78671 0.09984 0.59862 0.0
C1022 C 0.3339 0.23274 0.22732 0.0
C1023 C 0.32492 0.24491 0.23369 0.0
C1024 C 0.34551 0.23266 0.21192 0.0
C1025 C 0.37592 0.25529 0.18156 0.0
H1026 H 0.3698 0.22384 0.15221 0.0
C1027 C 0.42127 0.25174 0.11652 0.0
C1028 C 0.43337 0.23957 0.11405 0.0
C1029 C 0.40605 0.25293 0.13004 0.0
C1030 C 0.3717 0.23268 0.16029 0.0
H1031 H 0.32125 0.2666 0.22874 0.0
H1032 H 0.34091 0.26637 0.20159 0.0
H1033 H 0.34691 0.22504 0.17782 0.0
H1034 H 0.43879 0.21912 0.12408 0.0
H1035 H 0.4119 0.22111 0.14719 0.0
H1036 H 0.40077 0.26289 0.1639 0.0
C1037 C 0.33926 0.25691 0.20867 0.0
C1038 C 0.35867 0.23335 0.17502 0.0
C1039 C 0.32774 0.257 0.22416 0.0
C1040 C 0.42943 0.22855 0.12524 0.0
C1041 C 0.41407 0.22969 0.13859 0.0
C1042 C 0.38883 0.25466 0.16672 0.0
C1043 C 0.34831 0.24473 0.20236 0.0
C1044 C 0.36092 0.24454 0.18602 0.0
C1045 C 0.40239 0.24193 0.14126 0.0
C1046 C 0.38715 0.24323 0.1561 0.0
H1047 H 0.33179 0.22319 0.23416 0.0
H1048 H 0.35254 0.22312 0.20763 0.0
H1049 H 0.37831 0.264 0.1898 0.0
H1050 H 0.42359 0.26039 0.10806 0.0
H1051 H 0.39711 0.26245 0.13171 0.0
C1052 C 0.82268 0.67201 0.69315 0.0
C1053 C 0.82882 0.6853 0.68792 0.0
C1054 C 0.83529 0.66076 0.68791 0.0
C1055 C 0.89228 0.65177 0.67147 0.0
H1056 H 0.86245 0.61755 0.65952 0.0
C1057 C 0.94109 0.60839 0.63979 0.0
C1058 C 0.9372 0.59501 0.64574 0.0
C1059 C 0.92725 0.61907 0.64497 0.0
C1060 C 0.87103 0.627 0.66299 0.0
H1061 H 0.85304 0.69712 0.67297 0.0
H1062 H 0.87457 0.67752 0.66349 0.0
H1063 H 0.83934 0.63689 0.66819 0.0
H1064 H 0.91547 0.58236 0.66167 0.0
H1065 H 0.89127 0.60113 0.67085 0.0
H1066 H 0.92392 0.64194 0.66617 0.0
C1067 C 0.86022 0.6758 0.67186 0.0
C1068 C 0.8578 0.63808 0.66796 0.0
C1069 C 0.84766 0.68704 0.67712 0.0
C1070 C 0.91897 0.59256 0.65692 0.0
C1071 C 0.90501 0.60328 0.66206 0.0
C1072 C 0.90546 0.64073 0.66645 0.0
C1073 C 0.85433 0.66253 0.67731 0.0
C1074 C 0.86827 0.65064 0.67217 0.0
C1075 C 0.90916 0.61668 0.65625 0.0
C1076 C 0.895 0.62824 0.66205 0.0
H1077 H 0.80809 0.67027 0.70128 0.0
H1078 H 0.83036 0.65071 0.69246 0.0
H1079 H 0.90097 0.66117 0.67498 0.0
H1080 H 0.95518 0.61069 0.63136 0.0
H1081 H 0.93074 0.62924 0.6401 0.0
C1082 C 0.85001 0.32625 0.34252 0.0
C1083 C 0.82949 0.3282 0.33335 0.0
C1084 C 0.86332 0.33742 0.34776 0.0
C1085 C 0.8615 0.37477 0.35498 0.0
H1086 H 0.92745 0.37217 0.35087 0.0
C1087 C 0.92373 0.42093 0.36427 0.0
C1088 C 0.94399 0.41836 0.37352 0.0
C1089 C 0.90906 0.41016 0.35956 0.0
C1090 C 0.90908 0.37302 0.35226 0.0
H1091 H 0.80656 0.34349 0.32297 0.0
H1092 H 0.83004 0.36296 0.33176 0.0
H1093 H 0.90318 0.35297 0.34255 0.0
H1094 H 0.96481 0.40244 0.3849 0.0
H1095 H 0.93916 0.38379 0.37694 0.0
H1096 H 0.86753 0.39492 0.3646 0.0
C1097 C 0.83576 0.35279 0.33503 0.0
C1098 C 0.89515 0.36199 0.34752 0.0
C1099 C 0.82242 0.34161 0.32981 0.0
C1100 C 0.94919 0.40481 0.37799 0.0
C1101 C 0.93462 0.39409 0.37324 0.0
C1102 C 0.87547 0.38584 0.35969 0.0
C1103 C 0.85648 0.35083 0.34394 0.0
C1104 C 0.87119 0.36268 0.34891 0.0
C1105 C 0.91446 0.39661 0.36388 0.0
C1106 C 0.89943 0.38505 0.35848 0.0
H1107 H 0.8561 0.31608 0.34534 0.0
H1108 H 0.87902 0.33554 0.35481 0.0
H1109 H 0.84313 0.3756 0.35639 0.0
H1110 H 0.91919 0.43125 0.36071 0.0
H1111 H 0.89372 0.41242 0.35225 0.0
C1112 C 0.19824 0.34249 0.6808 0.0
C1113 C 0.1907 0.32918 0.67692 0.0
C1114 C 0.18574 0.35382 0.67534 0.0
C1115 C 0.14192 0.36478 0.64404 0.0
H1116 H 0.13111 0.39385 0.67603 0.0
C1117 C 0.07291 0.40537 0.63236 0.0
C1118 C 0.07752 0.4189 0.63729 0.0
C1119 C 0.08809 0.39494 0.63656 0.0
C1120 C 0.13425 0.38593 0.66685 0.0
H1121 H 0.16403 0.3174 0.66419 0.0
H1122 H 0.14232 0.33717 0.65456 0.0
H1123 H 0.15508 0.37466 0.68442 0.0
H1124 H 0.10189 0.43207 0.65036 0.0
H1125 H 0.12856 0.4138 0.65766 0.0
H1126 H 0.12103 0.376 0.62649 0.0
C1127 C 0.15806 0.33883 0.66169 0.0
C1128 C 0.14797 0.37492 0.67167 0.0
C1129 C 0.17052 0.3275 0.66721 0.0
C1130 C 0.09776 0.42174 0.6465 0.0
C1131 C 0.11301 0.41127 0.65069 0.0
C1132 C 0.12827 0.37581 0.6392 0.0
C1133 C 0.16545 0.35213 0.66578 0.0
C1134 C 0.15176 0.36414 0.66038 0.0
C1135 C 0.10831 0.39773 0.6458 0.0
C1136 C 0.12404 0.38645 0.65061 0.0
H1137 H 0.21392 0.34418 0.68799 0.0
H1138 H 0.19207 0.36393 0.67848 0.0
H1139 H 0.14483 0.35676 0.63495 0.0
H1140 H 0.05724 0.40276 0.62559 0.0
H1141 H 0.08365 0.3846 0.6329 0.0
C1142 C 0.18213 0.68651 0.33725 0.0
C1143 C 0.18504 0.69595 0.35049 0.0
C1144 C 0.17122 0.67393 0.34013 0.0
C1145 C 0.12984 0.65746 0.36866 0.0
H1146 H 0.15267 0.62355 0.35062 0.0
C1147 C 0.08843 0.60619 0.38696 0.0
C1148 C 0.08516 0.59639 0.37417 0.0
C1149 C 0.10209 0.61775 0.38417 0.0
C1150 C 0.14593 0.63295 0.35559 0.0
H1151 H 0.17948 0.69926 0.37733 0.0
H1152 H 0.16017 0.67745 0.38225 0.0
H1153 H 0.17365 0.64488 0.3454 0.0
H1154 H 0.09456 0.59094 0.34855 0.0
H1155 H 0.11783 0.61137 0.34348 0.0
H1156 H 0.10195 0.64572 0.37857 0.0
C1157 C 0.16609 0.67986 0.36959 0.0
C1158 C 0.15798 0.64516 0.35262 0.0
C1159 C 0.17711 0.69238 0.36675 0.0
C1160 C 0.09644 0.59834 0.35863 0.0
C1161 C 0.11002 0.60999 0.35578 0.0
C1162 C 0.11775 0.64531 0.37153 0.0
C1163 C 0.16284 0.67054 0.35629 0.0
C1164 C 0.15012 0.65753 0.35922 0.0
C1165 C 0.11269 0.61996 0.36844 0.0
C1166 C 0.12569 0.63287 0.36514 0.0
H1167 H 0.18775 0.68896 0.32452 0.0
H1168 H 0.16876 0.66701 0.32959 0.0
H1169 H 0.1231 0.66686 0.37364 0.0
H1170 H 0.07981 0.60522 0.39901 0.0
H1171 H 0.1041 0.62506 0.39433 0.0
C1172 C 0.7931 0.8193 0.62175 0.0
C1173 C 0.79809 0.81863 0.63923 0.0
C1174 C 0.79502 0.83165 0.61288 0.0
C1175 C 0.79863 0.86919 0.6183 0.0
H1176 H 0.8266 0.86804 0.57393 0.0
C1177 C 0.84003 0.90753 0.56415 0.0
C1178 C 0.82303 0.91756 0.56283 0.0
C1179 C 0.83676 0.89595 0.57427 0.0
C1180 C 0.81892 0.86858 0.58636 0.0
H1181 H 0.80881 0.83047 0.66111 0.0
H1182 H 0.81228 0.85204 0.6456 0.0
H1183 H 0.82109 0.84699 0.58996 0.0
H1184 H 0.78951 0.92343 0.57168 0.0
H1185 H 0.78361 0.90302 0.58919 0.0
H1186 H 0.79694 0.89088 0.61476 0.0
C1187 C 0.80657 0.84303 0.6388 0.0
C1188 C 0.81547 0.85647 0.59546 0.0
C1189 C 0.80461 0.83067 0.64769 0.0
C1190 C 0.80287 0.91585 0.57228 0.0
C1191 C 0.79958 0.90422 0.58244 0.0
C1192 C 0.80207 0.88134 0.60916 0.0
C1193 C 0.80204 0.84364 0.62124 0.0
C1194 C 0.80531 0.8566 0.61155 0.0
C1195 C 0.81634 0.89402 0.58332 0.0
C1196 C 0.81237 0.88118 0.59311 0.0
H1197 H 0.78761 0.81027 0.61492 0.0
H1198 H 0.79095 0.8318 0.59944 0.0
H1199 H 0.79057 0.86964 0.6306 0.0
H1200 H 0.85565 0.90837 0.55689 0.0
H1201 H 0.85018 0.8884 0.57487 0.0
C1202 C 0.70577 0.25267 0.22053 0.0
C1203 C 0.69564 0.24695 0.23509 0.0
C1204 C 0.69319 0.25393 0.20539 0.0
C1205 C 0.63388 0.25443 0.18825 0.0
H1206 H 0.66203 0.24332 0.14626 0.0
C1207 C 0.60287 0.235 0.11851 0.0
C1208 C 0.58548 0.24443 0.11489 0.0
C1209 C 0.61809 0.23712 0.13207 0.0
C1210 C 0.65394 0.24647 0.15788 0.0
H1211 H 0.66419 0.23841 0.24527 0.0
H1212 H 0.64238 0.24042 0.21885 0.0
H1213 H 0.6846 0.24341 0.17253 0.0
H1214 H 0.57099 0.26376 0.12228 0.0
H1215 H 0.59779 0.26756 0.14583 0.0
H1216 H 0.60301 0.25702 0.17376 0.0
C1217 C 0.65999 0.24402 0.21914 0.0
C1218 C 0.66693 0.24665 0.1729 0.0
C1219 C 0.67257 0.24271 0.23423 0.0
C1220 C 0.58429 0.25634 0.12467 0.0
C1221 C 0.59948 0.25844 0.13828 0.0
C1222 C 0.62093 0.25429 0.17324 0.0
C1223 C 0.67018 0.24957 0.20451 0.0
C1224 C 0.65693 0.25041 0.18831 0.0
C1225 C 0.61624 0.24871 0.14236 0.0
C1226 C 0.6307 0.2501 0.15792 0.0
H1227 H 0.72355 0.25594 0.22074 0.0
H1228 H 0.70148 0.25834 0.19437 0.0
H1229 H 0.62576 0.25755 0.19987 0.0
H1230 H 0.60439 0.2258 0.11109 0.0
H1231 H 0.63068 0.22937 0.13492 0.0
C1232 C 0.24482 0.18877 0.62644 0.0
C1233 C 0.2254 0.1939 0.63454 0.0
C1234 C 0.24391 0.17612 0.61834 0.0
C1235 C 0.21126 0.14365 0.61641 0.0
H1236 H 0.23558 0.14142 0.57094 0.0
C1237 C 0.18825 0.09959 0.57085 0.0
C1238 C 0.20462 0.09535 0.55908 0.0
C1239 C 0.19273 0.11068 0.58148 0.0
C1240 C 0.22908 0.14175 0.58375 0.0
H1241 H 0.18998 0.18959 0.64087 0.0
H1242 H 0.18835 0.16754 0.62667 0.0
H1243 H 0.23978 0.16257 0.58675 0.0
H1244 H 0.23899 0.09919 0.54982 0.0
H1245 H 0.2471 0.11821 0.56875 0.0
H1246 H 0.20048 0.12286 0.61341 0.0
C1247 C 0.20431 0.17329 0.62662 0.0
C1248 C 0.23144 0.15391 0.59279 0.0
C1249 C 0.20516 0.18598 0.6346 0.0
C1250 C 0.22602 0.10209 0.55879 0.0
C1251 C 0.23055 0.11315 0.56949 0.0
C1252 C 0.20903 0.13145 0.60741 0.0
C1253 C 0.22361 0.16826 0.61829 0.0
C1254 C 0.2223 0.15506 0.60913 0.0
C1255 C 0.21378 0.11778 0.58071 0.0
C1256 C 0.21766 0.13039 0.59086 0.0
H1257 H 0.26062 0.19467 0.62608 0.0
H1258 H 0.25912 0.17248 0.61213 0.0
H1259 H 0.20433 0.14417 0.62908 0.0
H1260 H 0.17171 0.09452 0.5716 0.0
H1261 H 0.17932 0.11399 0.58985 0.0
C1262 C 0.3133 0.74675 0.21393 0.0
C1263 C 0.31976 0.75301 0.22928 0.0
C1264 C 0.32637 0.7487 0.19933 0.0
C1265 C 0.36953 0.77187 0.18022 0.0
H1266 H 0.38144 0.74106 0.1511 0.0
C1267 C 0.41689 0.77842 0.11675 0.0
C1268 C 0.43395 0.76882 0.11334 0.0
C1269 C 0.40161 0.77628 0.13009 0.0
C1270 C 0.37834 0.74976 0.15913 0.0
H1271 H 0.34522 0.76611 0.24134 0.0
H1272 H 0.368 0.76952 0.21589 0.0
H1273 H 0.35798 0.73784 0.17628 0.0
H1274 H 0.44811 0.74936 0.12119 0.0
H1275 H 0.42145 0.74563 0.14438 0.0
H1276 H 0.39035 0.78371 0.16332 0.0
C1277 C 0.35262 0.76326 0.21507 0.0
C1278 C 0.3647 0.74794 0.17347 0.0
C1279 C 0.33956 0.76131 0.22967 0.0
C1280 C 0.43496 0.75686 0.12329 0.0
C1281 C 0.41968 0.75473 0.13662 0.0
C1282 C 0.38312 0.77368 0.16587 0.0
C1283 C 0.34621 0.75697 0.19973 0.0
C1284 C 0.36025 0.75896 0.18424 0.0
C1285 C 0.40303 0.7645 0.14033 0.0
C1286 C 0.3878 0.76264 0.1552 0.0
H1287 H 0.29795 0.74048 0.21312 0.0
H1288 H 0.32076 0.74388 0.18766 0.0
H1289 H 0.36623 0.7806 0.18814 0.0
H1290 H 0.41542 0.78764 0.10917 0.0
H1291 H 0.38873 0.7839 0.13241 0.0
C1292 C 0.78407 0.19114 0.39295 0.0
C1293 C 0.79466 0.19322 0.37719 0.0
C1294 C 0.78516 0.17847 0.40116 0.0
C1295 C 0.81986 0.14748 0.40396 0.0
H1296 H 0.76652 0.13212 0.4263 0.0
C1297 C 0.82315 0.09529 0.43854 0.0
C1298 C 0.81218 0.09448 0.45432 0.0
C1299 C 0.81972 0.10652 0.42775 0.0
C1300 C 0.78164 0.13631 0.42026 0.0
H1301 H 0.81474 0.18361 0.3577 0.0
H1302 H 0.81662 0.16144 0.37205 0.0
H1303 H 0.76314 0.15339 0.41025 0.0
H1304 H 0.78898 0.10486 0.4711 0.0
H1305 H 0.78315 0.1244 0.45244 0.0
H1306 H 0.83853 0.13063 0.41429 0.0
C1307 C 0.80751 0.16965 0.37806 0.0
C1308 C 0.77967 0.1485 0.41104 0.0
C1309 C 0.80626 0.1823 0.36978 0.0
C1310 C 0.79736 0.10502 0.4589 0.0
C1311 C 0.79402 0.11625 0.44817 0.0
C1312 C 0.82186 0.13533 0.41326 0.0
C1313 C 0.79701 0.1676 0.39386 0.0
C1314 C 0.79881 0.15429 0.40292 0.0
C1315 C 0.80533 0.11723 0.43254 0.0
C1316 C 0.80283 0.12966 0.42168 0.0
H1317 H 0.77483 0.19931 0.39892 0.0
H1318 H 0.77708 0.17725 0.4134 0.0
H1319 H 0.83498 0.15176 0.39801 0.0
H1320 H 0.83449 0.08727 0.43457 0.0
H1321 H 0.82842 0.10682 0.41569 0.0
C1322 C 0.31729 0.24622 0.7897 0.0
C1323 C 0.32768 0.2482 0.77385 0.0
C1324 C 0.33038 0.24666 0.80466 0.0
C1325 C 0.39022 0.24284 0.81981 0.0
H1326 H 0.3662 0.25666 0.86196 0.0
C1327 C 0.43545 0.23206 0.88332 0.0
C1328 C 0.43688 0.24255 0.89538 0.0
C1329 C 0.42152 0.23336 0.86892 0.0
C1330 C 0.37326 0.25288 0.85026 0.0
H1331 H 0.35972 0.2528 0.7613 0.0
H1332 H 0.38251 0.25383 0.78738 0.0
H1333 H 0.34348 0.25862 0.83587 0.0
H1334 H 0.42421 0.26258 0.90182 0.0
H1335 H 0.40033 0.26502 0.87634 0.0
H1336 H 0.42017 0.23741 0.834 0.0
C1337 C 0.36436 0.25157 0.78827 0.0
C1338 C 0.36012 0.25385 0.83533 0.0
C1339 C 0.35131 0.25101 0.77331 0.0
C1340 C 0.4237 0.25434 0.89273 0.0
C1341 C 0.40982 0.25568 0.87821 0.0
C1342 C 0.40336 0.24194 0.83466 0.0
C1343 C 0.35414 0.24918 0.80413 0.0
C1344 C 0.36837 0.24875 0.81993 0.0
C1345 C 0.40879 0.24526 0.86602 0.0
C1346 C 0.39497 0.24679 0.85013 0.0
H1347 H 0.29914 0.2439 0.79049 0.0
H1348 H 0.32196 0.24458 0.8166 0.0
H1349 H 0.39706 0.23864 0.80827 0.0
H1350 H 0.44559 0.22293 0.88471 0.0
H1351 H 0.42085 0.22502 0.85998 0.0
C1352 C 0.26452 0.84193 0.3612 0.0
C1353 C 0.24834 0.83125 0.35977 0.0
C1354 C 0.26027 0.85321 0.37143 0.0
C1355 C 0.21291 0.87169 0.39177 0.0
H1356 H 0.26166 0.8876 0.41928 0.0
C1357 C 0.19561 0.91032 0.44472 0.0
C1358 C 0.21062 0.92157 0.44648 0.0
C1359 C 0.20045 0.8998 0.43351 0.0
C1360 C 0.24794 0.88338 0.4115 0.0
H1361 H 0.21493 0.82411 0.36803 0.0
H1362 H 0.20778 0.84357 0.38619 0.0
H1363 H 0.26969 0.86811 0.40126 0.0
H1364 H 0.24248 0.93056 0.4376 0.0
H1365 H 0.25103 0.91206 0.41808 0.0
H1366 H 0.1911 0.88684 0.40218 0.0
C1367 C 0.22364 0.84334 0.3792 0.0
C1368 C 0.25253 0.8722 0.40117 0.0
C1369 C 0.22788 0.83207 0.36895 0.0
C1370 C 0.23065 0.922 0.4367 0.0
C1371 C 0.23555 0.9114 0.42551 0.0
C1372 C 0.20831 0.88282 0.40213 0.0
C1373 C 0.23973 0.85408 0.38051 0.0
C1374 C 0.23503 0.86616 0.39126 0.0
C1375 C 0.2205 0.90018 0.42381 0.0
C1376 C 0.22572 0.88874 0.41221 0.0
H1377 H 0.28058 0.84156 0.35447 0.0
H1378 H 0.27296 0.86134 0.37202 0.0
H1379 H 0.19913 0.86748 0.38405 0.0
H1380 H 0.18032 0.90944 0.45233 0.0
H1381 H 0.18871 0.89118 0.43275 0.0
C1382 C 0.67694 0.77526 0.78332 0.0
C1383 C 0.69826 0.76877 0.78247 0.0
C1384 C 0.66331 0.7738 0.79768 0.0
C1385 C 0.66525 0.76483 0.84323 0.0
H1386 H 0.59977 0.75963 0.83691 0.0
C1387 C 0.60311 0.75347 0.89891 0.0
C1388 C 0.58179 0.76004 0.89825 0.0
C1389 C 0.61804 0.75428 0.88513 0.0
C1390 C 0.61799 0.76122 0.83892 0.0
H1391 H 0.72207 0.75578 0.79619 0.0
H1392 H 0.69806 0.75309 0.82124 0.0
H1393 H 0.62437 0.76144 0.81224 0.0
H1394 H 0.55952 0.77256 0.88249 0.0
H1395 H 0.5857 0.77428 0.85883 0.0
H1396 H 0.65877 0.7647 0.86995 0.0
C1397 C 0.69201 0.75939 0.8108 0.0
C1398 C 0.6321 0.76225 0.82476 0.0
C1399 C 0.70565 0.76082 0.79638 0.0
C1400 C 0.57592 0.76755 0.88359 0.0
C1401 C 0.59081 0.76836 0.86988 0.0
C1402 C 0.6511 0.76383 0.85742 0.0
C1403 C 0.67063 0.76582 0.81158 0.0
C1404 C 0.65586 0.76421 0.82673 0.0
C1405 C 0.61194 0.76162 0.87038 0.0
C1406 C 0.62726 0.76215 0.85542 0.0
H1407 H 0.67061 0.78133 0.77277 0.0
H1408 H 0.64705 0.77903 0.79795 0.0
H1409 H 0.68348 0.76646 0.84517 0.0
H1410 H 0.60823 0.74768 0.91005 0.0
H1411 H 0.63414 0.7489 0.8859 0.0
loop_
_geom_bond_atom_site_label_1
_geom_bond_atom_site_label_2
_geom_bond_distance
_geom_bond_site_symmetry_2
_ccdc_geom_bond_type
C0 C1 1.264 . S
C0 C5 1.479 . S
C0 C10 1.465 . S
C1 C0 1.264 . S
C1 C3 1.339 . S
C1 H28 0.931 . S
C2 C3 1.395 . S
C2 C4 1.320 . S
C3 C1 1.339 . S
C3 C2 1.395 . S
C3 H29 0.929 . S
C4 C2 1.320 . S
C4 C5 1.405 . S
C4 H30 0.930 . S
C5 C0 1.479 . S
C5 C4 1.405 . S
C5 H31 0.931 . S
U6 O7 2.454 . S
U6 O8 2.458 . S
U6 C9 2.984 . S
U6 C10 2.847 . S
U6 C23 2.882 . S
U6 O24 2.441 . S
U6 O25 2.420 . S
U6 O26 2.455 . S
U6 O27 2.449 . S
O7 U6 2.454 . S
O7 C9 1.353 . S
O8 U6 2.458 . S
O8 C9 1.286 . S
C9 U6 2.984 . S
C9 O7 1.353 . S
C9 O8 1.286 . S
C9 C11 1.363 . S
C10 C0 1.465 . S
C10 U6 2.847 . S
C10 O24 1.249 . S
C10 O25 1.202 . S
C11 C9 1.363 . S
C11 C13 1.408 . S
C11 C16 1.342 . S
C12 C13 1.310 . S
C12 C15 1.461 . S
C12 H32 0.932 . S
C13 C11 1.408 . S
C13 C12 1.310 . S
C13 H33 0.930 . S
C14 C15 1.474 . S
C14 C16 1.285 . S
C14 H34 0.929 . S
C15 C12 1.461 . S
C15 C14 1.474 . S
C16 C11 1.342 . S
C16 C14 1.285 . S
C16 H35 0.930 . S
C17 C20 1.424 . S
C17 C22 1.245 . S
C17 C23 1.428 . S
C18 C21 1.260 . S
C18 C22 1.477 . S
C18 H36 0.932 . S
C19 C20 1.384 . S
C19 C21 1.479 . S
C19 H37 0.929 . S
C20 C17 1.424 . S
C20 C19 1.384 . S
C20 H38 0.928 . S
C21 C18 1.260 . S
C21 C19 1.479 . S
C22 C17 1.245 . S
C22 C18 1.477 . S
C22 H39 0.932 . S
C23 U6 2.882 . S
C23 C17 1.428 . S
C23 O26 1.301 . S
C23 O27 1.282 . S
O24 U6 2.441 . S
O24 C10 1.249 . S
O25 U6 2.420 . S
O25 C10 1.202 . S
O26 U6 2.455 . S
O26 C23 1.301 . S
O27 U6 2.449 . S
O27 C23 1.282 . S
H28 C1 0.931 . S
H29 C3 0.929 . S
H30 C4 0.930 . S
H31 C5 0.931 . S
H32 C12 0.932 . S
H33 C13 0.930 . S
H34 C14 0.929 . S
H35 C16 0.930 . S
H36 C18 0.932 . S
H37 C19 0.929 . S
H38 C20 0.928 . S
H39 C22 0.932 . S
C40 C41 1.264 . S
C40 C45 1.479 . S
C40 C50 1.465 . S
C41 C40 1.264 . S
C41 C43 1.339 . S
C41 H68 0.931 . S
C42 C43 1.395 . S
C42 C44 1.320 . S
C43 C41 1.339 . S
C43 C42 1.395 . S
C43 H69 0.929 . S
C44 C42 1.320 . S
C44 C45 1.405 . S
C44 H70 0.930 . S
C45 C40 1.479 . S
C45 C44 1.405 . S
C45 H71 0.931 . S
U46 O47 2.454 . S
U46 O48 2.458 . S
U46 C49 2.984 . S
U46 C50 2.847 . S
U46 C63 2.882 . S
U46 O64 2.441 . S
U46 O65 2.420 . S
U46 O66 2.455 . S
U46 O67 2.449 . S
O47 U46 2.454 . S
O47 C49 1.353 . S
O48 U46 2.458 . S
O48 C49 1.286 . S
C49 U46 2.984 . S
C49 O47 1.353 . S
C49 O48 1.286 . S
C49 C51 1.363 . S
C50 C40 1.465 . S
C50 U46 2.847 . S
C50 O64 1.249 . S
C50 O65 1.202 . S
C51 C49 1.363 . S
C51 C53 1.408 . S
C51 C56 1.342 . S
C52 C53 1.310 . S
C52 C55 1.461 . S
C52 H72 0.932 . S
C53 C51 1.408 . S
C53 C52 1.310 . S
C53 H73 0.930 . S
C54 C55 1.474 . S
C54 C56 1.285 . S
C54 H74 0.929 . S
C55 C52 1.461 . S
C55 C54 1.474 . S
C56 C51 1.342 . S
C56 C54 1.285 . S
C56 H75 0.930 . S
C57 C60 1.424 . S
C57 C62 1.245 . S
C57 C63 1.428 . S
C58 C61 1.260 . S
C58 C62 1.477 . S
C58 H76 0.932 . S
C59 C60 1.384 . S
C59 C61 1.479 . S
C59 H77 0.929 . S
C60 C57 1.424 . S
C60 C59 1.384 . S
C60 H78 0.928 . S
C61 C58 1.260 . S
C61 C59 1.479 . S
C62 C57 1.245 . S
C62 C58 1.477 . S
C62 H79 0.932 . S
C63 U46 2.882 . S
C63 C57 1.428 . S
C63 O66 1.301 . S
C63 O67 1.282 . S
O64 U46 2.441 . S
O64 C50 1.249 . S
O65 U46 2.420 . S
O65 C50 1.202 . S
O66 U46 2.455 . S
O66 C63 1.301 . S
O67 U46 2.449 . S
O67 C63 1.282 . S
H68 C41 0.931 . S
H69 C43 0.929 . S
H70 C44 0.930 . S
H71 C45 0.931 . S
H72 C52 0.932 . S
H73 C53 0.930 . S
H74 C54 0.929 . S
H75 C56 0.930 . S
H76 C58 0.932 . S
H77 C59 0.929 . S
H78 C60 0.928 . S
H79 C62 0.932 . S
C80 C81 1.264 . S
C80 C85 1.479 . S
C80 C90 1.465 . S
C81 C80 1.264 . S
C81 C83 1.339 . S
C81 H108 0.931 . S
C82 C83 1.395 . S
C82 C84 1.320 . S
C83 C81 1.339 . S
C83 C82 1.395 . S
C83 H109 0.929 . S
C84 C82 1.320 . S
C84 C85 1.405 . S
C84 H110 0.930 . S
C85 C80 1.479 . S
C85 C84 1.405 . S
C85 H111 0.931 . S
U86 O87 2.454 . S
U86 O88 2.458 . S
U86 C89 2.984 . S
U86 C90 2.847 . S
U86 C103 2.882 . S
U86 O104 2.441 . S
U86 O105 2.420 . S
U86 O106 2.455 . S
U86 O107 2.449 . S
O87 U86 2.454 . S
O87 C89 1.353 . S
O88 U86 2.458 . S
O88 C89 1.286 . S
C89 U86 2.984 . S
C89 O87 1.353 . S
C89 O88 1.286 . S
C89 C91 1.363 . S
C90 C80 1.465 . S
C90 U86 2.847 . S
C90 O104 1.249 . S
C90 O105 1.202 . S
C91 C89 1.363 . S
C91 C93 1.408 . S
C91 C96 1.342 . S
C92 C93 1.310 . S
C92 C95 1.461 . S
C92 H112 0.932 . S
C93 C91 1.408 . S
C93 C92 1.310 . S
C93 H113 0.930 . S
C94 C95 1.474 . S
C94 C96 1.285 . S
C94 H114 0.929 . S
C95 C92 1.461 . S
C95 C94 1.474 . S
C96 C91 1.342 . S
C96 C94 1.285 . S
C96 H115 0.930 . S
C97 C100 1.424 . S
C97 C102 1.245 . S
C97 C103 1.428 . S
C98 C101 1.260 . S
C98 C102 1.477 . S
C98 H116 0.932 . S
C99 C100 1.384 . S
C99 C101 1.479 . S
C99 H117 0.929 . S
C100 C97 1.424 . S
C100 C99 1.384 . S
C100 H118 0.928 . S
C101 C98 1.260 . S
C101 C99 1.479 . S
C102 C97 1.245 . S
C102 C98 1.477 . S
C102 H119 0.932 . S
C103 U86 2.882 . S
C103 C97 1.428 . S
C103 O106 1.301 . S
C103 O107 1.282 . S
O104 U86 2.441 . S
O104 C90 1.249 . S
O105 U86 2.420 . S
O105 C90 1.202 . S
O106 U86 2.455 . S
O106 C103 1.301 . S
O107 U86 2.449 . S
O107 C103 1.282 . S
H108 C81 0.931 . S
H109 C83 0.929 . S
H110 C84 0.930 . S
H111 C85 0.931 . S
H112 C92 0.932 . S
H113 C93 0.930 . S
H114 C94 0.929 . S
H115 C96 0.930 . S
H116 C98 0.932 . S
H117 C99 0.929 . S
H118 C100 0.928 . S
H119 C102 0.932 . S
C120 C121 1.264 . S
C120 C125 1.479 . S
C120 C130 1.465 . S
C121 C120 1.264 . S
C121 C123 1.339 . S
C121 H148 0.931 . S
C122 C123 1.395 . S
C122 C124 1.320 . S
C123 C121 1.339 . S
C123 C122 1.395 . S
C123 H149 0.929 . S
C124 C122 1.320 . S
C124 C125 1.405 . S
C124 H150 0.930 . S
C125 C120 1.479 . S
C125 C124 1.405 . S
C125 H151 0.931 . S
U126 O127 2.454 . S
U126 O128 2.458 . S
U126 C129 2.984 . S
U126 C130 2.847 . S
U126 C143 2.882 . S
U126 O144 2.441 . S
U126 O145 2.420 . S
U126 O146 2.455 . S
U126 O147 2.449 . S
O127 U126 2.454 . S
O127 C129 1.353 . S
O128 U126 2.458 . S
O128 C129 1.286 . S
C129 U126 2.984 . S
C129 O127 1.353 . S
C129 O128 1.286 . S
C129 C131 1.363 . S
C130 C120 1.465 . S
C130 U126 2.847 . S
C130 O144 1.249 . S
C130 O145 1.202 . S
C131 C129 1.363 . S
C131 C133 1.408 . S
C131 C136 1.342 . S
C132 C133 1.310 . S
C132 C135 1.461 . S
C132 H152 0.932 . S
C133 C131 1.408 . S
C133 C132 1.310 . S
C133 H153 0.930 . S
C134 C135 1.474 . S
C134 C136 1.285 . S
C134 H154 0.929 . S
C135 C132 1.461 . S
C135 C134 1.474 . S
C136 C131 1.342 . S
C136 C134 1.285 . S
C136 H155 0.930 . S
C137 C140 1.424 . S
C137 C142 1.245 . S
C137 C143 1.428 . S
C138 C141 1.260 . S
C138 C142 1.477 . S
C138 H156 0.932 . S
C139 C140 1.384 . S
C139 C141 1.479 . S
C139 H157 0.929 . S
C140 C137 1.424 . S
C140 C139 1.384 . S
C140 H158 0.928 . S
C141 C138 1.260 . S
C141 C139 1.479 . S
C142 C137 1.245 . S
C142 C138 1.477 . S
C142 H159 0.932 . S
C143 U126 2.882 . S
C143 C137 1.428 . S
C143 O146 1.301 . S
C143 O147 1.282 . S
O144 U126 2.441 . S
O144 C130 1.249 . S
O145 U126 2.420 . S
O145 C130 1.202 . S
O146 U126 2.455 . S
O146 C143 1.301 . S
O147 U126 2.449 . S
O147 C143 1.282 . S
H148 C121 0.931 . S
H149 C123 0.929 . S
H150 C124 0.930 . S
H151 C125 0.931 . S
H152 C132 0.932 . S
H153 C133 0.930 . S
H154 C134 0.929 . S
H155 C136 0.930 . S
H156 C138 0.932 . S
H157 C139 0.929 . S
H158 C140 0.928 . S
H159 C142 0.932 . S
C160 C161 1.264 . S
C160 C165 1.479 . S
C160 C170 1.465 . S
C161 C160 1.264 . S
C161 C163 1.339 . S
C161 H188 0.931 . S
C162 C163 1.395 . S
C162 C164 1.320 . S
C163 C161 1.339 . S
C163 C162 1.395 . S
C163 H189 0.929 . S
C164 C162 1.320 . S
C164 C165 1.405 . S
C164 H190 0.930 . S
C165 C160 1.479 . S
C165 C164 1.405 . S
C165 H191 0.931 . S
U166 O167 2.454 . S
U166 O168 2.458 . S
U166 C169 2.984 . S
U166 C170 2.847 . S
U166 C183 2.882 . S
U166 O184 2.441 . S
U166 O185 2.420 . S
U166 O186 2.455 . S
U166 O187 2.449 . S
O167 U166 2.454 . S
O167 C169 1.353 . S
O168 U166 2.458 . S
O168 C169 1.286 . S
C169 U166 2.984 . S
C169 O167 1.353 . S
C169 O168 1.286 . S
C169 C171 1.363 . S
C170 C160 1.465 . S
C170 U166 2.847 . S
C170 O184 1.249 . S
C170 O185 1.202 . S
C171 C169 1.363 . S
C171 C173 1.408 . S
C171 C176 1.342 . S
C172 C173 1.310 . S
C172 C175 1.461 . S
C172 H192 0.932 . S
C173 C171 1.408 . S
C173 C172 1.310 . S
C173 H193 0.930 . S
C174 C175 1.474 . S
C174 C176 1.285 . S
C174 H194 0.929 . S
C175 C172 1.461 . S
C175 C174 1.474 . S
C176 C171 1.342 . S
C176 C174 1.285 . S
C176 H195 0.930 . S
C177 C180 1.424 . S
C177 C182 1.245 . S
C177 C183 1.428 . S
C178 C181 1.260 . S
C178 C182 1.477 . S
C178 H196 0.932 . S
C179 C180 1.384 . S
C179 C181 1.479 . S
C179 H197 0.929 . S
C180 C177 1.424 . S
C180 C179 1.384 . S
C180 H198 0.928 . S
C181 C178 1.260 . S
C181 C179 1.479 . S
C182 C177 1.245 . S
C182 C178 1.477 . S
C182 H199 0.932 . S
C183 U166 2.882 . S
C183 C177 1.428 . S
C183 O186 1.301 . S
C183 O187 1.282 . S
O184 U166 2.441 . S
O184 C170 1.249 . S
O185 U166 2.420 . S
O185 C170 1.202 . S
O186 U166 2.455 . S
O186 C183 1.301 . S
O187 U166 2.449 . S
O187 C183 1.282 . S
H188 C161 0.931 . S
H189 C163 0.929 . S
H190 C164 0.930 . S
H191 C165 0.931 . S
H192 C172 0.932 . S
H193 C173 0.930 . S
H194 C174 0.929 . S
H195 C176 0.930 . S
H196 C178 0.932 . S
H197 C179 0.929 . S
H198 C180 0.928 . S
H199 C182 0.932 . S
C200 C201 1.264 . S
C200 C205 1.479 . S
C200 C210 1.465 . S
C201 C200 1.264 . S
C201 C203 1.339 . S
C201 H228 0.931 . S
C202 C203 1.395 . S
C202 C204 1.320 . S
C203 C201 1.339 . S
C203 C202 1.395 . S
C203 H229 0.929 . S
C204 C202 1.320 . S
C204 C205 1.405 . S
C204 H230 0.930 . S
C205 C200 1.479 . S
C205 C204 1.405 . S
C205 H231 0.931 . S
U206 O207 2.454 . S
U206 O208 2.458 . S
U206 C209 2.984 . S
U206 C210 2.847 . S
U206 C223 2.882 . S
U206 O224 2.441 . S
U206 O225 2.420 . S
U206 O226 2.455 . S
U206 O227 2.449 . S
O207 U206 2.454 . S
O207 C209 1.353 . S
O208 U206 2.458 . S
O208 C209 1.286 . S
C209 U206 2.984 . S
C209 O207 1.353 . S
C209 O208 1.286 . S
C209 C211 1.363 . S
C210 C200 1.465 . S
C210 U206 2.847 . S
C210 O224 1.249 . S
C210 O225 1.202 . S
C211 C209 1.363 . S
C211 C213 1.408 . S
C211 C216 1.342 . S
C212 C213 1.310 . S
C212 C215 1.461 . S
C212 H232 0.932 . S
C213 C211 1.408 . S
C213 C212 1.310 . S
C213 H233 0.930 . S
C214 C215 1.474 . S
C214 C216 1.285 . S
C214 H234 0.929 . S
C215 C212 1.461 . S
C215 C214 1.474 . S
C216 C211 1.342 . S
C216 C214 1.285 . S
C216 H235 0.930 . S
C217 C220 1.424 . S
C217 C222 1.245 . S
C217 C223 1.428 . S
C218 C221 1.260 . S
C218 C222 1.477 . S
C218 H236 0.932 . S
C219 C220 1.384 . S
C219 C221 1.479 . S
C219 H237 0.929 . S
C220 C217 1.424 . S
C220 C219 1.384 . S
C220 H238 0.928 . S
C221 C218 1.260 . S
C221 C219 1.479 . S
C222 C217 1.245 . S
C222 C218 1.477 . S
C222 H239 0.932 . S
C223 U206 2.882 . S
C223 C217 1.428 . S
C223 O226 1.301 . S
C223 O227 1.282 . S
O224 U206 2.441 . S
O224 C210 1.249 . S
O225 U206 2.420 . S
O225 C210 1.202 . S
O226 U206 2.455 . S
O226 C223 1.301 . S
O227 U206 2.449 . S
O227 C223 1.282 . S
H228 C201 0.931 . S
H229 C203 0.929 . S
H230 C204 0.930 . S
H231 C205 0.931 . S
H232 C212 0.932 . S
H233 C213 0.930 . S
H234 C214 0.929 . S
H235 C216 0.930 . S
H236 C218 0.932 . S
H237 C219 0.929 . S
H238 C220 0.928 . S
H239 C222 0.932 . S
C240 C241 1.264 . S
C240 C245 1.479 . S
C240 C250 1.465 . S
C241 C240 1.264 . S
C241 C243 1.339 . S
C241 H268 0.931 . S
C242 C243 1.395 . S
C242 C244 1.320 . S
C243 C241 1.339 . S
C243 C242 1.395 . S
C243 H269 0.929 . S
C244 C242 1.320 . S
C244 C245 1.405 . S
C244 H270 0.930 . S
C245 C240 1.479 . S
C245 C244 1.405 . S
C245 H271 0.931 . S
U246 O247 2.454 . S
U246 O248 2.458 . S
U246 C249 2.984 . S
U246 C250 2.847 . S
U246 C263 2.882 . S
U246 O264 2.441 . S
U246 O265 2.420 . S
U246 O266 2.455 . S
U246 O267 2.449 . S
O247 U246 2.454 . S
O247 C249 1.353 . S
O248 U246 2.458 . S
O248 C249 1.286 . S
C249 U246 2.984 . S
C249 O247 1.353 . S
C249 O248 1.286 . S
C249 C251 1.363 . S
C250 C240 1.465 . S
C250 U246 2.847 . S
C250 O264 1.249 . S
C250 O265 1.202 . S
C251 C249 1.363 . S
C251 C253 1.408 . S
C251 C256 1.342 . S
C252 C253 1.310 . S
C252 C255 1.461 . S
C252 H272 0.932 . S
C253 C251 1.408 . S
C253 C252 1.310 . S
C253 H273 0.930 . S
C254 C255 1.474 . S
C254 C256 1.285 . S
C254 H274 0.929 . S
C255 C252 1.461 . S
C255 C254 1.474 . S
C256 C251 1.342 . S
C256 C254 1.285 . S
C256 H275 0.930 . S
C257 C260 1.424 . S
C257 C262 1.245 . S
C257 C263 1.428 . S
C258 C261 1.260 . S
C258 C262 1.477 . S
C258 H276 0.932 . S
C259 C260 1.384 . S
C259 C261 1.479 . S
C259 H277 0.929 . S
C260 C257 1.424 . S
C260 C259 1.384 . S
C260 H278 0.928 . S
C261 C258 1.260 . S
C261 C259 1.479 . S
C262 C257 1.245 . S
C262 C258 1.477 . S
C262 H279 0.932 . S
C263 U246 2.882 . S
C263 C257 1.428 . S
C263 O266 1.301 . S
C263 O267 1.282 . S
O264 U246 2.441 . S
O264 C250 1.249 . S
O265 U246 2.420 . S
O265 C250 1.202 . S
O266 U246 2.455 . S
O266 C263 1.301 . S
O267 U246 2.449 . S
O267 C263 1.282 . S
H268 C241 0.931 . S
H269 C243 0.929 . S
H270 C244 0.930 . S
H271 C245 0.931 . S
H272 C252 0.932 . S
H273 C253 0.930 . S
H274 C254 0.929 . S
H275 C256 0.930 . S
H276 C258 0.932 . S
H277 C259 0.929 . S
H278 C260 0.928 . S
H279 C262 0.932 . S
C280 C281 1.264 . S
C280 C285 1.479 . S
C280 C290 1.465 . S
C281 C280 1.264 . S
C281 C283 1.339 . S
C281 H308 0.931 . S
C282 C283 1.395 . S
C282 C284 1.320 . S
C283 C281 1.339 . S
C283 C282 1.395 . S
C283 H309 0.929 . S
C284 C282 1.320 . S
C284 C285 1.405 . S
C284 H310 0.930 . S
C285 C280 1.479 . S
C285 C284 1.405 . S
C285 H311 0.931 . S
U286 O287 2.454 . S
U286 O288 2.458 . S
U286 C289 2.984 . S
U286 C290 2.847 . S
U286 C303 2.882 . S
U286 O304 2.441 . S
U286 O305 2.420 . S
U286 O306 2.455 . S
U286 O307 2.449 . S
O287 U286 2.454 . S
O287 C289 1.353 . S
O288 U286 2.458 . S
O288 C289 1.286 . S
C289 U286 2.984 . S
C289 O287 1.353 . S
C289 O288 1.286 . S
C289 C291 1.363 . S
C290 C280 1.465 . S
C290 U286 2.847 . S
C290 O304 1.249 . S
C290 O305 1.202 . S
C291 C289 1.363 . S
C291 C293 1.408 . S
C291 C296 1.342 . S
C292 C293 1.310 . S
C292 C295 1.461 . S
C292 H312 0.932 . S
C293 C291 1.408 . S
C293 C292 1.310 . S
C293 H313 0.930 . S
C294 C295 1.474 . S
C294 C296 1.285 . S
C294 H314 0.929 . S
C295 C292 1.461 . S
C295 C294 1.474 . S
C296 C291 1.342 . S
C296 C294 1.285 . S
C296 H315 0.930 . S
C297 C300 1.424 . S
C297 C302 1.245 . S
C297 C303 1.428 . S
C298 C301 1.260 . S
C298 C302 1.477 . S
C298 H316 0.932 . S
C299 C300 1.384 . S
C299 C301 1.479 . S
C299 H317 0.929 . S
C300 C297 1.424 . S
C300 C299 1.384 . S
C300 H318 0.928 . S
C301 C298 1.260 . S
C301 C299 1.479 . S
C302 C297 1.245 . S
C302 C298 1.477 . S
C302 H319 0.932 . S
C303 U286 2.882 . S
C303 C297 1.428 . S
C303 O306 1.301 . S
C303 O307 1.282 . S
O304 U286 2.441 . S
O304 C290 1.249 . S
O305 U286 2.420 . S
O305 C290 1.202 . S
O306 U286 2.455 . S
O306 C303 1.301 . S
O307 U286 2.449 . S
O307 C303 1.282 . S
H308 C281 0.931 . S
H309 C283 0.929 . S
H310 C284 0.930 . S
H311 C285 0.931 . S
H312 C292 0.932 . S
H313 C293 0.930 . S
H314 C294 0.929 . S
H315 C296 0.930 . S
H316 C298 0.932 . S
H317 C299 0.929 . S
H318 C300 0.928 . S
H319 C302 0.932 . S
H320 C347 0.929 . S
N321 C346 1.433 1_455 S
N321 C352 1.435 . S
N321 C358 1.423 . S
H322 C348 0.930 . S
H323 C351 0.931 . S
H324 C350 0.929 . S
H325 C353 0.930 . S
H326 C354 0.932 . S
H327 C357 0.929 . S
H328 C356 0.931 . S
H329 C359 0.932 1_655 S
H330 C363 0.932 . S
H331 C360 0.931 1_655 S
H332 C362 0.929 . S
H333 C365 0.929 . S
H334 C366 0.930 . S
H335 C368 0.929 . S
H336 C369 0.931 . S
H337 C371 0.930 . S
H338 C372 0.932 . S
H339 C374 0.931 . S
H340 C375 0.929 . S
H341 C377 0.931 1_655 S
H342 C378 0.931 1_655 S
H343 C380 0.929 . S
N344 C364 1.433 1_455 S
N344 C370 1.435 . S
N344 C376 1.423 . S
H345 C381 0.932 . S
C346 N321 1.433 1_655 S
C346 C347 1.363 . S
C346 C351 1.370 . S
C347 H320 0.929 . S
C347 C346 1.363 . S
C347 C348 1.385 . S
C348 H322 0.930 . S
C348 C347 1.385 . S
C348 C349 1.357 . S
C349 C348 1.357 . S
C349 C350 1.406 . S
C350 H324 0.929 . S
C350 C349 1.406 . S
C350 C351 1.391 . S
C351 H323 0.931 . S
C351 C346 1.370 . S
C351 C350 1.391 . S
C352 N321 1.435 . S
C352 C353 1.358 . S
C352 C357 1.371 . S
C353 H325 0.930 . S
C353 C352 1.358 . S
C353 C354 1.405 . S
C354 H326 0.932 . S
C354 C353 1.405 . S
C354 C355 1.383 . S
C355 C354 1.383 . S
C355 C356 1.393 . S
C356 H328 0.931 . S
C356 C355 1.393 . S
C356 C357 1.382 . S
C357 H327 0.929 . S
C357 C352 1.371 . S
C357 C356 1.382 . S
C358 N321 1.423 . S
C358 C359 1.359 . S
C358 C363 1.388 . S
C359 H329 0.932 1_455 S
C359 C358 1.359 . S
C359 C360 1.376 . S
C360 H331 0.931 1_455 S
C360 C359 1.376 . S
C360 C361 1.396 . S
C361 C360 1.396 . S
C361 C362 1.348 . S
C361 C379 1.472 . S
C362 H332 0.929 . S
C362 C361 1.348 . S
C362 C363 1.443 . S
C363 H330 0.932 . S
C363 C358 1.388 . S
C363 C362 1.443 . S
C364 N344 1.433 1_655 S
C364 C365 1.363 . S
C364 C369 1.370 . S
C365 H333 0.929 . S
C365 C364 1.363 . S
C365 C366 1.385 . S
C366 H334 0.930 . S
C366 C365 1.385 . S
C366 C367 1.357 . S
C367 C366 1.357 . S
C367 C368 1.406 . S
C368 H335 0.929 . S
C368 C367 1.406 . S
C368 C369 1.391 . S
C369 H336 0.931 . S
C369 C364 1.370 . S
C369 C368 1.391 . S
C370 N344 1.435 . S
C370 C371 1.358 . S
C370 C375 1.371 . S
C371 H337 0.930 . S
C371 C370 1.358 . S
C371 C372 1.405 . S
C372 H338 0.932 . S
C372 C371 1.405 . S
C372 C373 1.383 . S
C373 C372 1.383 . S
C373 C374 1.393 . S
C374 H339 0.931 . S
C374 C373 1.393 . S
C374 C375 1.382 . S
C375 H340 0.929 . S
C375 C370 1.371 . S
C375 C374 1.382 . S
C376 N344 1.423 . S
C376 C377 1.360 . S
C376 C381 1.388 . S
C377 H341 0.931 1_455 S
C377 C376 1.360 . S
C377 C378 1.376 . S
C378 H342 0.931 1_455 S
C378 C377 1.376 . S
C378 C379 1.396 . S
C379 C361 1.472 . S
C379 C378 1.396 . S
C379 C380 1.348 . S
C380 H343 0.929 . S
C380 C379 1.348 . S
C380 C381 1.443 . S
C381 H345 0.932 . S
C381 C376 1.388 . S
C381 C380 1.443 . S
H382 C409 0.929 . S
N383 C408 1.433 1_455 S
N383 C414 1.435 . S
N383 C420 1.423 . S
H384 C410 0.930 . S
H385 C413 0.931 . S
H386 C412 0.929 . S
H387 C415 0.930 . S
H388 C416 0.932 . S
H389 C419 0.929 . S
H390 C418 0.931 . S
H391 C421 0.929 . S
H392 C425 0.932 . S
H393 C422 0.920 1_655 S
H394 C424 0.929 . S
H395 C427 0.929 . S
H396 C428 0.930 . S
H397 C430 0.929 . S
H398 C431 0.931 . S
H399 C433 0.930 . S
H400 C434 0.932 . S
H401 C436 0.931 . S
H402 C437 0.929 . S
H403 C439 0.929 . S
H404 C440 0.919 1_655 S
H405 C442 0.929 . S
N406 C426 1.433 1_455 S
N406 C432 1.435 . S
N406 C438 1.423 . S
H407 C443 0.932 . S
C408 N383 1.433 1_655 S
C408 C409 1.363 . S
C408 C413 1.370 . S
C409 H382 0.929 . S
C409 C408 1.363 . S
C409 C410 1.385 . S
C410 H384 0.930 . S
C410 C409 1.385 . S
C410 C411 1.357 . S
C411 C410 1.357 . S
C411 C412 1.406 . S
C412 H386 0.929 . S
C412 C411 1.406 . S
C412 C413 1.391 . S
C413 H385 0.931 . S
C413 C408 1.370 . S
C413 C412 1.391 . S
C414 N383 1.435 . S
C414 C415 1.358 . S
C414 C419 1.371 . S
C415 H387 0.930 . S
C415 C414 1.358 . S
C415 C416 1.405 . S
C416 H388 0.932 . S
C416 C415 1.405 . S
C416 C417 1.383 . S
C417 C416 1.383 . S
C417 C418 1.393 . S
C418 H390 0.931 . S
C418 C417 1.393 . S
C418 C419 1.382 . S
C419 H389 0.929 . S
C419 C414 1.371 . S
C419 C418 1.382 . S
C420 N383 1.423 . S
C420 C421 1.362 1_455 S
C420 C425 1.388 . S
C421 H391 0.929 . S
C421 C420 1.362 1_655 S
C421 C422 1.375 1_655 S
C422 H393 0.920 1_455 S
C422 C421 1.375 1_455 S
C422 C423 1.408 . S
C423 C422 1.408 . S
C423 C424 1.348 . S
C423 C441 1.472 . S
C424 H394 0.929 . S
C424 C423 1.348 . S
C424 C425 1.443 . S
C425 H392 0.932 . S
C425 C420 1.388 . S
C425 C424 1.443 . S
C426 N406 1.433 1_655 S
C426 C427 1.363 . S
C426 C431 1.370 . S
C427 H395 0.929 . S
C427 C426 1.363 . S
C427 C428 1.385 . S
C428 H396 0.930 . S
C428 C427 1.385 . S
C428 C429 1.357 . S
C429 C428 1.357 . S
C429 C430 1.406 . S
C430 H397 0.929 . S
C430 C429 1.406 . S
C430 C431 1.391 . S
C431 H398 0.931 . S
C431 C426 1.370 . S
C431 C430 1.391 . S
C432 N406 1.435 . S
C432 C433 1.358 . S
C432 C437 1.371 . S
C433 H399 0.930 . S
C433 C432 1.358 . S
C433 C434 1.405 . S
C434 H400 0.932 . S
C434 C433 1.405 . S
C434 C435 1.383 . S
C435 C434 1.383 . S
C435 C436 1.393 . S
C436 H401 0.931 . S
C436 C435 1.393 . S
C436 C437 1.382 . S
C437 H402 0.929 . S
C437 C432 1.371 . S
C437 C436 1.382 . S
C438 N406 1.423 . S
C438 C439 1.362 1_455 S
C438 C443 1.388 . S
C439 H403 0.929 . S
C439 C438 1.362 1_655 S
C439 C440 1.374 1_655 S
C440 H404 0.919 1_455 S
C440 C439 1.374 1_455 S
C440 C441 1.410 . S
C441 C423 1.472 . S
C441 C440 1.410 . S
C441 C442 1.348 . S
C442 H405 0.929 . S
C442 C441 1.348 . S
C442 C443 1.443 . S
C443 H407 0.932 . S
C443 C438 1.388 . S
C443 C442 1.443 . S
H444 C471 0.929 . S
N445 C470 1.433 . S
N445 C476 1.435 . S
N445 C482 1.423 . S
H446 C472 0.930 . S
H447 C475 0.931 . S
H448 C474 0.929 . S
H449 C477 0.930 . S
H450 C478 0.932 . S
H451 C481 0.929 . S
H452 C480 0.931 . S
H453 C483 0.929 . S
H454 C487 0.932 . S
H455 C484 0.931 . S
H456 C486 0.929 . S
H457 C489 0.929 . S
H458 C490 0.930 . S
H459 C492 0.929 . S
H460 C493 0.931 . S
H461 C495 0.930 . S
H462 C496 0.932 . S
H463 C498 0.931 . S
H464 C499 0.929 . S
H465 C501 0.929 . S
H466 C502 0.931 . S
H467 C504 0.929 . S
N468 C488 1.433 . S
N468 C494 1.435 . S
N468 C500 1.423 . S
H469 C505 0.932 . S
C470 N445 1.433 . S
C470 C471 1.363 . S
C470 C475 1.370 . S
C471 H444 0.929 . S
C471 C470 1.363 . S
C471 C472 1.385 . S
C472 H446 0.930 . S
C472 C471 1.385 . S
C472 C473 1.357 . S
C473 C472 1.357 . S
C473 C474 1.406 . S
C474 H448 0.929 . S
C474 C473 1.406 . S
C474 C475 1.391 . S
C475 H447 0.931 . S
C475 C470 1.370 . S
C475 C474 1.391 . S
C476 N445 1.435 . S
C476 C477 1.358 . S
C476 C481 1.371 . S
C477 H449 0.930 . S
C477 C476 1.358 . S
C477 C478 1.405 . S
C478 H450 0.932 . S
C478 C477 1.405 . S
C478 C479 1.383 . S
C479 C478 1.383 . S
C479 C480 1.393 . S
C480 H452 0.931 . S
C480 C479 1.393 . S
C480 C481 1.382 . S
C481 H451 0.929 . S
C481 C476 1.371 . S
C481 C480 1.382 . S
C482 N445 1.423 . S
C482 C483 1.362 . S
C482 C487 1.388 . S
C483 H453 0.929 . S
C483 C482 1.362 . S
C483 C484 1.376 . S
C484 H455 0.931 . S
C484 C483 1.376 . S
C484 C485 1.396 . S
C485 C484 1.396 . S
C485 C486 1.348 . S
C485 C503 1.472 1_545 S
C486 H456 0.929 . S
C486 C485 1.348 . S
C486 C487 1.443 . S
C487 H454 0.932 . S
C487 C482 1.388 . S
C487 C486 1.443 . S
C488 N468 1.433 . S
C488 C489 1.363 . S
C488 C493 1.370 . S
C489 H457 0.929 . S
C489 C488 1.363 . S
C489 C490 1.385 . S
C490 H458 0.930 . S
C490 C489 1.385 . S
C490 C491 1.357 . S
C491 C490 1.357 . S
C491 C492 1.406 . S
C492 H459 0.929 . S
C492 C491 1.406 . S
C492 C493 1.391 . S
C493 H460 0.931 . S
C493 C488 1.370 . S
C493 C492 1.391 . S
C494 N468 1.435 . S
C494 C495 1.358 . S
C494 C499 1.371 . S
C495 H461 0.930 . S
C495 C494 1.358 . S
C495 C496 1.405 . S
C496 H462 0.932 . S
C496 C495 1.405 . S
C496 C497 1.383 . S
C497 C496 1.383 . S
C497 C498 1.393 . S
C498 H463 0.931 . S
C498 C497 1.393 . S
C498 C499 1.382 . S
C499 H464 0.929 . S
C499 C494 1.371 . S
C499 C498 1.382 . S
C500 N468 1.423 . S
C500 C501 1.362 . S
C500 C505 1.388 . S
C501 H465 0.929 . S
C501 C500 1.362 . S
C501 C502 1.376 . S
C502 H466 0.931 . S
C502 C501 1.376 . S
C502 C503 1.396 . S
C503 C485 1.472 1_565 S
C503 C502 1.396 . S
C503 C504 1.348 . S
C504 H467 0.929 . S
C504 C503 1.348 . S
C504 C505 1.443 . S
C505 H469 0.932 . S
C505 C500 1.388 . S
C505 C504 1.443 . S
H506 C533 0.929 . S
N507 C532 1.433 . S
N507 C538 1.435 . S
N507 C544 1.423 . S
H508 C534 0.930 . S
H509 C537 0.931 . S
H510 C536 0.929 . S
H511 C539 0.930 . S
H512 C540 0.932 . S
H513 C543 0.929 . S
H514 C542 0.931 . S
H515 C545 0.929 . S
H516 C549 0.932 . S
H517 C546 0.931 . S
H518 C548 0.929 . S
H519 C551 0.929 . S
H520 C552 0.930 . S
H521 C554 0.929 . S
H522 C555 0.931 . S
H523 C557 0.930 . S
H524 C558 0.932 . S
H525 C560 0.931 . S
H526 C561 0.929 . S
H527 C563 0.929 . S
H528 C564 0.931 . S
H529 C566 0.929 . S
N530 C550 1.433 . S
N530 C556 1.435 . S
N530 C562 1.423 . S
H531 C567 0.932 . S
C532 N507 1.433 . S
C532 C533 1.363 . S
C532 C537 1.370 . S
C533 H506 0.929 . S
C533 C532 1.363 . S
C533 C534 1.385 . S
C534 H508 0.930 . S
C534 C533 1.385 . S
C534 C535 1.357 . S
C535 C534 1.357 . S
C535 C536 1.406 . S
C536 H510 0.929 . S
C536 C535 1.406 . S
C536 C537 1.391 . S
C537 H509 0.931 . S
C537 C532 1.370 . S
C537 C536 1.391 . S
C538 N507 1.435 . S
C538 C539 1.358 . S
C538 C543 1.371 . S
C539 H511 0.930 . S
C539 C538 1.358 . S
C539 C540 1.405 . S
C540 H512 0.932 . S
C540 C539 1.405 . S
C540 C541 1.383 . S
C541 C540 1.383 . S
C541 C542 1.393 . S
C542 H514 0.931 . S
C542 C541 1.393 . S
C542 C543 1.382 . S
C543 H513 0.929 . S
C543 C538 1.371 . S
C543 C542 1.382 . S
C544 N507 1.423 . S
C544 C545 1.362 . S
C544 C549 1.388 . S
C545 H515 0.929 . S
C545 C544 1.362 . S
C545 C546 1.376 . S
C546 H517 0.931 . S
C546 C545 1.376 . S
C546 C547 1.396 . S
C547 C546 1.396 . S
C547 C548 1.348 . S
C547 C565 1.472 1_554 S
C548 H518 0.929 . S
C548 C547 1.348 . S
C548 C549 1.443 . S
C549 H516 0.932 . S
C549 C544 1.388 . S
C549 C548 1.443 . S
C550 N530 1.433 . S
C550 C551 1.363 . S
C550 C555 1.370 . S
C551 H519 0.929 . S
C551 C550 1.363 . S
C551 C552 1.385 . S
C552 H520 0.930 . S
C552 C551 1.385 . S
C552 C553 1.357 . S
C553 C552 1.357 . S
C553 C554 1.406 . S
C554 H521 0.929 . S
C554 C553 1.406 . S
C554 C555 1.391 . S
C555 H522 0.931 . S
C555 C550 1.370 . S
C555 C554 1.391 . S
C556 N530 1.435 . S
C556 C557 1.358 . S
C556 C561 1.371 . S
C557 H523 0.930 . S
C557 C556 1.358 . S
C557 C558 1.405 . S
C558 H524 0.932 . S
C558 C557 1.405 . S
C558 C559 1.383 . S
C559 C558 1.383 . S
C559 C560 1.393 . S
C560 H525 0.931 . S
C560 C559 1.393 . S
C560 C561 1.382 . S
C561 H526 0.929 . S
C561 C556 1.371 . S
C561 C560 1.382 . S
C562 N530 1.423 . S
C562 C563 1.362 . S
C562 C567 1.388 . S
C563 H527 0.929 . S
C563 C562 1.362 . S
C563 C564 1.376 . S
C564 H528 0.931 . S
C564 C563 1.376 . S
C564 C565 1.396 . S
C565 C547 1.472 1_556 S
C565 C564 1.396 . S
C565 C566 1.348 . S
C566 H529 0.929 . S
C566 C565 1.348 . S
C566 C567 1.443 . S
C567 H531 0.932 . S
C567 C562 1.388 . S
C567 C566 1.443 . S
H568 C595 0.929 . S
N569 C594 1.433 . S
N569 C600 1.435 . S
N569 C606 1.423 . S
H570 C596 0.930 . S
H571 C599 0.931 . S
H572 C598 0.929 . S
H573 C601 0.930 . S
H574 C602 0.932 . S
H575 C605 0.929 . S
H576 C604 0.931 . S
H577 C607 0.929 . S
H578 C611 0.932 . S
H579 C608 0.931 . S
H580 C610 0.929 . S
H581 C613 0.929 . S
H582 C614 0.930 . S
H583 C616 0.929 . S
H584 C617 0.931 . S
H585 C619 0.930 . S
H586 C620 0.932 . S
H587 C622 0.931 . S
H588 C623 0.929 . S
H589 C625 0.929 . S
H590 C626 0.931 . S
H591 C628 0.929 . S
N592 C612 1.433 . S
N592 C618 1.435 . S
N592 C624 1.423 . S
H593 C629 0.932 . S
C594 N569 1.433 . S
C594 C595 1.363 . S
C594 C599 1.370 . S
C595 H568 0.929 . S
C595 C594 1.363 . S
C595 C596 1.385 . S
C596 H570 0.930 . S
C596 C595 1.385 . S
C596 C597 1.357 . S
C597 C596 1.357 . S
C597 C598 1.406 . S
C598 H572 0.929 . S
C598 C597 1.406 . S
C598 C599 1.391 . S
C599 H571 0.931 . S
C599 C594 1.370 . S
C599 C598 1.391 . S
C600 N569 1.435 . S
C600 C601 1.358 . S
C600 C605 1.371 . S
C601 H573 0.930 . S
C601 C600 1.358 . S
C601 C602 1.405 . S
C602 H574 0.932 . S
C602 C601 1.405 . S
C602 C603 1.383 . S
C603 C602 1.383 . S
C603 C604 1.393 . S
C604 H576 0.931 . S
C604 C603 1.393 . S
C604 C605 1.382 . S
C605 H575 0.929 . S
C605 C600 1.371 . S
C605 C604 1.382 . S
C606 N569 1.423 . S
C606 C607 1.362 . S
C606 C611 1.388 . S
C607 H577 0.929 . S
C607 C606 1.362 . S
C607 C608 1.376 . S
C608 H579 0.931 . S
C608 C607 1.376 . S
C608 C609 1.396 . S
C609 C608 1.396 . S
C609 C610 1.348 . S
C609 C627 1.472 1_545 S
C610 H580 0.929 . S
C610 C609 1.348 . S
C610 C611 1.443 . S
C611 H578 0.932 . S
C611 C606 1.388 . S
C611 C610 1.443 . S
C612 N592 1.433 . S
C612 C613 1.363 . S
C612 C617 1.370 . S
C613 H581 0.929 . S
C613 C612 1.363 . S
C613 C614 1.385 . S
C614 H582 0.930 . S
C614 C613 1.385 . S
C614 C615 1.357 . S
C615 C614 1.357 . S
C615 C616 1.406 . S
C616 H583 0.929 . S
C616 C615 1.406 . S
C616 C617 1.391 . S
C617 H584 0.931 . S
C617 C612 1.370 . S
C617 C616 1.391 . S
C618 N592 1.435 . S
C618 C619 1.358 . S
C618 C623 1.371 . S
C619 H585 0.930 . S
C619 C618 1.358 . S
C619 C620 1.405 . S
C620 H586 0.932 . S
C620 C619 1.405 . S
C620 C621 1.383 . S
C621 C620 1.383 . S
C621 C622 1.393 . S
C622 H587 0.931 . S
C622 C621 1.393 . S
C622 C623 1.382 . S
C623 H588 0.929 . S
C623 C618 1.371 . S
C623 C622 1.382 . S
C624 N592 1.423 . S
C624 C625 1.362 . S
C624 C629 1.388 . S
C625 H589 0.929 . S
C625 C624 1.362 . S
C625 C626 1.376 . S
C626 H590 0.931 . S
C626 C625 1.376 . S
C626 C627 1.396 . S
C627 C609 1.472 1_565 S
C627 C626 1.396 . S
C627 C628 1.348 . S
C628 H591 0.929 . S
C628 C627 1.348 . S
C628 C629 1.443 . S
C629 H593 0.932 . S
C629 C624 1.388 . S
C629 C628 1.443 . S
H630 C657 0.929 . S
N631 C656 1.433 . S
N631 C662 1.435 . S
N631 C668 1.423 . S
H632 C658 0.930 . S
H633 C661 0.931 . S
H634 C660 0.929 . S
H635 C663 0.930 . S
H636 C664 0.932 . S
H637 C667 0.929 . S
H638 C666 0.931 . S
H639 C669 0.929 . S
H640 C673 0.932 . S
H641 C670 0.931 . S
H642 C672 0.929 . S
H643 C675 0.929 . S
H644 C676 0.930 . S
H645 C678 0.929 . S
H646 C679 0.931 . S
H647 C681 0.930 . S
H648 C682 0.932 . S
H649 C684 0.931 . S
H650 C685 0.929 . S
H651 C687 0.929 . S
H652 C688 0.931 . S
H653 C690 0.929 . S
N654 C674 1.433 . S
N654 C680 1.435 . S
N654 C686 1.423 . S
H655 C691 0.932 . S
C656 N631 1.433 . S
C656 C657 1.363 . S
C656 C661 1.370 . S
C657 H630 0.929 . S
C657 C656 1.363 . S
C657 C658 1.385 . S
C658 H632 0.930 . S
C658 C657 1.385 . S
C658 C659 1.357 . S
C659 C658 1.357 . S
C659 C660 1.406 . S
C660 H634 0.929 . S
C660 C659 1.406 . S
C660 C661 1.391 . S
C661 H633 0.931 . S
C661 C656 1.370 . S
C661 C660 1.391 . S
C662 N631 1.435 . S
C662 C663 1.358 . S
C662 C667 1.371 . S
C663 H635 0.930 . S
C663 C662 1.358 . S
C663 C664 1.405 . S
C664 H636 0.932 . S
C664 C663 1.405 . S
C664 C665 1.383 . S
C665 C664 1.383 . S
C665 C666 1.393 . S
C666 H638 0.931 . S
C666 C665 1.393 . S
C666 C667 1.382 . S
C667 H637 0.929 . S
C667 C662 1.371 . S
C667 C666 1.382 . S
C668 N631 1.423 . S
C668 C669 1.362 . S
C668 C673 1.388 . S
C669 H639 0.929 . S
C669 C668 1.362 . S
C669 C670 1.376 . S
C670 H641 0.931 . S
C670 C669 1.376 . S
C670 C671 1.396 . S
C671 C670 1.396 . S
C671 C672 1.348 . S
C671 C689 1.472 1_554 S
C672 H642 0.929 . S
C672 C671 1.348 . S
C672 C673 1.443 . S
C673 H640 0.932 . S
C673 C668 1.388 . S
C673 C672 1.443 . S
C674 N654 1.433 . S
C674 C675 1.363 . S
C674 C679 1.370 . S
C675 H643 0.929 . S
C675 C674 1.363 . S
C675 C676 1.385 . S
C676 H644 0.930 . S
C676 C675 1.385 . S
C676 C677 1.357 . S
C677 C676 1.357 . S
C677 C678 1.406 . S
C678 H645 0.929 . S
C678 C677 1.406 . S
C678 C679 1.391 . S
C679 H646 0.931 . S
C679 C674 1.370 . S
C679 C678 1.391 . S
C680 N654 1.435 . S
C680 C681 1.358 . S
C680 C685 1.371 . S
C681 H647 0.930 . S
C681 C680 1.358 . S
C681 C682 1.405 . S
C682 H648 0.932 . S
C682 C681 1.405 . S
C682 C683 1.383 . S
C683 C682 1.383 . S
C683 C684 1.393 . S
C684 H649 0.931 . S
C684 C683 1.393 . S
C684 C685 1.382 . S
C685 H650 0.929 . S
C685 C680 1.371 . S
C685 C684 1.382 . S
C686 N654 1.423 . S
C686 C687 1.362 . S
C686 C691 1.388 . S
C687 H651 0.929 . S
C687 C686 1.362 . S
C687 C688 1.376 . S
C688 H652 0.931 . S
C688 C687 1.376 . S
C688 C689 1.396 . S
C689 C671 1.472 1_556 S
C689 C688 1.396 . S
C689 C690 1.348 . S
C690 H653 0.929 . S
C690 C689 1.348 . S
C690 C691 1.443 . S
C691 H655 0.932 . S
C691 C686 1.388 . S
C691 C690 1.443 . S
C692 C693 1.349 . S
C692 C694 1.327 . S
C692 H717 0.950 . S
C693 C692 1.349 . S
C693 C709 1.349 . S
C694 C692 1.327 . S
C694 C713 1.429 . S
C694 H718 0.950 . S
C695 C712 1.574 . S
C695 C714 1.368 . S
C695 H719 0.949 . S
H696 C700 0.949 . S
C697 C698 1.349 . S
C697 C699 1.327 . S
C697 H720 0.950 . S
C698 C697 1.349 . S
C698 C710 1.349 . S
C699 C697 1.327 . S
C699 C715 1.429 . S
C699 H721 0.950 . S
C700 H696 0.949 . S
C700 C708 1.574 . S
C700 C716 1.368 . S
H701 C709 0.950 . S
H702 C707 0.950 . S
H703 C708 0.949 . S
H704 C710 0.950 . S
H705 C711 0.950 . S
H706 C712 0.949 . S
C707 H702 0.950 . S
C707 C709 1.327 . S
C707 C713 1.429 . S
C708 C700 1.574 . S
C708 H703 0.949 . S
C708 C714 1.368 . S
C709 C693 1.349 . S
C709 H701 0.950 . S
C709 C707 1.327 . S
C710 C698 1.349 . S
C710 H704 0.950 . S
C710 C711 1.327 . S
C711 H705 0.950 . S
C711 C710 1.327 . S
C711 C715 1.429 . S
C712 C695 1.574 . S
C712 H706 0.949 . S
C712 C716 1.368 . S
C713 C694 1.429 . S
C713 C707 1.429 . S
C713 C714 1.523 . S
C714 C695 1.368 . S
C714 C708 1.368 . S
C714 C713 1.523 . S
C715 C699 1.429 . S
C715 C711 1.429 . S
C715 C716 1.523 . S
C716 C700 1.368 . S
C716 C712 1.368 . S
C716 C715 1.523 . S
H717 C692 0.950 . S
H718 C694 0.950 . S
H719 C695 0.949 . S
H720 C697 0.950 . S
H721 C699 0.950 . S
C722 C723 1.349 . S
C722 C724 1.327 . S
C722 H747 0.950 . S
C723 C722 1.349 . S
C723 C739 1.349 . S
C724 C722 1.327 . S
C724 C743 1.429 . S
C724 H748 0.950 . S
C725 C742 1.574 . S
C725 C744 1.368 . S
C725 H749 0.949 . S
H726 C730 0.949 . S
C727 C728 1.349 . S
C727 C729 1.327 . S
C727 H750 0.950 . S
C728 C727 1.349 . S
C728 C740 1.349 . S
C729 C727 1.327 . S
C729 C745 1.429 . S
C729 H751 0.950 . S
C730 H726 0.949 . S
C730 C738 1.574 . S
C730 C746 1.368 . S
H731 C739 0.950 . S
H732 C737 0.950 . S
H733 C738 0.949 . S
H734 C740 0.950 . S
H735 C741 0.950 . S
H736 C742 0.949 . S
C737 H732 0.950 . S
C737 C739 1.327 . S
C737 C743 1.429 . S
C738 C730 1.574 . S
C738 H733 0.949 . S
C738 C744 1.368 . S
C739 C723 1.349 . S
C739 H731 0.950 . S
C739 C737 1.327 . S
C740 C728 1.349 . S
C740 H734 0.950 . S
C740 C741 1.327 . S
C741 H735 0.950 . S
C741 C740 1.327 . S
C741 C745 1.429 . S
C742 C725 1.574 . S
C742 H736 0.949 . S
C742 C746 1.368 . S
C743 C724 1.429 . S
C743 C737 1.429 . S
C743 C744 1.523 . S
C744 C725 1.368 . S
C744 C738 1.368 . S
C744 C743 1.523 . S
C745 C729 1.429 . S
C745 C741 1.429 . S
C745 C746 1.523 . S
C746 C730 1.368 . S
C746 C742 1.368 . S
C746 C745 1.523 . S
H747 C722 0.950 . S
H748 C724 0.950 . S
H749 C725 0.949 . S
H750 C727 0.950 . S
H751 C729 0.950 . S
C752 C753 1.349 . S
C752 C754 1.327 . S
C752 H777 0.950 . S
C753 C752 1.349 . S
C753 C769 1.349 . S
C754 C752 1.327 . S
C754 C773 1.429 . S
C754 H778 0.950 . S
C755 C772 1.574 . S
C755 C774 1.368 . S
C755 H779 0.949 . S
H756 C760 0.949 . S
C757 C758 1.349 . S
C757 C759 1.327 . S
C757 H780 0.950 . S
C758 C757 1.349 . S
C758 C770 1.349 . S
C759 C757 1.327 . S
C759 C775 1.429 . S
C759 H781 0.950 . S
C760 H756 0.949 . S
C760 C768 1.574 . S
C760 C776 1.368 . S
H761 C769 0.950 . S
H762 C767 0.950 . S
H763 C768 0.949 . S
H764 C770 0.950 . S
H765 C771 0.950 . S
H766 C772 0.949 . S
C767 H762 0.950 . S
C767 C769 1.327 . S
C767 C773 1.429 . S
C768 C760 1.574 . S
C768 H763 0.949 . S
C768 C774 1.368 . S
C769 C753 1.349 . S
C769 H761 0.950 . S
C769 C767 1.327 . S
C770 C758 1.349 . S
C770 H764 0.950 . S
C770 C771 1.327 . S
C771 H765 0.950 . S
C771 C770 1.327 . S
C771 C775 1.429 . S
C772 C755 1.574 . S
C772 H766 0.949 . S
C772 C776 1.368 . S
C773 C754 1.429 . S
C773 C767 1.429 . S
C773 C774 1.523 . S
C774 C755 1.368 . S
C774 C768 1.368 . S
C774 C773 1.523 . S
C775 C759 1.429 . S
C775 C771 1.429 . S
C775 C776 1.523 . S
C776 C760 1.368 . S
C776 C772 1.368 . S
C776 C775 1.523 . S
H777 C752 0.950 . S
H778 C754 0.950 . S
H779 C755 0.949 . S
H780 C757 0.950 . S
H781 C759 0.950 . S
C782 C783 1.349 . S
C782 C784 1.327 . S
C782 H807 0.950 . S
C783 C782 1.349 . S
C783 C799 1.349 . S
C784 C782 1.327 . S
C784 C803 1.429 . S
C784 H808 0.950 . S
C785 C802 1.574 . S
C785 C804 1.368 . S
C785 H809 0.949 . S
H786 C790 0.949 . S
C787 C788 1.349 . S
C787 C789 1.327 . S
C787 H810 0.950 . S
C788 C787 1.349 . S
C788 C800 1.349 . S
C789 C787 1.327 . S
C789 C805 1.429 . S
C789 H811 0.950 . S
C790 H786 0.949 . S
C790 C798 1.574 . S
C790 C806 1.368 . S
H791 C799 0.950 . S
H792 C797 0.950 . S
H793 C798 0.949 . S
H794 C800 0.950 . S
H795 C801 0.950 . S
H796 C802 0.949 . S
C797 H792 0.950 . S
C797 C799 1.327 . S
C797 C803 1.429 . S
C798 C790 1.574 . S
C798 H793 0.949 . S
C798 C804 1.368 . S
C799 C783 1.349 . S
C799 H791 0.950 . S
C799 C797 1.327 . S
C800 C788 1.349 . S
C800 H794 0.950 . S
C800 C801 1.327 . S
C801 H795 0.950 . S
C801 C800 1.327 . S
C801 C805 1.429 . S
C802 C785 1.574 . S
C802 H796 0.949 . S
C802 C806 1.368 . S
C803 C784 1.429 . S
C803 C797 1.429 . S
C803 C804 1.523 . S
C804 C785 1.368 . S
C804 C798 1.368 . S
C804 C803 1.523 . S
C805 C789 1.429 . S
C805 C801 1.429 . S
C805 C806 1.523 . S
C806 C790 1.368 . S
C806 C802 1.368 . S
C806 C805 1.523 . S
H807 C782 0.950 . S
H808 C784 0.950 . S
H809 C785 0.949 . S
H810 C787 0.950 . S
H811 C789 0.950 . S
C812 C813 1.349 . S
C812 C814 1.327 . S
C812 H837 0.950 . S
C813 C812 1.349 . S
C813 C829 1.349 . S
C814 C812 1.327 . S
C814 C833 1.429 . S
C814 H838 0.950 . S
C815 C832 1.574 . S
C815 C834 1.368 . S
C815 H839 0.949 . S
H816 C820 0.949 . S
C817 C818 1.349 . S
C817 C819 1.327 . S
C817 H840 0.950 . S
C818 C817 1.349 . S
C818 C830 1.349 . S
C819 C817 1.327 . S
C819 C835 1.429 . S
C819 H841 0.950 . S
C820 H816 0.949 . S
C820 C828 1.574 . S
C820 C836 1.368 . S
H821 C829 0.950 . S
H822 C827 0.950 . S
H823 C828 0.949 . S
H824 C830 0.950 . S
H825 C831 0.950 . S
H826 C832 0.949 . S
C827 H822 0.950 . S
C827 C829 1.327 . S
C827 C833 1.429 . S
C828 C820 1.574 . S
C828 H823 0.949 . S
C828 C834 1.368 . S
C829 C813 1.349 . S
C829 H821 0.950 . S
C829 C827 1.327 . S
C830 C818 1.349 . S
C830 H824 0.950 . S
C830 C831 1.327 . S
C831 H825 0.950 . S
C831 C830 1.327 . S
C831 C835 1.429 . S
C832 C815 1.574 . S
C832 H826 0.949 . S
C832 C836 1.368 . S
C833 C814 1.429 . S
C833 C827 1.429 . S
C833 C834 1.523 . S
C834 C815 1.368 . S
C834 C828 1.368 . S
C834 C833 1.523 . S
C835 C819 1.429 . S
C835 C831 1.429 . S
C835 C836 1.523 . S
C836 C820 1.368 . S
C836 C832 1.368 . S
C836 C835 1.523 . S
H837 C812 0.950 . S
H838 C814 0.950 . S
H839 C815 0.949 . S
H840 C817 0.950 . S
H841 C819 0.950 . S
C842 C843 1.349 . S
C842 C844 1.327 . S
C842 H867 0.950 . S
C843 C842 1.349 . S
C843 C859 1.349 . S
C844 C842 1.327 . S
C844 C863 1.429 . S
C844 H868 0.950 . S
C845 C862 1.574 . S
C845 C864 1.368 . S
C845 H869 0.949 . S
H846 C850 0.949 . S
C847 C848 1.349 . S
C847 C849 1.327 . S
C847 H870 0.950 . S
C848 C847 1.349 . S
C848 C860 1.349 . S
C849 C847 1.327 . S
C849 C865 1.429 . S
C849 H871 0.950 . S
C850 H846 0.949 . S
C850 C858 1.574 . S
C850 C866 1.368 . S
H851 C859 0.950 . S
H852 C857 0.950 . S
H853 C858 0.949 . S
H854 C860 0.950 . S
H855 C861 0.950 . S
H856 C862 0.949 . S
C857 H852 0.950 . S
C857 C859 1.327 . S
C857 C863 1.429 . S
C858 C850 1.574 . S
C858 H853 0.949 . S
C858 C864 1.368 . S
C859 C843 1.349 . S
C859 H851 0.950 . S
C859 C857 1.327 . S
C860 C848 1.349 . S
C860 H854 0.950 . S
C860 C861 1.327 . S
C861 H855 0.950 . S
C861 C860 1.327 . S
C861 C865 1.429 . S
C862 C845 1.574 . S
C862 H856 0.949 . S
C862 C866 1.368 . S
C863 C844 1.429 . S
C863 C857 1.429 . S
C863 C864 1.523 . S
C864 C845 1.368 . S
C864 C858 1.368 . S
C864 C863 1.523 . S
C865 C849 1.429 . S
C865 C861 1.429 . S
C865 C866 1.523 . S
C866 C850 1.368 . S
C866 C862 1.368 . S
C866 C865 1.523 . S
H867 C842 0.950 . S
H868 C844 0.950 . S
H869 C845 0.949 . S
H870 C847 0.950 . S
H871 C849 0.950 . S
C872 C873 1.349 . S
C872 C874 1.327 . S
C872 H897 0.950 . S
C873 C872 1.349 . S
C873 C889 1.349 . S
C874 C872 1.327 . S
C874 C893 1.429 . S
C874 H898 0.950 . S
C875 C892 1.574 . S
C875 C894 1.368 . S
C875 H899 0.949 . S
H876 C880 0.949 . S
C877 C878 1.349 . S
C877 C879 1.327 . S
C877 H900 0.950 . S
C878 C877 1.349 . S
C878 C890 1.349 . S
C879 C877 1.327 . S
C879 C895 1.429 . S
C879 H901 0.950 . S
C880 H876 0.949 . S
C880 C888 1.574 . S
C880 C896 1.368 . S
H881 C889 0.950 . S
H882 C887 0.950 . S
H883 C888 0.949 . S
H884 C890 0.950 . S
H885 C891 0.950 . S
H886 C892 0.949 . S
C887 H882 0.950 . S
C887 C889 1.327 . S
C887 C893 1.429 . S
C888 C880 1.574 . S
C888 H883 0.949 . S
C888 C894 1.368 . S
C889 C873 1.349 . S
C889 H881 0.950 . S
C889 C887 1.327 . S
C890 C878 1.349 . S
C890 H884 0.950 . S
C890 C891 1.327 . S
C891 H885 0.950 . S
C891 C890 1.327 . S
C891 C895 1.429 . S
C892 C875 1.574 . S
C892 H886 0.949 . S
C892 C896 1.368 . S
C893 C874 1.429 . S
C893 C887 1.429 . S
C893 C894 1.523 . S
C894 C875 1.368 . S
C894 C888 1.368 . S
C894 C893 1.523 . S
C895 C879 1.429 . S
C895 C891 1.429 . S
C895 C896 1.523 . S
C896 C880 1.368 . S
C896 C892 1.368 . S
C896 C895 1.523 . S
H897 C872 0.950 . S
H898 C874 0.950 . S
H899 C875 0.949 . S
H900 C877 0.950 . S
H901 C879 0.950 . S
C902 C903 1.349 . S
C902 C904 1.327 . S
C902 H927 0.950 . S
C903 C902 1.349 . S
C903 C919 1.349 . S
C904 C902 1.327 . S
C904 C923 1.429 . S
C904 H928 0.950 . S
C905 C922 1.574 . S
C905 C924 1.368 . S
C905 H929 0.949 . S
H906 C910 0.949 . S
C907 C908 1.349 . S
C907 C909 1.327 . S
C907 H930 0.950 . S
C908 C907 1.349 . S
C908 C920 1.349 . S
C909 C907 1.327 . S
C909 C925 1.429 . S
C909 H931 0.950 . S
C910 H906 0.949 . S
C910 C918 1.574 . S
C910 C926 1.368 . S
H911 C919 0.950 . S
H912 C917 0.950 . S
H913 C918 0.949 . S
H914 C920 0.950 . S
H915 C921 0.950 . S
H916 C922 0.949 . S
C917 H912 0.950 . S
C917 C919 1.327 . S
C917 C923 1.429 . S
C918 C910 1.574 . S
C918 H913 0.949 . S
C918 C924 1.368 . S
C919 C903 1.349 . S
C919 H911 0.950 . S
C919 C917 1.327 . S
C920 C908 1.349 . S
C920 H914 0.950 . S
C920 C921 1.327 . S
C921 H915 0.950 . S
C921 C920 1.327 . S
C921 C925 1.429 . S
C922 C905 1.574 . S
C922 H916 0.949 . S
C922 C926 1.368 . S
C923 C904 1.429 . S
C923 C917 1.429 . S
C923 C924 1.523 . S
C924 C905 1.368 . S
C924 C918 1.368 . S
C924 C923 1.523 . S
C925 C909 1.429 . S
C925 C921 1.429 . S
C925 C926 1.523 . S
C926 C910 1.368 . S
C926 C922 1.368 . S
C926 C925 1.523 . S
H927 C902 0.950 . S
H928 C904 0.950 . S
H929 C905 0.949 . S
H930 C907 0.950 . S
H931 C909 0.950 . S
C932 C933 1.349 . S
C932 C934 1.327 . S
C932 H957 0.950 . S
C933 C932 1.349 . S
C933 C949 1.349 . S
C934 C932 1.327 . S
C934 C953 1.429 . S
C934 H958 0.950 . S
C935 C952 1.574 . S
C935 C954 1.368 . S
C935 H959 0.949 . S
H936 C940 0.949 . S
C937 C938 1.349 . S
C937 C939 1.327 . S
C937 H960 0.950 . S
C938 C937 1.349 . S
C938 C950 1.349 . S
C939 C937 1.327 . S
C939 C955 1.429 . S
C939 H961 0.950 . S
C940 H936 0.949 . S
C940 C948 1.574 . S
C940 C956 1.368 . S
H941 C949 0.950 . S
H942 C947 0.950 . S
H943 C948 0.949 . S
H944 C950 0.950 . S
H945 C951 0.950 . S
H946 C952 0.949 . S
C947 H942 0.950 . S
C947 C949 1.327 . S
C947 C953 1.429 . S
C948 C940 1.574 . S
C948 H943 0.949 . S
C948 C954 1.368 . S
C949 C933 1.349 . S
C949 H941 0.950 . S
C949 C947 1.327 . S
C950 C938 1.349 . S
C950 H944 0.950 . S
C950 C951 1.327 . S
C951 H945 0.950 . S
C951 C950 1.327 . S
C951 C955 1.429 . S
C952 C935 1.574 . S
C952 H946 0.949 . S
C952 C956 1.368 . S
C953 C934 1.429 . S
C953 C947 1.429 . S
C953 C954 1.523 . S
C954 C935 1.368 . S
C954 C948 1.368 . S
C954 C953 1.523 . S
C955 C939 1.429 . S
C955 C951 1.429 . S
C955 C956 1.523 . S
C956 C940 1.368 . S
C956 C952 1.368 . S
C956 C955 1.523 . S
H957 C932 0.950 . S
H958 C934 0.950 . S
H959 C935 0.949 . S
H960 C937 0.950 . S
H961 C939 0.950 . S
C962 C963 1.349 . S
C962 C964 1.327 . S
C962 H987 0.950 . S
C963 C962 1.349 . S
C963 C979 1.349 . S
C964 C962 1.327 . S
C964 C983 1.429 . S
C964 H988 0.950 . S
C965 C982 1.574 . S
C965 C984 1.368 . S
C965 H989 0.949 . S
H966 C970 0.949 . S
C967 C968 1.349 . S
C967 C969 1.327 . S
C967 H990 0.950 . S
C968 C967 1.349 . S
C968 C980 1.349 . S
C969 C967 1.327 . S
C969 C985 1.429 . S
C969 H991 0.950 . S
C970 H966 0.949 . S
C970 C978 1.574 . S
C970 C986 1.368 . S
H971 C979 0.950 . S
H972 C977 0.950 . S
H973 C978 0.949 . S
H974 C980 0.950 . S
H975 C981 0.950 . S
H976 C982 0.949 . S
C977 H972 0.950 . S
C977 C979 1.327 . S
C977 C983 1.429 . S
C978 C970 1.574 . S
C978 H973 0.949 . S
C978 C984 1.368 . S
C979 C963 1.349 . S
C979 H971 0.950 . S
C979 C977 1.327 . S
C980 C968 1.349 . S
C980 H974 0.950 . S
C980 C981 1.327 . S
C981 H975 0.950 . S
C981 C980 1.327 . S
C981 C985 1.429 . S
C982 C965 1.574 . S
C982 H976 0.949 . S
C982 C986 1.368 . S
C983 C964 1.429 . S
C983 C977 1.429 . S
C983 C984 1.523 . S
C984 C965 1.368 . S
C984 C978 1.368 . S
C984 C983 1.523 . S
C985 C969 1.429 . S
C985 C981 1.429 . S
C985 C986 1.523 . S
C986 C970 1.368 . S
C986 C982 1.368 . S
C986 C985 1.523 . S
H987 C962 0.950 . S
H988 C964 0.950 . S
H989 C965 0.949 . S
H990 C967 0.950 . S
H991 C969 0.950 . S
C992 C993 1.349 . S
C992 C994 1.327 . S
C992 H1017 0.950 . S
C993 C992 1.349 . S
C993 C1009 1.349 . S
C994 C992 1.327 . S
C994 C1013 1.429 . S
C994 H1018 0.950 . S
C995 C1012 1.574 . S
C995 C1014 1.368 . S
C995 H1019 0.949 . S
H996 C1000 0.949 . S
C997 C998 1.349 . S
C997 C999 1.327 . S
C997 H1020 0.950 . S
C998 C997 1.349 . S
C998 C1010 1.349 . S
C999 C997 1.327 . S
C999 C1015 1.429 . S
C999 H1021 0.950 . S
C1000 H996 0.949 . S
C1000 C1008 1.574 . S
C1000 C1016 1.368 . S
H1001 C1009 0.950 . S
H1002 C1007 0.950 . S
H1003 C1008 0.949 . S
H1004 C1010 0.950 . S
H1005 C1011 0.950 . S
H1006 C1012 0.949 . S
C1007 H1002 0.950 . S
C1007 C1009 1.327 . S
C1007 C1013 1.429 . S
C1008 C1000 1.574 . S
C1008 H1003 0.949 . S
C1008 C1014 1.368 . S
C1009 C993 1.349 . S
C1009 H1001 0.950 . S
C1009 C1007 1.327 . S
C1010 C998 1.349 . S
C1010 H1004 0.950 . S
C1010 C1011 1.327 . S
C1011 H1005 0.950 . S
C1011 C1010 1.327 . S
C1011 C1015 1.429 . S
C1012 C995 1.574 . S
C1012 H1006 0.949 . S
C1012 C1016 1.368 . S
C1013 C994 1.429 . S
C1013 C1007 1.429 . S
C1013 C1014 1.523 . S
C1014 C995 1.368 . S
C1014 C1008 1.368 . S
C1014 C1013 1.523 . S
C1015 C999 1.429 . S
C1015 C1011 1.429 . S
C1015 C1016 1.523 . S
C1016 C1000 1.368 . S
C1016 C1012 1.368 . S
C1016 C1015 1.523 . S
H1017 C992 0.950 . S
H1018 C994 0.950 . S
H1019 C995 0.949 . S
H1020 C997 0.950 . S
H1021 C999 0.950 . S
C1022 C1023 1.349 . S
C1022 C1024 1.327 . S
C1022 H1047 0.950 . S
C1023 C1022 1.349 . S
C1023 C1039 1.349 . S
C1024 C1022 1.327 . S
C1024 C1043 1.429 . S
C1024 H1048 0.950 . S
C1025 C1042 1.574 . S
C1025 C1044 1.368 . S
C1025 H1049 0.949 . S
H1026 C1030 0.949 . S
C1027 C1028 1.349 . S
C1027 C1029 1.327 . S
C1027 H1050 0.950 . S
C1028 C1027 1.349 . S
C1028 C1040 1.349 . S
C1029 C1027 1.327 . S
C1029 C1045 1.429 . S
C1029 H1051 0.950 . S
C1030 H1026 0.949 . S
C1030 C1038 1.574 . S
C1030 C1046 1.368 . S
H1031 C1039 0.950 . S
H1032 C1037 0.950 . S
H1033 C1038 0.949 . S
H1034 C1040 0.950 . S
H1035 C1041 0.950 . S
H1036 C1042 0.949 . S
C1037 H1032 0.950 . S
C1037 C1039 1.327 . S
C1037 C1043 1.429 . S
C1038 C1030 1.574 . S
C1038 H1033 0.949 . S
C1038 C1044 1.368 . S
C1039 C1023 1.349 . S
C1039 H1031 0.950 . S
C1039 C1037 1.327 . S
C1040 C1028 1.349 . S
C1040 H1034 0.950 . S
C1040 C1041 1.327 . S
C1041 H1035 0.950 . S
C1041 C1040 1.327 . S
C1041 C1045 1.429 . S
C1042 C1025 1.574 . S
C1042 H1036 0.949 . S
C1042 C1046 1.368 . S
C1043 C1024 1.429 . S
C1043 C1037 1.429 . S
C1043 C1044 1.523 . S
C1044 C1025 1.368 . S
C1044 C1038 1.368 . S
C1044 C1043 1.523 . S
C1045 C1029 1.429 . S
C1045 C1041 1.429 . S
C1045 C1046 1.523 . S
C1046 C1030 1.368 . S
C1046 C1042 1.368 . S
C1046 C1045 1.523 . S
H1047 C1022 0.950 . S
H1048 C1024 0.950 . S
H1049 C1025 0.949 . S
H1050 C1027 0.950 . S
H1051 C1029 0.950 . S
C1052 C1053 1.349 . S
C1052 C1054 1.327 . S
C1052 H1077 0.950 . S
C1053 C1052 1.349 . S
C1053 C1069 1.349 . S
C1054 C1052 1.327 . S
C1054 C1073 1.429 . S
C1054 H1078 0.950 . S
C1055 C1072 1.574 . S
C1055 C1074 1.368 . S
C1055 H1079 0.949 . S
H1056 C1060 0.949 . S
C1057 C1058 1.349 . S
C1057 C1059 1.327 . S
C1057 H1080 0.950 . S
C1058 C1057 1.349 . S
C1058 C1070 1.349 . S
C1059 C1057 1.327 . S
C1059 C1075 1.429 . S
C1059 H1081 0.950 . S
C1060 H1056 0.949 . S
C1060 C1068 1.574 . S
C1060 C1076 1.368 . S
H1061 C1069 0.950 . S
H1062 C1067 0.950 . S
H1063 C1068 0.949 . S
H1064 C1070 0.950 . S
H1065 C1071 0.950 . S
H1066 C1072 0.949 . S
C1067 H1062 0.950 . S
C1067 C1069 1.327 . S
C1067 C1073 1.429 . S
C1068 C1060 1.574 . S
C1068 H1063 0.949 . S
C1068 C1074 1.368 . S
C1069 C1053 1.349 . S
C1069 H1061 0.950 . S
C1069 C1067 1.327 . S
C1070 C1058 1.349 . S
C1070 H1064 0.950 . S
C1070 C1071 1.327 . S
C1071 H1065 0.950 . S
C1071 C1070 1.327 . S
C1071 C1075 1.429 . S
C1072 C1055 1.574 . S
C1072 H1066 0.949 . S
C1072 C1076 1.368 . S
C1073 C1054 1.429 . S
C1073 C1067 1.429 . S
C1073 C1074 1.523 . S
C1074 C1055 1.368 . S
C1074 C1068 1.368 . S
C1074 C1073 1.523 . S
C1075 C1059 1.429 . S
C1075 C1071 1.429 . S
C1075 C1076 1.523 . S
C1076 C1060 1.368 . S
C1076 C1072 1.368 . S
C1076 C1075 1.523 . S
H1077 C1052 0.950 . S
H1078 C1054 0.950 . S
H1079 C1055 0.949 . S
H1080 C1057 0.950 . S
H1081 C1059 0.950 . S
C1082 C1083 1.349 . S
C1082 C1084 1.327 . S
C1082 H1107 0.950 . S
C1083 C1082 1.349 . S
C1083 C1099 1.349 . S
C1084 C1082 1.327 . S
C1084 C1103 1.429 . S
C1084 H1108 0.950 . S
C1085 C1102 1.574 . S
C1085 C1104 1.368 . S
C1085 H1109 0.949 . S
H1086 C1090 0.949 . S
C1087 C1088 1.349 . S
C1087 C1089 1.327 . S
C1087 H1110 0.950 . S
C1088 C1087 1.349 . S
C1088 C1100 1.349 . S
C1089 C1087 1.327 . S
C1089 C1105 1.429 . S
C1089 H1111 0.950 . S
C1090 H1086 0.949 . S
C1090 C1098 1.574 . S
C1090 C1106 1.368 . S
H1091 C1099 0.950 . S
H1092 C1097 0.950 . S
H1093 C1098 0.949 . S
H1094 C1100 0.950 . S
H1095 C1101 0.950 . S
H1096 C1102 0.949 . S
C1097 H1092 0.950 . S
C1097 C1099 1.327 . S
C1097 C1103 1.429 . S
C1098 C1090 1.574 . S
C1098 H1093 0.949 . S
C1098 C1104 1.368 . S
C1099 C1083 1.349 . S
C1099 H1091 0.950 . S
C1099 C1097 1.327 . S
C1100 C1088 1.349 . S
C1100 H1094 0.950 . S
C1100 C1101 1.327 . S
C1101 H1095 0.950 . S
C1101 C1100 1.327 . S
C1101 C1105 1.429 . S
C1102 C1085 1.574 . S
C1102 H1096 0.949 . S
C1102 C1106 1.368 . S
C1103 C1084 1.429 . S
C1103 C1097 1.429 . S
C1103 C1104 1.523 . S
C1104 C1085 1.368 . S
C1104 C1098 1.368 . S
C1104 C1103 1.523 . S
C1105 C1089 1.429 . S
C1105 C1101 1.429 . S
C1105 C1106 1.523 . S
C1106 C1090 1.368 . S
C1106 C1102 1.368 . S
C1106 C1105 1.523 . S
H1107 C1082 0.950 . S
H1108 C1084 0.950 . S
H1109 C1085 0.949 . S
H1110 C1087 0.950 . S
H1111 C1089 0.950 . S
C1112 C1113 1.349 . S
C1112 C1114 1.327 . S
C1112 H1137 0.950 . S
C1113 C1112 1.349 . S
C1113 C1129 1.349 . S
C1114 C1112 1.327 . S
C1114 C1133 1.429 . S
C1114 H1138 0.950 . S
C1115 C1132 1.574 . S
C1115 C1134 1.368 . S
C1115 H1139 0.949 . S
H1116 C1120 0.949 . S
C1117 C1118 1.349 . S
C1117 C1119 1.327 . S
C1117 H1140 0.950 . S
C1118 C1117 1.349 . S
C1118 C1130 1.349 . S
C1119 C1117 1.327 . S
C1119 C1135 1.429 . S
C1119 H1141 0.950 . S
C1120 H1116 0.949 . S
C1120 C1128 1.574 . S
C1120 C1136 1.368 . S
H1121 C1129 0.950 . S
H1122 C1127 0.950 . S
H1123 C1128 0.949 . S
H1124 C1130 0.950 . S
H1125 C1131 0.950 . S
H1126 C1132 0.949 . S
C1127 H1122 0.950 . S
C1127 C1129 1.327 . S
C1127 C1133 1.429 . S
C1128 C1120 1.574 . S
C1128 H1123 0.949 . S
C1128 C1134 1.368 . S
C1129 C1113 1.349 . S
C1129 H1121 0.950 . S
C1129 C1127 1.327 . S
C1130 C1118 1.349 . S
C1130 H1124 0.950 . S
C1130 C1131 1.327 . S
C1131 H1125 0.950 . S
C1131 C1130 1.327 . S
C1131 C1135 1.429 . S
C1132 C1115 1.574 . S
C1132 H1126 0.949 . S
C1132 C1136 1.368 . S
C1133 C1114 1.429 . S
C1133 C1127 1.429 . S
C1133 C1134 1.523 . S
C1134 C1115 1.368 . S
C1134 C1128 1.368 . S
C1134 C1133 1.523 . S
C1135 C1119 1.429 . S
C1135 C1131 1.429 . S
C1135 C1136 1.523 . S
C1136 C1120 1.368 . S
C1136 C1132 1.368 . S
C1136 C1135 1.523 . S
H1137 C1112 0.950 . S
H1138 C1114 0.950 . S
H1139 C1115 0.949 . S
H1140 C1117 0.950 . S
H1141 C1119 0.950 . S
C1142 C1143 1.349 . S
C1142 C1144 1.327 . S
C1142 H1167 0.950 . S
C1143 C1142 1.349 . S
C1143 C1159 1.349 . S
C1144 C1142 1.327 . S
C1144 C1163 1.429 . S
C1144 H1168 0.950 . S
C1145 C1162 1.574 . S
C1145 C1164 1.368 . S
C1145 H1169 0.949 . S
H1146 C1150 0.949 . S
C1147 C1148 1.349 . S
C1147 C1149 1.327 . S
C1147 H1170 0.950 . S
C1148 C1147 1.349 . S
C1148 C1160 1.349 . S
C1149 C1147 1.327 . S
C1149 C1165 1.429 . S
C1149 H1171 0.950 . S
C1150 H1146 0.949 . S
C1150 C1158 1.574 . S
C1150 C1166 1.368 . S
H1151 C1159 0.950 . S
H1152 C1157 0.950 . S
H1153 C1158 0.949 . S
H1154 C1160 0.950 . S
H1155 C1161 0.950 . S
H1156 C1162 0.949 . S
C1157 H1152 0.950 . S
C1157 C1159 1.327 . S
C1157 C1163 1.429 . S
C1158 C1150 1.574 . S
C1158 H1153 0.949 . S
C1158 C1164 1.368 . S
C1159 C1143 1.349 . S
C1159 H1151 0.950 . S
C1159 C1157 1.327 . S
C1160 C1148 1.349 . S
C1160 H1154 0.950 . S
C1160 C1161 1.327 . S
C1161 H1155 0.950 . S
C1161 C1160 1.327 . S
C1161 C1165 1.429 . S
C1162 C1145 1.574 . S
C1162 H1156 0.949 . S
C1162 C1166 1.368 . S
C1163 C1144 1.429 . S
C1163 C1157 1.429 . S
C1163 C1164 1.523 . S
C1164 C1145 1.368 . S
C1164 C1158 1.368 . S
C1164 C1163 1.523 . S
C1165 C1149 1.429 . S
C1165 C1161 1.429 . S
C1165 C1166 1.523 . S
C1166 C1150 1.368 . S
C1166 C1162 1.368 . S
C1166 C1165 1.523 . S
H1167 C1142 0.950 . S
H1168 C1144 0.950 . S
H1169 C1145 0.949 . S
H1170 C1147 0.950 . S
H1171 C1149 0.950 . S
C1172 C1173 1.349 . S
C1172 C1174 1.327 . S
C1172 H1197 0.950 . S
C1173 C1172 1.349 . S
C1173 C1189 1.349 . S
C1174 C1172 1.327 . S
C1174 C1193 1.429 . S
C1174 H1198 0.950 . S
C1175 C1192 1.574 . S
C1175 C1194 1.368 . S
C1175 H1199 0.949 . S
H1176 C1180 0.949 . S
C1177 C1178 1.349 . S
C1177 C1179 1.327 . S
C1177 H1200 0.950 . S
C1178 C1177 1.349 . S
C1178 C1190 1.349 . S
C1179 C1177 1.327 . S
C1179 C1195 1.429 . S
C1179 H1201 0.950 . S
C1180 H1176 0.949 . S
C1180 C1188 1.574 . S
C1180 C1196 1.368 . S
H1181 C1189 0.950 . S
H1182 C1187 0.950 . S
H1183 C1188 0.949 . S
H1184 C1190 0.950 . S
H1185 C1191 0.950 . S
H1186 C1192 0.949 . S
C1187 H1182 0.950 . S
C1187 C1189 1.327 . S
C1187 C1193 1.429 . S
C1188 C1180 1.574 . S
C1188 H1183 0.949 . S
C1188 C1194 1.368 . S
C1189 C1173 1.349 . S
C1189 H1181 0.950 . S
C1189 C1187 1.327 . S
C1190 C1178 1.349 . S
C1190 H1184 0.950 . S
C1190 C1191 1.327 . S
C1191 H1185 0.950 . S
C1191 C1190 1.327 . S
C1191 C1195 1.429 . S
C1192 C1175 1.574 . S
C1192 H1186 0.949 . S
C1192 C1196 1.368 . S
C1193 C1174 1.429 . S
C1193 C1187 1.429 . S
C1193 C1194 1.523 . S
C1194 C1175 1.368 . S
C1194 C1188 1.368 . S
C1194 C1193 1.523 . S
C1195 C1179 1.429 . S
C1195 C1191 1.429 . S
C1195 C1196 1.523 . S
C1196 C1180 1.368 . S
C1196 C1192 1.368 . S
C1196 C1195 1.523 . S
H1197 C1172 0.950 . S
H1198 C1174 0.950 . S
H1199 C1175 0.949 . S
H1200 C1177 0.950 . S
H1201 C1179 0.950 . S
C1202 C1203 1.349 . S
C1202 C1204 1.327 . S
C1202 H1227 0.950 . S
C1203 C1202 1.349 . S
C1203 C1219 1.349 . S
C1204 C1202 1.327 . S
C1204 C1223 1.429 . S
C1204 H1228 0.950 . S
C1205 C1222 1.574 . S
C1205 C1224 1.368 . S
C1205 H1229 0.949 . S
H1206 C1210 0.949 . S
C1207 C1208 1.349 . S
C1207 C1209 1.327 . S
C1207 H1230 0.950 . S
C1208 C1207 1.349 . S
C1208 C1220 1.349 . S
C1209 C1207 1.327 . S
C1209 C1225 1.429 . S
C1209 H1231 0.950 . S
C1210 H1206 0.949 . S
C1210 C1218 1.574 . S
C1210 C1226 1.368 . S
H1211 C1219 0.950 . S
H1212 C1217 0.950 . S
H1213 C1218 0.949 . S
H1214 C1220 0.950 . S
H1215 C1221 0.950 . S
H1216 C1222 0.949 . S
C1217 H1212 0.950 . S
C1217 C1219 1.327 . S
C1217 C1223 1.429 . S
C1218 C1210 1.574 . S
C1218 H1213 0.949 . S
C1218 C1224 1.368 . S
C1219 C1203 1.349 . S
C1219 H1211 0.950 . S
C1219 C1217 1.327 . S
C1220 C1208 1.349 . S
C1220 H1214 0.950 . S
C1220 C1221 1.327 . S
C1221 H1215 0.950 . S
C1221 C1220 1.327 . S
C1221 C1225 1.429 . S
C1222 C1205 1.574 . S
C1222 H1216 0.949 . S
C1222 C1226 1.368 . S
C1223 C1204 1.429 . S
C1223 C1217 1.429 . S
C1223 C1224 1.523 . S
C1224 C1205 1.368 . S
C1224 C1218 1.368 . S
C1224 C1223 1.523 . S
C1225 C1209 1.429 . S
C1225 C1221 1.429 . S
C1225 C1226 1.523 . S
C1226 C1210 1.368 . S
C1226 C1222 1.368 . S
C1226 C1225 1.523 . S
H1227 C1202 0.950 . S
H1228 C1204 0.950 . S
H1229 C1205 0.949 . S
H1230 C1207 0.950 . S
H1231 C1209 0.950 . S
C1232 C1233 1.349 . S
C1232 C1234 1.327 . S
C1232 H1257 0.950 . S
C1233 C1232 1.349 . S
C1233 C1249 1.349 . S
C1234 C1232 1.327 . S
C1234 C1253 1.429 . S
C1234 H1258 0.950 . S
C1235 C1252 1.574 . S
C1235 C1254 1.368 . S
C1235 H1259 0.949 . S
H1236 C1240 0.949 . S
C1237 C1238 1.349 . S
C1237 C1239 1.327 . S
C1237 H1260 0.950 . S
C1238 C1237 1.349 . S
C1238 C1250 1.349 . S
C1239 C1237 1.327 . S
C1239 C1255 1.429 . S
C1239 H1261 0.950 . S
C1240 H1236 0.949 . S
C1240 C1248 1.574 . S
C1240 C1256 1.368 . S
H1241 C1249 0.950 . S
H1242 C1247 0.950 . S
H1243 C1248 0.949 . S
H1244 C1250 0.950 . S
H1245 C1251 0.950 . S
H1246 C1252 0.949 . S
C1247 H1242 0.950 . S
C1247 C1249 1.327 . S
C1247 C1253 1.429 . S
C1248 C1240 1.574 . S
C1248 H1243 0.949 . S
C1248 C1254 1.368 . S
C1249 C1233 1.349 . S
C1249 H1241 0.950 . S
C1249 C1247 1.327 . S
C1250 C1238 1.349 . S
C1250 H1244 0.950 . S
C1250 C1251 1.327 . S
C1251 H1245 0.950 . S
C1251 C1250 1.327 . S
C1251 C1255 1.429 . S
C1252 C1235 1.574 . S
C1252 H1246 0.949 . S
C1252 C1256 1.368 . S
C1253 C1234 1.429 . S
C1253 C1247 1.429 . S
C1253 C1254 1.523 . S
C1254 C1235 1.368 . S
C1254 C1248 1.368 . S
C1254 C1253 1.523 . S
C1255 C1239 1.429 . S
C1255 C1251 1.429 . S
C1255 C1256 1.523 . S
C1256 C1240 1.368 . S
C1256 C1252 1.368 . S
C1256 C1255 1.523 . S
H1257 C1232 0.950 . S
H1258 C1234 0.950 . S
H1259 C1235 0.949 . S
H1260 C1237 0.950 . S
H1261 C1239 0.950 . S
C1262 C1263 1.349 . S
C1262 C1264 1.327 . S
C1262 H1287 0.950 . S
C1263 C1262 1.349 . S
C1263 C1279 1.349 . S
C1264 C1262 1.327 . S
C1264 C1283 1.429 . S
C1264 H1288 0.950 . S
C1265 C1282 1.574 . S
C1265 C1284 1.368 . S
C1265 H1289 0.949 . S
H1266 C1270 0.949 . S
C1267 C1268 1.349 . S
C1267 C1269 1.327 . S
C1267 H1290 0.950 . S
C1268 C1267 1.349 . S
C1268 C1280 1.349 . S
C1269 C1267 1.327 . S
C1269 C1285 1.429 . S
C1269 H1291 0.950 . S
C1270 H1266 0.949 . S
C1270 C1278 1.574 . S
C1270 C1286 1.368 . S
H1271 C1279 0.950 . S
H1272 C1277 0.950 . S
H1273 C1278 0.949 . S
H1274 C1280 0.950 . S
H1275 C1281 0.950 . S
H1276 C1282 0.949 . S
C1277 H1272 0.950 . S
C1277 C1279 1.327 . S
C1277 C1283 1.429 . S
C1278 C1270 1.574 . S
C1278 H1273 0.949 . S
C1278 C1284 1.368 . S
C1279 C1263 1.349 . S
C1279 H1271 0.950 . S
C1279 C1277 1.327 . S
C1280 C1268 1.349 . S
C1280 H1274 0.950 . S
C1280 C1281 1.327 . S
C1281 H1275 0.950 . S
C1281 C1280 1.327 . S
C1281 C1285 1.429 . S
C1282 C1265 1.574 . S
C1282 H1276 0.949 . S
C1282 C1286 1.368 . S
C1283 C1264 1.429 . S
C1283 C1277 1.429 . S
C1283 C1284 1.523 . S
C1284 C1265 1.368 . S
C1284 C1278 1.368 . S
C1284 C1283 1.523 . S
C1285 C1269 1.429 . S
C1285 C1281 1.429 . S
C1285 C1286 1.523 . S
C1286 C1270 1.368 . S
C1286 C1282 1.368 . S
C1286 C1285 1.523 . S
H1287 C1262 0.950 . S
H1288 C1264 0.950 . S
H1289 C1265 0.949 . S
H1290 C1267 0.950 . S
H1291 C1269 0.950 . S
C1292 C1293 1.349 . S
C1292 C1294 1.327 . S
C1292 H1317 0.950 . S
C1293 C1292 1.349 . S
C1293 C1309 1.349 . S
C1294 C1292 1.327 . S
C1294 C1313 1.429 . S
C1294 H1318 0.950 . S
C1295 C1312 1.574 . S
C1295 C1314 1.368 . S
C1295 H1319 0.949 . S
H1296 C1300 0.949 . S
C1297 C1298 1.349 . S
C1297 C1299 1.327 . S
C1297 H1320 0.950 . S
C1298 C1297 1.349 . S
C1298 C1310 1.349 . S
C1299 C1297 1.327 . S
C1299 C1315 1.429 . S
C1299 H1321 0.950 . S
C1300 H1296 0.949 . S
C1300 C1308 1.574 . S
C1300 C1316 1.368 . S
H1301 C1309 0.950 . S
H1302 C1307 0.950 . S
H1303 C1308 0.949 . S
H1304 C1310 0.950 . S
H1305 C1311 0.950 . S
H1306 C1312 0.949 . S
C1307 H1302 0.950 . S
C1307 C1309 1.327 . S
C1307 C1313 1.429 . S
C1308 C1300 1.574 . S
C1308 H1303 0.949 . S
C1308 C1314 1.368 . S
C1309 C1293 1.349 . S
C1309 H1301 0.950 . S
C1309 C1307 1.327 . S
C1310 C1298 1.349 . S
C1310 H1304 0.950 . S
C1310 C1311 1.327 . S
C1311 H1305 0.950 . S
C1311 C1310 1.327 . S
C1311 C1315 1.429 . S
C1312 C1295 1.574 . S
C1312 H1306 0.949 . S
C1312 C1316 1.368 . S
C1313 C1294 1.429 . S
C1313 C1307 1.429 . S
C1313 C1314 1.523 . S
C1314 C1295 1.368 . S
C1314 C1308 1.368 . S
C1314 C1313 1.523 . S
C1315 C1299 1.429 . S
C1315 C1311 1.429 . S
C1315 C1316 1.523 . S
C1316 C1300 1.368 . S
C1316 C1312 1.368 . S
C1316 C1315 1.523 . S
H1317 C1292 0.950 . S
H1318 C1294 0.950 . S
H1319 C1295 0.949 . S
H1320 C1297 0.950 . S
H1321 C1299 0.950 . S
C1322 C1323 1.349 . S
C1322 C1324 1.327 . S
C1322 H1347 0.950 . S
C1323 C1322 1.349 . S
C1323 C1339 1.349 . S
C1324 C1322 1.327 . S
C1324 C1343 1.429 . S
C1324 H1348 0.950 . S
C1325 C1342 1.574 . S
C1325 C1344 1.368 . S
C1325 H1349 0.949 . S
H1326 C1330 0.949 . S
C1327 C1328 1.349 . S
C1327 C1329 1.327 . S
C1327 H1350 0.950 . S
C1328 C1327 1.349 . S
C1328 C1340 1.349 . S
C1329 C1327 1.327 . S
C1329 C1345 1.429 . S
C1329 H1351 0.950 . S
C1330 H1326 0.949 . S
C1330 C1338 1.574 . S
C1330 C1346 1.368 . S
H1331 C1339 0.950 . S
H1332 C1337 0.950 . S
H1333 C1338 0.949 . S
H1334 C1340 0.950 . S
H1335 C1341 0.950 . S
H1336 C1342 0.949 . S
C1337 H1332 0.950 . S
C1337 C1339 1.327 . S
C1337 C1343 1.429 . S
C1338 C1330 1.574 . S
C1338 H1333 0.949 . S
C1338 C1344 1.368 . S
C1339 C1323 1.349 . S
C1339 H1331 0.950 . S
C1339 C1337 1.327 . S
C1340 C1328 1.349 . S
C1340 H1334 0.950 . S
C1340 C1341 1.327 . S
C1341 H1335 0.950 . S
C1341 C1340 1.327 . S
C1341 C1345 1.429 . S
C1342 C1325 1.574 . S
C1342 H1336 0.949 . S
C1342 C1346 1.368 . S
C1343 C1324 1.429 . S
C1343 C1337 1.429 . S
C1343 C1344 1.523 . S
C1344 C1325 1.368 . S
C1344 C1338 1.368 . S
C1344 C1343 1.523 . S
C1345 C1329 1.429 . S
C1345 C1341 1.429 . S
C1345 C1346 1.523 . S
C1346 C1330 1.368 . S
C1346 C1342 1.368 . S
C1346 C1345 1.523 . S
H1347 C1322 0.950 . S
H1348 C1324 0.950 . S
H1349 C1325 0.949 . S
H1350 C1327 0.950 . S
H1351 C1329 0.950 . S
C1352 C1353 1.349 . S
C1352 C1354 1.327 . S
C1352 H1377 0.950 . S
C1353 C1352 1.349 . S
C1353 C1369 1.349 . S
C1354 C1352 1.327 . S
C1354 C1373 1.429 . S
C1354 H1378 0.950 . S
C1355 C1372 1.574 . S
C1355 C1374 1.368 . S
C1355 H1379 0.949 . S
H1356 C1360 0.949 . S
C1357 C1358 1.349 . S
C1357 C1359 1.327 . S
C1357 H1380 0.950 . S
C1358 C1357 1.349 . S
C1358 C1370 1.349 . S
C1359 C1357 1.327 . S
C1359 C1375 1.429 . S
C1359 H1381 0.950 . S
C1360 H1356 0.949 . S
C1360 C1368 1.574 . S
C1360 C1376 1.368 . S
H1361 C1369 0.950 . S
H1362 C1367 0.950 . S
H1363 C1368 0.949 . S
H1364 C1370 0.950 . S
H1365 C1371 0.950 . S
H1366 C1372 0.949 . S
C1367 H1362 0.950 . S
C1367 C1369 1.327 . S
C1367 C1373 1.429 . S
C1368 C1360 1.574 . S
C1368 H1363 0.949 . S
C1368 C1374 1.368 . S
C1369 C1353 1.349 . S
C1369 H1361 0.950 . S
C1369 C1367 1.327 . S
C1370 C1358 1.349 . S
C1370 H1364 0.950 . S
C1370 C1371 1.327 . S
C1371 H1365 0.950 . S
C1371 C1370 1.327 . S
C1371 C1375 1.429 . S
C1372 C1355 1.574 . S
C1372 H1366 0.949 . S
C1372 C1376 1.368 . S
C1373 C1354 1.429 . S
C1373 C1367 1.429 . S
C1373 C1374 1.523 . S
C1374 C1355 1.368 . S
C1374 C1368 1.368 . S
C1374 C1373 1.523 . S
C1375 C1359 1.429 . S
C1375 C1371 1.429 . S
C1375 C1376 1.523 . S
C1376 C1360 1.368 . S
C1376 C1372 1.368 . S
C1376 C1375 1.523 . S
H1377 C1352 0.950 . S
H1378 C1354 0.950 . S
H1379 C1355 0.949 . S
H1380 C1357 0.950 . S
H1381 C1359 0.950 . S
C1382 C1383 1.349 . S
C1382 C1384 1.327 . S
C1382 H1407 0.950 . S
C1383 C1382 1.349 . S
C1383 C1399 1.349 . S
C1384 C1382 1.327 . S
C1384 C1403 1.429 . S
C1384 H1408 0.950 . S
C1385 C1402 1.574 . S
C1385 C1404 1.368 . S
C1385 H1409 0.949 . S
H1386 C1390 0.949 . S
C1387 C1388 1.349 . S
C1387 C1389 1.327 . S
C1387 H1410 0.950 . S
C1388 C1387 1.349 . S
C1388 C1400 1.349 . S
C1389 C1387 1.327 . S
C1389 C1405 1.429 . S
C1389 H1411 0.950 . S
C1390 H1386 0.949 . S
C1390 C1398 1.574 . S
C1390 C1406 1.368 . S
H1391 C1399 0.950 . S
H1392 C1397 0.950 . S
H1393 C1398 0.949 . S
H1394 C1400 0.950 . S
H1395 C1401 0.950 . S
H1396 C1402 0.949 . S
C1397 H1392 0.950 . S
C1397 C1399 1.327 . S
C1397 C1403 1.429 . S
C1398 C1390 1.574 . S
C1398 H1393 0.949 . S
C1398 C1404 1.368 . S
C1399 C1383 1.349 . S
C1399 H1391 0.950 . S
C1399 C1397 1.327 . S
C1400 C1388 1.349 . S
C1400 H1394 0.950 . S
C1400 C1401 1.327 . S
C1401 H1395 0.950 . S
C1401 C1400 1.327 . S
C1401 C1405 1.429 . S
C1402 C1385 1.574 . S
C1402 H1396 0.949 . S
C1402 C1406 1.368 . S
C1403 C1384 1.429 . S
C1403 C1397 1.429 . S
C1403 C1404 1.523 . S
C1404 C1385 1.368 . S
C1404 C1398 1.368 . S
C1404 C1403 1.523 . S
C1405 C1389 1.429 . S
C1405 C1401 1.429 . S
C1405 C1406 1.523 . S
C1406 C1390 1.368 . S
C1406 C1402 1.368 . S
C1406 C1405 1.523 . S
H1407 C1382 0.950 . S
H1408 C1384 0.950 . S
H1409 C1385 0.949 . S
H1410 C1387 0.950 . S
H1411 C1389 0.950 . S
C698 C355 1.472 . S
C693 C15 1.489 . S
C728 C435 1.663 . S
C723 C55 1.717 . S
C758 C367 1.635 . S
C753 C101 1.723 . S
C788 C411 1.832 . S
C783 C141 2.000 . S
C818 C479 1.408 . S
C813 C2 1.403 . S
C848 C559 1.476 . S
C843 C61 1.494 . S
C873 C95 1.827 . S
C878 C621 1.768 . S
C908 C677 1.511 . S
C903 C135 1.625 . S
C938 C491 1.505 . S
C933 C42 1.584 . S
C963 C82 1.612 . S
C968 C535 1.508 . S
C998 C597 1.866 . S
C993 C122 2.050 . S
C1028 C665 1.481 . S
C1023 C21 1.492 . S
C1053 C162 1.996 . S
C1058 C429 1.827 . S
C1088 C349 1.631 . S
C1083 C221 1.728 . S
C1113 C255 1.719 . S
C1118 C417 1.663 . S
C1143 C282 1.461 . S
C1148 C373 1.470 . S
C1178 C615 1.874 . S
C1173 C181 2.062 . S
C1208 C659 1.518 . S
C1203 C202 1.633 . S
C1238 C473 1.506 . S
C1233 C242 1.627 . S
C1263 C301 1.491 . S
C1268 C541 1.472 . S
C1298 C603 1.764 . S
C1293 C215 1.827 . S
C1328 C683 1.484 . S
C1323 C261 1.517 . S
C1358 C497 1.400 . S
C1353 C295 1.429 . S
C1383 C175 1.628 . S
C1388 C553 1.498 . S
