# Generated by pormake.
# Topology pyr, (3,6)-cn, num edge types: 1
# Building blocks:
#     Node 0, Type 0, BuildingBlock: BELTOD_clean_linker_0, # of connection points: 3
#     Node 1, Type 0, BuildingBlock: BELTOD_clean_linker_0, # of connection points: 3
#     Node 2, Type 0, BuildingBlock: BELTOD_clean_linker_0, # of connection points: 3
#     Node 3, Type 0, BuildingBlock: BELTOD_clean_linker_0, # of connection points: 3
#     Node 4, Type 0, BuildingBlock: BELTOD_clean_linker_0, # of connection points: 3
#     Node 5, Type 0, BuildingBlock: BELTOD_clean_linker_0, # of connection points: 3
#     Node 6, Type 0, BuildingBlock: BELTOD_clean_linker_0, # of connection points: 3
#     Node 7, Type 0, BuildingBlock: BELTOD_clean_linker_0, # of connection points: 3
#     Node 8, Type 1, BuildingBlock: FUNLAD_clean_sbu_0, # of connection points: 6
#     Node 9, Type 1, BuildingBlock: FUNLAD_clean_sbu_0, # of connection points: 6
#     Node 10, Type 1, BuildingBlock: FUNLAD_clean_sbu_0, # of connection points: 6
#     Node 11, Type 1, BuildingBlock: FUNLAD_clean_sbu_0, # of connection points: 6
#     Edge 12, Type (0, 1), BuildingBlock: KIFKEQ_clean_linker_1, # of connection points: 2
#     Edge 13, Type (0, 1), BuildingBlock: KIFKEQ_clean_linker_1, # of connection points: 2
#     Edge 14, Type (0, 1), BuildingBlock: KIFKEQ_clean_linker_1, # of connection points: 2
#     Edge 15, Type (0, 1), BuildingBlock: KIFKEQ_clean_linker_1, # of connection points: 2
#     Edge 16, Type (0, 1), BuildingBlock: KIFKEQ_clean_linker_1, # of connection points: 2
#     Edge 17, Type (0, 1), BuildingBlock: KIFKEQ_clean_linker_1, # of connection points: 2
#     Edge 18, Type (0, 1), BuildingBlock: KIFKEQ_clean_linker_1, # of connection points: 2
#     Edge 19, Type (0, 1), BuildingBlock: KIFKEQ_clean_linker_1, # of connection points: 2
#     Edge 20, Type (0, 1), BuildingBlock: KIFKEQ_clean_linker_1, # of connection points: 2
#     Edge 21, Type (0, 1), BuildingBlock: KIFKEQ_clean_linker_1, # of connection points: 2
#     Edge 22, Type (0, 1), BuildingBlock: KIFKEQ_clean_linker_1, # of connection points: 2
#     Edge 23, Type (0, 1), BuildingBlock: KIFKEQ_clean_linker_1, # of connection points: 2
#     Edge 24, Type (0, 1), BuildingBlock: KIFKEQ_clean_linker_1, # of connection points: 2
#     Edge 25, Type (0, 1), BuildingBlock: KIFKEQ_clean_linker_1, # of connection points: 2
#     Edge 26, Type (0, 1), BuildingBlock: KIFKEQ_clean_linker_1, # of connection points: 2
#     Edge 27, Type (0, 1), BuildingBlock: KIFKEQ_clean_linker_1, # of connection points: 2
#     Edge 28, Type (0, 1), BuildingBlock: KIFKEQ_clean_linker_1, # of connection points: 2
#     Edge 29, Type (0, 1), BuildingBlock: KIFKEQ_clean_linker_1, # of connection points: 2
#     Edge 30, Type (0, 1), BuildingBlock: KIFKEQ_clean_linker_1, # of connection points: 2
#     Edge 31, Type (0, 1), BuildingBlock: KIFKEQ_clean_linker_1, # of connection points: 2
#     Edge 32, Type (0, 1), BuildingBlock: KIFKEQ_clean_linker_1, # of connection points: 2
#     Edge 33, Type (0, 1), BuildingBlock: KIFKEQ_clean_linker_1, # of connection points: 2
#     Edge 34, Type (0, 1), BuildingBlock: KIFKEQ_clean_linker_1, # of connection points: 2
#     Edge 35, Type (0, 1), BuildingBlock: KIFKEQ_clean_linker_1, # of connection points: 2
# Relax obj value: 0.063
# Max RMSD: 0.068
# Mean RMSD: 0.034
data_MOF--net-pry--node1-FUNLAD_clean_sbu_0--node2-BELTOD_clean_linker_0--edge1-KIFKEQ_clean_linker_1
_symmetry_space_group_name_H-M    P1
_symmetry_Int_Tables_number       1
_symmetry_cell_setting            triclinic
loop_
_symmetry_equiv_pos_as_xyz
'x, y, z'
_cell_length_a     41.516617
_cell_length_b     44.374283
_cell_length_c     44.041922
_cell_angle_alpha  89.98999
_cell_angle_beta   90.336982
_cell_angle_gamma 83.479459
loop_
_atom_site_label
_atom_site_type_symbol
_atom_site_fract_x
_atom_site_fract_y
_atom_site_fract_z
_atom_type_partial_charge
P0 P 0.17403 0.19632 0.21607 0.0
H1 H 0.21193 0.21111 0.16412 0.0
H2 H 0.24952 0.18076 0.13084 0.0
H3 H 0.22477 0.09906 0.17388 0.0
H4 H 0.18707 0.1296 0.2071 0.0
H5 H 0.18079 0.26108 0.21319 0.0
H6 H 0.15478 0.30263 0.18256 0.0
H7 H 0.09004 0.24305 0.14434 0.0
H8 H 0.117 0.20074 0.17479 0.0
H9 H 0.19723 0.15269 0.26214 0.0
H10 H 0.10397 0.19361 0.2304 0.0
O11 O 0.20218 0.21102 0.23681 0.0
H12 H 0.17112 0.12671 0.30228 0.0
H13 H 0.07749 0.16765 0.27094 0.0
C14 C 0.19648 0.17277 0.1881 0.0
C15 C 0.21399 0.18663 0.16597 0.0
C16 C 0.23553 0.1692 0.14689 0.0
C17 C 0.24033 0.13742 0.14973 0.0
C18 C 0.22197 0.12349 0.17133 0.0
C19 C 0.20022 0.141 0.19031 0.0
C20 C 0.15054 0.22772 0.19682 0.0
C21 C 0.16073 0.25678 0.19864 0.0
C22 C 0.146 0.28061 0.18088 0.0
C23 C 0.12047 0.27611 0.16095 0.0
C24 C 0.10955 0.24722 0.15966 0.0
C25 C 0.12479 0.2231 0.17716 0.0
C26 C 0.15267 0.17503 0.24305 0.0
C27 C 0.17103 0.15587 0.26361 0.0
C28 C 0.15605 0.14117 0.28677 0.0
C29 C 0.12218 0.14528 0.29012 0.0
C30 C 0.10361 0.16382 0.26892 0.0
C31 C 0.11876 0.17871 0.24567 0.0
P32 P 0.38044 0.88765 0.66043 0.0
H33 H 0.39653 0.94508 0.68432 0.0
H34 H 0.41008 0.96243 0.73476 0.0
H35 H 0.39939 0.87369 0.77118 0.0
H36 H 0.38515 0.8566 0.72022 0.0
H37 H 0.44386 0.85529 0.64762 0.0
H38 H 0.46138 0.80409 0.62938 0.0
H39 H 0.36347 0.78121 0.63818 0.0
H40 H 0.34615 0.8326 0.65661 0.0
H41 H 0.32818 0.92818 0.68959 0.0
H42 H 0.34023 0.87256 0.60931 0.0
O43 O 0.40113 0.90729 0.63653 0.0
H44 H 0.27409 0.9483 0.67248 0.0
H45 H 0.28547 0.89119 0.59283 0.0
C46 C 0.39047 0.89936 0.69836 0.0
C47 C 0.3973 0.92923 0.70309 0.0
C48 C 0.40518 0.93912 0.73203 0.0
C49 C 0.40633 0.9194 0.75712 0.0
C50 C 0.39869 0.88955 0.75244 0.0
C51 C 0.39076 0.87965 0.72329 0.0
C52 C 0.39358 0.84803 0.65286 0.0
C53 C 0.42623 0.83913 0.64607 0.0
C54 C 0.43624 0.80976 0.63567 0.0
C55 C 0.41375 0.78858 0.63183 0.0
C56 C 0.3813 0.79712 0.64024 0.0
C57 C 0.37138 0.82649 0.65093 0.0
C58 C 0.33817 0.89828 0.65109 0.0
C59 C 0.31893 0.91961 0.66867 0.0
C60 C 0.28777 0.93111 0.65884 0.0
C61 C 0.27517 0.92156 0.63112 0.0
C62 C 0.29436 0.89959 0.614 0.0
C63 C 0.32561 0.88844 0.62368 0.0
P64 P 0.67429 0.3778 0.92432 0.0
H65 H 0.72422 0.36411 0.97019 0.0
H66 H 0.76185 0.39524 0.99423 0.0
H67 H 0.70947 0.47554 0.95444 0.0
H68 H 0.6721 0.44407 0.93009 0.0
H69 H 0.6209 0.3488 0.90031 0.0
H70 H 0.57816 0.32408 0.92379 0.0
H71 H 0.61201 0.34818 0.01253 0.0
H72 H 0.65489 0.37365 0.9886 0.0
H73 H 0.70439 0.3848 0.86545 0.0
H74 H 0.61348 0.41477 0.9087 0.0
O75 O 0.69994 0.34777 0.91438 0.0
H76 H 0.68311 0.40615 0.81732 0.0
H77 H 0.59122 0.43442 0.86044 0.0
C78 C 0.69602 0.40173 0.94778 0.0
C79 C 0.72043 0.38849 0.96719 0.0
C80 C 0.74178 0.40637 0.98112 0.0
C81 C 0.73891 0.43783 0.97585 0.0
C82 C 0.71261 0.45129 0.95845 0.0
C83 C 0.69122 0.43334 0.94456 0.0
C84 C 0.64065 0.36355 0.94267 0.0
C85 C 0.61858 0.34966 0.92479 0.0
C86 C 0.59398 0.33567 0.93825 0.0
C87 C 0.59144 0.33459 0.96999 0.0
C88 C 0.61329 0.34896 0.98799 0.0
C89 C 0.63777 0.36344 0.97437 0.0
C90 C 0.6601 0.39731 0.89024 0.0
C91 C 0.6798 0.39594 0.86452 0.0
C92 C 0.66748 0.40795 0.83698 0.0
C93 C 0.63513 0.42132 0.83474 0.0
C94 C 0.6162 0.42433 0.8612 0.0
C95 C 0.62878 0.41278 0.88881 0.0
P96 P 0.86626 0.64666 0.44709 0.0
H97 H 0.92502 0.66773 0.42424 0.0
H98 H 0.96467 0.69592 0.44769 0.0
H99 H 0.92278 0.68273 0.53564 0.0
H100 H 0.88295 0.65342 0.51167 0.0
H101 H 0.8322 0.64753 0.38915 0.0
H102 H 0.84916 0.63044 0.33854 0.0
H103 H 0.94153 0.59162 0.37542 0.0
H104 H 0.9233 0.60703 0.4262 0.0
H105 H 0.81844 0.65984 0.49438 0.0
H106 H 0.86181 0.58093 0.44631 0.0
O107 O 0.84239 0.67877 0.44001 0.0
H108 H 0.77567 0.63127 0.51251 0.0
H109 H 0.81924 0.55193 0.46476 0.0
C110 C 0.90135 0.65778 0.46621 0.0
C111 C 0.92534 0.66919 0.44876 0.0
C112 C 0.94823 0.68546 0.46233 0.0
C113 C 0.94695 0.69164 0.4936 0.0
C114 C 0.92438 0.67829 0.51148 0.0
C115 C 0.90162 0.66152 0.49781 0.0
C116 C 0.87708 0.62964 0.41105 0.0
C117 C 0.85594 0.63501 0.38632 0.0
C118 C 0.8658 0.62542 0.35736 0.0
C119 C 0.89715 0.61052 0.35267 0.0
C120 C 0.91728 0.60312 0.37805 0.0
C121 C 0.90706 0.6122 0.4071 0.0
C122 C 0.84273 0.6227 0.46845 0.0
C123 C 0.81936 0.63604 0.48859 0.0
C124 C 0.79496 0.61958 0.49905 0.0
C125 C 0.7937 0.58948 0.48953 0.0
C126 C 0.81921 0.57529 0.47191 0.0
C127 C 0.84364 0.59181 0.46147 0.0
P128 P 0.88022 0.88187 0.87114 0.0
H129 H 0.85763 0.90567 0.93 0.0
H130 H 0.80412 0.92336 0.94999 0.0
H131 H 0.76051 0.90136 0.86472 0.0
H132 H 0.81452 0.88356 0.84478 0.0
H133 H 0.94268 0.84485 0.86753 0.0
H134 H 0.96169 0.79354 0.88474 0.0
H135 H 0.8633 0.77933 0.90706 0.0
H136 H 0.84469 0.83095 0.89049 0.0
H137 H 0.87157 0.94166 0.84405 0.0
H138 H 0.89765 0.85015 0.81299 0.0
O139 O 0.90613 0.90018 0.8912 0.0
H140 H 0.88212 0.96104 0.79379 0.0
H141 H 0.90732 0.86923 0.762 0.0
C142 C 0.84014 0.89386 0.88568 0.0
C143 C 0.83662 0.90476 0.9155 0.0
C144 C 0.80596 0.91497 0.9269 0.0
C145 C 0.778 0.91414 0.90887 0.0
C146 C 0.78152 0.90228 0.87923 0.0
C147 C 0.81236 0.89225 0.86774 0.0
C148 C 0.8923 0.84188 0.87775 0.0
C149 C 0.92513 0.83048 0.87563 0.0
C150 C 0.93596 0.80102 0.88548 0.0
C151 C 0.91415 0.78218 0.89768 0.0
C152 C 0.88096 0.79329 0.89842 0.0
C153 C 0.87018 0.82282 0.88861 0.0
C154 C 0.88379 0.89449 0.83234 0.0
C155 C 0.87901 0.92566 0.82616 0.0
C156 C 0.88493 0.93672 0.79722 0.0
C157 C 0.89568 0.91682 0.77352 0.0
C158 C 0.89959 0.88537 0.77966 0.0
C159 C 0.89378 0.87433 0.80881 0.0
P160 P 0.65635 0.19571 0.32516 0.0
H161 H 0.66581 0.2186 0.38703 0.0
H162 H 0.63747 0.26035 0.41582 0.0
H163 H 0.56549 0.27458 0.34464 0.0
H164 H 0.59348 0.23216 0.31616 0.0
H165 H 0.72609 0.18254 0.31555 0.0
H166 H 0.76975 0.15524 0.34515 0.0
H167 H 0.70013 0.12998 0.41021 0.0
H168 H 0.65612 0.15746 0.38011 0.0
H169 H 0.6215 0.20974 0.26851 0.0
H170 H 0.64182 0.13162 0.3266 0.0
O171 O 0.67497 0.2183 0.30245 0.0
H172 H 0.59591 0.17919 0.23159 0.0
H173 H 0.61569 0.10073 0.28972 0.0
C174 C 0.63133 0.22137 0.34969 0.0
C175 C 0.64324 0.22975 0.37803 0.0
C176 C 0.62711 0.25389 0.39449 0.0
C177 C 0.59923 0.27081 0.38253 0.0
C178 C 0.58696 0.26203 0.35444 0.0
C179 C 0.60282 0.23754 0.33825 0.0
C180 C 0.68784 0.17259 0.34593 0.0
C181 C 0.72004 0.17112 0.33612 0.0
C182 C 0.7451 0.15555 0.35316 0.0
C183 C 0.73853 0.14084 0.38033 0.0
C184 C 0.70602 0.14108 0.38939 0.0
C185 C 0.68087 0.15684 0.37229 0.0
C186 C 0.63372 0.17308 0.30037 0.0
C187 C 0.61999 0.18606 0.2736 0.0
C188 C 0.60519 0.16849 0.25246 0.0
C189 C 0.60365 0.13735 0.25753 0.0
C190 C 0.61674 0.12451 0.28484 0.0
C191 C 0.63152 0.14225 0.30611 0.0
P192 P 0.42824 0.57092 0.05161 0.0
H193 H 0.38778 0.55043 1.00313 0.0
H194 H 0.32976 0.54535 0.99968 0.0
H195 H 0.31789 0.575 0.09284 0.0
H196 H 0.37555 0.5806 0.09587 0.0
H197 H 0.48521 0.59638 0.02924 0.0
H198 H 0.49669 0.64905 0.02366 0.0
H199 H 0.39607 0.67989 0.04094 0.0
H200 H 0.38468 0.62749 0.04632 0.0
H201 H 0.44794 0.51944 0.09169 0.0
H202 H 0.43695 0.61716 0.09773 0.0
O203 O 0.44996 0.54455 0.03092 0.0
H204 H 0.46247 0.5162 0.14579 0.0
H205 H 0.45096 0.61407 0.15112 0.0
C206 C 0.38607 0.56522 0.04991 0.0
C207 C 0.37269 0.55551 0.02287 0.0
C208 C 0.33957 0.55258 0.02097 0.0
C209 C 0.31924 0.55963 0.04605 0.0
C210 C 0.33281 0.5696 0.07305 0.0
C211 C 0.3659 0.57247 0.07491 0.0
C212 C 0.43406 0.60799 0.03778 0.0
C213 C 0.46541 0.61444 0.03065 0.0
C214 C 0.47198 0.6445 0.02763 0.0
C215 C 0.44731 0.66843 0.03223 0.0
C216 C 0.41556 0.66181 0.0376 0.0
C217 C 0.40897 0.63181 0.04033 0.0
C218 C 0.44203 0.56846 0.09044 0.0
C219 C 0.44913 0.54013 0.10447 0.0
C220 C 0.4572 0.53833 0.13537 0.0
C221 C 0.45813 0.56491 0.15264 0.0
C222 C 0.45121 0.5932 0.13834 0.0
C223 C 0.44308 0.59495 0.10763 0.0
P224 P 0.1567 0.38883 0.58903 0.0
H225 H 0.14941 0.34341 0.54253 0.0
H226 H 0.10201 0.31949 0.52715 0.0
H227 H 0.04011 0.38936 0.57365 0.0
H228 H 0.08776 0.41341 0.58875 0.0
H229 H 0.19683 0.43029 0.61699 0.0
H230 H 0.23225 0.46467 0.59632 0.0
H231 H 0.1982 0.44716 0.50575 0.0
H232 H 0.16239 0.41219 0.52699 0.0
H233 H 0.15638 0.3517 0.64378 0.0
H234 H 0.12731 0.44458 0.61782 0.0
O235 O 0.18432 0.35843 0.59008 0.0
H236 H 0.1377 0.36305 0.69556 0.0
H237 H 0.10872 0.45613 0.66954 0.0
C238 C 0.12216 0.37943 0.56779 0.0
C239 C 0.12559 0.35425 0.54847 0.0
C240 C 0.09836 0.3407 0.53949 0.0
C241 C 0.06739 0.35219 0.54984 0.0
C242 C 0.06376 0.37975 0.56583 0.0
C243 C 0.09104 0.39344 0.57456 0.0
C244 C 0.17635 0.41929 0.57361 0.0
C245 C 0.19593 0.43466 0.5928 0.0
C246 C 0.21624 0.45446 0.58088 0.0
C247 C 0.21789 0.45891 0.54936 0.0
C248 C 0.19741 0.44421 0.53014 0.0
C249 C 0.17682 0.42441 0.54222 0.0
C250 C 0.14382 0.39747 0.62724 0.0
C251 C 0.14626 0.37459 0.64931 0.0
C252 C 0.13559 0.38109 0.67884 0.0
C253 C 0.12188 0.41048 0.68655 0.0
C254 C 0.11898 0.43322 0.66418 0.0
C255 C 0.12984 0.42673 0.63473 0.0
C256 C 0.0236 0.04931 0.47216 0.0
N257 N 0.99614 0.09298 0.55396 0.0
C258 C 0.02414 0.10614 0.55281 0.0
C259 C 0.02393 0.13697 0.55894 0.0
C260 C 0.99452 0.1544 0.56563 0.0
C261 C 0.96625 0.14013 0.568 0.0
C262 C 0.9677 0.10905 0.56243 0.0
Zn263 Zn 0.99567 0.05061 0.53638 0.0
C264 C 0.93451 0.04796 0.49908 0.0
N265 N 0.99316 0.96457 0.49528 0.0
C266 C 0.02063 0.94754 0.48585 0.0
C267 C 0.96504 0.95212 0.49921 0.0
C268 C 0.96423 0.92114 0.49549 0.0
C269 C 0.99267 0.9026 0.48774 0.0
C270 C 0.02095 0.91622 0.48201 0.0
Zn271 Zn 0.99432 1.00704 0.51222 0.0
O272 O 0.01857 0.06508 0.49618 0.0
C273 C 0.05575 1.00965 0.54882 0.0
O274 O 0.01558 0.02245 0.47168 0.0
H275 H 0.94368 0.96586 0.50735 0.0
H276 H 0.04635 0.09311 0.54555 0.0
H277 H 0.04278 0.95791 0.48302 0.0
O278 O 0.0421 0.03572 0.55619 0.0
O279 O 0.04122 0.99349 0.5306 0.0
H280 H 0.94574 0.09812 0.56334 0.0
O281 O 0.97326 0.99202 0.55334 0.0
O282 O 0.97292 0.03584 0.57623 0.0
O283 O 0.9474 0.02119 0.49357 0.0
O284 O 0.9495 0.06479 0.51619 0.0
C285 C 0.96683 1.0084 0.57671 0.0
H286 H 0.04612 0.14746 0.55664 0.0
H287 H 0.9432 0.15304 0.57317 0.0
H288 H 0.94201 0.9116 0.50065 0.0
H289 H 0.04329 0.90272 0.47573 0.0
C290 C 0.559 0.99364 0.99637 0.0
N291 N 0.50464 0.0796 0.99397 0.0
C292 C 0.53249 0.09068 1.00265 0.0
C293 C 0.53465 0.12169 1.00179 0.0
C294 C 0.50806 0.14143 0.99158 0.0
C295 C 0.4805 0.12935 0.98052 0.0
C296 C 0.47918 0.09804 0.98215 0.0
Zn297 Zn 0.49947 0.03662 1.00735 0.0
C298 C 0.47184 0.99908 0.96217 0.0
N299 N 0.48976 0.94917 0.04235 0.0
C300 C 0.51482 0.93031 0.05426 0.0
C301 C 0.46124 0.9388 0.03458 0.0
C302 C 0.4578 0.90806 0.03671 0.0
C303 C 0.48388 0.8878 0.0471 0.0
C304 C 0.51229 0.89926 0.05704 0.0
Zn305 Zn 0.49554 0.99201 0.02863 0.0
O306 O 0.54683 0.0208 0.9913 0.0
C307 C 0.52323 0.0303 0.07351 0.0
O308 O 0.54281 0.97636 0.01173 0.0
H309 H 0.4417 0.95411 0.02501 0.0
H310 H 0.55237 0.07568 0.01209 0.0
H311 H 0.53735 0.93905 0.06004 0.0
O312 O 0.51871 0.04726 0.0503 0.0
O313 O 0.51604 1.0032 0.07188 0.0
H314 H 0.45719 0.08872 0.97566 0.0
O315 O 0.44832 1.00831 0.04543 0.0
O316 O 0.45232 0.05202 0.02358 0.0
O317 O 0.47536 0.98148 0.98507 0.0
O318 O 0.47998 0.02576 0.96458 0.0
C319 C 0.43623 0.03535 0.03968 0.0
H320 H 0.55652 0.13029 0.00997 0.0
H321 H 0.45964 0.14405 0.97233 0.0
H322 H 0.43538 0.90003 0.02921 0.0
H323 H 0.5329 0.88419 0.06514 0.0
C324 C 0.51741 0.46921 0.48601 0.0
N325 N 0.51663 0.5038 0.57479 0.0
C326 C 0.50592 0.47831 0.58636 0.0
C327 C 0.51585 0.46805 0.61534 0.0
C328 C 0.53729 0.48402 0.63198 0.0
C329 C 0.54722 0.51057 0.61983 0.0
C330 C 0.53634 0.52024 0.59118 0.0
Zn331 Zn 0.50615 0.51805 0.53164 0.0
C332 C 0.56552 0.53761 0.5028 0.0
N333 N 0.4874 0.55101 0.44196 0.0
C334 C 0.46874 0.53393 0.42515 0.0
C335 C 0.50124 0.57437 0.42935 0.0
C336 C 0.49725 0.58067 0.39834 0.0
C337 C 0.47864 0.56287 0.38042 0.0
C338 C 0.46391 0.53957 0.39432 0.0
Zn339 Zn 0.49693 0.53728 0.48554 0.0
O340 O 0.5184 0.473 0.51462 0.0
C341 C 0.4377 0.51765 0.51461 0.0
O342 O 0.50911 0.49201 0.46908 0.0
H343 H 0.5161 0.58756 0.44314 0.0
H344 H 0.49028 0.46562 0.57288 0.0
H345 H 0.45843 0.5151 0.43541 0.0
O346 O 0.4572 0.51032 0.53644 0.0
O347 O 0.4481 0.52915 0.4907 0.0
H348 H 0.54431 0.54061 0.58173 0.0
O349 O 0.48459 0.58242 0.50269 0.0
O350 O 0.49397 0.56312 0.54816 0.0
O351 O 0.54617 0.54527 0.48097 0.0
O352 O 0.55482 0.52587 0.5264 0.0
C353 C 0.48552 0.58602 0.53138 0.0
H354 H 0.50784 0.44739 0.62419 0.0
H355 H 0.56352 0.52354 0.63229 0.0
H356 H 0.50888 0.59894 0.38842 0.0
H357 H 0.44988 0.52495 0.38124 0.0
C358 C 0.99963 0.58 0.99416 0.0
N359 N 0.99961 0.54829 0.08428 0.0
C360 C 0.01078 0.57348 0.09618 0.0
C361 C 1.00143 0.58335 0.12531 0.0
C362 C 0.98002 0.56737 0.14172 0.0
C363 C 0.96902 0.54152 0.12898 0.0
C364 C 0.97943 0.53214 0.10023 0.0
Zn365 Zn 0.01219 0.53273 0.04214 0.0
C366 C 0.95549 0.50935 0.01116 0.0
N367 N 0.03611 0.4968 0.95488 0.0
C368 C 0.05401 0.51315 0.9367 0.0
C369 C 0.02658 0.46994 0.94557 0.0
C370 C 0.03516 0.4585 0.91686 0.0
C371 C 0.0539 0.47479 0.89778 0.0
C372 C 0.06331 0.50246 0.90796 0.0
Zn373 Zn 0.02394 0.51314 0.99683 0.0
O374 O 0.99908 0.57674 0.02287 0.0
C375 C 0.08086 0.53641 0.02726 0.0
O376 O 0.00909 0.5571 0.97776 0.0
H377 H 0.01242 0.45731 0.96048 0.0
H378 H 0.02685 0.5859 0.08308 0.0
H379 H 0.06116 0.53453 0.94451 0.0
O380 O 0.06081 0.54265 0.04869 0.0
O381 O 0.07138 0.52442 1.00312 0.0
H382 H 0.97131 0.51187 0.09066 0.0
O383 O 0.03856 0.46931 0.01653 0.0
O384 O 0.02509 0.48862 0.06104 0.0
O385 O 0.97638 0.50198 0.99077 0.0
O386 O 0.96394 0.52268 0.0349 0.0
C387 C 0.03586 0.46589 0.04505 0.0
H388 H 0.01031 0.60343 0.1347 0.0
H389 H 0.95278 0.52852 0.14131 0.0
H390 H 0.02766 0.43694 0.90986 0.0
H391 H 0.07741 0.51588 0.89372 0.0
H392 H 0.14288 0.14218 0.34918 0.0
H393 H 0.06672 0.11643 0.29082 0.0
H394 H 0.1193 0.11828 0.39216 0.0
H395 H 0.04261 0.09285 0.33426 0.0
H396 H 0.03076 0.0259 0.41432 0.0
H397 H 0.05366 0.04895 0.36998 0.0
H398 H 0.07136 0.12638 0.42435 0.0
H399 H 0.04881 0.10345 0.46846 0.0
C400 C 0.12111 0.13132 0.34547 0.0
C401 C 0.10683 0.13114 0.31641 0.0
C402 C 0.10739 0.11784 0.37025 0.0
C403 C 0.07899 0.10362 0.36677 0.0
C404 C 0.06464 0.10336 0.33772 0.0
C405 C 0.07827 0.11714 0.31288 0.0
C406 C 0.03964 0.0478 0.41681 0.0
C407 C 0.03802 0.06271 0.44507 0.0
C408 C 0.05254 0.06112 0.39133 0.0
C409 C 0.06445 0.08953 0.39354 0.0
C410 C 0.06282 0.10433 0.42183 0.0
C411 C 0.04973 0.09119 0.44716 0.0
H412 H 0.45351 0.95566 0.77114 0.0
H413 H 0.38042 0.90764 0.8128 0.0
H414 H 0.4676 0.97504 0.82054 0.0
H415 H 0.39459 0.9271 0.86245 0.0
H416 H 0.45334 0.94303 0.94953 0.0
H417 H 0.43716 0.92353 0.90067 0.0
H418 H 0.44667 0.01028 0.85924 0.0
H419 H 0.46348 0.02962 0.90799 0.0
C420 C 0.44021 0.94941 0.79081 0.0
C421 C 0.41562 0.93019 0.78781 0.0
C422 C 0.44829 0.96061 0.81922 0.0
C423 C 0.43208 0.95292 0.84559 0.0
C424 C 0.40782 0.93332 0.84273 0.0
C425 C 0.3997 0.9221 0.81422 0.0
C426 C 0.45183 0.95804 0.93004 0.0
C427 C 0.45987 0.98792 0.93275 0.0
C428 C 0.44237 0.94686 0.902 0.0
C429 C 0.44074 0.96522 0.87585 0.0
C430 C 0.44817 0.99529 0.87872 0.0
C431 C 0.45759 1.00648 0.90678 0.0
H432 H 0.64654 0.39276 0.78016 0.0
H433 H 0.59036 0.47012 0.82124 0.0
H434 H 0.62218 0.4069 0.73105 0.0
H435 H 0.56495 0.48321 0.77211 0.0
H436 H 0.5042 0.47213 0.68313 0.0
H437 H 0.5275 0.45654 0.73294 0.0
H438 H 0.6238 0.45479 0.69599 0.0
H439 H 0.6006 0.47078 0.64661 0.0
C440 C 0.62927 0.41292 0.77877 0.0
C441 C 0.62065 0.43043 0.80473 0.0
C442 C 0.61512 0.42078 0.75067 0.0
C443 C 0.59167 0.44598 0.74801 0.0
C444 C 0.58272 0.46342 0.7738 0.0
C445 C 0.59727 0.45586 0.80188 0.0
C446 C 0.5303 0.46815 0.68578 0.0
C447 C 0.55073 0.47262 0.66133 0.0
C448 C 0.54356 0.45948 0.71414 0.0
C449 C 0.57736 0.45459 0.7181 0.0
C450 C 0.59768 0.45832 0.69338 0.0
C451 C 0.58446 0.46751 0.66528 0.0
H452 H 0.8848 0.64639 0.30249 0.0
H453 H 0.93803 0.56179 0.33191 0.0
H454 H 0.90548 0.63753 0.25131 0.0
H455 H 0.95991 0.55395 0.28078 0.0
H456 H 0.01679 0.57274 0.19232 0.0
H457 H 0.99718 0.58374 0.24415 0.0
H458 H 0.89855 0.59461 0.21075 0.0
H459 H 0.9181 0.58308 0.15924 0.0
C460 C 0.90062 0.62576 0.29808 0.0
C461 C 0.90946 0.60464 0.32138 0.0
C462 C 0.91269 0.62093 0.26882 0.0
C463 C 0.93432 0.5952 0.26234 0.0
C464 C 0.94353 0.57417 0.28547 0.0
C465 C 0.93102 0.57872 0.31469 0.0
C466 C 0.991 0.57788 0.19618 0.0
C467 C 0.96884 0.57722 0.17211 0.0
C468 C 0.97983 0.58389 0.22567 0.0
C469 C 0.94643 0.58988 0.23122 0.0
C470 C 0.92441 0.59017 0.20691 0.0
C471 C 0.93552 0.5836 0.1776 0.0
H472 H 0.2546 0.14379 0.08946 0.0
H473 H 0.28414 0.09027 0.16879 0.0
H474 H 0.29931 0.11718 0.06093 0.0
H475 H 0.32906 0.06389 0.14046 0.0
H476 H 0.39534 1.0067 0.07582 0.0
H477 H 0.34558 0.02897 0.1003 0.0
H478 H 0.35695 0.11544 0.05902 0.0
H479 H 0.40598 0.09308 0.03405 0.0
C480 C 0.27062 0.12631 0.10081 0.0
C481 C 0.2658 0.11929 0.13148 0.0
C482 C 0.29634 0.11107 0.08447 0.0
C483 C 0.31808 0.08848 0.09838 0.0
C484 C 0.31264 0.08083 0.12881 0.0
C485 C 0.28683 0.096 0.14511 0.0
C486 C 0.38701 0.03039 0.07173 0.0
C487 C 0.40475 0.04807 0.05298 0.0
C488 C 0.35857 0.04323 0.08595 0.0
C489 C 0.34717 0.07409 0.08178 0.0
C490 C 0.3646 0.09153 0.06247 0.0
C491 C 0.39293 0.0787 0.04824 0.0
H492 H 0.25701 0.93479 0.57207 0.0
H493 H 0.21973 0.93997 0.66362 0.0
H494 H 0.20436 0.95637 0.55284 0.0
H495 H 0.16726 0.96265 0.64418 0.0
H496 H 0.08909 0.03163 0.59657 0.0
H497 H 0.14204 0.01088 0.61708 0.0
H498 H 0.14825 0.94008 0.54948 0.0
H499 H 0.09556 0.96052 0.52914 0.0
C500 C 0.23761 0.94022 0.58816 0.0
C501 C 0.2428 0.93523 0.61949 0.0
C502 C 0.20741 0.95282 0.57707 0.0
C503 C 0.18162 0.96117 0.59697 0.0
C504 C 0.18677 0.95672 0.6283 0.0
C505 C 0.21692 0.94375 0.63942 0.0
C506 C 0.10181 0.01168 0.58607 0.0
C507 C 0.08808 0.99777 0.56119 0.0
C508 C 0.13202 0.9997 0.59793 0.0
C509 C 0.14934 0.97388 0.58486 0.0
C510 C 0.13567 0.96016 0.55987 0.0
C511 C 0.10537 0.97184 0.54831 0.0
H512 H 0.76616 0.47925 0.94172 0.0
H513 H 0.77315 0.43533 0.02948 0.0
H514 H 0.81637 0.50093 0.95192 0.0
H515 H 0.82408 0.45643 0.03929 0.0
H516 H 0.90668 0.51594 0.05294 0.0
H517 H 0.85104 0.50384 0.04651 0.0
H518 H 0.87264 0.47518 0.95442 0.0
H519 H 0.92798 0.48736 0.96066 0.0
C520 C 0.77795 0.47484 0.96353 0.0
C521 C 0.76578 0.4554 0.98474 0.0
C522 C 0.80695 0.48696 0.96918 0.0
C523 C 0.82437 0.47995 0.99616 0.0
C524 C 0.81114 0.46222 0.01829 0.0
C525 C 0.78212 0.44999 0.0126 0.0
C526 C 0.89947 0.50719 0.03127 0.0
C527 C 0.92172 0.50255 1.0073 0.0
C528 C 0.86767 0.50022 0.02766 0.0
C529 C 0.85749 0.48878 0.99993 0.0
C530 C 0.87966 0.48446 0.9759 0.0
C531 C 0.91144 0.49119 0.97956 0.0
H532 H 0.75591 0.58998 0.54048 0.0
H533 H 0.76275 0.55727 0.44806 0.0
H534 H 0.70135 0.5748 0.54387 0.0
H535 H 0.70885 0.54115 0.45184 0.0
H536 H 0.59744 0.56115 0.45573 0.0
H537 H 0.65452 0.56929 0.45381 0.0
H538 H 0.66909 0.53183 0.54406 0.0
H539 H 0.61201 0.52415 0.54625 0.0
C540 C 0.74602 0.579 0.52113 0.0
C541 C 0.76359 0.57499 0.49398 0.0
C542 C 0.71487 0.57015 0.52311 0.0
C543 C 0.70068 0.55714 0.49795 0.0
C544 C 0.71895 0.55158 0.47142 0.0
C545 C 0.75007 0.5604 0.46944 0.0
C546 C 0.61284 0.55459 0.47511 0.0
C547 C 0.60018 0.54211 0.50114 0.0
C548 C 0.64559 0.55902 0.47394 0.0
C549 C 0.66631 0.55109 0.49877 0.0
C550 C 0.65367 0.5384 0.52469 0.0
C551 C 0.62098 0.53392 0.52586 0.0
H552 H 0.1527 0.31179 0.12417 0.0
H553 H 0.05639 0.29797 0.15315 0.0
H554 H 0.13043 0.35577 0.09422 0.0
H555 H 0.034 0.34236 0.12334 0.0
H556 H 0.01968 0.44738 0.10161 0.0
H557 H 0.03818 0.39966 0.12727 0.0
H558 H 0.09359 0.36936 0.04821 0.0
H559 H 0.07473 0.41702 0.02225 0.0
C560 C 0.12671 0.31811 0.12399 0.0
C561 C 0.10629 0.3015 0.1411 0.0
C562 C 0.11394 0.34318 0.10668 0.0
C563 C 0.08045 0.35261 0.10643 0.0
C564 C 0.05993 0.33575 0.12321 0.0
C565 C 0.07268 0.31026 0.14011 0.0
C566 C 0.03561 0.43046 0.08956 0.0
C567 C 0.04581 0.4361 0.05988 0.0
C568 C 0.04604 0.40303 0.10423 0.0
C569 C 0.06738 0.38072 0.08981 0.0
C570 C 0.07729 0.38617 0.05999 0.0
C571 C 0.06639 0.41342 0.04508 0.0
H572 H 0.60576 0.29233 0.01403 0.0
H573 H 0.52787 0.33061 0.95549 0.0
H574 H 0.57614 0.24965 0.02492 0.0
H575 H 0.49764 0.28786 0.96678 0.0
H576 H 0.49689 0.18369 0.94672 0.0
H577 H 0.50805 0.23648 0.94877 0.0
H578 H 0.5317 0.22622 0.04427 0.0
H579 H 0.52161 0.17317 0.0417 0.0
C580 C 0.58164 0.29228 1.00454 0.0
C581 C 0.56934 0.31449 0.98354 0.0
C582 C 0.56455 0.26773 0.01076 0.0
C583 C 0.53474 0.26502 0.99621 0.0
C584 C 0.52089 0.28895 0.97775 0.0
C585 C 0.53808 0.31347 0.97143 0.0
C586 C 0.5038 0.19303 0.96821 0.0
C587 C 0.5091 0.17444 0.99386 0.0
C588 C 0.50997 0.22331 0.96953 0.0
C589 C 0.52118 0.23549 0.99666 0.0
C590 C 0.52377 0.21737 0.02291 0.0
C591 C 0.51801 0.18707 0.02146 0.0
H592 H 0.92068 0.73792 0.52912 0.0
H593 H 0.00899 0.70481 0.48246 0.0
H594 H 0.93801 0.78834 0.53092 0.0
H595 H 0.02602 0.75589 0.48396 0.0
H596 H 0.0394 0.8604 0.51176 0.0
H597 H 0.03504 0.80636 0.52052 0.0
H598 H 0.94159 0.81601 0.476 0.0
H599 H 0.94622 0.86933 0.46628 0.0
C600 C 0.9445 0.74097 0.52055 0.0
C601 C 0.96318 0.71749 0.50508 0.0
C602 C 0.95421 0.76998 0.52129 0.0
C603 C 0.98285 0.77591 0.50686 0.0
C604 C 0.00369 0.75176 0.49501 0.0
C605 C 0.99391 0.72263 0.49416 0.0
C606 C 0.01833 0.85077 0.50317 0.0
C607 C 0.99293 0.86919 0.48863 0.0
C608 C 0.01576 0.82001 0.50848 0.0
C609 C 0.98763 0.80751 0.49965 0.0
C610 C 0.96315 0.82548 0.48372 0.0
C611 C 0.96585 0.85592 0.4781 0.0
H612 H 0.38156 0.75854 0.58882 0.0
H613 H 0.46932 0.75023 0.64273 0.0
H614 H 0.39921 0.7101 0.56438 0.0
H615 H 0.48729 0.70215 0.61783 0.0
H616 H 0.49121 0.60161 0.59102 0.0
H617 H 0.47374 0.64999 0.61522 0.0
H618 H 0.44067 0.6874 0.52851 0.0
H619 H 0.45797 0.63869 0.50419 0.0
C620 C 0.40452 0.74629 0.59564 0.0
C621 C 0.42395 0.75832 0.61785 0.0
C622 C 0.41484 0.71868 0.58132 0.0
C623 C 0.44476 0.7022 0.589 0.0
C624 C 0.46401 0.71407 0.61147 0.0
C625 C 0.45381 0.74178 0.62561 0.0
C626 C 0.48032 0.62013 0.57701 0.0
C627 C 0.47602 0.61617 0.54559 0.0
C628 C 0.47043 0.64799 0.59092 0.0
C629 C 0.45574 0.67267 0.57388 0.0
C630 C 0.45156 0.66879 0.54241 0.0
C631 C 0.4617 0.64092 0.52841 0.0
H632 H 0.86539 0.96654 0.74299 0.0
H633 H 0.94491 0.89525 0.73481 0.0
H634 H 0.88122 0.98854 0.69538 0.0
H635 H 0.9601 0.91693 0.68682 0.0
H636 H 0.95944 0.94881 0.58755 0.0
H637 H 0.94084 0.92624 0.63387 0.0
H638 H 0.92661 0.01477 0.67552 0.0
H639 H 0.9452 0.03745 0.62912 0.0
C640 C 0.88629 0.95552 0.73118 0.0
C641 C 0.90391 0.92908 0.74311 0.0
C642 C 0.89532 0.96818 0.70377 0.0
C643 C 0.92202 0.95462 0.68727 0.0
C644 C 0.93919 0.92781 0.69873 0.0
C645 C 0.93034 0.91529 0.72629 0.0
C646 C 0.95219 0.96355 0.6065 0.0
C647 C 0.95388 0.99501 0.60453 0.0
C648 C 0.94171 0.95054 0.63316 0.0
C649 C 0.9323 0.96863 0.65852 0.0
C650 C 0.93339 1.00017 0.65636 0.0
C651 C 0.94419 0.01317 0.62977 0.0
H652 H 0.5499 0.15286 0.22197 0.0
H653 H 0.62501 0.0791 0.23907 0.0
H654 H 0.53023 0.12497 0.17943 0.0
H655 H 0.60484 0.05091 0.19651 0.0
H656 H 0.53883 1.00205 0.12873 0.0
H657 H 0.55694 0.02564 0.17547 0.0
H658 H 0.55312 0.1116 0.12893 0.0
H659 H 0.53531 0.08851 0.08291 0.0
C660 C 0.56223 0.13066 0.21674 0.0
C661 C 0.58942 0.11853 0.23379 0.0
C662 C 0.55087 0.11461 0.19233 0.0
C663 C 0.56622 0.08585 0.18426 0.0
C664 C 0.59238 0.07295 0.20218 0.0
C665 C 0.6039 0.08913 0.22663 0.0
C666 C 0.54197 0.02595 0.12855 0.0
C667 C 0.53544 0.04332 0.10201 0.0
C668 C 0.55241 0.03944 0.15527 0.0
C669 C 0.55609 0.07062 0.15606 0.0
C670 C 0.54995 0.0877 0.12938 0.0
C671 C 0.5399 0.0743 0.10283 0.0
H672 H 0.43401 0.52768 0.19401 0.0
H673 H 0.49571 0.5994 0.18625 0.0
H674 H 0.44009 0.52852 0.24906 0.0
H675 H 0.50083 0.60101 0.24144 0.0
H676 H 0.52698 0.57127 0.34052 0.0
H677 H 0.5238 0.57146 0.28511 0.0
H678 H 0.42121 0.56336 0.28987 0.0
H679 H 0.42445 0.56305 0.34513 0.0
C680 C 0.44917 0.54338 0.20404 0.0
C681 C 0.4643 0.56353 0.18582 0.0
C682 C 0.45227 0.54418 0.23559 0.0
C683 C 0.47058 0.56513 0.24959 0.0
C684 C 0.48661 0.58459 0.23132 0.0
C685 C 0.48348 0.58381 0.19975 0.0
C686 C 0.50367 0.57011 0.32968 0.0
C687 C 0.476 0.56695 0.3471 0.0
C688 C 0.50186 0.5701 0.29798 0.0
C689 C 0.47235 0.56696 0.28315 0.0
C690 C 0.44446 0.56505 0.30064 0.0
C691 C 0.44627 0.56504 0.33226 0.0
H692 H 0.0654 0.4429 0.70447 0.0
H693 H 0.1539 0.39415 0.7393 0.0
H694 H 0.04866 0.45669 0.75618 0.0
H695 H 0.13687 0.40742 0.79105 0.0
H696 H 0.11356 0.47268 0.87191 0.0
H697 H 0.12935 0.45536 0.821 0.0
H698 H 0.03233 0.43268 0.80431 0.0
H699 H 0.01633 0.45059 0.85514 0.0
C700 C 0.08119 0.43507 0.72321 0.0
C701 C 0.11099 0.41758 0.71792 0.0
C702 C 0.07148 0.4427 0.75278 0.0
C703 C 0.0915 0.43314 0.77757 0.0
C704 C 0.1211 0.41529 0.77231 0.0
C705 C 0.1307 0.40749 0.74276 0.0
C706 C 0.09561 0.46406 0.85732 0.0
C707 C 0.0637 0.46308 0.86737 0.0
C708 C 0.10472 0.45387 0.82833 0.0
C709 C 0.08205 0.44268 0.80876 0.0
C710 C 0.05021 0.44142 0.81889 0.0
C711 C 0.04115 0.45141 0.84801 0.0
H712 H 0.76173 0.96613 0.94136 0.0
H713 H 0.72068 0.88898 0.90391 0.0
H714 H 0.70916 0.98501 0.9626 0.0
H715 H 0.66779 0.9082 0.92476 0.0
H716 H 0.5886 0.93516 0.9965 0.0
H717 H 0.64104 0.91604 0.97489 0.0
H718 H 0.65469 1.00662 0.94582 0.0
H719 H 0.6024 0.0258 0.96753 0.0
C720 C 0.74148 0.95316 0.93769 0.0
C721 C 0.7455 0.92596 0.92101 0.0
C722 C 0.71124 0.96415 0.94964 0.0
C723 C 0.6842 0.94814 0.94543 0.0
C724 C 0.68816 0.92096 0.92868 0.0
C725 C 0.7184 0.91009 0.91647 0.0
C726 C 0.60281 0.95103 0.98557 0.0
C727 C 0.59125 0.98205 0.98383 0.0
C728 C 0.63279 0.94002 0.97298 0.0
C729 C 0.6521 0.95977 0.95856 0.0
C730 C 0.64061 0.99081 0.95701 0.0
C731 C 0.61054 1.00179 0.96937 0.0
H732 H 0.74376 0.08564 0.40957 0.0
H733 H 0.79495 0.16371 0.39459 0.0
H734 H 0.78933 0.06231 0.44036 0.0
H735 H 0.84044 0.14031 0.42462 0.0
H736 H 0.90276 0.10511 0.5041 0.0
H737 H 0.85402 0.12664 0.47736 0.0
H738 H 0.84699 0.04047 0.43375 0.0
H739 H 0.89578 0.01869 0.46081 0.0
C740 C 0.76465 0.09784 0.41293 0.0
C741 C 0.76576 0.12647 0.3995 0.0
C742 C 0.79085 0.08439 0.43035 0.0
C743 C 0.81853 0.09946 0.43501 0.0
C744 C 0.81939 0.1282 0.42181 0.0
C745 C 0.79342 0.14148 0.40428 0.0
C746 C 0.89074 0.09061 0.48902 0.0
C747 C 0.90337 0.06018 0.48449 0.0
C748 C 0.86285 0.10304 0.47354 0.0
C749 C 0.84673 0.08538 0.45319 0.0
C750 C 0.85869 0.05466 0.4494 0.0
C751 C 0.88675 0.04221 0.46481 0.0
H752 H 0.26888 0.59873 0.06789 0.0
H753 H 0.28994 0.51404 0.01972 0.0
H754 H 0.21094 0.59419 0.06395 0.0
H755 H 0.23214 0.50951 0.0158 0.0
H756 H 0.12782 0.52783 0.98426 0.0
H757 H 0.18489 0.53433 0.98932 0.0
H758 H 0.16932 0.56332 0.08225 0.0
H759 H 0.1117 0.55732 0.07704 0.0
C760 C 0.26115 0.57901 0.05671 0.0
C761 C 0.284 0.55678 0.04401 0.0
C762 C 0.22797 0.57642 0.05447 0.0
C763 C 0.21694 0.55158 0.03944 0.0
C764 C 0.23982 0.52922 0.02703 0.0
C765 C 0.27295 0.53181 0.02926 0.0
C766 C 0.13645 0.5357 1.00579 0.0
C767 C 0.11521 0.54192 0.03032 0.0
C768 C 0.16925 0.53924 0.00873 0.0
C769 C 0.18172 0.54903 0.03627 0.0
C770 C 0.1604 0.5559 0.06066 0.0
C771 C 0.12744 0.55237 0.05772 0.0
H772 H 0.25718 0.44288 0.50108 0.0
H773 H 0.2387 0.51144 0.57048 0.0
H774 H 0.30837 0.46216 0.48933 0.0
H775 H 0.29046 0.53006 0.55922 0.0
H776 H 0.40391 0.50813 0.56591 0.0
H777 H 0.34685 0.50023 0.56966 0.0
H778 H 0.33643 0.50892 0.47236 0.0
H779 H 0.39355 0.51718 0.4685 0.0
C780 C 0.26346 0.46269 0.51313 0.0
C781 C 0.24414 0.47533 0.53706 0.0
C782 C 0.29288 0.47361 0.50648 0.0
C783 C 0.3035 0.49717 0.5238 0.0
C784 C 0.28297 0.5115 0.54593 0.0
C785 C 0.25342 0.50083 0.55235 0.0
C786 C 0.38943 0.50849 0.54534 0.0
C787 C 0.40317 0.51316 0.51693 0.0
C788 C 0.35674 0.50428 0.54751 0.0
C789 C 0.3373 0.50424 0.5213 0.0
C790 C 0.35096 0.50895 0.49287 0.0
C791 C 0.38357 0.51366 0.49072 0.0
H792 H 0.89283 0.75519 0.94883 0.0
H793 H 0.96318 0.74025 0.87696 0.0
H794 H 0.9133 0.70664 0.97134 0.0
H795 H 0.98472 0.69232 0.90033 0.0
H796 H 0.99421 0.59365 0.93349 0.0
H797 H 0.97324 0.64166 0.90995 0.0
H798 H 0.95874 0.68217 0.99872 0.0
H799 H 0.97893 0.6339 0.02226 0.0
C800 C 0.91254 0.74152 0.93766 0.0
C801 C 0.9262 0.75182 0.91092 0.0
C802 C 0.92467 0.71377 0.9509 0.0
C803 C 0.95089 0.69544 0.93787 0.0
C804 C 0.96435 0.70558 0.91096 0.0
C805 C 0.95218 0.73333 0.89768 0.0
C806 C 0.98665 0.61281 0.94803 0.0
C807 C 0.98826 0.60979 0.97983 0.0
C808 C 0.97473 0.64048 0.93448 0.0
C809 C 0.96412 0.66598 0.95233 0.0
C810 C 0.96612 0.663 0.98416 0.0
C811 C 0.97797 0.63531 0.99771 0.0
H812 H 0.43002 0.70901 0.07696 0.0
H813 H 0.48269 0.69874 0.99265 0.0
H814 H 0.44247 0.76133 0.08097 0.0
H815 H 0.49523 0.7513 0.99669 0.0
H816 H 0.46613 0.85661 0.99807 0.0
H817 H 0.46036 0.8026 0.99457 0.0
H818 H 0.49194 0.79051 0.08782 0.0
H819 H 0.49779 0.84485 0.0913 0.0
C820 C 0.44417 0.71805 0.05923 0.0
C821 C 0.4551 0.70005 0.0343 0.0
C822 C 0.45161 0.74782 0.06173 0.0
C823 C 0.46985 0.76026 0.03918 0.0
C824 C 0.48101 0.74221 0.01432 0.0
C825 C 0.47392 0.71224 0.01203 0.0
C826 C 0.47189 0.84237 0.01779 0.0
C827 C 0.48206 0.85482 0.04507 0.0
C828 C 0.4689 0.81147 0.01569 0.0
C829 C 0.47567 0.79247 0.04092 0.0
C830 C 0.4864 0.80479 0.0681 0.0
C831 C 0.48986 0.83572 0.07008 0.0
H832 H 0.02999 0.33998 0.59763 0.0
H833 H 0.04741 0.31757 0.50324 0.0
H834 H 1.0009 0.2957 0.60332 0.0
H835 H 0.01825 0.27306 0.5091 0.0
H836 H 0.02793 0.18759 0.60382 0.0
H837 H 0.03316 0.24177 0.6001 0.0
H838 H 0.96504 0.24983 0.52526 0.0
H839 H 0.95932 0.19551 0.5295 0.0
C840 C 0.02635 0.32642 0.57772 0.0
C841 C 0.04131 0.33202 0.55003 0.0
C842 C 0.0099 0.30093 0.58111 0.0
C843 C 0.00781 0.28085 0.55679 0.0
C844 C 0.01949 0.28829 0.52819 0.0
C845 C 0.03628 0.31364 0.52486 0.0
C846 C 0.01341 0.20119 0.58722 0.0
C847 C 0.99322 0.18766 0.567 0.0
C848 C 0.01622 0.23213 0.58515 0.0
C849 C 0.99938 0.24989 0.56243 0.0
C850 C 0.97812 0.23658 0.54301 0.0
C851 C 0.97479 0.20568 0.54551 0.0
H852 H 0.58363 0.27848 0.44276 0.0
H853 H 0.58253 0.32675 0.35772 0.0
H854 H 0.56149 0.32502 0.46839 0.0
H855 H 0.562 0.37352 0.38321 0.0
H856 H 0.50171 0.44998 0.42957 0.0
H857 H 0.51851 0.40146 0.4056 0.0
H858 H 0.57275 0.37186 0.48647 0.0
H859 H 0.55421 0.41998 0.51095 0.0
C860 C 0.57873 0.29912 0.42958 0.0
C861 C 0.58459 0.29886 0.39817 0.0
C862 C 0.56623 0.32595 0.44429 0.0
C863 C 0.55977 0.3534 0.42806 0.0
C864 C 0.56577 0.35294 0.39657 0.0
C865 C 0.57772 0.32605 0.38184 0.0
C866 C 0.51704 0.433 0.44231 0.0
C867 C 0.52667 0.43892 0.47216 0.0
C868 C 0.52699 0.40514 0.42844 0.0
C869 C 0.54746 0.38249 0.44377 0.0
C870 C 0.55667 0.38834 0.4739 0.0
C871 C 0.54619 0.41608 0.48798 0.0
loop_
_geom_bond_atom_site_label_1
_geom_bond_atom_site_label_2
_geom_bond_distance
_geom_bond_site_symmetry_2
_ccdc_geom_bond_type
P0 O11 1.490 . S
P0 C14 1.812 . S
P0 C20 1.803 . S
P0 C26 1.819 . S
H1 C15 0.941 . S
H2 C16 0.939 . S
H3 C18 0.940 . S
H4 C19 0.940 . S
H5 C21 0.939 . S
H6 C22 0.942 . S
H7 C24 0.940 . S
H8 C25 0.939 . S
H9 C27 0.941 . S
H10 C31 0.939 . S
O11 P0 1.490 . S
H12 C28 0.939 . S
H13 C30 0.940 . S
C14 P0 1.812 . S
C14 C15 1.389 . S
C14 C19 1.391 . S
C15 H1 0.941 . S
C15 C14 1.389 . S
C15 C16 1.397 . S
C16 H2 0.939 . S
C16 C15 1.397 . S
C16 C17 1.378 . S
C17 C16 1.378 . S
C17 C18 1.378 . S
C18 H3 0.940 . S
C18 C17 1.378 . S
C18 C19 1.396 . S
C19 H4 0.940 . S
C19 C14 1.391 . S
C19 C18 1.396 . S
C20 P0 1.803 . S
C20 C21 1.378 . S
C20 C25 1.400 . S
C21 H5 0.939 . S
C21 C20 1.378 . S
C21 C22 1.361 . S
C22 H6 0.942 . S
C22 C21 1.361 . S
C22 C23 1.369 . S
C23 C22 1.369 . S
C23 C24 1.404 . S
C24 H7 0.940 . S
C24 C23 1.404 . S
C24 C25 1.389 . S
C25 H8 0.939 . S
C25 C20 1.400 . S
C25 C24 1.389 . S
C26 P0 1.819 . S
C26 C27 1.391 . S
C26 C31 1.391 . S
C27 H9 0.941 . S
C27 C26 1.391 . S
C27 C28 1.396 . S
C28 H12 0.939 . S
C28 C27 1.396 . S
C28 C29 1.397 . S
C29 C28 1.397 . S
C29 C30 1.385 . S
C30 H13 0.940 . S
C30 C29 1.385 . S
C30 C31 1.388 . S
C31 H10 0.939 . S
C31 C26 1.391 . S
C31 C30 1.388 . S
P32 O43 1.490 . S
P32 C46 1.812 . S
P32 C52 1.803 . S
P32 C58 1.819 . S
H33 C47 0.941 . S
H34 C48 0.939 . S
H35 C50 0.940 . S
H36 C51 0.940 . S
H37 C53 0.939 . S
H38 C54 0.942 . S
H39 C56 0.940 . S
H40 C57 0.939 . S
H41 C59 0.941 . S
H42 C63 0.939 . S
O43 P32 1.490 . S
H44 C60 0.939 . S
H45 C62 0.940 . S
C46 P32 1.812 . S
C46 C47 1.389 . S
C46 C51 1.391 . S
C47 H33 0.941 . S
C47 C46 1.389 . S
C47 C48 1.397 . S
C48 H34 0.939 . S
C48 C47 1.397 . S
C48 C49 1.378 . S
C49 C48 1.378 . S
C49 C50 1.378 . S
C50 H35 0.940 . S
C50 C49 1.378 . S
C50 C51 1.396 . S
C51 H36 0.940 . S
C51 C46 1.391 . S
C51 C50 1.396 . S
C52 P32 1.803 . S
C52 C53 1.378 . S
C52 C57 1.400 . S
C53 H37 0.939 . S
C53 C52 1.378 . S
C53 C54 1.361 . S
C54 H38 0.942 . S
C54 C53 1.361 . S
C54 C55 1.369 . S
C55 C54 1.369 . S
C55 C56 1.404 . S
C56 H39 0.940 . S
C56 C55 1.404 . S
C56 C57 1.389 . S
C57 H40 0.939 . S
C57 C52 1.400 . S
C57 C56 1.389 . S
C58 P32 1.819 . S
C58 C59 1.391 . S
C58 C63 1.391 . S
C59 H41 0.941 . S
C59 C58 1.391 . S
C59 C60 1.396 . S
C60 H44 0.939 . S
C60 C59 1.396 . S
C60 C61 1.397 . S
C61 C60 1.397 . S
C61 C62 1.385 . S
C62 H45 0.940 . S
C62 C61 1.385 . S
C62 C63 1.388 . S
C63 H42 0.939 . S
C63 C58 1.391 . S
C63 C62 1.388 . S
P64 O75 1.490 . S
P64 C78 1.812 . S
P64 C84 1.803 . S
P64 C90 1.819 . S
H65 C79 0.941 . S
H66 C80 0.939 . S
H67 C82 0.940 . S
H68 C83 0.940 . S
H69 C85 0.939 . S
H70 C86 0.942 . S
H71 C88 0.940 . S
H72 C89 0.939 . S
H73 C91 0.941 . S
H74 C95 0.939 . S
O75 P64 1.490 . S
H76 C92 0.939 . S
H77 C94 0.940 . S
C78 P64 1.812 . S
C78 C79 1.389 . S
C78 C83 1.391 . S
C79 H65 0.941 . S
C79 C78 1.389 . S
C79 C80 1.397 . S
C80 H66 0.939 . S
C80 C79 1.397 . S
C80 C81 1.378 . S
C81 C80 1.378 . S
C81 C82 1.378 . S
C82 H67 0.940 . S
C82 C81 1.378 . S
C82 C83 1.396 . S
C83 H68 0.940 . S
C83 C78 1.391 . S
C83 C82 1.396 . S
C84 P64 1.803 . S
C84 C85 1.378 . S
C84 C89 1.400 . S
C85 H69 0.939 . S
C85 C84 1.378 . S
C85 C86 1.361 . S
C86 H70 0.942 . S
C86 C85 1.361 . S
C86 C87 1.369 . S
C87 C86 1.369 . S
C87 C88 1.404 . S
C88 H71 0.940 . S
C88 C87 1.404 . S
C88 C89 1.389 . S
C89 H72 0.939 . S
C89 C84 1.400 . S
C89 C88 1.389 . S
C90 P64 1.819 . S
C90 C91 1.391 . S
C90 C95 1.391 . S
C91 H73 0.941 . S
C91 C90 1.391 . S
C91 C92 1.396 . S
C92 H76 0.939 . S
C92 C91 1.396 . S
C92 C93 1.397 . S
C93 C92 1.397 . S
C93 C94 1.385 . S
C94 H77 0.940 . S
C94 C93 1.385 . S
C94 C95 1.388 . S
C95 H74 0.939 . S
C95 C90 1.391 . S
C95 C94 1.388 . S
P96 O107 1.490 . S
P96 C110 1.812 . S
P96 C116 1.803 . S
P96 C122 1.819 . S
H97 C111 0.941 . S
H98 C112 0.939 . S
H99 C114 0.940 . S
H100 C115 0.940 . S
H101 C117 0.939 . S
H102 C118 0.942 . S
H103 C120 0.940 . S
H104 C121 0.939 . S
H105 C123 0.941 . S
H106 C127 0.939 . S
O107 P96 1.490 . S
H108 C124 0.939 . S
H109 C126 0.940 . S
C110 P96 1.812 . S
C110 C111 1.389 . S
C110 C115 1.391 . S
C111 H97 0.941 . S
C111 C110 1.389 . S
C111 C112 1.397 . S
C112 H98 0.939 . S
C112 C111 1.397 . S
C112 C113 1.378 . S
C113 C112 1.378 . S
C113 C114 1.378 . S
C114 H99 0.940 . S
C114 C113 1.378 . S
C114 C115 1.396 . S
C115 H100 0.940 . S
C115 C110 1.391 . S
C115 C114 1.396 . S
C116 P96 1.803 . S
C116 C117 1.378 . S
C116 C121 1.400 . S
C117 H101 0.939 . S
C117 C116 1.378 . S
C117 C118 1.361 . S
C118 H102 0.942 . S
C118 C117 1.361 . S
C118 C119 1.369 . S
C119 C118 1.369 . S
C119 C120 1.404 . S
C120 H103 0.940 . S
C120 C119 1.404 . S
C120 C121 1.389 . S
C121 H104 0.939 . S
C121 C116 1.400 . S
C121 C120 1.389 . S
C122 P96 1.819 . S
C122 C123 1.391 . S
C122 C127 1.391 . S
C123 H105 0.941 . S
C123 C122 1.391 . S
C123 C124 1.396 . S
C124 H108 0.939 . S
C124 C123 1.396 . S
C124 C125 1.397 . S
C125 C124 1.397 . S
C125 C126 1.385 . S
C126 H109 0.940 . S
C126 C125 1.385 . S
C126 C127 1.388 . S
C127 H106 0.939 . S
C127 C122 1.391 . S
C127 C126 1.388 . S
P128 O139 1.490 . S
P128 C142 1.812 . S
P128 C148 1.803 . S
P128 C154 1.819 . S
H129 C143 0.941 . S
H130 C144 0.939 . S
H131 C146 0.940 . S
H132 C147 0.940 . S
H133 C149 0.939 . S
H134 C150 0.942 . S
H135 C152 0.940 . S
H136 C153 0.939 . S
H137 C155 0.941 . S
H138 C159 0.939 . S
O139 P128 1.490 . S
H140 C156 0.939 . S
H141 C158 0.940 . S
C142 P128 1.812 . S
C142 C143 1.389 . S
C142 C147 1.391 . S
C143 H129 0.941 . S
C143 C142 1.389 . S
C143 C144 1.397 . S
C144 H130 0.939 . S
C144 C143 1.397 . S
C144 C145 1.378 . S
C145 C144 1.378 . S
C145 C146 1.378 . S
C146 H131 0.940 . S
C146 C145 1.378 . S
C146 C147 1.396 . S
C147 H132 0.940 . S
C147 C142 1.391 . S
C147 C146 1.396 . S
C148 P128 1.803 . S
C148 C149 1.378 . S
C148 C153 1.400 . S
C149 H133 0.939 . S
C149 C148 1.378 . S
C149 C150 1.361 . S
C150 H134 0.942 . S
C150 C149 1.361 . S
C150 C151 1.369 . S
C151 C150 1.369 . S
C151 C152 1.404 . S
C152 H135 0.940 . S
C152 C151 1.404 . S
C152 C153 1.389 . S
C153 H136 0.939 . S
C153 C148 1.400 . S
C153 C152 1.389 . S
C154 P128 1.819 . S
C154 C155 1.391 . S
C154 C159 1.391 . S
C155 H137 0.941 . S
C155 C154 1.391 . S
C155 C156 1.396 . S
C156 H140 0.939 . S
C156 C155 1.396 . S
C156 C157 1.397 . S
C157 C156 1.397 . S
C157 C158 1.385 . S
C158 H141 0.940 . S
C158 C157 1.385 . S
C158 C159 1.388 . S
C159 H138 0.939 . S
C159 C154 1.391 . S
C159 C158 1.388 . S
P160 O171 1.490 . S
P160 C174 1.812 . S
P160 C180 1.803 . S
P160 C186 1.819 . S
H161 C175 0.941 . S
H162 C176 0.939 . S
H163 C178 0.940 . S
H164 C179 0.940 . S
H165 C181 0.939 . S
H166 C182 0.942 . S
H167 C184 0.940 . S
H168 C185 0.939 . S
H169 C187 0.941 . S
H170 C191 0.939 . S
O171 P160 1.490 . S
H172 C188 0.939 . S
H173 C190 0.940 . S
C174 P160 1.812 . S
C174 C175 1.389 . S
C174 C179 1.391 . S
C175 H161 0.941 . S
C175 C174 1.389 . S
C175 C176 1.397 . S
C176 H162 0.939 . S
C176 C175 1.397 . S
C176 C177 1.378 . S
C177 C176 1.378 . S
C177 C178 1.378 . S
C178 H163 0.940 . S
C178 C177 1.378 . S
C178 C179 1.396 . S
C179 H164 0.940 . S
C179 C174 1.391 . S
C179 C178 1.396 . S
C180 P160 1.803 . S
C180 C181 1.378 . S
C180 C185 1.400 . S
C181 H165 0.939 . S
C181 C180 1.378 . S
C181 C182 1.361 . S
C182 H166 0.942 . S
C182 C181 1.361 . S
C182 C183 1.369 . S
C183 C182 1.369 . S
C183 C184 1.404 . S
C184 H167 0.940 . S
C184 C183 1.404 . S
C184 C185 1.389 . S
C185 H168 0.939 . S
C185 C180 1.400 . S
C185 C184 1.389 . S
C186 P160 1.819 . S
C186 C187 1.391 . S
C186 C191 1.391 . S
C187 H169 0.941 . S
C187 C186 1.391 . S
C187 C188 1.396 . S
C188 H172 0.939 . S
C188 C187 1.396 . S
C188 C189 1.397 . S
C189 C188 1.397 . S
C189 C190 1.385 . S
C190 H173 0.940 . S
C190 C189 1.385 . S
C190 C191 1.388 . S
C191 H170 0.939 . S
C191 C186 1.391 . S
C191 C190 1.388 . S
P192 O203 1.490 . S
P192 C206 1.812 . S
P192 C212 1.803 . S
P192 C218 1.819 . S
H193 C207 0.941 . S
H194 C208 0.939 . S
H195 C210 0.940 . S
H196 C211 0.940 . S
H197 C213 0.939 . S
H198 C214 0.942 . S
H199 C216 0.940 . S
H200 C217 0.939 . S
H201 C219 0.941 . S
H202 C223 0.939 . S
O203 P192 1.490 . S
H204 C220 0.939 . S
H205 C222 0.940 . S
C206 P192 1.812 . S
C206 C207 1.389 . S
C206 C211 1.391 . S
C207 H193 0.941 . S
C207 C206 1.389 . S
C207 C208 1.397 . S
C208 H194 0.939 . S
C208 C207 1.397 . S
C208 C209 1.378 . S
C209 C208 1.378 . S
C209 C210 1.378 . S
C210 H195 0.940 . S
C210 C209 1.378 . S
C210 C211 1.396 . S
C211 H196 0.940 . S
C211 C206 1.391 . S
C211 C210 1.396 . S
C212 P192 1.803 . S
C212 C213 1.378 . S
C212 C217 1.400 . S
C213 H197 0.939 . S
C213 C212 1.378 . S
C213 C214 1.361 . S
C214 H198 0.942 . S
C214 C213 1.361 . S
C214 C215 1.369 . S
C215 C214 1.369 . S
C215 C216 1.404 . S
C216 H199 0.940 . S
C216 C215 1.404 . S
C216 C217 1.389 . S
C217 H200 0.939 . S
C217 C212 1.400 . S
C217 C216 1.389 . S
C218 P192 1.819 . S
C218 C219 1.391 . S
C218 C223 1.391 . S
C219 H201 0.941 . S
C219 C218 1.391 . S
C219 C220 1.396 . S
C220 H204 0.939 . S
C220 C219 1.396 . S
C220 C221 1.397 . S
C221 C220 1.397 . S
C221 C222 1.385 . S
C222 H205 0.940 . S
C222 C221 1.385 . S
C222 C223 1.388 . S
C223 H202 0.939 . S
C223 C218 1.391 . S
C223 C222 1.388 . S
P224 O235 1.490 . S
P224 C238 1.812 . S
P224 C244 1.803 . S
P224 C250 1.819 . S
H225 C239 0.941 . S
H226 C240 0.939 . S
H227 C242 0.940 . S
H228 C243 0.940 . S
H229 C245 0.939 . S
H230 C246 0.942 . S
H231 C248 0.940 . S
H232 C249 0.939 . S
H233 C251 0.941 . S
H234 C255 0.939 . S
O235 P224 1.490 . S
H236 C252 0.939 . S
H237 C254 0.940 . S
C238 P224 1.812 . S
C238 C239 1.389 . S
C238 C243 1.391 . S
C239 H225 0.941 . S
C239 C238 1.389 . S
C239 C240 1.397 . S
C240 H226 0.939 . S
C240 C239 1.397 . S
C240 C241 1.378 . S
C241 C240 1.378 . S
C241 C242 1.378 . S
C242 H227 0.940 . S
C242 C241 1.378 . S
C242 C243 1.396 . S
C243 H228 0.940 . S
C243 C238 1.391 . S
C243 C242 1.396 . S
C244 P224 1.803 . S
C244 C245 1.378 . S
C244 C249 1.400 . S
C245 H229 0.939 . S
C245 C244 1.378 . S
C245 C246 1.361 . S
C246 H230 0.942 . S
C246 C245 1.361 . S
C246 C247 1.369 . S
C247 C246 1.369 . S
C247 C248 1.404 . S
C248 H231 0.940 . S
C248 C247 1.404 . S
C248 C249 1.389 . S
C249 H232 0.939 . S
C249 C244 1.400 . S
C249 C248 1.389 . S
C250 P224 1.819 . S
C250 C251 1.391 . S
C250 C255 1.391 . S
C251 H233 0.941 . S
C251 C250 1.391 . S
C251 C252 1.396 . S
C252 H236 0.939 . S
C252 C251 1.396 . S
C252 C253 1.397 . S
C253 C252 1.397 . S
C253 C254 1.385 . S
C254 H237 0.940 . S
C254 C253 1.385 . S
C254 C255 1.388 . S
C255 H234 0.939 . S
C255 C250 1.391 . S
C255 C254 1.388 . S
C256 O272 1.251 . S
C256 O274 1.254 1_545 S
N257 C258 1.333 . S
N257 C262 1.307 . S
N257 Zn263 2.020 . S
C258 N257 1.333 . S
C258 C259 1.379 . S
C258 H276 0.952 . S
C259 C258 1.379 . S
C259 C260 1.390 . S
C259 H286 0.949 . S
C260 C259 1.390 . S
C260 C261 1.357 . S
C261 C260 1.357 . S
C261 C262 1.370 . S
C261 H287 0.950 . S
C262 N257 1.307 . S
C262 C261 1.370 . S
C262 H280 0.948 1_455 S
Zn263 N257 2.020 . S
Zn263 O272 2.039 . S
Zn263 O278 2.034 . S
Zn263 O282 2.025 1_455 S
Zn263 O284 2.024 1_455 S
C264 O283 1.246 . S
C264 O284 1.249 . S
N265 C266 1.307 . S
N265 C267 1.333 . S
N265 Zn271 2.020 . S
C266 N265 1.307 . S
C266 C270 1.370 . S
C266 H277 0.948 1_655 S
C267 N265 1.333 . S
C267 C268 1.379 . S
C267 H275 0.952 . S
C268 C267 1.379 . S
C268 C269 1.390 . S
C268 H288 0.949 . S
C269 C268 1.390 . S
C269 C270 1.357 . S
C270 C266 1.370 . S
C270 C269 1.357 . S
C270 H289 0.950 1_655 S
Zn271 N265 2.020 . S
Zn271 O274 2.025 1_655 S
Zn271 O279 2.024 1_655 S
Zn271 O281 2.039 . S
Zn271 O283 2.034 1_565 S
O272 C256 1.251 . S
O272 Zn263 2.039 . S
C273 O278 1.246 1_565 S
C273 O279 1.249 . S
O274 C256 1.254 1_565 S
O274 Zn271 2.025 1_455 S
H275 C267 0.952 . S
H276 C258 0.952 . S
H277 C266 0.948 1_455 S
O278 Zn263 2.034 . S
O278 C273 1.246 1_545 S
O279 Zn271 2.024 1_455 S
O279 C273 1.249 . S
H280 C262 0.948 1_655 S
O281 Zn271 2.039 . S
O281 C285 1.251 . S
O282 Zn263 2.025 1_655 S
O282 C285 1.254 1_545 S
O283 C264 1.246 . S
O283 Zn271 2.034 1_545 S
O284 Zn263 2.024 1_655 S
O284 C264 1.249 . S
C285 O281 1.251 . S
C285 O282 1.254 1_565 S
H286 C259 0.949 . S
H287 C261 0.950 . S
H288 C268 0.949 . S
H289 C270 0.950 1_455 S
C290 O306 1.251 1_565 S
C290 O308 1.254 1_556 S
N291 C292 1.333 . S
N291 C296 1.307 . S
N291 Zn297 2.020 . S
C292 N291 1.333 . S
C292 C293 1.379 . S
C292 H310 0.952 . S
C293 C292 1.379 . S
C293 C294 1.390 . S
C293 H320 0.949 . S
C294 C293 1.390 . S
C294 C295 1.357 . S
C295 C294 1.357 . S
C295 C296 1.370 . S
C295 H321 0.950 . S
C296 N291 1.307 . S
C296 C295 1.370 . S
C296 H314 0.948 . S
Zn297 N291 2.020 . S
Zn297 O306 2.039 . S
Zn297 O312 2.034 1_556 S
Zn297 O316 2.025 1_556 S
Zn297 O318 2.024 . S
C298 O317 1.258 . S
C298 O318 1.232 1_565 S
N299 C300 1.307 . S
N299 C301 1.333 . S
N299 Zn305 2.020 . S
C300 N299 1.307 . S
C300 C304 1.370 . S
C300 H311 0.948 . S
C301 N299 1.333 . S
C301 C302 1.379 . S
C301 H309 0.952 . S
C302 C301 1.379 . S
C302 C303 1.390 . S
C302 H322 0.949 . S
C303 C302 1.390 . S
C303 C304 1.357 . S
C304 C300 1.370 . S
C304 C303 1.357 . S
C304 H323 0.950 . S
Zn305 N299 2.020 . S
Zn305 O308 2.025 . S
Zn305 O313 2.024 . S
Zn305 O315 2.039 1_565 S
Zn305 O317 2.034 1_554 S
O306 C290 1.251 1_545 S
O306 Zn297 2.039 . S
C307 O312 1.246 . S
C307 O313 1.249 1_545 S
O308 C290 1.254 1_554 S
O308 Zn305 2.025 . S
H309 C301 0.952 . S
H310 C292 0.952 . S
H311 C300 0.948 . S
O312 Zn297 2.034 1_554 S
O312 C307 1.246 . S
O313 Zn305 2.024 . S
O313 C307 1.249 1_565 S
H314 C296 0.948 . S
O315 Zn305 2.039 1_545 S
O315 C319 1.251 . S
O316 Zn297 2.025 1_554 S
O316 C319 1.254 . S
O317 C298 1.258 . S
O317 Zn305 2.034 1_556 S
O318 Zn297 2.024 . S
O318 C298 1.232 1_545 S
C319 O315 1.251 . S
C319 O316 1.254 . S
H320 C293 0.949 . S
H321 C295 0.950 . S
H322 C302 0.949 . S
H323 C304 0.950 . S
C324 O340 1.251 . S
C324 O342 1.254 . S
N325 C326 1.333 . S
N325 C330 1.307 . S
N325 Zn331 2.020 . S
C326 N325 1.333 . S
C326 C327 1.379 . S
C326 H344 0.952 . S
C327 C326 1.379 . S
C327 C328 1.390 . S
C327 H354 0.949 . S
C328 C327 1.390 . S
C328 C329 1.357 . S
C329 C328 1.357 . S
C329 C330 1.370 . S
C329 H355 0.950 . S
C330 N325 1.307 . S
C330 C329 1.370 . S
C330 H348 0.948 . S
Zn331 N325 2.020 . S
Zn331 O340 2.039 . S
Zn331 O346 2.034 . S
Zn331 O350 2.025 . S
Zn331 O352 2.024 . S
C332 O351 1.246 . S
C332 O352 1.249 . S
N333 C334 1.307 . S
N333 C335 1.333 . S
N333 Zn339 2.020 . S
C334 N333 1.307 . S
C334 C338 1.370 . S
C334 H345 0.948 . S
C335 N333 1.333 . S
C335 C336 1.379 . S
C335 H343 0.952 . S
C336 C335 1.379 . S
C336 C337 1.390 . S
C336 H356 0.949 . S
C337 C336 1.390 . S
C337 C338 1.357 . S
C338 C334 1.370 . S
C338 C337 1.357 . S
C338 H357 0.950 . S
Zn339 N333 2.020 . S
Zn339 O342 2.025 . S
Zn339 O347 2.024 . S
Zn339 O349 2.039 . S
Zn339 O351 2.034 . S
O340 C324 1.251 . S
O340 Zn331 2.039 . S
C341 O346 1.246 . S
C341 O347 1.249 . S
O342 C324 1.254 . S
O342 Zn339 2.025 . S
H343 C335 0.952 . S
H344 C326 0.952 . S
H345 C334 0.948 . S
O346 Zn331 2.034 . S
O346 C341 1.246 . S
O347 Zn339 2.024 . S
O347 C341 1.249 . S
H348 C330 0.948 . S
O349 Zn339 2.039 . S
O349 C353 1.251 . S
O350 Zn331 2.025 . S
O350 C353 1.254 . S
O351 C332 1.246 . S
O351 Zn339 2.034 . S
O352 Zn331 2.024 . S
O352 C332 1.249 . S
C353 O349 1.251 . S
C353 O350 1.254 . S
H354 C327 0.949 . S
H355 C329 0.950 . S
H356 C336 0.949 . S
H357 C338 0.950 . S
C358 O374 1.251 1_556 S
C358 O376 1.254 . S
N359 C360 1.333 . S
N359 C364 1.307 . S
N359 Zn365 2.020 . S
C360 N359 1.333 . S
C360 C361 1.379 . S
C360 H378 0.952 . S
C361 C360 1.379 . S
C361 C362 1.390 . S
C361 H388 0.949 . S
C362 C361 1.390 . S
C362 C363 1.357 . S
C363 C362 1.357 . S
C363 C364 1.370 . S
C363 H389 0.950 . S
C364 N359 1.307 . S
C364 C363 1.370 . S
C364 H382 0.948 . S
Zn365 N359 2.020 . S
Zn365 O374 2.039 . S
Zn365 O380 2.034 1_655 S
Zn365 O384 2.025 1_655 S
Zn365 O386 2.024 . S
C366 O385 1.246 . S
C366 O386 1.249 1_556 S
N367 C368 1.307 . S
N367 C369 1.333 . S
N367 Zn373 2.020 . S
C368 N367 1.307 . S
C368 C372 1.370 . S
C368 H379 0.948 . S
C369 N367 1.333 . S
C369 C370 1.379 . S
C369 H377 0.952 . S
C370 C369 1.379 . S
C370 C371 1.390 . S
C370 H390 0.949 . S
C371 C370 1.390 . S
C371 C372 1.357 . S
C372 C368 1.370 . S
C372 C371 1.357 . S
C372 H391 0.950 . S
Zn373 N367 2.020 . S
Zn373 O376 2.025 1_455 S
Zn373 O381 2.024 . S
Zn373 O383 2.039 . S
Zn373 O385 2.034 1_455 S
O374 C358 1.251 1_554 S
O374 Zn365 2.039 . S
C375 O380 1.246 . S
C375 O381 1.249 1_554 S
O376 C358 1.254 . S
O376 Zn373 2.025 1_655 S
H377 C369 0.952 . S
H378 C360 0.952 . S
H379 C368 0.948 . S
O380 Zn365 2.034 1_455 S
O380 C375 1.246 . S
O381 Zn373 2.024 . S
O381 C375 1.249 1_556 S
H382 C364 0.948 . S
O383 Zn373 2.039 . S
O383 C387 1.251 1_556 S
O384 Zn365 2.025 1_455 S
O384 C387 1.254 . S
O385 C366 1.246 . S
O385 Zn373 2.034 1_655 S
O386 Zn365 2.024 . S
O386 C366 1.249 1_554 S
C387 O383 1.251 1_554 S
C387 O384 1.254 . S
H388 C361 0.949 . S
H389 C363 0.950 . S
H390 C370 0.949 . S
H391 C372 0.950 . S
H392 C400 0.950 . S
H393 C405 0.950 . S
H394 C402 0.950 . S
H395 C404 0.950 . S
H396 C406 0.950 1_655 S
H397 C408 0.950 . S
H398 C410 0.950 . S
H399 C411 0.950 . S
C400 H392 0.950 . S
C400 C401 1.386 . S
C400 C402 1.391 . S
C401 C400 1.386 . S
C401 C405 1.393 . S
C402 H394 0.950 . S
C402 C400 1.391 . S
C402 C403 1.400 . S
C403 C402 1.400 . S
C403 C404 1.398 . S
C403 C409 1.491 . S
C404 H395 0.950 . S
C404 C403 1.398 . S
C404 C405 1.391 . S
C405 H393 0.950 . S
C405 C401 1.393 . S
C405 C404 1.391 . S
C406 H396 0.950 1_455 S
C406 C407 1.386 . S
C406 C408 1.391 . S
C407 C406 1.386 . S
C407 C411 1.393 . S
C408 H397 0.950 . S
C408 C406 1.391 . S
C408 C409 1.400 . S
C409 C403 1.491 . S
C409 C408 1.400 . S
C409 C410 1.398 . S
C410 H398 0.950 . S
C410 C409 1.398 . S
C410 C411 1.391 . S
C411 H399 0.950 . S
C411 C407 1.393 . S
C411 C410 1.391 . S
H412 C420 0.950 . S
H413 C425 0.950 . S
H414 C422 0.950 . S
H415 C424 0.950 . S
H416 C426 0.950 . S
H417 C428 0.950 . S
H418 C430 0.950 . S
H419 C431 0.950 . S
C420 H412 0.950 . S
C420 C421 1.386 . S
C420 C422 1.391 . S
C421 C420 1.386 . S
C421 C425 1.393 . S
C422 H414 0.950 . S
C422 C420 1.391 . S
C422 C423 1.400 . S
C423 C422 1.400 . S
C423 C424 1.398 . S
C423 C429 1.491 . S
C424 H415 0.950 . S
C424 C423 1.398 . S
C424 C425 1.391 . S
C425 H413 0.950 . S
C425 C421 1.393 . S
C425 C424 1.391 . S
C426 H416 0.950 . S
C426 C427 1.386 . S
C426 C428 1.391 . S
C427 C426 1.386 . S
C427 C431 1.393 . S
C428 H417 0.950 . S
C428 C426 1.391 . S
C428 C429 1.400 . S
C429 C423 1.491 . S
C429 C428 1.400 . S
C429 C430 1.398 . S
C430 H418 0.950 . S
C430 C429 1.398 . S
C430 C431 1.391 . S
C431 H419 0.950 . S
C431 C427 1.393 . S
C431 C430 1.391 . S
H432 C440 0.950 . S
H433 C445 0.950 . S
H434 C442 0.950 . S
H435 C444 0.950 . S
H436 C446 0.950 . S
H437 C448 0.950 . S
H438 C450 0.950 . S
H439 C451 0.950 . S
C440 H432 0.950 . S
C440 C441 1.386 . S
C440 C442 1.391 . S
C441 C440 1.386 . S
C441 C445 1.393 . S
C442 H434 0.950 . S
C442 C440 1.391 . S
C442 C443 1.400 . S
C443 C442 1.400 . S
C443 C444 1.398 . S
C443 C449 1.491 . S
C444 H435 0.950 . S
C444 C443 1.398 . S
C444 C445 1.391 . S
C445 H433 0.950 . S
C445 C441 1.393 . S
C445 C444 1.391 . S
C446 H436 0.950 . S
C446 C447 1.386 . S
C446 C448 1.391 . S
C447 C446 1.386 . S
C447 C451 1.393 . S
C448 H437 0.950 . S
C448 C446 1.391 . S
C448 C449 1.400 . S
C449 C443 1.491 . S
C449 C448 1.400 . S
C449 C450 1.398 . S
C450 H438 0.950 . S
C450 C449 1.398 . S
C450 C451 1.391 . S
C451 H439 0.950 . S
C451 C447 1.393 . S
C451 C450 1.391 . S
H452 C460 0.950 . S
H453 C465 0.950 . S
H454 C462 0.950 . S
H455 C464 0.950 . S
H456 C466 0.950 . S
H457 C468 0.950 . S
H458 C470 0.950 . S
H459 C471 0.950 . S
C460 H452 0.950 . S
C460 C461 1.386 . S
C460 C462 1.391 . S
C461 C460 1.386 . S
C461 C465 1.393 . S
C462 H454 0.950 . S
C462 C460 1.391 . S
C462 C463 1.400 . S
C463 C462 1.400 . S
C463 C464 1.398 . S
C463 C469 1.491 . S
C464 H455 0.950 . S
C464 C463 1.398 . S
C464 C465 1.391 . S
C465 H453 0.950 . S
C465 C461 1.393 . S
C465 C464 1.391 . S
C466 H456 0.950 . S
C466 C467 1.386 . S
C466 C468 1.391 . S
C467 C466 1.386 . S
C467 C471 1.393 . S
C468 H457 0.950 . S
C468 C466 1.391 . S
C468 C469 1.400 . S
C469 C463 1.491 . S
C469 C468 1.400 . S
C469 C470 1.398 . S
C470 H458 0.950 . S
C470 C469 1.398 . S
C470 C471 1.391 . S
C471 H459 0.950 . S
C471 C467 1.393 . S
C471 C470 1.391 . S
H472 C480 0.950 . S
H473 C485 0.950 . S
H474 C482 0.950 . S
H475 C484 0.950 . S
H476 C486 0.950 . S
H477 C488 0.950 . S
H478 C490 0.950 . S
H479 C491 0.950 . S
C480 H472 0.950 . S
C480 C481 1.386 . S
C480 C482 1.391 . S
C481 C480 1.386 . S
C481 C485 1.393 . S
C482 H474 0.950 . S
C482 C480 1.391 . S
C482 C483 1.400 . S
C483 C482 1.400 . S
C483 C484 1.398 . S
C483 C489 1.491 . S
C484 H475 0.950 . S
C484 C483 1.398 . S
C484 C485 1.391 . S
C485 H473 0.950 . S
C485 C481 1.393 . S
C485 C484 1.391 . S
C486 H476 0.950 . S
C486 C487 1.386 . S
C486 C488 1.391 . S
C487 C486 1.386 . S
C487 C491 1.393 . S
C488 H477 0.950 . S
C488 C486 1.391 . S
C488 C489 1.400 . S
C489 C483 1.491 . S
C489 C488 1.400 . S
C489 C490 1.398 . S
C490 H478 0.950 . S
C490 C489 1.398 . S
C490 C491 1.391 . S
C491 H479 0.950 . S
C491 C487 1.393 . S
C491 C490 1.391 . S
H492 C500 0.950 . S
H493 C505 0.950 . S
H494 C502 0.950 . S
H495 C504 0.950 . S
H496 C506 0.950 1_545 S
H497 C508 0.950 . S
H498 C510 0.950 . S
H499 C511 0.950 . S
C500 H492 0.950 . S
C500 C501 1.386 . S
C500 C502 1.391 . S
C501 C500 1.386 . S
C501 C505 1.393 . S
C502 H494 0.950 . S
C502 C500 1.391 . S
C502 C503 1.400 . S
C503 C502 1.400 . S
C503 C504 1.398 . S
C503 C509 1.491 . S
C504 H495 0.950 . S
C504 C503 1.398 . S
C504 C505 1.391 . S
C505 H493 0.950 . S
C505 C501 1.393 . S
C505 C504 1.391 . S
C506 H496 0.950 1_565 S
C506 C507 1.386 . S
C506 C508 1.391 . S
C507 C506 1.386 . S
C507 C511 1.393 . S
C508 H497 0.950 . S
C508 C506 1.391 . S
C508 C509 1.400 . S
C509 C503 1.491 . S
C509 C508 1.400 . S
C509 C510 1.398 . S
C510 H498 0.950 . S
C510 C509 1.398 . S
C510 C511 1.391 . S
C511 H499 0.950 . S
C511 C507 1.393 . S
C511 C510 1.391 . S
H512 C520 0.950 . S
H513 C525 0.950 . S
H514 C522 0.950 . S
H515 C524 0.944 1_554 S
H516 C526 0.950 . S
H517 C528 0.950 1_554 S
H518 C530 0.950 . S
H519 C531 0.950 . S
C520 H512 0.950 . S
C520 C521 1.386 . S
C520 C522 1.391 . S
C521 C520 1.386 . S
C521 C525 1.393 . S
C522 H514 0.950 . S
C522 C520 1.391 . S
C522 C523 1.400 . S
C523 C522 1.400 . S
C523 C524 1.398 . S
C523 C529 1.491 . S
C524 H515 0.944 1_556 S
C524 C523 1.398 . S
C524 C525 1.391 . S
C525 H513 0.950 . S
C525 C521 1.393 . S
C525 C524 1.391 . S
C526 H516 0.950 . S
C526 C527 1.386 1_554 S
C526 C528 1.391 1_554 S
C527 C526 1.386 1_556 S
C527 C531 1.393 . S
C528 H517 0.950 1_556 S
C528 C526 1.391 1_556 S
C528 C529 1.400 . S
C529 C523 1.491 . S
C529 C528 1.400 . S
C529 C530 1.398 . S
C530 H518 0.950 . S
C530 C529 1.398 . S
C530 C531 1.391 . S
C531 H519 0.950 . S
C531 C527 1.393 . S
C531 C530 1.391 . S
H532 C540 0.950 . S
H533 C545 0.950 . S
H534 C542 0.950 . S
H535 C544 0.950 . S
H536 C546 0.950 . S
H537 C548 0.950 . S
H538 C550 0.950 . S
H539 C551 0.950 . S
C540 H532 0.950 . S
C540 C541 1.386 . S
C540 C542 1.391 . S
C541 C540 1.386 . S
C541 C545 1.393 . S
C542 H534 0.950 . S
C542 C540 1.391 . S
C542 C543 1.400 . S
C543 C542 1.400 . S
C543 C544 1.398 . S
C543 C549 1.491 . S
C544 H535 0.950 . S
C544 C543 1.398 . S
C544 C545 1.391 . S
C545 H533 0.950 . S
C545 C541 1.393 . S
C545 C544 1.391 . S
C546 H536 0.950 . S
C546 C547 1.386 . S
C546 C548 1.391 . S
C547 C546 1.386 . S
C547 C551 1.393 . S
C548 H537 0.950 . S
C548 C546 1.391 . S
C548 C549 1.400 . S
C549 C543 1.491 . S
C549 C548 1.400 . S
C549 C550 1.398 . S
C550 H538 0.950 . S
C550 C549 1.398 . S
C550 C551 1.391 . S
C551 H539 0.950 . S
C551 C547 1.393 . S
C551 C550 1.391 . S
H552 C560 0.950 . S
H553 C565 0.950 . S
H554 C562 0.950 . S
H555 C564 0.950 . S
H556 C566 0.950 1_655 S
H557 C568 0.950 1_655 S
H558 C570 0.950 . S
H559 C571 0.950 . S
C560 H552 0.950 . S
C560 C561 1.386 . S
C560 C562 1.391 . S
C561 C560 1.386 . S
C561 C565 1.393 . S
C562 H554 0.950 . S
C562 C560 1.391 . S
C562 C563 1.400 . S
C563 C562 1.400 . S
C563 C564 1.398 . S
C563 C569 1.491 . S
C564 H555 0.950 . S
C564 C563 1.398 . S
C564 C565 1.391 . S
C565 H553 0.950 . S
C565 C561 1.393 . S
C565 C564 1.391 . S
C566 H556 0.950 1_455 S
C566 C567 1.386 . S
C566 C568 1.391 . S
C567 C566 1.386 . S
C567 C571 1.393 . S
C568 H557 0.950 1_455 S
C568 C566 1.391 . S
C568 C569 1.400 . S
C569 C563 1.491 . S
C569 C568 1.400 . S
C569 C570 1.398 . S
C570 H558 0.950 . S
C570 C569 1.398 . S
C570 C571 1.391 . S
C571 H559 0.950 . S
C571 C567 1.393 . S
C571 C570 1.391 . S
H572 C580 0.950 . S
H573 C585 0.950 . S
H574 C582 0.950 . S
H575 C584 0.950 . S
H576 C586 0.950 . S
H577 C588 0.950 . S
H578 C590 0.950 . S
H579 C591 0.950 . S
C580 H572 0.950 . S
C580 C581 1.386 . S
C580 C582 1.391 . S
C581 C580 1.386 . S
C581 C585 1.393 . S
C582 H574 0.950 . S
C582 C580 1.391 . S
C582 C583 1.400 . S
C583 C582 1.400 . S
C583 C584 1.398 . S
C583 C589 1.491 . S
C584 H575 0.950 . S
C584 C583 1.398 . S
C584 C585 1.391 . S
C585 H573 0.950 . S
C585 C581 1.393 . S
C585 C584 1.391 . S
C586 H576 0.950 . S
C586 C587 1.386 . S
C586 C588 1.391 . S
C587 C586 1.386 . S
C587 C591 1.393 . S
C588 H577 0.950 . S
C588 C586 1.391 . S
C588 C589 1.400 . S
C589 C583 1.491 . S
C589 C588 1.400 . S
C589 C590 1.398 . S
C590 H578 0.950 . S
C590 C589 1.398 . S
C590 C591 1.391 . S
C591 H579 0.950 . S
C591 C587 1.393 . S
C591 C590 1.391 . S
H592 C600 0.950 . S
H593 C605 0.950 . S
H594 C602 0.950 . S
H595 C604 0.950 . S
H596 C606 0.937 1_455 S
H597 C608 0.950 . S
H598 C610 0.950 . S
H599 C611 0.950 . S
C600 H592 0.950 . S
C600 C601 1.386 . S
C600 C602 1.391 . S
C601 C600 1.386 . S
C601 C605 1.393 . S
C602 H594 0.950 . S
C602 C600 1.391 . S
C602 C603 1.400 . S
C603 C602 1.400 . S
C603 C604 1.398 . S
C603 C609 1.491 . S
C604 H595 0.950 . S
C604 C603 1.398 . S
C604 C605 1.391 . S
C605 H593 0.950 . S
C605 C601 1.393 . S
C605 C604 1.391 . S
C606 H596 0.937 1_655 S
C606 C607 1.386 . S
C606 C608 1.391 . S
C607 C606 1.386 . S
C607 C611 1.393 . S
C608 H597 0.950 . S
C608 C606 1.391 . S
C608 C609 1.400 . S
C609 C603 1.491 . S
C609 C608 1.400 . S
C609 C610 1.398 . S
C610 H598 0.950 . S
C610 C609 1.398 . S
C610 C611 1.391 . S
C611 H599 0.950 . S
C611 C607 1.393 . S
C611 C610 1.391 . S
H612 C620 0.950 . S
H613 C625 0.950 . S
H614 C622 0.950 . S
H615 C624 0.950 . S
H616 C626 0.950 . S
H617 C628 0.950 . S
H618 C630 0.950 . S
H619 C631 0.950 . S
C620 H612 0.950 . S
C620 C621 1.386 . S
C620 C622 1.391 . S
C621 C620 1.386 . S
C621 C625 1.393 . S
C622 H614 0.950 . S
C622 C620 1.391 . S
C622 C623 1.400 . S
C623 C622 1.400 . S
C623 C624 1.398 . S
C623 C629 1.491 . S
C624 H615 0.950 . S
C624 C623 1.398 . S
C624 C625 1.391 . S
C625 H613 0.950 . S
C625 C621 1.393 . S
C625 C624 1.391 . S
C626 H616 0.950 . S
C626 C627 1.386 . S
C626 C628 1.391 . S
C627 C626 1.386 . S
C627 C631 1.393 . S
C628 H617 0.950 . S
C628 C626 1.391 . S
C628 C629 1.400 . S
C629 C623 1.491 . S
C629 C628 1.400 . S
C629 C630 1.398 . S
C630 H618 0.950 . S
C630 C629 1.398 . S
C630 C631 1.391 . S
C631 H619 0.950 . S
C631 C627 1.393 . S
C631 C630 1.391 . S
H632 C640 0.950 . S
H633 C645 0.950 . S
H634 C642 0.950 . S
H635 C644 0.950 . S
H636 C646 0.950 . S
H637 C648 0.950 . S
H638 C650 0.950 1_545 S
H639 C651 0.950 . S
C640 H632 0.950 . S
C640 C641 1.386 . S
C640 C642 1.391 . S
C641 C640 1.386 . S
C641 C645 1.393 . S
C642 H634 0.950 . S
C642 C640 1.391 . S
C642 C643 1.400 . S
C643 C642 1.400 . S
C643 C644 1.398 . S
C643 C649 1.491 . S
C644 H635 0.950 . S
C644 C643 1.398 . S
C644 C645 1.391 . S
C645 H633 0.950 . S
C645 C641 1.393 . S
C645 C644 1.391 . S
C646 H636 0.950 . S
C646 C647 1.386 . S
C646 C648 1.391 . S
C647 C646 1.386 . S
C647 C651 1.393 1_565 S
C648 H637 0.950 . S
C648 C646 1.391 . S
C648 C649 1.400 . S
C649 C643 1.491 . S
C649 C648 1.400 . S
C649 C650 1.398 . S
C650 H638 0.950 1_565 S
C650 C649 1.398 . S
C650 C651 1.391 1_565 S
C651 H639 0.950 . S
C651 C647 1.393 1_545 S
C651 C650 1.391 1_545 S
H652 C660 0.950 . S
H653 C665 0.950 . S
H654 C662 0.950 . S
H655 C664 0.950 . S
H656 C666 0.950 1_565 S
H657 C668 0.950 . S
H658 C670 0.950 . S
H659 C671 0.950 . S
C660 H652 0.950 . S
C660 C661 1.386 . S
C660 C662 1.391 . S
C661 C660 1.386 . S
C661 C665 1.393 . S
C662 H654 0.950 . S
C662 C660 1.391 . S
C662 C663 1.400 . S
C663 C662 1.400 . S
C663 C664 1.398 . S
C663 C669 1.491 . S
C664 H655 0.950 . S
C664 C663 1.398 . S
C664 C665 1.391 . S
C665 H653 0.950 . S
C665 C661 1.393 . S
C665 C664 1.391 . S
C666 H656 0.950 1_545 S
C666 C667 1.386 . S
C666 C668 1.391 . S
C667 C666 1.386 . S
C667 C671 1.393 . S
C668 H657 0.950 . S
C668 C666 1.391 . S
C668 C669 1.400 . S
C669 C663 1.491 . S
C669 C668 1.400 . S
C669 C670 1.398 . S
C670 H658 0.950 . S
C670 C669 1.398 . S
C670 C671 1.391 . S
C671 H659 0.950 . S
C671 C667 1.393 . S
C671 C670 1.391 . S
H672 C680 0.950 . S
H673 C685 0.950 . S
H674 C682 0.950 . S
H675 C684 0.950 . S
H676 C686 0.950 . S
H677 C688 0.950 . S
H678 C690 0.950 . S
H679 C691 0.950 . S
C680 H672 0.950 . S
C680 C681 1.386 . S
C680 C682 1.391 . S
C681 C680 1.386 . S
C681 C685 1.393 . S
C682 H674 0.950 . S
C682 C680 1.391 . S
C682 C683 1.400 . S
C683 C682 1.400 . S
C683 C684 1.398 . S
C683 C689 1.491 . S
C684 H675 0.950 . S
C684 C683 1.398 . S
C684 C685 1.391 . S
C685 H673 0.950 . S
C685 C681 1.393 . S
C685 C684 1.391 . S
C686 H676 0.950 . S
C686 C687 1.386 . S
C686 C688 1.391 . S
C687 C686 1.386 . S
C687 C691 1.393 . S
C688 H677 0.950 . S
C688 C686 1.391 . S
C688 C689 1.400 . S
C689 C683 1.491 . S
C689 C688 1.400 . S
C689 C690 1.398 . S
C690 H678 0.950 . S
C690 C689 1.398 . S
C690 C691 1.391 . S
C691 H679 0.950 . S
C691 C687 1.393 . S
C691 C690 1.391 . S
H692 C700 0.950 . S
H693 C705 0.950 . S
H694 C702 0.950 . S
H695 C704 0.950 . S
H696 C706 0.950 . S
H697 C708 0.950 . S
H698 C710 0.950 . S
H699 C711 0.950 . S
C700 H692 0.950 . S
C700 C701 1.386 . S
C700 C702 1.391 . S
C701 C700 1.386 . S
C701 C705 1.393 . S
C702 H694 0.950 . S
C702 C700 1.391 . S
C702 C703 1.400 . S
C703 C702 1.400 . S
C703 C704 1.398 . S
C703 C709 1.491 . S
C704 H695 0.950 . S
C704 C703 1.398 . S
C704 C705 1.391 . S
C705 H693 0.950 . S
C705 C701 1.393 . S
C705 C704 1.391 . S
C706 H696 0.950 . S
C706 C707 1.386 . S
C706 C708 1.391 . S
C707 C706 1.386 . S
C707 C711 1.393 . S
C708 H697 0.950 . S
C708 C706 1.391 . S
C708 C709 1.400 . S
C709 C703 1.491 . S
C709 C708 1.400 . S
C709 C710 1.398 . S
C710 H698 0.950 . S
C710 C709 1.398 . S
C710 C711 1.391 . S
C711 H699 0.950 . S
C711 C707 1.393 . S
C711 C710 1.391 . S
H712 C720 0.950 . S
H713 C725 0.950 . S
H714 C722 0.950 . S
H715 C724 0.950 . S
H716 C726 0.950 . S
H717 C728 0.950 . S
H718 C730 0.971 . S
H719 C731 0.940 1_544 S
C720 H712 0.950 . S
C720 C721 1.386 . S
C720 C722 1.391 . S
C721 C720 1.386 . S
C721 C725 1.393 . S
C722 H714 0.950 . S
C722 C720 1.391 . S
C722 C723 1.400 . S
C723 C722 1.400 . S
C723 C724 1.398 . S
C723 C729 1.491 . S
C724 H715 0.950 . S
C724 C723 1.398 . S
C724 C725 1.391 . S
C725 H713 0.950 . S
C725 C721 1.393 . S
C725 C724 1.391 . S
C726 H716 0.950 . S
C726 C727 1.386 . S
C726 C728 1.391 . S
C727 C726 1.386 . S
C727 C731 1.393 . S
C728 H717 0.950 . S
C728 C726 1.391 . S
C728 C729 1.400 . S
C729 C723 1.491 . S
C729 C728 1.400 . S
C729 C730 1.398 . S
C730 H718 0.971 . S
C730 C729 1.398 . S
C730 C731 1.391 . S
C731 H719 0.940 1_566 S
C731 C727 1.393 . S
C731 C730 1.391 . S
H732 C740 0.950 . S
H733 C745 0.950 . S
H734 C742 0.950 . S
H735 C744 0.950 . S
H736 C746 0.950 . S
H737 C748 0.950 . S
H738 C750 0.950 . S
H739 C751 0.950 . S
C740 H732 0.950 . S
C740 C741 1.386 . S
C740 C742 1.391 . S
C741 C740 1.386 . S
C741 C745 1.393 . S
C742 H734 0.950 . S
C742 C740 1.391 . S
C742 C743 1.400 . S
C743 C742 1.400 . S
C743 C744 1.398 . S
C743 C749 1.491 . S
C744 H735 0.950 . S
C744 C743 1.398 . S
C744 C745 1.391 . S
C745 H733 0.950 . S
C745 C741 1.393 . S
C745 C744 1.391 . S
C746 H736 0.950 . S
C746 C747 1.386 . S
C746 C748 1.391 . S
C747 C746 1.386 . S
C747 C751 1.393 . S
C748 H737 0.950 . S
C748 C746 1.391 . S
C748 C749 1.400 . S
C749 C743 1.491 . S
C749 C748 1.400 . S
C749 C750 1.398 . S
C750 H738 0.950 . S
C750 C749 1.398 . S
C750 C751 1.391 . S
C751 H739 0.950 . S
C751 C747 1.393 . S
C751 C750 1.391 . S
H752 C760 0.950 . S
H753 C765 0.950 . S
H754 C762 0.950 . S
H755 C764 0.950 . S
H756 C766 0.950 . S
H757 C768 0.950 . S
H758 C770 0.950 . S
H759 C771 0.950 . S
C760 H752 0.950 . S
C760 C761 1.386 . S
C760 C762 1.391 . S
C761 C760 1.386 . S
C761 C765 1.393 . S
C762 H754 0.950 . S
C762 C760 1.391 . S
C762 C763 1.400 . S
C763 C762 1.400 . S
C763 C764 1.398 . S
C763 C769 1.491 . S
C764 H755 0.950 . S
C764 C763 1.398 . S
C764 C765 1.391 . S
C765 H753 0.950 . S
C765 C761 1.393 . S
C765 C764 1.391 . S
C766 H756 0.950 . S
C766 C767 1.386 . S
C766 C768 1.391 . S
C767 C766 1.386 . S
C767 C771 1.393 . S
C768 H757 0.950 . S
C768 C766 1.391 . S
C768 C769 1.400 . S
C769 C763 1.491 . S
C769 C768 1.400 . S
C769 C770 1.398 . S
C770 H758 0.950 . S
C770 C769 1.398 . S
C770 C771 1.391 . S
C771 H759 0.950 . S
C771 C767 1.393 . S
C771 C770 1.391 . S
H772 C780 0.950 . S
H773 C785 0.950 . S
H774 C782 0.950 . S
H775 C784 0.950 . S
H776 C786 0.950 . S
H777 C788 0.950 . S
H778 C790 0.950 . S
H779 C791 0.950 . S
C780 H772 0.950 . S
C780 C781 1.386 . S
C780 C782 1.391 . S
C781 C780 1.386 . S
C781 C785 1.393 . S
C782 H774 0.950 . S
C782 C780 1.391 . S
C782 C783 1.400 . S
C783 C782 1.400 . S
C783 C784 1.398 . S
C783 C789 1.491 . S
C784 H775 0.950 . S
C784 C783 1.398 . S
C784 C785 1.391 . S
C785 H773 0.950 . S
C785 C781 1.393 . S
C785 C784 1.391 . S
C786 H776 0.950 . S
C786 C787 1.386 . S
C786 C788 1.391 . S
C787 C786 1.386 . S
C787 C791 1.393 . S
C788 H777 0.950 . S
C788 C786 1.391 . S
C788 C789 1.400 . S
C789 C783 1.491 . S
C789 C788 1.400 . S
C789 C790 1.398 . S
C790 H778 0.950 . S
C790 C789 1.398 . S
C790 C791 1.391 . S
C791 H779 0.950 . S
C791 C787 1.393 . S
C791 C790 1.391 . S
H792 C800 0.950 . S
H793 C805 0.950 . S
H794 C802 0.950 . S
H795 C804 0.950 . S
H796 C806 0.950 1_455 S
H797 C808 0.950 . S
H798 C810 0.950 . S
H799 C811 0.950 1_554 S
C800 H792 0.950 . S
C800 C801 1.386 . S
C800 C802 1.391 . S
C801 C800 1.386 . S
C801 C805 1.393 . S
C802 H794 0.950 . S
C802 C800 1.391 . S
C802 C803 1.400 . S
C803 C802 1.400 . S
C803 C804 1.398 . S
C803 C809 1.491 . S
C804 H795 0.950 . S
C804 C803 1.398 . S
C804 C805 1.391 . S
C805 H793 0.950 . S
C805 C801 1.393 . S
C805 C804 1.391 . S
C806 H796 0.950 1_655 S
C806 C807 1.386 . S
C806 C808 1.391 . S
C807 C806 1.386 . S
C807 C811 1.393 . S
C808 H797 0.950 . S
C808 C806 1.391 . S
C808 C809 1.400 . S
C809 C803 1.491 . S
C809 C808 1.400 . S
C809 C810 1.398 . S
C810 H798 0.950 . S
C810 C809 1.398 . S
C810 C811 1.391 . S
C811 H799 0.950 1_556 S
C811 C807 1.393 . S
C811 C810 1.391 . S
H812 C820 0.950 . S
H813 C825 0.950 . S
H814 C822 0.950 . S
H815 C824 0.950 . S
H816 C826 0.950 . S
H817 C828 0.950 . S
H818 C830 0.950 . S
H819 C831 0.950 . S
C820 H812 0.950 . S
C820 C821 1.386 . S
C820 C822 1.391 . S
C821 C820 1.386 . S
C821 C825 1.393 . S
C822 H814 0.950 . S
C822 C820 1.391 . S
C822 C823 1.400 . S
C823 C822 1.400 . S
C823 C824 1.398 . S
C823 C829 1.491 . S
C824 H815 0.950 . S
C824 C823 1.398 . S
C824 C825 1.391 . S
C825 H813 0.950 . S
C825 C821 1.393 . S
C825 C824 1.391 . S
C826 H816 0.950 . S
C826 C827 1.386 . S
C826 C828 1.391 . S
C827 C826 1.386 . S
C827 C831 1.393 . S
C828 H817 0.950 . S
C828 C826 1.391 . S
C828 C829 1.400 . S
C829 C823 1.491 . S
C829 C828 1.400 . S
C829 C830 1.398 . S
C830 H818 0.950 . S
C830 C829 1.398 . S
C830 C831 1.391 . S
C831 H819 0.950 . S
C831 C827 1.393 . S
C831 C830 1.391 . S
H832 C840 0.950 . S
H833 C845 0.950 . S
H834 C842 0.950 . S
H835 C844 0.950 . S
H836 C846 0.950 . S
H837 C848 0.950 . S
H838 C850 0.950 . S
H839 C851 0.950 . S
C840 H832 0.950 . S
C840 C841 1.386 . S
C840 C842 1.391 . S
C841 C840 1.386 . S
C841 C845 1.393 . S
C842 H834 0.950 . S
C842 C840 1.391 . S
C842 C843 1.400 . S
C843 C842 1.400 . S
C843 C844 1.398 . S
C843 C849 1.491 . S
C844 H835 0.950 . S
C844 C843 1.398 . S
C844 C845 1.391 . S
C845 H833 0.950 . S
C845 C841 1.393 . S
C845 C844 1.391 . S
C846 H836 0.950 . S
C846 C847 1.386 . S
C846 C848 1.391 . S
C847 C846 1.386 . S
C847 C851 1.393 . S
C848 H837 0.950 . S
C848 C846 1.391 . S
C848 C849 1.400 . S
C849 C843 1.491 . S
C849 C848 1.400 . S
C849 C850 1.398 . S
C850 H838 0.950 . S
C850 C849 1.398 . S
C850 C851 1.391 . S
C851 H839 0.950 . S
C851 C847 1.393 . S
C851 C850 1.391 . S
H852 C860 0.950 . S
H853 C865 0.950 . S
H854 C862 0.950 . S
H855 C864 0.950 . S
H856 C866 0.950 . S
H857 C868 0.950 . S
H858 C870 0.950 . S
H859 C871 0.950 . S
C860 H852 0.950 . S
C860 C861 1.386 . S
C860 C862 1.391 . S
C861 C860 1.386 . S
C861 C865 1.393 . S
C862 H854 0.950 . S
C862 C860 1.391 . S
C862 C863 1.400 . S
C863 C862 1.400 . S
C863 C864 1.398 . S
C863 C869 1.491 . S
C864 H855 0.950 . S
C864 C863 1.398 . S
C864 C865 1.391 . S
C865 H853 0.950 . S
C865 C861 1.393 . S
C865 C864 1.391 . S
C866 H856 0.950 . S
C866 C867 1.386 . S
C866 C868 1.391 . S
C867 C866 1.386 . S
C867 C871 1.393 . S
C868 H857 0.950 . S
C868 C866 1.391 . S
C868 C869 1.400 . S
C869 C863 1.491 . S
C869 C868 1.400 . S
C869 C870 1.398 . S
C870 H858 0.950 . S
C870 C869 1.398 . S
C870 C871 1.391 . S
C871 H859 0.950 . S
C871 C867 1.393 . S
C871 C870 1.391 . S
C401 C29 2.264 . S
C407 C256 2.373 . S
C421 C49 2.242 . S
C427 C298 2.253 . S
C447 C328 1.002 . S
C441 C93 0.944 . S
C461 C119 0.941 . S
C467 C362 0.993 . S
C487 C319 1.843 . S
C481 C17 1.744 . S
C507 C273 1.880 . S
C501 C61 1.884 . S
C527 C366 1.315 . S
C521 C81 1.247 . S
C547 C332 1.436 . S
C541 C125 1.315 . S
C561 C23 2.091 . S
C567 C387 2.181 . S
C587 C294 1.106 . S
C581 C87 1.071 . S
C601 C113 1.118 . S
C607 C269 1.170 . S
C621 C55 2.167 . S
C627 C353 2.169 . S
C647 C285 2.305 . S
C641 C157 2.294 . S
C661 C189 2.180 . S
C667 C307 2.296 . S
C681 C221 0.984 . S
C687 C337 0.993 . S
C701 C253 0.970 . S
C707 C371 1.039 . S
C721 C145 1.887 . S
C727 C290 1.892 . S
C747 C264 1.809 . S
C741 C183 1.721 . S
C767 C375 1.366 . S
C761 C209 1.362 . S
C787 C341 1.378 . S
C781 C247 1.302 . S
C801 C151 2.201 . S
C807 C358 2.200 . S
C827 C303 1.116 . S
C821 C215 1.119 . S
C847 C260 1.149 . S
C841 C241 1.103 . S
C861 C177 2.112 . S
C867 C324 2.210 . S
