# Generated by pormake.
# Topology pth, (4,4)-cn, num edge types: 1
# Building blocks:
#     Node 0, Type 0, BuildingBlock: CEKHIL_clean_sbu_0, # of connection points: 4
#     Node 1, Type 0, BuildingBlock: CEKHIL_clean_sbu_0, # of connection points: 4
#     Node 2, Type 0, BuildingBlock: CEKHIL_clean_sbu_0, # of connection points: 4
#     Node 3, Type 1, BuildingBlock: NAWXER_clean_linker_0, # of connection points: 4
#     Node 4, Type 1, BuildingBlock: NAWXER_clean_linker_0, # of connection points: 4
#     Node 5, Type 1, BuildingBlock: NAWXER_clean_linker_0, # of connection points: 4
#     Edge 6, Type (0, 1), BuildingBlock: ZUJKAS_clean_linker_0, # of connection points: 2
#     Edge 7, Type (0, 1), BuildingBlock: ZUJKAS_clean_linker_0, # of connection points: 2
#     Edge 8, Type (0, 1), BuildingBlock: ZUJKAS_clean_linker_0, # of connection points: 2
#     Edge 9, Type (0, 1), BuildingBlock: ZUJKAS_clean_linker_0, # of connection points: 2
#     Edge 10, Type (0, 1), BuildingBlock: ZUJKAS_clean_linker_0, # of connection points: 2
#     Edge 11, Type (0, 1), BuildingBlock: ZUJKAS_clean_linker_0, # of connection points: 2
#     Edge 12, Type (0, 1), BuildingBlock: ZUJKAS_clean_linker_0, # of connection points: 2
#     Edge 13, Type (0, 1), BuildingBlock: ZUJKAS_clean_linker_0, # of connection points: 2
#     Edge 14, Type (0, 1), BuildingBlock: ZUJKAS_clean_linker_0, # of connection points: 2
#     Edge 15, Type (0, 1), BuildingBlock: ZUJKAS_clean_linker_0, # of connection points: 2
#     Edge 16, Type (0, 1), BuildingBlock: ZUJKAS_clean_linker_0, # of connection points: 2
#     Edge 17, Type (0, 1), BuildingBlock: ZUJKAS_clean_linker_0, # of connection points: 2
# Relax obj value: 0.006
# Max RMSD: 0.048
# Mean RMSD: 0.037
data_MOF--net-pth--node1-CEKHIL_clean_sbu_0--node2-NAWXER_clean_linker_0--edge1-ZUJKAS_clean_linker_0
_symmetry_space_group_name_H-M    P1
_symmetry_Int_Tables_number       1
_symmetry_cell_setting            triclinic
loop_
_symmetry_equiv_pos_as_xyz
'x, y, z'
_cell_length_a     35.663616
_cell_length_b     35.762725
_cell_length_c     82.679704
_cell_angle_alpha  90.851325
_cell_angle_beta   89.975586
_cell_angle_gamma 120.30803
loop_
_atom_site_label
_atom_site_type_symbol
_atom_site_fract_x
_atom_site_fract_y
_atom_site_fract_z
_atom_type_partial_charge
Co0 Co 0.0191 0.02991 0.06741 0.0
O1 O 0.9895 0.98388 0.08256 0.0
O2 O 0.04573 0.99421 0.06787 0.0
C3 C 0.02434 0.08301 0.08403 0.0
O4 O 0.05914 0.07471 0.05107 0.0
Co5 Co 0.97711 0.08162 0.05494 0.0
O6 O 0.03657 0.12236 0.04726 0.0
C7 C 0.94637 0.99316 0.04215 0.0
C8 C 0.01723 0.97187 0.07883 0.0
C9 C 0.06452 0.11047 0.0454 0.0
O10 O 0.97753 0.99237 0.04971 0.0
O11 O 0.93894 0.02456 0.04356 0.0
O12 O 0.0523 0.07 0.08501 0.0
O13 O 0.99243 0.06137 0.07403 0.0
Co14 Co 0.0123 0.03825 0.38792 0.0
O15 O 0.98557 0.05642 0.3721 0.0
O16 O 0.03966 0.1009 0.38834 0.0
C17 C 0.01916 0.99141 0.37131 0.0
O18 O 0.04955 0.03149 0.40512 0.0
Co19 Co 0.96677 0.94292 0.39888 0.0
O20 O 0.02407 0.96054 0.40876 0.0
C21 C 0.93625 0.00061 0.41139 0.0
C22 C 0.01311 0.0959 0.3766 0.0
C23 C 0.05272 1.00019 0.41119 0.0
O24 O 0.96864 0.03312 0.40466 0.0
O25 O 0.92811 0.96159 0.40952 0.0
O26 O 0.04769 0.03251 0.37117 0.0
O27 O 0.98584 0.98055 0.3804 0.0
Co28 Co 0.00641 0.0255 0.72143 0.0
O29 O 0.05118 0.05265 0.70553 0.0
O30 O 0.04095 0.99755 0.72051 0.0
C31 C 0.95247 0.02049 0.70557 0.0
O32 O 0.96243 0.98774 0.73844 0.0
Co33 Co 0.95804 0.07103 0.7345 0.0
O34 O 0.91813 0.01383 0.74394 0.0
C35 C 0.04696 0.09996 0.74614 0.0
C36 C 0.06267 0.02465 0.70912 0.0
C37 C 0.9286 0.9848 0.7453 0.0
O38 O 0.04618 0.06782 0.73859 0.0
O39 O 0.0163 0.1086 0.74504 0.0
O40 O 0.96422 0.99159 0.70449 0.0
O41 O 0.97573 0.05299 0.71518 0.0
C42 C 0.0066 0.40784 0.25833 0.0
C43 C 0.03908 0.42179 0.27035 0.0
C44 C 0.0066 0.43717 0.24732 0.0
C45 C 0.03928 0.48103 0.24801 0.0
C46 C 0.07181 0.46572 0.27096 0.0
C47 C 0.07172 0.49502 0.25997 0.0
C48 C 0.03799 0.5131 0.23721 0.0
C49 C 0.06155 0.42669 0.20356 0.0
C50 C 0.02863 0.40389 0.19194 0.0
C51 C 0.06175 0.45939 0.21311 0.0
C52 C 0.02892 0.46979 0.21127 0.0
C53 C 0.99561 0.41412 0.19023 0.0
C54 C 0.99597 0.44697 0.19972 0.0
C55 C 0.0306 0.50662 0.22033 0.0
C56 C 0.06165 0.67854 0.19757 0.0
C57 C 0.02806 0.6647 0.18603 0.0
C58 C 0.0623 0.6492 0.20841 0.0
C59 C 0.02933 0.60544 0.20794 0.0
C60 C 0.9951 0.62089 0.18561 0.0
C61 C 0.99595 0.59152 0.19636 0.0
C62 C 0.03098 0.57346 0.21867 0.0
C63 C 0.00672 0.65903 0.25256 0.0
C64 C 0.03985 0.68212 0.26408 0.0
C65 C 0.00678 0.62661 0.24291 0.0
C66 C 0.04004 0.61676 0.24458 0.0
C67 C 0.07337 0.67255 0.26557 0.0
C68 C 0.07324 0.63993 0.25601 0.0
C69 C 0.03845 0.57997 0.23552 0.0
H70 H 0.98042 0.37447 0.2577 0.0
H71 H 0.98036 0.42574 0.23856 0.0
H72 H 0.09761 0.47751 0.27992 0.0
H73 H 0.09708 0.52874 0.26082 0.0
H74 H 0.08731 0.41941 0.20521 0.0
H75 H 0.08815 0.47723 0.22165 0.0
H76 H 0.97015 0.39757 0.18124 0.0
H77 H 0.97062 0.4548 0.19795 0.0
H78 H 0.08739 0.71212 0.19825 0.0
H79 H 0.08901 0.66058 0.21695 0.0
H80 H 0.9691 0.60911 0.17673 0.0
H81 H 0.97048 0.55782 0.19564 0.0
H82 H 0.98056 0.66581 0.25109 0.0
H83 H 0.98021 0.60849 0.23446 0.0
H84 H 0.09901 0.68939 0.27448 0.0
H85 H 0.09891 0.63251 0.25764 0.0
N86 N 0.04182 0.54964 0.2441 0.0
N87 N 0.02717 0.53695 0.21176 0.0
C88 C 0.65373 0.06791 0.53316 0.0
C89 C 0.642 0.03754 0.52037 0.0
C90 C 0.62201 0.06726 0.54331 0.0
C91 C 0.57797 0.03604 0.54095 0.0
C92 C 0.59783 0.00677 0.51792 0.0
C93 C 0.56618 0.00621 0.52804 0.0
C94 C 0.54373 0.03534 0.55132 0.0
C95 C 0.62373 0.00299 0.58434 0.0
C96 C 0.64189 0.03072 0.59791 0.0
C97 C 0.59296 0.00528 0.57457 0.0
C98 C 0.58029 0.03592 0.57798 0.0
C99 C 0.62882 0.06111 0.60134 0.0
C100 C 0.59833 0.06358 0.5915 0.0
C101 C 0.54581 0.03719 0.5684 0.0
C102 C 0.36856 0.00111 0.58811 0.0
C103 C 0.38041 0.02872 0.60181 0.0
C104 C 0.4001 0.00413 0.57727 0.0
C105 C 0.44411 0.03528 0.57977 0.0
C106 C 0.42451 0.05976 0.60426 0.0
C107 C 0.45594 0.06288 0.5934 0.0
C108 C 0.47855 0.03682 0.56925 0.0
C109 C 0.39673 0.06633 0.53576 0.0
C110 C 0.37838 0.03736 0.52253 0.0
C111 C 0.42807 0.06526 0.54564 0.0
C112 C 0.44136 0.03493 0.54256 0.0
C113 C 0.39198 0.00725 0.51947 0.0
C114 C 0.42319 0.00618 0.52933 0.0
C115 C 0.47641 0.03483 0.55216 0.0
H116 H 0.68747 0.09194 0.53541 0.0
H117 H 0.63187 0.09136 0.55294 0.0
H118 H 0.58761 0.98343 0.50801 0.0
H119 H 0.53238 0.98221 0.52583 0.0
H120 H 0.63317 0.97936 0.58127 0.0
H121 H 0.57854 0.9825 0.56455 0.0
H122 H 0.64136 0.08238 0.61185 0.0
H123 H 0.58857 0.08699 0.59456 0.0
H124 H 0.3349 0.97701 0.58577 0.0
H125 H 0.39013 0.98144 0.56716 0.0
H126 H 0.435 0.08102 0.61482 0.0
H127 H 0.48972 0.0867 0.59576 0.0
H128 H 0.38691 0.08984 0.53849 0.0
H129 H 0.44244 0.08866 0.55548 0.0
H130 H 0.37923 0.98504 0.50921 0.0
H131 H 0.43334 0.98292 0.52655 0.0
N132 N 0.509 0.03395 0.54392 0.0
N133 N 0.51328 0.03814 0.57663 0.0
C134 C 0.4088 0.37357 0.86753 0.0
C135 C 0.38764 0.38532 0.85604 0.0
C136 C 0.44175 0.4051 0.87744 0.0
C137 C 0.45393 0.44892 0.87612 0.0
C138 C 0.40022 0.42926 0.8547 0.0
C139 C 0.43313 0.46069 0.86456 0.0
C140 C 0.48997 0.48315 0.88596 0.0
C141 C 0.38543 0.40193 0.92161 0.0
C142 C 0.39842 0.38517 0.93431 0.0
C143 C 0.41621 0.43268 0.91125 0.0
C144 C 0.46056 0.44647 0.9131 0.0
C145 C 0.44276 0.39926 0.93626 0.0
C146 C 0.47347 0.42957 0.92577 0.0
C147 C 0.49407 0.48104 0.90289 0.0
C148 C 0.6377 0.65927 0.92121 0.0
C149 C 0.65959 0.64901 0.93291 0.0
C150 C 0.60625 0.62696 0.9111 0.0
C151 C 0.59631 0.58379 0.91237 0.0
C152 C 0.64966 0.60575 0.93409 0.0
C153 C 0.61816 0.57348 0.924 0.0
C154 C 0.56098 0.54873 0.90256 0.0
C155 C 0.6638 0.63264 0.86664 0.0
C156 C 0.64976 0.65083 0.8548 0.0
C157 C 0.63389 0.6006 0.87687 0.0
C158 C 0.58936 0.58639 0.87557 0.0
C159 C 0.60513 0.63631 0.85349 0.0
C160 C 0.57531 0.60436 0.86371 0.0
C161 C 0.55675 0.55089 0.88566 0.0
H162 H 0.39977 0.33999 0.86891 0.0
H163 H 0.45804 0.39528 0.88598 0.0
H164 H 0.38516 0.43953 0.84579 0.0
H165 H 0.44236 0.49435 0.86317 0.0
H166 H 0.35157 0.39232 0.92001 0.0
H167 H 0.40533 0.44642 0.90207 0.0
H168 H 0.45371 0.38682 0.94591 0.0
H169 H 0.50746 0.44002 0.92761 0.0
H170 H 0.64389 0.69205 0.92018 0.0
H171 H 0.58891 0.63558 0.90257 0.0
H172 H 0.66621 0.59676 0.94283 0.0
H173 H 0.61079 0.54034 0.92529 0.0
H174 H 0.69794 0.64318 0.86802 0.0
H175 H 0.64554 0.58644 0.88559 0.0
H176 H 0.59304 0.64898 0.84433 0.0
H177 H 0.5411 0.59355 0.8623 0.0
N178 N 0.52132 0.51809 0.87808 0.0
N179 N 0.52961 0.51383 0.91046 0.0
H180 H 0.97275 0.11917 0.08318 0.0
H181 H 0.97599 0.17572 0.10122 0.0
H182 H 0.08619 0.1839 0.1261 0.0
H183 H 0.08321 0.1274 0.10813 0.0
H184 H 0.01621 0.17436 0.14654 0.0
H185 H 0.06872 0.30753 0.10257 0.0
H186 H 0.02311 0.25625 0.09635 0.0
H187 H 0.07547 0.26133 0.09894 0.0
C188 C 0.99791 0.13329 0.0924 0.0
C189 C 0.02774 0.11888 0.09424 0.0
C190 C 0.99981 0.16567 0.10265 0.0
C191 C 0.03154 0.18415 0.11489 0.0
C192 C 0.06156 0.17009 0.11668 0.0
H193 H 0.09844 0.40876 0.17628 0.0
H194 H 0.09947 0.35475 0.158 0.0
C195 C 0.05985 0.1379 0.10638 0.0
C196 C 0.0323 0.21685 0.12629 0.0
H197 H 0.04814 0.31926 0.12859 0.0
C198 C 0.02328 0.20609 0.14264 0.0
C199 C 0.04188 0.25826 0.12116 0.0
C200 C 0.05321 0.27188 0.10383 0.0
C201 C 0.02292 0.2355 0.15399 0.0
C202 C 0.03154 0.27656 0.14879 0.0
C203 C 0.04126 0.2876 0.13249 0.0
C204 C 0.03084 0.30862 0.16013 0.0
C205 C 0.01377 0.22268 0.17148 0.0
C206 C 0.99184 0.30053 0.16731 0.0
C207 C 0.99114 0.33126 0.17776 0.0
C208 C 0.02948 0.37061 0.18123 0.0
C209 C 0.06851 0.3785 0.17404 0.0
C210 C 0.06911 0.34786 0.16351 0.0
H211 H 0.01695 0.19401 0.17408 0.0
H212 H 0.0362 0.24991 0.1796 0.0
H213 H 0.98009 0.21447 0.17435 0.0
H214 H 0.96187 0.2706 0.16469 0.0
H215 H 0.96063 0.32417 0.18318 0.0
H216 H 0.94274 0.07842 0.4199 0.0
H217 H 0.8971 0.09061 0.43894 0.0
H218 H 0.81944 0.9531 0.44643 0.0
H219 H 0.86473 0.94049 0.42766 0.0
H220 H 0.80627 0.05792 0.43826 0.0
H221 H 0.8553 0.00317 0.49249 0.0
H222 H 0.8854 0.01634 0.47384 0.0
H223 H 0.83679 0.96456 0.47601 0.0
C224 C 0.91595 0.05074 0.42559 0.0
C225 C 0.90772 0.00847 0.42231 0.0
C226 C 0.88992 0.0578 0.43646 0.0
C227 C 0.85545 0.02282 0.44433 0.0
C228 C 0.8465 0.98063 0.44078 0.0
H229 H 0.64702 0.96807 0.50897 0.0
H230 H 0.70079 0.9683 0.49054 0.0
C231 C 0.87237 0.97351 0.42994 0.0
C232 C 0.82825 0.02995 0.45612 0.0
H233 H 0.79227 0.00992 0.49506 0.0
C234 C 0.80356 0.04797 0.45074 0.0
C235 C 0.82493 0.01704 0.4724 0.0
C236 C 0.85233 0.99959 0.4791 0.0
C237 C 0.77415 0.05163 0.46103 0.0
C238 C 0.76988 0.03744 0.47717 0.0
C239 C 0.79546 0.02056 0.48266 0.0
C240 C 0.73767 0.038 0.48836 0.0
C241 C 0.74666 0.06905 0.4544 0.0
C242 C 0.74091 0.07718 0.4934 0.0
C243 C 0.7101 0.07715 0.5039 0.0
C244 C 0.67551 0.03791 0.50955 0.0
C245 C 0.67283 0.99879 0.50464 0.0
C246 C 0.70367 0.99888 0.49419 0.0
H247 H 0.74755 0.0703 0.44098 0.0
H248 H 0.71238 0.04884 0.45825 0.0
H249 H 0.75902 0.10242 0.45921 0.0
H250 H 0.7673 0.10777 0.48923 0.0
H251 H 0.71296 0.10781 0.50738 0.0
H252 H 0.85483 0.96772 0.76143 0.0
H253 H 0.81099 0.90765 0.77922 0.0
H254 H 0.89522 0.8557 0.77053 0.0
H255 H 0.94003 0.91634 0.75275 0.0
H256 H 0.76628 0.81905 0.77229 0.0
H257 H 0.89174 0.86142 0.82013 0.0
H258 H 0.8972 0.89893 0.80467 0.0
H259 H 0.90708 0.85548 0.79997 0.0
C260 C 0.86427 0.94367 0.76326 0.0
C261 C 0.90125 0.94715 0.75568 0.0
C262 C 0.83904 0.90925 0.77345 0.0
C263 C 0.85015 0.87753 0.77639 0.0
C264 C 0.88654 0.8803 0.76867 0.0
H265 H 0.71984 0.65347 0.83985 0.0
H266 H 0.76938 0.7068 0.82051 0.0
C267 C 0.91195 0.91486 0.75843 0.0
C268 C 0.823 0.84155 0.78743 0.0
H269 H 0.82365 0.79853 0.82399 0.0
C270 C 0.77887 0.81444 0.78356 0.0
C271 C 0.83954 0.83551 0.8021 0.0
C272 C 0.88639 0.8645 0.8071 0.0
C273 C 0.7507 0.78179 0.79404 0.0
C274 C 0.76694 0.77654 0.80892 0.0
C275 C 0.81131 0.80277 0.8126 0.0
C276 C 0.73794 0.74505 0.82105 0.0
C277 C 0.70375 0.75314 0.7891 0.0
C278 C 0.70452 0.74951 0.82804 0.0
C279 C 0.67639 0.71934 0.83916 0.0
C280 C 0.68116 0.68411 0.84357 0.0
C281 C 0.71543 0.68038 0.83684 0.0
C282 C 0.74363 0.71067 0.82571 0.0
H283 H 0.69922 0.75336 0.77581 0.0
H284 H 0.6913 0.71921 0.79286 0.0
H285 H 0.68389 0.76516 0.79507 0.0
H286 H 0.70019 0.77639 0.82489 0.0
H287 H 0.65095 0.72372 0.84435 0.0
H288 H 0.08128 0.95081 0.07939 0.0
H289 H 0.0844 0.8968 0.09636 0.0
H290 H 0.957 0.85835 0.1148 0.0
H291 H 0.95422 0.91288 0.09827 0.0
H292 H 0.01372 0.8738 0.13881 0.0
H293 H 0.02625 0.76659 0.0926 0.0
H294 H 0.06726 0.82259 0.09091 0.0
H295 H 0.01117 0.8062 0.08752 0.0
C296 C 0.05368 0.93034 0.08687 0.0
C297 C 0.01754 0.93613 0.08751 0.0
C298 C 0.05541 0.89933 0.09652 0.0
C299 C 0.02073 0.87315 0.10675 0.0
C300 C 0.98414 0.87814 0.10701 0.0
H301 H 0.95899 0.67307 0.17688 0.0
H302 H 0.95836 0.72392 0.1575 0.0
C303 C 0.98258 0.9093 0.09753 0.0
C304 C 0.02345 0.84263 0.11805 0.0
H305 H 0.03678 0.75459 0.12003 0.0
C306 C 0.01857 0.84764 0.13467 0.0
C307 C 0.02998 0.80857 0.11267 0.0
C308 C 0.03357 0.80031 0.09495 0.0
C309 C 0.0201 0.81968 0.14603 0.0
C310 C 0.02649 0.78565 0.14065 0.0
C311 C 0.03193 0.78082 0.12409 0.0
C312 C 0.02683 0.75436 0.15209 0.0
C313 C 0.01526 0.82687 0.16376 0.0
C314 C 0.06545 0.75438 0.1553 0.0
C315 C 0.06594 0.72546 0.1664 0.0
C316 C 0.02767 0.69566 0.17433 0.0
C317 C 0.98892 0.69542 0.1709 0.0
C318 C 0.98855 0.72457 0.15991 0.0
H319 H 0.01896 0.85921 0.1662 0.0
H320 H 0.9825 0.80179 0.1678 0.0
H321 H 0.03964 0.82385 0.1711 0.0
H322 H 0.09528 0.77706 0.14933 0.0
H323 H 0.09617 0.72605 0.16862 0.0
H324 H 0.11828 0.07987 0.42211 0.0
H325 H 0.17894 0.09462 0.44022 0.0
H326 H 0.13219 0.95772 0.44267 0.0
H327 H 0.07219 0.94264 0.42461 0.0
H328 H 0.17511 0.06425 0.47203 0.0
H329 H 0.2601 0.00855 0.43082 0.0
H330 H 0.21947 0.0206 0.42378 0.0
H331 H 0.2035 0.96929 0.43284 0.0
C332 C 0.12111 0.05293 0.4264 0.0
C333 C 0.09033 0.01006 0.42181 0.0
C334 C 0.15574 0.06144 0.43677 0.0
C335 C 0.16042 0.0273 0.44258 0.0
C336 C 0.12973 0.98461 0.43807 0.0
H337 H 0.30516 0.96915 0.50913 0.0
H338 H 0.25459 0.97157 0.48983 0.0
C339 C 0.09521 0.97607 0.42778 0.0
C340 C 0.19634 0.03556 0.4538 0.0
H341 H 0.27857 0.01408 0.45898 0.0
C342 C 0.19824 0.05398 0.46912 0.0
C343 C 0.22652 0.02222 0.44994 0.0
C344 C 0.22766 0.00446 0.43339 0.0
C345 C 0.2281 0.0573 0.48097 0.0
C346 C 0.25696 0.04218 0.4773 0.0
C347 C 0.25612 0.0253 0.46179 0.0
C348 C 0.2869 0.04151 0.48957 0.0
C349 C 0.22737 0.07515 0.49754 0.0
C350 C 0.3218 0.08009 0.49585 0.0
C351 C 0.35104 0.07885 0.50682 0.0
C352 C 0.34595 0.03895 0.51165 0.0
C353 C 0.31045 1.00042 0.5055 0.0
C354 C 0.28138 0.00172 0.49453 0.0
H355 H 0.19831 0.07853 0.49926 0.0
H356 H 0.22789 0.05388 0.50708 0.0
H357 H 0.25675 0.1076 0.49917 0.0
H358 H 0.32699 0.11115 0.49199 0.0
H359 H 0.37833 0.10913 0.51114 0.0
H360 H 0.11888 0.09303 0.75269 0.0
H361 H 0.17817 0.13711 0.77177 0.0
H362 H 0.11892 0.21349 0.78329 0.0
H363 H 0.0596 0.16978 0.76448 0.0
H364 H 0.23672 0.22843 0.77258 0.0
H365 H 0.13568 0.17339 0.82773 0.0
H366 H 0.11776 0.14494 0.80852 0.0
H367 H 0.11443 0.19279 0.81238 0.0
C368 C 0.11843 0.11921 0.75927 0.0
C369 C 0.08416 0.12755 0.7571 0.0
C370 C 0.15235 0.14434 0.77017 0.0
C371 C 0.15245 0.17799 0.77916 0.0
C372 C 0.11895 0.18705 0.77674 0.0
H373 H 0.31078 0.37929 0.84733 0.0
H374 H 0.25543 0.32697 0.82863 0.0
C375 C 0.08514 0.16209 0.76587 0.0
C376 C 0.18768 0.20421 0.79097 0.0
H377 H 0.20614 0.23595 0.83072 0.0
C378 C 0.23025 0.22974 0.78533 0.0
C379 C 0.17903 0.20572 0.8076 0.0
C380 C 0.13433 0.17744 0.81448 0.0
C381 C 0.26412 0.25821 0.79578 0.0
C382 C 0.25519 0.26058 0.81232 0.0
C383 C 0.21284 0.23418 0.81802 0.0
C384 C 0.28885 0.29166 0.82379 0.0
C385 C 0.30879 0.28677 0.78891 0.0
C386 C 0.32569 0.28873 0.82746 0.0
C387 C 0.35755 0.31875 0.8381 0.0
C388 C 0.35304 0.35218 0.84528 0.0
C389 C 0.3156 0.35439 0.84181 0.0
C390 C 0.28381 0.32436 0.8312 0.0
H391 H 0.30813 0.28763 0.77549 0.0
H392 H 0.32328 0.32039 0.79378 0.0
H393 H 0.33024 0.27409 0.79246 0.0
H394 H 0.32985 0.26328 0.82207 0.0
H395 H 0.38609 0.3163 0.84044 0.0
H396 H 0.92862 0.08158 0.7028 0.0
H397 H 0.87277 0.07932 0.68503 0.0
H398 H 0.83904 0.95107 0.66844 0.0
H399 H 0.89577 0.95362 0.68589 0.0
H400 H 0.84848 0.00278 0.64356 0.0
H401 H 0.74279 0.01611 0.68959 0.0
H402 H 0.7981 0.05928 0.69135 0.0
H403 H 0.78488 0.00437 0.69481 0.0
C404 C 0.90899 0.0527 0.6955 0.0
C405 C 0.91651 0.01774 0.69576 0.0
C406 C 0.87687 0.05133 0.68542 0.0
C407 C 0.85118 0.01473 0.67559 0.0
C408 C 0.85832 0.97956 0.67598 0.0
H409 H 0.64096 0.95706 0.6075 0.0
H410 H 0.69183 0.95171 0.62585 0.0
C411 C 0.89068 0.98103 0.68597 0.0
C412 C 0.81863 0.0142 0.66426 0.0
H413 H 0.73117 0.02881 0.66216 0.0
C414 C 0.82255 0.00798 0.64766 0.0
C415 C 0.78469 0.02088 0.66961 0.0
C416 C 0.77703 0.02509 0.68733 0.0
C417 C 0.79422 0.00951 0.63625 0.0
C418 C 0.76127 0.01749 0.64159 0.0
C419 C 0.75681 0.02304 0.65816 0.0
C420 C 0.73142 0.02077 0.63008 0.0
C421 C 0.80011 0.00358 0.61852 0.0
C422 C 0.73712 0.06142 0.6264 0.0
C423 C 0.70854 0.06471 0.61575 0.0
C424 C 0.67339 0.02731 0.60872 0.0
C425 C 0.668 0.98658 0.61245 0.0
C426 C 0.69682 0.98338 0.62302 0.0
H427 H 0.8297 0.00151 0.61621 0.0
H428 H 0.77143 0.97338 0.61389 0.0
H429 H 0.80223 0.03093 0.61158 0.0
H430 H 0.7638 0.09061 0.63173 0.0
H431 H 0.71412 0.09662 0.61298 0.0
H432 H 0.87997 0.98456 0.02284 0.0
H433 H 0.83305 0.92412 0.00484 0.0
H434 H 0.90036 0.85743 0.01848 0.0
H435 H 0.9481 0.91812 0.03645 0.0
H436 H 0.88702 0.85612 0.98519 0.0
H437 H 0.73425 0.8058 0.01849 0.0
H438 H 0.76256 0.862 0.01327 0.0
H439 H 0.78712 0.84221 0.02715 0.0
C440 C 0.88485 0.95705 0.02211 0.0
C441 C 0.91779 0.95623 0.03121 0.0
C442 C 0.85778 0.92239 0.01184 0.0
C443 C 0.86273 0.88598 0.01053 0.0
C444 C 0.89584 0.88515 0.0194 0.0
H445 H 0.67029 0.64216 0.96533 0.0
H446 H 0.72176 0.69823 0.984 0.0
C447 C 0.92306 0.91988 0.02968 0.0
C448 C 0.83373 0.84916 0.99967 0.0
H449 H 0.72712 0.77495 0.99214 0.0
C450 C 0.85207 0.83815 0.98675 0.0
C451 C 0.78822 0.8254 1.00187 0.0
C452 C 0.76684 0.8341 0.01603 0.0
C453 C 0.82598 0.80472 0.97571 0.0
C454 C 0.78031 0.78223 0.97751 0.0
C455 C 0.7621 0.79253 0.99067 0.0
C456 C 0.75069 0.74785 0.9659 0.0
C457 C 0.8476 0.7935 0.96234 0.0
C458 C 0.74971 0.75713 0.94952 0.0
C459 C 0.72057 0.725 0.93876 0.0
C460 C 0.69157 0.68299 0.94421 0.0
C461 C 0.69265 0.67389 0.96065 0.0
C462 C 0.72184 0.706 0.97138 0.0
H463 H 0.88215 0.80485 0.96528 0.0
H464 H 0.83046 0.75801 0.95996 0.0
H465 H 0.84675 0.80957 0.95107 0.0
H466 H 0.77106 0.78943 0.94509 0.0
H467 H 0.72083 0.73306 0.92618 0.0
H468 H 0.08854 0.00511 0.35299 0.0
H469 H 0.0943 0.95305 0.33515 0.0
H470 H 0.96534 0.85396 0.34859 0.0
H471 H 0.9598 0.90557 0.36677 0.0
H472 H 0.02192 0.82386 0.34777 0.0
H473 H 0.03527 0.91213 0.29145 0.0
H474 H 0.07604 0.94425 0.30632 0.0
H475 H 0.01982 0.92545 0.3105 0.0
C476 C 0.06146 0.97219 0.35218 0.0
C477 C 0.02357 0.95948 0.36117 0.0
C478 C 0.06468 0.94256 0.34189 0.0
C479 C 0.02986 0.89988 0.34025 0.0
C480 C 0.99248 0.88682 0.34957 0.0
H481 H 0.97001 0.67539 0.28031 0.0
H482 H 0.96839 0.72849 0.29891 0.0
C483 C 0.98935 0.91634 0.35995 0.0
C484 C 0.03231 0.86877 0.32884 0.0
H485 H 0.04626 0.85211 0.28902 0.0
C486 C 0.0271 0.82998 0.33492 0.0
C487 C 0.03896 0.87676 0.31206 0.0
C488 C 0.04243 0.91669 0.30464 0.0
C489 C 0.02887 0.79921 0.3247 0.0
C490 C 0.03575 0.80737 0.30797 0.0
C491 C 0.04118 0.84616 0.30188 0.0
C492 C 0.0367 0.77562 0.29656 0.0
C493 C 0.02387 0.75838 0.33184 0.0
C494 C 0.07548 0.78501 0.28888 0.0
C495 C 0.07651 0.75478 0.27823 0.0
C496 C 0.03861 0.71489 0.27495 0.0
C497 C 0.99964 0.70598 0.28248 0.0
C498 C 0.99873 0.73608 0.29321 0.0
H499 H 0.02727 0.76077 0.34523 0.0
H500 H 0.99118 0.73078 0.32871 0.0
H501 H 0.04836 0.7511 0.32676 0.0
H502 H 0.10504 0.81553 0.29125 0.0
H503 H 0.1069 0.7627 0.2725 0.0
H504 H 0.10725 0.07371 0.68348 0.0
H505 H 0.16057 0.06778 0.66684 0.0
H506 H 0.14998 0.96544 0.69687 0.0
H507 H 0.09594 0.97089 0.71368 0.0
H508 H 0.24092 0.03921 0.6877 0.0
H509 H 0.12644 0.95766 0.63625 0.0
H510 H 0.12697 0.0045 0.64478 0.0
H511 H 0.10835 0.95691 0.65673 0.0
C512 C 0.11632 0.05004 0.68666 0.0
C513 C 0.09719 0.02261 0.69988 0.0
C514 C 0.14671 0.04664 0.67708 0.0
C515 C 0.15876 0.01589 0.68054 0.0
C516 C 0.14083 0.98924 0.69399 0.0
H517 H 0.30973 0.95437 0.61276 0.0
H518 H 0.25598 0.9481 0.63261 0.0
C519 C 0.11005 0.99241 0.70357 0.0
C520 C 0.18973 0.01167 0.66983 0.0
H521 H 0.20134 0.98502 0.63107 0.0
C522 C 0.23225 0.02691 0.67538 0.0
C523 C 0.17809 0.99528 0.65383 0.0
C524 C 0.1324 0.97729 0.64751 0.0
C525 C 0.26402 0.02778 0.66507 0.0
C526 C 0.25288 0.01335 0.64881 0.0
C527 C 0.20987 0.9964 0.6435 0.0
C528 C 0.28574 0.0171 0.63695 0.0
C529 C 0.30931 0.04444 0.67159 0.0
C530 C 0.31977 0.05803 0.6326 0.0
C531 C 0.35021 0.0618 0.62111 0.0
C532 C 0.34724 0.02466 0.61372 0.0
C533 C 0.31276 0.98368 0.61803 0.0
C534 C 0.28219 0.97997 0.62947 0.0
H535 H 0.3098 0.04362 0.68501 0.0
H536 H 0.32334 0.02514 0.66666 0.0
H537 H 0.33041 0.07854 0.66789 0.0
H538 H 0.3225 0.08714 0.63795 0.0
H539 H 0.37578 0.09388 0.61788 0.0
H540 H 0.11617 0.08692 0.0287 0.0
H541 H 0.17534 0.13157 0.01024 0.0
H542 H 0.15997 0.24121 0.02158 0.0
H543 H 0.10002 0.19652 0.03952 0.0
H544 H 0.16321 0.23233 0.99016 0.0
H545 H 0.29946 0.22315 0.01812 0.0
H546 H 0.25369 0.17091 0.01323 0.0
H547 H 0.24847 0.20488 0.02827 0.0
C548 C 0.12585 0.12071 0.02742 0.0
C549 C 0.10331 0.13813 0.03554 0.0
C550 C 0.15985 0.14629 0.01691 0.0
C551 C 0.17254 0.18998 0.01462 0.0
C552 C 0.1508 0.20762 0.0231 0.0
H553 H 0.40358 0.38786 0.96731 0.0
H554 H 0.34866 0.3392 0.98638 0.0
C555 C 0.11651 0.182 0.03338 0.0
C556 C 0.20648 0.21686 0.00268 0.0
H557 H 0.31203 0.25443 0.99204 0.0
C558 C 0.19579 0.23724 0.99062 0.0
C559 C 0.24916 0.22367 0.00335 0.0
C560 C 0.26358 0.20486 0.01653 0.0
C561 C 0.22644 0.26426 0.97926 0.0
C562 C 0.26872 0.26998 0.97959 0.0
C563 C 0.27949 0.24966 0.99166 0.0
C564 C 0.30263 0.2982 0.9679 0.0
C565 C 0.21347 0.28744 0.96737 0.0
C566 C 0.29547 0.29092 0.95114 0.0
C567 C 0.32663 0.319 0.94022 0.0
C568 C 0.36595 0.35436 0.94585 0.0
C569 C 0.37369 0.36072 0.96261 0.0
C570 C 0.34231 0.33297 0.97352 0.0
H571 H 0.18511 0.28961 0.97169 0.0
H572 H 0.24069 0.32072 0.96516 0.0
H573 H 0.20416 0.26919 0.95569 0.0
H574 H 0.26568 0.26363 0.94649 0.0
H575 H 0.32008 0.31293 0.92736 0.0
H576 H 0.96504 0.0925 0.35051 0.0
H577 H 0.9721 0.15254 0.33463 0.0
H578 H 0.07263 0.24336 0.3671 0.0
H579 H 0.06649 0.18298 0.38292 0.0
H580 H 0.96138 0.22061 0.34229 0.0
H581 H 0.13166 0.27921 0.32349 0.0
H582 H 0.09898 0.22785 0.33318 0.0
H583 H 0.12348 0.27731 0.34496 0.0
C584 C 0.9886 0.12522 0.35435 0.0
C585 C 0.01545 0.13296 0.36793 0.0
C586 C 0.99255 0.15955 0.34525 0.0
C587 C 0.02338 0.20244 0.34949 0.0
C588 C 0.0493 0.21047 0.36337 0.0
H589 H 0.05739 0.43591 0.30286 0.0
H590 H 0.05498 0.38465 0.32274 0.0
C591 C 0.04553 0.17598 0.37247 0.0
C592 C 0.02827 0.23823 0.33914 0.0
H593 H 0.09916 0.3186 0.31432 0.0
C594 C 0.9916 0.2422 0.33627 0.0
C595 C 0.06766 0.26619 0.33117 0.0
C596 C 0.10763 0.26235 0.3332 0.0
C597 C 0.99318 0.27303 0.32555 0.0
C598 C 0.03236 0.30061 0.31755 0.0
C599 C 0.06925 0.29734 0.32058 0.0
C600 C 0.03494 0.33189 0.30549 0.0
C601 C 0.95286 0.27562 0.32253 0.0
C602 C 0.02471 0.31905 0.28923 0.0
C603 C 0.02632 0.34826 0.2778 0.0
C604 C 0.03821 0.39089 0.28245 0.0
C605 C 0.04871 0.40358 0.2988 0.0
C606 C 0.04713 0.37433 0.31021 0.0
H607 H 0.92528 0.25299 0.33019 0.0
H608 H 0.9598 0.30916 0.32497 0.0
H609 H 0.94303 0.2678 0.30962 0.0
H610 H 0.01532 0.28634 0.2854 0.0
H611 H 0.01857 0.33753 0.2653 0.0
loop_
_geom_bond_atom_site_label_1
_geom_bond_atom_site_label_2
_geom_bond_distance
_geom_bond_site_symmetry_2
_ccdc_geom_bond_type
Co0 O1 2.216 1_445 S
Co0 O2 2.091 1_545 S
Co0 O4 2.004 . S
Co0 O10 2.021 1_445 S
Co0 O12 2.137 . S
Co0 O13 2.244 1_455 S
O1 Co0 2.216 1_665 S
O1 C8 1.247 1_655 S
O2 Co0 2.091 1_565 S
O2 C8 1.261 . S
C3 O12 1.247 . S
C3 O13 1.272 1_455 S
O4 Co0 2.004 . S
O4 C9 1.259 . S
Co5 O6 2.061 1_655 S
Co5 O11 2.052 . S
Co5 O13 2.135 . S
O6 Co5 2.061 1_455 S
O6 C9 1.235 . S
C7 O10 1.238 . S
C7 O11 1.241 1_565 S
C8 O1 1.247 1_455 S
C8 O2 1.261 . S
C9 O4 1.259 . S
C9 O6 1.235 . S
O10 Co0 2.021 1_665 S
O10 C7 1.238 . S
O11 Co5 2.052 . S
O11 C7 1.241 1_545 S
O12 Co0 2.137 . S
O12 C3 1.247 . S
O13 Co0 2.244 1_655 S
O13 C3 1.272 1_655 S
O13 Co5 2.135 . S
Co14 O15 2.216 1_455 S
Co14 O16 2.091 . S
Co14 O18 2.004 . S
Co14 O24 2.021 . S
Co14 O26 2.137 . S
Co14 O27 2.244 1_545 S
O15 Co14 2.216 1_655 S
O15 C22 1.247 1_655 S
O16 Co14 2.091 . S
O16 C22 1.261 . S
C17 O26 1.247 1_565 S
C17 O27 1.272 . S
O18 Co14 2.004 . S
O18 C23 1.259 . S
Co19 O20 2.061 1_655 S
Co19 O25 2.052 . S
Co19 O27 2.135 1_655 S
O20 Co19 2.061 1_455 S
O20 C23 1.235 1_565 S
C21 O24 1.238 1_655 S
C21 O25 1.241 1_545 S
C22 O15 1.247 1_455 S
C22 O16 1.261 . S
C23 O18 1.259 . S
C23 O20 1.235 1_545 S
O24 Co14 2.021 . S
O24 C21 1.238 1_455 S
O25 Co19 2.052 . S
O25 C21 1.241 1_565 S
O26 Co14 2.137 . S
O26 C17 1.247 1_545 S
O27 Co14 2.244 1_565 S
O27 C17 1.272 . S
O27 Co19 2.135 1_455 S
Co28 O29 2.216 . S
Co28 O30 2.091 1_545 S
Co28 O32 2.004 1_445 S
Co28 O38 2.021 . S
Co28 O40 2.137 1_445 S
Co28 O41 2.244 1_455 S
O29 Co28 2.216 . S
O29 C36 1.247 . S
O30 Co28 2.091 1_565 S
O30 C36 1.261 1_565 S
C31 O40 1.247 1_545 S
C31 O41 1.272 . S
O32 Co28 2.004 1_665 S
O32 C37 1.259 . S
Co33 O34 2.086 . S
Co33 O39 2.052 1_655 S
Co33 O41 2.135 . S
O34 Co33 2.086 . S
O34 C37 1.208 1_545 S
C35 O38 1.238 . S
C35 O39 1.241 . S
C36 O29 1.247 . S
C36 O30 1.261 1_545 S
C37 O32 1.259 . S
C37 O34 1.208 1_565 S
O38 Co28 2.021 . S
O38 C35 1.238 . S
O39 Co33 2.052 1_455 S
O39 C35 1.241 . S
O40 Co28 2.137 1_665 S
O40 C31 1.247 1_565 S
O41 Co28 2.244 1_655 S
O41 C31 1.272 . S
O41 Co33 2.135 . S
C42 C43 1.384 1_655 S
C42 C44 1.384 . S
C42 H70 0.931 . S
C43 C42 1.384 1_455 S
C43 C46 1.382 . S
C44 C42 1.384 . S
C44 C45 1.381 1_655 S
C44 H71 0.930 . S
C45 C44 1.381 1_455 S
C45 C47 1.381 . S
C45 C48 1.487 . S
C46 C43 1.382 . S
C46 C47 1.387 . S
C46 H72 0.930 . S
C47 C45 1.381 . S
C47 C46 1.387 . S
C47 H73 0.931 . S
C48 C45 1.487 . S
C48 C55 1.399 . S
C48 N86 1.343 . S
C49 C50 1.384 . S
C49 C51 1.384 . S
C49 H74 0.931 . S
C50 C49 1.384 . S
C50 C53 1.382 1_455 S
C51 C49 1.384 . S
C51 C52 1.381 . S
C51 H75 0.930 . S
C52 C51 1.381 . S
C52 C54 1.381 1_455 S
C52 C55 1.487 . S
C53 C50 1.382 1_655 S
C53 C54 1.387 . S
C53 H76 0.930 . S
C54 C52 1.381 1_655 S
C54 C53 1.387 . S
C54 H77 0.931 . S
C55 C48 1.399 . S
C55 C52 1.487 . S
C55 N87 1.343 . S
C56 C57 1.384 . S
C56 C58 1.384 . S
C56 H78 0.931 . S
C57 C56 1.384 . S
C57 C60 1.382 1_455 S
C58 C56 1.384 . S
C58 C59 1.381 . S
C58 H79 0.930 . S
C59 C58 1.381 . S
C59 C61 1.381 1_455 S
C59 C62 1.487 . S
C60 C57 1.382 1_655 S
C60 C61 1.387 . S
C60 H80 0.930 . S
C61 C59 1.381 1_655 S
C61 C60 1.387 . S
C61 H81 0.931 . S
C62 C59 1.487 . S
C62 C69 1.399 . S
C62 N87 1.343 . S
C63 C64 1.384 1_655 S
C63 C65 1.384 . S
C63 H82 0.931 . S
C64 C63 1.384 1_455 S
C64 C67 1.382 . S
C65 C63 1.384 . S
C65 C66 1.381 1_655 S
C65 H83 0.930 . S
C66 C65 1.381 1_455 S
C66 C68 1.381 . S
C66 C69 1.487 . S
C67 C64 1.382 . S
C67 C68 1.387 . S
C67 H84 0.930 . S
C68 C66 1.381 . S
C68 C67 1.387 . S
C68 H85 0.931 . S
C69 C62 1.399 . S
C69 C66 1.487 . S
C69 N86 1.343 . S
H70 C42 0.931 . S
H71 C44 0.930 . S
H72 C46 0.930 . S
H73 C47 0.931 . S
H74 C49 0.931 . S
H75 C51 0.930 . S
H76 C53 0.930 . S
H77 C54 0.931 . S
H78 C56 0.931 . S
H79 C58 0.930 . S
H80 C60 0.930 . S
H81 C61 0.931 . S
H82 C63 0.931 . S
H83 C65 0.930 . S
H84 C67 0.930 . S
H85 C68 0.931 . S
N86 C48 1.343 . S
N86 C69 1.343 . S
N87 C55 1.343 . S
N87 C62 1.343 . S
C88 C89 1.384 . S
C88 C90 1.384 . S
C88 H116 0.931 . S
C89 C88 1.384 . S
C89 C92 1.382 1_545 S
C90 C88 1.384 . S
C90 C91 1.381 . S
C90 H117 0.930 . S
C91 C90 1.381 . S
C91 C93 1.381 1_545 S
C91 C94 1.487 . S
C92 C89 1.382 1_565 S
C92 C93 1.387 . S
C92 H118 0.930 . S
C93 C91 1.381 1_565 S
C93 C92 1.387 . S
C93 H119 0.931 . S
C94 C91 1.487 . S
C94 C101 1.399 . S
C94 N132 1.343 . S
C95 C96 1.384 1_565 S
C95 C97 1.384 . S
C95 H120 0.931 . S
C96 C95 1.384 1_545 S
C96 C99 1.382 . S
C97 C95 1.384 . S
C97 C98 1.381 1_565 S
C97 H121 0.930 . S
C98 C97 1.381 1_545 S
C98 C100 1.381 . S
C98 C101 1.487 . S
C99 C96 1.382 . S
C99 C100 1.387 . S
C99 H122 0.930 . S
C100 C98 1.381 . S
C100 C99 1.387 . S
C100 H123 0.931 . S
C101 C94 1.399 . S
C101 C98 1.487 . S
C101 N133 1.343 . S
C102 C103 1.384 1_565 S
C102 C104 1.384 . S
C102 H124 0.931 . S
C103 C102 1.384 1_545 S
C103 C106 1.382 . S
C104 C102 1.384 . S
C104 C105 1.381 1_565 S
C104 H125 0.930 . S
C105 C104 1.381 1_545 S
C105 C107 1.381 . S
C105 C108 1.487 . S
C106 C103 1.382 . S
C106 C107 1.387 . S
C106 H126 0.930 . S
C107 C105 1.381 . S
C107 C106 1.387 . S
C107 H127 0.931 . S
C108 C105 1.487 . S
C108 C115 1.399 . S
C108 N133 1.343 . S
C109 C110 1.384 . S
C109 C111 1.384 . S
C109 H128 0.931 . S
C110 C109 1.384 . S
C110 C113 1.382 1_545 S
C111 C109 1.384 . S
C111 C112 1.381 . S
C111 H129 0.930 . S
C112 C111 1.381 . S
C112 C114 1.381 1_545 S
C112 C115 1.487 . S
C113 C110 1.382 1_565 S
C113 C114 1.387 . S
C113 H130 0.930 . S
C114 C112 1.381 1_565 S
C114 C113 1.387 . S
C114 H131 0.931 . S
C115 C108 1.399 . S
C115 C112 1.487 . S
C115 N132 1.343 . S
H116 C88 0.931 . S
H117 C90 0.930 . S
H118 C92 0.930 . S
H119 C93 0.931 . S
H120 C95 0.931 . S
H121 C97 0.930 . S
H122 C99 0.930 . S
H123 C100 0.931 . S
H124 C102 0.931 . S
H125 C104 0.930 . S
H126 C106 0.930 . S
H127 C107 0.931 . S
H128 C109 0.931 . S
H129 C111 0.930 . S
H130 C113 0.930 . S
H131 C114 0.931 . S
N132 C94 1.343 . S
N132 C115 1.343 . S
N133 C101 1.343 . S
N133 C108 1.343 . S
C134 C135 1.384 . S
C134 C136 1.384 . S
C134 H162 0.931 . S
C135 C134 1.384 . S
C135 C138 1.382 . S
C136 C134 1.384 . S
C136 C137 1.381 . S
C136 H163 0.930 . S
C137 C136 1.381 . S
C137 C139 1.381 . S
C137 C140 1.487 . S
C138 C135 1.382 . S
C138 C139 1.387 . S
C138 H164 0.930 . S
C139 C137 1.381 . S
C139 C138 1.387 . S
C139 H165 0.931 . S
C140 C137 1.487 . S
C140 C147 1.399 . S
C140 N178 1.343 . S
C141 C142 1.384 . S
C141 C143 1.384 . S
C141 H166 0.931 . S
C142 C141 1.384 . S
C142 C145 1.382 . S
C143 C141 1.384 . S
C143 C144 1.381 . S
C143 H167 0.930 . S
C144 C143 1.381 . S
C144 C146 1.381 . S
C144 C147 1.487 . S
C145 C142 1.382 . S
C145 C146 1.387 . S
C145 H168 0.930 . S
C146 C144 1.381 . S
C146 C145 1.387 . S
C146 H169 0.931 . S
C147 C140 1.399 . S
C147 C144 1.487 . S
C147 N179 1.343 . S
C148 C149 1.384 . S
C148 C150 1.384 . S
C148 H170 0.931 . S
C149 C148 1.384 . S
C149 C152 1.382 . S
C150 C148 1.384 . S
C150 C151 1.381 . S
C150 H171 0.930 . S
C151 C150 1.381 . S
C151 C153 1.381 . S
C151 C154 1.487 . S
C152 C149 1.382 . S
C152 C153 1.387 . S
C152 H172 0.930 . S
C153 C151 1.381 . S
C153 C152 1.387 . S
C153 H173 0.931 . S
C154 C151 1.487 . S
C154 C161 1.399 . S
C154 N179 1.343 . S
C155 C156 1.384 . S
C155 C157 1.384 . S
C155 H174 0.931 . S
C156 C155 1.384 . S
C156 C159 1.382 . S
C157 C155 1.384 . S
C157 C158 1.381 . S
C157 H175 0.930 . S
C158 C157 1.381 . S
C158 C160 1.381 . S
C158 C161 1.487 . S
C159 C156 1.382 . S
C159 C160 1.387 . S
C159 H176 0.930 . S
C160 C158 1.381 . S
C160 C159 1.387 . S
C160 H177 0.931 . S
C161 C154 1.399 . S
C161 C158 1.487 . S
C161 N178 1.343 . S
H162 C134 0.931 . S
H163 C136 0.930 . S
H164 C138 0.930 . S
H165 C139 0.931 . S
H166 C141 0.931 . S
H167 C143 0.930 . S
H168 C145 0.930 . S
H169 C146 0.931 . S
H170 C148 0.931 . S
H171 C150 0.930 . S
H172 C152 0.930 . S
H173 C153 0.931 . S
H174 C155 0.931 . S
H175 C157 0.930 . S
H176 C159 0.930 . S
H177 C160 0.931 . S
N178 C140 1.343 . S
N178 C161 1.343 . S
N179 C147 1.343 . S
N179 C154 1.343 . S
H180 C188 0.929 . S
H181 C190 0.930 . S
H182 C192 0.930 . S
H183 C195 0.929 . S
H184 C198 0.930 1_655 S
H185 C200 0.960 . S
H186 C200 0.960 1_655 S
H187 C200 0.960 . S
C188 H180 0.929 . S
C188 C189 1.377 1_655 S
C188 C190 1.384 . S
C189 C188 1.377 1_455 S
C189 C195 1.390 . S
C190 H181 0.930 . S
C190 C188 1.384 . S
C190 C191 1.372 1_655 S
C191 C190 1.372 1_455 S
C191 C192 1.400 . S
C191 C196 1.490 . S
C192 H182 0.930 . S
C192 C191 1.400 . S
C192 C195 1.386 . S
H193 C209 0.930 . S
H194 C210 0.931 . S
C195 H183 0.929 . S
C195 C189 1.390 . S
C195 C192 1.386 . S
C196 C191 1.490 . S
C196 C198 1.395 . S
C196 C199 1.403 . S
H197 C203 0.930 . S
C198 H184 0.930 1_455 S
C198 C196 1.395 . S
C198 C201 1.403 . S
C199 C196 1.403 . S
C199 C200 1.524 . S
C199 C203 1.400 . S
C200 H185 0.960 . S
C200 H186 0.960 1_455 S
C200 H187 0.960 . S
C200 C199 1.524 . S
C201 C198 1.403 . S
C201 C202 1.392 . S
C201 C205 1.495 1_455 S
C202 C201 1.392 . S
C202 C203 1.385 . S
C202 C204 1.478 . S
C203 H197 0.930 . S
C203 C199 1.400 . S
C203 C202 1.385 . S
C204 C202 1.478 . S
C204 C206 1.381 1_455 S
C204 C210 1.383 . S
C205 C201 1.495 1_655 S
C205 H211 0.959 . S
C205 H212 0.961 1_655 S
C205 H213 0.960 . S
C206 C204 1.381 1_655 S
C206 C207 1.394 . S
C206 H214 0.930 . S
C207 C206 1.394 . S
C207 C208 1.383 1_655 S
C207 H215 0.929 . S
C208 C207 1.383 1_455 S
C208 C209 1.377 . S
C209 H193 0.930 . S
C209 C208 1.377 . S
C209 C210 1.379 . S
C210 H194 0.931 . S
C210 C204 1.383 . S
C210 C209 1.379 . S
H211 C205 0.959 . S
H212 C205 0.961 1_455 S
H213 C205 0.960 . S
H214 C206 0.930 . S
H215 C207 0.929 . S
H216 C224 0.929 . S
H217 C226 0.930 . S
H218 C228 0.930 . S
H219 C231 0.929 . S
H220 C234 0.930 . S
H221 C236 0.960 . S
H222 C236 0.960 . S
H223 C236 0.960 1_565 S
C224 H216 0.929 . S
C224 C225 1.377 . S
C224 C226 1.384 . S
C225 C224 1.377 . S
C225 C231 1.390 1_545 S
C226 H217 0.930 . S
C226 C224 1.384 . S
C226 C227 1.372 . S
C227 C226 1.372 . S
C227 C228 1.400 1_545 S
C227 C232 1.490 . S
C228 H218 0.930 . S
C228 C227 1.400 1_565 S
C228 C231 1.386 . S
H229 C245 0.930 . S
H230 C246 0.931 . S
C231 H219 0.929 . S
C231 C225 1.390 1_565 S
C231 C228 1.386 . S
C232 C227 1.490 . S
C232 C234 1.395 . S
C232 C235 1.403 . S
H233 C239 0.930 . S
C234 H220 0.930 . S
C234 C232 1.395 . S
C234 C237 1.403 . S
C235 C232 1.403 . S
C235 C236 1.524 . S
C235 C239 1.400 . S
C236 H221 0.960 . S
C236 H222 0.960 . S
C236 H223 0.960 1_545 S
C236 C235 1.524 . S
C237 C234 1.403 . S
C237 C238 1.392 . S
C237 C241 1.495 . S
C238 C237 1.392 . S
C238 C239 1.385 . S
C238 C240 1.478 . S
C239 H233 0.930 . S
C239 C235 1.400 . S
C239 C238 1.385 . S
C240 C238 1.478 . S
C240 C242 1.381 . S
C240 C246 1.383 1_545 S
C241 C237 1.495 . S
C241 H247 0.959 . S
C241 H248 0.961 . S
C241 H249 0.960 . S
C242 C240 1.381 . S
C242 C243 1.394 . S
C242 H250 0.930 . S
C243 C242 1.394 . S
C243 C244 1.383 . S
C243 H251 0.929 . S
C244 C243 1.383 . S
C244 C245 1.377 1_545 S
C245 H229 0.930 . S
C245 C244 1.377 1_565 S
C245 C246 1.379 . S
C246 H230 0.931 . S
C246 C240 1.383 1_565 S
C246 C245 1.379 . S
H247 C241 0.959 . S
H248 C241 0.961 . S
H249 C241 0.960 . S
H250 C242 0.930 . S
H251 C243 0.929 . S
H252 C260 0.929 . S
H253 C262 0.930 . S
H254 C264 0.930 . S
H255 C267 0.929 . S
H256 C270 0.930 . S
H257 C272 0.960 . S
H258 C272 0.960 . S
H259 C272 0.960 . S
C260 H252 0.929 . S
C260 C261 1.377 . S
C260 C262 1.384 . S
C261 C260 1.377 . S
C261 C267 1.390 . S
C262 H253 0.930 . S
C262 C260 1.384 . S
C262 C263 1.372 . S
C263 C262 1.372 . S
C263 C264 1.400 . S
C263 C268 1.490 . S
C264 H254 0.930 . S
C264 C263 1.400 . S
C264 C267 1.386 . S
H265 C281 0.930 . S
H266 C282 0.931 . S
C267 H255 0.929 . S
C267 C261 1.390 . S
C267 C264 1.386 . S
C268 C263 1.490 . S
C268 C270 1.395 . S
C268 C271 1.403 . S
H269 C275 0.930 . S
C270 H256 0.930 . S
C270 C268 1.395 . S
C270 C273 1.403 . S
C271 C268 1.403 . S
C271 C272 1.524 . S
C271 C275 1.400 . S
C272 H257 0.960 . S
C272 H258 0.960 . S
C272 H259 0.960 . S
C272 C271 1.524 . S
C273 C270 1.403 . S
C273 C274 1.392 . S
C273 C277 1.495 . S
C274 C273 1.392 . S
C274 C275 1.385 . S
C274 C276 1.478 . S
C275 H269 0.930 . S
C275 C271 1.400 . S
C275 C274 1.385 . S
C276 C274 1.478 . S
C276 C278 1.381 . S
C276 C282 1.383 . S
C277 C273 1.495 . S
C277 H283 0.959 . S
C277 H284 0.961 . S
C277 H285 0.960 . S
C278 C276 1.381 . S
C278 C279 1.394 . S
C278 H286 0.930 . S
C279 C278 1.394 . S
C279 C280 1.383 . S
C279 H287 0.929 . S
C280 C279 1.383 . S
C280 C281 1.377 . S
C281 H265 0.930 . S
C281 C280 1.377 . S
C281 C282 1.379 . S
C282 H266 0.931 . S
C282 C276 1.383 . S
C282 C281 1.379 . S
H283 C277 0.959 . S
H284 C277 0.961 . S
H285 C277 0.960 . S
H286 C278 0.930 . S
H287 C279 0.929 . S
H288 C296 0.929 . S
H289 C298 0.930 . S
H290 C300 0.930 . S
H291 C303 0.929 . S
H292 C306 0.930 . S
H293 C308 0.960 . S
H294 C308 0.960 . S
H295 C308 0.960 . S
C296 H288 0.929 . S
C296 C297 1.377 . S
C296 C298 1.384 . S
C297 C296 1.377 . S
C297 C303 1.390 1_455 S
C298 H289 0.930 . S
C298 C296 1.384 . S
C298 C299 1.372 . S
C299 C298 1.372 . S
C299 C300 1.400 1_455 S
C299 C304 1.490 . S
C300 H290 0.930 . S
C300 C299 1.400 1_655 S
C300 C303 1.386 . S
H301 C317 0.930 . S
H302 C318 0.931 . S
C303 H291 0.929 . S
C303 C297 1.390 1_655 S
C303 C300 1.386 . S
C304 C299 1.490 . S
C304 C306 1.395 . S
C304 C307 1.403 . S
H305 C311 0.930 . S
C306 H292 0.930 . S
C306 C304 1.395 . S
C306 C309 1.403 . S
C307 C304 1.403 . S
C307 C308 1.524 . S
C307 C311 1.400 . S
C308 H293 0.960 . S
C308 H294 0.960 . S
C308 H295 0.960 . S
C308 C307 1.524 . S
C309 C306 1.403 . S
C309 C310 1.392 . S
C309 C313 1.495 . S
C310 C309 1.392 . S
C310 C311 1.385 . S
C310 C312 1.478 . S
C311 H305 0.930 . S
C311 C307 1.400 . S
C311 C310 1.385 . S
C312 C310 1.478 . S
C312 C314 1.381 . S
C312 C318 1.383 1_455 S
C313 C309 1.495 . S
C313 H319 0.959 . S
C313 H320 0.961 1_455 S
C313 H321 0.960 . S
C314 C312 1.381 . S
C314 C315 1.394 . S
C314 H322 0.930 . S
C315 C314 1.394 . S
C315 C316 1.383 . S
C315 H323 0.929 . S
C316 C315 1.383 . S
C316 C317 1.377 1_455 S
C317 H301 0.930 . S
C317 C316 1.377 1_655 S
C317 C318 1.379 . S
C318 H302 0.931 . S
C318 C312 1.383 1_655 S
C318 C317 1.379 . S
H319 C313 0.959 . S
H320 C313 0.961 1_655 S
H321 C313 0.960 . S
H322 C314 0.930 . S
H323 C315 0.929 . S
H324 C332 0.929 . S
H325 C334 0.930 . S
H326 C336 0.930 . S
H327 C339 0.939 . S
H328 C342 0.930 . S
H329 C344 0.960 . S
H330 C344 0.960 . S
H331 C344 0.960 1_565 S
C332 H324 0.929 . S
C332 C333 1.377 . S
C332 C334 1.384 . S
C333 C332 1.377 . S
C333 C339 1.373 1_545 S
C334 H325 0.930 . S
C334 C332 1.384 . S
C334 C335 1.372 . S
C335 C334 1.372 . S
C335 C336 1.400 1_545 S
C335 C340 1.490 . S
C336 H326 0.930 . S
C336 C335 1.400 1_565 S
C336 C339 1.393 . S
H337 C353 0.930 . S
H338 C354 0.931 . S
C339 H327 0.939 . S
C339 C333 1.373 1_565 S
C339 C336 1.393 . S
C340 C335 1.490 . S
C340 C342 1.395 . S
C340 C343 1.403 . S
H341 C347 0.930 . S
C342 H328 0.930 . S
C342 C340 1.395 . S
C342 C345 1.403 . S
C343 C340 1.403 . S
C343 C344 1.524 . S
C343 C347 1.400 . S
C344 H329 0.960 . S
C344 H330 0.960 . S
C344 H331 0.960 1_545 S
C344 C343 1.524 . S
C345 C342 1.403 . S
C345 C346 1.392 . S
C345 C349 1.495 . S
C346 C345 1.392 . S
C346 C347 1.385 . S
C346 C348 1.478 . S
C347 H341 0.930 . S
C347 C343 1.400 . S
C347 C346 1.385 . S
C348 C346 1.478 . S
C348 C350 1.381 . S
C348 C354 1.383 1_545 S
C349 C345 1.495 . S
C349 H355 0.959 . S
C349 H356 0.961 . S
C349 H357 0.960 . S
C350 C348 1.381 . S
C350 C351 1.394 . S
C350 H358 0.930 . S
C351 C350 1.394 . S
C351 C352 1.383 . S
C351 H359 0.929 . S
C352 C351 1.383 . S
C352 C353 1.377 1_545 S
C353 H337 0.930 . S
C353 C352 1.377 1_565 S
C353 C354 1.379 . S
C354 H338 0.931 . S
C354 C348 1.383 1_565 S
C354 C353 1.379 . S
H355 C349 0.959 . S
H356 C349 0.961 . S
H357 C349 0.960 . S
H358 C350 0.930 . S
H359 C351 0.929 . S
H360 C368 0.929 . S
H361 C370 0.930 . S
H362 C372 0.930 . S
H363 C375 0.929 . S
H364 C378 0.930 . S
H365 C380 0.960 . S
H366 C380 0.960 . S
H367 C380 0.960 . S
C368 H360 0.929 . S
C368 C369 1.377 . S
C368 C370 1.384 . S
C369 C368 1.377 . S
C369 C375 1.390 . S
C370 H361 0.930 . S
C370 C368 1.384 . S
C370 C371 1.372 . S
C371 C370 1.372 . S
C371 C372 1.400 . S
C371 C376 1.490 . S
C372 H362 0.930 . S
C372 C371 1.400 . S
C372 C375 1.386 . S
H373 C389 0.930 . S
H374 C390 0.931 . S
C375 H363 0.929 . S
C375 C369 1.390 . S
C375 C372 1.386 . S
C376 C371 1.490 . S
C376 C378 1.395 . S
C376 C379 1.403 . S
H377 C383 0.930 . S
C378 H364 0.930 . S
C378 C376 1.395 . S
C378 C381 1.403 . S
C379 C376 1.403 . S
C379 C380 1.524 . S
C379 C383 1.400 . S
C380 H365 0.960 . S
C380 H366 0.960 . S
C380 H367 0.960 . S
C380 C379 1.524 . S
C381 C378 1.403 . S
C381 C382 1.392 . S
C381 C385 1.495 . S
C382 C381 1.392 . S
C382 C383 1.385 . S
C382 C384 1.478 . S
C383 H377 0.930 . S
C383 C379 1.400 . S
C383 C382 1.385 . S
C384 C382 1.478 . S
C384 C386 1.381 . S
C384 C390 1.383 . S
C385 C381 1.495 . S
C385 H391 0.959 . S
C385 H392 0.961 . S
C385 H393 0.960 . S
C386 C384 1.381 . S
C386 C387 1.394 . S
C386 H394 0.930 . S
C387 C386 1.394 . S
C387 C388 1.383 . S
C387 H395 0.929 . S
C388 C387 1.383 . S
C388 C389 1.377 . S
C389 H373 0.930 . S
C389 C388 1.377 . S
C389 C390 1.379 . S
C390 H374 0.931 . S
C390 C384 1.383 . S
C390 C389 1.379 . S
H391 C385 0.959 . S
H392 C385 0.961 . S
H393 C385 0.960 . S
H394 C386 0.930 . S
H395 C387 0.929 . S
H396 C404 0.929 . S
H397 C406 0.930 . S
H398 C408 0.930 . S
H399 C411 0.929 . S
H400 C414 0.930 . S
H401 C416 0.960 . S
H402 C416 0.960 . S
H403 C416 0.960 . S
C404 H396 0.929 . S
C404 C405 1.377 . S
C404 C406 1.384 . S
C405 C404 1.377 . S
C405 C411 1.390 1_545 S
C406 H397 0.930 . S
C406 C404 1.384 . S
C406 C407 1.372 . S
C407 C406 1.372 . S
C407 C408 1.400 1_545 S
C407 C412 1.490 . S
C408 H398 0.930 . S
C408 C407 1.400 1_565 S
C408 C411 1.386 . S
H409 C425 0.930 . S
H410 C426 0.931 . S
C411 H399 0.929 . S
C411 C405 1.390 1_565 S
C411 C408 1.386 . S
C412 C407 1.490 . S
C412 C414 1.395 . S
C412 C415 1.403 . S
H413 C419 0.930 . S
C414 H400 0.930 . S
C414 C412 1.395 . S
C414 C417 1.403 . S
C415 C412 1.403 . S
C415 C416 1.524 . S
C415 C419 1.400 . S
C416 H401 0.960 . S
C416 H402 0.960 . S
C416 H403 0.960 . S
C416 C415 1.524 . S
C417 C414 1.403 . S
C417 C418 1.392 . S
C417 C421 1.495 . S
C418 C417 1.392 . S
C418 C419 1.385 . S
C418 C420 1.478 . S
C419 H413 0.930 . S
C419 C415 1.400 . S
C419 C418 1.385 . S
C420 C418 1.478 . S
C420 C422 1.381 . S
C420 C426 1.383 1_545 S
C421 C417 1.495 . S
C421 H427 0.959 1_545 S
C421 H428 0.961 1_545 S
C421 H429 0.960 . S
C422 C420 1.381 . S
C422 C423 1.394 . S
C422 H430 0.930 . S
C423 C422 1.394 . S
C423 C424 1.383 . S
C423 H431 0.929 . S
C424 C423 1.383 . S
C424 C425 1.377 1_545 S
C425 H409 0.930 . S
C425 C424 1.377 1_565 S
C425 C426 1.379 . S
C426 H410 0.931 . S
C426 C420 1.383 1_565 S
C426 C425 1.379 . S
H427 C421 0.959 1_565 S
H428 C421 0.961 1_565 S
H429 C421 0.960 . S
H430 C422 0.930 . S
H431 C423 0.929 . S
H432 C440 0.929 . S
H433 C442 0.930 1_556 S
H434 C444 0.930 . S
H435 C447 0.929 . S
H436 C450 0.930 . S
H437 C452 0.960 . S
H438 C452 0.960 . S
H439 C452 0.960 . S
C440 H432 0.929 . S
C440 C441 1.377 . S
C440 C442 1.384 . S
C441 C440 1.377 . S
C441 C447 1.390 . S
C442 H433 0.930 1_554 S
C442 C440 1.384 . S
C442 C443 1.372 . S
C443 C442 1.372 . S
C443 C444 1.400 . S
C443 C448 1.490 1_554 S
C444 H434 0.930 . S
C444 C443 1.400 . S
C444 C447 1.386 . S
H445 C461 0.930 . S
H446 C462 0.931 . S
C447 H435 0.929 . S
C447 C441 1.390 . S
C447 C444 1.386 . S
C448 C443 1.490 1_556 S
C448 C450 1.395 . S
C448 C451 1.415 . S
H449 C455 0.930 . S
C450 H436 0.930 . S
C450 C448 1.395 . S
C450 C453 1.403 . S
C451 C448 1.415 . S
C451 C452 1.481 1_556 S
C451 C455 1.435 . S
C452 H437 0.960 . S
C452 H438 0.960 . S
C452 H439 0.960 . S
C452 C451 1.481 1_554 S
C453 C450 1.403 . S
C453 C454 1.392 . S
C453 C457 1.495 . S
C454 C453 1.392 . S
C454 C455 1.385 . S
C454 C456 1.478 . S
C455 H449 0.930 . S
C455 C451 1.435 . S
C455 C454 1.385 . S
C456 C454 1.478 . S
C456 C458 1.381 . S
C456 C462 1.383 . S
C457 C453 1.495 . S
C457 H463 0.959 . S
C457 H464 0.961 . S
C457 H465 0.960 . S
C458 C456 1.381 . S
C458 C459 1.394 . S
C458 H466 0.930 . S
C459 C458 1.394 . S
C459 C460 1.383 . S
C459 H467 0.929 . S
C460 C459 1.383 . S
C460 C461 1.377 . S
C461 H445 0.930 . S
C461 C460 1.377 . S
C461 C462 1.379 . S
C462 H446 0.931 . S
C462 C456 1.383 . S
C462 C461 1.379 . S
H463 C457 0.959 . S
H464 C457 0.961 . S
H465 C457 0.960 . S
H466 C458 0.930 . S
H467 C459 0.929 . S
H468 C476 0.929 . S
H469 C478 0.930 . S
H470 C480 0.930 . S
H471 C483 0.929 . S
H472 C486 0.930 . S
H473 C488 0.960 . S
H474 C488 0.960 . S
H475 C488 0.960 . S
C476 H468 0.929 . S
C476 C477 1.377 . S
C476 C478 1.384 . S
C477 C476 1.377 . S
C477 C483 1.390 1_455 S
C478 H469 0.930 . S
C478 C476 1.384 . S
C478 C479 1.372 . S
C479 C478 1.372 . S
C479 C480 1.400 1_455 S
C479 C484 1.490 . S
C480 H470 0.930 . S
C480 C479 1.400 1_655 S
C480 C483 1.386 . S
H481 C497 0.930 . S
H482 C498 0.931 . S
C483 H471 0.929 . S
C483 C477 1.390 1_655 S
C483 C480 1.386 . S
C484 C479 1.490 . S
C484 C486 1.395 . S
C484 C487 1.403 . S
H485 C491 0.930 . S
C486 H472 0.930 . S
C486 C484 1.395 . S
C486 C489 1.403 . S
C487 C484 1.403 . S
C487 C488 1.524 . S
C487 C491 1.400 . S
C488 H473 0.960 . S
C488 H474 0.960 . S
C488 H475 0.960 . S
C488 C487 1.524 . S
C489 C486 1.403 . S
C489 C490 1.392 . S
C489 C493 1.495 . S
C490 C489 1.392 . S
C490 C491 1.385 . S
C490 C492 1.478 . S
C491 H485 0.930 . S
C491 C487 1.400 . S
C491 C490 1.385 . S
C492 C490 1.478 . S
C492 C494 1.381 . S
C492 C498 1.383 1_455 S
C493 C489 1.495 . S
C493 H499 0.959 . S
C493 H500 0.961 1_455 S
C493 H501 0.960 . S
C494 C492 1.381 . S
C494 C495 1.394 . S
C494 H502 0.930 . S
C495 C494 1.394 . S
C495 C496 1.383 . S
C495 H503 0.929 . S
C496 C495 1.383 . S
C496 C497 1.377 1_455 S
C497 H481 0.930 . S
C497 C496 1.377 1_655 S
C497 C498 1.379 . S
C498 H482 0.931 . S
C498 C492 1.383 1_655 S
C498 C497 1.379 . S
H499 C493 0.959 . S
H500 C493 0.961 1_655 S
H501 C493 0.960 . S
H502 C494 0.930 . S
H503 C495 0.929 . S
H504 C512 0.929 . S
H505 C514 0.930 . S
H506 C516 0.930 . S
H507 C519 0.929 . S
H508 C522 0.930 . S
H509 C524 0.960 . S
H510 C524 0.960 1_545 S
H511 C524 0.960 . S
C512 H504 0.929 . S
C512 C513 1.377 . S
C512 C514 1.384 . S
C513 C512 1.377 . S
C513 C519 1.390 1_545 S
C514 H505 0.930 . S
C514 C512 1.384 . S
C514 C515 1.372 . S
C515 C514 1.372 . S
C515 C516 1.400 1_545 S
C515 C520 1.490 . S
C516 H506 0.930 . S
C516 C515 1.400 1_565 S
C516 C519 1.386 . S
H517 C533 0.930 . S
H518 C534 0.931 . S
C519 H507 0.929 . S
C519 C513 1.390 1_565 S
C519 C516 1.386 . S
C520 C515 1.490 . S
C520 C522 1.395 . S
C520 C523 1.403 . S
H521 C527 0.930 . S
C522 H508 0.930 . S
C522 C520 1.395 . S
C522 C525 1.403 . S
C523 C520 1.403 . S
C523 C524 1.524 1_545 S
C523 C527 1.400 . S
C524 H509 0.960 . S
C524 H510 0.960 1_565 S
C524 H511 0.960 . S
C524 C523 1.524 1_565 S
C525 C522 1.403 . S
C525 C526 1.392 . S
C525 C529 1.495 . S
C526 C525 1.392 . S
C526 C527 1.385 . S
C526 C528 1.478 . S
C527 H521 0.930 . S
C527 C523 1.400 . S
C527 C526 1.385 . S
C528 C526 1.478 . S
C528 C530 1.381 . S
C528 C534 1.383 1_545 S
C529 C525 1.495 . S
C529 H535 0.959 . S
C529 H536 0.961 . S
C529 H537 0.960 . S
C530 C528 1.381 . S
C530 C531 1.394 . S
C530 H538 0.930 . S
C531 C530 1.394 . S
C531 C532 1.383 . S
C531 H539 0.929 . S
C532 C531 1.383 . S
C532 C533 1.377 1_545 S
C533 H517 0.930 . S
C533 C532 1.377 1_565 S
C533 C534 1.379 . S
C534 H518 0.931 . S
C534 C528 1.383 1_565 S
C534 C533 1.379 . S
H535 C529 0.959 . S
H536 C529 0.961 . S
H537 C529 0.960 . S
H538 C530 0.930 . S
H539 C531 0.929 . S
H540 C548 0.929 . S
H541 C550 0.902 1_556 S
H542 C552 0.930 . S
H543 C555 0.929 . S
H544 C558 0.930 . S
H545 C560 0.960 . S
H546 C560 0.960 . S
H547 C560 0.960 . S
C548 H540 0.929 . S
C548 C549 1.377 . S
C548 C550 1.403 . S
C549 C548 1.377 . S
C549 C555 1.390 . S
C550 H541 0.902 1_554 S
C550 C548 1.403 . S
C550 C551 1.381 . S
C551 C550 1.381 . S
C551 C552 1.400 . S
C551 C556 1.490 1_554 S
C552 H542 0.930 . S
C552 C551 1.400 . S
C552 C555 1.386 . S
H553 C569 0.930 . S
H554 C570 0.931 . S
C555 H543 0.929 . S
C555 C549 1.390 . S
C555 C552 1.386 . S
C556 C551 1.490 1_556 S
C556 C558 1.395 . S
C556 C559 1.403 . S
H557 C563 0.930 . S
C558 H544 0.930 . S
C558 C556 1.395 . S
C558 C561 1.403 . S
C559 C556 1.403 . S
C559 C560 1.524 1_556 S
C559 C563 1.400 . S
C560 H545 0.960 . S
C560 H546 0.960 . S
C560 H547 0.960 . S
C560 C559 1.524 1_554 S
C561 C558 1.403 . S
C561 C562 1.392 . S
C561 C565 1.495 . S
C562 C561 1.392 . S
C562 C563 1.385 . S
C562 C564 1.478 . S
C563 H557 0.930 . S
C563 C559 1.400 . S
C563 C562 1.385 . S
C564 C562 1.478 . S
C564 C566 1.381 . S
C564 C570 1.383 . S
C565 C561 1.495 . S
C565 H571 0.959 . S
C565 H572 0.961 . S
C565 H573 0.960 . S
C566 C564 1.381 . S
C566 C567 1.394 . S
C566 H574 0.930 . S
C567 C566 1.394 . S
C567 C568 1.383 . S
C567 H575 0.929 . S
C568 C567 1.383 . S
C568 C569 1.377 . S
C569 H553 0.930 . S
C569 C568 1.377 . S
C569 C570 1.379 . S
C570 H554 0.931 . S
C570 C564 1.383 . S
C570 C569 1.379 . S
H571 C565 0.959 . S
H572 C565 0.961 . S
H573 C565 0.960 . S
H574 C566 0.930 . S
H575 C567 0.929 . S
H576 C584 0.929 . S
H577 C586 0.930 . S
H578 C588 0.930 . S
H579 C591 0.929 . S
H580 C594 0.930 . S
H581 C596 0.960 . S
H582 C596 0.960 . S
H583 C596 0.960 . S
C584 H576 0.929 . S
C584 C585 1.377 . S
C584 C586 1.384 . S
C585 C584 1.377 . S
C585 C591 1.390 . S
C586 H577 0.930 . S
C586 C584 1.384 . S
C586 C587 1.372 . S
C587 C586 1.372 . S
C587 C588 1.400 . S
C587 C592 1.490 . S
C588 H578 0.930 . S
C588 C587 1.400 . S
C588 C591 1.386 . S
H589 C605 0.930 . S
H590 C606 0.931 . S
C591 H579 0.929 . S
C591 C585 1.390 . S
C591 C588 1.386 . S
C592 C587 1.490 . S
C592 C594 1.395 1_455 S
C592 C595 1.403 . S
H593 C599 0.930 . S
C594 H580 0.930 . S
C594 C592 1.395 1_655 S
C594 C597 1.403 . S
C595 C592 1.403 . S
C595 C596 1.524 . S
C595 C599 1.400 . S
C596 H581 0.960 . S
C596 H582 0.960 . S
C596 H583 0.960 . S
C596 C595 1.524 . S
C597 C594 1.403 . S
C597 C598 1.392 1_655 S
C597 C601 1.495 . S
C598 C597 1.392 1_455 S
C598 C599 1.385 . S
C598 C600 1.478 . S
C599 H593 0.930 . S
C599 C595 1.400 . S
C599 C598 1.385 . S
C600 C598 1.478 . S
C600 C602 1.381 . S
C600 C606 1.383 1_455 S
C601 C597 1.495 . S
C601 H607 0.959 . S
C601 H608 0.961 . S
C601 H609 0.960 . S
C602 C600 1.381 . S
C602 C603 1.394 . S
C602 H610 0.930 . S
C603 C602 1.394 . S
C603 C604 1.383 . S
C603 H611 0.929 . S
C604 C603 1.383 . S
C604 C605 1.377 1_455 S
C605 H589 0.930 . S
C605 C604 1.377 1_655 S
C605 C606 1.379 . S
C606 H590 0.931 . S
C606 C600 1.383 1_655 S
C606 C605 1.379 . S
H607 C601 0.959 . S
H608 C601 0.961 . S
H609 C601 0.960 . S
H610 C602 0.930 . S
H611 C603 0.929 . S
C208 C50 1.489 . S
C189 C3 1.493 . S
C225 C21 1.512 . S
C244 C89 1.530 . S
C261 C37 1.489 . S
C280 C156 1.508 . S
C297 C8 1.499 . S
C316 C57 1.494 . S
C352 C110 1.511 . S
C333 C23 1.499 . S
C369 C35 1.488 . S
C388 C135 1.509 . S
C424 C96 1.480 . S
C405 C31 1.482 . S
C441 C7 1.485 . S
C460 C149 1.502 . S
C496 C64 1.494 . S
C477 C17 1.490 . S
C532 C103 1.470 . S
C513 C36 1.473 . S
C568 C142 1.508 . S
C549 C9 1.492 . S
C585 C22 1.499 . S
C604 C43 1.497 . S
