# Generated by pormake.
# Topology sqc, (4,8)-cn, num edge types: 1
# Building blocks:
#     Node 0, Type 0, BuildingBlock: KUFVIS_clean_linker_0, # of connection points: 4
#     Node 1, Type 0, BuildingBlock: KUFVIS_clean_linker_0, # of connection points: 4
#     Node 2, Type 0, BuildingBlock: KUFVIS_clean_linker_0, # of connection points: 4
#     Node 3, Type 0, BuildingBlock: KUFVIS_clean_linker_0, # of connection points: 4
#     Node 4, Type 0, BuildingBlock: KUFVIS_clean_linker_0, # of connection points: 4
#     Node 5, Type 0, BuildingBlock: KUFVIS_clean_linker_0, # of connection points: 4
#     Node 6, Type 0, BuildingBlock: KUFVIS_clean_linker_0, # of connection points: 4
#     Node 7, Type 0, BuildingBlock: KUFVIS_clean_linker_0, # of connection points: 4
#     Node 8, Type 1, BuildingBlock: TAGTUT_clean_sbu_3, # of connection points: 8
#     Node 9, Type 1, BuildingBlock: TAGTUT_clean_sbu_3, # of connection points: 8
#     Node 10, Type 1, BuildingBlock: TAGTUT_clean_sbu_3, # of connection points: 8
#     Node 11, Type 1, BuildingBlock: TAGTUT_clean_sbu_3, # of connection points: 8
#     Edge 12, Type (0, 1), BuildingBlock: MIFKUJ_clean_linker_0, # of connection points: 2
#     Edge 13, Type (0, 1), BuildingBlock: MIFKUJ_clean_linker_0, # of connection points: 2
#     Edge 14, Type (0, 1), BuildingBlock: MIFKUJ_clean_linker_0, # of connection points: 2
#     Edge 15, Type (0, 1), BuildingBlock: MIFKUJ_clean_linker_0, # of connection points: 2
#     Edge 16, Type (0, 1), BuildingBlock: MIFKUJ_clean_linker_0, # of connection points: 2
#     Edge 17, Type (0, 1), BuildingBlock: MIFKUJ_clean_linker_0, # of connection points: 2
#     Edge 18, Type (0, 1), BuildingBlock: MIFKUJ_clean_linker_0, # of connection points: 2
#     Edge 19, Type (0, 1), BuildingBlock: MIFKUJ_clean_linker_0, # of connection points: 2
#     Edge 20, Type (0, 1), BuildingBlock: MIFKUJ_clean_linker_0, # of connection points: 2
#     Edge 21, Type (0, 1), BuildingBlock: MIFKUJ_clean_linker_0, # of connection points: 2
#     Edge 22, Type (0, 1), BuildingBlock: MIFKUJ_clean_linker_0, # of connection points: 2
#     Edge 23, Type (0, 1), BuildingBlock: MIFKUJ_clean_linker_0, # of connection points: 2
#     Edge 24, Type (0, 1), BuildingBlock: MIFKUJ_clean_linker_0, # of connection points: 2
#     Edge 25, Type (0, 1), BuildingBlock: MIFKUJ_clean_linker_0, # of connection points: 2
#     Edge 26, Type (0, 1), BuildingBlock: MIFKUJ_clean_linker_0, # of connection points: 2
#     Edge 27, Type (0, 1), BuildingBlock: MIFKUJ_clean_linker_0, # of connection points: 2
#     Edge 28, Type (0, 1), BuildingBlock: MIFKUJ_clean_linker_0, # of connection points: 2
#     Edge 29, Type (0, 1), BuildingBlock: MIFKUJ_clean_linker_0, # of connection points: 2
#     Edge 30, Type (0, 1), BuildingBlock: MIFKUJ_clean_linker_0, # of connection points: 2
#     Edge 31, Type (0, 1), BuildingBlock: MIFKUJ_clean_linker_0, # of connection points: 2
#     Edge 32, Type (0, 1), BuildingBlock: MIFKUJ_clean_linker_0, # of connection points: 2
#     Edge 33, Type (0, 1), BuildingBlock: MIFKUJ_clean_linker_0, # of connection points: 2
#     Edge 34, Type (0, 1), BuildingBlock: MIFKUJ_clean_linker_0, # of connection points: 2
#     Edge 35, Type (0, 1), BuildingBlock: MIFKUJ_clean_linker_0, # of connection points: 2
#     Edge 36, Type (0, 1), BuildingBlock: MIFKUJ_clean_linker_0, # of connection points: 2
#     Edge 37, Type (0, 1), BuildingBlock: MIFKUJ_clean_linker_0, # of connection points: 2
#     Edge 38, Type (0, 1), BuildingBlock: MIFKUJ_clean_linker_0, # of connection points: 2
#     Edge 39, Type (0, 1), BuildingBlock: MIFKUJ_clean_linker_0, # of connection points: 2
#     Edge 40, Type (0, 1), BuildingBlock: MIFKUJ_clean_linker_0, # of connection points: 2
#     Edge 41, Type (0, 1), BuildingBlock: MIFKUJ_clean_linker_0, # of connection points: 2
#     Edge 42, Type (0, 1), BuildingBlock: MIFKUJ_clean_linker_0, # of connection points: 2
#     Edge 43, Type (0, 1), BuildingBlock: MIFKUJ_clean_linker_0, # of connection points: 2
# Relax obj value: 0.178
# Max RMSD: 0.272
# Mean RMSD: 0.223
data_MOF--net-sqc--node1-TAGTUT_clean_sbu_3--node2-KUFVIS_clean_linker_0--edge1-MIFKUJ_clean_linker_0
_symmetry_space_group_name_H-M    P1
_symmetry_Int_Tables_number       1
_symmetry_cell_setting            triclinic
loop_
_symmetry_equiv_pos_as_xyz
'x, y, z'
_cell_length_a     31.469944
_cell_length_b     31.466006
_cell_length_c     88.633871
_cell_angle_alpha  90.816717
_cell_angle_beta   90.039036
_cell_angle_gamma 90.090702
loop_
_atom_site_label
_atom_site_type_symbol
_atom_site_fract_x
_atom_site_fract_y
_atom_site_fract_z
_atom_type_partial_charge
H0 H 0.89374 0.00956 0.5048 0.0
H1 H 0.01024 0.01979 0.5298 0.0
H2 H 0.01254 0.99451 0.48167 0.0
H3 H 0.06886 0.94955 0.49157 0.0
H4 H 0.18825 0.99948 0.50706 0.0
H5 H 0.07267 0.06089 0.52084 0.0
C6 C 0.92823 0.00935 0.50504 0.0
C7 C 0.95068 0.00212 0.49167 0.0
C8 C 0.94935 0.01527 0.51877 0.0
C9 C 0.99398 0.01534 0.51911 0.0
C10 C 0.01741 0.00756 0.50575 0.0
C11 C 0.99526 0.00056 0.49205 0.0
C12 C 0.06475 0.00547 0.50617 0.0
C13 C 0.08643 0.97321 0.49803 0.0
C14 C 0.13089 0.97067 0.49861 0.0
C15 C 0.1538 0.00112 0.50685 0.0
C16 C 0.13324 0.0338 0.51474 0.0
C17 C 0.0886 0.03556 0.51468 0.0
H18 H 0.26775 0.86343 0.74531 0.0
H19 H 0.27442 0.75361 0.77306 0.0
H20 H 0.33134 0.75269 0.72849 0.0
H21 H 0.3737 0.70586 0.73793 0.0
H22 H 0.35416 0.58291 0.75679 0.0
H23 H 0.26975 0.68386 0.76896 0.0
C24 C 0.27704 0.83051 0.74666 0.0
C25 C 0.30163 0.81048 0.73556 0.0
C26 C 0.26637 0.80977 0.75997 0.0
C27 C 0.28131 0.76834 0.76238 0.0
C28 C 0.30494 0.74654 0.75109 0.0
C29 C 0.31433 0.76824 0.7376 0.0
C30 C 0.31983 0.70158 0.75326 0.0
C31 C 0.35528 0.68553 0.74517 0.0
C32 C 0.36732 0.64268 0.74611 0.0
C33 C 0.34572 0.61624 0.75609 0.0
C34 C 0.31138 0.63146 0.76451 0.0
C35 C 0.29788 0.67363 0.76291 0.0
H36 H 0.75614 0.04435 0.00843 0.0
H37 H 0.65464 0.96379 0.02216 0.0
H38 H 0.64517 0.034 0.98077 0.0
H39 H 0.57784 0.0374 0.98576 0.0
H40 H 0.47672 0.95411 0.99784 0.0
H41 H 0.60152 0.92905 0.01428 0.0
C42 C 0.72519 0.03045 0.00627 0.0
C43 C 0.70265 0.04231 0.99337 0.0
C44 C 0.70943 0.99959 0.01602 0.0
C45 C 0.66732 0.98565 0.01409 0.0
C46 C 0.64236 0.99905 0.00175 0.0
C47 C 0.66149 0.02615 0.99109 0.0
C48 C 0.59682 0.98485 0.0 0.0
C49 C 0.56792 0.00864 0.99129 0.0
C50 C 0.52499 0.99697 0.99019 0.0
C51 C 0.51022 0.96206 0.99824 0.0
C52 C 0.53756 0.93863 0.00737 0.0
C53 C 0.58093 0.94903 0.00772 0.0
H54 H 0.36105 0.44233 0.2394 0.0
H55 H 0.3911 0.33525 0.26667 0.0
H56 H 0.3491 0.31754 0.22038 0.0
H57 H 0.32294 0.25643 0.2298 0.0
H58 H 0.38285 0.14981 0.2507 0.0
H59 H 0.42427 0.27516 0.26236 0.0
C60 C 0.3649 0.40835 0.24066 0.0
C61 C 0.35404 0.38174 0.22857 0.0
C62 C 0.37958 0.39209 0.25429 0.0
C63 C 0.38126 0.34771 0.25593 0.0
C64 C 0.37045 0.31974 0.2438 0.0
C65 C 0.35693 0.33755 0.23002 0.0
C66 C 0.37378 0.27238 0.24553 0.0
C67 C 0.34712 0.24414 0.23724 0.0
C68 C 0.35017 0.1998 0.23903 0.0
C69 C 0.38019 0.18383 0.24915 0.0
C70 C 0.40575 0.21102 0.25783 0.0
C71 C 0.40309 0.25498 0.25583 0.0
H72 H 0.83822 0.36282 0.26697 0.0
H73 H 0.76971 0.24965 0.27686 0.0
H74 H 0.88269 0.24453 0.24883 0.0
H75 H 0.856 0.18808 0.23955 0.0
H76 H 0.79787 0.07191 0.25313 0.0
H77 H 0.78292 0.18282 0.28086 0.0
C78 C 0.83583 0.32849 0.26609 0.0
C79 C 0.86351 0.30583 0.25664 0.0
C80 C 0.80307 0.30798 0.27373 0.0
C81 C 0.7969 0.26418 0.27154 0.0
C82 C 0.82533 0.2399 0.26254 0.0
C83 C 0.85927 0.2615 0.25544 0.0
C84 C 0.81879 0.1928 0.26016 0.0
C85 C 0.83684 0.17124 0.24758 0.0
C86 C 0.83142 0.12724 0.24539 0.0
C87 C 0.80402 0.10546 0.25504 0.0
C88 C 0.78663 0.12541 0.26777 0.0
C89 C 0.79496 0.16864 0.27054 0.0
H90 H 0.82891 0.94057 0.7504 0.0
H91 H 0.87553 0.82258 0.76705 0.0
H92 H 0.83757 0.83253 0.72031 0.0
H93 H 0.8158 0.75983 0.72701 0.0
H94 H 0.89569 0.65529 0.73967 0.0
H95 H 0.92523 0.78058 0.75564 0.0
C96 C 0.83602 0.90718 0.74852 0.0
C97 C 0.83019 0.88909 0.73413 0.0
C98 C 0.85319 0.88348 0.76026 0.0
C99 C 0.86338 0.84079 0.7577 0.0
C100 C 0.85794 0.82169 0.74333 0.0
C101 C 0.84146 0.84633 0.7315 0.0
C102 C 0.87004 0.77626 0.74099 0.0
C103 C 0.84425 0.74813 0.73243 0.0
C104 C 0.8532 0.70424 0.73197 0.0
C105 C 0.88897 0.68908 0.73968 0.0
C106 C 0.91409 0.71634 0.74851 0.0
C107 C 0.90531 0.75985 0.74878 0.0
H108 H 0.68969 0.46895 0.01002 0.0
H109 H 0.571 0.42214 0.99385 0.0
H110 H 0.57615 0.51054 0.03199 0.0
H111 H 0.51301 0.4926 0.03674 0.0
H112 H 0.39354 0.46472 0.01647 0.0
H113 H 0.50643 0.44171 0.99086 0.0
C114 C 0.65542 0.46772 0.0112 0.0
C115 C 0.63558 0.49039 0.02287 0.0
C116 C 0.63225 0.44323 0.0009 0.0
C117 C 0.58773 0.44266 0.00172 0.0
C118 C 0.56583 0.4672 0.01282 0.0
C119 C 0.59081 0.49126 0.02331 0.0
C120 C 0.51762 0.46671 0.0137 0.0
C121 C 0.49611 0.48115 0.0269 0.0
C122 C 0.45166 0.48073 0.02771 0.0
C123 C 0.42797 0.46434 0.01572 0.0
C124 C 0.44764 0.44931 0.00259 0.0
C125 C 0.49224 0.45172 0.0014 0.0
H126 H 0.25632 0.46216 0.48363 0.0
H127 H 0.15449 0.4024 0.50695 0.0
H128 H 0.13419 0.4548 0.46252 0.0
H129 H 0.0697 0.46239 0.46996 0.0
H130 H 0.97003 0.39348 0.4912 0.0
H131 H 0.09887 0.36496 0.5024 0.0
C132 C 0.22344 0.45176 0.48382 0.0
C133 C 0.19636 0.46168 0.47184 0.0
C134 C 0.20842 0.42923 0.49618 0.0
C135 C 0.16558 0.41733 0.49677 0.0
C136 C 0.13748 0.42634 0.48479 0.0
C137 C 0.15388 0.44811 0.47219 0.0
C138 C 0.09113 0.41499 0.48585 0.0
C139 C 0.0604 0.43734 0.47748 0.0
C140 C 0.01691 0.42837 0.4789 0.0
C141 C 0.00373 0.39807 0.48928 0.0
C142 C 0.03325 0.3762 0.49807 0.0
C143 C 0.07676 0.38353 0.4959 0.0
C144 C 0.13425 0.68946 0.15208 0.0
C145 C 0.98787 0.62679 0.15538 0.0
C146 C 0.96362 0.68444 0.11216 0.0
Mg147 Mg 0.17528 0.77022 0.13583 0.0
Mg148 Mg 0.12347 0.84812 0.11923 0.0
O149 O 0.12616 0.79068 0.12356 0.0
Mg150 Mg 0.08027 0.7538 0.13174 0.0
O151 O 0.03937 0.71196 0.14017 0.0
Mg152 Mg 0.05781 0.65962 0.12904 0.0
Mg153 Mg 0.98196 0.71896 0.14428 0.0
C154 C 0.03254 0.81804 0.10731 0.0
O155 O 0.05296 0.80449 0.14815 0.0
O156 O 0.21995 0.80797 0.12018 0.0
O157 O 0.98644 0.78245 0.15384 0.0
O158 O 0.17096 0.83017 0.15242 0.0
O159 O 0.18151 0.85346 0.10649 0.0
O160 O 0.13199 0.87897 0.14055 0.0
O161 O 0.10345 0.70218 0.11513 0.0
O162 O 0.17319 0.71524 0.11881 0.0
C163 C 0.14289 0.69396 0.11258 0.0
C164 C 0.21674 0.83528 0.10964 0.0
O165 O 0.03403 0.78239 0.11424 0.0
O166 O 0.01596 0.62034 0.14513 0.0
O167 O 0.06181 0.84644 0.10837 0.0
O168 O 0.99946 0.66471 0.11231 0.0
O169 O 0.97168 0.66354 0.1579 0.0
O170 O 0.9521 0.70884 0.12302 0.0
O171 O 0.12818 0.72886 0.14905 0.0
O172 O 0.11158 0.6597 0.14617 0.0
C173 C 0.15343 0.86712 0.15198 0.0
C174 C 0.01664 0.80992 0.15453 0.0
C175 C 0.64157 0.80005 0.40378 0.0
C176 C 0.68514 0.64462 0.39994 0.0
C177 C 0.61915 0.64158 0.35768 0.0
Mg178 Mg 0.56294 0.85327 0.39053 0.0
Mg179 Mg 0.47344 0.81122 0.37708 0.0
O180 O 0.53273 0.80896 0.37782 0.0
Mg181 Mg 0.56611 0.75805 0.38375 0.0
O182 O 0.60494 0.71091 0.38966 0.0
Mg183 Mg 0.65667 0.72652 0.37781 0.0
Mg184 Mg 0.59127 0.65356 0.39076 0.0
C185 C 0.4879 0.72058 0.36163 0.0
O186 O 0.51649 0.73236 0.40065 0.0
O187 O 0.52586 0.90319 0.37689 0.0
O188 O 0.53077 0.66194 0.40201 0.0
O189 O 0.50962 0.85277 0.40915 0.0
O190 O 0.46785 0.87273 0.36656 0.0
O191 O 0.45451 0.81513 0.40007 0.0
O192 O 0.61618 0.77898 0.3664 0.0
O193 O 0.6131 0.84875 0.37224 0.0
C194 C 0.62906 0.81747 0.36477 0.0
C195 C 0.49286 0.90463 0.36839 0.0
O196 O 0.52663 0.71885 0.36636 0.0
O197 O 0.69345 0.67623 0.39143 0.0
O198 O 0.46283 0.75155 0.36491 0.0
O199 O 0.64293 0.6746 0.35914 0.0
O200 O 0.64722 0.63108 0.40203 0.0
O201 O 0.5946 0.62959 0.36825 0.0
O202 O 0.6012 0.7996 0.40147 0.0
O203 O 0.66671 0.77521 0.39651 0.0
C204 C 0.473 0.83539 0.41076 0.0
C205 C 0.50779 0.6946 0.40516 0.0
C206 C 0.63096 0.19899 0.64819 0.0
C207 C 0.47533 0.14524 0.64759 0.0
C208 C 0.46948 0.2017 0.60369 0.0
Mg209 Mg 0.67624 0.27844 0.63201 0.0
Mg210 Mg 0.62616 0.35663 0.61483 0.0
O211 O 0.62979 0.29842 0.61836 0.0
Mg212 Mg 0.58244 0.26368 0.62652 0.0
O213 O 0.53846 0.22491 0.63493 0.0
Mg214 Mg 0.55615 0.17133 0.62424 0.0
Mg215 Mg 0.48042 0.23752 0.63595 0.0
C216 C 0.53751 0.32774 0.60131 0.0
O217 O 0.5564 0.3164 0.6422 0.0
O218 O 0.72284 0.31648 0.617 0.0
O219 O 0.48645 0.30206 0.64523 0.0
O220 O 0.66907 0.33819 0.64829 0.0
O221 O 0.68601 0.36367 0.60336 0.0
O222 O 0.62981 0.38651 0.63638 0.0
O223 O 0.60673 0.2099 0.61119 0.0
O224 O 0.67642 0.22136 0.6158 0.0
C225 C 0.64618 0.19966 0.60969 0.0
C226 C 0.72078 0.345 0.6068 0.0
O227 O 0.53923 0.29172 0.60798 0.0
O228 O 0.50783 0.13674 0.63935 0.0
O229 O 0.56579 0.35683 0.60311 0.0
O230 O 0.50264 0.17853 0.60564 0.0
O231 O 0.45932 0.18266 0.64856 0.0
O232 O 0.45759 0.22905 0.61357 0.0
O233 O 0.6269 0.23826 0.64461 0.0
O234 O 0.60713 0.16967 0.64254 0.0
C235 C 0.65032 0.37446 0.64796 0.0
C236 C 0.51928 0.32592 0.64717 0.0
C237 C 0.13925 0.31415 0.89731 0.0
C238 C 0.18952 0.1621 0.89866 0.0
C239 C 0.12619 0.14601 0.85583 0.0
Mg240 Mg 0.0614 0.36116 0.88209 0.0
Mg241 Mg 0.97935 0.31785 0.86399 0.0
O242 O 0.03668 0.31525 0.86886 0.0
Mg243 Mg 0.0693 0.26615 0.87665 0.0
O244 O 0.10784 0.22175 0.88468 0.0
Mg245 Mg 0.16076 0.23661 0.87345 0.0
Mg246 Mg 0.09588 0.16499 0.88837 0.0
C247 C 0.99964 0.22447 0.8518 0.0
O248 O 0.01733 0.24258 0.89302 0.0
O249 O 0.02818 0.40993 0.86681 0.0
O250 O 0.03397 0.17472 0.8987 0.0
O251 O 0.00133 0.35858 0.8985 0.0
O252 O 0.97876 0.37763 0.85241 0.0
O253 O 0.95021 0.3254 0.88523 0.0
O254 O 0.12159 0.28628 0.86016 0.0
O255 O 0.11637 0.35646 0.86538 0.0
C256 C 0.13398 0.32497 0.85846 0.0
C257 C 0.00074 0.41046 0.85611 0.0
O258 O 0.0358 0.22326 0.85862 0.0
O259 O 0.19736 0.19061 0.88884 0.0
O260 O 0.97418 0.25622 0.85291 0.0
O261 O 0.14921 0.17986 0.85631 0.0
O262 O 0.15174 0.14884 0.90127 0.0
O263 O 0.10143 0.136 0.86663 0.0
O264 O 0.09916 0.31028 0.89471 0.0
O265 O 0.16684 0.29007 0.89086 0.0
C266 C 0.96347 0.34314 0.89736 0.0
C267 C 0.00931 0.20719 0.89953 0.0
H268 H 0.18296 0.91151 0.51047 0.0
H269 H 0.24079 0.87507 0.49718 0.0
H270 H 0.19407 0.92239 0.45486 0.0
H271 H 0.13581 0.95863 0.46819 0.0
H272 H 0.23353 0.84216 0.45198 0.0
H273 H 0.26085 0.98159 0.47317 0.0
H274 H 0.26107 0.03491 0.49384 0.0
H275 H 0.34567 0.95683 0.51942 0.0
H276 H 0.34542 0.9027 0.49896 0.0
H277 H 0.4529 0.91126 0.42373 0.0
H278 H 0.3941 0.92412 0.4413 0.0
H279 H 0.37736 0.78878 0.44614 0.0
H280 H 0.43521 0.7762 0.4282 0.0
H281 H 0.369 0.9091 0.46867 0.0
H282 H 0.27442 0.76397 0.4469 0.0
H283 H 0.26986 0.71686 0.42442 0.0
H284 H 0.31671 0.81736 0.39666 0.0
H285 H 0.32133 0.86505 0.41894 0.0
C286 C 0.18403 0.9125 0.49826 0.0
C287 C 0.15521 0.93783 0.4903 0.0
C288 C 0.21715 0.89193 0.4907 0.0
C289 C 0.22214 0.89681 0.4751 0.0
C290 C 0.19075 0.91833 0.46692 0.0
C291 C 0.15741 0.93885 0.4745 0.0
C292 C 0.263 0.88549 0.4678 0.0
C293 C 0.26323 0.85636 0.45571 0.0
C294 C 0.30158 0.9049 0.47247 0.0
C295 C 0.30279 0.93792 0.4846 0.0
C296 C 0.27933 0.9757 0.48323 0.0
C297 C 0.27947 0.00607 0.49491 0.0
C298 C 0.30326 0.99921 0.50796 0.0
C299 C 0.32718 0.96206 0.50932 0.0
C300 C 0.32709 0.93154 0.49768 0.0
C301 C 0.43754 0.88439 0.42897 0.0
C302 C 0.4481 0.84275 0.42457 0.0
C303 C 0.40378 0.89168 0.43893 0.0
C304 C 0.38043 0.8574 0.4447 0.0
C305 C 0.39402 0.81575 0.44149 0.0
C306 C 0.42722 0.80853 0.43134 0.0
C307 C 0.33984 0.86533 0.45284 0.0
C308 C 0.33954 0.8941 0.46509 0.0
C309 C 0.30104 0.84637 0.44805 0.0
C310 C 0.29842 0.81794 0.43459 0.0
C311 C 0.28358 0.77601 0.43598 0.0
C312 C 0.28096 0.74924 0.42328 0.0
C313 C 0.29274 0.76422 0.40912 0.0
C314 C 0.30748 0.80586 0.40763 0.0
C315 C 0.31018 0.83274 0.42029 0.0
H316 H 0.29067 0.74351 0.39929 0.0
H317 H 0.30322 0.02271 0.517 0.0
H318 H 0.38225 0.8137 0.72429 0.0
H319 H 0.41096 0.86664 0.7071 0.0
H320 H 0.28554 0.91907 0.70127 0.0
H321 H 0.25642 0.86534 0.71805 0.0
H322 H 0.33054 0.92316 0.67543 0.0
H323 H 0.3515 0.96015 0.72764 0.0
H324 H 0.37575 0.94876 0.75372 0.0
H325 H 0.50462 0.93778 0.73827 0.0
H326 H 0.48102 0.94844 0.71204 0.0
H327 H 0.39233 0.13522 0.65627 0.0
H328 H 0.3615 0.07453 0.66959 0.0
H329 H 0.48522 0.01612 0.67184 0.0
H330 H 0.51595 0.07638 0.65855 0.0
H331 H 0.44083 0.01509 0.69922 0.0
H332 H 0.41934 0.97641 0.6471 0.0
H333 H 0.39499 0.98638 0.62102 0.0
H334 H 0.26674 0.00243 0.63658 0.0
H335 H 0.29048 0.99244 0.66286 0.0
C336 C 0.36058 0.83558 0.71895 0.0
C337 C 0.31717 0.83576 0.72267 0.0
C338 C 0.37709 0.86612 0.70926 0.0
C339 C 0.35052 0.89746 0.70324 0.0
C340 C 0.30666 0.89545 0.70592 0.0
C341 C 0.29011 0.86487 0.71556 0.0
C342 C 0.36876 0.93436 0.69527 0.0
C343 C 0.35431 0.94351 0.6807 0.0
C344 C 0.4001 0.96071 0.70208 0.0
C345 C 0.41444 0.95464 0.71786 0.0
C346 C 0.38497 0.95499 0.72979 0.0
C347 C 0.3986 0.9487 0.7446 0.0
C348 C 0.44169 0.94244 0.74765 0.0
C349 C 0.47125 0.94256 0.73589 0.0
C350 C 0.45777 0.94874 0.72105 0.0
C351 C 0.41288 0.1095 0.65969 0.0
C352 C 0.45646 0.11023 0.65628 0.0
C353 C 0.39525 0.07481 0.6672 0.0
C354 C 0.42108 0.04073 0.67156 0.0
C355 C 0.46474 0.042 0.6685 0.0
C356 C 0.48219 0.07628 0.66084 0.0
C357 C 0.40278 0.00368 0.67938 0.0
C358 C 0.41708 0.99468 0.69397 0.0
C359 C 0.37117 0.97768 0.67263 0.0
C360 C 0.35675 0.98418 0.65693 0.0
C361 C 0.38601 0.98245 0.64497 0.0
C362 C 0.37228 0.98799 0.63014 0.0
C363 C 0.32935 0.9953 0.62712 0.0
C364 C 0.30001 0.99687 0.63894 0.0
C365 C 0.31356 0.99115 0.6538 0.0
H366 H 0.31881 0.9996 0.61561 0.0
H367 H 0.45218 0.93758 0.75913 0.0
H368 H 0.44587 0.02422 0.99825 0.0
H369 H 0.39197 0.05533 0.98197 0.0
H370 H 0.48147 0.05722 0.94515 0.0
H371 H 0.53566 0.02524 0.96138 0.0
H372 H 0.42904 0.13187 0.94813 0.0
H373 H 0.41553 0.97922 0.94555 0.0
H374 H 0.40907 0.90808 0.95665 0.0
H375 H 0.29235 0.94503 0.97816 0.0
H376 H 0.29848 0.01664 0.96738 0.0
H377 H 0.2739 0.16509 0.89172 0.0
H378 H 0.33339 0.14007 0.90674 0.0
H379 H 0.24623 0.09942 0.94129 0.0
H380 H 0.18639 0.12184 0.92579 0.0
H381 H 0.30104 0.04317 0.93857 0.0
H382 H 0.32195 0.19691 0.94743 0.0
H383 H 0.33262 0.27208 0.94072 0.0
H384 H 0.431 0.23613 0.90962 0.0
H385 H 0.42263 0.16099 0.91678 0.0
C386 C 0.45416 0.03138 0.9867 0.0
C387 C 0.49469 0.02159 0.98097 0.0
C388 C 0.4234 0.04925 0.97745 0.0
C389 C 0.43263 0.05776 0.96232 0.0
C390 C 0.47381 0.0506 0.9568 0.0
C391 C 0.50468 0.03249 0.96607 0.0
C392 C 0.39843 0.07196 0.95216 0.0
C393 C 0.40125 0.11235 0.94584 0.0
C394 C 0.36186 0.04676 0.94954 0.0
C395 C 0.35764 0.00339 0.95574 0.0
C396 C 0.38862 0.97225 0.95272 0.0
C397 C 0.38501 0.93184 0.95895 0.0
C398 C 0.35037 0.92207 0.96813 0.0
C399 C 0.31918 0.95265 0.97105 0.0
C400 C 0.32269 0.99314 0.96487 0.0
C401 C 0.26739 0.15071 0.90251 0.0
C402 C 0.22541 0.14556 0.9076 0.0
C403 C 0.30156 0.13696 0.91121 0.0
C404 C 0.29461 0.11892 0.9254 0.0
C405 C 0.2526 0.11334 0.93041 0.0
C406 C 0.21834 0.12606 0.92152 0.0
C407 C 0.33084 0.10389 0.93469 0.0
C408 C 0.32865 0.06298 0.9408 0.0
C409 C 0.36768 0.1289 0.93735 0.0
C410 C 0.37119 0.17346 0.93244 0.0
C411 C 0.34555 0.20506 0.93906 0.0
C412 C 0.35131 0.24764 0.93523 0.0
C413 C 0.38179 0.2588 0.92454 0.0
C414 C 0.40719 0.22744 0.91783 0.0
C415 C 0.40229 0.18493 0.92188 0.0
H416 H 0.386 0.29178 0.92157 0.0
H417 H 0.34765 0.89077 0.97295 0.0
H418 H 0.31127 0.12934 0.25026 0.0
H419 H 0.27368 0.07346 0.23632 0.0
H420 H 0.28402 0.1458 0.19557 0.0
H421 H 0.32418 0.2012 0.20932 0.0
H422 H 0.19673 0.10396 0.20522 0.0
H423 H 0.34705 0.07618 0.19576 0.0
H424 H 0.42058 0.06558 0.20455 0.0
H425 H 0.38037 0.95908 0.23074 0.0
H426 H 0.3064 0.96962 0.22236 0.0
H427 H 0.13558 0.95162 0.15095 0.0
H428 H 0.16206 0.00765 0.16711 0.0
H429 H 0.21646 0.915 0.19689 0.0
H430 H 0.19313 0.85793 0.17966 0.0
H431 H 0.27107 0.96828 0.19402 0.0
H432 H 0.12988 0.01184 0.2148 0.0
H433 H 0.05385 0.03019 0.21476 0.0
H434 H 0.07054 0.10068 0.17406 0.0
H435 H 0.14758 0.08557 0.17463 0.0
C436 C 0.30604 0.13329 0.2383 0.0
C437 C 0.32174 0.16932 0.23084 0.0
C438 C 0.28423 0.10144 0.23039 0.0
C439 C 0.27669 0.1053 0.21492 0.0
C440 C 0.28988 0.14225 0.20753 0.0
C441 C 0.31254 0.17395 0.21541 0.0
C442 C 0.25573 0.07007 0.20652 0.0
C443 C 0.21305 0.07448 0.20249 0.0
C444 C 0.27645 0.0309 0.20381 0.0
C445 C 0.32112 0.02396 0.20854 0.0
C446 C 0.35382 0.05073 0.20349 0.0
C447 C 0.39559 0.04471 0.20839 0.0
C448 C 0.40512 0.01174 0.21823 0.0
C449 C 0.37294 0.98459 0.22312 0.0
C450 C 0.33109 0.9906 0.2183 0.0
C451 C 0.15249 0.94272 0.16107 0.0
C452 C 0.16247 0.89991 0.16387 0.0
C453 C 0.16706 0.97529 0.17058 0.0
C454 C 0.19058 0.96628 0.1836 0.0
C455 C 0.19855 0.92326 0.18692 0.0
C456 C 0.18495 0.89046 0.17711 0.0
C457 C 0.21122 0.00165 0.19247 0.0
C458 C 0.25422 0.99749 0.19664 0.0
C459 C 0.19032 0.04063 0.19587 0.0
C460 C 0.14395 0.04616 0.19442 0.0
C461 C 0.11714 0.03067 0.20572 0.0
C462 C 0.07399 0.04103 0.20572 0.0
C463 C 0.05702 0.06563 0.19418 0.0
C464 C 0.08354 0.08108 0.18287 0.0
C465 C 0.12706 0.07215 0.18314 0.0
H466 H 0.02349 0.07321 0.19413 0.0
H467 H 0.43746 0.00719 0.22204 0.0
H468 H 0.13652 0.0492 0.54509 0.0
H469 H 0.19364 0.08681 0.55876 0.0
H470 H 0.24941 0.12321 0.5164 0.0
H471 H 0.19251 0.08591 0.50282 0.0
H472 H 0.27751 0.06392 0.55635 0.0
H473 H 0.30469 0.21663 0.52199 0.0
H474 H 0.26261 0.26847 0.50767 0.0
H475 H 0.15316 0.24146 0.53481 0.0
H476 H 0.19445 0.1893 0.54921 0.0
H477 H 0.47678 0.14214 0.58059 0.0
H478 H 0.42171 0.12198 0.56223 0.0
H479 H 0.34085 0.22191 0.57958 0.0
H480 H 0.39583 0.24331 0.59727 0.0
H481 H 0.32604 0.21301 0.55112 0.0
H482 H 0.34138 0.11369 0.593 0.0
H483 H 0.38356 0.06298 0.60778 0.0
H484 H 0.40197 0.9851 0.56814 0.0
H485 H 0.36065 0.03584 0.55307 0.0
C486 C 0.16014 0.06661 0.53877 0.0
C487 C 0.16004 0.06511 0.52295 0.0
C488 C 0.19298 0.08762 0.54655 0.0
C489 C 0.22582 0.10777 0.53859 0.0
C490 C 0.22423 0.10834 0.52278 0.0
C491 C 0.19167 0.08717 0.51504 0.0
C492 C 0.26372 0.12475 0.54667 0.0
C493 C 0.28789 0.09666 0.55531 0.0
C494 C 0.27765 0.16724 0.54513 0.0
C495 C 0.25261 0.19874 0.53657 0.0
C496 C 0.27165 0.22176 0.5249 0.0
C497 C 0.24789 0.25109 0.51674 0.0
C498 C 0.20522 0.25818 0.52031 0.0
C499 C 0.18615 0.23579 0.532 0.0
C500 C 0.20964 0.20612 0.54009 0.0
C501 C 0.44767 0.16041 0.58024 0.0
C502 C 0.44053 0.19375 0.59066 0.0
C503 C 0.41605 0.14869 0.5698 0.0
C504 C 0.37645 0.16951 0.56984 0.0
C505 C 0.37078 0.20493 0.57939 0.0
C506 C 0.40239 0.21696 0.58963 0.0
C507 C 0.33931 0.15255 0.56118 0.0
C508 C 0.31545 0.18043 0.55227 0.0
C509 C 0.32519 0.11 0.56267 0.0
C510 C 0.34835 0.07873 0.5719 0.0
C511 C 0.35448 0.08576 0.58745 0.0
C512 C 0.37831 0.05706 0.59586 0.0
C513 C 0.39555 0.0209 0.58888 0.0
C514 C 0.3887 0.01318 0.57351 0.0
C515 C 0.36513 0.0419 0.56503 0.0
H516 H 0.41429 0.99885 0.59534 0.0
H517 H 0.18691 0.28103 0.51402 0.0
H518 H 0.28799 0.82856 0.78919 0.0
H519 H 0.25458 0.88254 0.80554 0.0
H520 H 0.15599 0.90001 0.77234 0.0
H521 H 0.18959 0.84663 0.75598 0.0
H522 H 0.19065 0.97355 0.77948 0.0
H523 H 0.13384 0.85687 0.80643 0.0
H524 H 0.13473 0.78901 0.81999 0.0
H525 H 0.21597 0.84403 0.85396 0.0
H526 H 0.21628 0.91205 0.84046 0.0
H527 H 0.07605 0.0773 0.84951 0.0
H528 H 0.09139 0.01825 0.83231 0.0
H529 H 0.20508 0.0817 0.81751 0.0
H530 H 0.18957 0.14172 0.83451 0.0
H531 H 0.15559 0.96593 0.8339 0.0
H532 H 0.2286 0.0485 0.78166 0.0
H533 H 0.21956 0.11471 0.76743 0.0
H534 H 0.09053 0.12452 0.7828 0.0
H535 H 0.09859 0.0581 0.79694 0.0
C536 C 0.25843 0.84297 0.78566 0.0
C537 C 0.24129 0.8336 0.77137 0.0
C538 C 0.23945 0.87392 0.79495 0.0
C539 C 0.20291 0.89556 0.7901 0.0
C540 C 0.18433 0.88404 0.77625 0.0
C541 C 0.20333 0.85336 0.76698 0.0
C542 C 0.18628 0.93272 0.79876 0.0
C543 C 0.18289 0.97183 0.79138 0.0
C544 C 0.1754 0.93038 0.8142 0.0
C545 C 0.17541 0.88948 0.82234 0.0
C546 C 0.15222 0.85441 0.81672 0.0
C547 C 0.15243 0.81593 0.82441 0.0
C548 C 0.17541 0.8122 0.83781 0.0
C549 C 0.19821 0.84696 0.84356 0.0
C550 C 0.1982 0.8855 0.8359 0.0
C551 C 0.10394 0.07924 0.8424 0.0
C552 C 0.13168 0.11432 0.84344 0.0
C553 C 0.11272 0.04524 0.83265 0.0
C554 C 0.14945 0.0453 0.82374 0.0
C555 C 0.17632 0.08105 0.82421 0.0
C556 C 0.16737 0.11542 0.83392 0.0
C557 C 0.16068 0.00687 0.81468 0.0
C558 C 0.16323 0.96758 0.82199 0.0
C559 C 0.16968 0.00878 0.79908 0.0
C560 C 0.16439 0.04854 0.79048 0.0
C561 C 0.19826 0.06471 0.78196 0.0
C562 C 0.19331 0.10229 0.77391 0.0
C563 C 0.15454 0.12388 0.77425 0.0
C564 C 0.12059 0.10786 0.78259 0.0
C565 C 0.12536 0.07028 0.79064 0.0
H566 H 0.15079 0.15297 0.76803 0.0
H567 H 0.17549 0.78238 0.84375 0.0
H568 H 0.55539 0.93143 0.03733 0.0
H569 H 0.50922 0.8996 0.05624 0.0
H570 H 0.42932 0.848 0.02098 0.0
H571 H 0.47607 0.87845 0.00194 0.0
H572 H 0.40859 0.92917 0.04698 0.0
H573 H 0.43694 0.77641 0.03481 0.0
H574 H 0.48584 0.7154 0.03248 0.0
H575 H 0.52934 0.73756 0.07785 0.0
H576 H 0.48069 0.79875 0.08041 0.0
H577 H 0.21837 0.86536 0.08094 0.0
H578 H 0.28007 0.8734 0.0646 0.0
H579 H 0.36214 0.83201 0.10055 0.0
H580 H 0.30015 0.82209 0.11677 0.0
H581 H 0.38744 0.79663 0.07568 0.0
H582 H 0.35379 0.93917 0.09021 0.0
H583 H 0.30882 0.00242 0.09423 0.0
H584 H 0.28251 0.00671 0.04673 0.0
H585 H 0.32687 0.94312 0.04245 0.0
C586 C 0.52935 0.91139 0.03355 0.0
C587 C 0.51894 0.90804 0.01814 0.0
C588 C 0.50292 0.89333 0.0444 0.0
C589 C 0.46601 0.87154 0.03996 0.0
C590 C 0.45798 0.86435 0.02458 0.0
C591 C 0.48454 0.88206 0.01373 0.0
C592 C 0.43136 0.86587 0.05092 0.0
C593 C 0.40354 0.90008 0.05317 0.0
C594 C 0.42615 0.82859 0.05933 0.0
C595 C 0.45567 0.79234 0.05772 0.0
C596 C 0.45727 0.76849 0.04422 0.0
C597 C 0.48478 0.73379 0.04289 0.0
C598 C 0.51078 0.72269 0.05499 0.0
C599 C 0.50928 0.74626 0.06847 0.0
C600 C 0.48169 0.78087 0.06988 0.0
C601 C 0.24958 0.85838 0.08543 0.0
C602 C 0.25444 0.84344 0.10018 0.0
C603 C 0.28489 0.86302 0.07608 0.0
C604 C 0.32591 0.85397 0.08141 0.0
C605 C 0.33085 0.8392 0.09618 0.0
C606 C 0.29543 0.8338 0.10546 0.0
C607 C 0.36346 0.85971 0.07151 0.0
C608 C 0.39218 0.82583 0.06954 0.0
C609 C 0.37002 0.89779 0.0635 0.0
C610 C 0.34338 0.93615 0.06603 0.0
C611 C 0.33818 0.95342 0.08063 0.0
C612 C 0.31283 0.98936 0.08296 0.0
C613 C 0.29275 0.00851 0.07075 0.0
C614 C 0.29806 0.99182 0.05618 0.0
C615 C 0.32334 0.95585 0.0538 0.0
H616 H 0.27313 0.03634 0.07258 0.0
H617 H 0.532 0.69577 0.05395 0.0
H618 H 0.46627 0.1494 0.25571 0.0
H619 H 0.49119 0.10493 0.27635 0.0
H620 H 0.42373 0.18445 0.30832 0.0
H621 H 0.39991 0.22972 0.28772 0.0
H622 H 0.4937 0.15019 0.32126 0.0
H623 H 0.37222 0.10023 0.29345 0.0
H624 H 0.33238 0.08191 0.2703 0.0
H625 H 0.42603 0.98813 0.25849 0.0
H626 H 0.46638 0.00579 0.28168 0.0
H627 H 0.41913 0.93212 0.35535 0.0
H628 H 0.41048 0.99194 0.33829 0.0
H629 H 0.54412 0.02096 0.3425 0.0
H630 H 0.55245 0.96268 0.36008 0.0
H631 H 0.4406 0.00347 0.31199 0.0
H632 H 0.56377 0.12446 0.33559 0.0
H633 H 0.59489 0.14649 0.36003 0.0
H634 H 0.4829 0.10368 0.38297 0.0
H635 H 0.45096 0.08183 0.35865 0.0
C636 C 0.45825 0.15827 0.26722 0.0
C637 C 0.431 0.19266 0.27018 0.0
C638 C 0.47223 0.13278 0.27898 0.0
C639 C 0.45831 0.14077 0.2938 0.0
C640 C 0.43467 0.17763 0.29696 0.0
C641 C 0.42117 0.20352 0.2852 0.0
C642 C 0.46292 0.10772 0.30544 0.0
C643 C 0.48229 0.11804 0.31927 0.0
C644 C 0.44694 0.06613 0.30297 0.0
C645 C 0.42244 0.05455 0.28921 0.0
C646 C 0.38435 0.07577 0.28589 0.0
C647 C 0.3617 0.06553 0.27277 0.0
C648 C 0.3768 0.03409 0.26287 0.0
C649 C 0.41443 0.01254 0.26616 0.0
C650 C 0.43713 0.02253 0.27932 0.0
C651 C 0.44646 0.95175 0.35284 0.0
C652 C 0.48634 0.94289 0.35916 0.0
C653 C 0.44157 0.9858 0.34303 0.0
C654 C 0.47657 0.0113 0.33918 0.0
C655 C 0.51639 0.00255 0.34556 0.0
C656 C 0.52111 0.96908 0.3556 0.0
C657 C 0.47175 0.04558 0.32794 0.0
C658 C 0.4523 0.03547 0.31409 0.0
C659 C 0.48655 0.08762 0.33063 0.0
C660 C 0.50521 0.1011 0.3453 0.0
C661 C 0.54576 0.11985 0.34584 0.0
C662 C 0.56355 0.13229 0.35967 0.0
C663 C 0.54095 0.12635 0.37305 0.0
C664 C 0.50045 0.1081 0.37261 0.0
C665 C 0.48252 0.09563 0.3588 0.0
H666 H 0.55478 0.13598 0.38375 0.0
H667 H 0.35921 0.02635 0.2527 0.0
H668 H 0.9458 0.08406 0.53779 0.0
H669 H 0.88972 0.09934 0.55628 0.0
H670 H 0.8368 0.97426 0.54854 0.0
H671 H 0.89229 0.95945 0.52987 0.0
H672 H 0.77731 0.03103 0.54559 0.0
H673 H 0.87931 0.00108 0.58361 0.0
H674 H 0.94912 0.0048 0.59625 0.0
H675 H 0.93529 0.13972 0.60224 0.0
H676 H 0.86553 0.13663 0.58943 0.0
H677 H 0.67582 0.12648 0.62108 0.0
H678 H 0.72201 0.07604 0.6077 0.0
H679 H 0.69766 0.14121 0.56603 0.0
H680 H 0.65053 0.19061 0.57939 0.0
H681 H 0.79322 0.09841 0.59619 0.0
H682 H 0.72041 0.08181 0.53571 0.0
H683 H 0.65003 0.07168 0.52394 0.0
H684 H 0.603 0.01625 0.56466 0.0
H685 H 0.67324 0.02542 0.5766 0.0
C686 C 0.92302 0.05944 0.54046 0.0
C687 C 0.92326 0.02061 0.53251 0.0
C688 C 0.8909 0.06814 0.55098 0.0
C689 C 0.85893 0.03791 0.55379 0.0
C690 C 0.86091 0.99811 0.54651 0.0
C691 C 0.89276 0.98956 0.53596 0.0
C692 C 0.82137 0.04936 0.56315 0.0
C693 C 0.78069 0.04539 0.55673 0.0
C694 C 0.82557 0.06695 0.57782 0.0
C695 C 0.86725 0.06873 0.58562 0.0
C696 C 0.89123 0.03155 0.58759 0.0
C697 C 0.93076 0.03351 0.59478 0.0
C698 C 0.9466 0.07248 0.60007 0.0
C699 C 0.92291 0.10955 0.59819 0.0
C700 C 0.88336 0.1077 0.59102 0.0
C701 C 0.67864 0.12843 0.60892 0.0
C702 C 0.65909 0.16167 0.60114 0.0
C703 C 0.70548 0.10003 0.60131 0.0
C704 C 0.71355 0.10479 0.58584 0.0
C705 C 0.69145 0.13624 0.57789 0.0
C706 C 0.66425 0.16436 0.58549 0.0
C707 C 0.74905 0.0812 0.57847 0.0
C708 C 0.78951 0.08316 0.58521 0.0
C709 C 0.74439 0.06064 0.56426 0.0
C710 C 0.7021 0.05458 0.55709 0.0
C711 C 0.69515 0.06723 0.54213 0.0
C712 C 0.65524 0.0617 0.53543 0.0
C713 C 0.62204 0.04343 0.54356 0.0
C714 C 0.6287 0.03053 0.55839 0.0
C715 C 0.66855 0.03594 0.56514 0.0
H716 H 0.59116 0.03921 0.53836 0.0
H717 H 0.97723 0.07395 0.60561 0.0
H718 H 0.71898 0.07349 0.26235 0.0
H719 H 0.69277 0.01701 0.27863 0.0
H720 H 0.77815 0.05917 0.31392 0.0
H721 H 0.8046 0.11565 0.29757 0.0
H722 H 0.78795 0.97527 0.30705 0.0
H723 H 0.67337 0.06947 0.31796 0.0
H724 H 0.61413 0.1179 0.31239 0.0
H725 H 0.54605 0.01589 0.2906 0.0
H726 H 0.60544 0.96697 0.29565 0.0
H727 H 0.70357 0.85834 0.36828 0.0
H728 H 0.73494 0.9049 0.34952 0.0
H729 H 0.64926 0.85401 0.31577 0.0
H730 H 0.61801 0.807 0.33465 0.0
H731 H 0.63945 0.93974 0.3207 0.0
H732 H 0.75482 0.8451 0.31063 0.0
H733 H 0.81438 0.79768 0.31688 0.0
H734 H 0.87998 0.90164 0.33852 0.0
H735 H 0.82054 0.94959 0.33259 0.0
C736 C 0.7312 0.07138 0.27375 0.0
C737 C 0.76371 0.09884 0.27875 0.0
C738 C 0.71627 0.03914 0.28303 0.0
C739 C 0.73367 0.03378 0.29745 0.0
C740 C 0.76441 0.06273 0.30279 0.0
C741 C 0.77915 0.09522 0.29354 0.0
C742 C 0.72266 0.99573 0.30633 0.0
C743 C 0.75553 0.96777 0.31022 0.0
C744 C 0.68018 0.98534 0.31001 0.0
C745 C 0.64428 0.01466 0.30697 0.0
C746 C 0.64604 0.05741 0.31181 0.0
C747 C 0.61238 0.08494 0.30877 0.0
C748 C 0.57651 0.07001 0.30107 0.0
C749 C 0.574 0.02742 0.2965 0.0
C750 C 0.60769 0.99979 0.29942 0.0
C751 C 0.69324 0.85535 0.35665 0.0
C752 C 0.65883 0.82891 0.3528 0.0
C753 C 0.7109 0.8822 0.34595 0.0
C754 C 0.69417 0.88317 0.33128 0.0
C755 C 0.66257 0.85371 0.32705 0.0
C756 C 0.64519 0.82643 0.33775 0.0
C757 C 0.70474 0.91929 0.3214 0.0
C758 C 0.6718 0.94703 0.31737 0.0
C759 C 0.74714 0.92963 0.31768 0.0
C760 C 0.78303 0.90089 0.32125 0.0
C761 C 0.78178 0.8578 0.31683 0.0
C762 C 0.81557 0.83083 0.32029 0.0
C763 C 0.8509 0.84662 0.32812 0.0
C764 C 0.85257 0.88944 0.33246 0.0
C765 C 0.81887 0.91655 0.32903 0.0
H766 H 0.87702 0.82568 0.33079 0.0
H767 H 0.55074 0.09148 0.2986 0.0
H768 H 0.79502 0.98625 0.01297 0.0
H769 H 0.84268 0.95039 0.02975 0.0
H770 H 0.7388 0.924 0.05997 0.0
H771 H 0.69109 0.96503 0.04404 0.0
H772 H 0.80384 0.93727 0.07602 0.0
H773 H 0.78102 0.84702 0.03417 0.0
H774 H 0.77427 0.82354 0.00764 0.0
H775 H 0.90614 0.85132 0.00018 0.0
H776 H 0.91363 0.87552 0.02663 0.0
H777 H 0.95065 0.78924 0.11023 0.0
H778 H 0.8885 0.81139 0.09545 0.0
H779 H 0.96925 0.89035 0.06825 0.0
H780 H 0.03095 0.86894 0.08293 0.0
H781 H 0.90693 0.83819 0.05199 0.0
H782 H 0.9213 0.93705 0.09487 0.0
H783 H 0.92459 0.95335 0.12215 0.0
H784 H 0.80134 0.89737 0.12817 0.0
H785 H 0.79765 0.88015 0.10092 0.0
C786 C 0.78204 0.97433 0.02339 0.0
C787 C 0.73869 0.97903 0.02703 0.0
C788 C 0.80946 0.95263 0.03285 0.0
C789 C 0.79417 0.93298 0.04586 0.0
C790 C 0.75129 0.93833 0.04985 0.0
C791 C 0.72387 0.96144 0.04059 0.0
C792 C 0.82351 0.90718 0.05514 0.0
C793 C 0.82561 0.91485 0.07078 0.0
C794 C 0.8521 0.87773 0.04838 0.0
C795 C 0.84782 0.86337 0.03239 0.0
C796 C 0.80855 0.84841 0.02686 0.0
C797 C 0.80459 0.83491 0.01183 0.0
C798 C 0.83973 0.836 0.00223 0.0
C799 C 0.87894 0.85051 0.00764 0.0
C800 C 0.88308 0.86406 0.02266 0.0
C801 C 0.95509 0.81085 0.10096 0.0
C802 C 0.9955 0.82761 0.09777 0.0
C803 C 0.91966 0.82358 0.09261 0.0
C804 C 0.92451 0.85267 0.08088 0.0
C805 C 0.96503 0.86791 0.07729 0.0
C806 C 1.00015 0.85581 0.08573 0.0
C807 C 0.88755 0.8692 0.0726 0.0
C808 C 0.88435 0.85996 0.05716 0.0
C809 C 0.85733 0.89612 0.0796 0.0
C810 C 0.85942 0.90687 0.09591 0.0
C811 C 0.89508 0.92789 0.10204 0.0
C812 C 0.89699 0.93736 0.11748 0.0
C813 C 0.86326 0.92629 0.1269 0.0
C814 C 0.82748 0.90584 0.12087 0.0
C815 C 0.82546 0.89624 0.10543 0.0
H816 H 0.86479 0.93366 0.13885 0.0
H817 H 0.8366 0.82555 0.99059 0.0
H818 H 0.80199 0.93181 0.77839 0.0
H819 H 0.8254 0.98182 0.79813 0.0
H820 H 0.95387 0.93581 0.79345 0.0
H821 H 0.93028 0.88488 0.77405 0.0
H822 H 0.93677 0.9654 0.82262 0.0
H823 H 0.91901 0.00982 0.77117 0.0
H824 H 0.87565 0.01505 0.74815 0.0
H825 H 0.78794 0.09723 0.77143 0.0
H826 H 0.8295 0.0904 0.79488 0.0
H827 H 0.04742 0.15826 0.84071 0.0
H828 H 0.02182 0.09415 0.82745 0.0
H829 H 0.89353 0.1416 0.82998 0.0
H830 H 0.91873 0.2055 0.84301 0.0
H831 H 0.91078 0.10962 0.80259 0.0
H832 H 0.93001 0.06805 0.85393 0.0
H833 H 0.96968 0.05775 0.87757 0.0
H834 H 0.05392 0.97081 0.85487 0.0
H835 H 0.01542 0.98141 0.83099 0.0
C836 C 0.83489 0.93142 0.78199 0.0
C837 C 0.86452 0.90514 0.7746 0.0
C838 C 0.84823 0.95985 0.79326 0.0
C839 C 0.89154 0.96318 0.79694 0.0
C840 C 0.92036 0.93384 0.79071 0.0
C841 C 0.90688 0.90487 0.77961 0.0
C842 C 0.90773 0.0015 0.80496 0.0
C843 C 0.93143 0.99696 0.81824 0.0
C844 C 0.90047 0.04262 0.79919 0.0
C845 C 0.87715 0.04923 0.78484 0.0
C846 C 0.89039 0.02889 0.77141 0.0
C847 C 0.86604 0.03202 0.75829 0.0
C848 C 0.82915 0.05665 0.75829 0.0
C849 C 0.81652 0.07815 0.77144 0.0
C850 C 0.84033 0.07444 0.78468 0.0
C851 C 0.01381 0.15484 0.83849 0.0
C852 C 0.98516 0.18674 0.84304 0.0
C853 C 0.99924 0.11827 0.83096 0.0
C854 C 0.95572 0.11285 0.828 0.0
C855 C 0.92723 0.14509 0.8322 0.0
C856 C 0.94176 0.18165 0.83964 0.0
C857 C 0.93955 0.07378 0.82043 0.0
C858 C 0.91609 0.07817 0.80709 0.0
C859 C 0.94715 0.03266 0.82617 0.0
C860 C 0.97018 0.02605 0.84058 0.0
C861 C 0.9573 0.04712 0.85392 0.0
C862 C 0.97955 0.04118 0.86738 0.0
C863 C 0.0144 0.01376 0.86771 0.0
C864 C 0.02694 0.99208 0.8546 0.0
C865 C 0.00495 0.9981 0.84109 0.0
H866 H 0.0316 0.00922 0.87814 0.0
H867 H 0.81031 0.05903 0.74813 0.0
H868 H 0.94942 0.92928 0.47488 0.0
H869 H 0.89435 0.90782 0.45685 0.0
H870 H 0.83959 0.03342 0.45969 0.0
H871 H 0.89393 0.05426 0.47817 0.0
H872 H 0.78052 0.97938 0.46415 0.0
H873 H 0.88443 0.99185 0.426 0.0
H874 H 0.95378 0.98345 0.41341 0.0
H875 H 0.93823 0.84785 0.41287 0.0
H876 H 0.86905 0.85536 0.42567 0.0
H877 H 0.6306 0.88665 0.40708 0.0
H878 H 0.68051 0.9354 0.42019 0.0
H879 H 0.75001 0.82774 0.43685 0.0
H880 H 0.70063 0.77962 0.42408 0.0
H881 H 0.79782 0.88828 0.41849 0.0
H882 H 0.69838 0.8799 0.46086 0.0
H883 H 0.62843 0.89096 0.4728 0.0
H884 H 0.6355 0.02435 0.46351 0.0
H885 H 0.70529 0.01393 0.45131 0.0
C886 C 0.92657 0.95267 0.47119 0.0
C887 C 0.92596 0.99341 0.47778 0.0
C888 C 0.89498 0.94045 0.4609 0.0
C889 C 0.86269 0.96904 0.45682 0.0
C890 C 0.86395 0.01074 0.46266 0.0
C891 C 0.8952 0.02276 0.47309 0.0
C892 C 0.82531 0.95386 0.44794 0.0
C893 C 0.78436 0.96036 0.45394 0.0
C894 C 0.82994 0.92899 0.43461 0.0
C895 C 0.87157 0.9242 0.42688 0.0
C896 C 0.8959 0.96022 0.4233 0.0
C897 C 0.93518 0.95561 0.4161 0.0
C898 C 0.95042 0.91514 0.41236 0.0
C899 C 0.92637 0.87919 0.41578 0.0
C900 C 0.88708 0.8836 0.42298 0.0
C901 C 0.65556 0.87366 0.41405 0.0
C902 C 0.66189 0.82952 0.41463 0.0
C903 C 0.68424 0.9014 0.42137 0.0
C904 C 0.71925 0.88499 0.42925 0.0
C905 C 0.72349 0.84097 0.43068 0.0
C906 C 0.69507 0.81355 0.42349 0.0
C907 C 0.7539 0.91255 0.43508 0.0
C908 C 0.79421 0.90833 0.42846 0.0
C909 C 0.74861 0.93991 0.44768 0.0
C910 C 0.70671 0.94604 0.45498 0.0
C911 C 0.68479 0.9115 0.46121 0.0
C912 C 0.64523 0.91767 0.46806 0.0
C913 C 0.62745 0.9583 0.46886 0.0
C914 C 0.64926 0.99287 0.46285 0.0
C915 C 0.68881 0.98685 0.45597 0.0
H916 H 0.59683 0.96302 0.47418 0.0
H917 H 0.98084 0.91165 0.40679 0.0
H918 H 0.8597 0.15178 0.21706 0.0
H919 H 0.90502 0.11127 0.1997 0.0
H920 H 0.90393 0.00585 0.23037 0.0
H921 H 0.86385 0.04737 0.24833 0.0
H922 H 0.97638 0.01008 0.22055 0.0
H923 H 0.83828 0.01676 0.19591 0.0
H924 H 0.77714 0.05254 0.18418 0.0
H925 H 0.8602 0.10968 0.1518 0.0
H926 H 0.9219 0.07454 0.16346 0.0
H927 H 0.96522 0.82099 0.1787 0.0
H928 H 0.94704 0.88767 0.19151 0.0
H929 H 0.02904 0.95625 0.16138 0.0
H930 H 0.04808 0.88904 0.14855 0.0
H931 H 0.93328 0.9853 0.16734 0.0
H932 H 0.0672 0.95331 0.19009 0.0
H933 H 0.12016 0.90764 0.20224 0.0
H934 H 0.03539 0.88747 0.23935 0.0
H935 H 0.9813 0.93222 0.22729 0.0
C936 C 0.86969 0.12024 0.22022 0.0
C937 C 0.85719 0.10282 0.2341 0.0
C938 C 0.89519 0.09683 0.21015 0.0
C939 C 0.90753 0.05511 0.21356 0.0
C940 C 0.8951 0.03793 0.22739 0.0
C941 C 0.87106 0.0616 0.23758 0.0
C942 C 0.93291 0.02828 0.20296 0.0
C943 C 0.96683 0.00478 0.20891 0.0
C944 C 0.92165 0.0222 0.18759 0.0
C945 C 0.8847 0.04359 0.18068 0.0
C946 C 0.84351 0.03725 0.18637 0.0
C947 C 0.80877 0.05735 0.17972 0.0
C948 C 0.81481 0.08351 0.16729 0.0
C949 C 0.85559 0.08952 0.16145 0.0
C950 C 0.89045 0.06954 0.16808 0.0
C951 C 0.97959 0.8502 0.17485 0.0
C952 C 0.00823 0.84996 0.16272 0.0
C953 C 0.96914 0.88816 0.18214 0.0
C954 C 0.98668 0.92656 0.17731 0.0
C955 C 0.01524 0.92672 0.16518 0.0
C956 C 0.02637 0.88843 0.15801 0.0
C957 C 0.97467 0.96603 0.18529 0.0
C958 C 0.94344 0.99175 0.17885 0.0
C959 C 0.9873 0.9731 0.20038 0.0
C960 C 0.01993 0.94604 0.2077 0.0
C961 C 0.05949 0.9387 0.20073 0.0
C962 C 0.08984 0.91309 0.20764 0.0
C963 C 0.08117 0.89466 0.22154 0.0
C964 C 0.04209 0.90182 0.22858 0.0
C965 C 0.01157 0.92739 0.22172 0.0
H966 H 0.10476 0.87486 0.22686 0.0
H967 H 0.78787 0.09902 0.16215 0.0
H968 H 0.66839 0.10649 0.9761 0.0
H969 H 0.70657 0.15264 0.95842 0.0
H970 H 0.82302 0.08619 0.96785 0.0
H971 H 0.78533 0.03858 0.98444 0.0
H972 H 0.8263 0.17893 0.97135 0.0
H973 H 0.77534 0.06392 0.93675 0.0
H974 H 0.71703 0.0247 0.92414 0.0
H975 H 0.66897 0.14135 0.90629 0.0
H976 H 0.7268 0.18128 0.91896 0.0
H977 H 0.99815 0.16112 0.92481 0.0
H978 H 0.9333 0.15314 0.93956 0.0
H979 H 0.86653 0.23515 0.90904 0.0
H980 H 0.93204 0.24354 0.89418 0.0
H981 H 0.82071 0.16356 0.91562 0.0
H982 H 0.8899 0.27171 0.94215 0.0
H983 H 0.94649 0.31283 0.95477 0.0
H984 H 0.9581 0.21658 0.98834 0.0
H985 H 0.90192 0.17449 0.97583 0.0
C986 C 0.70201 0.10142 0.97423 0.0
C987 C 0.72397 0.06943 0.982 0.0
C988 C 0.72376 0.12808 0.96428 0.0
C989 C 0.76774 0.12349 0.96224 0.0
C990 C 0.78925 0.09087 0.96959 0.0
C991 C 0.76761 0.06383 0.97917 0.0
C992 C 0.79262 0.15178 0.95244 0.0
C993 C 0.825 0.17618 0.95915 0.0
C994 C 0.78937 0.14965 0.93657 0.0
C995 C 0.75498 0.12557 0.92892 0.0
C996 C 0.75212 0.08119 0.93023 0.0
C997 C 0.71922 0.05884 0.92306 0.0
C998 C 0.68923 0.08053 0.91446 0.0
C999 C 0.69216 0.12461 0.91298 0.0
C1000 C 0.72499 0.1471 0.92014 0.0
C1001 C 0.96976 0.17771 0.92129 0.0
C1002 C 0.97014 0.20342 0.9085 0.0
C1003 C 0.93281 0.17335 0.92977 0.0
C1004 C 0.89539 0.19436 0.92556 0.0
C1005 C 0.89533 0.21939 0.9126 0.0
C1006 C 0.93267 0.22431 0.90421 0.0
C1007 C 0.85642 0.18822 0.93461 0.0
C1008 C 0.82131 0.16816 0.92777 0.0
C1009 C 0.85687 0.19495 0.95043 0.0
C1010 C 0.89116 0.21998 0.95804 0.0
C1011 C 0.90439 0.25922 0.95221 0.0
C1012 C 0.93651 0.28273 0.95935 0.0
C1013 C 0.95578 0.26741 0.97238 0.0
C1014 C 0.94301 0.2285 0.97827 0.0
C1015 C 0.91089 0.20484 0.97117 0.0
H1016 H 0.98068 0.28564 0.97788 0.0
H1017 H 0.66378 0.06318 0.90891 0.0
H1018 H 0.86755 0.90886 0.70722 0.0
H1019 H 0.84435 0.96385 0.68949 0.0
H1020 H 0.7332 0.98706 0.71684 0.0
H1021 H 0.75622 0.93259 0.73442 0.0
H1022 H 0.71537 0.98287 0.68612 0.0
H1023 H 0.82084 0.0584 0.71995 0.0
H1024 H 0.8934 0.06907 0.73012 0.0
H1025 H 0.94415 0.06688 0.68521 0.0
H1026 H 0.87189 0.0575 0.67478 0.0
H1027 H 0.62333 0.17462 0.67691 0.0
H1028 H 0.66968 0.1234 0.6892 0.0
H1029 H 0.76009 0.13425 0.65291 0.0
H1030 H 0.7136 0.18602 0.64063 0.0
H1031 H 0.79797 0.11688 0.68229 0.0
H1032 H 0.69831 0.06132 0.64791 0.0
H1033 H 0.62978 0.05176 0.63487 0.0
H1034 H 0.57287 0.00849 0.67591 0.0
H1035 H 0.641 0.01862 0.68932 0.0
C1036 C 0.83773 0.92517 0.70918 0.0
C1037 C 0.81342 0.91644 0.72207 0.0
C1038 C 0.82481 0.95684 0.69919 0.0
C1039 C 0.78729 0.97985 0.70195 0.0
C1040 C 0.76227 0.96977 0.71451 0.0
C1041 C 0.77531 0.93859 0.7245 0.0
C1042 C 0.77358 0.01499 0.6921 0.0
C1043 C 0.7334 0.01216 0.68531 0.0
C1044 C 0.798 0.05241 0.69032 0.0
C1045 C 0.84124 0.05683 0.69664 0.0
C1046 C 0.84758 0.05993 0.71229 0.0
C1047 C 0.88855 0.06583 0.71809 0.0
C1048 C 0.92334 0.06811 0.70835 0.0
C1049 C 0.91721 0.06493 0.69276 0.0
C1050 C 0.87627 0.05959 0.68689 0.0
C1051 C 0.65418 0.16788 0.67201 0.0
C1052 C 0.66533 0.18461 0.658 0.0
C1053 C 0.6804 0.13826 0.67892 0.0
C1054 C 0.71788 0.12454 0.67181 0.0
C1055 C 0.7313 0.1445 0.65857 0.0
C1056 C 0.70495 0.17432 0.65164 0.0
C1057 C 0.73885 0.08538 0.67711 0.0
C1058 C 0.78024 0.08736 0.68291 0.0
C1059 C 0.71615 0.04655 0.67752 0.0
C1060 C 0.67475 0.04102 0.66966 0.0
C1061 C 0.67109 0.05024 0.65422 0.0
C1062 C 0.63234 0.04461 0.64674 0.0
C1063 C 0.59704 0.02939 0.65455 0.0
C1064 C 0.60031 0.02015 0.66988 0.0
C1065 C 0.639 0.02583 0.67743 0.0
H1066 H 0.56721 0.02459 0.64868 0.0
H1067 H 0.955 0.07259 0.71287 0.0
H1068 H 0.63111 0.45212 0.97033 0.0
H1069 H 0.68611 0.42684 0.95269 0.0
H1070 H 0.74574 0.3577 0.98868 0.0
H1071 H 0.69053 0.38209 0.00608 0.0
H1072 H 0.76806 0.44756 0.95522 0.0
H1073 H 0.80542 0.27738 0.97472 0.0
H1074 H 0.76719 0.21692 0.98588 0.0
H1075 H 0.65202 0.2555 0.96407 0.0
H1076 H 0.68945 0.31619 0.95278 0.0
H1077 H 0.97052 0.38633 0.92482 0.0
H1078 H 0.91404 0.39637 0.94378 0.0
H1079 H 0.82947 0.31851 0.91684 0.0
H1080 H 0.88431 0.30887 0.8981 0.0
H1081 H 0.82012 0.30076 0.94609 0.0
H1082 H 0.82591 0.4248 0.91439 0.0
H1083 H 0.86076 0.48686 0.90302 0.0
H1084 H 0.88515 0.53967 0.94713 0.0
H1085 H 0.85089 0.47758 0.95876 0.0
C1086 C 0.65496 0.43005 0.97424 0.0
C1087 C 0.65653 0.41869 0.98947 0.0
C1088 C 0.68668 0.41611 0.96425 0.0
C1089 C 0.72019 0.39048 0.96937 0.0
C1090 C 0.72005 0.37696 0.98439 0.0
C1091 C 0.68842 0.39078 0.99431 0.0
C1092 C 0.75729 0.38112 0.95951 0.0
C1093 C 0.77944 0.41542 0.95325 0.0
C1094 C 0.77245 0.33927 0.95699 0.0
C1095 C 0.75012 0.30167 0.96309 0.0
C1096 C 0.77197 0.27287 0.97226 0.0
C1097 C 0.75042 0.23865 0.97864 0.0
C1098 C 0.70716 0.23261 0.97578 0.0
C1099 C 0.68545 0.26044 0.96637 0.0
C1100 C 0.70678 0.29482 0.96002 0.0
C1101 C 0.94006 0.37101 0.92307 0.0
C1102 C 0.93218 0.34685 0.90989 0.0
C1103 C 0.9078 0.37682 0.93387 0.0
C1104 C 0.86743 0.35833 0.93166 0.0
C1105 C 0.86029 0.33295 0.91884 0.0
C1106 C 0.89199 0.32756 0.90808 0.0
C1107 C 0.8312 0.36724 0.94195 0.0
C1108 C 0.80918 0.33291 0.94827 0.0
C1109 C 0.81592 0.409 0.94442 0.0
C1110 C 0.8363 0.44638 0.93744 0.0
C1111 C 0.83899 0.44951 0.92166 0.0
C1112 C 0.85859 0.4847 0.91517 0.0
C1113 C 0.87528 0.51713 0.92434 0.0
C1114 C 0.87229 0.51449 0.94003 0.0
C1115 C 0.85278 0.47932 0.94658 0.0
H1116 H 0.89043 0.54436 0.9193 0.0
H1117 H 0.69048 0.20628 0.98082 0.0
H1118 H 0.8804 0.29094 0.22676 0.0
H1119 H 0.91288 0.34065 0.20919 0.0
H1120 H 0.94247 0.42603 0.24616 0.0
H1121 H 0.91199 0.37572 0.26394 0.0
H1122 H 0.87503 0.44529 0.21802 0.0
H1123 H 0.01916 0.41044 0.2347 0.0
H1124 H 0.07808 0.36048 0.239 0.0
H1125 H 0.07658 0.32409 0.19212 0.0
H1126 H 0.01715 0.37343 0.18761 0.0
H1127 H 0.95106 0.6304 0.1833 0.0
H1128 H 0.93712 0.57134 0.20016 0.0
H1129 H 0.98373 0.48296 0.16638 0.0
H1130 H 0.99923 0.54205 0.14967 0.0
H1131 H 0.01388 0.46145 0.19227 0.0
H1132 H 0.87551 0.49472 0.1742 0.0
H1133 H 0.81385 0.53968 0.16818 0.0
H1134 H 0.7994 0.5724 0.21509 0.0
H1135 H 0.86137 0.52807 0.22137 0.0
C1136 C 0.89556 0.31933 0.23126 0.0
C1137 C 0.89299 0.32969 0.24674 0.0
C1138 C 0.91389 0.34778 0.22118 0.0
C1139 C 0.9298 0.38688 0.22644 0.0
C1140 C 0.9304 0.39584 0.24195 0.0
C1141 C 0.91272 0.36719 0.25206 0.0
C1142 C 0.93861 0.42109 0.21569 0.0
C1143 C 0.90552 0.44932 0.21251 0.0
C1144 C 0.97781 0.42489 0.20814 0.0
C1145 C 0.01331 0.39513 0.21087 0.0
C1146 C 0.03099 0.39136 0.22536 0.0
C1147 C 0.0646 0.36328 0.22782 0.0
C1148 C 0.08095 0.33899 0.21585 0.0
C1149 C 0.06381 0.34284 0.20139 0.0
C1150 C 0.03019 0.37087 0.19887 0.0
C1151 C 0.95795 0.59836 0.1794 0.0
C1152 C 0.97609 0.5909 0.16513 0.0
C1153 C 0.94992 0.56458 0.18905 0.0
C1154 C 0.95892 0.52258 0.18449 0.0
C1155 C 0.97662 0.51505 0.17017 0.0
C1156 C 0.98525 0.54887 0.16061 0.0
C1157 C 0.95043 0.48665 0.19474 0.0
C1158 C 0.98333 0.45775 0.19776 0.0
C1159 C 0.91064 0.48165 0.20195 0.0
C1160 C 0.87335 0.50838 0.19823 0.0
C1161 C 0.8594 0.51176 0.18322 0.0
C1162 C 0.82435 0.53709 0.17976 0.0
C1163 C 0.80279 0.55897 0.19124 0.0
C1164 C 0.81617 0.55548 0.20621 0.0
C1165 C 0.85123 0.53022 0.20973 0.0
H1166 H 0.77566 0.57855 0.18855 0.0
H1167 H 0.107 0.3173 0.21778 0.0
H1168 H 0.01456 0.51371 0.47297 0.0
H1169 H 0.9602 0.55207 0.45895 0.0
H1170 H 0.89086 0.43507 0.45179 0.0
H1171 H 0.94606 0.39624 0.46514 0.0
H1172 H 0.89221 0.47878 0.42677 0.0
H1173 H 0.858 0.5097 0.47873 0.0
H1174 H 0.87074 0.53464 0.50487 0.0
H1175 H 0.906 0.65777 0.48875 0.0
H1176 H 0.89309 0.6337 0.46252 0.0
H1177 H 0.68739 0.56379 0.41068 0.0
H1178 H 0.74666 0.52896 0.42345 0.0
H1179 H 0.8217 0.64314 0.41981 0.0
H1180 H 0.76291 0.67804 0.4068 0.0
H1181 H 0.81915 0.60361 0.44965 0.0
H1182 H 0.84761 0.57152 0.39742 0.0
H1183 H 0.82917 0.54583 0.37183 0.0
H1184 H 0.80135 0.42215 0.38918 0.0
H1185 H 0.81906 0.4473 0.41492 0.0
C1186 C 0.98809 0.49606 0.4682 0.0
C1187 C 0.98465 0.45191 0.47013 0.0
C1188 C 0.95675 0.5181 0.46037 0.0
C1189 C 0.9212 0.49649 0.4545 0.0
C1190 C 0.91797 0.45239 0.45626 0.0
C1191 C 0.94938 0.43031 0.46398 0.0
C1192 C 0.88738 0.51968 0.44643 0.0
C1193 C 0.87596 0.50578 0.43185 0.0
C1194 C 0.8667 0.55541 0.45293 0.0
C1195 C 0.87501 0.56979 0.46866 0.0
C1196 C 0.86876 0.54201 0.48076 0.0
C1197 C 0.8759 0.55601 0.49558 0.0
C1198 C 0.88947 0.59764 0.49846 0.0
C1199 C 0.89561 0.62549 0.48651 0.0
C1200 C 0.88821 0.61175 0.47166 0.0
C1201 C 0.7165 0.58147 0.41261 0.0
C1202 C 0.72061 0.62357 0.40772 0.0
C1203 C 0.75027 0.56153 0.41985 0.0
C1204 C 0.78839 0.58357 0.42248 0.0
C1205 C 0.79243 0.62574 0.41783 0.0
C1206 C 0.75895 0.64548 0.41036 0.0
C1207 C 0.82401 0.56242 0.43013 0.0
C1208 C 0.83567 0.57671 0.44459 0.0
C1209 C 0.84455 0.52679 0.4236 0.0
C1210 C 0.83425 0.51142 0.40812 0.0
C1211 C 0.83721 0.53894 0.3958 0.0
C1212 C 0.82697 0.52446 0.38126 0.0
C1213 C 0.814 0.48242 0.37888 0.0
C1214 C 0.81136 0.45472 0.39104 0.0
C1215 C 0.82154 0.46906 0.4056 0.0
H1216 H 0.80611 0.47133 0.36762 0.0
H1217 H 0.89507 0.60837 0.50994 0.0
H1218 H 0.81266 0.70813 0.70443 0.0
H1219 H 0.76826 0.65261 0.69246 0.0
H1220 H 0.78293 0.57451 0.73169 0.0
H1221 H 0.82574 0.62973 0.74381 0.0
H1222 H 0.80392 0.53415 0.70349 0.0
H1223 H 0.69732 0.62548 0.72591 0.0
H1224 H 0.66055 0.69395 0.72909 0.0
H1225 H 0.61995 0.68827 0.68287 0.0
H1226 H 0.65802 0.62057 0.67918 0.0
H1227 H 0.68358 0.36272 0.67645 0.0
H1228 H 0.70584 0.41849 0.69437 0.0
H1229 H 0.6575 0.51403 0.66441 0.0
H1230 H 0.63256 0.45903 0.64725 0.0
H1231 H 0.65144 0.54535 0.68996 0.0
H1232 H 0.76666 0.47456 0.66429 0.0
H1233 H 0.81095 0.41351 0.65645 0.0
H1234 H 0.84047 0.38858 0.7028 0.0
H1235 H 0.79591 0.44923 0.71092 0.0
C1236 C 0.80584 0.67936 0.71055 0.0
C1237 C 0.82341 0.67299 0.72493 0.0
C1238 C 0.78068 0.64768 0.7037 0.0
C1239 C 0.7727 0.60938 0.71118 0.0
C1240 C 0.78912 0.60363 0.72568 0.0
C1241 C 0.81378 0.63519 0.73254 0.0
C1242 C 0.74863 0.57425 0.70384 0.0
C1243 C 0.77043 0.53637 0.70067 0.0
C1244 C 0.70532 0.57788 0.69977 0.0
C1245 C 0.68123 0.61805 0.7022 0.0
C1246 C 0.6813 0.63911 0.71631 0.0
C1247 C 0.6602 0.67788 0.71822 0.0
C1248 C 0.63819 0.69562 0.70616 0.0
C1249 C 0.63715 0.67457 0.69219 0.0
C1250 C 0.65857 0.63601 0.69018 0.0
C1251 C 0.67682 0.39558 0.6739 0.0
C1252 C 0.65718 0.40632 0.66024 0.0
C1253 C 0.68984 0.42753 0.68409 0.0
C1254 C 0.68495 0.47076 0.68051 0.0
C1255 C 0.66218 0.48116 0.66747 0.0
C1256 C 0.6481 0.44939 0.65755 0.0
C1257 C 0.70696 0.50517 0.68928 0.0
C1258 C 0.68487 0.54293 0.69282 0.0
C1259 C 0.75067 0.5024 0.69305 0.0
C1260 C 0.77758 0.46605 0.68821 0.0
C1261 C 0.78242 0.45589 0.67281 0.0
C1262 C 0.80757 0.42139 0.66831 0.0
C1263 C 0.8284 0.3971 0.67912 0.0
C1264 C 0.82423 0.40736 0.69444 0.0
C1265 C 0.79904 0.44179 0.699 0.0
H1266 H 0.84785 0.3704 0.67562 0.0
H1267 H 0.62167 0.72552 0.70768 0.0
H1268 H 0.71066 0.46194 0.03439 0.0
H1269 H 0.76146 0.50027 0.04963 0.0
H1270 H 0.67229 0.60345 0.05536 0.0
H1271 H 0.62296 0.56727 0.03805 0.0
H1272 H 0.7405 0.63787 0.05234 0.0
H1273 H 0.70507 0.52839 0.08512 0.0
H1274 H 0.68938 0.45634 0.09418 0.0
H1275 H 0.81737 0.41784 0.08441 0.0
H1276 H 0.83372 0.48948 0.07509 0.0
H1277 H 0.886 0.72163 0.10836 0.0
H1278 H 0.82617 0.6936 0.09403 0.0
H1279 H 0.90642 0.59559 0.07502 0.0
H1280 H 0.9664 0.62234 0.08999 0.0
H1281 H 0.83611 0.56311 0.08758 0.0
H1282 H 0.86164 0.68809 0.05476 0.0
H1283 H 0.86625 0.76581 0.05152 0.0
H1284 H 0.74063 0.78063 0.06969 0.0
H1285 H 0.73535 0.70324 0.07313 0.0
C1286 C 0.70177 0.49313 0.03863 0.0
C1287 C 0.66289 0.51187 0.03453 0.0
C1288 C 0.73074 0.5147 0.04779 0.0
C1289 C 0.72086 0.55467 0.05405 0.0
C1290 C 0.68102 0.5727 0.05069 0.0
C1291 C 0.65244 0.55168 0.04093 0.0
C1292 C 0.75355 0.57826 0.06314 0.0
C1293 C 0.76086 0.62143 0.06021 0.0
C1294 C 0.7801 0.5576 0.07371 0.0
C1295 C 0.77054 0.51433 0.07931 0.0
C1296 C 0.72981 0.5045 0.08481 0.0
C1297 C 0.72081 0.46373 0.09 0.0
C1298 C 0.75234 0.43252 0.08985 0.0
C1299 C 0.79298 0.44205 0.08452 0.0
C1300 C 0.80215 0.48277 0.0793 0.0
C1301 C 0.89137 0.69458 0.10091 0.0
C1302 C 0.9311 0.67392 0.1005 0.0
C1303 C 0.85694 0.67872 0.09262 0.0
C1304 C 0.86162 0.64249 0.08337 0.0
C1305 C 0.90197 0.62355 0.08211 0.0
C1306 C 0.9364 0.63908 0.09059 0.0
C1307 C 0.82393 0.62177 0.0762 0.0
C1308 C 0.8156 0.57917 0.07965 0.0
C1309 C 0.79494 0.6437 0.06689 0.0
C1310 C 0.79823 0.68996 0.06428 0.0
C1311 C 0.83508 0.70797 0.05808 0.0
C1312 C 0.83779 0.75197 0.05622 0.0
C1313 C 0.80379 0.77805 0.06048 0.0
C1314 C 0.76691 0.76033 0.06644 0.0
C1315 C 0.76402 0.71646 0.06831 0.0
H1316 H 0.80574 0.812 0.0592 0.0
H1317 H 0.74529 0.40097 0.09387 0.0
H1318 H 0.82686 0.35998 0.29675 0.0
H1319 H 0.78327 0.41232 0.31012 0.0
H1320 H 0.67243 0.36808 0.28584 0.0
H1321 H 0.71649 0.31554 0.27224 0.0
H1322 H 0.68112 0.45409 0.28454 0.0
H1323 H 0.67914 0.35109 0.32316 0.0
H1324 H 0.7086 0.29793 0.34043 0.0
H1325 H 0.78607 0.39397 0.36164 0.0
H1326 H 0.75738 0.44776 0.3444 0.0
H1327 H 0.57039 0.57285 0.34999 0.0
H1328 H 0.59029 0.51385 0.33337 0.0
H1329 H 0.70317 0.58137 0.32015 0.0
H1330 H 0.68328 0.6412 0.33665 0.0
H1331 H 0.68151 0.47852 0.33996 0.0
H1332 H 0.69859 0.56871 0.29171 0.0
H1333 H 0.66655 0.61824 0.27356 0.0
H1334 H 0.55358 0.54152 0.27166 0.0
H1335 H 0.58502 0.49181 0.28987 0.0
C1336 C 0.79302 0.36087 0.2945 0.0
C1337 C 0.7749 0.33383 0.28352 0.0
C1338 C 0.76813 0.39067 0.30216 0.0
C1339 C 0.72457 0.39396 0.29903 0.0
C1340 C 0.70599 0.36594 0.28843 0.0
C1341 C 0.73099 0.33579 0.28079 0.0
C1342 C 0.69972 0.42892 0.30608 0.0
C1343 C 0.68071 0.45902 0.29668 0.0
C1344 C 0.69913 0.43549 0.3219 0.0
C1345 C 0.71625 0.40342 0.33242 0.0
C1346 C 0.70263 0.36087 0.33145 0.0
C1347 C 0.71914 0.33064 0.34126 0.0
C1348 C 0.74919 0.3426 0.35213 0.0
C1349 C 0.76272 0.38484 0.35324 0.0
C1350 C 0.74627 0.41522 0.34348 0.0
C1351 C 0.59865 0.57603 0.34314 0.0
C1352 C 0.62529 0.61185 0.34472 0.0
C1353 C 0.61001 0.5421 0.33368 0.0
C1354 C 0.64798 0.54343 0.32549 0.0
C1355 C 0.67332 0.58015 0.32621 0.0
C1356 C 0.66186 0.61433 0.33565 0.0
C1357 C 0.66444 0.50406 0.31839 0.0
C1358 C 0.68166 0.47313 0.32784 0.0
C1359 C 0.66317 0.49654 0.30268 0.0
C1360 C 0.6438 0.52709 0.29225 0.0
C1361 C 0.6668 0.56272 0.2875 0.0
C1362 C 0.64884 0.59068 0.27716 0.0
C1363 C 0.60805 0.58304 0.27146 0.0
C1364 C 0.58518 0.54738 0.27606 0.0
C1365 C 0.603 0.51938 0.2864 0.0
H1366 H 0.59416 0.60477 0.26349 0.0
H1367 H 0.76198 0.31914 0.35969 0.0
H1368 H 0.96851 0.31813 0.49848 0.0
H1369 H 0.9257 0.30193 0.52065 0.0
H1370 H 0.01861 0.36337 0.54928 0.0
H1371 H 0.06117 0.38063 0.52717 0.0
H1372 H 0.9507 0.28103 0.55988 0.0
H1373 H 0.96919 0.43543 0.54506 0.0
H1374 H 0.98134 0.48331 0.52363 0.0
H1375 H 0.87234 0.43102 0.50085 0.0
H1376 H 0.85994 0.38245 0.5221 0.0
H1377 H 0.80362 0.34322 0.61587 0.0
H1378 H 0.86672 0.34611 0.59978 0.0
H1379 H 0.78655 0.36335 0.56079 0.0
H1380 H 0.72385 0.36335 0.57697 0.0
H1381 H 0.85435 0.40565 0.55672 0.0
H1382 H 0.82597 0.26212 0.57291 0.0
H1383 H 0.81324 0.20916 0.59268 0.0
H1384 H 0.93786 0.23236 0.61079 0.0
H1385 H 0.95103 0.28602 0.59128 0.0
C1386 C 0.98077 0.32649 0.50956 0.0
C1387 C 0.01756 0.35159 0.51108 0.0
C1388 C 0.95646 0.31689 0.52222 0.0
C1389 C 0.96892 0.33192 0.53651 0.0
C1390 C 0.00873 0.35134 0.53831 0.0
C1391 C 0.033 0.36121 0.52563 0.0
C1392 C 0.93601 0.3385 0.54813 0.0
C1393 C 0.92996 0.30849 0.55942 0.0
C1394 C 0.90861 0.37387 0.54722 0.0
C1395 C 0.91363 0.40551 0.53513 0.0
C1396 C 0.94767 0.43444 0.53552 0.0
C1397 C 0.95469 0.46153 0.5234 0.0
C1398 C 0.92764 0.46017 0.51089 0.0
C1399 C 0.89322 0.43204 0.51056 0.0
C1400 C 0.88614 0.40478 0.52264 0.0
C1401 C 0.79968 0.34849 0.6039 0.0
C1402 C 0.75896 0.35277 0.59762 0.0
C1403 C 0.83567 0.34981 0.5947 0.0
C1404 C 0.83137 0.3536 0.57898 0.0
C1405 C 0.79077 0.36016 0.57285 0.0
C1406 C 0.75491 0.36015 0.58211 0.0
C1407 C 0.86851 0.34819 0.56878 0.0
C1408 C 0.87528 0.37841 0.55753 0.0
C1409 C 0.89611 0.31258 0.56967 0.0
C1410 C 0.88929 0.27839 0.58076 0.0
C1411 C 0.85062 0.25594 0.58112 0.0
C1412 C 0.84325 0.22598 0.59232 0.0
C1413 C 0.87456 0.21779 0.60308 0.0
C1414 C 0.91354 0.23902 0.60252 0.0
C1415 C 0.92099 0.26917 0.59139 0.0
H1416 H 0.86874 0.19468 0.61177 0.0
H1417 H 0.93349 0.48073 0.50143 0.0
H1418 H 0.91005 0.72645 0.77873 0.0
H1419 H 0.94268 0.68132 0.7975 0.0
H1420 H 0.01594 0.61852 0.76254 0.0
H1421 H 0.98083 0.66225 0.74356 0.0
H1422 H 0.98117 0.56227 0.77666 0.0
H1423 H 0.06231 0.67778 0.79358 0.0
H1424 H 0.08066 0.75097 0.80138 0.0
H1425 H 0.99802 0.74152 0.83971 0.0
H1426 H 0.97856 0.66845 0.83202 0.0
H1427 H 0.05959 0.4739 0.85384 0.0
H1428 H 0.06059 0.53162 0.83573 0.0
H1429 H 0.93758 0.49207 0.81912 0.0
H1430 H 0.93712 0.4332 0.8368 0.0
H1431 H 0.01776 0.59867 0.82972 0.0
H1432 H 0.93153 0.50031 0.78164 0.0
H1433 H 0.92831 0.42589 0.77261 0.0
H1434 H 0.04738 0.40001 0.79429 0.0
H1435 H 0.05156 0.47426 0.80331 0.0
C1436 C 0.93425 0.70403 0.77513 0.0
C1437 C 0.94304 0.69773 0.75974 0.0
C1438 C 0.9531 0.67824 0.78589 0.0
C1439 C 0.98199 0.64637 0.78152 0.0
C1440 C 0.99351 0.64259 0.76622 0.0
C1441 C 0.97377 0.66773 0.75538 0.0
C1442 C 0.99465 0.61332 0.79248 0.0
C1443 C 0.98951 0.57044 0.78821 0.0
C1444 C 0.00734 0.62347 0.80745 0.0
C1445 C 0.01881 0.66755 0.81216 0.0
C1446 C 0.0478 0.69133 0.80362 0.0
C1447 C 0.05844 0.73283 0.80803 0.0
C1448 C 0.04051 0.7509 0.82103 0.0
C1449 C 0.01191 0.72747 0.82965 0.0
C1450 C 0.00111 0.68596 0.82528 0.0
C1451 C 0.03245 0.47778 0.84646 0.0
C1452 C 0.99834 0.44875 0.84667 0.0
C1453 C 0.03314 0.51084 0.83611 0.0
C1454 C 0.99958 0.5157 0.82587 0.0
C1455 C 0.96436 0.48827 0.82667 0.0
C1456 C 0.96397 0.45479 0.83684 0.0
C1457 C 0.00175 0.54837 0.81398 0.0
C1458 C 0.00988 0.59087 0.81809 0.0
C1459 C 0.99408 0.53779 0.79866 0.0
C1460 C 0.99172 0.49293 0.79322 0.0
C1461 C 0.95713 0.47882 0.78442 0.0
C1462 C 0.95511 0.43661 0.77932 0.0
C1463 C 0.98757 0.40822 0.78289 0.0
C1464 C 0.02217 0.42198 0.79156 0.0
C1465 C 0.02435 0.46412 0.79669 0.0
H1466 H 0.98592 0.37556 0.77893 0.0
H1467 H 0.04879 0.78304 0.82442 0.0
H1468 H 0.43712 0.56425 0.03227 0.0
H1469 H 0.38129 0.59536 0.04798 0.0
H1470 H 0.35526 0.47208 0.06675 0.0
H1471 H 0.40993 0.44072 0.0503 0.0
H1472 H 0.28508 0.50399 0.0584 0.0
H1473 H 0.3989 0.56025 0.0882 0.0
H1474 H 0.46658 0.59714 0.09353 0.0
H1475 H 0.41654 0.71194 0.0749 0.0
H1476 H 0.34886 0.67562 0.06924 0.0
H1477 H 0.1446 0.60733 0.11358 0.0
H1478 H 0.19306 0.56269 0.0984 0.0
H1479 H 0.22315 0.67048 0.07085 0.0
H1480 H 0.17434 0.7144 0.08567 0.0
H1481 H 0.29174 0.64119 0.08644 0.0
H1482 H 0.17887 0.58209 0.05558 0.0
H1483 H 0.11097 0.54469 0.05118 0.0
H1484 H 0.15946 0.43456 0.07344 0.0
H1485 H 0.2275 0.47154 0.07815 0.0
C1486 C 0.42056 0.54424 0.0402 0.0
C1487 C 0.42822 0.5004 0.04038 0.0
C1488 C 0.38853 0.56195 0.04918 0.0
C1489 C 0.36412 0.53622 0.05873 0.0
C1490 C 0.37357 0.49264 0.05951 0.0
C1491 C 0.40514 0.47481 0.0503 0.0
C1492 C 0.3263 0.5541 0.06666 0.0
C1493 C 0.28678 0.53361 0.06478 0.0
C1494 C 0.32808 0.59308 0.07482 0.0
C1495 C 0.36887 0.61506 0.0782 0.0
C1496 C 0.40244 0.59327 0.08514 0.0
C1497 C 0.44081 0.61411 0.08823 0.0
C1498 C 0.44592 0.65683 0.08453 0.0
C1499 C 0.41263 0.67884 0.07774 0.0
C1500 C 0.37422 0.65815 0.07461 0.0
C1501 C 0.15985 0.62061 0.10376 0.0
C1502 C 0.15578 0.66399 0.10066 0.0
C1503 C 0.18787 0.59536 0.09522 0.0
C1504 C 0.2125 0.61365 0.08378 0.0
C1505 C 0.20482 0.65587 0.07973 0.0
C1506 C 0.17661 0.6808 0.08809 0.0
C1507 C 0.25071 0.59178 0.07773 0.0
C1508 C 0.29029 0.61144 0.08012 0.0
C1509 C 0.24896 0.55197 0.07021 0.0
C1510 C 0.20812 0.52974 0.06735 0.0
C1511 C 0.17493 0.55003 0.05965 0.0
C1512 C 0.13644 0.52888 0.05708 0.0
C1513 C 0.13086 0.48732 0.06206 0.0
C1514 C 0.16381 0.46678 0.0696 0.0
C1515 C 0.20235 0.4878 0.07222 0.0
H1516 H 0.10105 0.471 0.06006 0.0
H1517 H 0.47563 0.67288 0.08696 0.0
H1518 H 0.24354 0.58253 0.757 0.0
H1519 H 0.21532 0.52233 0.77117 0.0
H1520 H 0.30229 0.55117 0.80761 0.0
H1521 H 0.33112 0.6107 0.7932 0.0
H1522 H 0.30533 0.46899 0.80029 0.0
H1523 H 0.19267 0.56939 0.81149 0.0
H1524 H 0.13926 0.62242 0.80394 0.0
H1525 H 0.0765 0.52844 0.77627 0.0
H1526 H 0.12939 0.47478 0.78373 0.0
H1527 H 0.20842 0.36626 0.86218 0.0
H1528 H 0.24306 0.40937 0.84303 0.0
H1529 H 0.1586 0.35726 0.80914 0.0
H1530 H 0.1244 0.31338 0.82835 0.0
H1531 H 0.15331 0.44512 0.81233 0.0
H1532 H 0.26125 0.34169 0.80472 0.0
H1533 H 0.31633 0.29013 0.81186 0.0
H1534 H 0.38933 0.39018 0.83279 0.0
H1535 H 0.33437 0.44231 0.82598 0.0
C1536 C 0.25563 0.57654 0.76822 0.0
C1537 C 0.28871 0.60143 0.77423 0.0
C1538 C 0.2397 0.54215 0.77628 0.0
C1539 C 0.25651 0.53234 0.79051 0.0
C1540 C 0.28885 0.55811 0.79666 0.0
C1541 C 0.30493 0.59233 0.78855 0.0
C1542 C 0.24185 0.49413 0.79869 0.0
C1543 C 0.27215 0.46398 0.80308 0.0
C1544 C 0.1984 0.48681 0.80184 0.0
C1545 C 0.16522 0.51827 0.79802 0.0
C1546 C 0.16742 0.56006 0.80381 0.0
C1547 C 0.13724 0.59017 0.79957 0.0
C1548 C 0.10475 0.57883 0.78955 0.0
C1549 C 0.10182 0.53717 0.78399 0.0
C1550 C 0.13176 0.50684 0.78827 0.0
C1551 C 0.19891 0.36232 0.85049 0.0
C1552 C 0.16435 0.33614 0.84663 0.0
C1553 C 0.21844 0.38718 0.83957 0.0
C1554 C 0.20322 0.38667 0.82468 0.0
C1555 C 0.17084 0.35799 0.82056 0.0
C1556 C 0.15176 0.33253 0.83148 0.0
C1557 C 0.21695 0.42038 0.81422 0.0
C1558 C 0.18645 0.44981 0.80941 0.0
C1559 C 0.26026 0.42711 0.81077 0.0
C1560 C 0.29348 0.39589 0.81492 0.0
C1561 C 0.28886 0.35268 0.81096 0.0
C1562 C 0.32011 0.32334 0.81493 0.0
C1563 C 0.35627 0.33686 0.8228 0.0
C1564 C 0.36129 0.37976 0.8267 0.0
C1565 C 0.33012 0.40922 0.82277 0.0
H1566 H 0.38043 0.3141 0.82586 0.0
H1567 H 0.08201 0.60239 0.78603 0.0
H1568 H 0.22254 0.35132 0.50801 0.0
H1569 H 0.27565 0.33233 0.527 0.0
H1570 H 0.3129 0.464 0.53116 0.0
H1571 H 0.26082 0.48277 0.51186 0.0
H1572 H 0.37958 0.4175 0.52837 0.0
H1573 H 0.25201 0.40749 0.55773 0.0
H1574 H 0.18038 0.38207 0.56432 0.0
H1575 H 0.22763 0.25467 0.56778 0.0
H1576 H 0.29917 0.27905 0.56065 0.0
H1577 H 0.50544 0.40502 0.59394 0.0
H1578 H 0.4467 0.41986 0.57677 0.0
H1579 H 0.42968 0.28552 0.56848 0.0
H1580 H 0.48911 0.27051 0.58551 0.0
H1581 H 0.35282 0.32998 0.57351 0.0
H1582 H 0.47795 0.33896 0.54294 0.0
H1583 H 0.55007 0.36329 0.53643 0.0
H1584 H 0.50675 0.49262 0.53616 0.0
H1585 H 0.43446 0.4691 0.5429 0.0
C1586 C 0.24173 0.37614 0.51317 0.0
C1587 C 0.23776 0.41842 0.50855 0.0
C1588 C 0.27193 0.36531 0.524 0.0
C1589 C 0.29797 0.39673 0.5306 0.0
C1590 C 0.29323 0.43919 0.52621 0.0
C1591 C 0.26352 0.44991 0.51522 0.0
C1592 C 0.3319 0.38519 0.54141 0.0
C1593 C 0.37344 0.39897 0.53836 0.0
C1594 C 0.32424 0.35964 0.55419 0.0
C1595 C 0.28095 0.34501 0.55838 0.0
C1596 C 0.24704 0.37394 0.55965 0.0
C1597 C 0.20639 0.3597 0.56348 0.0
C1598 C 0.19935 0.3167 0.56632 0.0
C1599 C 0.23299 0.28788 0.5654 0.0
C1600 C 0.27357 0.30187 0.56142 0.0
C1601 C 0.48919 0.37861 0.58848 0.0
C1602 C 0.50145 0.33648 0.59119 0.0
C1603 C 0.45562 0.38715 0.57871 0.0
C1604 C 0.43396 0.35375 0.5714 0.0
C1605 C 0.44577 0.31164 0.57419 0.0
C1606 C 0.47945 0.30309 0.58396 0.0
C1607 C 0.39978 0.36309 0.56053 0.0
C1608 C 0.35851 0.34868 0.56351 0.0
C1609 C 0.40748 0.38807 0.5477 0.0
C1610 C 0.45089 0.4023 0.54357 0.0
C1611 C 0.48388 0.37262 0.54162 0.0
C1612 C 0.52477 0.38626 0.53786 0.0
C1613 C 0.53301 0.42948 0.53592 0.0
C1614 C 0.50034 0.45915 0.53769 0.0
C1615 C 0.45939 0.44568 0.54147 0.0
H1616 H 0.5647 0.43998 0.53301 0.0
H1617 H 0.16789 0.30576 0.56932 0.0
H1618 H 0.36975 0.38494 0.28522 0.0
H1619 H 0.38687 0.43831 0.3046 0.0
H1620 H 0.43205 0.52288 0.27014 0.0
H1621 H 0.42034 0.46823 0.2512 0.0
H1622 H 0.47771 0.53681 0.29104 0.0
H1623 H 0.32718 0.52796 0.28845 0.0
H1624 H 0.25619 0.49463 0.28885 0.0
H1625 H 0.27548 0.45828 0.33486 0.0
H1626 H 0.34683 0.49092 0.33467 0.0
H1627 H 0.41393 0.71762 0.34508 0.0
H1628 H 0.38957 0.65992 0.32828 0.0
H1629 H 0.49849 0.58522 0.3406 0.0
H1630 H 0.52303 0.64244 0.35724 0.0
H1631 H 0.37134 0.57124 0.3307 0.0
H1632 H 0.54561 0.55746 0.31024 0.0
H1633 H 0.60654 0.60626 0.30708 0.0
H1634 H 0.52145 0.71036 0.30022 0.0
H1635 H 0.46007 0.66243 0.30331 0.0
C1636 C 0.38435 0.41447 0.28183 0.0
C1637 C 0.3927 0.42244 0.26653 0.0
C1638 C 0.39338 0.44541 0.29291 0.0
C1639 C 0.40957 0.48543 0.28888 0.0
C1640 C 0.41935 0.49261 0.27369 0.0
C1641 C 0.41187 0.46133 0.26275 0.0
C1642 C 0.41634 0.52013 0.30028 0.0
C1643 C 0.45414 0.54401 0.29962 0.0
C1644 C 0.38533 0.53118 0.31131 0.0
C1645 C 0.34252 0.51145 0.31148 0.0
C1646 C 0.31639 0.51257 0.29861 0.0
C1647 C 0.27608 0.49385 0.2988 0.0
C1648 C 0.26139 0.47424 0.31185 0.0
C1649 C 0.28694 0.47341 0.32475 0.0
C1650 C 0.32731 0.49203 0.32461 0.0
C1651 C 0.43256 0.68877 0.3443 0.0
C1652 C 0.47122 0.68504 0.3522 0.0
C1653 C 0.41835 0.65575 0.3348 0.0
C1654 C 0.44255 0.61862 0.33312 0.0
C1655 C 0.47972 0.61393 0.34164 0.0
C1656 C 0.49396 0.64682 0.35103 0.0
C1657 C 0.43233 0.58658 0.3213 0.0
C1658 C 0.39433 0.56349 0.32197 0.0
C1659 C 0.46149 0.57811 0.30957 0.0
C1660 C 0.49843 0.60639 0.30705 0.0
C1661 C 0.54001 0.59071 0.30798 0.0
C1662 C 0.57456 0.61822 0.30627 0.0
C1663 C 0.56794 0.66126 0.30348 0.0
C1664 C 0.52662 0.67701 0.30239 0.0
C1665 C 0.49195 0.64973 0.30415 0.0
H1666 H 0.59483 0.68236 0.30216 0.0
H1667 H 0.23017 0.45977 0.31198 0.0
H1668 H 0.44895 0.46852 0.97235 0.0
H1669 H 0.39415 0.45047 0.95355 0.0
H1670 H 0.32758 0.37672 0.98678 0.0
H1671 H 0.38305 0.39265 0.00514 0.0
H1672 H 0.3189 0.33894 0.96174 0.0
H1673 H 0.30196 0.48426 0.97798 0.0
H1674 H 0.32411 0.55868 0.98226 0.0
H1675 H 0.34479 0.57306 0.93472 0.0
H1676 H 0.32329 0.49849 0.93018 0.0
H1677 H 0.12105 0.32456 0.92717 0.0
H1678 H 0.16938 0.35743 0.94574 0.0
H1679 H 0.2462 0.4063 0.90961 0.0
H1680 H 0.19815 0.37356 0.89116 0.0
H1681 H 0.24834 0.45859 0.93587 0.0
H1682 H 0.26067 0.30962 0.92091 0.0
H1683 H 0.23395 0.23626 0.91832 0.0
H1684 H 0.21719 0.23006 0.96631 0.0
H1685 H 0.24288 0.30384 0.96916 0.0
C1686 C 0.42324 0.44747 0.97545 0.0
C1687 C 0.41999 0.43244 0.99026 0.0
C1688 C 0.39155 0.43769 0.96479 0.0
C1689 C 0.3559 0.41323 0.96885 0.0
C1690 C 0.35437 0.39595 0.98334 0.0
C1691 C 0.38609 0.40523 0.99387 0.0
C1692 C 0.3192 0.40667 0.9584 0.0
C1693 C 0.30329 0.36529 0.95626 0.0
C1694 C 0.29871 0.44084 0.95109 0.0
C1695 C 0.31147 0.48569 0.95376 0.0
C1696 C 0.31151 0.50322 0.96845 0.0
C1697 C 0.32391 0.54543 0.97092 0.0
C1698 C 0.33596 0.57055 0.95877 0.0
C1699 C 0.33552 0.55354 0.94412 0.0
C1700 C 0.32322 0.51131 0.94159 0.0
C1701 C 0.14693 0.34427 0.92326 0.0
C1702 C 0.15606 0.34661 0.90781 0.0
C1703 C 0.17475 0.36271 0.93384 0.0
C1704 C 0.21187 0.38353 0.92902 0.0
C1705 C 0.2179 0.3903 0.91358 0.0
C1706 C 0.19038 0.37166 0.90304 0.0
C1707 C 0.24791 0.39117 0.93954 0.0
C1708 C 0.2639 0.4325 0.94152 0.0
C1709 C 0.26797 0.3571 0.94699 0.0
C1710 C 0.25304 0.31253 0.94523 0.0
C1711 C 0.25073 0.29285 0.93089 0.0
C1712 C 0.23589 0.25111 0.92938 0.0
C1713 C 0.22365 0.22861 0.94215 0.0
C1714 C 0.22654 0.24763 0.95644 0.0
C1715 C 0.24122 0.28939 0.95801 0.0
H1716 H 0.21191 0.19645 0.94101 0.0
H1717 H 0.34555 0.60322 0.9607 0.0
H1718 H 0.43085 0.5856 0.75201 0.0
H1719 H 0.46899 0.54171 0.73347 0.0
H1720 H 0.4113 0.61188 0.6974 0.0
H1721 H 0.37247 0.65525 0.71583 0.0
H1722 H 0.39478 0.52501 0.6966 0.0
H1723 H 0.51593 0.6174 0.70483 0.0
H1724 H 0.56685 0.65238 0.72208 0.0
H1725 H 0.61633 0.53092 0.73471 0.0
H1726 H 0.56431 0.495 0.7181 0.0
H1727 H 0.4703 0.39266 0.6394 0.0
H1728 H 0.45748 0.45773 0.65416 0.0
H1729 H 0.54175 0.41267 0.68895 0.0
H1730 H 0.55734 0.34941 0.67346 0.0
H1731 H 0.54755 0.49166 0.68958 0.0
H1732 H 0.42755 0.3992 0.68943 0.0
H1733 H 0.37036 0.3544 0.67869 0.0
H1734 H 0.31685 0.46308 0.65696 0.0
H1735 H 0.37407 0.50844 0.66743 0.0
C1736 C 0.42711 0.59231 0.74013 0.0
C1737 C 0.39836 0.62362 0.73537 0.0
C1738 C 0.4491 0.56738 0.72956 0.0
C1739 C 0.44288 0.57352 0.71407 0.0
C1740 C 0.41657 0.60673 0.70932 0.0
C1741 C 0.39465 0.63171 0.71987 0.0
C1742 C 0.45873 0.54182 0.7029 0.0
C1743 C 0.42825 0.51836 0.6948 0.0
C1744 C 0.50229 0.53162 0.70125 0.0
C1745 C 0.53567 0.55345 0.71036 0.0
C1746 C 0.53742 0.59808 0.71136 0.0
C1747 C 0.56643 0.61808 0.72107 0.0
C1748 C 0.59455 0.59385 0.72958 0.0
C1749 C 0.59427 0.54961 0.7282 0.0
C1750 C 0.56492 0.52941 0.71867 0.0
C1751 C 0.48639 0.39716 0.65012 0.0
C1752 C 0.51405 0.36608 0.65554 0.0
C1753 C 0.47896 0.43413 0.65859 0.0
C1754 C 0.49733 0.43953 0.67298 0.0
C1755 C 0.5268 0.40925 0.67799 0.0
C1756 C 0.53547 0.37299 0.66923 0.0
C1757 C 0.48346 0.47488 0.68318 0.0
C1758 C 0.51412 0.49879 0.69116 0.0
C1759 C 0.43982 0.48424 0.68539 0.0
C1760 C 0.40535 0.45709 0.67906 0.0
C1761 C 0.40374 0.41347 0.68227 0.0
C1762 C 0.37131 0.38799 0.67625 0.0
C1763 C 0.34007 0.40586 0.66711 0.0
C1764 C 0.34113 0.44927 0.66401 0.0
C1765 C 0.37353 0.47489 0.66999 0.0
H1766 H 0.31498 0.38608 0.66245 0.0
H1767 H 0.61664 0.60936 0.73724 0.0
H1768 H 0.26884 0.45151 0.4555 0.0
H1769 H 0.30501 0.50623 0.441 0.0
H1770 H 0.19741 0.58947 0.44671 0.0
H1771 H 0.16098 0.53474 0.4614 0.0
H1772 H 0.26678 0.58047 0.41478 0.0
H1773 H 0.24284 0.62831 0.46842 0.0
H1774 H 0.23476 0.60729 0.49501 0.0
H1775 H 0.35497 0.54303 0.49313 0.0
H1776 H 0.36345 0.56338 0.46648 0.0
H1777 H 0.43054 0.73136 0.40037 0.0
H1778 H 0.36222 0.70844 0.41077 0.0
H1779 H 0.42693 0.61545 0.43769 0.0
H1780 H 0.49497 0.63883 0.42763 0.0
H1781 H 0.3622 0.64725 0.45299 0.0
H1782 H 0.38802 0.59308 0.40172 0.0
H1783 H 0.40054 0.603 0.37449 0.0
H1784 H 0.28207 0.6696 0.3708 0.0
H1785 H 0.26917 0.66053 0.39805 0.0
C1786 C 0.25231 0.48091 0.45322 0.0
C1787 C 0.21243 0.4892 0.4597 0.0
C1788 C 0.27283 0.51198 0.44486 0.0
C1789 C 0.25382 0.55176 0.44287 0.0
C1790 C 0.2123 0.55874 0.44805 0.0
C1791 C 0.19162 0.52752 0.45643 0.0
C1792 C 0.28111 0.58759 0.43842 0.0
C1793 C 0.28676 0.59635 0.4231 0.0
C1794 C 0.30759 0.60738 0.44931 0.0
C1795 C 0.30373 0.59732 0.46552 0.0
C1796 C 0.26753 0.60976 0.47371 0.0
C1797 C 0.26286 0.59791 0.48877 0.0
C1798 C 0.29433 0.57382 0.49575 0.0
C1799 C 0.33065 0.56173 0.48771 0.0
C1800 C 0.33545 0.5735 0.47265 0.0
C1801 C 0.43014 0.70708 0.4089 0.0
C1802 C 0.46788 0.68695 0.41329 0.0
C1803 C 0.3911 0.69384 0.41475 0.0
C1804 C 0.38939 0.66003 0.42491 0.0
C1805 C 0.42742 0.64172 0.42992 0.0
C1806 C 0.46627 0.65492 0.42412 0.0
C1807 C 0.34859 0.64009 0.42924 0.0
C1808 C 0.34081 0.63361 0.44462 0.0
C1809 C 0.32056 0.62213 0.41834 0.0
C1810 C 0.32786 0.62658 0.40192 0.0
C1811 C 0.36474 0.60998 0.3951 0.0
C1812 C 0.37191 0.61545 0.37967 0.0
C1813 C 0.34216 0.63699 0.37093 0.0
C1814 C 0.30512 0.65298 0.37759 0.0
C1815 C 0.29786 0.64769 0.39301 0.0
H1816 H 0.34776 0.64119 0.359 0.0
H1817 H 0.29058 0.56453 0.50738 0.0
H1818 H 0.40034 0.42151 0.20723 0.0
H1819 H 0.37429 0.48079 0.1921 0.0
H1820 H 0.24602 0.45229 0.20577 0.0
H1821 H 0.27202 0.39292 0.22075 0.0
H1822 H 0.30677 0.49728 0.16938 0.0
H1823 H 0.21177 0.54275 0.22272 0.0
H1824 H 0.21564 0.53258 0.25026 0.0
H1825 H 0.35151 0.52304 0.24764 0.0
H1826 H 0.34846 0.53311 0.22011 0.0
H1827 H 0.12296 0.64819 0.17787 0.0
H1828 H 0.17455 0.6024 0.18996 0.0
H1829 H 0.27306 0.65062 0.16091 0.0
H1830 H 0.22037 0.69601 0.14842 0.0
H1831 H 0.24482 0.60369 0.2049 0.0
H1832 H 0.3396 0.56938 0.15181 0.0
H1833 H 0.33517 0.57487 0.12407 0.0
H1834 H 0.19971 0.55897 0.12618 0.0
H1835 H 0.20343 0.55374 0.15384 0.0
C1836 C 0.36639 0.42645 0.20624 0.0
C1837 C 0.338 0.40246 0.21492 0.0
C1838 C 0.35162 0.46055 0.19775 0.0
C1839 C 0.30841 0.47125 0.19808 0.0
C1840 C 0.27956 0.44458 0.20548 0.0
C1841 C 0.29428 0.41033 0.21385 0.0
C1842 C 0.29402 0.51306 0.19261 0.0
C1843 C 0.29392 0.52098 0.17712 0.0
C1844 C 0.27767 0.54399 0.20277 0.0
C1845 C 0.27982 0.53841 0.21935 0.0
C1846 C 0.24247 0.53859 0.22804 0.0
C1847 C 0.24452 0.53271 0.24363 0.0
C1848 C 0.28379 0.52695 0.25068 0.0
C1849 C 0.3211 0.5272 0.24215 0.0
C1850 C 0.31922 0.53285 0.22655 0.0
C1851 C 0.15599 0.6503 0.1745 0.0
C1852 C 0.16792 0.67576 0.16236 0.0
C1853 C 0.18551 0.62392 0.18135 0.0
C1854 C 0.2276 0.62224 0.17615 0.0
C1855 C 0.24058 0.65075 0.16493 0.0
C1856 C 0.21074 0.67723 0.15798 0.0
C1857 C 0.25547 0.58736 0.1815 0.0
C1858 C 0.25848 0.58062 0.19709 0.0
C1859 C 0.27451 0.55758 0.17141 0.0
C1860 C 0.27176 0.56168 0.15484 0.0
C1861 C 0.3089 0.56727 0.14631 0.0
C1862 C 0.30652 0.5704 0.13061 0.0
C1863 C 0.26719 0.56755 0.12335 0.0
C1864 C 0.23015 0.56161 0.13177 0.0
C1865 C 0.23235 0.55865 0.14747 0.0
H1866 H 0.26556 0.56967 0.1112 0.0
H1867 H 0.28533 0.52242 0.26274 0.0
loop_
_geom_bond_atom_site_label_1
_geom_bond_atom_site_label_2
_geom_bond_distance
_geom_bond_site_symmetry_2
_ccdc_geom_bond_type
H0 C6 0.930 . S
H1 C9 0.931 . S
H2 C11 0.931 . S
H3 C13 0.930 . S
H4 C15 0.931 . S
H5 C17 0.931 . S
C6 H0 0.930 . S
C6 C7 1.380 1_545 S
C6 C8 1.394 . S
C7 C6 1.380 1_565 S
C7 C11 1.382 . S
C8 C6 1.394 . S
C8 C9 1.400 . S
C9 H1 0.931 . S
C9 C8 1.400 . S
C9 C10 1.375 1_645 S
C10 C9 1.375 1_465 S
C10 C11 1.415 1_455 S
C10 C12 1.501 . S
C11 H2 0.931 . S
C11 C7 1.382 . S
C11 C10 1.415 1_655 S
C12 C10 1.501 . S
C12 C13 1.384 . S
C12 C17 1.408 1_565 S
C13 H3 0.930 . S
C13 C12 1.384 . S
C13 C14 1.389 . S
C14 C13 1.389 . S
C14 C15 1.419 . S
C15 H4 0.931 . S
C15 C14 1.419 . S
C15 C16 1.349 1_565 S
C16 C15 1.349 1_545 S
C16 C17 1.400 . S
C17 H5 0.931 . S
C17 C12 1.408 1_545 S
C17 C16 1.400 . S
H18 C24 0.930 . S
H19 C27 0.931 . S
H20 C29 0.931 . S
H21 C31 0.930 . S
H22 C33 0.930 . S
H23 C35 0.931 . S
C24 H18 0.930 . S
C24 C25 1.380 . S
C24 C26 1.394 . S
C25 C24 1.380 . S
C25 C29 1.382 . S
C26 C24 1.394 . S
C26 C27 1.400 . S
C27 H19 0.931 . S
C27 C26 1.400 . S
C27 C28 1.375 . S
C28 C27 1.375 . S
C28 C29 1.415 . S
C28 C30 1.501 . S
C29 H20 0.931 . S
C29 C25 1.382 . S
C29 C28 1.415 . S
C30 C28 1.501 . S
C30 C31 1.384 . S
C30 C35 1.408 . S
C31 H21 0.930 . S
C31 C30 1.384 . S
C31 C32 1.389 . S
C32 C31 1.389 . S
C32 C33 1.405 . S
C33 H22 0.930 . S
C33 C32 1.405 . S
C33 C34 1.364 . S
C34 C33 1.364 . S
C34 C35 1.400 . S
C35 H23 0.931 . S
C35 C30 1.408 . S
C35 C34 1.400 . S
H36 C42 0.929 . S
H37 C45 0.931 . S
H38 C47 0.931 . S
H39 C49 0.930 . S
H40 C51 0.930 . S
H41 C53 0.931 . S
C42 H36 0.929 . S
C42 C43 1.380 1_564 S
C42 C44 1.394 . S
C43 C42 1.380 1_546 S
C43 C47 1.382 . S
C44 C42 1.394 . S
C44 C45 1.400 . S
C45 H37 0.931 . S
C45 C44 1.400 . S
C45 C46 1.375 1_565 S
C46 C45 1.375 1_545 S
C46 C47 1.415 1_554 S
C46 C48 1.501 . S
C47 H38 0.931 . S
C47 C43 1.382 . S
C47 C46 1.415 1_556 S
C48 C46 1.501 . S
C48 C49 1.384 1_554 S
C48 C53 1.408 1_545 S
C49 H39 0.930 . S
C49 C48 1.384 1_556 S
C49 C50 1.389 . S
C50 C49 1.389 . S
C50 C51 1.405 1_556 S
C51 H40 0.930 . S
C51 C50 1.405 1_554 S
C51 C52 1.364 1_545 S
C52 C51 1.364 1_565 S
C52 C53 1.400 . S
C53 H41 0.931 . S
C53 C48 1.408 1_565 S
C53 C52 1.400 . S
H54 C60 0.930 . S
H55 C63 0.931 . S
H56 C65 0.931 . S
H57 C67 0.930 . S
H58 C69 0.930 . S
H59 C71 0.931 . S
C60 H54 0.930 . S
C60 C61 1.380 . S
C60 C62 1.394 . S
C61 C60 1.380 . S
C61 C65 1.382 . S
C62 C60 1.394 . S
C62 C63 1.400 . S
C63 H55 0.931 . S
C63 C62 1.400 . S
C63 C64 1.375 . S
C64 C63 1.375 . S
C64 C65 1.415 . S
C64 C66 1.501 . S
C65 H56 0.931 . S
C65 C61 1.382 . S
C65 C64 1.415 . S
C66 C64 1.501 . S
C66 C67 1.384 . S
C66 C71 1.408 . S
C67 H57 0.930 . S
C67 C66 1.384 . S
C67 C68 1.389 . S
C68 C67 1.389 . S
C68 C69 1.405 . S
C69 H58 0.930 . S
C69 C68 1.405 . S
C69 C70 1.364 . S
C70 C69 1.364 . S
C70 C71 1.400 . S
C71 H59 0.931 . S
C71 C66 1.408 . S
C71 C70 1.400 . S
H72 C78 0.930 . S
H73 C81 0.931 . S
H74 C83 0.931 . S
H75 C85 0.930 . S
H76 C87 0.930 . S
H77 C89 0.931 . S
C78 H72 0.930 . S
C78 C79 1.380 . S
C78 C80 1.394 . S
C79 C78 1.380 . S
C79 C83 1.382 . S
C80 C78 1.394 . S
C80 C81 1.400 . S
C81 H73 0.931 . S
C81 C80 1.400 . S
C81 C82 1.375 . S
C82 C81 1.375 . S
C82 C83 1.415 . S
C82 C84 1.501 . S
C83 H74 0.931 . S
C83 C79 1.382 . S
C83 C82 1.415 . S
C84 C82 1.501 . S
C84 C85 1.384 . S
C84 C89 1.408 . S
C85 H75 0.930 . S
C85 C84 1.384 . S
C85 C86 1.389 . S
C86 C85 1.389 . S
C86 C87 1.405 . S
C87 H76 0.930 . S
C87 C86 1.405 . S
C87 C88 1.364 . S
C88 C87 1.364 . S
C88 C89 1.400 . S
C89 H77 0.931 . S
C89 C84 1.408 . S
C89 C88 1.400 . S
H90 C96 0.930 . S
H91 C99 0.931 . S
H92 C101 0.931 . S
H93 C103 0.930 . S
H94 C105 0.930 . S
H95 C107 0.931 . S
C96 H90 0.930 . S
C96 C97 1.380 . S
C96 C98 1.394 . S
C97 C96 1.380 . S
C97 C101 1.382 . S
C98 C96 1.394 . S
C98 C99 1.400 . S
C99 H91 0.931 . S
C99 C98 1.400 . S
C99 C100 1.375 . S
C100 C99 1.375 . S
C100 C101 1.415 . S
C100 C102 1.501 . S
C101 H92 0.931 . S
C101 C97 1.382 . S
C101 C100 1.415 . S
C102 C100 1.501 . S
C102 C103 1.384 . S
C102 C107 1.408 . S
C103 H93 0.930 . S
C103 C102 1.384 . S
C103 C104 1.389 . S
C104 C103 1.389 . S
C104 C105 1.405 . S
C105 H94 0.930 . S
C105 C104 1.405 . S
C105 C106 1.364 . S
C106 C105 1.364 . S
C106 C107 1.400 . S
C107 H95 0.931 . S
C107 C102 1.408 . S
C107 C106 1.400 . S
H108 C114 0.930 . S
H109 C117 0.931 . S
H110 C119 0.931 . S
H111 C121 0.930 . S
H112 C123 0.930 . S
H113 C125 0.931 . S
C114 H108 0.930 . S
C114 C115 1.380 . S
C114 C116 1.394 1_554 S
C115 C114 1.380 . S
C115 C119 1.382 . S
C116 C114 1.394 1_556 S
C116 C117 1.400 . S
C117 H109 0.931 . S
C117 C116 1.400 . S
C117 C118 1.375 1_556 S
C118 C117 1.375 1_554 S
C118 C119 1.415 . S
C118 C120 1.501 . S
C119 H110 0.931 . S
C119 C115 1.382 . S
C119 C118 1.415 . S
C120 C118 1.501 . S
C120 C121 1.384 . S
C120 C125 1.408 1_554 S
C121 H111 0.930 . S
C121 C120 1.384 . S
C121 C122 1.389 . S
C122 C121 1.389 . S
C122 C123 1.405 . S
C123 H112 0.930 . S
C123 C122 1.405 . S
C123 C124 1.364 1_554 S
C124 C123 1.364 1_556 S
C124 C125 1.400 . S
C125 H113 0.931 . S
C125 C120 1.408 1_556 S
C125 C124 1.400 . S
H126 C132 0.930 . S
H127 C135 0.931 . S
H128 C137 0.931 . S
H129 C139 0.930 . S
H130 C141 0.930 . S
H131 C143 0.931 . S
C132 H126 0.930 . S
C132 C133 1.380 . S
C132 C134 1.394 . S
C133 C132 1.380 . S
C133 C137 1.382 . S
C134 C132 1.394 . S
C134 C135 1.400 . S
C135 H127 0.931 . S
C135 C134 1.400 . S
C135 C136 1.375 . S
C136 C135 1.375 . S
C136 C137 1.415 . S
C136 C138 1.501 . S
C137 H128 0.931 . S
C137 C133 1.382 . S
C137 C136 1.415 . S
C138 C136 1.501 . S
C138 C139 1.384 . S
C138 C143 1.408 . S
C139 H129 0.930 . S
C139 C138 1.384 . S
C139 C140 1.389 . S
C140 C139 1.389 . S
C140 C141 1.405 . S
C141 H130 0.930 . S
C141 C140 1.405 . S
C141 C142 1.364 . S
C142 C141 1.364 . S
C142 C143 1.400 . S
C143 H131 0.931 . S
C143 C138 1.408 . S
C143 C142 1.400 . S
C144 O171 1.312 . S
C144 O172 1.208 . S
C145 O166 1.331 1_655 S
C145 O169 1.244 . S
C146 O168 1.264 1_655 S
C146 O170 1.273 . S
Mg147 O149 1.936 . S
Mg147 O156 2.081 . S
Mg147 O158 2.023 . S
Mg147 O162 2.031 . S
Mg147 O171 2.291 . S
Mg148 O149 1.963 . S
Mg148 O159 1.942 . S
Mg148 O160 1.955 . S
Mg148 O167 1.986 . S
O149 Mg147 1.936 . S
O149 Mg148 1.963 . S
O149 Mg150 1.915 . S
Mg150 O149 1.915 . S
Mg150 O151 1.915 . S
Mg150 O155 2.013 . S
Mg150 O161 2.114 . S
Mg150 O165 2.013 . S
Mg150 O171 2.114 . S
O151 Mg150 1.915 . S
O151 Mg152 1.936 . S
O151 Mg153 1.963 1_455 S
Mg152 O151 1.936 . S
Mg152 O161 2.291 . S
Mg152 O166 2.081 . S
Mg152 O168 2.023 . S
Mg152 O172 2.031 . S
Mg153 O151 1.963 1_655 S
Mg153 O157 1.986 . S
Mg153 O169 1.942 . S
Mg153 O170 1.955 . S
C154 O165 1.191 . S
C154 O167 1.307 . S
O155 Mg150 2.013 . S
O155 C174 1.191 . S
O156 Mg147 2.081 . S
O156 C164 1.331 . S
O157 Mg153 1.986 . S
O157 C174 1.307 1_655 S
O158 Mg147 2.023 . S
O158 C173 1.264 . S
O159 Mg148 1.942 . S
O159 C164 1.244 . S
O160 Mg148 1.955 . S
O160 C173 1.273 . S
O161 Mg150 2.114 . S
O161 Mg152 2.291 . S
O161 C163 1.312 . S
O162 Mg147 2.031 . S
O162 C163 1.208 . S
C163 O161 1.312 . S
C163 O162 1.208 . S
C164 O156 1.331 . S
C164 O159 1.244 . S
O165 Mg150 2.013 . S
O165 C154 1.191 . S
O166 C145 1.331 1_455 S
O166 Mg152 2.081 . S
O167 Mg148 1.986 . S
O167 C154 1.307 . S
O168 C146 1.264 1_455 S
O168 Mg152 2.023 . S
O169 C145 1.244 . S
O169 Mg153 1.942 . S
O170 C146 1.273 . S
O170 Mg153 1.955 . S
O171 C144 1.312 . S
O171 Mg147 2.291 . S
O171 Mg150 2.114 . S
O172 C144 1.208 . S
O172 Mg152 2.031 . S
C173 O158 1.264 . S
C173 O160 1.273 . S
C174 O155 1.191 . S
C174 O157 1.307 1_455 S
C175 O202 1.312 . S
C175 O203 1.208 . S
C176 O197 1.331 . S
C176 O200 1.244 . S
C177 O199 1.264 . S
C177 O201 1.273 . S
Mg178 O180 1.936 . S
Mg178 O187 2.081 . S
Mg178 O189 2.023 . S
Mg178 O193 2.031 . S
Mg178 O202 2.291 . S
Mg179 O180 1.963 . S
Mg179 O190 1.942 . S
Mg179 O191 1.955 . S
Mg179 O198 1.986 . S
O180 Mg178 1.936 . S
O180 Mg179 1.963 . S
O180 Mg181 1.915 . S
Mg181 O180 1.915 . S
Mg181 O182 1.915 . S
Mg181 O186 2.013 . S
Mg181 O192 2.114 . S
Mg181 O196 2.013 . S
Mg181 O202 2.114 . S
O182 Mg181 1.915 . S
O182 Mg183 1.936 . S
O182 Mg184 1.963 . S
Mg183 O182 1.936 . S
Mg183 O192 2.291 . S
Mg183 O197 2.081 . S
Mg183 O199 2.023 . S
Mg183 O203 2.031 . S
Mg184 O182 1.963 . S
Mg184 O188 1.986 . S
Mg184 O200 1.942 . S
Mg184 O201 1.955 . S
C185 O196 1.191 . S
C185 O198 1.307 . S
O186 Mg181 2.013 . S
O186 C205 1.191 . S
O187 Mg178 2.081 . S
O187 C195 1.331 . S
O188 Mg184 1.986 . S
O188 C205 1.307 . S
O189 Mg178 2.023 . S
O189 C204 1.264 . S
O190 Mg179 1.942 . S
O190 C195 1.244 . S
O191 Mg179 1.955 . S
O191 C204 1.273 . S
O192 Mg181 2.114 . S
O192 Mg183 2.291 . S
O192 C194 1.312 . S
O193 Mg178 2.031 . S
O193 C194 1.208 . S
C194 O192 1.312 . S
C194 O193 1.208 . S
C195 O187 1.331 . S
C195 O190 1.244 . S
O196 Mg181 2.013 . S
O196 C185 1.191 . S
O197 C176 1.331 . S
O197 Mg183 2.081 . S
O198 Mg179 1.986 . S
O198 C185 1.307 . S
O199 C177 1.264 . S
O199 Mg183 2.023 . S
O200 C176 1.244 . S
O200 Mg184 1.942 . S
O201 C177 1.273 . S
O201 Mg184 1.955 . S
O202 C175 1.312 . S
O202 Mg178 2.291 . S
O202 Mg181 2.114 . S
O203 C175 1.208 . S
O203 Mg183 2.031 . S
C204 O189 1.264 . S
C204 O191 1.273 . S
C205 O186 1.191 . S
C205 O188 1.307 . S
C206 O233 1.312 . S
C206 O234 1.208 . S
C207 O228 1.331 . S
C207 O231 1.244 . S
C208 O230 1.264 . S
C208 O232 1.273 . S
Mg209 O211 1.936 . S
Mg209 O218 2.081 . S
Mg209 O220 2.023 . S
Mg209 O224 2.031 . S
Mg209 O233 2.291 . S
Mg210 O211 1.963 . S
Mg210 O221 1.942 . S
Mg210 O222 1.955 . S
Mg210 O229 1.986 . S
O211 Mg209 1.936 . S
O211 Mg210 1.963 . S
O211 Mg212 1.915 . S
Mg212 O211 1.915 . S
Mg212 O213 1.915 . S
Mg212 O217 2.013 . S
Mg212 O223 2.114 . S
Mg212 O227 2.013 . S
Mg212 O233 2.114 . S
O213 Mg212 1.915 . S
O213 Mg214 1.936 . S
O213 Mg215 1.963 . S
Mg214 O213 1.936 . S
Mg214 O223 2.291 . S
Mg214 O228 2.081 . S
Mg214 O230 2.023 . S
Mg214 O234 2.031 . S
Mg215 O213 1.963 . S
Mg215 O219 1.986 . S
Mg215 O231 1.942 . S
Mg215 O232 1.955 . S
C216 O227 1.191 . S
C216 O229 1.307 . S
O217 Mg212 2.013 . S
O217 C236 1.191 . S
O218 Mg209 2.081 . S
O218 C226 1.331 . S
O219 Mg215 1.986 . S
O219 C236 1.307 . S
O220 Mg209 2.023 . S
O220 C235 1.264 . S
O221 Mg210 1.942 . S
O221 C226 1.244 . S
O222 Mg210 1.955 . S
O222 C235 1.273 . S
O223 Mg212 2.114 . S
O223 Mg214 2.291 . S
O223 C225 1.312 . S
O224 Mg209 2.031 . S
O224 C225 1.208 . S
C225 O223 1.312 . S
C225 O224 1.208 . S
C226 O218 1.331 . S
C226 O221 1.244 . S
O227 Mg212 2.013 . S
O227 C216 1.191 . S
O228 C207 1.331 . S
O228 Mg214 2.081 . S
O229 Mg210 1.986 . S
O229 C216 1.307 . S
O230 C208 1.264 . S
O230 Mg214 2.023 . S
O231 C207 1.244 . S
O231 Mg215 1.942 . S
O232 C208 1.273 . S
O232 Mg215 1.955 . S
O233 C206 1.312 . S
O233 Mg209 2.291 . S
O233 Mg212 2.114 . S
O234 C206 1.208 . S
O234 Mg214 2.031 . S
C235 O220 1.264 . S
C235 O222 1.273 . S
C236 O217 1.191 . S
C236 O219 1.307 . S
C237 O264 1.312 . S
C237 O265 1.208 . S
C238 O259 1.331 . S
C238 O262 1.244 . S
C239 O261 1.264 . S
C239 O263 1.273 . S
Mg240 O242 1.936 . S
Mg240 O249 2.081 . S
Mg240 O251 2.023 . S
Mg240 O255 2.031 . S
Mg240 O264 2.291 . S
Mg241 O242 1.963 1_655 S
Mg241 O252 1.942 . S
Mg241 O253 1.955 . S
Mg241 O260 1.986 . S
O242 Mg240 1.936 . S
O242 Mg241 1.963 1_455 S
O242 Mg243 1.915 . S
Mg243 O242 1.915 . S
Mg243 O244 1.915 . S
Mg243 O248 2.013 . S
Mg243 O254 2.114 . S
Mg243 O258 2.013 . S
Mg243 O264 2.114 . S
O244 Mg243 1.915 . S
O244 Mg245 1.936 . S
O244 Mg246 1.963 . S
Mg245 O244 1.936 . S
Mg245 O254 2.291 . S
Mg245 O259 2.081 . S
Mg245 O261 2.023 . S
Mg245 O265 2.031 . S
Mg246 O244 1.963 . S
Mg246 O250 1.986 . S
Mg246 O262 1.942 . S
Mg246 O263 1.955 . S
C247 O258 1.191 . S
C247 O260 1.307 1_455 S
O248 Mg243 2.013 . S
O248 C267 1.191 . S
O249 Mg240 2.081 . S
O249 C257 1.331 1_455 S
O250 Mg246 1.986 . S
O250 C267 1.307 . S
O251 Mg240 2.023 . S
O251 C266 1.264 1_455 S
O252 Mg241 1.942 . S
O252 C257 1.244 . S
O253 Mg241 1.955 . S
O253 C266 1.273 . S
O254 Mg243 2.114 . S
O254 Mg245 2.291 . S
O254 C256 1.312 . S
O255 Mg240 2.031 . S
O255 C256 1.208 . S
C256 O254 1.312 . S
C256 O255 1.208 . S
C257 O249 1.331 1_655 S
C257 O252 1.244 . S
O258 Mg243 2.013 . S
O258 C247 1.191 . S
O259 C238 1.331 . S
O259 Mg245 2.081 . S
O260 Mg241 1.986 . S
O260 C247 1.307 1_655 S
O261 C239 1.264 . S
O261 Mg245 2.023 . S
O262 C238 1.244 . S
O262 Mg246 1.942 . S
O263 C239 1.273 . S
O263 Mg246 1.955 . S
O264 C237 1.312 . S
O264 Mg240 2.291 . S
O264 Mg243 2.114 . S
O265 C237 1.208 . S
O265 Mg245 2.031 . S
C266 O251 1.264 1_655 S
C266 O253 1.273 . S
C267 O248 1.191 . S
C267 O250 1.307 . S
H268 C286 0.951 . S
H269 C288 0.951 . S
H270 C290 0.950 . S
H271 C291 0.950 . S
H272 C293 0.950 . S
H273 C296 0.947 1_545 S
H274 C297 0.950 . S
H275 C299 0.950 . S
H276 C300 0.950 . S
H277 C301 0.951 . S
H278 C303 0.951 . S
H279 C305 0.950 . S
H280 C306 0.950 . S
H281 C308 0.950 . S
H282 C311 0.950 . S
H283 C312 0.950 . S
H284 C314 0.950 . S
H285 C315 0.950 . S
C286 H268 0.951 . S
C286 C287 1.366 . S
C286 C288 1.388 . S
C287 C286 1.366 . S
C287 C291 1.385 . S
C288 H269 0.951 . S
C288 C286 1.388 . S
C288 C289 1.366 . S
C289 C288 1.366 . S
C289 C290 1.414 . S
C289 C292 1.499 . S
C290 H270 0.950 . S
C290 C289 1.414 . S
C290 C291 1.374 . S
C291 H271 0.950 . S
C291 C287 1.385 . S
C291 C290 1.374 . S
C292 C289 1.499 . S
C292 C293 1.373 . S
C292 C294 1.389 . S
C293 H272 0.950 . S
C293 C292 1.373 . S
C293 C309 1.377 . S
C294 C292 1.389 . S
C294 C295 1.524 . S
C294 C308 1.377 . S
C295 C294 1.524 . S
C295 C296 1.397 . S
C295 C300 1.363 . S
C296 H273 0.947 1_565 S
C296 C295 1.397 . S
C296 C297 1.334 1_565 S
C297 H274 0.950 . S
C297 C296 1.334 1_545 S
C297 C298 1.287 . S
C298 C297 1.287 . S
C298 C299 1.524 1_545 S
C298 H317 0.913 . S
C299 H275 0.950 . S
C299 C298 1.524 1_565 S
C299 C300 1.415 . S
C300 H276 0.950 . S
C300 C295 1.363 . S
C300 C299 1.415 . S
C301 H277 0.951 . S
C301 C302 1.366 . S
C301 C303 1.388 . S
C302 C301 1.366 . S
C302 C306 1.385 . S
C303 H278 0.951 . S
C303 C301 1.388 . S
C303 C304 1.366 . S
C304 C303 1.366 . S
C304 C305 1.414 . S
C304 C307 1.499 . S
C305 H279 0.950 . S
C305 C304 1.414 . S
C305 C306 1.374 . S
C306 H280 0.950 . S
C306 C302 1.385 . S
C306 C305 1.374 . S
C307 C304 1.499 . S
C307 C308 1.373 . S
C307 C309 1.389 . S
C308 H281 0.950 . S
C308 C294 1.377 . S
C308 C307 1.373 . S
C309 C293 1.377 . S
C309 C307 1.389 . S
C309 C310 1.524 . S
C310 C309 1.524 . S
C310 C311 1.397 . S
C310 C315 1.363 . S
C311 H282 0.950 . S
C311 C310 1.397 . S
C311 C312 1.334 . S
C312 H283 0.950 . S
C312 C311 1.334 . S
C312 C313 1.287 . S
C313 C312 1.287 . S
C313 C314 1.524 . S
C313 H316 0.999 . S
C314 H284 0.950 . S
C314 C313 1.524 . S
C314 C315 1.415 . S
C315 H285 0.950 . S
C315 C310 1.363 . S
C315 C314 1.415 . S
H316 C313 0.999 . S
H317 C298 0.913 . S
H318 C336 0.951 . S
H319 C338 0.951 . S
H320 C340 0.950 . S
H321 C341 0.950 . S
H322 C343 0.950 . S
H323 C346 0.950 . S
H324 C347 0.950 . S
H325 C349 0.950 . S
H326 C350 0.950 . S
H327 C351 0.951 . S
H328 C353 0.951 . S
H329 C355 0.950 . S
H330 C356 0.950 . S
H331 C358 0.950 1_545 S
H332 C361 0.950 . S
H333 C362 0.950 . S
H334 C364 0.950 . S
H335 C365 0.950 . S
C336 H318 0.951 . S
C336 C337 1.366 . S
C336 C338 1.388 . S
C337 C336 1.366 . S
C337 C341 1.385 . S
C338 H319 0.951 . S
C338 C336 1.388 . S
C338 C339 1.366 . S
C339 C338 1.366 . S
C339 C340 1.414 . S
C339 C342 1.499 . S
C340 H320 0.950 . S
C340 C339 1.414 . S
C340 C341 1.374 . S
C341 H321 0.950 . S
C341 C337 1.385 . S
C341 C340 1.374 . S
C342 C339 1.499 . S
C342 C343 1.373 . S
C342 C344 1.389 . S
C343 H322 0.950 . S
C343 C342 1.373 . S
C343 C359 1.377 . S
C344 C342 1.389 . S
C344 C345 1.524 . S
C344 C358 1.377 . S
C345 C344 1.524 . S
C345 C346 1.397 . S
C345 C350 1.363 . S
C346 H323 0.950 . S
C346 C345 1.397 . S
C346 C347 1.334 . S
C347 H324 0.950 . S
C347 C346 1.334 . S
C347 C348 1.287 . S
C348 C347 1.287 . S
C348 C349 1.524 . S
C348 H367 0.913 . S
C349 H325 0.950 . S
C349 C348 1.524 . S
C349 C350 1.415 . S
C350 H326 0.950 . S
C350 C345 1.363 . S
C350 C349 1.415 . S
C351 H327 0.951 . S
C351 C352 1.366 . S
C351 C353 1.388 . S
C352 C351 1.366 . S
C352 C356 1.385 . S
C353 H328 0.951 . S
C353 C351 1.388 . S
C353 C354 1.366 . S
C354 C353 1.366 . S
C354 C355 1.414 . S
C354 C357 1.499 1_545 S
C355 H329 0.950 . S
C355 C354 1.414 . S
C355 C356 1.374 . S
C356 H330 0.950 . S
C356 C352 1.385 . S
C356 C355 1.374 . S
C357 C354 1.499 1_565 S
C357 C358 1.373 . S
C357 C359 1.389 . S
C358 H331 0.950 1_565 S
C358 C344 1.377 . S
C358 C357 1.373 . S
C359 C343 1.377 . S
C359 C357 1.389 . S
C359 C360 1.524 . S
C360 C359 1.524 . S
C360 C361 1.397 . S
C360 C365 1.363 . S
C361 H332 0.950 . S
C361 C360 1.397 . S
C361 C362 1.334 . S
C362 H333 0.950 . S
C362 C361 1.334 . S
C362 C363 1.287 . S
C363 C362 1.287 . S
C363 C364 1.524 . S
C363 H366 0.999 . S
C364 H334 0.950 . S
C364 C363 1.524 . S
C364 C365 1.415 . S
C365 H335 0.950 . S
C365 C360 1.363 . S
C365 C364 1.415 . S
H366 C363 0.999 . S
H367 C348 0.913 . S
H368 C386 0.951 . S
H369 C388 0.951 . S
H370 C390 0.950 . S
H371 C391 0.961 . S
H372 C393 0.950 . S
H373 C396 0.950 . S
H374 C397 0.950 . S
H375 C399 0.950 . S
H376 C400 0.950 . S
H377 C401 0.951 . S
H378 C403 0.951 . S
H379 C405 0.950 . S
H380 C406 0.950 . S
H381 C408 0.950 . S
H382 C411 0.950 . S
H383 C412 0.950 . S
H384 C414 0.950 . S
H385 C415 0.950 . S
C386 H368 0.951 . S
C386 C387 1.366 . S
C386 C388 1.388 . S
C387 C386 1.366 . S
C387 C391 1.385 . S
C388 H369 0.951 . S
C388 C386 1.388 . S
C388 C389 1.366 . S
C389 C388 1.366 . S
C389 C390 1.414 . S
C389 C392 1.499 . S
C390 H370 0.950 . S
C390 C389 1.414 . S
C390 C391 1.374 . S
C391 H371 0.961 . S
C391 C387 1.385 . S
C391 C390 1.374 . S
C392 C389 1.499 . S
C392 C393 1.373 . S
C392 C394 1.389 . S
C393 H372 0.950 . S
C393 C392 1.373 . S
C393 C409 1.377 . S
C394 C392 1.389 . S
C394 C395 1.524 . S
C394 C408 1.377 . S
C395 C394 1.524 . S
C395 C396 1.397 . S
C395 C400 1.363 . S
C396 H373 0.950 . S
C396 C395 1.397 . S
C396 C397 1.334 1_556 S
C397 H374 0.950 . S
C397 C396 1.334 1_554 S
C397 C398 1.287 . S
C398 C397 1.287 . S
C398 C399 1.524 . S
C398 H417 0.913 . S
C399 H375 0.950 . S
C399 C398 1.524 . S
C399 C400 1.415 1_554 S
C400 H376 0.950 . S
C400 C395 1.363 . S
C400 C399 1.415 1_556 S
C401 H377 0.951 . S
C401 C402 1.366 . S
C401 C403 1.388 . S
C402 C401 1.366 . S
C402 C406 1.385 . S
C403 H378 0.951 . S
C403 C401 1.388 . S
C403 C404 1.366 . S
C404 C403 1.366 . S
C404 C405 1.414 . S
C404 C407 1.499 . S
C405 H379 0.950 . S
C405 C404 1.414 . S
C405 C406 1.374 . S
C406 H380 0.950 . S
C406 C402 1.385 . S
C406 C405 1.374 . S
C407 C404 1.499 . S
C407 C408 1.373 . S
C407 C409 1.389 . S
C408 H381 0.950 . S
C408 C394 1.377 . S
C408 C407 1.373 . S
C409 C393 1.377 . S
C409 C407 1.389 . S
C409 C410 1.524 . S
C410 C409 1.524 . S
C410 C411 1.397 . S
C410 C415 1.363 . S
C411 H382 0.950 . S
C411 C410 1.397 . S
C411 C412 1.334 . S
C412 H383 0.950 . S
C412 C411 1.334 . S
C412 C413 1.287 . S
C413 C412 1.287 . S
C413 C414 1.524 . S
C413 H416 0.999 . S
C414 H384 0.950 . S
C414 C413 1.524 . S
C414 C415 1.415 . S
C415 H385 0.950 . S
C415 C410 1.363 . S
C415 C414 1.415 . S
H416 C413 0.999 . S
H417 C398 0.913 . S
H418 C436 0.951 . S
H419 C438 0.951 . S
H420 C440 0.950 . S
H421 C441 0.950 . S
H422 C443 0.950 . S
H423 C446 0.950 . S
H424 C447 0.950 . S
H425 C449 0.950 1_565 S
H426 C450 0.950 1_565 S
H427 C451 0.951 . S
H428 C453 0.951 . S
H429 C455 0.950 . S
H430 C456 0.950 . S
H431 C458 0.950 . S
H432 C461 0.950 . S
H433 C462 0.950 . S
H434 C464 0.950 . S
H435 C465 0.950 . S
C436 H418 0.951 . S
C436 C437 1.366 . S
C436 C438 1.388 . S
C437 C436 1.366 . S
C437 C441 1.385 . S
C438 H419 0.951 . S
C438 C436 1.388 . S
C438 C439 1.366 . S
C439 C438 1.366 . S
C439 C440 1.414 . S
C439 C442 1.499 . S
C440 H420 0.950 . S
C440 C439 1.414 . S
C440 C441 1.374 . S
C441 H421 0.950 . S
C441 C437 1.385 . S
C441 C440 1.374 . S
C442 C439 1.499 . S
C442 C443 1.373 . S
C442 C444 1.389 . S
C443 H422 0.950 . S
C443 C442 1.373 . S
C443 C459 1.377 . S
C444 C442 1.389 . S
C444 C445 1.524 . S
C444 C458 1.377 1_545 S
C445 C444 1.524 . S
C445 C446 1.397 . S
C445 C450 1.363 . S
C446 H423 0.950 . S
C446 C445 1.397 . S
C446 C447 1.334 . S
C447 H424 0.950 . S
C447 C446 1.334 . S
C447 C448 1.287 . S
C448 C447 1.287 . S
C448 C449 1.524 . S
C448 H467 0.913 . S
C449 H425 0.950 1_545 S
C449 C448 1.524 . S
C449 C450 1.415 . S
C450 H426 0.950 1_545 S
C450 C445 1.363 . S
C450 C449 1.415 . S
C451 H427 0.951 . S
C451 C452 1.366 . S
C451 C453 1.388 . S
C452 C451 1.366 . S
C452 C456 1.385 . S
C453 H428 0.951 . S
C453 C451 1.388 . S
C453 C454 1.366 . S
C454 C453 1.366 . S
C454 C455 1.414 . S
C454 C457 1.499 . S
C455 H429 0.950 . S
C455 C454 1.414 . S
C455 C456 1.374 . S
C456 H430 0.950 . S
C456 C452 1.385 . S
C456 C455 1.374 . S
C457 C454 1.499 . S
C457 C458 1.373 . S
C457 C459 1.389 1_565 S
C458 H431 0.950 . S
C458 C444 1.377 1_565 S
C458 C457 1.373 . S
C459 C443 1.377 . S
C459 C457 1.389 1_545 S
C459 C460 1.524 . S
C460 C459 1.524 . S
C460 C461 1.397 1_545 S
C460 C465 1.363 . S
C461 H432 0.950 . S
C461 C460 1.397 1_565 S
C461 C462 1.334 . S
C462 H433 0.950 . S
C462 C461 1.334 . S
C462 C463 1.287 1_565 S
C463 C462 1.287 1_545 S
C463 C464 1.524 . S
C463 H466 0.999 . S
C464 H434 0.950 . S
C464 C463 1.524 . S
C464 C465 1.415 . S
C465 H435 0.950 . S
C465 C460 1.363 . S
C465 C464 1.415 . S
H466 C463 0.999 . S
H467 C448 0.913 . S
H468 C486 0.951 . S
H469 C488 0.951 . S
H470 C490 0.950 . S
H471 C491 0.950 . S
H472 C493 0.950 . S
H473 C496 0.950 . S
H474 C497 0.950 . S
H475 C499 0.950 . S
H476 C500 0.950 . S
H477 C501 0.951 . S
H478 C503 0.951 . S
H479 C505 0.950 . S
H480 C506 0.950 . S
H481 C508 0.950 . S
H482 C511 0.950 . S
H483 C512 0.950 . S
H484 C514 0.950 . S
H485 C515 0.950 . S
C486 H468 0.951 . S
C486 C487 1.366 . S
C486 C488 1.388 . S
C487 C486 1.366 . S
C487 C491 1.385 . S
C488 H469 0.951 . S
C488 C486 1.388 . S
C488 C489 1.366 . S
C489 C488 1.366 . S
C489 C490 1.414 . S
C489 C492 1.499 . S
C490 H470 0.950 . S
C490 C489 1.414 . S
C490 C491 1.374 . S
C491 H471 0.950 . S
C491 C487 1.385 . S
C491 C490 1.374 . S
C492 C489 1.499 . S
C492 C493 1.373 . S
C492 C494 1.389 . S
C493 H472 0.950 . S
C493 C492 1.373 . S
C493 C509 1.377 . S
C494 C492 1.389 . S
C494 C495 1.524 . S
C494 C508 1.377 . S
C495 C494 1.524 . S
C495 C496 1.397 . S
C495 C500 1.363 . S
C496 H473 0.950 . S
C496 C495 1.397 . S
C496 C497 1.334 . S
C497 H474 0.950 . S
C497 C496 1.334 . S
C497 C498 1.287 . S
C498 C497 1.287 . S
C498 C499 1.524 . S
C498 H517 0.913 . S
C499 H475 0.950 . S
C499 C498 1.524 . S
C499 C500 1.415 . S
C500 H476 0.950 . S
C500 C495 1.363 . S
C500 C499 1.415 . S
C501 H477 0.951 . S
C501 C502 1.366 . S
C501 C503 1.388 . S
C502 C501 1.366 . S
C502 C506 1.385 . S
C503 H478 0.951 . S
C503 C501 1.388 . S
C503 C504 1.366 . S
C504 C503 1.366 . S
C504 C505 1.414 . S
C504 C507 1.499 . S
C505 H479 0.950 . S
C505 C504 1.414 . S
C505 C506 1.374 . S
C506 H480 0.950 . S
C506 C502 1.385 . S
C506 C505 1.374 . S
C507 C504 1.499 . S
C507 C508 1.373 . S
C507 C509 1.389 . S
C508 H481 0.950 . S
C508 C494 1.377 . S
C508 C507 1.373 . S
C509 C493 1.377 . S
C509 C507 1.389 . S
C509 C510 1.524 . S
C510 C509 1.524 . S
C510 C511 1.397 . S
C510 C515 1.363 . S
C511 H482 0.950 . S
C511 C510 1.397 . S
C511 C512 1.334 1_545 S
C512 H483 0.950 . S
C512 C511 1.334 1_565 S
C512 C513 1.287 . S
C513 C512 1.287 . S
C513 C514 1.524 . S
C513 H516 0.999 . S
C514 H484 0.950 . S
C514 C513 1.524 . S
C514 C515 1.415 1_565 S
C515 H485 0.950 . S
C515 C510 1.363 . S
C515 C514 1.415 1_545 S
H516 C513 0.999 . S
H517 C498 0.913 . S
H518 C536 0.951 . S
H519 C538 0.951 . S
H520 C540 0.950 . S
H521 C541 0.950 . S
H522 C543 0.950 . S
H523 C546 0.950 . S
H524 C547 0.950 . S
H525 C549 0.950 . S
H526 C550 0.950 . S
H527 C551 0.951 . S
H528 C553 0.951 . S
H529 C555 0.950 . S
H530 C556 0.950 . S
H531 C558 0.950 . S
H532 C561 0.950 . S
H533 C562 0.950 . S
H534 C564 0.950 . S
H535 C565 0.950 . S
C536 H518 0.951 . S
C536 C537 1.366 . S
C536 C538 1.388 . S
C537 C536 1.366 . S
C537 C541 1.385 . S
C538 H519 0.951 . S
C538 C536 1.388 . S
C538 C539 1.366 . S
C539 C538 1.366 . S
C539 C540 1.414 . S
C539 C542 1.499 . S
C540 H520 0.950 . S
C540 C539 1.414 . S
C540 C541 1.374 . S
C541 H521 0.950 . S
C541 C537 1.385 . S
C541 C540 1.374 . S
C542 C539 1.499 . S
C542 C543 1.373 . S
C542 C544 1.389 . S
C543 H522 0.950 . S
C543 C542 1.373 . S
C543 C559 1.377 1_565 S
C544 C542 1.389 . S
C544 C545 1.524 . S
C544 C558 1.377 . S
C545 C544 1.524 . S
C545 C546 1.397 . S
C545 C550 1.363 . S
C546 H523 0.950 . S
C546 C545 1.397 . S
C546 C547 1.334 . S
C547 H524 0.950 . S
C547 C546 1.334 . S
C547 C548 1.287 . S
C548 C547 1.287 . S
C548 C549 1.524 . S
C548 H567 0.913 . S
C549 H525 0.950 . S
C549 C548 1.524 . S
C549 C550 1.415 . S
C550 H526 0.950 . S
C550 C545 1.363 . S
C550 C549 1.415 . S
C551 H527 0.951 . S
C551 C552 1.366 . S
C551 C553 1.388 . S
C552 C551 1.366 . S
C552 C556 1.385 . S
C553 H528 0.951 . S
C553 C551 1.388 . S
C553 C554 1.366 . S
C554 C553 1.366 . S
C554 C555 1.414 . S
C554 C557 1.499 . S
C555 H529 0.950 . S
C555 C554 1.414 . S
C555 C556 1.374 . S
C556 H530 0.950 . S
C556 C552 1.385 . S
C556 C555 1.374 . S
C557 C554 1.499 . S
C557 C558 1.373 1_545 S
C557 C559 1.389 . S
C558 H531 0.950 . S
C558 C544 1.377 . S
C558 C557 1.373 1_565 S
C559 C543 1.377 1_545 S
C559 C557 1.389 . S
C559 C560 1.524 . S
C560 C559 1.524 . S
C560 C561 1.397 . S
C560 C565 1.363 . S
C561 H532 0.950 . S
C561 C560 1.397 . S
C561 C562 1.334 . S
C562 H533 0.950 . S
C562 C561 1.334 . S
C562 C563 1.287 . S
C563 C562 1.287 . S
C563 C564 1.524 . S
C563 H566 0.999 . S
C564 H534 0.950 . S
C564 C563 1.524 . S
C564 C565 1.415 . S
C565 H535 0.950 . S
C565 C560 1.363 . S
C565 C564 1.415 . S
H566 C563 0.999 . S
H567 C548 0.913 . S
H568 C586 0.951 . S
H569 C588 0.951 . S
H570 C590 0.950 . S
H571 C591 0.950 . S
H572 C593 0.950 . S
H573 C596 0.950 . S
H574 C597 0.950 . S
H575 C599 0.950 . S
H576 C600 0.950 . S
H577 C601 0.951 . S
H578 C603 0.951 . S
H579 C605 0.950 . S
H580 C606 0.950 . S
H581 C608 0.950 . S
H582 C611 0.950 . S
H583 C612 0.950 . S
H584 C614 0.950 1_545 S
H585 C615 0.950 . S
C586 H568 0.951 . S
C586 C587 1.366 . S
C586 C588 1.388 . S
C587 C586 1.366 . S
C587 C591 1.385 . S
C588 H569 0.951 . S
C588 C586 1.388 . S
C588 C589 1.366 . S
C589 C588 1.366 . S
C589 C590 1.414 . S
C589 C592 1.499 . S
C590 H570 0.950 . S
C590 C589 1.414 . S
C590 C591 1.374 . S
C591 H571 0.950 . S
C591 C587 1.385 . S
C591 C590 1.374 . S
C592 C589 1.499 . S
C592 C593 1.373 . S
C592 C594 1.389 . S
C593 H572 0.950 . S
C593 C592 1.373 . S
C593 C609 1.377 . S
C594 C592 1.389 . S
C594 C595 1.524 . S
C594 C608 1.377 . S
C595 C594 1.524 . S
C595 C596 1.397 . S
C595 C600 1.363 . S
C596 H573 0.950 . S
C596 C595 1.397 . S
C596 C597 1.334 . S
C597 H574 0.950 . S
C597 C596 1.334 . S
C597 C598 1.287 . S
C598 C597 1.287 . S
C598 C599 1.524 . S
C598 H617 0.913 . S
C599 H575 0.950 . S
C599 C598 1.524 . S
C599 C600 1.415 . S
C600 H576 0.950 . S
C600 C595 1.363 . S
C600 C599 1.415 . S
C601 H577 0.951 . S
C601 C602 1.366 . S
C601 C603 1.388 . S
C602 C601 1.366 . S
C602 C606 1.385 . S
C603 H578 0.951 . S
C603 C601 1.388 . S
C603 C604 1.366 . S
C604 C603 1.366 . S
C604 C605 1.414 . S
C604 C607 1.499 . S
C605 H579 0.950 . S
C605 C604 1.414 . S
C605 C606 1.374 . S
C606 H580 0.950 . S
C606 C602 1.385 . S
C606 C605 1.374 . S
C607 C604 1.499 . S
C607 C608 1.373 . S
C607 C609 1.389 . S
C608 H581 0.950 . S
C608 C594 1.377 . S
C608 C607 1.373 . S
C609 C593 1.377 . S
C609 C607 1.389 . S
C609 C610 1.524 . S
C610 C609 1.524 . S
C610 C611 1.397 . S
C610 C615 1.363 . S
C611 H582 0.950 . S
C611 C610 1.397 . S
C611 C612 1.334 1_565 S
C612 H583 0.950 . S
C612 C611 1.334 1_545 S
C612 C613 1.287 . S
C613 C612 1.287 . S
C613 C614 1.524 1_545 S
C613 H616 0.999 . S
C614 H584 0.950 1_565 S
C614 C613 1.524 1_565 S
C614 C615 1.415 . S
C615 H585 0.950 . S
C615 C610 1.363 . S
C615 C614 1.415 . S
H616 C613 0.999 . S
H617 C598 0.913 . S
H618 C636 0.951 . S
H619 C638 0.951 . S
H620 C640 0.950 . S
H621 C641 0.950 . S
H622 C643 0.950 . S
H623 C646 0.950 . S
H624 C647 0.950 . S
H625 C649 0.950 . S
H626 C650 0.950 . S
H627 C651 0.951 . S
H628 C653 0.951 . S
H629 C655 0.950 . S
H630 C656 0.950 . S
H631 C658 0.950 1_565 S
H632 C661 0.950 . S
H633 C662 0.950 . S
H634 C664 0.950 . S
H635 C665 0.950 . S
C636 H618 0.951 . S
C636 C637 1.366 . S
C636 C638 1.388 . S
C637 C636 1.366 . S
C637 C641 1.385 . S
C638 H619 0.951 . S
C638 C636 1.388 . S
C638 C639 1.366 . S
C639 C638 1.366 . S
C639 C640 1.414 . S
C639 C642 1.499 . S
C640 H620 0.950 . S
C640 C639 1.414 . S
C640 C641 1.374 . S
C641 H621 0.950 . S
C641 C637 1.385 . S
C641 C640 1.374 . S
C642 C639 1.499 . S
C642 C643 1.373 . S
C642 C644 1.389 . S
C643 H622 0.950 . S
C643 C642 1.373 . S
C643 C659 1.377 . S
C644 C642 1.389 . S
C644 C645 1.524 . S
C644 C658 1.377 . S
C645 C644 1.524 . S
C645 C646 1.397 . S
C645 C650 1.363 . S
C646 H623 0.950 . S
C646 C645 1.397 . S
C646 C647 1.334 . S
C647 H624 0.950 . S
C647 C646 1.334 . S
C647 C648 1.287 . S
C648 C647 1.287 . S
C648 C649 1.524 . S
C648 H667 0.913 . S
C649 H625 0.950 . S
C649 C648 1.524 . S
C649 C650 1.415 . S
C650 H626 0.950 . S
C650 C645 1.363 . S
C650 C649 1.415 . S
C651 H627 0.951 . S
C651 C652 1.366 . S
C651 C653 1.388 . S
C652 C651 1.366 . S
C652 C656 1.385 . S
C653 H628 0.951 . S
C653 C651 1.388 . S
C653 C654 1.366 . S
C654 C653 1.366 . S
C654 C655 1.414 . S
C654 C657 1.499 1_565 S
C655 H629 0.950 . S
C655 C654 1.414 . S
C655 C656 1.374 . S
C656 H630 0.950 . S
C656 C652 1.385 . S
C656 C655 1.374 . S
C657 C654 1.499 1_545 S
C657 C658 1.373 . S
C657 C659 1.389 . S
C658 H631 0.950 1_545 S
C658 C644 1.377 . S
C658 C657 1.373 . S
C659 C643 1.377 . S
C659 C657 1.389 . S
C659 C660 1.524 . S
C660 C659 1.524 . S
C660 C661 1.397 . S
C660 C665 1.363 . S
C661 H632 0.950 . S
C661 C660 1.397 . S
C661 C662 1.334 . S
C662 H633 0.950 . S
C662 C661 1.334 . S
C662 C663 1.287 . S
C663 C662 1.287 . S
C663 C664 1.524 . S
C663 H666 0.999 . S
C664 H634 0.950 . S
C664 C663 1.524 . S
C664 C665 1.415 . S
C665 H635 0.950 . S
C665 C660 1.363 . S
C665 C664 1.415 . S
H666 C663 0.999 . S
H667 C648 0.913 . S
H668 C686 0.951 . S
H669 C688 0.951 . S
H670 C690 0.950 . S
H671 C691 0.950 . S
H672 C693 0.950 . S
H673 C696 0.950 . S
H674 C697 0.950 1_565 S
H675 C699 0.950 . S
H676 C700 0.950 . S
H677 C701 0.951 . S
H678 C703 0.951 . S
H679 C705 0.950 . S
H680 C706 0.950 . S
H681 C708 0.950 . S
H682 C711 0.950 . S
H683 C712 0.950 . S
H684 C714 0.950 . S
H685 C715 0.950 . S
C686 H668 0.951 . S
C686 C687 1.366 . S
C686 C688 1.388 . S
C687 C686 1.366 . S
C687 C691 1.385 . S
C688 H669 0.951 . S
C688 C686 1.388 . S
C688 C689 1.366 . S
C689 C688 1.366 . S
C689 C690 1.414 . S
C689 C692 1.499 . S
C690 H670 0.950 . S
C690 C689 1.414 . S
C690 C691 1.374 . S
C691 H671 0.950 . S
C691 C687 1.385 . S
C691 C690 1.374 . S
C692 C689 1.499 . S
C692 C693 1.373 . S
C692 C694 1.389 . S
C693 H672 0.950 . S
C693 C692 1.373 . S
C693 C709 1.377 . S
C694 C692 1.389 . S
C694 C695 1.524 . S
C694 C708 1.377 . S
C695 C694 1.524 . S
C695 C696 1.397 . S
C695 C700 1.363 . S
C696 H673 0.950 . S
C696 C695 1.397 . S
C696 C697 1.334 . S
C697 H674 0.950 1_545 S
C697 C696 1.334 . S
C697 C698 1.287 . S
C698 C697 1.287 . S
C698 C699 1.524 . S
C698 H717 0.913 . S
C699 H675 0.950 . S
C699 C698 1.524 . S
C699 C700 1.415 . S
C700 H676 0.950 . S
C700 C695 1.363 . S
C700 C699 1.415 . S
C701 H677 0.951 . S
C701 C702 1.366 . S
C701 C703 1.388 . S
C702 C701 1.366 . S
C702 C706 1.385 . S
C703 H678 0.951 . S
C703 C701 1.388 . S
C703 C704 1.366 . S
C704 C703 1.366 . S
C704 C705 1.414 . S
C704 C707 1.499 . S
C705 H679 0.950 . S
C705 C704 1.414 . S
C705 C706 1.374 . S
C706 H680 0.950 . S
C706 C702 1.385 . S
C706 C705 1.374 . S
C707 C704 1.499 . S
C707 C708 1.373 . S
C707 C709 1.389 . S
C708 H681 0.950 . S
C708 C694 1.377 . S
C708 C707 1.373 . S
C709 C693 1.377 . S
C709 C707 1.389 . S
C709 C710 1.524 . S
C710 C709 1.524 . S
C710 C711 1.397 . S
C710 C715 1.363 . S
C711 H682 0.950 . S
C711 C710 1.397 . S
C711 C712 1.334 . S
C712 H683 0.950 . S
C712 C711 1.334 . S
C712 C713 1.287 . S
C713 C712 1.287 . S
C713 C714 1.524 . S
C713 H716 0.999 . S
C714 H684 0.950 . S
C714 C713 1.524 . S
C714 C715 1.415 . S
C715 H685 0.950 . S
C715 C710 1.363 . S
C715 C714 1.415 . S
H716 C713 0.999 . S
H717 C698 0.913 . S
H718 C736 0.951 . S
H719 C738 0.951 . S
H720 C740 0.950 1_565 S
H721 C741 0.950 . S
H722 C743 0.950 . S
H723 C746 0.950 . S
H724 C747 0.950 . S
H725 C749 0.950 . S
H726 C750 0.950 . S
H727 C751 0.951 . S
H728 C753 0.951 . S
H729 C755 0.950 . S
H730 C756 0.950 . S
H731 C758 0.950 . S
H732 C761 0.950 . S
H733 C762 0.950 . S
H734 C764 0.950 . S
H735 C765 0.950 . S
C736 H718 0.951 . S
C736 C737 1.366 . S
C736 C738 1.388 . S
C737 C736 1.366 . S
C737 C741 1.385 . S
C738 H719 0.951 . S
C738 C736 1.388 . S
C738 C739 1.366 . S
C739 C738 1.366 . S
C739 C740 1.414 . S
C739 C742 1.499 1_545 S
C740 H720 0.950 1_545 S
C740 C739 1.414 . S
C740 C741 1.374 . S
C741 H721 0.950 . S
C741 C737 1.385 . S
C741 C740 1.374 . S
C742 C739 1.499 1_565 S
C742 C743 1.373 . S
C742 C744 1.389 . S
C743 H722 0.950 . S
C743 C742 1.373 . S
C743 C759 1.377 . S
C744 C742 1.389 . S
C744 C745 1.524 1_565 S
C744 C758 1.377 . S
C745 C744 1.524 1_545 S
C745 C746 1.397 . S
C745 C750 1.363 . S
C746 H723 0.950 . S
C746 C745 1.397 . S
C746 C747 1.334 . S
C747 H724 0.950 . S
C747 C746 1.334 . S
C747 C748 1.287 . S
C748 C747 1.287 . S
C748 C749 1.524 . S
C748 H767 0.913 . S
C749 H725 0.950 . S
C749 C748 1.524 . S
C749 C750 1.415 . S
C750 H726 0.950 . S
C750 C745 1.363 . S
C750 C749 1.415 . S
C751 H727 0.951 . S
C751 C752 1.366 . S
C751 C753 1.388 . S
C752 C751 1.366 . S
C752 C756 1.385 . S
C753 H728 0.951 . S
C753 C751 1.388 . S
C753 C754 1.366 . S
C754 C753 1.366 . S
C754 C755 1.414 . S
C754 C757 1.499 . S
C755 H729 0.950 . S
C755 C754 1.414 . S
C755 C756 1.374 . S
C756 H730 0.950 . S
C756 C752 1.385 . S
C756 C755 1.374 . S
C757 C754 1.499 . S
C757 C758 1.373 . S
C757 C759 1.389 . S
C758 H731 0.950 . S
C758 C744 1.377 . S
C758 C757 1.373 . S
C759 C743 1.377 . S
C759 C757 1.389 . S
C759 C760 1.524 . S
C760 C759 1.524 . S
C760 C761 1.397 . S
C760 C765 1.363 . S
C761 H732 0.950 . S
C761 C760 1.397 . S
C761 C762 1.334 . S
C762 H733 0.950 . S
C762 C761 1.334 . S
C762 C763 1.287 . S
C763 C762 1.287 . S
C763 C764 1.524 . S
C763 H766 0.999 . S
C764 H734 0.950 . S
C764 C763 1.524 . S
C764 C765 1.415 . S
C765 H735 0.950 . S
C765 C760 1.363 . S
C765 C764 1.415 . S
H766 C763 0.999 . S
H767 C748 0.913 . S
H768 C786 0.951 . S
H769 C788 0.951 . S
H770 C790 0.950 . S
H771 C791 0.950 . S
H772 C793 0.950 . S
H773 C796 0.950 . S
H774 C797 0.950 . S
H775 C799 0.946 . S
H776 C800 0.950 . S
H777 C801 0.951 . S
H778 C803 0.951 . S
H779 C805 0.949 1_455 S
H780 C806 0.950 . S
H781 C808 0.950 . S
H782 C811 0.950 . S
H783 C812 0.950 . S
H784 C814 0.950 . S
H785 C815 0.950 . S
C786 H768 0.951 . S
C786 C787 1.366 . S
C786 C788 1.388 . S
C787 C786 1.366 . S
C787 C791 1.385 . S
C788 H769 0.951 . S
C788 C786 1.388 . S
C788 C789 1.366 . S
C789 C788 1.366 . S
C789 C790 1.414 . S
C789 C792 1.499 . S
C790 H770 0.950 . S
C790 C789 1.414 . S
C790 C791 1.374 . S
C791 H771 0.950 . S
C791 C787 1.385 . S
C791 C790 1.374 . S
C792 C789 1.499 . S
C792 C793 1.373 . S
C792 C794 1.389 . S
C793 H772 0.950 . S
C793 C792 1.373 . S
C793 C809 1.377 . S
C794 C792 1.389 . S
C794 C795 1.524 . S
C794 C808 1.377 . S
C795 C794 1.524 . S
C795 C796 1.397 . S
C795 C800 1.363 . S
C796 H773 0.950 . S
C796 C795 1.397 . S
C796 C797 1.334 . S
C797 H774 0.950 . S
C797 C796 1.334 . S
C797 C798 1.287 . S
C798 C797 1.287 . S
C798 C799 1.524 . S
C798 H817 0.913 1_554 S
C799 H775 0.946 . S
C799 C798 1.524 . S
C799 C800 1.415 . S
C800 H776 0.950 . S
C800 C795 1.363 . S
C800 C799 1.415 . S
C801 H777 0.951 . S
C801 C802 1.366 1_655 S
C801 C803 1.388 . S
C802 C801 1.366 1_455 S
C802 C806 1.385 . S
C803 H778 0.951 . S
C803 C801 1.388 . S
C803 C804 1.366 . S
C804 C803 1.366 . S
C804 C805 1.414 . S
C804 C807 1.499 . S
C805 H779 0.949 1_655 S
C805 C804 1.414 . S
C805 C806 1.374 1_655 S
C806 H780 0.950 . S
C806 C802 1.385 . S
C806 C805 1.374 1_455 S
C807 C804 1.499 . S
C807 C808 1.373 . S
C807 C809 1.389 . S
C808 H781 0.950 . S
C808 C794 1.377 . S
C808 C807 1.373 . S
C809 C793 1.377 . S
C809 C807 1.389 . S
C809 C810 1.524 . S
C810 C809 1.524 . S
C810 C811 1.397 . S
C810 C815 1.363 . S
C811 H782 0.950 . S
C811 C810 1.397 . S
C811 C812 1.334 . S
C812 H783 0.950 . S
C812 C811 1.334 . S
C812 C813 1.287 . S
C813 C812 1.287 . S
C813 C814 1.524 . S
C813 H816 0.999 . S
C814 H784 0.950 . S
C814 C813 1.524 . S
C814 C815 1.415 . S
C815 H785 0.950 . S
C815 C810 1.363 . S
C815 C814 1.415 . S
H816 C813 0.999 . S
H817 C798 0.913 1_556 S
H818 C836 0.951 . S
H819 C838 0.951 1_545 S
H820 C840 0.950 . S
H821 C841 0.950 . S
H822 C843 0.950 1_565 S
H823 C846 0.950 . S
H824 C847 0.950 . S
H825 C849 0.950 . S
H826 C850 0.950 . S
H827 C851 0.951 . S
H828 C853 0.951 . S
H829 C855 0.950 . S
H830 C856 0.950 . S
H831 C858 0.950 . S
H832 C861 0.950 . S
H833 C862 0.950 1_655 S
H834 C864 0.950 . S
H835 C865 0.950 . S
C836 H818 0.951 . S
C836 C837 1.366 . S
C836 C838 1.388 . S
C837 C836 1.366 . S
C837 C841 1.385 . S
C838 H819 0.951 1_565 S
C838 C836 1.388 . S
C838 C839 1.366 . S
C839 C838 1.366 . S
C839 C840 1.414 . S
C839 C842 1.499 1_565 S
C840 H820 0.950 . S
C840 C839 1.414 . S
C840 C841 1.374 . S
C841 H821 0.950 . S
C841 C837 1.385 . S
C841 C840 1.374 . S
C842 C839 1.499 1_545 S
C842 C843 1.373 . S
C842 C844 1.389 . S
C843 H822 0.950 1_545 S
C843 C842 1.373 . S
C843 C859 1.377 . S
C844 C842 1.389 . S
C844 C845 1.524 . S
C844 C858 1.377 . S
C845 C844 1.524 . S
C845 C846 1.397 . S
C845 C850 1.363 . S
C846 H823 0.950 . S
C846 C845 1.397 . S
C846 C847 1.334 . S
C847 H824 0.950 . S
C847 C846 1.334 . S
C847 C848 1.287 . S
C848 C847 1.287 . S
C848 C849 1.524 . S
C848 H867 0.913 . S
C849 H825 0.950 . S
C849 C848 1.524 . S
C849 C850 1.415 . S
C850 H826 0.950 . S
C850 C845 1.363 . S
C850 C849 1.415 . S
C851 H827 0.951 . S
C851 C852 1.366 . S
C851 C853 1.388 . S
C852 C851 1.366 . S
C852 C856 1.385 1_455 S
C853 H828 0.951 . S
C853 C851 1.388 . S
C853 C854 1.366 1_455 S
C854 C853 1.366 1_655 S
C854 C855 1.414 . S
C854 C857 1.499 . S
C855 H829 0.950 . S
C855 C854 1.414 . S
C855 C856 1.374 . S
C856 H830 0.950 . S
C856 C852 1.385 1_655 S
C856 C855 1.374 . S
C857 C854 1.499 . S
C857 C858 1.373 . S
C857 C859 1.389 . S
C858 H831 0.950 . S
C858 C844 1.377 . S
C858 C857 1.373 . S
C859 C843 1.377 . S
C859 C857 1.389 . S
C859 C860 1.524 . S
C860 C859 1.524 . S
C860 C861 1.397 . S
C860 C865 1.363 1_645 S
C861 H832 0.950 . S
C861 C860 1.397 . S
C861 C862 1.334 1_655 S
C862 H833 0.950 1_455 S
C862 C861 1.334 1_455 S
C862 C863 1.287 1_545 S
C863 C862 1.287 1_565 S
C863 C864 1.524 . S
C863 H866 0.999 . S
C864 H834 0.950 . S
C864 C863 1.524 . S
C864 C865 1.415 . S
C865 H835 0.950 . S
C865 C860 1.363 1_465 S
C865 C864 1.415 . S
H866 C863 0.999 . S
H867 C848 0.913 . S
H868 C886 0.951 . S
H869 C888 0.951 . S
H870 C890 0.950 . S
H871 C891 0.950 1_545 S
H872 C893 0.950 . S
H873 C896 0.950 . S
H874 C897 0.950 . S
H875 C899 0.950 . S
H876 C900 0.950 . S
H877 C901 0.951 . S
H878 C903 0.951 . S
H879 C905 0.950 . S
H880 C906 0.950 . S
H881 C908 0.950 . S
H882 C911 0.950 . S
H883 C912 0.950 . S
H884 C914 0.950 . S
H885 C915 0.950 . S
C886 H868 0.951 . S
C886 C887 1.366 . S
C886 C888 1.388 . S
C887 C886 1.366 . S
C887 C891 1.385 . S
C888 H869 0.951 . S
C888 C886 1.388 . S
C888 C889 1.366 . S
C889 C888 1.366 . S
C889 C890 1.414 . S
C889 C892 1.499 . S
C890 H870 0.950 . S
C890 C889 1.414 . S
C890 C891 1.374 . S
C891 H871 0.950 1_565 S
C891 C887 1.385 . S
C891 C890 1.374 . S
C892 C889 1.499 . S
C892 C893 1.373 . S
C892 C894 1.389 . S
C893 H872 0.950 . S
C893 C892 1.373 . S
C893 C909 1.377 . S
C894 C892 1.389 . S
C894 C895 1.524 . S
C894 C908 1.377 . S
C895 C894 1.524 . S
C895 C896 1.397 . S
C895 C900 1.363 . S
C896 H873 0.950 . S
C896 C895 1.397 . S
C896 C897 1.334 . S
C897 H874 0.950 . S
C897 C896 1.334 . S
C897 C898 1.287 . S
C898 C897 1.287 . S
C898 C899 1.524 . S
C898 H917 0.913 . S
C899 H875 0.950 . S
C899 C898 1.524 . S
C899 C900 1.415 . S
C900 H876 0.950 . S
C900 C895 1.363 . S
C900 C899 1.415 . S
C901 H877 0.951 . S
C901 C902 1.366 . S
C901 C903 1.388 . S
C902 C901 1.366 . S
C902 C906 1.385 . S
C903 H878 0.951 . S
C903 C901 1.388 . S
C903 C904 1.366 . S
C904 C903 1.366 . S
C904 C905 1.414 . S
C904 C907 1.499 . S
C905 H879 0.950 . S
C905 C904 1.414 . S
C905 C906 1.374 . S
C906 H880 0.950 . S
C906 C902 1.385 . S
C906 C905 1.374 . S
C907 C904 1.499 . S
C907 C908 1.373 . S
C907 C909 1.389 . S
C908 H881 0.950 . S
C908 C894 1.377 . S
C908 C907 1.373 . S
C909 C893 1.377 . S
C909 C907 1.389 . S
C909 C910 1.524 . S
C910 C909 1.524 . S
C910 C911 1.397 . S
C910 C915 1.363 . S
C911 H882 0.950 . S
C911 C910 1.397 . S
C911 C912 1.334 . S
C912 H883 0.950 . S
C912 C911 1.334 . S
C912 C913 1.287 . S
C913 C912 1.287 . S
C913 C914 1.524 . S
C913 H916 0.999 . S
C914 H884 0.950 . S
C914 C913 1.524 . S
C914 C915 1.415 . S
C915 H885 0.950 . S
C915 C910 1.363 . S
C915 C914 1.415 . S
H916 C913 0.999 . S
H917 C898 0.913 . S
H918 C936 0.951 . S
H919 C938 0.951 . S
H920 C940 0.950 1_565 S
H921 C941 0.950 . S
H922 C943 0.950 . S
H923 C946 0.950 . S
H924 C947 0.950 . S
H925 C949 0.950 . S
H926 C950 0.949 1_545 S
H927 C951 0.951 . S
H928 C953 0.951 . S
H929 C955 0.950 . S
H930 C956 0.950 . S
H931 C958 0.950 . S
H932 C961 0.950 . S
H933 C962 0.950 . S
H934 C964 0.950 . S
H935 C965 0.950 1_655 S
C936 H918 0.951 . S
C936 C937 1.366 . S
C936 C938 1.388 . S
C937 C936 1.366 . S
C937 C941 1.385 . S
C938 H919 0.951 . S
C938 C936 1.388 . S
C938 C939 1.366 . S
C939 C938 1.366 . S
C939 C940 1.414 . S
C939 C942 1.499 1_545 S
C940 H920 0.950 1_545 S
C940 C939 1.414 . S
C940 C941 1.374 . S
C941 H921 0.950 . S
C941 C937 1.385 . S
C941 C940 1.374 . S
C942 C939 1.499 1_565 S
C942 C943 1.373 . S
C942 C944 1.389 . S
C943 H922 0.950 . S
C943 C942 1.373 . S
C943 C959 1.377 . S
C944 C942 1.389 . S
C944 C945 1.524 . S
C944 C958 1.377 . S
C945 C944 1.524 . S
C945 C946 1.397 . S
C945 C950 1.372 . S
C946 H923 0.950 . S
C946 C945 1.397 . S
C946 C947 1.334 . S
C947 H924 0.950 . S
C947 C946 1.334 . S
C947 C948 1.287 1_565 S
C948 C947 1.287 1_545 S
C948 C949 1.524 . S
C948 H967 0.913 . S
C949 H925 0.950 . S
C949 C948 1.524 . S
C949 C950 1.408 1_545 S
C950 H926 0.949 1_565 S
C950 C945 1.372 . S
C950 C949 1.408 1_565 S
C951 H927 0.951 . S
C951 C952 1.366 . S
C951 C953 1.388 1_455 S
C952 C951 1.366 . S
C952 C956 1.385 . S
C953 H928 0.951 . S
C953 C951 1.388 1_655 S
C953 C954 1.366 . S
C954 C953 1.366 . S
C954 C955 1.414 . S
C954 C957 1.499 . S
C955 H929 0.950 . S
C955 C954 1.414 . S
C955 C956 1.374 1_655 S
C956 H930 0.950 . S
C956 C952 1.385 . S
C956 C955 1.374 1_455 S
C957 C954 1.499 . S
C957 C958 1.373 . S
C957 C959 1.389 . S
C958 H931 0.950 . S
C958 C944 1.377 . S
C958 C957 1.373 . S
C959 C943 1.377 . S
C959 C957 1.389 . S
C959 C960 1.524 1_655 S
C960 C959 1.524 1_455 S
C960 C961 1.397 . S
C960 C965 1.363 . S
C961 H932 0.950 . S
C961 C960 1.397 . S
C961 C962 1.334 . S
C962 H933 0.950 . S
C962 C961 1.334 . S
C962 C963 1.287 . S
C963 C962 1.287 . S
C963 C964 1.524 . S
C963 H966 0.999 . S
C964 H934 0.950 . S
C964 C963 1.524 . S
C964 C965 1.415 . S
C965 H935 0.950 1_455 S
C965 C960 1.363 . S
C965 C964 1.415 . S
H966 C963 0.999 . S
H967 C948 0.913 . S
H968 C986 0.951 . S
H969 C988 0.951 . S
H970 C990 0.950 . S
H971 C991 0.935 1_565 S
H972 C993 0.950 . S
H973 C996 0.950 . S
H974 C997 0.950 1_565 S
H975 C999 0.950 . S
H976 C1000 0.950 . S
H977 C1001 0.951 . S
H978 C1003 0.951 . S
H979 C1005 0.950 . S
H980 C1006 0.950 . S
H981 C1008 0.950 . S
H982 C1011 0.950 . S
H983 C1012 0.950 1_455 S
H984 C1014 0.950 . S
H985 C1015 0.950 . S
C986 H968 0.951 . S
C986 C987 1.366 . S
C986 C988 1.388 . S
C987 C986 1.366 . S
C987 C991 1.385 . S
C988 H969 0.951 . S
C988 C986 1.388 . S
C988 C989 1.366 . S
C989 C988 1.366 . S
C989 C990 1.414 . S
C989 C992 1.499 . S
C990 H970 0.950 . S
C990 C989 1.414 . S
C990 C991 1.374 . S
C991 H971 0.935 1_545 S
C991 C987 1.385 . S
C991 C990 1.374 . S
C992 C989 1.499 . S
C992 C993 1.373 . S
C992 C994 1.389 . S
C993 H972 0.950 . S
C993 C992 1.373 . S
C993 C1009 1.377 . S
C994 C992 1.389 . S
C994 C995 1.524 . S
C994 C1008 1.377 . S
C995 C994 1.524 . S
C995 C996 1.397 . S
C995 C1000 1.363 . S
C996 H973 0.950 . S
C996 C995 1.397 . S
C996 C997 1.334 . S
C997 H974 0.950 1_545 S
C997 C996 1.334 . S
C997 C998 1.287 . S
C998 C997 1.287 . S
C998 C999 1.524 . S
C998 H1017 0.913 . S
C999 H975 0.950 . S
C999 C998 1.524 . S
C999 C1000 1.415 . S
C1000 H976 0.950 . S
C1000 C995 1.363 . S
C1000 C999 1.415 . S
C1001 H977 0.951 . S
C1001 C1002 1.366 . S
C1001 C1003 1.388 1_455 S
C1002 C1001 1.366 . S
C1002 C1006 1.385 1_455 S
C1003 H978 0.951 . S
C1003 C1001 1.388 1_655 S
C1003 C1004 1.366 . S
C1004 C1003 1.366 . S
C1004 C1005 1.414 . S
C1004 C1007 1.499 . S
C1005 H979 0.950 . S
C1005 C1004 1.414 . S
C1005 C1006 1.374 . S
C1006 H980 0.950 . S
C1006 C1002 1.385 1_655 S
C1006 C1005 1.374 . S
C1007 C1004 1.499 . S
C1007 C1008 1.373 . S
C1007 C1009 1.389 . S
C1008 H981 0.950 . S
C1008 C994 1.377 . S
C1008 C1007 1.373 . S
C1009 C993 1.377 . S
C1009 C1007 1.389 . S
C1009 C1010 1.524 . S
C1010 C1009 1.524 . S
C1010 C1011 1.397 . S
C1010 C1015 1.363 . S
C1011 H982 0.950 . S
C1011 C1010 1.397 . S
C1011 C1012 1.334 . S
C1012 H983 0.950 1_655 S
C1012 C1011 1.334 . S
C1012 C1013 1.287 1_655 S
C1013 C1012 1.287 1_455 S
C1013 C1014 1.524 . S
C1013 H1016 0.999 . S
C1014 H984 0.950 . S
C1014 C1013 1.524 . S
C1014 C1015 1.415 1_455 S
C1015 H985 0.950 . S
C1015 C1010 1.363 . S
C1015 C1014 1.415 1_655 S
H1016 C1013 0.999 . S
H1017 C998 0.913 . S
H1018 C1036 0.951 . S
H1019 C1038 0.951 . S
H1020 C1040 0.950 . S
H1021 C1041 0.950 . S
H1022 C1043 0.950 . S
H1023 C1046 0.950 . S
H1024 C1047 0.950 . S
H1025 C1049 0.950 . S
H1026 C1050 0.950 . S
H1027 C1051 0.951 . S
H1028 C1053 0.951 . S
H1029 C1055 0.950 . S
H1030 C1056 0.950 . S
H1031 C1058 0.950 . S
H1032 C1061 0.950 . S
H1033 C1062 0.950 . S
H1034 C1064 0.950 . S
H1035 C1065 0.950 . S
C1036 H1018 0.951 . S
C1036 C1037 1.366 . S
C1036 C1038 1.388 . S
C1037 C1036 1.366 . S
C1037 C1041 1.385 . S
C1038 H1019 0.951 . S
C1038 C1036 1.388 . S
C1038 C1039 1.366 . S
C1039 C1038 1.366 . S
C1039 C1040 1.414 . S
C1039 C1042 1.499 1_565 S
C1040 H1020 0.950 . S
C1040 C1039 1.414 . S
C1040 C1041 1.374 . S
C1041 H1021 0.950 . S
C1041 C1037 1.385 . S
C1041 C1040 1.374 . S
C1042 C1039 1.499 1_545 S
C1042 C1043 1.373 . S
C1042 C1044 1.389 . S
C1043 H1022 0.950 . S
C1043 C1042 1.373 . S
C1043 C1059 1.377 . S
C1044 C1042 1.389 . S
C1044 C1045 1.524 . S
C1044 C1058 1.377 . S
C1045 C1044 1.524 . S
C1045 C1046 1.397 . S
C1045 C1050 1.363 . S
C1046 H1023 0.950 . S
C1046 C1045 1.397 . S
C1046 C1047 1.334 . S
C1047 H1024 0.950 . S
C1047 C1046 1.334 . S
C1047 C1048 1.287 . S
C1048 C1047 1.287 . S
C1048 C1049 1.524 . S
C1048 H1067 0.913 . S
C1049 H1025 0.950 . S
C1049 C1048 1.524 . S
C1049 C1050 1.415 . S
C1050 H1026 0.950 . S
C1050 C1045 1.363 . S
C1050 C1049 1.415 . S
C1051 H1027 0.951 . S
C1051 C1052 1.366 . S
C1051 C1053 1.388 . S
C1052 C1051 1.366 . S
C1052 C1056 1.385 . S
C1053 H1028 0.951 . S
C1053 C1051 1.388 . S
C1053 C1054 1.366 . S
C1054 C1053 1.366 . S
C1054 C1055 1.414 . S
C1054 C1057 1.499 . S
C1055 H1029 0.950 . S
C1055 C1054 1.414 . S
C1055 C1056 1.374 . S
C1056 H1030 0.950 . S
C1056 C1052 1.385 . S
C1056 C1055 1.374 . S
C1057 C1054 1.499 . S
C1057 C1058 1.373 . S
C1057 C1059 1.389 . S
C1058 H1031 0.950 . S
C1058 C1044 1.377 . S
C1058 C1057 1.373 . S
C1059 C1043 1.377 . S
C1059 C1057 1.389 . S
C1059 C1060 1.524 . S
C1060 C1059 1.524 . S
C1060 C1061 1.397 . S
C1060 C1065 1.363 . S
C1061 H1032 0.950 . S
C1061 C1060 1.397 . S
C1061 C1062 1.334 . S
C1062 H1033 0.950 . S
C1062 C1061 1.334 . S
C1062 C1063 1.287 . S
C1063 C1062 1.287 . S
C1063 C1064 1.524 . S
C1063 H1066 0.999 . S
C1064 H1034 0.950 . S
C1064 C1063 1.524 . S
C1064 C1065 1.415 . S
C1065 H1035 0.950 . S
C1065 C1060 1.363 . S
C1065 C1064 1.415 . S
H1066 C1063 0.999 . S
H1067 C1048 0.913 . S
H1068 C1086 0.951 . S
H1069 C1088 0.951 . S
H1070 C1090 0.950 . S
H1071 C1091 0.983 . S
H1072 C1093 0.950 . S
H1073 C1096 0.950 . S
H1074 C1097 0.950 . S
H1075 C1099 0.950 . S
H1076 C1100 0.950 . S
H1077 C1101 0.951 . S
H1078 C1103 0.951 . S
H1079 C1105 0.950 . S
H1080 C1106 0.950 . S
H1081 C1108 0.950 . S
H1082 C1111 0.950 . S
H1083 C1112 0.950 . S
H1084 C1114 0.950 . S
H1085 C1115 0.950 . S
C1086 H1068 0.951 . S
C1086 C1087 1.366 . S
C1086 C1088 1.388 . S
C1087 C1086 1.366 . S
C1087 C1091 1.385 . S
C1088 H1069 0.951 . S
C1088 C1086 1.388 . S
C1088 C1089 1.366 . S
C1089 C1088 1.366 . S
C1089 C1090 1.414 . S
C1089 C1092 1.499 . S
C1090 H1070 0.950 . S
C1090 C1089 1.414 . S
C1090 C1091 1.374 . S
C1091 H1071 0.983 . S
C1091 C1087 1.385 . S
C1091 C1090 1.374 . S
C1092 C1089 1.499 . S
C1092 C1093 1.373 . S
C1092 C1094 1.389 . S
C1093 H1072 0.950 . S
C1093 C1092 1.373 . S
C1093 C1109 1.377 . S
C1094 C1092 1.389 . S
C1094 C1095 1.524 . S
C1094 C1108 1.377 . S
C1095 C1094 1.524 . S
C1095 C1096 1.397 . S
C1095 C1100 1.363 . S
C1096 H1073 0.950 . S
C1096 C1095 1.397 . S
C1096 C1097 1.334 . S
C1097 H1074 0.950 . S
C1097 C1096 1.334 . S
C1097 C1098 1.287 . S
C1098 C1097 1.287 . S
C1098 C1099 1.524 . S
C1098 H1117 0.913 . S
C1099 H1075 0.950 . S
C1099 C1098 1.524 . S
C1099 C1100 1.415 . S
C1100 H1076 0.950 . S
C1100 C1095 1.363 . S
C1100 C1099 1.415 . S
C1101 H1077 0.951 . S
C1101 C1102 1.366 . S
C1101 C1103 1.388 . S
C1102 C1101 1.366 . S
C1102 C1106 1.385 . S
C1103 H1078 0.951 . S
C1103 C1101 1.388 . S
C1103 C1104 1.366 . S
C1104 C1103 1.366 . S
C1104 C1105 1.414 . S
C1104 C1107 1.499 . S
C1105 H1079 0.950 . S
C1105 C1104 1.414 . S
C1105 C1106 1.374 . S
C1106 H1080 0.950 . S
C1106 C1102 1.385 . S
C1106 C1105 1.374 . S
C1107 C1104 1.499 . S
C1107 C1108 1.373 . S
C1107 C1109 1.389 . S
C1108 H1081 0.950 . S
C1108 C1094 1.377 . S
C1108 C1107 1.373 . S
C1109 C1093 1.377 . S
C1109 C1107 1.389 . S
C1109 C1110 1.524 . S
C1110 C1109 1.524 . S
C1110 C1111 1.397 . S
C1110 C1115 1.363 . S
C1111 H1082 0.950 . S
C1111 C1110 1.397 . S
C1111 C1112 1.334 . S
C1112 H1083 0.950 . S
C1112 C1111 1.334 . S
C1112 C1113 1.287 . S
C1113 C1112 1.287 . S
C1113 C1114 1.524 . S
C1113 H1116 0.999 . S
C1114 H1084 0.950 . S
C1114 C1113 1.524 . S
C1114 C1115 1.415 . S
C1115 H1085 0.950 . S
C1115 C1110 1.363 . S
C1115 C1114 1.415 . S
H1116 C1113 0.999 . S
H1117 C1098 0.913 . S
H1118 C1136 0.951 . S
H1119 C1138 0.951 . S
H1120 C1140 0.950 . S
H1121 C1141 0.950 . S
H1122 C1143 0.950 . S
H1123 C1146 0.950 . S
H1124 C1147 0.950 . S
H1125 C1149 0.950 . S
H1126 C1150 0.950 . S
H1127 C1151 0.951 . S
H1128 C1153 0.951 . S
H1129 C1155 0.950 . S
H1130 C1156 0.950 . S
H1131 C1158 0.950 . S
H1132 C1161 0.950 . S
H1133 C1162 0.950 . S
H1134 C1164 0.950 . S
H1135 C1165 0.950 . S
C1136 H1118 0.951 . S
C1136 C1137 1.366 . S
C1136 C1138 1.388 . S
C1137 C1136 1.366 . S
C1137 C1141 1.385 . S
C1138 H1119 0.951 . S
C1138 C1136 1.388 . S
C1138 C1139 1.366 . S
C1139 C1138 1.366 . S
C1139 C1140 1.414 . S
C1139 C1142 1.499 . S
C1140 H1120 0.950 . S
C1140 C1139 1.414 . S
C1140 C1141 1.374 . S
C1141 H1121 0.950 . S
C1141 C1137 1.385 . S
C1141 C1140 1.374 . S
C1142 C1139 1.499 . S
C1142 C1143 1.373 . S
C1142 C1144 1.389 . S
C1143 H1122 0.950 . S
C1143 C1142 1.373 . S
C1143 C1159 1.377 . S
C1144 C1142 1.389 . S
C1144 C1145 1.524 . S
C1144 C1158 1.377 . S
C1145 C1144 1.524 . S
C1145 C1146 1.397 . S
C1145 C1150 1.363 . S
C1146 H1123 0.950 . S
C1146 C1145 1.397 . S
C1146 C1147 1.334 1_655 S
C1147 H1124 0.950 . S
C1147 C1146 1.334 1_455 S
C1147 C1148 1.287 . S
C1148 C1147 1.287 . S
C1148 C1149 1.524 . S
C1148 H1167 0.913 . S
C1149 H1125 0.950 . S
C1149 C1148 1.524 . S
C1149 C1150 1.415 1_455 S
C1150 H1126 0.950 . S
C1150 C1145 1.363 . S
C1150 C1149 1.415 1_655 S
C1151 H1127 0.951 . S
C1151 C1152 1.366 . S
C1151 C1153 1.388 . S
C1152 C1151 1.366 . S
C1152 C1156 1.385 . S
C1153 H1128 0.951 . S
C1153 C1151 1.388 . S
C1153 C1154 1.366 . S
C1154 C1153 1.366 . S
C1154 C1155 1.414 . S
C1154 C1157 1.499 . S
C1155 H1129 0.950 . S
C1155 C1154 1.414 . S
C1155 C1156 1.374 . S
C1156 H1130 0.950 . S
C1156 C1152 1.385 . S
C1156 C1155 1.374 . S
C1157 C1154 1.499 . S
C1157 C1158 1.373 . S
C1157 C1159 1.389 . S
C1158 H1131 0.950 . S
C1158 C1144 1.377 . S
C1158 C1157 1.373 . S
C1159 C1143 1.377 . S
C1159 C1157 1.389 . S
C1159 C1160 1.524 . S
C1160 C1159 1.524 . S
C1160 C1161 1.397 . S
C1160 C1165 1.363 . S
C1161 H1132 0.950 . S
C1161 C1160 1.397 . S
C1161 C1162 1.334 . S
C1162 H1133 0.950 . S
C1162 C1161 1.334 . S
C1162 C1163 1.287 . S
C1163 C1162 1.287 . S
C1163 C1164 1.524 . S
C1163 H1166 0.999 . S
C1164 H1134 0.950 . S
C1164 C1163 1.524 . S
C1164 C1165 1.415 . S
C1165 H1135 0.950 . S
C1165 C1160 1.363 . S
C1165 C1164 1.415 . S
H1166 C1163 0.999 . S
H1167 C1148 0.913 . S
H1168 C1186 0.951 . S
H1169 C1188 0.951 . S
H1170 C1190 0.950 . S
H1171 C1191 0.950 . S
H1172 C1193 0.950 . S
H1173 C1196 0.950 . S
H1174 C1197 0.950 . S
H1175 C1199 0.950 . S
H1176 C1200 0.950 . S
H1177 C1201 0.951 . S
H1178 C1203 0.951 . S
H1179 C1205 0.950 . S
H1180 C1206 0.950 . S
H1181 C1208 0.950 . S
H1182 C1211 0.950 . S
H1183 C1212 0.950 . S
H1184 C1214 0.950 . S
H1185 C1215 0.950 . S
C1186 H1168 0.951 . S
C1186 C1187 1.366 . S
C1186 C1188 1.388 1_455 S
C1187 C1186 1.366 . S
C1187 C1191 1.385 1_455 S
C1188 H1169 0.951 . S
C1188 C1186 1.388 1_655 S
C1188 C1189 1.366 . S
C1189 C1188 1.366 . S
C1189 C1190 1.414 . S
C1189 C1192 1.499 . S
C1190 H1170 0.950 . S
C1190 C1189 1.414 . S
C1190 C1191 1.374 . S
C1191 H1171 0.950 . S
C1191 C1187 1.385 1_655 S
C1191 C1190 1.374 . S
C1192 C1189 1.499 . S
C1192 C1193 1.373 . S
C1192 C1194 1.389 . S
C1193 H1172 0.950 . S
C1193 C1192 1.373 . S
C1193 C1209 1.377 . S
C1194 C1192 1.389 . S
C1194 C1195 1.524 . S
C1194 C1208 1.377 . S
C1195 C1194 1.524 . S
C1195 C1196 1.397 . S
C1195 C1200 1.363 . S
C1196 H1173 0.950 . S
C1196 C1195 1.397 . S
C1196 C1197 1.334 . S
C1197 H1174 0.950 . S
C1197 C1196 1.334 . S
C1197 C1198 1.287 . S
C1198 C1197 1.287 . S
C1198 C1199 1.524 . S
C1198 H1217 0.913 . S
C1199 H1175 0.950 . S
C1199 C1198 1.524 . S
C1199 C1200 1.415 . S
C1200 H1176 0.950 . S
C1200 C1195 1.363 . S
C1200 C1199 1.415 . S
C1201 H1177 0.951 . S
C1201 C1202 1.366 . S
C1201 C1203 1.388 . S
C1202 C1201 1.366 . S
C1202 C1206 1.385 . S
C1203 H1178 0.951 . S
C1203 C1201 1.388 . S
C1203 C1204 1.366 . S
C1204 C1203 1.366 . S
C1204 C1205 1.414 . S
C1204 C1207 1.499 . S
C1205 H1179 0.950 . S
C1205 C1204 1.414 . S
C1205 C1206 1.374 . S
C1206 H1180 0.950 . S
C1206 C1202 1.385 . S
C1206 C1205 1.374 . S
C1207 C1204 1.499 . S
C1207 C1208 1.373 . S
C1207 C1209 1.389 . S
C1208 H1181 0.950 . S
C1208 C1194 1.377 . S
C1208 C1207 1.373 . S
C1209 C1193 1.377 . S
C1209 C1207 1.389 . S
C1209 C1210 1.524 . S
C1210 C1209 1.524 . S
C1210 C1211 1.397 . S
C1210 C1215 1.363 . S
C1211 H1182 0.950 . S
C1211 C1210 1.397 . S
C1211 C1212 1.334 . S
C1212 H1183 0.950 . S
C1212 C1211 1.334 . S
C1212 C1213 1.287 . S
C1213 C1212 1.287 . S
C1213 C1214 1.524 . S
C1213 H1216 0.999 . S
C1214 H1184 0.950 . S
C1214 C1213 1.524 . S
C1214 C1215 1.415 . S
C1215 H1185 0.950 . S
C1215 C1210 1.363 . S
C1215 C1214 1.415 . S
H1216 C1213 0.999 . S
H1217 C1198 0.913 . S
H1218 C1236 0.951 . S
H1219 C1238 0.951 . S
H1220 C1240 0.950 . S
H1221 C1241 0.950 . S
H1222 C1243 0.950 . S
H1223 C1246 0.950 . S
H1224 C1247 0.950 . S
H1225 C1249 0.950 . S
H1226 C1250 0.950 . S
H1227 C1251 0.951 . S
H1228 C1253 0.951 . S
H1229 C1255 0.950 . S
H1230 C1256 0.950 . S
H1231 C1258 0.950 . S
H1232 C1261 0.950 . S
H1233 C1262 0.950 . S
H1234 C1264 0.950 . S
H1235 C1265 0.950 . S
C1236 H1218 0.951 . S
C1236 C1237 1.366 . S
C1236 C1238 1.388 . S
C1237 C1236 1.366 . S
C1237 C1241 1.385 . S
C1238 H1219 0.951 . S
C1238 C1236 1.388 . S
C1238 C1239 1.366 . S
C1239 C1238 1.366 . S
C1239 C1240 1.414 . S
C1239 C1242 1.499 . S
C1240 H1220 0.950 . S
C1240 C1239 1.414 . S
C1240 C1241 1.374 . S
C1241 H1221 0.950 . S
C1241 C1237 1.385 . S
C1241 C1240 1.374 . S
C1242 C1239 1.499 . S
C1242 C1243 1.373 . S
C1242 C1244 1.389 . S
C1243 H1222 0.950 . S
C1243 C1242 1.373 . S
C1243 C1259 1.377 . S
C1244 C1242 1.389 . S
C1244 C1245 1.524 . S
C1244 C1258 1.377 . S
C1245 C1244 1.524 . S
C1245 C1246 1.397 . S
C1245 C1250 1.363 . S
C1246 H1223 0.950 . S
C1246 C1245 1.397 . S
C1246 C1247 1.334 . S
C1247 H1224 0.950 . S
C1247 C1246 1.334 . S
C1247 C1248 1.287 . S
C1248 C1247 1.287 . S
C1248 C1249 1.524 . S
C1248 H1267 0.913 . S
C1249 H1225 0.950 . S
C1249 C1248 1.524 . S
C1249 C1250 1.415 . S
C1250 H1226 0.950 . S
C1250 C1245 1.363 . S
C1250 C1249 1.415 . S
C1251 H1227 0.951 . S
C1251 C1252 1.366 . S
C1251 C1253 1.388 . S
C1252 C1251 1.366 . S
C1252 C1256 1.385 . S
C1253 H1228 0.951 . S
C1253 C1251 1.388 . S
C1253 C1254 1.366 . S
C1254 C1253 1.366 . S
C1254 C1255 1.414 . S
C1254 C1257 1.499 . S
C1255 H1229 0.950 . S
C1255 C1254 1.414 . S
C1255 C1256 1.374 . S
C1256 H1230 0.950 . S
C1256 C1252 1.385 . S
C1256 C1255 1.374 . S
C1257 C1254 1.499 . S
C1257 C1258 1.373 . S
C1257 C1259 1.389 . S
C1258 H1231 0.950 . S
C1258 C1244 1.377 . S
C1258 C1257 1.373 . S
C1259 C1243 1.377 . S
C1259 C1257 1.389 . S
C1259 C1260 1.524 . S
C1260 C1259 1.524 . S
C1260 C1261 1.397 . S
C1260 C1265 1.363 . S
C1261 H1232 0.950 . S
C1261 C1260 1.397 . S
C1261 C1262 1.334 . S
C1262 H1233 0.950 . S
C1262 C1261 1.334 . S
C1262 C1263 1.287 . S
C1263 C1262 1.287 . S
C1263 C1264 1.524 . S
C1263 H1266 0.999 . S
C1264 H1234 0.950 . S
C1264 C1263 1.524 . S
C1264 C1265 1.415 . S
C1265 H1235 0.950 . S
C1265 C1260 1.363 . S
C1265 C1264 1.415 . S
H1266 C1263 0.999 . S
H1267 C1248 0.913 . S
H1268 C1286 0.951 . S
H1269 C1288 0.951 . S
H1270 C1290 0.950 . S
H1271 C1291 0.950 . S
H1272 C1293 0.950 . S
H1273 C1296 0.950 . S
H1274 C1297 0.950 . S
H1275 C1299 0.950 . S
H1276 C1300 0.950 . S
H1277 C1301 0.951 . S
H1278 C1303 0.951 . S
H1279 C1305 0.950 . S
H1280 C1306 0.950 . S
H1281 C1308 0.950 . S
H1282 C1311 0.950 . S
H1283 C1312 0.950 . S
H1284 C1314 0.950 . S
H1285 C1315 0.950 . S
C1286 H1268 0.951 . S
C1286 C1287 1.366 . S
C1286 C1288 1.388 . S
C1287 C1286 1.366 . S
C1287 C1291 1.385 . S
C1288 H1269 0.951 . S
C1288 C1286 1.388 . S
C1288 C1289 1.366 . S
C1289 C1288 1.366 . S
C1289 C1290 1.414 . S
C1289 C1292 1.499 . S
C1290 H1270 0.950 . S
C1290 C1289 1.414 . S
C1290 C1291 1.374 . S
C1291 H1271 0.950 . S
C1291 C1287 1.385 . S
C1291 C1290 1.374 . S
C1292 C1289 1.499 . S
C1292 C1293 1.373 . S
C1292 C1294 1.389 . S
C1293 H1272 0.950 . S
C1293 C1292 1.373 . S
C1293 C1309 1.377 . S
C1294 C1292 1.389 . S
C1294 C1295 1.524 . S
C1294 C1308 1.377 . S
C1295 C1294 1.524 . S
C1295 C1296 1.397 . S
C1295 C1300 1.363 . S
C1296 H1273 0.950 . S
C1296 C1295 1.397 . S
C1296 C1297 1.334 . S
C1297 H1274 0.950 . S
C1297 C1296 1.334 . S
C1297 C1298 1.287 . S
C1298 C1297 1.287 . S
C1298 C1299 1.524 . S
C1298 H1317 0.913 . S
C1299 H1275 0.950 . S
C1299 C1298 1.524 . S
C1299 C1300 1.415 . S
C1300 H1276 0.950 . S
C1300 C1295 1.363 . S
C1300 C1299 1.415 . S
C1301 H1277 0.951 . S
C1301 C1302 1.366 . S
C1301 C1303 1.388 . S
C1302 C1301 1.366 . S
C1302 C1306 1.385 . S
C1303 H1278 0.951 . S
C1303 C1301 1.388 . S
C1303 C1304 1.366 . S
C1304 C1303 1.366 . S
C1304 C1305 1.414 . S
C1304 C1307 1.499 . S
C1305 H1279 0.950 . S
C1305 C1304 1.414 . S
C1305 C1306 1.374 . S
C1306 H1280 0.950 . S
C1306 C1302 1.385 . S
C1306 C1305 1.374 . S
C1307 C1304 1.499 . S
C1307 C1308 1.373 . S
C1307 C1309 1.389 . S
C1308 H1281 0.950 . S
C1308 C1294 1.377 . S
C1308 C1307 1.373 . S
C1309 C1293 1.377 . S
C1309 C1307 1.389 . S
C1309 C1310 1.524 . S
C1310 C1309 1.524 . S
C1310 C1311 1.397 . S
C1310 C1315 1.363 . S
C1311 H1282 0.950 . S
C1311 C1310 1.397 . S
C1311 C1312 1.334 . S
C1312 H1283 0.950 . S
C1312 C1311 1.334 . S
C1312 C1313 1.287 . S
C1313 C1312 1.287 . S
C1313 C1314 1.524 . S
C1313 H1316 0.999 . S
C1314 H1284 0.950 . S
C1314 C1313 1.524 . S
C1314 C1315 1.415 . S
C1315 H1285 0.950 . S
C1315 C1310 1.363 . S
C1315 C1314 1.415 . S
H1316 C1313 0.999 . S
H1317 C1298 0.913 . S
H1318 C1336 0.951 . S
H1319 C1338 0.951 . S
H1320 C1340 0.950 . S
H1321 C1341 0.950 . S
H1322 C1343 0.950 . S
H1323 C1346 0.950 . S
H1324 C1347 0.950 . S
H1325 C1349 0.950 . S
H1326 C1350 0.950 . S
H1327 C1351 0.951 . S
H1328 C1353 0.951 . S
H1329 C1355 0.950 . S
H1330 C1356 0.950 . S
H1331 C1358 0.950 . S
H1332 C1361 0.950 . S
H1333 C1362 0.950 . S
H1334 C1364 0.950 . S
H1335 C1365 0.950 . S
C1336 H1318 0.951 . S
C1336 C1337 1.366 . S
C1336 C1338 1.388 . S
C1337 C1336 1.366 . S
C1337 C1341 1.385 . S
C1338 H1319 0.951 . S
C1338 C1336 1.388 . S
C1338 C1339 1.366 . S
C1339 C1338 1.366 . S
C1339 C1340 1.414 . S
C1339 C1342 1.499 . S
C1340 H1320 0.950 . S
C1340 C1339 1.414 . S
C1340 C1341 1.374 . S
C1341 H1321 0.950 . S
C1341 C1337 1.385 . S
C1341 C1340 1.374 . S
C1342 C1339 1.499 . S
C1342 C1343 1.373 . S
C1342 C1344 1.389 . S
C1343 H1322 0.950 . S
C1343 C1342 1.373 . S
C1343 C1359 1.377 . S
C1344 C1342 1.389 . S
C1344 C1345 1.524 . S
C1344 C1358 1.377 . S
C1345 C1344 1.524 . S
C1345 C1346 1.397 . S
C1345 C1350 1.363 . S
C1346 H1323 0.950 . S
C1346 C1345 1.397 . S
C1346 C1347 1.334 . S
C1347 H1324 0.950 . S
C1347 C1346 1.334 . S
C1347 C1348 1.287 . S
C1348 C1347 1.287 . S
C1348 C1349 1.524 . S
C1348 H1367 0.913 . S
C1349 H1325 0.950 . S
C1349 C1348 1.524 . S
C1349 C1350 1.415 . S
C1350 H1326 0.950 . S
C1350 C1345 1.363 . S
C1350 C1349 1.415 . S
C1351 H1327 0.951 . S
C1351 C1352 1.366 . S
C1351 C1353 1.388 . S
C1352 C1351 1.366 . S
C1352 C1356 1.385 . S
C1353 H1328 0.951 . S
C1353 C1351 1.388 . S
C1353 C1354 1.366 . S
C1354 C1353 1.366 . S
C1354 C1355 1.414 . S
C1354 C1357 1.499 . S
C1355 H1329 0.950 . S
C1355 C1354 1.414 . S
C1355 C1356 1.374 . S
C1356 H1330 0.950 . S
C1356 C1352 1.385 . S
C1356 C1355 1.374 . S
C1357 C1354 1.499 . S
C1357 C1358 1.373 . S
C1357 C1359 1.389 . S
C1358 H1331 0.950 . S
C1358 C1344 1.377 . S
C1358 C1357 1.373 . S
C1359 C1343 1.377 . S
C1359 C1357 1.389 . S
C1359 C1360 1.524 . S
C1360 C1359 1.524 . S
C1360 C1361 1.397 . S
C1360 C1365 1.363 . S
C1361 H1332 0.950 . S
C1361 C1360 1.397 . S
C1361 C1362 1.334 . S
C1362 H1333 0.950 . S
C1362 C1361 1.334 . S
C1362 C1363 1.287 . S
C1363 C1362 1.287 . S
C1363 C1364 1.524 . S
C1363 H1366 0.999 . S
C1364 H1334 0.950 . S
C1364 C1363 1.524 . S
C1364 C1365 1.415 . S
C1365 H1335 0.950 . S
C1365 C1360 1.363 . S
C1365 C1364 1.415 . S
H1366 C1363 0.999 . S
H1367 C1348 0.913 . S
H1368 C1386 0.951 . S
H1369 C1388 0.951 . S
H1370 C1390 0.950 . S
H1371 C1391 0.950 . S
H1372 C1393 0.950 . S
H1373 C1396 0.950 . S
H1374 C1397 0.950 . S
H1375 C1399 0.950 . S
H1376 C1400 0.950 . S
H1377 C1401 0.951 . S
H1378 C1403 0.951 . S
H1379 C1405 0.950 . S
H1380 C1406 0.950 . S
H1381 C1408 0.950 . S
H1382 C1411 0.950 . S
H1383 C1412 0.950 . S
H1384 C1414 0.950 . S
H1385 C1415 0.950 . S
C1386 H1368 0.951 . S
C1386 C1387 1.366 1_655 S
C1386 C1388 1.388 . S
C1387 C1386 1.366 1_455 S
C1387 C1391 1.385 . S
C1388 H1369 0.951 . S
C1388 C1386 1.388 . S
C1388 C1389 1.366 . S
C1389 C1388 1.366 . S
C1389 C1390 1.414 . S
C1389 C1392 1.499 . S
C1390 H1370 0.950 . S
C1390 C1389 1.414 . S
C1390 C1391 1.374 1_655 S
C1391 H1371 0.950 . S
C1391 C1387 1.385 . S
C1391 C1390 1.374 1_455 S
C1392 C1389 1.499 . S
C1392 C1393 1.373 . S
C1392 C1394 1.389 . S
C1393 H1372 0.950 . S
C1393 C1392 1.373 . S
C1393 C1409 1.377 . S
C1394 C1392 1.389 . S
C1394 C1395 1.524 . S
C1394 C1408 1.377 . S
C1395 C1394 1.524 . S
C1395 C1396 1.397 . S
C1395 C1400 1.363 . S
C1396 H1373 0.950 . S
C1396 C1395 1.397 . S
C1396 C1397 1.334 . S
C1397 H1374 0.950 . S
C1397 C1396 1.334 . S
C1397 C1398 1.287 . S
C1398 C1397 1.287 . S
C1398 C1399 1.524 . S
C1398 H1417 0.913 . S
C1399 H1375 0.950 . S
C1399 C1398 1.524 . S
C1399 C1400 1.415 . S
C1400 H1376 0.950 . S
C1400 C1395 1.363 . S
C1400 C1399 1.415 . S
C1401 H1377 0.951 . S
C1401 C1402 1.366 . S
C1401 C1403 1.388 . S
C1402 C1401 1.366 . S
C1402 C1406 1.385 . S
C1403 H1378 0.951 . S
C1403 C1401 1.388 . S
C1403 C1404 1.366 . S
C1404 C1403 1.366 . S
C1404 C1405 1.414 . S
C1404 C1407 1.499 . S
C1405 H1379 0.950 . S
C1405 C1404 1.414 . S
C1405 C1406 1.374 . S
C1406 H1380 0.950 . S
C1406 C1402 1.385 . S
C1406 C1405 1.374 . S
C1407 C1404 1.499 . S
C1407 C1408 1.373 . S
C1407 C1409 1.389 . S
C1408 H1381 0.950 . S
C1408 C1394 1.377 . S
C1408 C1407 1.373 . S
C1409 C1393 1.377 . S
C1409 C1407 1.389 . S
C1409 C1410 1.524 . S
C1410 C1409 1.524 . S
C1410 C1411 1.397 . S
C1410 C1415 1.363 . S
C1411 H1382 0.950 . S
C1411 C1410 1.397 . S
C1411 C1412 1.334 . S
C1412 H1383 0.950 . S
C1412 C1411 1.334 . S
C1412 C1413 1.287 . S
C1413 C1412 1.287 . S
C1413 C1414 1.524 . S
C1413 H1416 0.999 . S
C1414 H1384 0.950 . S
C1414 C1413 1.524 . S
C1414 C1415 1.415 . S
C1415 H1385 0.950 . S
C1415 C1410 1.363 . S
C1415 C1414 1.415 . S
H1416 C1413 0.999 . S
H1417 C1398 0.913 . S
H1418 C1436 0.951 . S
H1419 C1438 0.951 . S
H1420 C1440 0.950 . S
H1421 C1441 0.950 . S
H1422 C1443 0.950 . S
H1423 C1446 0.950 . S
H1424 C1447 0.950 . S
H1425 C1449 0.950 . S
H1426 C1450 0.950 . S
H1427 C1451 0.951 1_455 S
H1428 C1453 0.951 . S
H1429 C1455 0.950 . S
H1430 C1456 0.950 . S
H1431 C1458 0.950 . S
H1432 C1461 0.950 . S
H1433 C1462 0.950 . S
H1434 C1464 0.950 . S
H1435 C1465 0.950 . S
C1436 H1418 0.951 . S
C1436 C1437 1.366 . S
C1436 C1438 1.388 . S
C1437 C1436 1.366 . S
C1437 C1441 1.385 . S
C1438 H1419 0.951 . S
C1438 C1436 1.388 . S
C1438 C1439 1.366 . S
C1439 C1438 1.366 . S
C1439 C1440 1.414 . S
C1439 C1442 1.499 . S
C1440 H1420 0.950 . S
C1440 C1439 1.414 . S
C1440 C1441 1.374 . S
C1441 H1421 0.950 . S
C1441 C1437 1.385 . S
C1441 C1440 1.374 . S
C1442 C1439 1.499 . S
C1442 C1443 1.373 . S
C1442 C1444 1.389 . S
C1443 H1422 0.950 . S
C1443 C1442 1.373 . S
C1443 C1459 1.377 . S
C1444 C1442 1.389 . S
C1444 C1445 1.524 . S
C1444 C1458 1.377 . S
C1445 C1444 1.524 . S
C1445 C1446 1.397 . S
C1445 C1450 1.363 . S
C1446 H1423 0.950 . S
C1446 C1445 1.397 . S
C1446 C1447 1.334 . S
C1447 H1424 0.950 . S
C1447 C1446 1.334 . S
C1447 C1448 1.287 . S
C1448 C1447 1.287 . S
C1448 C1449 1.524 . S
C1448 H1467 0.913 . S
C1449 H1425 0.950 . S
C1449 C1448 1.524 . S
C1449 C1450 1.415 . S
C1450 H1426 0.950 . S
C1450 C1445 1.363 . S
C1450 C1449 1.415 . S
C1451 H1427 0.951 1_655 S
C1451 C1452 1.366 . S
C1451 C1453 1.388 . S
C1452 C1451 1.366 . S
C1452 C1456 1.385 . S
C1453 H1428 0.951 . S
C1453 C1451 1.388 . S
C1453 C1454 1.366 . S
C1454 C1453 1.366 . S
C1454 C1455 1.414 . S
C1454 C1457 1.499 . S
C1455 H1429 0.950 . S
C1455 C1454 1.414 . S
C1455 C1456 1.374 . S
C1456 H1430 0.950 . S
C1456 C1452 1.385 . S
C1456 C1455 1.374 . S
C1457 C1454 1.499 . S
C1457 C1458 1.373 . S
C1457 C1459 1.389 . S
C1458 H1431 0.950 . S
C1458 C1444 1.377 . S
C1458 C1457 1.373 . S
C1459 C1443 1.377 . S
C1459 C1457 1.389 . S
C1459 C1460 1.524 . S
C1460 C1459 1.524 . S
C1460 C1461 1.397 . S
C1460 C1465 1.363 . S
C1461 H1432 0.950 . S
C1461 C1460 1.397 . S
C1461 C1462 1.334 . S
C1462 H1433 0.950 . S
C1462 C1461 1.334 . S
C1462 C1463 1.287 . S
C1463 C1462 1.287 . S
C1463 C1464 1.524 . S
C1463 H1466 0.999 . S
C1464 H1434 0.950 . S
C1464 C1463 1.524 . S
C1464 C1465 1.415 . S
C1465 H1435 0.950 . S
C1465 C1460 1.363 . S
C1465 C1464 1.415 . S
H1466 C1463 0.999 . S
H1467 C1448 0.913 . S
H1468 C1486 0.951 . S
H1469 C1488 0.951 . S
H1470 C1490 0.950 . S
H1471 C1491 0.950 . S
H1472 C1493 0.950 . S
H1473 C1496 0.950 . S
H1474 C1497 0.950 . S
H1475 C1499 0.950 . S
H1476 C1500 0.950 . S
H1477 C1501 0.951 . S
H1478 C1503 0.951 . S
H1479 C1505 0.950 . S
H1480 C1506 0.950 . S
H1481 C1508 0.950 . S
H1482 C1511 0.950 . S
H1483 C1512 0.950 . S
H1484 C1514 0.950 . S
H1485 C1515 0.950 . S
C1486 H1468 0.951 . S
C1486 C1487 1.366 . S
C1486 C1488 1.388 . S
C1487 C1486 1.366 . S
C1487 C1491 1.385 . S
C1488 H1469 0.951 . S
C1488 C1486 1.388 . S
C1488 C1489 1.366 . S
C1489 C1488 1.366 . S
C1489 C1490 1.414 . S
C1489 C1492 1.499 . S
C1490 H1470 0.950 . S
C1490 C1489 1.414 . S
C1490 C1491 1.374 . S
C1491 H1471 0.950 . S
C1491 C1487 1.385 . S
C1491 C1490 1.374 . S
C1492 C1489 1.499 . S
C1492 C1493 1.373 . S
C1492 C1494 1.389 . S
C1493 H1472 0.950 . S
C1493 C1492 1.373 . S
C1493 C1509 1.377 . S
C1494 C1492 1.389 . S
C1494 C1495 1.524 . S
C1494 C1508 1.377 . S
C1495 C1494 1.524 . S
C1495 C1496 1.397 . S
C1495 C1500 1.363 . S
C1496 H1473 0.950 . S
C1496 C1495 1.397 . S
C1496 C1497 1.334 . S
C1497 H1474 0.950 . S
C1497 C1496 1.334 . S
C1497 C1498 1.287 . S
C1498 C1497 1.287 . S
C1498 C1499 1.524 . S
C1498 H1517 0.913 . S
C1499 H1475 0.950 . S
C1499 C1498 1.524 . S
C1499 C1500 1.415 . S
C1500 H1476 0.950 . S
C1500 C1495 1.363 . S
C1500 C1499 1.415 . S
C1501 H1477 0.951 . S
C1501 C1502 1.366 . S
C1501 C1503 1.388 . S
C1502 C1501 1.366 . S
C1502 C1506 1.385 . S
C1503 H1478 0.951 . S
C1503 C1501 1.388 . S
C1503 C1504 1.366 . S
C1504 C1503 1.366 . S
C1504 C1505 1.414 . S
C1504 C1507 1.499 . S
C1505 H1479 0.950 . S
C1505 C1504 1.414 . S
C1505 C1506 1.374 . S
C1506 H1480 0.950 . S
C1506 C1502 1.385 . S
C1506 C1505 1.374 . S
C1507 C1504 1.499 . S
C1507 C1508 1.373 . S
C1507 C1509 1.389 . S
C1508 H1481 0.950 . S
C1508 C1494 1.377 . S
C1508 C1507 1.373 . S
C1509 C1493 1.377 . S
C1509 C1507 1.389 . S
C1509 C1510 1.524 . S
C1510 C1509 1.524 . S
C1510 C1511 1.397 . S
C1510 C1515 1.363 . S
C1511 H1482 0.950 . S
C1511 C1510 1.397 . S
C1511 C1512 1.334 . S
C1512 H1483 0.950 . S
C1512 C1511 1.334 . S
C1512 C1513 1.287 . S
C1513 C1512 1.287 . S
C1513 C1514 1.524 . S
C1513 H1516 0.999 . S
C1514 H1484 0.950 . S
C1514 C1513 1.524 . S
C1514 C1515 1.415 . S
C1515 H1485 0.950 . S
C1515 C1510 1.363 . S
C1515 C1514 1.415 . S
H1516 C1513 0.999 . S
H1517 C1498 0.913 . S
H1518 C1536 0.951 . S
H1519 C1538 0.951 . S
H1520 C1540 0.950 . S
H1521 C1541 0.950 . S
H1522 C1543 0.950 . S
H1523 C1546 0.950 . S
H1524 C1547 0.950 . S
H1525 C1549 0.950 . S
H1526 C1550 0.950 . S
H1527 C1551 0.951 . S
H1528 C1553 0.951 . S
H1529 C1555 0.950 . S
H1530 C1556 0.950 . S
H1531 C1558 0.950 . S
H1532 C1561 0.950 . S
H1533 C1562 0.950 . S
H1534 C1564 0.950 . S
H1535 C1565 0.950 . S
C1536 H1518 0.951 . S
C1536 C1537 1.366 . S
C1536 C1538 1.388 . S
C1537 C1536 1.366 . S
C1537 C1541 1.385 . S
C1538 H1519 0.951 . S
C1538 C1536 1.388 . S
C1538 C1539 1.366 . S
C1539 C1538 1.366 . S
C1539 C1540 1.414 . S
C1539 C1542 1.499 . S
C1540 H1520 0.950 . S
C1540 C1539 1.414 . S
C1540 C1541 1.374 . S
C1541 H1521 0.950 . S
C1541 C1537 1.385 . S
C1541 C1540 1.374 . S
C1542 C1539 1.499 . S
C1542 C1543 1.373 . S
C1542 C1544 1.389 . S
C1543 H1522 0.950 . S
C1543 C1542 1.373 . S
C1543 C1559 1.377 . S
C1544 C1542 1.389 . S
C1544 C1545 1.524 . S
C1544 C1558 1.377 . S
C1545 C1544 1.524 . S
C1545 C1546 1.397 . S
C1545 C1550 1.363 . S
C1546 H1523 0.950 . S
C1546 C1545 1.397 . S
C1546 C1547 1.334 . S
C1547 H1524 0.950 . S
C1547 C1546 1.334 . S
C1547 C1548 1.287 . S
C1548 C1547 1.287 . S
C1548 C1549 1.524 . S
C1548 H1567 0.913 . S
C1549 H1525 0.950 . S
C1549 C1548 1.524 . S
C1549 C1550 1.415 . S
C1550 H1526 0.950 . S
C1550 C1545 1.363 . S
C1550 C1549 1.415 . S
C1551 H1527 0.951 . S
C1551 C1552 1.366 . S
C1551 C1553 1.388 . S
C1552 C1551 1.366 . S
C1552 C1556 1.385 . S
C1553 H1528 0.951 . S
C1553 C1551 1.388 . S
C1553 C1554 1.366 . S
C1554 C1553 1.366 . S
C1554 C1555 1.414 . S
C1554 C1557 1.499 . S
C1555 H1529 0.950 . S
C1555 C1554 1.414 . S
C1555 C1556 1.374 . S
C1556 H1530 0.950 . S
C1556 C1552 1.385 . S
C1556 C1555 1.374 . S
C1557 C1554 1.499 . S
C1557 C1558 1.373 . S
C1557 C1559 1.389 . S
C1558 H1531 0.950 . S
C1558 C1544 1.377 . S
C1558 C1557 1.373 . S
C1559 C1543 1.377 . S
C1559 C1557 1.389 . S
C1559 C1560 1.524 . S
C1560 C1559 1.524 . S
C1560 C1561 1.397 . S
C1560 C1565 1.363 . S
C1561 H1532 0.950 . S
C1561 C1560 1.397 . S
C1561 C1562 1.334 . S
C1562 H1533 0.950 . S
C1562 C1561 1.334 . S
C1562 C1563 1.287 . S
C1563 C1562 1.287 . S
C1563 C1564 1.524 . S
C1563 H1566 0.999 . S
C1564 H1534 0.950 . S
C1564 C1563 1.524 . S
C1564 C1565 1.415 . S
C1565 H1535 0.950 . S
C1565 C1560 1.363 . S
C1565 C1564 1.415 . S
H1566 C1563 0.999 . S
H1567 C1548 0.913 . S
H1568 C1586 0.951 . S
H1569 C1588 0.951 . S
H1570 C1590 0.950 . S
H1571 C1591 0.950 . S
H1572 C1593 0.950 . S
H1573 C1596 0.950 . S
H1574 C1597 0.950 . S
H1575 C1599 0.950 . S
H1576 C1600 0.950 . S
H1577 C1601 0.951 . S
H1578 C1603 0.951 . S
H1579 C1605 0.950 . S
H1580 C1606 0.950 . S
H1581 C1608 0.950 . S
H1582 C1611 0.950 . S
H1583 C1612 0.950 . S
H1584 C1614 0.950 . S
H1585 C1615 0.950 . S
C1586 H1568 0.951 . S
C1586 C1587 1.366 . S
C1586 C1588 1.388 . S
C1587 C1586 1.366 . S
C1587 C1591 1.385 . S
C1588 H1569 0.951 . S
C1588 C1586 1.388 . S
C1588 C1589 1.366 . S
C1589 C1588 1.366 . S
C1589 C1590 1.414 . S
C1589 C1592 1.499 . S
C1590 H1570 0.950 . S
C1590 C1589 1.414 . S
C1590 C1591 1.374 . S
C1591 H1571 0.950 . S
C1591 C1587 1.385 . S
C1591 C1590 1.374 . S
C1592 C1589 1.499 . S
C1592 C1593 1.373 . S
C1592 C1594 1.389 . S
C1593 H1572 0.950 . S
C1593 C1592 1.373 . S
C1593 C1609 1.377 . S
C1594 C1592 1.389 . S
C1594 C1595 1.524 . S
C1594 C1608 1.377 . S
C1595 C1594 1.524 . S
C1595 C1596 1.397 . S
C1595 C1600 1.363 . S
C1596 H1573 0.950 . S
C1596 C1595 1.397 . S
C1596 C1597 1.334 . S
C1597 H1574 0.950 . S
C1597 C1596 1.334 . S
C1597 C1598 1.287 . S
C1598 C1597 1.287 . S
C1598 C1599 1.524 . S
C1598 H1617 0.913 . S
C1599 H1575 0.950 . S
C1599 C1598 1.524 . S
C1599 C1600 1.415 . S
C1600 H1576 0.950 . S
C1600 C1595 1.363 . S
C1600 C1599 1.415 . S
C1601 H1577 0.951 . S
C1601 C1602 1.366 . S
C1601 C1603 1.388 . S
C1602 C1601 1.366 . S
C1602 C1606 1.385 . S
C1603 H1578 0.951 . S
C1603 C1601 1.388 . S
C1603 C1604 1.366 . S
C1604 C1603 1.366 . S
C1604 C1605 1.414 . S
C1604 C1607 1.499 . S
C1605 H1579 0.950 . S
C1605 C1604 1.414 . S
C1605 C1606 1.374 . S
C1606 H1580 0.950 . S
C1606 C1602 1.385 . S
C1606 C1605 1.374 . S
C1607 C1604 1.499 . S
C1607 C1608 1.373 . S
C1607 C1609 1.389 . S
C1608 H1581 0.950 . S
C1608 C1594 1.377 . S
C1608 C1607 1.373 . S
C1609 C1593 1.377 . S
C1609 C1607 1.389 . S
C1609 C1610 1.524 . S
C1610 C1609 1.524 . S
C1610 C1611 1.397 . S
C1610 C1615 1.363 . S
C1611 H1582 0.950 . S
C1611 C1610 1.397 . S
C1611 C1612 1.334 . S
C1612 H1583 0.950 . S
C1612 C1611 1.334 . S
C1612 C1613 1.287 . S
C1613 C1612 1.287 . S
C1613 C1614 1.524 . S
C1613 H1616 0.999 . S
C1614 H1584 0.950 . S
C1614 C1613 1.524 . S
C1614 C1615 1.415 . S
C1615 H1585 0.950 . S
C1615 C1610 1.363 . S
C1615 C1614 1.415 . S
H1616 C1613 0.999 . S
H1617 C1598 0.913 . S
H1618 C1636 0.951 . S
H1619 C1638 0.951 . S
H1620 C1640 0.950 . S
H1621 C1641 0.950 . S
H1622 C1643 0.950 . S
H1623 C1646 0.950 . S
H1624 C1647 0.950 . S
H1625 C1649 0.950 . S
H1626 C1650 0.950 . S
H1627 C1651 0.951 . S
H1628 C1653 0.951 . S
H1629 C1655 0.950 . S
H1630 C1656 0.950 . S
H1631 C1658 0.950 . S
H1632 C1661 0.950 . S
H1633 C1662 0.950 . S
H1634 C1664 0.950 . S
H1635 C1665 0.950 . S
C1636 H1618 0.951 . S
C1636 C1637 1.366 . S
C1636 C1638 1.388 . S
C1637 C1636 1.366 . S
C1637 C1641 1.385 . S
C1638 H1619 0.951 . S
C1638 C1636 1.388 . S
C1638 C1639 1.366 . S
C1639 C1638 1.366 . S
C1639 C1640 1.414 . S
C1639 C1642 1.499 . S
C1640 H1620 0.950 . S
C1640 C1639 1.414 . S
C1640 C1641 1.374 . S
C1641 H1621 0.950 . S
C1641 C1637 1.385 . S
C1641 C1640 1.374 . S
C1642 C1639 1.499 . S
C1642 C1643 1.373 . S
C1642 C1644 1.389 . S
C1643 H1622 0.950 . S
C1643 C1642 1.373 . S
C1643 C1659 1.377 . S
C1644 C1642 1.389 . S
C1644 C1645 1.524 . S
C1644 C1658 1.377 . S
C1645 C1644 1.524 . S
C1645 C1646 1.397 . S
C1645 C1650 1.363 . S
C1646 H1623 0.950 . S
C1646 C1645 1.397 . S
C1646 C1647 1.334 . S
C1647 H1624 0.950 . S
C1647 C1646 1.334 . S
C1647 C1648 1.287 . S
C1648 C1647 1.287 . S
C1648 C1649 1.524 . S
C1648 H1667 0.913 . S
C1649 H1625 0.950 . S
C1649 C1648 1.524 . S
C1649 C1650 1.415 . S
C1650 H1626 0.950 . S
C1650 C1645 1.363 . S
C1650 C1649 1.415 . S
C1651 H1627 0.951 . S
C1651 C1652 1.366 . S
C1651 C1653 1.388 . S
C1652 C1651 1.366 . S
C1652 C1656 1.385 . S
C1653 H1628 0.951 . S
C1653 C1651 1.388 . S
C1653 C1654 1.366 . S
C1654 C1653 1.366 . S
C1654 C1655 1.414 . S
C1654 C1657 1.499 . S
C1655 H1629 0.950 . S
C1655 C1654 1.414 . S
C1655 C1656 1.374 . S
C1656 H1630 0.950 . S
C1656 C1652 1.385 . S
C1656 C1655 1.374 . S
C1657 C1654 1.499 . S
C1657 C1658 1.373 . S
C1657 C1659 1.389 . S
C1658 H1631 0.950 . S
C1658 C1644 1.377 . S
C1658 C1657 1.373 . S
C1659 C1643 1.377 . S
C1659 C1657 1.389 . S
C1659 C1660 1.524 . S
C1660 C1659 1.524 . S
C1660 C1661 1.397 . S
C1660 C1665 1.363 . S
C1661 H1632 0.950 . S
C1661 C1660 1.397 . S
C1661 C1662 1.334 . S
C1662 H1633 0.950 . S
C1662 C1661 1.334 . S
C1662 C1663 1.287 . S
C1663 C1662 1.287 . S
C1663 C1664 1.524 . S
C1663 H1666 0.999 . S
C1664 H1634 0.950 . S
C1664 C1663 1.524 . S
C1664 C1665 1.415 . S
C1665 H1635 0.950 . S
C1665 C1660 1.363 . S
C1665 C1664 1.415 . S
H1666 C1663 0.999 . S
H1667 C1648 0.913 . S
H1668 C1686 0.951 . S
H1669 C1688 0.951 . S
H1670 C1690 0.950 . S
H1671 C1691 0.928 1_554 S
H1672 C1693 0.950 . S
H1673 C1696 0.950 . S
H1674 C1697 0.950 . S
H1675 C1699 0.950 . S
H1676 C1700 0.950 . S
H1677 C1701 0.951 . S
H1678 C1703 0.951 . S
H1679 C1705 0.950 . S
H1680 C1706 0.950 . S
H1681 C1708 0.950 . S
H1682 C1711 0.950 . S
H1683 C1712 0.950 . S
H1684 C1714 0.950 . S
H1685 C1715 0.950 . S
C1686 H1668 0.951 . S
C1686 C1687 1.366 . S
C1686 C1688 1.388 . S
C1687 C1686 1.366 . S
C1687 C1691 1.385 . S
C1688 H1669 0.951 . S
C1688 C1686 1.388 . S
C1688 C1689 1.366 . S
C1689 C1688 1.366 . S
C1689 C1690 1.414 . S
C1689 C1692 1.499 . S
C1690 H1670 0.950 . S
C1690 C1689 1.414 . S
C1690 C1691 1.374 . S
C1691 H1671 0.928 1_556 S
C1691 C1687 1.385 . S
C1691 C1690 1.374 . S
C1692 C1689 1.499 . S
C1692 C1693 1.373 . S
C1692 C1694 1.389 . S
C1693 H1672 0.950 . S
C1693 C1692 1.373 . S
C1693 C1709 1.377 . S
C1694 C1692 1.389 . S
C1694 C1695 1.524 . S
C1694 C1708 1.377 . S
C1695 C1694 1.524 . S
C1695 C1696 1.397 . S
C1695 C1700 1.363 . S
C1696 H1673 0.950 . S
C1696 C1695 1.397 . S
C1696 C1697 1.334 . S
C1697 H1674 0.950 . S
C1697 C1696 1.334 . S
C1697 C1698 1.287 . S
C1698 C1697 1.287 . S
C1698 C1699 1.524 . S
C1698 H1717 0.913 . S
C1699 H1675 0.950 . S
C1699 C1698 1.524 . S
C1699 C1700 1.415 . S
C1700 H1676 0.950 . S
C1700 C1695 1.363 . S
C1700 C1699 1.415 . S
C1701 H1677 0.951 . S
C1701 C1702 1.366 . S
C1701 C1703 1.388 . S
C1702 C1701 1.366 . S
C1702 C1706 1.385 . S
C1703 H1678 0.951 . S
C1703 C1701 1.388 . S
C1703 C1704 1.366 . S
C1704 C1703 1.366 . S
C1704 C1705 1.414 . S
C1704 C1707 1.499 . S
C1705 H1679 0.950 . S
C1705 C1704 1.414 . S
C1705 C1706 1.374 . S
C1706 H1680 0.950 . S
C1706 C1702 1.385 . S
C1706 C1705 1.374 . S
C1707 C1704 1.499 . S
C1707 C1708 1.373 . S
C1707 C1709 1.389 . S
C1708 H1681 0.950 . S
C1708 C1694 1.377 . S
C1708 C1707 1.373 . S
C1709 C1693 1.377 . S
C1709 C1707 1.389 . S
C1709 C1710 1.524 . S
C1710 C1709 1.524 . S
C1710 C1711 1.397 . S
C1710 C1715 1.363 . S
C1711 H1682 0.950 . S
C1711 C1710 1.397 . S
C1711 C1712 1.334 . S
C1712 H1683 0.950 . S
C1712 C1711 1.334 . S
C1712 C1713 1.287 . S
C1713 C1712 1.287 . S
C1713 C1714 1.524 . S
C1713 H1716 0.999 . S
C1714 H1684 0.950 . S
C1714 C1713 1.524 . S
C1714 C1715 1.415 . S
C1715 H1685 0.950 . S
C1715 C1710 1.363 . S
C1715 C1714 1.415 . S
H1716 C1713 0.999 . S
H1717 C1698 0.913 . S
H1718 C1736 0.951 . S
H1719 C1738 0.951 . S
H1720 C1740 0.950 . S
H1721 C1741 0.950 . S
H1722 C1743 0.950 . S
H1723 C1746 0.950 . S
H1724 C1747 0.950 . S
H1725 C1749 0.950 . S
H1726 C1750 0.950 . S
H1727 C1751 0.951 . S
H1728 C1753 0.951 . S
H1729 C1755 0.950 . S
H1730 C1756 0.950 . S
H1731 C1758 0.950 . S
H1732 C1761 0.950 . S
H1733 C1762 0.950 . S
H1734 C1764 0.950 . S
H1735 C1765 0.950 . S
C1736 H1718 0.951 . S
C1736 C1737 1.366 . S
C1736 C1738 1.388 . S
C1737 C1736 1.366 . S
C1737 C1741 1.385 . S
C1738 H1719 0.951 . S
C1738 C1736 1.388 . S
C1738 C1739 1.366 . S
C1739 C1738 1.366 . S
C1739 C1740 1.414 . S
C1739 C1742 1.499 . S
C1740 H1720 0.950 . S
C1740 C1739 1.414 . S
C1740 C1741 1.374 . S
C1741 H1721 0.950 . S
C1741 C1737 1.385 . S
C1741 C1740 1.374 . S
C1742 C1739 1.499 . S
C1742 C1743 1.373 . S
C1742 C1744 1.389 . S
C1743 H1722 0.950 . S
C1743 C1742 1.373 . S
C1743 C1759 1.377 . S
C1744 C1742 1.389 . S
C1744 C1745 1.524 . S
C1744 C1758 1.377 . S
C1745 C1744 1.524 . S
C1745 C1746 1.397 . S
C1745 C1750 1.363 . S
C1746 H1723 0.950 . S
C1746 C1745 1.397 . S
C1746 C1747 1.334 . S
C1747 H1724 0.950 . S
C1747 C1746 1.334 . S
C1747 C1748 1.287 . S
C1748 C1747 1.287 . S
C1748 C1749 1.524 . S
C1748 H1767 0.913 . S
C1749 H1725 0.950 . S
C1749 C1748 1.524 . S
C1749 C1750 1.415 . S
C1750 H1726 0.950 . S
C1750 C1745 1.363 . S
C1750 C1749 1.415 . S
C1751 H1727 0.951 . S
C1751 C1752 1.366 . S
C1751 C1753 1.388 . S
C1752 C1751 1.366 . S
C1752 C1756 1.385 . S
C1753 H1728 0.951 . S
C1753 C1751 1.388 . S
C1753 C1754 1.366 . S
C1754 C1753 1.366 . S
C1754 C1755 1.414 . S
C1754 C1757 1.499 . S
C1755 H1729 0.950 . S
C1755 C1754 1.414 . S
C1755 C1756 1.374 . S
C1756 H1730 0.950 . S
C1756 C1752 1.385 . S
C1756 C1755 1.374 . S
C1757 C1754 1.499 . S
C1757 C1758 1.373 . S
C1757 C1759 1.389 . S
C1758 H1731 0.950 . S
C1758 C1744 1.377 . S
C1758 C1757 1.373 . S
C1759 C1743 1.377 . S
C1759 C1757 1.389 . S
C1759 C1760 1.524 . S
C1760 C1759 1.524 . S
C1760 C1761 1.397 . S
C1760 C1765 1.363 . S
C1761 H1732 0.950 . S
C1761 C1760 1.397 . S
C1761 C1762 1.334 . S
C1762 H1733 0.950 . S
C1762 C1761 1.334 . S
C1762 C1763 1.287 . S
C1763 C1762 1.287 . S
C1763 C1764 1.524 . S
C1763 H1766 0.999 . S
C1764 H1734 0.950 . S
C1764 C1763 1.524 . S
C1764 C1765 1.415 . S
C1765 H1735 0.950 . S
C1765 C1760 1.363 . S
C1765 C1764 1.415 . S
H1766 C1763 0.999 . S
H1767 C1748 0.913 . S
H1768 C1786 0.951 . S
H1769 C1788 0.951 . S
H1770 C1790 0.950 . S
H1771 C1791 0.950 . S
H1772 C1793 0.950 . S
H1773 C1796 0.950 . S
H1774 C1797 0.950 . S
H1775 C1799 0.950 . S
H1776 C1800 0.950 . S
H1777 C1801 0.951 . S
H1778 C1803 0.951 . S
H1779 C1805 0.950 . S
H1780 C1806 0.950 . S
H1781 C1808 0.950 . S
H1782 C1811 0.950 . S
H1783 C1812 0.950 . S
H1784 C1814 0.950 . S
H1785 C1815 0.950 . S
C1786 H1768 0.951 . S
C1786 C1787 1.366 . S
C1786 C1788 1.388 . S
C1787 C1786 1.366 . S
C1787 C1791 1.385 . S
C1788 H1769 0.951 . S
C1788 C1786 1.388 . S
C1788 C1789 1.366 . S
C1789 C1788 1.366 . S
C1789 C1790 1.414 . S
C1789 C1792 1.499 . S
C1790 H1770 0.950 . S
C1790 C1789 1.414 . S
C1790 C1791 1.374 . S
C1791 H1771 0.950 . S
C1791 C1787 1.385 . S
C1791 C1790 1.374 . S
C1792 C1789 1.499 . S
C1792 C1793 1.373 . S
C1792 C1794 1.389 . S
C1793 H1772 0.950 . S
C1793 C1792 1.373 . S
C1793 C1809 1.377 . S
C1794 C1792 1.389 . S
C1794 C1795 1.524 . S
C1794 C1808 1.377 . S
C1795 C1794 1.524 . S
C1795 C1796 1.397 . S
C1795 C1800 1.363 . S
C1796 H1773 0.950 . S
C1796 C1795 1.397 . S
C1796 C1797 1.334 . S
C1797 H1774 0.950 . S
C1797 C1796 1.334 . S
C1797 C1798 1.287 . S
C1798 C1797 1.287 . S
C1798 C1799 1.524 . S
C1798 H1817 0.913 . S
C1799 H1775 0.950 . S
C1799 C1798 1.524 . S
C1799 C1800 1.415 . S
C1800 H1776 0.950 . S
C1800 C1795 1.363 . S
C1800 C1799 1.415 . S
C1801 H1777 0.951 . S
C1801 C1802 1.366 . S
C1801 C1803 1.388 . S
C1802 C1801 1.366 . S
C1802 C1806 1.385 . S
C1803 H1778 0.951 . S
C1803 C1801 1.388 . S
C1803 C1804 1.366 . S
C1804 C1803 1.366 . S
C1804 C1805 1.414 . S
C1804 C1807 1.499 . S
C1805 H1779 0.950 . S
C1805 C1804 1.414 . S
C1805 C1806 1.374 . S
C1806 H1780 0.950 . S
C1806 C1802 1.385 . S
C1806 C1805 1.374 . S
C1807 C1804 1.499 . S
C1807 C1808 1.373 . S
C1807 C1809 1.389 . S
C1808 H1781 0.950 . S
C1808 C1794 1.377 . S
C1808 C1807 1.373 . S
C1809 C1793 1.377 . S
C1809 C1807 1.389 . S
C1809 C1810 1.524 . S
C1810 C1809 1.524 . S
C1810 C1811 1.397 . S
C1810 C1815 1.363 . S
C1811 H1782 0.950 . S
C1811 C1810 1.397 . S
C1811 C1812 1.334 . S
C1812 H1783 0.950 . S
C1812 C1811 1.334 . S
C1812 C1813 1.287 . S
C1813 C1812 1.287 . S
C1813 C1814 1.524 . S
C1813 H1816 0.999 . S
C1814 H1784 0.950 . S
C1814 C1813 1.524 . S
C1814 C1815 1.415 . S
C1815 H1785 0.950 . S
C1815 C1810 1.363 . S
C1815 C1814 1.415 . S
H1816 C1813 0.999 . S
H1817 C1798 0.913 . S
H1818 C1836 0.951 . S
H1819 C1838 0.951 . S
H1820 C1840 0.950 . S
H1821 C1841 0.950 . S
H1822 C1843 0.950 . S
H1823 C1846 0.950 . S
H1824 C1847 0.950 . S
H1825 C1849 0.950 . S
H1826 C1850 0.950 . S
H1827 C1851 0.951 . S
H1828 C1853 0.951 . S
H1829 C1855 0.950 . S
H1830 C1856 0.950 . S
H1831 C1858 0.950 . S
H1832 C1861 0.950 . S
H1833 C1862 0.950 . S
H1834 C1864 0.950 . S
H1835 C1865 0.950 . S
C1836 H1818 0.951 . S
C1836 C1837 1.366 . S
C1836 C1838 1.388 . S
C1837 C1836 1.366 . S
C1837 C1841 1.385 . S
C1838 H1819 0.951 . S
C1838 C1836 1.388 . S
C1838 C1839 1.366 . S
C1839 C1838 1.366 . S
C1839 C1840 1.414 . S
C1839 C1842 1.499 . S
C1840 H1820 0.950 . S
C1840 C1839 1.414 . S
C1840 C1841 1.374 . S
C1841 H1821 0.950 . S
C1841 C1837 1.385 . S
C1841 C1840 1.374 . S
C1842 C1839 1.499 . S
C1842 C1843 1.373 . S
C1842 C1844 1.389 . S
C1843 H1822 0.950 . S
C1843 C1842 1.373 . S
C1843 C1859 1.377 . S
C1844 C1842 1.389 . S
C1844 C1845 1.524 . S
C1844 C1858 1.377 . S
C1845 C1844 1.524 . S
C1845 C1846 1.397 . S
C1845 C1850 1.363 . S
C1846 H1823 0.950 . S
C1846 C1845 1.397 . S
C1846 C1847 1.334 . S
C1847 H1824 0.950 . S
C1847 C1846 1.334 . S
C1847 C1848 1.287 . S
C1848 C1847 1.287 . S
C1848 C1849 1.524 . S
C1848 H1867 0.913 . S
C1849 H1825 0.950 . S
C1849 C1848 1.524 . S
C1849 C1850 1.415 . S
C1850 H1826 0.950 . S
C1850 C1845 1.363 . S
C1850 C1849 1.415 . S
C1851 H1827 0.951 . S
C1851 C1852 1.366 . S
C1851 C1853 1.388 . S
C1852 C1851 1.366 . S
C1852 C1856 1.385 . S
C1853 H1828 0.951 . S
C1853 C1851 1.388 . S
C1853 C1854 1.366 . S
C1854 C1853 1.366 . S
C1854 C1855 1.414 . S
C1854 C1857 1.499 . S
C1855 H1829 0.950 . S
C1855 C1854 1.414 . S
C1855 C1856 1.374 . S
C1856 H1830 0.950 . S
C1856 C1852 1.385 . S
C1856 C1855 1.374 . S
C1857 C1854 1.499 . S
C1857 C1858 1.373 . S
C1857 C1859 1.389 . S
C1858 H1831 0.950 . S
C1858 C1844 1.377 . S
C1858 C1857 1.373 . S
C1859 C1843 1.377 . S
C1859 C1857 1.389 . S
C1859 C1860 1.524 . S
C1860 C1859 1.524 . S
C1860 C1861 1.397 . S
C1860 C1865 1.363 . S
C1861 H1832 0.950 . S
C1861 C1860 1.397 . S
C1861 C1862 1.334 . S
C1862 H1833 0.950 . S
C1862 C1861 1.334 . S
C1862 C1863 1.287 . S
C1863 C1862 1.287 . S
C1863 C1864 1.524 . S
C1863 H1866 0.999 . S
C1864 H1834 0.950 . S
C1864 C1863 1.524 . S
C1864 C1865 1.415 . S
C1865 H1835 0.950 . S
C1865 C1860 1.363 . S
C1865 C1864 1.415 . S
H1866 C1863 0.999 . S
H1867 C1848 0.913 . S
C302 C204 1.814 . S
C287 C14 1.836 . S
C337 C25 1.749 . S
C352 C207 1.750 . S
C387 C50 1.736 . S
C402 C238 1.731 . S
C452 C173 1.792 . S
C437 C68 1.814 . S
C502 C208 1.812 . S
C487 C16 1.824 . S
C552 C239 1.786 . S
C537 C26 1.808 . S
C602 C164 1.729 . S
C587 C52 1.724 . S
C652 C195 1.749 . S
C637 C70 1.745 . S
C687 C8 1.282 . S
C702 C225 1.199 . S
C737 C88 1.263 . S
C752 C194 1.185 . S
C787 C44 1.181 . S
C802 C154 1.169 . S
C852 C247 1.190 . S
C837 C98 1.203 . S
C902 C175 1.208 . S
C887 C7 1.289 . S
C937 C86 1.213 . S
C952 C174 1.200 . S
C987 C43 1.187 . S
C1002 C267 1.178 . S
C1052 C206 1.191 . S
C1037 C97 1.269 . S
C1087 C116 1.827 . S
C1102 C266 1.805 . S
C1137 C79 1.748 . S
C1152 C145 1.750 . S
C1187 C140 1.736 . S
C1202 C176 1.730 . S
C1237 C104 1.814 . S
C1252 C235 1.792 . S
C1302 C146 1.815 . S
C1287 C115 1.830 . S
C1337 C80 1.807 . S
C1352 C177 1.785 . S
C1387 C142 1.725 . S
C1402 C226 1.729 . S
C1452 C257 1.748 . S
C1437 C106 1.745 . S
C1487 C122 1.289 . S
C1502 C163 1.205 . S
C1537 C34 1.263 . S
C1552 C256 1.185 . S
C1587 C134 1.181 . S
C1602 C216 1.168 . S
C1652 C185 1.190 . S
C1637 C62 1.203 . S
C1702 C237 1.208 . S
C1687 C124 1.287 . S
C1752 C236 1.201 . S
C1737 C32 1.213 . S
C1802 C205 1.179 . S
C1787 C133 1.188 . S
C1852 C144 1.190 . S
C1837 C61 1.269 . S
