# Generated by pormake.
# Topology nom, (4,4)-cn, num edge types: 1
# Building blocks:
#     Node 0, Type 0, BuildingBlock: AZAVOO_clean_linker_0, # of connection points: 4
#     Node 1, Type 0, BuildingBlock: AZAVOO_clean_linker_0, # of connection points: 4
#     Node 2, Type 0, BuildingBlock: AZAVOO_clean_linker_0, # of connection points: 4
#     Node 3, Type 0, BuildingBlock: AZAVOO_clean_linker_0, # of connection points: 4
#     Node 4, Type 0, BuildingBlock: AZAVOO_clean_linker_0, # of connection points: 4
#     Node 5, Type 0, BuildingBlock: AZAVOO_clean_linker_0, # of connection points: 4
#     Node 6, Type 1, BuildingBlock: GALJAG_clean_sbu_0, # of connection points: 4
#     Node 7, Type 1, BuildingBlock: GALJAG_clean_sbu_0, # of connection points: 4
#     Node 8, Type 1, BuildingBlock: GALJAG_clean_sbu_0, # of connection points: 4
#     Node 9, Type 1, BuildingBlock: GALJAG_clean_sbu_0, # of connection points: 4
#     Node 10, Type 1, BuildingBlock: GALJAG_clean_sbu_0, # of connection points: 4
#     Node 11, Type 1, BuildingBlock: GALJAG_clean_sbu_0, # of connection points: 4
#     Edge 12, Type (0, 1), None
#     Edge 13, Type (0, 1), None
#     Edge 14, Type (0, 1), None
#     Edge 15, Type (0, 1), None
#     Edge 16, Type (0, 1), None
#     Edge 17, Type (0, 1), None
#     Edge 18, Type (0, 1), None
#     Edge 19, Type (0, 1), None
#     Edge 20, Type (0, 1), None
#     Edge 21, Type (0, 1), None
#     Edge 22, Type (0, 1), None
#     Edge 23, Type (0, 1), None
#     Edge 24, Type (0, 1), None
#     Edge 25, Type (0, 1), None
#     Edge 26, Type (0, 1), None
#     Edge 27, Type (0, 1), None
#     Edge 28, Type (0, 1), None
#     Edge 29, Type (0, 1), None
#     Edge 30, Type (0, 1), None
#     Edge 31, Type (0, 1), None
#     Edge 32, Type (0, 1), None
#     Edge 33, Type (0, 1), None
#     Edge 34, Type (0, 1), None
#     Edge 35, Type (0, 1), None
# Relax obj value: 0.151
# Max RMSD: 0.227
# Mean RMSD: 0.145
data_MOF--net-nom--node1-GALJAG_clean_sbu_0--node2-AZAVOO_clean_linker_0--edge1-none
_symmetry_space_group_name_H-M    P1
_symmetry_Int_Tables_number       1
_symmetry_cell_setting            triclinic
loop_
_symmetry_equiv_pos_as_xyz
'x, y, z'
_cell_length_a     26.243106
_cell_length_b     27.044473
_cell_length_c     32.265229
_cell_angle_alpha  89.886624
_cell_angle_beta   90.066819
_cell_angle_gamma 122.50717
loop_
_atom_site_label
_atom_site_type_symbol
_atom_site_fract_x
_atom_site_fract_y
_atom_site_fract_z
_atom_type_partial_charge
H0 H 0.15622 0.52638 0.03768 0.0
H1 H 0.4254 0.81282 0.43099 0.0
H2 H 0.96871 0.42096 0.25951 0.0
H3 H 0.91278 0.37255 0.19587 0.0
H4 H 0.92418 0.53148 0.15877 0.0
H5 H 0.97595 0.57832 0.22392 0.0
H6 H 0.1023 0.48761 0.21524 0.0
H7 H 0.12153 0.48639 0.14102 0.0
H8 H 0.10658 0.63653 0.1226 0.0
H9 H 0.08798 0.6375 0.19679 0.0
H10 H 0.22298 0.56975 0.28066 0.0
H11 H 0.32977 0.63607 0.26244 0.0
H12 H 0.29184 0.76485 0.2201 0.0
H13 H 0.18621 0.69973 0.24038 0.0
H14 H 0.1924 0.55642 0.36491 0.0
H15 H 0.28665 0.61166 0.40427 0.0
H16 H 0.29419 0.77227 0.37763 0.0
H17 H 0.19921 0.71622 0.33906 0.0
H18 H 0.06501 0.4841 0.39147 0.0
H19 H 0.11942 0.50247 0.45687 0.0
H20 H 0.14383 0.67328 0.46382 0.0
H21 H 0.09068 0.65515 0.39788 0.0
H22 H 0.91668 0.43266 0.32124 0.0
H23 H 0.81622 0.40932 0.34173 0.0
H24 H 0.89275 0.5885 0.38011 0.0
H25 H -0.00737 0.61268 0.3571 0.0
O26 O 0.14681 0.5265 0.06669 0.0
O27 O 0.12629 0.59554 0.05737 0.0
O28 O 0.37794 0.70546 0.43359 0.0
O29 O 0.38637 0.7896 0.41773 0.0
C30 C 0.02773 0.53738 0.27502 0.0
C31 C 0.08572 0.56537 0.25669 0.0
C32 C 0.13738 0.59702 0.28132 0.0
C33 C 0.13246 0.5989 0.32449 0.0
C34 C 0.07492 0.57065 0.34351 0.0
C35 C 0.02184 0.54198 0.31862 0.0
C36 C 0.97546 0.50289 0.24688 0.0
C37 C 0.95604 0.44424 0.23886 0.0
C38 C 0.92547 0.41713 0.2021 0.0
C39 C 0.91622 0.44912 0.17213 0.0
C40 C 0.93225 0.50651 0.18115 0.0
C41 C 0.96048 0.53277 0.2187 0.0
C42 C 0.09331 0.56232 0.21124 0.0
C43 C 0.10278 0.51987 0.19501 0.0
C44 C 0.11396 0.51944 0.15268 0.0
C45 C 0.11584 0.56153 0.12591 0.0
C46 C 0.10541 0.60348 0.14231 0.0
C47 C 0.09465 0.60407 0.18464 0.0
C48 C 0.19752 0.63043 0.26195 0.0
C49 C 0.23776 0.61185 0.26669 0.0
C50 C 0.29837 0.64959 0.25641 0.0
C51 C 0.31853 0.7054 0.2403 0.0
C52 C 0.27707 0.72185 0.23238 0.0
C53 C 0.21688 0.68476 0.24371 0.0
C54 C 0.18866 0.63227 0.34967 0.0
C55 C 0.21409 0.60342 0.36811 0.0
C56 C 0.26804 0.63512 0.3904 0.0
C57 C 0.29796 0.69641 0.39409 0.0
C58 C 0.27227 0.72513 0.37547 0.0
C59 C 0.21805 0.69328 0.35346 0.0
C60 C 0.0737 0.5682 0.38959 0.0
C61 C 0.07876 0.52405 0.40827 0.0
C62 C 0.11127 0.53521 0.44522 0.0
C63 C 0.13772 0.59012 0.46464 0.0
C64 C 0.12475 0.63086 0.44921 0.0
C65 C 0.093 0.61999 0.41191 0.0
C66 C 0.9623 0.52467 0.33687 0.0
C67 C 0.91199 0.46707 0.33378 0.0
C68 C 0.85465 0.4537 0.34576 0.0
C69 C 0.84678 0.49733 0.36209 0.0
C70 C 0.89759 0.5541 0.3676 0.0
C71 C 0.9547 0.56778 0.35466 0.0
C72 C 0.12978 0.5623 0.08124 0.0
C73 C 0.35633 0.73051 0.4165 0.0
H74 H 0.59603 0.09666 0.20609 0.0
H75 H 0.6914 0.38189 0.62743 0.0
H76 H 0.59177 0.9757 0.43191 0.0
H77 H 0.59049 0.92466 0.36889 0.0
H78 H 0.41274 0.88819 0.33983 0.0
H79 H 0.41347 0.93728 0.40367 0.0
H80 H 0.6272 0.08912 0.38508 0.0
H81 H 0.6321 0.09772 0.30942 0.0
H82 H 0.45067 0.06256 0.30761 0.0
H83 H 0.44638 0.05374 0.38329 0.0
H84 H 0.6676 0.20228 0.44892 0.0
H85 H 0.70047 0.30135 0.42513 0.0
H86 H 0.51447 0.24799 0.4089 0.0
H87 H 0.48158 0.14902 0.43378 0.0
H88 H 0.67289 0.15921 0.52658 0.0
H89 H 0.73013 0.2462 0.57001 0.0
H90 H 0.57074 0.25395 0.58409 0.0
H91 H 0.51357 0.16609 0.54064 0.0
H92 H 0.62344 0.04797 0.56071 0.0
H93 H 0.66336 0.0962 0.62758 0.0
H94 H 0.49771 0.08927 0.65071 0.0
H95 H 0.45939 0.04387 0.58301 0.0
H96 H 0.52979 0.90797 0.49239 0.0
H97 H 0.46029 0.80471 0.51108 0.0
H98 H 0.3335 0.84558 0.55854 0.0
H99 H 0.40157 0.9481 0.53772 0.0
O100 O 0.59362 0.09428 0.23602 0.0
O101 O 0.50125 0.07847 0.23687 0.0
O102 O 0.74155 0.32772 0.61674 0.0
O103 O 0.66756 0.34456 0.61346 0.0
C104 C 0.51219 0.0058 0.45184 0.0
C105 C 0.53242 0.06192 0.43504 0.0
C106 C 0.5522 0.11022 0.46132 0.0
C107 C 0.55553 0.10326 0.50426 0.0
C108 C 0.53159 0.04654 0.52154 0.0
C109 C 0.50717 -0.00319 0.49538 0.0
C110 C 0.50225 0.95928 0.42269 0.0
C111 C 0.55136 0.95411 0.41296 0.0
C112 C 0.55103 0.92586 0.37667 0.0
C113 C 0.50219 0.90381 0.34917 0.0
C114 C 0.45145 0.90575 0.36026 0.0
C115 C 0.45124 0.93279 0.39701 0.0
C116 C 0.53646 0.07082 0.38947 0.0
C117 C 0.58878 0.08371 0.36823 0.0
C118 C 0.59135 0.08842 0.32505 0.0
C119 C 0.54169 0.08063 0.30244 0.0
C120 C 0.48968 0.06873 0.32405 0.0
C121 C 0.48715 0.06388 0.36723 0.0
C122 C 0.57224 0.1688 0.44371 0.0
C123 C 0.63394 0.21193 0.44027 0.0
C124 C 0.65257 0.26827 0.42667 0.0
C125 C 0.60984 0.28212 0.41576 0.0
C126 C 0.54814 0.2382 0.4172 0.0
C127 C 0.52943 0.18195 0.43147 0.0
C128 C 0.5891 0.15627 0.53076 0.0
C129 C 0.6503 0.17955 0.53928 0.0
C130 C 0.68284 0.22913 0.56416 0.0
C131 C 0.65495 0.25694 0.58049 0.0
C132 C 0.59349 0.23353 0.57186 0.0
C133 C 0.56079 0.18352 0.54708 0.0
C134 C 0.53862 0.0427 0.56681 0.0
C135 C 0.59431 0.05368 0.58121 0.0
C136 C 0.61758 0.08226 0.61908 0.0
C137 C 0.58419 0.09778 0.64362 0.0
C138 C 0.52456 0.07819 0.63215 0.0
C139 C 0.50207 0.05123 0.59374 0.0
C140 C 0.47068 0.93602 0.51282 0.0
C141 C 0.48697 0.89483 0.50653 0.0
C142 C 0.44727 0.83576 0.51745 0.0
C143 C 0.39103 0.81683 0.53579 0.0
C144 C 0.37635 0.85868 0.54431 0.0
C145 C 0.41549 0.91746 0.53263 0.0
C146 C 0.54409 0.08443 0.2565 0.0
C147 C 0.69061 0.31156 0.60491 0.0
H148 H 0.47504 0.39114 0.90549 0.0
H149 H 0.70392 0.3356 0.49801 0.0
H150 H 0.559 0.57535 0.69638 0.0
H151 H 0.55509 0.61138 0.76487 0.0
H152 H 0.36105 0.49317 0.76599 0.0
H153 H 0.36548 0.45599 0.69748 0.0
H154 H 0.56486 0.47868 0.73846 0.0
H155 H 0.54518 0.45132 0.81168 0.0
H156 H 0.35623 0.32962 0.78357 0.0
H157 H 0.37682 0.35682 0.71024 0.0
H158 H 0.62757 0.46183 0.67491 0.0
H159 H 0.66935 0.40576 0.70075 0.0
H160 H 0.49348 0.24592 0.69075 0.0
H161 H 0.45186 0.30257 0.66402 0.0
H162 H 0.6487 0.5143 0.60009 0.0
H163 H 0.71896 0.49777 0.56252 0.0
H164 H 0.57031 0.32606 0.52625 0.0
H165 H 0.50001 0.34358 0.56376 0.0
H166 H 0.60636 0.57474 0.56164 0.0
H167 H 0.65799 0.57243 0.49917 0.0
H168 H 0.4946 0.41276 0.46113 0.0
H169 H 0.44455 0.41412 0.52413 0.0
H170 H 0.50479 0.60656 0.63516 0.0
H171 H 0.44498 0.6486 0.61753 0.0
H172 H 0.3275 0.49737 0.54217 0.0
H173 H 0.38529 0.45381 0.56185 0.0
O174 O 0.48205 0.40009 0.87618 0.0
O175 O 0.3857 0.33678 0.85997 0.0
O176 O 0.74577 0.43925 0.51523 0.0
O177 O 0.67546 0.34437 0.50919 0.0
C178 C 0.46982 0.479 0.66008 0.0
C179 C 0.48371 0.43836 0.67496 0.0
C180 C 0.51364 0.42033 0.64924 0.0
C181 C 0.52787 0.44115 0.6083 0.0
C182 C 0.50709 0.47595 0.59167 0.0
C183 C 0.4771 0.49479 0.61755 0.0
C184 C 0.46239 0.51372 0.69182 0.0
C185 C 0.51537 0.55885 0.7107 0.0
C186 C 0.51332 0.57831 0.75015 0.0
C187 C 0.45805 0.55382 0.77083 0.0
C188 C 0.40432 0.51202 0.75061 0.0
C189 C 0.40651 0.49173 0.71126 0.0
C190 C 0.47229 0.41945 0.71911 0.0
C191 C 0.51941 0.4456 0.74813 0.0
C192 C 0.50794 0.43021 0.78998 0.0
C193 C 0.44906 0.38853 0.80355 0.0
C194 C 0.40208 0.36192 0.77419 0.0
C195 C 0.41369 0.37723 0.7323 0.0
C196 C 0.53716 0.38592 0.66682 0.0
C197 C 0.59814 0.4147 0.6781 0.0
C198 C 0.62178 0.38278 0.69295 0.0
C199 C 0.58459 0.32171 0.69713 0.0
C200 C 0.52285 0.29307 0.6876 0.0
C201 C 0.49924 0.32511 0.67224 0.0
C202 C 0.56927 0.43049 0.5841 0.0
C203 C 0.63127 0.47341 0.5836 0.0
C204 C 0.67128 0.46389 0.5621 0.0
C205 C 0.65015 0.41067 0.54134 0.0
C206 C 0.5879 0.36753 0.54197 0.0
C207 C 0.54772 0.37737 0.56328 0.0
C208 C 0.52189 0.49413 0.54778 0.0
C209 C 0.58062 0.54126 0.53858 0.0
C210 C 0.61058 0.53914 0.50336 0.0
C211 C 0.58104 0.49107 0.47633 0.0
C212 C 0.51901 0.44966 0.48197 0.0
C213 C 0.48966 0.45111 0.51756 0.0
C214 C 0.44914 0.52634 0.60049 0.0
C215 C 0.46617 0.58225 0.61491 0.0
C216 C 0.43202 0.60642 0.60469 0.0
C217 C 0.38105 0.57598 0.57887 0.0
C218 C 0.36644 0.52188 0.56219 0.0
C219 C 0.39978 0.49711 0.5732 0.0
C220 C 0.4368 0.37336 0.8482 0.0
C221 C 0.69335 0.39928 0.52085 0.0
H222 H 0.0022 0.42601 0.09736 0.0
H223 H 0.42431 0.62394 0.69865 0.0
H224 H 0.95129 0.49921 0.86275 0.0
H225 H 0.8931 0.47673 0.92666 0.0
H226 H 0.88368 0.31297 0.93665 0.0
H227 H 0.93746 0.33326 0.87056 0.0
H228 H 0.04727 0.52214 0.92903 0.0
H229 H 0.03039 0.49779 0.00298 0.0
H230 H 0.0384 0.34455 0.98035 0.0
H231 H 0.05454 0.36907 0.90652 0.0
H232 H 0.17759 0.57422 0.90512 0.0
H233 H 0.27471 0.6041 0.93676 0.0
H234 H 0.26246 0.45032 0.88546 0.0
H235 H 0.16593 0.42146 0.85366 0.0
H236 H 0.21672 0.61483 0.82286 0.0
H237 H 0.32006 0.66753 0.79592 0.0
H238 H 0.27875 0.5135 0.72671 0.0
H239 H 0.17607 0.46057 0.75509 0.0
H240 H 0.119 0.59888 0.75596 0.0
H241 H 0.1724 0.64347 0.691 0.0
H242 H 0.12154 0.47253 0.64599 0.0
H243 H 0.06961 0.42859 0.71143 0.0
H244 H 0.93714 0.49098 0.78676 0.0
H245 H 0.83448 0.429 0.75924 0.0
H246 H 0.87458 0.30007 0.72205 0.0
H247 H 0.97597 0.36105 0.75111 0.0
O248 O 0.00967 0.43536 0.06818 0.0
O249 O 0.02115 0.36112 0.0556 0.0
O250 O 0.40823 0.67473 0.75582 0.0
O251 O 0.38393 0.60391 0.7101 0.0
C252 C 0.00893 0.44495 0.84158 0.0
C253 C 0.05894 0.46022 0.86718 0.0
C254 C 0.11643 0.48651 0.84978 0.0
C255 C 0.12613 0.50218 0.80758 0.0
C256 C 0.07657 0.4882 0.78172 0.0
C257 C 0.01732 0.45715 0.79843 0.0
C258 C 0.94928 0.4182 0.86214 0.0
C259 C 0.93261 0.4564 0.87676 0.0
C260 C 0.90077 0.44422 0.91392 0.0
C261 C 0.88678 0.39453 0.9371 0.0
C262 C 0.89572 0.35237 0.91961 0.0
C263 C 0.92507 0.36331 0.88141 0.0
C264 C 0.0513 0.44693 0.91243 0.0
C265 C 0.04537 0.48338 0.94017 0.0
C266 C 0.03582 0.4694 0.98236 0.0
C267 C 0.03272 0.41904 -0.00246 0.0
C268 C 0.04033 0.38353 0.96969 0.0
C269 C 0.04965 0.39744 0.92754 0.0
C270 C 0.16696 0.49728 0.87599 0.0
C271 C 0.1953 0.5463 0.90193 0.0
C272 C 0.25005 0.56273 0.92034 0.0
C273 C 0.27642 0.53022 0.91248 0.0
C274 C 0.24323 0.47638 0.89164 0.0
C275 C 0.18878 0.46032 0.87291 0.0
C276 C 0.18879 0.534 0.79074 0.0
C277 C 0.23018 0.59242 0.80209 0.0
C278 C 0.28913 0.62244 0.7866 0.0
C279 C 0.3075 0.59479 0.75896 0.0
C280 C 0.2659 0.53617 0.7477 0.0
C281 C 0.2072 0.5059 0.76375 0.0
C282 C 0.0894 0.51023 0.73833 0.0
C283 C 0.1173 0.57075 0.73142 0.0
C284 C 0.14861 0.59631 0.69453 0.0
C285 C 0.152 0.56166 0.66366 0.0
C286 C 0.11996 0.50046 0.66928 0.0
C287 C 0.08921 0.475 0.70642 0.0
C288 C 0.96378 0.43031 0.77115 0.0
C289 C 0.92424 0.45014 0.77164 0.0
C290 C 0.86571 0.4147 0.75592 0.0
C291 C 0.84647 0.35942 0.73903 0.0
C292 C 0.88822 0.34247 0.73483 0.0
C293 C 0.94631 0.37745 0.75119 0.0
C294 C 0.02096 0.40331 0.04214 0.0
C295 C 0.36964 0.627 0.7417 0.0
H296 H 0.53366 0.9914 0.68897 0.0
H297 H 0.47663 0.65744 0.09296 0.0
H298 H 0.55681 0.09802 0.92834 0.0
H299 H 0.57281 0.16027 0.8684 0.0
H300 H 0.74682 0.18299 0.84797 0.0
H301 H 0.73123 0.12219 0.90865 0.0
H302 H 0.50936 0.99192 0.86896 0.0
H303 H 0.50572 -0.00307 0.7933 0.0
H304 H 0.68345 0.02383 0.78559 0.0
H305 H 0.68613 0.01805 0.86131 0.0
H306 H 0.46726 0.87302 0.89807 0.0
H307 H 0.43256 0.78005 0.86294 0.0
H308 H 0.613 0.81322 0.87166 0.0
H309 H 0.64662 0.90539 0.9072 0.0
H310 H 0.45469 0.85229 0.9809 0.0
H311 H 0.40671 0.75533 0.01313 0.0
H312 H 0.5826 0.79107 0.04792 0.0
H313 H 0.63014 0.88736 0.01441 0.0
H314 H 0.50158 0.9675 0.04736 0.0
H315 H 0.47897 0.93717 0.11985 0.0
H316 H 0.65213 0.95494 0.13225 0.0
H317 H 0.67443 0.98565 0.05939 0.0
H318 H 0.5783 0.10756 0.0118 0.0
H319 H 0.63664 0.20339 0.04568 0.0
H320 H 0.79161 0.18683 0.05138 0.0
H321 H 0.73291 0.09144 0.01744 0.0
O322 O 0.53778 -0.00596 0.71879 0.0
O323 O 0.63533 0.02523 0.71647 0.0
O324 O 0.40778 0.67184 0.04997 0.0
O325 O 0.49481 0.69483 0.07885 0.0
C326 C 0.62101 0.04816 0.94209 0.0
C327 C 0.59866 -0.00106 0.91619 0.0
C328 C 0.5767 0.94367 0.93371 0.0
C329 C 0.57419 0.93632 0.97707 0.0
C330 C 0.59686 0.98573 0.00294 0.0
C331 C 0.62152 0.04167 0.98535 0.0
C332 C 0.6427 0.10538 0.92245 0.0
C333 C 0.6 0.11959 0.91255 0.0
C334 C 0.6088 0.15437 0.87796 0.0
C335 C 0.66001 0.17436 0.85301 0.0
C336 C 0.70635 0.16684 0.8664 0.0
C337 C 0.69804 0.13308 0.90142 0.0
C338 C 0.59804 0.00482 0.87043 0.0
C339 C 0.54752 -0.00084 0.85082 0.0
C340 C 0.54556 0.00195 0.80766 0.0
C341 C 0.59422 0.0106 0.78343 0.0
C342 C 0.64528 0.01722 0.80335 0.0
C343 C 0.64693 0.01391 0.84652 0.0
C344 C 0.55847 0.89377 0.90639 0.0
C345 C 0.49928 0.86047 0.89143 0.0
C346 C 0.47995 0.80812 0.8709 0.0
C347 C 0.51987 0.78906 0.86559 0.0
C348 C 0.58119 0.82668 0.87574 0.0
C349 C 0.60027 0.8787 0.89657 0.0
C350 C 0.54581 0.87677 0.99537 0.0
C351 C 0.4828 0.83881 0.99506 0.0
C352 C 0.45553 0.78354 0.01359 0.0
C353 C 0.49085 0.76559 0.03326 0.0
C354 C 0.55411 0.80365 0.03319 0.0
C355 C 0.58137 0.85865 0.01413 0.0
C356 C 0.58917 0.97792 0.04829 0.0
C357 C 0.5352 0.96626 0.06608 0.0
C358 C 0.52249 0.94908 0.10743 0.0
C359 C 0.56363 0.94325 0.13151 0.0
C360 C 0.61976 0.95931 0.11442 0.0
C361 C 0.63243 0.97652 0.07289 0.0
C362 C 0.65211 0.09375 0.01177 0.0
C363 C 0.62441 0.12433 0.0213 0.0
C364 C 0.65761 0.17862 0.04083 0.0
C365 C 0.71876 0.20259 0.0506 0.0
C366 C 0.74463 0.16938 0.04401 0.0
C367 C 0.7114 0.1152 0.02454 0.0
C368 C 0.59074 0.01084 0.73756 0.0
C369 C 0.46183 0.70782 0.05434 0.0
H370 H 0.56833 0.53831 0.85592 0.0
H371 H 0.83769 0.4497 0.25854 0.0
H372 H 0.50508 0.54235 0.08375 0.0
H373 H 0.45976 0.54149 0.01749 0.0
H374 H 0.60521 0.72049 0.99554 0.0
H375 H 0.65168 0.72045 0.0616 0.0
H376 H 0.56966 0.50182 0.03441 0.0
H377 H 0.55761 0.49839 0.95906 0.0
H378 H 0.71248 0.67613 0.95033 0.0
H379 H 0.72389 0.6789 0.02582 0.0
H380 H 0.61456 0.45638 0.08672 0.0
H381 H 0.65777 0.39903 0.06763 0.0
H382 H 0.83418 0.55918 0.05747 0.0
H383 H 0.79029 0.61592 0.07694 0.0
H384 H 0.61053 0.45931 0.1756 0.0
H385 H 0.64649 0.40595 0.21421 0.0
H386 H 0.82843 0.55899 0.20985 0.0
H387 H 0.79145 0.61225 0.1718 0.0
H388 H 0.55126 0.51319 0.20959 0.0
H389 H 0.5563 0.47061 0.27523 0.0
H390 H 0.73758 0.61959 0.29457 0.0
H391 H 0.73288 0.66084 0.22822 0.0
H392 H 0.50601 0.5942 0.15228 0.0
H393 H 0.47132 0.65516 0.18005 0.0
H394 H 0.65359 0.78481 0.21825 0.0
H395 H 0.68847 0.72439 0.1889 0.0
O396 O 0.57593 0.53935 0.88535 0.0
O397 O 0.65913 0.62866 0.88193 0.0
O398 O 0.72706 0.39576 0.2502 0.0
O399 O 0.82219 0.47094 0.24502 0.0
C400 C 0.62097 0.61954 0.10239 0.0
C401 C 0.6497 0.59518 0.0815 0.0
C402 C 0.6766 0.57135 0.1044 0.0
C403 C 0.67572 0.57164 0.1479 0.0
C404 C 0.64908 0.59794 0.16887 0.0
C405 C 0.62267 0.62312 0.14613 0.0
C406 C 0.58175 0.63139 0.0773 0.0
C407 C 0.52555 0.58244 0.06572 0.0
C408 C 0.50067 0.58136 0.02739 0.0
C409 C 0.53074 0.62999 0.001 0.0
C410 C 0.58228 0.68198 0.01519 0.0
C411 C 0.60799 0.6826 0.05328 0.0
C412 C 0.64746 0.5907 0.03548 0.0
C413 C 0.60154 0.53958 0.01607 0.0
C414 C 0.59453 0.5379 0.97306 0.0
C415 C 0.63374 0.58719 0.9487 0.0
C416 C 0.68134 0.6375 0.9682 0.0
C417 C 0.68816 0.63915 0.01125 0.0
C418 C 0.6998 0.53973 0.08328 0.0
C419 C 0.66216 0.47888 0.07905 0.0
C420 C 0.68686 0.4464 0.06845 0.0
C421 C 0.74927 0.47486 0.06195 0.0
C422 C 0.78591 0.53637 0.06269 0.0
C423 C 0.76114 0.56879 0.07354 0.0
C424 C 0.69832 0.53975 0.17138 0.0
C425 C 0.65805 0.48134 0.18331 0.0
C426 C 0.67873 0.45096 0.20527 0.0
C427 C 0.74033 0.47828 0.21521 0.0
C428 C 0.78069 0.53675 0.2028 0.0
C429 C 0.75978 0.56726 0.18108 0.0
C430 C 0.64178 0.58996 0.2142 0.0
C431 C 0.59082 0.53811 0.22905 0.0
C432 C 0.59424 0.51322 0.26605 0.0
C433 C 0.64801 0.54103 0.28906 0.0
C434 C 0.69589 0.59695 0.27699 0.0
C435 C 0.69292 0.62118 0.23953 0.0
C436 C 0.59989 0.65555 0.16773 0.0
C437 C 0.53845 0.63574 0.16654 0.0
C438 C 0.51876 0.67047 0.18257 0.0
C439 C 0.56007 0.72494 0.20077 0.0
C440 C 0.62099 0.74306 0.20427 0.0
C441 C 0.64084 0.70866 0.18758 0.0
C442 C 0.62404 0.58646 0.90331 0.0
C443 C 0.76253 0.44573 0.23796 0.0
In444 In 0.67187 0.45554 0.38684 0.0
O445 O 0.77384 0.50817 0.4001 0.0
O446 O 0.74019 0.44687 0.35005 0.0
C447 C 0.61477 0.48046 0.44469 0.0
C448 C 0.65601 0.51025 0.32358 0.0
C449 C 0.63012 0.34307 0.40535 0.0
O450 O 0.67176 0.50548 0.4446 0.0
O451 O 0.58777 0.44218 0.41702 0.0
O452 O 0.6081 0.35671 0.37582 0.0
O453 O 0.67173 0.38575 0.4255 0.0
C454 C 0.78537 0.48388 0.37117 0.0
O455 O 0.62541 0.45497 0.32703 0.0
O456 O 0.69588 0.53726 0.35097 0.0
In457 In 0.26561 0.63761 0.56005 0.0
O458 O 0.30517 0.58277 0.54114 0.0
O459 O 0.34007 0.6349 0.59539 0.0
C460 C 0.18251 0.60661 0.49839 0.0
C461 C 0.19145 0.58918 0.62695 0.0
C462 C 0.34719 0.75365 0.5448 0.0
O463 O 0.20925 0.58007 0.50495 0.0
O464 O 0.19925 0.65 0.52174 0.0
O465 O 0.3053 0.7359 0.57119 0.0
O466 O 0.34778 0.71308 0.52592 0.0
C467 C 0.34165 0.59906 0.57122 0.0
O468 O 0.22821 0.64379 0.62318 0.0
O469 O 0.19281 0.55947 0.59752 0.0
In470 In 0.66405 0.23078 0.7324 0.0
O471 O 0.76204 0.26774 0.71417 0.0
O472 O 0.74159 0.32195 0.74902 0.0
C473 C 0.61368 0.14097 0.6773 0.0
C474 C 0.66158 0.19539 0.81082 0.0
C475 C 0.61148 0.28851 0.70958 0.0
O476 O 0.6688 0.18148 0.67621 0.0
O477 O 0.58437 0.14518 0.70641 0.0
O478 O 0.58368 0.24202 0.73072 0.0
O479 O 0.66484 0.3051 0.69988 0.0
C480 C 0.78162 0.31629 0.73221 0.0
O481 O 0.63128 0.21668 0.79966 0.0
O482 O 0.69042 0.18948 0.78223 0.0
In483 In 0.45477 0.6179 0.88633 0.0
O484 O 0.36839 0.53426 0.90357 0.0
O485 O 0.37418 0.61563 0.91102 0.0
C486 C 0.50843 0.62607 0.95881 0.0
C487 C 0.45642 0.57303 0.81294 0.0
C488 C 0.49524 0.72631 0.86228 0.0
O489 O 0.48 0.57852 0.93883 0.0
O490 O 0.51375 0.66975 0.94078 0.0
O491 O 0.52926 0.70657 0.86445 0.0
O492 O 0.44001 0.68959 0.86964 0.0
C493 C 0.34206 0.56038 0.91311 0.0
O494 O 0.41124 0.57275 0.82607 0.0
O495 O 0.50066 0.59365 0.83771 0.0
In496 In 0.8295 0.38074 0.05921 0.0
O497 O 0.84275 0.3724 0.12841 0.0
O498 O 0.90889 0.45067 0.09799 0.0
C499 C 0.7578 0.26508 0.06021 0.0
C500 C 0.77697 0.44064 0.05892 0.0
C501 C 0.86736 0.38948 0.98035 0.0
O502 O 0.81477 0.29094 0.06002 0.0
O503 O 0.73736 0.29802 0.06198 0.0
O504 O 0.82861 0.40067 0.99091 0.0
O505 O 0.89006 0.37666 0.00984 0.0
C506 C 0.88949 0.42291 0.13167 0.0
O507 O 0.83302 0.46472 0.05307 0.0
O508 O 0.74736 0.38586 0.06514 0.0
In509 In 0.49942 0.83297 0.23382 0.0
O510 O 0.56827 0.80583 0.23853 0.0
O511 O 0.492 0.75742 0.19884 0.0
C512 C 0.50455 0.88132 0.30816 0.0
C513 C 0.54351 0.91144 0.17118 0.0
C514 C 0.38307 0.74866 0.23595 0.0
O515 O 0.53933 0.86405 0.29929 0.0
O516 O 0.4708 0.87744 0.27907 0.0
O517 O 0.40313 0.79343 0.2132 0.0
O518 O 0.42199 0.74618 0.25739 0.0
C519 C 0.53961 0.76363 0.21347 0.0
O520 O 0.48842 0.88078 0.18048 0.0
O521 O 0.5777 0.90501 0.19496 0.0
loop_
_geom_bond_atom_site_label_1
_geom_bond_atom_site_label_2
_geom_bond_distance
_geom_bond_site_symmetry_2
_ccdc_geom_bond_type
H0 O26 0.856 . S
H1 O29 0.854 . S
H2 C37 0.930 1_455 S
H3 C38 0.930 . S
H4 C40 0.930 . S
H5 C41 0.930 . S
H6 C43 0.931 . S
H7 C44 0.930 . S
H8 C46 0.930 . S
H9 C47 0.929 . S
H10 C49 0.930 . S
H11 C50 0.931 . S
H12 C52 0.930 . S
H13 C53 0.929 . S
H14 C55 0.931 . S
H15 C56 0.930 . S
H16 C58 0.930 . S
H17 C59 0.932 . S
H18 C61 0.930 . S
H19 C62 0.929 . S
H20 C64 0.931 . S
H21 C65 0.930 . S
H22 C67 0.929 . S
H23 C68 0.931 . S
H24 C70 0.930 . S
H25 C71 0.931 . S
O26 H0 0.856 . S
O26 C72 1.300 . S
O27 C72 1.209 . S
O28 C73 1.199 . S
O29 H1 0.854 . S
O29 C73 1.297 . S
C30 C31 1.404 . S
C30 C35 1.397 . S
C30 C36 1.492 . S
C31 C30 1.404 . S
C31 C32 1.396 . S
C31 C42 1.492 . S
C32 C31 1.396 . S
C32 C33 1.397 . S
C32 C48 1.509 . S
C33 C32 1.397 . S
C33 C34 1.412 . S
C33 C54 1.485 . S
C34 C33 1.412 . S
C34 C35 1.388 . S
C34 C60 1.490 . S
C35 C30 1.397 . S
C35 C34 1.388 . S
C35 C66 1.519 1_455 S
C36 C30 1.492 . S
C36 C37 1.363 1_455 S
C36 C41 1.390 1_455 S
C37 H2 0.930 1_655 S
C37 C36 1.363 1_655 S
C37 C38 1.372 . S
C38 H3 0.930 . S
C38 C37 1.372 . S
C38 C39 1.383 . S
C39 C38 1.383 . S
C39 C40 1.395 . S
C40 H4 0.930 . S
C40 C39 1.395 . S
C40 C41 1.362 . S
C41 H5 0.930 . S
C41 C36 1.390 1_655 S
C41 C40 1.362 . S
C42 C31 1.492 . S
C42 C43 1.377 . S
C42 C47 1.397 . S
C43 H6 0.931 . S
C43 C42 1.377 . S
C43 C44 1.376 . S
C44 H7 0.930 . S
C44 C43 1.376 . S
C44 C45 1.376 . S
C45 C44 1.376 . S
C45 C46 1.378 . S
C45 C72 1.486 . S
C46 H8 0.930 . S
C46 C45 1.378 . S
C46 C47 1.376 . S
C47 H9 0.929 . S
C47 C42 1.397 . S
C47 C46 1.376 . S
C48 C32 1.509 . S
C48 C49 1.391 . S
C48 C53 1.386 . S
C49 H10 0.930 . S
C49 C48 1.391 . S
C49 C50 1.375 . S
C50 H11 0.931 . S
C50 C49 1.375 . S
C50 C51 1.375 . S
C51 C50 1.375 . S
C51 C52 1.361 . S
C52 H12 0.930 . S
C52 C51 1.361 . S
C52 C53 1.399 . S
C53 H13 0.929 . S
C53 C48 1.386 . S
C53 C52 1.399 . S
C54 C33 1.485 . S
C54 C55 1.394 . S
C54 C59 1.360 . S
C55 H14 0.931 . S
C55 C54 1.394 . S
C55 C56 1.372 . S
C56 H15 0.930 . S
C56 C55 1.372 . S
C56 C57 1.397 . S
C57 C56 1.397 . S
C57 C58 1.390 . S
C57 C73 1.476 . S
C58 H16 0.930 . S
C58 C57 1.390 . S
C58 C59 1.366 . S
C59 H17 0.932 . S
C59 C54 1.360 . S
C59 C58 1.366 . S
C60 C34 1.490 . S
C60 C61 1.380 . S
C60 C65 1.386 . S
C61 H18 0.930 . S
C61 C60 1.380 . S
C61 C62 1.381 . S
C62 H19 0.929 . S
C62 C61 1.381 . S
C62 C63 1.371 . S
C63 C62 1.371 . S
C63 C64 1.380 . S
C64 H20 0.931 . S
C64 C63 1.380 . S
C64 C65 1.387 . S
C65 H21 0.930 . S
C65 C60 1.386 . S
C65 C64 1.387 . S
C66 C35 1.519 1_655 S
C66 C67 1.377 . S
C66 C71 1.361 . S
C67 H22 0.929 . S
C67 C66 1.377 . S
C67 C68 1.386 . S
C68 H23 0.931 . S
C68 C67 1.386 . S
C68 C69 1.363 . S
C69 C68 1.363 . S
C69 C70 1.385 . S
C70 H24 0.930 . S
C70 C69 1.385 . S
C70 C71 1.396 . S
C71 H25 0.931 . S
C71 C66 1.361 . S
C71 C70 1.396 . S
C72 O26 1.300 . S
C72 O27 1.209 . S
C72 C45 1.486 . S
C73 O28 1.199 . S
C73 O29 1.297 . S
C73 C57 1.476 . S
H74 O100 0.856 . S
H75 O103 0.854 . S
H76 C111 0.930 1_545 S
H77 C112 0.930 . S
H78 C114 0.930 . S
H79 C115 0.930 . S
H80 C117 0.931 . S
H81 C118 0.930 . S
H82 C120 0.930 . S
H83 C121 0.929 . S
H84 C123 0.930 . S
H85 C124 0.931 . S
H86 C126 0.930 . S
H87 C127 0.929 . S
H88 C129 0.931 . S
H89 C130 0.930 . S
H90 C132 0.930 . S
H91 C133 0.932 . S
H92 C135 0.930 . S
H93 C136 0.929 . S
H94 C138 0.931 . S
H95 C139 0.930 . S
H96 C141 0.929 . S
H97 C142 0.931 . S
H98 C144 0.930 . S
H99 C145 0.929 . S
O100 H74 0.856 . S
O100 C146 1.300 . S
O101 C146 1.209 . S
O102 C147 1.199 . S
O103 H75 0.854 . S
O103 C147 1.297 . S
C104 C105 1.404 . S
C104 C109 1.397 . S
C104 C110 1.492 1_545 S
C105 C104 1.404 . S
C105 C106 1.396 . S
C105 C116 1.492 . S
C106 C105 1.396 . S
C106 C107 1.397 . S
C106 C122 1.509 . S
C107 C106 1.397 . S
C107 C108 1.412 . S
C107 C128 1.485 . S
C108 C107 1.412 . S
C108 C109 1.388 . S
C108 C134 1.490 . S
C109 C104 1.397 . S
C109 C108 1.388 . S
C109 C140 1.519 1_545 S
C110 C104 1.492 1_565 S
C110 C111 1.363 . S
C110 C115 1.390 . S
C111 H76 0.930 1_565 S
C111 C110 1.363 . S
C111 C112 1.372 . S
C112 H77 0.930 . S
C112 C111 1.372 . S
C112 C113 1.383 . S
C113 C112 1.383 . S
C113 C114 1.395 . S
C114 H78 0.930 . S
C114 C113 1.395 . S
C114 C115 1.362 . S
C115 H79 0.930 . S
C115 C110 1.390 . S
C115 C114 1.362 . S
C116 C105 1.492 . S
C116 C117 1.377 . S
C116 C121 1.397 . S
C117 H80 0.931 . S
C117 C116 1.377 . S
C117 C118 1.376 . S
C118 H81 0.930 . S
C118 C117 1.376 . S
C118 C119 1.376 . S
C119 C118 1.376 . S
C119 C120 1.378 . S
C119 C146 1.486 . S
C120 H82 0.930 . S
C120 C119 1.378 . S
C120 C121 1.376 . S
C121 H83 0.929 . S
C121 C116 1.397 . S
C121 C120 1.376 . S
C122 C106 1.509 . S
C122 C123 1.391 . S
C122 C127 1.386 . S
C123 H84 0.930 . S
C123 C122 1.391 . S
C123 C124 1.375 . S
C124 H85 0.931 . S
C124 C123 1.375 . S
C124 C125 1.375 . S
C125 C124 1.375 . S
C125 C126 1.361 . S
C126 H86 0.930 . S
C126 C125 1.361 . S
C126 C127 1.399 . S
C127 H87 0.929 . S
C127 C122 1.386 . S
C127 C126 1.399 . S
C128 C107 1.485 . S
C128 C129 1.394 . S
C128 C133 1.360 . S
C129 H88 0.931 . S
C129 C128 1.394 . S
C129 C130 1.372 . S
C130 H89 0.930 . S
C130 C129 1.372 . S
C130 C131 1.397 . S
C131 C130 1.397 . S
C131 C132 1.390 . S
C131 C147 1.476 . S
C132 H90 0.930 . S
C132 C131 1.390 . S
C132 C133 1.366 . S
C133 H91 0.932 . S
C133 C128 1.360 . S
C133 C132 1.366 . S
C134 C108 1.490 . S
C134 C135 1.380 . S
C134 C139 1.386 . S
C135 H92 0.930 . S
C135 C134 1.380 . S
C135 C136 1.381 . S
C136 H93 0.929 . S
C136 C135 1.381 . S
C136 C137 1.371 . S
C137 C136 1.371 . S
C137 C138 1.380 . S
C138 H94 0.931 . S
C138 C137 1.380 . S
C138 C139 1.387 . S
C139 H95 0.930 . S
C139 C134 1.386 . S
C139 C138 1.387 . S
C140 C109 1.519 1_565 S
C140 C141 1.377 . S
C140 C145 1.361 . S
C141 H96 0.929 . S
C141 C140 1.377 . S
C141 C142 1.386 . S
C142 H97 0.931 . S
C142 C141 1.386 . S
C142 C143 1.363 . S
C143 C142 1.363 . S
C143 C144 1.385 . S
C144 H98 0.930 . S
C144 C143 1.385 . S
C144 C145 1.396 . S
C145 H99 0.929 . S
C145 C140 1.361 . S
C145 C144 1.396 . S
C146 O100 1.300 . S
C146 O101 1.209 . S
C146 C119 1.486 . S
C147 O102 1.199 . S
C147 O103 1.297 . S
C147 C131 1.476 . S
H148 O174 0.856 . S
H149 O177 0.854 . S
H150 C185 0.930 . S
H151 C186 0.930 . S
H152 C188 0.930 . S
H153 C189 0.930 . S
H154 C191 0.931 . S
H155 C192 0.930 . S
H156 C194 0.930 . S
H157 C195 0.929 . S
H158 C197 0.930 . S
H159 C198 0.931 . S
H160 C200 0.930 . S
H161 C201 0.929 . S
H162 C203 0.931 . S
H163 C204 0.930 . S
H164 C206 0.930 . S
H165 C207 0.932 . S
H166 C209 0.930 . S
H167 C210 0.929 . S
H168 C212 0.931 . S
H169 C213 0.930 . S
H170 C215 0.929 . S
H171 C216 0.931 . S
H172 C218 0.930 . S
H173 C219 0.929 . S
O174 H148 0.856 . S
O174 C220 1.300 . S
O175 C220 1.209 . S
O176 C221 1.199 . S
O177 H149 0.854 . S
O177 C221 1.297 . S
C178 C179 1.404 . S
C178 C183 1.397 . S
C178 C184 1.492 . S
C179 C178 1.404 . S
C179 C180 1.396 . S
C179 C190 1.492 . S
C180 C179 1.396 . S
C180 C181 1.397 . S
C180 C196 1.509 . S
C181 C180 1.397 . S
C181 C182 1.412 . S
C181 C202 1.485 . S
C182 C181 1.412 . S
C182 C183 1.388 . S
C182 C208 1.490 . S
C183 C178 1.397 . S
C183 C182 1.388 . S
C183 C214 1.519 . S
C184 C178 1.492 . S
C184 C185 1.363 . S
C184 C189 1.390 . S
C185 H150 0.930 . S
C185 C184 1.363 . S
C185 C186 1.372 . S
C186 H151 0.930 . S
C186 C185 1.372 . S
C186 C187 1.383 . S
C187 C186 1.383 . S
C187 C188 1.395 . S
C188 H152 0.930 . S
C188 C187 1.395 . S
C188 C189 1.362 . S
C189 H153 0.930 . S
C189 C184 1.390 . S
C189 C188 1.362 . S
C190 C179 1.492 . S
C190 C191 1.377 . S
C190 C195 1.397 . S
C191 H154 0.931 . S
C191 C190 1.377 . S
C191 C192 1.376 . S
C192 H155 0.930 . S
C192 C191 1.376 . S
C192 C193 1.376 . S
C193 C192 1.376 . S
C193 C194 1.378 . S
C193 C220 1.486 . S
C194 H156 0.930 . S
C194 C193 1.378 . S
C194 C195 1.376 . S
C195 H157 0.929 . S
C195 C190 1.397 . S
C195 C194 1.376 . S
C196 C180 1.509 . S
C196 C197 1.391 . S
C196 C201 1.386 . S
C197 H158 0.930 . S
C197 C196 1.391 . S
C197 C198 1.375 . S
C198 H159 0.931 . S
C198 C197 1.375 . S
C198 C199 1.375 . S
C199 C198 1.375 . S
C199 C200 1.361 . S
C200 H160 0.930 . S
C200 C199 1.361 . S
C200 C201 1.399 . S
C201 H161 0.929 . S
C201 C196 1.386 . S
C201 C200 1.399 . S
C202 C181 1.485 . S
C202 C203 1.394 . S
C202 C207 1.360 . S
C203 H162 0.931 . S
C203 C202 1.394 . S
C203 C204 1.372 . S
C204 H163 0.930 . S
C204 C203 1.372 . S
C204 C205 1.397 . S
C205 C204 1.397 . S
C205 C206 1.390 . S
C205 C221 1.476 . S
C206 H164 0.930 . S
C206 C205 1.390 . S
C206 C207 1.366 . S
C207 H165 0.932 . S
C207 C202 1.360 . S
C207 C206 1.366 . S
C208 C182 1.490 . S
C208 C209 1.380 . S
C208 C213 1.386 . S
C209 H166 0.930 . S
C209 C208 1.380 . S
C209 C210 1.381 . S
C210 H167 0.929 . S
C210 C209 1.381 . S
C210 C211 1.371 . S
C211 C210 1.371 . S
C211 C212 1.380 . S
C212 H168 0.931 . S
C212 C211 1.380 . S
C212 C213 1.387 . S
C213 H169 0.930 . S
C213 C208 1.386 . S
C213 C212 1.387 . S
C214 C183 1.519 . S
C214 C215 1.377 . S
C214 C219 1.361 . S
C215 H170 0.929 . S
C215 C214 1.377 . S
C215 C216 1.386 . S
C216 H171 0.931 . S
C216 C215 1.386 . S
C216 C217 1.363 . S
C217 C216 1.363 . S
C217 C218 1.385 . S
C218 H172 0.930 . S
C218 C217 1.385 . S
C218 C219 1.396 . S
C219 H173 0.929 . S
C219 C214 1.361 . S
C219 C218 1.396 . S
C220 O174 1.300 . S
C220 O175 1.209 . S
C220 C193 1.486 . S
C221 O176 1.199 . S
C221 O177 1.297 . S
C221 C205 1.476 . S
H222 O248 0.856 . S
H223 O251 0.854 . S
H224 C259 0.930 1_455 S
H225 C260 0.930 . S
H226 C262 0.930 . S
H227 C263 0.930 . S
H228 C265 0.931 . S
H229 C266 0.930 . S
H230 C268 0.930 . S
H231 C269 0.929 . S
H232 C271 0.930 . S
H233 C272 0.931 . S
H234 C274 0.930 . S
H235 C275 0.929 . S
H236 C277 0.931 . S
H237 C278 0.930 . S
H238 C280 0.930 . S
H239 C281 0.932 . S
H240 C283 0.930 . S
H241 C284 0.929 . S
H242 C286 0.931 . S
H243 C287 0.930 . S
H244 C289 0.929 . S
H245 C290 0.931 . S
H246 C292 0.930 . S
H247 C293 0.929 . S
O248 H222 0.856 . S
O248 C294 1.300 . S
O249 C294 1.209 . S
O250 C295 1.199 . S
O251 H223 0.854 . S
O251 C295 1.297 . S
C252 C253 1.404 . S
C252 C257 1.397 . S
C252 C258 1.492 1_455 S
C253 C252 1.404 . S
C253 C254 1.396 . S
C253 C264 1.492 . S
C254 C253 1.396 . S
C254 C255 1.397 . S
C254 C270 1.509 . S
C255 C254 1.397 . S
C255 C256 1.412 . S
C255 C276 1.485 . S
C256 C255 1.412 . S
C256 C257 1.388 . S
C256 C282 1.490 . S
C257 C252 1.397 . S
C257 C256 1.388 . S
C257 C288 1.519 1_455 S
C258 C252 1.492 1_655 S
C258 C259 1.363 . S
C258 C263 1.390 . S
C259 H224 0.930 1_655 S
C259 C258 1.363 . S
C259 C260 1.372 . S
C260 H225 0.930 . S
C260 C259 1.372 . S
C260 C261 1.383 . S
C261 C260 1.383 . S
C261 C262 1.395 . S
C262 H226 0.930 . S
C262 C261 1.395 . S
C262 C263 1.362 . S
C263 H227 0.930 . S
C263 C258 1.390 . S
C263 C262 1.362 . S
C264 C253 1.492 . S
C264 C265 1.377 . S
C264 C269 1.397 . S
C265 H228 0.931 . S
C265 C264 1.377 . S
C265 C266 1.376 . S
C266 H229 0.930 . S
C266 C265 1.376 . S
C266 C267 1.376 . S
C267 C266 1.376 . S
C267 C268 1.378 . S
C267 C294 1.486 1_556 S
C268 H230 0.930 . S
C268 C267 1.378 . S
C268 C269 1.376 . S
C269 H231 0.929 . S
C269 C264 1.397 . S
C269 C268 1.376 . S
C270 C254 1.509 . S
C270 C271 1.391 . S
C270 C275 1.386 . S
C271 H232 0.930 . S
C271 C270 1.391 . S
C271 C272 1.375 . S
C272 H233 0.931 . S
C272 C271 1.375 . S
C272 C273 1.375 . S
C273 C272 1.375 . S
C273 C274 1.361 . S
C274 H234 0.930 . S
C274 C273 1.361 . S
C274 C275 1.399 . S
C275 H235 0.929 . S
C275 C270 1.386 . S
C275 C274 1.399 . S
C276 C255 1.485 . S
C276 C277 1.394 . S
C276 C281 1.360 . S
C277 H236 0.931 . S
C277 C276 1.394 . S
C277 C278 1.372 . S
C278 H237 0.930 . S
C278 C277 1.372 . S
C278 C279 1.397 . S
C279 C278 1.397 . S
C279 C280 1.390 . S
C279 C295 1.476 . S
C280 H238 0.930 . S
C280 C279 1.390 . S
C280 C281 1.366 . S
C281 H239 0.932 . S
C281 C276 1.360 . S
C281 C280 1.366 . S
C282 C256 1.490 . S
C282 C283 1.380 . S
C282 C287 1.386 . S
C283 H240 0.930 . S
C283 C282 1.380 . S
C283 C284 1.381 . S
C284 H241 0.929 . S
C284 C283 1.381 . S
C284 C285 1.371 . S
C285 C284 1.371 . S
C285 C286 1.380 . S
C286 H242 0.931 . S
C286 C285 1.380 . S
C286 C287 1.387 . S
C287 H243 0.930 . S
C287 C282 1.386 . S
C287 C286 1.387 . S
C288 C257 1.519 1_655 S
C288 C289 1.377 . S
C288 C293 1.361 . S
C289 H244 0.929 . S
C289 C288 1.377 . S
C289 C290 1.386 . S
C290 H245 0.931 . S
C290 C289 1.386 . S
C290 C291 1.363 . S
C291 C290 1.363 . S
C291 C292 1.385 . S
C292 H246 0.930 . S
C292 C291 1.385 . S
C292 C293 1.396 . S
C293 H247 0.929 . S
C293 C288 1.361 . S
C293 C292 1.396 . S
C294 O248 1.300 . S
C294 O249 1.209 . S
C294 C267 1.486 1_554 S
C295 O250 1.199 . S
C295 O251 1.297 . S
C295 C279 1.476 . S
H296 O322 0.856 . S
H297 O325 0.854 . S
H298 C333 0.930 . S
H299 C334 0.930 . S
H300 C336 0.930 . S
H301 C337 0.930 . S
H302 C339 0.931 . S
H303 C340 0.930 . S
H304 C342 0.930 1_545 S
H305 C343 0.929 1_545 S
H306 C345 0.930 . S
H307 C346 0.931 . S
H308 C348 0.930 . S
H309 C349 0.929 . S
H310 C351 0.931 . S
H311 C352 0.930 . S
H312 C354 0.930 . S
H313 C355 0.932 . S
H314 C357 0.930 . S
H315 C358 0.929 . S
H316 C360 0.931 . S
H317 C361 0.930 . S
H318 C363 0.929 1_556 S
H319 C364 0.931 . S
H320 C366 0.930 . S
H321 C367 0.929 . S
O322 H296 0.856 . S
O322 C368 1.300 . S
O323 C368 1.209 . S
O324 C369 1.199 . S
O325 H297 0.854 . S
O325 C369 1.297 . S
C326 C327 1.404 1_545 S
C326 C331 1.397 . S
C326 C332 1.492 . S
C327 C326 1.404 1_565 S
C327 C328 1.396 . S
C327 C338 1.492 . S
C328 C327 1.396 . S
C328 C329 1.393 1_556 S
C328 C344 1.509 . S
C329 C328 1.393 1_554 S
C329 C330 1.414 . S
C329 C350 1.487 . S
C330 C329 1.414 . S
C330 C331 1.388 1_564 S
C330 C356 1.490 1_565 S
C331 C326 1.397 . S
C331 C330 1.388 1_546 S
C331 C362 1.519 1_556 S
C332 C326 1.492 . S
C332 C333 1.363 . S
C332 C337 1.390 . S
C333 H298 0.930 . S
C333 C332 1.363 . S
C333 C334 1.372 . S
C334 H299 0.930 . S
C334 C333 1.372 . S
C334 C335 1.383 . S
C335 C334 1.383 . S
C335 C336 1.395 . S
C336 H300 0.930 . S
C336 C335 1.395 . S
C336 C337 1.362 . S
C337 H301 0.930 . S
C337 C332 1.390 . S
C337 C336 1.362 . S
C338 C327 1.492 . S
C338 C339 1.377 . S
C338 C343 1.397 . S
C339 H302 0.931 . S
C339 C338 1.377 . S
C339 C340 1.376 . S
C340 H303 0.930 . S
C340 C339 1.376 . S
C340 C341 1.376 . S
C341 C340 1.376 . S
C341 C342 1.378 . S
C341 C368 1.486 . S
C342 H304 0.930 1_565 S
C342 C341 1.378 . S
C342 C343 1.376 . S
C343 H305 0.929 1_565 S
C343 C338 1.397 . S
C343 C342 1.376 . S
C344 C328 1.509 . S
C344 C345 1.391 . S
C344 C349 1.386 . S
C345 H306 0.930 . S
C345 C344 1.391 . S
C345 C346 1.375 . S
C346 H307 0.931 . S
C346 C345 1.375 . S
C346 C347 1.375 . S
C347 C346 1.375 . S
C347 C348 1.361 . S
C348 H308 0.930 . S
C348 C347 1.361 . S
C348 C349 1.399 . S
C349 H309 0.929 . S
C349 C344 1.386 . S
C349 C348 1.399 . S
C350 C329 1.487 . S
C350 C351 1.394 . S
C350 C355 1.360 . S
C351 H310 0.931 . S
C351 C350 1.394 . S
C351 C352 1.372 . S
C352 H311 0.930 . S
C352 C351 1.372 . S
C352 C353 1.397 . S
C353 C352 1.397 . S
C353 C354 1.390 . S
C353 C369 1.476 . S
C354 H312 0.930 . S
C354 C353 1.390 . S
C354 C355 1.366 . S
C355 H313 0.932 . S
C355 C350 1.360 . S
C355 C354 1.366 . S
C356 C330 1.490 1_545 S
C356 C357 1.380 . S
C356 C361 1.386 1_545 S
C357 H314 0.930 . S
C357 C356 1.380 . S
C357 C358 1.381 . S
C358 H315 0.929 . S
C358 C357 1.381 . S
C358 C359 1.371 . S
C359 C358 1.371 . S
C359 C360 1.380 . S
C360 H316 0.931 . S
C360 C359 1.380 . S
C360 C361 1.387 1_545 S
C361 H317 0.930 . S
C361 C356 1.386 1_565 S
C361 C360 1.387 1_565 S
C362 C331 1.519 1_554 S
C362 C363 1.377 . S
C362 C367 1.361 . S
C363 H318 0.929 1_554 S
C363 C362 1.377 . S
C363 C364 1.386 . S
C364 H319 0.931 . S
C364 C363 1.386 . S
C364 C365 1.363 . S
C365 C364 1.363 . S
C365 C366 1.385 . S
C366 H320 0.930 . S
C366 C365 1.385 . S
C366 C367 1.396 . S
C367 H321 0.929 . S
C367 C362 1.361 . S
C367 C366 1.396 . S
C368 O322 1.300 . S
C368 O323 1.209 . S
C368 C341 1.486 . S
C369 O324 1.199 . S
C369 O325 1.297 . S
C369 C353 1.476 . S
H370 O396 0.856 . S
H371 O399 0.854 . S
H372 C407 0.930 . S
H373 C408 0.930 . S
H374 C410 0.930 . S
H375 C411 0.930 . S
H376 C413 0.931 . S
H377 C414 0.930 . S
H378 C416 0.930 . S
H379 C417 0.929 . S
H380 C419 0.930 . S
H381 C420 0.931 . S
H382 C422 0.930 . S
H383 C423 0.929 . S
H384 C425 0.931 . S
H385 C426 0.930 . S
H386 C428 0.930 . S
H387 C429 0.932 . S
H388 C431 0.930 . S
H389 C432 0.929 . S
H390 C434 0.931 . S
H391 C435 0.930 . S
H392 C437 0.929 . S
H393 C438 0.931 . S
H394 C440 0.930 . S
H395 C441 0.929 . S
O396 H370 0.856 . S
O396 C442 1.300 . S
O397 C442 1.209 . S
O398 C443 1.199 . S
O399 H371 0.854 . S
O399 C443 1.297 . S
C400 C401 1.404 . S
C400 C405 1.397 . S
C400 C406 1.492 . S
C401 C400 1.404 . S
C401 C402 1.396 . S
C401 C412 1.492 . S
C402 C401 1.396 . S
C402 C403 1.397 . S
C402 C418 1.509 . S
C403 C402 1.397 . S
C403 C404 1.412 . S
C403 C424 1.485 . S
C404 C403 1.412 . S
C404 C405 1.388 . S
C404 C430 1.490 . S
C405 C400 1.397 . S
C405 C404 1.388 . S
C405 C436 1.519 . S
C406 C400 1.492 . S
C406 C407 1.363 . S
C406 C411 1.390 . S
C407 H372 0.930 . S
C407 C406 1.363 . S
C407 C408 1.372 . S
C408 H373 0.930 . S
C408 C407 1.372 . S
C408 C409 1.383 . S
C409 C408 1.383 . S
C409 C410 1.395 . S
C410 H374 0.930 . S
C410 C409 1.395 . S
C410 C411 1.362 . S
C411 H375 0.930 . S
C411 C406 1.390 . S
C411 C410 1.362 . S
C412 C401 1.492 . S
C412 C413 1.377 . S
C412 C417 1.397 . S
C413 H376 0.931 . S
C413 C412 1.377 . S
C413 C414 1.376 1_554 S
C414 H377 0.930 . S
C414 C413 1.376 1_556 S
C414 C415 1.376 . S
C415 C414 1.376 . S
C415 C416 1.378 . S
C415 C442 1.486 . S
C416 H378 0.930 . S
C416 C415 1.378 . S
C416 C417 1.376 1_556 S
C417 H379 0.929 . S
C417 C412 1.397 . S
C417 C416 1.376 1_554 S
C418 C402 1.509 . S
C418 C419 1.391 . S
C418 C423 1.386 . S
C419 H380 0.930 . S
C419 C418 1.391 . S
C419 C420 1.375 . S
C420 H381 0.931 . S
C420 C419 1.375 . S
C420 C421 1.375 . S
C421 C420 1.375 . S
C421 C422 1.361 . S
C422 H382 0.930 . S
C422 C421 1.361 . S
C422 C423 1.399 . S
C423 H383 0.929 . S
C423 C418 1.386 . S
C423 C422 1.399 . S
C424 C403 1.485 . S
C424 C425 1.394 . S
C424 C429 1.360 . S
C425 H384 0.931 . S
C425 C424 1.394 . S
C425 C426 1.372 . S
C426 H385 0.930 . S
C426 C425 1.372 . S
C426 C427 1.397 . S
C427 C426 1.397 . S
C427 C428 1.390 . S
C427 C443 1.476 . S
C428 H386 0.930 . S
C428 C427 1.390 . S
C428 C429 1.366 . S
C429 H387 0.932 . S
C429 C424 1.360 . S
C429 C428 1.366 . S
C430 C404 1.490 . S
C430 C431 1.380 . S
C430 C435 1.386 . S
C431 H388 0.930 . S
C431 C430 1.380 . S
C431 C432 1.381 . S
C432 H389 0.929 . S
C432 C431 1.381 . S
C432 C433 1.371 . S
C433 C432 1.371 . S
C433 C434 1.380 . S
C434 H390 0.931 . S
C434 C433 1.380 . S
C434 C435 1.387 . S
C435 H391 0.930 . S
C435 C430 1.386 . S
C435 C434 1.387 . S
C436 C405 1.519 . S
C436 C437 1.377 . S
C436 C441 1.361 . S
C437 H392 0.929 . S
C437 C436 1.377 . S
C437 C438 1.386 . S
C438 H393 0.931 . S
C438 C437 1.386 . S
C438 C439 1.363 . S
C439 C438 1.363 . S
C439 C440 1.385 . S
C440 H394 0.930 . S
C440 C439 1.385 . S
C440 C441 1.396 . S
C441 H395 0.929 . S
C441 C436 1.361 . S
C441 C440 1.396 . S
C442 O396 1.300 . S
C442 O397 1.209 . S
C442 C415 1.486 . S
C443 O398 1.199 . S
C443 O399 1.297 . S
C443 C427 1.476 . S
In444 O445 2.294 . S
In444 O446 2.326 . S
In444 O450 2.266 . S
In444 O451 2.326 . S
In444 O452 2.266 . S
In444 O453 2.326 . S
In444 O455 2.294 . S
In444 O456 2.326 . S
O445 In444 2.294 . S
O445 C454 1.240 . S
O446 In444 2.326 . S
O446 C454 1.252 . S
C447 O450 1.252 . S
C447 O451 1.260 . S
C448 O455 1.240 . S
C448 O456 1.252 . S
C449 O452 1.252 . S
C449 O453 1.260 . S
O450 In444 2.266 . S
O450 C447 1.252 . S
O451 In444 2.326 . S
O451 C447 1.260 . S
O452 In444 2.266 . S
O452 C449 1.252 . S
O453 In444 2.326 . S
O453 C449 1.260 . S
C454 O445 1.240 . S
C454 O446 1.252 . S
O455 In444 2.294 . S
O455 C448 1.240 . S
O456 In444 2.326 . S
O456 C448 1.252 . S
In457 O458 2.294 . S
In457 O459 2.326 . S
In457 O463 2.266 . S
In457 O464 2.326 . S
In457 O465 2.266 . S
In457 O466 2.326 . S
In457 O468 2.294 . S
In457 O469 2.326 . S
O458 In457 2.294 . S
O458 C467 1.240 . S
O459 In457 2.326 . S
O459 C467 1.252 . S
C460 O463 1.252 . S
C460 O464 1.260 . S
C461 O468 1.240 . S
C461 O469 1.252 . S
C462 O465 1.252 . S
C462 O466 1.260 . S
O463 In457 2.266 . S
O463 C460 1.252 . S
O464 In457 2.326 . S
O464 C460 1.260 . S
O465 In457 2.266 . S
O465 C462 1.252 . S
O466 In457 2.326 . S
O466 C462 1.260 . S
C467 O458 1.240 . S
C467 O459 1.252 . S
O468 In457 2.294 . S
O468 C461 1.240 . S
O469 In457 2.326 . S
O469 C461 1.252 . S
In470 O471 2.294 . S
In470 O472 2.326 . S
In470 O476 2.266 . S
In470 O477 2.326 . S
In470 O478 2.266 . S
In470 O479 2.326 . S
In470 O481 2.294 . S
In470 O482 2.326 . S
O471 In470 2.294 . S
O471 C480 1.240 . S
O472 In470 2.326 . S
O472 C480 1.252 . S
C473 O476 1.252 . S
C473 O477 1.260 . S
C474 O481 1.240 . S
C474 O482 1.252 . S
C475 O478 1.252 . S
C475 O479 1.260 . S
O476 In470 2.266 . S
O476 C473 1.252 . S
O477 In470 2.326 . S
O477 C473 1.260 . S
O478 In470 2.266 . S
O478 C475 1.252 . S
O479 In470 2.326 . S
O479 C475 1.260 . S
C480 O471 1.240 . S
C480 O472 1.252 . S
O481 In470 2.294 . S
O481 C474 1.240 . S
O482 In470 2.326 . S
O482 C474 1.252 . S
In483 O484 2.294 . S
In483 O485 2.326 . S
In483 O489 2.266 . S
In483 O490 2.326 . S
In483 O491 2.266 . S
In483 O492 2.326 . S
In483 O494 2.294 . S
In483 O495 2.326 . S
O484 In483 2.294 . S
O484 C493 1.240 . S
O485 In483 2.326 . S
O485 C493 1.252 . S
C486 O489 1.252 . S
C486 O490 1.260 . S
C487 O494 1.240 . S
C487 O495 1.252 . S
C488 O491 1.252 . S
C488 O492 1.260 . S
O489 In483 2.266 . S
O489 C486 1.252 . S
O490 In483 2.326 . S
O490 C486 1.260 . S
O491 In483 2.266 . S
O491 C488 1.252 . S
O492 In483 2.326 . S
O492 C488 1.260 . S
C493 O484 1.240 . S
C493 O485 1.252 . S
O494 In483 2.294 . S
O494 C487 1.240 . S
O495 In483 2.326 . S
O495 C487 1.252 . S
In496 O497 2.294 . S
In496 O498 2.326 . S
In496 O502 2.266 . S
In496 O503 2.326 . S
In496 O504 2.266 1_554 S
In496 O505 2.326 . S
In496 O507 2.294 . S
In496 O508 2.326 . S
O497 In496 2.294 . S
O497 C506 1.240 . S
O498 In496 2.326 . S
O498 C506 1.252 . S
C499 O502 1.252 . S
C499 O503 1.260 . S
C500 O507 1.240 . S
C500 O508 1.252 . S
C501 O504 1.252 . S
C501 O505 1.260 1_556 S
O502 In496 2.266 . S
O502 C499 1.252 . S
O503 In496 2.326 . S
O503 C499 1.260 . S
O504 In496 2.266 1_556 S
O504 C501 1.252 . S
O505 In496 2.326 . S
O505 C501 1.260 1_554 S
C506 O497 1.240 . S
C506 O498 1.252 . S
O507 In496 2.294 . S
O507 C500 1.240 . S
O508 In496 2.326 . S
O508 C500 1.252 . S
In509 O510 2.294 . S
In509 O511 2.326 . S
In509 O515 2.266 . S
In509 O516 2.326 . S
In509 O517 2.266 . S
In509 O518 2.326 . S
In509 O520 2.294 . S
In509 O521 2.326 . S
O510 In509 2.294 . S
O510 C519 1.240 . S
O511 In509 2.326 . S
O511 C519 1.252 . S
C512 O515 1.252 . S
C512 O516 1.260 . S
C513 O520 1.240 . S
C513 O521 1.252 . S
C514 O517 1.252 . S
C514 O518 1.260 . S
O515 In509 2.266 . S
O515 C512 1.252 . S
O516 In509 2.326 . S
O516 C512 1.260 . S
O517 In509 2.266 . S
O517 C514 1.252 . S
O518 In509 2.326 . S
O518 C514 1.260 . S
C519 O510 1.240 . S
C519 O511 1.252 . S
O520 In509 2.294 . S
O520 C513 1.240 . S
O521 In509 2.326 . S
O521 C513 1.252 . S
C514 C51 1.575 . S
C125 C449 1.779 . S
C217 C467 2.960 . S
C291 C480 2.111 . S
C488 C347 0.802 . S
C421 C500 1.139 . S
C143 C462 3.061 . S
C199 C475 1.273 . S
C273 C493 0.800 . S
C499 C365 1.352 . S
C519 C439 2.338 . S
C454 C69 2.871 . S
C63 C460 2.323 . S
C137 C473 2.083 . S
C487 C187 2.304 . S
C261 C501 2.064 . S
C513 C359 2.011 1_565 S
C448 C433 1.665 . S
C512 C113 2.417 . S
C211 C447 2.067 . S
C461 C285 2.269 . S
C335 C474 2.147 . S
C409 C486 2.235 1_554 S
C39 C506 2.372 . S
