# Generated by pormake.
# Topology cml, (3,6)-cn, num edge types: 1
# Building blocks:
#     Node 0, Type 0, BuildingBlock: MIDCAF_clean_linker_0, # of connection points: 3
#     Node 1, Type 0, BuildingBlock: MIDCAF_clean_linker_0, # of connection points: 3
#     Node 2, Type 0, BuildingBlock: MIDCAF_clean_linker_0, # of connection points: 3
#     Node 3, Type 0, BuildingBlock: MIDCAF_clean_linker_0, # of connection points: 3
#     Node 4, Type 0, BuildingBlock: MIDCAF_clean_linker_0, # of connection points: 3
#     Node 5, Type 0, BuildingBlock: MIDCAF_clean_linker_0, # of connection points: 3
#     Node 6, Type 0, BuildingBlock: MIDCAF_clean_linker_0, # of connection points: 3
#     Node 7, Type 0, BuildingBlock: MIDCAF_clean_linker_0, # of connection points: 3
#     Node 8, Type 1, BuildingBlock: OJICUG_clean_sbu_0, # of connection points: 6
#     Node 9, Type 1, BuildingBlock: OJICUG_clean_sbu_0, # of connection points: 6
#     Node 10, Type 1, BuildingBlock: OJICUG_clean_sbu_0, # of connection points: 6
#     Node 11, Type 1, BuildingBlock: OJICUG_clean_sbu_0, # of connection points: 6
#     Edge 12, Type (0, 1), BuildingBlock: KIFKEQ_clean_linker_1, # of connection points: 2
#     Edge 13, Type (0, 1), BuildingBlock: KIFKEQ_clean_linker_1, # of connection points: 2
#     Edge 14, Type (0, 1), BuildingBlock: KIFKEQ_clean_linker_1, # of connection points: 2
#     Edge 15, Type (0, 1), BuildingBlock: KIFKEQ_clean_linker_1, # of connection points: 2
#     Edge 16, Type (0, 1), BuildingBlock: KIFKEQ_clean_linker_1, # of connection points: 2
#     Edge 17, Type (0, 1), BuildingBlock: KIFKEQ_clean_linker_1, # of connection points: 2
#     Edge 18, Type (0, 1), BuildingBlock: KIFKEQ_clean_linker_1, # of connection points: 2
#     Edge 19, Type (0, 1), BuildingBlock: KIFKEQ_clean_linker_1, # of connection points: 2
#     Edge 20, Type (0, 1), BuildingBlock: KIFKEQ_clean_linker_1, # of connection points: 2
#     Edge 21, Type (0, 1), BuildingBlock: KIFKEQ_clean_linker_1, # of connection points: 2
#     Edge 22, Type (0, 1), BuildingBlock: KIFKEQ_clean_linker_1, # of connection points: 2
#     Edge 23, Type (0, 1), BuildingBlock: KIFKEQ_clean_linker_1, # of connection points: 2
#     Edge 24, Type (0, 1), BuildingBlock: KIFKEQ_clean_linker_1, # of connection points: 2
#     Edge 25, Type (0, 1), BuildingBlock: KIFKEQ_clean_linker_1, # of connection points: 2
#     Edge 26, Type (0, 1), BuildingBlock: KIFKEQ_clean_linker_1, # of connection points: 2
#     Edge 27, Type (0, 1), BuildingBlock: KIFKEQ_clean_linker_1, # of connection points: 2
#     Edge 28, Type (0, 1), BuildingBlock: KIFKEQ_clean_linker_1, # of connection points: 2
#     Edge 29, Type (0, 1), BuildingBlock: KIFKEQ_clean_linker_1, # of connection points: 2
#     Edge 30, Type (0, 1), BuildingBlock: KIFKEQ_clean_linker_1, # of connection points: 2
#     Edge 31, Type (0, 1), BuildingBlock: KIFKEQ_clean_linker_1, # of connection points: 2
#     Edge 32, Type (0, 1), BuildingBlock: KIFKEQ_clean_linker_1, # of connection points: 2
#     Edge 33, Type (0, 1), BuildingBlock: KIFKEQ_clean_linker_1, # of connection points: 2
#     Edge 34, Type (0, 1), BuildingBlock: KIFKEQ_clean_linker_1, # of connection points: 2
#     Edge 35, Type (0, 1), BuildingBlock: KIFKEQ_clean_linker_1, # of connection points: 2
# Relax obj value: 0.074
# Max RMSD: 0.086
# Mean RMSD: 0.082
data_MOF--net-cml--node1-OJICUG_clean_sbu_0--node2-MIDCAF_clean_linker_0--edge1-KIFKEQ_clean_linker_1
_symmetry_space_group_name_H-M    P1
_symmetry_Int_Tables_number       1
_symmetry_cell_setting            triclinic
loop_
_symmetry_equiv_pos_as_xyz
'x, y, z'
_cell_length_a     47.914905
_cell_length_b     48.41176
_cell_length_c     45.732367
_cell_angle_alpha  90.016591
_cell_angle_beta   89.979288
_cell_angle_gamma 90.097015
loop_
_atom_site_label
_atom_site_type_symbol
_atom_site_fract_x
_atom_site_fract_y
_atom_site_fract_z
_atom_type_partial_charge
C0 C 0.30586 0.39169 0.10975 0.0
C1 C 0.30705 0.36332 0.11603 0.0
C2 C 0.29378 0.34458 0.09709 0.0
C3 C 0.28019 0.35405 0.07191 0.0
H4 H 0.21827 0.33599 0.00943 0.0
H5 H 0.18576 0.30823 0.98106 0.0
H6 H 0.18585 0.36997 0.9129 0.0
H7 H 0.21804 0.39812 0.94142 0.0
H8 H 0.25566 0.45163 0.94778 0.0
H9 H 0.27957 0.49042 0.92466 0.0
H10 H 0.33755 0.49376 0.99699 0.0
H11 H 0.31326 0.45597 0.02046 0.0
H12 H 0.29283 0.42304 0.07994 0.0
H13 H 0.31616 0.4066 0.12376 0.0
H14 H 0.29431 0.32261 0.10151 0.0
H15 H 0.27074 0.33911 0.0573 0.0
N16 N 0.25018 0.37719 0.02137 0.0
N17 N 0.25102 0.41022 0.98378 0.0
N18 N 0.27866 0.41637 0.02545 0.0
C19 C 0.24095 0.38612 0.99488 0.0
C20 C 0.26992 0.42545 -0.00105 0.0
C21 C 0.26891 0.39237 0.03686 0.0
C22 C 0.22086 0.36933 0.97776 0.0
C23 C 0.21139 0.34375 0.98843 0.0
C24 C 0.19288 0.3277 0.97206 0.0
C25 C 0.18338 0.33683 0.94465 0.0
C26 C 0.19264 0.36248 0.93404 0.0
C27 C 0.2112 0.37854 0.95039 0.0
C28 C 0.28261 0.4505 0.98591 0.0
C29 C 0.27329 0.46089 0.95891 0.0
C30 C 0.2871 0.48304 0.94557 0.0
C31 C 0.31058 0.49516 0.95887 0.0
C32 C 0.31928 0.48529 0.98628 0.0
C33 C 0.30541 0.46337 -0.00031 0.0
C34 C 0.28011 0.38236 0.06504 0.0
C35 C 0.29267 0.40108 0.0845 0.0
C36 C 0.68154 0.5931 0.60718 0.0
C37 C 0.67814 0.62123 0.61391 0.0
C38 C 0.69169 0.64103 0.59641 0.0
C39 C 0.70707 0.63286 0.57182 0.0
H40 H 0.76959 0.65645 0.51065 0.0
H41 H 0.8019 0.68572 0.48338 0.0
H42 H 0.80827 0.62321 0.41632 0.0
H43 H 0.77651 0.59378 0.44354 0.0
H44 H 0.72985 0.54917 0.43986 0.0
H45 H 0.70616 0.51189 0.41403 0.0
H46 H 0.66716 0.48604 0.49463 0.0
H47 H 0.69082 0.52324 0.52067 0.0
H48 H 0.69801 0.56315 0.57759 0.0
H49 H 0.67209 0.57725 0.62067 0.0
H50 H 0.68945 0.66287 0.60095 0.0
H51 H 0.71636 0.6486 0.55809 0.0
N52 N 0.74016 0.61255 0.52193 0.0
N53 N 0.74184 0.58077 0.48323 0.0
N54 N 0.71336 0.57195 0.52368 0.0
C55 C 0.75056 0.60483 0.49546 0.0
C56 C 0.72329 0.56421 0.49715 0.0
C57 C 0.72168 0.59603 0.53624 0.0
C58 C 0.77041 0.62272 0.47936 0.0
C59 C 0.77792 0.64889 0.49014 0.0
C60 C 0.79628 0.66576 0.47442 0.0
C61 C 0.80757 0.65675 0.44769 0.0
C62 C 0.80015 0.63059 0.43699 0.0
C63 C 0.78179 0.61379 0.45261 0.0
C64 C 0.71197 0.53944 0.48232 0.0
C65 C 0.71659 0.53532 0.45224 0.0
C66 C 0.70296 0.51405 0.43737 0.0
C67 C 0.68469 0.49627 0.4523 0.0
C68 C 0.68127 0.49937 0.48262 0.0
C69 C 0.69469 0.52081 0.49748 0.0
C70 C 0.70893 0.60477 0.56421 0.0
C71 C 0.69656 0.58499 0.58255 0.0
C72 C 0.69011 0.39015 0.11343 0.0
C73 C 0.68847 0.36152 0.11818 0.0
C74 C 0.70122 0.34356 0.0981 0.0
C75 C 0.71466 0.35404 0.07329 0.0
H76 H 0.77176 0.33591 0.00704 0.0
H77 H 0.80207 0.30832 0.97598 0.0
H78 H 0.8047 0.37428 0.91246 0.0
H79 H 0.77468 0.40219 0.94362 0.0
H80 H 0.72343 0.44493 0.94648 0.0
H81 H 0.69685 0.48295 0.92606 0.0
H82 H 0.67205 0.50773 0.0131 0.0
H83 H 0.6978 0.46896 0.03349 0.0
H84 H 0.70332 0.42273 0.08512 0.0
H85 H 0.68022 0.4045 0.12836 0.0
H86 H 0.70034 0.32141 0.10133 0.0
H87 H 0.72364 0.33967 0.05777 0.0
N88 N 0.74353 0.37849 0.0231 0.0
N89 N 0.74248 0.41279 0.9869 0.0
N90 N 0.71684 0.41851 0.03005 0.0
C91 C 0.75208 0.38806 0.9966 0.0
C92 C 0.72492 0.42815 0.0035 0.0
C93 C 0.72604 0.39372 0.04001 0.0
C94 C 0.77073 0.3713 0.97789 0.0
C95 C 0.77877 0.34461 0.98649 0.0
C96 C 0.79597 0.32868 0.96858 0.0
C97 C 0.80559 0.33909 0.94171 0.0
C98 C 0.79773 0.3658 0.93314 0.0
C99 C 0.78044 0.38172 0.951 0.0
C100 C 0.71239 0.45366 0.9916 0.0
C101 C 0.71265 0.45871 0.96134 0.0
C102 C 0.69749 0.48065 0.9496 0.0
C103 C 0.682 0.49824 0.96789 0.0
C104 C 0.68319 0.49418 0.99832 0.0
C105 C 0.69808 0.47203 0.01003 0.0
C106 C 0.71514 0.38265 0.0679 0.0
C107 C 0.70318 0.40059 0.08852 0.0
C108 C 0.31173 0.59841 0.61558 0.0
C109 C 0.31205 0.62674 0.6222 0.0
C110 C 0.29814 0.64523 0.60359 0.0
C111 C 0.28467 0.63558 0.57842 0.0
H112 H 0.23309 0.65748 0.50774 0.0
H113 H 0.19906 0.68433 0.48062 0.0
H114 H 0.1741 0.61092 0.43339 0.0
H115 H 0.20922 0.58435 0.45961 0.0
H116 H 0.25997 0.53706 0.45476 0.0
H117 H 0.28673 0.50176 0.42864 0.0
H118 H 0.34956 0.50387 0.49616 0.0
H119 H 0.32308 0.53871 0.52244 0.0
H120 H 0.29947 0.56696 0.58546 0.0
H121 H 0.32256 0.58372 0.62935 0.0
H122 H 0.29804 0.66716 0.6083 0.0
H123 H 0.27464 0.65034 0.56407 0.0
N124 N 0.2544 0.61178 0.5284 0.0
N125 N 0.25548 0.57916 0.49037 0.0
N126 N 0.28458 0.57388 0.53107 0.0
C127 C 0.2448 0.60267 0.50212 0.0
C128 C 0.27552 0.56472 0.5047 0.0
C129 C 0.27408 0.59725 0.54313 0.0
C130 C 0.22375 0.61879 0.4859 0.0
C131 C 0.22031 0.64707 0.49159 0.0
C132 C 0.20068 0.66244 0.47609 0.0
C133 C 0.18362 0.6498 0.45489 0.0
C134 C 0.18714 0.62147 0.44919 0.0
C135 C 0.20713 0.60617 0.46438 0.0
C136 C 0.2895 0.54097 0.49055 0.0
C137 C 0.27929 0.52973 0.46425 0.0
C138 C 0.2945 0.50949 0.44934 0.0
C139 C 0.32027 0.50047 0.46031 0.0
C140 C 0.32987 0.51079 0.48714 0.0
C141 C 0.31458 0.53068 0.5022 0.0
C142 C 0.2854 0.60735 0.57121 0.0
C143 C 0.29869 0.58885 0.5903 0.0
C144 C 0.8103 0.89729 0.11645 0.0
C145 C 0.80967 0.8691 0.12367 0.0
C146 C 0.79362 0.85098 0.10648 0.0
C147 C 0.77917 0.8608 0.082 0.0
H148 H 0.71192 0.8466 0.02443 0.0
H149 H 0.67757 0.8193 0.99804 0.0
H150 H 0.68218 0.87599 0.92529 0.0
H151 H 0.71695 0.90323 0.95142 0.0
H152 H 0.75506 0.95767 0.95687 0.0
H153 H 0.7817 0.99287 0.93032 0.0
H154 H 0.84524 0.99093 0.9971 0.0
H155 H 0.81891 0.9562 0.02379 0.0
H156 H 0.79785 0.92874 0.08651 0.0
H157 H 0.82274 0.91172 0.12905 0.0
H158 H 0.79267 0.82917 0.11168 0.0
H159 H 0.76761 0.84626 0.06866 0.0
N160 N 0.74863 0.88454 0.03218 0.0
N161 N 0.75024 0.91617 0.99327 0.0
N162 N 0.77997 0.92168 0.03344 0.0
C163 C 0.73896 0.89324 0.00577 0.0
C164 C 0.77078 0.9305 0.00702 0.0
C165 C 0.76902 0.89884 0.04622 0.0
C166 C 0.71729 0.87715 0.9901 0.0
C167 C 0.70562 0.85338 0.00286 0.0
C168 C 0.68579 0.83777 0.98779 0.0
C169 C 0.67714 0.84553 0.95961 0.0
C170 C 0.68865 0.86935 0.94686 0.0
C171 C 0.70847 0.88503 0.96195 0.0
C172 C 0.78496 0.95388 0.99233 0.0
C173 C 0.77454 0.96499 0.96608 0.0
C174 C 0.78967 0.98519 0.95093 0.0
C175 C 0.81556 0.99427 0.96161 0.0
C176 C 0.82544 0.98397 0.98831 0.0
C177 C 0.81024 0.96414 0.00361 0.0
C178 C 0.78094 0.88881 0.07407 0.0
C179 C 0.7962 0.90701 0.0919 0.0
C180 C 0.18224 0.09492 0.6075 0.0
C181 C 0.1824 0.12312 0.61472 0.0
C182 C 0.19762 0.14158 0.59716 0.0
C183 C 0.21197 0.13205 0.57251 0.0
H184 H 0.27655 0.1505 0.51435 0.0
H185 H 0.30997 0.17906 0.48805 0.0
H186 H 0.31064 0.12027 0.417 0.0
H187 H 0.27687 0.09177 0.44298 0.0
H188 H 0.23264 0.04441 0.44242 0.0
H189 H 0.20971 0.00586 0.41792 0.0
H190 H 0.17033 0.98243 0.49914 0.0
H191 H 0.19323 0.02089 0.52385 0.0
H192 H 0.19518 0.06365 0.57747 0.0
H193 H 0.17043 0.08025 0.62045 0.0
H194 H 0.19818 0.16341 0.60235 0.0
H195 H 0.22308 0.14685 0.55908 0.0
N196 N 0.24283 0.10986 0.52279 0.0
N197 N 0.24465 0.07719 0.48498 0.0
N198 N 0.21533 0.06982 0.5252 0.0
C199 C 0.25351 0.10142 0.49674 0.0
C200 C 0.22563 0.06124 0.49909 0.0
C201 C 0.2238 0.0941 0.53719 0.0
C202 C 0.274 0.11877 0.48086 0.0
C203 C 0.28376 0.14359 0.49313 0.0
C204 C 0.30304 0.15992 0.47813 0.0
C205 C 0.31298 0.15185 0.45051 0.0
C206 C 0.30315 0.12715 0.43813 0.0
C207 C 0.28391 0.11075 0.45315 0.0
C208 C 0.21451 0.03596 0.48506 0.0
C209 C 0.21944 0.03084 0.45523 0.0
C210 C 0.20625 0.00883 0.44112 0.0
C211 C 0.18813 0.99133 0.45661 0.0
C212 C 0.18434 0.99552 0.48673 0.0
C213 C 0.19732 0.01769 0.50081 0.0
C214 C 0.21098 0.10394 0.56473 0.0
C215 C 0.19627 0.08545 0.58273 0.0
C216 C 0.17473 0.89271 0.10055 0.0
C217 C 0.18233 0.86713 0.11265 0.0
C218 C 0.20327 0.85155 0.0988 0.0
C219 C 0.21607 0.86127 0.07324 0.0
H220 H 0.26955 0.83892 0.00609 0.0
H221 H 0.30204 0.81072 0.97818 0.0
H222 H 0.30632 0.87377 0.91153 0.0
H223 H 0.27413 0.90228 0.93951 0.0
H224 H 0.21802 0.94214 0.9364 0.0
H225 H 0.19146 0.97915 0.91361 0.0
H226 H 0.16815 0.00958 -0.00092 0.0
H227 H 0.19374 0.97192 0.02178 0.0
H228 H 0.18069 0.9221 0.06649 0.0
H229 H 0.15832 0.90505 0.11026 0.0
H230 H 0.20977 0.83186 0.10772 0.0
H231 H 0.23191 0.84865 0.06293 0.0
N232 N 0.23924 0.88134 0.01816 0.0
N233 N 0.23899 0.91368 0.97991 0.0
N234 N 0.21069 0.92048 0.02098 0.0
C235 C 0.2489 0.88987 0.99165 0.0
C236 C 0.22 0.92915 0.99454 0.0
C237 C 0.22012 0.89662 0.03299 0.0
C238 C 0.26913 0.87289 0.97507 0.0
C239 C 0.27742 0.84687 0.98554 0.0
C240 C 0.29588 0.83059 0.96944 0.0
C241 C 0.30655 0.83998 0.94258 0.0
C242 C 0.29856 0.86608 0.93224 0.0
C243 C 0.28 0.88234 0.94827 0.0
C244 C 0.20759 0.95387 0.98087 0.0
C245 C 0.20755 0.95697 0.95032 0.0
C246 C 0.1924 0.97829 0.93725 0.0
C247 C 0.17729 -0.00289 0.9545 0.0
C248 C 0.17891 0.99499 0.98512 0.0
C249 C 0.19371 0.9735 0.99815 0.0
C250 C 0.20813 0.88675 0.06101 0.0
C251 C 0.1875 0.90243 0.0752 0.0
C252 C 0.81358 0.09524 0.60211 0.0
C253 C 0.80667 0.12063 0.6151 0.0
C254 C 0.78625 0.13724 0.60172 0.0
C255 C 0.77376 0.12898 0.57542 0.0
H256 H 0.70111 0.13486 0.51407 0.0
H257 H 0.66627 0.16241 0.48794 0.0
H258 H 0.70615 0.14279 0.40595 0.0
H259 H 0.74062 0.11474 0.4318 0.0
H260 H 0.78195 0.06074 0.4313 0.0
H261 H 0.81102 0.02633 0.40687 0.0
H262 H 0.83132 0.9904 0.4907 0.0
H263 H 0.80314 0.02511 0.51504 0.0
H264 H 0.8076 0.06754 0.56654 0.0
H265 H 0.82953 0.08209 0.61141 0.0
H266 H 0.78022 0.15678 0.61134 0.0
H267 H 0.75868 0.14255 0.56524 0.0
N268 N 0.75169 0.11177 0.51849 0.0
N269 N 0.75684 0.08428 0.47641 0.0
N270 N 0.78311 0.07478 0.51828 0.0
C271 C 0.74435 0.1057 0.49045 0.0
C272 C 0.77605 0.06855 0.49037 0.0
C273 C 0.77123 0.09635 0.53251 0.0
C274 C 0.72352 0.12265 0.47495 0.0
C275 C 0.70243 0.13644 0.49048 0.0
C276 C 0.68246 0.15203 0.4756 0.0
C277 C 0.68368 0.15457 0.44505 0.0
C278 C 0.70492 0.14111 0.42954 0.0
C279 C 0.7245 0.12502 0.44433 0.0
C280 C 0.79061 0.04588 0.47511 0.0
C281 C 0.79239 0.04528 0.44444 0.0
C282 C 0.80898 0.02553 0.43044 0.0
C283 C 0.82386 0.00593 0.44689 0.0
C284 C 0.82076 0.00568 0.47744 0.0
C285 C 0.80447 0.02551 0.49139 0.0
C286 C 0.78151 0.10399 0.562 0.0
C287 C 0.80111 0.08699 0.57606 0.0
Sc288 Sc 7e-05 0.78689 0.30418 0.0
Sc289 Sc 0.0059 0.85945 0.30886 0.0
Sc290 Sc -1e-05 0.82027 0.37286 0.0
O291 O 0.00202 0.82215 0.3286 0.0
C292 C 0.95498 0.77552 0.35471 0.0
C293 C 0.96227 0.82807 0.26733 0.0
C294 C 0.96355 0.87412 0.35976 0.0
C295 C 0.04633 0.82229 0.27041 0.0
C296 C 0.03749 0.76756 0.35743 0.0
C297 C 0.0467 0.86588 0.36383 0.0
O298 O 0.96668 0.76952 0.33051 0.0
O299 O 0.97493 0.84951 0.27645 0.0
O300 O 0.97237 0.855 0.37634 0.0
O301 O 0.03322 0.79979 0.27482 0.0
O302 O 0.02689 0.78497 0.37498 0.0
O303 O 0.03733 0.87348 0.33911 0.0
O304 O 0.03142 0.76655 0.33037 0.0
O305 O 0.03938 0.84508 0.28198 0.0
O306 O 0.03603 0.84623 0.37849 0.0
O307 O 0.96842 0.80381 0.27585 0.0
O308 O 0.96391 0.79438 0.37157 0.0
O309 O 0.97285 0.87786 0.33406 0.0
Sc310 Sc 0.99422 0.20201 0.79986 0.0
Sc311 Sc 0.99304 0.12926 0.80681 0.0
Sc312 Sc 0.992 0.17048 0.86953 0.0
O313 O 0.99315 0.16733 0.82536 0.0
C314 C 0.03522 0.21798 0.85241 0.0
C315 C 0.03528 0.16222 0.76512 0.0
C316 C 0.03444 0.12033 0.85998 0.0
C317 C 0.95101 0.16271 0.76638 0.0
C318 C 0.9514 0.21927 0.84999 0.0
C319 C 0.95075 0.12009 0.85993 0.0
O320 O 0.02589 0.22161 0.82662 0.0
O321 O 0.02386 0.14044 0.77494 0.0
O322 O 0.02302 0.13895 0.87549 0.0
O323 O 0.96253 0.18613 0.77045 0.0
O324 O 0.96099 0.2021 0.86836 0.0
O325 O 0.96222 0.1127 0.83617 0.0
O326 O 0.96106 0.22177 0.8242 0.0
O327 O 0.95926 0.14059 0.77856 0.0
O328 O 0.95845 0.1413 0.87411 0.0
O329 O 0.02754 0.1863 0.77268 0.0
O330 O 0.0252 0.2001 0.86984 0.0
O331 O 0.02667 0.11483 0.83403 0.0
Sc332 Sc 0.49604 0.29101 0.30247 0.0
Sc333 Sc 0.49806 0.36395 0.30688 0.0
Sc334 Sc 0.49727 0.32457 0.37104 0.0
O335 O 0.4971 0.32645 0.32675 0.0
C336 C 0.4548 0.27594 0.35456 0.0
C337 C 0.45478 0.33079 0.2671 0.0
C338 C 0.4562 0.37484 0.36007 0.0
C339 C 0.53896 0.32833 0.26652 0.0
C340 C 0.53824 0.27556 0.3541 0.0
C341 C 0.53999 0.37407 0.35955 0.0
O342 O 0.46275 0.2731 0.32819 0.0
O343 O 0.4646 0.35294 0.27796 0.0
O344 O 0.46418 0.35422 0.37505 0.0
O345 O 0.52954 0.30482 0.27418 0.0
O346 O 0.53029 0.29476 0.3711 0.0
O347 O 0.53186 0.37888 0.33362 0.0
O348 O 0.5272 0.27095 0.32926 0.0
O349 O 0.52898 0.35089 0.27604 0.0
O350 O 0.5287 0.35592 0.37573 0.0
O351 O 0.46446 0.30701 0.27323 0.0
O352 O 0.46598 0.29302 0.37207 0.0
O353 O 0.46723 0.38143 0.33576 0.0
Sc354 Sc 0.49969 0.70082 0.80946 0.0
Sc355 Sc 0.49922 0.62804 0.8172 0.0
Sc356 Sc 0.49573 0.67004 0.87938 0.0
O357 O 0.49828 0.66636 0.83529 0.0
C358 C 0.53887 0.71795 0.86298 0.0
C359 C 0.54238 0.66083 0.77658 0.0
C360 C 0.53856 0.62002 0.87252 0.0
C361 C 0.45855 0.66076 0.77416 0.0
C362 C 0.45538 0.7183 0.85822 0.0
C363 C 0.45467 0.61951 0.86833 0.0
O364 O 0.53086 0.72072 0.83659 0.0
O365 O 0.53186 0.63903 0.78742 0.0
O366 O 0.52719 0.63933 0.88705 0.0
O367 O 0.46837 0.6846 0.77999 0.0
O368 O 0.46412 0.70093 0.87682 0.0
O369 O 0.4664 0.61212 0.84469 0.0
O370 O 0.46618 0.721 0.83296 0.0
O371 O 0.46762 0.63876 0.78597 0.0
O372 O 0.46265 0.64028 0.88306 0.0
O373 O 0.53327 0.68486 0.78254 0.0
O374 O 0.52813 0.7005 0.88043 0.0
O375 O 0.53109 0.6137 0.8467 0.0
H376 H 0.18515 0.28109 0.93595 0.0
H377 H 0.13722 0.35377 0.91428 0.0
H378 H 0.1511 0.2523 0.91062 0.0
H379 H 0.10313 0.3249 0.88884 0.0
H380 H 0.05802 0.2644 0.82708 0.0
H381 H 0.09581 0.29323 0.84636 0.0
H382 H 0.10269 0.23938 0.92129 0.0
H383 H 0.06557 0.21057 0.90213 0.0
C384 C 0.16733 0.29091 0.92578 0.0
C385 C 0.1637 0.31965 0.92741 0.0
C386 C 0.14788 0.27444 0.91122 0.0
C387 C 0.12434 0.28634 0.89795 0.0
C388 C 0.12121 0.31518 0.89861 0.0
C389 C 0.1407 0.33169 0.91322 0.0
C390 C 0.06776 0.25864 0.84756 0.0
C391 C 0.05867 0.23522 0.86308 0.0
C392 C 0.08928 0.27522 0.85864 0.0
C393 C 0.10225 0.2685 0.88528 0.0
C394 C 0.09341 0.24489 0.9005 0.0
C395 C 0.0719 0.22849 0.88958 0.0
H396 H 0.80354 0.71216 0.43715 0.0
H397 H 0.85588 0.64127 0.42059 0.0
H398 H 0.83665 0.74151 0.41104 0.0
H399 H 0.88902 0.6706 0.39462 0.0
H400 H 0.9338 0.72756 0.3313 0.0
H401 H 0.8958 0.69925 0.35079 0.0
H402 H 0.88358 0.75831 0.42045 0.0
H403 H 0.92083 0.78672 0.40087 0.0
C404 C 0.82216 0.70288 0.428 0.0
C405 C 0.82721 0.67446 0.43107 0.0
C406 C 0.84107 0.71965 0.41299 0.0
C407 C 0.86546 0.70837 0.4008 0.0
C408 C 0.87021 0.67984 0.40335 0.0
C409 C 0.85128 0.66306 0.41832 0.0
C410 C 0.92275 0.73464 0.35054 0.0
C411 C 0.93054 0.75929 0.36463 0.0
C412 C 0.90112 0.71836 0.3618 0.0
C413 C 0.88679 0.72651 0.38722 0.0
C414 C 0.89397 0.75159 0.40065 0.0
C415 C 0.91555 0.76778 0.38951 0.0
H416 H 0.85276 0.35562 0.91285 0.0
H417 H 0.80033 0.28443 0.92841 0.0
H418 H 0.8858 0.3266 0.88624 0.0
H419 H 0.83331 0.25548 0.90183 0.0
H420 H 0.91798 0.21123 0.89722 0.0
H421 H 0.88072 0.24049 0.91498 0.0
H422 H 0.89336 0.29612 0.84231 0.0
H423 H 0.93133 0.26671 0.82441 0.0
C424 C 0.84804 0.33389 0.91009 0.0
C425 C 0.82418 0.32219 0.92305 0.0
C426 C 0.86691 0.31731 0.8948 0.0
C427 C 0.86223 0.28876 0.89223 0.0
C428 C 0.83767 0.27735 0.90393 0.0
C429 C 0.81885 0.29389 0.9192 0.0
C430 C 0.91287 0.22963 0.88487 0.0
C431 C 0.9278 0.23675 0.85948 0.0
C432 C 0.89127 0.24627 0.89493 0.0
C433 C 0.88404 0.2705 0.87995 0.0
C434 C 0.89863 0.27756 0.85433 0.0
C435 C 0.92024 0.26071 0.84405 0.0
H436 H 0.16674 0.6453 0.39755 0.0
H437 H 0.15106 0.69116 0.47702 0.0
H438 H 0.13013 0.67128 0.37291 0.0
H439 H 0.11637 0.71848 0.45189 0.0
H440 H 0.03683 0.74549 0.41169 0.0
H441 H 0.07104 0.71513 0.43383 0.0
H442 H 0.11857 0.71531 0.35337 0.0
H443 H 0.08316 0.74472 0.33071 0.0
C444 C 0.15556 0.66092 0.40978 0.0
C445 C 0.16189 0.66605 0.43935 0.0
C446 C 0.13483 0.6761 0.39551 0.0
C447 C 0.12013 0.69692 0.4104 0.0
C448 C 0.12678 0.70224 0.43982 0.0
C449 C 0.14714 0.68686 0.45416 0.0
C450 C 0.05451 0.73889 0.39868 0.0
C451 C 0.05755 0.74764 0.36961 0.0
C452 C 0.07426 0.72163 0.41142 0.0
C453 C 0.09793 0.71318 0.39562 0.0
C454 C 0.10053 0.72126 0.36615 0.0
C455 C 0.08035 0.73817 0.35318 0.0
H456 H 0.67795 0.83013 0.90194 0.0
H457 H 0.62932 0.82273 0.98113 0.0
H458 H 0.64506 0.79969 0.87666 0.0
H459 H 0.59663 0.79241 0.95598 0.0
H460 H 0.56561 0.71347 0.91529 0.0
H461 H 0.59896 0.74517 0.93682 0.0
H462 H 0.59555 0.79623 0.85948 0.0
H463 H 0.56209 0.76411 0.83745 0.0
C464 C 0.66006 0.82229 0.91382 0.0
C465 C 0.65636 0.82857 0.94361 0.0
C466 C 0.64127 0.80487 0.89936 0.0
C467 C 0.61849 0.79341 0.91445 0.0
C468 C 0.61435 0.80044 0.94395 0.0
C469 C 0.63306 0.81779 0.95836 0.0
C470 C 0.57193 0.73137 0.9027 0.0
C471 C 0.56089 0.73638 0.87471 0.0
C472 C 0.59098 0.74963 0.91517 0.0
C473 C 0.5995 0.77341 0.90004 0.0
C474 C 0.58933 0.77802 0.87163 0.0
C475 C 0.57016 0.75966 0.85906 0.0
H476 H 0.35913 0.17672 0.47325 0.0
H477 H 0.31381 0.16571 0.39242 0.0
H478 H 0.39246 0.20645 0.44829 0.0
H479 H 0.34729 0.19566 0.36732 0.0
H480 H 0.43185 0.22922 0.33002 0.0
H481 H 0.39712 0.19843 0.35202 0.0
H482 H 0.39154 0.25256 0.42689 0.0
H483 H 0.42622 0.28288 0.40542 0.0
C484 C 0.3562 0.18082 0.45017 0.0
C485 C 0.33372 0.16911 0.43486 0.0
C486 C 0.37528 0.19784 0.43586 0.0
C487 C 0.3723 0.20362 0.40591 0.0
C488 C 0.35021 0.19141 0.39037 0.0
C489 C 0.33106 0.17431 0.40473 0.0
C490 C 0.42302 0.23461 0.35106 0.0
C491 C 0.43209 0.25831 0.36612 0.0
C492 C 0.40312 0.21702 0.36361 0.0
C493 C 0.39196 0.22289 0.39137 0.0
C494 C 0.40026 0.24713 0.4058 0.0
C495 C 0.42008 0.26458 0.39338 0.0
H496 H 0.30252 0.78475 0.93171 0.0
H497 H 0.35463 0.85593 0.915 0.0
H498 H 0.33647 0.75529 0.90722 0.0
H499 H 0.3887 0.82638 0.89052 0.0
H500 H 0.43586 0.76538 0.83139 0.0
H501 H 0.39758 0.79507 0.84792 0.0
H502 H 0.38343 0.74062 0.92128 0.0
H503 H 0.42095 0.71104 0.90483 0.0
C504 C 0.32123 0.79409 0.92276 0.0
C505 C 0.32612 0.82256 0.92561 0.0
C506 C 0.34061 0.77725 0.90868 0.0
C507 C 0.36534 0.78851 0.8972 0.0
C508 C 0.3697 0.81717 0.89891 0.0
C509 C 0.35025 0.83406 0.91299 0.0
C510 C 0.42438 0.75969 0.85088 0.0
C511 C 0.43158 0.73594 0.86686 0.0
C512 C 0.40259 0.77673 0.86039 0.0
C513 C 0.38748 0.77009 0.88582 0.0
C514 C 0.39438 0.74608 0.90137 0.0
C515 C 0.41613 0.72925 0.89204 0.0
H516 H 0.62723 0.149 0.44608 0.0
H517 H 0.6937 0.19799 0.40893 0.0
H518 H 0.59271 0.17772 0.4207 0.0
H519 H 0.65915 0.22714 0.38415 0.0
H520 H 0.58182 0.28985 0.38895 0.0
H521 H 0.61814 0.2596 0.40846 0.0
H522 H 0.58195 0.19038 0.36258 0.0
H523 H 0.54587 0.22079 0.34231 0.0
C524 C 0.63435 0.16591 0.43246 0.0
C525 C 0.66295 0.17145 0.42938 0.0
C526 C 0.61472 0.18214 0.41786 0.0
C527 C 0.62345 0.20445 0.40052 0.0
C528 C 0.65206 0.20997 0.39742 0.0
C529 C 0.6717 0.19337 0.41149 0.0
C530 C 0.58178 0.26822 0.38281 0.0
C531 C 0.56106 0.25759 0.36419 0.0
C532 C 0.60258 0.25103 0.39385 0.0
C533 C 0.60265 0.2228 0.38698 0.0
C534 C 0.58216 0.21213 0.36815 0.0
C535 C 0.5617 0.2295 0.35651 0.0
H536 H 0.32301 0.49854 0.90046 0.0
H537 H 0.33609 0.54058 0.98273 0.0
H538 H 0.35433 0.53097 0.87648 0.0
H539 H 0.36891 0.57169 0.95925 0.0
H540 H 0.41463 0.63572 0.90718 0.0
H541 H 0.37611 0.60842 0.92649 0.0
H542 H 0.40294 0.5387 0.8745 0.0
H543 H 0.44066 0.56642 0.85428 0.0
C544 C 0.33228 0.51488 0.9134 0.0
C545 C 0.32719 0.51676 0.94362 0.0
C546 C 0.35062 0.53324 0.89971 0.0
C547 C 0.36453 0.55374 0.91596 0.0
C548 C 0.35849 0.55633 0.94593 0.0
C549 C 0.33992 0.5382 0.95953 0.0
C550 C 0.4122 0.61459 0.89979 0.0
C551 C 0.43081 0.60315 0.87936 0.0
C552 C 0.39016 0.59889 0.91093 0.0
C553 C 0.38644 0.57126 0.90222 0.0
C554 C 0.40481 0.56003 0.88137 0.0
C555 C 0.42662 0.57585 0.86992 0.0
H556 H 0.65493 0.50546 0.40268 0.0
H557 H 0.67496 0.44204 0.46556 0.0
H558 H 0.6221 0.4744 0.37885 0.0
H559 H 0.64265 0.41047 0.44122 0.0
H560 H 0.55601 0.37801 0.41664 0.0
H561 H 0.59348 0.40572 0.43705 0.0
H562 H 0.61549 0.43384 0.35032 0.0
H563 H 0.57721 0.40677 0.32993 0.0
C564 C 0.65278 0.4846 0.41095 0.0
C565 C 0.66738 0.47615 0.43601 0.0
C566 C 0.63399 0.46675 0.39727 0.0
C567 C 0.62957 0.43996 0.40821 0.0
C568 C 0.64512 0.43115 0.43258 0.0
C569 C 0.66371 0.44913 0.44645 0.0
C570 C 0.56889 0.39001 0.40186 0.0
C571 C 0.56348 0.39032 0.37166 0.0
C572 C 0.59057 0.40575 0.41357 0.0
C573 C 0.60759 0.42199 0.39535 0.0
C574 C 0.60253 0.42188 0.36504 0.0
C575 C 0.58063 0.40632 0.35334 0.0
H576 H 0.69067 0.53128 0.91983 0.0
H577 H 0.62976 0.51217 0.98668 0.0
H578 H 0.65722 0.56235 0.89657 0.0
H579 H 0.5969 0.5437 0.9639 0.0
H580 H 0.55459 0.62132 0.92983 0.0
H581 H 0.59112 0.59434 0.95327 0.0
H582 H 0.61067 0.55587 0.8706 0.0
H583 H 0.57415 0.58292 0.8469 0.0
C584 C 0.67027 0.53377 0.92965 0.0
C585 C 0.66294 0.5192 0.95514 0.0
C586 C 0.65117 0.55158 0.91634 0.0
C587 C 0.62452 0.55538 0.92846 0.0
C588 C 0.61746 0.54143 0.95433 0.0
C589 C 0.63638 0.52346 0.96745 0.0
C590 C 0.56672 0.60723 0.91655 0.0
C591 C 0.5613 0.60415 0.8865 0.0
C592 C 0.58758 0.59174 0.93004 0.0
C593 C 0.60364 0.57302 0.91375 0.0
C594 C 0.59873 0.57035 0.8836 0.0
C595 C 0.57767 0.58568 0.87012 0.0
H596 H 0.37416 0.5089 0.44508 0.0
H597 H 0.30666 0.45024 0.43681 0.0
H598 H 0.40488 0.47788 0.41803 0.0
H599 H 0.33766 0.41887 0.40979 0.0
H600 H 0.41833 0.36176 0.40266 0.0
H601 H 0.38304 0.39191 0.42426 0.0
H602 H 0.40777 0.4576 0.36591 0.0
H603 H 0.44295 0.42757 0.3441 0.0
C604 C 0.36596 0.48933 0.43741 0.0
C605 C 0.33819 0.48179 0.4431 0.0
C606 C 0.38343 0.47172 0.42177 0.0
C607 C 0.37356 0.44608 0.41183 0.0
C608 C 0.34571 0.43854 0.41734 0.0
C609 C 0.32803 0.45643 0.43262 0.0
C610 C 0.41611 0.38257 0.39429 0.0
C611 C 0.4336 0.39237 0.37185 0.0
C612 C 0.39578 0.3997 0.4065 0.0
C613 C 0.39284 0.42703 0.39676 0.0
C614 C 0.4098 0.43663 0.37388 0.0
C615 C 0.42985 0.4194 0.36138 0.0
H616 H 0.80168 0.04449 0.93838 0.0
H617 H 0.86932 0.98613 0.94584 0.0
H618 H 0.83242 0.07608 0.91118 0.0
H619 H 0.89978 0.01736 0.91866 0.0
H620 H 0.93708 0.06734 0.84435 0.0
H621 H 0.90203 0.03744 0.86659 0.0
H622 H 0.87801 0.10335 0.92492 0.0
H623 H 0.91321 0.13345 0.90284 0.0
C624 C 0.82302 0.03841 0.93398 0.0
C625 C 0.83329 0.01307 0.94426 0.0
C626 C 0.84056 0.05644 0.91861 0.0
C627 C 0.86837 0.04904 0.91284 0.0
C628 C 0.87835 0.02342 0.92261 0.0
C629 C 0.86103 0.00569 0.93832 0.0
C630 C 0.92418 0.07561 0.86172 0.0
C631 C 0.92812 0.1027 0.87203 0.0
C632 C 0.90418 0.05845 0.87446 0.0
C633 C 0.88747 0.06812 0.89748 0.0
C634 C 0.89056 0.0955 0.90706 0.0
C635 C 0.91084 0.11261 0.89457 0.0
H636 H 0.1792 0.93738 0.47189 0.0
H637 H 0.15863 -0.00169 0.4065 0.0
H638 H 0.14816 0.90421 0.44802 0.0
H639 H 0.12706 0.96578 0.3832 0.0
H640 H 0.08489 0.89753 0.33481 0.0
H641 H 0.12263 0.92485 0.35567 0.0
H642 H 0.09955 0.89684 0.44217 0.0
H643 H 0.0626 0.86864 0.42112 0.0
C644 C 0.16809 0.94359 0.45235 0.0
C645 C 0.17132 0.97034 0.44098 0.0
C646 C 0.15022 0.92469 0.43874 0.0
C647 C 0.13499 0.93231 0.41371 0.0
C648 C 0.13881 0.95894 0.40206 0.0
C649 C 0.15687 0.97767 0.41546 0.0
C650 C 0.08802 0.89707 0.35826 0.0
C651 C 0.07061 0.88113 0.37635 0.0
C652 C 0.1096 0.91282 0.37025 0.0
C653 C 0.11401 0.91331 0.40066 0.0
C654 C 0.09705 0.89671 0.41864 0.0
C655 C 0.07571 0.88066 0.40659 0.0
H656 H 0.18544 0.0274 0.90428 0.0
H657 H 0.12547 0.01228 0.97317 0.0
H658 H 0.15232 0.05862 0.88058 0.0
H659 H 0.09301 0.04383 0.94995 0.0
H660 H 0.05295 0.1221 0.91642 0.0
H661 H 0.08937 0.09433 0.93877 0.0
H662 H 0.1047 0.05414 0.85604 0.0
H663 H 0.06823 0.08209 0.83334 0.0
C664 C 0.1653 0.03075 0.91441 0.0
C665 C 0.15821 0.01744 0.94074 0.0
C666 C 0.1464 0.04863 0.90086 0.0
C667 C 0.12021 0.0537 0.91353 0.0
C668 C 0.11326 0.04067 0.93996 0.0
C669 C 0.13197 0.02268 0.95333 0.0
C670 C 0.06412 0.10748 0.90285 0.0
C671 C 0.05746 0.10417 0.8731 0.0
C672 C 0.08494 0.09153 0.91573 0.0
C673 C 0.09971 0.07202 0.89916 0.0
C674 C 0.09372 0.06919 0.86925 0.0
C675 C 0.07271 0.08505 0.85634 0.0
H676 H 0.81766 0.9777 0.39508 0.0
H677 H 0.87545 0.99117 0.46627 0.0
H678 H 0.85082 0.94563 0.37255 0.0
H679 H 0.90802 0.95895 0.44413 0.0
H680 H 0.94315 0.87645 0.41541 0.0
H681 H 0.90849 0.908 0.43497 0.0
H682 H 0.89976 0.94603 0.35009 0.0
H683 H 0.93452 0.91422 0.33016 0.0
C684 C 0.83742 0.97393 0.40583 0.0
C685 C 0.84376 0.9867 0.43266 0.0
C686 C 0.85634 0.9556 0.39295 0.0
C687 C 0.88181 0.94964 0.40679 0.0
C688 C 0.88829 0.96275 0.4333 0.0
C689 C 0.86956 0.98112 0.44602 0.0
C690 C 0.93385 0.89142 0.40078 0.0
C691 C 0.94181 0.89291 0.37122 0.0
C692 C 0.91406 0.90957 0.41207 0.0
C693 C 0.90163 0.92955 0.39409 0.0
C694 C 0.90897 0.93071 0.36438 0.0
C695 C 0.92898 0.91262 0.35306 0.0
H696 H 0.34551 0.32179 0.11649 0.0
H697 H 0.3073 0.38334 0.1718 0.0
H698 H 0.37909 0.31131 0.15504 0.0
H699 H 0.34055 0.37263 0.21053 0.0
H700 H 0.42832 0.37779 0.24942 0.0
H701 H 0.38987 0.38215 0.21538 0.0
H702 H 0.38786 0.29354 0.20438 0.0
H703 H 0.42702 0.28906 0.23829 0.0
C704 C 0.34383 0.33253 0.13719 0.0
C705 C 0.32402 0.35359 0.14106 0.0
C706 C 0.36306 0.32654 0.15928 0.0
C707 C 0.36277 0.34145 0.18567 0.0
C708 C 0.34175 0.36123 0.19018 0.0
C709 C 0.32264 0.3673 0.16808 0.0
C710 C 0.41974 0.35914 0.23988 0.0
C711 C 0.43092 0.33306 0.24659 0.0
C712 C 0.39744 0.36165 0.22052 0.0
C713 C 0.38562 0.33817 0.20733 0.0
C714 C 0.39662 0.31203 0.21407 0.0
C715 C 0.41901 0.30948 0.23355 0.0
H716 H 0.62784 0.5986 0.62788 0.0
H717 H 0.68499 0.66317 0.65419 0.0
H718 H 0.59734 0.61016 0.66844 0.0
H719 H 0.65372 0.67518 0.69477 0.0
H720 H 0.56811 0.70063 0.7427 0.0
H721 H 0.6026 0.6931 0.70383 0.0
H722 H 0.60292 0.60589 0.72334 0.0
H723 H 0.56888 0.6131 0.76177 0.0
C724 C 0.63405 0.61514 0.64246 0.0
C725 C 0.65919 0.62958 0.6381 0.0
C726 C 0.61647 0.62184 0.66563 0.0
C727 C 0.62337 0.64331 0.68494 0.0
C728 C 0.64794 0.65853 0.68014 0.0
C729 C 0.66578 0.65166 0.65693 0.0
C730 C 0.5758 0.67992 0.7389 0.0
C731 C 0.56535 0.65744 0.75511 0.0
C732 C 0.59558 0.67566 0.71673 0.0
C733 C 0.60505 0.64886 0.71036 0.0
C734 C 0.59557 0.62669 0.72744 0.0
C735 C 0.57606 0.6309 0.74953 0.0
H736 H 0.68902 0.37867 0.17498 0.0
H737 H 0.64925 0.32057 0.11665 0.0
H738 H 0.65544 0.36697 0.21314 0.0
H739 H 0.61537 0.30908 0.1547 0.0
H740 H 0.56568 0.28602 0.23742 0.0
H741 H 0.60554 0.28987 0.20408 0.0
H742 H 0.60609 0.37833 0.21642 0.0
H743 H 0.56702 0.37463 0.24964 0.0
C744 C 0.6733 0.36313 0.17049 0.0
C745 C 0.6715 0.35079 0.14278 0.0
C746 C 0.65404 0.35647 0.19227 0.0
C747 C 0.63245 0.33747 0.18673 0.0
C748 C 0.63183 0.3237 0.15968 0.0
C749 C 0.65122 0.33028 0.13789 0.0
C750 C 0.57441 0.30625 0.23307 0.0
C751 C 0.56304 0.33 0.2462 0.0
C752 C 0.5972 0.30844 0.21396 0.0
C753 C 0.60914 0.33437 0.20786 0.0
C754 C 0.5978 0.35798 0.22112 0.0
C755 C 0.57511 0.35584 0.23999 0.0
H756 H 0.34976 0.66901 0.62286 0.0
H757 H 0.31247 0.60656 0.67783 0.0
H758 H 0.38325 0.67987 0.66144 0.0
H759 H 0.34555 0.61769 0.71662 0.0
H760 H 0.43314 0.61348 0.75545 0.0
H761 H 0.39498 0.6088 0.72112 0.0
H762 H 0.39194 0.69746 0.71091 0.0
H763 H 0.43083 0.70227 0.74513 0.0
C764 C 0.34825 0.65816 0.64351 0.0
C765 C 0.32877 0.63673 0.64729 0.0
C766 C 0.36742 0.66437 0.66561 0.0
C767 C 0.36735 0.64931 0.6919 0.0
C768 C 0.34658 0.62919 0.69634 0.0
C769 C 0.32757 0.62289 0.67422 0.0
C770 C 0.42441 0.63207 0.74601 0.0
C771 C 0.43518 0.65827 0.75308 0.0
C772 C 0.40228 0.62937 0.72648 0.0
C773 C 0.3902 0.65277 0.71351 0.0
C774 C 0.40089 0.67903 0.72047 0.0
C775 C 0.42314 0.68176 0.7401 0.0
H776 H 0.84399 0.82409 0.12303 0.0
H777 H 0.81626 0.89107 0.17819 0.0
H778 H 0.87936 0.81189 0.15923 0.0
H779 H 0.85146 0.87881 0.21442 0.0
H780 H 0.94167 0.87667 0.24624 0.0
H781 H 0.90229 0.88352 0.21381 0.0
H782 H 0.88919 0.79532 0.20955 0.0
H783 H 0.92913 0.78824 0.24195 0.0
C784 C 0.84498 0.83574 0.14323 0.0
C785 C 0.8276 0.85873 0.14767 0.0
C786 C 0.86526 0.82878 0.16393 0.0
C787 C 0.86849 0.84469 0.18943 0.0
C788 C 0.8499 0.86657 0.19466 0.0
C789 C 0.8297 0.87354 0.17399 0.0
C790 C 0.93052 0.85864 0.23844 0.0
C791 C 0.93866 0.83187 0.24676 0.0
C792 C 0.90772 0.86262 0.22003 0.0
C793 C 0.89242 0.83998 0.2094 0.0
C794 C 0.90064 0.81316 0.21736 0.0
C795 C 0.92349 0.80914 0.23594 0.0
H796 H 0.14681 0.16714 0.61552 0.0
H797 H 0.17903 0.10146 0.66964 0.0
H798 H 0.11335 0.17917 0.65376 0.0
H799 H 0.14594 0.11368 0.70802 0.0
H800 H 0.05774 0.11404 0.74529 0.0
H801 H 0.09588 0.10782 0.7113 0.0
H802 H 0.10526 0.1963 0.70388 0.0
H803 H 0.06633 0.20274 0.73788 0.0
C804 C 0.14719 0.15574 0.63589 0.0
C805 C 0.16525 0.13315 0.6395 0.0
C806 C 0.12804 0.16263 0.6578 0.0
C807 C 0.12671 0.1471 0.68373 0.0
C808 C 0.14601 0.12563 0.688 0.0
C809 C 0.165 0.11866 0.66609 0.0
C810 C 0.06784 0.1323 0.73656 0.0
C811 C 0.05883 0.15894 0.74436 0.0
C812 C 0.08998 0.12868 0.71722 0.0
C813 C 0.10383 0.15156 0.70511 0.0
C814 C 0.09492 0.17826 0.71279 0.0
C815 C 0.07267 0.18193 0.7323 0.0
H816 H 0.16463 0.81424 0.12436 0.0
H817 H 0.16656 0.89659 0.16072 0.0
H818 H 0.1362 0.7987 0.16553 0.0
H819 H 0.13683 0.88174 0.20046 0.0
H820 H 0.09461 0.85024 0.27824 0.0
H821 H 0.13236 0.85649 0.2433 0.0
H822 H 0.08956 0.80292 0.18221 0.0
H823 H 0.05259 0.79541 0.21823 0.0
C824 C 0.15927 0.82895 0.14128 0.0
C825 C 0.16762 0.85674 0.13908 0.0
C826 C 0.14265 0.82013 0.1647 0.0
C827 C 0.13397 0.83893 0.18633 0.0
C828 C 0.14332 0.86646 0.18458 0.0
C829 C 0.16007 0.87515 0.16144 0.0
C830 C 0.0936 0.83942 0.25751 0.0
C831 C 0.07063 0.82262 0.25069 0.0
C832 C 0.11512 0.84314 0.23737 0.0
C833 C 0.11378 0.83077 0.20957 0.0
C834 C 0.09146 0.81266 0.20343 0.0
C835 C 0.07018 0.80842 0.22396 0.0
H836 H 0.82355 0.08966 0.66179 0.0
H837 H 0.8253 0.17296 0.62794 0.0
H838 H 0.85601 0.1027 0.69979 0.0
H839 H 0.85616 0.18676 0.6677 0.0
H840 H 0.94174 0.18958 0.71474 0.0
H841 H 0.90306 0.18215 0.68086 0.0
H842 H 0.86519 0.12563 0.74261 0.0
H843 H 0.90478 0.13172 0.77519 0.0
C844 C 0.83051 0.11094 0.66276 0.0
C845 C 0.82221 0.1301 0.64142 0.0
C846 C 0.84888 0.1186 0.68495 0.0
C847 C 0.85903 0.14584 0.68687 0.0
C848 C 0.8493 0.16547 0.6666 0.0
C849 C 0.8312 0.15766 0.64404 0.0
C850 C 0.92498 0.17573 0.72097 0.0
C851 C 0.92639 0.16083 0.74721 0.0
C852 C 0.90265 0.17159 0.70172 0.0
C853 C 0.88101 0.15295 0.70871 0.0
C854 C 0.8818 0.13945 0.73595 0.0
C855 C 0.90441 0.14303 0.75474 0.0
loop_
_geom_bond_atom_site_label_1
_geom_bond_atom_site_label_2
_geom_bond_distance
_geom_bond_site_symmetry_2
_ccdc_geom_bond_type
C0 C1 1.384 . S
C0 H13 0.947 . S
C0 C35 1.382 . S
C1 C0 1.384 . S
C1 C2 1.378 . S
C2 C1 1.378 . S
C2 C3 1.378 . S
C2 H14 0.952 . S
C3 C2 1.378 . S
C3 H15 0.950 . S
C3 C34 1.383 . S
H4 C23 0.947 . S
H5 C24 0.946 1_554 S
H6 C26 0.953 . S
H7 C27 0.945 . S
H8 C29 0.952 . S
H9 C30 0.949 . S
H10 C32 0.950 . S
H11 C33 0.948 1_554 S
H12 C35 0.951 . S
H13 C0 0.947 . S
H14 C2 0.952 . S
H15 C3 0.950 . S
N16 C19 1.382 1_554 S
N16 C21 1.363 . S
N17 C19 1.371 . S
N17 C20 1.372 . S
N18 C20 1.361 1_554 S
N18 C21 1.377 . S
C19 N16 1.382 1_556 S
C19 N17 1.371 . S
C19 C22 1.480 . S
C20 N17 1.372 . S
C20 N18 1.361 1_556 S
C20 C28 1.457 . S
C21 N16 1.363 . S
C21 N18 1.377 . S
C21 C34 1.479 . S
C22 C19 1.480 . S
C22 C23 1.383 1_556 S
C22 C27 1.385 . S
C23 H4 0.947 . S
C23 C22 1.383 1_554 S
C23 C24 1.388 1_554 S
C24 H5 0.946 1_556 S
C24 C23 1.388 1_556 S
C24 C25 1.384 . S
C25 C24 1.384 . S
C25 C26 1.377 . S
C26 H6 0.953 . S
C26 C25 1.377 . S
C26 C27 1.369 . S
C27 H7 0.945 . S
C27 C22 1.385 . S
C27 C26 1.369 . S
C28 C20 1.457 . S
C28 C29 1.372 . S
C28 C33 1.364 . S
C29 H8 0.952 . S
C29 C28 1.372 . S
C29 C30 1.389 . S
C30 H9 0.949 . S
C30 C29 1.389 . S
C30 C31 1.387 . S
C31 C30 1.387 . S
C31 C32 1.372 . S
C32 H10 0.950 . S
C32 C31 1.372 . S
C32 C33 1.379 . S
C33 H11 0.948 1_556 S
C33 C28 1.364 . S
C33 C32 1.379 . S
C34 C3 1.383 . S
C34 C21 1.479 . S
C34 C35 1.398 . S
C35 C0 1.382 . S
C35 H12 0.951 . S
C35 C34 1.398 . S
C36 C37 1.384 . S
C36 H49 0.947 . S
C36 C71 1.382 . S
C37 C36 1.384 . S
C37 C38 1.378 . S
C38 C37 1.378 . S
C38 C39 1.378 . S
C38 H50 0.952 . S
C39 C38 1.378 . S
C39 H51 0.950 . S
C39 C70 1.383 . S
H40 C59 0.947 . S
H41 C60 0.946 . S
H42 C62 0.953 . S
H43 C63 0.945 . S
H44 C65 0.952 . S
H45 C66 0.949 . S
H46 C68 0.950 . S
H47 C69 0.948 . S
H48 C71 0.951 . S
H49 C36 0.947 . S
H50 C38 0.952 . S
H51 C39 0.950 . S
N52 C55 1.382 . S
N52 C57 1.363 . S
N53 C55 1.371 . S
N53 C56 1.372 . S
N54 C56 1.361 . S
N54 C57 1.377 . S
C55 N52 1.382 . S
C55 N53 1.371 . S
C55 C58 1.480 . S
C56 N53 1.372 . S
C56 N54 1.361 . S
C56 C64 1.457 . S
C57 N52 1.363 . S
C57 N54 1.377 . S
C57 C70 1.479 . S
C58 C55 1.480 . S
C58 C59 1.383 . S
C58 C63 1.385 . S
C59 H40 0.947 . S
C59 C58 1.383 . S
C59 C60 1.388 . S
C60 H41 0.946 . S
C60 C59 1.388 . S
C60 C61 1.384 . S
C61 C60 1.384 . S
C61 C62 1.377 . S
C62 H42 0.953 . S
C62 C61 1.377 . S
C62 C63 1.369 . S
C63 H43 0.945 . S
C63 C58 1.385 . S
C63 C62 1.369 . S
C64 C56 1.457 . S
C64 C65 1.372 . S
C64 C69 1.364 . S
C65 H44 0.952 . S
C65 C64 1.372 . S
C65 C66 1.389 . S
C66 H45 0.949 . S
C66 C65 1.389 . S
C66 C67 1.387 . S
C67 C66 1.387 . S
C67 C68 1.372 . S
C68 H46 0.950 . S
C68 C67 1.372 . S
C68 C69 1.379 . S
C69 H47 0.948 . S
C69 C64 1.364 . S
C69 C68 1.379 . S
C70 C39 1.383 . S
C70 C57 1.479 . S
C70 C71 1.398 . S
C71 C36 1.382 . S
C71 H48 0.951 . S
C71 C70 1.398 . S
C72 C73 1.384 . S
C72 H85 0.947 . S
C72 C107 1.382 . S
C73 C72 1.384 . S
C73 C74 1.378 . S
C74 C73 1.378 . S
C74 C75 1.378 . S
C74 H86 0.952 . S
C75 C74 1.378 . S
C75 H87 0.950 . S
C75 C106 1.383 . S
H76 C95 0.947 . S
H77 C96 0.961 . S
H78 C98 0.953 . S
H79 C99 0.945 . S
H80 C101 0.952 . S
H81 C102 0.949 . S
H82 C104 0.950 . S
H83 C105 0.948 1_554 S
H84 C107 0.951 . S
H85 C72 0.947 . S
H86 C74 0.952 . S
H87 C75 0.950 . S
N88 C91 1.382 . S
N88 C93 1.363 . S
N89 C91 1.371 1_556 S
N89 C92 1.372 . S
N90 C92 1.361 1_554 S
N90 C93 1.377 . S
C91 N88 1.382 . S
C91 N89 1.371 1_554 S
C91 C94 1.480 1_554 S
C92 N89 1.372 . S
C92 N90 1.361 1_556 S
C92 C100 1.457 . S
C93 N88 1.363 . S
C93 N90 1.377 . S
C93 C106 1.479 . S
C94 C91 1.480 1_556 S
C94 C95 1.383 1_556 S
C94 C99 1.385 . S
C95 H76 0.947 . S
C95 C94 1.383 1_554 S
C95 C96 1.388 1_554 S
C96 H77 0.961 . S
C96 C95 1.388 1_556 S
C96 C97 1.384 . S
C97 C96 1.384 . S
C97 C98 1.377 . S
C98 H78 0.953 . S
C98 C97 1.377 . S
C98 C99 1.369 . S
C99 H79 0.945 . S
C99 C94 1.385 . S
C99 C98 1.369 . S
C100 C92 1.457 . S
C100 C101 1.372 . S
C100 C105 1.364 . S
C101 H80 0.952 . S
C101 C100 1.372 . S
C101 C102 1.389 . S
C102 H81 0.949 . S
C102 C101 1.389 . S
C102 C103 1.387 . S
C103 C102 1.387 . S
C103 C104 1.372 . S
C104 H82 0.950 . S
C104 C103 1.372 . S
C104 C105 1.379 . S
C105 H83 0.948 1_556 S
C105 C100 1.364 . S
C105 C104 1.379 . S
C106 C75 1.383 . S
C106 C93 1.479 . S
C106 C107 1.398 . S
C107 C72 1.382 . S
C107 H84 0.951 . S
C107 C106 1.398 . S
C108 C109 1.384 . S
C108 H121 0.947 . S
C108 C143 1.382 . S
C109 C108 1.384 . S
C109 C110 1.378 . S
C110 C109 1.378 . S
C110 C111 1.378 . S
C110 H122 0.952 . S
C111 C110 1.378 . S
C111 H123 0.950 . S
C111 C142 1.383 . S
H112 C131 0.947 . S
H113 C132 0.946 . S
H114 C134 0.953 . S
H115 C135 0.945 . S
H116 C137 0.952 . S
H117 C138 0.949 . S
H118 C140 0.950 . S
H119 C141 0.948 . S
H120 C143 0.951 . S
H121 C108 0.947 . S
H122 C110 0.952 . S
H123 C111 0.950 . S
N124 C127 1.382 . S
N124 C129 1.363 . S
N125 C127 1.371 . S
N125 C128 1.372 . S
N126 C128 1.361 . S
N126 C129 1.377 . S
C127 N124 1.382 . S
C127 N125 1.371 . S
C127 C130 1.480 . S
C128 N125 1.372 . S
C128 N126 1.361 . S
C128 C136 1.457 . S
C129 N124 1.363 . S
C129 N126 1.377 . S
C129 C142 1.479 . S
C130 C127 1.480 . S
C130 C131 1.383 . S
C130 C135 1.385 . S
C131 H112 0.947 . S
C131 C130 1.383 . S
C131 C132 1.388 . S
C132 H113 0.946 . S
C132 C131 1.388 . S
C132 C133 1.384 . S
C133 C132 1.384 . S
C133 C134 1.377 . S
C134 H114 0.953 . S
C134 C133 1.377 . S
C134 C135 1.369 . S
C135 H115 0.945 . S
C135 C130 1.385 . S
C135 C134 1.369 . S
C136 C128 1.457 . S
C136 C137 1.372 . S
C136 C141 1.364 . S
C137 H116 0.952 . S
C137 C136 1.372 . S
C137 C138 1.389 . S
C138 H117 0.949 . S
C138 C137 1.389 . S
C138 C139 1.387 . S
C139 C138 1.387 . S
C139 C140 1.372 . S
C140 H118 0.950 . S
C140 C139 1.372 . S
C140 C141 1.379 . S
C141 H119 0.948 . S
C141 C136 1.364 . S
C141 C140 1.379 . S
C142 C111 1.383 . S
C142 C129 1.479 . S
C142 C143 1.398 . S
C143 C108 1.382 . S
C143 H120 0.951 . S
C143 C142 1.398 . S
C144 C145 1.384 . S
C144 H157 0.947 . S
C144 C179 1.382 . S
C145 C144 1.384 . S
C145 C146 1.378 . S
C146 C145 1.378 . S
C146 C147 1.378 . S
C146 H158 0.952 . S
C147 C146 1.378 . S
C147 H159 0.950 . S
C147 C178 1.383 . S
H148 C167 0.947 . S
H149 C168 0.946 1_554 S
H150 C170 0.953 . S
H151 C171 0.945 . S
H152 C173 0.952 . S
H153 C174 0.949 . S
H154 C176 0.950 . S
H155 C177 0.948 1_554 S
H156 C179 0.951 . S
H157 C144 0.947 . S
H158 C146 0.952 . S
H159 C147 0.950 . S
N160 C163 1.382 1_554 S
N160 C165 1.363 . S
N161 C163 1.371 . S
N161 C164 1.372 . S
N162 C164 1.361 1_554 S
N162 C165 1.377 . S
C163 N160 1.382 1_556 S
C163 N161 1.371 . S
C163 C166 1.480 . S
C164 N161 1.372 . S
C164 N162 1.361 1_556 S
C164 C172 1.457 . S
C165 N160 1.363 . S
C165 N162 1.377 . S
C165 C178 1.479 . S
C166 C163 1.480 . S
C166 C167 1.383 1_556 S
C166 C171 1.385 . S
C167 H148 0.947 . S
C167 C166 1.383 1_554 S
C167 C168 1.388 1_554 S
C168 H149 0.946 1_556 S
C168 C167 1.388 1_556 S
C168 C169 1.384 . S
C169 C168 1.384 . S
C169 C170 1.377 . S
C170 H150 0.953 . S
C170 C169 1.377 . S
C170 C171 1.369 . S
C171 H151 0.945 . S
C171 C166 1.385 . S
C171 C170 1.369 . S
C172 C164 1.457 . S
C172 C173 1.372 . S
C172 C177 1.364 . S
C173 H152 0.952 . S
C173 C172 1.372 . S
C173 C174 1.389 . S
C174 H153 0.949 . S
C174 C173 1.389 . S
C174 C175 1.387 . S
C175 C174 1.387 . S
C175 C176 1.372 . S
C176 H154 0.950 . S
C176 C175 1.372 . S
C176 C177 1.379 . S
C177 H155 0.948 1_556 S
C177 C172 1.364 . S
C177 C176 1.379 . S
C178 C147 1.383 . S
C178 C165 1.479 . S
C178 C179 1.398 . S
C179 C144 1.382 . S
C179 H156 0.951 . S
C179 C178 1.398 . S
C180 C181 1.384 . S
C180 H193 0.947 . S
C180 C215 1.382 . S
C181 C180 1.384 . S
C181 C182 1.378 . S
C182 C181 1.378 . S
C182 C183 1.378 . S
C182 H194 0.952 . S
C183 C182 1.378 . S
C183 H195 0.950 . S
C183 C214 1.383 . S
H184 C203 0.947 . S
H185 C204 0.946 . S
H186 C206 0.953 . S
H187 C207 0.945 . S
H188 C209 0.952 . S
H189 C210 0.949 . S
H190 C212 0.950 . S
H191 C213 0.948 . S
H192 C215 0.951 . S
H193 C180 0.947 . S
H194 C182 0.952 . S
H195 C183 0.950 . S
N196 C199 1.382 . S
N196 C201 1.363 . S
N197 C199 1.371 . S
N197 C200 1.372 . S
N198 C200 1.361 . S
N198 C201 1.377 . S
C199 N196 1.382 . S
C199 N197 1.371 . S
C199 C202 1.480 . S
C200 N197 1.372 . S
C200 N198 1.361 . S
C200 C208 1.457 . S
C201 N196 1.363 . S
C201 N198 1.377 . S
C201 C214 1.479 . S
C202 C199 1.480 . S
C202 C203 1.383 . S
C202 C207 1.385 . S
C203 H184 0.947 . S
C203 C202 1.383 . S
C203 C204 1.388 . S
C204 H185 0.946 . S
C204 C203 1.388 . S
C204 C205 1.384 . S
C205 C204 1.384 . S
C205 C206 1.377 . S
C206 H186 0.953 . S
C206 C205 1.377 . S
C206 C207 1.369 . S
C207 H187 0.945 . S
C207 C202 1.385 . S
C207 C206 1.369 . S
C208 C200 1.457 . S
C208 C209 1.372 . S
C208 C213 1.364 . S
C209 H188 0.952 . S
C209 C208 1.372 . S
C209 C210 1.389 . S
C210 H189 0.949 . S
C210 C209 1.389 . S
C210 C211 1.387 . S
C211 C210 1.387 . S
C211 C212 1.372 . S
C212 H190 0.950 . S
C212 C211 1.372 . S
C212 C213 1.379 . S
C213 H191 0.948 . S
C213 C208 1.364 . S
C213 C212 1.379 . S
C214 C183 1.383 . S
C214 C201 1.479 . S
C214 C215 1.398 . S
C215 C180 1.382 . S
C215 H192 0.951 . S
C215 C214 1.398 . S
C216 C217 1.384 . S
C216 H229 0.947 . S
C216 C251 1.382 . S
C217 C216 1.384 . S
C217 C218 1.378 . S
C218 C217 1.378 . S
C218 C219 1.378 . S
C218 H230 0.952 . S
C219 C218 1.378 . S
C219 H231 0.950 . S
C219 C250 1.383 . S
H220 C239 0.947 . S
H221 C240 0.961 . S
H222 C242 0.953 . S
H223 C243 0.945 . S
H224 C245 0.952 . S
H225 C246 0.949 . S
H226 C248 0.950 1_545 S
H227 C249 0.948 1_554 S
H228 C251 0.951 . S
H229 C216 0.947 . S
H230 C218 0.952 . S
H231 C219 0.950 . S
N232 C235 1.382 . S
N232 C237 1.363 . S
N233 C235 1.371 1_556 S
N233 C236 1.372 . S
N234 C236 1.361 1_554 S
N234 C237 1.377 . S
C235 N232 1.382 . S
C235 N233 1.371 1_554 S
C235 C238 1.480 1_554 S
C236 N233 1.372 . S
C236 N234 1.361 1_556 S
C236 C244 1.457 . S
C237 N232 1.363 . S
C237 N234 1.377 . S
C237 C250 1.479 . S
C238 C235 1.480 1_556 S
C238 C239 1.383 1_556 S
C238 C243 1.385 . S
C239 H220 0.947 . S
C239 C238 1.383 1_554 S
C239 C240 1.388 1_554 S
C240 H221 0.961 . S
C240 C239 1.388 1_556 S
C240 C241 1.384 . S
C241 C240 1.384 . S
C241 C242 1.377 . S
C242 H222 0.953 . S
C242 C241 1.377 . S
C242 C243 1.369 . S
C243 H223 0.945 . S
C243 C238 1.385 . S
C243 C242 1.369 . S
C244 C236 1.457 . S
C244 C245 1.372 . S
C244 C249 1.364 . S
C245 H224 0.952 . S
C245 C244 1.372 . S
C245 C246 1.389 . S
C246 H225 0.949 . S
C246 C245 1.389 . S
C246 C247 1.387 . S
C247 C246 1.387 . S
C247 C248 1.372 . S
C248 H226 0.950 1_565 S
C248 C247 1.372 . S
C248 C249 1.379 . S
C249 H227 0.948 1_556 S
C249 C244 1.364 . S
C249 C248 1.379 . S
C250 C219 1.383 . S
C250 C237 1.479 . S
C250 C251 1.398 . S
C251 C216 1.382 . S
C251 H228 0.951 . S
C251 C250 1.398 . S
C252 C253 1.384 . S
C252 H265 0.947 . S
C252 C287 1.382 . S
C253 C252 1.384 . S
C253 C254 1.378 . S
C254 C253 1.378 . S
C254 C255 1.378 . S
C254 H266 0.952 . S
C255 C254 1.378 . S
C255 H267 0.950 . S
C255 C286 1.383 . S
H256 C275 0.947 . S
H257 C276 0.946 . S
H258 C278 0.953 . S
H259 C279 0.945 . S
H260 C281 0.952 . S
H261 C282 0.949 . S
H262 C284 0.950 1_565 S
H263 C285 0.948 . S
H264 C287 0.951 . S
H265 C252 0.947 . S
H266 C254 0.952 . S
H267 C255 0.950 . S
N268 C271 1.382 . S
N268 C273 1.363 . S
N269 C271 1.371 . S
N269 C272 1.372 . S
N270 C272 1.361 . S
N270 C273 1.377 . S
C271 N268 1.382 . S
C271 N269 1.371 . S
C271 C274 1.480 . S
C272 N269 1.372 . S
C272 N270 1.361 . S
C272 C280 1.457 . S
C273 N268 1.363 . S
C273 N270 1.377 . S
C273 C286 1.479 . S
C274 C271 1.480 . S
C274 C275 1.383 . S
C274 C279 1.385 . S
C275 H256 0.947 . S
C275 C274 1.383 . S
C275 C276 1.388 . S
C276 H257 0.946 . S
C276 C275 1.388 . S
C276 C277 1.384 . S
C277 C276 1.384 . S
C277 C278 1.377 . S
C278 H258 0.953 . S
C278 C277 1.377 . S
C278 C279 1.369 . S
C279 H259 0.945 . S
C279 C274 1.385 . S
C279 C278 1.369 . S
C280 C272 1.457 . S
C280 C281 1.372 . S
C280 C285 1.364 . S
C281 H260 0.952 . S
C281 C280 1.372 . S
C281 C282 1.389 . S
C282 H261 0.949 . S
C282 C281 1.389 . S
C282 C283 1.387 . S
C283 C282 1.387 . S
C283 C284 1.372 . S
C284 H262 0.950 1_545 S
C284 C283 1.372 . S
C284 C285 1.379 . S
C285 H263 0.948 . S
C285 C280 1.364 . S
C285 C284 1.379 . S
C286 C255 1.383 . S
C286 C273 1.479 . S
C286 C287 1.398 . S
C287 C252 1.382 . S
C287 H264 0.951 . S
C287 C286 1.398 . S
Sc288 O291 2.025 . S
Sc288 O298 2.105 1_455 S
Sc288 O301 2.105 . S
Sc288 O304 2.105 . S
Sc288 O307 2.105 1_455 S
Sc289 O291 2.025 . S
Sc289 O299 2.105 1_455 S
Sc289 O303 2.105 . S
Sc289 O305 2.105 . S
Sc289 O309 2.105 1_455 S
Sc290 O291 2.025 . S
Sc290 O300 2.105 1_455 S
Sc290 O302 2.105 . S
Sc290 O306 2.105 . S
Sc290 O308 2.105 1_455 S
O291 Sc288 2.025 . S
O291 Sc289 2.025 . S
O291 Sc290 2.025 . S
C292 O298 1.268 . S
C292 O308 1.268 . S
C293 O299 1.268 . S
C293 O307 1.268 . S
C294 O300 1.268 . S
C294 O309 1.268 . S
C295 O301 1.268 . S
C295 O305 1.268 . S
C296 O302 1.268 . S
C296 O304 1.268 . S
C297 O303 1.268 . S
C297 O306 1.268 . S
O298 Sc288 2.105 1_655 S
O298 C292 1.268 . S
O299 Sc289 2.105 1_655 S
O299 C293 1.268 . S
O300 Sc290 2.105 1_655 S
O300 C294 1.268 . S
O301 Sc288 2.105 . S
O301 C295 1.268 . S
O302 Sc290 2.105 . S
O302 C296 1.268 . S
O303 Sc289 2.105 . S
O303 C297 1.268 . S
O304 Sc288 2.105 . S
O304 C296 1.268 . S
O305 Sc289 2.105 . S
O305 C295 1.268 . S
O306 Sc290 2.105 . S
O306 C297 1.268 . S
O307 Sc288 2.105 1_655 S
O307 C293 1.268 . S
O308 Sc290 2.105 1_655 S
O308 C292 1.268 . S
O309 Sc289 2.105 1_655 S
O309 C294 1.268 . S
Sc310 O313 2.025 . S
Sc310 O320 2.105 . S
Sc310 O323 2.105 1_455 S
Sc310 O326 2.105 1_455 S
Sc310 O329 2.105 . S
Sc311 O313 2.025 . S
Sc311 O321 2.105 . S
Sc311 O325 2.105 1_455 S
Sc311 O327 2.105 1_455 S
Sc311 O331 2.105 . S
Sc312 O313 2.025 . S
Sc312 O322 2.105 . S
Sc312 O324 2.105 1_455 S
Sc312 O328 2.105 1_455 S
Sc312 O330 2.105 . S
O313 Sc310 2.025 . S
O313 Sc311 2.025 . S
O313 Sc312 2.025 . S
C314 O320 1.268 . S
C314 O330 1.268 . S
C315 O321 1.268 . S
C315 O329 1.268 . S
C316 O322 1.268 . S
C316 O331 1.268 . S
C317 O323 1.268 . S
C317 O327 1.268 . S
C318 O324 1.268 . S
C318 O326 1.268 . S
C319 O325 1.268 . S
C319 O328 1.268 . S
O320 Sc310 2.105 . S
O320 C314 1.268 . S
O321 Sc311 2.105 . S
O321 C315 1.268 . S
O322 Sc312 2.105 . S
O322 C316 1.268 . S
O323 Sc310 2.105 1_655 S
O323 C317 1.268 . S
O324 Sc312 2.105 1_655 S
O324 C318 1.268 . S
O325 Sc311 2.105 1_655 S
O325 C319 1.268 . S
O326 Sc310 2.105 1_655 S
O326 C318 1.268 . S
O327 Sc311 2.105 1_655 S
O327 C317 1.268 . S
O328 Sc312 2.105 1_655 S
O328 C319 1.268 . S
O329 Sc310 2.105 . S
O329 C315 1.268 . S
O330 Sc312 2.105 . S
O330 C314 1.268 . S
O331 Sc311 2.105 . S
O331 C316 1.268 . S
Sc332 O335 2.025 . S
Sc332 O342 2.105 . S
Sc332 O345 2.105 . S
Sc332 O348 2.105 . S
Sc332 O351 2.105 . S
Sc333 O335 2.025 . S
Sc333 O343 2.105 . S
Sc333 O347 2.105 . S
Sc333 O349 2.105 . S
Sc333 O353 2.105 . S
Sc334 O335 2.025 . S
Sc334 O344 2.105 . S
Sc334 O346 2.105 . S
Sc334 O350 2.105 . S
Sc334 O352 2.105 . S
O335 Sc332 2.025 . S
O335 Sc333 2.025 . S
O335 Sc334 2.025 . S
C336 O342 1.268 . S
C336 O352 1.268 . S
C337 O343 1.268 . S
C337 O351 1.268 . S
C338 O344 1.268 . S
C338 O353 1.268 . S
C339 O345 1.268 . S
C339 O349 1.268 . S
C340 O346 1.268 . S
C340 O348 1.268 . S
C341 O347 1.268 . S
C341 O350 1.268 . S
O342 Sc332 2.105 . S
O342 C336 1.268 . S
O343 Sc333 2.105 . S
O343 C337 1.268 . S
O344 Sc334 2.105 . S
O344 C338 1.268 . S
O345 Sc332 2.105 . S
O345 C339 1.268 . S
O346 Sc334 2.105 . S
O346 C340 1.268 . S
O347 Sc333 2.105 . S
O347 C341 1.268 . S
O348 Sc332 2.105 . S
O348 C340 1.268 . S
O349 Sc333 2.105 . S
O349 C339 1.268 . S
O350 Sc334 2.105 . S
O350 C341 1.268 . S
O351 Sc332 2.105 . S
O351 C337 1.268 . S
O352 Sc334 2.105 . S
O352 C336 1.268 . S
O353 Sc333 2.105 . S
O353 C338 1.268 . S
Sc354 O357 2.025 . S
Sc354 O364 2.105 . S
Sc354 O367 2.105 . S
Sc354 O370 2.105 . S
Sc354 O373 2.105 . S
Sc355 O357 2.025 . S
Sc355 O365 2.105 . S
Sc355 O369 2.105 . S
Sc355 O371 2.105 . S
Sc355 O375 2.105 . S
Sc356 O357 2.025 . S
Sc356 O366 2.105 . S
Sc356 O368 2.105 . S
Sc356 O372 2.105 . S
Sc356 O374 2.105 . S
O357 Sc354 2.025 . S
O357 Sc355 2.025 . S
O357 Sc356 2.025 . S
C358 O364 1.268 . S
C358 O374 1.268 . S
C359 O365 1.268 . S
C359 O373 1.268 . S
C360 O366 1.268 . S
C360 O375 1.268 . S
C361 O367 1.268 . S
C361 O371 1.268 . S
C362 O368 1.268 . S
C362 O370 1.268 . S
C363 O369 1.268 . S
C363 O372 1.268 . S
O364 Sc354 2.105 . S
O364 C358 1.268 . S
O365 Sc355 2.105 . S
O365 C359 1.268 . S
O366 Sc356 2.105 . S
O366 C360 1.268 . S
O367 Sc354 2.105 . S
O367 C361 1.268 . S
O368 Sc356 2.105 . S
O368 C362 1.268 . S
O369 Sc355 2.105 . S
O369 C363 1.268 . S
O370 Sc354 2.105 . S
O370 C362 1.268 . S
O371 Sc355 2.105 . S
O371 C361 1.268 . S
O372 Sc356 2.105 . S
O372 C363 1.268 . S
O373 Sc354 2.105 . S
O373 C359 1.268 . S
O374 Sc356 2.105 . S
O374 C358 1.268 . S
O375 Sc355 2.105 . S
O375 C360 1.268 . S
H376 C384 0.950 . S
H377 C389 0.950 . S
H378 C386 0.950 . S
H379 C388 0.950 . S
H380 C390 0.950 . S
H381 C392 0.950 . S
H382 C394 0.950 . S
H383 C395 0.950 . S
C384 H376 0.950 . S
C384 C385 1.386 . S
C384 C386 1.391 . S
C385 C384 1.386 . S
C385 C389 1.393 . S
C386 H378 0.950 . S
C386 C384 1.391 . S
C386 C387 1.400 . S
C387 C386 1.400 . S
C387 C388 1.398 . S
C387 C393 1.491 . S
C388 H379 0.950 . S
C388 C387 1.398 . S
C388 C389 1.391 . S
C389 H377 0.950 . S
C389 C385 1.393 . S
C389 C388 1.391 . S
C390 H380 0.950 . S
C390 C391 1.386 . S
C390 C392 1.391 . S
C391 C390 1.386 . S
C391 C395 1.393 . S
C392 H381 0.950 . S
C392 C390 1.391 . S
C392 C393 1.400 . S
C393 C387 1.491 . S
C393 C392 1.400 . S
C393 C394 1.398 . S
C394 H382 0.950 . S
C394 C393 1.398 . S
C394 C395 1.391 . S
C395 H383 0.950 . S
C395 C391 1.393 . S
C395 C394 1.391 . S
H396 C404 0.950 . S
H397 C409 0.950 . S
H398 C406 0.950 . S
H399 C408 0.950 . S
H400 C410 0.950 . S
H401 C412 0.950 . S
H402 C414 0.950 . S
H403 C415 0.950 . S
C404 H396 0.950 . S
C404 C405 1.386 . S
C404 C406 1.391 . S
C405 C404 1.386 . S
C405 C409 1.393 . S
C406 H398 0.950 . S
C406 C404 1.391 . S
C406 C407 1.400 . S
C407 C406 1.400 . S
C407 C408 1.398 . S
C407 C413 1.491 . S
C408 H399 0.950 . S
C408 C407 1.398 . S
C408 C409 1.391 . S
C409 H397 0.950 . S
C409 C405 1.393 . S
C409 C408 1.391 . S
C410 H400 0.950 . S
C410 C411 1.386 . S
C410 C412 1.391 . S
C411 C410 1.386 . S
C411 C415 1.393 . S
C412 H401 0.950 . S
C412 C410 1.391 . S
C412 C413 1.400 . S
C413 C407 1.491 . S
C413 C412 1.400 . S
C413 C414 1.398 . S
C414 H402 0.950 . S
C414 C413 1.398 . S
C414 C415 1.391 . S
C415 H403 0.950 . S
C415 C411 1.393 . S
C415 C414 1.391 . S
H416 C424 0.950 . S
H417 C429 0.950 . S
H418 C426 0.950 . S
H419 C428 0.950 . S
H420 C430 0.950 . S
H421 C432 0.950 . S
H422 C434 0.950 . S
H423 C435 0.950 . S
C424 H416 0.950 . S
C424 C425 1.386 . S
C424 C426 1.391 . S
C425 C424 1.386 . S
C425 C429 1.393 . S
C426 H418 0.950 . S
C426 C424 1.391 . S
C426 C427 1.400 . S
C427 C426 1.400 . S
C427 C428 1.398 . S
C427 C433 1.491 . S
C428 H419 0.950 . S
C428 C427 1.398 . S
C428 C429 1.391 . S
C429 H417 0.950 . S
C429 C425 1.393 . S
C429 C428 1.391 . S
C430 H420 0.950 . S
C430 C431 1.386 . S
C430 C432 1.391 . S
C431 C430 1.386 . S
C431 C435 1.393 . S
C432 H421 0.950 . S
C432 C430 1.391 . S
C432 C433 1.400 . S
C433 C427 1.491 . S
C433 C432 1.400 . S
C433 C434 1.398 . S
C434 H422 0.950 . S
C434 C433 1.398 . S
C434 C435 1.391 . S
C435 H423 0.950 . S
C435 C431 1.393 . S
C435 C434 1.391 . S
H436 C444 0.950 . S
H437 C449 0.950 . S
H438 C446 0.950 . S
H439 C448 0.950 . S
H440 C450 0.950 . S
H441 C452 0.950 . S
H442 C454 0.950 . S
H443 C455 0.950 . S
C444 H436 0.950 . S
C444 C445 1.386 . S
C444 C446 1.391 . S
C445 C444 1.386 . S
C445 C449 1.393 . S
C446 H438 0.950 . S
C446 C444 1.391 . S
C446 C447 1.400 . S
C447 C446 1.400 . S
C447 C448 1.398 . S
C447 C453 1.491 . S
C448 H439 0.950 . S
C448 C447 1.398 . S
C448 C449 1.391 . S
C449 H437 0.950 . S
C449 C445 1.393 . S
C449 C448 1.391 . S
C450 H440 0.950 . S
C450 C451 1.386 . S
C450 C452 1.391 . S
C451 C450 1.386 . S
C451 C455 1.393 . S
C452 H441 0.950 . S
C452 C450 1.391 . S
C452 C453 1.400 . S
C453 C447 1.491 . S
C453 C452 1.400 . S
C453 C454 1.398 . S
C454 H442 0.950 . S
C454 C453 1.398 . S
C454 C455 1.391 . S
C455 H443 0.950 . S
C455 C451 1.393 . S
C455 C454 1.391 . S
H456 C464 0.950 . S
H457 C469 0.950 . S
H458 C466 0.950 . S
H459 C468 0.950 . S
H460 C470 0.950 . S
H461 C472 0.950 . S
H462 C474 0.950 . S
H463 C475 0.950 . S
C464 H456 0.950 . S
C464 C465 1.386 . S
C464 C466 1.391 . S
C465 C464 1.386 . S
C465 C469 1.393 . S
C466 H458 0.950 . S
C466 C464 1.391 . S
C466 C467 1.400 . S
C467 C466 1.400 . S
C467 C468 1.398 . S
C467 C473 1.491 . S
C468 H459 0.950 . S
C468 C467 1.398 . S
C468 C469 1.391 . S
C469 H457 0.950 . S
C469 C465 1.393 . S
C469 C468 1.391 . S
C470 H460 0.950 . S
C470 C471 1.386 . S
C470 C472 1.391 . S
C471 C470 1.386 . S
C471 C475 1.393 . S
C472 H461 0.950 . S
C472 C470 1.391 . S
C472 C473 1.400 . S
C473 C467 1.491 . S
C473 C472 1.400 . S
C473 C474 1.398 . S
C474 H462 0.950 . S
C474 C473 1.398 . S
C474 C475 1.391 . S
C475 H463 0.950 . S
C475 C471 1.393 . S
C475 C474 1.391 . S
H476 C484 0.950 . S
H477 C489 0.950 . S
H478 C486 0.950 . S
H479 C488 0.950 . S
H480 C490 0.950 . S
H481 C492 0.950 . S
H482 C494 0.950 . S
H483 C495 0.950 . S
C484 H476 0.950 . S
C484 C485 1.386 . S
C484 C486 1.391 . S
C485 C484 1.386 . S
C485 C489 1.393 . S
C486 H478 0.950 . S
C486 C484 1.391 . S
C486 C487 1.400 . S
C487 C486 1.400 . S
C487 C488 1.398 . S
C487 C493 1.491 . S
C488 H479 0.950 . S
C488 C487 1.398 . S
C488 C489 1.391 . S
C489 H477 0.950 . S
C489 C485 1.393 . S
C489 C488 1.391 . S
C490 H480 0.950 . S
C490 C491 1.386 . S
C490 C492 1.391 . S
C491 C490 1.386 . S
C491 C495 1.393 . S
C492 H481 0.950 . S
C492 C490 1.391 . S
C492 C493 1.400 . S
C493 C487 1.491 . S
C493 C492 1.400 . S
C493 C494 1.398 . S
C494 H482 0.950 . S
C494 C493 1.398 . S
C494 C495 1.391 . S
C495 H483 0.950 . S
C495 C491 1.393 . S
C495 C494 1.391 . S
H496 C504 0.950 . S
H497 C509 0.950 . S
H498 C506 0.950 . S
H499 C508 0.950 . S
H500 C510 0.950 . S
H501 C512 0.950 . S
H502 C514 0.950 . S
H503 C515 0.950 . S
C504 H496 0.950 . S
C504 C505 1.386 . S
C504 C506 1.391 . S
C505 C504 1.386 . S
C505 C509 1.393 . S
C506 H498 0.950 . S
C506 C504 1.391 . S
C506 C507 1.400 . S
C507 C506 1.400 . S
C507 C508 1.398 . S
C507 C513 1.491 . S
C508 H499 0.950 . S
C508 C507 1.398 . S
C508 C509 1.391 . S
C509 H497 0.950 . S
C509 C505 1.393 . S
C509 C508 1.391 . S
C510 H500 0.950 . S
C510 C511 1.386 . S
C510 C512 1.391 . S
C511 C510 1.386 . S
C511 C515 1.393 . S
C512 H501 0.950 . S
C512 C510 1.391 . S
C512 C513 1.400 . S
C513 C507 1.491 . S
C513 C512 1.400 . S
C513 C514 1.398 . S
C514 H502 0.950 . S
C514 C513 1.398 . S
C514 C515 1.391 . S
C515 H503 0.950 . S
C515 C511 1.393 . S
C515 C514 1.391 . S
H516 C524 0.950 . S
H517 C529 0.950 . S
H518 C526 0.950 . S
H519 C528 0.950 . S
H520 C530 0.950 . S
H521 C532 0.950 . S
H522 C534 0.950 . S
H523 C535 0.950 . S
C524 H516 0.950 . S
C524 C525 1.386 . S
C524 C526 1.391 . S
C525 C524 1.386 . S
C525 C529 1.393 . S
C526 H518 0.950 . S
C526 C524 1.391 . S
C526 C527 1.400 . S
C527 C526 1.400 . S
C527 C528 1.398 . S
C527 C533 1.491 . S
C528 H519 0.950 . S
C528 C527 1.398 . S
C528 C529 1.391 . S
C529 H517 0.950 . S
C529 C525 1.393 . S
C529 C528 1.391 . S
C530 H520 0.950 . S
C530 C531 1.386 . S
C530 C532 1.391 . S
C531 C530 1.386 . S
C531 C535 1.393 . S
C532 H521 0.950 . S
C532 C530 1.391 . S
C532 C533 1.400 . S
C533 C527 1.491 . S
C533 C532 1.400 . S
C533 C534 1.398 . S
C534 H522 0.950 . S
C534 C533 1.398 . S
C534 C535 1.391 . S
C535 H523 0.950 . S
C535 C531 1.393 . S
C535 C534 1.391 . S
H536 C544 0.950 . S
H537 C549 0.950 . S
H538 C546 0.950 . S
H539 C548 0.950 . S
H540 C550 0.950 . S
H541 C552 0.950 . S
H542 C554 0.950 . S
H543 C555 0.950 . S
C544 H536 0.950 . S
C544 C545 1.386 . S
C544 C546 1.391 . S
C545 C544 1.386 . S
C545 C549 1.393 . S
C546 H538 0.950 . S
C546 C544 1.391 . S
C546 C547 1.400 . S
C547 C546 1.400 . S
C547 C548 1.398 . S
C547 C553 1.491 . S
C548 H539 0.950 . S
C548 C547 1.398 . S
C548 C549 1.391 . S
C549 H537 0.950 . S
C549 C545 1.393 . S
C549 C548 1.391 . S
C550 H540 0.950 . S
C550 C551 1.386 . S
C550 C552 1.391 . S
C551 C550 1.386 . S
C551 C555 1.393 . S
C552 H541 0.950 . S
C552 C550 1.391 . S
C552 C553 1.400 . S
C553 C547 1.491 . S
C553 C552 1.400 . S
C553 C554 1.398 . S
C554 H542 0.950 . S
C554 C553 1.398 . S
C554 C555 1.391 . S
C555 H543 0.950 . S
C555 C551 1.393 . S
C555 C554 1.391 . S
H556 C564 0.950 . S
H557 C569 0.950 . S
H558 C566 0.950 . S
H559 C568 0.950 . S
H560 C570 0.950 . S
H561 C572 0.950 . S
H562 C574 0.950 . S
H563 C575 0.950 . S
C564 H556 0.950 . S
C564 C565 1.386 . S
C564 C566 1.391 . S
C565 C564 1.386 . S
C565 C569 1.393 . S
C566 H558 0.950 . S
C566 C564 1.391 . S
C566 C567 1.400 . S
C567 C566 1.400 . S
C567 C568 1.398 . S
C567 C573 1.491 . S
C568 H559 0.950 . S
C568 C567 1.398 . S
C568 C569 1.391 . S
C569 H557 0.950 . S
C569 C565 1.393 . S
C569 C568 1.391 . S
C570 H560 0.950 . S
C570 C571 1.386 . S
C570 C572 1.391 . S
C571 C570 1.386 . S
C571 C575 1.393 . S
C572 H561 0.950 . S
C572 C570 1.391 . S
C572 C573 1.400 . S
C573 C567 1.491 . S
C573 C572 1.400 . S
C573 C574 1.398 . S
C574 H562 0.950 . S
C574 C573 1.398 . S
C574 C575 1.391 . S
C575 H563 0.950 . S
C575 C571 1.393 . S
C575 C574 1.391 . S
H576 C584 0.950 . S
H577 C589 0.950 . S
H578 C586 0.950 . S
H579 C588 0.950 . S
H580 C590 0.950 . S
H581 C592 0.950 . S
H582 C594 0.950 . S
H583 C595 0.950 . S
C584 H576 0.950 . S
C584 C585 1.386 . S
C584 C586 1.391 . S
C585 C584 1.386 . S
C585 C589 1.393 . S
C586 H578 0.950 . S
C586 C584 1.391 . S
C586 C587 1.400 . S
C587 C586 1.400 . S
C587 C588 1.398 . S
C587 C593 1.491 . S
C588 H579 0.950 . S
C588 C587 1.398 . S
C588 C589 1.391 . S
C589 H577 0.950 . S
C589 C585 1.393 . S
C589 C588 1.391 . S
C590 H580 0.950 . S
C590 C591 1.386 . S
C590 C592 1.391 . S
C591 C590 1.386 . S
C591 C595 1.393 . S
C592 H581 0.950 . S
C592 C590 1.391 . S
C592 C593 1.400 . S
C593 C587 1.491 . S
C593 C592 1.400 . S
C593 C594 1.398 . S
C594 H582 0.950 . S
C594 C593 1.398 . S
C594 C595 1.391 . S
C595 H583 0.950 . S
C595 C591 1.393 . S
C595 C594 1.391 . S
H596 C604 0.950 . S
H597 C609 0.950 . S
H598 C606 0.950 . S
H599 C608 0.950 . S
H600 C610 0.950 . S
H601 C612 0.950 . S
H602 C614 0.950 . S
H603 C615 0.950 . S
C604 H596 0.950 . S
C604 C605 1.386 . S
C604 C606 1.391 . S
C605 C604 1.386 . S
C605 C609 1.393 . S
C606 H598 0.950 . S
C606 C604 1.391 . S
C606 C607 1.400 . S
C607 C606 1.400 . S
C607 C608 1.398 . S
C607 C613 1.491 . S
C608 H599 0.950 . S
C608 C607 1.398 . S
C608 C609 1.391 . S
C609 H597 0.950 . S
C609 C605 1.393 . S
C609 C608 1.391 . S
C610 H600 0.950 . S
C610 C611 1.386 . S
C610 C612 1.391 . S
C611 C610 1.386 . S
C611 C615 1.393 . S
C612 H601 0.950 . S
C612 C610 1.391 . S
C612 C613 1.400 . S
C613 C607 1.491 . S
C613 C612 1.400 . S
C613 C614 1.398 . S
C614 H602 0.950 . S
C614 C613 1.398 . S
C614 C615 1.391 . S
C615 H603 0.950 . S
C615 C611 1.393 . S
C615 C614 1.391 . S
H616 C624 0.950 . S
H617 C629 0.950 1_565 S
H618 C626 0.950 . S
H619 C628 0.950 . S
H620 C630 0.950 . S
H621 C632 0.950 . S
H622 C634 0.950 . S
H623 C635 0.950 . S
C624 H616 0.950 . S
C624 C625 1.386 . S
C624 C626 1.391 . S
C625 C624 1.386 . S
C625 C629 1.393 . S
C626 H618 0.950 . S
C626 C624 1.391 . S
C626 C627 1.400 . S
C627 C626 1.400 . S
C627 C628 1.398 . S
C627 C633 1.491 . S
C628 H619 0.950 . S
C628 C627 1.398 . S
C628 C629 1.391 . S
C629 H617 0.950 1_545 S
C629 C625 1.393 . S
C629 C628 1.391 . S
C630 H620 0.950 . S
C630 C631 1.386 . S
C630 C632 1.391 . S
C631 C630 1.386 . S
C631 C635 1.393 . S
C632 H621 0.950 . S
C632 C630 1.391 . S
C632 C633 1.400 . S
C633 C627 1.491 . S
C633 C632 1.400 . S
C633 C634 1.398 . S
C634 H622 0.950 . S
C634 C633 1.398 . S
C634 C635 1.391 . S
C635 H623 0.950 . S
C635 C631 1.393 . S
C635 C634 1.391 . S
H636 C644 0.950 . S
H637 C649 0.950 . S
H638 C646 0.950 . S
H639 C648 0.950 . S
H640 C650 0.950 . S
H641 C652 0.950 . S
H642 C654 0.950 . S
H643 C655 0.950 . S
C644 H636 0.950 . S
C644 C645 1.386 . S
C644 C646 1.391 . S
C645 C644 1.386 . S
C645 C649 1.393 . S
C646 H638 0.950 . S
C646 C644 1.391 . S
C646 C647 1.400 . S
C647 C646 1.400 . S
C647 C648 1.398 . S
C647 C653 1.491 . S
C648 H639 0.950 . S
C648 C647 1.398 . S
C648 C649 1.391 . S
C649 H637 0.950 . S
C649 C645 1.393 . S
C649 C648 1.391 . S
C650 H640 0.950 . S
C650 C651 1.386 . S
C650 C652 1.391 . S
C651 C650 1.386 . S
C651 C655 1.393 . S
C652 H641 0.950 . S
C652 C650 1.391 . S
C652 C653 1.400 . S
C653 C647 1.491 . S
C653 C652 1.400 . S
C653 C654 1.398 . S
C654 H642 0.950 . S
C654 C653 1.398 . S
C654 C655 1.391 . S
C655 H643 0.950 . S
C655 C651 1.393 . S
C655 C654 1.391 . S
H656 C664 0.950 . S
H657 C669 0.950 1_565 S
H658 C666 0.950 . S
H659 C668 0.950 . S
H660 C670 0.950 . S
H661 C672 0.950 . S
H662 C674 0.950 . S
H663 C675 0.950 . S
C664 H656 0.950 . S
C664 C665 1.386 . S
C664 C666 1.391 . S
C665 C664 1.386 . S
C665 C669 1.393 . S
C666 H658 0.950 . S
C666 C664 1.391 . S
C666 C667 1.400 . S
C667 C666 1.400 . S
C667 C668 1.398 . S
C667 C673 1.491 . S
C668 H659 0.950 . S
C668 C667 1.398 . S
C668 C669 1.391 . S
C669 H657 0.950 1_545 S
C669 C665 1.393 . S
C669 C668 1.391 . S
C670 H660 0.950 . S
C670 C671 1.386 . S
C670 C672 1.391 . S
C671 C670 1.386 . S
C671 C675 1.393 . S
C672 H661 0.950 . S
C672 C670 1.391 . S
C672 C673 1.400 . S
C673 C667 1.491 . S
C673 C672 1.400 . S
C673 C674 1.398 . S
C674 H662 0.950 . S
C674 C673 1.398 . S
C674 C675 1.391 . S
C675 H663 0.950 . S
C675 C671 1.393 . S
C675 C674 1.391 . S
H676 C684 0.950 . S
H677 C689 0.950 1_545 S
H678 C686 0.950 . S
H679 C688 0.950 . S
H680 C690 0.950 . S
H681 C692 0.950 . S
H682 C694 0.950 . S
H683 C695 0.950 . S
C684 H676 0.950 . S
C684 C685 1.386 . S
C684 C686 1.391 . S
C685 C684 1.386 . S
C685 C689 1.393 . S
C686 H678 0.950 . S
C686 C684 1.391 . S
C686 C687 1.400 . S
C687 C686 1.400 . S
C687 C688 1.398 . S
C687 C693 1.491 . S
C688 H679 0.950 . S
C688 C687 1.398 . S
C688 C689 1.391 . S
C689 H677 0.950 1_565 S
C689 C685 1.393 . S
C689 C688 1.391 . S
C690 H680 0.950 . S
C690 C691 1.386 . S
C690 C692 1.391 . S
C691 C690 1.386 . S
C691 C695 1.393 . S
C692 H681 0.950 . S
C692 C690 1.391 . S
C692 C693 1.400 . S
C693 C687 1.491 . S
C693 C692 1.400 . S
C693 C694 1.398 . S
C694 H682 0.950 . S
C694 C693 1.398 . S
C694 C695 1.391 . S
C695 H683 0.950 . S
C695 C691 1.393 . S
C695 C694 1.391 . S
H696 C704 0.950 . S
H697 C709 0.950 . S
H698 C706 0.950 . S
H699 C708 0.950 . S
H700 C710 0.950 . S
H701 C712 0.950 . S
H702 C714 0.950 . S
H703 C715 0.950 . S
C704 H696 0.950 . S
C704 C705 1.386 . S
C704 C706 1.391 . S
C705 C704 1.386 . S
C705 C709 1.393 . S
C706 H698 0.950 . S
C706 C704 1.391 . S
C706 C707 1.400 . S
C707 C706 1.400 . S
C707 C708 1.398 . S
C707 C713 1.491 . S
C708 H699 0.950 . S
C708 C707 1.398 . S
C708 C709 1.391 . S
C709 H697 0.950 . S
C709 C705 1.393 . S
C709 C708 1.391 . S
C710 H700 0.950 . S
C710 C711 1.386 . S
C710 C712 1.391 . S
C711 C710 1.386 . S
C711 C715 1.393 . S
C712 H701 0.950 . S
C712 C710 1.391 . S
C712 C713 1.400 . S
C713 C707 1.491 . S
C713 C712 1.400 . S
C713 C714 1.398 . S
C714 H702 0.950 . S
C714 C713 1.398 . S
C714 C715 1.391 . S
C715 H703 0.950 . S
C715 C711 1.393 . S
C715 C714 1.391 . S
H716 C724 0.950 . S
H717 C729 0.950 . S
H718 C726 0.950 . S
H719 C728 0.950 . S
H720 C730 0.950 . S
H721 C732 0.950 . S
H722 C734 0.950 . S
H723 C735 0.950 . S
C724 H716 0.950 . S
C724 C725 1.386 . S
C724 C726 1.391 . S
C725 C724 1.386 . S
C725 C729 1.393 . S
C726 H718 0.950 . S
C726 C724 1.391 . S
C726 C727 1.400 . S
C727 C726 1.400 . S
C727 C728 1.398 . S
C727 C733 1.491 . S
C728 H719 0.950 . S
C728 C727 1.398 . S
C728 C729 1.391 . S
C729 H717 0.950 . S
C729 C725 1.393 . S
C729 C728 1.391 . S
C730 H720 0.950 . S
C730 C731 1.386 . S
C730 C732 1.391 . S
C731 C730 1.386 . S
C731 C735 1.393 . S
C732 H721 0.950 . S
C732 C730 1.391 . S
C732 C733 1.400 . S
C733 C727 1.491 . S
C733 C732 1.400 . S
C733 C734 1.398 . S
C734 H722 0.950 . S
C734 C733 1.398 . S
C734 C735 1.391 . S
C735 H723 0.950 . S
C735 C731 1.393 . S
C735 C734 1.391 . S
H736 C744 0.950 . S
H737 C749 0.950 . S
H738 C746 0.950 . S
H739 C748 0.950 . S
H740 C750 0.950 . S
H741 C752 0.950 . S
H742 C754 0.950 . S
H743 C755 0.950 . S
C744 H736 0.950 . S
C744 C745 1.386 . S
C744 C746 1.391 . S
C745 C744 1.386 . S
C745 C749 1.393 . S
C746 H738 0.950 . S
C746 C744 1.391 . S
C746 C747 1.400 . S
C747 C746 1.400 . S
C747 C748 1.398 . S
C747 C753 1.491 . S
C748 H739 0.950 . S
C748 C747 1.398 . S
C748 C749 1.391 . S
C749 H737 0.950 . S
C749 C745 1.393 . S
C749 C748 1.391 . S
C750 H740 0.950 . S
C750 C751 1.386 . S
C750 C752 1.391 . S
C751 C750 1.386 . S
C751 C755 1.393 . S
C752 H741 0.950 . S
C752 C750 1.391 . S
C752 C753 1.400 . S
C753 C747 1.491 . S
C753 C752 1.400 . S
C753 C754 1.398 . S
C754 H742 0.950 . S
C754 C753 1.398 . S
C754 C755 1.391 . S
C755 H743 0.950 . S
C755 C751 1.393 . S
C755 C754 1.391 . S
H756 C764 0.950 . S
H757 C769 0.950 . S
H758 C766 0.950 . S
H759 C768 0.950 . S
H760 C770 0.950 . S
H761 C772 0.950 . S
H762 C774 0.950 . S
H763 C775 0.950 . S
C764 H756 0.950 . S
C764 C765 1.386 . S
C764 C766 1.391 . S
C765 C764 1.386 . S
C765 C769 1.393 . S
C766 H758 0.950 . S
C766 C764 1.391 . S
C766 C767 1.400 . S
C767 C766 1.400 . S
C767 C768 1.398 . S
C767 C773 1.491 . S
C768 H759 0.950 . S
C768 C767 1.398 . S
C768 C769 1.391 . S
C769 H757 0.950 . S
C769 C765 1.393 . S
C769 C768 1.391 . S
C770 H760 0.950 . S
C770 C771 1.386 . S
C770 C772 1.391 . S
C771 C770 1.386 . S
C771 C775 1.393 . S
C772 H761 0.950 . S
C772 C770 1.391 . S
C772 C773 1.400 . S
C773 C767 1.491 . S
C773 C772 1.400 . S
C773 C774 1.398 . S
C774 H762 0.950 . S
C774 C773 1.398 . S
C774 C775 1.391 . S
C775 H763 0.950 . S
C775 C771 1.393 . S
C775 C774 1.391 . S
H776 C784 0.950 . S
H777 C789 0.950 . S
H778 C786 0.950 . S
H779 C788 0.950 . S
H780 C790 0.950 . S
H781 C792 0.950 . S
H782 C794 0.950 . S
H783 C795 0.950 . S
C784 H776 0.950 . S
C784 C785 1.386 . S
C784 C786 1.391 . S
C785 C784 1.386 . S
C785 C789 1.393 . S
C786 H778 0.950 . S
C786 C784 1.391 . S
C786 C787 1.400 . S
C787 C786 1.400 . S
C787 C788 1.398 . S
C787 C793 1.491 . S
C788 H779 0.950 . S
C788 C787 1.398 . S
C788 C789 1.391 . S
C789 H777 0.950 . S
C789 C785 1.393 . S
C789 C788 1.391 . S
C790 H780 0.950 . S
C790 C791 1.386 . S
C790 C792 1.391 . S
C791 C790 1.386 . S
C791 C795 1.393 . S
C792 H781 0.950 . S
C792 C790 1.391 . S
C792 C793 1.400 . S
C793 C787 1.491 . S
C793 C792 1.400 . S
C793 C794 1.398 . S
C794 H782 0.950 . S
C794 C793 1.398 . S
C794 C795 1.391 . S
C795 H783 0.950 . S
C795 C791 1.393 . S
C795 C794 1.391 . S
H796 C804 0.950 . S
H797 C809 0.950 . S
H798 C806 0.950 . S
H799 C808 0.950 . S
H800 C810 0.950 . S
H801 C812 0.950 . S
H802 C814 0.950 . S
H803 C815 0.950 . S
C804 H796 0.950 . S
C804 C805 1.386 . S
C804 C806 1.391 . S
C805 C804 1.386 . S
C805 C809 1.393 . S
C806 H798 0.950 . S
C806 C804 1.391 . S
C806 C807 1.400 . S
C807 C806 1.400 . S
C807 C808 1.398 . S
C807 C813 1.491 . S
C808 H799 0.950 . S
C808 C807 1.398 . S
C808 C809 1.391 . S
C809 H797 0.950 . S
C809 C805 1.393 . S
C809 C808 1.391 . S
C810 H800 0.950 . S
C810 C811 1.386 . S
C810 C812 1.391 . S
C811 C810 1.386 . S
C811 C815 1.393 . S
C812 H801 0.950 . S
C812 C810 1.391 . S
C812 C813 1.400 . S
C813 C807 1.491 . S
C813 C812 1.400 . S
C813 C814 1.398 . S
C814 H802 0.950 . S
C814 C813 1.398 . S
C814 C815 1.391 . S
C815 H803 0.950 . S
C815 C811 1.393 . S
C815 C814 1.391 . S
H816 C824 0.950 . S
H817 C829 0.950 . S
H818 C826 0.950 . S
H819 C828 0.950 . S
H820 C830 0.950 . S
H821 C832 0.950 . S
H822 C834 0.950 . S
H823 C835 0.950 . S
C824 H816 0.950 . S
C824 C825 1.386 . S
C824 C826 1.391 . S
C825 C824 1.386 . S
C825 C829 1.393 . S
C826 H818 0.950 . S
C826 C824 1.391 . S
C826 C827 1.400 . S
C827 C826 1.400 . S
C827 C828 1.398 . S
C827 C833 1.491 . S
C828 H819 0.950 . S
C828 C827 1.398 . S
C828 C829 1.391 . S
C829 H817 0.950 . S
C829 C825 1.393 . S
C829 C828 1.391 . S
C830 H820 0.950 . S
C830 C831 1.386 . S
C830 C832 1.391 . S
C831 C830 1.386 . S
C831 C835 1.393 . S
C832 H821 0.950 . S
C832 C830 1.391 . S
C832 C833 1.400 . S
C833 C827 1.491 . S
C833 C832 1.400 . S
C833 C834 1.398 . S
C834 H822 0.950 . S
C834 C833 1.398 . S
C834 C835 1.391 . S
C835 H823 0.950 . S
C835 C831 1.393 . S
C835 C834 1.391 . S
H836 C844 0.950 . S
H837 C849 0.950 . S
H838 C846 0.950 . S
H839 C848 0.950 . S
H840 C850 0.950 . S
H841 C852 0.950 . S
H842 C854 0.950 . S
H843 C855 0.950 . S
C844 H836 0.950 . S
C844 C845 1.386 . S
C844 C846 1.391 . S
C845 C844 1.386 . S
C845 C849 1.393 . S
C846 H838 0.950 . S
C846 C844 1.391 . S
C846 C847 1.400 . S
C847 C846 1.400 . S
C847 C848 1.398 . S
C847 C853 1.491 . S
C848 H839 0.950 . S
C848 C847 1.398 . S
C848 C849 1.391 . S
C849 H837 0.950 . S
C849 C845 1.393 . S
C849 C848 1.391 . S
C850 H840 0.950 . S
C850 C851 1.386 . S
C850 C852 1.391 . S
C851 C850 1.386 . S
C851 C855 1.393 . S
C852 H841 0.950 . S
C852 C850 1.391 . S
C852 C853 1.400 . S
C853 C847 1.491 . S
C853 C852 1.400 . S
C853 C854 1.398 . S
C854 H842 0.950 . S
C854 C853 1.398 . S
C854 C855 1.391 . S
C855 H843 0.950 . S
C855 C851 1.393 . S
C855 C854 1.391 . S
C385 C25 1.532 . S
C391 C314 1.524 . S
C411 C292 1.527 . S
C405 C61 1.534 . S
C431 C318 1.527 . S
C425 C97 1.559 . S
C451 C296 1.519 . S
C445 C133 1.550 . S
C471 C358 1.508 . S
C465 C169 1.515 . S
C491 C336 1.525 . S
C485 C205 1.531 . S
C505 C241 1.548 . S
C511 C362 1.507 . S
C531 C340 1.518 . S
C525 C277 1.555 . S
C545 C31 1.540 . S
C551 C363 1.557 . S
C571 C341 1.558 . S
C565 C67 1.538 . S
C585 C103 1.557 . S
C591 C360 1.565 . S
C605 C139 1.549 . S
C611 C338 1.564 . S
C631 C319 1.567 . S
C625 C175 1.523 1_545 S
C645 C211 1.517 1_565 S
C651 C297 1.567 . S
C671 C316 1.566 . S
C665 C247 1.554 1_545 S
C691 C294 1.565 . S
C685 C283 1.559 1_565 S
C711 C337 1.534 . S
C705 C1 1.501 . S
C731 C359 1.529 . S
C725 C37 1.519 . S
C745 C73 1.529 . S
C751 C339 1.536 . S
C771 C361 1.523 . S
C765 C109 1.541 . S
C791 C293 1.535 . S
C785 C145 1.503 . S
C805 C181 1.501 . S
C811 C315 1.533 . S
C825 C217 1.540 . S
C831 C295 1.519 . S
C845 C253 1.528 . S
C851 C317 1.538 . S
