# Generated by pormake.
# Topology pyr, (3,6)-cn, num edge types: 1
# Building blocks:
#     Node 0, Type 0, BuildingBlock: QEWDON_clean_linker_0, # of connection points: 3
#     Node 1, Type 0, BuildingBlock: QEWDON_clean_linker_0, # of connection points: 3
#     Node 2, Type 0, BuildingBlock: QEWDON_clean_linker_0, # of connection points: 3
#     Node 3, Type 0, BuildingBlock: QEWDON_clean_linker_0, # of connection points: 3
#     Node 4, Type 0, BuildingBlock: QEWDON_clean_linker_0, # of connection points: 3
#     Node 5, Type 0, BuildingBlock: QEWDON_clean_linker_0, # of connection points: 3
#     Node 6, Type 0, BuildingBlock: QEWDON_clean_linker_0, # of connection points: 3
#     Node 7, Type 0, BuildingBlock: QEWDON_clean_linker_0, # of connection points: 3
#     Node 8, Type 1, BuildingBlock: LEVNOQ01_clean_sbu_1, # of connection points: 6
#     Node 9, Type 1, BuildingBlock: LEVNOQ01_clean_sbu_1, # of connection points: 6
#     Node 10, Type 1, BuildingBlock: LEVNOQ01_clean_sbu_1, # of connection points: 6
#     Node 11, Type 1, BuildingBlock: LEVNOQ01_clean_sbu_1, # of connection points: 6
#     Edge 12, Type (0, 1), BuildingBlock: OJICUG_clean_linker_0, # of connection points: 2
#     Edge 13, Type (0, 1), BuildingBlock: OJICUG_clean_linker_0, # of connection points: 2
#     Edge 14, Type (0, 1), BuildingBlock: OJICUG_clean_linker_0, # of connection points: 2
#     Edge 15, Type (0, 1), BuildingBlock: OJICUG_clean_linker_0, # of connection points: 2
#     Edge 16, Type (0, 1), BuildingBlock: OJICUG_clean_linker_0, # of connection points: 2
#     Edge 17, Type (0, 1), BuildingBlock: OJICUG_clean_linker_0, # of connection points: 2
#     Edge 18, Type (0, 1), BuildingBlock: OJICUG_clean_linker_0, # of connection points: 2
#     Edge 19, Type (0, 1), BuildingBlock: OJICUG_clean_linker_0, # of connection points: 2
#     Edge 20, Type (0, 1), BuildingBlock: OJICUG_clean_linker_0, # of connection points: 2
#     Edge 21, Type (0, 1), BuildingBlock: OJICUG_clean_linker_0, # of connection points: 2
#     Edge 22, Type (0, 1), BuildingBlock: OJICUG_clean_linker_0, # of connection points: 2
#     Edge 23, Type (0, 1), BuildingBlock: OJICUG_clean_linker_0, # of connection points: 2
#     Edge 24, Type (0, 1), BuildingBlock: OJICUG_clean_linker_0, # of connection points: 2
#     Edge 25, Type (0, 1), BuildingBlock: OJICUG_clean_linker_0, # of connection points: 2
#     Edge 26, Type (0, 1), BuildingBlock: OJICUG_clean_linker_0, # of connection points: 2
#     Edge 27, Type (0, 1), BuildingBlock: OJICUG_clean_linker_0, # of connection points: 2
#     Edge 28, Type (0, 1), BuildingBlock: OJICUG_clean_linker_0, # of connection points: 2
#     Edge 29, Type (0, 1), BuildingBlock: OJICUG_clean_linker_0, # of connection points: 2
#     Edge 30, Type (0, 1), BuildingBlock: OJICUG_clean_linker_0, # of connection points: 2
#     Edge 31, Type (0, 1), BuildingBlock: OJICUG_clean_linker_0, # of connection points: 2
#     Edge 32, Type (0, 1), BuildingBlock: OJICUG_clean_linker_0, # of connection points: 2
#     Edge 33, Type (0, 1), BuildingBlock: OJICUG_clean_linker_0, # of connection points: 2
#     Edge 34, Type (0, 1), BuildingBlock: OJICUG_clean_linker_0, # of connection points: 2
#     Edge 35, Type (0, 1), BuildingBlock: OJICUG_clean_linker_0, # of connection points: 2
# Relax obj value: 0.138
# Max RMSD: 0.249
# Mean RMSD: 0.186
data_MOF--net-pry--node1-LEVNOQ01_clean_sbu_1--node2-QEWDON_clean_linker_0--edge1-OJICUG_clean_linker_0
_symmetry_space_group_name_H-M    P1
_symmetry_Int_Tables_number       1
_symmetry_cell_setting            triclinic
loop_
_symmetry_equiv_pos_as_xyz
'x, y, z'
_cell_length_a     27.320246
_cell_length_b     26.318972
_cell_length_c     27.545983
_cell_angle_alpha  92.854754
_cell_angle_beta   92.376045
_cell_angle_gamma 102.08928
loop_
_atom_site_label
_atom_site_type_symbol
_atom_site_fract_x
_atom_site_fract_y
_atom_site_fract_z
_atom_type_partial_charge
H0 H 0.23643 0.22458 0.1388 0.0
C1 C 0.21307 0.20638 0.16664 0.0
C2 C 0.21872 0.15759 0.18245 0.0
C3 C 0.18002 0.2339 0.18878 0.0
H4 H 0.19461 0.09957 0.23368 0.0
C5 C 0.19027 0.1367 0.22086 0.0
C6 C 0.15725 0.16364 0.24384 0.0
C7 C 0.15228 0.21229 0.22742 0.0
C8 C 0.18291 0.28934 0.17832 0.0
H9 H 0.12794 0.23402 0.24547 0.0
C10 C 0.14565 0.30644 0.14987 0.0
C11 C 0.1522 0.35966 0.13934 0.0
C12 C 0.22531 0.3258 0.19715 0.0
H13 H 0.254 0.31361 0.21931 0.0
C14 C 0.23124 0.37815 0.18781 0.0
H15 H 0.11266 0.27861 0.13533 0.0
C16 C 0.19529 0.39493 0.15905 0.0
H17 H 0.20086 0.43604 0.15286 0.0
H18 H 0.26399 0.4059 0.20287 0.0
H19 H 0.34056 0.9393 0.78795 0.0
C20 C 0.36926 0.92843 0.76606 0.0
C21 C 0.41566 0.92563 0.78815 0.0
C22 C 0.35807 0.91276 0.71676 0.0
H23 H 0.48392 0.89896 0.779 0.0
C24 C 0.45024 0.90532 0.76043 0.0
C25 C 0.43968 0.88989 0.71043 0.0
C26 C 0.39444 0.89741 0.6886 0.0
C27 C 0.30565 0.90052 0.69733 0.0
H28 H 0.38492 0.88675 0.65041 0.0
C29 C 0.28975 0.9272 0.6589 0.0
C30 C 0.23953 0.91412 0.64017 0.0
C31 C 0.27216 0.85876 0.71546 0.0
H32 H 0.28428 0.83693 0.74431 0.0
C33 C 0.22311 0.84416 0.6959 0.0
H34 H 0.31634 0.95859 0.64445 0.0
C35 C 0.20665 0.87182 0.65892 0.0
H36 H 0.16756 0.86111 0.64651 0.0
H37 H 0.19746 0.81188 0.71008 0.0
H38 H 0.67043 0.46334 0.94788 0.0
C39 C 0.66443 0.42272 0.95633 0.0
C40 C 0.70512 0.40177 0.97194 0.0
C41 C 0.61701 0.39062 0.94706 0.0
H42 H 0.72981 0.3316 0.9889 0.0
C43 C 0.69799 0.34826 0.97897 0.0
C44 C 0.65035 0.31583 0.96934 0.0
C45 C 0.6098 0.33797 0.95537 0.0
C46 C 0.57904 0.408 0.91675 0.0
H47 H 0.57272 0.31366 0.94789 0.0
C48 C 0.59164 0.4232 0.87018 0.0
C49 C 0.55556 0.43431 0.8374 0.0
C50 C 0.52958 0.40326 0.93069 0.0
H51 H 0.51915 0.39047 0.96632 0.0
C52 C 0.49323 0.41452 0.89818 0.0
H53 H 0.62963 0.42537 0.85907 0.0
C54 C 0.50603 0.42995 0.85172 0.0
H55 H 0.47757 0.43988 0.82761 0.0
H56 H 0.45512 0.41139 0.909 0.0
H57 H 0.9195 0.69518 0.41241 0.0
C58 C 0.90307 0.67897 0.44486 0.0
C59 C 0.91419 0.70977 0.4887 0.0
C60 C 0.8631 0.63517 0.44057 0.0
H61 H 0.89725 0.71809 0.56338 0.0
C62 C 0.89059 0.69244 0.5306 0.0
C63 C 0.84822 0.65163 0.52668 0.0
C64 C 0.83762 0.62028 0.48292 0.0
C65 C 0.84031 0.61519 0.39069 0.0
H66 H 0.80507 0.5886 0.48032 0.0
C67 C 0.86973 0.61927 0.34939 0.0
C68 C 0.84735 0.61186 0.30157 0.0
C69 C 0.78784 0.59917 0.38294 0.0
H70 H 0.76303 0.59686 0.41267 0.0
C71 C 0.76569 0.58893 0.33601 0.0
H72 H 0.91015 0.62927 0.35452 0.0
C73 C 0.79489 0.59613 0.29568 0.0
H74 H 0.77592 0.5907 0.25994 0.0
H75 H 0.7253 0.5774 0.33084 0.0
H76 H 0.84901 0.8761 0.92705 0.0
C77 C 0.86877 0.89577 0.89783 0.0
C78 C 0.91638 0.88706 0.88569 0.0
C79 C 0.84412 0.92718 0.86999 0.0
H80 H 0.9758 0.909 0.83516 0.0
C81 C 0.93891 0.91275 0.84519 0.0
C82 C 0.91343 0.94243 0.81573 0.0
C83 C 0.86656 0.94985 0.8292 0.0
C84 C 0.79239 0.93278 0.87946 0.0
H85 H 0.8471 0.97364 0.80768 0.0
C86 C 0.78014 0.95405 0.9243 0.0
C87 C 0.73196 0.96457 0.92944 0.0
C88 C 0.75549 0.91996 0.84116 0.0
H89 H 0.76391 0.90314 0.80659 0.0
C90 C 0.70769 0.92925 0.84668 0.0
H91 H 0.80819 0.964 0.95416 0.0
C92 C 0.69607 0.95179 0.89028 0.0
H93 H 0.65852 0.95848 0.89376 0.0
H94 H 0.67961 0.91926 0.81691 0.0
H95 H 0.71079 0.18504 0.5152 0.0
C96 C 0.69537 0.18065 0.47797 0.0
C97 C 0.71799 0.15537 0.44172 0.0
C98 C 0.65188 0.19906 0.46658 0.0
H99 H 0.71292 0.12914 0.36545 0.0
C100 C 0.69584 0.14823 0.39391 0.0
C101 C 0.65209 0.16628 0.38233 0.0
C102 C 0.63084 0.19226 0.41891 0.0
C103 C 0.6253 0.22157 0.50487 0.0
H104 H 0.59638 0.20523 0.41088 0.0
C105 C 0.62007 0.27351 0.50401 0.0
C106 C 0.59024 0.29366 0.53751 0.0
C107 C 0.60116 0.1896 0.53964 0.0
H108 H 0.60429 0.14927 0.54028 0.0
C109 C 0.57117 0.2089 0.57258 0.0
H110 H 0.63966 0.29795 0.47739 0.0
C111 C 0.56535 0.26029 0.57138 0.0
H112 H 0.54072 0.27348 0.59667 0.0
H113 H 0.55173 0.18372 0.59872 0.0
H114 H 0.38617 0.72584 0.28449 0.0
C115 C 0.35922 0.71982 0.25379 0.0
C116 C 0.35453 0.76291 0.22687 0.0
C117 C 0.32952 0.6697 0.24047 0.0
H118 H 0.32134 0.78691 0.16146 0.0
C119 C 0.32295 0.755 0.18449 0.0
C120 C 0.29435 0.70602 0.17033 0.0
C121 C 0.29647 0.66423 0.19917 0.0
C122 C 0.33029 0.62322 0.26979 0.0
H123 H 0.27039 0.62773 0.18993 0.0
C124 C 0.34504 0.6291 0.31965 0.0
C125 C 0.34318 0.58557 0.3481 0.0
C126 C 0.3147 0.57217 0.24837 0.0
H127 H 0.30616 0.56481 0.20966 0.0
C128 C 0.3094 0.52918 0.27668 0.0
H129 H 0.3592 0.66767 0.33598 0.0
C130 C 0.32246 0.53573 0.3263 0.0
H131 H 0.31793 0.50131 0.34693 0.0
H132 H 0.29583 0.49044 0.25989 0.0
H133 H 0.2034 0.49107 0.68663 0.0
C134 C 0.18427 0.46664 0.65582 0.0
C135 C 0.20844 0.4648 0.6118 0.0
C136 C 0.14004 0.43108 0.66336 0.0
H137 H 0.20282 0.42689 0.53956 0.0
C138 C 0.18358 0.43106 0.57265 0.0
C139 C 0.13592 0.3986 0.57846 0.0
C140 C 0.11428 0.40051 0.62381 0.0
C141 C 0.12994 0.4151 0.71351 0.0
H142 H 0.08042 0.37261 0.63078 0.0
C143 C 0.13245 0.45222 0.75236 0.0
C144 C 0.13217 0.43758 0.80106 0.0
C145 C 0.12504 0.36242 0.72344 0.0
H146 H 0.12392 0.33287 0.69434 0.0
C147 C 0.12457 0.34752 0.77122 0.0
H148 H 0.13415 0.49231 0.74405 0.0
C149 C 0.129 0.38476 0.80981 0.0
H150 H 0.12984 0.37185 0.84645 0.0
H151 H 0.12179 0.30699 0.77843 0.0
O152 O 0.03238 0.08357 0.65461 0.0
Mg153 Mg 0.07202 0.11784 0.59731 0.0
O154 O 0.98005 0.03347 0.60064 0.0
Mg155 Mg 0.00932 0.06018 0.52176 0.0
O156 O 0.04277 0.15073 0.54024 0.0
O157 O 0.08732 0.1953 0.60537 0.0
O158 O 0.04453 0.09009 0.44553 0.0
O159 O 0.93131 0.08747 0.50863 0.0
Mg160 Mg 0.96871 0.01494 0.44626 0.0
O161 O 0.977 0.9676 0.50195 0.0
O162 O 0.01989 0.02395 0.39334 0.0
O163 O 0.90779 0.04939 0.43671 0.0
O164 O 0.93452 0.94204 0.43037 0.0
C165 C 0.12789 0.0486 0.55719 0.0
C166 C 0.99519 0.04649 0.64517 0.0
C167 C 0.06565 0.19466 0.56278 0.0
C168 C 0.0469 0.06821 0.40338 0.0
C169 C 0.89966 0.07789 0.47212 0.0
C170 C 0.95141 0.93089 0.47175 0.0
O171 O 0.13613 0.0913 0.5821 0.0
O172 O 0.08467 0.031 0.53612 0.0
O173 O 0.41432 0.14073 0.09708 0.0
Mg174 Mg 0.49151 0.161 0.1055 0.0
O175 O 0.41654 0.06097 0.11775 0.0
Mg176 Mg 0.49814 0.04432 0.09711 0.0
O177 O 0.52552 0.11908 0.05938 0.0
O178 O 0.52632 0.20316 0.05217 0.0
O179 O 0.579 0.03318 0.07297 0.0
O180 O 0.46119 0.00817 0.01943 0.0
Mg181 Mg 0.51268 0.94846 0.08708 0.0
O182 O 0.47345 0.96926 0.14395 0.0
O183 O 0.58985 0.95772 0.09453 0.0
O184 O 0.47907 0.93068 1.0168 0.0
O185 O 0.48928 0.88955 0.12758 0.0
C186 C 0.54415 0.12781 0.19379 0.0
C187 C 0.39222 0.09714 0.11054 0.0
C188 C 0.54105 0.16161 0.03796 0.0
C189 C 0.60746 0.00062 0.07738 0.0
C190 C 0.46043 0.96462 0.99627 0.0
C191 C 0.47165 0.92137 0.15541 0.0
O192 O 0.52844 0.16524 0.17554 0.0
O193 O 0.53656 0.08303 0.1711 0.0
O194 O 0.5335 0.7097 0.69605 0.0
Mg195 Mg 0.50202 0.63145 0.70482 0.0
O196 O 0.5254 0.69461 0.61606 0.0
Mg197 Mg 0.53519 0.60848 0.59593 0.0
O198 O 0.54635 0.58967 0.67284 0.0
O199 O 0.53837 0.59141 0.7523 0.0
O200 O 0.54724 0.527 0.57239 0.0
O201 O 0.62256 0.63558 0.59817 0.0
Mg202 Mg 0.58974 0.6176 0.49113 0.0
O203 O 0.52468 0.62445 0.51869 0.0
O204 O 0.58959 0.53703 0.50436 0.0
O205 O 0.6444 0.67476 0.53099 0.0
O206 O 0.53604 0.63535 0.44137 0.0
C207 C 0.41637 0.57563 0.62968 0.0
C208 C 0.5312 0.72613 0.65388 0.0
C209 C 0.55644 0.57313 0.71432 0.0
C210 C 0.56981 0.50882 0.53785 0.0
C211 C 0.65567 0.66276 0.57335 0.0
C212 C 0.50614 0.63065 0.47656 0.0
O213 O 0.42934 0.59556 0.67268 0.0
O214 O 0.44824 0.57665 0.59674 0.0
O215 O 0.99808 0.49843 0.1015 0.0
Mg216 Mg 0.02549 0.57894 0.10015 0.0
O217 O 0.03627 0.52214 0.03596 0.0
Mg218 Mg 0.00712 0.60395 0.02075 0.0
O219 O 0.97165 0.62167 0.09819 0.0
O220 O 0.01782 0.61201 0.16555 0.0
O221 O 0.9832 0.68505 0.99683 0.0
O222 O 0.92823 0.5514 1.00069 0.0
Mg223 Mg 0.9789 0.60103 0.90947 0.0
O224 O 0.03948 0.58806 0.94725 0.0
O225 O 0.97386 0.67731 0.91618 0.0
O226 O 0.91517 0.54422 0.92052 0.0
O227 O 0.03274 0.58561 0.86599 0.0
C228 C 0.11736 0.63888 0.0642 0.0
C229 C 0.02378 0.48756 0.06711 0.0
C230 C 0.97999 0.62642 0.14548 0.0
C231 C 0.97564 0.70429 0.95561 0.0
C232 C 0.90117 0.53243 0.96253 0.0
C233 C 0.05732 0.57932 0.90548 0.0
O234 O 0.10312 0.6004 0.08932 0.0
O235 O 0.08506 0.65663 0.03993 0.0
C236 C 0.10781 0.0871 0.28311 0.0
C237 C 0.12902 0.14059 0.28549 0.0
H238 H 0.06672 0.02276 0.31828 0.0
C239 C 0.12435 0.17069 0.32821 0.0
H240 H 0.11011 0.06278 0.25073 0.0
C241 C 0.09893 0.14751 0.36757 0.0
C242 C 0.07753 0.09392 0.36465 0.0
H243 H 0.14082 0.21196 0.33143 0.0
H244 H 0.0954 0.17153 0.39979 0.0
C245 C 0.08267 0.06416 0.32202 0.0
C246 C 0.43603 0.89706 0.87021 0.0
C247 C 0.42466 0.93609 0.84171 0.0
H248 H 0.45429 0.8748 0.94086 0.0
C249 C 0.42089 0.98395 0.86487 0.0
H250 H 0.43804 0.85943 0.85353 0.0
C251 C 0.43062 0.99324 0.91549 0.0
C252 C 0.44347 0.95442 0.94384 0.0
H253 H 0.41171 0.01456 0.84363 0.0
H254 H 0.42933 0.03106 0.93213 0.0
C255 C 0.44493 0.90592 0.92047 0.0
C256 C 0.61335 0.49754 0.7909 0.0
C257 C 0.57093 0.45663 0.79091 0.0
H258 H 0.64499 0.56867 0.75945 0.0
C259 C 0.53873 0.44494 0.74898 0.0
H260 H 0.63962 0.50695 0.82221 0.0
C261 C 0.54299 0.48 0.71231 0.0
C262 C 0.57781 0.52747 0.71912 0.0
H263 H 0.50694 0.41232 0.74724 0.0
H264 H 0.51296 0.47486 0.68435 0.0
C265 C 0.61713 0.53261 0.75439 0.0
C266 C 0.9234 0.65973 0.26091 0.0
C267 C 0.87833 0.62185 0.25804 0.0
H268 H 0.99102 0.69183 0.22641 0.0
C269 C 0.86359 0.59316 0.21328 0.0
H270 H 0.9355 0.68397 0.29391 0.0
C271 C 0.89429 0.60007 0.17368 0.0
C272 C 0.94095 0.63482 0.17824 0.0
H273 H 0.8297 0.56313 0.20935 0.0
H274 H 0.88363 0.57465 0.14109 0.0
C275 C 0.95471 0.66547 0.22175 0.0
C276 C 0.26686 0.13295 0.1118 0.0
C277 C 0.25704 0.1306 0.16143 0.0
H278 H 0.31685 0.12186 0.05625 0.0
C279 C 0.28675 0.10552 0.19137 0.0
H280 H 0.24427 0.1507 0.08729 0.0
C281 C 0.3277 0.08748 0.17304 0.0
C282 C 0.33999 0.0944 0.12452 0.0
H283 H 0.28079 0.10314 0.22986 0.0
H284 H 0.35245 0.07285 0.19796 0.0
C285 C 0.30789 0.11536 0.09371 0.0
C286 C 0.17782 0.92778 0.57377 0.0
C287 C 0.21952 0.94803 0.6061 0.0
H288 H 0.11561 0.94412 0.53195 0.0
C289 C 0.23714 0.00227 0.61104 0.0
H290 H 0.16432 0.88617 0.56742 0.0
C291 C 0.21027 0.03531 0.58928 0.0
C292 C 0.16453 0.01498 0.56305 0.0
H293 H 0.26903 0.01978 0.63529 0.0
H294 H 0.22291 0.07686 0.59716 0.0
C295 C 0.15026 0.96099 0.55271 0.0
C296 C 0.77109 0.45607 0.92748 0.0
C297 C 0.7559 0.43409 0.97109 0.0
H298 H 0.82862 0.50385 0.89069 0.0
C299 C 0.78888 0.44374 1.01253 0.0
H300 H 0.74622 0.44882 0.89504 0.0
C301 C 0.8365 0.47596 1.01031 0.0
C302 C 0.85163 0.49795 0.96637 0.0
H303 H 0.77751 0.42709 0.04653 0.0
H304 H 0.86137 0.48351 0.04272 0.0
C305 C 0.81841 0.48741 0.92506 0.0
C306 C 0.79262 0.70463 0.56426 0.0
C307 C 0.80584 0.65575 0.55788 0.0
H308 H 0.73354 0.74528 0.57536 0.0
C309 C 0.77189 0.61121 0.57074 0.0
H310 H 0.81724 0.73989 0.55403 0.0
C311 C 0.72373 0.61487 0.58403 0.0
C312 C 0.70882 0.66291 0.58366 0.0
H313 H 0.78088 0.57314 0.56614 0.0
H314 H 0.69645 0.5793 0.58856 0.0
C315 C 0.74446 0.70805 0.57659 0.0
C316 C 0.13042 0.41652 0.07437 0.0
C317 C 0.11447 0.38085 0.11001 0.0
H318 H 0.11382 0.47736 0.03157 0.0
C319 C 0.06446 0.37336 0.12313 0.0
H320 H 0.16868 0.42295 0.06319 0.0
C321 C 0.03295 0.40476 0.10503 0.0
C322 C 0.05054 0.44403 0.07303 0.0
H323 H 0.05099 0.34642 0.1505 0.0
H324 H 0.99591 0.40086 0.11894 0.0
C325 C 0.0988 0.44754 0.0559 0.0
C326 C 0.65727 0.23943 1.01704 0.0
C327 C 0.64097 0.25892 0.97423 0.0
H328 H 0.63758 0.18328 0.06998 0.0
C329 C 0.60467 0.22585 0.94274 0.0
H330 H 0.68612 0.26326 0.04144 0.0
C331 C 0.57583 0.18089 0.95995 0.0
C332 C 0.58435 0.16879 1.00799 0.0
H333 H 0.59323 0.23878 0.90813 0.0
H334 H 0.5417 0.16182 0.93937 0.0
C335 C 0.62968 0.19306 0.03312 0.0
C336 C 0.96695 0.79932 0.51356 0.0
C337 C 0.92762 0.76667 0.48521 0.0
H338 H 0.00596 0.87857 0.53184 0.0
C339 C 0.89455 0.78885 0.45719 0.0
H340 H 0.99182 0.7828 0.53672 0.0
C341 C 0.90138 0.84221 0.45568 0.0
C342 C 0.94183 0.87535 0.4818 0.0
H343 H 0.86247 0.7647 0.43684 0.0
H344 H 0.87504 0.8575 0.43312 0.0
C345 C 0.97437 0.85374 0.5115 0.0
C346 C 0.52073 0.85889 0.69898 0.0
C347 C 0.47051 0.85749 0.68379 0.0
H348 H 0.58052 0.81746 0.70057 0.0
C349 C 0.44765 0.81905 0.64735 0.0
H350 H 0.54084 0.88868 0.72524 0.0
C351 C 0.47193 0.7803 0.63095 0.0
C352 C 0.5188 0.77771 0.65176 0.0
H353 H 0.40909 0.81503 0.63441 0.0
H354 H 0.45112 0.74861 0.60682 0.0
C355 C 0.54422 0.81879 0.68388 0.0
C356 C 0.98519 0.99165 0.77055 0.0
C357 C 0.93484 0.96564 0.77046 0.0
H358 H 0.04305 0.03725 0.73162 0.0
C359 C 0.90443 0.96405 0.72732 0.0
H360 H 0.00971 0.99392 0.80286 0.0
C361 C 0.92368 0.98887 0.68588 0.0
C362 C 0.97358 0.01666 0.6869 0.0
H363 H 0.86553 0.94373 0.72567 0.0
H364 H 0.89923 0.98747 0.65365 0.0
C365 C 0.00412 0.01699 0.72961 0.0
C366 C 0.61915 0.10734 0.30805 0.0
C367 C 0.6271 0.15671 0.33273 0.0
H368 H 0.58619 0.0591 0.2451 0.0
C369 C 0.6084 0.19639 0.31093 0.0
H370 H 0.63266 0.07583 0.3242 0.0
C371 C 0.58165 0.18683 0.26598 0.0
C372 C 0.57277 0.13726 0.24156 0.0
H373 H 0.61436 0.23497 0.32877 0.0
H374 H 0.56774 0.21846 0.25052 0.0
C375 C 0.59215 0.09766 0.26296 0.0
C376 C 0.38251 0.64066 0.42328 0.0
C377 C 0.37047 0.59179 0.39696 0.0
H378 H 0.4378 0.69276 0.47001 0.0
C379 C 0.39432 0.55228 0.41226 0.0
H380 H 0.3629 0.67123 0.41544 0.0
C381 C 0.43467 0.56398 0.44627 0.0
C382 C 0.45258 0.61533 0.46447 0.0
H383 H 0.38657 0.51384 0.39421 0.0
H384 H 0.45609 0.53444 0.45298 0.0
C385 C 0.42458 0.65293 0.45567 0.0
C386 C 0.1025 0.46177 0.88263 0.0
C387 C 0.13054 0.47653 0.84186 0.0
H388 H 0.05999 0.4862 0.93927 0.0
C389 C 0.14987 0.52991 0.837 0.0
H390 H 0.08725 0.42136 0.88855 0.0
C391 C 0.13279 0.56707 0.86571 0.0
C392 C 0.09765 0.55122 0.90051 0.0
H393 H 0.17409 0.54309 0.808 0.0
H394 H 0.1418 0.60737 0.85634 0.0
C395 C 0.08709 0.49918 0.91245 0.0
C396 C 0.7135 0.95703 1.01698 0.0
C397 C 0.71639 0.98618 0.9756 0.0
H398 H 0.67714 0.93995 0.08328 0.0
C399 C 0.69331 0.02921 0.97502 0.0
H400 H 0.73085 0.92365 0.01826 0.0
C401 C 0.66247 0.03875 1.01223 0.0
C402 C 0.65384 0.00494 0.0503 0.0
H403 H 0.69538 0.05249 0.94352 0.0
H404 H 0.64137 0.06901 1.0083 0.0
C405 C 0.6825 0.96638 0.05411 0.0
C406 C 0.76768 0.08596 0.43323 0.0
C407 C 0.76356 0.13465 0.45372 0.0
H408 H 0.81328 0.03011 0.42372 0.0
C409 C 0.80352 0.16321 0.48455 0.0
H410 H 0.73722 0.06215 0.4106 0.0
C411 C 0.84749 0.1443 0.49277 0.0
C412 C 0.85219 0.09676 0.46999 0.0
H413 H 0.8015 0.20092 0.50095 0.0
H414 H 0.87837 0.1677 0.51518 0.0
C415 C 0.81132 0.06745 0.44107 0.0
C416 C 0.22476 0.7322 0.12319 0.0
C417 C 0.25827 0.69865 0.12798 0.0
H418 H 0.15207 0.73926 0.09609 0.0
C419 C 0.25094 0.65283 0.09783 0.0
H420 H 0.22982 0.76797 0.14581 0.0
C421 C 0.20642 0.63642 0.06978 0.0
C422 C 0.16951 0.6662 0.07107 0.0
H423 H 0.27707 0.6271 0.09995 0.0
H424 H 0.19844 0.59783 0.0517 0.0
C425 C 0.18042 0.71602 0.09449 0.0
C426 C 0.28495 0.51741 0.57289 0.0
C427 C 0.26292 0.49025 0.61209 0.0
H428 H 0.35166 0.56596 0.54716 0.0
C429 C 0.29344 0.4883 0.65414 0.0
H430 H 0.26281 0.51906 0.53971 0.0
C431 C 0.34276 0.51592 0.65885 0.0
C432 C 0.36433 0.54503 0.62103 0.0
H433 H 0.279 0.46577 0.68425 0.0
H434 H 0.36425 0.51429 0.6925 0.0
C435 C 0.3356 0.54434 0.5772 0.0
C436 C 0.92367 0.82794 0.95683 0.0
C437 C 0.93965 0.84726 0.91146 0.0
H438 H 0.92223 0.76736 1.00747 0.0
C439 C 0.97544 0.82424 0.88847 0.0
H440 H 0.89793 0.84513 0.9776 0.0
C441 C 0.99144 0.78207 0.90749 0.0
C442 C 0.9711 0.75913 0.94926 0.0
H443 H 0.98934 0.83572 0.85372 0.0
H444 H 0.01699 0.76437 0.88668 0.0
C445 C 0.9386 0.78387 0.97513 0.0
C446 C 0.36768 0.8596 0.22661 0.0
C447 C 0.38688 0.81536 0.23725 0.0
H448 H 0.38129 0.93093 0.1901 0.0
C449 C 0.43892 0.82 0.24069 0.0
H450 H 0.32764 0.85768 0.22577 0.0
C451 C 0.46972 0.86285 0.22204 0.0
C452 C 0.44834 0.90025 0.19917 0.0
H453 H 0.45512 0.78733 0.25002 0.0
H454 H 0.50887 0.86206 0.21806 0.0
C455 C 0.39835 0.90185 0.20652 0.0
C456 C 0.14671 0.31755 0.53404 0.0
C457 C 0.11503 0.35161 0.54546 0.0
H458 H 0.15395 0.23821 0.52885 0.0
C459 C 0.0627 0.33154 0.54203 0.0
H460 H 0.18702 0.33126 0.53579 0.0
C461 C 0.0438 0.2776 0.53973 0.0
C462 C 0.07694 0.24365 0.53802 0.0
H463 H 0.03714 0.35703 0.54945 0.0
H464 H 0.00455 0.26297 0.54578 0.0
C465 C 0.12766 0.26385 0.53028 0.0
C466 C 0.57873 0.37662 0.58092 0.0
C467 C 0.58486 0.34899 0.53724 0.0
H468 H 0.56873 0.44822 0.61517 0.0
C469 C 0.5858 0.37484 0.49358 0.0
H470 H 0.57908 0.35888 0.61551 0.0
C471 C 0.58117 0.42679 0.49376 0.0
C472 C 0.57439 0.45381 0.53739 0.0
H473 H 0.58945 0.35491 0.45903 0.0
H474 H 0.58216 0.44557 0.45959 0.0
C475 C 0.57304 0.42812 0.58089 0.0
loop_
_geom_bond_atom_site_label_1
_geom_bond_atom_site_label_2
_geom_bond_distance
_geom_bond_site_symmetry_2
_ccdc_geom_bond_type
H0 C1 0.949 . S
C1 H0 0.949 . S
C1 C2 1.395 . S
C1 C3 1.391 . S
C2 C1 1.395 . S
C2 C5 1.390 . S
C3 C1 1.391 . S
C3 C7 1.387 . S
C3 C8 1.491 . S
H4 C5 0.950 . S
C5 C2 1.390 . S
C5 H4 0.950 . S
C5 C6 1.378 . S
C6 C5 1.378 . S
C6 C7 1.409 . S
C7 C3 1.387 . S
C7 C6 1.409 . S
C7 H9 0.951 . S
C8 C3 1.491 . S
C8 C10 1.382 . S
C8 C12 1.404 . S
H9 C7 0.951 . S
C10 C8 1.382 . S
C10 C11 1.390 . S
C10 H15 0.949 . S
C11 C10 1.390 . S
C11 C16 1.399 . S
C12 C8 1.404 . S
C12 H13 0.950 . S
C12 C14 1.375 . S
H13 C12 0.950 . S
C14 C12 1.375 . S
C14 C16 1.382 . S
C14 H18 0.950 . S
H15 C10 0.949 . S
C16 C11 1.399 . S
C16 C14 1.382 . S
C16 H17 0.952 . S
H17 C16 0.952 . S
H18 C14 0.950 . S
H19 C20 0.949 . S
C20 H19 0.949 . S
C20 C21 1.395 . S
C20 C22 1.391 . S
C21 C20 1.395 . S
C21 C24 1.390 . S
C22 C20 1.391 . S
C22 C26 1.387 . S
C22 C27 1.491 . S
H23 C24 0.950 . S
C24 C21 1.390 . S
C24 H23 0.950 . S
C24 C25 1.378 . S
C25 C24 1.378 . S
C25 C26 1.409 . S
C26 C22 1.387 . S
C26 C25 1.409 . S
C26 H28 0.951 . S
C27 C22 1.491 . S
C27 C29 1.382 . S
C27 C31 1.404 . S
H28 C26 0.951 . S
C29 C27 1.382 . S
C29 C30 1.390 . S
C29 H34 0.949 1_565 S
C30 C29 1.390 . S
C30 C35 1.399 . S
C31 C27 1.404 . S
C31 H32 0.950 . S
C31 C33 1.375 . S
H32 C31 0.950 . S
C33 C31 1.375 . S
C33 C35 1.382 . S
C33 H37 0.950 . S
H34 C29 0.949 1_545 S
C35 C30 1.399 . S
C35 C33 1.382 . S
C35 H36 0.952 . S
H36 C35 0.952 . S
H37 C33 0.950 . S
H38 C39 0.949 . S
C39 H38 0.949 . S
C39 C40 1.395 . S
C39 C41 1.391 . S
C40 C39 1.395 . S
C40 C43 1.390 . S
C41 C39 1.391 . S
C41 C45 1.387 . S
C41 C46 1.491 . S
H42 C43 0.937 1_554 S
C43 C40 1.390 . S
C43 H42 0.937 1_556 S
C43 C44 1.378 . S
C44 C43 1.378 . S
C44 C45 1.409 . S
C45 C41 1.387 . S
C45 C44 1.409 . S
C45 H47 0.951 . S
C46 C41 1.491 . S
C46 C48 1.382 . S
C46 C50 1.404 . S
H47 C45 0.951 . S
C48 C46 1.382 . S
C48 C49 1.390 . S
C48 H53 0.949 . S
C49 C48 1.390 . S
C49 C54 1.399 . S
C50 C46 1.404 . S
C50 H51 0.950 . S
C50 C52 1.375 . S
H51 C50 0.950 . S
C52 C50 1.375 . S
C52 C54 1.382 . S
C52 H56 0.950 . S
H53 C48 0.949 . S
C54 C49 1.399 . S
C54 C52 1.382 . S
C54 H55 0.952 . S
H55 C54 0.952 . S
H56 C52 0.950 . S
H57 C58 0.949 . S
C58 H57 0.949 . S
C58 C59 1.395 . S
C58 C60 1.391 . S
C59 C58 1.395 . S
C59 C62 1.390 . S
C60 C58 1.391 . S
C60 C64 1.387 . S
C60 C65 1.491 . S
H61 C62 0.950 . S
C62 C59 1.390 . S
C62 H61 0.950 . S
C62 C63 1.378 . S
C63 C62 1.378 . S
C63 C64 1.409 . S
C64 C60 1.387 . S
C64 C63 1.409 . S
C64 H66 0.951 . S
C65 C60 1.491 . S
C65 C67 1.382 . S
C65 C69 1.404 . S
H66 C64 0.951 . S
C67 C65 1.382 . S
C67 C68 1.390 . S
C67 H72 0.949 . S
C68 C67 1.390 . S
C68 C73 1.399 . S
C69 C65 1.404 . S
C69 H70 0.950 . S
C69 C71 1.375 . S
H70 C69 0.950 . S
C71 C69 1.375 . S
C71 C73 1.382 . S
C71 H75 0.950 . S
H72 C67 0.949 . S
C73 C68 1.399 . S
C73 C71 1.382 . S
C73 H74 0.952 . S
H74 C73 0.952 . S
H75 C71 0.950 . S
H76 C77 0.949 . S
C77 H76 0.949 . S
C77 C78 1.395 . S
C77 C79 1.391 . S
C78 C77 1.395 . S
C78 C81 1.390 . S
C79 C77 1.391 . S
C79 C83 1.387 . S
C79 C84 1.491 . S
H80 C81 0.950 . S
C81 C78 1.390 . S
C81 H80 0.950 . S
C81 C82 1.378 . S
C82 C81 1.378 . S
C82 C83 1.409 . S
C83 C79 1.387 . S
C83 C82 1.409 . S
C83 H85 0.951 . S
C84 C79 1.491 . S
C84 C86 1.382 . S
C84 C88 1.404 . S
H85 C83 0.951 . S
C86 C84 1.382 . S
C86 C87 1.390 . S
C86 H91 0.949 . S
C87 C86 1.390 . S
C87 C92 1.399 . S
C88 C84 1.404 . S
C88 H89 0.950 . S
C88 C90 1.375 . S
H89 C88 0.950 . S
C90 C88 1.375 . S
C90 C92 1.382 . S
C90 H94 0.950 . S
H91 C86 0.949 . S
C92 C87 1.399 . S
C92 C90 1.382 . S
C92 H93 0.952 . S
H93 C92 0.952 . S
H94 C90 0.950 . S
H95 C96 0.949 . S
C96 H95 0.949 . S
C96 C97 1.395 . S
C96 C98 1.391 . S
C97 C96 1.395 . S
C97 C100 1.390 . S
C98 C96 1.391 . S
C98 C102 1.387 . S
C98 C103 1.491 . S
H99 C100 0.950 . S
C100 C97 1.390 . S
C100 H99 0.950 . S
C100 C101 1.378 . S
C101 C100 1.378 . S
C101 C102 1.409 . S
C102 C98 1.387 . S
C102 C101 1.409 . S
C102 H104 0.951 . S
C103 C98 1.491 . S
C103 C105 1.382 . S
C103 C107 1.404 . S
H104 C102 0.951 . S
C105 C103 1.382 . S
C105 C106 1.390 . S
C105 H110 0.949 . S
C106 C105 1.390 . S
C106 C111 1.399 . S
C107 C103 1.404 . S
C107 H108 0.950 . S
C107 C109 1.375 . S
H108 C107 0.950 . S
C109 C107 1.375 . S
C109 C111 1.382 . S
C109 H113 0.950 . S
H110 C105 0.949 . S
C111 C106 1.399 . S
C111 C109 1.382 . S
C111 H112 0.952 . S
H112 C111 0.952 . S
H113 C109 0.950 . S
H114 C115 0.949 . S
C115 H114 0.949 . S
C115 C116 1.395 . S
C115 C117 1.391 . S
C116 C115 1.395 . S
C116 C119 1.390 . S
C117 C115 1.391 . S
C117 C121 1.387 . S
C117 C122 1.491 . S
H118 C119 0.950 . S
C119 C116 1.390 . S
C119 H118 0.950 . S
C119 C120 1.378 . S
C120 C119 1.378 . S
C120 C121 1.409 . S
C121 C117 1.387 . S
C121 C120 1.409 . S
C121 H123 0.951 . S
C122 C117 1.491 . S
C122 C124 1.382 . S
C122 C126 1.404 . S
H123 C121 0.951 . S
C124 C122 1.382 . S
C124 C125 1.390 . S
C124 H129 0.949 . S
C125 C124 1.390 . S
C125 C130 1.399 . S
C126 C122 1.404 . S
C126 H127 0.950 . S
C126 C128 1.375 . S
H127 C126 0.950 . S
C128 C126 1.375 . S
C128 C130 1.382 . S
C128 H132 0.950 . S
H129 C124 0.949 . S
C130 C125 1.399 . S
C130 C128 1.382 . S
C130 H131 0.952 . S
H131 C130 0.952 . S
H132 C128 0.950 . S
H133 C134 0.949 . S
C134 H133 0.949 . S
C134 C135 1.395 . S
C134 C136 1.391 . S
C135 C134 1.395 . S
C135 C138 1.390 . S
C136 C134 1.391 . S
C136 C140 1.387 . S
C136 C141 1.491 . S
H137 C138 0.950 . S
C138 C135 1.390 . S
C138 H137 0.950 . S
C138 C139 1.378 . S
C139 C138 1.378 . S
C139 C140 1.409 . S
C140 C136 1.387 . S
C140 C139 1.409 . S
C140 H142 0.951 . S
C141 C136 1.491 . S
C141 C143 1.382 . S
C141 C145 1.404 . S
H142 C140 0.951 . S
C143 C141 1.382 . S
C143 C144 1.390 . S
C143 H148 0.949 . S
C144 C143 1.390 . S
C144 C149 1.399 . S
C145 C141 1.404 . S
C145 H146 0.950 . S
C145 C147 1.375 . S
H146 C145 0.950 . S
C147 C145 1.375 . S
C147 C149 1.382 . S
C147 H151 0.950 . S
H148 C143 0.949 . S
C149 C144 1.399 . S
C149 C147 1.382 . S
C149 H150 0.952 . S
H150 C149 0.952 . S
H151 C147 0.950 . S
O152 Mg153 1.990 . S
O152 C166 1.253 1_455 S
Mg153 O152 1.990 . S
Mg153 O156 2.180 . S
Mg153 O157 2.117 . S
Mg153 O171 2.030 . S
O154 Mg155 2.072 1_655 S
O154 C166 1.260 . S
Mg155 O154 2.072 1_455 S
Mg155 O156 2.099 . S
Mg155 O158 2.079 . S
Mg155 O159 2.072 1_455 S
Mg155 O161 2.099 1_445 S
Mg155 O172 2.079 . S
O156 Mg153 2.180 . S
O156 Mg155 2.099 . S
O156 C167 1.279 . S
O157 Mg153 2.117 . S
O157 C167 1.250 . S
O158 Mg155 2.079 . S
O158 C168 1.264 . S
O159 Mg155 2.072 1_655 S
O159 C169 1.260 . S
Mg160 O161 2.180 . S
Mg160 O162 2.030 1_565 S
Mg160 O163 1.990 1_565 S
Mg160 O164 2.117 . S
O161 Mg155 2.099 1_665 S
O161 Mg160 2.180 . S
O161 C170 1.279 . S
O162 Mg160 2.030 1_545 S
O162 C168 1.248 1_655 S
O163 Mg160 1.990 1_545 S
O163 C169 1.253 . S
O164 Mg160 2.117 . S
O164 C170 1.250 . S
C165 O171 1.248 . S
C165 O172 1.264 . S
C166 O152 1.253 1_655 S
C166 O154 1.260 . S
C167 O156 1.279 . S
C167 O157 1.250 . S
C168 O158 1.264 . S
C168 O162 1.248 1_455 S
C169 O159 1.260 . S
C169 O163 1.253 . S
C170 O161 1.279 . S
C170 O164 1.250 . S
O171 Mg153 2.030 . S
O171 C165 1.248 . S
O172 Mg155 2.079 . S
O172 C165 1.264 . S
O173 Mg174 1.990 . S
O173 C187 1.253 . S
Mg174 O173 1.990 . S
Mg174 O177 2.180 . S
Mg174 O178 2.117 . S
Mg174 O192 2.030 . S
O175 Mg176 2.072 . S
O175 C187 1.260 . S
Mg176 O175 2.072 . S
Mg176 O177 2.099 . S
Mg176 O179 2.079 . S
Mg176 O180 2.072 1_554 S
Mg176 O182 2.099 1_545 S
Mg176 O193 2.079 . S
O177 Mg174 2.180 . S
O177 Mg176 2.099 . S
O177 C188 1.279 . S
O178 Mg174 2.117 . S
O178 C188 1.250 . S
O179 Mg176 2.079 . S
O179 C189 1.264 . S
O180 Mg176 2.072 1_556 S
O180 C190 1.275 . S
Mg181 O182 2.180 . S
Mg181 O183 2.030 . S
Mg181 O184 1.990 1_554 S
Mg181 O185 2.117 . S
O182 Mg176 2.099 1_565 S
O182 Mg181 2.180 . S
O182 C191 1.279 . S
O183 Mg181 2.030 . S
O183 C189 1.248 1_565 S
O184 Mg181 1.990 1_556 S
O184 C190 1.232 1_565 S
O185 Mg181 2.117 . S
O185 C191 1.250 . S
C186 O192 1.248 . S
C186 O193 1.264 . S
C187 O173 1.253 . S
C187 O175 1.260 . S
C188 O177 1.279 . S
C188 O178 1.250 . S
C189 O179 1.264 . S
C189 O183 1.248 1_545 S
C190 O180 1.275 . S
C190 O184 1.232 1_545 S
C191 O182 1.279 . S
C191 O185 1.250 . S
O192 Mg174 2.030 . S
O192 C186 1.248 . S
O193 Mg176 2.079 . S
O193 C186 1.264 . S
O194 Mg195 1.990 . S
O194 C208 1.253 . S
Mg195 O194 1.990 . S
Mg195 O198 2.180 . S
Mg195 O199 2.117 . S
Mg195 O213 2.030 . S
O196 Mg197 2.072 . S
O196 C208 1.260 . S
Mg197 O196 2.072 . S
Mg197 O198 2.099 . S
Mg197 O200 2.079 . S
Mg197 O201 2.072 . S
Mg197 O203 2.099 . S
Mg197 O214 2.079 . S
O198 Mg195 2.180 . S
O198 Mg197 2.099 . S
O198 C209 1.279 . S
O199 Mg195 2.117 . S
O199 C209 1.250 . S
O200 Mg197 2.079 . S
O200 C210 1.264 . S
O201 Mg197 2.072 . S
O201 C211 1.260 . S
Mg202 O203 2.180 . S
Mg202 O204 2.030 . S
Mg202 O205 1.990 . S
Mg202 O206 2.117 . S
O203 Mg197 2.099 . S
O203 Mg202 2.180 . S
O203 C212 1.279 . S
O204 Mg202 2.030 . S
O204 C210 1.248 . S
O205 Mg202 1.990 . S
O205 C211 1.253 . S
O206 Mg202 2.117 . S
O206 C212 1.250 . S
C207 O213 1.248 . S
C207 O214 1.264 . S
C208 O194 1.253 . S
C208 O196 1.260 . S
C209 O198 1.279 . S
C209 O199 1.250 . S
C210 O200 1.264 . S
C210 O204 1.248 . S
C211 O201 1.260 . S
C211 O205 1.253 . S
C212 O203 1.279 . S
C212 O206 1.250 . S
O213 Mg195 2.030 . S
O213 C207 1.248 . S
O214 Mg197 2.079 . S
O214 C207 1.264 . S
O215 Mg216 1.990 . S
O215 C229 1.253 . S
Mg216 O215 1.990 . S
Mg216 O219 2.180 . S
Mg216 O220 2.117 1_455 S
Mg216 O234 2.030 . S
O217 Mg218 2.072 . S
O217 C229 1.260 . S
Mg218 O217 2.072 . S
Mg218 O219 2.099 . S
Mg218 O221 2.079 . S
Mg218 O222 2.072 1_455 S
Mg218 O224 2.099 1_554 S
Mg218 O235 2.079 . S
O219 Mg216 2.180 . S
O219 Mg218 2.099 . S
O219 C230 1.279 1_455 S
O220 Mg216 2.117 1_655 S
O220 C230 1.250 . S
O221 Mg218 2.079 . S
O221 C231 1.264 1_454 S
O222 Mg218 2.072 1_655 S
O222 C232 1.260 1_554 S
Mg223 O224 2.180 1_655 S
Mg223 O225 2.030 . S
Mg223 O226 1.990 . S
Mg223 O227 2.117 1_655 S
O224 Mg218 2.099 1_556 S
O224 Mg223 2.180 1_455 S
O224 C233 1.279 . S
O225 Mg223 2.030 . S
O225 C231 1.248 . S
O226 Mg223 1.990 . S
O226 C232 1.253 . S
O227 Mg223 2.117 1_455 S
O227 C233 1.250 . S
C228 O234 1.248 . S
C228 O235 1.264 . S
C229 O215 1.253 . S
C229 O217 1.260 . S
C230 O219 1.279 1_655 S
C230 O220 1.250 . S
C231 O221 1.264 1_656 S
C231 O225 1.248 . S
C232 O222 1.260 1_556 S
C232 O226 1.253 . S
C233 O224 1.279 . S
C233 O227 1.250 . S
O234 Mg216 2.030 . S
O234 C228 1.248 . S
O235 Mg218 2.079 . S
O235 C228 1.264 . S
C236 C237 1.387 . S
C236 H240 0.950 . S
C236 C245 1.390 . S
C237 C236 1.387 . S
C237 C239 1.387 . S
H238 C245 0.950 . S
C239 C237 1.387 . S
C239 C241 1.390 . S
C239 H243 0.950 . S
H240 C236 0.950 . S
C241 C239 1.390 . S
C241 C242 1.387 . S
C241 H244 0.950 . S
C242 C241 1.387 . S
C242 C245 1.387 . S
H243 C239 0.950 . S
H244 C241 0.950 . S
C245 C236 1.390 . S
C245 H238 0.950 . S
C245 C242 1.387 . S
C246 C247 1.387 . S
C246 H250 0.950 . S
C246 C255 1.390 . S
C247 C246 1.387 . S
C247 C249 1.387 1_565 S
H248 C255 0.950 . S
C249 C247 1.387 1_545 S
C249 C251 1.390 . S
C249 H253 0.950 . S
H250 C246 0.950 . S
C251 C249 1.390 . S
C251 C252 1.387 1_545 S
C251 H254 0.950 . S
C252 C251 1.387 1_565 S
C252 C255 1.387 . S
H253 C249 0.950 . S
H254 C251 0.950 . S
C255 C246 1.390 . S
C255 H248 0.950 . S
C255 C252 1.387 . S
C256 C257 1.387 . S
C256 H260 0.950 . S
C256 C265 1.390 . S
C257 C256 1.387 . S
C257 C259 1.387 . S
H258 C265 0.950 . S
C259 C257 1.387 . S
C259 C261 1.390 . S
C259 H263 0.950 . S
H260 C256 0.950 . S
C261 C259 1.390 . S
C261 C262 1.387 . S
C261 H264 0.950 . S
C262 C261 1.387 . S
C262 C265 1.387 . S
H263 C259 0.950 . S
H264 C261 0.950 . S
C265 C256 1.390 . S
C265 H258 0.950 . S
C265 C262 1.387 . S
C266 C267 1.387 . S
C266 H270 0.950 . S
C266 C275 1.390 . S
C267 C266 1.387 . S
C267 C269 1.387 . S
H268 C275 0.950 . S
C269 C267 1.387 . S
C269 C271 1.390 . S
C269 H273 0.950 . S
H270 C266 0.950 . S
C271 C269 1.390 . S
C271 C272 1.387 . S
C271 H274 0.950 . S
C272 C271 1.387 . S
C272 C275 1.387 . S
H273 C269 0.950 . S
H274 C271 0.950 . S
C275 C266 1.390 . S
C275 H268 0.950 . S
C275 C272 1.387 . S
C276 C277 1.387 . S
C276 H280 0.950 . S
C276 C285 1.390 . S
C277 C276 1.387 . S
C277 C279 1.387 . S
H278 C285 0.950 . S
C279 C277 1.387 . S
C279 C281 1.390 . S
C279 H283 0.950 . S
H280 C276 0.950 . S
C281 C279 1.390 . S
C281 C282 1.387 . S
C281 H284 0.950 . S
C282 C281 1.387 . S
C282 C285 1.387 . S
H283 C279 0.950 . S
H284 C281 0.950 . S
C285 C276 1.390 . S
C285 H278 0.950 . S
C285 C282 1.387 . S
C286 C287 1.373 1_565 S
C286 H290 0.950 . S
C286 C295 1.390 . S
C287 C286 1.373 1_545 S
C287 C289 1.409 . S
H288 C295 0.950 . S
C289 C287 1.409 . S
C289 C291 1.390 . S
C289 H293 0.950 . S
H290 C286 0.950 . S
C291 C289 1.390 . S
C291 C292 1.387 . S
C291 H294 0.950 . S
C292 C291 1.387 . S
C292 C295 1.387 1_545 S
H293 C289 0.950 . S
H294 C291 0.950 . S
C295 C286 1.390 . S
C295 H288 0.950 . S
C295 C292 1.387 1_565 S
C296 C297 1.387 . S
C296 H300 0.950 . S
C296 C305 1.390 . S
C297 C296 1.387 . S
C297 C299 1.387 1_556 S
H298 C305 0.950 . S
C299 C297 1.387 1_554 S
C299 C301 1.390 . S
C299 H303 0.950 . S
H300 C296 0.950 . S
C301 C299 1.390 . S
C301 C302 1.387 1_554 S
C301 H304 0.950 . S
C302 C301 1.387 1_556 S
C302 C305 1.387 . S
H303 C299 0.950 . S
H304 C301 0.950 . S
C305 C296 1.390 . S
C305 H298 0.950 . S
C305 C302 1.387 . S
C306 C307 1.387 . S
C306 H310 0.950 . S
C306 C315 1.390 . S
C307 C306 1.387 . S
C307 C309 1.387 . S
H308 C315 0.950 . S
C309 C307 1.387 . S
C309 C311 1.390 . S
C309 H313 0.950 . S
H310 C306 0.950 . S
C311 C309 1.390 . S
C311 C312 1.387 . S
C311 H314 0.950 . S
C312 C311 1.387 . S
C312 C315 1.387 . S
H313 C309 0.950 . S
H314 C311 0.950 . S
C315 C306 1.390 . S
C315 H308 0.950 . S
C315 C312 1.387 . S
C316 C317 1.387 . S
C316 H320 0.950 . S
C316 C325 1.390 . S
C317 C316 1.387 . S
C317 C319 1.387 . S
H318 C325 0.950 . S
C319 C317 1.387 . S
C319 C321 1.390 . S
C319 H323 0.950 . S
H320 C316 0.950 . S
C321 C319 1.390 . S
C321 C322 1.387 . S
C321 H324 0.950 . S
C322 C321 1.387 . S
C322 C325 1.387 . S
H323 C319 0.950 . S
H324 C321 0.950 . S
C325 C316 1.390 . S
C325 H318 0.950 . S
C325 C322 1.387 . S
C326 C327 1.387 1_554 S
C326 H330 0.950 . S
C326 C335 1.390 . S
C327 C326 1.387 1_556 S
C327 C329 1.387 . S
H328 C335 0.950 . S
C329 C327 1.387 . S
C329 C331 1.390 . S
C329 H333 0.950 . S
H330 C326 0.950 . S
C331 C329 1.390 . S
C331 C332 1.371 1_556 S
C331 H334 0.950 . S
C332 C331 1.371 1_554 S
C332 C335 1.401 . S
H333 C329 0.950 . S
H334 C331 0.950 . S
C335 C326 1.390 . S
C335 H328 0.950 . S
C335 C332 1.401 . S
C336 C337 1.387 . S
C336 H340 0.950 . S
C336 C345 1.390 . S
C337 C336 1.387 . S
C337 C339 1.387 . S
H338 C345 0.950 1_455 S
C339 C337 1.387 . S
C339 C341 1.390 . S
C339 H343 0.950 . S
H340 C336 0.950 . S
C341 C339 1.390 . S
C341 C342 1.387 . S
C341 H344 0.950 . S
C342 C341 1.387 . S
C342 C345 1.387 . S
H343 C339 0.950 . S
H344 C341 0.950 . S
C345 C336 1.390 . S
C345 H338 0.950 1_655 S
C345 C342 1.387 . S
C346 C347 1.387 . S
C346 H350 0.950 . S
C346 C355 1.390 . S
C347 C346 1.387 . S
C347 C349 1.387 . S
H348 C355 0.950 . S
C349 C347 1.387 . S
C349 C351 1.390 . S
C349 H353 0.950 . S
H350 C346 0.950 . S
C351 C349 1.390 . S
C351 C352 1.387 . S
C351 H354 0.950 . S
C352 C351 1.387 . S
C352 C355 1.387 . S
H353 C349 0.950 . S
H354 C351 0.950 . S
C355 C346 1.390 . S
C355 H348 0.950 . S
C355 C352 1.387 . S
C356 C357 1.387 1_455 S
C356 H360 0.950 . S
C356 C365 1.390 . S
C357 C356 1.387 1_655 S
C357 C359 1.387 . S
H358 C365 0.950 1_545 S
C359 C357 1.387 . S
C359 C361 1.390 . S
C359 H363 0.950 . S
H360 C356 0.950 . S
C361 C359 1.390 . S
C361 C362 1.387 . S
C361 H364 0.950 . S
C362 C361 1.387 . S
C362 C365 1.387 1_655 S
H363 C359 0.950 . S
H364 C361 0.950 . S
C365 C356 1.390 . S
C365 H358 0.950 1_565 S
C365 C362 1.387 1_455 S
C366 C367 1.387 . S
C366 H370 0.950 . S
C366 C375 1.390 . S
C367 C366 1.387 . S
C367 C369 1.387 . S
H368 C375 0.950 . S
C369 C367 1.387 . S
C369 C371 1.390 . S
C369 H373 0.950 . S
H370 C366 0.950 . S
C371 C369 1.390 . S
C371 C372 1.387 . S
C371 H374 0.950 . S
C372 C371 1.387 . S
C372 C375 1.387 . S
H373 C369 0.950 . S
H374 C371 0.950 . S
C375 C366 1.390 . S
C375 H368 0.950 . S
C375 C372 1.387 . S
C376 C377 1.387 . S
C376 H380 0.950 . S
C376 C385 1.390 . S
C377 C376 1.387 . S
C377 C379 1.387 . S
H378 C385 0.950 . S
C379 C377 1.387 . S
C379 C381 1.390 . S
C379 H383 0.950 . S
H380 C376 0.950 . S
C381 C379 1.390 . S
C381 C382 1.387 . S
C381 H384 0.950 . S
C382 C381 1.387 . S
C382 C385 1.387 . S
H383 C379 0.950 . S
H384 C381 0.950 . S
C385 C376 1.390 . S
C385 H378 0.950 . S
C385 C382 1.387 . S
C386 C387 1.387 . S
C386 H390 0.950 . S
C386 C395 1.390 . S
C387 C386 1.387 . S
C387 C389 1.387 . S
H388 C395 0.950 . S
C389 C387 1.387 . S
C389 C391 1.390 . S
C389 H393 0.950 . S
H390 C386 0.950 . S
C391 C389 1.390 . S
C391 C392 1.387 . S
C391 H394 0.950 . S
C392 C391 1.387 . S
C392 C395 1.387 . S
H393 C389 0.950 . S
H394 C391 0.950 . S
C395 C386 1.390 . S
C395 H388 0.950 . S
C395 C392 1.387 . S
C396 C397 1.387 1_554 S
C396 H400 0.950 . S
C396 C405 1.390 . S
C397 C396 1.387 1_556 S
C397 C399 1.387 1_565 S
H398 C405 0.950 . S
C399 C397 1.387 1_545 S
C399 C401 1.390 . S
C399 H403 0.950 . S
H400 C396 0.950 . S
C401 C399 1.390 . S
C401 C402 1.387 1_556 S
C401 H404 0.950 . S
C402 C401 1.387 1_554 S
C402 C405 1.387 1_545 S
H403 C399 0.950 . S
H404 C401 0.950 . S
C405 C396 1.390 . S
C405 H398 0.950 . S
C405 C402 1.387 1_565 S
C406 C407 1.387 . S
C406 H410 0.950 . S
C406 C415 1.390 . S
C407 C406 1.387 . S
C407 C409 1.387 . S
H408 C415 0.950 . S
C409 C407 1.387 . S
C409 C411 1.390 . S
C409 H413 0.950 . S
H410 C406 0.950 . S
C411 C409 1.390 . S
C411 C412 1.387 . S
C411 H414 0.950 . S
C412 C411 1.387 . S
C412 C415 1.387 . S
H413 C409 0.950 . S
H414 C411 0.950 . S
C415 C406 1.390 . S
C415 H408 0.950 . S
C415 C412 1.387 . S
C416 C417 1.387 . S
C416 H420 0.950 . S
C416 C425 1.390 . S
C417 C416 1.387 . S
C417 C419 1.387 . S
H418 C425 0.950 . S
C419 C417 1.387 . S
C419 C421 1.390 . S
C419 H423 0.950 . S
H420 C416 0.950 . S
C421 C419 1.390 . S
C421 C422 1.387 . S
C421 H424 0.950 . S
C422 C421 1.387 . S
C422 C425 1.387 . S
H423 C419 0.950 . S
H424 C421 0.950 . S
C425 C416 1.390 . S
C425 H418 0.950 . S
C425 C422 1.387 . S
C426 C427 1.387 . S
C426 H430 0.950 . S
C426 C435 1.390 . S
C427 C426 1.387 . S
C427 C429 1.387 . S
H428 C435 0.950 . S
C429 C427 1.387 . S
C429 C431 1.390 . S
C429 H433 0.950 . S
H430 C426 0.950 . S
C431 C429 1.390 . S
C431 C432 1.387 . S
C431 H434 0.950 . S
C432 C431 1.387 . S
C432 C435 1.387 . S
H433 C429 0.950 . S
H434 C431 0.950 . S
C435 C426 1.390 . S
C435 H428 0.950 . S
C435 C432 1.387 . S
C436 C437 1.387 . S
C436 H440 0.950 . S
C436 C445 1.390 . S
C437 C436 1.387 . S
C437 C439 1.387 . S
H438 C445 0.950 1_454 S
C439 C437 1.387 . S
C439 C441 1.390 . S
C439 H443 0.950 . S
H440 C436 0.950 . S
C441 C439 1.390 . S
C441 C442 1.387 . S
C441 H444 0.950 . S
C442 C441 1.387 . S
C442 C445 1.387 . S
H443 C439 0.950 . S
H444 C441 0.950 . S
C445 C436 1.390 . S
C445 H438 0.950 1_656 S
C445 C442 1.387 . S
C446 C447 1.387 . S
C446 H450 0.950 . S
C446 C455 1.390 . S
C447 C446 1.387 . S
C447 C449 1.387 . S
H448 C455 0.950 . S
C449 C447 1.387 . S
C449 C451 1.390 . S
C449 H453 0.950 . S
H450 C446 0.950 . S
C451 C449 1.390 . S
C451 C452 1.387 . S
C451 H454 0.950 . S
C452 C451 1.387 . S
C452 C455 1.387 . S
H453 C449 0.950 . S
H454 C451 0.950 . S
C455 C446 1.390 . S
C455 H448 0.950 . S
C455 C452 1.387 . S
C456 C457 1.387 . S
C456 H460 0.950 . S
C456 C465 1.390 . S
C457 C456 1.387 . S
C457 C459 1.387 . S
H458 C465 0.950 . S
C459 C457 1.387 . S
C459 C461 1.390 . S
C459 H463 0.950 . S
H460 C456 0.950 . S
C461 C459 1.390 . S
C461 C462 1.387 . S
C461 H464 0.950 . S
C462 C461 1.387 . S
C462 C465 1.387 . S
H463 C459 0.950 . S
H464 C461 0.950 . S
C465 C456 1.390 . S
C465 H458 0.950 . S
C465 C462 1.387 . S
C466 C467 1.387 . S
C466 H470 0.950 . S
C466 C475 1.390 . S
C467 C466 1.387 . S
C467 C469 1.387 . S
H468 C475 0.950 . S
C469 C467 1.387 . S
C469 C471 1.390 . S
C469 H473 0.950 . S
H470 C466 0.950 . S
C471 C469 1.390 . S
C471 C472 1.387 . S
C471 H474 0.950 . S
C472 C471 1.387 . S
C472 C475 1.387 . S
H473 C469 0.950 . S
H474 C471 0.950 . S
C475 C466 1.390 . S
C475 H468 0.950 . S
C475 C472 1.387 . S
C237 C6 1.833 . S
C242 C168 1.792 . S
C247 C21 1.910 . S
C252 C190 1.869 1_565 S
C262 C209 0.925 . S
C257 C49 1.098 . S
C267 C68 1.419 . S
C272 C230 1.240 . S
C282 C187 2.183 . S
C277 C2 2.267 . S
C292 C165 1.346 . S
C287 C30 1.224 1_545 S
C302 C232 1.269 . S
C297 C40 1.284 . S
C312 C211 1.259 . S
C307 C63 1.359 . S
C317 C11 1.450 . S
C322 C229 1.657 . S
C332 C188 1.415 . S
C327 C44 1.734 . S
C337 C59 1.405 . S
C342 C170 1.275 . S
C347 C25 1.707 . S
C352 C208 1.652 . S
C362 C166 1.865 1_565 S
C357 C82 1.967 . S
C367 C101 1.627 . S
C372 C186 1.635 . S
C377 C125 1.331 . S
C382 C212 1.136 . S
C387 C144 1.152 . S
C392 C233 1.050 . S
C397 C87 1.285 . S
C402 C189 1.429 . S
C412 C169 2.181 . S
C407 C97 2.205 . S
C422 C228 1.118 . S
C417 C120 1.217 . S
C432 C207 1.475 . S
C427 C135 1.460 . S
C437 C78 1.836 . S
C442 C231 1.759 . S
C452 C191 1.019 . S
C447 C116 1.198 . S
C462 C167 1.479 . S
C457 C139 1.629 . S
C467 C106 1.371 . S
C472 C210 1.526 . S
