# Generated by pormake.
# Topology pyr, (3,6)-cn, num edge types: 1
# Building blocks:
#     Node 0, Type 0, BuildingBlock: ESEHIV_clean_linker_0, # of connection points: 3
#     Node 1, Type 0, BuildingBlock: ESEHIV_clean_linker_0, # of connection points: 3
#     Node 2, Type 0, BuildingBlock: ESEHIV_clean_linker_0, # of connection points: 3
#     Node 3, Type 0, BuildingBlock: ESEHIV_clean_linker_0, # of connection points: 3
#     Node 4, Type 0, BuildingBlock: ESEHIV_clean_linker_0, # of connection points: 3
#     Node 5, Type 0, BuildingBlock: ESEHIV_clean_linker_0, # of connection points: 3
#     Node 6, Type 0, BuildingBlock: ESEHIV_clean_linker_0, # of connection points: 3
#     Node 7, Type 0, BuildingBlock: ESEHIV_clean_linker_0, # of connection points: 3
#     Node 8, Type 1, BuildingBlock: MIDCAF_clean_sbu_0, # of connection points: 6
#     Node 9, Type 1, BuildingBlock: MIDCAF_clean_sbu_0, # of connection points: 6
#     Node 10, Type 1, BuildingBlock: MIDCAF_clean_sbu_0, # of connection points: 6
#     Node 11, Type 1, BuildingBlock: MIDCAF_clean_sbu_0, # of connection points: 6
#     Edge 12, Type (0, 1), BuildingBlock: ZUJKAS_clean_linker_0, # of connection points: 2
#     Edge 13, Type (0, 1), BuildingBlock: ZUJKAS_clean_linker_0, # of connection points: 2
#     Edge 14, Type (0, 1), BuildingBlock: ZUJKAS_clean_linker_0, # of connection points: 2
#     Edge 15, Type (0, 1), BuildingBlock: ZUJKAS_clean_linker_0, # of connection points: 2
#     Edge 16, Type (0, 1), BuildingBlock: ZUJKAS_clean_linker_0, # of connection points: 2
#     Edge 17, Type (0, 1), BuildingBlock: ZUJKAS_clean_linker_0, # of connection points: 2
#     Edge 18, Type (0, 1), BuildingBlock: ZUJKAS_clean_linker_0, # of connection points: 2
#     Edge 19, Type (0, 1), BuildingBlock: ZUJKAS_clean_linker_0, # of connection points: 2
#     Edge 20, Type (0, 1), BuildingBlock: ZUJKAS_clean_linker_0, # of connection points: 2
#     Edge 21, Type (0, 1), BuildingBlock: ZUJKAS_clean_linker_0, # of connection points: 2
#     Edge 22, Type (0, 1), BuildingBlock: ZUJKAS_clean_linker_0, # of connection points: 2
#     Edge 23, Type (0, 1), BuildingBlock: ZUJKAS_clean_linker_0, # of connection points: 2
#     Edge 24, Type (0, 1), BuildingBlock: ZUJKAS_clean_linker_0, # of connection points: 2
#     Edge 25, Type (0, 1), BuildingBlock: ZUJKAS_clean_linker_0, # of connection points: 2
#     Edge 26, Type (0, 1), BuildingBlock: ZUJKAS_clean_linker_0, # of connection points: 2
#     Edge 27, Type (0, 1), BuildingBlock: ZUJKAS_clean_linker_0, # of connection points: 2
#     Edge 28, Type (0, 1), BuildingBlock: ZUJKAS_clean_linker_0, # of connection points: 2
#     Edge 29, Type (0, 1), BuildingBlock: ZUJKAS_clean_linker_0, # of connection points: 2
#     Edge 30, Type (0, 1), BuildingBlock: ZUJKAS_clean_linker_0, # of connection points: 2
#     Edge 31, Type (0, 1), BuildingBlock: ZUJKAS_clean_linker_0, # of connection points: 2
#     Edge 32, Type (0, 1), BuildingBlock: ZUJKAS_clean_linker_0, # of connection points: 2
#     Edge 33, Type (0, 1), BuildingBlock: ZUJKAS_clean_linker_0, # of connection points: 2
#     Edge 34, Type (0, 1), BuildingBlock: ZUJKAS_clean_linker_0, # of connection points: 2
#     Edge 35, Type (0, 1), BuildingBlock: ZUJKAS_clean_linker_0, # of connection points: 2
# Relax obj value: 0.019
# Max RMSD: 0.062
# Mean RMSD: 0.024
data_MOF--net-pry--node1-MIDCAF_clean_sbu_0--node2-ESEHIV_clean_linker_0--edge1-ZUJKAS_clean_linker_0
_symmetry_space_group_name_H-M    P1
_symmetry_Int_Tables_number       1
_symmetry_cell_setting            triclinic
loop_
_symmetry_equiv_pos_as_xyz
'x, y, z'
_cell_length_a     44.315673
_cell_length_b     44.337906
_cell_length_c     44.359749
_cell_angle_alpha  90.003916
_cell_angle_beta   90.055065
_cell_angle_gamma 90.272113
loop_
_atom_site_label
_atom_site_type_symbol
_atom_site_fract_x
_atom_site_fract_y
_atom_site_fract_z
_atom_type_partial_charge
H0 H 0.19318 0.26461 0.25671 0.0
H1 H 0.25976 0.19445 0.25992 0.0
H2 H 0.26275 0.26093 0.18933 0.0
C3 C 0.21355 0.25445 0.24792 0.0
C4 C 0.22676 0.26614 0.22156 0.0
C5 C 0.22522 0.22853 0.26188 0.0
C6 C 0.25084 0.21463 0.24948 0.0
C7 C 0.26446 0.22601 0.22319 0.0
C8 C 0.25228 0.25185 0.20947 0.0
H9 H 0.27572 0.84332 0.76848 0.0
H10 H 0.34378 0.77483 0.76079 0.0
H11 H 0.27067 0.77731 0.69734 0.0
C12 C 0.28449 0.8234 0.75743 0.0
C13 C 0.2696 0.81179 0.73186 0.0
C14 C 0.31128 0.81025 0.76811 0.0
C15 C 0.323 0.78505 0.753 0.0
C16 C 0.30817 0.77288 0.72781 0.0
C17 C 0.28135 0.78607 0.71754 0.0
H18 H 0.78086 0.26934 0.83397 0.0
H19 H 0.77234 0.341 0.76929 0.0
H20 H 0.70302 0.2733 0.77613 0.0
C21 C 0.76829 0.2803 0.81614 0.0
C22 C 0.74054 0.26799 0.80676 0.0
C23 C 0.77984 0.30683 0.80308 0.0
C24 C 0.76383 0.32038 0.77934 0.0
C25 C 0.73637 0.30807 0.76909 0.0
C26 C 0.72491 0.2819 0.78294 0.0
H27 H 0.77345 0.76006 0.34328 0.0
H28 H 0.84066 0.7651 0.27349 0.0
H29 H 0.77494 0.69371 0.27238 0.0
C30 C 0.78272 0.75171 0.3223 0.0
C31 C 0.77051 0.72545 0.30912 0.0
C32 C 0.8081 0.76613 0.30973 0.0
C33 C 0.82093 0.75437 0.28326 0.0
C34 C 0.80926 0.72808 0.26999 0.0
C35 C 0.78401 0.71388 0.28289 0.0
H36 H 0.8875 0.94156 0.8583 0.0
H37 H 0.94249 0.8652 0.8809 0.0
H38 H 0.86623 0.88777 0.93625 0.0
C39 C 0.8926 0.92283 0.87312 0.0
C40 C 0.874 0.91709 0.89815 0.0
C41 C 0.9174 0.90422 0.86679 0.0
C42 C 0.92359 0.87979 0.88591 0.0
C43 C 0.90533 0.87372 0.91109 0.0
C44 C 0.88061 0.89253 0.91707 0.0
H45 H 0.60508 0.18096 0.38037 0.0
H46 H 0.66127 0.10481 0.36018 0.0
H47 H 0.68552 0.1648 0.43231 0.0
C48 C 0.62509 0.16778 0.38494 0.0
C49 C 0.6446 0.17625 0.40856 0.0
C50 C 0.63093 0.14214 0.3673 0.0
C51 C 0.65622 0.12431 0.37398 0.0
C52 C 0.67594 0.13237 0.39743 0.0
C53 C 0.67004 0.15839 0.41449 0.0
H54 H 0.35802 0.66713 0.10852 0.0
H55 H 0.37365 0.60914 0.18466 0.0
H56 H 0.4335 0.6838 0.1674 0.0
C57 C 0.37145 0.6609 0.12797 0.0
C58 C 0.39682 0.67831 0.13574 0.0
C59 C 0.36294 0.63591 0.14556 0.0
C60 C 0.38028 0.62824 0.17087 0.0
C61 C 0.40576 0.64543 0.17888 0.0
C62 C 0.414 0.67033 0.16114 0.0
H63 H 0.09084 0.36822 0.65177 0.0
H64 H 0.16736 0.38448 0.59442 0.0
H65 H 0.14899 0.44416 0.66872 0.0
C66 C 0.11021 0.38191 0.64561 0.0
C67 C 0.11778 0.40717 0.66314 0.0
C68 C 0.12795 0.37365 0.62073 0.0
C69 C 0.15318 0.39134 0.61307 0.0
C70 C 0.16119 0.4167 0.63047 0.0
C71 C 0.14323 0.42448 0.65537 0.0
Zn72 Zn 0.9836 0.05265 0.55321 0.0
Zn73 Zn 0.05457 0.98624 0.48023 0.0
Zn74 Zn 0.01897 0.01986 0.51782 0.0
C75 C 0.07137 0.04738 0.47417 0.0
C76 C 0.99403 0.97677 0.46351 0.0
O77 O 0.02399 0.0032 0.56479 0.0
O78 O 0.99682 0.03494 0.59193 0.0
C79 C 0.02227 0.09275 0.52424 0.0
O80 O 0.04992 0.05073 0.49348 0.0
O81 O 0.07859 0.02137 0.46512 0.0
O82 O 0.02047 0.96995 0.4554 0.0
O83 O 0.98982 0.99482 0.48589 0.0
O84 O 0.99934 0.09278 0.5411 0.0
O85 O 0.03296 0.06776 0.51408 0.0
O86 O 0.97154 0.01459 0.50266 0.0
O87 O 0.94438 0.03923 0.53642 0.0
C88 C 0.9458 0.02329 0.51291 0.0
O89 O 0.04503 0.98824 0.54607 0.0
O90 O 0.07147 0.96113 0.51357 0.0
C91 C 0.01381 0.0122 0.59048 0.0
C92 C 0.06421 0.96721 0.54044 0.0
Zn93 Zn 0.48991 0.05682 0.98426 0.0
Zn94 Zn 0.55941 0.98499 0.05159 0.0
Zn95 Zn 0.52483 0.02058 0.01866 0.0
C96 C 0.59741 0.01213 0.00997 0.0
C97 C 0.51696 0.94792 0.02413 0.0
O98 O 0.50089 0.05227 0.04905 0.0
O99 O 0.47442 0.08141 0.01839 0.0
C100 C 0.5497 0.06457 0.96533 0.0
O101 O 0.57207 0.0236 0.00148 0.0
O102 O 0.59844 0.99507 0.0327 0.0
O103 O 0.54024 0.94621 0.04042 0.0
O104 O 0.50778 0.97367 0.01436 0.0
O105 O 0.52329 0.07303 0.95891 0.0
O106 O 0.55416 0.04525 0.98659 0.0
O107 O 0.49144 0.99205 0.99446 0.0
O108 O 0.46376 0.02402 0.96802 0.0
C109 C 0.46969 0.99731 0.97588 0.0
O110 O 0.52252 0.03625 0.06615 0.0
O111 O 0.55006 0.00314 0.09123 0.0
C112 C 0.48216 0.07406 0.0448 0.0
C113 C 0.53384 0.02647 0.09109 0.0
Zn114 Zn 0.54968 0.55369 0.55853 0.0
Zn115 Zn 0.48528 0.48102 0.48486 0.0
Zn116 Zn 0.51722 0.51641 0.52127 0.0
C117 C 0.52689 0.44417 0.51386 0.0
C118 C 0.51377 0.52341 0.4485 0.0
O119 O 0.48554 0.53948 0.55194 0.0
O120 O 0.51397 0.568 0.58179 0.0
C121 C 0.56918 0.49371 0.56749 0.0
O122 O 0.53489 0.46973 0.5253 0.0
O123 O 0.50449 0.4426 0.49632 0.0
O124 O 0.49783 0.49984 0.44642 0.0
O125 O 0.52268 0.53298 0.47448 0.0
O126 O 0.57468 0.5205 0.57561 0.0
O127 O 0.54879 0.48816 0.54746 0.0
O128 O 0.5423 0.5495 0.49336 0.0
O129 O 0.56656 0.57928 0.52543 0.0
C130 C 0.5602 0.57191 0.49864 0.0
O131 O 0.46898 0.51862 0.53467 0.0
O132 O 0.44479 0.49057 0.50112 0.0
C133 C 0.48829 0.55846 0.57378 0.0
C134 C 0.44426 0.50737 0.52409 0.0
Zn135 Zn 0.06059 0.55663 0.98253 0.0
Zn136 Zn 0.97997 0.49132 0.04793 0.0
Zn137 Zn 0.02087 0.52344 0.01416 0.0
C138 C 0.03916 0.4779 0.06838 0.0
C139 C 0.97524 0.47332 0.98682 0.0
O140 O 0.00686 0.57126 0.01604 0.0
O141 O 0.04134 0.59639 0.98995 0.0
C142 C 0.09296 0.52779 0.02763 0.0
O143 O 0.04636 0.49729 0.04792 0.0
O144 O 0.01177 0.47128 0.07305 0.0
O145 O 0.96264 0.4701 0.01217 0.0
O146 O 0.99776 0.49153 0.9836 0.0
O147 O 0.09684 0.54539 0.00562 0.0
O148 O 0.06646 0.51758 0.03404 0.0
O149 O 0.01905 0.50788 0.96662 0.0
O150 O 0.05389 0.53564 0.94378 0.0
C151 C 0.03405 0.51515 0.9428 0.0
O152 O 0.98912 0.55483 0.03659 0.0
O153 O 0.95822 0.52679 0.06431 0.0
C154 C 0.01731 0.59621 0.00525 0.0
C155 C 0.96696 0.55235 0.05525 0.0
H156 H 0.2122 0.16899 0.27121 0.0
H157 H 0.18414 0.14647 0.31298 0.0
H158 H 0.17336 0.23423 0.35328 0.0
H159 H 0.20196 0.25703 0.31162 0.0
H160 H 0.19106 0.18594 0.39456 0.0
H161 H 0.09139 0.15659 0.3246 0.0
H162 H 0.1266 0.14433 0.30887 0.0
H163 H 0.11934 0.18398 0.31292 0.0
C164 C 0.20423 0.1835 0.28912 0.0
C165 C 0.20934 0.21482 0.28809 0.0
C166 C 0.18794 0.17063 0.31283 0.0
C167 C 0.17635 0.18875 0.33597 0.0
C168 C 0.18196 0.21991 0.33549 0.0
H169 H 0.04681 0.10143 0.45799 0.0
H170 H 0.07136 0.14216 0.42951 0.0
C171 C 0.19817 0.23288 0.31165 0.0
C172 C 0.15824 0.17485 0.36042 0.0
H173 H 0.09534 0.13181 0.3723 0.0
C174 C 0.16989 0.17447 0.38985 0.0
C175 C 0.13036 0.16043 0.35436 0.0
C176 C 0.11597 0.16153 0.32354 0.0
C177 C 0.15526 0.15839 0.41298 0.0
C178 C 0.12854 0.14213 0.40632 0.0
C179 C 0.11595 0.14411 0.37735 0.0
C180 C 0.11495 0.12041 0.42787 0.0
C181 C 0.16886 0.1584 0.44415 0.0
C182 C 0.13141 0.09495 0.43676 0.0
C183 C 0.11748 0.07182 0.45304 0.0
C184 C 0.08686 0.07378 0.46091 0.0
C185 C 0.07064 0.09974 0.45295 0.0
C186 C 0.08457 0.12287 0.43648 0.0
H187 H 0.18247 0.17912 0.44818 0.0
H188 H 0.15115 0.15671 0.46178 0.0
H189 H 0.18404 0.1387 0.44644 0.0
H190 H 0.15467 0.09225 0.42981 0.0
H191 H 0.13041 0.05192 0.45868 0.0
H192 H 0.28839 0.83116 0.82155 0.0
H193 H 0.31573 0.85751 0.86194 0.0
H194 H 0.39903 0.84684 0.81314 0.0
H195 H 0.37196 0.82085 0.77256 0.0
H196 H 0.37582 0.83788 0.89649 0.0
H197 H 0.37946 0.94184 0.82593 0.0
H198 H 0.35152 0.9126 0.8202 0.0
H199 H 0.38972 0.90674 0.80837 0.0
C200 C 0.31256 0.83428 0.81952 0.0
C201 C 0.32799 0.82402 0.7938 0.0
C202 C 0.32815 0.84907 0.8427 0.0
C203 C 0.35934 0.85399 0.84045 0.0
C204 C 0.37496 0.84305 0.81529 0.0
H205 H 0.48943 0.94116 0.95969 0.0
H206 H 0.46165 0.90313 0.93046 0.0
C207 C 0.35945 0.82816 0.79219 0.0
C208 C 0.37513 0.87297 0.86296 0.0
H209 H 0.4041 0.94367 0.87281 0.0
C210 C 0.38207 0.861 0.89144 0.0
C211 C 0.383 0.90312 0.85621 0.0
C212 C 0.37548 0.91708 0.82611 0.0
C213 C 0.39695 0.87857 0.91339 0.0
C214 C 0.40499 0.9087 0.90647 0.0
C215 C 0.39789 0.92055 0.87802 0.0
C216 C 0.42031 0.92887 0.92836 0.0
C217 C 0.40354 0.86508 0.9439 0.0
C218 C 0.40619 0.9557 0.93717 0.0
C219 C 0.42193 0.97727 0.95392 0.0
C220 C 0.45211 0.97243 0.96223 0.0
C221 C 0.46593 0.94507 0.95439 0.0
C222 C 0.45011 0.9234 0.93758 0.0
H223 H 0.39063 0.84388 0.94774 0.0
H224 H 0.42796 0.85986 0.9455 0.0
H225 H 0.39809 0.88133 0.96213 0.0
H226 H 0.38327 0.96041 0.93015 0.0
H227 H 0.41075 0.99819 0.9596 0.0
H228 H 0.70736 0.28273 0.72063 0.0
H229 H 0.67696 0.30843 0.68223 0.0
H230 H 0.69491 0.3938 0.72534 0.0
H231 H 0.72488 0.36834 0.76395 0.0
H232 H 0.63187 0.38087 0.71096 0.0
H233 H 0.70967 0.36527 0.6137 0.0
H234 H 0.70024 0.33241 0.63567 0.0
H235 H 0.72223 0.36212 0.65232 0.0
C236 C 0.7048 0.30698 0.7219 0.0
C237 C 0.71868 0.32354 0.74521 0.0
C238 C 0.68761 0.32162 0.69986 0.0
C239 C 0.68395 0.35301 0.70084 0.0
C240 C 0.69763 0.36956 0.72412 0.0
H241 H 0.62742 0.49452 0.58625 0.0
H242 H 0.65362 0.45623 0.61598 0.0
C243 C 0.71492 0.35501 0.74603 0.0
C244 C 0.66536 0.36882 0.67807 0.0
H245 H 0.66469 0.3919 0.6046 0.0
C246 C 0.63881 0.38302 0.68761 0.0
C247 C 0.67463 0.37161 0.64771 0.0
C248 C 0.70333 0.35725 0.63658 0.0
C249 C 0.6216 0.40058 0.66773 0.0
C250 C 0.63114 0.40383 0.63748 0.0
C251 C 0.65735 0.38909 0.62775 0.0
C252 C 0.61596 0.42503 0.61668 0.0
C253 C 0.59405 0.41662 0.6795 0.0
C254 C 0.5863 0.41983 0.60669 0.0
C255 C 0.57126 0.44174 0.5897 0.0
C256 C 0.58577 0.46901 0.58233 0.0
C257 C 0.61575 0.47366 0.59158 0.0
C258 C 0.63076 0.45179 0.60843 0.0
H259 H 0.5922 0.41518 0.70444 0.0
H260 H 0.59458 0.44077 0.67287 0.0
H261 H 0.57351 0.40629 0.66949 0.0
H262 H 0.57458 0.39921 0.61271 0.0
H263 H 0.548 0.4378 0.58322 0.0
H264 H 0.82974 0.67072 0.26573 0.0
H265 H 0.85678 0.64752 0.22382 0.0
H266 H 0.84975 0.73034 0.17314 0.0
H267 H 0.82394 0.75406 0.21592 0.0
H268 H 0.83999 0.6353 0.16977 0.0
H269 H 0.93709 0.71422 0.16177 0.0
H270 H 0.91067 0.71531 0.19262 0.0
H271 H 0.90132 0.73235 0.15699 0.0
C272 C 0.83406 0.68395 0.24564 0.0
C273 C 0.82482 0.71413 0.24398 0.0
C274 C 0.84954 0.67073 0.2217 0.0
C275 C 0.85579 0.68725 0.19537 0.0
C276 C 0.84605 0.71734 0.19347 0.0
H277 H 0.91162 0.57491 0.04235 0.0
H278 H 0.88417 0.61315 0.07129 0.0
C279 C 0.83107 0.7308 0.21776 0.0
C280 C 0.87163 0.67229 0.16986 0.0
H281 H 0.93356 0.67653 0.12411 0.0
C282 C 0.86046 0.64437 0.1598 0.0
C283 C 0.89846 0.68399 0.1569 0.0
C284 C 0.91278 0.71296 0.16779 0.0
C285 C 0.87574 0.62732 0.13805 0.0
C286 C 0.90229 0.63922 0.12464 0.0
C287 C 0.91305 0.66756 0.13407 0.0
C288 C 0.92056 0.62132 0.10297 0.0
C289 C 0.86402 0.59603 0.13105 0.0
C290 C 0.95104 0.61529 0.10934 0.0
C291 C 0.96706 0.59446 0.092 0.0
C292 C 0.95274 0.57916 0.0683 0.0
C293 C 0.92298 0.58652 0.06065 0.0
C294 C 0.90724 0.60804 0.07739 0.0
H295 H 0.84886 0.58744 0.14907 0.0
H296 H 0.85081 0.59664 0.1098 0.0
H297 H 0.88282 0.5798 0.12829 0.0
H298 H 0.96195 0.62535 0.12878 0.0
H299 H 0.98997 0.58884 0.09835 0.0
H300 H 0.31411 0.20184 0.25121 0.0
H301 H 0.35581 0.17414 0.22787 0.0
H302 H 0.31519 0.18649 0.14042 0.0
H303 H 0.27323 0.21354 0.16353 0.0
H304 H 0.33345 0.12617 0.15352 0.0
H305 H 0.4248 0.21005 0.17516 0.0
H306 H 0.40243 0.19856 0.20702 0.0
H307 H 0.38531 0.21973 0.17714 0.0
C308 C 0.31406 0.1986 0.22701 0.0
C309 C 0.29041 0.21005 0.20921 0.0
C310 C 0.33801 0.18299 0.21371 0.0
C311 C 0.33873 0.17854 0.18239 0.0
C312 C 0.31514 0.18983 0.16462 0.0
H313 H 0.46422 0.13241 0.04714 0.0
H314 H 0.43255 0.15612 0.08539 0.0
C315 C 0.29129 0.20549 0.17784 0.0
C316 C 0.36356 0.16154 0.1679 0.0
H317 H 0.43825 0.16576 0.1492 0.0
C318 C 0.35646 0.1346 0.15285 0.0
C319 C 0.39349 0.17273 0.16702 0.0
C320 C 0.40213 0.20195 0.18224 0.0
C321 C 0.37828 0.11892 0.1362 0.0
C322 C 0.40812 0.13035 0.13487 0.0
C323 C 0.41543 0.15691 0.15056 0.0
C324 C 0.4309 0.11696 0.11443 0.0
C325 C 0.36889 0.09105 0.11898 0.0
C326 C 0.44131 0.08736 0.11856 0.0
C327 C 0.45942 0.0737 0.09661 0.0
C328 C 0.46755 0.08956 0.07039 0.0
C329 C 0.45833 0.11966 0.06714 0.0
C330 C 0.44032 0.13327 0.08902 0.0
H331 H 0.34399 0.08806 0.11846 0.0
H332 H 0.3773 0.09208 0.09542 0.0
H333 H 0.37886 0.07088 0.12985 0.0
H334 H 0.43452 0.07448 0.13817 0.0
H335 H 0.46584 0.05034 0.09948 0.0
H336 H 0.21731 0.78783 0.70848 0.0
H337 H 0.17731 0.81464 0.68129 0.0
H338 H 0.22302 0.8991 0.6974 0.0
H339 H 0.26324 0.87262 0.72416 0.0
H340 H 0.14168 0.87793 0.70221 0.0
H341 H 0.21442 0.876 0.59968 0.0
H342 H 0.21716 0.84731 0.62845 0.0
H343 H 0.23136 0.88452 0.63568 0.0
C344 C 0.21868 0.81214 0.7065 0.0
C345 C 0.24351 0.82806 0.71845 0.0
C346 C 0.19571 0.82741 0.6912 0.0
C347 C 0.19725 0.8588 0.68754 0.0
C348 C 0.22136 0.87489 0.70031 0.0
H349 H 0.08184 0.98847 0.59567 0.0
H350 H 0.11119 0.96155 0.63406 0.0
C351 C 0.24427 0.85969 0.71566 0.0
C352 C 0.17553 0.87438 0.66765 0.0
H353 H 0.16782 0.90058 0.59581 0.0
C354 C 0.14725 0.88293 0.67894 0.0
C355 C 0.18299 0.88069 0.63737 0.0
C356 C 0.21306 0.87165 0.62431 0.0
C357 C 0.12614 0.8978 0.66049 0.0
C358 C 0.13375 0.90427 0.63019 0.0
C359 C 0.16204 0.89557 0.61904 0.0
C360 C 0.11277 0.91958 0.60918 0.0
C361 C 0.09572 0.90598 0.67329 0.0
C362 C 0.10392 0.90495 0.58253 0.0
C363 C 0.08724 0.92024 0.56069 0.0
C364 C 0.07899 0.95046 0.5651 0.0
C365 C 0.08729 0.96496 0.59205 0.0
C366 C 0.10402 0.94961 0.61398 0.0
H367 H 0.09092 0.89373 0.69461 0.0
H368 H 0.09522 0.93053 0.67813 0.0
H369 H 0.07747 0.90096 0.65684 0.0
H370 H 0.1106 0.88186 0.57829 0.0
H371 H 0.08126 0.90857 0.54006 0.0
H372 H 0.82631 0.33508 0.77276 0.0
H373 H 0.8698 0.36166 0.7947 0.0
H374 H 0.83875 0.33856 0.88386 0.0
H375 H 0.79524 0.31263 0.8624 0.0
H376 H 0.86792 0.41062 0.83408 0.0
H377 H 0.92793 0.31542 0.88714 0.0
H378 H 0.89972 0.31008 0.85815 0.0
H379 H 0.88863 0.31545 0.89682 0.0
C380 C 0.82883 0.33558 0.79704 0.0
C381 C 0.80736 0.32148 0.8158 0.0
C382 C 0.85378 0.35061 0.8095 0.0
C383 C 0.85784 0.35152 0.84087 0.0
C384 C 0.83657 0.33737 0.85957 0.0
H385 H 0.9165 0.46989 0.97169 0.0
H386 H 0.89365 0.44157 0.93024 0.0
C387 C 0.81165 0.32251 0.84721 0.0
C388 C 0.88276 0.36922 0.85463 0.0
H389 H 0.93693 0.36477 0.90918 0.0
C390 C 0.88353 0.40052 0.84995 0.0
C391 C 0.90352 0.35601 0.87491 0.0
C392 C 0.90516 0.32233 0.87931 0.0
C393 C 0.90272 0.41919 0.86697 0.0
C394 C 0.92126 0.4062 0.8894 0.0
C395 C 0.92242 0.37472 0.89221 0.0
C396 C 0.93603 0.42489 0.91285 0.0
C397 C 0.90205 0.45279 0.86176 0.0
C398 C 0.96745 0.42447 0.91712 0.0
C399 C 0.98057 0.44078 0.94089 0.0
C400 C 0.96235 0.45733 0.96072 0.0
C401 C 0.931 0.45748 0.95648 0.0
C402 C 0.91798 0.44153 0.9327 0.0
H403 H 0.89489 0.45818 0.83837 0.0
H404 H 0.88556 0.46313 0.87743 0.0
H405 H 0.92451 0.46318 0.866 0.0
H406 H 0.9817 0.41145 0.90223 0.0
H407 H 0.00479 0.44003 0.9441 0.0
H408 H 0.76262 0.66437 0.31524 0.0
H409 H 0.72178 0.63769 0.34083 0.0
H410 H 0.68054 0.72259 0.36358 0.0
H411 H 0.72058 0.7495 0.3367 0.0
H412 H 0.70863 0.64079 0.3995 0.0
H413 H 0.60819 0.67541 0.33381 0.0
H414 H 0.64622 0.68125 0.32036 0.0
H415 H 0.62999 0.70689 0.34722 0.0
C416 C 0.74449 0.67743 0.32497 0.0
C417 C 0.74488 0.70916 0.32371 0.0
C418 C 0.72123 0.6621 0.33981 0.0
C419 C 0.69781 0.67807 0.35376 0.0
C420 C 0.69796 0.70971 0.3524 0.0
H421 H 0.57738 0.63086 0.49742 0.0
H422 H 0.6083 0.6562 0.45918 0.0
C423 C 0.72115 0.7251 0.33739 0.0
C424 C 0.6747 0.66167 0.37176 0.0
H425 H 0.59868 0.65217 0.38174 0.0
C426 C 0.68462 0.64305 0.39534 0.0
C427 C 0.64332 0.66453 0.36631 0.0
C428 C 0.63127 0.68286 0.34036 0.0
C429 C 0.66409 0.62791 0.41409 0.0
C430 C 0.63284 0.63152 0.40922 0.0
C431 C 0.62274 0.64962 0.38539 0.0
C432 C 0.61064 0.61743 0.42975 0.0
C433 C 0.67579 0.60853 0.43947 0.0
C434 C 0.60138 0.58745 0.42545 0.0
C435 C 0.58379 0.57289 0.4473 0.0
C436 C 0.57514 0.5882 0.47364 0.0
C437 C 0.58362 0.61857 0.47728 0.0
C438 C 0.60114 0.63309 0.45545 0.0
H439 H 0.70084 0.60794 0.4402 0.0
H440 H 0.66736 0.61724 0.46135 0.0
H441 H 0.66715 0.58513 0.43686 0.0
H442 H 0.60883 0.57495 0.40586 0.0
H443 H 0.57833 0.54926 0.44429 0.0
H444 H 0.20466 0.31839 0.246 0.0
H445 H 0.17722 0.35869 0.21997 0.0
H446 H 0.1893 0.31265 0.13531 0.0
H447 H 0.21642 0.27217 0.16108 0.0
H448 H 0.19549 0.39609 0.16308 0.0
H449 H 0.09441 0.32161 0.15279 0.0
H450 H 0.1236 0.31508 0.18045 0.0
H451 H 0.13015 0.30607 0.14159 0.0
C452 C 0.20163 0.31696 0.22181 0.0
C453 C 0.21261 0.29201 0.20562 0.0
C454 C 0.18617 0.34009 0.20698 0.0
C455 C 0.18124 0.33854 0.17578 0.0
C456 C 0.19296 0.31422 0.15941 0.0
H457 H 0.09603 0.46261 0.0501 0.0
H458 H 0.13292 0.43207 0.07747 0.0
C459 C 0.20855 0.29119 0.17417 0.0
C460 C 0.1618 0.36104 0.1607 0.0
H461 H 0.09172 0.36946 0.13005 0.0
C462 C 0.1728 0.39038 0.15582 0.0
C463 C 0.13218 0.35346 0.15153 0.0
C464 C 0.11913 0.32243 0.15694 0.0
C465 C 0.15488 0.41236 0.14163 0.0
C466 C 0.12534 0.40461 0.13217 0.0
C467 C 0.11438 0.37532 0.13732 0.0
C468 C 0.10503 0.42643 0.11712 0.0
C469 C 0.16741 0.44377 0.13729 0.0
C470 C 0.07718 0.43349 0.13032 0.0
C471 C 0.05624 0.45113 0.11484 0.0
C472 C 0.06273 0.46207 0.08582 0.0
C473 C 0.09086 0.45548 0.07285 0.0
C474 C 0.11189 0.43786 0.0884 0.0
H475 H 0.18762 0.44792 0.15156 0.0
H476 H 0.17406 0.44677 0.11336 0.0
H477 H 0.1501 0.461 0.14262 0.0
H478 H 0.07136 0.42472 0.15237 0.0
H479 H 0.03469 0.45572 0.12535 0.0
H480 H 0.74164 0.25719 0.86756 0.0
H481 H 0.71691 0.21657 0.89519 0.0
H482 H 0.68153 0.18076 0.81188 0.0
H483 H 0.70772 0.22038 0.78377 0.0
H484 H 0.65813 0.20769 0.89893 0.0
H485 H 0.70978 0.10454 0.85178 0.0
H486 H 0.72557 0.14164 0.84563 0.0
H487 H 0.69444 0.12843 0.82302 0.0
C488 C 0.72939 0.2402 0.85491 0.0
C489 C 0.72688 0.24205 0.82332 0.0
C490 C 0.71503 0.21708 0.87084 0.0
C491 C 0.69769 0.19532 0.85563 0.0
C492 C 0.69537 0.19683 0.82409 0.0
H493 H 0.55156 0.0807 0.90637 0.0
H494 H 0.59119 0.10957 0.88068 0.0
C495 C 0.70999 0.21982 0.80807 0.0
C496 C 0.67986 0.17286 0.87305 0.0
H497 H 0.66347 0.09766 0.87929 0.0
C498 C 0.65969 0.18361 0.89492 0.0
C499 C 0.68187 0.1414 0.86787 0.0
C500 C 0.70431 0.12828 0.84601 0.0
C501 C 0.6408 0.16392 0.91098 0.0
C502 C 0.6421 0.13268 0.90504 0.0
C503 C 0.66261 0.12171 0.88369 0.0
C504 C 0.62066 0.1116 0.91949 0.0
C505 C 0.61883 0.17662 0.93359 0.0
C506 C 0.62454 0.10278 0.94962 0.0
C507 C 0.60195 0.08627 0.96434 0.0
C508 C 0.57526 0.07839 0.94905 0.0
C509 C 0.57197 0.08643 0.9186 0.0
C510 C 0.59458 0.10275 0.90389 0.0
H511 H 0.61934 0.20167 0.93424 0.0
H512 H 0.59554 0.16906 0.92808 0.0
H513 H 0.62435 0.16798 0.95641 0.0
H514 H 0.6445 0.10962 0.96201 0.0
H515 H 0.60478 0.0808 0.98796 0.0
H516 H 0.86817 0.77492 0.32024 0.0
H517 H 0.89226 0.81597 0.34815 0.0
H518 H 0.80542 0.85643 0.36384 0.0
H519 H 0.78099 0.81542 0.33544 0.0
H520 H 0.85476 0.89766 0.3442 0.0
H521 H 0.88465 0.8256 0.44195 0.0
H522 H 0.89503 0.81016 0.40598 0.0
H523 H 0.85585 0.8152 0.41498 0.0
C524 C 0.85417 0.79273 0.32925 0.0
C525 C 0.82265 0.79194 0.32557 0.0
C526 C 0.86796 0.81602 0.34543 0.0
C527 C 0.85057 0.839 0.3583 0.0
C528 C 0.81918 0.83877 0.35417 0.0
H529 H 0.94079 0.95803 0.48828 0.0
H530 H 0.90035 0.92931 0.46357 0.0
C531 C 0.80529 0.81531 0.33809 0.0
C532 C 0.86549 0.86291 0.37633 0.0
H533 H 0.90994 0.87309 0.43837 0.0
C534 C 0.86648 0.89246 0.36502 0.0
C535 C 0.88032 0.85616 0.40372 0.0
C536 C 0.87876 0.82513 0.4176 0.0
C537 C 0.88341 0.91507 0.37959 0.0
C538 C 0.8999 0.90776 0.4059 0.0
C539 C 0.89745 0.87864 0.41808 0.0
C540 C 0.92184 0.92896 0.41978 0.0
C541 C 0.88395 0.9464 0.36638 0.0
C542 C 0.94714 0.93857 0.4033 0.0
C543 C 0.97012 0.95509 0.41732 0.0
C544 C 0.96815 0.96244 0.44805 0.0
C545 C 0.94247 0.95345 0.46437 0.0
C546 C 0.9195 0.93683 0.45035 0.0
H547 H 0.86292 0.95113 0.3536 0.0
H548 H 0.8868 0.96382 0.38415 0.0
H549 H 0.90319 0.94831 0.35049 0.0
H550 H 0.94975 0.93219 0.37988 0.0
H551 H 0.98979 0.96151 0.40429 0.0
H552 H 0.36273 0.77315 0.70052 0.0
H553 H 0.38689 0.73203 0.67306 0.0
H554 H 0.31005 0.67458 0.69117 0.0
H555 H 0.28513 0.71656 0.71719 0.0
H556 H 0.40566 0.68154 0.69251 0.0
H557 H 0.32057 0.65634 0.60436 0.0
H558 H 0.31824 0.68921 0.62815 0.0
H559 H 0.30565 0.65302 0.64177 0.0
C560 C 0.35093 0.7518 0.69829 0.0
C561 C 0.32216 0.74789 0.71084 0.0
C562 C 0.3647 0.72829 0.68264 0.0
C563 C 0.35022 0.70016 0.67963 0.0
C564 C 0.32139 0.69622 0.69235 0.0
H565 H 0.47102 0.55182 0.63203 0.0
H566 H 0.43254 0.58116 0.65861 0.0
C567 C 0.30728 0.72006 0.70745 0.0
C568 C 0.36636 0.67483 0.66468 0.0
H569 H 0.3614 0.62204 0.60865 0.0
C570 C 0.39594 0.66862 0.67411 0.0
C571 C 0.35384 0.65799 0.64052 0.0
C572 C 0.32296 0.66465 0.62788 0.0
C573 C 0.41363 0.64683 0.65969 0.0
C574 C 0.40087 0.62932 0.63611 0.0
C575 C 0.37106 0.63508 0.62699 0.0
C576 C 0.419 0.6067 0.61924 0.0
C577 C 0.4463 0.64406 0.66905 0.0
C578 C 0.42208 0.60909 0.58777 0.0
C579 C 0.44309 0.59134 0.57241 0.0
C580 C 0.46158 0.57135 0.58839 0.0
C581 C 0.45707 0.56736 0.6194 0.0
C582 C 0.43537 0.58435 0.63458 0.0
H583 H 0.45449 0.66469 0.68077 0.0
H584 H 0.44868 0.62492 0.68497 0.0
H585 H 0.4611 0.64001 0.6493 0.0
H586 H 0.40954 0.6259 0.57531 0.0
H587 H 0.44636 0.59474 0.54845 0.0
H588 H 0.93678 0.86286 0.82548 0.0
H589 H 0.96571 0.87226 0.77936 0.0
H590 H 0.96879 0.96721 0.80026 0.0
H591 H 0.94022 0.95794 0.84659 0.0
H592 H 0.94554 0.91036 0.73287 0.0
H593 H 0.05676 0.9479 0.77613 0.0
H594 H 0.03015 0.9268 0.79879 0.0
H595 H 0.02552 0.96673 0.79358 0.0
C596 C 0.94413 0.88566 0.82053 0.0
C597 C 0.93625 0.90969 0.83965 0.0
C598 C 0.9606 0.89097 0.79418 0.0
C599 C 0.96982 0.92033 0.78667 0.0
C600 C 0.96244 0.94428 0.80597 0.0
H601 H 0.01788 0.03435 0.6472 0.0
H602 H 0.01406 0.00596 0.6941 0.0
C603 C 0.9458 0.93902 0.83221 0.0
C604 C 0.98432 0.92656 0.75723 0.0
H605 H 0.04494 0.96168 0.72501 0.0
C606 C 0.96756 0.92098 0.73099 0.0
C607 C 0.01307 0.9403 0.75497 0.0
C608 C 0.03259 0.94554 0.78236 0.0
C609 C 0.97772 0.93087 0.7027 0.0
C610 C 0.00585 0.94607 0.70057 0.0
C611 C 0.02345 0.94998 0.72665 0.0
C612 C 0.01481 0.96213 0.67263 0.0
C613 C 0.95719 0.92691 0.67578 0.0
C614 C 0.01804 0.94691 0.64504 0.0
C615 C 0.01978 0.9632 0.61803 0.0
C616 C 0.01901 0.99488 0.61841 0.0
C617 C 0.01843 0.00994 0.64625 0.0
C618 C 0.0164 0.99373 0.67309 0.0
H619 H 0.93418 0.91936 0.68235 0.0
H620 H 0.9552 0.94836 0.66303 0.0
H621 H 0.96679 0.90966 0.66047 0.0
H622 H 0.01746 0.9225 0.64424 0.0
H623 H 0.01983 0.95102 0.59687 0.0
H624 H 0.60897 0.18096 0.32485 0.0
H625 H 0.58053 0.16846 0.27916 0.0
H626 H 0.58168 0.07439 0.30377 0.0
H627 H 0.60958 0.08675 0.34981 0.0
H628 H 0.60284 0.13052 0.23449 0.0
H629 H 0.49365 0.08743 0.27762 0.0
H630 H 0.51891 0.11026 0.30018 0.0
H631 H 0.52575 0.07057 0.29557 0.0
C632 C 0.60253 0.15769 0.3209 0.0
C633 C 0.61152 0.13482 0.34094 0.0
C634 C 0.58638 0.1506 0.29474 0.0
C635 C 0.57862 0.12058 0.2883 0.0
C636 C 0.58689 0.09778 0.30862 0.0
H637 H 0.53379 0.0034 0.14763 0.0
H638 H 0.53884 0.03109 0.19488 0.0
C639 C 0.60315 0.10483 0.33472 0.0
C640 C 0.56487 0.11258 0.25889 0.0
H641 H 0.5065 0.07361 0.22681 0.0
C642 C 0.58147 0.11862 0.23266 0.0
C643 C 0.53701 0.09708 0.25668 0.0
C644 C 0.51763 0.09119 0.28399 0.0
C645 C 0.57198 0.10784 0.20445 0.0
C646 C 0.54469 0.0912 0.20236 0.0
C647 C 0.52733 0.08645 0.22843 0.0
C648 C 0.5361 0.07522 0.17424 0.0
C649 C 0.59228 0.11268 0.17754 0.0
C650 C 0.53157 0.09082 0.14704 0.0
C651 C 0.52905 0.07496 0.11984 0.0
C652 C 0.53044 0.0433 0.11961 0.0
C653 C 0.53274 0.0278 0.14713 0.0
C654 C 0.53549 0.0436 0.17417 0.0
H655 H 0.61504 0.12096 0.18418 0.0
H656 H 0.59496 0.09142 0.16461 0.0
H657 H 0.58206 0.12972 0.16238 0.0
H658 H 0.53144 0.11524 0.14667 0.0
H659 H 0.52772 0.0875 0.09894 0.0
H660 H 0.38349 0.63609 0.23512 0.0
H661 H 0.41118 0.62118 0.28033 0.0
H662 H 0.49442 0.62204 0.22989 0.0
H663 H 0.46673 0.6379 0.18467 0.0
H664 H 0.44067 0.57001 0.28662 0.0
H665 H 0.52037 0.66495 0.30613 0.0
H666 H 0.48869 0.6677 0.28067 0.0
H667 H 0.52258 0.64884 0.26907 0.0
C668 C 0.40774 0.63335 0.23378 0.0
C669 C 0.423 0.63794 0.20645 0.0
C670 C 0.42356 0.62497 0.25961 0.0
C671 C 0.45494 0.62077 0.25862 0.0
C672 C 0.47035 0.62584 0.23142 0.0
H673 H 0.5306 0.50254 0.39371 0.0
H674 H 0.52409 0.52863 0.34556 0.0
C675 C 0.45452 0.63466 0.20557 0.0
C676 C 0.47064 0.60833 0.2854 0.0
H677 H 0.52709 0.6212 0.33653 0.0
C678 C 0.45956 0.58125 0.2975 0.0
C679 C 0.49522 0.6231 0.29966 0.0
C680 C 0.50729 0.6529 0.28843 0.0
C681 C 0.47192 0.5687 0.32363 0.0
C682 C 0.49694 0.58301 0.33757 0.0
C683 C 0.50825 0.61006 0.32549 0.0
C684 C 0.51005 0.57073 0.36571 0.0
C685 C 0.45727 0.54073 0.33663 0.0
C686 C 0.50708 0.58669 0.3929 0.0
C687 C 0.51157 0.572 0.42047 0.0
C688 C 0.51873 0.5412 0.42097 0.0
C689 C 0.52481 0.52626 0.39378 0.0
C690 C 0.52099 0.54109 0.36633 0.0
H691 H 0.43411 0.53717 0.32764 0.0
H692 H 0.47089 0.5207 0.33056 0.0
H693 H 0.45593 0.54207 0.36159 0.0
H694 H 0.49888 0.60967 0.39288 0.0
H695 H 0.50674 0.58392 0.44122 0.0
H696 H 0.13949 0.4201 0.71906 0.0
H697 H 0.11077 0.43143 0.76467 0.0
H698 H 0.02751 0.4219 0.71516 0.0
H699 H 0.05625 0.41046 0.66913 0.0
H700 H 0.0366 0.47775 0.75416 0.0
H701 H 0.05564 0.36927 0.81309 0.0
H702 H 0.08882 0.38496 0.79573 0.0
H703 H 0.05768 0.37307 0.77255 0.0
C704 C 0.11508 0.42056 0.71781 0.0
C705 C 0.1001 0.41449 0.69055 0.0
C706 C 0.09872 0.42676 0.74391 0.0
C707 C 0.06708 0.42713 0.74327 0.0
C708 C 0.05193 0.42144 0.71607 0.0
H709 H 0.98333 0.50335 0.9088 0.0
H710 H 0.98189 0.47758 0.8594 0.0
C711 C 0.06834 0.41489 0.68991 0.0
C712 C 0.0504 0.43453 0.77114 0.0
H713 H 0.04397 0.41201 0.84433 0.0
C714 C 0.0373 0.46313 0.77375 0.0
C715 C 0.05119 0.41522 0.79643 0.0
C716 C 0.06384 0.38377 0.79436 0.0
C717 C 0.02765 0.47408 0.80186 0.0
C718 C 0.03095 0.45569 0.82772 0.0
C719 C 0.04151 0.42607 0.82447 0.0
C720 C 0.02989 0.46865 0.85845 0.0
C721 C 0.0165 0.50609 0.80418 0.0
C722 C 0.05708 0.47141 0.8744 0.0
C723 C 0.05786 0.48586 0.90221 0.0
C724 C 0.03143 0.49756 0.91486 0.0
C725 C 0.00392 0.49421 0.89944 0.0
C726 C 0.00313 0.47972 0.87129 0.0
H727 H 0.01726 0.51805 0.78218 0.0
H728 H 0.99284 0.50603 0.81235 0.0
H729 H 0.03034 0.5189 0.82072 0.0
H730 H 0.07798 0.46317 0.86485 0.0
H731 H 0.07933 0.48833 0.91369 0.0
H732 H 0.83174 0.93627 0.8575 0.0
H733 H 0.78537 0.96435 0.8678 0.0
H734 H 0.80842 0.96774 0.9622 0.0
H735 H 0.85499 0.94014 0.95202 0.0
H736 H 0.73985 0.94358 0.90624 0.0
H737 H 0.78241 0.05483 0.94417 0.0
H738 H 0.80527 0.02872 0.92292 0.0
H739 H 0.80041 0.02382 0.96288 0.0
C740 C 0.82723 0.94357 0.88035 0.0
C741 C 0.84701 0.93599 0.90397 0.0
C742 C 0.80071 0.95953 0.88619 0.0
C743 C 0.79368 0.96853 0.91568 0.0
C744 C 0.8137 0.96156 0.93918 0.0
H745 H 0.65441 0.01452 0.03171 0.0
H746 H 0.70114 0.01001 0.00314 0.0
C747 C 0.84011 0.94548 0.9334 0.0
C748 C 0.7641 0.98243 0.92255 0.0
H749 H 0.73171 0.04185 0.95899 0.0
C750 C 0.73791 0.96537 0.91717 0.0
C751 C 0.76171 0.01087 0.93673 0.0
C752 C 0.78893 0.03078 0.94177 0.0
C753 C 0.70962 0.97495 0.92758 0.0
C754 C 0.70741 0.00275 0.94316 0.0
C755 C 0.7334 0.02061 0.94699 0.0
C756 C 0.67946 0.01127 0.95942 0.0
C757 C 0.68278 0.95419 0.92365 0.0
C758 C 0.65179 0.01486 0.94432 0.0
C759 C 0.62487 0.01714 0.96073 0.0
C760 C 0.6254 0.01637 0.99239 0.0
C761 C 0.65334 0.0151 0.00731 0.0
C762 C 0.68008 0.01264 0.99099 0.0
H763 H 0.68947 0.93138 0.91582 0.0
H764 H 0.67024 0.95176 0.94518 0.0
H765 H 0.66722 0.96387 0.90665 0.0
H766 H 0.65086 0.01442 0.91994 0.0
H767 H 0.60363 0.01772 0.94867 0.0
H768 H 0.67973 0.07096 0.40302 0.0
H769 H 0.72396 0.04148 0.41842 0.0
H770 H 0.77746 0.12293 0.4213 0.0
H771 H 0.73349 0.15242 0.4062 0.0
H772 H 0.7848 0.03516 0.39514 0.0
H773 H 0.78104 0.08897 0.50785 0.0
H774 H 0.75014 0.09118 0.48144 0.0
H775 H 0.78232 0.11576 0.47754 0.0
C776 C 0.70106 0.08246 0.40657 0.0
C777 C 0.7031 0.11403 0.40393 0.0
C778 C 0.72625 0.06562 0.41532 0.0
C779 C 0.75379 0.08013 0.42144 0.0
C780 C 0.75623 0.1114 0.4172 0.0
H781 H 0.9362 0.03027 0.45273 0.0
H782 H 0.88697 0.03586 0.42835 0.0
C783 C 0.73111 0.12822 0.40869 0.0
C784 C 0.77948 0.06326 0.43438 0.0
H785 H 0.82593 0.06259 0.49552 0.0
C786 C 0.79368 0.04079 0.41723 0.0
C787 C 0.79053 0.07017 0.46346 0.0
C788 C 0.77505 0.09261 0.48379 0.0
C789 C 0.81965 0.02606 0.42796 0.0
C790 C 0.83184 0.03449 0.45626 0.0
C791 C 0.81674 0.05606 0.47378 0.0
C792 C 0.86113 0.02311 0.46785 0.0
C793 C 0.83371 0.00173 0.40891 0.0
C794 C 0.86316 0.01316 0.49785 0.0
C795 C 0.89119 0.01083 0.51196 0.0
C796 C 0.91771 0.0177 0.49611 0.0
C797 C 0.91599 0.02461 0.46528 0.0
C798 C 0.88783 0.02761 0.4513 0.0
H799 H 0.8166 0.99057 0.39431 0.0
H800 H 0.85098 0.01202 0.39396 0.0
H801 H 0.8448 0.98431 0.42303 0.0
H802 H 0.84293 0.00943 0.51106 0.0
H803 H 0.89205 0.00539 0.53576 0.0
H804 H 0.30717 0.6582 0.13353 0.0
H805 H 0.26158 0.63007 0.12004 0.0
H806 H 0.31065 0.54651 0.12688 0.0
H807 H 0.35628 0.57466 0.14116 0.0
H808 H 0.25487 0.59655 0.07106 0.0
H809 H 0.23387 0.52518 0.17174 0.0
H810 H 0.25978 0.55674 0.17215 0.0
H811 H 0.27095 0.52134 0.15597 0.0
C812 C 0.30817 0.63382 0.13229 0.0
C813 C 0.33524 0.61859 0.13819 0.0
C814 C 0.2821 0.61775 0.12478 0.0
C815 C 0.28257 0.58613 0.1228 0.0
C816 C 0.30953 0.5708 0.129 0.0
H817 H 0.14632 0.50464 0.00998 0.0
H818 H 0.19429 0.51016 0.03683 0.0
C819 C 0.33561 0.5869 0.1369 0.0
C820 C 0.25548 0.56986 0.11157 0.0
H821 H 0.20313 0.51554 0.1287 0.0
C822 C 0.2436 0.57885 0.08371 0.0
C823 C 0.24073 0.54682 0.12816 0.0
C824 C 0.25177 0.53708 0.1588 0.0
C825 C 0.2172 0.56591 0.07212 0.0
C826 C 0.20272 0.54243 0.08832 0.0
C827 C 0.21458 0.53319 0.11616 0.0
C828 C 0.17422 0.52899 0.07705 0.0
C829 C 0.20452 0.57834 0.04304 0.0
C830 C 0.14695 0.53491 0.092 0.0
C831 C 0.11943 0.53095 0.07695 0.0
C832 C 0.11917 0.52143 0.0468 0.0
C833 C 0.14615 0.51219 0.03322 0.0
C834 C 0.17349 0.51543 0.04848 0.0
H835 H 0.21421 0.60082 0.03747 0.0
H836 H 0.21001 0.56278 0.02426 0.0
H837 H 0.1796 0.58049 0.04431 0.0
H838 H 0.14706 0.54521 0.11415 0.0
H839 H 0.09879 0.53824 0.08774 0.0
H840 H 0.18265 0.43395 0.57512 0.0
H841 H 0.23047 0.45944 0.56387 0.0
H842 H 0.25039 0.46494 0.65887 0.0
H843 H 0.20312 0.43869 0.67031 0.0
H844 H 0.25469 0.51701 0.58397 0.0
H845 H 0.32265 0.41891 0.6225 0.0
H846 H 0.28272 0.41599 0.61498 0.0
H847 H 0.29584 0.43367 0.64899 0.0
C848 C 0.19724 0.44052 0.59361 0.0
C849 C 0.18915 0.43407 0.62359 0.0
C850 C 0.22441 0.45531 0.58717 0.0
C851 C 0.24405 0.4638 0.61053 0.0
C852 C 0.23566 0.4583 0.64051 0.0
H853 H 0.43391 0.51269 0.58463 0.0
H854 H 0.38485 0.51025 0.61008 0.0
C855 C 0.20851 0.44351 0.64699 0.0
C856 C 0.27398 0.47692 0.60329 0.0
H857 H 0.34909 0.46044 0.60312 0.0
C858 C 0.27539 0.50484 0.58841 0.0
C859 C 0.30094 0.46108 0.60937 0.0
C860 C 0.30066 0.43065 0.62464 0.0
C861 C 0.30308 0.51696 0.57871 0.0
C862 C 0.32987 0.50041 0.58351 0.0
C863 C 0.32855 0.47317 0.59959 0.0
C864 C 0.3588 0.50862 0.5688 0.0
C865 C 0.30336 0.54715 0.56306 0.0
C866 C 0.3604 0.50929 0.53722 0.0
C867 C 0.38828 0.51091 0.52274 0.0
C868 C 0.41515 0.51187 0.53954 0.0
C869 C 0.41354 0.51281 0.57115 0.0
C870 C 0.38555 0.51112 0.58569 0.0
H871 H 0.28409 0.56128 0.57046 0.0
H872 H 0.32471 0.55961 0.56744 0.0
H873 H 0.30115 0.54362 0.53839 0.0
H874 H 0.3402 0.50664 0.52369 0.0
H875 H 0.38889 0.50998 0.49834 0.0
H876 H 0.95989 0.85428 0.93213 0.0
H877 H 0.97067 0.80732 0.95892 0.0
H878 H 0.87568 0.78591 0.96077 0.0
H879 H 0.86474 0.83252 0.93324 0.0
H880 H 0.9488 0.78254 0.01555 0.0
H881 H 0.91512 0.71467 0.91514 0.0
H882 H 0.92215 0.75472 0.91293 0.0
H883 H 0.88782 0.74087 0.92945 0.0
C884 C 0.94128 0.83961 0.93829 0.0
C885 C 0.9115 0.84694 0.93024 0.0
C886 C 0.94745 0.81294 0.95382 0.0
C887 C 0.924 0.79303 0.9615 0.0
C888 C 0.89411 0.80087 0.95475 0.0
H889 H 0.95627 0.60379 0.00713 0.0
H890 H 0.92871 0.65154 0.00455 0.0
C891 C 0.8879 0.82759 0.93923 0.0
C892 C 0.93133 0.76319 0.97453 0.0
H893 H 0.93525 0.68858 0.95626 0.0
C894 C 0.94549 0.7619 0.00282 0.0
C895 C 0.9268 0.73632 0.95792 0.0
C896 C 0.91233 0.7365 0.92709 0.0
C897 C 0.95612 0.73448 0.01452 0.0
C898 C 0.95304 0.70788 0.99716 0.0
C899 C 0.93752 0.70898 0.96958 0.0
C900 C 0.96886 0.67955 0.00504 0.0
C901 C 0.97097 0.73432 0.04512 0.0
C902 C 1.00048 0.67945 0.00679 0.0
C903 C 0.01614 0.65228 0.0086 0.0
C904 C 1.0005 0.62467 0.00864 0.0
C905 C 0.96881 0.62477 0.00813 0.0
C906 C 0.95309 0.65201 0.00633 0.0
H907 H 0.96229 0.75285 0.05952 0.0
H908 H 0.96727 0.71251 0.0569 0.0
H909 H 0.99562 0.73784 0.04235 0.0
H910 H 0.01319 0.7003 0.00502 0.0
H911 H 0.04059 0.65284 0.00872 0.0
H912 H 0.40756 0.73467 0.1573 0.0
H913 H 0.42224 0.7796 0.1289 0.0
H914 H 0.41937 0.72833 0.04622 0.0
H915 H 0.40368 0.68341 0.07464 0.0
H916 H 0.47253 0.78608 0.09818 0.0
H917 H 0.37603 0.80398 0.02051 0.0
H918 H 0.37397 0.77872 0.05238 0.0
H919 H 0.39228 0.76704 0.01819 0.0
C920 C 0.40986 0.73307 0.13304 0.0
C921 C 0.40469 0.70561 0.11815 0.0
C922 C 0.4181 0.75875 0.11681 0.0
C923 C 0.42159 0.75747 0.08536 0.0
C924 C 0.41608 0.7301 0.07034 0.0
H925 H 0.53791 0.89337 0.00692 0.0
H926 H 0.51213 0.84493 0.01369 0.0
C927 C 0.40739 0.70442 0.08659 0.0
C928 C 0.43366 0.7842 0.0691 0.0
H929 H 0.41952 0.83471 0.01257 0.0
C930 C 0.46088 0.79667 0.07947 0.0
C931 C 0.41838 0.79809 0.04475 0.0
C932 C 0.3884 0.78648 0.03343 0.0
C933 C 0.47305 0.82285 0.06667 0.0
C934 C 0.45822 0.83643 0.04188 0.0
C935 C 0.43105 0.82395 0.03124 0.0
C936 C 0.47007 0.86466 0.02838 0.0
C937 C 0.50118 0.83629 0.08066 0.0
C938 C 0.45398 0.89169 0.03158 0.0
C939 C 0.46848 0.91942 0.02693 0.0
C940 C 0.49922 0.92023 0.01937 0.0
C941 C 0.51424 0.89319 0.01302 0.0
C942 C 0.49958 0.86557 0.01698 0.0
H943 H 0.50519 0.82752 0.10378 0.0
H944 H 0.52103 0.83035 0.06669 0.0
H945 H 0.49969 0.86125 0.08186 0.0
H946 H 0.43109 0.89144 0.04012 0.0
H947 H 0.45651 0.94007 0.03194 0.0
H948 H 0.12443 0.36578 0.55947 0.0
H949 H 0.10942 0.31973 0.53228 0.0
H950 H 0.10175 0.27233 0.61685 0.0
H951 H 0.11616 0.31812 0.64398 0.0
H952 H 0.13207 0.26015 0.52995 0.0
H953 H 0.01781 0.26356 0.57997 0.0
H954 H 0.04362 0.29508 0.58204 0.0
H955 H 0.04681 0.26419 0.60819 0.0
C956 C 0.11971 0.34543 0.57215 0.0
C957 C 0.12087 0.34562 0.60384 0.0
C958 C 0.11121 0.31919 0.55663 0.0
C959 C 0.10391 0.29282 0.57261 0.0
C960 C 0.10658 0.29264 0.60413 0.0
H961 H 0.08174 0.10633 0.53165 0.0
H962 H 0.10338 0.15711 0.53551 0.0
C963 C 0.11475 0.31881 0.61961 0.0
C964 C 0.09204 0.26576 0.55686 0.0
H965 H 0.03265 0.21681 0.55801 0.0
C966 C 0.11016 0.25079 0.53568 0.0
C967 C 0.06315 0.25402 0.56377 0.0
C968 C 0.04159 0.27022 0.58448 0.0
C969 C 0.1007 0.22346 0.52242 0.0
C970 C 0.07274 0.21059 0.53117 0.0
C971 C 0.05417 0.22643 0.5513 0.0
C972 C 0.06256 0.18004 0.52156 0.0
C973 C 0.12073 0.20875 0.49927 0.0
C974 C 0.03267 0.17578 0.51177 0.0
C975 C 0.02011 0.14691 0.51058 0.0
C976 C 0.03743 0.1217 0.51836 0.0
C977 C 0.0681 0.12553 0.52532 0.0
C978 C 0.08051 0.15457 0.52728 0.0
H979 H 0.1345 0.22583 0.48707 0.0
H980 H 0.13654 0.19323 0.51082 0.0
H981 H 0.10741 0.19562 0.48256 0.0
H982 H 0.01839 0.19499 0.50708 0.0
H983 H 0.9964 0.14438 0.5051 0.0
H984 H 0.62179 0.23016 0.38879 0.0
H985 H 0.61105 0.27505 0.41823 0.0
H986 H 0.64535 0.23162 0.49815 0.0
H987 H 0.65404 0.18556 0.46926 0.0
H988 H 0.59646 0.25981 0.51173 0.0
H989 H 0.66639 0.33932 0.44694 0.0
H990 H 0.64079 0.32086 0.42165 0.0
H991 H 0.66883 0.29908 0.44148 0.0
C992 C 0.62678 0.22989 0.41268 0.0
C993 C 0.63881 0.20406 0.42654 0.0
C994 C 0.6212 0.25592 0.42942 0.0
C995 C 0.62822 0.25713 0.46028 0.0
C996 C 0.64014 0.23141 0.47429 0.0
H997 H 0.58792 0.43954 0.52304 0.0
H998 H 0.61804 0.39337 0.52064 0.0
C999 C 0.64532 0.20514 0.45763 0.0
C1000 C 0.62123 0.28469 0.47799 0.0
H1001 H 0.62336 0.3614 0.47322 0.0
C1002 C 0.60292 0.28202 0.50369 0.0
C1003 C 0.63052 0.31375 0.46844 0.0
C1004 C 0.65304 0.31835 0.44334 0.0
C1005 C 0.59143 0.30761 0.51829 0.0
C1006 C 0.59748 0.33655 0.50617 0.0
C1007 C 0.61806 0.33927 0.48226 0.0
C1008 C 0.57962 0.36354 0.51473 0.0
C1009 C 0.57239 0.30321 0.54613 0.0
C1010 C 0.548 0.36216 0.51319 0.0
C1011 C 0.53085 0.38832 0.5153 0.0
C1012 C 0.54489 0.41659 0.51848 0.0
C1013 C 0.57644 0.418 0.52133 0.0
C1014 C 0.59367 0.39164 0.51966 0.0
H1015 H 0.58073 0.28382 0.55958 0.0
H1016 H 0.57236 0.32362 0.56064 0.0
H1017 H 0.54885 0.29791 0.53933 0.0
H1018 H 0.53652 0.34109 0.50839 0.0
H1019 H 0.50658 0.38657 0.51275 0.0
loop_
_geom_bond_atom_site_label_1
_geom_bond_atom_site_label_2
_geom_bond_distance
_geom_bond_site_symmetry_2
_ccdc_geom_bond_type
H0 C3 0.931 . S
H1 C6 0.928 . S
H2 C8 0.930 . S
C3 H0 0.931 . S
C3 C4 1.413 . S
C3 C5 1.360 . S
C4 C3 1.413 . S
C4 C8 1.429 . S
C5 C3 1.360 . S
C5 C6 1.372 . S
C6 H1 0.928 . S
C6 C5 1.372 . S
C6 C7 1.404 . S
C7 C6 1.404 . S
C7 C8 1.391 . S
C8 H2 0.930 . S
C8 C4 1.429 . S
C8 C7 1.391 . S
H9 C12 0.931 . S
H10 C15 0.928 . S
H11 C17 0.930 . S
C12 H9 0.931 . S
C12 C13 1.413 . S
C12 C14 1.360 . S
C13 C12 1.413 . S
C13 C17 1.429 . S
C14 C12 1.360 . S
C14 C15 1.372 . S
C15 H10 0.928 . S
C15 C14 1.372 . S
C15 C16 1.404 . S
C16 C15 1.404 . S
C16 C17 1.391 . S
C17 H11 0.930 . S
C17 C13 1.429 . S
C17 C16 1.391 . S
H18 C21 0.931 . S
H19 C24 0.928 . S
H20 C26 0.930 . S
C21 H18 0.931 . S
C21 C22 1.413 . S
C21 C23 1.360 . S
C22 C21 1.413 . S
C22 C26 1.429 . S
C23 C21 1.360 . S
C23 C24 1.372 . S
C24 H19 0.928 . S
C24 C23 1.372 . S
C24 C25 1.404 . S
C25 C24 1.404 . S
C25 C26 1.391 . S
C26 H20 0.930 . S
C26 C22 1.429 . S
C26 C25 1.391 . S
H27 C30 0.931 . S
H28 C33 0.928 . S
H29 C35 0.930 . S
C30 H27 0.931 . S
C30 C31 1.413 . S
C30 C32 1.360 . S
C31 C30 1.413 . S
C31 C35 1.429 . S
C32 C30 1.360 . S
C32 C33 1.372 . S
C33 H28 0.928 . S
C33 C32 1.372 . S
C33 C34 1.404 . S
C34 C33 1.404 . S
C34 C35 1.391 . S
C35 H29 0.930 . S
C35 C31 1.429 . S
C35 C34 1.391 . S
H36 C39 0.931 . S
H37 C42 0.928 . S
H38 C44 0.930 . S
C39 H36 0.931 . S
C39 C40 1.413 . S
C39 C41 1.360 . S
C40 C39 1.413 . S
C40 C44 1.429 . S
C41 C39 1.360 . S
C41 C42 1.372 . S
C42 H37 0.928 . S
C42 C41 1.372 . S
C42 C43 1.404 . S
C43 C42 1.404 . S
C43 C44 1.391 . S
C44 H38 0.930 . S
C44 C40 1.429 . S
C44 C43 1.391 . S
H45 C48 0.931 . S
H46 C51 0.928 . S
H47 C53 0.930 . S
C48 H45 0.931 . S
C48 C49 1.413 . S
C48 C50 1.360 . S
C49 C48 1.413 . S
C49 C53 1.429 . S
C50 C48 1.360 . S
C50 C51 1.372 . S
C51 H46 0.928 . S
C51 C50 1.372 . S
C51 C52 1.404 . S
C52 C51 1.404 . S
C52 C53 1.391 . S
C53 H47 0.930 . S
C53 C49 1.429 . S
C53 C52 1.391 . S
H54 C57 0.931 . S
H55 C60 0.928 . S
H56 C62 0.930 . S
C57 H54 0.931 . S
C57 C58 1.413 . S
C57 C59 1.360 . S
C58 C57 1.413 . S
C58 C62 1.429 . S
C59 C57 1.360 . S
C59 C60 1.372 . S
C60 H55 0.928 . S
C60 C59 1.372 . S
C60 C61 1.404 . S
C61 C60 1.404 . S
C61 C62 1.391 . S
C62 H56 0.930 . S
C62 C58 1.429 . S
C62 C61 1.391 . S
H63 C66 0.931 . S
H64 C69 0.928 . S
H65 C71 0.930 . S
C66 H63 0.931 . S
C66 C67 1.413 . S
C66 C68 1.360 . S
C67 C66 1.413 . S
C67 C71 1.429 . S
C68 C66 1.360 . S
C68 C69 1.372 . S
C69 H64 0.928 . S
C69 C68 1.372 . S
C69 C70 1.404 . S
C70 C69 1.404 . S
C70 C71 1.391 . S
C71 H65 0.930 . S
C71 C67 1.429 . S
C71 C70 1.391 . S
Zn72 O78 1.920 . S
Zn72 O84 1.898 . S
Zn72 O87 1.905 . S
Zn73 O81 1.905 1_565 S
Zn73 O82 1.898 . S
Zn73 O90 1.920 . S
Zn74 O77 2.080 1_455 S
Zn74 O80 2.114 . S
Zn74 O83 2.120 1_445 S
Zn74 O85 2.120 . S
Zn74 O86 2.114 1_455 S
Zn74 O89 2.080 . S
C75 O80 1.166 . S
C75 O81 1.182 . S
C76 O82 1.167 1_655 S
C76 O83 1.299 . S
O77 Zn74 2.080 1_655 S
O77 C91 1.305 . S
O78 Zn72 1.920 . S
O78 C91 1.234 . S
C79 O84 1.167 1_455 S
C79 O85 1.299 . S
O80 Zn74 2.114 . S
O80 C75 1.166 . S
O81 Zn73 1.905 1_545 S
O81 C75 1.182 . S
O82 Zn73 1.898 . S
O82 C76 1.167 1_455 S
O83 Zn74 2.120 1_665 S
O83 C76 1.299 . S
O84 Zn72 1.898 . S
O84 C79 1.167 1_655 S
O85 Zn74 2.120 . S
O85 C79 1.299 . S
O86 Zn74 2.114 1_655 S
O86 C88 1.166 . S
O87 Zn72 1.905 . S
O87 C88 1.182 . S
C88 O86 1.166 . S
C88 O87 1.182 . S
O89 Zn74 2.080 . S
O89 C92 1.305 1_545 S
O90 Zn73 1.920 . S
O90 C92 1.234 . S
C91 O77 1.305 . S
C91 O78 1.234 . S
C92 O89 1.305 1_565 S
C92 O90 1.234 . S
Zn93 O99 1.920 1_556 S
Zn93 O105 1.898 . S
Zn93 O108 1.905 . S
Zn94 O102 1.905 . S
Zn94 O103 1.898 . S
Zn94 O111 1.920 . S
Zn95 O98 2.080 . S
Zn95 O101 2.114 1_545 S
Zn95 O104 2.120 1_545 S
Zn95 O106 2.120 . S
Zn95 O107 2.114 1_544 S
Zn95 O110 2.080 . S
C96 O101 1.166 . S
C96 O102 1.182 . S
C97 O103 1.167 . S
C97 O104 1.299 . S
O98 Zn95 2.080 . S
O98 C112 1.305 . S
O99 Zn93 1.920 1_554 S
O99 C112 1.234 . S
C100 O105 1.167 . S
C100 O106 1.299 1_556 S
O101 Zn95 2.114 1_565 S
O101 C96 1.166 . S
O102 Zn94 1.905 . S
O102 C96 1.182 . S
O103 Zn94 1.898 . S
O103 C97 1.167 . S
O104 Zn95 2.120 1_565 S
O104 C97 1.299 . S
O105 Zn93 1.898 . S
O105 C100 1.167 . S
O106 Zn95 2.120 . S
O106 C100 1.299 1_554 S
O107 Zn95 2.114 1_566 S
O107 C109 1.166 . S
O108 Zn93 1.905 . S
O108 C109 1.182 1_545 S
C109 O107 1.166 . S
C109 O108 1.182 1_565 S
O110 Zn95 2.080 . S
O110 C113 1.305 . S
O111 Zn94 1.920 . S
O111 C113 1.234 1_565 S
C112 O98 1.305 . S
C112 O99 1.234 . S
C113 O110 1.305 . S
C113 O111 1.234 1_545 S
Zn114 O120 1.920 . S
Zn114 O126 1.898 . S
Zn114 O129 1.905 . S
Zn115 O123 1.905 . S
Zn115 O124 1.898 . S
Zn115 O132 1.920 . S
Zn116 O119 2.080 . S
Zn116 O122 2.114 . S
Zn116 O125 2.120 . S
Zn116 O127 2.120 . S
Zn116 O128 2.114 . S
Zn116 O131 2.080 . S
C117 O122 1.166 . S
C117 O123 1.182 . S
C118 O124 1.167 . S
C118 O125 1.299 . S
O119 Zn116 2.080 . S
O119 C133 1.305 . S
O120 Zn114 1.920 . S
O120 C133 1.234 . S
C121 O126 1.167 . S
C121 O127 1.299 . S
O122 Zn116 2.114 . S
O122 C117 1.166 . S
O123 Zn115 1.905 . S
O123 C117 1.182 . S
O124 Zn115 1.898 . S
O124 C118 1.167 . S
O125 Zn116 2.120 . S
O125 C118 1.299 . S
O126 Zn114 1.898 . S
O126 C121 1.167 . S
O127 Zn116 2.120 . S
O127 C121 1.299 . S
O128 Zn116 2.114 . S
O128 C130 1.166 . S
O129 Zn114 1.905 . S
O129 C130 1.182 . S
C130 O128 1.166 . S
C130 O129 1.182 . S
O131 Zn116 2.080 . S
O131 C134 1.305 . S
O132 Zn115 1.920 . S
O132 C134 1.234 . S
C133 O119 1.305 . S
C133 O120 1.234 . S
C134 O131 1.305 . S
C134 O132 1.234 . S
Zn135 O141 1.920 . S
Zn135 O147 1.898 . S
Zn135 O150 1.905 . S
Zn136 O144 1.905 1_655 S
Zn136 O145 1.898 . S
Zn136 O153 1.920 . S
Zn137 O140 2.080 1_554 S
Zn137 O143 2.114 . S
Zn137 O146 2.120 1_454 S
Zn137 O148 2.120 . S
Zn137 O149 2.114 1_554 S
Zn137 O152 2.080 . S
C138 O143 1.166 . S
C138 O144 1.182 . S
C139 O145 1.167 1_556 S
C139 O146 1.299 . S
O140 Zn137 2.080 1_556 S
O140 C154 1.305 . S
O141 Zn135 1.920 . S
O141 C154 1.234 . S
C142 O147 1.167 1_554 S
C142 O148 1.299 . S
O143 Zn137 2.114 . S
O143 C138 1.166 . S
O144 Zn136 1.905 1_455 S
O144 C138 1.182 . S
O145 Zn136 1.898 . S
O145 C139 1.167 1_554 S
O146 Zn137 2.120 1_656 S
O146 C139 1.299 . S
O147 Zn135 1.898 . S
O147 C142 1.167 1_556 S
O148 Zn137 2.120 . S
O148 C142 1.299 . S
O149 Zn137 2.114 1_556 S
O149 C151 1.166 . S
O150 Zn135 1.905 . S
O150 C151 1.182 . S
C151 O149 1.166 . S
C151 O150 1.182 . S
O152 Zn137 2.080 . S
O152 C155 1.305 1_455 S
O153 Zn136 1.920 . S
O153 C155 1.234 . S
C154 O140 1.305 . S
C154 O141 1.234 . S
C155 O152 1.305 1_655 S
C155 O153 1.234 . S
H156 C164 0.929 . S
H157 C166 0.930 . S
H158 C168 0.930 . S
H159 C171 0.929 . S
H160 C174 0.930 . S
H161 C176 0.960 . S
H162 C176 0.960 . S
H163 C176 0.960 . S
C164 H156 0.929 . S
C164 C165 1.377 . S
C164 C166 1.384 . S
C165 C164 1.377 . S
C165 C171 1.390 . S
C166 H157 0.930 . S
C166 C164 1.384 . S
C166 C167 1.372 . S
C167 C166 1.372 . S
C167 C168 1.400 . S
C167 C172 1.490 . S
C168 H158 0.930 . S
C168 C167 1.400 . S
C168 C171 1.386 . S
H169 C185 0.930 . S
H170 C186 0.931 . S
C171 H159 0.929 . S
C171 C165 1.390 . S
C171 C168 1.386 . S
C172 C167 1.490 . S
C172 C174 1.395 . S
C172 C175 1.403 . S
H173 C179 0.930 . S
C174 H160 0.930 . S
C174 C172 1.395 . S
C174 C177 1.403 . S
C175 C172 1.403 . S
C175 C176 1.524 . S
C175 C179 1.400 . S
C176 H161 0.960 . S
C176 H162 0.960 . S
C176 H163 0.960 . S
C176 C175 1.524 . S
C177 C174 1.403 . S
C177 C178 1.392 . S
C177 C181 1.495 . S
C178 C177 1.392 . S
C178 C179 1.385 . S
C178 C180 1.478 . S
C179 H173 0.930 . S
C179 C175 1.400 . S
C179 C178 1.385 . S
C180 C178 1.478 . S
C180 C182 1.381 . S
C180 C186 1.383 . S
C181 C177 1.495 . S
C181 H187 0.959 . S
C181 H188 0.961 . S
C181 H189 0.960 . S
C182 C180 1.381 . S
C182 C183 1.394 . S
C182 H190 0.930 . S
C183 C182 1.394 . S
C183 C184 1.383 . S
C183 H191 0.929 . S
C184 C183 1.383 . S
C184 C185 1.377 . S
C185 H169 0.930 . S
C185 C184 1.377 . S
C185 C186 1.379 . S
C186 H170 0.931 . S
C186 C180 1.383 . S
C186 C185 1.379 . S
H187 C181 0.959 . S
H188 C181 0.961 . S
H189 C181 0.960 . S
H190 C182 0.930 . S
H191 C183 0.929 . S
H192 C200 0.929 . S
H193 C202 0.930 . S
H194 C204 0.930 . S
H195 C207 0.929 . S
H196 C210 0.930 . S
H197 C212 0.960 . S
H198 C212 0.960 . S
H199 C212 0.960 . S
C200 H192 0.929 . S
C200 C201 1.377 . S
C200 C202 1.384 . S
C201 C200 1.377 . S
C201 C207 1.390 . S
C202 H193 0.930 . S
C202 C200 1.384 . S
C202 C203 1.372 . S
C203 C202 1.372 . S
C203 C204 1.400 . S
C203 C208 1.490 . S
C204 H194 0.930 . S
C204 C203 1.400 . S
C204 C207 1.386 . S
H205 C221 0.930 . S
H206 C222 0.931 . S
C207 H195 0.929 . S
C207 C201 1.390 . S
C207 C204 1.386 . S
C208 C203 1.490 . S
C208 C210 1.395 . S
C208 C211 1.403 . S
H209 C215 0.930 . S
C210 H196 0.930 . S
C210 C208 1.395 . S
C210 C213 1.403 . S
C211 C208 1.403 . S
C211 C212 1.524 . S
C211 C215 1.400 . S
C212 H197 0.960 . S
C212 H198 0.960 . S
C212 H199 0.960 . S
C212 C211 1.524 . S
C213 C210 1.403 . S
C213 C214 1.392 . S
C213 C217 1.495 . S
C214 C213 1.392 . S
C214 C215 1.385 . S
C214 C216 1.478 . S
C215 H209 0.930 . S
C215 C211 1.400 . S
C215 C214 1.385 . S
C216 C214 1.478 . S
C216 C218 1.381 . S
C216 C222 1.383 . S
C217 C213 1.495 . S
C217 H223 0.959 . S
C217 H224 0.961 . S
C217 H225 0.960 . S
C218 C216 1.381 . S
C218 C219 1.394 . S
C218 H226 0.930 . S
C219 C218 1.394 . S
C219 C220 1.383 . S
C219 H227 0.929 . S
C220 C219 1.383 . S
C220 C221 1.377 . S
C221 H205 0.930 . S
C221 C220 1.377 . S
C221 C222 1.379 . S
C222 H206 0.931 . S
C222 C216 1.383 . S
C222 C221 1.379 . S
H223 C217 0.959 . S
H224 C217 0.961 . S
H225 C217 0.960 . S
H226 C218 0.930 . S
H227 C219 0.929 . S
H228 C236 0.929 . S
H229 C238 0.930 . S
H230 C240 0.930 . S
H231 C243 0.929 . S
H232 C246 0.930 . S
H233 C248 0.960 . S
H234 C248 0.960 . S
H235 C248 0.960 . S
C236 H228 0.929 . S
C236 C237 1.377 . S
C236 C238 1.384 . S
C237 C236 1.377 . S
C237 C243 1.390 . S
C238 H229 0.930 . S
C238 C236 1.384 . S
C238 C239 1.372 . S
C239 C238 1.372 . S
C239 C240 1.400 . S
C239 C244 1.490 . S
C240 H230 0.930 . S
C240 C239 1.400 . S
C240 C243 1.386 . S
H241 C257 0.930 . S
H242 C258 0.931 . S
C243 H231 0.929 . S
C243 C237 1.390 . S
C243 C240 1.386 . S
C244 C239 1.490 . S
C244 C246 1.395 . S
C244 C247 1.403 . S
H245 C251 0.930 . S
C246 H232 0.930 . S
C246 C244 1.395 . S
C246 C249 1.403 . S
C247 C244 1.403 . S
C247 C248 1.524 . S
C247 C251 1.400 . S
C248 H233 0.960 . S
C248 H234 0.960 . S
C248 H235 0.960 . S
C248 C247 1.524 . S
C249 C246 1.403 . S
C249 C250 1.392 . S
C249 C253 1.495 . S
C250 C249 1.392 . S
C250 C251 1.385 . S
C250 C252 1.478 . S
C251 H245 0.930 . S
C251 C247 1.400 . S
C251 C250 1.385 . S
C252 C250 1.478 . S
C252 C254 1.381 . S
C252 C258 1.383 . S
C253 C249 1.495 . S
C253 H259 0.959 . S
C253 H260 0.961 . S
C253 H261 0.960 . S
C254 C252 1.381 . S
C254 C255 1.394 . S
C254 H262 0.930 . S
C255 C254 1.394 . S
C255 C256 1.383 . S
C255 H263 0.929 . S
C256 C255 1.383 . S
C256 C257 1.377 . S
C257 H241 0.930 . S
C257 C256 1.377 . S
C257 C258 1.379 . S
C258 H242 0.931 . S
C258 C252 1.383 . S
C258 C257 1.379 . S
H259 C253 0.959 . S
H260 C253 0.961 . S
H261 C253 0.960 . S
H262 C254 0.930 . S
H263 C255 0.929 . S
H264 C272 0.929 . S
H265 C274 0.930 . S
H266 C276 0.930 . S
H267 C279 0.929 . S
H268 C282 0.930 . S
H269 C284 0.960 . S
H270 C284 0.960 . S
H271 C284 0.960 . S
C272 H264 0.929 . S
C272 C273 1.377 . S
C272 C274 1.384 . S
C273 C272 1.377 . S
C273 C279 1.390 . S
C274 H265 0.930 . S
C274 C272 1.384 . S
C274 C275 1.372 . S
C275 C274 1.372 . S
C275 C276 1.400 . S
C275 C280 1.490 . S
C276 H266 0.930 . S
C276 C275 1.400 . S
C276 C279 1.386 . S
H277 C293 0.930 . S
H278 C294 0.931 . S
C279 H267 0.929 . S
C279 C273 1.390 . S
C279 C276 1.386 . S
C280 C275 1.490 . S
C280 C282 1.395 . S
C280 C283 1.403 . S
H281 C287 0.930 . S
C282 H268 0.930 . S
C282 C280 1.395 . S
C282 C285 1.403 . S
C283 C280 1.403 . S
C283 C284 1.524 . S
C283 C287 1.400 . S
C284 H269 0.960 . S
C284 H270 0.960 . S
C284 H271 0.960 . S
C284 C283 1.524 . S
C285 C282 1.403 . S
C285 C286 1.392 . S
C285 C289 1.495 . S
C286 C285 1.392 . S
C286 C287 1.385 . S
C286 C288 1.478 . S
C287 H281 0.930 . S
C287 C283 1.400 . S
C287 C286 1.385 . S
C288 C286 1.478 . S
C288 C290 1.381 . S
C288 C294 1.383 . S
C289 C285 1.495 . S
C289 H295 0.959 . S
C289 H296 0.961 . S
C289 H297 0.960 . S
C290 C288 1.381 . S
C290 C291 1.394 . S
C290 H298 0.930 . S
C291 C290 1.394 . S
C291 C292 1.383 . S
C291 H299 0.929 . S
C292 C291 1.383 . S
C292 C293 1.377 . S
C293 H277 0.930 . S
C293 C292 1.377 . S
C293 C294 1.379 . S
C294 H278 0.931 . S
C294 C288 1.383 . S
C294 C293 1.379 . S
H295 C289 0.959 . S
H296 C289 0.961 . S
H297 C289 0.960 . S
H298 C290 0.930 . S
H299 C291 0.929 . S
H300 C308 0.929 . S
H301 C310 0.930 . S
H302 C312 0.930 . S
H303 C315 0.929 . S
H304 C318 0.930 . S
H305 C320 0.960 . S
H306 C320 0.960 . S
H307 C320 0.960 . S
C308 H300 0.929 . S
C308 C309 1.377 . S
C308 C310 1.384 . S
C309 C308 1.377 . S
C309 C315 1.390 . S
C310 H301 0.930 . S
C310 C308 1.384 . S
C310 C311 1.372 . S
C311 C310 1.372 . S
C311 C312 1.400 . S
C311 C316 1.490 . S
C312 H302 0.930 . S
C312 C311 1.400 . S
C312 C315 1.386 . S
H313 C329 0.930 . S
H314 C330 0.931 . S
C315 H303 0.929 . S
C315 C309 1.390 . S
C315 C312 1.386 . S
C316 C311 1.490 . S
C316 C318 1.395 . S
C316 C319 1.403 . S
H317 C323 0.930 . S
C318 H304 0.930 . S
C318 C316 1.395 . S
C318 C321 1.403 . S
C319 C316 1.403 . S
C319 C320 1.524 . S
C319 C323 1.400 . S
C320 H305 0.960 . S
C320 H306 0.960 . S
C320 H307 0.960 . S
C320 C319 1.524 . S
C321 C318 1.403 . S
C321 C322 1.392 . S
C321 C325 1.495 . S
C322 C321 1.392 . S
C322 C323 1.385 . S
C322 C324 1.478 . S
C323 H317 0.930 . S
C323 C319 1.400 . S
C323 C322 1.385 . S
C324 C322 1.478 . S
C324 C326 1.381 . S
C324 C330 1.383 . S
C325 C321 1.495 . S
C325 H331 0.959 . S
C325 H332 0.961 . S
C325 H333 0.960 . S
C326 C324 1.381 . S
C326 C327 1.394 . S
C326 H334 0.930 . S
C327 C326 1.394 . S
C327 C328 1.383 . S
C327 H335 0.929 . S
C328 C327 1.383 . S
C328 C329 1.377 . S
C329 H313 0.930 . S
C329 C328 1.377 . S
C329 C330 1.379 . S
C330 H314 0.931 . S
C330 C324 1.383 . S
C330 C329 1.379 . S
H331 C325 0.959 . S
H332 C325 0.961 . S
H333 C325 0.960 . S
H334 C326 0.930 . S
H335 C327 0.929 . S
H336 C344 0.929 . S
H337 C346 0.930 . S
H338 C348 0.930 . S
H339 C351 0.929 . S
H340 C354 0.930 . S
H341 C356 0.960 . S
H342 C356 0.960 . S
H343 C356 0.960 . S
C344 H336 0.929 . S
C344 C345 1.377 . S
C344 C346 1.384 . S
C345 C344 1.377 . S
C345 C351 1.390 . S
C346 H337 0.930 . S
C346 C344 1.384 . S
C346 C347 1.372 . S
C347 C346 1.372 . S
C347 C348 1.400 . S
C347 C352 1.490 . S
C348 H338 0.930 . S
C348 C347 1.400 . S
C348 C351 1.386 . S
H349 C365 0.903 1_545 S
H350 C366 0.931 . S
C351 H339 0.929 . S
C351 C345 1.390 . S
C351 C348 1.386 . S
C352 C347 1.490 . S
C352 C354 1.395 . S
C352 C355 1.403 . S
H353 C359 0.930 . S
C354 H340 0.930 . S
C354 C352 1.395 . S
C354 C357 1.403 . S
C355 C352 1.403 . S
C355 C356 1.524 . S
C355 C359 1.400 . S
C356 H341 0.960 . S
C356 H342 0.960 . S
C356 H343 0.960 . S
C356 C355 1.524 . S
C357 C354 1.403 . S
C357 C358 1.392 . S
C357 C361 1.495 . S
C358 C357 1.392 . S
C358 C359 1.385 . S
C358 C360 1.478 . S
C359 H353 0.930 . S
C359 C355 1.400 . S
C359 C358 1.385 . S
C360 C358 1.478 . S
C360 C362 1.381 . S
C360 C366 1.383 . S
C361 C357 1.495 . S
C361 H367 0.959 . S
C361 H368 0.961 . S
C361 H369 0.960 . S
C362 C360 1.381 . S
C362 C363 1.394 . S
C362 H370 0.930 . S
C363 C362 1.394 . S
C363 C364 1.383 . S
C363 H371 0.929 . S
C364 C363 1.383 . S
C364 C365 1.390 . S
C365 H349 0.903 1_565 S
C365 C364 1.390 . S
C365 C366 1.393 . S
C366 H350 0.931 . S
C366 C360 1.383 . S
C366 C365 1.393 . S
H367 C361 0.959 . S
H368 C361 0.961 . S
H369 C361 0.960 . S
H370 C362 0.930 . S
H371 C363 0.929 . S
H372 C380 0.929 . S
H373 C382 0.930 . S
H374 C384 0.930 . S
H375 C387 0.929 . S
H376 C390 0.930 . S
H377 C392 0.960 . S
H378 C392 0.960 . S
H379 C392 0.960 . S
C380 H372 0.929 . S
C380 C381 1.377 . S
C380 C382 1.384 . S
C381 C380 1.377 . S
C381 C387 1.390 . S
C382 H373 0.930 . S
C382 C380 1.384 . S
C382 C383 1.372 . S
C383 C382 1.372 . S
C383 C384 1.400 . S
C383 C388 1.490 . S
C384 H374 0.930 . S
C384 C383 1.400 . S
C384 C387 1.386 . S
H385 C401 0.930 . S
H386 C402 0.931 . S
C387 H375 0.929 . S
C387 C381 1.390 . S
C387 C384 1.386 . S
C388 C383 1.490 . S
C388 C390 1.395 . S
C388 C391 1.403 . S
H389 C395 0.930 . S
C390 H376 0.930 . S
C390 C388 1.395 . S
C390 C393 1.403 . S
C391 C388 1.403 . S
C391 C392 1.524 . S
C391 C395 1.400 . S
C392 H377 0.960 . S
C392 H378 0.960 . S
C392 H379 0.960 . S
C392 C391 1.524 . S
C393 C390 1.403 . S
C393 C394 1.392 . S
C393 C397 1.495 . S
C394 C393 1.392 . S
C394 C395 1.385 . S
C394 C396 1.478 . S
C395 H389 0.930 . S
C395 C391 1.400 . S
C395 C394 1.385 . S
C396 C394 1.478 . S
C396 C398 1.381 . S
C396 C402 1.383 . S
C397 C393 1.495 . S
C397 H403 0.959 . S
C397 H404 0.961 . S
C397 H405 0.960 . S
C398 C396 1.381 . S
C398 C399 1.394 . S
C398 H406 0.930 . S
C399 C398 1.394 . S
C399 C400 1.383 . S
C399 H407 0.929 . S
C400 C399 1.383 . S
C400 C401 1.377 . S
C401 H385 0.930 . S
C401 C400 1.377 . S
C401 C402 1.379 . S
C402 H386 0.931 . S
C402 C396 1.383 . S
C402 C401 1.379 . S
H403 C397 0.959 . S
H404 C397 0.961 . S
H405 C397 0.960 . S
H406 C398 0.930 . S
H407 C399 0.929 . S
H408 C416 0.929 . S
H409 C418 0.930 . S
H410 C420 0.930 . S
H411 C423 0.929 . S
H412 C426 0.930 . S
H413 C428 0.960 . S
H414 C428 0.960 . S
H415 C428 0.960 . S
C416 H408 0.929 . S
C416 C417 1.377 . S
C416 C418 1.384 . S
C417 C416 1.377 . S
C417 C423 1.390 . S
C418 H409 0.930 . S
C418 C416 1.384 . S
C418 C419 1.372 . S
C419 C418 1.372 . S
C419 C420 1.400 . S
C419 C424 1.490 . S
C420 H410 0.930 . S
C420 C419 1.400 . S
C420 C423 1.386 . S
H421 C437 0.930 . S
H422 C438 0.931 . S
C423 H411 0.929 . S
C423 C417 1.390 . S
C423 C420 1.386 . S
C424 C419 1.490 . S
C424 C426 1.395 . S
C424 C427 1.403 . S
H425 C431 0.930 . S
C426 H412 0.930 . S
C426 C424 1.395 . S
C426 C429 1.403 . S
C427 C424 1.403 . S
C427 C428 1.524 . S
C427 C431 1.400 . S
C428 H413 0.960 . S
C428 H414 0.960 . S
C428 H415 0.960 . S
C428 C427 1.524 . S
C429 C426 1.403 . S
C429 C430 1.392 . S
C429 C433 1.495 . S
C430 C429 1.392 . S
C430 C431 1.385 . S
C430 C432 1.478 . S
C431 H425 0.930 . S
C431 C427 1.400 . S
C431 C430 1.385 . S
C432 C430 1.478 . S
C432 C434 1.381 . S
C432 C438 1.383 . S
C433 C429 1.495 . S
C433 H439 0.959 . S
C433 H440 0.961 . S
C433 H441 0.960 . S
C434 C432 1.381 . S
C434 C435 1.394 . S
C434 H442 0.930 . S
C435 C434 1.394 . S
C435 C436 1.383 . S
C435 H443 0.929 . S
C436 C435 1.383 . S
C436 C437 1.377 . S
C437 H421 0.930 . S
C437 C436 1.377 . S
C437 C438 1.379 . S
C438 H422 0.931 . S
C438 C432 1.383 . S
C438 C437 1.379 . S
H439 C433 0.959 . S
H440 C433 0.961 . S
H441 C433 0.960 . S
H442 C434 0.930 . S
H443 C435 0.929 . S
H444 C452 0.929 . S
H445 C454 0.930 . S
H446 C456 0.930 . S
H447 C459 0.929 . S
H448 C462 0.930 . S
H449 C464 0.960 . S
H450 C464 0.960 . S
H451 C464 0.960 . S
C452 H444 0.929 . S
C452 C453 1.377 . S
C452 C454 1.384 . S
C453 C452 1.377 . S
C453 C459 1.390 . S
C454 H445 0.930 . S
C454 C452 1.384 . S
C454 C455 1.372 . S
C455 C454 1.372 . S
C455 C456 1.400 . S
C455 C460 1.490 . S
C456 H446 0.930 . S
C456 C455 1.400 . S
C456 C459 1.386 . S
H457 C473 0.930 . S
H458 C474 0.931 . S
C459 H447 0.929 . S
C459 C453 1.390 . S
C459 C456 1.386 . S
C460 C455 1.490 . S
C460 C462 1.395 . S
C460 C463 1.403 . S
H461 C467 0.930 . S
C462 H448 0.930 . S
C462 C460 1.395 . S
C462 C465 1.403 . S
C463 C460 1.403 . S
C463 C464 1.524 . S
C463 C467 1.400 . S
C464 H449 0.960 . S
C464 H450 0.960 . S
C464 H451 0.960 . S
C464 C463 1.524 . S
C465 C462 1.403 . S
C465 C466 1.392 . S
C465 C469 1.495 . S
C466 C465 1.392 . S
C466 C467 1.385 . S
C466 C468 1.478 . S
C467 H461 0.930 . S
C467 C463 1.400 . S
C467 C466 1.385 . S
C468 C466 1.478 . S
C468 C470 1.381 . S
C468 C474 1.383 . S
C469 C465 1.495 . S
C469 H475 0.959 . S
C469 H476 0.961 . S
C469 H477 0.960 . S
C470 C468 1.381 . S
C470 C471 1.394 . S
C470 H478 0.930 . S
C471 C470 1.394 . S
C471 C472 1.383 . S
C471 H479 0.929 . S
C472 C471 1.383 . S
C472 C473 1.377 . S
C473 H457 0.930 . S
C473 C472 1.377 . S
C473 C474 1.379 . S
C474 H458 0.931 . S
C474 C468 1.383 . S
C474 C473 1.379 . S
H475 C469 0.959 . S
H476 C469 0.961 . S
H477 C469 0.960 . S
H478 C470 0.930 . S
H479 C471 0.929 . S
H480 C488 0.929 . S
H481 C490 0.930 . S
H482 C492 0.930 . S
H483 C495 0.929 . S
H484 C498 0.930 . S
H485 C500 0.960 . S
H486 C500 0.960 . S
H487 C500 0.960 . S
C488 H480 0.929 . S
C488 C489 1.377 . S
C488 C490 1.384 . S
C489 C488 1.377 . S
C489 C495 1.390 . S
C490 H481 0.930 . S
C490 C488 1.384 . S
C490 C491 1.372 . S
C491 C490 1.372 . S
C491 C492 1.400 . S
C491 C496 1.490 . S
C492 H482 0.930 . S
C492 C491 1.400 . S
C492 C495 1.386 . S
H493 C509 0.930 . S
H494 C510 0.931 . S
C495 H483 0.929 . S
C495 C489 1.390 . S
C495 C492 1.386 . S
C496 C491 1.490 . S
C496 C498 1.395 . S
C496 C499 1.403 . S
H497 C503 0.930 . S
C498 H484 0.930 . S
C498 C496 1.395 . S
C498 C501 1.403 . S
C499 C496 1.403 . S
C499 C500 1.524 . S
C499 C503 1.400 . S
C500 H485 0.960 . S
C500 H486 0.960 . S
C500 H487 0.960 . S
C500 C499 1.524 . S
C501 C498 1.403 . S
C501 C502 1.392 . S
C501 C505 1.495 . S
C502 C501 1.392 . S
C502 C503 1.385 . S
C502 C504 1.478 . S
C503 H497 0.930 . S
C503 C499 1.400 . S
C503 C502 1.385 . S
C504 C502 1.478 . S
C504 C506 1.381 . S
C504 C510 1.383 . S
C505 C501 1.495 . S
C505 H511 0.959 . S
C505 H512 0.961 . S
C505 H513 0.960 . S
C506 C504 1.381 . S
C506 C507 1.394 . S
C506 H514 0.930 . S
C507 C506 1.394 . S
C507 C508 1.383 . S
C507 H515 0.929 1_556 S
C508 C507 1.383 . S
C508 C509 1.377 . S
C509 H493 0.930 . S
C509 C508 1.377 . S
C509 C510 1.379 . S
C510 H494 0.931 . S
C510 C504 1.383 . S
C510 C509 1.379 . S
H511 C505 0.959 . S
H512 C505 0.961 . S
H513 C505 0.960 . S
H514 C506 0.930 . S
H515 C507 0.929 1_554 S
H516 C524 0.929 . S
H517 C526 0.930 . S
H518 C528 0.930 . S
H519 C531 0.929 . S
H520 C534 0.930 . S
H521 C536 0.960 . S
H522 C536 0.960 . S
H523 C536 0.960 . S
C524 H516 0.929 . S
C524 C525 1.377 . S
C524 C526 1.384 . S
C525 C524 1.377 . S
C525 C531 1.390 . S
C526 H517 0.930 . S
C526 C524 1.384 . S
C526 C527 1.372 . S
C527 C526 1.372 . S
C527 C528 1.400 . S
C527 C532 1.490 . S
C528 H518 0.930 . S
C528 C527 1.400 . S
C528 C531 1.386 . S
H529 C545 0.930 . S
H530 C546 0.931 . S
C531 H519 0.929 . S
C531 C525 1.390 . S
C531 C528 1.386 . S
C532 C527 1.490 . S
C532 C534 1.395 . S
C532 C535 1.403 . S
H533 C539 0.930 . S
C534 H520 0.930 . S
C534 C532 1.395 . S
C534 C537 1.403 . S
C535 C532 1.403 . S
C535 C536 1.524 . S
C535 C539 1.400 . S
C536 H521 0.960 . S
C536 H522 0.960 . S
C536 H523 0.960 . S
C536 C535 1.524 . S
C537 C534 1.403 . S
C537 C538 1.392 . S
C537 C541 1.495 . S
C538 C537 1.392 . S
C538 C539 1.385 . S
C538 C540 1.478 . S
C539 H533 0.930 . S
C539 C535 1.400 . S
C539 C538 1.385 . S
C540 C538 1.478 . S
C540 C542 1.381 . S
C540 C546 1.383 . S
C541 C537 1.495 . S
C541 H547 0.959 . S
C541 H548 0.961 . S
C541 H549 0.960 . S
C542 C540 1.381 . S
C542 C543 1.394 . S
C542 H550 0.930 . S
C543 C542 1.394 . S
C543 C544 1.383 . S
C543 H551 0.929 1_655 S
C544 C543 1.383 . S
C544 C545 1.377 . S
C545 H529 0.930 . S
C545 C544 1.377 . S
C545 C546 1.379 . S
C546 H530 0.931 . S
C546 C540 1.383 . S
C546 C545 1.379 . S
H547 C541 0.959 . S
H548 C541 0.961 . S
H549 C541 0.960 . S
H550 C542 0.930 . S
H551 C543 0.929 1_455 S
H552 C560 0.929 . S
H553 C562 0.930 . S
H554 C564 0.930 . S
H555 C567 0.929 . S
H556 C570 0.930 . S
H557 C572 0.960 . S
H558 C572 0.960 . S
H559 C572 0.960 . S
C560 H552 0.929 . S
C560 C561 1.377 . S
C560 C562 1.384 . S
C561 C560 1.377 . S
C561 C567 1.390 . S
C562 H553 0.930 . S
C562 C560 1.384 . S
C562 C563 1.372 . S
C563 C562 1.372 . S
C563 C564 1.400 . S
C563 C568 1.490 . S
C564 H554 0.930 . S
C564 C563 1.400 . S
C564 C567 1.386 . S
H565 C581 0.930 . S
H566 C582 0.931 . S
C567 H555 0.929 . S
C567 C561 1.390 . S
C567 C564 1.386 . S
C568 C563 1.490 . S
C568 C570 1.395 . S
C568 C571 1.403 . S
H569 C575 0.930 . S
C570 H556 0.930 . S
C570 C568 1.395 . S
C570 C573 1.403 . S
C571 C568 1.403 . S
C571 C572 1.524 . S
C571 C575 1.400 . S
C572 H557 0.960 . S
C572 H558 0.960 . S
C572 H559 0.960 . S
C572 C571 1.524 . S
C573 C570 1.403 . S
C573 C574 1.392 . S
C573 C577 1.495 . S
C574 C573 1.392 . S
C574 C575 1.385 . S
C574 C576 1.478 . S
C575 H569 0.930 . S
C575 C571 1.400 . S
C575 C574 1.385 . S
C576 C574 1.478 . S
C576 C578 1.381 . S
C576 C582 1.383 . S
C577 C573 1.495 . S
C577 H583 0.959 . S
C577 H584 0.961 . S
C577 H585 0.960 . S
C578 C576 1.381 . S
C578 C579 1.394 . S
C578 H586 0.930 . S
C579 C578 1.394 . S
C579 C580 1.383 . S
C579 H587 0.929 . S
C580 C579 1.383 . S
C580 C581 1.377 . S
C581 H565 0.930 . S
C581 C580 1.377 . S
C581 C582 1.379 . S
C582 H566 0.931 . S
C582 C576 1.383 . S
C582 C581 1.379 . S
H583 C577 0.959 . S
H584 C577 0.961 . S
H585 C577 0.960 . S
H586 C578 0.930 . S
H587 C579 0.929 . S
H588 C596 0.929 . S
H589 C598 0.930 . S
H590 C600 0.930 1_545 S
H591 C603 0.939 . S
H592 C606 0.930 . S
H593 C608 0.960 . S
H594 C608 0.960 . S
H595 C608 0.960 1_655 S
C596 H588 0.929 . S
C596 C597 1.377 . S
C596 C598 1.384 . S
C597 C596 1.377 . S
C597 C603 1.390 . S
C598 H589 0.930 . S
C598 C596 1.384 . S
C598 C599 1.372 . S
C599 C598 1.372 . S
C599 C600 1.400 . S
C599 C604 1.490 . S
C600 H590 0.930 1_565 S
C600 C599 1.400 . S
C600 C603 1.386 . S
H601 C617 0.930 . S
H602 C618 0.931 . S
C603 H591 0.939 . S
C603 C597 1.390 . S
C603 C600 1.386 . S
C604 C599 1.490 . S
C604 C606 1.395 . S
C604 C607 1.377 1_565 S
H605 C611 0.930 . S
C606 H592 0.930 . S
C606 C604 1.395 . S
C606 C609 1.403 . S
C607 C604 1.377 1_545 S
C607 C608 1.544 1_655 S
C607 C611 1.405 . S
C608 H593 0.960 . S
C608 H594 0.960 . S
C608 H595 0.960 1_455 S
C608 C607 1.544 1_455 S
C609 C606 1.403 . S
C609 C610 1.392 . S
C609 C613 1.495 . S
C610 C609 1.392 . S
C610 C611 1.385 1_565 S
C610 C612 1.478 . S
C611 H605 0.930 . S
C611 C607 1.405 . S
C611 C610 1.385 1_545 S
C612 C610 1.478 . S
C612 C614 1.381 . S
C612 C618 1.383 1_565 S
C613 C609 1.495 . S
C613 H619 0.959 . S
C613 H620 0.961 . S
C613 H621 0.960 . S
C614 C612 1.381 . S
C614 C615 1.394 . S
C614 H622 0.936 . S
C615 C614 1.394 . S
C615 C616 1.383 1_565 S
C615 H623 0.929 1_655 S
C616 C615 1.383 1_545 S
C616 C617 1.377 . S
C617 H601 0.930 . S
C617 C616 1.377 . S
C617 C618 1.379 . S
C618 H602 0.931 . S
C618 C612 1.383 1_545 S
C618 C617 1.379 . S
H619 C613 0.959 . S
H620 C613 0.961 . S
H621 C613 0.960 . S
H622 C614 0.936 . S
H623 C615 0.929 1_455 S
H624 C632 0.929 . S
H625 C634 0.930 . S
H626 C636 0.930 . S
H627 C639 0.929 . S
H628 C642 0.930 . S
H629 C644 0.960 . S
H630 C644 0.960 . S
H631 C644 0.960 . S
C632 H624 0.929 . S
C632 C633 1.377 . S
C632 C634 1.384 . S
C633 C632 1.377 . S
C633 C639 1.390 . S
C634 H625 0.930 . S
C634 C632 1.384 . S
C634 C635 1.372 . S
C635 C634 1.372 . S
C635 C636 1.400 . S
C635 C640 1.490 . S
C636 H626 0.930 . S
C636 C635 1.400 . S
C636 C639 1.386 . S
H637 C653 0.930 1_565 S
H638 C654 0.931 . S
C639 H627 0.929 . S
C639 C633 1.390 . S
C639 C636 1.386 . S
C640 C635 1.490 . S
C640 C642 1.395 . S
C640 C643 1.403 . S
H641 C647 0.930 . S
C642 H628 0.930 . S
C642 C640 1.395 . S
C642 C645 1.403 . S
C643 C640 1.403 . S
C643 C644 1.524 . S
C643 C647 1.400 . S
C644 H629 0.960 . S
C644 H630 0.960 . S
C644 H631 0.960 . S
C644 C643 1.524 . S
C645 C642 1.403 . S
C645 C646 1.392 . S
C645 C649 1.495 . S
C646 C645 1.392 . S
C646 C647 1.385 . S
C646 C648 1.478 . S
C647 H641 0.930 . S
C647 C643 1.400 . S
C647 C646 1.385 . S
C648 C646 1.478 . S
C648 C650 1.381 . S
C648 C654 1.383 . S
C649 C645 1.495 . S
C649 H655 0.959 . S
C649 H656 0.961 . S
C649 H657 0.960 . S
C650 C648 1.381 . S
C650 C651 1.394 . S
C650 H658 0.930 . S
C651 C650 1.394 . S
C651 C652 1.383 . S
C651 H659 0.929 . S
C652 C651 1.383 . S
C652 C653 1.377 . S
C653 H637 0.930 1_545 S
C653 C652 1.377 . S
C653 C654 1.379 . S
C654 H638 0.931 . S
C654 C648 1.383 . S
C654 C653 1.379 . S
H655 C649 0.959 . S
H656 C649 0.961 . S
H657 C649 0.960 . S
H658 C650 0.930 . S
H659 C651 0.929 . S
H660 C668 0.929 . S
H661 C670 0.930 . S
H662 C672 0.930 . S
H663 C675 0.929 . S
H664 C678 0.930 . S
H665 C680 0.960 . S
H666 C680 0.960 . S
H667 C680 0.960 . S
C668 H660 0.929 . S
C668 C669 1.377 . S
C668 C670 1.384 . S
C669 C668 1.377 . S
C669 C675 1.390 . S
C670 H661 0.930 . S
C670 C668 1.384 . S
C670 C671 1.372 . S
C671 C670 1.372 . S
C671 C672 1.400 . S
C671 C676 1.490 . S
C672 H662 0.930 . S
C672 C671 1.400 . S
C672 C675 1.386 . S
H673 C689 0.930 . S
H674 C690 0.931 . S
C675 H663 0.929 . S
C675 C669 1.390 . S
C675 C672 1.386 . S
C676 C671 1.490 . S
C676 C678 1.395 . S
C676 C679 1.403 . S
H677 C683 0.930 . S
C678 H664 0.930 . S
C678 C676 1.395 . S
C678 C681 1.403 . S
C679 C676 1.403 . S
C679 C680 1.524 . S
C679 C683 1.400 . S
C680 H665 0.960 . S
C680 H666 0.960 . S
C680 H667 0.960 . S
C680 C679 1.524 . S
C681 C678 1.403 . S
C681 C682 1.392 . S
C681 C685 1.495 . S
C682 C681 1.392 . S
C682 C683 1.385 . S
C682 C684 1.478 . S
C683 H677 0.930 . S
C683 C679 1.400 . S
C683 C682 1.385 . S
C684 C682 1.478 . S
C684 C686 1.381 . S
C684 C690 1.383 . S
C685 C681 1.495 . S
C685 H691 0.959 . S
C685 H692 0.961 . S
C685 H693 0.960 . S
C686 C684 1.381 . S
C686 C687 1.394 . S
C686 H694 0.930 . S
C687 C686 1.394 . S
C687 C688 1.383 . S
C687 H695 0.929 . S
C688 C687 1.383 . S
C688 C689 1.377 . S
C689 H673 0.930 . S
C689 C688 1.377 . S
C689 C690 1.379 . S
C690 H674 0.931 . S
C690 C684 1.383 . S
C690 C689 1.379 . S
H691 C685 0.959 . S
H692 C685 0.961 . S
H693 C685 0.960 . S
H694 C686 0.930 . S
H695 C687 0.929 . S
H696 C704 0.929 . S
H697 C706 0.930 . S
H698 C708 0.930 . S
H699 C711 0.929 . S
H700 C714 0.930 . S
H701 C716 0.960 . S
H702 C716 0.960 . S
H703 C716 0.960 . S
C704 H696 0.929 . S
C704 C705 1.377 . S
C704 C706 1.384 . S
C705 C704 1.377 . S
C705 C711 1.390 . S
C706 H697 0.930 . S
C706 C704 1.384 . S
C706 C707 1.372 . S
C707 C706 1.372 . S
C707 C708 1.400 . S
C707 C712 1.490 . S
C708 H698 0.930 . S
C708 C707 1.400 . S
C708 C711 1.386 . S
H709 C725 0.930 . S
H710 C726 0.931 . S
C711 H699 0.929 . S
C711 C705 1.390 . S
C711 C708 1.386 . S
C712 C707 1.490 . S
C712 C714 1.395 . S
C712 C715 1.403 . S
H713 C719 0.930 . S
C714 H700 0.930 . S
C714 C712 1.395 . S
C714 C717 1.403 . S
C715 C712 1.403 . S
C715 C716 1.524 . S
C715 C719 1.400 . S
C716 H701 0.960 . S
C716 H702 0.960 . S
C716 H703 0.960 . S
C716 C715 1.524 . S
C717 C714 1.403 . S
C717 C718 1.392 . S
C717 C721 1.495 . S
C718 C717 1.392 . S
C718 C719 1.385 . S
C718 C720 1.478 . S
C719 H713 0.930 . S
C719 C715 1.400 . S
C719 C718 1.385 . S
C720 C718 1.478 . S
C720 C722 1.381 . S
C720 C726 1.383 . S
C721 C717 1.495 . S
C721 H727 0.959 . S
C721 H728 0.961 . S
C721 H729 0.960 . S
C722 C720 1.381 . S
C722 C723 1.394 . S
C722 H730 0.930 . S
C723 C722 1.394 . S
C723 C724 1.383 . S
C723 H731 0.929 . S
C724 C723 1.383 . S
C724 C725 1.377 . S
C725 H709 0.930 . S
C725 C724 1.377 . S
C725 C726 1.379 . S
C726 H710 0.931 . S
C726 C720 1.383 . S
C726 C725 1.379 . S
H727 C721 0.959 . S
H728 C721 0.961 . S
H729 C721 0.960 . S
H730 C722 0.930 . S
H731 C723 0.929 . S
H732 C740 0.929 . S
H733 C742 0.930 . S
H734 C744 0.930 1_554 S
H735 C747 0.930 . S
H736 C750 0.930 . S
H737 C752 0.960 . S
H738 C752 0.960 . S
H739 C752 0.960 1_565 S
C740 H732 0.929 . S
C740 C741 1.377 . S
C740 C742 1.384 . S
C741 C740 1.377 . S
C741 C747 1.390 . S
C742 H733 0.930 . S
C742 C740 1.384 . S
C742 C743 1.372 . S
C743 C742 1.372 . S
C743 C744 1.400 . S
C743 C748 1.490 . S
C744 H734 0.930 1_556 S
C744 C743 1.400 . S
C744 C747 1.386 . S
H745 C761 0.930 . S
H746 C762 0.931 . S
C747 H735 0.930 . S
C747 C741 1.390 . S
C747 C744 1.386 . S
C748 C743 1.490 . S
C748 C750 1.395 . S
C748 C751 1.403 . S
H749 C755 0.930 1_545 S
C750 H736 0.930 . S
C750 C748 1.395 . S
C750 C753 1.403 . S
C751 C748 1.403 . S
C751 C752 1.524 1_566 S
C751 C755 1.400 1_556 S
C752 H737 0.960 . S
C752 H738 0.960 . S
C752 H739 0.960 1_545 S
C752 C751 1.524 1_544 S
C753 C750 1.403 . S
C753 C754 1.392 . S
C753 C757 1.495 . S
C754 C753 1.392 . S
C754 C755 1.385 1_556 S
C754 C756 1.478 . S
C755 H749 0.930 1_565 S
C755 C751 1.400 1_554 S
C755 C754 1.385 1_554 S
C756 C754 1.478 . S
C756 C758 1.381 . S
C756 C762 1.383 1_556 S
C757 C753 1.495 . S
C757 H763 0.959 . S
C757 H764 0.961 . S
C757 H765 0.960 . S
C758 C756 1.381 . S
C758 C759 1.394 . S
C758 H766 0.930 . S
C759 C758 1.394 . S
C759 C760 1.383 1_556 S
C759 H767 0.929 1_565 S
C760 C759 1.383 1_554 S
C760 C761 1.377 . S
C761 H745 0.930 . S
C761 C760 1.377 . S
C761 C762 1.379 . S
C762 H746 0.931 . S
C762 C756 1.383 1_554 S
C762 C761 1.379 . S
H763 C757 0.959 . S
H764 C757 0.961 . S
H765 C757 0.960 . S
H766 C758 0.930 . S
H767 C759 0.929 1_545 S
H768 C776 0.929 . S
H769 C778 0.930 . S
H770 C780 0.930 . S
H771 C783 0.929 . S
H772 C786 0.930 . S
H773 C788 0.960 . S
H774 C788 0.960 . S
H775 C788 0.960 . S
C776 H768 0.929 . S
C776 C777 1.377 . S
C776 C778 1.384 . S
C777 C776 1.377 . S
C777 C783 1.390 . S
C778 H769 0.930 . S
C778 C776 1.384 . S
C778 C779 1.372 . S
C779 C778 1.372 . S
C779 C780 1.400 . S
C779 C784 1.490 . S
C780 H770 0.930 . S
C780 C779 1.400 . S
C780 C783 1.386 . S
H781 C797 0.930 . S
H782 C798 0.931 . S
C783 H771 0.929 . S
C783 C777 1.390 . S
C783 C780 1.386 . S
C784 C779 1.490 . S
C784 C786 1.395 . S
C784 C787 1.403 . S
H785 C791 0.930 . S
C786 H772 0.930 . S
C786 C784 1.395 . S
C786 C789 1.403 . S
C787 C784 1.403 . S
C787 C788 1.524 . S
C787 C791 1.400 . S
C788 H773 0.960 . S
C788 H774 0.960 . S
C788 H775 0.960 . S
C788 C787 1.524 . S
C789 C786 1.403 . S
C789 C790 1.392 . S
C789 C793 1.495 . S
C790 C789 1.392 . S
C790 C791 1.385 . S
C790 C792 1.478 . S
C791 H785 0.930 . S
C791 C787 1.400 . S
C791 C790 1.385 . S
C792 C790 1.478 . S
C792 C794 1.381 . S
C792 C798 1.383 . S
C793 C789 1.495 . S
C793 H799 0.943 1_545 S
C793 H800 0.961 . S
C793 H801 0.960 1_545 S
C794 C792 1.381 . S
C794 C795 1.394 . S
C794 H802 0.930 . S
C795 C794 1.394 . S
C795 C796 1.383 . S
C795 H803 0.929 . S
C796 C795 1.383 . S
C796 C797 1.377 . S
C797 H781 0.930 . S
C797 C796 1.377 . S
C797 C798 1.379 . S
C798 H782 0.931 . S
C798 C792 1.383 . S
C798 C797 1.379 . S
H799 C793 0.943 1_565 S
H800 C793 0.961 . S
H801 C793 0.960 1_565 S
H802 C794 0.930 . S
H803 C795 0.929 . S
H804 C812 0.929 . S
H805 C814 0.930 . S
H806 C816 0.930 . S
H807 C819 0.929 . S
H808 C822 0.930 . S
H809 C824 0.960 . S
H810 C824 0.960 . S
H811 C824 0.960 . S
C812 H804 0.929 . S
C812 C813 1.377 . S
C812 C814 1.384 . S
C813 C812 1.377 . S
C813 C819 1.390 . S
C814 H805 0.930 . S
C814 C812 1.384 . S
C814 C815 1.372 . S
C815 C814 1.372 . S
C815 C816 1.400 . S
C815 C820 1.490 . S
C816 H806 0.930 . S
C816 C815 1.400 . S
C816 C819 1.386 . S
H817 C833 0.930 . S
H818 C834 0.931 . S
C819 H807 0.929 . S
C819 C813 1.390 . S
C819 C816 1.386 . S
C820 C815 1.490 . S
C820 C822 1.395 . S
C820 C823 1.403 . S
H821 C827 0.930 . S
C822 H808 0.930 . S
C822 C820 1.395 . S
C822 C825 1.403 . S
C823 C820 1.403 . S
C823 C824 1.524 . S
C823 C827 1.400 . S
C824 H809 0.960 . S
C824 H810 0.960 . S
C824 H811 0.960 . S
C824 C823 1.524 . S
C825 C822 1.403 . S
C825 C826 1.392 . S
C825 C829 1.495 . S
C826 C825 1.392 . S
C826 C827 1.385 . S
C826 C828 1.478 . S
C827 H821 0.930 . S
C827 C823 1.400 . S
C827 C826 1.385 . S
C828 C826 1.478 . S
C828 C830 1.381 . S
C828 C834 1.383 . S
C829 C825 1.495 . S
C829 H835 0.959 . S
C829 H836 0.961 1_554 S
C829 H837 0.960 . S
C830 C828 1.381 . S
C830 C831 1.394 . S
C830 H838 0.930 . S
C831 C830 1.394 . S
C831 C832 1.383 . S
C831 H839 0.929 . S
C832 C831 1.383 . S
C832 C833 1.377 . S
C833 H817 0.930 . S
C833 C832 1.377 . S
C833 C834 1.379 . S
C834 H818 0.931 . S
C834 C828 1.383 . S
C834 C833 1.379 . S
H835 C829 0.959 . S
H836 C829 0.961 1_556 S
H837 C829 0.960 . S
H838 C830 0.930 . S
H839 C831 0.929 . S
H840 C848 0.929 . S
H841 C850 0.930 . S
H842 C852 0.930 . S
H843 C855 0.929 . S
H844 C858 0.930 . S
H845 C860 0.960 . S
H846 C860 0.960 . S
H847 C860 0.960 . S
C848 H840 0.929 . S
C848 C849 1.377 . S
C848 C850 1.384 . S
C849 C848 1.377 . S
C849 C855 1.390 . S
C850 H841 0.930 . S
C850 C848 1.384 . S
C850 C851 1.372 . S
C851 C850 1.372 . S
C851 C852 1.400 . S
C851 C856 1.490 . S
C852 H842 0.930 . S
C852 C851 1.400 . S
C852 C855 1.386 . S
H853 C869 0.930 . S
H854 C870 0.931 . S
C855 H843 0.929 . S
C855 C849 1.390 . S
C855 C852 1.386 . S
C856 C851 1.490 . S
C856 C858 1.395 . S
C856 C859 1.403 . S
H857 C863 0.930 . S
C858 H844 0.930 . S
C858 C856 1.395 . S
C858 C861 1.403 . S
C859 C856 1.403 . S
C859 C860 1.524 . S
C859 C863 1.400 . S
C860 H845 0.960 . S
C860 H846 0.960 . S
C860 H847 0.960 . S
C860 C859 1.524 . S
C861 C858 1.403 . S
C861 C862 1.392 . S
C861 C865 1.495 . S
C862 C861 1.392 . S
C862 C863 1.385 . S
C862 C864 1.478 . S
C863 H857 0.930 . S
C863 C859 1.400 . S
C863 C862 1.385 . S
C864 C862 1.478 . S
C864 C866 1.381 . S
C864 C870 1.383 . S
C865 C861 1.495 . S
C865 H871 0.959 . S
C865 H872 0.961 . S
C865 H873 0.960 . S
C866 C864 1.381 . S
C866 C867 1.394 . S
C866 H874 0.930 . S
C867 C866 1.394 . S
C867 C868 1.383 . S
C867 H875 0.929 . S
C868 C867 1.383 . S
C868 C869 1.377 . S
C869 H853 0.930 . S
C869 C868 1.377 . S
C869 C870 1.379 . S
C870 H854 0.931 . S
C870 C864 1.383 . S
C870 C869 1.379 . S
H871 C865 0.959 . S
H872 C865 0.961 . S
H873 C865 0.960 . S
H874 C866 0.930 . S
H875 C867 0.929 . S
H876 C884 0.929 . S
H877 C886 0.930 1_455 S
H878 C888 0.930 . S
H879 C891 0.929 . S
H880 C894 0.930 1_554 S
H881 C896 0.960 . S
H882 C896 0.960 1_455 S
H883 C896 0.960 . S
C884 H876 0.929 . S
C884 C885 1.377 . S
C884 C886 1.384 . S
C885 C884 1.377 . S
C885 C891 1.390 . S
C886 H877 0.930 1_655 S
C886 C884 1.384 . S
C886 C887 1.372 . S
C887 C886 1.372 . S
C887 C888 1.400 . S
C887 C892 1.490 . S
C888 H878 0.930 . S
C888 C887 1.400 . S
C888 C891 1.386 . S
H889 C905 0.930 . S
H890 C906 0.931 . S
C891 H879 0.929 . S
C891 C885 1.390 . S
C891 C888 1.386 . S
C892 C887 1.490 . S
C892 C894 1.395 . S
C892 C895 1.403 . S
H893 C899 0.930 . S
C894 H880 0.930 1_556 S
C894 C892 1.395 . S
C894 C897 1.403 1_556 S
C895 C892 1.403 . S
C895 C896 1.524 . S
C895 C899 1.400 . S
C896 H881 0.960 . S
C896 H882 0.960 1_655 S
C896 H883 0.960 . S
C896 C895 1.524 . S
C897 C894 1.403 1_554 S
C897 C898 1.392 1_554 S
C897 C901 1.495 . S
C898 C897 1.392 1_556 S
C898 C899 1.385 . S
C898 C900 1.478 . S
C899 H893 0.930 . S
C899 C895 1.400 . S
C899 C898 1.385 . S
C900 C898 1.478 . S
C900 C902 1.378 1_656 S
C900 C906 1.383 . S
C901 C897 1.495 . S
C901 H907 0.959 . S
C901 H908 0.961 . S
C901 H909 0.960 1_655 S
C902 C900 1.378 1_454 S
C902 C903 1.395 . S
C902 H910 0.933 . S
C903 C902 1.395 . S
C903 C904 1.383 1_554 S
C903 H911 0.929 . S
C904 C903 1.383 1_556 S
C904 C905 1.377 1_455 S
C905 H889 0.930 . S
C905 C904 1.377 1_655 S
C905 C906 1.379 . S
C906 H890 0.931 . S
C906 C900 1.383 . S
C906 C905 1.379 . S
H907 C901 0.959 . S
H908 C901 0.961 . S
H909 C901 0.960 1_455 S
H910 C902 0.933 . S
H911 C903 0.929 . S
H912 C920 0.929 . S
H913 C922 0.930 . S
H914 C924 0.930 . S
H915 C927 0.929 . S
H916 C930 0.930 . S
H917 C932 0.960 . S
H918 C932 0.960 . S
H919 C932 0.960 . S
C920 H912 0.929 . S
C920 C921 1.377 . S
C920 C922 1.384 . S
C921 C920 1.377 . S
C921 C927 1.390 . S
C922 H913 0.930 . S
C922 C920 1.384 . S
C922 C923 1.372 . S
C923 C922 1.372 . S
C923 C924 1.400 . S
C923 C928 1.490 . S
C924 H914 0.930 . S
C924 C923 1.400 . S
C924 C927 1.386 . S
H925 C941 0.930 . S
H926 C942 0.931 . S
C927 H915 0.929 . S
C927 C921 1.390 . S
C927 C924 1.386 . S
C928 C923 1.490 . S
C928 C930 1.395 . S
C928 C931 1.403 . S
H929 C935 0.930 . S
C930 H916 0.930 . S
C930 C928 1.395 . S
C930 C933 1.403 . S
C931 C928 1.403 . S
C931 C932 1.524 . S
C931 C935 1.400 . S
C932 H917 0.960 . S
C932 H918 0.960 . S
C932 H919 0.960 . S
C932 C931 1.524 . S
C933 C930 1.403 . S
C933 C934 1.392 . S
C933 C937 1.495 . S
C934 C933 1.392 . S
C934 C935 1.385 . S
C934 C936 1.478 . S
C935 H929 0.930 . S
C935 C931 1.400 . S
C935 C934 1.385 . S
C936 C934 1.478 . S
C936 C938 1.381 . S
C936 C942 1.383 . S
C937 C933 1.495 . S
C937 H943 0.959 . S
C937 H944 0.961 . S
C937 H945 0.960 . S
C938 C936 1.381 . S
C938 C939 1.394 . S
C938 H946 0.930 . S
C939 C938 1.394 . S
C939 C940 1.383 . S
C939 H947 0.929 . S
C940 C939 1.383 . S
C940 C941 1.377 . S
C941 H925 0.930 . S
C941 C940 1.377 . S
C941 C942 1.379 . S
C942 H926 0.931 . S
C942 C936 1.383 . S
C942 C941 1.379 . S
H943 C937 0.959 . S
H944 C937 0.961 . S
H945 C937 0.960 . S
H946 C938 0.930 . S
H947 C939 0.929 . S
H948 C956 0.929 . S
H949 C958 0.930 . S
H950 C960 0.930 . S
H951 C963 0.929 . S
H952 C966 0.930 . S
H953 C968 0.960 1_655 S
H954 C968 0.960 . S
H955 C968 0.960 . S
C956 H948 0.929 . S
C956 C957 1.377 . S
C956 C958 1.384 . S
C957 C956 1.377 . S
C957 C963 1.390 . S
C958 H949 0.930 . S
C958 C956 1.384 . S
C958 C959 1.372 . S
C959 C958 1.372 . S
C959 C960 1.400 . S
C959 C964 1.490 . S
C960 H950 0.930 . S
C960 C959 1.400 . S
C960 C963 1.386 . S
H961 C977 0.930 . S
H962 C978 0.931 . S
C963 H951 0.929 . S
C963 C957 1.390 . S
C963 C960 1.386 . S
C964 C959 1.490 . S
C964 C966 1.395 . S
C964 C967 1.403 . S
H965 C971 0.930 . S
C966 H952 0.930 . S
C966 C964 1.395 . S
C966 C969 1.403 . S
C967 C964 1.403 . S
C967 C968 1.524 . S
C967 C971 1.400 . S
C968 H953 0.960 1_455 S
C968 H954 0.960 . S
C968 H955 0.960 . S
C968 C967 1.524 . S
C969 C966 1.403 . S
C969 C970 1.392 . S
C969 C973 1.495 . S
C970 C969 1.392 . S
C970 C971 1.385 . S
C970 C972 1.478 . S
C971 H965 0.930 . S
C971 C967 1.400 . S
C971 C970 1.385 . S
C972 C970 1.478 . S
C972 C974 1.381 . S
C972 C978 1.383 . S
C973 C969 1.495 . S
C973 H979 0.959 . S
C973 H980 0.961 . S
C973 H981 0.960 . S
C974 C972 1.381 . S
C974 C975 1.394 . S
C974 H982 0.930 . S
C975 C974 1.394 . S
C975 C976 1.383 . S
C975 H983 0.929 . S
C976 C975 1.383 . S
C976 C977 1.377 . S
C977 H961 0.930 . S
C977 C976 1.377 . S
C977 C978 1.379 . S
C978 H962 0.931 . S
C978 C972 1.383 . S
C978 C977 1.379 . S
H979 C973 0.959 . S
H980 C973 0.961 . S
H981 C973 0.960 . S
H982 C974 0.930 . S
H983 C975 0.929 . S
H984 C992 0.929 . S
H985 C994 0.930 . S
H986 C996 0.930 . S
H987 C999 0.929 . S
H988 C1002 0.930 . S
H989 C1004 0.960 . S
H990 C1004 0.960 . S
H991 C1004 0.960 . S
C992 H984 0.929 . S
C992 C993 1.377 . S
C992 C994 1.384 . S
C993 C992 1.377 . S
C993 C999 1.390 . S
C994 H985 0.930 . S
C994 C992 1.384 . S
C994 C995 1.372 . S
C995 C994 1.372 . S
C995 C996 1.400 . S
C995 C1000 1.490 . S
C996 H986 0.930 . S
C996 C995 1.400 . S
C996 C999 1.386 . S
H997 C1013 0.930 . S
H998 C1014 0.931 . S
C999 H987 0.929 . S
C999 C993 1.390 . S
C999 C996 1.386 . S
C1000 C995 1.490 . S
C1000 C1002 1.395 . S
C1000 C1003 1.403 . S
H1001 C1007 0.930 . S
C1002 H988 0.930 . S
C1002 C1000 1.395 . S
C1002 C1005 1.403 . S
C1003 C1000 1.403 . S
C1003 C1004 1.524 . S
C1003 C1007 1.400 . S
C1004 H989 0.960 . S
C1004 H990 0.960 . S
C1004 H991 0.960 . S
C1004 C1003 1.524 . S
C1005 C1002 1.403 . S
C1005 C1006 1.392 . S
C1005 C1009 1.495 . S
C1006 C1005 1.392 . S
C1006 C1007 1.385 . S
C1006 C1008 1.478 . S
C1007 H1001 0.930 . S
C1007 C1003 1.400 . S
C1007 C1006 1.385 . S
C1008 C1006 1.478 . S
C1008 C1010 1.381 . S
C1008 C1014 1.383 . S
C1009 C1005 1.495 . S
C1009 H1015 0.959 . S
C1009 H1016 0.961 . S
C1009 H1017 0.960 . S
C1010 C1008 1.381 . S
C1010 C1011 1.394 . S
C1010 H1018 0.930 . S
C1011 C1010 1.394 . S
C1011 C1012 1.383 . S
C1011 H1019 0.929 . S
C1012 C1011 1.383 . S
C1012 C1013 1.377 . S
C1013 H997 0.930 . S
C1013 C1012 1.377 . S
C1013 C1014 1.379 . S
C1014 H998 0.931 . S
C1014 C1008 1.383 . S
C1014 C1013 1.379 . S
H1015 C1009 0.959 . S
H1016 C1009 0.961 . S
H1017 C1009 0.960 . S
H1018 C1010 0.930 . S
H1019 C1011 0.929 . S
C165 C5 1.554 . S
C184 C75 1.439 . S
C201 C14 1.513 . S
C220 C109 1.440 . S
C256 C121 1.386 . S
C237 C25 1.496 . S
C273 C34 1.502 . S
C292 C155 1.365 . S
C328 C112 1.416 . S
C309 C7 1.524 . S
C364 C92 1.431 . S
C345 C13 1.527 . S
C400 C139 1.413 . S
C381 C23 1.491 . S
C436 C130 1.372 . S
C417 C31 1.508 . S
C453 C4 1.539 . S
C472 C138 1.448 . S
C508 C100 1.349 . S
C489 C22 1.500 . S
C525 C32 1.516 . S
C544 C76 1.391 . S
C561 C16 1.512 . S
C580 C133 1.365 . S
C616 C91 1.463 . S
C597 C41 1.556 . S
C633 C50 1.562 . S
C652 C113 1.430 . S
C669 C61 1.546 . S
C688 C118 1.413 . S
C705 C67 1.572 . S
C724 C151 1.445 . S
C741 C40 1.578 . S
C760 C96 1.481 . S
C796 C88 1.509 . S
C777 C52 1.577 . S
C832 C142 1.424 . S
C813 C59 1.562 . S
C868 C134 1.469 . S
C849 C70 1.538 . S
C885 C43 1.544 . S
C904 C154 1.475 . S
C940 C97 1.440 . S
C921 C58 1.566 . S
C976 C79 1.476 . S
C957 C68 1.546 . S
C993 C49 1.562 . S
C1012 C117 1.445 . S
