# Generated by pormake.
# Topology pyr, (3,6)-cn, num edge types: 1
# Building blocks:
#     Node 0, Type 0, BuildingBlock: PAMTOO_clean_linker_0, # of connection points: 3
#     Node 1, Type 0, BuildingBlock: PAMTOO_clean_linker_0, # of connection points: 3
#     Node 2, Type 0, BuildingBlock: PAMTOO_clean_linker_0, # of connection points: 3
#     Node 3, Type 0, BuildingBlock: PAMTOO_clean_linker_0, # of connection points: 3
#     Node 4, Type 0, BuildingBlock: PAMTOO_clean_linker_0, # of connection points: 3
#     Node 5, Type 0, BuildingBlock: PAMTOO_clean_linker_0, # of connection points: 3
#     Node 6, Type 0, BuildingBlock: PAMTOO_clean_linker_0, # of connection points: 3
#     Node 7, Type 0, BuildingBlock: PAMTOO_clean_linker_0, # of connection points: 3
#     Node 8, Type 1, BuildingBlock: MIDCAF_clean_sbu_0, # of connection points: 6
#     Node 9, Type 1, BuildingBlock: MIDCAF_clean_sbu_0, # of connection points: 6
#     Node 10, Type 1, BuildingBlock: MIDCAF_clean_sbu_0, # of connection points: 6
#     Node 11, Type 1, BuildingBlock: MIDCAF_clean_sbu_0, # of connection points: 6
#     Edge 12, Type (0, 1), BuildingBlock: UVAHIK_clean_linker_0, # of connection points: 2
#     Edge 13, Type (0, 1), BuildingBlock: UVAHIK_clean_linker_0, # of connection points: 2
#     Edge 14, Type (0, 1), BuildingBlock: UVAHIK_clean_linker_0, # of connection points: 2
#     Edge 15, Type (0, 1), BuildingBlock: UVAHIK_clean_linker_0, # of connection points: 2
#     Edge 16, Type (0, 1), BuildingBlock: UVAHIK_clean_linker_0, # of connection points: 2
#     Edge 17, Type (0, 1), BuildingBlock: UVAHIK_clean_linker_0, # of connection points: 2
#     Edge 18, Type (0, 1), BuildingBlock: UVAHIK_clean_linker_0, # of connection points: 2
#     Edge 19, Type (0, 1), BuildingBlock: UVAHIK_clean_linker_0, # of connection points: 2
#     Edge 20, Type (0, 1), BuildingBlock: UVAHIK_clean_linker_0, # of connection points: 2
#     Edge 21, Type (0, 1), BuildingBlock: UVAHIK_clean_linker_0, # of connection points: 2
#     Edge 22, Type (0, 1), BuildingBlock: UVAHIK_clean_linker_0, # of connection points: 2
#     Edge 23, Type (0, 1), BuildingBlock: UVAHIK_clean_linker_0, # of connection points: 2
#     Edge 24, Type (0, 1), BuildingBlock: UVAHIK_clean_linker_0, # of connection points: 2
#     Edge 25, Type (0, 1), BuildingBlock: UVAHIK_clean_linker_0, # of connection points: 2
#     Edge 26, Type (0, 1), BuildingBlock: UVAHIK_clean_linker_0, # of connection points: 2
#     Edge 27, Type (0, 1), BuildingBlock: UVAHIK_clean_linker_0, # of connection points: 2
#     Edge 28, Type (0, 1), BuildingBlock: UVAHIK_clean_linker_0, # of connection points: 2
#     Edge 29, Type (0, 1), BuildingBlock: UVAHIK_clean_linker_0, # of connection points: 2
#     Edge 30, Type (0, 1), BuildingBlock: UVAHIK_clean_linker_0, # of connection points: 2
#     Edge 31, Type (0, 1), BuildingBlock: UVAHIK_clean_linker_0, # of connection points: 2
#     Edge 32, Type (0, 1), BuildingBlock: UVAHIK_clean_linker_0, # of connection points: 2
#     Edge 33, Type (0, 1), BuildingBlock: UVAHIK_clean_linker_0, # of connection points: 2
#     Edge 34, Type (0, 1), BuildingBlock: UVAHIK_clean_linker_0, # of connection points: 2
#     Edge 35, Type (0, 1), BuildingBlock: UVAHIK_clean_linker_0, # of connection points: 2
# Relax obj value: 0.091
# Max RMSD: 0.201
# Mean RMSD: 0.142
data_MOF--net-pyr--node1-MIDCAF_clean_sbu_0--node2-PAMTOO_clean_linker_0--edge1-UVAHIK_clean_linker_0
_symmetry_space_group_name_H-M    P1
_symmetry_Int_Tables_number       1
_symmetry_cell_setting            triclinic
loop_
_symmetry_equiv_pos_as_xyz
'x, y, z'
_cell_length_a     44.974656
_cell_length_b     46.410645
_cell_length_c     45.80926
_cell_angle_alpha  89.798088
_cell_angle_beta   91.250978
_cell_angle_gamma 95.263301
loop_
_atom_site_label
_atom_site_type_symbol
_atom_site_fract_x
_atom_site_fract_y
_atom_site_fract_z
_atom_type_partial_charge
H0 H 0.20875 0.25553 0.25138 0.0
H1 H 0.26829 0.18787 0.25371 0.0
H2 H 0.27507 0.25079 0.18532 0.0
H3 H 0.2767 0.18879 0.16834 0.0
C4 C 0.2903 0.18178 0.18722 0.0
O5 O 0.29621 0.20441 0.20657 0.0
H6 H 0.27707 0.16357 0.1982 0.0
C7 C 0.22708 0.24523 0.24227 0.0
C8 C 0.2404 0.25643 0.21649 0.0
C9 C 0.23702 0.22065 0.25628 0.0
C10 C 0.26061 0.20723 0.24397 0.0
C11 C 0.27397 0.21799 0.21838 0.0
C12 C 0.26409 0.24259 0.20487 0.0
H13 H 0.29898 0.86549 0.73726 0.0
H14 H 0.29877 0.82535 0.65264 0.0
H15 H 0.37336 0.81985 0.71122 0.0
H16 H 0.38381 0.83319 0.64748 0.0
C17 C 0.3671 0.81616 0.63843 0.0
O18 O 0.34988 0.80389 0.66061 0.0
H19 H 0.3526 0.82659 0.62234 0.0
C20 C 0.3099 0.85336 0.72116 0.0
C21 C 0.33816 0.84391 0.72777 0.0
C22 C 0.29551 0.8473 0.69401 0.0
C23 C 0.30912 0.83017 0.67384 0.0
C24 C 0.33692 0.82011 0.68032 0.0
C25 C 0.35145 0.82709 0.70705 0.0
H26 H 0.78698 0.27132 0.84149 0.0
H27 H 0.70145 0.26618 0.79724 0.0
H28 H 0.75702 0.34628 0.79773 0.0
H29 H 0.69405 0.35154 0.80613 0.0
C30 C 0.68403 0.33331 0.79236 0.0
O31 O 0.70636 0.3198 0.77923 0.0
H32 H 0.67102 0.3175 0.80658 0.0
C33 C 0.77032 0.28168 0.82882 0.0
C34 C 0.7756 0.31102 0.82096 0.0
C35 C 0.74361 0.26539 0.82077 0.0
C36 C 0.7224 0.27827 0.80339 0.0
C37 C 0.72744 0.30732 0.79504 0.0
C38 C 0.75394 0.32363 0.80372 0.0
H39 H 0.81006 0.7357 0.36566 0.0
H40 H 0.83085 0.67609 0.29885 0.0
H41 H 0.8785 0.75996 0.30341 0.0
H42 H 0.86657 0.73979 0.24197 0.0
C43 C 0.86261 0.71627 0.24683 0.0
O44 O 0.87194 0.71141 0.27518 0.0
H45 H 0.83832 0.70952 0.24397 0.0
C46 C 0.82284 0.73076 0.34687 0.0
C47 C 0.8446 0.7517 0.33619 0.0
C48 C 0.81783 0.7032 0.33391 0.0
C49 C 0.83444 0.69697 0.30947 0.0
C50 C 0.85576 0.71775 0.29838 0.0
C51 C 0.86104 0.74476 0.31181 0.0
H52 H 0.90977 0.94596 0.86816 0.0
H53 H 0.89963 0.88269 0.93715 0.0
H54 H 0.96708 0.87645 0.87352 0.0
H55 H 0.93519 0.8209 0.88914 0.0
C56 C 0.92905 0.82573 0.91187 0.0
O57 O 0.94217 0.85268 0.91993 0.0
H58 H 0.9043 0.82566 0.91262 0.0
C59 C 0.91679 0.92689 0.87908 0.0
C60 C 0.94042 0.91272 0.86777 0.0
C61 C 0.90191 0.91637 0.9042 0.0
C62 C 0.91107 0.89151 0.91808 0.0
C63 C 0.9343 0.8771 0.90686 0.0
C64 C 0.94899 0.88772 0.88186 0.0
H65 H 0.69845 0.11381 0.33943 0.0
H66 H 0.66018 0.19561 0.33362 0.0
H67 H 0.72824 0.18316 0.39824 0.0
H68 H 0.68448 0.21797 0.42013 0.0
C69 C 0.67466 0.22567 0.39933 0.0
O70 O 0.6927 0.21967 0.37657 0.0
H71 H 0.65202 0.21408 0.39624 0.0
C72 C 0.69716 0.13575 0.34706 0.0
C73 C 0.71567 0.14625 0.37046 0.0
C74 C 0.67689 0.15329 0.33361 0.0
C75 C 0.67572 0.18178 0.34356 0.0
C76 C 0.69416 0.19239 0.36688 0.0
C77 C 0.71403 0.17467 0.38026 0.0
H78 H 0.38042 0.65493 0.08985 0.0
H79 H 0.38962 0.6268 0.17917 0.0
H80 H 0.42608 0.71151 0.15394 0.0
H81 H 0.46355 0.6876 0.19883 0.0
C82 C 0.44738 0.66981 0.20662 0.0
O83 O 0.41903 0.67494 0.19711 0.0
H84 H 0.45373 0.64904 0.19757 0.0
C85 C 0.38907 0.6587 0.11192 0.0
C86 C 0.40414 0.68567 0.1191 0.0
C87 C 0.38336 0.63735 0.13349 0.0
C88 C 0.39376 0.64295 0.16225 0.0
C89 C 0.40936 0.66955 0.16939 0.0
C90 C 0.41426 0.6909 0.14798 0.0
H91 H 0.106 0.36127 0.6626 0.0
H92 H 0.17518 0.41919 0.70234 0.0
H93 H 0.19768 0.35996 0.63667 0.0
H94 H 0.22911 0.36518 0.6981 0.0
C95 C 0.23659 0.3884 0.6941 0.0
O96 O 0.21859 0.40015 0.67328 0.0
H97 H 0.23513 0.40013 0.71507 0.0
C98 C 0.12935 0.3694 0.66434 0.0
C99 C 0.15058 0.35804 0.64651 0.0
C100 C 0.13805 0.39155 0.68432 0.0
C101 C 0.1681 0.40244 0.68657 0.0
C102 C 0.18945 0.39081 0.6696 0.0
C103 C 0.18074 0.36892 0.64942 0.0
Zn104 Zn 0.99889 0.06602 0.55352 0.0
Zn105 Zn 0.06004 0.99888 0.48859 0.0
Zn106 Zn 0.02929 0.03282 0.52217 0.0
C107 C 0.08407 0.05571 0.47965 0.0
C108 C 0.99997 0.98992 0.47135 0.0
O109 O 0.03407 0.02007 0.56898 0.0
O110 O 0.01215 0.05351 0.5926 0.0
C111 C 0.03849 0.10263 0.52204 0.0
O112 O 0.06284 0.06047 0.49699 0.0
O113 O 0.08878 0.03013 0.47316 0.0
O114 O 0.02535 0.98354 0.46365 0.0
O115 O 0.99757 0.00747 0.49272 0.0
O116 O 0.01608 0.10363 0.53797 0.0
O117 O 0.04742 0.0781 0.51483 0.0
O118 O 0.98153 0.02749 0.50752 0.0
O119 O 0.95822 0.05211 0.53974 0.0
C120 C 0.95726 0.0362 0.51741 0.0
O121 O 0.05192 0.0036 0.55174 0.0
O122 O 0.07316 0.97477 0.52166 0.0
C123 C 0.02632 0.03126 0.59309 0.0
C124 C 0.06759 0.98218 0.54734 0.0
Zn125 Zn 0.53356 0.04232 0.97361 0.0
Zn126 Zn 0.5703 0.96384 0.04761 0.0
Zn127 Zn 0.5533 0.00326 0.01043 0.0
C128 C 0.61878 0.98006 0.01121 0.0
C129 C 0.52273 0.93712 0.01649 0.0
O130 O 0.53259 0.03644 0.0363 0.0
O131 O 0.51382 0.06491 0.00316 0.0
C132 C 0.59506 0.04304 0.9669 0.0
O133 O 0.60128 0.99889 0.00214 0.0
O134 O 0.61003 0.96148 0.03011 0.0
O135 O 0.53878 0.9327 0.03865 0.0
O136 O 0.52582 0.96148 0.00277 0.0
O137 O 0.57329 0.05706 0.95975 0.0
O138 O 0.5918 0.02152 0.98475 0.0
O139 O 0.51926 0.98069 0.98079 0.0
O140 O 0.50967 0.01393 0.94796 0.0
C141 C 0.50618 0.98813 0.95698 0.0
O142 O 0.54912 0.02001 0.05528 0.0
O143 O 0.56697 0.98664 0.08364 0.0
C144 C 0.51747 0.05794 0.0296 0.0
C145 C 0.55647 0.01084 0.0808 0.0
Zn146 Zn 0.57661 0.55569 0.55484 0.0
Zn147 Zn 0.50327 0.49241 0.4799 0.0
Zn148 Zn 0.5403 0.52419 0.51691 0.0
C149 C 0.56207 0.48626 0.46339 0.0
C150 C 0.4906 0.55028 0.47462 0.0
O151 O 0.52441 0.56795 0.5196 0.0
O152 O 0.55374 0.59041 0.55343 0.0
C153 C 0.55279 0.50635 0.58452 0.0
O154 O 0.56795 0.5042 0.48462 0.0
O155 O 0.53534 0.47778 0.45658 0.0
O156 O 0.48278 0.52544 0.46439 0.0
O157 O 0.51081 0.55357 0.49505 0.0
O158 O 0.57112 0.5284 0.58821 0.0
O159 O 0.5386 0.50224 0.5599 0.0
O160 O 0.58567 0.52626 0.49944 0.0
O161 O 0.61266 0.55484 0.53046 0.0
C162 C 0.61069 0.54016 0.5072 0.0
O163 O 0.51463 0.49037 0.54224 0.0
O164 O 0.48389 0.46688 0.51018 0.0
C165 C 0.53173 0.59027 0.53578 0.0
C166 C 0.49334 0.47066 0.53618 0.0
Zn167 Zn 0.09272 0.54218 0.98419 0.0
Zn168 Zn 0.01886 0.47114 0.04766 0.0
Zn169 Zn 0.05583 0.5069 0.01505 0.0
C170 C 0.07726 0.46374 0.06642 0.0
C171 C 0.00808 0.4563 0.9888 0.0
O172 O 0.04442 0.55228 0.02049 0.0
O173 O 0.07971 0.57948 0.99776 0.0
C174 C 0.12816 0.51061 0.0202 0.0
O175 O 0.08308 0.48204 0.04558 0.0
O176 O 0.05055 0.45583 0.07274 0.0
O177 O 0.00095 0.44786 0.01416 0.0
O178 O 0.02797 0.47779 0.98526 0.0
O179 O 0.13052 0.52844 0.99933 0.0
O180 O 0.10223 0.50106 0.02943 0.0
O181 O 0.04908 0.49468 0.96858 0.0
O182 O 0.07771 0.52827 0.94534 0.0
C183 C 0.0592 0.50612 0.94469 0.0
O184 O 0.02749 0.53384 0.03996 0.0
O185 O 0.99639 0.5024 0.06334 0.0
C186 C 0.05613 0.57739 0.01238 0.0
C187 C 0.00551 0.52823 0.05727 0.0
C188 C 0.23941 0.19621 0.30542 0.0
C189 C 0.22245 0.20856 0.28327 0.0
C190 C 0.22563 0.18336 0.32991 0.0
C191 C 0.15865 0.17994 0.3747 0.0
H192 H 0.17686 0.1014 0.39086 0.0
C193 C 0.08815 0.1024 0.45189 0.0
C194 C 0.10198 0.07974 0.4653 0.0
C195 C 0.10422 0.12161 0.43304 0.0
C196 C 0.17192 0.12355 0.38731 0.0
H197 H 0.17745 0.21736 0.27013 0.0
H198 H 0.15367 0.19566 0.31334 0.0
H199 H 0.20226 0.12848 0.35192 0.0
H200 H 0.14377 0.06069 0.47165 0.0
H201 H 0.17227 0.09505 0.44044 0.0
H202 H 0.12856 0.17521 0.41039 0.0
C203 C 0.17768 0.19601 0.31158 0.0
C204 C 0.18642 0.139 0.36472 0.0
C205 C 0.19139 0.20852 0.28684 0.0
C206 C 0.13256 0.07787 0.46133 0.0
C207 C 0.14876 0.09739 0.4431 0.0
C208 C 0.14442 0.16462 0.39772 0.0
C209 C 0.19461 0.18289 0.33312 0.0
C210 C 0.17983 0.16726 0.35802 0.0
C211 C 0.13456 0.11873 0.42759 0.0
C212 C 0.15073 0.13608 0.40426 0.0
H213 H 0.26341 0.19638 0.30388 0.0
H214 H 0.23928 0.17369 0.34635 0.0
H215 H 0.15328 0.2018 0.37007 0.0
H216 H 0.06447 0.10406 0.45438 0.0
H217 H 0.09234 0.13758 0.42151 0.0
C218 C 0.35158 0.88032 0.76755 0.0
C219 C 0.35412 0.85272 0.7557 0.0
C220 C 0.36674 0.88901 0.7934 0.0
C221 C 0.43378 0.87887 0.83574 0.0
H222 H 0.39582 0.92088 0.89551 0.0
C223 C 0.46698 0.94657 0.94937 0.0
C224 C 0.48949 0.96626 0.93827 0.0
C225 C 0.45041 0.92707 0.93059 0.0
C226 C 0.40663 0.90877 0.87928 0.0
H227 H 0.37461 0.81255 0.76231 0.0
H228 H 0.40205 0.82833 0.807 0.0
H229 H 0.36546 0.89721 0.85591 0.0
H230 H 0.51298 0.98084 0.89941 0.0
H231 H 0.48449 0.9467 0.86677 0.0
H232 H 0.47512 0.89169 0.8583 0.0
C233 C 0.38796 0.843 0.7962 0.0
C234 C 0.38932 0.89545 0.85652 0.0
C235 C 0.37239 0.83408 0.77049 0.0
C236 C 0.49569 0.96581 0.90842 0.0
C237 C 0.47958 0.94612 0.88983 0.0
C238 C 0.45113 0.89253 0.85828 0.0
C239 C 0.38524 0.87055 0.80789 0.0
C240 C 0.40283 0.88098 0.83415 0.0
C241 C 0.45654 0.92679 0.9006 0.0
C242 C 0.4378 0.90821 0.87984 0.0
H243 H 0.33843 0.89564 0.75651 0.0
H244 H 0.36472 0.91061 0.80157 0.0
H245 H 0.44479 0.86798 0.81873 0.0
H246 H 0.46152 0.94695 0.97225 0.0
H247 H 0.43266 0.91244 0.9394 0.0
C248 C 0.6328 0.34389 0.77386 0.0
C249 C 0.66376 0.34529 0.76962 0.0
C250 C 0.61413 0.35669 0.75378 0.0
C251 C 0.61077 0.38437 0.67813 0.0
H252 H 0.55416 0.43452 0.70806 0.0
C253 C 0.54693 0.45439 0.6 0.0
C254 C 0.55105 0.48384 0.60747 0.0
C255 C 0.55268 0.43318 0.62064 0.0
C256 C 0.56965 0.42037 0.69937 0.0
H257 H 0.6996 0.36203 0.74172 0.0
H258 H 0.66704 0.38412 0.70644 0.0
H259 H 0.58176 0.40546 0.74194 0.0
H260 H 0.56183 0.51408 0.64288 0.0
H261 H 0.5717 0.47725 0.67884 0.0
H262 H 0.59975 0.40018 0.63573 0.0
C263 C 0.65707 0.37256 0.72491 0.0
C264 C 0.58533 0.40361 0.71874 0.0
C265 C 0.67574 0.35998 0.7451 0.0
C266 C 0.55855 0.49154 0.6365 0.0
C267 C 0.56406 0.47038 0.65716 0.0
C268 C 0.59497 0.40095 0.65877 0.0
C269 C 0.62608 0.37118 0.72909 0.0
C270 C 0.60669 0.38606 0.70837 0.0
C271 C 0.56245 0.44107 0.64914 0.0
C272 C 0.57484 0.41975 0.66923 0.0
H273 H 0.62308 0.33314 0.79288 0.0
H274 H 0.59036 0.35529 0.75758 0.0
H275 H 0.6268 0.37076 0.66947 0.0
H276 H 0.54146 0.44781 0.57773 0.0
H277 H 0.55092 0.41072 0.61393 0.0
C278 C 0.88693 0.71019 0.19836 0.0
C279 C 0.87929 0.69898 0.22598 0.0
C280 C 0.90096 0.69355 0.17832 0.0
C281 C 0.91245 0.61728 0.16203 0.0
H282 H 0.97408 0.6513 0.11125 0.0
C283 C 0.95982 0.54852 0.07442 0.0
C284 C 0.99083 0.55166 0.07095 0.0
C285 C 0.94588 0.56883 0.09026 0.0
C286 C 0.95704 0.64144 0.12541 0.0
H287 H 0.87937 0.66127 0.254 0.0
H288 H 0.90485 0.63265 0.21968 0.0
H289 H 0.95147 0.68175 0.14632 0.0
H290 H 0.03167 0.57869 0.08049 0.0
H291 H 0.00745 0.61397 0.10911 0.0
H292 H 0.91877 0.57685 0.14229 0.0
C293 C 0.89983 0.65417 0.21322 0.0
C294 C 0.94382 0.65895 0.14529 0.0
C295 C 0.88555 0.67068 0.23307 0.0
C296 C 0.00765 0.57598 0.08276 0.0
C297 C 0.99372 0.59619 0.09903 0.0
C298 C 0.9258 0.5998 0.14244 0.0
C299 C 0.90749 0.66527 0.18548 0.0
C300 C 0.92144 0.64702 0.16394 0.0
C301 C 0.96274 0.59242 0.10361 0.0
C302 C 0.94823 0.6116 0.12382 0.0
H303 H 0.88172 0.73173 0.19215 0.0
H304 H 0.90603 0.70261 0.15699 0.0
H305 H 0.89495 0.60737 0.17564 0.0
H306 H 0.94638 0.53003 0.06525 0.0
H307 H 0.92189 0.56565 0.09259 0.0
C308 C 0.32891 0.14542 0.18502 0.0
C309 C 0.31902 0.17198 0.17609 0.0
C310 C 0.35423 0.13532 0.17273 0.0
C311 C 0.39792 0.14319 0.10565 0.0
H312 H 0.45456 0.09993 0.1484 0.0
C313 C 0.4967 0.10263 0.04696 0.0
C314 C 0.50247 0.07381 0.05215 0.0
C315 C 0.47825 0.11654 0.06532 0.0
C316 C 0.43883 0.11182 0.13614 0.0
H317 H 0.32861 0.20958 0.14872 0.0
H318 H 0.37308 0.19222 0.12738 0.0
H319 H 0.41482 0.12093 0.17451 0.0
H320 H 0.49442 0.03733 0.08145 0.0
H321 H 0.46179 0.06156 0.11355 0.0
H322 H 0.42121 0.13371 0.06727 0.0
C323 C 0.36097 0.17883 0.1434 0.0
C324 C 0.41606 0.12386 0.1511 0.0
C325 C 0.33566 0.18888 0.15568 0.0
C326 C 0.49066 0.05967 0.07709 0.0
C327 C 0.47191 0.07357 0.09544 0.0
C328 C 0.42054 0.13117 0.09076 0.0
C329 C 0.37023 0.15164 0.15131 0.0
C330 C 0.3953 0.13968 0.13599 0.0
C331 C 0.46468 0.10188 0.08918 0.0
C332 C 0.44133 0.11532 0.10574 0.0
H333 H 0.31655 0.13206 0.2009 0.0
H334 H 0.36058 0.11424 0.17922 0.0
H335 H 0.38196 0.1546 0.09317 0.0
H336 H 0.50575 0.11419 0.02807 0.0
H337 H 0.47387 0.1386 0.06027 0.0
C338 C 0.26297 0.88856 0.69491 0.0
C339 C 0.26719 0.86018 0.68622 0.0
C340 C 0.23725 0.9014 0.68639 0.0
C341 C 0.16078 0.88566 0.65363 0.0
H342 H 0.17304 0.96551 0.62804 0.0
C343 C 0.08604 0.93779 0.56907 0.0
C344 C 0.08139 0.96715 0.57186 0.0
C345 C 0.10391 0.9245 0.58938 0.0
C346 C 0.16903 0.9434 0.63566 0.0
H347 H 0.24695 0.82282 0.66241 0.0
H348 H 0.2027 0.84562 0.64651 0.0
H349 H 0.21421 0.94267 0.65071 0.0
H350 H 0.09074 0.00539 0.59865 0.0
H351 H 0.12212 0.98209 0.63438 0.0
H352 H 0.11585 0.8862 0.63711 0.0
C353 C 0.21904 0.85778 0.66045 0.0
C354 C 0.1927 0.93023 0.64868 0.0
C355 C 0.24468 0.84482 0.6692 0.0
C356 C 0.09366 0.98263 0.59621 0.0
C357 C 0.11183 0.96937 0.61646 0.0
C358 C 0.13715 0.8988 0.64038 0.0
C359 C 0.21515 0.88638 0.66864 0.0
C360 C 0.18907 0.90101 0.65734 0.0
C361 C 0.11785 0.9404 0.61274 0.0
C362 C 0.1412 0.92765 0.63075 0.0
H363 H 0.27993 0.90127 0.70768 0.0
H364 H 0.23488 0.92329 0.69348 0.0
H365 H 0.15698 0.86331 0.66056 0.0
H366 H 0.07686 0.9254 0.55044 0.0
H367 H 0.10831 0.90225 0.58572 0.0
C368 C 0.81789 0.35041 0.815 0.0
C369 C 0.80307 0.32839 0.83201 0.0
C370 C 0.84405 0.36603 0.82561 0.0
C371 C 0.90758 0.3597 0.87419 0.0
H372 H 0.90884 0.44156 0.89119 0.0
C373 C 0.98128 0.41288 0.96528 0.0
C374 C 0.99195 0.44217 0.96353 0.0
C375 C 0.96292 0.40002 0.94314 0.0
C376 C 0.90931 0.41888 0.88594 0.0
H377 H 0.80363 0.30681 0.87422 0.0
H378 H 0.8497 0.33298 0.89179 0.0
H379 H 0.86711 0.41744 0.86286 0.0
H380 H 0.99169 0.48109 0.93736 0.0
H381 H 0.9605 0.45834 0.89789 0.0
H382 H 0.94936 0.36072 0.89743 0.0
C383 C 0.84115 0.33791 0.87022 0.0
C384 C 0.88534 0.40512 0.8698 0.0
C385 C 0.81484 0.3228 0.85998 0.0
C386 C 0.98444 0.45825 0.93886 0.0
C387 C 0.96619 0.44532 0.9165 0.0
C388 C 0.93171 0.37348 0.8899 0.0
C389 C 0.85606 0.35952 0.85313 0.0
C390 C 0.88381 0.37522 0.86478 0.0
C391 C 0.95473 0.41615 0.91864 0.0
C392 C 0.93229 0.40298 0.89705 0.0
H393 H 0.80963 0.35524 0.79333 0.0
H394 H 0.85521 0.38275 0.81215 0.0
H395 H 0.90693 0.33663 0.87029 0.0
H396 H 0.98648 0.40006 0.98421 0.0
H397 H 0.95408 0.37772 0.94596 0.0
C398 C 0.80287 0.6518 0.3492 0.0
C399 C 0.79613 0.68077 0.34674 0.0
C400 C 0.78374 0.63138 0.36385 0.0
C401 C 0.73168 0.62816 0.42312 0.0
H402 H 0.70262 0.5516 0.39533 0.0
C403 C 0.6316 0.54148 0.4569 0.0
C404 C 0.63626 0.54276 0.48734 0.0
C405 C 0.65434 0.55197 0.43819 0.0
C406 C 0.71077 0.57285 0.40335 0.0
H407 H 0.76294 0.71039 0.35607 0.0
H408 H 0.73012 0.67498 0.38227 0.0
H409 H 0.7347 0.584 0.36415 0.0
H410 H 0.66926 0.55272 0.5219 0.0
H411 H 0.70885 0.57074 0.48931 0.0
H412 H 0.70783 0.61754 0.46203 0.0
C413 C 0.75034 0.66821 0.37305 0.0
C414 C 0.7291 0.5913 0.38561 0.0
C415 C 0.76922 0.6885 0.35819 0.0
C416 C 0.66489 0.55184 0.49855 0.0
C417 C 0.68754 0.56224 0.47991 0.0
C418 C 0.71384 0.6097 0.4409 0.0
C419 C 0.75771 0.63963 0.37655 0.0
C420 C 0.7393 0.61928 0.39524 0.0
C421 C 0.68198 0.56388 0.44969 0.0
C422 C 0.70298 0.58195 0.43119 0.0
H423 H 0.82352 0.64513 0.34088 0.0
H424 H 0.78998 0.6095 0.36639 0.0
H425 H 0.73951 0.64949 0.43119 0.0
H426 H 0.60973 0.53482 0.4476 0.0
H427 H 0.64944 0.55299 0.41497 0.0
C428 C 0.21831 0.30451 0.21765 0.0
C429 C 0.22904 0.28204 0.20145 0.0
C430 C 0.20582 0.32747 0.20359 0.0
C431 C 0.20187 0.36808 0.135 0.0
H432 H 0.12214 0.38096 0.15913 0.0
C433 C 0.12375 0.4379 0.06786 0.0
C434 C 0.10133 0.45065 0.08264 0.0
C435 C 0.14296 0.42066 0.08306 0.0
C436 C 0.14466 0.37834 0.15244 0.0
H437 H 0.23551 0.26688 0.15742 0.0
H438 H 0.2146 0.30752 0.13303 0.0
H439 H 0.1492 0.34511 0.18432 0.0
H440 H 0.08272 0.45748 0.12491 0.0
H441 H 0.11717 0.42917 0.15173 0.0
H442 H 0.19762 0.40168 0.1034 0.0
C443 C 0.21585 0.30712 0.15667 0.0
C444 C 0.16008 0.35752 0.16685 0.0
C445 C 0.22793 0.28387 0.17073 0.0
C446 C 0.0997 0.44761 0.11302 0.0
C447 C 0.11926 0.43103 0.12829 0.0
C448 C 0.18662 0.38938 0.12084 0.0
C449 C 0.2042 0.32888 0.17297 0.0
C450 C 0.18873 0.352 0.15819 0.0
C451 C 0.14034 0.41623 0.11343 0.0
C452 C 0.15767 0.39472 0.12925 0.0
H453 H 0.21942 0.30437 0.24128 0.0
H454 H 0.19729 0.34415 0.21668 0.0
H455 H 0.22403 0.36432 0.12798 0.0
H456 H 0.12524 0.43979 0.04434 0.0
H457 H 0.1587 0.40962 0.07069 0.0
C458 C 0.72519 0.21289 0.81468 0.0
C459 C 0.73704 0.23577 0.83261 0.0
C460 C 0.71787 0.18537 0.82654 0.0
C461 C 0.72574 0.14137 0.89474 0.0
H462 H 0.64947 0.10363 0.86849 0.0
C463 C 0.64214 0.07492 0.96651 0.0
C464 C 0.62383 0.05207 0.95386 0.0
C465 C 0.66428 0.09012 0.95015 0.0
C466 C 0.67118 0.11343 0.87568 0.0
H467 H 0.75051 0.24792 0.87692 0.0
H468 H 0.73697 0.20051 0.89773 0.0
H469 H 0.67167 0.14507 0.84177 0.0
H470 H 0.61488 0.02595 0.91514 0.0
H471 H 0.65363 0.0526 0.8863 0.0
H472 H 0.72387 0.11071 0.92998 0.0
C473 C 0.73421 0.20325 0.87438 0.0
C474 C 0.68397 0.13728 0.86031 0.0
C475 C 0.74182 0.23056 0.86248 0.0
C476 C 0.62921 0.04324 0.92538 0.0
C477 C 0.65116 0.0586 0.90889 0.0
C478 C 0.71271 0.11769 0.91034 0.0
C479 C 0.72186 0.18031 0.85666 0.0
C480 C 0.71096 0.15216 0.87015 0.0
C481 C 0.66793 0.08303 0.9207 0.0
C482 C 0.68489 0.10401 0.90141 0.0
H483 H 0.72156 0.21629 0.79151 0.0
H484 H 0.7088 0.16816 0.81213 0.0
H485 H 0.74692 0.15182 0.90255 0.0
H486 H 0.63784 0.08236 0.98828 0.0
H487 H 0.67663 0.10901 0.95976 0.0
C488 C 0.86031 0.80527 0.33506 0.0
C489 C 0.85101 0.78025 0.35108 0.0
C490 C 0.86871 0.83146 0.34923 0.0
C491 C 0.89406 0.85935 0.4225 0.0
H492 H 0.89247 0.93344 0.38334 0.0
C493 C 0.94915 0.96376 0.4743 0.0
C494 C 0.97323 0.97478 0.45732 0.0
C495 C 0.92675 0.94425 0.46216 0.0
C496 C 0.89268 0.9129 0.39463 0.0
H497 H 0.84226 0.76388 0.39488 0.0
H498 H 0.85465 0.80973 0.41915 0.0
H499 H 0.86627 0.89021 0.36119 0.0
H500 H 0.99179 0.97601 0.41407 0.0
H501 H 0.95218 0.94252 0.39263 0.0
H502 H 0.92041 0.88225 0.45592 0.0
C503 C 0.85666 0.80894 0.39568 0.0
C504 C 0.878 0.88804 0.38185 0.0
C505 C 0.84895 0.78258 0.38158 0.0
C506 C 0.97341 0.96777 0.42755 0.0
C507 C 0.95071 0.94877 0.41529 0.0
C508 C 0.90811 0.88426 0.43552 0.0
C509 C 0.86742 0.8336 0.37981 0.0
C510 C 0.87929 0.86073 0.39516 0.0
C511 C 0.92786 0.93598 0.43276 0.0
C512 C 0.90825 0.91109 0.42134 0.0
H513 H 0.86155 0.80464 0.3115 0.0
H514 H 0.87717 0.84972 0.33612 0.0
H515 H 0.8962 0.83885 0.43331 0.0
H516 H 0.94869 0.96866 0.49738 0.0
H517 H 0.90932 0.9346 0.47602 0.0
C518 C 0.36558 0.7708 0.60794 0.0
C519 C 0.38245 0.79315 0.62311 0.0
C520 C 0.37975 0.74956 0.59339 0.0
C521 C 0.45242 0.73499 0.56279 0.0
H522 H 0.4238 0.65429 0.57294 0.0
C523 C 0.5263 0.64225 0.54595 0.0
C524 C 0.5135 0.61527 0.53586 0.0
C525 C 0.5086 0.66488 0.55069 0.0
C526 C 0.43176 0.67673 0.56932 0.0
H527 H 0.42726 0.81091 0.63504 0.0
H528 H 0.45206 0.77385 0.60977 0.0
H529 H 0.39601 0.69186 0.59342 0.0
H530 H 0.47211 0.5912 0.52191 0.0
H531 H 0.44109 0.631 0.52964 0.0
H532 H 0.48848 0.71991 0.53916 0.0
C533 C 0.42791 0.77284 0.60878 0.0
C534 C 0.41586 0.69828 0.58117 0.0
C535 C 0.41373 0.79395 0.62344 0.0
C536 C 0.4827 0.61182 0.52931 0.0
C537 C 0.4649 0.63453 0.53412 0.0
C538 C 0.46826 0.71348 0.55085 0.0
C539 C 0.4111 0.75039 0.59357 0.0
C540 C 0.42638 0.72763 0.57862 0.0
C541 C 0.47755 0.66111 0.54556 0.0
C542 C 0.45852 0.68404 0.55455 0.0
H543 H 0.34142 0.76985 0.60733 0.0
H544 H 0.36618 0.73268 0.58172 0.0
H545 H 0.46079 0.75744 0.55991 0.0
H546 H 0.54999 0.64559 0.55122 0.0
H547 H 0.51912 0.68486 0.55981 0.0
C548 C 0.96123 0.90495 0.81819 0.0
C549 C 0.9557 0.92381 0.84099 0.0
C550 C 0.97419 0.91568 0.79235 0.0
C551 C 0.98474 0.98368 0.7498 0.0
H552 H 0.03864 0.94187 0.70454 0.0
C553 C 0.03447 0.03446 0.64681 0.0
C554 C 0.03083 0.01722 0.62164 0.0
C555 C 0.03133 0.02205 0.67446 0.0
C556 C 0.02356 0.95372 0.71694 0.0
H557 H 0.96077 0.96848 0.85518 0.0
H558 H 0.98387 0.98719 0.81052 0.0
H559 H 0.02107 0.92236 0.75153 0.0
H560 H 0.0231 0.97326 0.60565 0.0
H561 H 0.0175 0.95138 0.65426 0.0
H562 H 0.98693 0.01487 0.7154 0.0
C563 C 0.97744 0.96419 0.81212 0.0
C564 C 0.0134 0.94253 0.74381 0.0
C565 C 0.96425 0.95349 0.83778 0.0
C566 C 0.0263 0.98701 0.62473 0.0
C567 C 0.02301 0.97452 0.65255 0.0
C568 C 0.99498 0.99487 0.7232 0.0
C569 C 0.98211 0.94552 0.78883 0.0
C570 C 0.99381 0.9574 0.76058 0.0
C571 C 0.02415 0.99211 0.67761 0.0
C572 C 0.01453 0.98011 0.70642 0.0
H573 H 0.95467 0.88197 0.81995 0.0
H574 H 0.97709 0.90068 0.77481 0.0
H575 H 0.96908 0.99539 0.7616 0.0
H576 H 0.03819 0.05779 0.64504 0.0
H577 H 0.03307 0.03611 0.69336 0.0
C578 C 0.65346 0.15759 0.28364 0.0
C579 C 0.65692 0.1416 0.30942 0.0
C580 C 0.63633 0.1455 0.26009 0.0
C581 C 0.6106 0.07392 0.23 0.0
H582 H 0.56208 0.1167 0.17736 0.0
C583 C 0.55067 0.01565 0.13427 0.0
C584 C 0.55521 0.02901 0.10701 0.0
C585 C 0.55624 0.03141 0.15995 0.0
C586 C 0.5756 0.10453 0.19187 0.0
H587 H 0.64361 0.10126 0.33149 0.0
H588 H 0.61349 0.08031 0.29071 0.0
H589 H 0.58549 0.14054 0.22086 0.0
H590 H 0.56671 0.06977 0.08503 0.0
H591 H 0.57718 0.0974 0.13013 0.0
H592 H 0.60151 0.03821 0.20106 0.0
C593 C 0.62463 0.10186 0.28828 0.0
C594 C 0.58905 0.11817 0.21673 0.0
C595 C 0.64187 0.11384 0.31166 0.0
C596 C 0.56302 0.05899 0.10583 0.0
C597 C 0.56899 0.07478 0.13166 0.0
C598 C 0.59722 0.06037 0.20535 0.0
C599 C 0.6222 0.11724 0.26195 0.0
C600 C 0.60676 0.10298 0.23605 0.0
C601 C 0.56701 0.06079 0.15896 0.0
C602 C 0.57956 0.07544 0.18593 0.0
H603 H 0.6649 0.17902 0.28129 0.0
H604 H 0.63515 0.15785 0.24007 0.0
H605 H 0.6247 0.06175 0.24392 0.0
H606 H 0.54424 0.99262 0.13576 0.0
H607 H 0.55363 0.02018 0.18064 0.0
C608 C 0.4701 0.6845 0.25596 0.0
C609 C 0.44834 0.66771 0.2394 0.0
C610 C 0.47207 0.681 0.28626 0.0
C611 C 0.43117 0.64927 0.35003 0.0
H612 H 0.51018 0.63708 0.38032 0.0
C613 C 0.45276 0.57179 0.443 0.0
C614 C 0.47949 0.5755 0.45954 0.0
C615 C 0.44609 0.5922 0.42202 0.0
C616 C 0.48803 0.6412 0.37262 0.0
H617 H 0.4116 0.63427 0.24123 0.0
H618 H 0.41499 0.62802 0.29416 0.0
H619 H 0.50433 0.65519 0.33093 0.0
H620 H 0.51874 0.60488 0.4692 0.0
H621 H 0.50679 0.64091 0.43281 0.0
H622 H 0.41476 0.63413 0.3914 0.0
C623 C 0.43018 0.64427 0.28392 0.0
C624 C 0.48467 0.65149 0.34416 0.0
C625 C 0.42833 0.64768 0.25365 0.0
C626 C 0.49792 0.60144 0.45681 0.0
C627 C 0.49125 0.62193 0.43572 0.0
C628 C 0.43453 0.63909 0.37857 0.0
C629 C 0.4523 0.66064 0.30054 0.0
C630 C 0.45612 0.65463 0.3322 0.0
C631 C 0.46604 0.61678 0.41707 0.0
C632 C 0.4629 0.63388 0.38982 0.0
H633 H 0.48589 0.69999 0.24542 0.0
H634 H 0.48928 0.69397 0.29848 0.0
H635 H 0.40892 0.65201 0.34158 0.0
H636 H 0.43805 0.55208 0.44477 0.0
H637 H 0.42654 0.58736 0.40805 0.0
C638 C 0.1112 0.43147 0.70435 0.0
C639 C 0.11639 0.40217 0.70442 0.0
C640 C 0.09444 0.4425 0.7263 0.0
C641 C 0.04874 0.42217 0.79223 0.0
H642 H 0.08672 0.49546 0.82037 0.0
C643 C 0.05033 0.46312 0.91184 0.0
C644 C 0.05092 0.4931 0.91608 0.0
C645 C 0.04877 0.45171 0.88353 0.0
C646 C 0.07535 0.47527 0.81256 0.0
H647 H 0.10733 0.36103 0.72627 0.0
H648 H 0.07924 0.3804 0.76553 0.0
H649 H 0.10183 0.47642 0.77463 0.0
H650 H 0.04784 0.53442 0.89468 0.0
H651 H 0.04479 0.51457 0.84539 0.0
H652 H 0.02356 0.42061 0.83164 0.0
C653 C 0.08715 0.39484 0.74819 0.0
C654 C 0.08397 0.46432 0.78613 0.0
C655 C 0.10338 0.38371 0.72583 0.0
C656 C 0.04767 0.51123 0.89188 0.0
C657 C 0.04597 0.49988 0.86373 0.0
C658 C 0.04031 0.43307 0.81901 0.0
C659 C 0.08332 0.4246 0.74925 0.0
C660 C 0.07114 0.43743 0.77572 0.0
C661 C 0.04794 0.47021 0.85918 0.0
C662 C 0.05383 0.4596 0.82956 0.0
H663 H 0.1209 0.44597 0.68782 0.0
H664 H 0.09124 0.46534 0.72589 0.0
H665 H 0.03809 0.40157 0.78474 0.0
H666 H 0.05303 0.44877 0.93023 0.0
H667 H 0.05045 0.42876 0.88069 0.0
C668 C 0.87299 0.93469 0.94543 0.0
C669 C 0.87598 0.9304 0.91533 0.0
C670 C 0.84731 0.94536 0.95619 0.0
C671 C 0.77822 0.97987 0.93471 0.0
H672 H 0.74651 0.93881 0.00272 0.0
C673 C 0.66685 0.00306 0.99052 0.0
C674 C 0.64863 0.9783 0.99876 0.0
C675 C 0.69568 1.00058 0.98021 0.0
C676 C 0.755 0.95048 0.98367 0.0
H677 H 0.85472 0.93478 0.87283 0.0
H678 H 0.80966 0.95296 0.8916 0.0
H679 H 0.79506 0.92915 0.98503 0.0
H680 H 0.64601 0.93155 0.00224 0.0
H681 H 0.6958 0.92717 0.98433 0.0
H682 H 0.73727 1.00035 0.93292 0.0
C683 C 0.82738 0.94858 0.9069 0.0
C684 C 0.78309 0.94522 0.97373 0.0
C685 C 0.85319 0.93808 0.89613 0.0
C686 C 0.65961 0.95108 0.99626 0.0
C687 C 0.68822 0.94858 0.9861 0.0
C688 C 0.74997 0.98516 0.94473 0.0
C689 C 0.82383 0.95177 0.93713 0.0
C690 C 0.79494 0.9595 0.94887 0.0
C691 C 0.70681 0.97327 0.97832 0.0
C692 C 0.73782 0.97004 0.96898 0.0
H693 H 0.8904 0.92945 0.96073 0.0
H694 H 0.84565 0.94813 0.97954 0.0
H695 H 0.78682 0.99151 0.9157 0.0
H696 H 0.6593 0.02429 0.9932 0.0
H697 H 0.70956 0.02004 0.97463 0.0
C698 C 0.75706 0.11368 0.36843 0.0
C699 C 0.73657 0.12753 0.38485 0.0
C700 C 0.77789 0.09733 0.38232 0.0
C701 C 0.81399 0.08917 0.45513 0.0
H702 H 0.84591 0.02328 0.41927 0.0
C703 C 0.90181 0.03175 0.51627 0.0
C704 C 0.92856 0.03143 0.5011 0.0
C705 C 0.87519 0.0359 0.50135 0.0
C706 C 0.83708 0.04159 0.42952 0.0
H707 H 0.72051 0.13395 0.42831 0.0
H708 H 0.7559 0.10457 0.45255 0.0
H709 H 0.80489 0.04593 0.39495 0.0
H710 H 0.94802 0.03256 0.45822 0.0
H711 H 0.90125 0.03969 0.43199 0.0
H712 H 0.84601 0.08495 0.48957 0.0
C713 C 0.75686 0.10712 0.42908 0.0
C714 C 0.81373 0.05471 0.41556 0.0
C715 C 0.73645 0.12386 0.41524 0.0
C716 C 0.92767 0.03243 0.47044 0.0
C717 C 0.9009 0.03662 0.45543 0.0
C718 C 0.8369 0.07588 0.46916 0.0
C719 C 0.77833 0.09414 0.4129 0.0
C720 C 0.80204 0.07886 0.42811 0.0
C721 C 0.8748 0.03996 0.47096 0.0
C722 C 0.84885 0.05208 0.45649 0.0
H723 H 0.75759 0.11628 0.34493 0.0
H724 H 0.79424 0.08803 0.36912 0.0
H725 H 0.80633 0.10814 0.46518 0.0
H726 H 0.90184 0.03079 0.53991 0.0
H727 H 0.85526 0.03781 0.51381 0.0
C728 C 0.36874 0.5952 0.1005 0.0
C729 C 0.36438 0.6104 0.12627 0.0
C730 C 0.34807 0.57253 0.09142 0.0
C731 C 0.27896 0.52665 0.11271 0.0
H732 H 0.25674 0.53843 0.03168 0.0
C733 C 0.15945 0.50695 0.06534 0.0
C734 C 0.1557 0.50317 0.03509 0.0
C735 C 0.1881 0.5086 0.07816 0.0
C736 C 0.26291 0.53404 0.05413 0.0
H737 H 0.33594 0.61275 0.16361 0.0
H738 H 0.29949 0.57373 0.14749 0.0
H739 H 0.30231 0.56295 0.05126 0.0
H740 H 0.1778 0.49443 0.99503 0.0
H741 H 0.22754 0.49581 0.01748 0.0
H742 H 0.23838 0.49871 0.11567 0.0
C743 C 0.31912 0.57881 0.13451 0.0
C744 C 0.28924 0.54825 0.06543 0.0
C745 C 0.33997 0.6013 0.14373 0.0
C746 C 0.18031 0.4977 0.0184 0.0
C747 C 0.20878 0.49873 0.03125 0.0
C748 C 0.25246 0.51232 0.10133 0.0
C749 C 0.32237 0.56483 0.10772 0.0
C750 C 0.29721 0.54546 0.09505 0.0
C751 C 0.21328 0.50618 0.06085 0.0
C752 C 0.24371 0.51652 0.07207 0.0
H753 H 0.38766 0.60148 0.08689 0.0
H754 H 0.35159 0.5618 0.07099 0.0
H755 H 0.28468 0.52371 0.13555 0.0
H756 H 0.14071 0.5113 0.07859 0.0
H757 H 0.19064 0.51435 0.10102 0.0
C758 C 0.28795 0.41491 0.6914 0.0
C759 C 0.2681 0.39091 0.68368 0.0
C760 C 0.31648 0.41839 0.67967 0.0
C761 C 0.3557 0.39924 0.61458 0.0
H762 H 0.42677 0.42978 0.65774 0.0
C763 C 0.46312 0.42671 0.55371 0.0
C764 C 0.47734 0.45432 0.55958 0.0
C765 C 0.4424 0.41372 0.57303 0.0
C766 C 0.40711 0.42128 0.6454 0.0
H767 H 0.26205 0.35189 0.65771 0.0
H768 H 0.31206 0.35776 0.63728 0.0
H769 H 0.38027 0.41736 0.6836 0.0
H770 H 0.48285 0.48914 0.59114 0.0
H771 H 0.446 0.46689 0.62457 0.0
H772 H 0.38172 0.40418 0.5763 0.0
C773 C 0.30569 0.37384 0.65244 0.0
C774 C 0.38052 0.41418 0.6602 0.0
C775 C 0.27721 0.37036 0.66421 0.0
C776 C 0.47228 0.46775 0.58619 0.0
C777 C 0.45116 0.45494 0.60536 0.0
C778 C 0.38211 0.40643 0.59983 0.0
C779 C 0.3255 0.3981 0.65974 0.0
C780 C 0.35445 0.40341 0.64485 0.0
C781 C 0.43499 0.42836 0.59831 0.0
C782 C 0.40809 0.41786 0.61495 0.0
H783 H 0.28114 0.43126 0.70603 0.0
H784 H 0.33103 0.43755 0.68532 0.0
H785 H 0.33589 0.39153 0.60203 0.0
H786 H 0.46696 0.41574 0.53348 0.0
H787 H 0.43103 0.39284 0.56737 0.0
C788 C 0.91916 0.78056 0.94237 0.0
C789 C 0.93961 0.80261 0.93175 0.0
C790 C 0.92912 0.75749 0.9584 0.0
C791 C 0.99391 0.73281 0.99964 0.0
H792 H 0.96212 0.65666 0.97324 0.0
C793 C 0.05652 0.6311 0.01531 0.0
C794 C 0.04041 0.60372 0.01632 0.0
C795 C 0.04167 0.65613 0.0124 0.0
C796 C 0.97081 0.67766 0.98152 0.0
H797 H 0.98647 0.81776 0.92934 0.0
H798 H 0.00398 0.77749 0.95756 0.0
H799 H 0.94107 0.69925 0.95375 0.0
H800 H 0.99601 0.58126 0.01628 0.0
H801 H 0.96999 0.625 0.01275 0.0
H802 H 0.02401 0.71119 0.0271 0.0
C803 C 0.98019 0.77832 0.95396 0.0
C804 C 0.95877 0.70215 0.97019 0.0
C805 C 0.97022 0.80131 0.93776 0.0
C806 C 0.00908 0.60204 0.01622 0.0
C807 C 0.99417 0.62713 0.01363 0.0
C808 C 0.00582 0.70826 0.0112 0.0
C809 C 0.95977 0.75591 0.96409 0.0
C810 C 0.9706 0.73002 0.97862 0.0
C811 C 0.01029 0.65441 0.01047 0.0
C812 C 0.99489 0.68036 0.00176 0.0
H813 H 0.89547 0.78085 0.93775 0.0
H814 H 0.91283 0.74065 0.96603 0.0
H815 H 0.00321 0.75401 0.00688 0.0
H816 H 0.08071 0.63308 0.01518 0.0
H817 H 0.05493 0.67661 0.00976 0.0
C818 C 0.40099 0.73686 0.10323 0.0
C819 C 0.40828 0.70884 0.09684 0.0
C820 C 0.40602 0.75918 0.08297 0.0
C821 C 0.40846 0.80081 0.03178 0.0
H822 H 0.4907 0.81179 0.00745 0.0
C823 C 0.50495 0.89336 0.98777 0.0
C824 C 0.49931 0.91448 0.0082 0.0
C825 C 0.48683 0.86717 0.98651 0.0
C826 C 0.46737 0.80883 0.01313 0.0
H827 H 0.42579 0.68191 0.06397 0.0
H828 H 0.43521 0.7213 0.02852 0.0
H829 H 0.47186 0.766 0.02901 0.0
H830 H 0.46966 0.92629 0.0417 0.0
H831 H 0.43809 0.88094 0.03976 0.0
H832 H 0.40437 0.84417 0.01719 0.0
C833 C 0.4254 0.72584 0.0492 0.0
C834 C 0.45661 0.78252 0.02564 0.0
C835 C 0.41998 0.70336 0.06941 0.0
C836 C 0.47406 0.9103 0.02555 0.0
C837 C 0.45595 0.88429 0.02429 0.0
C838 C 0.41914 0.82706 0.01907 0.0
C839 C 0.41871 0.75404 0.05592 0.0
C840 C 0.42751 0.7788 0.0364 0.0
C841 C 0.46302 0.8618 0.00586 0.0
C842 C 0.44919 0.83191 0.01101 0.0
H843 H 0.39162 0.74158 0.12408 0.0
H844 H 0.40104 0.78074 0.08897 0.0
H845 H 0.38573 0.79829 0.03939 0.0
H846 H 0.52458 0.89621 0.97439 0.0
H847 H 0.49262 0.85045 0.9718 0.0
C848 C 0.12003 0.31181 0.63355 0.0
C849 C 0.14139 0.3343 0.62561 0.0
C850 C 0.111 0.28964 0.61398 0.0
C851 C 0.13349 0.25078 0.54999 0.0
H852 H 0.0492 0.22442 0.54706 0.0
C853 C 0.04036 0.15361 0.50578 0.0
C854 C 0.05566 0.13005 0.5148 0.0
C855 C 0.05408 0.18171 0.50813 0.0
C856 C 0.07275 0.23175 0.54687 0.0
H857 H 0.17017 0.35096 0.59082 0.0
H858 H 0.15453 0.31176 0.55663 0.0
H859 H 0.06608 0.26764 0.57423 0.0
H860 H 0.09803 0.11664 0.53026 0.0
H861 H 0.12175 0.16582 0.53578 0.0
H862 H 0.14013 0.21433 0.52298 0.0
C863 C 0.14489 0.31145 0.5781 0.0
C864 C 0.08245 0.25637 0.56292 0.0
C865 C 0.15385 0.33381 0.5977 0.0
C866 C 0.08588 0.13462 0.52316 0.0
C867 C 0.09944 0.16285 0.52625 0.0
C868 C 0.12375 0.22599 0.5338 0.0
C869 C 0.12316 0.28929 0.58599 0.0
C870 C 0.11297 0.26561 0.56546 0.0
C871 C 0.08297 0.18674 0.52056 0.0
C872 C 0.0933 0.21573 0.53272 0.0
H873 H 0.11051 0.3111 0.65508 0.0
H874 H 0.0947 0.27249 0.62093 0.0
H875 H 0.15718 0.25749 0.55154 0.0
H876 H 0.01707 0.15044 0.49896 0.0
H877 H 0.04113 0.19958 0.50255 0.0
C878 C 0.68127 0.27397 0.42524 0.0
C879 C 0.6715 0.25764 0.40053 0.0
C880 C 0.676 0.30314 0.42719 0.0
C881 C 0.62307 0.35271 0.3994 0.0
H882 H 0.67666 0.41175 0.43777 0.0
C883 C 0.58169 0.46211 0.4205 0.0
C884 C 0.58592 0.47186 0.44937 0.0
C885 C 0.59885 0.44116 0.40964 0.0
C886 C 0.66145 0.3955 0.42701 0.0
H887 H 0.64975 0.259 0.35805 0.0
H888 H 0.64074 0.31009 0.36118 0.0
H889 H 0.69366 0.36412 0.4282 0.0
H890 H 0.61326 0.4696 0.48865 0.0
H891 H 0.64273 0.43229 0.47009 0.0
H892 H 0.59047 0.38321 0.39914 0.0
C893 C 0.6521 0.30034 0.37925 0.0
C894 C 0.67117 0.36822 0.42156 0.0
C895 C 0.65734 0.27119 0.37735 0.0
C896 C 0.60962 0.46247 0.46626 0.0
C897 C 0.62649 0.44104 0.45557 0.0
C898 C 0.61337 0.3798 0.40489 0.0
C899 C 0.66082 0.31652 0.40445 0.0
C900 C 0.65192 0.34639 0.40801 0.0
C901 C 0.62015 0.42902 0.42767 0.0
C902 C 0.63225 0.4015 0.41908 0.0
H903 H 0.69226 0.26398 0.44341 0.0
H904 H 0.68271 0.31483 0.44702 0.0
H905 H 0.60741 0.33628 0.3895 0.0
H906 H 0.56376 0.4693 0.40692 0.0
H907 H 0.59407 0.43314 0.3877 0.0
loop_
_geom_bond_atom_site_label_1
_geom_bond_atom_site_label_2
_geom_bond_distance
_geom_bond_site_symmetry_2
_ccdc_geom_bond_type
H0 C7 0.929 . S
H1 C10 0.930 . S
H2 C12 0.929 . S
H3 C4 0.969 . S
C4 H3 0.969 . S
C4 O5 1.550 . S
C4 H6 0.973 . S
O5 C4 1.550 . S
O5 C11 1.412 . S
H6 C4 0.973 . S
C7 H0 0.929 . S
C7 C8 1.400 . S
C7 C9 1.364 . S
C8 C7 1.400 . S
C8 C12 1.377 . S
C9 C7 1.364 . S
C9 C10 1.374 . S
C10 H1 0.930 . S
C10 C9 1.374 . S
C10 C11 1.383 . S
C11 O5 1.412 . S
C11 C10 1.383 . S
C11 C12 1.394 . S
C12 H2 0.929 . S
C12 C8 1.377 . S
C12 C11 1.394 . S
H13 C20 0.929 . S
H14 C23 0.930 . S
H15 C25 0.929 . S
H16 C17 0.969 . S
C17 H16 0.969 . S
C17 O18 1.550 . S
C17 H19 0.973 . S
O18 C17 1.550 . S
O18 C24 1.412 . S
H19 C17 0.973 . S
C20 H13 0.929 . S
C20 C21 1.400 . S
C20 C22 1.364 . S
C21 C20 1.400 . S
C21 C25 1.377 . S
C22 C20 1.364 . S
C22 C23 1.374 . S
C23 H14 0.930 . S
C23 C22 1.374 . S
C23 C24 1.383 . S
C24 O18 1.412 . S
C24 C23 1.383 . S
C24 C25 1.394 . S
C25 H15 0.929 . S
C25 C21 1.377 . S
C25 C24 1.394 . S
H26 C33 0.929 . S
H27 C36 0.930 . S
H28 C38 0.929 . S
H29 C30 0.969 . S
C30 H29 0.969 . S
C30 O31 1.550 . S
C30 H32 0.973 . S
O31 C30 1.550 . S
O31 C37 1.412 . S
H32 C30 0.973 . S
C33 H26 0.929 . S
C33 C34 1.400 . S
C33 C35 1.364 . S
C34 C33 1.400 . S
C34 C38 1.377 . S
C35 C33 1.364 . S
C35 C36 1.374 . S
C36 H27 0.930 . S
C36 C35 1.374 . S
C36 C37 1.383 . S
C37 O31 1.412 . S
C37 C36 1.383 . S
C37 C38 1.394 . S
C38 H28 0.929 . S
C38 C34 1.377 . S
C38 C37 1.394 . S
H39 C46 0.929 . S
H40 C49 0.930 . S
H41 C51 0.929 . S
H42 C43 0.969 . S
C43 H42 0.969 . S
C43 O44 1.550 . S
C43 H45 0.973 . S
O44 C43 1.550 . S
O44 C50 1.412 . S
H45 C43 0.973 . S
C46 H39 0.929 . S
C46 C47 1.400 . S
C46 C48 1.364 . S
C47 C46 1.400 . S
C47 C51 1.377 . S
C48 C46 1.364 . S
C48 C49 1.374 . S
C49 H40 0.930 . S
C49 C48 1.374 . S
C49 C50 1.383 . S
C50 O44 1.412 . S
C50 C49 1.383 . S
C50 C51 1.394 . S
C51 H41 0.929 . S
C51 C47 1.377 . S
C51 C50 1.394 . S
H52 C59 0.929 . S
H53 C62 0.930 . S
H54 C64 0.929 1_455 S
H55 C56 0.969 . S
C56 H55 0.969 . S
C56 O57 1.550 . S
C56 H58 0.973 . S
O57 C56 1.550 . S
O57 C63 1.412 . S
H58 C56 0.973 . S
C59 H52 0.929 . S
C59 C60 1.400 . S
C59 C61 1.364 . S
C60 C59 1.400 . S
C60 C64 1.377 . S
C61 C59 1.364 . S
C61 C62 1.374 . S
C62 H53 0.930 . S
C62 C61 1.374 . S
C62 C63 1.383 . S
C63 O57 1.412 . S
C63 C62 1.383 . S
C63 C64 1.394 . S
C64 H54 0.929 1_655 S
C64 C60 1.377 . S
C64 C63 1.394 . S
H65 C72 0.929 . S
H66 C75 0.930 . S
H67 C77 0.929 . S
H68 C69 0.969 . S
C69 H68 0.969 . S
C69 O70 1.550 . S
C69 H71 0.973 . S
O70 C69 1.550 . S
O70 C76 1.412 . S
H71 C69 0.973 . S
C72 H65 0.929 . S
C72 C73 1.400 . S
C72 C74 1.364 . S
C73 C72 1.400 . S
C73 C77 1.377 . S
C74 C72 1.364 . S
C74 C75 1.374 . S
C75 H66 0.930 . S
C75 C74 1.374 . S
C75 C76 1.383 . S
C76 O70 1.412 . S
C76 C75 1.383 . S
C76 C77 1.394 . S
C77 H67 0.929 . S
C77 C73 1.377 . S
C77 C76 1.394 . S
H78 C85 0.929 . S
H79 C88 0.930 . S
H80 C90 0.929 . S
H81 C82 0.969 . S
C82 H81 0.969 . S
C82 O83 1.550 . S
C82 H84 0.973 . S
O83 C82 1.550 . S
O83 C89 1.412 . S
H84 C82 0.973 . S
C85 H78 0.929 . S
C85 C86 1.400 . S
C85 C87 1.364 . S
C86 C85 1.400 . S
C86 C90 1.377 . S
C87 C85 1.364 . S
C87 C88 1.374 . S
C88 H79 0.930 . S
C88 C87 1.374 . S
C88 C89 1.383 . S
C89 O83 1.412 . S
C89 C88 1.383 . S
C89 C90 1.394 . S
C90 H80 0.929 . S
C90 C86 1.377 . S
C90 C89 1.394 . S
H91 C98 0.929 . S
H92 C101 0.930 . S
H93 C103 0.929 . S
H94 C95 0.969 . S
C95 H94 0.969 . S
C95 O96 1.550 . S
C95 H97 0.973 . S
O96 C95 1.550 . S
O96 C102 1.412 . S
H97 C95 0.973 . S
C98 H91 0.929 . S
C98 C99 1.400 . S
C98 C100 1.364 . S
C99 C98 1.400 . S
C99 C103 1.377 . S
C100 C98 1.364 . S
C100 C101 1.374 . S
C101 H92 0.930 . S
C101 C100 1.374 . S
C101 C102 1.383 . S
C102 O96 1.412 . S
C102 C101 1.383 . S
C102 C103 1.394 . S
C103 H93 0.929 . S
C103 C99 1.377 . S
C103 C102 1.394 . S
Zn104 O110 1.920 . S
Zn104 O116 1.898 . S
Zn104 O119 1.905 . S
Zn105 O113 1.905 1_565 S
Zn105 O114 1.898 . S
Zn105 O122 1.920 . S
Zn106 O109 2.080 1_455 S
Zn106 O112 2.114 . S
Zn106 O115 2.120 1_445 S
Zn106 O117 2.120 . S
Zn106 O118 2.114 1_455 S
Zn106 O121 2.080 . S
C107 O112 1.166 . S
C107 O113 1.182 . S
C108 O114 1.167 1_655 S
C108 O115 1.299 . S
O109 Zn106 2.080 1_655 S
O109 C123 1.305 . S
O110 Zn104 1.920 . S
O110 C123 1.234 . S
C111 O116 1.167 1_455 S
C111 O117 1.299 . S
O112 Zn106 2.114 . S
O112 C107 1.166 . S
O113 Zn105 1.905 1_545 S
O113 C107 1.182 . S
O114 Zn105 1.898 . S
O114 C108 1.167 1_455 S
O115 Zn106 2.120 1_665 S
O115 C108 1.299 . S
O116 Zn104 1.898 . S
O116 C111 1.167 1_655 S
O117 Zn106 2.120 . S
O117 C111 1.299 . S
O118 Zn106 2.114 1_655 S
O118 C120 1.166 . S
O119 Zn104 1.905 . S
O119 C120 1.182 . S
C120 O118 1.166 . S
C120 O119 1.182 . S
O121 Zn106 2.080 . S
O121 C124 1.305 . S
O122 Zn105 1.920 . S
O122 C124 1.234 1_565 S
C123 O109 1.305 . S
C123 O110 1.234 . S
C124 O121 1.305 . S
C124 O122 1.234 1_545 S
Zn125 O131 1.920 1_556 S
Zn125 O137 1.898 . S
Zn125 O140 1.905 . S
Zn126 O134 1.905 . S
Zn126 O135 1.898 . S
Zn126 O143 1.920 . S
Zn127 O130 2.080 . S
Zn127 O133 2.114 1_545 S
Zn127 O136 2.120 1_545 S
Zn127 O138 2.120 . S
Zn127 O139 2.114 1_544 S
Zn127 O142 2.080 . S
C128 O133 1.166 . S
C128 O134 1.182 . S
C129 O135 1.167 . S
C129 O136 1.299 . S
O130 Zn127 2.080 . S
O130 C144 1.305 . S
O131 Zn125 1.920 1_554 S
O131 C144 1.234 . S
C132 O137 1.167 . S
C132 O138 1.299 1_556 S
O133 Zn127 2.114 1_565 S
O133 C128 1.166 . S
O134 Zn126 1.905 . S
O134 C128 1.182 . S
O135 Zn126 1.898 . S
O135 C129 1.167 . S
O136 Zn127 2.120 1_565 S
O136 C129 1.299 . S
O137 Zn125 1.898 . S
O137 C132 1.167 . S
O138 Zn127 2.120 . S
O138 C132 1.299 1_554 S
O139 Zn127 2.114 1_566 S
O139 C141 1.166 . S
O140 Zn125 1.905 . S
O140 C141 1.182 1_545 S
C141 O139 1.166 . S
C141 O140 1.182 1_565 S
O142 Zn127 2.080 . S
O142 C145 1.305 . S
O143 Zn126 1.920 . S
O143 C145 1.234 1_565 S
C144 O130 1.305 . S
C144 O131 1.234 . S
C145 O142 1.305 . S
C145 O143 1.234 1_545 S
Zn146 O152 1.920 . S
Zn146 O158 1.898 . S
Zn146 O161 1.905 . S
Zn147 O155 1.905 . S
Zn147 O156 1.898 . S
Zn147 O164 1.920 . S
Zn148 O151 2.080 . S
Zn148 O154 2.114 . S
Zn148 O157 2.120 . S
Zn148 O159 2.120 . S
Zn148 O160 2.114 . S
Zn148 O163 2.080 . S
C149 O154 1.166 . S
C149 O155 1.182 . S
C150 O156 1.167 . S
C150 O157 1.299 . S
O151 Zn148 2.080 . S
O151 C165 1.305 . S
O152 Zn146 1.920 . S
O152 C165 1.234 . S
C153 O158 1.167 . S
C153 O159 1.299 . S
O154 Zn148 2.114 . S
O154 C149 1.166 . S
O155 Zn147 1.905 . S
O155 C149 1.182 . S
O156 Zn147 1.898 . S
O156 C150 1.167 . S
O157 Zn148 2.120 . S
O157 C150 1.299 . S
O158 Zn146 1.898 . S
O158 C153 1.167 . S
O159 Zn148 2.120 . S
O159 C153 1.299 . S
O160 Zn148 2.114 . S
O160 C162 1.166 . S
O161 Zn146 1.905 . S
O161 C162 1.182 . S
C162 O160 1.166 . S
C162 O161 1.182 . S
O163 Zn148 2.080 . S
O163 C166 1.305 . S
O164 Zn147 1.920 . S
O164 C166 1.234 . S
C165 O151 1.305 . S
C165 O152 1.234 . S
C166 O163 1.305 . S
C166 O164 1.234 . S
Zn167 O173 1.920 . S
Zn167 O179 1.898 . S
Zn167 O182 1.905 . S
Zn168 O176 1.905 . S
Zn168 O177 1.898 1_455 S
Zn168 O185 1.928 . S
Zn169 O172 2.080 1_554 S
Zn169 O175 2.114 . S
Zn169 O178 2.120 1_554 S
Zn169 O180 2.120 . S
Zn169 O181 2.114 1_554 S
Zn169 O184 2.080 . S
C170 O175 1.166 . S
C170 O176 1.182 . S
C171 O177 1.167 1_556 S
C171 O178 1.299 1_655 S
O172 Zn169 2.080 1_556 S
O172 C186 1.305 . S
O173 Zn167 1.920 . S
O173 C186 1.234 . S
C174 O179 1.167 1_554 S
C174 O180 1.299 . S
O175 Zn169 2.114 . S
O175 C170 1.166 . S
O176 Zn168 1.905 . S
O176 C170 1.182 . S
O177 Zn168 1.898 1_655 S
O177 C171 1.167 1_554 S
O178 Zn169 2.120 1_556 S
O178 C171 1.299 1_455 S
O179 Zn167 1.898 . S
O179 C174 1.167 1_556 S
O180 Zn169 2.120 . S
O180 C174 1.299 . S
O181 Zn169 2.114 1_556 S
O181 C183 1.166 . S
O182 Zn167 1.905 . S
O182 C183 1.182 . S
C183 O181 1.166 . S
C183 O182 1.182 . S
O184 Zn169 2.080 . S
O184 C187 1.305 . S
O185 Zn168 1.928 . S
O185 C187 1.252 . S
C186 O172 1.305 . S
C186 O173 1.234 . S
C187 O184 1.305 . S
C187 O185 1.252 . S
C188 C189 1.349 . S
C188 C190 1.327 . S
C188 H213 0.950 . S
C189 C188 1.349 . S
C189 C205 1.349 . S
C190 C188 1.327 . S
C190 C209 1.429 . S
C190 H214 0.950 . S
C191 C208 1.574 . S
C191 C210 1.368 . S
C191 H215 0.949 . S
H192 C196 0.949 . S
C193 C194 1.349 . S
C193 C195 1.327 . S
C193 H216 0.950 . S
C194 C193 1.349 . S
C194 C206 1.349 . S
C195 C193 1.327 . S
C195 C211 1.429 . S
C195 H217 0.950 . S
C196 H192 0.949 . S
C196 C204 1.574 . S
C196 C212 1.368 . S
H197 C205 0.950 . S
H198 C203 0.950 . S
H199 C204 0.949 . S
H200 C206 0.950 . S
H201 C207 0.950 . S
H202 C208 0.949 . S
C203 H198 0.950 . S
C203 C205 1.327 . S
C203 C209 1.429 . S
C204 C196 1.574 . S
C204 H199 0.949 . S
C204 C210 1.368 . S
C205 C189 1.349 . S
C205 H197 0.950 . S
C205 C203 1.327 . S
C206 C194 1.349 . S
C206 H200 0.950 . S
C206 C207 1.327 . S
C207 H201 0.950 . S
C207 C206 1.327 . S
C207 C211 1.429 . S
C208 C191 1.574 . S
C208 H202 0.949 . S
C208 C212 1.368 . S
C209 C190 1.429 . S
C209 C203 1.429 . S
C209 C210 1.523 . S
C210 C191 1.368 . S
C210 C204 1.368 . S
C210 C209 1.523 . S
C211 C195 1.429 . S
C211 C207 1.429 . S
C211 C212 1.523 . S
C212 C196 1.368 . S
C212 C208 1.368 . S
C212 C211 1.523 . S
H213 C188 0.950 . S
H214 C190 0.950 . S
H215 C191 0.949 . S
H216 C193 0.950 . S
H217 C195 0.950 . S
C218 C219 1.349 . S
C218 C220 1.327 . S
C218 H243 0.950 . S
C219 C218 1.349 . S
C219 C235 1.349 . S
C220 C218 1.327 . S
C220 C239 1.429 . S
C220 H244 0.950 . S
C221 C238 1.574 . S
C221 C240 1.368 . S
C221 H245 0.949 . S
H222 C226 0.949 . S
C223 C224 1.349 . S
C223 C225 1.327 . S
C223 H246 0.950 . S
C224 C223 1.349 . S
C224 C236 1.349 . S
C225 C223 1.327 . S
C225 C241 1.429 . S
C225 H247 0.950 . S
C226 H222 0.949 . S
C226 C234 1.574 . S
C226 C242 1.368 . S
H227 C235 0.950 . S
H228 C233 0.950 . S
H229 C234 0.949 . S
H230 C236 0.950 1_545 S
H231 C237 0.950 . S
H232 C238 0.949 . S
C233 H228 0.950 . S
C233 C235 1.327 . S
C233 C239 1.429 . S
C234 C226 1.574 . S
C234 H229 0.949 . S
C234 C240 1.368 . S
C235 C219 1.349 . S
C235 H227 0.950 . S
C235 C233 1.327 . S
C236 C224 1.349 . S
C236 H230 0.950 1_565 S
C236 C237 1.327 . S
C237 H231 0.950 . S
C237 C236 1.327 . S
C237 C241 1.429 . S
C238 C221 1.574 . S
C238 H232 0.949 . S
C238 C242 1.368 . S
C239 C220 1.429 . S
C239 C233 1.429 . S
C239 C240 1.523 . S
C240 C221 1.368 . S
C240 C234 1.368 . S
C240 C239 1.523 . S
C241 C225 1.429 . S
C241 C237 1.429 . S
C241 C242 1.523 . S
C242 C226 1.368 . S
C242 C238 1.368 . S
C242 C241 1.523 . S
H243 C218 0.950 . S
H244 C220 0.950 . S
H245 C221 0.949 . S
H246 C223 0.950 . S
H247 C225 0.950 . S
C248 C249 1.349 . S
C248 C250 1.327 . S
C248 H273 0.950 . S
C249 C248 1.349 . S
C249 C265 1.349 . S
C250 C248 1.327 . S
C250 C269 1.429 . S
C250 H274 0.950 . S
C251 C268 1.574 . S
C251 C270 1.368 . S
C251 H275 0.949 . S
H252 C256 0.949 . S
C253 C254 1.349 . S
C253 C255 1.327 . S
C253 H276 0.950 . S
C254 C253 1.349 . S
C254 C266 1.349 . S
C255 C253 1.327 . S
C255 C271 1.429 . S
C255 H277 0.950 . S
C256 H252 0.949 . S
C256 C264 1.574 . S
C256 C272 1.368 . S
H257 C265 0.950 . S
H258 C263 0.950 . S
H259 C264 0.949 . S
H260 C266 0.950 . S
H261 C267 0.950 . S
H262 C268 0.949 . S
C263 H258 0.950 . S
C263 C265 1.327 . S
C263 C269 1.429 . S
C264 C256 1.574 . S
C264 H259 0.949 . S
C264 C270 1.368 . S
C265 C249 1.349 . S
C265 H257 0.950 . S
C265 C263 1.327 . S
C266 C254 1.349 . S
C266 H260 0.950 . S
C266 C267 1.327 . S
C267 H261 0.950 . S
C267 C266 1.327 . S
C267 C271 1.429 . S
C268 C251 1.574 . S
C268 H262 0.949 . S
C268 C272 1.368 . S
C269 C250 1.429 . S
C269 C263 1.429 . S
C269 C270 1.523 . S
C270 C251 1.368 . S
C270 C264 1.368 . S
C270 C269 1.523 . S
C271 C255 1.429 . S
C271 C267 1.429 . S
C271 C272 1.523 . S
C272 C256 1.368 . S
C272 C268 1.368 . S
C272 C271 1.523 . S
H273 C248 0.950 . S
H274 C250 0.950 . S
H275 C251 0.949 . S
H276 C253 0.950 . S
H277 C255 0.950 . S
C278 C279 1.349 . S
C278 C280 1.327 . S
C278 H303 0.950 . S
C279 C278 1.349 . S
C279 C295 1.349 . S
C280 C278 1.327 . S
C280 C299 1.429 . S
C280 H304 0.950 . S
C281 C298 1.574 . S
C281 C300 1.368 . S
C281 H305 0.949 . S
H282 C286 0.968 . S
C283 C284 1.349 1_655 S
C283 C285 1.327 . S
C283 H306 0.950 . S
C284 C283 1.349 1_455 S
C284 C296 1.349 . S
C285 C283 1.327 . S
C285 C301 1.429 . S
C285 H307 0.950 . S
C286 H282 0.968 . S
C286 C294 1.574 . S
C286 C302 1.368 . S
H287 C295 0.950 . S
H288 C293 0.950 . S
H289 C294 0.949 . S
H290 C296 0.950 . S
H291 C297 0.950 . S
H292 C298 0.949 . S
C293 H288 0.950 . S
C293 C295 1.327 . S
C293 C299 1.429 . S
C294 C286 1.574 . S
C294 H289 0.949 . S
C294 C300 1.368 . S
C295 C279 1.349 . S
C295 H287 0.950 . S
C295 C293 1.327 . S
C296 C284 1.349 . S
C296 H290 0.950 . S
C296 C297 1.327 . S
C297 H291 0.950 . S
C297 C296 1.327 . S
C297 C301 1.429 1_455 S
C298 C281 1.574 . S
C298 H292 0.949 . S
C298 C302 1.368 . S
C299 C280 1.429 . S
C299 C293 1.429 . S
C299 C300 1.523 . S
C300 C281 1.368 . S
C300 C294 1.368 . S
C300 C299 1.523 . S
C301 C285 1.429 . S
C301 C297 1.429 1_655 S
C301 C302 1.523 . S
C302 C286 1.368 . S
C302 C298 1.368 . S
C302 C301 1.523 . S
H303 C278 0.950 . S
H304 C280 0.950 . S
H305 C281 0.949 . S
H306 C283 0.950 . S
H307 C285 0.950 . S
C308 C309 1.349 . S
C308 C310 1.327 . S
C308 H333 0.950 . S
C309 C308 1.349 . S
C309 C325 1.349 . S
C310 C308 1.327 . S
C310 C329 1.429 . S
C310 H334 0.950 . S
C311 C328 1.574 . S
C311 C330 1.368 . S
C311 H335 0.949 . S
H312 C316 0.949 . S
C313 C314 1.349 . S
C313 C315 1.327 . S
C313 H336 0.950 . S
C314 C313 1.349 . S
C314 C326 1.349 . S
C315 C313 1.327 . S
C315 C331 1.429 . S
C315 H337 0.950 . S
C316 H312 0.949 . S
C316 C324 1.574 . S
C316 C332 1.368 . S
H317 C325 0.950 . S
H318 C323 0.950 . S
H319 C324 0.949 . S
H320 C326 0.950 . S
H321 C327 0.950 . S
H322 C328 0.949 . S
C323 H318 0.950 . S
C323 C325 1.327 . S
C323 C329 1.429 . S
C324 C316 1.574 . S
C324 H319 0.949 . S
C324 C330 1.368 . S
C325 C309 1.349 . S
C325 H317 0.950 . S
C325 C323 1.327 . S
C326 C314 1.349 . S
C326 H320 0.950 . S
C326 C327 1.327 . S
C327 H321 0.950 . S
C327 C326 1.327 . S
C327 C331 1.429 . S
C328 C311 1.574 . S
C328 H322 0.949 . S
C328 C332 1.368 . S
C329 C310 1.429 . S
C329 C323 1.429 . S
C329 C330 1.523 . S
C330 C311 1.368 . S
C330 C324 1.368 . S
C330 C329 1.523 . S
C331 C315 1.429 . S
C331 C327 1.429 . S
C331 C332 1.523 . S
C332 C316 1.368 . S
C332 C328 1.368 . S
C332 C331 1.523 . S
H333 C308 0.950 . S
H334 C310 0.950 . S
H335 C311 0.949 . S
H336 C313 0.950 . S
H337 C315 0.950 . S
C338 C339 1.349 . S
C338 C340 1.327 . S
C338 H363 0.950 . S
C339 C338 1.349 . S
C339 C355 1.349 . S
C340 C338 1.327 . S
C340 C359 1.429 . S
C340 H364 0.950 . S
C341 C358 1.574 . S
C341 C360 1.368 . S
C341 H365 0.949 . S
H342 C346 0.949 . S
C343 C344 1.349 . S
C343 C345 1.327 . S
C343 H366 0.950 . S
C344 C343 1.349 . S
C344 C356 1.349 1_565 S
C345 C343 1.327 . S
C345 C361 1.429 . S
C345 H367 0.950 . S
C346 H342 0.949 . S
C346 C354 1.574 . S
C346 C362 1.368 . S
H347 C355 0.950 . S
H348 C353 0.950 . S
H349 C354 0.949 . S
H350 C356 0.950 . S
H351 C357 0.950 1_545 S
H352 C358 0.949 . S
C353 H348 0.950 . S
C353 C355 1.327 . S
C353 C359 1.429 . S
C354 C346 1.574 . S
C354 H349 0.949 . S
C354 C360 1.368 . S
C355 C339 1.349 . S
C355 H347 0.950 . S
C355 C353 1.327 . S
C356 C344 1.349 1_545 S
C356 H350 0.950 . S
C356 C357 1.327 1_545 S
C357 H351 0.950 1_565 S
C357 C356 1.327 1_565 S
C357 C361 1.429 . S
C358 C341 1.574 . S
C358 H352 0.949 . S
C358 C362 1.368 . S
C359 C340 1.429 . S
C359 C353 1.429 . S
C359 C360 1.523 . S
C360 C341 1.368 . S
C360 C354 1.368 . S
C360 C359 1.523 . S
C361 C345 1.429 . S
C361 C357 1.429 . S
C361 C362 1.523 . S
C362 C346 1.368 . S
C362 C358 1.368 . S
C362 C361 1.523 . S
H363 C338 0.950 . S
H364 C340 0.950 . S
H365 C341 0.949 . S
H366 C343 0.950 . S
H367 C345 0.950 . S
C368 C369 1.349 . S
C368 C370 1.327 . S
C368 H393 0.950 . S
C369 C368 1.349 . S
C369 C385 1.349 . S
C370 C368 1.327 . S
C370 C389 1.429 . S
C370 H394 0.950 . S
C371 C388 1.574 . S
C371 C390 1.368 . S
C371 H395 0.949 . S
H372 C376 0.949 . S
C373 C374 1.349 . S
C373 C375 1.327 . S
C373 H396 0.950 1_556 S
C374 C373 1.349 . S
C374 C386 1.349 . S
C375 C373 1.327 . S
C375 C391 1.429 . S
C375 H397 0.950 . S
C376 H372 0.949 . S
C376 C384 1.574 . S
C376 C392 1.368 . S
H377 C385 0.950 . S
H378 C383 0.950 . S
H379 C384 0.949 . S
H380 C386 0.950 . S
H381 C387 0.950 . S
H382 C388 0.949 . S
C383 H378 0.950 . S
C383 C385 1.327 . S
C383 C389 1.429 . S
C384 C376 1.574 . S
C384 H379 0.949 . S
C384 C390 1.368 . S
C385 C369 1.349 . S
C385 H377 0.950 . S
C385 C383 1.327 . S
C386 C374 1.349 . S
C386 H380 0.950 . S
C386 C387 1.327 . S
C387 H381 0.950 . S
C387 C386 1.327 . S
C387 C391 1.429 . S
C388 C371 1.574 . S
C388 H382 0.949 . S
C388 C392 1.368 . S
C389 C370 1.429 . S
C389 C383 1.429 . S
C389 C390 1.523 . S
C390 C371 1.368 . S
C390 C384 1.368 . S
C390 C389 1.523 . S
C391 C375 1.429 . S
C391 C387 1.429 . S
C391 C392 1.523 . S
C392 C376 1.368 . S
C392 C388 1.368 . S
C392 C391 1.523 . S
H393 C368 0.950 . S
H394 C370 0.950 . S
H395 C371 0.949 . S
H396 C373 0.950 1_554 S
H397 C375 0.950 . S
C398 C399 1.349 . S
C398 C400 1.327 . S
C398 H423 0.950 . S
C399 C398 1.349 . S
C399 C415 1.349 . S
C400 C398 1.327 . S
C400 C419 1.429 . S
C400 H424 0.950 . S
C401 C418 1.574 . S
C401 C420 1.368 . S
C401 H425 0.949 . S
H402 C406 0.949 . S
C403 C404 1.349 . S
C403 C405 1.327 . S
C403 H426 0.950 . S
C404 C403 1.349 . S
C404 C416 1.349 . S
C405 C403 1.327 . S
C405 C421 1.429 . S
C405 H427 0.950 . S
C406 H402 0.949 . S
C406 C414 1.574 . S
C406 C422 1.368 . S
H407 C415 0.950 . S
H408 C413 0.950 . S
H409 C414 0.949 . S
H410 C416 0.950 . S
H411 C417 0.950 . S
H412 C418 0.949 . S
C413 H408 0.950 . S
C413 C415 1.327 . S
C413 C419 1.429 . S
C414 C406 1.574 . S
C414 H409 0.949 . S
C414 C420 1.368 . S
C415 C399 1.349 . S
C415 H407 0.950 . S
C415 C413 1.327 . S
C416 C404 1.349 . S
C416 H410 0.950 . S
C416 C417 1.327 . S
C417 H411 0.950 . S
C417 C416 1.327 . S
C417 C421 1.429 . S
C418 C401 1.574 . S
C418 H412 0.949 . S
C418 C422 1.368 . S
C419 C400 1.429 . S
C419 C413 1.429 . S
C419 C420 1.523 . S
C420 C401 1.368 . S
C420 C414 1.368 . S
C420 C419 1.523 . S
C421 C405 1.429 . S
C421 C417 1.429 . S
C421 C422 1.523 . S
C422 C406 1.368 . S
C422 C418 1.368 . S
C422 C421 1.523 . S
H423 C398 0.950 . S
H424 C400 0.950 . S
H425 C401 0.949 . S
H426 C403 0.950 . S
H427 C405 0.950 . S
C428 C429 1.349 . S
C428 C430 1.327 . S
C428 H453 0.950 . S
C429 C428 1.349 . S
C429 C445 1.349 . S
C430 C428 1.327 . S
C430 C449 1.429 . S
C430 H454 0.950 . S
C431 C448 1.574 . S
C431 C450 1.368 . S
C431 H455 0.949 . S
H432 C436 0.949 . S
C433 C434 1.349 . S
C433 C435 1.327 . S
C433 H456 0.950 . S
C434 C433 1.349 . S
C434 C446 1.349 . S
C435 C433 1.327 . S
C435 C451 1.429 . S
C435 H457 0.950 . S
C436 H432 0.949 . S
C436 C444 1.574 . S
C436 C452 1.368 . S
H437 C445 0.950 . S
H438 C443 0.950 . S
H439 C444 0.949 . S
H440 C446 0.950 . S
H441 C447 0.950 . S
H442 C448 0.949 . S
C443 H438 0.950 . S
C443 C445 1.327 . S
C443 C449 1.429 . S
C444 C436 1.574 . S
C444 H439 0.949 . S
C444 C450 1.368 . S
C445 C429 1.349 . S
C445 H437 0.950 . S
C445 C443 1.327 . S
C446 C434 1.349 . S
C446 H440 0.950 . S
C446 C447 1.327 . S
C447 H441 0.950 . S
C447 C446 1.327 . S
C447 C451 1.429 . S
C448 C431 1.574 . S
C448 H442 0.949 . S
C448 C452 1.368 . S
C449 C430 1.429 . S
C449 C443 1.429 . S
C449 C450 1.523 . S
C450 C431 1.368 . S
C450 C444 1.368 . S
C450 C449 1.523 . S
C451 C435 1.429 . S
C451 C447 1.429 . S
C451 C452 1.523 . S
C452 C436 1.368 . S
C452 C448 1.368 . S
C452 C451 1.523 . S
H453 C428 0.950 . S
H454 C430 0.950 . S
H455 C431 0.949 . S
H456 C433 0.950 . S
H457 C435 0.950 . S
C458 C459 1.349 . S
C458 C460 1.327 . S
C458 H483 0.950 . S
C459 C458 1.349 . S
C459 C475 1.349 . S
C460 C458 1.327 . S
C460 C479 1.429 . S
C460 H484 0.950 . S
C461 C478 1.574 . S
C461 C480 1.368 . S
C461 H485 0.949 . S
H462 C466 0.949 . S
C463 C464 1.349 . S
C463 C465 1.327 . S
C463 H486 0.918 1_556 S
C464 C463 1.349 . S
C464 C476 1.349 . S
C465 C463 1.327 . S
C465 C481 1.429 . S
C465 H487 0.950 . S
C466 H462 0.949 . S
C466 C474 1.574 . S
C466 C482 1.368 . S
H467 C475 0.950 . S
H468 C473 0.950 . S
H469 C474 0.949 . S
H470 C476 0.950 . S
H471 C477 0.950 . S
H472 C478 0.949 . S
C473 H468 0.950 . S
C473 C475 1.327 . S
C473 C479 1.429 . S
C474 C466 1.574 . S
C474 H469 0.949 . S
C474 C480 1.368 . S
C475 C459 1.349 . S
C475 H467 0.950 . S
C475 C473 1.327 . S
C476 C464 1.349 . S
C476 H470 0.950 . S
C476 C477 1.327 . S
C477 H471 0.950 . S
C477 C476 1.327 . S
C477 C481 1.429 . S
C478 C461 1.574 . S
C478 H472 0.949 . S
C478 C482 1.368 . S
C479 C460 1.429 . S
C479 C473 1.429 . S
C479 C480 1.523 . S
C480 C461 1.368 . S
C480 C474 1.368 . S
C480 C479 1.523 . S
C481 C465 1.429 . S
C481 C477 1.429 . S
C481 C482 1.523 . S
C482 C466 1.368 . S
C482 C478 1.368 . S
C482 C481 1.523 . S
H483 C458 0.950 . S
H484 C460 0.950 . S
H485 C461 0.949 . S
H486 C463 0.918 1_554 S
H487 C465 0.950 . S
C488 C489 1.349 . S
C488 C490 1.327 . S
C488 H513 0.950 . S
C489 C488 1.349 . S
C489 C505 1.349 . S
C490 C488 1.327 . S
C490 C509 1.429 . S
C490 H514 0.950 . S
C491 C508 1.574 . S
C491 C510 1.368 . S
C491 H515 0.949 . S
H492 C496 0.949 . S
C493 C494 1.349 . S
C493 C495 1.327 . S
C493 H516 0.950 . S
C494 C493 1.349 . S
C494 C506 1.349 . S
C495 C493 1.327 . S
C495 C511 1.429 . S
C495 H517 0.950 . S
C496 H492 0.949 . S
C496 C504 1.574 . S
C496 C512 1.368 . S
H497 C505 0.950 . S
H498 C503 0.950 . S
H499 C504 0.949 . S
H500 C506 0.950 . S
H501 C507 0.950 . S
H502 C508 0.949 . S
C503 H498 0.950 . S
C503 C505 1.327 . S
C503 C509 1.429 . S
C504 C496 1.574 . S
C504 H499 0.949 . S
C504 C510 1.368 . S
C505 C489 1.349 . S
C505 H497 0.950 . S
C505 C503 1.327 . S
C506 C494 1.349 . S
C506 H500 0.950 . S
C506 C507 1.327 . S
C507 H501 0.950 . S
C507 C506 1.327 . S
C507 C511 1.429 . S
C508 C491 1.574 . S
C508 H502 0.949 . S
C508 C512 1.368 . S
C509 C490 1.429 . S
C509 C503 1.429 . S
C509 C510 1.523 . S
C510 C491 1.368 . S
C510 C504 1.368 . S
C510 C509 1.523 . S
C511 C495 1.429 . S
C511 C507 1.429 . S
C511 C512 1.523 . S
C512 C496 1.368 . S
C512 C508 1.368 . S
C512 C511 1.523 . S
H513 C488 0.950 . S
H514 C490 0.950 . S
H515 C491 0.949 . S
H516 C493 0.950 . S
H517 C495 0.950 . S
C518 C519 1.349 . S
C518 C520 1.327 . S
C518 H543 0.950 . S
C519 C518 1.349 . S
C519 C535 1.349 . S
C520 C518 1.327 . S
C520 C539 1.429 . S
C520 H544 0.950 . S
C521 C538 1.574 . S
C521 C540 1.368 . S
C521 H545 0.949 . S
H522 C526 0.949 . S
C523 C524 1.349 . S
C523 C525 1.327 . S
C523 H546 0.950 . S
C524 C523 1.349 . S
C524 C536 1.349 . S
C525 C523 1.327 . S
C525 C541 1.429 . S
C525 H547 0.950 . S
C526 H522 0.949 . S
C526 C534 1.574 . S
C526 C542 1.368 . S
H527 C535 0.950 . S
H528 C533 0.950 . S
H529 C534 0.949 . S
H530 C536 0.950 . S
H531 C537 0.950 . S
H532 C538 0.949 . S
C533 H528 0.950 . S
C533 C535 1.327 . S
C533 C539 1.429 . S
C534 C526 1.574 . S
C534 H529 0.949 . S
C534 C540 1.368 . S
C535 C519 1.349 . S
C535 H527 0.950 . S
C535 C533 1.327 . S
C536 C524 1.349 . S
C536 H530 0.950 . S
C536 C537 1.327 . S
C537 H531 0.950 . S
C537 C536 1.327 . S
C537 C541 1.429 . S
C538 C521 1.574 . S
C538 H532 0.949 . S
C538 C542 1.368 . S
C539 C520 1.429 . S
C539 C533 1.429 . S
C539 C540 1.523 . S
C540 C521 1.368 . S
C540 C534 1.368 . S
C540 C539 1.523 . S
C541 C525 1.429 . S
C541 C537 1.429 . S
C541 C542 1.523 . S
C542 C526 1.368 . S
C542 C538 1.368 . S
C542 C541 1.523 . S
H543 C518 0.950 . S
H544 C520 0.950 . S
H545 C521 0.949 . S
H546 C523 0.950 . S
H547 C525 0.950 . S
C548 C549 1.349 . S
C548 C550 1.327 . S
C548 H573 0.950 . S
C549 C548 1.349 . S
C549 C565 1.349 . S
C550 C548 1.327 . S
C550 C569 1.429 . S
C550 H574 0.950 . S
C551 C568 1.574 . S
C551 C570 1.368 1_545 S
C551 H575 0.949 . S
H552 C556 0.956 . S
C553 C554 1.349 . S
C553 C555 1.327 . S
C553 H576 0.950 . S
C554 C553 1.349 . S
C554 C566 1.349 1_645 S
C555 C553 1.327 . S
C555 C571 1.429 . S
C555 H577 0.950 . S
C556 H552 0.956 . S
C556 C564 1.574 . S
C556 C572 1.368 . S
H557 C565 0.946 1_545 S
H558 C563 0.950 1_545 S
H559 C564 0.949 . S
H560 C566 0.950 . S
H561 C567 0.945 1_455 S
H562 C568 0.949 . S
C563 H558 0.950 1_565 S
C563 C565 1.327 . S
C563 C569 1.429 . S
C564 C556 1.574 . S
C564 H559 0.949 . S
C564 C570 1.368 . S
C565 C549 1.349 . S
C565 H557 0.946 1_565 S
C565 C563 1.327 . S
C566 C554 1.349 1_465 S
C566 H560 0.950 . S
C566 C567 1.326 1_455 S
C567 H561 0.945 1_655 S
C567 C566 1.326 1_655 S
C567 C571 1.435 1_565 S
C568 C551 1.574 . S
C568 H562 0.949 . S
C568 C572 1.368 1_545 S
C569 C550 1.429 . S
C569 C563 1.429 . S
C569 C570 1.523 . S
C570 C551 1.368 1_565 S
C570 C564 1.368 . S
C570 C569 1.523 . S
C571 C555 1.429 . S
C571 C567 1.435 1_545 S
C571 C572 1.523 1_545 S
C572 C556 1.368 . S
C572 C568 1.368 1_565 S
C572 C571 1.523 1_565 S
H573 C548 0.950 . S
H574 C550 0.950 . S
H575 C551 0.949 . S
H576 C553 0.950 . S
H577 C555 0.950 . S
C578 C579 1.349 . S
C578 C580 1.327 . S
C578 H603 0.950 . S
C579 C578 1.349 . S
C579 C595 1.349 . S
C580 C578 1.327 . S
C580 C599 1.429 . S
C580 H604 0.950 . S
C581 C598 1.574 . S
C581 C600 1.368 . S
C581 H605 0.949 . S
H582 C586 0.949 . S
C583 C584 1.349 . S
C583 C585 1.327 . S
C583 H606 0.950 1_545 S
C584 C583 1.349 . S
C584 C596 1.349 . S
C585 C583 1.327 . S
C585 C601 1.429 . S
C585 H607 0.950 . S
C586 H582 0.949 . S
C586 C594 1.574 . S
C586 C602 1.368 . S
H587 C595 0.950 . S
H588 C593 0.950 . S
H589 C594 0.949 . S
H590 C596 0.950 . S
H591 C597 0.950 . S
H592 C598 0.949 . S
C593 H588 0.950 . S
C593 C595 1.327 . S
C593 C599 1.429 . S
C594 C586 1.574 . S
C594 H589 0.949 . S
C594 C600 1.368 . S
C595 C579 1.349 . S
C595 H587 0.950 . S
C595 C593 1.327 . S
C596 C584 1.349 . S
C596 H590 0.950 . S
C596 C597 1.327 . S
C597 H591 0.950 . S
C597 C596 1.327 . S
C597 C601 1.429 . S
C598 C581 1.574 . S
C598 H592 0.949 . S
C598 C602 1.368 . S
C599 C580 1.429 . S
C599 C593 1.429 . S
C599 C600 1.523 . S
C600 C581 1.368 . S
C600 C594 1.368 . S
C600 C599 1.523 . S
C601 C585 1.429 . S
C601 C597 1.429 . S
C601 C602 1.523 . S
C602 C586 1.368 . S
C602 C598 1.368 . S
C602 C601 1.523 . S
H603 C578 0.950 . S
H604 C580 0.950 . S
H605 C581 0.949 . S
H606 C583 0.950 1_565 S
H607 C585 0.950 . S
C608 C609 1.349 . S
C608 C610 1.327 . S
C608 H633 0.950 . S
C609 C608 1.349 . S
C609 C625 1.349 . S
C610 C608 1.327 . S
C610 C629 1.429 . S
C610 H634 0.950 . S
C611 C628 1.574 . S
C611 C630 1.368 . S
C611 H635 0.949 . S
H612 C616 0.949 . S
C613 C614 1.349 . S
C613 C615 1.327 . S
C613 H636 0.950 . S
C614 C613 1.349 . S
C614 C626 1.349 . S
C615 C613 1.327 . S
C615 C631 1.429 . S
C615 H637 0.950 . S
C616 H612 0.949 . S
C616 C624 1.574 . S
C616 C632 1.368 . S
H617 C625 0.950 . S
H618 C623 0.950 . S
H619 C624 0.949 . S
H620 C626 0.950 . S
H621 C627 0.950 . S
H622 C628 0.949 . S
C623 H618 0.950 . S
C623 C625 1.327 . S
C623 C629 1.429 . S
C624 C616 1.574 . S
C624 H619 0.949 . S
C624 C630 1.368 . S
C625 C609 1.349 . S
C625 H617 0.950 . S
C625 C623 1.327 . S
C626 C614 1.349 . S
C626 H620 0.950 . S
C626 C627 1.327 . S
C627 H621 0.950 . S
C627 C626 1.327 . S
C627 C631 1.429 . S
C628 C611 1.574 . S
C628 H622 0.949 . S
C628 C632 1.368 . S
C629 C610 1.429 . S
C629 C623 1.429 . S
C629 C630 1.523 . S
C630 C611 1.368 . S
C630 C624 1.368 . S
C630 C629 1.523 . S
C631 C615 1.429 . S
C631 C627 1.429 . S
C631 C632 1.523 . S
C632 C616 1.368 . S
C632 C628 1.368 . S
C632 C631 1.523 . S
H633 C608 0.950 . S
H634 C610 0.950 . S
H635 C611 0.949 . S
H636 C613 0.950 . S
H637 C615 0.950 . S
C638 C639 1.349 . S
C638 C640 1.327 . S
C638 H663 0.950 . S
C639 C638 1.349 . S
C639 C655 1.349 . S
C640 C638 1.327 . S
C640 C659 1.429 . S
C640 H664 0.950 . S
C641 C658 1.574 . S
C641 C660 1.368 . S
C641 H665 0.949 . S
H642 C646 0.949 . S
C643 C644 1.349 . S
C643 C645 1.327 . S
C643 H666 0.950 . S
C644 C643 1.349 . S
C644 C656 1.349 . S
C645 C643 1.327 . S
C645 C661 1.429 . S
C645 H667 0.950 . S
C646 H642 0.949 . S
C646 C654 1.574 . S
C646 C662 1.368 . S
H647 C655 0.950 . S
H648 C653 0.950 . S
H649 C654 0.949 . S
H650 C656 0.950 . S
H651 C657 0.950 . S
H652 C658 0.949 . S
C653 H648 0.950 . S
C653 C655 1.327 . S
C653 C659 1.429 . S
C654 C646 1.574 . S
C654 H649 0.949 . S
C654 C660 1.368 . S
C655 C639 1.349 . S
C655 H647 0.950 . S
C655 C653 1.327 . S
C656 C644 1.349 . S
C656 H650 0.950 . S
C656 C657 1.327 . S
C657 H651 0.950 . S
C657 C656 1.327 . S
C657 C661 1.429 . S
C658 C641 1.574 . S
C658 H652 0.949 . S
C658 C662 1.368 . S
C659 C640 1.429 . S
C659 C653 1.429 . S
C659 C660 1.523 . S
C660 C641 1.368 . S
C660 C654 1.368 . S
C660 C659 1.523 . S
C661 C645 1.429 . S
C661 C657 1.429 . S
C661 C662 1.523 . S
C662 C646 1.368 . S
C662 C658 1.368 . S
C662 C661 1.523 . S
H663 C638 0.950 . S
H664 C640 0.950 . S
H665 C641 0.949 . S
H666 C643 0.950 . S
H667 C645 0.950 . S
C668 C669 1.349 . S
C668 C670 1.327 . S
C668 H693 0.950 . S
C669 C668 1.349 . S
C669 C685 1.349 . S
C670 C668 1.327 . S
C670 C689 1.429 . S
C670 H694 0.950 1_556 S
C671 C688 1.574 . S
C671 C690 1.368 . S
C671 H695 0.949 . S
H672 C676 0.949 . S
C673 C674 1.349 1_546 S
C673 C675 1.338 . S
C673 H696 0.950 . S
C674 C673 1.349 1_564 S
C674 C686 1.349 . S
C675 C673 1.338 . S
C675 C691 1.407 1_545 S
C675 H697 0.962 . S
C676 H672 0.949 . S
C676 C684 1.574 . S
C676 C692 1.368 1_554 S
H677 C685 0.950 . S
H678 C683 0.950 . S
H679 C684 0.949 . S
H680 C686 0.950 . S
H681 C687 0.950 . S
H682 C688 0.931 1_545 S
C683 H678 0.950 . S
C683 C685 1.327 . S
C683 C689 1.429 . S
C684 C676 1.574 . S
C684 H679 0.949 . S
C684 C690 1.368 1_554 S
C685 C669 1.349 . S
C685 H677 0.950 . S
C685 C683 1.327 . S
C686 C674 1.349 . S
C686 H680 0.950 . S
C686 C687 1.327 . S
C687 H681 0.950 . S
C687 C686 1.327 . S
C687 C691 1.429 1_554 S
C688 C671 1.574 . S
C688 H682 0.931 1_565 S
C688 C692 1.368 . S
C689 C670 1.429 . S
C689 C683 1.429 . S
C689 C690 1.523 . S
C690 C671 1.368 . S
C690 C684 1.368 1_556 S
C690 C689 1.523 . S
C691 C675 1.407 1_565 S
C691 C687 1.429 1_556 S
C691 C692 1.523 . S
C692 C676 1.368 1_556 S
C692 C688 1.368 . S
C692 C691 1.523 . S
H693 C668 0.950 . S
H694 C670 0.950 1_554 S
H695 C671 0.949 . S
H696 C673 0.950 . S
H697 C675 0.962 . S
C698 C699 1.349 . S
C698 C700 1.327 . S
C698 H723 0.950 . S
C699 C698 1.349 . S
C699 C715 1.349 . S
C700 C698 1.327 . S
C700 C719 1.429 . S
C700 H724 0.950 . S
C701 C718 1.574 . S
C701 C720 1.368 . S
C701 H725 0.949 . S
H702 C706 0.949 . S
C703 C704 1.349 . S
C703 C705 1.327 . S
C703 H726 0.950 . S
C704 C703 1.349 . S
C704 C716 1.349 . S
C705 C703 1.327 . S
C705 C721 1.429 . S
C705 H727 0.950 . S
C706 H702 0.949 . S
C706 C714 1.574 . S
C706 C722 1.368 . S
H707 C715 0.950 . S
H708 C713 0.950 . S
H709 C714 0.949 . S
H710 C716 0.950 . S
H711 C717 0.950 . S
H712 C718 0.949 . S
C713 H708 0.950 . S
C713 C715 1.327 . S
C713 C719 1.429 . S
C714 C706 1.574 . S
C714 H709 0.949 . S
C714 C720 1.368 . S
C715 C699 1.349 . S
C715 H707 0.950 . S
C715 C713 1.327 . S
C716 C704 1.349 . S
C716 H710 0.950 . S
C716 C717 1.327 . S
C717 H711 0.950 . S
C717 C716 1.327 . S
C717 C721 1.429 . S
C718 C701 1.574 . S
C718 H712 0.949 . S
C718 C722 1.368 . S
C719 C700 1.429 . S
C719 C713 1.429 . S
C719 C720 1.523 . S
C720 C701 1.368 . S
C720 C714 1.368 . S
C720 C719 1.523 . S
C721 C705 1.429 . S
C721 C717 1.429 . S
C721 C722 1.523 . S
C722 C706 1.368 . S
C722 C718 1.368 . S
C722 C721 1.523 . S
H723 C698 0.950 . S
H724 C700 0.950 . S
H725 C701 0.949 . S
H726 C703 0.950 . S
H727 C705 0.950 . S
C728 C729 1.349 . S
C728 C730 1.327 . S
C728 H753 0.950 . S
C729 C728 1.349 . S
C729 C745 1.349 . S
C730 C728 1.327 . S
C730 C749 1.429 . S
C730 H754 0.950 . S
C731 C748 1.574 . S
C731 C750 1.368 . S
C731 H755 0.949 . S
H732 C736 0.949 . S
C733 C734 1.349 . S
C733 C735 1.327 . S
C733 H756 0.950 . S
C734 C733 1.349 . S
C734 C746 1.349 . S
C735 C733 1.327 . S
C735 C751 1.429 . S
C735 H757 0.950 . S
C736 H732 0.949 . S
C736 C744 1.574 . S
C736 C752 1.368 . S
H737 C745 0.950 . S
H738 C743 0.950 . S
H739 C744 0.949 . S
H740 C746 0.950 1_556 S
H741 C747 0.950 1_556 S
H742 C748 0.949 . S
C743 H738 0.950 . S
C743 C745 1.327 . S
C743 C749 1.429 . S
C744 C736 1.574 . S
C744 H739 0.949 . S
C744 C750 1.368 . S
C745 C729 1.349 . S
C745 H737 0.950 . S
C745 C743 1.327 . S
C746 C734 1.349 . S
C746 H740 0.950 1_554 S
C746 C747 1.327 . S
C747 H741 0.950 1_554 S
C747 C746 1.327 . S
C747 C751 1.429 . S
C748 C731 1.574 . S
C748 H742 0.949 . S
C748 C752 1.368 . S
C749 C730 1.429 . S
C749 C743 1.429 . S
C749 C750 1.523 . S
C750 C731 1.368 . S
C750 C744 1.368 . S
C750 C749 1.523 . S
C751 C735 1.429 . S
C751 C747 1.429 . S
C751 C752 1.523 . S
C752 C736 1.368 . S
C752 C748 1.368 . S
C752 C751 1.523 . S
H753 C728 0.950 . S
H754 C730 0.950 . S
H755 C731 0.949 . S
H756 C733 0.950 . S
H757 C735 0.950 . S
C758 C759 1.349 . S
C758 C760 1.327 . S
C758 H783 0.950 . S
C759 C758 1.349 . S
C759 C775 1.349 . S
C760 C758 1.327 . S
C760 C779 1.429 . S
C760 H784 0.950 . S
C761 C778 1.574 . S
C761 C780 1.368 . S
C761 H785 0.949 . S
H762 C766 0.949 . S
C763 C764 1.349 . S
C763 C765 1.327 . S
C763 H786 0.950 . S
C764 C763 1.349 . S
C764 C776 1.349 . S
C765 C763 1.327 . S
C765 C781 1.429 . S
C765 H787 0.950 . S
C766 H762 0.949 . S
C766 C774 1.574 . S
C766 C782 1.368 . S
H767 C775 0.950 . S
H768 C773 0.950 . S
H769 C774 0.949 . S
H770 C776 0.950 . S
H771 C777 0.950 . S
H772 C778 0.949 . S
C773 H768 0.950 . S
C773 C775 1.327 . S
C773 C779 1.429 . S
C774 C766 1.574 . S
C774 H769 0.949 . S
C774 C780 1.368 . S
C775 C759 1.349 . S
C775 H767 0.950 . S
C775 C773 1.327 . S
C776 C764 1.349 . S
C776 H770 0.950 . S
C776 C777 1.327 . S
C777 H771 0.950 . S
C777 C776 1.327 . S
C777 C781 1.429 . S
C778 C761 1.574 . S
C778 H772 0.949 . S
C778 C782 1.368 . S
C779 C760 1.429 . S
C779 C773 1.429 . S
C779 C780 1.523 . S
C780 C761 1.368 . S
C780 C774 1.368 . S
C780 C779 1.523 . S
C781 C765 1.429 . S
C781 C777 1.429 . S
C781 C782 1.523 . S
C782 C766 1.368 . S
C782 C778 1.368 . S
C782 C781 1.523 . S
H783 C758 0.950 . S
H784 C760 0.950 . S
H785 C761 0.949 . S
H786 C763 0.950 . S
H787 C765 0.950 . S
C788 C789 1.338 1_554 S
C788 C790 1.321 1_655 S
C788 H813 0.967 . S
C789 C788 1.338 1_556 S
C789 C805 1.342 1_655 S
C790 C788 1.321 1_455 S
C790 C809 1.429 1_554 S
C790 H814 0.950 . S
C791 C808 1.574 . S
C791 C810 1.368 . S
C791 H815 0.949 . S
H792 C796 0.949 . S
C793 C794 1.349 . S
C793 C795 1.327 . S
C793 H816 0.950 . S
C794 C793 1.349 . S
C794 C806 1.349 1_556 S
C795 C793 1.327 . S
C795 C811 1.429 . S
C795 H817 0.950 . S
C796 H792 0.949 . S
C796 C804 1.574 . S
C796 C812 1.368 1_554 S
H797 C805 0.950 . S
H798 C803 0.950 . S
H799 C804 0.949 . S
H800 C806 0.950 . S
H801 C807 0.950 . S
H802 C808 0.949 . S
C803 H798 0.950 . S
C803 C805 1.327 . S
C803 C809 1.429 . S
C804 C796 1.574 . S
C804 H799 0.949 . S
C804 C810 1.368 1_554 S
C805 C789 1.342 1_455 S
C805 H797 0.950 . S
C805 C803 1.327 . S
C806 C794 1.349 1_554 S
C806 H800 0.950 . S
C806 C807 1.327 . S
C807 H801 0.950 . S
C807 C806 1.327 . S
C807 C811 1.429 1_554 S
C808 C791 1.574 . S
C808 H802 0.949 . S
C808 C812 1.368 . S
C809 C790 1.429 1_556 S
C809 C803 1.429 . S
C809 C810 1.523 . S
C810 C791 1.368 . S
C810 C804 1.368 1_556 S
C810 C809 1.523 . S
C811 C795 1.429 . S
C811 C807 1.429 1_556 S
C811 C812 1.523 . S
C812 C796 1.368 1_556 S
C812 C808 1.368 . S
C812 C811 1.523 . S
H813 C788 0.967 . S
H814 C790 0.950 . S
H815 C791 0.949 . S
H816 C793 0.950 . S
H817 C795 0.950 . S
C818 C819 1.349 . S
C818 C820 1.327 . S
C818 H843 0.950 . S
C819 C818 1.349 . S
C819 C835 1.349 . S
C820 C818 1.327 . S
C820 C839 1.429 . S
C820 H844 0.950 . S
C821 C838 1.574 . S
C821 C840 1.368 . S
C821 H845 0.949 . S
H822 C826 0.949 . S
C823 C824 1.349 . S
C823 C825 1.327 . S
C823 H846 0.931 1_554 S
C824 C823 1.349 . S
C824 C836 1.349 . S
C825 C823 1.327 . S
C825 C841 1.429 . S
C825 H847 0.950 . S
C826 H822 0.949 . S
C826 C834 1.574 . S
C826 C842 1.368 . S
H827 C835 0.950 . S
H828 C833 0.950 . S
H829 C834 0.949 . S
H830 C836 0.950 . S
H831 C837 0.950 . S
H832 C838 0.949 . S
C833 H828 0.950 . S
C833 C835 1.327 . S
C833 C839 1.429 . S
C834 C826 1.574 . S
C834 H829 0.949 . S
C834 C840 1.368 . S
C835 C819 1.349 . S
C835 H827 0.950 . S
C835 C833 1.327 . S
C836 C824 1.349 . S
C836 H830 0.950 . S
C836 C837 1.327 . S
C837 H831 0.950 . S
C837 C836 1.327 . S
C837 C841 1.429 . S
C838 C821 1.574 . S
C838 H832 0.949 . S
C838 C842 1.368 . S
C839 C820 1.429 . S
C839 C833 1.429 . S
C839 C840 1.523 . S
C840 C821 1.368 . S
C840 C834 1.368 . S
C840 C839 1.523 . S
C841 C825 1.429 . S
C841 C837 1.429 . S
C841 C842 1.523 . S
C842 C826 1.368 . S
C842 C838 1.368 . S
C842 C841 1.523 . S
H843 C818 0.950 . S
H844 C820 0.950 . S
H845 C821 0.949 . S
H846 C823 0.931 1_556 S
H847 C825 0.950 . S
C848 C849 1.349 . S
C848 C850 1.327 . S
C848 H873 0.950 . S
C849 C848 1.349 . S
C849 C865 1.349 . S
C850 C848 1.327 . S
C850 C869 1.429 . S
C850 H874 0.950 . S
C851 C868 1.574 . S
C851 C870 1.368 . S
C851 H875 0.949 . S
H852 C856 0.949 . S
C853 C854 1.349 . S
C853 C855 1.327 . S
C853 H876 0.950 . S
C854 C853 1.349 . S
C854 C866 1.349 . S
C855 C853 1.327 . S
C855 C871 1.429 . S
C855 H877 0.950 . S
C856 H852 0.949 . S
C856 C864 1.574 . S
C856 C872 1.368 . S
H857 C865 0.950 . S
H858 C863 0.950 . S
H859 C864 0.949 . S
H860 C866 0.950 . S
H861 C867 0.950 . S
H862 C868 0.949 . S
C863 H858 0.950 . S
C863 C865 1.327 . S
C863 C869 1.429 . S
C864 C856 1.574 . S
C864 H859 0.949 . S
C864 C870 1.368 . S
C865 C849 1.349 . S
C865 H857 0.950 . S
C865 C863 1.327 . S
C866 C854 1.349 . S
C866 H860 0.950 . S
C866 C867 1.327 . S
C867 H861 0.950 . S
C867 C866 1.327 . S
C867 C871 1.429 . S
C868 C851 1.574 . S
C868 H862 0.949 . S
C868 C872 1.368 . S
C869 C850 1.429 . S
C869 C863 1.429 . S
C869 C870 1.523 . S
C870 C851 1.368 . S
C870 C864 1.368 . S
C870 C869 1.523 . S
C871 C855 1.429 . S
C871 C867 1.429 . S
C871 C872 1.523 . S
C872 C856 1.368 . S
C872 C868 1.368 . S
C872 C871 1.523 . S
H873 C848 0.950 . S
H874 C850 0.950 . S
H875 C851 0.949 . S
H876 C853 0.950 . S
H877 C855 0.950 . S
C878 C879 1.349 . S
C878 C880 1.327 . S
C878 H903 0.950 . S
C879 C878 1.349 . S
C879 C895 1.349 . S
C880 C878 1.327 . S
C880 C899 1.429 . S
C880 H904 0.950 . S
C881 C898 1.574 . S
C881 C900 1.368 . S
C881 H905 0.949 . S
H882 C886 0.949 . S
C883 C884 1.349 . S
C883 C885 1.327 . S
C883 H906 0.950 . S
C884 C883 1.349 . S
C884 C896 1.349 . S
C885 C883 1.327 . S
C885 C901 1.429 . S
C885 H907 0.950 . S
C886 H882 0.949 . S
C886 C894 1.574 . S
C886 C902 1.368 . S
H887 C895 0.950 . S
H888 C893 0.950 . S
H889 C894 0.949 . S
H890 C896 0.950 . S
H891 C897 0.950 . S
H892 C898 0.949 . S
C893 H888 0.950 . S
C893 C895 1.327 . S
C893 C899 1.429 . S
C894 C886 1.574 . S
C894 H889 0.949 . S
C894 C900 1.368 . S
C895 C879 1.349 . S
C895 H887 0.950 . S
C895 C893 1.327 . S
C896 C884 1.349 . S
C896 H890 0.950 . S
C896 C897 1.327 . S
C897 H891 0.950 . S
C897 C896 1.327 . S
C897 C901 1.429 . S
C898 C881 1.574 . S
C898 H892 0.949 . S
C898 C902 1.368 . S
C899 C880 1.429 . S
C899 C893 1.429 . S
C899 C900 1.523 . S
C900 C881 1.368 . S
C900 C894 1.368 . S
C900 C899 1.523 . S
C901 C885 1.429 . S
C901 C897 1.429 . S
C901 C902 1.523 . S
C902 C886 1.368 . S
C902 C898 1.368 . S
C902 C901 1.523 . S
H903 C878 0.950 . S
H904 C880 0.950 . S
H905 C881 0.949 . S
H906 C883 0.950 . S
H907 C885 0.950 . S
C189 C9 2.041 . S
C194 C107 1.878 . S
C219 C21 1.547 . S
C224 C141 1.416 . S
C254 C153 1.124 . S
C249 C30 1.153 . S
C279 C43 1.218 . S
C284 C187 1.202 . S
C314 C144 1.371 . S
C309 C4 1.423 . S
C344 C124 1.939 1_565 S
C339 C22 2.099 . S
C374 C171 1.080 . S
C369 C34 1.147 . S
C404 C162 1.250 . S
C399 C48 1.331 . S
C429 C8 1.650 . S
C434 C170 1.541 . S
C464 C132 1.396 . S
C459 C35 1.521 . S
C489 C47 1.614 . S
C494 C108 1.449 . S
C519 C17 1.330 . S
C524 C165 1.288 . S
C554 C123 1.589 . S
C549 C60 1.670 . S
C579 C74 1.893 . S
C584 C145 1.791 . S
C609 C82 1.078 . S
C614 C150 1.020 . S
C639 C100 1.913 . S
C644 C183 1.806 . S
C669 C61 1.951 . S
C674 C128 1.822 . S
C704 C120 1.603 . S
C699 C73 1.695 . S
C734 C174 1.506 . S
C729 C87 1.650 . S
C764 C166 1.044 . S
C759 C95 1.042 . S
C789 C56 1.616 . S
C794 C186 1.594 . S
C824 C129 1.612 . S
C819 C86 1.718 . S
C854 C111 1.430 . S
C849 C99 1.533 . S
C879 C69 1.492 . S
C884 C149 1.410 . S
