# Generated by pormake.
# Topology ptr, (4,4)-cn, num edge types: 1
# Building blocks:
#     Node 0, Type 0, BuildingBlock: QUQFOY_clean_sbu_1, # of connection points: 4
#     Node 1, Type 0, BuildingBlock: QUQFOY_clean_sbu_1, # of connection points: 4
#     Node 2, Type 0, BuildingBlock: QUQFOY_clean_sbu_1, # of connection points: 4
#     Node 3, Type 0, BuildingBlock: QUQFOY_clean_sbu_1, # of connection points: 4
#     Node 4, Type 0, BuildingBlock: QUQFOY_clean_sbu_1, # of connection points: 4
#     Node 5, Type 0, BuildingBlock: QUQFOY_clean_sbu_1, # of connection points: 4
#     Node 6, Type 0, BuildingBlock: QUQFOY_clean_sbu_1, # of connection points: 4
#     Node 7, Type 0, BuildingBlock: QUQFOY_clean_sbu_1, # of connection points: 4
#     Node 8, Type 0, BuildingBlock: QUQFOY_clean_sbu_1, # of connection points: 4
#     Node 9, Type 0, BuildingBlock: QUQFOY_clean_sbu_1, # of connection points: 4
#     Node 10, Type 0, BuildingBlock: QUQFOY_clean_sbu_1, # of connection points: 4
#     Node 11, Type 0, BuildingBlock: QUQFOY_clean_sbu_1, # of connection points: 4
#     Node 12, Type 0, BuildingBlock: QUQFOY_clean_sbu_1, # of connection points: 4
#     Node 13, Type 0, BuildingBlock: QUQFOY_clean_sbu_1, # of connection points: 4
#     Node 14, Type 0, BuildingBlock: QUQFOY_clean_sbu_1, # of connection points: 4
#     Node 15, Type 0, BuildingBlock: QUQFOY_clean_sbu_1, # of connection points: 4
#     Node 16, Type 0, BuildingBlock: QUQFOY_clean_sbu_1, # of connection points: 4
#     Node 17, Type 0, BuildingBlock: QUQFOY_clean_sbu_1, # of connection points: 4
#     Node 18, Type 1, BuildingBlock: KUFVIS_clean_linker_0, # of connection points: 4
#     Node 19, Type 1, BuildingBlock: KUFVIS_clean_linker_0, # of connection points: 4
#     Node 20, Type 1, BuildingBlock: KUFVIS_clean_linker_0, # of connection points: 4
#     Node 21, Type 1, BuildingBlock: KUFVIS_clean_linker_0, # of connection points: 4
#     Node 22, Type 1, BuildingBlock: KUFVIS_clean_linker_0, # of connection points: 4
#     Node 23, Type 1, BuildingBlock: KUFVIS_clean_linker_0, # of connection points: 4
#     Node 24, Type 1, BuildingBlock: KUFVIS_clean_linker_0, # of connection points: 4
#     Node 25, Type 1, BuildingBlock: KUFVIS_clean_linker_0, # of connection points: 4
#     Node 26, Type 1, BuildingBlock: KUFVIS_clean_linker_0, # of connection points: 4
#     Node 27, Type 1, BuildingBlock: KUFVIS_clean_linker_0, # of connection points: 4
#     Node 28, Type 1, BuildingBlock: KUFVIS_clean_linker_0, # of connection points: 4
#     Node 29, Type 1, BuildingBlock: KUFVIS_clean_linker_0, # of connection points: 4
#     Node 30, Type 1, BuildingBlock: KUFVIS_clean_linker_0, # of connection points: 4
#     Node 31, Type 1, BuildingBlock: KUFVIS_clean_linker_0, # of connection points: 4
#     Node 32, Type 1, BuildingBlock: KUFVIS_clean_linker_0, # of connection points: 4
#     Node 33, Type 1, BuildingBlock: KUFVIS_clean_linker_0, # of connection points: 4
#     Node 34, Type 1, BuildingBlock: KUFVIS_clean_linker_0, # of connection points: 4
#     Node 35, Type 1, BuildingBlock: KUFVIS_clean_linker_0, # of connection points: 4
#     Edge 36, Type (0, 1), BuildingBlock: CIFDUS_clean_linker_0, # of connection points: 2
#     Edge 37, Type (0, 1), BuildingBlock: CIFDUS_clean_linker_0, # of connection points: 2
#     Edge 38, Type (0, 1), BuildingBlock: CIFDUS_clean_linker_0, # of connection points: 2
#     Edge 39, Type (0, 1), BuildingBlock: CIFDUS_clean_linker_0, # of connection points: 2
#     Edge 40, Type (0, 1), BuildingBlock: CIFDUS_clean_linker_0, # of connection points: 2
#     Edge 41, Type (0, 1), BuildingBlock: CIFDUS_clean_linker_0, # of connection points: 2
#     Edge 42, Type (0, 1), BuildingBlock: CIFDUS_clean_linker_0, # of connection points: 2
#     Edge 43, Type (0, 1), BuildingBlock: CIFDUS_clean_linker_0, # of connection points: 2
#     Edge 44, Type (0, 1), BuildingBlock: CIFDUS_clean_linker_0, # of connection points: 2
#     Edge 45, Type (0, 1), BuildingBlock: CIFDUS_clean_linker_0, # of connection points: 2
#     Edge 46, Type (0, 1), BuildingBlock: CIFDUS_clean_linker_0, # of connection points: 2
#     Edge 47, Type (0, 1), BuildingBlock: CIFDUS_clean_linker_0, # of connection points: 2
#     Edge 48, Type (0, 1), BuildingBlock: CIFDUS_clean_linker_0, # of connection points: 2
#     Edge 49, Type (0, 1), BuildingBlock: CIFDUS_clean_linker_0, # of connection points: 2
#     Edge 50, Type (0, 1), BuildingBlock: CIFDUS_clean_linker_0, # of connection points: 2
#     Edge 51, Type (0, 1), BuildingBlock: CIFDUS_clean_linker_0, # of connection points: 2
#     Edge 52, Type (0, 1), BuildingBlock: CIFDUS_clean_linker_0, # of connection points: 2
#     Edge 53, Type (0, 1), BuildingBlock: CIFDUS_clean_linker_0, # of connection points: 2
#     Edge 54, Type (0, 1), BuildingBlock: CIFDUS_clean_linker_0, # of connection points: 2
#     Edge 55, Type (0, 1), BuildingBlock: CIFDUS_clean_linker_0, # of connection points: 2
#     Edge 56, Type (0, 1), BuildingBlock: CIFDUS_clean_linker_0, # of connection points: 2
#     Edge 57, Type (0, 1), BuildingBlock: CIFDUS_clean_linker_0, # of connection points: 2
#     Edge 58, Type (0, 1), BuildingBlock: CIFDUS_clean_linker_0, # of connection points: 2
#     Edge 59, Type (0, 1), BuildingBlock: CIFDUS_clean_linker_0, # of connection points: 2
#     Edge 60, Type (0, 1), BuildingBlock: CIFDUS_clean_linker_0, # of connection points: 2
#     Edge 61, Type (0, 1), BuildingBlock: CIFDUS_clean_linker_0, # of connection points: 2
#     Edge 62, Type (0, 1), BuildingBlock: CIFDUS_clean_linker_0, # of connection points: 2
#     Edge 63, Type (0, 1), BuildingBlock: CIFDUS_clean_linker_0, # of connection points: 2
#     Edge 64, Type (0, 1), BuildingBlock: CIFDUS_clean_linker_0, # of connection points: 2
#     Edge 65, Type (0, 1), BuildingBlock: CIFDUS_clean_linker_0, # of connection points: 2
#     Edge 66, Type (0, 1), BuildingBlock: CIFDUS_clean_linker_0, # of connection points: 2
#     Edge 67, Type (0, 1), BuildingBlock: CIFDUS_clean_linker_0, # of connection points: 2
#     Edge 68, Type (0, 1), BuildingBlock: CIFDUS_clean_linker_0, # of connection points: 2
#     Edge 69, Type (0, 1), BuildingBlock: CIFDUS_clean_linker_0, # of connection points: 2
#     Edge 70, Type (0, 1), BuildingBlock: CIFDUS_clean_linker_0, # of connection points: 2
#     Edge 71, Type (0, 1), BuildingBlock: CIFDUS_clean_linker_0, # of connection points: 2
#     Edge 72, Type (0, 1), BuildingBlock: CIFDUS_clean_linker_0, # of connection points: 2
#     Edge 73, Type (0, 1), BuildingBlock: CIFDUS_clean_linker_0, # of connection points: 2
#     Edge 74, Type (0, 1), BuildingBlock: CIFDUS_clean_linker_0, # of connection points: 2
#     Edge 75, Type (0, 1), BuildingBlock: CIFDUS_clean_linker_0, # of connection points: 2
#     Edge 76, Type (0, 1), BuildingBlock: CIFDUS_clean_linker_0, # of connection points: 2
#     Edge 77, Type (0, 1), BuildingBlock: CIFDUS_clean_linker_0, # of connection points: 2
#     Edge 78, Type (0, 1), BuildingBlock: CIFDUS_clean_linker_0, # of connection points: 2
#     Edge 79, Type (0, 1), BuildingBlock: CIFDUS_clean_linker_0, # of connection points: 2
#     Edge 80, Type (0, 1), BuildingBlock: CIFDUS_clean_linker_0, # of connection points: 2
#     Edge 81, Type (0, 1), BuildingBlock: CIFDUS_clean_linker_0, # of connection points: 2
#     Edge 82, Type (0, 1), BuildingBlock: CIFDUS_clean_linker_0, # of connection points: 2
#     Edge 83, Type (0, 1), BuildingBlock: CIFDUS_clean_linker_0, # of connection points: 2
#     Edge 84, Type (0, 1), BuildingBlock: CIFDUS_clean_linker_0, # of connection points: 2
#     Edge 85, Type (0, 1), BuildingBlock: CIFDUS_clean_linker_0, # of connection points: 2
#     Edge 86, Type (0, 1), BuildingBlock: CIFDUS_clean_linker_0, # of connection points: 2
#     Edge 87, Type (0, 1), BuildingBlock: CIFDUS_clean_linker_0, # of connection points: 2
#     Edge 88, Type (0, 1), BuildingBlock: CIFDUS_clean_linker_0, # of connection points: 2
#     Edge 89, Type (0, 1), BuildingBlock: CIFDUS_clean_linker_0, # of connection points: 2
#     Edge 90, Type (0, 1), BuildingBlock: CIFDUS_clean_linker_0, # of connection points: 2
#     Edge 91, Type (0, 1), BuildingBlock: CIFDUS_clean_linker_0, # of connection points: 2
#     Edge 92, Type (0, 1), BuildingBlock: CIFDUS_clean_linker_0, # of connection points: 2
#     Edge 93, Type (0, 1), BuildingBlock: CIFDUS_clean_linker_0, # of connection points: 2
#     Edge 94, Type (0, 1), BuildingBlock: CIFDUS_clean_linker_0, # of connection points: 2
#     Edge 95, Type (0, 1), BuildingBlock: CIFDUS_clean_linker_0, # of connection points: 2
#     Edge 96, Type (0, 1), BuildingBlock: CIFDUS_clean_linker_0, # of connection points: 2
#     Edge 97, Type (0, 1), BuildingBlock: CIFDUS_clean_linker_0, # of connection points: 2
#     Edge 98, Type (0, 1), BuildingBlock: CIFDUS_clean_linker_0, # of connection points: 2
#     Edge 99, Type (0, 1), BuildingBlock: CIFDUS_clean_linker_0, # of connection points: 2
#     Edge 100, Type (0, 1), BuildingBlock: CIFDUS_clean_linker_0, # of connection points: 2
#     Edge 101, Type (0, 1), BuildingBlock: CIFDUS_clean_linker_0, # of connection points: 2
#     Edge 102, Type (0, 1), BuildingBlock: CIFDUS_clean_linker_0, # of connection points: 2
#     Edge 103, Type (0, 1), BuildingBlock: CIFDUS_clean_linker_0, # of connection points: 2
#     Edge 104, Type (0, 1), BuildingBlock: CIFDUS_clean_linker_0, # of connection points: 2
#     Edge 105, Type (0, 1), BuildingBlock: CIFDUS_clean_linker_0, # of connection points: 2
#     Edge 106, Type (0, 1), BuildingBlock: CIFDUS_clean_linker_0, # of connection points: 2
#     Edge 107, Type (0, 1), BuildingBlock: CIFDUS_clean_linker_0, # of connection points: 2
# Relax obj value: 0.019
# Max RMSD: 0.076
# Mean RMSD: 0.059
data_MOF--net-ptr--node1-QUQFOY_clean_sbu_1--node2-KUFVIS_clean_linker_0--edge1-CIFDUS_clean_linker_0
_symmetry_space_group_name_H-M    P1
_symmetry_Int_Tables_number       1
_symmetry_cell_setting            triclinic
loop_
_symmetry_equiv_pos_as_xyz
'x, y, z'
_cell_length_a     70.944502
_cell_length_b     70.790813
_cell_length_c     44.316081
_cell_angle_alpha  90.025758
_cell_angle_beta   90.083008
_cell_angle_gamma 119.91873
loop_
_atom_site_label
_atom_site_type_symbol
_atom_site_fract_x
_atom_site_fract_y
_atom_site_fract_z
_atom_type_partial_charge
O0 O 0.03306 0.40858 0.05189 0.0
Cd1 Cd 0.04062 0.39589 0.01503 0.0
Cd2 Cd 0.99508 0.36809 0.01466 0.0
O3 O 0.99813 0.38394 0.0555 0.0
O4 O 0.0717 0.4031 0.01938 0.0
O5 O 0.0438 0.36944 0.02063 0.0
C6 C 0.06456 0.38251 0.02278 0.0
C7 C 0.97127 0.33023 0.00958 0.0
C8 C 1.01491 0.40092 0.0654 0.0
C9 C 1.01705 0.40011 0.9623 0.0
O10 O 0.9998 0.38589 0.9754 0.0
O11 O 0.03567 0.40599 0.97359 0.0
O12 O 0.96403 0.34364 0.01164 0.0
O13 O 0.99207 0.33823 0.01162 0.0
O14 O 0.62795 0.63528 0.0527 0.0
Cd15 Cd 0.64178 0.65334 0.01428 0.0
Cd16 Cd 0.66359 0.62956 0.0172 0.0
O17 O 0.64577 0.61713 0.0566 0.0
O18 O 0.63649 0.67876 0.01612 0.0
O19 O 0.6692 0.68235 0.01936 0.0
C20 C 0.65712 0.69126 0.02031 0.0
C21 C 0.7014 0.64463 0.01391 0.0
C22 C 0.63155 0.62158 0.06636 0.0
C23 C 0.63424 0.62233 0.9633 0.0
O24 O 0.64691 0.61748 0.97729 0.0
O25 O 0.63028 0.63682 0.97353 0.0
O26 O 0.68861 0.62383 0.01594 0.0
O27 O 0.69273 0.65692 0.01544 0.0
O28 O 0.41222 0.03332 0.9799 0.0
Cd29 Cd 0.40286 0.04147 0.01954 0.0
Cd30 Cd 0.37634 0.99213 0.01875 0.0
O31 O 0.39313 0.99721 0.97838 0.0
O32 O 0.4172 0.074 0.01581 0.0
O33 O 0.3816 0.05281 0.01719 0.0
C34 C 0.39821 0.07211 0.01399 0.0
C35 C 0.34051 0.96211 0.02362 0.0
C36 C 0.40716 0.01536 0.96702 0.0
C37 C 0.40903 0.01666 0.07043 0.0
O38 O 0.39467 0.99922 0.05774 0.0
O39 O 0.41451 0.0353 0.05932 0.0
O40 O 0.35723 0.9596 0.02143 0.0
O41 O 0.3439 0.98177 0.02189 0.0
O42 O 0.99991 0.61979 0.97724 0.0
Cd43 Cd 0.99606 0.6333 0.01642 0.0
Cd44 Cd 0.04193 0.65514 0.01335 0.0
O45 O 0.03583 0.6374 0.97343 0.0
O46 O 0.96582 0.629 0.01486 0.0
O47 O 0.99551 0.66136 0.01254 0.0
C48 C 0.97453 0.64981 0.01145 0.0
C49 C 0.06604 0.69292 0.01749 0.0
C50 C 1.01711 0.62345 0.96342 0.0
C51 C 0.01938 0.62542 0.06713 0.0
O52 O 0.03681 0.63808 0.05305 0.0
O53 O 1.00095 0.62145 0.05697 0.0
O54 O 0.07315 0.67939 0.01499 0.0
O55 O 0.04524 0.68507 0.0159 0.0
O56 O 0.40342 0.38676 0.9689 0.0
Cd57 Cd 0.38816 0.36845 0.00698 0.0
Cd58 Cd 0.37376 0.39911 0.00748 0.0
O59 O 0.39002 0.40904 0.96678 0.0
O60 O 0.39322 0.34294 0.0045 0.0
O61 O 0.36056 0.33939 0.0018 0.0
C62 C 0.37258 0.33042 0.00093 0.0
C63 C 0.33805 0.39251 0.01409 0.0
C64 C 0.40211 0.40216 0.95601 0.0
C65 C 0.40253 0.40046 0.05871 0.0
O66 O 0.39353 0.40971 0.04513 0.0
O67 O 0.40086 0.38288 0.04845 0.0
O68 O 0.35433 0.41198 0.01117 0.0
O69 O 0.34188 0.37651 0.01203 0.0
O70 O 0.62276 0.99149 0.0512 0.0
Cd71 Cd 0.63413 0.98353 0.01333 0.0
Cd72 Cd 0.66286 0.02844 0.01271 0.0
O73 O 0.64847 0.02611 0.0545 0.0
O74 O 0.62718 0.95246 0.01713 0.0
O75 O 0.66074 0.98056 0.01653 0.0
C76 C 0.64785 0.95974 0.01897 0.0
C77 C 0.70068 0.05115 0.00549 0.0
C78 C 0.63134 1.00974 0.06481 0.0
C79 C 0.62891 1.0075 0.96219 0.0
O80 O 0.6439 0.02456 0.97492 0.0
O81 O 0.62298 0.98871 0.97295 0.0
O82 O 0.68806 0.05915 0.00957 0.0
O83 O 0.69198 0.0302 0.00671 0.0
O84 O 0.69538 0.73405 0.3896 0.0
Cd85 Cd 0.70391 0.72145 0.35302 0.0
Cd86 Cd 0.65795 0.6981 0.34911 0.0
O87 O 0.65989 0.71127 0.39128 0.0
O88 O 0.73617 0.73449 0.35783 0.0
O89 O 0.71367 0.69906 0.35897 0.0
C90 C 0.73336 0.71516 0.36087 0.0
C91 C 0.63531 0.66065 0.34054 0.0
C92 C 0.67701 0.72719 0.40228 0.0
C93 C 0.68317 0.7305 0.29985 0.0
O94 O 0.66486 0.71891 0.31261 0.0
O95 O 0.70039 0.73188 0.31089 0.0
O96 O 0.62742 0.67351 0.34324 0.0
O97 O 0.65612 0.66905 0.34336 0.0
O98 O 0.29385 0.96611 0.38762 0.0
Cd99 Cd 0.30855 0.98659 0.35105 0.0
Cd100 Cd 0.32976 0.96281 0.34881 0.0
O101 O 0.3156 0.95218 0.39071 0.0
O102 O 0.30321 1.01185 0.35542 0.0
O103 O 0.33592 0.01542 0.35787 0.0
C104 C 0.32385 0.0243 0.35948 0.0
C105 C 0.3673 0.97734 0.34147 0.0
C106 C 0.29991 0.95412 0.401 0.0
C107 C 0.29841 0.95648 0.29835 0.0
O108 O 0.30939 0.94925 0.31178 0.0
O109 O 0.29769 0.97287 0.30881 0.0
O110 O 0.35439 0.95662 0.34423 0.0
O111 O 0.35892 0.98985 0.34361 0.0
O112 O 0.07971 0.36332 0.31235 0.0
Cd113 Cd 0.06685 0.37061 0.34936 0.0
Cd114 Cd 0.03905 0.32453 0.34936 0.0
O115 O 0.05477 0.32843 0.3083 0.0
O116 O 0.07187 0.40108 0.34515 0.0
O117 O 0.03922 0.37163 0.34374 0.0
C118 C 0.05111 0.39261 0.34167 0.0
C119 C 1.00278 0.29555 0.35402 0.0
C120 C 0.07177 0.34517 0.29854 0.0
C121 C 0.0716 0.34721 0.40174 0.0
O122 O 0.05726 0.33001 0.38852 0.0
O123 O 0.07748 0.36593 0.39071 0.0
O124 O 0.01895 0.29221 0.35157 0.0
O125 O 1.00699 0.31551 0.35279 0.0
O126 O 0.67138 0.95556 0.30555 0.0
Cd127 Cd 0.66614 0.96782 0.34497 0.0
Cd128 Cd 0.71259 0.99144 0.34063 0.0
O129 O 0.70721 0.97395 0.3007 0.0
O130 O 0.63376 0.95543 0.34468 0.0
O131 O 0.65677 0.9907 0.34196 0.0
C132 C 0.63688 0.97488 0.34161 0.0
C133 C 0.7341 0.02938 0.34546 0.0
C134 C 0.68852 0.95956 0.29123 0.0
C135 C 0.69202 0.96167 0.39446 0.0
O136 O 0.70911 0.97465 0.38001 0.0
O137 O 0.67326 0.95714 0.38497 0.0
O138 O 0.74281 0.01729 0.34193 0.0
O139 O 0.71311 0.02001 0.34421 0.0
O140 O 0.07699 0.72287 0.30975 0.0
Cd141 Cd 0.06501 0.70532 0.34907 0.0
Cd142 Cd 0.04242 0.73084 0.34686 0.0
O143 O 0.05999 0.74194 0.30679 0.0
O144 O 0.07227 0.68125 0.34664 0.0
O145 O 0.03862 0.6753 0.34644 0.0
C146 C 0.05171 0.6676 0.34458 0.0
C147 C 1.00679 0.72521 0.35184 0.0
C148 C 0.07344 0.73666 0.29625 0.0
C149 C 0.07275 0.73616 0.40022 0.0
O150 O 0.05987 0.74095 0.38665 0.0
O151 O 0.07703 0.72205 0.38943 0.0
O152 O 0.02351 0.74446 0.34982 0.0
O153 O 1.01006 0.70889 0.34923 0.0
O154 O 0.2896 0.32834 0.38399 0.0
Cd155 Cd 0.30121 0.3189 0.34742 0.0
Cd156 Cd 0.32808 0.36654 0.34503 0.0
O157 O 0.31397 0.36346 0.38683 0.0
O158 O 0.28639 0.28643 0.35259 0.0
O159 O 0.32205 0.30733 0.35349 0.0
C160 C 0.3052 0.28812 0.35599 0.0
C161 C 0.36431 0.39492 0.33766 0.0
C162 C 0.29733 0.34669 0.39721 0.0
C163 C 0.29507 0.34201 0.29477 0.0
O164 O 0.30773 0.35989 0.30807 0.0
O165 O 0.2919 0.32392 0.30529 0.0
O166 O 0.34849 0.3987 0.34115 0.0
O167 O 0.35977 0.37486 0.33909 0.0
O168 O 0.36731 0.06675 0.72421 0.0
Cd169 Cd 0.37043 0.05209 0.68543 0.0
Cd170 Cd 0.32616 0.03602 0.68579 0.0
O171 O 0.33155 0.05169 0.72694 0.0
O172 O 0.40071 0.05649 0.68757 0.0
O173 O 0.37118 0.02408 0.68962 0.0
C174 C 0.39213 0.0357 0.6907 0.0
C175 C 0.30452 0.99835 0.67848 0.0
C176 C 0.3504 0.06443 0.73758 0.0
C177 C 0.35126 0.06564 0.63463 0.0
O178 O 0.33321 0.05588 0.64855 0.0
O179 O 0.36771 0.06473 0.64434 0.0
O180 O 0.29585 1.0105 0.68204 0.0
O181 O 0.32546 1.00756 0.68037 0.0
O182 O 0.96057 0.3022 0.72208 0.0
Cd183 Cd 0.9706 0.32023 0.68282 0.0
Cd184 Cd 0.9948 0.29456 0.68346 0.0
O185 O 0.9774 0.2829 0.72341 0.0
O186 O 0.95623 0.33845 0.68655 0.0
O187 O 0.99181 0.35292 0.68551 0.0
C188 C 0.97517 0.3556 0.68834 0.0
C189 C 0.03009 0.29947 0.67811 0.0
C190 C 0.96423 0.28823 0.7348 0.0
C191 C 0.96404 0.28964 0.63089 0.0
O192 O 0.97736 0.28513 0.6437 0.0
O193 O 0.95922 0.30317 0.64245 0.0
O194 O 1.01312 0.28038 0.67971 0.0
O195 O 0.02726 0.31603 0.68129 0.0
O196 O 0.75007 0.69884 0.64686 0.0
Cd197 Cd 0.73799 0.70708 0.68377 0.0
Cd198 Cd 0.70909 0.66208 0.68485 0.0
O199 O 0.72441 0.66418 0.64392 0.0
O200 O 0.744 0.73784 0.67879 0.0
O201 O 0.71089 0.70903 0.6786 0.0
C202 C 0.72327 0.7299 0.67585 0.0
C203 C 0.6711 0.63919 0.69027 0.0
C204 C 0.74167 0.68044 0.63368 0.0
C205 C 0.74198 0.68348 0.7366 0.0
O206 O 0.72713 0.66636 0.72381 0.0
O207 O 0.74836 0.7022 0.72517 0.0
O208 O 0.68394 0.6313 0.68777 0.0
O209 O 0.67972 0.66011 0.68857 0.0
O210 O 0.33755 0.29193 0.63923 0.0
Cd211 Cd 0.3342 0.30677 0.67765 0.0
Cd212 Cd 0.37897 0.32185 0.67794 0.0
O213 O 0.37319 0.30566 0.63716 0.0
O214 O 0.30362 0.30164 0.67496 0.0
O215 O 0.33262 0.33438 0.67267 0.0
C216 C 0.3117 0.32233 0.67141 0.0
C217 C 0.40246 0.35943 0.68416 0.0
C218 C 0.35428 0.29347 0.62628 0.0
C219 C 0.35258 0.29267 0.72906 0.0
O220 O 0.3708 0.30216 0.71554 0.0
O221 O 0.33642 0.29395 0.71892 0.0
O222 O 0.40994 0.34617 0.68197 0.0
O223 O 0.38165 0.35135 0.68174 0.0
O224 O 0.74146 0.05933 0.63817 0.0
Cd225 Cd 0.73014 0.03845 0.67506 0.0
Cd226 Cd 0.70599 0.06064 0.68026 0.0
O227 O 0.71853 0.07197 0.63789 0.0
O228 O 0.74425 0.02018 0.66955 0.0
O229 O 0.70869 1.00601 0.66972 0.0
C230 C 0.72525 1.00319 0.66713 0.0
C231 C 0.66857 0.04526 0.68918 0.0
C232 C 0.7342 0.07075 0.62606 0.0
C233 C 0.73918 0.06811 0.72865 0.0
O234 O 0.72705 0.07453 0.71659 0.0
O235 O 0.74093 0.05263 0.71699 0.0
O236 O 0.68108 0.06606 0.68673 0.0
O237 O 0.67731 0.03313 0.68603 0.0
O238 O 0.95929 0.66015 0.71854 0.0
Cd239 Cd 0.97055 0.65365 0.67918 0.0
Cd240 Cd 0.99376 0.70278 0.68091 0.0
O241 O 0.97607 0.69625 0.72069 0.0
O242 O 0.95851 0.62134 0.68161 0.0
O243 O 0.99369 0.64478 0.68221 0.0
C244 C 0.97808 0.62481 0.68403 0.0
C245 C 0.02879 0.73377 0.67649 0.0
C246 C 0.96281 0.67762 0.73161 0.0
C247 C 0.96341 0.67737 0.62774 0.0
O248 O 0.97644 0.69509 0.64106 0.0
O249 O 0.95892 0.65899 0.63879 0.0
O250 O 1.01152 0.73538 0.67809 0.0
O251 O 0.02639 0.71451 0.67905 0.0
H252 H 0.25597 0.35809 0.13056 0.0
H253 H 0.20472 0.3598 0.08175 0.0
H254 H 0.20766 0.36394 0.17974 0.0
H255 H 0.17372 0.35039 0.17921 0.0
H256 H 0.12467 0.35884 0.13668 0.0
H257 H 0.18025 0.36996 0.08505 0.0
C258 C 0.24104 0.35881 0.13065 0.0
C259 C 0.23209 0.35994 0.15807 0.0
C260 C 0.23164 0.35953 0.1033 0.0
C261 C 0.21209 0.3602 0.10326 0.0
C262 C 0.20227 0.36099 0.13089 0.0
C263 C 0.21337 0.36191 0.1581 0.0
C264 C 0.18053 0.36036 0.13189 0.0
C265 C 0.16832 0.35487 0.15909 0.0
C266 C 0.14854 0.35478 0.16105 0.0
C267 C 0.13984 0.35865 0.13515 0.0
C268 C 0.15095 0.36361 0.10767 0.0
C269 C 0.17153 0.36509 0.10618 0.0
H270 H 0.67979 0.90599 0.12831 0.0
H271 H 0.66403 0.8462 0.08389 0.0
H272 H 0.68992 0.85927 0.17533 0.0
H273 H 0.67349 0.82446 0.17978 0.0
H274 H 0.67498 0.77181 0.13533 0.0
H275 H 0.6758 0.82262 0.08191 0.0
C276 C 0.67927 0.8904 0.12855 0.0
C277 C 0.68468 0.88354 0.15499 0.0
C278 C 0.67234 0.8773 0.10278 0.0
C279 C 0.67056 0.85655 0.10352 0.0
C280 C 0.67701 0.84942 0.12957 0.0
C281 C 0.68453 0.86361 0.15503 0.0
C282 C 0.67564 0.82733 0.13068 0.0
C283 C 0.67466 0.81731 0.15884 0.0
C284 C 0.67521 0.79778 0.16053 0.0
C285 C 0.67549 0.78736 0.13397 0.0
C286 C 0.67508 0.7959 0.10571 0.0
C287 C 0.6754 0.81597 0.10401 0.0
H288 H 0.25626 0.90661 0.13404 0.0
H289 H 0.20411 0.85787 0.08096 0.0
H290 H 0.20414 0.85236 0.17867 0.0
H291 H 0.16927 0.83527 0.17476 0.0
H292 H 0.12163 0.77832 0.12901 0.0
H293 H 0.1806 0.8219 0.08283 0.0
C294 C 0.24074 0.89156 0.13286 0.0
C295 C 0.23065 0.88077 0.15945 0.0
C296 C 0.23159 0.88311 0.1047 0.0
C297 C 0.21131 0.86368 0.10296 0.0
C298 C 0.20047 0.85225 0.12967 0.0
C299 C 0.21103 0.86085 0.15776 0.0
C300 C 0.17826 0.83178 0.12876 0.0
C301 C 0.16452 0.8254 0.15455 0.0
C302 C 0.14458 0.80577 0.15505 0.0
C303 C 0.13721 0.79331 0.12878 0.0
C304 C 0.14979 0.79925 0.10256 0.0
C305 C 0.17059 0.81814 0.10277 0.0
H306 H 0.35804 0.11745 0.90189 0.0
H307 H 0.36697 0.17469 0.94723 0.0
H308 H 0.34598 0.16237 0.85345 0.0
H309 H 0.3598 0.19665 0.84927 0.0
H310 H 0.35498 0.24782 0.89244 0.0
H311 H 0.3558 0.19838 0.94702 0.0
C312 C 0.35772 0.13262 0.90129 0.0
C313 C 0.35247 0.13919 0.87444 0.0
C314 C 0.36233 0.14504 0.92754 0.0
C315 C 0.36241 0.16499 0.92687 0.0
C316 C 0.35683 0.17213 0.89999 0.0
C317 C 0.3512 0.15837 0.87418 0.0
C318 C 0.35687 0.19362 0.89839 0.0
C319 C 0.35779 0.20344 0.87001 0.0
C320 C 0.35623 0.22242 0.86779 0.0
C321 C 0.35502 0.23254 0.8941 0.0
C322 C 0.35544 0.22428 0.92256 0.0
C323 C 0.3561 0.20473 0.92476 0.0
H324 H 0.78102 0.11612 0.89361 0.0
H325 H 0.8323 0.16511 0.94764 0.0
H326 H 0.83324 0.17071 0.84994 0.0
H327 H 0.86797 0.18793 0.85407 0.0
H328 H 0.91574 0.24415 0.90089 0.0
H329 H 0.85638 0.20067 0.94624 0.0
C330 C 0.79657 0.1311 0.89517 0.0
C331 C 0.80676 0.14214 0.86877 0.0
C332 C 0.80533 0.13956 0.92354 0.0
C333 C 0.82544 0.15921 0.92551 0.0
C334 C 0.83659 0.17063 0.89897 0.0
C335 C 0.82628 0.1621 0.87075 0.0
C336 C 0.85884 0.19105 0.90017 0.0
C337 C 0.87268 0.19757 0.87448 0.0
C338 C 0.89271 0.21711 0.87434 0.0
C339 C 0.90008 0.22924 0.90086 0.0
C340 C 0.88737 0.22319 0.92694 0.0
C341 C 0.86647 0.20446 0.92639 0.0
H342 H 0.7858 0.67692 0.90223 0.0
H343 H 0.83174 0.66487 0.94809 0.0
H344 H 0.8435 0.68975 0.85607 0.0
H345 H 0.86646 0.67966 0.8522 0.0
H346 H 0.91795 0.67735 0.89802 0.0
H347 H 0.86521 0.67305 0.94993 0.0
C348 C 0.80128 0.67727 0.90228 0.0
C349 C 0.81363 0.68299 0.87598 0.0
C350 C 0.80806 0.67134 0.92838 0.0
C351 C 0.8276 0.67069 0.92805 0.0
C352 C 0.84127 0.67742 0.9021 0.0
C353 C 0.83396 0.68408 0.87638 0.0
C354 C 0.86266 0.67718 0.90135 0.0
C355 C 0.87349 0.67912 0.87353 0.0
C356 C 0.89342 0.67945 0.87237 0.0
C357 C 0.90269 0.6774 0.89901 0.0
C358 C 0.89238 0.6747 0.92678 0.0
C359 C 0.87251 0.67473 0.92803 0.0
H360 H 0.91877 0.68107 0.46041 0.0
H361 H 0.87246 0.69312 0.41518 0.0
H362 H 0.86257 0.67122 0.50849 0.0
H363 H 0.84401 0.68727 0.51275 0.0
H364 H 0.78863 0.68392 0.46975 0.0
H365 H 0.83717 0.68165 0.41512 0.0
C366 C 0.90363 0.68138 0.4609 0.0
C367 C 0.89182 0.6765 0.48767 0.0
C368 C 0.89647 0.68684 0.43473 0.0
C369 C 0.87714 0.6879 0.43536 0.0
C370 C 0.86433 0.68248 0.46208 0.0
C371 C 0.87184 0.67615 0.48784 0.0
C372 C 0.84351 0.68359 0.46369 0.0
C373 C 0.83515 0.68536 0.49208 0.0
C374 C 0.81504 0.68462 0.49439 0.0
C375 C 0.80376 0.68364 0.46814 0.0
C376 C 0.81198 0.68321 0.43973 0.0
C377 C 0.83159 0.68279 0.43736 0.0
H378 H 0.34467 0.23967 0.46269 0.0
H379 H 0.33359 0.18186 0.4168 0.0
H380 H 0.35598 0.19389 0.51004 0.0
H381 H 0.34171 0.15971 0.51423 0.0
H382 H 0.34413 0.10743 0.47058 0.0
H383 H 0.34332 0.15705 0.41632 0.0
C384 C 0.3446 0.22429 0.46304 0.0
C385 C 0.34989 0.21749 0.48961 0.0
C386 C 0.3393 0.21181 0.43679 0.0
C387 C 0.33867 0.19158 0.43712 0.0
C388 C 0.34434 0.1842 0.4637 0.0
C389 C 0.35066 0.19804 0.48953 0.0
C390 C 0.34361 0.16236 0.46503 0.0
C391 C 0.34305 0.15264 0.49334 0.0
C392 C 0.34411 0.1334 0.49535 0.0
C393 C 0.34439 0.12286 0.46896 0.0
C394 C 0.34349 0.13096 0.44059 0.0
C395 C 0.34337 0.15082 0.43854 0.0
H396 H 0.91688 0.24622 0.46407 0.0
H397 H 0.86736 0.19375 0.41262 0.0
H398 H 0.86651 0.19229 0.51084 0.0
H399 H 0.83348 0.1697 0.50857 0.0
H400 H 0.78715 0.11223 0.46319 0.0
H401 H 0.84273 0.15948 0.41419 0.0
C402 C 0.90203 0.23051 0.46345 0.0
C403 C 0.892 0.22041 0.49037 0.0
C404 C 0.89343 0.22072 0.43565 0.0
C405 C 0.87387 0.20055 0.43455 0.0
C406 C 0.86301 0.18976 0.46159 0.0
C407 C 0.87292 0.20001 0.48941 0.0
C408 C 0.84162 0.16819 0.46129 0.0
C409 C 0.82892 0.16037 0.48795 0.0
C410 C 0.80972 0.14012 0.48885 0.0
C411 C 0.80188 0.12802 0.4624 0.0
C412 C 0.81349 0.13519 0.43537 0.0
C413 C 0.83361 0.1549 0.43498 0.0
H414 H 0.02666 0.45227 0.22942 0.0
H415 H 0.02857 0.50365 0.28287 0.0
H416 H 0.02728 0.50577 0.1849 0.0
H417 H 1.01281 0.52538 0.18915 0.0
H418 H 0.02364 0.58276 0.23494 0.0
H419 H 0.03766 0.53812 0.28121 0.0
C420 C 0.02631 0.46739 0.23086 0.0
C421 C 0.02571 0.47762 0.20433 0.0
C422 C 0.02802 0.477 0.25904 0.0
C423 C 0.02793 0.4969 0.26078 0.0
C424 C 0.02668 0.50752 0.23415 0.0
C425 C 0.0266 0.49785 0.20599 0.0
C426 C 0.02545 0.52839 0.23513 0.0
C427 C 0.01827 0.53514 0.20939 0.0
C428 C 0.01853 0.5551 0.2089 0.0
C429 C 0.02384 0.56753 0.23516 0.0
C430 C 0.0301 0.56119 0.26141 0.0
C431 C 0.03162 0.54203 0.26117 0.0
H432 H 0.44797 0.44619 0.2237 0.0
H433 H 0.50032 0.49452 0.27682 0.0
H434 H 0.49975 0.501 0.17938 0.0
H435 H 0.53472 0.51843 0.18298 0.0
H436 H 0.58157 0.57535 0.22959 0.0
H437 H 0.52304 0.53045 0.27545 0.0
C438 C 0.46354 0.46117 0.22487 0.0
C439 C 0.47339 0.4723 0.19836 0.0
C440 C 0.47288 0.46939 0.25302 0.0
C441 C 0.49305 0.48887 0.25482 0.0
C442 C 0.50366 0.50056 0.22821 0.0
C443 C 0.493 0.49223 0.20015 0.0
C444 C 0.52564 0.52118 0.22925 0.0
C445 C 0.53933 0.52805 0.20342 0.0
C446 C 0.559 0.54793 0.20322 0.0
C447 C 0.56619 0.56012 0.22969 0.0
C448 C 0.55364 0.55364 0.25591 0.0
C449 C 0.53307 0.53455 0.25549 0.0
H450 H 0.45426 1.0104 0.23391 0.0
H451 H 0.49849 0.99564 0.27986 0.0
H452 H 0.51122 0.02034 0.18791 0.0
H453 H 0.52898 1.00311 0.18432 0.0
H454 H 0.58342 1.00567 0.22933 0.0
H455 H 0.53444 1.00875 0.282 0.0
C456 C 0.46937 1.01002 0.23407 0.0
C457 C 0.48166 0.01516 0.20773 0.0
C458 C 0.47552 1.00345 0.2602 0.0
C459 C 0.49458 1.00186 0.25997 0.0
C460 C 0.50816 1.00806 0.23401 0.0
C461 C 0.50148 0.01518 0.20816 0.0
C462 C 0.52884 1.00669 0.23325 0.0
C463 C 0.53751 1.00481 0.20526 0.0
C464 C 0.5575 1.00524 0.20371 0.0
C465 C 0.56836 1.00612 0.23038 0.0
C466 C 0.55986 1.00679 0.25847 0.0
C467 C 0.54031 1.00742 0.26004 0.0
H468 H 0.5831 1.01251 0.79931 0.0
H469 H 0.53673 0.02338 0.75237 0.0
H470 H 0.52484 0.99883 0.84458 0.0
H471 H 0.50249 1.00996 0.84812 0.0
H472 H 0.45014 1.01016 0.80156 0.0
H473 H 0.50268 0.01358 0.75009 0.0
C474 C 0.56747 1.01182 0.79891 0.0
C475 C 0.55498 1.00607 0.82506 0.0
C476 C 0.56064 0.01742 0.77256 0.0
C477 C 0.54093 0.01774 0.77254 0.0
C478 C 0.52717 1.01096 0.79841 0.0
C479 C 0.5345 1.00458 0.82436 0.0
C480 C 0.50569 1.01093 0.7989 0.0
C481 C 0.49513 1.00971 0.82671 0.0
C482 C 0.47508 1.00915 0.82764 0.0
C483 C 0.46547 1.01025 0.80076 0.0
C484 C 0.47557 1.01227 0.77299 0.0
C485 C 0.49553 1.01245 0.77197 0.0
H486 H 1.01689 0.57748 0.79753 0.0
H487 H 1.01444 0.52541 0.74558 0.0
H488 H 1.01713 0.52501 0.84377 0.0
H489 H 0.02654 0.50159 0.84088 0.0
H490 H 1.01375 0.44362 0.79499 0.0
H491 H 1.00673 0.49189 0.74643 0.0
C492 C 1.01662 0.56202 0.79674 0.0
C493 C 1.0178 0.55237 0.82352 0.0
C494 C 1.01508 0.55215 0.76889 0.0
C495 C 1.01515 0.53227 0.76758 0.0
C496 C 1.01635 0.52184 0.79445 0.0
C497 C 1.01733 0.53231 0.82237 0.0
C498 C 1.01629 0.50023 0.79384 0.0
C499 C 0.02142 0.49226 0.8203 0.0
C500 C 0.01965 0.4716 0.82107 0.0
C501 C 1.01447 0.45931 0.7947 0.0
C502 C 1.01042 0.46686 0.76781 0.0
C503 C 1.01084 0.48701 0.76736 0.0
H504 H 0.58729 0.57768 0.79867 0.0
H505 H 0.53847 0.5256 0.74574 0.0
H506 H 0.53412 0.52509 0.84371 0.0
H507 H 0.50038 0.50388 0.8389 0.0
H508 H 0.45589 0.44549 0.79321 0.0
H509 H 0.51427 0.49102 0.7479 0.0
C510 C 0.57205 0.56236 0.79743 0.0
C511 C 0.56105 0.55258 0.82399 0.0
C512 C 0.56421 0.55255 0.76938 0.0
C513 C 0.54437 0.5326 0.76778 0.0
C514 C 0.53239 0.52229 0.79442 0.0
C515 C 0.54151 0.5326 0.82251 0.0
C516 C 0.51078 0.50095 0.79343 0.0
C517 C 0.49663 0.49398 0.81886 0.0
C518 C 0.47743 0.47364 0.81926 0.0
C519 C 0.47101 0.46097 0.79316 0.0
C520 C 0.48389 0.46742 0.76727 0.0
C521 C 0.50408 0.48701 0.76765 0.0
H522 H 0.69248 0.78408 0.56192 0.0
H523 H 0.70402 0.84132 0.61019 0.0
H524 H 0.68118 0.83059 0.51722 0.0
H525 H 0.69374 0.86416 0.51394 0.0
H526 H 0.69319 0.91658 0.55995 0.0
H527 H 0.69432 0.86628 0.61213 0.0
C528 C 0.69186 0.79909 0.56275 0.0
C529 C 0.68693 0.80663 0.53658 0.0
C530 C 0.6975 0.81125 0.58945 0.0
C531 C 0.69853 0.83172 0.58977 0.0
C532 C 0.69268 0.83951 0.56376 0.0
C533 C 0.68648 0.82619 0.53751 0.0
C534 C 0.69336 0.86136 0.56324 0.0
C535 C 0.69309 0.87113 0.53528 0.0
C536 C 0.6926 0.89067 0.53406 0.0
C537 C 0.69346 0.90139 0.5608 0.0
C538 C 0.69453 0.89288 0.58872 0.0
C539 C 0.69417 0.87278 0.59014 0.0
H540 H 0.11629 0.78214 0.56859 0.0
H541 H 0.16214 0.83946 0.61589 0.0
H542 H 0.17249 0.82932 0.52179 0.0
H543 H 0.19377 0.8629 0.51862 0.0
H544 H 0.24674 0.91537 0.56428 0.0
H545 H 0.19529 0.86578 0.61671 0.0
C546 C 0.1314 0.79763 0.56858 0.0
C547 C 0.14334 0.8051 0.54202 0.0
C548 C 0.13845 0.80971 0.59519 0.0
C549 C 0.1577 0.83015 0.59521 0.0
C550 C 0.17066 0.83818 0.56867 0.0
C551 C 0.16326 0.82475 0.54243 0.0
C552 C 0.19158 0.86019 0.56789 0.0
C553 C 0.20143 0.86995 0.5399 0.0
C554 C 0.22161 0.88927 0.53866 0.0
C555 C 0.23164 0.89992 0.56539 0.0
C556 C 0.22186 0.89183 0.59335 0.0
C557 C 0.20205 0.87189 0.59469 0.0
H558 H 0.11642 0.34072 0.56715 0.0
H559 H 0.16352 0.33054 0.61339 0.0
H560 H 0.17305 0.35137 0.51955 0.0
H561 H 0.19345 0.33759 0.51604 0.0
H562 H 0.2483 0.34099 0.5604 0.0
H563 H 0.19792 0.3405 0.61398 0.0
C564 C 0.13171 0.34069 0.5668 0.0
C565 C 0.14356 0.34558 0.54007 0.0
C566 C 0.13915 0.33587 0.59322 0.0
C567 C 0.15872 0.33528 0.5929 0.0
C568 C 0.17156 0.3406 0.56625 0.0
C569 C 0.16378 0.3464 0.54019 0.0
C570 C 0.19275 0.34007 0.56518 0.0
C571 C 0.20188 0.33923 0.53702 0.0
C572 C 0.22221 0.34042 0.53527 0.0
C573 C 0.23311 0.34115 0.5618 0.0
C574 C 0.22416 0.34056 0.59007 0.0
C575 C 0.20415 0.3403 0.59183 0.0
H576 H 0.04081 0.44354 0.08016 0.0
H577 H 0.98509 0.38412 0.11097 0.0
H578 H 0.9829 0.40296 0.15598 0.0
H579 H 0.99761 0.43604 0.18737 0.0
H580 H 0.05258 0.4957 0.15587 0.0
H581 H 0.05406 0.47717 0.10999 0.0
C582 C 0.02821 0.4347 0.09676 0.0
C583 C 1.01329 0.41238 0.09241 0.0
C584 C 0.02682 0.44573 0.12229 0.0
C585 C 0.99681 0.40126 0.11383 0.0
C586 C 0.99555 0.41203 0.13956 0.0
C587 C 1.00981 0.44498 0.17031 0.0
C588 C 0.02502 0.46716 0.17498 0.0
C589 C 1.01056 0.43421 0.1441 0.0
C590 C 0.04061 0.47866 0.15264 0.0
C591 C 0.04156 0.46803 0.12656 0.0
H592 H 0.61907 0.58053 0.0871 0.0
H593 H 0.61407 0.63774 0.10573 0.0
H594 H 0.5906 0.61955 0.14873 0.0
H595 H 0.5714 0.58764 0.18093 0.0
H596 H 0.57486 0.52966 0.16283 0.0
H597 H 0.5986 0.54764 0.11928 0.0
C598 C 0.61297 0.58902 0.1008 0.0
C599 C 0.61845 0.61053 0.09339 0.0
C600 C 0.599 0.57824 0.12526 0.0
C601 C 0.61013 0.62122 0.11097 0.0
C602 C 0.59666 0.61082 0.13552 0.0
C603 C 0.57736 0.57893 0.16741 0.0
C604 C 0.57159 0.55746 0.17513 0.0
C605 C 0.59094 0.58936 0.14277 0.0
C606 C 0.57906 0.54619 0.1572 0.0
C607 C 0.59275 0.55654 0.1325 0.0
H608 H 0.45066 0.04398 0.09058 0.0
H609 H 0.39163 0.98422 0.11157 0.0
H610 H 0.40929 0.9783 0.15474 0.0
H611 H 0.44129 0.98947 0.1861 0.0
H612 H 0.50096 0.04864 0.16631 0.0
H613 H 0.48352 0.05516 0.12261 0.0
C614 C 0.44165 0.02983 0.10487 0.0
C615 C 0.41979 0.01463 0.09796 0.0
C616 C 0.45211 0.02624 0.12952 0.0
C617 C 0.40843 0.99616 0.11636 0.0
C618 C 0.41853 0.99271 0.14101 0.0
C619 C 0.4505 1.00387 0.17229 0.0
C620 C 0.47232 0.01867 0.17959 0.0
C621 C 0.44035 1.00753 0.14766 0.0
C622 C 0.48417 0.03698 0.1611 0.0
C623 C 0.47413 0.04077 0.1363 0.0
H624 H 0.42189 0.98804 0.94962 0.0
H625 H 0.4189 0.04491 0.92209 0.0
H626 H 0.44028 0.04842 0.87716 0.0
H627 H 0.46012 0.03566 0.84595 0.0
H628 H 0.46495 0.97991 0.87376 0.0
H629 H 0.44308 0.97589 0.91874 0.0
C630 C 0.42575 1.001 0.93353 0.0
C631 C 0.41862 0.01604 0.93887 0.0
C632 C 0.43868 1.00334 0.90815 0.0
C633 C 0.42411 0.03309 0.91831 0.0
C634 C 0.43641 0.03516 0.89271 0.0
C635 C 0.45642 0.02266 0.86194 0.0
C636 C 0.46401 1.00803 0.85655 0.0
C637 C 0.44388 0.02048 0.88751 0.0
C638 C 0.45938 0.99144 0.87759 0.0
C639 C 0.44673 0.98904 0.90312 0.0
H640 H 0.04543 0.44065 0.94055 0.0
H641 H 0.98389 0.38295 0.92176 0.0
H642 H 0.97922 0.40026 0.87701 0.0
H643 H 0.99228 0.43171 0.84347 0.0
H644 H 0.05308 0.49006 0.86223 0.0
H645 H 0.05822 0.47278 0.90712 0.0
C646 C 0.03111 0.43183 0.92647 0.0
C647 C 1.01511 0.41047 0.93434 0.0
C648 C 0.02828 0.44208 0.90103 0.0
C649 C 0.99645 0.39938 0.9162 0.0
C650 C 0.99374 0.40927 0.89063 0.0
C651 C 1.00669 0.44063 0.85737 0.0
C652 C 0.02236 0.46206 0.84949 0.0
C653 C 1.00948 0.43061 0.88293 0.0
C654 C 0.04076 0.47358 0.86796 0.0
C655 C 0.04375 0.46364 0.89345 0.0
H656 H 0.59245 0.60748 0.94491 0.0
H657 H 0.65201 0.60913 0.92007 0.0
H658 H 0.63431 0.58684 0.8756 0.0
H659 H 0.60202 0.56687 0.84377 0.0
H660 H 0.54175 0.5634 0.86901 0.0
H661 H 0.55934 0.58587 0.91378 0.0
C662 C 0.60154 0.60311 0.92951 0.0
C663 C 0.62357 0.61017 0.93544 0.0
C664 C 0.59103 0.58966 0.90443 0.0
C665 C 0.63508 0.604 0.9158 0.0
C666 C 0.62495 0.59118 0.89047 0.0
C667 C 0.59272 0.57095 0.85921 0.0
C668 C 0.57068 0.5636 0.85313 0.0
C669 C 0.60294 0.58386 0.88465 0.0
C670 C 0.55871 0.56875 0.87341 0.0
C671 C 0.56882 0.58176 0.89879 0.0
H672 H 0.04298 0.60733 0.94461 0.0
H673 H 0.98573 0.6106 0.92071 0.0
H674 H 0.98044 0.58829 0.876 0.0
H675 H 0.99207 0.56793 0.84351 0.0
H676 H 0.04805 0.56269 0.86817 0.0
H677 H 0.05363 0.58521 0.91307 0.0
C678 C 0.02949 0.60327 0.92942 0.0
C679 C 1.01492 0.61082 0.9357 0.0
C680 C 0.02615 0.58983 0.90416 0.0
C681 C 0.99721 0.60506 0.91625 0.0
C682 C 0.99414 0.59226 0.89074 0.0
C683 C 1.00542 0.57164 0.85885 0.0
C684 C 0.01968 0.56375 0.85255 0.0
C685 C 1.00845 0.58451 0.88451 0.0
C686 C 0.03677 0.56845 0.87271 0.0
C687 C 0.04006 0.58148 0.89821 0.0
H688 H 0.41618 0.4433 0.93432 0.0
H689 H 0.41917 0.38475 0.91763 0.0
H690 H 0.4433 0.40213 0.87493 0.0
H691 H 0.46367 0.43373 0.84249 0.0
H692 H 0.46174 0.49279 0.85843 0.0
H693 H 0.4375 0.47567 0.90176 0.0
C694 C 0.42197 0.43431 0.92114 0.0
C695 C 0.41572 0.41266 0.92906 0.0
C696 C 0.43625 0.44458 0.89678 0.0
C697 C 0.42367 0.40137 0.91205 0.0
C698 C 0.43752 0.41131 0.88765 0.0
C699 C 0.4579 0.44286 0.85541 0.0
C700 C 0.4643 0.46442 0.84713 0.0
C701 C 0.44396 0.43289 0.87991 0.0
C702 C 0.45708 0.4762 0.86443 0.0
C703 C 0.44311 0.46634 0.88902 0.0
H704 H 0.58813 0.97898 0.94109 0.0
H705 H 0.64454 0.04179 0.92359 0.0
H706 H 0.62611 0.04708 0.88075 0.0
H707 H 0.59427 0.03403 0.84815 0.0
H708 H 0.53732 0.97175 0.865 0.0
H709 H 0.55542 0.96625 0.90872 0.0
C710 C 0.59642 0.99373 0.92773 0.0
C711 C 0.61778 1.0099 0.9354 0.0
C712 C 0.58554 0.99687 0.90331 0.0
C713 C 0.62816 0.02909 0.91818 0.0
C714 C 0.61761 0.03215 0.8937 0.0
C715 C 0.58582 0.01924 0.86142 0.0
C716 C 0.56459 1.00321 0.85329 0.0
C717 C 0.59634 0.0162 0.88612 0.0
C718 C 0.55364 0.98432 0.87094 0.0
C719 C 0.56406 0.98113 0.89573 0.0
H720 H 0.58898 0.98469 0.08111 0.0
H721 H 0.64939 0.04054 0.10922 0.0
H722 H 0.6315 0.04466 0.15383 0.0
H723 H 0.59892 0.0319 0.18539 0.0
H724 H 0.5383 0.97667 0.15688 0.0
H725 H 0.55593 0.97305 0.11145 0.0
C726 C 0.59827 0.9977 0.09707 0.0
C727 C 0.62058 1.01213 0.09203 0.0
C728 C 0.58778 1.0002 0.12238 0.0
C729 C 0.63225 0.02916 0.11263 0.0
C730 C 0.62202 0.03154 0.13812 0.0
C731 C 0.58957 0.01913 0.16912 0.0
C732 C 0.56738 1.00449 0.17451 0.0
C733 C 0.59983 0.01712 0.14325 0.0
C734 C 0.55535 0.98821 0.15311 0.0
C735 C 0.56547 0.98604 0.1273 0.0
H736 H 0.99093 0.58484 0.08945 0.0
H737 H 0.05215 0.64302 0.10773 0.0
H738 H 0.0572 0.62619 0.15265 0.0
H739 H 0.04486 0.59499 0.18619 0.0
H740 H 0.9846 0.53588 0.16825 0.0
H741 H 0.97869 0.55276 0.12341 0.0
C742 C 1.00522 0.59384 0.10352 0.0
C743 C 0.02108 0.61522 0.0954 0.0
C744 C 1.00833 0.5838 0.12908 0.0
C745 C 0.03972 0.62658 0.11349 0.0
C746 C 0.04265 0.61696 0.13915 0.0
C747 C 0.03037 0.58581 0.17252 0.0
C748 C 1.01509 0.56431 0.18062 0.0
C749 C 0.02718 0.59558 0.14701 0.0
C750 C 0.99661 0.55245 0.16239 0.0
C751 C 0.99319 0.56216 0.13691 0.0
H752 H 0.42075 0.44289 0.07594 0.0
H753 H 0.41482 0.38145 0.10224 0.0
H754 H 0.43722 0.39864 0.14684 0.0
H755 H 0.45778 0.43088 0.17892 0.0
H756 H 0.46437 0.49249 0.15247 0.0
H757 H 0.44281 0.47559 0.10693 0.0
C758 C 0.42427 0.43323 0.09151 0.0
C759 C 0.4159 0.41084 0.08594 0.0
C760 C 0.43746 0.4433 0.11686 0.0
C761 C 0.42096 0.39866 0.10604 0.0
C762 C 0.4338 0.40849 0.13153 0.0
C763 C 0.45455 0.44061 0.16309 0.0
C764 C 0.46254 0.46286 0.16908 0.0
C765 C 0.44205 0.43076 0.13719 0.0
C766 C 0.45852 0.47538 0.14822 0.0
C767 C 0.44604 0.46567 0.12236 0.0
H768 H 0.69939 0.77055 0.41278 0.0
H769 H 0.65049 0.70975 0.45112 0.0
H770 H 0.64814 0.72908 0.49561 0.0
H771 H 0.66118 0.7633 0.52439 0.0
H772 H 0.70857 0.82418 0.48437 0.0
H773 H 0.70998 0.80491 0.43941 0.0
C774 C 0.68828 0.76156 0.43096 0.0
C775 C 0.67541 0.73876 0.42904 0.0
C776 C 0.68657 0.77284 0.45593 0.0
C777 C 0.66067 0.72731 0.4523 0.0
C778 C 0.65931 0.73835 0.47766 0.0
C779 C 0.67157 0.77231 0.5056 0.0
C780 C 0.68477 0.79511 0.50766 0.0
C781 C 0.67229 0.76111 0.4798 0.0
C782 C 0.69809 0.80666 0.48316 0.0
C783 C 0.69907 0.79563 0.45759 0.0
H784 H 0.25758 0.93944 0.41548 0.0
H785 H 0.3156 0.94035 0.447 0.0
H786 H 0.29617 0.91952 0.49168 0.0
H787 H 0.26294 0.90177 0.52238 0.0
H788 H 0.20444 0.89939 0.49018 0.0
H789 H 0.22364 0.91971 0.44485 0.0
C790 C 0.26598 0.93514 0.43222 0.0
C791 C 0.28808 0.94166 0.42814 0.0
C792 C 0.25455 0.92273 0.45752 0.0
C793 C 0.29863 0.93561 0.44969 0.0
C794 C 0.28752 0.92368 0.47521 0.0
C795 C 0.25439 0.90559 0.50527 0.0
C796 C 0.23235 0.89918 0.50956 0.0
C797 C 0.26552 0.91722 0.4794 0.0
C798 C 0.22136 0.90401 0.4872 0.0
C799 C 0.23238 0.91578 0.46145 0.0
H800 H 0.11296 0.37423 0.42248 0.0
H801 H 0.05372 0.31453 0.44276 0.0
H802 H 0.07097 0.30869 0.48663 0.0
H803 H 0.10282 0.32001 0.51881 0.0
H804 H 0.16273 0.37888 0.49868 0.0
H805 H 0.1455 0.38535 0.45482 0.0
C806 C 0.1038 0.36009 0.43674 0.0
C807 C 0.082 0.34492 0.4295 0.0
C808 C 0.11403 0.35652 0.46167 0.0
C809 C 0.07047 0.32646 0.44785 0.0
C810 C 0.08034 0.32307 0.4729 0.0
C811 C 0.11211 0.33432 0.50486 0.0
C812 C 0.13398 0.34903 0.5121 0.0
C813 C 0.10211 0.33789 0.4799 0.0
C814 C 0.14591 0.36726 0.49349 0.0
C815 C 0.13601 0.37103 0.46857 0.0
H816 H 0.11499 0.36751 0.28681 0.0
H817 H 0.05365 0.31824 0.25003 0.0
H818 H 0.07215 0.31569 0.20489 0.0
H819 H 0.10569 0.32871 0.17497 0.0
H820 H 0.16712 0.37687 0.21289 0.0
H821 H 0.14877 0.37824 0.25882 0.0
C822 C 0.10568 0.35625 0.26886 0.0
C823 C 0.08295 0.34333 0.27148 0.0
C824 C 0.11648 0.35451 0.24336 0.0
C825 C 0.07114 0.32845 0.24841 0.0
C826 C 0.08171 0.32697 0.22264 0.0
C827 C 0.11504 0.3393 0.19348 0.0
C828 C 0.13771 0.35272 0.19053 0.0
C829 C 0.10436 0.34005 0.21977 0.0
C830 C 0.14969 0.36624 0.21474 0.0
C831 C 0.13918 0.36719 0.24087 0.0
H832 H 0.65657 0.7462 0.28341 0.0
H833 H 0.71363 0.74391 0.25544 0.0
H834 H 0.71675 0.76543 0.21069 0.0
H835 H 0.70287 0.78424 0.17894 0.0
H836 H 0.64671 0.78789 0.20737 0.0
H837 H 0.64385 0.7669 0.25287 0.0
C838 C 0.66961 0.75033 0.26741 0.0
C839 C 0.6847 0.74324 0.27254 0.0
C840 C 0.67159 0.76315 0.24204 0.0
C841 C 0.70177 0.74909 0.25195 0.0
C842 C 0.70358 0.76142 0.22638 0.0
C843 C 0.6901 0.78054 0.19525 0.0
C844 C 0.67497 0.7875 0.18984 0.0
C845 C 0.68857 0.76848 0.22118 0.0
C846 C 0.65863 0.78284 0.21122 0.0
C847 C 0.65689 0.77068 0.23705 0.0
H848 H 0.28261 0.91404 0.28221 0.0
H849 H 0.28487 0.97342 0.25368 0.0
H850 H 0.2632 0.95486 0.2091 0.0
H851 H 0.24424 0.92204 0.17767 0.0
H852 H 0.24077 0.86224 0.20644 0.0
H853 H 0.26188 0.88051 0.25186 0.0
C854 C 0.27845 0.92293 0.26613 0.0
C855 C 0.28558 0.94517 0.27108 0.0
C856 C 0.26558 0.91202 0.24081 0.0
C857 C 0.27968 0.95635 0.25036 0.0
C858 C 0.26726 0.94574 0.22488 0.0
C859 C 0.24803 0.91299 0.19402 0.0
C860 C 0.24108 0.89087 0.18871 0.0
C861 C 0.26018 0.92362 0.21986 0.0
C862 C 0.24583 0.87924 0.21017 0.0
C863 C 0.25805 0.88974 0.23596 0.0
H864 H 0.71569 0.94531 0.27027 0.0
H865 H 0.65534 0.94396 0.25132 0.0
H866 H 0.64871 0.91985 0.20848 0.0
H867 H 0.65941 0.89864 0.17696 0.0
H868 H 0.71898 0.89844 0.19517 0.0
H869 H 0.72633 0.92316 0.23822 0.0
C870 C 0.70127 0.93992 0.25646 0.0
C871 C 0.68611 0.94658 0.26379 0.0
C872 C 0.69724 0.9255 0.23211 0.0
C873 C 0.66726 0.93913 0.24611 0.0
C874 C 0.66341 0.92528 0.22167 0.0
C875 C 0.67407 0.90405 0.19031 0.0
C876 C 0.68873 0.8969 0.18277 0.0
C877 C 0.67817 0.91824 0.21463 0.0
C878 C 0.70741 0.90367 0.20061 0.0
C879 C 0.71168 0.91793 0.22503 0.0
H880 H 0.08734 0.77781 0.27432 0.0
H881 H 0.08745 0.71804 0.2555 0.0
H882 H 0.10965 0.73437 0.21084 0.0
H883 H 0.12957 0.76552 0.17761 0.0
H884 H 0.13115 0.82607 0.19586 0.0
H885 H 0.10819 0.8098 0.2406 0.0
C886 C 0.09207 0.76836 0.2602 0.0
C887 C 0.08563 0.74668 0.26812 0.0
C888 C 0.10537 0.77807 0.23473 0.0
C889 C 0.09218 0.73473 0.24993 0.0
C890 C 0.10492 0.74406 0.2244 0.0
C891 C 0.12481 0.77515 0.19131 0.0
C892 C 0.13186 0.79689 0.18331 0.0
C893 C 0.11171 0.76571 0.21673 0.0
C894 C 0.12596 0.80931 0.20162 0.0
C895 C 0.11272 0.79995 0.22704 0.0
H896 H 0.28348 0.37204 0.27979 0.0
H897 H 0.27917 0.31215 0.24911 0.0
H898 H 0.25884 0.31222 0.20452 0.0
H899 H 0.24266 0.32951 0.17399 0.0
H900 H 0.24541 0.38843 0.20557 0.0
H901 H 0.26571 0.3884 0.2504 0.0
C902 C 0.27819 0.35907 0.26324 0.0
C903 C 0.28305 0.34224 0.26755 0.0
C904 C 0.26608 0.35896 0.23803 0.0
C905 C 0.27571 0.32532 0.24625 0.0
C906 C 0.26407 0.32534 0.22078 0.0
C907 C 0.24767 0.34229 0.19079 0.0
C908 C 0.24268 0.35901 0.18651 0.0
C909 C 0.2592 0.34208 0.21644 0.0
C910 C 0.24898 0.37534 0.20853 0.0
C911 C 0.2607 0.37539 0.234 0.0
H912 H 0.25497 0.32077 0.41317 0.0
H913 H 0.31451 0.37763 0.44139 0.0
H914 H 0.29609 0.38141 0.48559 0.0
H915 H 0.26336 0.36803 0.51689 0.0
H916 H 0.20355 0.31177 0.48841 0.0
H917 H 0.22163 0.30854 0.4432 0.0
C918 C 0.26394 0.33392 0.42908 0.0
C919 C 0.28617 0.34874 0.42419 0.0
C920 C 0.25313 0.33624 0.45416 0.0
C921 C 0.29744 0.36595 0.44469 0.0
C922 C 0.28691 0.36815 0.46994 0.0
C923 C 0.25427 0.35516 0.50063 0.0
C924 C 0.23219 0.3401 0.50597 0.0
C925 C 0.2648 0.35335 0.47494 0.0
C926 C 0.22051 0.32364 0.48464 0.0
C927 C 0.2309 0.32169 0.45897 0.0
H928 H 0.66667 0.91973 0.41323 0.0
H929 H 0.72331 0.98074 0.43714 0.0
H930 H 0.72901 0.96397 0.48181 0.0
H931 H 0.71792 0.93204 0.51416 0.0
H932 H 0.66257 0.87037 0.48937 0.0
H933 H 0.6566 0.88707 0.44459 0.0
C934 C 0.6801 0.92933 0.42844 0.0
C935 C 0.69438 0.95149 0.42223 0.0
C936 C 0.68371 0.91937 0.4536 0.0
C937 C 0.71205 0.96368 0.44163 0.0
C938 C 0.71536 0.95409 0.46708 0.0
C939 C 0.70464 0.92226 0.4988 0.0
C940 C 0.69067 0.90005 0.50502 0.0
C941 C 0.70135 0.93196 0.47323 0.0
C942 C 0.67364 0.88746 0.48486 0.0
C943 C 0.67011 0.89706 0.45945 0.0
H944 H 0.11364 0.74894 0.42158 0.0
H945 H 0.05468 0.74988 0.44217 0.0
H946 H 0.07147 0.77137 0.48744 0.0
H947 H 0.10292 0.79061 0.52052 0.0
H948 H 0.16273 0.79152 0.50014 0.0
H949 H 0.14584 0.76901 0.45511 0.0
C950 C 0.10447 0.75367 0.43623 0.0
C951 C 0.0829 0.7477 0.42869 0.0
C952 C 0.11447 0.76661 0.46196 0.0
C953 C 0.07129 0.75426 0.44752 0.0
C954 C 0.08088 0.76659 0.47336 0.0
C955 C 0.11224 0.7858 0.50628 0.0
C956 C 0.13397 0.79256 0.51371 0.0
C957 C 0.10247 0.773 0.48064 0.0
C958 C 0.146 0.78658 0.49478 0.0
C959 C 0.13629 0.7736 0.46919 0.0
H960 H 0.32332 0.07856 0.75845 0.0
H961 H 0.38393 0.08049 0.77751 0.0
H962 H 0.38999 0.1041 0.82088 0.0
H963 H 0.37846 0.12454 0.85305 0.0
H964 H 0.31863 0.12403 0.83391 0.0
H965 H 0.31206 0.09992 0.79051 0.0
C966 C 0.33773 0.08399 0.77231 0.0
C967 C 0.35307 0.07761 0.76491 0.0
C968 C 0.34139 0.09805 0.79691 0.0
C969 C 0.37186 0.08511 0.78274 0.0
C970 C 0.37537 0.09866 0.8075 0.0
C971 C 0.36395 0.11911 0.8394 0.0
C972 C 0.34898 0.12593 0.84676 0.0
C973 C 0.36032 0.10531 0.81469 0.0
C974 C 0.33044 0.11909 0.82858 0.0
C975 C 0.32662 0.10519 0.80394 0.0
H976 H 0.95003 0.24665 0.75514 0.0
H977 H 0.95097 0.30654 0.77705 0.0
H978 H 0.92867 0.28956 0.82141 0.0
H979 H 0.90822 0.25781 0.85332 0.0
H980 H 0.90576 0.19718 0.83227 0.0
H981 H 0.92886 0.2141 0.78782 0.0
C982 C 0.94553 0.25598 0.76989 0.0
C983 C 0.95227 0.27788 0.76291 0.0
C984 C 0.93218 0.24591 0.79519 0.0
C985 C 0.94602 0.28969 0.7819 0.0
C986 C 0.93321 0.27998 0.80724 0.0
C987 C 0.91284 0.2483 0.8391 0.0
C988 C 0.9055 0.22635 0.84621 0.0
C989 C 0.92607 0.25811 0.81394 0.0
C990 C 0.91118 0.2141 0.82721 0.0
C991 C 0.9245 0.22382 0.80196 0.0
H992 H 0.78292 0.71118 0.75818 0.0
H993 H 0.72461 0.65015 0.77676 0.0
H994 H 0.74193 0.64458 0.82072 0.0
H995 H 0.77353 0.65658 0.85355 0.0
H996 H 0.83245 0.71694 0.83544 0.0
H997 H 0.81522 0.72304 0.79122 0.0
C998 C 0.77397 0.69678 0.77205 0.0
C999 C 0.75242 0.68117 0.76429 0.0
C1000 C 0.78423 0.69343 0.79711 0.0
C1001 C 0.74117 0.66242 0.7822 0.0
C1002 C 0.75108 0.65919 0.80733 0.0
C1003 C 0.7826 0.67114 0.83999 0.0
C1004 C 0.80417 0.6864 0.84789 0.0
C1005 C 0.77259 0.6745 0.81488 0.0
C1006 C 0.81586 0.70494 0.82975 0.0
C1007 C 0.80594 0.70847 0.80463 0.0
H1008 H 0.78405 0.7056 0.61711 0.0
H1009 H 0.72387 0.64895 0.59019 0.0
H1010 H 0.74172 0.64454 0.5458 0.0
H1011 H 0.77407 0.65742 0.5138 0.0
H1012 H 0.83447 0.71354 0.54084 0.0
H1013 H 0.81703 0.71725 0.58645 0.0
C1014 C 0.77482 0.69232 0.60148 0.0
C1015 C 0.75256 0.67777 0.60679 0.0
C1016 C 0.78528 0.68967 0.57623 0.0
C1017 C 0.74096 0.66043 0.5866 0.0
C1018 C 0.75117 0.65788 0.56122 0.0
C1019 C 0.78343 0.67038 0.52982 0.0
C1020 C 0.80548 0.68527 0.52394 0.0
C1021 C 0.77326 0.67247 0.55574 0.0
C1022 C 0.81752 0.70181 0.545 0.0
C1023 C 0.8075 0.70403 0.57091 0.0
H1024 H 0.3259 0.08288 0.61893 0.0
H1025 H 0.38157 0.0784 0.58984 0.0
H1026 H 0.38498 0.10008 0.54513 0.0
H1027 H 0.3715 0.11938 0.51355 0.0
H1028 H 0.31636 0.12459 0.54288 0.0
H1029 H 0.31365 0.10397 0.58865 0.0
C1030 C 0.33873 0.08659 0.60275 0.0
C1031 C 0.35331 0.0788 0.60754 0.0
C1032 C 0.34082 0.09937 0.57733 0.0
C1033 C 0.37009 0.0841 0.58664 0.0
C1034 C 0.37207 0.09652 0.56109 0.0
C1035 C 0.35898 0.1161 0.5301 0.0
C1036 C 0.34409 0.1234 0.52484 0.0
C1037 C 0.35746 0.10413 0.55614 0.0
C1038 C 0.32811 0.11929 0.54656 0.0
C1039 C 0.32644 0.10733 0.57256 0.0
H1040 H 0.92173 0.27265 0.61364 0.0
H1041 H 0.98323 0.28022 0.5852 0.0
H1042 H 0.96627 0.25896 0.53967 0.0
H1043 H 0.93396 0.23788 0.50819 0.0
H1044 H 0.87187 0.22836 0.53723 0.0
H1045 H 0.88884 0.25021 0.58261 0.0
C1046 C 0.93139 0.26982 0.59723 0.0
C1047 C 0.95374 0.27821 0.60247 0.0
C1048 C 0.92135 0.25693 0.57153 0.0
C1049 C 0.96603 0.27402 0.58149 0.0
C1050 C 0.95633 0.2618 0.55554 0.0
C1051 C 0.92416 0.24056 0.52453 0.0
C1052 C 0.90174 0.23162 0.51938 0.0
C1053 C 0.934 0.25307 0.55043 0.0
C1054 C 0.88914 0.23495 0.54087 0.0
C1055 C 0.89887 0.2476 0.56664 0.0
H1056 H 0.38061 0.27833 0.60547 0.0
H1057 H 0.32068 0.27787 0.58657 0.0
H1058 H 0.3139 0.25387 0.54349 0.0
H1059 H 0.3246 0.23276 0.51146 0.0
H1060 H 0.38386 0.23198 0.52998 0.0
H1061 H 0.39108 0.25629 0.57338 0.0
C1062 C 0.3662 0.27312 0.59171 0.0
C1063 C 0.35125 0.28003 0.5991 0.0
C1064 C 0.36213 0.25887 0.56721 0.0
C1065 C 0.33245 0.27284 0.58138 0.0
C1066 C 0.32852 0.25907 0.55677 0.0
C1067 C 0.33914 0.23796 0.52497 0.0
C1068 C 0.35376 0.23073 0.51742 0.0
C1069 C 0.34317 0.25192 0.54959 0.0
C1070 C 0.37231 0.23724 0.53544 0.0
C1071 C 0.37651 0.25126 0.56008 0.0
H1072 H 0.77712 0.0914 0.61323 0.0
H1073 H 0.7154 0.07964 0.57849 0.0
H1074 H 0.73338 0.10097 0.53326 0.0
H1075 H 0.76671 0.12205 0.50293 0.0
H1076 H 0.82856 0.13555 0.53953 0.0
H1077 H 0.81059 0.11486 0.58499 0.0
C1078 C 0.76763 0.09347 0.59568 0.0
C1079 C 0.74496 0.0837 0.59885 0.0
C1080 C 0.77814 0.10626 0.57028 0.0
C1081 C 0.73287 0.08691 0.57636 0.0
C1082 C 0.74314 0.09911 0.55057 0.0
C1083 C 0.77621 0.12063 0.52107 0.0
C1084 C 0.79891 0.13028 0.51794 0.0
C1085 C 0.76577 0.10878 0.54722 0.0
C1086 C 0.8111 0.12846 0.5416 0.0
C1087 C 0.80082 0.11646 0.56745 0.0
H1088 H 0.92225 0.64949 0.60697 0.0
H1089 H 0.98146 0.70884 0.58538 0.0
H1090 H 0.96439 0.71371 0.54057 0.0
H1091 H 0.9326 0.70195 0.50836 0.0
H1092 H 0.87259 0.64352 0.52961 0.0
H1093 H 0.88978 0.63765 0.57408 0.0
C1094 C 0.93143 0.66329 0.59217 0.0
C1095 C 0.95314 0.67871 0.59934 0.0
C1096 C 0.92128 0.66634 0.56671 0.0
C1097 C 0.96475 0.69676 0.58033 0.0
C1098 C 0.95499 0.6996 0.55475 0.0
C1099 C 0.9233 0.68783 0.52262 0.0
C1100 C 0.90142 0.67309 0.51559 0.0
C1101 C 0.93325 0.68463 0.54791 0.0
C1102 C 0.88944 0.65514 0.53463 0.0
C1103 C 0.89931 0.65173 0.5599 0.0
H1104 H 0.94755 0.70417 0.7509 0.0
H1105 H 0.95019 0.64641 0.77448 0.0
H1106 H 0.92836 0.6415 0.81938 0.0
H1107 H 0.90842 0.65342 0.85193 0.0
H1108 H 0.90408 0.71013 0.82813 0.0
H1109 H 0.92619 0.71541 0.78298 0.0
C1110 C 0.94348 0.69065 0.76608 0.0
C1111 C 0.95066 0.67579 0.75959 0.0
C1112 C 0.93036 0.68757 0.79153 0.0
C1113 C 0.94492 0.65809 0.77906 0.0
C1114 C 0.93238 0.65523 0.80469 0.0
C1115 C 0.91229 0.6669 0.83679 0.0
C1116 C 0.90476 0.68144 0.84337 0.0
C1117 C 0.92495 0.6698 0.81107 0.0
C1118 C 0.9096 0.69867 0.82339 0.0
C1119 C 0.92238 0.70178 0.79775 0.0
H1120 H 0.37746 0.27502 0.7456 0.0
H1121 H 0.32132 0.27936 0.77266 0.0
H1122 H 0.3167 0.25676 0.8168 0.0
H1123 H 0.3292 0.23666 0.84847 0.0
H1124 H 0.38498 0.23182 0.82132 0.0
H1125 H 0.38883 0.25326 0.77599 0.0
C1126 C 0.36426 0.2711 0.76122 0.0
C1127 C 0.34991 0.27912 0.75601 0.0
C1128 C 0.36149 0.2578 0.78631 0.0
C1129 C 0.33266 0.27352 0.77619 0.0
C1130 C 0.32998 0.26056 0.80141 0.0
C1131 C 0.34212 0.2402 0.83249 0.0
C1132 C 0.35685 0.23275 0.83828 0.0
C1133 C 0.34435 0.2527 0.80675 0.0
C1134 C 0.37333 0.2372 0.81724 0.0
C1135 C 0.37566 0.24964 0.7915 0.0
H1136 H 0.75436 0.1102 0.74618 0.0
H1137 H 0.75332 0.05093 0.77202 0.0
H1138 H 0.77504 0.06898 0.81677 0.0
H1139 H 0.79368 0.10131 0.84915 0.0
H1140 H 0.79615 0.16111 0.82295 0.0
H1141 H 0.77492 0.14335 0.7774 0.0
C1142 C 0.75881 0.10124 0.76172 0.0
C1143 C 0.75202 0.07917 0.75598 0.0
C1144 C 0.77175 0.11189 0.78711 0.0
C1145 C 0.75827 0.06788 0.77598 0.0
C1146 C 0.77071 0.0782 0.80155 0.0
C1147 C 0.78968 0.11047 0.8333 0.0
C1148 C 0.79636 0.13243 0.83936 0.0
C1149 C 0.77749 0.10015 0.80736 0.0
C1150 C 0.7913 0.14423 0.8186 0.0
C1151 C 0.77901 0.13402 0.79274 0.0
H1152 H 0.10888 0.40582 0.02875 0.0
H1153 H 0.05381 0.3408 0.03682 0.0
H1154 H 0.07712 0.32824 0.05892 0.0
H1155 H 0.1118 0.33688 0.08271 0.0
H1156 H 0.16667 0.40187 0.07663 0.0
H1157 H 0.14506 0.41318 0.04626 0.0
C1158 C 0.10203 0.38882 0.03486 0.0
C1159 C 0.07949 0.37437 0.03153 0.0
C1160 C 0.11555 0.3817 0.04791 0.0
C1161 C 0.071 0.35235 0.03933 0.0
C1162 C 0.08434 0.34513 0.05204 0.0
C1163 C 0.11919 0.35332 0.07382 0.0
C1164 C 0.14077 0.36854 0.0818 0.0
C1165 C 0.10645 0.35981 0.05733 0.0
C1166 C 0.15019 0.38984 0.07044 0.0
C1167 C 0.13771 0.39635 0.05347 0.0
H1168 H 0.63687 0.71561 0.01961 0.0
H1169 H 0.69781 0.71914 0.04185 0.0
H1170 H 0.71057 0.75455 0.0657 0.0
H1171 H 0.70216 0.78155 0.08727 0.0
H1172 H 0.64127 0.77806 0.06599 0.0
H1173 H 0.631 0.74606 0.03407 0.0
C1174 C 0.65312 0.72432 0.02914 0.0
C1175 C 0.6662 0.71448 0.02933 0.0
C1176 C 0.66037 0.74474 0.04305 0.0
C1177 C 0.6873 0.72616 0.04151 0.0
C1178 C 0.69461 0.74644 0.05527 0.0
C1179 C 0.687 0.77423 0.0747 0.0
C1180 C 0.67248 0.78214 0.07892 0.0
C1181 C 0.681 0.7555 0.05712 0.0
C1182 C 0.65281 0.77244 0.06279 0.0
C1183 C 0.64682 0.75393 0.04491 0.0
H1184 H 0.30185 0.96153 0.0323 0.0
H1185 H 0.33 0.91976 0.0308 0.0
H1186 H 0.29626 0.88955 0.04996 0.0
H1187 H 0.26093 0.87667 0.0748 0.0
H1188 H 0.23306 0.91842 0.07836 0.0
H1189 H 0.26397 0.94657 0.05005 0.0
C1190 C 0.30046 0.94571 0.03561 0.0
C1191 C 0.31867 0.94313 0.03053 0.0
C1192 C 0.2809 0.92828 0.04696 0.0
C1193 C 0.31644 0.9224 0.03478 0.0
C1194 C 0.29708 0.90503 0.04577 0.0
C1195 C 0.26117 0.89152 0.06804 0.0
C1196 C 0.24456 0.89532 0.07807 0.0
C1197 C 0.27946 0.90796 0.05289 0.0
C1198 C 0.24539 0.91494 0.07017 0.0
C1199 C 0.26328 0.93119 0.05447 0.0
H1200 H 0.36119 0.07524 0.01307 0.0
H1201 H 0.42995 0.11169 0.99405 0.0
H1202 H 0.4256 0.14032 0.97034 0.0
H1203 H 0.40135 0.15207 0.94764 0.0
H1204 H 0.33273 0.11579 0.96614 0.0
H1205 H 0.33793 0.09049 0.99798 0.0
C1206 C 0.37528 0.08965 0.0043 0.0
C1207 C 0.3958 0.09105 0.00495 0.0
C1208 C 0.37268 0.1062 0.99057 0.0
C1209 C 0.41392 0.11001 0.99372 0.0
C1210 C 0.41146 0.12644 0.98004 0.0
C1211 C 0.38775 0.13923 0.95985 0.0
C1212 C 0.36675 0.13596 0.95502 0.0
C1213 C 0.39082 0.12437 0.97739 0.0
C1214 C 0.3491 0.11886 0.97014 0.0
C1215 C 0.35204 0.10419 0.98792 0.0
H1216 H 0.92713 0.30919 0.00133 0.0
H1217 H 0.98197 0.2985 0.00116 0.0
H1218 H 0.95896 0.26183 0.98125 0.0
H1219 H 0.92495 0.2352 0.95654 0.0
H1220 H 0.8706 0.24634 0.95382 0.0
H1221 H 0.89138 0.27999 0.98309 0.0
C1222 C 0.93398 0.29871 0.99747 0.0
C1223 C 0.9564 0.30681 0.00234 0.0
C1224 C 0.92066 0.27764 0.98553 0.0
C1225 C 0.96488 0.29287 0.99739 0.0
C1226 C 0.95171 0.27184 0.98596 0.0
C1227 C 0.91741 0.24462 0.96337 0.0
C1228 C 0.89627 0.23832 0.9531 0.0
C1229 C 0.9298 0.26436 0.97897 0.0
C1230 C 0.88672 0.2507 0.96179 0.0
C1231 C 0.89876 0.27014 0.97809 0.0
H1232 H 0.7237 0.62277 0.00507 0.0
H1233 H 0.73188 0.68743 0.00597 0.0
H1234 H 0.76826 0.7022 0.98486 0.0
H1235 H 0.79506 0.69588 0.95858 0.0
H1236 H 0.78648 0.63128 0.95505 0.0
H1237 H 0.75334 0.61742 0.98551 0.0
C1238 C 0.7336 0.64016 0.00125 0.0
C1239 C 0.72485 0.6539 0.00669 0.0
C1240 C 0.75448 0.64854 0.98857 0.0
C1241 C 0.73803 0.67642 0.00176 0.0
C1242 C 0.75887 0.6849 0.98962 0.0
C1243 C 0.78632 0.67892 0.96547 0.0
C1244 C 0.79315 0.6646 0.95469 0.0
C1245 C 0.76691 0.67101 0.9819 0.0
C1246 C 0.78166 0.64263 0.96342 0.0
C1247 C 0.76254 0.63468 0.98043 0.0
H1248 H 0.93011 0.63012 0.00898 0.0
H1249 H 0.98858 0.6919 0.99489 0.0
H1250 H 0.96723 0.70661 0.97231 0.0
H1251 H 0.93292 0.70011 0.94934 0.0
H1252 H 0.87456 0.63828 0.96188 0.0
H1253 H 0.89467 0.62563 0.99301 0.0
C1254 C 0.93815 0.64694 0.00153 0.0
C1255 C 0.96102 0.65974 0.00322 0.0
C1256 C 0.92574 0.6553 0.98822 0.0
C1257 C 0.97107 0.68158 0.99369 0.0
C1258 C 0.95886 0.69002 0.98067 0.0
C1259 C 0.92448 0.68415 0.95983 0.0
C1260 C 0.90231 0.67012 0.95334 0.0
C1261 C 0.93632 0.6768 0.97684 0.0
C1262 C 0.89155 0.64944 0.96684 0.0
C1263 C 0.90315 0.64211 0.98425 0.0
H1264 H 0.39257 0.30604 0.00487 0.0
H1265 H 0.33198 0.30211 0.97933 0.0
H1266 H 0.31921 0.26591 0.95799 0.0
H1267 H 0.32774 0.23831 0.93918 0.0
H1268 H 0.38856 0.24254 0.96327 0.0
H1269 H 0.39846 0.27521 0.99344 0.0
C1270 C 0.3764 0.2971 0.99514 0.0
C1271 C 0.36342 0.307 0.99323 0.0
C1272 C 0.36919 0.27627 0.98268 0.0
C1273 C 0.3424 0.29502 0.98091 0.0
C1274 C 0.33509 0.2743 0.96862 0.0
C1275 C 0.34278 0.24594 0.95204 0.0
C1276 C 0.35743 0.23808 0.949 0.0
C1277 C 0.34865 0.26513 0.96839 0.0
C1278 C 0.37693 0.24814 0.96553 0.0
C1279 C 0.38273 0.26704 0.98236 0.0
H1280 H 0.72482 0.09566 0.008 0.0
H1281 H 0.72867 0.03877 0.9829 0.0
H1282 H 0.76425 0.06194 0.96016 0.0
H1283 H 0.79137 0.09787 0.94038 0.0
H1284 H 0.78743 0.15474 0.96437 0.0
H1285 H 0.75526 0.13228 0.99532 0.0
C1286 C 0.73362 0.08834 0.99805 0.0
C1287 C 0.72384 0.06543 0.99674 0.0
C1288 C 0.75413 0.10182 0.98482 0.0
C1289 C 0.73565 0.05628 0.98408 0.0
C1290 C 0.75602 0.06955 0.97097 0.0
C1291 C 0.78393 0.10542 0.95338 0.0
C1292 C 0.79176 0.12793 0.95017 0.0
C1293 C 0.76506 0.09227 0.97029 0.0
C1294 C 0.78189 0.13753 0.96681 0.0
C1295 C 0.76327 0.1246 0.9841 0.0
H1296 H 0.62484 0.91571 0.02871 0.0
H1297 H 0.69027 0.97049 0.02595 0.0
H1298 H 0.70424 0.94777 0.04598 0.0
H1299 H 0.69729 0.91423 0.07172 0.0
H1300 H 0.63198 0.85999 0.0774 0.0
H1301 H 0.61859 0.88025 0.04792 0.0
C1302 C 0.6422 0.92259 0.03196 0.0
C1303 C 0.65644 0.94493 0.02627 0.0
C1304 C 0.65014 0.90945 0.04399 0.0
C1305 C 0.6789 0.95346 0.03041 0.0
C1306 C 0.68692 0.94046 0.04189 0.0
C1307 C 0.68024 0.90659 0.06548 0.0
C1308 C 0.66562 0.88567 0.07662 0.0
C1309 C 0.67263 0.91869 0.04975 0.0
C1310 C 0.64355 0.87595 0.06873 0.0
C1311 C 0.63588 0.88769 0.05231 0.0
H1312 H 0.11015 0.71367 0.02657 0.0
H1313 H 0.05558 0.72478 0.02613 0.0
H1314 H 0.07846 0.76108 0.04721 0.0
H1315 H 0.11221 0.78725 0.07293 0.0
H1316 H 0.16641 0.77589 0.07584 0.0
H1317 H 0.14577 0.74254 0.04589 0.0
C1318 C 0.10335 0.72418 0.03051 0.0
C1319 C 0.08101 0.71627 0.02512 0.0
C1320 C 0.1166 0.74507 0.04313 0.0
C1321 C 0.0726 0.73025 0.03026 0.0
C1322 C 0.08569 0.75107 0.04239 0.0
C1323 C 0.11975 0.77785 0.06604 0.0
C1324 C 0.14081 0.78402 0.07649 0.0
C1325 C 0.10747 0.75833 0.04987 0.0
C1326 C 0.15035 0.77164 0.06772 0.0
C1327 C 0.1384 0.75238 0.051 0.0
H1328 H 0.30053 0.35384 0.02433 0.0
H1329 H 0.3264 0.42344 0.02277 0.0
H1330 H 0.29284 0.41875 0.04461 0.0
H1331 H 0.25876 0.39551 0.07192 0.0
H1332 H 0.23351 0.32627 0.07577 0.0
H1333 H 0.26366 0.33001 0.04458 0.0
C1334 C 0.29866 0.36794 0.02819 0.0
C1335 C 0.31619 0.38899 0.02234 0.0
C1336 C 0.27929 0.36516 0.04116 0.0
C1337 C 0.31335 0.40705 0.02732 0.0
C1338 C 0.29411 0.40441 0.03986 0.0
C1339 C 0.25936 0.38118 0.06465 0.0
C1340 C 0.2438 0.36061 0.07562 0.0
C1341 C 0.27728 0.38362 0.04786 0.0
C1342 C 0.24507 0.34219 0.06696 0.0
C1343 C 0.26253 0.3444 0.04959 0.0
H1344 H 0.73348 0.67675 0.36918 0.0
H1345 H 0.77563 0.74659 0.369 0.0
H1346 H 0.80569 0.7424 0.3874 0.0
H1347 H 0.81848 0.71935 0.41086 0.0
H1348 H 0.77632 0.64983 0.41339 0.0
H1349 H 0.74816 0.65328 0.38598 0.0
C1350 C 0.74933 0.69103 0.3727 0.0
C1351 C 0.75209 0.71197 0.36815 0.0
C1352 C 0.76668 0.68853 0.38357 0.0
C1353 C 0.77286 0.73027 0.3726 0.0
C1354 C 0.79014 0.72791 0.38312 0.0
C1355 C 0.80352 0.70493 0.40407 0.0
C1356 C 0.79961 0.68434 0.41352 0.0
C1357 C 0.78708 0.70718 0.38956 0.0
C1358 C 0.77987 0.66578 0.40561 0.0
C1359 C 0.76362 0.66782 0.39045 0.0
H1360 H 0.30382 0.04881 0.35823 0.0
H1361 H 0.36466 0.0522 0.38066 0.0
H1362 H 0.37802 0.08827 0.4027 0.0
H1363 H 0.37028 0.11617 0.42252 0.0
H1364 H 0.30935 0.11266 0.40142 0.0
H1365 H 0.29845 0.07982 0.37112 0.0
C1366 C 0.32014 0.05759 0.36749 0.0
C1367 C 0.33305 0.04757 0.36823 0.0
C1368 C 0.32774 0.0784 0.38031 0.0
C1369 C 0.35427 0.05936 0.37997 0.0
C1370 C 0.36194 0.08003 0.39265 0.0
C1371 C 0.35497 0.10864 0.4103 0.0
C1372 C 0.34063 0.11681 0.41416 0.0
C1373 C 0.34855 0.08937 0.39384 0.0
C1374 C 0.32076 0.10685 0.39848 0.0
C1375 C 0.31439 0.08785 0.38158 0.0
H1376 H 0.96497 0.29665 0.36179 0.0
H1377 H 0.99075 0.25282 0.36157 0.0
H1378 H 0.95644 0.22357 0.38089 0.0
H1379 H 0.92147 0.21227 0.40591 0.0
H1380 H 0.89607 0.25618 0.40817 0.0
H1381 H 0.92732 0.28318 0.37924 0.0
C1382 C 0.96293 0.28059 0.3654 0.0
C1383 C 0.98063 0.27714 0.36072 0.0
C1384 C 0.94308 0.26373 0.37684 0.0
C1385 C 0.97757 0.25611 0.36529 0.0
C1386 C 0.9579 0.23929 0.37637 0.0
C1387 C 0.92231 0.22733 0.39873 0.0
C1388 C 0.90639 0.23214 0.40867 0.0
C1389 C 0.94081 0.24312 0.38325 0.0
C1390 C 0.90794 0.25198 0.40014 0.0
C1391 C 0.92601 0.26757 0.38408 0.0
H1392 H 0.07084 0.43719 0.34076 0.0
H1393 H 1.0097 0.3789 0.32245 0.0
H1394 H 0.99545 0.40077 0.30022 0.0
H1395 H 1.00224 0.43575 0.27913 0.0
H1396 H 0.06337 0.49402 0.29617 0.0
H1397 H 0.07547 0.47308 0.32653 0.0
C1398 C 0.05427 0.42929 0.33238 0.0
C1399 C 0.04151 0.40634 0.33288 0.0
C1400 C 0.04614 0.44203 0.31943 0.0
C1401 C 0.01998 0.39646 0.32221 0.0
C1402 C 1.01179 0.40898 0.30941 0.0
C1403 C 1.01789 0.44397 0.29047 0.0
C1404 C 0.03189 0.4664 0.28547 0.0
C1405 C 0.02496 0.43168 0.30701 0.0
C1406 C 0.0522 0.47685 0.30001 0.0
C1407 C 0.05925 0.46478 0.31695 0.0
H1408 H 0.59124 0.63865 0.33208 0.0
H1409 H 0.64743 0.63017 0.33026 0.0
H1410 H 0.6253 0.59361 0.30954 0.0
H1411 H 0.59155 0.56651 0.28485 0.0
H1412 H 0.53584 0.5755 0.28374 0.0
H1413 H 0.55589 0.60897 0.31362 0.0
C1414 C 0.59858 0.62868 0.32762 0.0
C1415 C 0.62109 0.63735 0.33228 0.0
C1416 C 0.58577 0.60768 0.31526 0.0
C1417 C 0.63024 0.62408 0.32663 0.0
C1418 C 0.61758 0.60312 0.31476 0.0
C1419 C 0.58359 0.57543 0.29214 0.0
C1420 C 0.56229 0.56861 0.28218 0.0
C1421 C 0.59553 0.59507 0.30806 0.0
C1422 C 0.55212 0.5803 0.29146 0.0
C1423 C 0.56373 0.59963 0.3081 0.0
H1424 H 0.38924 0.95506 0.33284 0.0
H1425 H 0.39806 0.01998 0.33301 0.0
H1426 H 0.43489 0.03453 0.3137 0.0
H1427 H 0.46235 0.02813 0.28968 0.0
H1428 H 0.45312 0.96327 0.28645 0.0
H1429 H 0.41916 0.94948 0.31499 0.0
C1430 C 0.39934 0.97244 0.32913 0.0
C1431 C 0.39068 0.98634 0.33395 0.0
C1432 C 0.42053 0.98072 0.31756 0.0
C1433 C 0.40412 1.00884 0.32922 0.0
C1434 C 0.42525 0.01721 0.31817 0.0
C1435 C 0.45326 1.01111 0.29624 0.0
C1436 C 0.4602 0.99673 0.28606 0.0
C1437 C 0.43334 1.00322 0.31135 0.0
C1438 C 0.44826 0.97469 0.29438 0.0
C1439 C 0.42865 0.96677 0.31024 0.0
H1440 H 0.6376 0.01351 0.33134 0.0
H1441 H 0.59408 0.94402 0.33628 0.0
H1442 H 0.56443 0.94845 0.31665 0.0
H1443 H 0.55246 0.97127 0.29023 0.0
H1444 H 0.596 0.04039 0.2834 0.0
H1445 H 0.62368 0.03708 0.31227 0.0
C1446 C 0.62153 0.99939 0.32872 0.0
C1447 C 0.61827 0.97843 0.33487 0.0
C1448 C 0.60443 1.00201 0.31707 0.0
C1449 C 0.59723 0.96035 0.33148 0.0
C1450 C 0.58018 0.96284 0.3202 0.0
C1451 C 0.56762 0.98569 0.29639 0.0
C1452 C 0.57206 1.00609 0.28524 0.0
C1453 C 0.58377 0.98349 0.31192 0.0
C1454 C 0.59205 0.02461 0.29241 0.0
C1455 C 0.60802 0.02264 0.30845 0.0
H1456 H 0.07542 0.64713 0.33595 0.0
H1457 H 1.00957 0.6354 0.33665 0.0
H1458 H 0.99645 0.59884 0.31657 0.0
H1459 H 1.0043 0.57265 0.29137 0.0
H1460 H 0.07005 0.58475 0.28789 0.0
H1461 H 0.08252 0.6183 0.31731 0.0
C1462 C 0.05814 0.63644 0.33226 0.0
C1463 C 0.04356 0.64422 0.33741 0.0
C1464 C 0.05069 0.61543 0.32021 0.0
C1465 C 0.02122 0.63001 0.33266 0.0
C1466 C 1.01367 0.60906 0.32113 0.0
C1467 C 0.02123 0.58224 0.2981 0.0
C1468 C 0.03624 0.57624 0.28762 0.0
C1469 C 0.02833 0.6019 0.31384 0.0
C1470 C 0.05817 0.58888 0.29608 0.0
C1471 C 0.06532 0.60825 0.31247 0.0
H1472 H 0.40115 0.39267 0.32612 0.0
H1473 H 0.3773 0.438 0.33177 0.0
H1474 H 0.41157 0.46696 0.31185 0.0
H1475 H 0.44591 0.47792 0.28529 0.0
H1476 H 0.46924 0.43252 0.27723 0.0
H1477 H 0.43813 0.40542 0.30634 0.0
C1478 C 0.4036 0.40898 0.32352 0.0
C1479 C 0.38645 0.41298 0.32999 0.0
C1480 C 0.4234 0.42566 0.31168 0.0
C1481 C 0.39004 0.4343 0.32667 0.0
C1482 C 0.40969 0.45095 0.31526 0.0
C1483 C 0.44465 0.46246 0.29121 0.0
C1484 C 0.45999 0.45731 0.2797 0.0
C1485 C 0.42621 0.44666 0.30676 0.0
C1486 C 0.45787 0.43697 0.28654 0.0
C1487 C 0.43987 0.42136 0.30271 0.0
H1488 H 0.34125 0.28333 0.35451 0.0
H1489 H 0.27319 0.24953 0.37805 0.0
H1490 H 0.27671 0.2199 0.40009 0.0
H1491 H 0.30037 0.20642 0.41969 0.0
H1492 H 0.36827 0.23996 0.39654 0.0
H1493 H 0.36353 0.26637 0.36662 0.0
C1494 C 0.32712 0.26931 0.36401 0.0
C1495 C 0.30708 0.26889 0.36505 0.0
C1496 C 0.32922 0.25214 0.3766 0.0
C1497 C 0.28887 0.25042 0.3771 0.0
C1498 C 0.29085 0.23342 0.38977 0.0
C1499 C 0.31383 0.21888 0.40683 0.0
C1500 C 0.33455 0.22106 0.40982 0.0
C1501 C 0.31108 0.23441 0.39049 0.0
C1502 C 0.35208 0.2377 0.39391 0.0
C1503 C 0.34944 0.25303 0.37728 0.0
H1504 H 0.77835 0.05326 0.3521 0.0
H1505 H 0.72012 0.05793 0.35945 0.0
H1506 H 0.74089 0.09357 0.38339 0.0
H1507 H 0.77421 0.12058 0.40925 0.0
H1508 H 0.83221 0.11568 0.40378 0.0
H1509 H 0.81316 0.08334 0.37149 0.0
C1510 C 0.77027 0.06226 0.35836 0.0
C1511 C 0.74758 0.05269 0.35434 0.0
C1512 C 0.78231 0.08273 0.37258 0.0
C1513 C 0.73748 0.06473 0.36243 0.0
C1514 C 0.74935 0.08513 0.37624 0.0
C1515 C 0.78284 0.1128 0.40013 0.0
C1516 C 0.80456 0.12044 0.40885 0.0
C1517 C 0.77158 0.0939 0.3824 0.0
C1518 C 0.81558 0.11023 0.3971 0.0
C1519 C 0.80457 0.09157 0.37898 0.0
H1520 H 0.96718 0.68753 0.35202 0.0
H1521 H 0.99775 0.75636 0.3712 0.0
H1522 H 0.96418 0.7512 0.39367 0.0
H1523 H 0.92804 0.72629 0.41521 0.0
H1524 H 0.89748 0.65759 0.39652 0.0
H1525 H 0.92866 0.66353 0.36592 0.0
C1526 C 0.96636 0.70146 0.36056 0.0
C1527 C 0.98515 0.72224 0.3603 0.0
C1528 C 0.94688 0.69839 0.37355 0.0
C1529 C 0.98367 0.74013 0.37123 0.0
C1530 C 0.96443 0.73721 0.3842 0.0
C1531 C 0.92782 0.71282 0.4032 0.0
C1532 C 0.91037 0.69159 0.40766 0.0
C1533 C 0.94615 0.71632 0.3864 0.0
C1534 C 0.91054 0.67413 0.39281 0.0
C1535 C 0.92854 0.67749 0.37574 0.0
H1536 H 0.43652 0.05542 0.69134 0.0
H1537 H 0.37841 0.99375 0.70767 0.0
H1538 H 0.40024 0.97927 0.72928 0.0
H1539 H 0.43498 0.98616 0.75118 0.0
H1540 H 0.49294 0.04799 0.73665 0.0
H1541 H 0.47226 0.06013 0.70587 0.0
C1542 C 0.42866 0.03867 0.69909 0.0
C1543 C 0.40577 0.02584 0.69837 0.0
C1544 C 0.44134 0.03047 0.71182 0.0
C1545 C 0.39593 1.00409 0.70818 0.0
C1546 C 0.40842 0.99578 0.72062 0.0
C1547 C 0.44319 1.00197 0.74027 0.0
C1548 C 0.46542 0.01619 0.74617 0.0
C1549 C 0.43102 1.00908 0.72359 0.0
C1550 C 0.47591 0.03669 0.73215 0.0
C1551 C 0.46399 0.04375 0.71496 0.0
H1552 H 1.01194 0.39603 0.68738 0.0
H1553 H 0.94339 0.36347 0.70794 0.0
H1554 H 0.94745 0.39702 0.72926 0.0
H1555 H 0.97145 0.43394 0.74937 0.0
H1556 H 0.03985 0.46663 0.72931 0.0
H1557 H 0.03485 0.43518 0.69985 0.0
C1558 C 0.99782 0.3964 0.69601 0.0
C1559 C 0.97746 0.37708 0.69646 0.0
C1560 C 1.00024 0.4159 0.70829 0.0
C1561 C 0.95931 0.37797 0.70746 0.0
C1562 C 0.9616 0.3972 0.71974 0.0
C1563 C 0.98502 0.43453 0.73727 0.0
C1564 C 1.00591 0.4527 0.741 0.0
C1565 C 0.98209 0.41607 0.72118 0.0
C1566 C 0.02354 0.45303 0.72609 0.0
C1567 C 0.02073 0.43486 0.70972 0.0
H1568 H 0.64769 0.59458 0.69067 0.0
H1569 H 0.64175 0.65151 0.70691 0.0
H1570 H 0.60535 0.62858 0.72743 0.0
H1571 H 0.57787 0.5932 0.74816 0.0
H1572 H 0.58402 0.53639 0.73357 0.0
H1573 H 0.61721 0.55818 0.70416 0.0
C1574 C 0.63829 0.60195 0.69818 0.0
C1575 C 0.64768 0.62484 0.69769 0.0
C1576 C 0.61732 0.58862 0.71022 0.0
C1577 C 0.63509 0.63402 0.70722 0.0
C1578 C 0.61424 0.62089 0.71903 0.0
C1579 C 0.58604 0.58546 0.73747 0.0
C1580 C 0.57851 0.56321 0.74294 0.0
C1581 C 0.60552 0.59828 0.7216 0.0
C1582 C 0.58933 0.55339 0.72933 0.0
C1583 C 0.60852 0.56596 0.71295 0.0
H1584 H 0.74501 0.77415 0.66728 0.0
H1585 H 0.68084 0.71736 0.66426 0.0
H1586 H 0.66634 0.73906 0.64227 0.0
H1587 H 0.67281 0.77268 0.61718 0.0
H1588 H 0.73689 0.82921 0.61804 0.0
H1589 H 0.75038 0.80941 0.64836 0.0
C1590 C 0.72779 0.76659 0.6623 0.0
C1591 C 0.71413 0.74401 0.66704 0.0
C1592 C 0.71952 0.77918 0.64929 0.0
C1593 C 0.69181 0.7346 0.66065 0.0
C1594 C 0.68347 0.74702 0.64802 0.0
C1595 C 0.68956 0.78086 0.62494 0.0
C1596 C 0.70384 0.80237 0.61548 0.0
C1597 C 0.69729 0.76912 0.64136 0.0
C1598 C 0.72554 0.81279 0.62538 0.0
C1599 C 0.7333 0.80132 0.64231 0.0
H1600 H 0.26011 0.97334 0.67698 0.0
H1601 H 0.31874 0.97093 0.6596 0.0
H1602 H 0.29738 0.93505 0.63657 0.0
H1603 H 0.26283 0.90714 0.6143 0.0
H1604 H 0.20425 0.90959 0.63041 0.0
H1605 H 0.22459 0.94219 0.66177 0.0
C1606 C 0.26818 0.96479 0.66866 0.0
C1607 C 0.29108 0.97506 0.66958 0.0
C1608 C 0.25576 0.94409 0.65521 0.0
C1609 C 0.30121 0.96359 0.659 0.0
C1610 C 0.28899 0.94303 0.64574 0.0
C1611 C 0.25442 0.91439 0.62563 0.0
C1612 C 0.2321 0.90603 0.62008 0.0
C1613 C 0.26636 0.93348 0.64278 0.0
C1614 C 0.22136 0.91559 0.63465 0.0
C1615 C 0.23308 0.93444 0.65218 0.0
H1616 H 0.0699 0.33682 0.67724 0.0
H1617 H 0.03844 0.26779 0.65904 0.0
H1618 H 0.07161 0.27236 0.63597 0.0
H1619 H 0.10752 0.2968 0.61352 0.0
H1620 H 0.13891 0.3657 0.63102 0.0
H1621 H 0.10826 0.36038 0.66238 0.0
C1622 C 0.07044 0.32273 0.66879 0.0
C1623 C 0.05152 0.30206 0.66946 0.0
C1624 C 0.08967 0.32546 0.65539 0.0
C1625 C 0.05264 0.28394 0.65866 0.0
C1626 C 0.07164 0.28652 0.64535 0.0
C1627 C 0.10802 0.31044 0.62541 0.0
C1628 C 0.12553 0.33155 0.62043 0.0
C1629 C 0.09001 0.3073 0.64264 0.0
C1630 C 0.12578 0.34926 0.63513 0.0
C1631 C 0.10809 0.34624 0.65264 0.0
H1632 H 0.26728 0.30215 0.67333 0.0
H1633 H 0.32425 0.36318 0.65044 0.0
H1634 H 0.3013 0.37618 0.62823 0.0
H1635 H 0.26561 0.36791 0.60813 0.0
H1636 H 0.20869 0.30677 0.62975 0.0
H1637 H 0.23085 0.2964 0.66043 0.0
C1638 C 0.27466 0.31846 0.66399 0.0
C1639 C 0.29753 0.33151 0.66312 0.0
C1640 C 0.26131 0.32583 0.65104 0.0
C1641 C 0.30676 0.3527 0.65125 0.0
C1642 C 0.29362 0.36015 0.63846 0.0
C1643 C 0.25797 0.35268 0.62055 0.0
C1644 C 0.23555 0.33812 0.61671 0.0
C1645 C 0.27095 0.34657 0.63727 0.0
C1646 C 0.22584 0.31836 0.63266 0.0
C1647 C 0.2386 0.31229 0.64979 0.0
H1648 H 0.68779 0.96348 0.66253 0.0
H1649 H 0.75761 0.99429 0.65482 0.0
H1650 H 0.75432 0.96049 0.63588 0.0
H1651 H 0.7315 0.92404 0.61404 0.0
H1652 H 0.66185 0.89339 0.61977 0.0
H1653 H 0.6651 0.92475 0.64775 0.0
C1654 C 0.70229 0.96269 0.65716 0.0
C1655 C 0.72289 0.9816 0.65963 0.0
C1656 C 0.7003 0.94308 0.64607 0.0
C1657 C 0.74151 0.98015 0.65287 0.0
C1658 C 0.73967 0.96076 0.64202 0.0
C1659 C 0.71712 0.92383 0.62277 0.0
C1660 C 0.69649 0.90631 0.61543 0.0
C1661 C 0.71915 0.94233 0.63764 0.0
C1662 C 0.67789 0.90648 0.62588 0.0
C1663 C 0.67977 0.92461 0.64135 0.0
H1664 H 0.06914 0.73742 0.67653 0.0
H1665 H 0.03632 0.77367 0.65823 0.0
H1666 H 0.06948 0.80319 0.63649 0.0
H1667 H 0.10594 0.81593 0.61509 0.0
H1668 H 0.13872 0.77977 0.63271 0.0
H1669 H 0.1079 0.75345 0.66293 0.0
C1670 C 0.06937 0.75196 0.66835 0.0
C1671 C 0.05009 0.75308 0.66859 0.0
C1672 C 0.08861 0.76901 0.65574 0.0
C1673 C 0.0508 0.77221 0.65815 0.0
C1674 C 0.0698 0.78915 0.64561 0.0
C1675 C 0.10669 0.80287 0.6268 0.0
C1676 C 0.12466 0.79994 0.62215 0.0
C1677 C 0.08858 0.78742 0.64333 0.0
C1678 C 0.12523 0.78257 0.63659 0.0
C1679 C 0.10745 0.76732 0.65343 0.0
H1680 H 1.01719 0.62631 0.69181 0.0
H1681 H 0.94785 0.58225 0.69395 0.0
H1682 H 0.95355 0.55372 0.71506 0.0
H1683 H 0.97786 0.54324 0.74053 0.0
H1684 H 0.04694 0.58741 0.74014 0.0
H1685 H 0.04186 0.61358 0.71012 0.0
C1686 C 1.00335 0.61034 0.69632 0.0
C1687 C 0.98211 0.60664 0.6917 0.0
C1688 C 1.00672 0.59392 0.70879 0.0
C1689 C 0.96439 0.58573 0.6975 0.0
C1690 C 0.96762 0.56933 0.70965 0.0
C1691 C 0.99182 0.55816 0.73262 0.0
C1692 C 1.01276 0.56328 0.74203 0.0
C1693 C 0.98865 0.57346 0.71636 0.0
C1694 C 0.03072 0.58297 0.73254 0.0
C1695 C 0.02776 0.59807 0.71581 0.0
H1696 H 0.44643 0.38079 0.69466 0.0
H1697 H 0.39127 0.39089 0.69078 0.0
H1698 H 0.41356 0.42772 0.71047 0.0
H1699 H 0.44693 0.45479 0.73596 0.0
H1700 H 0.5016 0.44438 0.74277 0.0
H1701 H 0.48167 0.41038 0.71391 0.0
C1702 C 0.43937 0.39117 0.6976 0.0
C1703 C 0.41704 0.38286 0.69163 0.0
C1704 C 0.45228 0.41238 0.70941 0.0
C1705 C 0.40828 0.39668 0.69544 0.0
C1706 C 0.42105 0.4178 0.70672 0.0
C1707 C 0.45475 0.44546 0.73006 0.0
C1708 C 0.47573 0.4521 0.74129 0.0
C1709 C 0.44283 0.42554 0.71471 0.0
C1710 C 0.48562 0.43978 0.73396 0.0
C1711 C 0.47406 0.42015 0.71791 0.0
H1712 H 0.64581 0.06665 0.69789 0.0
H1713 H 0.63881 1.00246 0.69895 0.0
H1714 H 0.60213 0.9873 0.71917 0.0
H1715 H 0.57443 0.99314 0.74355 0.0
H1716 H 0.5819 0.05733 0.74541 0.0
H1717 H 0.61559 0.07153 0.71612 0.0
C1718 C 0.63614 0.04928 0.70209 0.0
C1719 C 0.64526 0.03578 0.69735 0.0
C1720 C 0.61506 0.04067 0.71413 0.0
C1721 C 0.63237 0.01329 0.70267 0.0
C1722 C 0.61134 1.00458 0.71423 0.0
C1723 C 0.58306 1.01008 0.73652 0.0
C1724 C 0.57573 0.02419 0.74649 0.0
C1725 C 0.60283 0.01822 0.72095 0.0
C1726 C 0.58708 0.04613 0.73762 0.0
C1727 C 0.60653 0.05429 0.72133 0.0
loop_
_geom_bond_atom_site_label_1
_geom_bond_atom_site_label_2
_geom_bond_distance
_geom_bond_site_symmetry_2
_ccdc_geom_bond_type
O0 Cd1 2.223 . S
O0 C8 1.315 . S
Cd1 O0 2.223 . S
Cd1 O4 2.297 . S
Cd1 O5 2.439 . S
Cd1 O11 2.240 1_554 S
Cd2 O3 2.240 . S
Cd2 O10 2.223 1_554 S
Cd2 O12 2.297 1_554 S
Cd2 O13 2.439 1_554 S
O3 Cd2 2.240 . S
O3 C8 1.279 1_655 S
O4 Cd1 2.297 . S
O4 C6 1.247 . S
O5 Cd1 2.439 . S
O5 C6 1.208 . S
C6 O4 1.247 . S
C6 O5 1.208 . S
C7 O12 1.247 . S
C7 O13 1.208 . S
C8 O0 1.315 . S
C8 O3 1.279 1_455 S
C9 O10 1.315 . S
C9 O11 1.279 1_655 S
O10 Cd2 2.223 1_556 S
O10 C9 1.315 . S
O11 Cd1 2.240 1_556 S
O11 C9 1.279 1_455 S
O12 Cd2 2.297 1_556 S
O12 C7 1.247 . S
O13 Cd2 2.439 1_556 S
O13 C7 1.208 . S
O14 Cd15 2.223 . S
O14 C22 1.315 . S
Cd15 O14 2.223 . S
Cd15 O18 2.297 . S
Cd15 O19 2.439 . S
Cd15 O25 2.240 1_554 S
Cd16 O17 2.240 . S
Cd16 O24 2.223 1_554 S
Cd16 O26 2.297 1_554 S
Cd16 O27 2.439 1_554 S
O17 Cd16 2.240 . S
O17 C22 1.279 . S
O18 Cd15 2.297 . S
O18 C20 1.247 . S
O19 Cd15 2.439 . S
O19 C20 1.208 . S
C20 O18 1.247 . S
C20 O19 1.208 . S
C21 O26 1.247 . S
C21 O27 1.208 . S
C22 O14 1.315 . S
C22 O17 1.279 . S
C23 O24 1.315 . S
C23 O25 1.279 . S
O24 Cd16 2.223 1_556 S
O24 C23 1.315 . S
O25 Cd15 2.240 1_556 S
O25 C23 1.279 . S
O26 Cd16 2.297 1_556 S
O26 C21 1.247 . S
O27 Cd16 2.439 1_556 S
O27 C21 1.208 . S
O28 Cd29 2.223 1_556 S
O28 C36 1.315 . S
Cd29 O28 2.223 1_554 S
Cd29 O32 2.297 1_554 S
Cd29 O33 2.439 1_554 S
Cd29 O39 2.240 . S
Cd30 O31 2.240 1_554 S
Cd30 O38 2.223 . S
Cd30 O40 2.297 . S
Cd30 O41 2.439 . S
O31 Cd30 2.240 1_556 S
O31 C36 1.279 1_565 S
O32 Cd29 2.297 1_556 S
O32 C34 1.247 . S
O33 Cd29 2.439 1_556 S
O33 C34 1.208 . S
C34 O32 1.247 . S
C34 O33 1.208 . S
C35 O40 1.247 . S
C35 O41 1.208 . S
C36 O28 1.315 . S
C36 O31 1.279 1_545 S
C37 O38 1.315 . S
C37 O39 1.279 1_565 S
O38 Cd30 2.223 . S
O38 C37 1.315 . S
O39 Cd29 2.240 . S
O39 C37 1.279 1_545 S
O40 Cd30 2.297 . S
O40 C35 1.247 . S
O41 Cd30 2.439 . S
O41 C35 1.208 . S
O42 Cd43 2.223 1_556 S
O42 C50 1.315 . S
Cd43 O42 2.223 1_554 S
Cd43 O46 2.297 1_554 S
Cd43 O47 2.439 1_554 S
Cd43 O53 2.240 . S
Cd44 O45 2.240 1_554 S
Cd44 O52 2.223 . S
Cd44 O54 2.297 . S
Cd44 O55 2.439 . S
O45 Cd44 2.240 1_556 S
O45 C50 1.279 1_455 S
O46 Cd43 2.297 1_556 S
O46 C48 1.247 . S
O47 Cd43 2.439 1_556 S
O47 C48 1.208 . S
C48 O46 1.247 . S
C48 O47 1.208 . S
C49 O54 1.247 . S
C49 O55 1.208 . S
C50 O42 1.315 . S
C50 O45 1.279 1_655 S
C51 O52 1.315 . S
C51 O53 1.279 1_455 S
O52 Cd44 2.223 . S
O52 C51 1.315 . S
O53 Cd43 2.240 . S
O53 C51 1.279 1_655 S
O54 Cd44 2.297 . S
O54 C49 1.247 . S
O55 Cd44 2.439 . S
O55 C49 1.208 . S
O56 Cd57 2.223 1_556 S
O56 C64 1.315 . S
Cd57 O56 2.223 1_554 S
Cd57 O60 2.297 1_554 S
Cd57 O61 2.439 1_554 S
Cd57 O67 2.240 . S
Cd58 O59 2.240 1_554 S
Cd58 O66 2.223 . S
Cd58 O68 2.297 . S
Cd58 O69 2.439 . S
O59 Cd58 2.240 1_556 S
O59 C64 1.279 . S
O60 Cd57 2.297 1_556 S
O60 C62 1.247 . S
O61 Cd57 2.439 1_556 S
O61 C62 1.208 . S
C62 O60 1.247 . S
C62 O61 1.208 . S
C63 O68 1.247 . S
C63 O69 1.208 . S
C64 O56 1.315 . S
C64 O59 1.279 . S
C65 O66 1.315 . S
C65 O67 1.279 . S
O66 Cd58 2.223 . S
O66 C65 1.315 . S
O67 Cd57 2.240 . S
O67 C65 1.279 . S
O68 Cd58 2.297 . S
O68 C63 1.247 . S
O69 Cd58 2.439 . S
O69 C63 1.208 . S
O70 Cd71 2.223 . S
O70 C78 1.315 . S
Cd71 O70 2.223 . S
Cd71 O74 2.297 . S
Cd71 O75 2.439 . S
Cd71 O81 2.240 1_554 S
Cd72 O73 2.240 . S
Cd72 O80 2.223 1_554 S
Cd72 O82 2.297 1_554 S
Cd72 O83 2.439 1_554 S
O73 Cd72 2.240 . S
O73 C78 1.279 1_545 S
O74 Cd71 2.297 . S
O74 C76 1.247 . S
O75 Cd71 2.439 . S
O75 C76 1.208 . S
C76 O74 1.247 . S
C76 O75 1.208 . S
C77 O82 1.247 . S
C77 O83 1.208 . S
C78 O70 1.315 . S
C78 O73 1.279 1_565 S
C79 O80 1.315 . S
C79 O81 1.279 1_545 S
O80 Cd72 2.223 1_556 S
O80 C79 1.315 . S
O81 Cd71 2.240 1_556 S
O81 C79 1.279 1_565 S
O82 Cd72 2.297 1_556 S
O82 C77 1.247 . S
O83 Cd72 2.439 1_556 S
O83 C77 1.208 . S
O84 Cd85 2.223 . S
O84 C92 1.315 . S
Cd85 O84 2.223 . S
Cd85 O88 2.297 . S
Cd85 O89 2.439 . S
Cd85 O95 2.240 . S
Cd86 O87 2.240 . S
Cd86 O94 2.223 . S
Cd86 O96 2.297 . S
Cd86 O97 2.439 . S
O87 Cd86 2.240 . S
O87 C92 1.279 . S
O88 Cd85 2.297 . S
O88 C90 1.247 . S
O89 Cd85 2.439 . S
O89 C90 1.208 . S
C90 O88 1.247 . S
C90 O89 1.208 . S
C91 O96 1.247 . S
C91 O97 1.208 . S
C92 O84 1.315 . S
C92 O87 1.279 . S
C93 O94 1.315 . S
C93 O95 1.279 . S
O94 Cd86 2.223 . S
O94 C93 1.315 . S
O95 Cd85 2.240 . S
O95 C93 1.279 . S
O96 Cd86 2.297 . S
O96 C91 1.247 . S
O97 Cd86 2.439 . S
O97 C91 1.208 . S
O98 Cd99 2.223 . S
O98 C106 1.315 . S
Cd99 O98 2.223 . S
Cd99 O102 2.297 1_565 S
Cd99 O103 2.439 1_565 S
Cd99 O109 2.240 . S
Cd100 O101 2.240 . S
Cd100 O108 2.223 . S
Cd100 O110 2.297 . S
Cd100 O111 2.439 . S
O101 Cd100 2.240 . S
O101 C106 1.279 . S
O102 Cd99 2.297 1_545 S
O102 C104 1.247 . S
O103 Cd99 2.439 1_545 S
O103 C104 1.208 . S
C104 O102 1.247 . S
C104 O103 1.208 . S
C105 O110 1.247 . S
C105 O111 1.208 . S
C106 O98 1.315 . S
C106 O101 1.279 . S
C107 O108 1.315 . S
C107 O109 1.279 . S
O108 Cd100 2.223 . S
O108 C107 1.315 . S
O109 Cd99 2.240 . S
O109 C107 1.279 . S
O110 Cd100 2.297 . S
O110 C105 1.247 . S
O111 Cd100 2.439 . S
O111 C105 1.208 . S
O112 Cd113 2.223 . S
O112 C120 1.315 . S
Cd113 O112 2.223 . S
Cd113 O116 2.297 . S
Cd113 O117 2.439 . S
Cd113 O123 2.240 . S
Cd114 O115 2.240 . S
Cd114 O122 2.223 . S
Cd114 O124 2.297 1_455 S
Cd114 O125 2.439 1_455 S
O115 Cd114 2.240 . S
O115 C120 1.279 . S
O116 Cd113 2.297 . S
O116 C118 1.247 . S
O117 Cd113 2.439 . S
O117 C118 1.208 . S
C118 O116 1.247 . S
C118 O117 1.208 . S
C119 O124 1.247 . S
C119 O125 1.208 . S
C120 O112 1.315 . S
C120 O115 1.279 . S
C121 O122 1.315 . S
C121 O123 1.279 . S
O122 Cd114 2.223 . S
O122 C121 1.315 . S
O123 Cd113 2.240 . S
O123 C121 1.279 . S
O124 Cd114 2.297 1_655 S
O124 C119 1.247 . S
O125 Cd114 2.439 1_655 S
O125 C119 1.208 . S
O126 Cd127 2.223 . S
O126 C134 1.315 . S
Cd127 O126 2.223 . S
Cd127 O130 2.297 . S
Cd127 O131 2.439 . S
Cd127 O137 2.240 . S
Cd128 O129 2.240 . S
Cd128 O136 2.223 . S
Cd128 O138 2.297 1_565 S
Cd128 O139 2.439 1_565 S
O129 Cd128 2.240 . S
O129 C134 1.279 . S
O130 Cd127 2.297 . S
O130 C132 1.247 . S
O131 Cd127 2.439 . S
O131 C132 1.208 . S
C132 O130 1.247 . S
C132 O131 1.208 . S
C133 O138 1.247 . S
C133 O139 1.208 . S
C134 O126 1.315 . S
C134 O129 1.279 . S
C135 O136 1.315 . S
C135 O137 1.279 . S
O136 Cd128 2.223 . S
O136 C135 1.315 . S
O137 Cd127 2.240 . S
O137 C135 1.279 . S
O138 Cd128 2.297 1_545 S
O138 C133 1.247 . S
O139 Cd128 2.439 1_545 S
O139 C133 1.208 . S
O140 Cd141 2.223 . S
O140 C148 1.315 . S
Cd141 O140 2.223 . S
Cd141 O144 2.297 . S
Cd141 O145 2.439 . S
Cd141 O151 2.240 . S
Cd142 O143 2.240 . S
Cd142 O150 2.223 . S
Cd142 O152 2.297 1_455 S
Cd142 O153 2.439 1_455 S
O143 Cd142 2.240 . S
O143 C148 1.279 . S
O144 Cd141 2.297 . S
O144 C146 1.247 . S
O145 Cd141 2.439 . S
O145 C146 1.208 . S
C146 O144 1.247 . S
C146 O145 1.208 . S
C147 O152 1.247 . S
C147 O153 1.208 . S
C148 O140 1.315 . S
C148 O143 1.279 . S
C149 O150 1.315 . S
C149 O151 1.279 . S
O150 Cd142 2.223 . S
O150 C149 1.315 . S
O151 Cd141 2.240 . S
O151 C149 1.279 . S
O152 Cd142 2.297 1_655 S
O152 C147 1.247 . S
O153 Cd142 2.439 1_655 S
O153 C147 1.208 . S
O154 Cd155 2.223 . S
O154 C162 1.315 . S
Cd155 O154 2.223 . S
Cd155 O158 2.297 . S
Cd155 O159 2.439 . S
Cd155 O165 2.240 . S
Cd156 O157 2.240 . S
Cd156 O164 2.223 . S
Cd156 O166 2.297 . S
Cd156 O167 2.439 . S
O157 Cd156 2.240 . S
O157 C162 1.279 . S
O158 Cd155 2.297 . S
O158 C160 1.247 . S
O159 Cd155 2.439 . S
O159 C160 1.208 . S
C160 O158 1.247 . S
C160 O159 1.208 . S
C161 O166 1.247 . S
C161 O167 1.208 . S
C162 O154 1.315 . S
C162 O157 1.279 . S
C163 O164 1.315 . S
C163 O165 1.279 . S
O164 Cd156 2.223 . S
O164 C163 1.315 . S
O165 Cd155 2.240 . S
O165 C163 1.279 . S
O166 Cd156 2.297 . S
O166 C161 1.247 . S
O167 Cd156 2.439 . S
O167 C161 1.208 . S
O168 Cd169 2.223 . S
O168 C176 1.315 . S
Cd169 O168 2.223 . S
Cd169 O172 2.297 . S
Cd169 O173 2.439 . S
Cd169 O179 2.240 . S
Cd170 O171 2.240 . S
Cd170 O178 2.223 . S
Cd170 O180 2.297 1_545 S
Cd170 O181 2.439 1_545 S
O171 Cd170 2.240 . S
O171 C176 1.279 . S
O172 Cd169 2.297 . S
O172 C174 1.247 . S
O173 Cd169 2.439 . S
O173 C174 1.208 . S
C174 O172 1.247 . S
C174 O173 1.208 . S
C175 O180 1.247 . S
C175 O181 1.208 . S
C176 O168 1.315 . S
C176 O171 1.279 . S
C177 O178 1.315 . S
C177 O179 1.279 . S
O178 Cd170 2.223 . S
O178 C177 1.315 . S
O179 Cd169 2.240 . S
O179 C177 1.279 . S
O180 Cd170 2.297 1_565 S
O180 C175 1.247 . S
O181 Cd170 2.439 1_565 S
O181 C175 1.208 . S
O182 Cd183 2.223 . S
O182 C190 1.315 . S
Cd183 O182 2.223 . S
Cd183 O186 2.297 . S
Cd183 O187 2.439 . S
Cd183 O193 2.240 . S
Cd184 O185 2.240 . S
Cd184 O192 2.223 . S
Cd184 O194 2.297 1_655 S
Cd184 O195 2.439 1_655 S
O185 Cd184 2.240 . S
O185 C190 1.279 . S
O186 Cd183 2.297 . S
O186 C188 1.247 . S
O187 Cd183 2.439 . S
O187 C188 1.208 . S
C188 O186 1.247 . S
C188 O187 1.208 . S
C189 O194 1.247 . S
C189 O195 1.208 . S
C190 O182 1.315 . S
C190 O185 1.279 . S
C191 O192 1.315 . S
C191 O193 1.279 . S
O192 Cd184 2.223 . S
O192 C191 1.315 . S
O193 Cd183 2.240 . S
O193 C191 1.279 . S
O194 Cd184 2.297 1_455 S
O194 C189 1.247 . S
O195 Cd184 2.439 1_455 S
O195 C189 1.208 . S
O196 Cd197 2.223 . S
O196 C204 1.315 . S
Cd197 O196 2.223 . S
Cd197 O200 2.297 . S
Cd197 O201 2.439 . S
Cd197 O207 2.240 . S
Cd198 O199 2.240 . S
Cd198 O206 2.223 . S
Cd198 O208 2.297 . S
Cd198 O209 2.439 . S
O199 Cd198 2.240 . S
O199 C204 1.279 . S
O200 Cd197 2.297 . S
O200 C202 1.247 . S
O201 Cd197 2.439 . S
O201 C202 1.208 . S
C202 O200 1.247 . S
C202 O201 1.208 . S
C203 O208 1.247 . S
C203 O209 1.208 . S
C204 O196 1.315 . S
C204 O199 1.279 . S
C205 O206 1.315 . S
C205 O207 1.279 . S
O206 Cd198 2.223 . S
O206 C205 1.315 . S
O207 Cd197 2.240 . S
O207 C205 1.279 . S
O208 Cd198 2.297 . S
O208 C203 1.247 . S
O209 Cd198 2.439 . S
O209 C203 1.208 . S
O210 Cd211 2.223 . S
O210 C218 1.315 . S
Cd211 O210 2.223 . S
Cd211 O214 2.297 . S
Cd211 O215 2.439 . S
Cd211 O221 2.240 . S
Cd212 O213 2.240 . S
Cd212 O220 2.223 . S
Cd212 O222 2.297 . S
Cd212 O223 2.439 . S
O213 Cd212 2.240 . S
O213 C218 1.279 . S
O214 Cd211 2.297 . S
O214 C216 1.247 . S
O215 Cd211 2.439 . S
O215 C216 1.208 . S
C216 O214 1.247 . S
C216 O215 1.208 . S
C217 O222 1.247 . S
C217 O223 1.208 . S
C218 O210 1.315 . S
C218 O213 1.279 . S
C219 O220 1.315 . S
C219 O221 1.279 . S
O220 Cd212 2.223 . S
O220 C219 1.315 . S
O221 Cd211 2.240 . S
O221 C219 1.279 . S
O222 Cd212 2.297 . S
O222 C217 1.247 . S
O223 Cd212 2.439 . S
O223 C217 1.208 . S
O224 Cd225 2.223 . S
O224 C232 1.315 . S
Cd225 O224 2.223 . S
Cd225 O228 2.297 1_545 S
Cd225 O229 2.439 1_545 S
Cd225 O235 2.240 . S
Cd226 O227 2.240 . S
Cd226 O234 2.223 . S
Cd226 O236 2.297 . S
Cd226 O237 2.439 . S
O227 Cd226 2.240 . S
O227 C232 1.279 . S
O228 Cd225 2.297 1_565 S
O228 C230 1.247 . S
O229 Cd225 2.439 1_565 S
O229 C230 1.208 . S
C230 O228 1.247 . S
C230 O229 1.208 . S
C231 O236 1.247 . S
C231 O237 1.208 . S
C232 O224 1.315 . S
C232 O227 1.279 . S
C233 O234 1.315 . S
C233 O235 1.279 . S
O234 Cd226 2.223 . S
O234 C233 1.315 . S
O235 Cd225 2.240 . S
O235 C233 1.279 . S
O236 Cd226 2.297 . S
O236 C231 1.247 . S
O237 Cd226 2.439 . S
O237 C231 1.208 . S
O238 Cd239 2.223 . S
O238 C246 1.315 . S
Cd239 O238 2.223 . S
Cd239 O242 2.297 . S
Cd239 O243 2.439 . S
Cd239 O249 2.240 . S
Cd240 O241 2.240 . S
Cd240 O248 2.223 . S
Cd240 O250 2.297 1_655 S
Cd240 O251 2.439 1_655 S
O241 Cd240 2.240 . S
O241 C246 1.279 . S
O242 Cd239 2.297 . S
O242 C244 1.247 . S
O243 Cd239 2.439 . S
O243 C244 1.208 . S
C244 O242 1.247 . S
C244 O243 1.208 . S
C245 O250 1.247 . S
C245 O251 1.208 . S
C246 O238 1.315 . S
C246 O241 1.279 . S
C247 O248 1.315 . S
C247 O249 1.279 . S
O248 Cd240 2.223 . S
O248 C247 1.315 . S
O249 Cd239 2.240 . S
O249 C247 1.279 . S
O250 Cd240 2.297 1_455 S
O250 C245 1.247 . S
O251 Cd240 2.439 1_455 S
O251 C245 1.208 . S
H252 C258 0.930 . S
H253 C261 0.931 . S
H254 C263 0.931 . S
H255 C265 0.930 . S
H256 C267 0.930 . S
H257 C269 0.931 . S
C258 H252 0.930 . S
C258 C259 1.380 . S
C258 C260 1.394 . S
C259 C258 1.380 . S
C259 C263 1.382 . S
C260 C258 1.394 . S
C260 C261 1.400 . S
C261 H253 0.931 . S
C261 C260 1.400 . S
C261 C262 1.375 . S
C262 C261 1.375 . S
C262 C263 1.415 . S
C262 C264 1.501 . S
C263 H254 0.931 . S
C263 C259 1.382 . S
C263 C262 1.415 . S
C264 C262 1.501 . S
C264 C265 1.384 . S
C264 C269 1.408 . S
C265 H255 0.930 . S
C265 C264 1.384 . S
C265 C266 1.389 . S
C266 C265 1.389 . S
C266 C267 1.405 . S
C267 H256 0.930 . S
C267 C266 1.405 . S
C267 C268 1.364 . S
C268 C267 1.364 . S
C268 C269 1.400 . S
C269 H257 0.931 . S
C269 C264 1.408 . S
C269 C268 1.400 . S
H270 C276 0.930 . S
H271 C279 0.931 . S
H272 C281 0.931 . S
H273 C283 0.930 . S
H274 C285 0.930 . S
H275 C287 0.931 . S
C276 H270 0.930 . S
C276 C277 1.380 . S
C276 C278 1.394 . S
C277 C276 1.380 . S
C277 C281 1.382 . S
C278 C276 1.394 . S
C278 C279 1.400 . S
C279 H271 0.931 . S
C279 C278 1.400 . S
C279 C280 1.375 . S
C280 C279 1.375 . S
C280 C281 1.415 . S
C280 C282 1.501 . S
C281 H272 0.931 . S
C281 C277 1.382 . S
C281 C280 1.415 . S
C282 C280 1.501 . S
C282 C283 1.384 . S
C282 C287 1.408 . S
C283 H273 0.930 . S
C283 C282 1.384 . S
C283 C284 1.389 . S
C284 C283 1.389 . S
C284 C285 1.405 . S
C285 H274 0.930 . S
C285 C284 1.405 . S
C285 C286 1.364 . S
C286 C285 1.364 . S
C286 C287 1.400 . S
C287 H275 0.931 . S
C287 C282 1.408 . S
C287 C286 1.400 . S
H288 C294 0.930 . S
H289 C297 0.931 . S
H290 C299 0.931 . S
H291 C301 0.930 . S
H292 C303 0.930 . S
H293 C305 0.931 . S
C294 H288 0.930 . S
C294 C295 1.380 . S
C294 C296 1.394 . S
C295 C294 1.380 . S
C295 C299 1.382 . S
C296 C294 1.394 . S
C296 C297 1.400 . S
C297 H289 0.931 . S
C297 C296 1.400 . S
C297 C298 1.375 . S
C298 C297 1.375 . S
C298 C299 1.415 . S
C298 C300 1.501 . S
C299 H290 0.931 . S
C299 C295 1.382 . S
C299 C298 1.415 . S
C300 C298 1.501 . S
C300 C301 1.384 . S
C300 C305 1.408 . S
C301 H291 0.930 . S
C301 C300 1.384 . S
C301 C302 1.389 . S
C302 C301 1.389 . S
C302 C303 1.405 . S
C303 H292 0.930 . S
C303 C302 1.405 . S
C303 C304 1.364 . S
C304 C303 1.364 . S
C304 C305 1.400 . S
C305 H293 0.931 . S
C305 C300 1.408 . S
C305 C304 1.400 . S
H306 C312 0.930 . S
H307 C315 0.931 . S
H308 C317 0.931 . S
H309 C319 0.930 . S
H310 C321 0.930 . S
H311 C323 0.931 . S
C312 H306 0.930 . S
C312 C313 1.380 . S
C312 C314 1.394 . S
C313 C312 1.380 . S
C313 C317 1.382 . S
C314 C312 1.394 . S
C314 C315 1.400 . S
C315 H307 0.931 . S
C315 C314 1.400 . S
C315 C316 1.375 . S
C316 C315 1.375 . S
C316 C317 1.415 . S
C316 C318 1.501 . S
C317 H308 0.931 . S
C317 C313 1.382 . S
C317 C316 1.415 . S
C318 C316 1.501 . S
C318 C319 1.384 . S
C318 C323 1.408 . S
C319 H309 0.930 . S
C319 C318 1.384 . S
C319 C320 1.389 . S
C320 C319 1.389 . S
C320 C321 1.405 . S
C321 H310 0.930 . S
C321 C320 1.405 . S
C321 C322 1.364 . S
C322 C321 1.364 . S
C322 C323 1.400 . S
C323 H311 0.931 . S
C323 C318 1.408 . S
C323 C322 1.400 . S
H324 C330 0.930 . S
H325 C333 0.931 . S
H326 C335 0.931 . S
H327 C337 0.930 . S
H328 C339 0.930 . S
H329 C341 0.931 . S
C330 H324 0.930 . S
C330 C331 1.380 . S
C330 C332 1.394 . S
C331 C330 1.380 . S
C331 C335 1.382 . S
C332 C330 1.394 . S
C332 C333 1.400 . S
C333 H325 0.931 . S
C333 C332 1.400 . S
C333 C334 1.375 . S
C334 C333 1.375 . S
C334 C335 1.415 . S
C334 C336 1.501 . S
C335 H326 0.931 . S
C335 C331 1.382 . S
C335 C334 1.415 . S
C336 C334 1.501 . S
C336 C337 1.384 . S
C336 C341 1.408 . S
C337 H327 0.930 . S
C337 C336 1.384 . S
C337 C338 1.389 . S
C338 C337 1.389 . S
C338 C339 1.405 . S
C339 H328 0.930 . S
C339 C338 1.405 . S
C339 C340 1.364 . S
C340 C339 1.364 . S
C340 C341 1.400 . S
C341 H329 0.931 . S
C341 C336 1.408 . S
C341 C340 1.400 . S
H342 C348 0.930 . S
H343 C351 0.931 . S
H344 C353 0.931 . S
H345 C355 0.930 . S
H346 C357 0.930 . S
H347 C359 0.931 . S
C348 H342 0.930 . S
C348 C349 1.380 . S
C348 C350 1.394 . S
C349 C348 1.380 . S
C349 C353 1.382 . S
C350 C348 1.394 . S
C350 C351 1.400 . S
C351 H343 0.931 . S
C351 C350 1.400 . S
C351 C352 1.375 . S
C352 C351 1.375 . S
C352 C353 1.415 . S
C352 C354 1.501 . S
C353 H344 0.931 . S
C353 C349 1.382 . S
C353 C352 1.415 . S
C354 C352 1.501 . S
C354 C355 1.384 . S
C354 C359 1.408 . S
C355 H345 0.930 . S
C355 C354 1.384 . S
C355 C356 1.389 . S
C356 C355 1.389 . S
C356 C357 1.405 . S
C357 H346 0.930 . S
C357 C356 1.405 . S
C357 C358 1.364 . S
C358 C357 1.364 . S
C358 C359 1.400 . S
C359 H347 0.931 . S
C359 C354 1.408 . S
C359 C358 1.400 . S
H360 C366 0.930 . S
H361 C369 0.931 . S
H362 C371 0.931 . S
H363 C373 0.930 . S
H364 C375 0.930 . S
H365 C377 0.931 . S
C366 H360 0.930 . S
C366 C367 1.380 . S
C366 C368 1.394 . S
C367 C366 1.380 . S
C367 C371 1.382 . S
C368 C366 1.394 . S
C368 C369 1.400 . S
C369 H361 0.931 . S
C369 C368 1.400 . S
C369 C370 1.375 . S
C370 C369 1.375 . S
C370 C371 1.415 . S
C370 C372 1.501 . S
C371 H362 0.931 . S
C371 C367 1.382 . S
C371 C370 1.415 . S
C372 C370 1.501 . S
C372 C373 1.384 . S
C372 C377 1.408 . S
C373 H363 0.930 . S
C373 C372 1.384 . S
C373 C374 1.389 . S
C374 C373 1.389 . S
C374 C375 1.405 . S
C375 H364 0.930 . S
C375 C374 1.405 . S
C375 C376 1.364 . S
C376 C375 1.364 . S
C376 C377 1.400 . S
C377 H365 0.931 . S
C377 C372 1.408 . S
C377 C376 1.400 . S
H378 C384 0.930 . S
H379 C387 0.931 . S
H380 C389 0.931 . S
H381 C391 0.930 . S
H382 C393 0.930 . S
H383 C395 0.931 . S
C384 H378 0.930 . S
C384 C385 1.380 . S
C384 C386 1.394 . S
C385 C384 1.380 . S
C385 C389 1.382 . S
C386 C384 1.394 . S
C386 C387 1.400 . S
C387 H379 0.931 . S
C387 C386 1.400 . S
C387 C388 1.375 . S
C388 C387 1.375 . S
C388 C389 1.415 . S
C388 C390 1.501 . S
C389 H380 0.931 . S
C389 C385 1.382 . S
C389 C388 1.415 . S
C390 C388 1.501 . S
C390 C391 1.384 . S
C390 C395 1.408 . S
C391 H381 0.930 . S
C391 C390 1.384 . S
C391 C392 1.389 . S
C392 C391 1.389 . S
C392 C393 1.405 . S
C393 H382 0.930 . S
C393 C392 1.405 . S
C393 C394 1.364 . S
C394 C393 1.364 . S
C394 C395 1.400 . S
C395 H383 0.931 . S
C395 C390 1.408 . S
C395 C394 1.400 . S
H396 C402 0.930 . S
H397 C405 0.931 . S
H398 C407 0.931 . S
H399 C409 0.930 . S
H400 C411 0.930 . S
H401 C413 0.931 . S
C402 H396 0.930 . S
C402 C403 1.380 . S
C402 C404 1.394 . S
C403 C402 1.380 . S
C403 C407 1.382 . S
C404 C402 1.394 . S
C404 C405 1.400 . S
C405 H397 0.931 . S
C405 C404 1.400 . S
C405 C406 1.375 . S
C406 C405 1.375 . S
C406 C407 1.415 . S
C406 C408 1.501 . S
C407 H398 0.931 . S
C407 C403 1.382 . S
C407 C406 1.415 . S
C408 C406 1.501 . S
C408 C409 1.384 . S
C408 C413 1.408 . S
C409 H399 0.930 . S
C409 C408 1.384 . S
C409 C410 1.389 . S
C410 C409 1.389 . S
C410 C411 1.405 . S
C411 H400 0.930 . S
C411 C410 1.405 . S
C411 C412 1.364 . S
C412 C411 1.364 . S
C412 C413 1.400 . S
C413 H401 0.931 . S
C413 C408 1.408 . S
C413 C412 1.400 . S
H414 C420 0.919 . S
H415 C423 0.931 . S
H416 C425 0.931 . S
H417 C427 0.930 . S
H418 C429 0.930 . S
H419 C431 0.939 1_655 S
C420 H414 0.919 . S
C420 C421 1.390 . S
C420 C422 1.396 1_655 S
C421 C420 1.390 . S
C421 C425 1.382 . S
C422 C420 1.396 1_455 S
C422 C423 1.400 . S
C423 H415 0.931 . S
C423 C422 1.400 . S
C423 C424 1.375 . S
C424 C423 1.375 . S
C424 C425 1.415 1_455 S
C424 C426 1.501 . S
C425 H416 0.931 . S
C425 C421 1.382 . S
C425 C424 1.415 1_655 S
C426 C424 1.501 . S
C426 C427 1.384 . S
C426 C431 1.421 . S
C427 H417 0.930 . S
C427 C426 1.384 . S
C427 C428 1.389 . S
C428 C427 1.389 . S
C428 C429 1.405 . S
C429 H418 0.930 . S
C429 C428 1.405 . S
C429 C430 1.359 . S
C430 C429 1.359 . S
C430 C431 1.394 . S
C431 H419 0.939 1_455 S
C431 C426 1.421 . S
C431 C430 1.394 . S
H432 C438 0.930 . S
H433 C441 0.931 . S
H434 C443 0.931 . S
H435 C445 0.930 . S
H436 C447 0.930 . S
H437 C449 0.931 . S
C438 H432 0.930 . S
C438 C439 1.380 . S
C438 C440 1.394 . S
C439 C438 1.380 . S
C439 C443 1.382 . S
C440 C438 1.394 . S
C440 C441 1.400 . S
C441 H433 0.931 . S
C441 C440 1.400 . S
C441 C442 1.375 . S
C442 C441 1.375 . S
C442 C443 1.415 . S
C442 C444 1.501 . S
C443 H434 0.931 . S
C443 C439 1.382 . S
C443 C442 1.415 . S
C444 C442 1.501 . S
C444 C445 1.384 . S
C444 C449 1.408 . S
C445 H435 0.930 . S
C445 C444 1.384 . S
C445 C446 1.389 . S
C446 C445 1.389 . S
C446 C447 1.405 . S
C447 H436 0.930 . S
C447 C446 1.405 . S
C447 C448 1.364 . S
C448 C447 1.364 . S
C448 C449 1.400 . S
C449 H437 0.931 . S
C449 C444 1.408 . S
C449 C448 1.400 . S
H450 C456 0.945 . S
H451 C459 0.931 . S
H452 C461 0.931 . S
H453 C463 0.930 . S
H454 C465 0.930 . S
H455 C467 0.920 1_545 S
C456 H450 0.945 . S
C456 C457 1.377 . S
C456 C458 1.383 1_545 S
C457 C456 1.377 . S
C457 C461 1.382 . S
C458 C456 1.383 1_565 S
C458 C459 1.400 . S
C459 H451 0.931 . S
C459 C458 1.400 . S
C459 C460 1.375 . S
C460 C459 1.375 . S
C460 C461 1.415 1_565 S
C460 C462 1.501 . S
C461 H452 0.931 . S
C461 C457 1.382 . S
C461 C460 1.415 1_545 S
C462 C460 1.501 . S
C462 C463 1.384 . S
C462 C467 1.400 . S
C463 H453 0.930 . S
C463 C462 1.384 . S
C463 C464 1.389 . S
C464 C463 1.389 . S
C464 C465 1.405 . S
C465 H454 0.930 . S
C465 C464 1.405 . S
C465 C466 1.373 . S
C466 C465 1.373 . S
C466 C467 1.407 . S
C467 H455 0.920 1_565 S
C467 C462 1.400 . S
C467 C466 1.407 . S
H468 C474 0.913 . S
H469 C477 0.931 . S
H470 C479 0.928 1_545 S
H471 C481 0.930 . S
H472 C483 0.930 . S
H473 C485 0.931 . S
C474 H468 0.913 . S
C474 C475 1.383 . S
C474 C476 1.415 1_545 S
C475 C474 1.383 . S
C475 C479 1.402 1_545 S
C476 C474 1.415 1_565 S
C476 C477 1.377 . S
C477 H469 0.931 . S
C477 C476 1.377 . S
C477 C478 1.375 . S
C478 C477 1.375 . S
C478 C479 1.412 . S
C478 C480 1.501 . S
C479 H470 0.928 1_565 S
C479 C475 1.402 1_565 S
C479 C478 1.412 . S
C480 C478 1.501 . S
C480 C481 1.384 . S
C480 C485 1.408 1_565 S
C481 H471 0.930 . S
C481 C480 1.384 . S
C481 C482 1.389 . S
C482 C481 1.389 . S
C482 C483 1.405 . S
C483 H472 0.930 . S
C483 C482 1.405 . S
C483 C484 1.364 1_565 S
C484 C483 1.364 1_545 S
C484 C485 1.400 . S
C485 H473 0.931 . S
C485 C480 1.408 1_545 S
C485 C484 1.400 . S
H486 C492 0.954 . S
H487 C495 0.931 . S
H488 C497 0.934 1_655 S
H489 C499 0.930 . S
H490 C501 0.930 . S
H491 C503 0.931 . S
C492 H486 0.954 . S
C492 C493 1.377 . S
C492 C494 1.368 1_655 S
C493 C492 1.377 . S
C493 C497 1.360 1_655 S
C494 C492 1.368 1_455 S
C494 C495 1.432 . S
C495 H487 0.931 . S
C495 C494 1.432 . S
C495 C496 1.375 . S
C496 C495 1.375 . S
C496 C497 1.419 . S
C496 C498 1.501 . S
C497 H488 0.934 1_455 S
C497 C493 1.360 1_455 S
C497 C496 1.419 . S
C498 C496 1.501 . S
C498 C499 1.384 . S
C498 C503 1.408 1_455 S
C499 H489 0.930 . S
C499 C498 1.384 . S
C499 C500 1.389 . S
C500 C499 1.389 . S
C500 C501 1.405 . S
C501 H490 0.930 . S
C501 C500 1.405 . S
C501 C502 1.364 1_455 S
C502 C501 1.364 1_655 S
C502 C503 1.400 . S
C503 H491 0.931 . S
C503 C498 1.408 1_655 S
C503 C502 1.400 . S
H504 C510 0.930 . S
H505 C513 0.931 . S
H506 C515 0.931 . S
H507 C517 0.930 . S
H508 C519 0.930 . S
H509 C521 0.931 . S
C510 H504 0.930 . S
C510 C511 1.380 . S
C510 C512 1.394 . S
C511 C510 1.380 . S
C511 C515 1.382 . S
C512 C510 1.394 . S
C512 C513 1.400 . S
C513 H505 0.931 . S
C513 C512 1.400 . S
C513 C514 1.375 . S
C514 C513 1.375 . S
C514 C515 1.415 . S
C514 C516 1.501 . S
C515 H506 0.931 . S
C515 C511 1.382 . S
C515 C514 1.415 . S
C516 C514 1.501 . S
C516 C517 1.384 . S
C516 C521 1.408 . S
C517 H507 0.930 . S
C517 C516 1.384 . S
C517 C518 1.389 . S
C518 C517 1.389 . S
C518 C519 1.405 . S
C519 H508 0.930 . S
C519 C518 1.405 . S
C519 C520 1.364 . S
C520 C519 1.364 . S
C520 C521 1.400 . S
C521 H509 0.931 . S
C521 C516 1.408 . S
C521 C520 1.400 . S
H522 C528 0.930 . S
H523 C531 0.931 . S
H524 C533 0.931 . S
H525 C535 0.930 . S
H526 C537 0.930 . S
H527 C539 0.931 . S
C528 H522 0.930 . S
C528 C529 1.380 . S
C528 C530 1.394 . S
C529 C528 1.380 . S
C529 C533 1.382 . S
C530 C528 1.394 . S
C530 C531 1.400 . S
C531 H523 0.931 . S
C531 C530 1.400 . S
C531 C532 1.375 . S
C532 C531 1.375 . S
C532 C533 1.415 . S
C532 C534 1.501 . S
C533 H524 0.931 . S
C533 C529 1.382 . S
C533 C532 1.415 . S
C534 C532 1.501 . S
C534 C535 1.384 . S
C534 C539 1.408 . S
C535 H525 0.930 . S
C535 C534 1.384 . S
C535 C536 1.389 . S
C536 C535 1.389 . S
C536 C537 1.405 . S
C537 H526 0.930 . S
C537 C536 1.405 . S
C537 C538 1.364 . S
C538 C537 1.364 . S
C538 C539 1.400 . S
C539 H527 0.931 . S
C539 C534 1.408 . S
C539 C538 1.400 . S
H540 C546 0.930 . S
H541 C549 0.931 . S
H542 C551 0.931 . S
H543 C553 0.930 . S
H544 C555 0.930 . S
H545 C557 0.931 . S
C546 H540 0.930 . S
C546 C547 1.380 . S
C546 C548 1.394 . S
C547 C546 1.380 . S
C547 C551 1.382 . S
C548 C546 1.394 . S
C548 C549 1.400 . S
C549 H541 0.931 . S
C549 C548 1.400 . S
C549 C550 1.375 . S
C550 C549 1.375 . S
C550 C551 1.415 . S
C550 C552 1.501 . S
C551 H542 0.931 . S
C551 C547 1.382 . S
C551 C550 1.415 . S
C552 C550 1.501 . S
C552 C553 1.384 . S
C552 C557 1.408 . S
C553 H543 0.930 . S
C553 C552 1.384 . S
C553 C554 1.389 . S
C554 C553 1.389 . S
C554 C555 1.405 . S
C555 H544 0.930 . S
C555 C554 1.405 . S
C555 C556 1.364 . S
C556 C555 1.364 . S
C556 C557 1.400 . S
C557 H545 0.931 . S
C557 C552 1.408 . S
C557 C556 1.400 . S
H558 C564 0.930 . S
H559 C567 0.931 . S
H560 C569 0.931 . S
H561 C571 0.930 . S
H562 C573 0.930 . S
H563 C575 0.931 . S
C564 H558 0.930 . S
C564 C565 1.380 . S
C564 C566 1.394 . S
C565 C564 1.380 . S
C565 C569 1.382 . S
C566 C564 1.394 . S
C566 C567 1.400 . S
C567 H559 0.931 . S
C567 C566 1.400 . S
C567 C568 1.375 . S
C568 C567 1.375 . S
C568 C569 1.415 . S
C568 C570 1.501 . S
C569 H560 0.931 . S
C569 C565 1.382 . S
C569 C568 1.415 . S
C570 C568 1.501 . S
C570 C571 1.384 . S
C570 C575 1.408 . S
C571 H561 0.930 . S
C571 C570 1.384 . S
C571 C572 1.389 . S
C572 C571 1.389 . S
C572 C573 1.405 . S
C573 H562 0.930 . S
C573 C572 1.405 . S
C573 C574 1.364 . S
C574 C573 1.364 . S
C574 C575 1.400 . S
C575 H563 0.931 . S
C575 C570 1.408 . S
C575 C574 1.400 . S
H576 C582 0.945 . S
H577 C585 0.930 . S
H578 C586 0.930 . S
H579 C587 0.930 . S
H580 C590 0.930 1_455 S
H581 C591 0.930 . S
C582 H576 0.945 . S
C582 C583 1.355 1_455 S
C582 C584 1.385 1_455 S
C583 C582 1.355 1_655 S
C583 C585 1.442 . S
C584 C582 1.385 1_655 S
C584 C589 1.444 . S
C584 C591 1.409 1_655 S
C585 H577 0.930 . S
C585 C583 1.442 . S
C585 C586 1.362 . S
C586 H578 0.930 . S
C586 C585 1.362 . S
C586 C589 1.409 . S
C587 H579 0.930 . S
C587 C588 1.355 . S
C587 C589 1.415 . S
C588 C587 1.355 . S
C588 C590 1.434 . S
C589 C584 1.444 . S
C589 C586 1.409 . S
C589 C587 1.415 . S
C590 H580 0.930 1_655 S
C590 C588 1.434 . S
C590 C591 1.348 1_655 S
C591 H581 0.930 . S
C591 C584 1.409 1_455 S
C591 C590 1.348 1_455 S
H592 C598 0.930 . S
H593 C601 0.930 . S
H594 C602 0.930 . S
H595 C603 0.930 . S
H596 C606 0.930 . S
H597 C607 0.930 . S
C598 H592 0.930 . S
C598 C599 1.355 . S
C598 C600 1.415 . S
C599 C598 1.355 . S
C599 C601 1.419 . S
C600 C598 1.415 . S
C600 C605 1.425 . S
C600 C607 1.409 . S
C601 H593 0.930 . S
C601 C599 1.419 . S
C601 C602 1.362 . S
C602 H594 0.930 . S
C602 C601 1.362 . S
C602 C605 1.409 . S
C603 H595 0.930 . S
C603 C604 1.355 . S
C603 C605 1.415 . S
C604 C603 1.355 . S
C604 C606 1.419 . S
C605 C600 1.425 . S
C605 C602 1.409 . S
C605 C603 1.415 . S
C606 H596 0.930 . S
C606 C604 1.419 . S
C606 C607 1.362 . S
C607 H597 0.930 . S
C607 C600 1.409 . S
C607 C606 1.362 . S
H608 C614 0.930 . S
H609 C617 0.930 . S
H610 C618 0.930 . S
H611 C619 0.961 . S
H612 C622 0.930 . S
H613 C623 0.930 . S
C614 H608 0.930 . S
C614 C615 1.355 1_545 S
C614 C616 1.415 . S
C615 C614 1.355 1_565 S
C615 C617 1.418 . S
C616 C614 1.415 . S
C616 C621 1.410 1_545 S
C616 C623 1.409 . S
C617 H609 0.930 . S
C617 C615 1.418 . S
C617 C618 1.362 . S
C618 H610 0.930 . S
C618 C617 1.362 . S
C618 C621 1.413 . S
C619 H611 0.961 . S
C619 C620 1.347 1_565 S
C619 C621 1.405 . S
C620 C619 1.347 1_545 S
C620 C622 1.419 . S
C621 C616 1.410 1_565 S
C621 C618 1.413 . S
C621 C619 1.405 . S
C622 H612 0.930 . S
C622 C620 1.419 . S
C622 C623 1.362 . S
C623 H613 0.930 . S
C623 C616 1.409 . S
C623 C622 1.362 . S
H624 C630 0.930 . S
H625 C633 0.930 . S
H626 C634 0.930 . S
H627 C635 0.930 . S
H628 C638 0.930 . S
H629 C639 0.930 . S
C630 H624 0.930 . S
C630 C631 1.355 1_565 S
C630 C632 1.415 . S
C631 C630 1.355 1_545 S
C631 C633 1.419 . S
C632 C630 1.415 . S
C632 C637 1.425 1_565 S
C632 C639 1.409 . S
C633 H625 0.930 . S
C633 C631 1.419 . S
C633 C634 1.362 . S
C634 H626 0.930 . S
C634 C633 1.362 . S
C634 C637 1.409 . S
C635 H627 0.930 . S
C635 C636 1.355 1_545 S
C635 C637 1.415 . S
C636 C635 1.355 1_565 S
C636 C638 1.419 . S
C637 C632 1.425 1_545 S
C637 C634 1.409 . S
C637 C635 1.415 . S
C638 H628 0.930 . S
C638 C636 1.419 . S
C638 C639 1.362 . S
C639 H629 0.930 . S
C639 C632 1.409 . S
C639 C638 1.362 . S
H640 C646 0.930 . S
H641 C649 0.930 . S
H642 C650 0.930 . S
H643 C651 0.930 . S
H644 C654 0.930 . S
H645 C655 0.930 . S
C646 H640 0.930 . S
C646 C647 1.338 1_455 S
C646 C648 1.415 . S
C647 C646 1.338 1_655 S
C647 C649 1.459 . S
C648 C646 1.415 . S
C648 C653 1.425 1_455 S
C648 C655 1.409 . S
C649 H641 0.930 . S
C649 C647 1.459 . S
C649 C650 1.362 . S
C650 H642 0.930 . S
C650 C649 1.362 . S
C650 C653 1.409 . S
C651 H643 0.930 . S
C651 C652 1.355 1_655 S
C651 C653 1.415 . S
C652 C651 1.355 1_455 S
C652 C654 1.419 . S
C653 C648 1.425 1_655 S
C653 C650 1.409 . S
C653 C651 1.415 . S
C654 H644 0.930 . S
C654 C652 1.419 . S
C654 C655 1.362 . S
C655 H645 0.930 . S
C655 C648 1.409 . S
C655 C654 1.362 . S
H656 C662 0.930 . S
H657 C665 0.930 . S
H658 C666 0.930 . S
H659 C667 0.930 . S
H660 C670 0.930 . S
H661 C671 0.930 . S
C662 H656 0.930 . S
C662 C663 1.355 . S
C662 C664 1.415 . S
C663 C662 1.355 . S
C663 C665 1.419 . S
C664 C662 1.415 . S
C664 C669 1.425 . S
C664 C671 1.409 . S
C665 H657 0.930 . S
C665 C663 1.419 . S
C665 C666 1.362 . S
C666 H658 0.930 . S
C666 C665 1.362 . S
C666 C669 1.409 . S
C667 H659 0.930 . S
C667 C668 1.355 . S
C667 C669 1.415 . S
C668 C667 1.355 . S
C668 C670 1.419 . S
C669 C664 1.425 . S
C669 C666 1.409 . S
C669 C667 1.415 . S
C670 H660 0.930 . S
C670 C668 1.419 . S
C670 C671 1.362 . S
C671 H661 0.930 . S
C671 C664 1.409 . S
C671 C670 1.362 . S
H672 C678 0.930 . S
H673 C681 0.930 . S
H674 C682 0.930 . S
H675 C683 0.930 . S
H676 C686 0.930 . S
H677 C687 0.930 . S
C678 H672 0.930 . S
C678 C679 1.355 1_455 S
C678 C680 1.415 . S
C679 C678 1.355 1_655 S
C679 C681 1.419 . S
C680 C678 1.415 . S
C680 C685 1.425 1_455 S
C680 C687 1.409 . S
C681 H673 0.930 . S
C681 C679 1.419 . S
C681 C682 1.362 . S
C682 H674 0.930 . S
C682 C681 1.362 . S
C682 C685 1.409 . S
C683 H675 0.930 . S
C683 C684 1.355 1_655 S
C683 C685 1.415 . S
C684 C683 1.355 1_455 S
C684 C686 1.419 . S
C685 C680 1.425 1_655 S
C685 C682 1.409 . S
C685 C683 1.415 . S
C686 H676 0.930 . S
C686 C684 1.419 . S
C686 C687 1.362 . S
C687 H677 0.930 . S
C687 C680 1.409 . S
C687 C686 1.362 . S
H688 C694 0.930 . S
H689 C697 0.930 . S
H690 C698 0.930 . S
H691 C699 0.930 . S
H692 C702 0.930 . S
H693 C703 0.930 . S
C694 H688 0.930 . S
C694 C695 1.355 . S
C694 C696 1.415 . S
C695 C694 1.355 . S
C695 C697 1.419 . S
C696 C694 1.415 . S
C696 C701 1.425 . S
C696 C703 1.409 . S
C697 H689 0.930 . S
C697 C695 1.419 . S
C697 C698 1.362 . S
C698 H690 0.930 . S
C698 C697 1.362 . S
C698 C701 1.409 . S
C699 H691 0.930 . S
C699 C700 1.355 . S
C699 C701 1.415 . S
C700 C699 1.355 . S
C700 C702 1.419 . S
C701 C696 1.425 . S
C701 C698 1.409 . S
C701 C699 1.415 . S
C702 H692 0.930 . S
C702 C700 1.419 . S
C702 C703 1.362 . S
C703 H693 0.930 . S
C703 C696 1.409 . S
C703 C702 1.362 . S
H704 C710 0.930 . S
H705 C713 0.930 . S
H706 C714 0.930 . S
H707 C715 0.930 . S
H708 C718 0.930 . S
H709 C719 0.930 . S
C710 H704 0.930 . S
C710 C711 1.355 1_565 S
C710 C712 1.415 . S
C711 C710 1.355 1_545 S
C711 C713 1.419 . S
C712 C710 1.415 . S
C712 C717 1.425 1_565 S
C712 C719 1.409 . S
C713 H705 0.930 . S
C713 C711 1.419 . S
C713 C714 1.362 . S
C714 H706 0.930 . S
C714 C713 1.362 . S
C714 C717 1.409 . S
C715 H707 0.930 . S
C715 C716 1.353 1_545 S
C715 C717 1.415 . S
C716 C715 1.353 1_565 S
C716 C718 1.429 . S
C717 C712 1.425 1_545 S
C717 C714 1.409 . S
C717 C715 1.415 . S
C718 H708 0.930 . S
C718 C716 1.429 . S
C718 C719 1.362 . S
C719 H709 0.930 . S
C719 C712 1.409 . S
C719 C718 1.362 . S
H720 C726 0.930 . S
H721 C729 0.930 . S
H722 C730 0.930 . S
H723 C731 0.930 . S
H724 C734 0.930 . S
H725 C735 0.930 . S
C726 H720 0.930 . S
C726 C727 1.352 . S
C726 C728 1.415 . S
C727 C726 1.352 . S
C727 C729 1.425 1_565 S
C728 C726 1.415 . S
C728 C733 1.425 1_565 S
C728 C735 1.409 . S
C729 H721 0.930 . S
C729 C727 1.425 1_545 S
C729 C730 1.362 . S
C730 H722 0.930 . S
C730 C729 1.362 . S
C730 C733 1.409 . S
C731 H723 0.930 . S
C731 C732 1.355 1_545 S
C731 C733 1.415 . S
C732 C731 1.355 1_565 S
C732 C734 1.419 . S
C733 C728 1.425 1_545 S
C733 C730 1.409 . S
C733 C731 1.415 . S
C734 H724 0.930 . S
C734 C732 1.419 . S
C734 C735 1.362 . S
C735 H725 0.930 . S
C735 C728 1.409 . S
C735 C734 1.362 . S
H736 C742 0.930 . S
H737 C745 0.930 . S
H738 C746 0.930 . S
H739 C747 0.930 . S
H740 C750 0.930 . S
H741 C751 0.930 . S
C742 H736 0.930 . S
C742 C743 1.355 1_655 S
C742 C744 1.415 . S
C743 C742 1.355 1_455 S
C743 C745 1.419 . S
C744 C742 1.415 . S
C744 C749 1.425 1_655 S
C744 C751 1.409 . S
C745 H737 0.930 . S
C745 C743 1.419 . S
C745 C746 1.362 . S
C746 H738 0.930 . S
C746 C745 1.362 . S
C746 C749 1.409 . S
C747 H739 0.930 . S
C747 C748 1.355 1_455 S
C747 C749 1.415 . S
C748 C747 1.355 1_655 S
C748 C750 1.419 . S
C749 C744 1.425 1_455 S
C749 C746 1.409 . S
C749 C747 1.415 . S
C750 H740 0.930 . S
C750 C748 1.419 . S
C750 C751 1.362 . S
C751 H741 0.930 . S
C751 C744 1.409 . S
C751 C750 1.362 . S
H752 C758 0.930 . S
H753 C761 0.930 . S
H754 C762 0.930 . S
H755 C763 0.930 . S
H756 C766 0.930 . S
H757 C767 0.930 . S
C758 H752 0.930 . S
C758 C759 1.355 . S
C758 C760 1.415 . S
C759 C758 1.355 . S
C759 C761 1.419 . S
C760 C758 1.415 . S
C760 C765 1.425 . S
C760 C767 1.409 . S
C761 H753 0.930 . S
C761 C759 1.419 . S
C761 C762 1.362 . S
C762 H754 0.930 . S
C762 C761 1.362 . S
C762 C765 1.409 . S
C763 H755 0.930 . S
C763 C764 1.355 . S
C763 C765 1.415 . S
C764 C763 1.355 . S
C764 C766 1.419 . S
C765 C760 1.425 . S
C765 C762 1.409 . S
C765 C763 1.415 . S
C766 H756 0.930 . S
C766 C764 1.419 . S
C766 C767 1.362 . S
C767 H757 0.930 . S
C767 C760 1.409 . S
C767 C766 1.362 . S
H768 C774 0.930 . S
H769 C777 0.930 . S
H770 C778 0.930 . S
H771 C779 0.930 . S
H772 C782 0.930 . S
H773 C783 0.930 . S
C774 H768 0.930 . S
C774 C775 1.355 . S
C774 C776 1.415 . S
C775 C774 1.355 . S
C775 C777 1.419 . S
C776 C774 1.415 . S
C776 C781 1.425 . S
C776 C783 1.409 . S
C777 H769 0.930 . S
C777 C775 1.419 . S
C777 C778 1.362 . S
C778 H770 0.930 . S
C778 C777 1.362 . S
C778 C781 1.409 . S
C779 H771 0.930 . S
C779 C780 1.355 . S
C779 C781 1.415 . S
C780 C779 1.355 . S
C780 C782 1.419 . S
C781 C776 1.425 . S
C781 C778 1.409 . S
C781 C779 1.415 . S
C782 H772 0.930 . S
C782 C780 1.419 . S
C782 C783 1.362 . S
C783 H773 0.930 . S
C783 C776 1.409 . S
C783 C782 1.362 . S
H784 C790 0.930 . S
H785 C793 0.930 . S
H786 C794 0.930 . S
H787 C795 0.930 . S
H788 C798 0.930 . S
H789 C799 0.930 . S
C790 H784 0.930 . S
C790 C791 1.355 . S
C790 C792 1.415 . S
C791 C790 1.355 . S
C791 C793 1.419 . S
C792 C790 1.415 . S
C792 C797 1.425 . S
C792 C799 1.409 . S
C793 H785 0.930 . S
C793 C791 1.419 . S
C793 C794 1.362 . S
C794 H786 0.930 . S
C794 C793 1.362 . S
C794 C797 1.409 . S
C795 H787 0.930 . S
C795 C796 1.355 . S
C795 C797 1.415 . S
C796 C795 1.355 . S
C796 C798 1.419 . S
C797 C792 1.425 . S
C797 C794 1.409 . S
C797 C795 1.415 . S
C798 H788 0.930 . S
C798 C796 1.419 . S
C798 C799 1.362 . S
C799 H789 0.930 . S
C799 C792 1.409 . S
C799 C798 1.362 . S
H800 C806 0.930 . S
H801 C809 0.930 . S
H802 C810 0.930 . S
H803 C811 0.930 . S
H804 C814 0.930 . S
H805 C815 0.930 . S
C806 H800 0.930 . S
C806 C807 1.355 . S
C806 C808 1.415 . S
C807 C806 1.355 . S
C807 C809 1.419 . S
C808 C806 1.415 . S
C808 C813 1.425 . S
C808 C815 1.409 . S
C809 H801 0.930 . S
C809 C807 1.419 . S
C809 C810 1.362 . S
C810 H802 0.930 . S
C810 C809 1.362 . S
C810 C813 1.409 . S
C811 H803 0.930 . S
C811 C812 1.355 . S
C811 C813 1.415 . S
C812 C811 1.355 . S
C812 C814 1.419 . S
C813 C808 1.425 . S
C813 C810 1.409 . S
C813 C811 1.415 . S
C814 H804 0.930 . S
C814 C812 1.419 . S
C814 C815 1.362 . S
C815 H805 0.930 . S
C815 C808 1.409 . S
C815 C814 1.362 . S
H816 C822 0.930 . S
H817 C825 0.930 . S
H818 C826 0.930 . S
H819 C827 0.930 . S
H820 C830 0.930 . S
H821 C831 0.930 . S
C822 H816 0.930 . S
C822 C823 1.355 . S
C822 C824 1.415 . S
C823 C822 1.355 . S
C823 C825 1.419 . S
C824 C822 1.415 . S
C824 C829 1.425 . S
C824 C831 1.409 . S
C825 H817 0.930 . S
C825 C823 1.419 . S
C825 C826 1.362 . S
C826 H818 0.930 . S
C826 C825 1.362 . S
C826 C829 1.409 . S
C827 H819 0.930 . S
C827 C828 1.355 . S
C827 C829 1.415 . S
C828 C827 1.355 . S
C828 C830 1.419 . S
C829 C824 1.425 . S
C829 C826 1.409 . S
C829 C827 1.415 . S
C830 H820 0.930 . S
C830 C828 1.419 . S
C830 C831 1.362 . S
C831 H821 0.930 . S
C831 C824 1.409 . S
C831 C830 1.362 . S
H832 C838 0.930 . S
H833 C841 0.930 . S
H834 C842 0.930 . S
H835 C843 0.930 . S
H836 C846 0.930 . S
H837 C847 0.930 . S
C838 H832 0.930 . S
C838 C839 1.355 . S
C838 C840 1.415 . S
C839 C838 1.355 . S
C839 C841 1.419 . S
C840 C838 1.415 . S
C840 C845 1.425 . S
C840 C847 1.409 . S
C841 H833 0.930 . S
C841 C839 1.419 . S
C841 C842 1.362 . S
C842 H834 0.930 . S
C842 C841 1.362 . S
C842 C845 1.409 . S
C843 H835 0.930 . S
C843 C844 1.355 . S
C843 C845 1.415 . S
C844 C843 1.355 . S
C844 C846 1.419 . S
C845 C840 1.425 . S
C845 C842 1.409 . S
C845 C843 1.415 . S
C846 H836 0.930 . S
C846 C844 1.419 . S
C846 C847 1.362 . S
C847 H837 0.930 . S
C847 C840 1.409 . S
C847 C846 1.362 . S
H848 C854 0.930 . S
H849 C857 0.930 . S
H850 C858 0.930 . S
H851 C859 0.930 . S
H852 C862 0.930 . S
H853 C863 0.930 . S
C854 H848 0.930 . S
C854 C855 1.355 . S
C854 C856 1.415 . S
C855 C854 1.355 . S
C855 C857 1.419 . S
C856 C854 1.415 . S
C856 C861 1.425 . S
C856 C863 1.409 . S
C857 H849 0.930 . S
C857 C855 1.419 . S
C857 C858 1.362 . S
C858 H850 0.930 . S
C858 C857 1.362 . S
C858 C861 1.409 . S
C859 H851 0.930 . S
C859 C860 1.355 . S
C859 C861 1.415 . S
C860 C859 1.355 . S
C860 C862 1.419 . S
C861 C856 1.425 . S
C861 C858 1.409 . S
C861 C859 1.415 . S
C862 H852 0.930 . S
C862 C860 1.419 . S
C862 C863 1.362 . S
C863 H853 0.930 . S
C863 C856 1.409 . S
C863 C862 1.362 . S
H864 C870 0.930 . S
H865 C873 0.930 . S
H866 C874 0.930 . S
H867 C875 0.930 . S
H868 C878 0.930 . S
H869 C879 0.930 . S
C870 H864 0.930 . S
C870 C871 1.355 . S
C870 C872 1.415 . S
C871 C870 1.355 . S
C871 C873 1.419 . S
C872 C870 1.415 . S
C872 C877 1.425 . S
C872 C879 1.409 . S
C873 H865 0.930 . S
C873 C871 1.419 . S
C873 C874 1.362 . S
C874 H866 0.930 . S
C874 C873 1.362 . S
C874 C877 1.409 . S
C875 H867 0.930 . S
C875 C876 1.355 . S
C875 C877 1.415 . S
C876 C875 1.355 . S
C876 C878 1.419 . S
C877 C872 1.425 . S
C877 C874 1.409 . S
C877 C875 1.415 . S
C878 H868 0.930 . S
C878 C876 1.419 . S
C878 C879 1.362 . S
C879 H869 0.930 . S
C879 C872 1.409 . S
C879 C878 1.362 . S
H880 C886 0.930 . S
H881 C889 0.930 . S
H882 C890 0.930 . S
H883 C891 0.930 . S
H884 C894 0.930 . S
H885 C895 0.930 . S
C886 H880 0.930 . S
C886 C887 1.355 . S
C886 C888 1.415 . S
C887 C886 1.355 . S
C887 C889 1.419 . S
C888 C886 1.415 . S
C888 C893 1.425 . S
C888 C895 1.409 . S
C889 H881 0.930 . S
C889 C887 1.419 . S
C889 C890 1.362 . S
C890 H882 0.930 . S
C890 C889 1.362 . S
C890 C893 1.409 . S
C891 H883 0.930 . S
C891 C892 1.355 . S
C891 C893 1.415 . S
C892 C891 1.355 . S
C892 C894 1.419 . S
C893 C888 1.425 . S
C893 C890 1.409 . S
C893 C891 1.415 . S
C894 H884 0.930 . S
C894 C892 1.419 . S
C894 C895 1.362 . S
C895 H885 0.930 . S
C895 C888 1.409 . S
C895 C894 1.362 . S
H896 C902 0.930 . S
H897 C905 0.930 . S
H898 C906 0.930 . S
H899 C907 0.930 . S
H900 C910 0.930 . S
H901 C911 0.930 . S
C902 H896 0.930 . S
C902 C903 1.355 . S
C902 C904 1.415 . S
C903 C902 1.355 . S
C903 C905 1.419 . S
C904 C902 1.415 . S
C904 C909 1.425 . S
C904 C911 1.409 . S
C905 H897 0.930 . S
C905 C903 1.419 . S
C905 C906 1.362 . S
C906 H898 0.930 . S
C906 C905 1.362 . S
C906 C909 1.409 . S
C907 H899 0.930 . S
C907 C908 1.355 . S
C907 C909 1.415 . S
C908 C907 1.355 . S
C908 C910 1.419 . S
C909 C904 1.425 . S
C909 C906 1.409 . S
C909 C907 1.415 . S
C910 H900 0.930 . S
C910 C908 1.419 . S
C910 C911 1.362 . S
C911 H901 0.930 . S
C911 C904 1.409 . S
C911 C910 1.362 . S
H912 C918 0.930 . S
H913 C921 0.930 . S
H914 C922 0.930 . S
H915 C923 0.930 . S
H916 C926 0.930 . S
H917 C927 0.930 . S
C918 H912 0.930 . S
C918 C919 1.355 . S
C918 C920 1.415 . S
C919 C918 1.355 . S
C919 C921 1.419 . S
C920 C918 1.415 . S
C920 C925 1.425 . S
C920 C927 1.409 . S
C921 H913 0.930 . S
C921 C919 1.419 . S
C921 C922 1.362 . S
C922 H914 0.930 . S
C922 C921 1.362 . S
C922 C925 1.409 . S
C923 H915 0.930 . S
C923 C924 1.355 . S
C923 C925 1.415 . S
C924 C923 1.355 . S
C924 C926 1.419 . S
C925 C920 1.425 . S
C925 C922 1.409 . S
C925 C923 1.415 . S
C926 H916 0.930 . S
C926 C924 1.419 . S
C926 C927 1.362 . S
C927 H917 0.930 . S
C927 C920 1.409 . S
C927 C926 1.362 . S
H928 C934 0.930 . S
H929 C937 0.930 . S
H930 C938 0.930 . S
H931 C939 0.930 . S
H932 C942 0.930 . S
H933 C943 0.930 . S
C934 H928 0.930 . S
C934 C935 1.355 . S
C934 C936 1.415 . S
C935 C934 1.355 . S
C935 C937 1.419 . S
C936 C934 1.415 . S
C936 C941 1.425 . S
C936 C943 1.409 . S
C937 H929 0.930 . S
C937 C935 1.419 . S
C937 C938 1.362 . S
C938 H930 0.930 . S
C938 C937 1.362 . S
C938 C941 1.409 . S
C939 H931 0.930 . S
C939 C940 1.355 . S
C939 C941 1.415 . S
C940 C939 1.355 . S
C940 C942 1.419 . S
C941 C936 1.425 . S
C941 C938 1.409 . S
C941 C939 1.415 . S
C942 H932 0.930 . S
C942 C940 1.419 . S
C942 C943 1.362 . S
C943 H933 0.930 . S
C943 C936 1.409 . S
C943 C942 1.362 . S
H944 C950 0.930 . S
H945 C953 0.930 . S
H946 C954 0.930 . S
H947 C955 0.930 . S
H948 C958 0.930 . S
H949 C959 0.930 . S
C950 H944 0.930 . S
C950 C951 1.355 . S
C950 C952 1.415 . S
C951 C950 1.355 . S
C951 C953 1.419 . S
C952 C950 1.415 . S
C952 C957 1.425 . S
C952 C959 1.409 . S
C953 H945 0.930 . S
C953 C951 1.419 . S
C953 C954 1.362 . S
C954 H946 0.930 . S
C954 C953 1.362 . S
C954 C957 1.409 . S
C955 H947 0.930 . S
C955 C956 1.355 . S
C955 C957 1.415 . S
C956 C955 1.355 . S
C956 C958 1.419 . S
C957 C952 1.425 . S
C957 C954 1.409 . S
C957 C955 1.415 . S
C958 H948 0.930 . S
C958 C956 1.419 . S
C958 C959 1.362 . S
C959 H949 0.930 . S
C959 C952 1.409 . S
C959 C958 1.362 . S
H960 C966 0.930 . S
H961 C969 0.930 . S
H962 C970 0.930 . S
H963 C971 0.930 . S
H964 C974 0.930 . S
H965 C975 0.930 . S
C966 H960 0.930 . S
C966 C967 1.355 . S
C966 C968 1.415 . S
C967 C966 1.355 . S
C967 C969 1.419 . S
C968 C966 1.415 . S
C968 C973 1.425 . S
C968 C975 1.409 . S
C969 H961 0.930 . S
C969 C967 1.419 . S
C969 C970 1.362 . S
C970 H962 0.930 . S
C970 C969 1.362 . S
C970 C973 1.409 . S
C971 H963 0.930 . S
C971 C972 1.355 . S
C971 C973 1.415 . S
C972 C971 1.355 . S
C972 C974 1.419 . S
C973 C968 1.425 . S
C973 C970 1.409 . S
C973 C971 1.415 . S
C974 H964 0.930 . S
C974 C972 1.419 . S
C974 C975 1.362 . S
C975 H965 0.930 . S
C975 C968 1.409 . S
C975 C974 1.362 . S
H976 C982 0.930 . S
H977 C985 0.930 . S
H978 C986 0.930 . S
H979 C987 0.930 . S
H980 C990 0.930 . S
H981 C991 0.930 . S
C982 H976 0.930 . S
C982 C983 1.355 . S
C982 C984 1.415 . S
C983 C982 1.355 . S
C983 C985 1.419 . S
C984 C982 1.415 . S
C984 C989 1.425 . S
C984 C991 1.409 . S
C985 H977 0.930 . S
C985 C983 1.419 . S
C985 C986 1.362 . S
C986 H978 0.930 . S
C986 C985 1.362 . S
C986 C989 1.409 . S
C987 H979 0.930 . S
C987 C988 1.355 . S
C987 C989 1.415 . S
C988 C987 1.355 . S
C988 C990 1.419 . S
C989 C984 1.425 . S
C989 C986 1.409 . S
C989 C987 1.415 . S
C990 H980 0.930 . S
C990 C988 1.419 . S
C990 C991 1.362 . S
C991 H981 0.930 . S
C991 C984 1.409 . S
C991 C990 1.362 . S
H992 C998 0.930 . S
H993 C1001 0.930 . S
H994 C1002 0.930 . S
H995 C1003 0.930 . S
H996 C1006 0.930 . S
H997 C1007 0.930 . S
C998 H992 0.930 . S
C998 C999 1.355 . S
C998 C1000 1.415 . S
C999 C998 1.355 . S
C999 C1001 1.419 . S
C1000 C998 1.415 . S
C1000 C1005 1.425 . S
C1000 C1007 1.409 . S
C1001 H993 0.930 . S
C1001 C999 1.419 . S
C1001 C1002 1.362 . S
C1002 H994 0.930 . S
C1002 C1001 1.362 . S
C1002 C1005 1.409 . S
C1003 H995 0.930 . S
C1003 C1004 1.355 . S
C1003 C1005 1.415 . S
C1004 C1003 1.355 . S
C1004 C1006 1.419 . S
C1005 C1000 1.425 . S
C1005 C1002 1.409 . S
C1005 C1003 1.415 . S
C1006 H996 0.930 . S
C1006 C1004 1.419 . S
C1006 C1007 1.362 . S
C1007 H997 0.930 . S
C1007 C1000 1.409 . S
C1007 C1006 1.362 . S
H1008 C1014 0.930 . S
H1009 C1017 0.930 . S
H1010 C1018 0.930 . S
H1011 C1019 0.930 . S
H1012 C1022 0.930 . S
H1013 C1023 0.930 . S
C1014 H1008 0.930 . S
C1014 C1015 1.355 . S
C1014 C1016 1.415 . S
C1015 C1014 1.355 . S
C1015 C1017 1.419 . S
C1016 C1014 1.415 . S
C1016 C1021 1.425 . S
C1016 C1023 1.409 . S
C1017 H1009 0.930 . S
C1017 C1015 1.419 . S
C1017 C1018 1.362 . S
C1018 H1010 0.930 . S
C1018 C1017 1.362 . S
C1018 C1021 1.409 . S
C1019 H1011 0.930 . S
C1019 C1020 1.355 . S
C1019 C1021 1.415 . S
C1020 C1019 1.355 . S
C1020 C1022 1.419 . S
C1021 C1016 1.425 . S
C1021 C1018 1.409 . S
C1021 C1019 1.415 . S
C1022 H1012 0.930 . S
C1022 C1020 1.419 . S
C1022 C1023 1.362 . S
C1023 H1013 0.930 . S
C1023 C1016 1.409 . S
C1023 C1022 1.362 . S
H1024 C1030 0.930 . S
H1025 C1033 0.930 . S
H1026 C1034 0.930 . S
H1027 C1035 0.930 . S
H1028 C1038 0.930 . S
H1029 C1039 0.930 . S
C1030 H1024 0.930 . S
C1030 C1031 1.355 . S
C1030 C1032 1.415 . S
C1031 C1030 1.355 . S
C1031 C1033 1.419 . S
C1032 C1030 1.415 . S
C1032 C1037 1.425 . S
C1032 C1039 1.409 . S
C1033 H1025 0.930 . S
C1033 C1031 1.419 . S
C1033 C1034 1.362 . S
C1034 H1026 0.930 . S
C1034 C1033 1.362 . S
C1034 C1037 1.409 . S
C1035 H1027 0.930 . S
C1035 C1036 1.355 . S
C1035 C1037 1.415 . S
C1036 C1035 1.355 . S
C1036 C1038 1.419 . S
C1037 C1032 1.425 . S
C1037 C1034 1.409 . S
C1037 C1035 1.415 . S
C1038 H1028 0.930 . S
C1038 C1036 1.419 . S
C1038 C1039 1.362 . S
C1039 H1029 0.930 . S
C1039 C1032 1.409 . S
C1039 C1038 1.362 . S
H1040 C1046 0.930 . S
H1041 C1049 0.930 . S
H1042 C1050 0.930 . S
H1043 C1051 0.930 . S
H1044 C1054 0.930 . S
H1045 C1055 0.930 . S
C1046 H1040 0.930 . S
C1046 C1047 1.355 . S
C1046 C1048 1.415 . S
C1047 C1046 1.355 . S
C1047 C1049 1.419 . S
C1048 C1046 1.415 . S
C1048 C1053 1.425 . S
C1048 C1055 1.409 . S
C1049 H1041 0.930 . S
C1049 C1047 1.419 . S
C1049 C1050 1.362 . S
C1050 H1042 0.930 . S
C1050 C1049 1.362 . S
C1050 C1053 1.409 . S
C1051 H1043 0.930 . S
C1051 C1052 1.355 . S
C1051 C1053 1.415 . S
C1052 C1051 1.355 . S
C1052 C1054 1.419 . S
C1053 C1048 1.425 . S
C1053 C1050 1.409 . S
C1053 C1051 1.415 . S
C1054 H1044 0.930 . S
C1054 C1052 1.419 . S
C1054 C1055 1.362 . S
C1055 H1045 0.930 . S
C1055 C1048 1.409 . S
C1055 C1054 1.362 . S
H1056 C1062 0.930 . S
H1057 C1065 0.930 . S
H1058 C1066 0.930 . S
H1059 C1067 0.930 . S
H1060 C1070 0.930 . S
H1061 C1071 0.930 . S
C1062 H1056 0.930 . S
C1062 C1063 1.355 . S
C1062 C1064 1.415 . S
C1063 C1062 1.355 . S
C1063 C1065 1.419 . S
C1064 C1062 1.415 . S
C1064 C1069 1.425 . S
C1064 C1071 1.409 . S
C1065 H1057 0.930 . S
C1065 C1063 1.419 . S
C1065 C1066 1.362 . S
C1066 H1058 0.930 . S
C1066 C1065 1.362 . S
C1066 C1069 1.409 . S
C1067 H1059 0.930 . S
C1067 C1068 1.355 . S
C1067 C1069 1.415 . S
C1068 C1067 1.355 . S
C1068 C1070 1.419 . S
C1069 C1064 1.425 . S
C1069 C1066 1.409 . S
C1069 C1067 1.415 . S
C1070 H1060 0.930 . S
C1070 C1068 1.419 . S
C1070 C1071 1.362 . S
C1071 H1061 0.930 . S
C1071 C1064 1.409 . S
C1071 C1070 1.362 . S
H1072 C1078 0.930 . S
H1073 C1081 0.930 . S
H1074 C1082 0.930 . S
H1075 C1083 0.930 . S
H1076 C1086 0.930 . S
H1077 C1087 0.930 . S
C1078 H1072 0.930 . S
C1078 C1079 1.355 . S
C1078 C1080 1.415 . S
C1079 C1078 1.355 . S
C1079 C1081 1.419 . S
C1080 C1078 1.415 . S
C1080 C1085 1.425 . S
C1080 C1087 1.409 . S
C1081 H1073 0.930 . S
C1081 C1079 1.419 . S
C1081 C1082 1.362 . S
C1082 H1074 0.930 . S
C1082 C1081 1.362 . S
C1082 C1085 1.409 . S
C1083 H1075 0.930 . S
C1083 C1084 1.355 . S
C1083 C1085 1.415 . S
C1084 C1083 1.355 . S
C1084 C1086 1.419 . S
C1085 C1080 1.425 . S
C1085 C1082 1.409 . S
C1085 C1083 1.415 . S
C1086 H1076 0.930 . S
C1086 C1084 1.419 . S
C1086 C1087 1.362 . S
C1087 H1077 0.930 . S
C1087 C1080 1.409 . S
C1087 C1086 1.362 . S
H1088 C1094 0.930 . S
H1089 C1097 0.930 . S
H1090 C1098 0.930 . S
H1091 C1099 0.930 . S
H1092 C1102 0.930 . S
H1093 C1103 0.930 . S
C1094 H1088 0.930 . S
C1094 C1095 1.355 . S
C1094 C1096 1.415 . S
C1095 C1094 1.355 . S
C1095 C1097 1.419 . S
C1096 C1094 1.415 . S
C1096 C1101 1.425 . S
C1096 C1103 1.409 . S
C1097 H1089 0.930 . S
C1097 C1095 1.419 . S
C1097 C1098 1.362 . S
C1098 H1090 0.930 . S
C1098 C1097 1.362 . S
C1098 C1101 1.409 . S
C1099 H1091 0.930 . S
C1099 C1100 1.355 . S
C1099 C1101 1.415 . S
C1100 C1099 1.355 . S
C1100 C1102 1.419 . S
C1101 C1096 1.425 . S
C1101 C1098 1.409 . S
C1101 C1099 1.415 . S
C1102 H1092 0.930 . S
C1102 C1100 1.419 . S
C1102 C1103 1.362 . S
C1103 H1093 0.930 . S
C1103 C1096 1.409 . S
C1103 C1102 1.362 . S
H1104 C1110 0.930 . S
H1105 C1113 0.930 . S
H1106 C1114 0.930 . S
H1107 C1115 0.930 . S
H1108 C1118 0.930 . S
H1109 C1119 0.930 . S
C1110 H1104 0.930 . S
C1110 C1111 1.355 . S
C1110 C1112 1.415 . S
C1111 C1110 1.355 . S
C1111 C1113 1.419 . S
C1112 C1110 1.415 . S
C1112 C1117 1.425 . S
C1112 C1119 1.409 . S
C1113 H1105 0.930 . S
C1113 C1111 1.419 . S
C1113 C1114 1.362 . S
C1114 H1106 0.930 . S
C1114 C1113 1.362 . S
C1114 C1117 1.409 . S
C1115 H1107 0.930 . S
C1115 C1116 1.355 . S
C1115 C1117 1.415 . S
C1116 C1115 1.355 . S
C1116 C1118 1.419 . S
C1117 C1112 1.425 . S
C1117 C1114 1.409 . S
C1117 C1115 1.415 . S
C1118 H1108 0.930 . S
C1118 C1116 1.419 . S
C1118 C1119 1.362 . S
C1119 H1109 0.930 . S
C1119 C1112 1.409 . S
C1119 C1118 1.362 . S
H1120 C1126 0.930 . S
H1121 C1129 0.930 . S
H1122 C1130 0.930 . S
H1123 C1131 0.930 . S
H1124 C1134 0.930 . S
H1125 C1135 0.930 . S
C1126 H1120 0.930 . S
C1126 C1127 1.355 . S
C1126 C1128 1.415 . S
C1127 C1126 1.355 . S
C1127 C1129 1.419 . S
C1128 C1126 1.415 . S
C1128 C1133 1.425 . S
C1128 C1135 1.409 . S
C1129 H1121 0.930 . S
C1129 C1127 1.419 . S
C1129 C1130 1.362 . S
C1130 H1122 0.930 . S
C1130 C1129 1.362 . S
C1130 C1133 1.409 . S
C1131 H1123 0.930 . S
C1131 C1132 1.355 . S
C1131 C1133 1.415 . S
C1132 C1131 1.355 . S
C1132 C1134 1.419 . S
C1133 C1128 1.425 . S
C1133 C1130 1.409 . S
C1133 C1131 1.415 . S
C1134 H1124 0.930 . S
C1134 C1132 1.419 . S
C1134 C1135 1.362 . S
C1135 H1125 0.930 . S
C1135 C1128 1.409 . S
C1135 C1134 1.362 . S
H1136 C1142 0.930 . S
H1137 C1145 0.930 . S
H1138 C1146 0.930 . S
H1139 C1147 0.930 . S
H1140 C1150 0.930 . S
H1141 C1151 0.930 . S
C1142 H1136 0.930 . S
C1142 C1143 1.355 . S
C1142 C1144 1.415 . S
C1143 C1142 1.355 . S
C1143 C1145 1.419 . S
C1144 C1142 1.415 . S
C1144 C1149 1.425 . S
C1144 C1151 1.409 . S
C1145 H1137 0.930 . S
C1145 C1143 1.419 . S
C1145 C1146 1.362 . S
C1146 H1138 0.930 . S
C1146 C1145 1.362 . S
C1146 C1149 1.409 . S
C1147 H1139 0.930 . S
C1147 C1148 1.355 . S
C1147 C1149 1.415 . S
C1148 C1147 1.355 . S
C1148 C1150 1.419 . S
C1149 C1144 1.425 . S
C1149 C1146 1.409 . S
C1149 C1147 1.415 . S
C1150 H1140 0.930 . S
C1150 C1148 1.419 . S
C1150 C1151 1.362 . S
C1151 H1141 0.930 . S
C1151 C1144 1.409 . S
C1151 C1150 1.362 . S
H1152 C1158 0.930 . S
H1153 C1161 0.930 . S
H1154 C1162 0.930 . S
H1155 C1163 0.930 . S
H1156 C1166 0.930 . S
H1157 C1167 0.930 . S
C1158 H1152 0.930 . S
C1158 C1159 1.355 . S
C1158 C1160 1.415 . S
C1159 C1158 1.355 . S
C1159 C1161 1.419 . S
C1160 C1158 1.415 . S
C1160 C1165 1.425 . S
C1160 C1167 1.409 . S
C1161 H1153 0.930 . S
C1161 C1159 1.419 . S
C1161 C1162 1.362 . S
C1162 H1154 0.930 . S
C1162 C1161 1.362 . S
C1162 C1165 1.409 . S
C1163 H1155 0.930 . S
C1163 C1164 1.355 . S
C1163 C1165 1.415 . S
C1164 C1163 1.355 . S
C1164 C1166 1.419 . S
C1165 C1160 1.425 . S
C1165 C1162 1.409 . S
C1165 C1163 1.415 . S
C1166 H1156 0.930 . S
C1166 C1164 1.419 . S
C1166 C1167 1.362 . S
C1167 H1157 0.930 . S
C1167 C1160 1.409 . S
C1167 C1166 1.362 . S
H1168 C1174 0.930 . S
H1169 C1177 0.930 . S
H1170 C1178 0.930 . S
H1171 C1179 0.930 . S
H1172 C1182 0.930 . S
H1173 C1183 0.930 . S
C1174 H1168 0.930 . S
C1174 C1175 1.355 . S
C1174 C1176 1.415 . S
C1175 C1174 1.355 . S
C1175 C1177 1.419 . S
C1176 C1174 1.415 . S
C1176 C1181 1.425 . S
C1176 C1183 1.409 . S
C1177 H1169 0.930 . S
C1177 C1175 1.419 . S
C1177 C1178 1.362 . S
C1178 H1170 0.930 . S
C1178 C1177 1.362 . S
C1178 C1181 1.409 . S
C1179 H1171 0.930 . S
C1179 C1180 1.355 . S
C1179 C1181 1.415 . S
C1180 C1179 1.355 . S
C1180 C1182 1.419 . S
C1181 C1176 1.425 . S
C1181 C1178 1.409 . S
C1181 C1179 1.415 . S
C1182 H1172 0.930 . S
C1182 C1180 1.419 . S
C1182 C1183 1.362 . S
C1183 H1173 0.930 . S
C1183 C1176 1.409 . S
C1183 C1182 1.362 . S
H1184 C1190 0.930 . S
H1185 C1193 0.930 . S
H1186 C1194 0.930 . S
H1187 C1195 0.930 . S
H1188 C1198 0.930 . S
H1189 C1199 0.930 . S
C1190 H1184 0.930 . S
C1190 C1191 1.355 . S
C1190 C1192 1.415 . S
C1191 C1190 1.355 . S
C1191 C1193 1.419 . S
C1192 C1190 1.415 . S
C1192 C1197 1.425 . S
C1192 C1199 1.409 . S
C1193 H1185 0.930 . S
C1193 C1191 1.419 . S
C1193 C1194 1.362 . S
C1194 H1186 0.930 . S
C1194 C1193 1.362 . S
C1194 C1197 1.409 . S
C1195 H1187 0.930 . S
C1195 C1196 1.355 . S
C1195 C1197 1.415 . S
C1196 C1195 1.355 . S
C1196 C1198 1.419 . S
C1197 C1192 1.425 . S
C1197 C1194 1.409 . S
C1197 C1195 1.415 . S
C1198 H1188 0.930 . S
C1198 C1196 1.419 . S
C1198 C1199 1.362 . S
C1199 H1189 0.930 . S
C1199 C1192 1.409 . S
C1199 C1198 1.362 . S
H1200 C1206 0.930 . S
H1201 C1209 0.930 . S
H1202 C1210 0.930 . S
H1203 C1211 0.930 . S
H1204 C1214 0.930 . S
H1205 C1215 0.930 . S
C1206 H1200 0.930 . S
C1206 C1207 1.355 . S
C1206 C1208 1.415 . S
C1207 C1206 1.355 . S
C1207 C1209 1.419 . S
C1208 C1206 1.415 . S
C1208 C1213 1.425 . S
C1208 C1215 1.409 . S
C1209 H1201 0.930 . S
C1209 C1207 1.419 . S
C1209 C1210 1.362 . S
C1210 H1202 0.930 . S
C1210 C1209 1.362 . S
C1210 C1213 1.409 . S
C1211 H1203 0.930 . S
C1211 C1212 1.355 . S
C1211 C1213 1.415 . S
C1212 C1211 1.355 . S
C1212 C1214 1.419 . S
C1213 C1208 1.425 . S
C1213 C1210 1.409 . S
C1213 C1211 1.415 . S
C1214 H1204 0.930 . S
C1214 C1212 1.419 . S
C1214 C1215 1.362 . S
C1215 H1205 0.930 . S
C1215 C1208 1.409 . S
C1215 C1214 1.362 . S
H1216 C1222 0.930 . S
H1217 C1225 0.930 . S
H1218 C1226 0.930 . S
H1219 C1227 0.930 . S
H1220 C1230 0.930 . S
H1221 C1231 0.930 . S
C1222 H1216 0.930 . S
C1222 C1223 1.355 . S
C1222 C1224 1.415 . S
C1223 C1222 1.355 . S
C1223 C1225 1.419 . S
C1224 C1222 1.415 . S
C1224 C1229 1.425 . S
C1224 C1231 1.409 . S
C1225 H1217 0.930 . S
C1225 C1223 1.419 . S
C1225 C1226 1.362 . S
C1226 H1218 0.930 . S
C1226 C1225 1.362 . S
C1226 C1229 1.409 . S
C1227 H1219 0.930 . S
C1227 C1228 1.355 . S
C1227 C1229 1.415 . S
C1228 C1227 1.355 . S
C1228 C1230 1.419 . S
C1229 C1224 1.425 . S
C1229 C1226 1.409 . S
C1229 C1227 1.415 . S
C1230 H1220 0.930 . S
C1230 C1228 1.419 . S
C1230 C1231 1.362 . S
C1231 H1221 0.930 . S
C1231 C1224 1.409 . S
C1231 C1230 1.362 . S
H1232 C1238 0.930 . S
H1233 C1241 0.930 1_554 S
H1234 C1242 0.930 . S
H1235 C1243 0.930 . S
H1236 C1246 0.930 . S
H1237 C1247 0.930 . S
C1238 H1232 0.930 . S
C1238 C1239 1.355 . S
C1238 C1240 1.415 . S
C1239 C1238 1.355 . S
C1239 C1241 1.419 . S
C1240 C1238 1.415 . S
C1240 C1245 1.425 . S
C1240 C1247 1.409 . S
C1241 H1233 0.930 1_556 S
C1241 C1239 1.419 . S
C1241 C1242 1.362 . S
C1242 H1234 0.930 . S
C1242 C1241 1.362 . S
C1242 C1245 1.409 . S
C1243 H1235 0.930 . S
C1243 C1244 1.355 . S
C1243 C1245 1.415 . S
C1244 C1243 1.355 . S
C1244 C1246 1.419 . S
C1245 C1240 1.425 . S
C1245 C1242 1.409 . S
C1245 C1243 1.415 . S
C1246 H1236 0.930 . S
C1246 C1244 1.419 . S
C1246 C1247 1.362 . S
C1247 H1237 0.930 . S
C1247 C1240 1.409 . S
C1247 C1246 1.362 . S
H1248 C1254 0.930 . S
H1249 C1257 0.930 . S
H1250 C1258 0.930 . S
H1251 C1259 0.930 . S
H1252 C1262 0.930 . S
H1253 C1263 0.930 . S
C1254 H1248 0.930 . S
C1254 C1255 1.355 . S
C1254 C1256 1.415 . S
C1255 C1254 1.355 . S
C1255 C1257 1.419 . S
C1256 C1254 1.415 . S
C1256 C1261 1.425 . S
C1256 C1263 1.409 . S
C1257 H1249 0.930 . S
C1257 C1255 1.419 . S
C1257 C1258 1.362 . S
C1258 H1250 0.930 . S
C1258 C1257 1.362 . S
C1258 C1261 1.409 . S
C1259 H1251 0.930 . S
C1259 C1260 1.355 . S
C1259 C1261 1.415 . S
C1260 C1259 1.355 . S
C1260 C1262 1.419 . S
C1261 C1256 1.425 . S
C1261 C1258 1.409 . S
C1261 C1259 1.415 . S
C1262 H1252 0.930 . S
C1262 C1260 1.419 . S
C1262 C1263 1.362 . S
C1263 H1253 0.930 . S
C1263 C1256 1.409 . S
C1263 C1262 1.362 . S
H1264 C1270 0.930 . S
H1265 C1273 0.930 . S
H1266 C1274 0.930 . S
H1267 C1275 0.930 . S
H1268 C1278 0.930 . S
H1269 C1279 0.930 . S
C1270 H1264 0.930 . S
C1270 C1271 1.355 . S
C1270 C1272 1.415 . S
C1271 C1270 1.355 . S
C1271 C1273 1.419 . S
C1272 C1270 1.415 . S
C1272 C1277 1.425 . S
C1272 C1279 1.409 . S
C1273 H1265 0.930 . S
C1273 C1271 1.419 . S
C1273 C1274 1.362 . S
C1274 H1266 0.930 . S
C1274 C1273 1.362 . S
C1274 C1277 1.409 . S
C1275 H1267 0.930 . S
C1275 C1276 1.355 . S
C1275 C1277 1.415 . S
C1276 C1275 1.355 . S
C1276 C1278 1.419 . S
C1277 C1272 1.425 . S
C1277 C1274 1.409 . S
C1277 C1275 1.415 . S
C1278 H1268 0.930 . S
C1278 C1276 1.419 . S
C1278 C1279 1.362 . S
C1279 H1269 0.930 . S
C1279 C1272 1.409 . S
C1279 C1278 1.362 . S
H1280 C1286 0.930 . S
H1281 C1289 0.930 . S
H1282 C1290 0.930 . S
H1283 C1291 0.930 . S
H1284 C1294 0.930 . S
H1285 C1295 0.930 . S
C1286 H1280 0.930 . S
C1286 C1287 1.355 . S
C1286 C1288 1.415 . S
C1287 C1286 1.355 . S
C1287 C1289 1.419 . S
C1288 C1286 1.415 . S
C1288 C1293 1.425 . S
C1288 C1295 1.409 . S
C1289 H1281 0.930 . S
C1289 C1287 1.419 . S
C1289 C1290 1.362 . S
C1290 H1282 0.930 . S
C1290 C1289 1.362 . S
C1290 C1293 1.409 . S
C1291 H1283 0.930 . S
C1291 C1292 1.355 . S
C1291 C1293 1.415 . S
C1292 C1291 1.355 . S
C1292 C1294 1.419 . S
C1293 C1288 1.425 . S
C1293 C1290 1.409 . S
C1293 C1291 1.415 . S
C1294 H1284 0.930 . S
C1294 C1292 1.419 . S
C1294 C1295 1.362 . S
C1295 H1285 0.930 . S
C1295 C1288 1.409 . S
C1295 C1294 1.362 . S
H1296 C1302 0.930 . S
H1297 C1305 0.930 . S
H1298 C1306 0.930 . S
H1299 C1307 0.930 . S
H1300 C1310 0.930 . S
H1301 C1311 0.930 . S
C1302 H1296 0.930 . S
C1302 C1303 1.355 . S
C1302 C1304 1.415 . S
C1303 C1302 1.355 . S
C1303 C1305 1.419 . S
C1304 C1302 1.415 . S
C1304 C1309 1.425 . S
C1304 C1311 1.409 . S
C1305 H1297 0.930 . S
C1305 C1303 1.419 . S
C1305 C1306 1.362 . S
C1306 H1298 0.930 . S
C1306 C1305 1.362 . S
C1306 C1309 1.409 . S
C1307 H1299 0.930 . S
C1307 C1308 1.355 . S
C1307 C1309 1.415 . S
C1308 C1307 1.355 . S
C1308 C1310 1.419 . S
C1309 C1304 1.425 . S
C1309 C1306 1.409 . S
C1309 C1307 1.415 . S
C1310 H1300 0.930 . S
C1310 C1308 1.419 . S
C1310 C1311 1.362 . S
C1311 H1301 0.930 . S
C1311 C1304 1.409 . S
C1311 C1310 1.362 . S
H1312 C1318 0.930 . S
H1313 C1321 0.930 . S
H1314 C1322 0.930 . S
H1315 C1323 0.930 . S
H1316 C1326 0.930 . S
H1317 C1327 0.930 . S
C1318 H1312 0.930 . S
C1318 C1319 1.355 . S
C1318 C1320 1.415 . S
C1319 C1318 1.355 . S
C1319 C1321 1.419 . S
C1320 C1318 1.415 . S
C1320 C1325 1.425 . S
C1320 C1327 1.409 . S
C1321 H1313 0.930 . S
C1321 C1319 1.419 . S
C1321 C1322 1.362 . S
C1322 H1314 0.930 . S
C1322 C1321 1.362 . S
C1322 C1325 1.409 . S
C1323 H1315 0.930 . S
C1323 C1324 1.355 . S
C1323 C1325 1.415 . S
C1324 C1323 1.355 . S
C1324 C1326 1.419 . S
C1325 C1320 1.425 . S
C1325 C1322 1.409 . S
C1325 C1323 1.415 . S
C1326 H1316 0.930 . S
C1326 C1324 1.419 . S
C1326 C1327 1.362 . S
C1327 H1317 0.930 . S
C1327 C1320 1.409 . S
C1327 C1326 1.362 . S
H1328 C1334 0.930 . S
H1329 C1337 0.930 . S
H1330 C1338 0.930 . S
H1331 C1339 0.930 . S
H1332 C1342 0.930 . S
H1333 C1343 0.930 . S
C1334 H1328 0.930 . S
C1334 C1335 1.355 . S
C1334 C1336 1.415 . S
C1335 C1334 1.355 . S
C1335 C1337 1.419 . S
C1336 C1334 1.415 . S
C1336 C1341 1.425 . S
C1336 C1343 1.409 . S
C1337 H1329 0.930 . S
C1337 C1335 1.419 . S
C1337 C1338 1.362 . S
C1338 H1330 0.930 . S
C1338 C1337 1.362 . S
C1338 C1341 1.409 . S
C1339 H1331 0.930 . S
C1339 C1340 1.355 . S
C1339 C1341 1.415 . S
C1340 C1339 1.355 . S
C1340 C1342 1.419 . S
C1341 C1336 1.425 . S
C1341 C1338 1.409 . S
C1341 C1339 1.415 . S
C1342 H1332 0.930 . S
C1342 C1340 1.419 . S
C1342 C1343 1.362 . S
C1343 H1333 0.930 . S
C1343 C1336 1.409 . S
C1343 C1342 1.362 . S
H1344 C1350 0.930 . S
H1345 C1353 0.930 . S
H1346 C1354 0.930 . S
H1347 C1355 0.930 . S
H1348 C1358 0.930 . S
H1349 C1359 0.930 . S
C1350 H1344 0.930 . S
C1350 C1351 1.355 . S
C1350 C1352 1.415 . S
C1351 C1350 1.355 . S
C1351 C1353 1.419 . S
C1352 C1350 1.415 . S
C1352 C1357 1.425 . S
C1352 C1359 1.409 . S
C1353 H1345 0.930 . S
C1353 C1351 1.419 . S
C1353 C1354 1.362 . S
C1354 H1346 0.930 . S
C1354 C1353 1.362 . S
C1354 C1357 1.409 . S
C1355 H1347 0.930 . S
C1355 C1356 1.355 . S
C1355 C1357 1.415 . S
C1356 C1355 1.355 . S
C1356 C1358 1.419 . S
C1357 C1352 1.425 . S
C1357 C1354 1.409 . S
C1357 C1355 1.415 . S
C1358 H1348 0.930 . S
C1358 C1356 1.419 . S
C1358 C1359 1.362 . S
C1359 H1349 0.930 . S
C1359 C1352 1.409 . S
C1359 C1358 1.362 . S
H1360 C1366 0.930 . S
H1361 C1369 0.930 . S
H1362 C1370 0.930 . S
H1363 C1371 0.930 . S
H1364 C1374 0.930 . S
H1365 C1375 0.930 . S
C1366 H1360 0.930 . S
C1366 C1367 1.355 . S
C1366 C1368 1.415 . S
C1367 C1366 1.355 . S
C1367 C1369 1.419 . S
C1368 C1366 1.415 . S
C1368 C1373 1.425 . S
C1368 C1375 1.409 . S
C1369 H1361 0.930 . S
C1369 C1367 1.419 . S
C1369 C1370 1.362 . S
C1370 H1362 0.930 . S
C1370 C1369 1.362 . S
C1370 C1373 1.409 . S
C1371 H1363 0.930 . S
C1371 C1372 1.355 . S
C1371 C1373 1.415 . S
C1372 C1371 1.355 . S
C1372 C1374 1.419 . S
C1373 C1368 1.425 . S
C1373 C1370 1.409 . S
C1373 C1371 1.415 . S
C1374 H1364 0.930 . S
C1374 C1372 1.419 . S
C1374 C1375 1.362 . S
C1375 H1365 0.930 . S
C1375 C1368 1.409 . S
C1375 C1374 1.362 . S
H1376 C1382 0.930 . S
H1377 C1385 0.930 . S
H1378 C1386 0.930 . S
H1379 C1387 0.930 . S
H1380 C1390 0.930 . S
H1381 C1391 0.930 . S
C1382 H1376 0.930 . S
C1382 C1383 1.355 . S
C1382 C1384 1.415 . S
C1383 C1382 1.355 . S
C1383 C1385 1.419 . S
C1384 C1382 1.415 . S
C1384 C1389 1.425 . S
C1384 C1391 1.409 . S
C1385 H1377 0.930 . S
C1385 C1383 1.419 . S
C1385 C1386 1.362 . S
C1386 H1378 0.930 . S
C1386 C1385 1.362 . S
C1386 C1389 1.409 . S
C1387 H1379 0.930 . S
C1387 C1388 1.355 . S
C1387 C1389 1.415 . S
C1388 C1387 1.355 . S
C1388 C1390 1.419 . S
C1389 C1384 1.425 . S
C1389 C1386 1.409 . S
C1389 C1387 1.415 . S
C1390 H1380 0.930 . S
C1390 C1388 1.419 . S
C1390 C1391 1.362 . S
C1391 H1381 0.930 . S
C1391 C1384 1.409 . S
C1391 C1390 1.362 . S
H1392 C1398 0.930 . S
H1393 C1401 0.930 . S
H1394 C1402 0.930 . S
H1395 C1403 0.930 . S
H1396 C1406 0.930 . S
H1397 C1407 0.930 . S
C1398 H1392 0.930 . S
C1398 C1399 1.355 . S
C1398 C1400 1.415 . S
C1399 C1398 1.355 . S
C1399 C1401 1.419 1_455 S
C1400 C1398 1.415 . S
C1400 C1405 1.425 1_455 S
C1400 C1407 1.409 . S
C1401 H1393 0.930 . S
C1401 C1399 1.419 1_655 S
C1401 C1402 1.362 . S
C1402 H1394 0.930 . S
C1402 C1401 1.362 . S
C1402 C1405 1.409 . S
C1403 H1395 0.930 . S
C1403 C1404 1.355 1_655 S
C1403 C1405 1.415 . S
C1404 C1403 1.355 1_455 S
C1404 C1406 1.419 . S
C1405 C1400 1.425 1_655 S
C1405 C1402 1.409 . S
C1405 C1403 1.415 . S
C1406 H1396 0.930 . S
C1406 C1404 1.419 . S
C1406 C1407 1.362 . S
C1407 H1397 0.930 . S
C1407 C1400 1.409 . S
C1407 C1406 1.362 . S
H1408 C1414 0.930 . S
H1409 C1417 0.930 . S
H1410 C1418 0.930 . S
H1411 C1419 0.930 . S
H1412 C1422 0.930 . S
H1413 C1423 0.930 . S
C1414 H1408 0.930 . S
C1414 C1415 1.355 . S
C1414 C1416 1.415 . S
C1415 C1414 1.355 . S
C1415 C1417 1.419 . S
C1416 C1414 1.415 . S
C1416 C1421 1.425 . S
C1416 C1423 1.409 . S
C1417 H1409 0.930 . S
C1417 C1415 1.419 . S
C1417 C1418 1.362 . S
C1418 H1410 0.930 . S
C1418 C1417 1.362 . S
C1418 C1421 1.409 . S
C1419 H1411 0.930 . S
C1419 C1420 1.355 . S
C1419 C1421 1.415 . S
C1420 C1419 1.355 . S
C1420 C1422 1.419 . S
C1421 C1416 1.425 . S
C1421 C1418 1.409 . S
C1421 C1419 1.415 . S
C1422 H1412 0.930 . S
C1422 C1420 1.419 . S
C1422 C1423 1.362 . S
C1423 H1413 0.930 . S
C1423 C1416 1.409 . S
C1423 C1422 1.362 . S
H1424 C1430 0.930 . S
H1425 C1433 0.930 . S
H1426 C1434 0.930 . S
H1427 C1435 0.930 . S
H1428 C1438 0.930 . S
H1429 C1439 0.930 . S
C1430 H1424 0.930 . S
C1430 C1431 1.355 . S
C1430 C1432 1.415 . S
C1431 C1430 1.355 . S
C1431 C1433 1.419 1_565 S
C1432 C1430 1.415 . S
C1432 C1437 1.425 1_565 S
C1432 C1439 1.409 . S
C1433 H1425 0.930 . S
C1433 C1431 1.419 1_545 S
C1433 C1434 1.362 . S
C1434 H1426 0.930 . S
C1434 C1433 1.362 . S
C1434 C1437 1.409 . S
C1435 H1427 0.930 . S
C1435 C1436 1.355 1_545 S
C1435 C1437 1.415 . S
C1436 C1435 1.355 1_565 S
C1436 C1438 1.419 . S
C1437 C1432 1.425 1_545 S
C1437 C1434 1.409 . S
C1437 C1435 1.415 . S
C1438 H1428 0.930 . S
C1438 C1436 1.419 . S
C1438 C1439 1.362 . S
C1439 H1429 0.930 . S
C1439 C1432 1.409 . S
C1439 C1438 1.362 . S
H1440 C1446 0.930 . S
H1441 C1449 0.930 . S
H1442 C1450 0.930 . S
H1443 C1451 0.930 . S
H1444 C1454 0.930 . S
H1445 C1455 0.930 . S
C1446 H1440 0.930 . S
C1446 C1447 1.355 . S
C1446 C1448 1.415 . S
C1447 C1446 1.355 . S
C1447 C1449 1.419 . S
C1448 C1446 1.415 . S
C1448 C1453 1.425 . S
C1448 C1455 1.409 1_565 S
C1449 H1441 0.930 . S
C1449 C1447 1.419 . S
C1449 C1450 1.362 . S
C1450 H1442 0.930 . S
C1450 C1449 1.362 . S
C1450 C1453 1.409 . S
C1451 H1443 0.930 . S
C1451 C1452 1.336 1_565 S
C1451 C1453 1.415 . S
C1452 C1451 1.336 1_545 S
C1452 C1454 1.425 . S
C1453 C1448 1.425 . S
C1453 C1450 1.409 . S
C1453 C1451 1.415 . S
C1454 H1444 0.930 . S
C1454 C1452 1.425 . S
C1454 C1455 1.362 . S
C1455 H1445 0.930 . S
C1455 C1448 1.409 1_545 S
C1455 C1454 1.362 . S
H1456 C1462 0.930 . S
H1457 C1465 0.930 . S
H1458 C1466 0.930 . S
H1459 C1467 0.930 . S
H1460 C1470 0.930 . S
H1461 C1471 0.930 . S
C1462 H1456 0.930 . S
C1462 C1463 1.355 . S
C1462 C1464 1.415 . S
C1463 C1462 1.355 . S
C1463 C1465 1.419 1_455 S
C1464 C1462 1.415 . S
C1464 C1469 1.425 1_455 S
C1464 C1471 1.409 . S
C1465 H1457 0.930 . S
C1465 C1463 1.419 1_655 S
C1465 C1466 1.362 . S
C1466 H1458 0.930 . S
C1466 C1465 1.362 . S
C1466 C1469 1.407 . S
C1467 H1459 0.930 . S
C1467 C1468 1.355 1_655 S
C1467 C1469 1.416 . S
C1468 C1467 1.355 1_455 S
C1468 C1470 1.419 . S
C1469 C1464 1.425 1_655 S
C1469 C1466 1.407 . S
C1469 C1467 1.416 . S
C1470 H1460 0.930 . S
C1470 C1468 1.419 . S
C1470 C1471 1.362 . S
C1471 H1461 0.930 . S
C1471 C1464 1.409 . S
C1471 C1470 1.362 . S
H1472 C1478 0.930 . S
H1473 C1481 0.930 . S
H1474 C1482 0.930 . S
H1475 C1483 0.930 . S
H1476 C1486 0.930 . S
H1477 C1487 0.930 . S
C1478 H1472 0.930 . S
C1478 C1479 1.355 . S
C1478 C1480 1.415 . S
C1479 C1478 1.355 . S
C1479 C1481 1.419 . S
C1480 C1478 1.415 . S
C1480 C1485 1.425 . S
C1480 C1487 1.409 . S
C1481 H1473 0.930 . S
C1481 C1479 1.419 . S
C1481 C1482 1.362 . S
C1482 H1474 0.930 . S
C1482 C1481 1.362 . S
C1482 C1485 1.409 . S
C1483 H1475 0.930 . S
C1483 C1484 1.355 . S
C1483 C1485 1.415 . S
C1484 C1483 1.355 . S
C1484 C1486 1.419 . S
C1485 C1480 1.425 . S
C1485 C1482 1.409 . S
C1485 C1483 1.415 . S
C1486 H1476 0.930 . S
C1486 C1484 1.419 . S
C1486 C1487 1.362 . S
C1487 H1477 0.930 . S
C1487 C1480 1.409 . S
C1487 C1486 1.362 . S
H1488 C1494 0.930 . S
H1489 C1497 0.930 . S
H1490 C1498 0.930 . S
H1491 C1499 0.930 . S
H1492 C1502 0.930 . S
H1493 C1503 0.930 . S
C1494 H1488 0.930 . S
C1494 C1495 1.355 . S
C1494 C1496 1.415 . S
C1495 C1494 1.355 . S
C1495 C1497 1.419 . S
C1496 C1494 1.415 . S
C1496 C1501 1.425 . S
C1496 C1503 1.409 . S
C1497 H1489 0.930 . S
C1497 C1495 1.419 . S
C1497 C1498 1.362 . S
C1498 H1490 0.930 . S
C1498 C1497 1.362 . S
C1498 C1501 1.409 . S
C1499 H1491 0.930 . S
C1499 C1500 1.355 . S
C1499 C1501 1.415 . S
C1500 C1499 1.355 . S
C1500 C1502 1.419 . S
C1501 C1496 1.425 . S
C1501 C1498 1.409 . S
C1501 C1499 1.415 . S
C1502 H1492 0.930 . S
C1502 C1500 1.419 . S
C1502 C1503 1.362 . S
C1503 H1493 0.930 . S
C1503 C1496 1.409 . S
C1503 C1502 1.362 . S
H1504 C1510 0.930 . S
H1505 C1513 0.930 . S
H1506 C1514 0.930 . S
H1507 C1515 0.930 . S
H1508 C1518 0.930 . S
H1509 C1519 0.930 . S
C1510 H1504 0.930 . S
C1510 C1511 1.355 . S
C1510 C1512 1.415 . S
C1511 C1510 1.355 . S
C1511 C1513 1.419 . S
C1512 C1510 1.415 . S
C1512 C1517 1.425 . S
C1512 C1519 1.409 . S
C1513 H1505 0.930 . S
C1513 C1511 1.419 . S
C1513 C1514 1.362 . S
C1514 H1506 0.930 . S
C1514 C1513 1.362 . S
C1514 C1517 1.409 . S
C1515 H1507 0.930 . S
C1515 C1516 1.355 . S
C1515 C1517 1.415 . S
C1516 C1515 1.355 . S
C1516 C1518 1.419 . S
C1517 C1512 1.425 . S
C1517 C1514 1.409 . S
C1517 C1515 1.415 . S
C1518 H1508 0.930 . S
C1518 C1516 1.419 . S
C1518 C1519 1.362 . S
C1519 H1509 0.930 . S
C1519 C1512 1.409 . S
C1519 C1518 1.362 . S
H1520 C1526 0.930 . S
H1521 C1529 0.930 . S
H1522 C1530 0.930 . S
H1523 C1531 0.930 . S
H1524 C1534 0.930 . S
H1525 C1535 0.930 . S
C1526 H1520 0.930 . S
C1526 C1527 1.355 . S
C1526 C1528 1.415 . S
C1527 C1526 1.355 . S
C1527 C1529 1.419 . S
C1528 C1526 1.415 . S
C1528 C1533 1.425 . S
C1528 C1535 1.409 . S
C1529 H1521 0.930 . S
C1529 C1527 1.419 . S
C1529 C1530 1.362 . S
C1530 H1522 0.930 . S
C1530 C1529 1.362 . S
C1530 C1533 1.409 . S
C1531 H1523 0.930 . S
C1531 C1532 1.355 . S
C1531 C1533 1.415 . S
C1532 C1531 1.355 . S
C1532 C1534 1.419 . S
C1533 C1528 1.425 . S
C1533 C1530 1.409 . S
C1533 C1531 1.415 . S
C1534 H1524 0.930 . S
C1534 C1532 1.419 . S
C1534 C1535 1.362 . S
C1535 H1525 0.930 . S
C1535 C1528 1.409 . S
C1535 C1534 1.362 . S
H1536 C1542 0.930 . S
H1537 C1545 0.930 . S
H1538 C1546 0.930 . S
H1539 C1547 0.930 . S
H1540 C1550 0.930 . S
H1541 C1551 0.930 . S
C1542 H1536 0.930 . S
C1542 C1543 1.355 . S
C1542 C1544 1.415 . S
C1543 C1542 1.355 . S
C1543 C1545 1.419 1_545 S
C1544 C1542 1.415 . S
C1544 C1549 1.425 1_545 S
C1544 C1551 1.409 . S
C1545 H1537 0.930 . S
C1545 C1543 1.419 1_565 S
C1545 C1546 1.362 . S
C1546 H1538 0.930 . S
C1546 C1545 1.362 . S
C1546 C1549 1.409 . S
C1547 H1539 0.930 . S
C1547 C1548 1.355 1_565 S
C1547 C1549 1.415 . S
C1548 C1547 1.355 1_545 S
C1548 C1550 1.419 . S
C1549 C1544 1.425 1_565 S
C1549 C1546 1.409 . S
C1549 C1547 1.415 . S
C1550 H1540 0.930 . S
C1550 C1548 1.419 . S
C1550 C1551 1.362 . S
C1551 H1541 0.930 . S
C1551 C1544 1.409 . S
C1551 C1550 1.362 . S
H1552 C1558 0.931 . S
H1553 C1561 0.930 . S
H1554 C1562 0.930 . S
H1555 C1563 0.930 . S
H1556 C1566 0.930 . S
H1557 C1567 0.930 . S
C1558 H1552 0.931 . S
C1558 C1559 1.354 1_455 S
C1558 C1560 1.392 1_455 S
C1559 C1558 1.354 1_655 S
C1559 C1561 1.419 . S
C1560 C1558 1.392 1_655 S
C1560 C1565 1.462 . S
C1560 C1567 1.397 1_655 S
C1561 H1553 0.930 . S
C1561 C1559 1.419 . S
C1561 C1562 1.362 . S
C1562 H1554 0.930 . S
C1562 C1561 1.362 . S
C1562 C1565 1.409 . S
C1563 H1555 0.930 . S
C1563 C1564 1.355 . S
C1563 C1565 1.415 . S
C1564 C1563 1.355 . S
C1564 C1566 1.419 1_655 S
C1565 C1560 1.462 . S
C1565 C1562 1.409 . S
C1565 C1563 1.415 . S
C1566 H1556 0.930 . S
C1566 C1564 1.419 1_455 S
C1566 C1567 1.362 . S
C1567 H1557 0.930 . S
C1567 C1560 1.397 1_455 S
C1567 C1566 1.362 . S
H1568 C1574 0.930 . S
H1569 C1577 0.930 . S
H1570 C1578 0.930 . S
H1571 C1579 0.930 . S
H1572 C1582 0.930 . S
H1573 C1583 0.930 . S
C1574 H1568 0.930 . S
C1574 C1575 1.355 . S
C1574 C1576 1.415 . S
C1575 C1574 1.355 . S
C1575 C1577 1.419 . S
C1576 C1574 1.415 . S
C1576 C1581 1.425 . S
C1576 C1583 1.409 . S
C1577 H1569 0.930 . S
C1577 C1575 1.419 . S
C1577 C1578 1.362 . S
C1578 H1570 0.930 . S
C1578 C1577 1.362 . S
C1578 C1581 1.409 . S
C1579 H1571 0.930 . S
C1579 C1580 1.355 . S
C1579 C1581 1.415 . S
C1580 C1579 1.355 . S
C1580 C1582 1.419 . S
C1581 C1576 1.425 . S
C1581 C1578 1.409 . S
C1581 C1579 1.415 . S
C1582 H1572 0.930 . S
C1582 C1580 1.419 . S
C1582 C1583 1.362 . S
C1583 H1573 0.930 . S
C1583 C1576 1.409 . S
C1583 C1582 1.362 . S
H1584 C1590 0.930 . S
H1585 C1593 0.930 . S
H1586 C1594 0.930 . S
H1587 C1595 0.930 . S
H1588 C1598 0.930 . S
H1589 C1599 0.930 . S
C1590 H1584 0.930 . S
C1590 C1591 1.355 . S
C1590 C1592 1.415 . S
C1591 C1590 1.355 . S
C1591 C1593 1.419 . S
C1592 C1590 1.415 . S
C1592 C1597 1.425 . S
C1592 C1599 1.409 . S
C1593 H1585 0.930 . S
C1593 C1591 1.419 . S
C1593 C1594 1.362 . S
C1594 H1586 0.930 . S
C1594 C1593 1.362 . S
C1594 C1597 1.409 . S
C1595 H1587 0.930 . S
C1595 C1596 1.355 . S
C1595 C1597 1.415 . S
C1596 C1595 1.355 . S
C1596 C1598 1.419 . S
C1597 C1592 1.425 . S
C1597 C1594 1.409 . S
C1597 C1595 1.415 . S
C1598 H1588 0.930 . S
C1598 C1596 1.419 . S
C1598 C1599 1.362 . S
C1599 H1589 0.930 . S
C1599 C1592 1.409 . S
C1599 C1598 1.362 . S
H1600 C1606 0.930 . S
H1601 C1609 0.930 . S
H1602 C1610 0.930 . S
H1603 C1611 0.930 . S
H1604 C1614 0.930 . S
H1605 C1615 0.930 . S
C1606 H1600 0.930 . S
C1606 C1607 1.355 . S
C1606 C1608 1.415 . S
C1607 C1606 1.355 . S
C1607 C1609 1.419 . S
C1608 C1606 1.415 . S
C1608 C1613 1.425 . S
C1608 C1615 1.409 . S
C1609 H1601 0.930 . S
C1609 C1607 1.419 . S
C1609 C1610 1.362 . S
C1610 H1602 0.930 . S
C1610 C1609 1.362 . S
C1610 C1613 1.409 . S
C1611 H1603 0.930 . S
C1611 C1612 1.355 . S
C1611 C1613 1.415 . S
C1612 C1611 1.355 . S
C1612 C1614 1.419 . S
C1613 C1608 1.425 . S
C1613 C1610 1.409 . S
C1613 C1611 1.415 . S
C1614 H1604 0.930 . S
C1614 C1612 1.419 . S
C1614 C1615 1.362 . S
C1615 H1605 0.930 . S
C1615 C1608 1.409 . S
C1615 C1614 1.362 . S
H1616 C1622 0.930 . S
H1617 C1625 0.930 . S
H1618 C1626 0.930 . S
H1619 C1627 0.930 . S
H1620 C1630 0.930 . S
H1621 C1631 0.930 . S
C1622 H1616 0.930 . S
C1622 C1623 1.355 . S
C1622 C1624 1.415 . S
C1623 C1622 1.355 . S
C1623 C1625 1.419 . S
C1624 C1622 1.415 . S
C1624 C1629 1.425 . S
C1624 C1631 1.409 . S
C1625 H1617 0.930 . S
C1625 C1623 1.419 . S
C1625 C1626 1.362 . S
C1626 H1618 0.930 . S
C1626 C1625 1.362 . S
C1626 C1629 1.409 . S
C1627 H1619 0.930 . S
C1627 C1628 1.355 . S
C1627 C1629 1.415 . S
C1628 C1627 1.355 . S
C1628 C1630 1.419 . S
C1629 C1624 1.425 . S
C1629 C1626 1.409 . S
C1629 C1627 1.415 . S
C1630 H1620 0.930 . S
C1630 C1628 1.419 . S
C1630 C1631 1.362 . S
C1631 H1621 0.930 . S
C1631 C1624 1.409 . S
C1631 C1630 1.362 . S
H1632 C1638 0.930 . S
H1633 C1641 0.930 . S
H1634 C1642 0.930 . S
H1635 C1643 0.930 . S
H1636 C1646 0.930 . S
H1637 C1647 0.930 . S
C1638 H1632 0.930 . S
C1638 C1639 1.355 . S
C1638 C1640 1.415 . S
C1639 C1638 1.355 . S
C1639 C1641 1.419 . S
C1640 C1638 1.415 . S
C1640 C1645 1.425 . S
C1640 C1647 1.409 . S
C1641 H1633 0.930 . S
C1641 C1639 1.419 . S
C1641 C1642 1.362 . S
C1642 H1634 0.930 . S
C1642 C1641 1.362 . S
C1642 C1645 1.409 . S
C1643 H1635 0.930 . S
C1643 C1644 1.355 . S
C1643 C1645 1.415 . S
C1644 C1643 1.355 . S
C1644 C1646 1.419 . S
C1645 C1640 1.425 . S
C1645 C1642 1.409 . S
C1645 C1643 1.415 . S
C1646 H1636 0.930 . S
C1646 C1644 1.419 . S
C1646 C1647 1.362 . S
C1647 H1637 0.930 . S
C1647 C1640 1.409 . S
C1647 C1646 1.362 . S
H1648 C1654 0.930 . S
H1649 C1657 0.930 . S
H1650 C1658 0.930 . S
H1651 C1659 0.930 . S
H1652 C1662 0.930 . S
H1653 C1663 0.930 . S
C1654 H1648 0.930 . S
C1654 C1655 1.355 . S
C1654 C1656 1.415 . S
C1655 C1654 1.355 . S
C1655 C1657 1.419 . S
C1656 C1654 1.415 . S
C1656 C1661 1.425 . S
C1656 C1663 1.409 . S
C1657 H1649 0.930 . S
C1657 C1655 1.419 . S
C1657 C1658 1.362 . S
C1658 H1650 0.930 . S
C1658 C1657 1.362 . S
C1658 C1661 1.409 . S
C1659 H1651 0.930 . S
C1659 C1660 1.355 . S
C1659 C1661 1.415 . S
C1660 C1659 1.355 . S
C1660 C1662 1.419 . S
C1661 C1656 1.425 . S
C1661 C1658 1.409 . S
C1661 C1659 1.415 . S
C1662 H1652 0.930 . S
C1662 C1660 1.419 . S
C1662 C1663 1.362 . S
C1663 H1653 0.930 . S
C1663 C1656 1.409 . S
C1663 C1662 1.362 . S
H1664 C1670 0.930 . S
H1665 C1673 0.930 . S
H1666 C1674 0.930 . S
H1667 C1675 0.930 . S
H1668 C1678 0.930 . S
H1669 C1679 0.930 . S
C1670 H1664 0.930 . S
C1670 C1671 1.355 . S
C1670 C1672 1.415 . S
C1671 C1670 1.355 . S
C1671 C1673 1.419 . S
C1672 C1670 1.415 . S
C1672 C1677 1.425 . S
C1672 C1679 1.409 . S
C1673 H1665 0.930 . S
C1673 C1671 1.419 . S
C1673 C1674 1.362 . S
C1674 H1666 0.930 . S
C1674 C1673 1.362 . S
C1674 C1677 1.409 . S
C1675 H1667 0.930 . S
C1675 C1676 1.355 . S
C1675 C1677 1.415 . S
C1676 C1675 1.355 . S
C1676 C1678 1.419 . S
C1677 C1672 1.425 . S
C1677 C1674 1.409 . S
C1677 C1675 1.415 . S
C1678 H1668 0.930 . S
C1678 C1676 1.419 . S
C1678 C1679 1.362 . S
C1679 H1669 0.930 . S
C1679 C1672 1.409 . S
C1679 C1678 1.362 . S
H1680 C1686 0.930 . S
H1681 C1689 0.930 . S
H1682 C1690 0.930 . S
H1683 C1691 0.930 . S
H1684 C1694 0.930 . S
H1685 C1695 0.930 . S
C1686 H1680 0.930 . S
C1686 C1687 1.355 1_455 S
C1686 C1688 1.415 . S
C1687 C1686 1.355 1_655 S
C1687 C1689 1.419 . S
C1688 C1686 1.415 . S
C1688 C1693 1.425 1_455 S
C1688 C1695 1.409 . S
C1689 H1681 0.930 . S
C1689 C1687 1.419 . S
C1689 C1690 1.362 . S
C1690 H1682 0.930 . S
C1690 C1689 1.362 . S
C1690 C1693 1.409 . S
C1691 H1683 0.930 . S
C1691 C1692 1.355 1_655 S
C1691 C1693 1.415 . S
C1692 C1691 1.355 1_455 S
C1692 C1694 1.419 . S
C1693 C1688 1.425 1_655 S
C1693 C1690 1.409 . S
C1693 C1691 1.415 . S
C1694 H1684 0.930 . S
C1694 C1692 1.419 . S
C1694 C1695 1.362 . S
C1695 H1685 0.930 . S
C1695 C1688 1.409 . S
C1695 C1694 1.362 . S
H1696 C1702 0.930 . S
H1697 C1705 0.930 . S
H1698 C1706 0.930 . S
H1699 C1707 0.930 . S
H1700 C1710 0.930 . S
H1701 C1711 0.930 . S
C1702 H1696 0.930 . S
C1702 C1703 1.355 . S
C1702 C1704 1.415 . S
C1703 C1702 1.355 . S
C1703 C1705 1.419 . S
C1704 C1702 1.415 . S
C1704 C1709 1.425 . S
C1704 C1711 1.409 . S
C1705 H1697 0.930 . S
C1705 C1703 1.419 . S
C1705 C1706 1.362 . S
C1706 H1698 0.930 . S
C1706 C1705 1.362 . S
C1706 C1709 1.409 . S
C1707 H1699 0.930 . S
C1707 C1708 1.355 . S
C1707 C1709 1.415 . S
C1708 C1707 1.355 . S
C1708 C1710 1.419 . S
C1709 C1704 1.425 . S
C1709 C1706 1.409 . S
C1709 C1707 1.415 . S
C1710 H1700 0.930 . S
C1710 C1708 1.419 . S
C1710 C1711 1.362 . S
C1711 H1701 0.930 . S
C1711 C1704 1.409 . S
C1711 C1710 1.362 . S
H1712 C1718 0.930 . S
H1713 C1721 0.930 . S
H1714 C1722 0.930 . S
H1715 C1723 0.922 1_565 S
H1716 C1726 0.911 . S
H1717 C1727 0.930 . S
C1718 H1712 0.930 . S
C1718 C1719 1.355 . S
C1718 C1720 1.415 . S
C1719 C1718 1.355 . S
C1719 C1721 1.419 . S
C1720 C1718 1.415 . S
C1720 C1725 1.425 . S
C1720 C1727 1.409 . S
C1721 H1713 0.930 . S
C1721 C1719 1.419 . S
C1721 C1722 1.362 . S
C1722 H1714 0.930 . S
C1722 C1721 1.362 . S
C1722 C1725 1.409 . S
C1723 H1715 0.922 1_545 S
C1723 C1724 1.376 1_545 S
C1723 C1725 1.401 . S
C1724 C1723 1.376 1_565 S
C1724 C1726 1.419 1_565 S
C1725 C1720 1.425 . S
C1725 C1722 1.409 . S
C1725 C1723 1.401 . S
C1726 H1716 0.911 . S
C1726 C1724 1.419 1_545 S
C1726 C1727 1.362 . S
C1727 H1717 0.930 . S
C1727 C1720 1.409 . S
C1727 C1726 1.362 . S
C583 C8 1.518 1_655 S
C588 C421 1.484 . S
C599 C22 1.541 . S
C604 C446 1.500 . S
C620 C457 1.489 . S
C615 C37 1.539 . S
C631 C36 1.525 . S
C636 C482 1.542 . S
C647 C9 1.518 . S
C652 C500 1.505 . S
C663 C23 1.527 . S
C668 C511 1.541 . S
C679 C50 1.505 . S
C684 C493 1.530 1_455 S
C700 C518 1.502 . S
C695 C64 1.499 . S
C716 C475 1.469 1_565 S
C711 C79 1.501 . S
C727 C78 1.517 . S
C732 C464 1.480 . S
C748 C428 1.519 1_655 S
C743 C51 1.497 . S
C759 C65 1.537 . S
C764 C439 1.500 . S
C775 C92 1.553 . S
C780 C529 1.545 . S
C791 C106 1.562 . S
C796 C554 1.513 . S
C812 C565 1.507 . S
C807 C121 1.529 . S
C823 C120 1.560 . S
C828 C266 1.539 . S
C839 C93 1.561 . S
C844 C284 1.514 . S
C855 C107 1.549 . S
C860 C295 1.546 . S
C871 C134 1.504 . S
C876 C277 1.485 . S
C887 C148 1.498 . S
C892 C302 1.507 . S
C908 C259 1.532 . S
C903 C163 1.540 . S
C924 C572 1.524 . S
C919 C162 1.545 . S
C940 C536 1.523 . S
C935 C135 1.501 . S
C956 C547 1.537 . S
C951 C149 1.518 . S
C967 C176 1.534 . S
C972 C313 1.547 . S
C983 C190 1.529 . S
C988 C338 1.512 . S
C999 C205 1.543 . S
C1004 C349 1.490 . S
C1015 C204 1.554 . S
C1020 C374 1.504 . S
C1036 C392 1.510 . S
C1031 C177 1.560 . S
C1052 C403 1.541 . S
C1047 C191 1.529 . S
C1068 C385 1.487 . S
C1063 C218 1.511 . S
C1084 C410 1.509 . S
C1079 C232 1.545 . S
C1095 C247 1.499 . S
C1100 C367 1.497 . S
C1116 C356 1.489 . S
C1111 C246 1.508 . S
C1127 C219 1.539 . S
C1132 C320 1.532 . S
C1148 C331 1.501 . S
C1143 C233 1.539 . S
C1164 C268 1.477 . S
C1159 C6 1.496 . S
C1175 C20 1.447 . S
C1180 C286 1.397 . S
C1196 C296 1.473 . S
C1191 C35 1.459 . S
C1212 C314 1.430 . S
C1207 C34 1.427 . S
C1228 C340 1.432 . S
C1223 C7 1.487 . S
C1244 C350 1.406 . S
C1239 C21 1.441 . S
C1255 C48 1.495 . S
C1260 C358 1.487 . S
C1271 C62 1.508 . S
C1276 C322 1.445 . S
C1287 C77 1.509 . S
C1292 C332 1.454 . S
C1303 C76 1.508 . S
C1308 C278 1.461 . S
C1324 C304 1.407 . S
C1319 C49 1.495 . S
C1335 C63 1.467 . S
C1340 C260 1.476 . S
C1356 C376 1.481 . S
C1351 C90 1.484 . S
C1367 C104 1.446 . S
C1372 C394 1.401 . S
C1383 C119 1.436 . S
C1388 C404 1.438 . S
C1404 C422 1.432 . S
C1399 C118 1.482 . S
C1415 C91 1.479 . S
C1420 C448 1.420 . S
C1431 C105 1.477 . S
C1436 C458 1.420 . S
C1447 C132 1.477 . S
C1452 C466 1.498 1_545 S
C1463 C146 1.489 . S
C1468 C430 1.396 . S
C1484 C440 1.436 . S
C1479 C161 1.453 . S
C1495 C160 1.452 . S
C1500 C386 1.428 . S
C1511 C133 1.493 . S
C1516 C412 1.405 . S
C1532 C368 1.413 . S
C1527 C147 1.482 . S
C1548 C484 1.462 . S
C1543 C174 1.493 . S
C1559 C188 1.433 . S
C1564 C502 1.410 . S
C1575 C203 1.473 . S
C1580 C512 1.413 . S
C1596 C530 1.421 . S
C1591 C202 1.481 . S
C1612 C556 1.402 . S
C1607 C175 1.456 . S
C1623 C189 1.465 . S
C1628 C566 1.478 . S
C1639 C216 1.511 . S
C1644 C574 1.442 . S
C1655 C230 1.469 . S
C1660 C538 1.404 . S
C1676 C548 1.463 . S
C1671 C245 1.460 . S
C1692 C494 1.420 . S
C1687 C244 1.444 . S
C1708 C520 1.469 . S
C1703 C217 1.505 . S
C1719 C231 1.481 . S
C1724 C476 1.507 . S
