# Generated by pormake.
# Topology zzz, (3,6)-cn, num edge types: 1
# Building blocks:
#     Node 0, Type 0, BuildingBlock: BETDIP_clean_linker_0, # of connection points: 3
#     Node 1, Type 0, BuildingBlock: BETDIP_clean_linker_0, # of connection points: 3
#     Node 2, Type 0, BuildingBlock: BETDIP_clean_linker_0, # of connection points: 3
#     Node 3, Type 0, BuildingBlock: BETDIP_clean_linker_0, # of connection points: 3
#     Node 4, Type 0, BuildingBlock: BETDIP_clean_linker_0, # of connection points: 3
#     Node 5, Type 0, BuildingBlock: BETDIP_clean_linker_0, # of connection points: 3
#     Node 6, Type 0, BuildingBlock: BETDIP_clean_linker_0, # of connection points: 3
#     Node 7, Type 0, BuildingBlock: BETDIP_clean_linker_0, # of connection points: 3
#     Node 8, Type 1, BuildingBlock: FUNLAD_clean_sbu_0, # of connection points: 6
#     Node 9, Type 1, BuildingBlock: FUNLAD_clean_sbu_0, # of connection points: 6
#     Node 10, Type 1, BuildingBlock: FUNLAD_clean_sbu_0, # of connection points: 6
#     Node 11, Type 1, BuildingBlock: FUNLAD_clean_sbu_0, # of connection points: 6
#     Edge 12, Type (0, 1), BuildingBlock: AJUNOK_clean_linker_0, # of connection points: 2
#     Edge 13, Type (0, 1), BuildingBlock: AJUNOK_clean_linker_0, # of connection points: 2
#     Edge 14, Type (0, 1), BuildingBlock: AJUNOK_clean_linker_0, # of connection points: 2
#     Edge 15, Type (0, 1), BuildingBlock: AJUNOK_clean_linker_0, # of connection points: 2
#     Edge 16, Type (0, 1), BuildingBlock: AJUNOK_clean_linker_0, # of connection points: 2
#     Edge 17, Type (0, 1), BuildingBlock: AJUNOK_clean_linker_0, # of connection points: 2
#     Edge 18, Type (0, 1), BuildingBlock: AJUNOK_clean_linker_0, # of connection points: 2
#     Edge 19, Type (0, 1), BuildingBlock: AJUNOK_clean_linker_0, # of connection points: 2
#     Edge 20, Type (0, 1), BuildingBlock: AJUNOK_clean_linker_0, # of connection points: 2
#     Edge 21, Type (0, 1), BuildingBlock: AJUNOK_clean_linker_0, # of connection points: 2
#     Edge 22, Type (0, 1), BuildingBlock: AJUNOK_clean_linker_0, # of connection points: 2
#     Edge 23, Type (0, 1), BuildingBlock: AJUNOK_clean_linker_0, # of connection points: 2
#     Edge 24, Type (0, 1), BuildingBlock: AJUNOK_clean_linker_0, # of connection points: 2
#     Edge 25, Type (0, 1), BuildingBlock: AJUNOK_clean_linker_0, # of connection points: 2
#     Edge 26, Type (0, 1), BuildingBlock: AJUNOK_clean_linker_0, # of connection points: 2
#     Edge 27, Type (0, 1), BuildingBlock: AJUNOK_clean_linker_0, # of connection points: 2
#     Edge 28, Type (0, 1), BuildingBlock: AJUNOK_clean_linker_0, # of connection points: 2
#     Edge 29, Type (0, 1), BuildingBlock: AJUNOK_clean_linker_0, # of connection points: 2
#     Edge 30, Type (0, 1), BuildingBlock: AJUNOK_clean_linker_0, # of connection points: 2
#     Edge 31, Type (0, 1), BuildingBlock: AJUNOK_clean_linker_0, # of connection points: 2
#     Edge 32, Type (0, 1), BuildingBlock: AJUNOK_clean_linker_0, # of connection points: 2
#     Edge 33, Type (0, 1), BuildingBlock: AJUNOK_clean_linker_0, # of connection points: 2
#     Edge 34, Type (0, 1), BuildingBlock: AJUNOK_clean_linker_0, # of connection points: 2
#     Edge 35, Type (0, 1), BuildingBlock: AJUNOK_clean_linker_0, # of connection points: 2
# Relax obj value: 0.112
# Max RMSD: 0.175
# Mean RMSD: 0.093
data_MOF--net-zzz--node1-FUNLAD_clean_sbu_0--node2-BETDIP_clean_linker_0--edge1-AJUNOK_clean_linker_0
_symmetry_space_group_name_H-M    P1
_symmetry_Int_Tables_number       1
_symmetry_cell_setting            triclinic
loop_
_symmetry_equiv_pos_as_xyz
'x, y, z'
_cell_length_a     37.521868
_cell_length_b     43.670557
_cell_length_c     13.389562
_cell_angle_alpha  82.790308
_cell_angle_beta   81.923647
_cell_angle_gamma 89.424134
loop_
_atom_site_label
_atom_site_type_symbol
_atom_site_fract_x
_atom_site_fract_y
_atom_site_fract_z
_atom_type_partial_charge
H0 H 0.82127 0.51834 0.46723 0.0
H1 H 0.83331 0.49008 0.16756 0.0
H2 H 0.92369 0.48686 0.33255 0.0
H3 H 0.80468 0.55268 0.18503 0.0
C4 C 0.78319 0.53609 0.21463 0.0
C5 C 0.83754 0.50867 0.40558 0.0
C6 C 0.87394 0.50154 0.41154 0.0
C7 C 0.82299 0.50471 0.31645 0.0
C8 C 0.84462 0.49297 0.23598 0.0
C9 C 0.88111 0.48698 0.24047 0.0
C10 C 0.89519 0.49057 0.3294 0.0
N11 N 0.78787 0.51514 0.30222 0.0
H12 H 1.00114 0.76705 0.32202 0.0
H13 H 0.02976 0.80929 0.0121 0.0
H14 H 1.01119 0.8656 0.25379 0.0
H15 H 0.99275 0.76839 -0.01411 0.0
C16 C 1.00527 0.75009 0.03145 0.0
C17 C 1.00577 0.78747 0.26681 0.0
C18 C 1.00489 0.81681 0.29917 0.0
C19 C 1.01277 0.7847 0.16223 0.0
C20 C 1.02169 0.81132 0.09184 0.0
C21 C 1.02173 0.84051 0.12531 0.0
C22 C 1.01172 0.84298 0.22786 0.0
N23 N 1.01256 0.75495 0.1297 0.0
H24 H 0.78424 1.00699 0.30712 0.0
H25 H 0.76641 0.02367 -0.00743 0.0
H26 H 0.67857 0.02881 0.23036 0.0
H27 H 0.80999 0.98479 -0.01269 0.0
C28 C 0.82943 0.99696 0.02111 0.0
C29 C 0.76663 0.0131 0.25032 0.0
C30 C 0.7297 0.01819 0.28048 0.0
C31 C 0.78033 0.01498 0.14569 0.0
C32 C 0.7567 0.02226 0.07312 0.0
C33 C 0.72025 0.02758 0.10394 0.0
C34 C 0.70719 0.02585 0.20687 0.0
N35 N 0.8175 1.00936 0.11373 0.0
H36 H 0.5735 0.69499 0.29079 0.0
H37 H 0.52651 0.69086 0.01653 0.0
H38 H 0.54239 0.60763 0.2121 0.0
H39 H 0.57456 0.72965 0.96446 0.0
C40 C 0.56441 0.74382 0.02334 0.0
C41 C 0.56194 0.68176 0.23987 0.0
C42 C 0.55939 0.64941 0.26125 0.0
C43 C 0.55103 0.69686 0.14996 0.0
C44 C 0.53553 0.67946 0.08504 0.0
C45 C 0.53148 0.64731 0.10848 0.0
C46 C 0.54401 0.63259 0.19568 0.0
N47 N 0.55586 0.72941 0.12541 0.0
H48 H 0.27457 0.51214 0.01558 0.0
H49 H 0.25798 0.54042 0.31634 0.0
H50 H 0.16744 0.52505 0.16642 0.0
H51 H 0.31346 0.57211 0.21437 0.0
C52 C 0.32496 0.54912 0.21794 0.0
C53 C 0.25674 0.5184 0.08061 0.0
C54 C 0.21914 0.51824 0.08088 0.0
C55 C 0.27104 0.52717 0.16508 0.0
C56 C 0.24744 0.53483 0.24946 0.0
C57 C 0.2102 0.53392 0.25006 0.0
C58 C 0.1964 0.52613 0.16534 0.0
N59 N 0.30883 0.52702 0.1681 0.0
H60 H 0.09379 0.25094 0.16015 0.0
H61 H 0.06896 0.20662 0.46942 0.0
H62 H 0.09455 0.15209 0.22625 0.0
H63 H 0.04026 0.2504 0.48924 0.0
C64 C 0.05842 0.26812 0.44671 0.0
C65 C 0.0917 0.23035 0.21502 0.0
C66 C 0.09619 0.20113 0.18168 0.0
C67 C 0.08256 0.23275 0.31952 0.0
C68 C 0.0768 0.20553 0.38913 0.0
C69 C 0.08036 0.1765 0.35466 0.0
C70 C 0.09196 0.17466 0.25255 0.0
N71 N 0.07848 0.26255 0.35235 0.0
H72 H 0.32203 1.00704 0.19455 0.0
H73 H 0.34213 0.99572 0.50765 0.0
H74 H 0.42988 0.99639 0.26792 0.0
H75 H 0.28798 0.9765 0.54144 0.0
C76 C 0.27234 0.99001 0.4897 0.0
C77 C 0.34027 1.00326 0.25073 0.0
C78 C 0.37775 1.00194 0.21936 0.0
C79 C 0.32659 0.99965 0.35577 0.0
C80 C 0.35115 0.99625 0.42716 0.0
C81 C 0.38811 0.99451 0.39511 0.0
C82 C 0.40102 0.99687 0.29211 0.0
N83 N 0.28863 1.00069 0.38832 0.0
H84 H 0.52126 0.32458 0.19569 0.0
H85 H 0.56818 0.32934 0.46957 0.0
H86 H 0.55203 0.41228 0.27297 0.0
H87 H 0.51594 0.29255 0.52001 0.0
C88 C 0.52758 0.2775 0.46544 0.0
C89 C 0.53287 0.33796 0.24612 0.0
C90 C 0.53529 0.37033 0.22422 0.0
C91 C 0.54383 0.32307 0.33633 0.0
C92 C 0.55924 0.34065 0.40078 0.0
C93 C 0.56311 0.37277 0.37704 0.0
C94 C 0.55057 0.38732 0.2896 0.0
N95 N 0.5387 0.29063 0.36298 0.0
C96 C 0.05242 0.95939 0.88475 0.0
N97 N 0.03517 0.96244 0.59148 0.0
C98 C 0.05778 0.93838 0.60895 0.0
C99 C 0.04975 0.90913 0.58806 0.0
C100 C 1.01941 0.90442 0.54141 0.0
C101 C 0.99811 0.93034 0.51572 0.0
C102 C 1.00591 0.9591 0.54428 0.0
Zn103 Zn 0.04261 0.99769 0.67412 0.0
C104 C 0.97698 1.00993 0.80946 0.0
N105 N 0.06518 0.0548 0.88641 0.0
C106 C 0.09355 0.0587 0.93667 0.0
C107 C 0.04228 0.07851 0.86674 0.0
C108 C 0.04893 0.10785 0.88934 0.0
C109 C 0.07756 0.11289 0.94212 0.0
C110 C 0.09975 0.08754 0.96754 0.0
Zn111 Zn 0.05819 0.01909 0.80412 0.0
O112 O 0.04599 0.96266 0.79394 0.0
C113 C 0.12355 1.00608 0.66815 0.0
O114 O 0.06138 0.98289 0.92337 0.0
H115 H 1.02013 0.07551 0.82528 0.0
H116 H 0.08078 0.94109 0.64743 0.0
H117 H 0.11196 0.03988 0.94984 0.0
O118 O 0.09891 0.99678 0.62296 0.0
O119 O 0.11496 0.01641 0.75315 0.0
H120 H 0.98798 0.97834 0.53204 0.0
O121 O 0.05575 0.05383 0.68336 0.0
O122 O 0.03873 0.03406 0.55537 0.0
O123 O 1.00106 0.0204 0.85438 0.0
O124 O 0.98658 0.99922 0.72582 0.0
C125 C 0.04882 0.05733 0.59311 0.0
H126 H 0.06694 0.89029 0.61122 0.0
H127 H 0.97552 0.92865 0.47468 0.0
H128 H 0.03224 0.12646 0.86189 0.0
H129 H 0.12201 0.09 0.00938 0.0
C130 C 0.50614 1.00153 0.62248 0.0
N131 N 0.54849 0.08421 0.68439 0.0
C132 C 0.54804 0.0931 0.58334 0.0
C133 C 0.54451 0.12421 0.54622 0.0
C134 C 0.54183 0.14669 0.61322 0.0
C135 C 0.54356 0.13694 0.71677 0.0
C136 C 0.54651 0.10548 0.75099 0.0
Zn137 Zn 0.5519 0.03761 0.73394 0.0
C138 C 0.493 0.01417 0.89309 0.0
N139 N 0.55871 0.93932 0.81612 0.0
C140 C 0.55872 0.91803 0.75004 0.0
C141 C 0.55963 0.93031 0.91688 0.0
C142 C 0.56078 0.899 0.95455 0.0
C143 C 0.56008 0.87644 0.88866 0.0
C144 C 0.55922 0.88642 0.78486 0.0
Zn145 Zn 0.55579 0.98605 0.7668 0.0
O146 O 0.51667 0.02817 0.63434 0.0
C147 C 0.61467 1.00954 0.60785 0.0
O148 O 0.52006 0.9777 0.66562 0.0
H149 H 0.5594 0.94744 0.96865 0.0
H150 H 0.55011 0.07597 0.53111 0.0
H151 H 0.558 0.92554 0.67025 0.0
O152 O 0.59802 0.03439 0.62382 0.0
O153 O 0.6017 0.98394 0.65413 0.0
H154 H 0.54718 0.09807 0.83088 0.0
O155 O 0.59167 0.99571 0.86613 0.0
O156 O 0.58707 0.04614 0.83556 0.0
O157 O 0.50973 0.98929 0.8779 0.0
O158 O 0.50581 0.03965 0.84559 0.0
C159 C 0.60137 0.02257 0.87892 0.0
H160 H 0.54332 0.13051 0.46592 0.0
H161 H 0.54283 0.15342 0.77101 0.0
H162 H 0.56255 0.89264 0.03446 0.0
H163 H 0.55853 0.86996 0.73105 0.0
C164 C 0.57573 0.46513 0.63067 0.0
N165 N 0.47501 0.50814 0.64575 0.0
C166 C 0.48364 0.50547 0.54474 0.0
C167 C 0.45755 0.50874 0.47969 0.0
C168 C 0.42213 0.51562 0.51759 0.0
C169 C 0.41344 0.51758 0.62235 0.0
C170 C 0.44045 0.51362 0.68561 0.0
Zn171 Zn 0.51864 0.50901 0.7253 0.0
C172 C 0.52317 0.46163 0.88969 0.0
N173 N 0.6193 0.51286 0.83757 0.0
C174 C 0.65396 0.51638 0.79121 0.0
C175 C 0.61126 0.51157 0.94052 0.0
C176 C 0.6382 0.51426 0.00079 0.0
C177 C 0.67407 0.5185 0.95538 0.0
C178 C 0.68193 0.5192 0.84907 0.0
Zn179 Zn 0.57548 0.51077 0.76062 0.0
O180 O 0.54352 0.47468 0.6419 0.0
C181 C 0.57088 0.55795 0.59572 0.0
O182 O 0.59956 0.47744 0.67179 0.0
H183 H 0.58362 0.50897 0.97646 0.0
H184 H 0.51127 0.50229 0.51262 0.0
H185 H 0.65987 0.51731 0.70944 0.0
O186 O 0.53976 0.5456 0.61344 0.0
O187 O 0.59542 0.54736 0.64671 0.0
H188 H 0.43406 0.51613 0.76548 0.0
O189 O 0.55063 0.5445 0.84684 0.0
O190 O 0.49499 0.54285 0.81299 0.0
O191 O 0.55449 0.47366 0.87105 0.0
O192 O 0.49836 0.47274 0.84024 0.0
C193 C 0.51857 0.55446 0.85673 0.0
H194 H 0.46544 0.50755 0.39924 0.0
H195 H 0.38628 0.52289 0.65435 0.0
H196 H 0.63088 0.51381 0.08219 0.0
H197 H 0.70937 0.52192 0.8111 0.0
C198 C 0.09467 0.52588 0.57931 0.0
N199 N 0.0554 0.43825 0.70905 0.0
C200 C 0.08818 0.42805 0.66968 0.0
C201 C 0.09119 0.39988 0.62981 0.0
C202 C 0.06016 0.38214 0.63012 0.0
C203 C 0.02698 0.39257 0.67546 0.0
C204 C 0.02521 0.42076 0.71468 0.0
Zn205 Zn 0.04983 0.48254 0.74501 0.0
C206 C 0.10637 0.50273 0.84943 0.0
N207 N 0.03748 0.57762 0.78657 0.0
C208 C 0.06695 0.59485 0.79292 0.0
C209 C 1.00362 0.58823 0.81244 0.0
C210 C 0.9984 0.61672 0.84913 0.0
C211 C 0.02831 0.63426 0.86052 0.0
C212 C 0.06294 0.62333 0.8304 0.0
Zn213 Zn 0.04372 0.53329 0.75098 0.0
O214 O 0.08578 0.49816 0.6138 0.0
C215 C 0.98708 0.51283 0.64694 0.0
O216 O 0.07912 0.54807 0.61995 0.0
H217 H 0.98054 0.57422 0.80743 0.0
H218 H 0.1119 0.44218 0.66634 0.0
H219 H 0.09365 0.58618 0.77137 0.0
O220 O 1.00437 0.48804 0.66529 0.0
O221 O 0.9988 0.53791 0.66952 0.0
H222 H 0.99944 0.42917 0.74643 0.0
O223 O 1.00786 0.51788 0.88146 0.0
O224 O 1.01404 0.46791 0.877 0.0
O225 O 0.08922 0.52763 0.83105 0.0
O226 O 0.09478 0.47775 0.82569 0.0
C227 C 0.99848 0.49032 0.9164 0.0
H228 H 0.11744 0.39229 0.59792 0.0
H229 H 1.0024 0.37958 0.67741 0.0
H230 H 0.97128 0.62448 0.87158 0.0
H231 H 0.08662 0.63655 0.83668 0.0
C232 C 0.22472 0.99372 0.63725 0.0
C233 C 0.23454 0.99665 0.5309 0.0
C234 C 0.18907 0.99797 0.68137 0.0
C235 C 0.16165 1.00456 0.62071 0.0
H236 H 0.24481 0.98784 0.6871 0.0
H237 H 0.18275 0.99503 0.76349 0.0
S238 S 0.17322 0.01606 0.33828 0.0
N239 N 0.21409 1.00802 0.36604 0.0
N240 N 0.14694 0.01522 0.44844 0.0
C241 C 0.17118 1.00813 0.51412 0.0
C242 C 0.20766 1.0044 0.46925 0.0
C243 C 0.55347 0.22468 0.44569 0.0
C244 C 0.52989 0.24393 0.50004 0.0
C245 C 0.55717 0.19335 0.48264 0.0
C246 C 0.53722 0.18 0.5749 0.0
H247 H 0.56981 0.23398 0.37543 0.0
H248 H 0.57633 0.17963 0.43937 0.0
S249 S 0.46923 0.22023 0.74031 0.0
N250 N 0.48513 0.24728 0.64781 0.0
N251 N 0.4909 0.1884 0.71509 0.0
C252 C 0.51279 0.19897 0.62812 0.0
C253 C 0.50942 0.23087 0.59119 0.0
C254 C 0.36641 0.51126 0.30215 0.0
C255 C 0.3496 0.54025 0.29445 0.0
C256 C 0.38935 0.50312 0.37578 0.0
C257 C 0.39568 0.52343 0.44546 0.0
H258 H 0.36216 0.49488 0.2505 0.0
H259 H 0.40228 0.4808 0.37822 0.0
S260 S 0.3589 0.60225 0.45527 0.0
N261 N 0.34154 0.58947 0.36147 0.0
N262 N 0.38409 0.57398 0.49994 0.0
C263 C 0.37894 0.55236 0.43854 0.0
C264 C 0.3561 0.56081 0.36297 0.0
C265 C 0.04298 0.29942 0.58886 0.0
C266 C 0.06074 0.29756 0.49011 0.0
C267 C 0.04352 0.32661 0.63401 0.0
C268 C 0.06186 0.35313 0.58216 0.0
H269 H 0.02838 0.27963 0.63184 0.0
H270 H 0.02942 0.32686 0.71028 0.0
S271 S 0.11191 0.36081 0.32046 0.0
N272 N 0.09708 0.32478 0.3411 0.0
N273 N 0.09763 0.37612 0.42545 0.0
C274 C 0.07992 0.35163 0.48331 0.0
C275 C 0.07945 0.32381 0.43731 0.0
C276 C 0.89334 0.01692 0.00398 0.0
C277 C 0.86688 1.00072 0.96671 0.0
C278 C 0.92856 0.02042 0.95137 0.0
C279 C 0.93874 1.00795 0.85923 0.0
H280 H 0.88693 0.02686 0.07442 0.0
H281 H 0.94805 0.03277 -0.01602 0.0
S282 S 0.87899 0.96377 0.72922 0.0
N283 N 0.853 0.97239 0.83178 0.0
N284 N 0.91882 0.97889 0.73327 0.0
C285 C 0.91226 0.992 0.82085 0.0
C286 C 0.87651 0.9884 0.87451 0.0
C287 C 0.58353 0.79089 0.90318 0.0
C288 C 0.56345 0.77783 -0.00499 0.0
C289 C 0.58252 0.82265 0.87025 0.0
C290 C 0.56093 0.84274 0.92704 0.0
H291 H 0.60033 0.7764 0.8562 0.0
H292 H 0.59901 0.83151 0.79973 0.0
S293 S 0.50096 0.8196 0.16989 0.0
N294 N 0.52042 0.78715 0.14113 0.0
N295 N 0.51741 0.84664 0.07796 0.0
C296 C 0.54033 0.82984 0.01885 0.0
C297 C 0.54181 0.79747 0.05307 0.0
C298 C 0.72967 0.5076 0.17494 0.0
C299 C 0.75477 0.53203 0.1503 0.0
C300 C 0.70407 0.50314 0.11075 0.0
C301 C 0.70258 0.52288 0.01961 0.0
H302 H 0.72994 0.49164 0.2436 0.0
H303 H 0.68545 0.4839 0.13208 0.0
S304 S 0.7615 0.59094 0.923 0.0
N305 N 0.77617 0.57649 0.0296 0.0
N306 N 0.72779 0.56838 0.91035 0.0
C307 C 0.72739 0.54747 -0.00526 0.0
C308 C 0.75344 0.55199 0.05985 0.0
C309 C 0.99623 0.71471 0.90535 0.0
C310 C 1.01159 0.72002 -0.00833 0.0
C311 C 1.00166 0.68688 0.86356 0.0
C312 C 1.0232 0.66357 0.90554 0.0
H313 H 0.9797 0.73218 0.86995 0.0
H314 H 0.98922 0.6837 0.79725 0.0
S315 S 0.06948 0.66571 0.13173 0.0
N316 N 0.04916 0.69939 0.11818 0.0
N317 N 0.05959 0.64722 0.03875 0.0
C318 C 0.03885 0.66854 -0.00839 0.0
C319 C 0.03297 0.69674 0.03502 0.0
C320 C 0.04718 0.12612 0.39053 0.0
C321 C 0.06996 0.14756 0.42165 0.0
C322 C 0.04024 0.09688 0.44585 0.0
C323 C 0.05558 0.08824 0.53465 0.0
H324 H 0.0351 0.13187 0.32171 0.0
H325 H 1.02287 0.081 0.41888 0.0
S326 S 0.11748 0.13615 0.64733 0.0
N327 N 0.10783 0.15829 0.54564 0.0
N328 N 0.09503 0.10367 0.65082 0.0
C329 C 0.07802 0.10982 0.56732 0.0
C330 C 0.08503 0.13945 0.51075 0.0
C331 C 0.44071 0.97066 0.46839 0.0
C332 C 0.4145 0.99391 0.46654 0.0
C333 C 0.47023 0.97289 0.52051 0.0
C334 C 0.47473 0.9988 0.56994 0.0
H335 H 0.43888 0.95116 0.42663 0.0
H336 H 0.49017 0.95477 0.51934 0.0
S337 S 0.41208 0.06482 0.59237 0.0
N338 N 0.39373 0.04261 0.52212 0.0
N339 N 0.44916 0.04708 0.62003 0.0
C340 C 0.44795 0.02166 0.57134 0.0
C341 C 0.41777 0.01912 0.51967 0.0
C342 C 0.55868 0.38858 0.55033 0.0
C343 C 0.57566 0.39199 0.44913 0.0
C344 C 0.56212 0.41136 0.61301 0.0
C345 C 0.583 0.43804 0.57708 0.0
H346 H 0.54009 0.36962 0.57857 0.0
H347 H 0.54612 0.40924 0.68759 0.0
S348 S 0.63765 0.45556 0.32454 0.0
N349 N 0.61806 0.4221 0.3204 0.0
N350 N 0.62411 0.46513 0.43926 0.0
C351 C 0.60287 0.4404 0.47988 0.0
C352 C 0.5993 0.41726 0.41553 0.0
C353 C 0.15484 0.55626 0.33819 0.0
C354 C 0.18491 0.53681 0.34279 0.0
C355 C 0.126 0.55382 0.41755 0.0
C356 C 0.12634 0.53144 0.50215 0.0
H357 H 0.15292 0.57237 0.27072 0.0
H358 H 0.10263 0.56826 0.41021 0.0
S359 S 0.20046 0.47784 0.55625 0.0
N360 N 0.21459 0.49661 0.44293 0.0
N361 N 0.16049 0.49213 0.59219 0.0
C362 C 0.15718 0.51336 0.5106 0.0
C363 C 0.18656 0.51605 0.43075 0.0
C364 C 0.05633 0.89022 0.08458 0.0
C365 C 0.03259 0.86901 0.05619 0.0
C366 C 0.06284 0.91953 0.02931 0.0
C367 C 0.04616 0.92844 0.94305 0.0
H368 H 0.06935 0.88432 0.15166 0.0
H369 H 0.08088 0.93525 0.05437 0.0
S370 S 0.98169 0.88128 0.8371 0.0
N371 N 0.99253 0.85887 0.9368 0.0
N372 N 1.00475 0.91355 0.83153 0.0
C373 C 1.02298 0.90707 0.91253 0.0
C374 C 1.01631 0.87739 0.96916 0.0
C375 C 0.68859 1.00428 -0.01757 0.0
C376 C 0.6939 0.02993 0.03198 0.0
C377 C 0.65833 1.0022 0.93376 0.0
C378 C 0.63259 0.02587 0.93203 0.0
H379 H 0.70691 0.98496 -0.01399 0.0
H380 H 0.65502 0.98171 0.89784 0.0
S381 S 0.63589 0.09888 0.04493 0.0
N382 N 0.67231 0.08008 0.07326 0.0
N383 N 0.61555 0.07659 0.97894 0.0
C384 C 0.63851 0.05235 0.97723 0.0
C385 C 0.66917 0.05426 0.02803 0.0
C386 C 0.5359 0.63121 0.93564 0.0
C387 C 0.51869 0.62814 0.03658 0.0
C388 C 0.53251 0.60823 0.87365 0.0
C389 C 0.51145 0.58167 0.90999 0.0
H390 H 0.55465 0.65005 0.90724 0.0
H391 H 0.54866 0.61012 0.7993 0.0
S392 S 0.45595 0.56511 0.16196 0.0
N393 N 0.47579 0.59853 0.16533 0.0
N394 N 0.4698 0.55513 0.04786 0.0
C395 C 0.49132 0.57965 0.00686 0.0
C396 C 0.49484 0.60302 0.07049 0.0
C397 C 0.93487 0.46157 0.15335 0.0
C398 C 0.90642 0.48284 0.14811 0.0
C399 C 0.96422 0.46279 0.07549 0.0
C400 C 0.96592 0.48549 -0.00892 0.0
H401 H 0.9353 0.44498 0.2205 0.0
H402 H 0.98648 0.44713 0.08405 0.0
S403 S 0.89611 0.54315 0.9327 0.0
N404 N 0.88044 0.5251 0.04584 0.0
N405 N 0.93482 0.52652 0.89871 0.0
C406 C 0.93637 0.50506 0.98088 0.0
C407 C 0.9067 0.50392 0.05962 0.0
C408 C 0.12445 0.17945 0.02983 0.0
C409 C 0.09527 0.1955 0.076 0.0
C410 C 0.11867 0.15414 0.97886 0.0
C411 C 0.08352 0.14401 0.97307 0.0
H412 H 0.15138 0.18353 0.046 0.0
H413 H 0.14182 0.14107 0.95093 0.0
S414 S 0.99891 0.1842 0.06067 0.0
N415 N 0.0313 0.2049 0.0913 0.0
N416 N 1.01943 0.1561 0.0043 0.0
C417 C 0.05457 0.16301 0.00605 0.0
C418 C 0.06087 0.18954 0.05342 0.0
C419 C 0.41048 0.98105 0.07023 0.0
C420 C 0.39544 1.00688 0.11272 0.0
C421 C 0.4412 0.9839 -0.00334 0.0
C422 C 0.45816 0.01274 0.9625 0.0
H423 H 0.40053 0.95811 0.10119 0.0
H424 H 0.45269 0.96302 0.97012 0.0
S425 S 0.42619 0.08801 0.04085 0.0
N426 N 0.39745 0.06248 0.10888 0.0
N427 N 0.45477 0.06816 0.96891 0.0
C428 C 0.44142 0.03911 -0.00212 0.0
C429 C 0.41013 0.03609 0.07315 0.0
C430 C 0.54415 0.38614 0.03734 0.0
C431 C 0.52337 0.38757 0.1323 0.0
C432 C 0.54152 0.40915 0.95562 0.0
C433 C 0.51762 0.434 0.96568 0.0
H434 H 0.56475 0.36873 0.02875 0.0
H435 H 0.55999 0.40859 0.88595 0.0
S436 S 0.45466 0.44645 0.19533 0.0
N437 N 0.47606 0.41441 0.22957 0.0
N438 N 0.47077 0.45731 0.07486 0.0
C439 C 0.49457 0.43429 0.05738 0.0
C440 C 0.49755 0.4111 0.14109 0.0
C441 C 0.18984 0.53501 0.92996 0.0
C442 C 0.20121 0.51046 -0.00409 0.0
C443 C 0.15999 0.53178 0.87978 0.0
C444 C 0.14046 0.50381 0.89334 0.0
H445 H 0.20202 0.55767 0.92446 0.0
H446 H 0.1512 0.55183 0.83355 0.0
S447 S 0.16195 0.43161 0.04977 0.0
N448 N 0.19263 0.45668 0.0663 0.0
N449 N 0.13701 0.4502 0.96975 0.0
C450 C 0.15345 0.47832 0.95228 0.0
C451 C 0.18373 0.48175 0.0041 0.0
C452 C 0.03676 0.82832 0.43443 0.0
C453 C 1.00328 0.82222 0.40574 0.0
C454 C 0.04146 0.85401 0.4839 0.0
C455 C 1.01226 0.8732 0.51298 0.0
H456 H 0.06062 0.81689 0.40199 0.0
H457 H 0.06886 0.86029 0.4893 0.0
S458 S 0.91641 0.85715 0.49645 0.0
N459 N 0.93905 0.83107 0.43438 0.0
N460 N 0.94678 0.87719 0.53955 0.0
C461 C 0.97746 0.86294 0.50398 0.0
C462 C 0.9731 0.83752 0.44923 0.0
C463 C 0.69408 0.98575 0.42412 0.0
C464 C 0.71164 0.01406 0.38671 0.0
C465 C 0.66365 0.98411 0.49908 0.0
C466 C 0.6494 0.01084 0.53814 0.0
H467 H 0.70191 0.96528 0.38857 0.0
H468 H 0.64995 0.9621 0.52173 0.0
S469 S 0.68905 0.08976 0.4752 0.0
N470 N 0.7152 0.06857 0.40172 0.0
N471 N 0.65842 0.06583 0.54279 0.0
C472 C 0.66867 0.0388 0.50724 0.0
C473 C 0.69973 0.0403 0.43174 0.0
C474 C 0.55001 0.6334 0.44785 0.0
C475 C 0.57105 0.63205 0.35323 0.0
C476 C 0.55244 0.61034 0.5295 0.0
C477 C 0.57641 0.58553 0.51966 0.0
H478 H 0.52937 0.65079 0.45618 0.0
H479 H 0.53382 0.61084 0.59892 0.0
S480 S 0.63999 0.57329 0.29094 0.0
N481 N 0.61861 0.60533 0.2565 0.0
N482 N 0.62358 0.56233 0.41115 0.0
C483 C 0.59968 0.5853 0.42832 0.0
C484 C 0.59689 0.60854 0.34467 0.0
C485 C 0.91189 0.53543 0.48953 0.0
C486 C 0.89272 0.5075 0.49697 0.0
C487 C 0.94137 0.53765 0.54261 0.0
C488 C 0.95299 0.5118 0.60308 0.0
H489 H 0.90594 0.55487 0.43592 0.0
H490 H 0.95653 0.55909 0.53078 0.0
S491 S 0.90817 0.43489 0.65902 0.0
N492 N 0.88472 0.45476 0.57778 0.0
N493 N 0.93972 0.45871 0.67818 0.0
C494 C 0.9321 0.48456 0.61737 0.0
C495 C 0.90204 0.48247 0.56416 0.0
loop_
_geom_bond_atom_site_label_1
_geom_bond_atom_site_label_2
_geom_bond_distance
_geom_bond_site_symmetry_2
_ccdc_geom_bond_type
H0 C5 0.930 . S
H1 C8 0.930 . S
H2 C10 0.930 . S
H3 C4 1.016 . S
C4 H3 1.016 . S
C4 N11 1.286 . S
C5 H0 0.930 . S
C5 C6 1.397 . S
C5 C7 1.361 . S
C6 C5 1.397 . S
C6 C10 1.390 . S
C7 C5 1.361 . S
C7 C8 1.393 . S
C7 N11 1.413 . S
C8 H1 0.930 . S
C8 C7 1.393 . S
C8 C9 1.399 . S
C9 C8 1.399 . S
C9 C10 1.381 . S
C10 H2 0.930 . S
C10 C6 1.390 . S
C10 C9 1.381 . S
N11 C4 1.286 . S
N11 C7 1.413 . S
H12 C17 0.930 . S
H13 C20 0.930 . S
H14 C22 0.930 . S
H15 C16 1.016 . S
C16 H15 1.016 . S
C16 N23 1.286 1_556 S
C17 H12 0.930 . S
C17 C18 1.397 . S
C17 C19 1.361 . S
C18 C17 1.397 . S
C18 C22 1.390 . S
C19 C17 1.361 . S
C19 C20 1.393 1_554 S
C19 N23 1.413 . S
C20 H13 0.930 . S
C20 C19 1.393 1_556 S
C20 C21 1.399 . S
C21 C20 1.399 . S
C21 C22 1.381 1_556 S
C22 H14 0.930 . S
C22 C18 1.390 . S
C22 C21 1.381 1_554 S
N23 C16 1.286 1_554 S
N23 C19 1.413 . S
H24 C29 0.930 . S
H25 C32 0.930 1_556 S
H26 C34 0.930 . S
H27 C28 1.016 1_556 S
C28 H27 1.016 1_554 S
C28 N35 1.286 1_565 S
C29 H24 0.930 . S
C29 C30 1.397 . S
C29 C31 1.361 . S
C30 C29 1.397 . S
C30 C34 1.390 1_545 S
C31 C29 1.361 . S
C31 C32 1.393 . S
C31 N35 1.413 . S
C32 H25 0.930 1_554 S
C32 C31 1.393 . S
C32 C33 1.402 . S
C33 C32 1.402 . S
C33 C34 1.381 1_545 S
C34 H26 0.930 . S
C34 C30 1.390 1_565 S
C34 C33 1.381 1_565 S
N35 C28 1.286 1_545 S
N35 C31 1.413 . S
H36 C41 0.930 . S
H37 C44 0.930 1_556 S
H38 C46 0.930 . S
H39 C40 1.016 1_556 S
C40 H39 1.016 1_554 S
C40 N47 1.286 . S
C41 H36 0.930 . S
C41 C42 1.397 . S
C41 C43 1.361 . S
C42 C41 1.397 . S
C42 C46 1.390 . S
C43 C41 1.361 . S
C43 C44 1.393 . S
C43 N47 1.413 . S
C44 H37 0.930 1_554 S
C44 C43 1.393 . S
C44 C45 1.399 . S
C45 C44 1.399 . S
C45 C46 1.381 . S
C46 H38 0.930 . S
C46 C42 1.390 . S
C46 C45 1.381 . S
N47 C40 1.286 . S
N47 C43 1.413 . S
H48 C53 0.930 . S
H49 C56 0.930 . S
H50 C58 0.930 . S
H51 C52 1.016 . S
C52 H51 1.016 . S
C52 N59 1.286 . S
C53 H48 0.930 . S
C53 C54 1.397 . S
C53 C55 1.361 . S
C54 C53 1.397 . S
C54 C58 1.390 . S
C55 C53 1.361 . S
C55 C56 1.393 . S
C55 N59 1.413 . S
C56 H49 0.930 . S
C56 C55 1.393 . S
C56 C57 1.399 . S
C57 C56 1.399 . S
C57 C58 1.381 . S
C58 H50 0.930 . S
C58 C54 1.390 . S
C58 C57 1.381 . S
N59 C52 1.286 . S
N59 C55 1.413 . S
H60 C65 0.930 . S
H61 C68 0.930 . S
H62 C70 0.930 . S
H63 C64 1.016 . S
C64 H63 1.016 . S
C64 N71 1.286 . S
C65 H60 0.930 . S
C65 C66 1.397 . S
C65 C67 1.361 . S
C66 C65 1.397 . S
C66 C70 1.390 . S
C67 C65 1.361 . S
C67 C68 1.393 . S
C67 N71 1.413 . S
C68 H61 0.930 . S
C68 C67 1.393 . S
C68 C69 1.399 . S
C69 C68 1.399 . S
C69 C70 1.381 . S
C70 H62 0.930 . S
C70 C66 1.390 . S
C70 C69 1.381 . S
N71 C64 1.286 . S
N71 C67 1.413 . S
H72 C77 0.930 . S
H73 C80 0.930 . S
H74 C82 0.930 . S
H75 C76 1.023 . S
C76 H75 1.023 . S
C76 N83 1.275 1_565 S
C77 H72 0.930 . S
C77 C78 1.397 . S
C77 C79 1.361 . S
C78 C77 1.397 . S
C78 C82 1.390 1_545 S
C79 C77 1.361 . S
C79 C80 1.393 . S
C79 N83 1.413 . S
C80 H73 0.930 . S
C80 C79 1.393 . S
C80 C81 1.405 . S
C81 C80 1.405 . S
C81 C82 1.375 1_545 S
C82 H74 0.930 . S
C82 C78 1.390 1_565 S
C82 C81 1.375 1_565 S
N83 C76 1.275 1_545 S
N83 C79 1.413 . S
H84 C89 0.930 . S
H85 C92 0.930 . S
H86 C94 0.930 . S
H87 C88 1.016 . S
C88 H87 1.016 . S
C88 N95 1.286 . S
C89 H84 0.930 . S
C89 C90 1.397 . S
C89 C91 1.361 . S
C90 C89 1.397 . S
C90 C94 1.390 . S
C91 C89 1.361 . S
C91 C92 1.393 . S
C91 N95 1.413 . S
C92 H85 0.930 . S
C92 C91 1.393 . S
C92 C93 1.399 . S
C93 C92 1.399 . S
C93 C94 1.381 . S
C94 H86 0.930 . S
C94 C90 1.390 . S
C94 C93 1.381 . S
N95 C88 1.286 . S
N95 C91 1.413 . S
C96 O112 1.251 . S
C96 O114 1.254 . S
N97 C98 1.333 . S
N97 C102 1.307 1_455 S
N97 Zn103 2.020 . S
C98 N97 1.333 . S
C98 C99 1.379 . S
C98 H116 0.952 . S
C99 C98 1.379 . S
C99 C100 1.390 1_455 S
C99 H126 0.949 . S
C100 C99 1.390 1_655 S
C100 C101 1.357 . S
C101 C100 1.357 . S
C101 C102 1.370 . S
C101 H127 0.950 . S
C102 N97 1.307 1_655 S
C102 C101 1.370 . S
C102 H120 0.948 1_565 S
Zn103 N97 2.020 . S
Zn103 O112 2.039 . S
Zn103 O118 2.034 . S
Zn103 O122 2.025 1_565 S
Zn103 O124 2.024 1_455 S
C104 O123 1.246 . S
C104 O124 1.249 1_545 S
N105 C106 1.307 1_556 S
N105 C107 1.333 1_556 S
N105 Zn111 2.020 . S
C106 N105 1.307 1_554 S
C106 C110 1.370 . S
C106 H117 0.948 1_545 S
C107 N105 1.333 1_554 S
C107 C108 1.379 . S
C107 H115 0.952 1_554 S
C108 C107 1.379 . S
C108 C109 1.390 . S
C108 H128 0.949 . S
C109 C108 1.390 . S
C109 C110 1.357 . S
C110 C106 1.370 . S
C110 C109 1.357 . S
C110 H129 0.950 . S
Zn111 N105 2.020 . S
Zn111 O114 2.025 1_545 S
Zn111 O119 2.024 . S
Zn111 O121 2.039 . S
Zn111 O123 2.034 1_455 S
O112 C96 1.251 . S
O112 Zn103 2.039 . S
C113 O118 1.246 . S
C113 O119 1.249 1_565 S
O114 C96 1.254 . S
O114 Zn111 2.025 1_565 S
H115 C107 0.952 1_556 S
H116 C98 0.952 . S
H117 C106 0.948 1_565 S
O118 Zn103 2.034 . S
O118 C113 1.246 . S
O119 Zn111 2.024 . S
O119 C113 1.249 1_545 S
H120 C102 0.948 1_545 S
O121 Zn111 2.039 . S
O121 C125 1.251 . S
O122 Zn103 2.025 1_545 S
O122 C125 1.254 . S
O123 C104 1.246 . S
O123 Zn111 2.034 1_655 S
O124 Zn103 2.024 1_655 S
O124 C104 1.249 1_565 S
C125 O121 1.251 . S
C125 O122 1.254 . S
H126 C99 0.949 . S
H127 C101 0.950 . S
H128 C108 0.949 . S
H129 C110 0.950 . S
C130 O146 1.251 1_565 S
C130 O148 1.254 . S
N131 C132 1.333 . S
N131 C136 1.307 . S
N131 Zn137 2.020 . S
C132 N131 1.333 . S
C132 C133 1.379 . S
C132 H150 0.952 . S
C133 C132 1.379 . S
C133 C134 1.390 . S
C133 H160 0.949 . S
C134 C133 1.390 . S
C134 C135 1.357 . S
C135 C134 1.357 . S
C135 C136 1.370 . S
C135 H161 0.950 . S
C136 N131 1.307 . S
C136 C135 1.370 . S
C136 H154 0.948 . S
Zn137 N131 2.020 . S
Zn137 O146 2.039 . S
Zn137 O152 2.034 . S
Zn137 O156 2.025 . S
Zn137 O158 2.024 . S
C138 O157 1.246 1_545 S
C138 O158 1.249 . S
N139 C140 1.307 . S
N139 C141 1.333 . S
N139 Zn145 2.020 . S
C140 N139 1.307 . S
C140 C144 1.370 . S
C140 H151 0.948 . S
C141 N139 1.333 . S
C141 C142 1.379 . S
C141 H149 0.952 . S
C142 C141 1.379 . S
C142 C143 1.390 . S
C142 H162 0.949 1_556 S
C143 C142 1.390 . S
C143 C144 1.357 . S
C144 C140 1.370 . S
C144 C143 1.357 . S
C144 H163 0.950 . S
Zn145 N139 2.020 . S
Zn145 O148 2.025 . S
Zn145 O153 2.024 . S
Zn145 O155 2.039 . S
Zn145 O157 2.034 . S
O146 C130 1.251 1_545 S
O146 Zn137 2.039 . S
C147 O152 1.246 1_565 S
C147 O153 1.249 . S
O148 C130 1.254 . S
O148 Zn145 2.025 . S
H149 C141 0.952 . S
H150 C132 0.952 . S
H151 C140 0.948 . S
O152 Zn137 2.034 . S
O152 C147 1.246 1_545 S
O153 Zn145 2.024 . S
O153 C147 1.249 . S
H154 C136 0.948 . S
O155 Zn145 2.039 . S
O155 C159 1.251 1_565 S
O156 Zn137 2.025 . S
O156 C159 1.254 . S
O157 C138 1.246 1_565 S
O157 Zn145 2.034 . S
O158 Zn137 2.024 . S
O158 C138 1.249 . S
C159 O155 1.251 1_545 S
C159 O156 1.254 . S
H160 C133 0.949 . S
H161 C135 0.950 . S
H162 C142 0.949 1_554 S
H163 C144 0.950 . S
C164 O180 1.251 . S
C164 O182 1.254 . S
N165 C166 1.333 . S
N165 C170 1.307 . S
N165 Zn171 2.020 . S
C166 N165 1.333 . S
C166 C167 1.379 . S
C166 H184 0.952 . S
C167 C166 1.379 . S
C167 C168 1.390 . S
C167 H194 0.949 . S
C168 C167 1.390 . S
C168 C169 1.357 . S
C169 C168 1.357 . S
C169 C170 1.370 . S
C169 H195 0.950 . S
C170 N165 1.307 . S
C170 C169 1.370 . S
C170 H188 0.948 . S
Zn171 N165 2.020 . S
Zn171 O180 2.039 . S
Zn171 O186 2.034 . S
Zn171 O190 2.025 . S
Zn171 O192 2.024 . S
C172 O191 1.246 . S
C172 O192 1.249 . S
N173 C174 1.307 . S
N173 C175 1.333 . S
N173 Zn179 2.020 . S
C174 N173 1.307 . S
C174 C178 1.370 . S
C174 H185 0.948 . S
C175 N173 1.333 . S
C175 C176 1.379 . S
C175 H183 0.952 . S
C176 C175 1.379 . S
C176 C177 1.390 . S
C176 H196 0.949 . S
C177 C176 1.390 . S
C177 C178 1.357 . S
C178 C174 1.370 . S
C178 C177 1.357 . S
C178 H197 0.950 . S
Zn179 N173 2.020 . S
Zn179 O182 2.025 . S
Zn179 O187 2.024 . S
Zn179 O189 2.039 . S
Zn179 O191 2.034 . S
O180 C164 1.251 . S
O180 Zn171 2.039 . S
C181 O186 1.246 . S
C181 O187 1.249 . S
O182 C164 1.254 . S
O182 Zn179 2.025 . S
H183 C175 0.952 . S
H184 C166 0.952 . S
H185 C174 0.948 . S
O186 Zn171 2.034 . S
O186 C181 1.246 . S
O187 Zn179 2.024 . S
O187 C181 1.249 . S
H188 C170 0.948 . S
O189 Zn179 2.039 . S
O189 C193 1.251 . S
O190 Zn171 2.025 . S
O190 C193 1.254 . S
O191 C172 1.246 . S
O191 Zn179 2.034 . S
O192 Zn171 2.024 . S
O192 C172 1.249 . S
C193 O189 1.251 . S
C193 O190 1.254 . S
H194 C167 0.949 . S
H195 C169 0.950 . S
H196 C176 0.949 . S
H197 C178 0.950 . S
C198 O214 1.251 . S
C198 O216 1.254 . S
N199 C200 1.333 . S
N199 C204 1.307 . S
N199 Zn205 2.020 . S
C200 N199 1.333 . S
C200 C201 1.379 . S
C200 H218 0.952 . S
C201 C200 1.379 . S
C201 C202 1.390 . S
C201 H228 0.949 . S
C202 C201 1.390 . S
C202 C203 1.357 . S
C203 C202 1.357 . S
C203 C204 1.370 . S
C203 H229 0.950 . S
C204 N199 1.307 . S
C204 C203 1.370 . S
C204 H222 0.948 . S
Zn205 N199 2.020 . S
Zn205 O214 2.039 . S
Zn205 O220 2.034 1_455 S
Zn205 O224 2.025 1_455 S
Zn205 O226 2.024 . S
C206 O225 1.246 . S
C206 O226 1.249 . S
N207 C208 1.307 . S
N207 C209 1.333 . S
N207 Zn213 2.020 . S
C208 N207 1.307 . S
C208 C212 1.370 . S
C208 H219 0.948 . S
C209 N207 1.333 . S
C209 C210 1.379 1_455 S
C209 H217 0.952 1_455 S
C210 C209 1.379 1_655 S
C210 C211 1.388 1_655 S
C210 H230 0.951 . S
C211 C210 1.388 1_455 S
C211 C212 1.357 . S
C212 C208 1.370 . S
C212 C211 1.357 . S
C212 H231 0.950 . S
Zn213 N207 2.020 . S
Zn213 O216 2.025 . S
Zn213 O221 2.024 1_455 S
Zn213 O223 2.039 1_455 S
Zn213 O225 2.034 . S
O214 C198 1.251 . S
O214 Zn205 2.039 . S
C215 O220 1.246 . S
C215 O221 1.249 . S
O216 C198 1.254 . S
O216 Zn213 2.025 . S
H217 C209 0.952 1_655 S
H218 C200 0.952 . S
H219 C208 0.948 . S
O220 Zn205 2.034 1_655 S
O220 C215 1.246 . S
O221 Zn213 2.024 1_655 S
O221 C215 1.249 . S
H222 C204 0.948 . S
O223 Zn213 2.039 1_655 S
O223 C227 1.251 . S
O224 Zn205 2.025 1_655 S
O224 C227 1.254 . S
O225 C206 1.246 . S
O225 Zn213 2.034 . S
O226 Zn205 2.024 . S
O226 C206 1.249 . S
C227 O223 1.251 . S
C227 O224 1.254 . S
H228 C201 0.949 . S
H229 C203 0.950 . S
H230 C210 0.951 . S
H231 C212 0.950 . S
C232 C233 1.382 . S
C232 C234 1.419 . S
C232 H236 0.930 . S
C233 C232 1.382 . S
C233 C242 1.416 1_565 S
C234 C232 1.419 . S
C234 C235 1.363 . S
C234 H237 0.929 . S
C235 C234 1.363 . S
C235 C241 1.428 1_565 S
H236 C232 0.930 . S
H237 C234 0.929 . S
S238 N239 1.613 . S
S238 N240 1.610 . S
N239 S238 1.613 . S
N239 C242 1.350 . S
N240 S238 1.610 . S
N240 C241 1.351 . S
C241 C235 1.428 1_545 S
C241 N240 1.351 . S
C241 C242 1.434 . S
C242 C233 1.416 1_545 S
C242 N239 1.350 . S
C242 C241 1.434 . S
C243 C244 1.369 . S
C243 C245 1.419 . S
C243 H247 0.930 . S
C244 C243 1.369 . S
C244 C253 1.429 . S
C245 C243 1.419 . S
C245 C246 1.363 . S
C245 H248 0.929 . S
C246 C245 1.363 . S
C246 C252 1.428 . S
H247 C243 0.930 . S
H248 C245 0.929 . S
S249 N250 1.613 . S
S249 N251 1.610 . S
N250 S249 1.613 . S
N250 C253 1.350 . S
N251 S249 1.610 . S
N251 C252 1.351 . S
C252 C246 1.428 . S
C252 N251 1.351 . S
C252 C253 1.434 . S
C253 C244 1.429 . S
C253 N250 1.350 . S
C253 C252 1.434 . S
C254 C255 1.369 . S
C254 C256 1.419 . S
C254 H258 0.930 . S
C255 C254 1.369 . S
C255 C264 1.429 . S
C256 C254 1.419 . S
C256 C257 1.363 . S
C256 H259 0.929 . S
C257 C256 1.363 . S
C257 C263 1.428 . S
H258 C254 0.930 . S
H259 C256 0.929 . S
S260 N261 1.613 . S
S260 N262 1.610 . S
N261 S260 1.613 . S
N261 C264 1.350 . S
N262 S260 1.610 . S
N262 C263 1.351 . S
C263 C257 1.428 . S
C263 N262 1.351 . S
C263 C264 1.434 . S
C264 C255 1.429 . S
C264 N261 1.350 . S
C264 C263 1.434 . S
C265 C266 1.369 . S
C265 C267 1.419 . S
C265 H269 0.930 . S
C266 C265 1.369 . S
C266 C275 1.429 . S
C267 C265 1.419 . S
C267 C268 1.363 . S
C267 H270 0.929 . S
C268 C267 1.363 . S
C268 C274 1.428 . S
H269 C265 0.930 . S
H270 C267 0.929 . S
S271 N272 1.613 . S
S271 N273 1.610 . S
N272 S271 1.613 . S
N272 C275 1.350 . S
N273 S271 1.610 . S
N273 C274 1.351 . S
C274 C268 1.428 . S
C274 N273 1.351 . S
C274 C275 1.434 . S
C275 C266 1.429 . S
C275 N272 1.350 . S
C275 C274 1.434 . S
C276 C277 1.385 1_554 S
C276 C278 1.419 1_554 S
C276 H280 0.930 . S
C277 C276 1.385 1_556 S
C277 C286 1.413 1_545 S
C278 C276 1.419 1_556 S
C278 C279 1.363 . S
C278 H281 0.929 1_556 S
C279 C278 1.363 . S
C279 C285 1.428 1_545 S
H280 C276 0.930 . S
H281 C278 0.929 1_554 S
S282 N283 1.613 . S
S282 N284 1.610 . S
N283 S282 1.613 . S
N283 C286 1.350 . S
N284 S282 1.610 . S
N284 C285 1.351 . S
C285 C279 1.428 1_565 S
C285 N284 1.351 . S
C285 C286 1.434 . S
C286 C277 1.413 1_565 S
C286 N283 1.350 . S
C286 C285 1.434 . S
C287 C288 1.369 1_556 S
C287 C289 1.419 . S
C287 H291 0.930 . S
C288 C287 1.369 1_554 S
C288 C297 1.429 . S
C289 C287 1.419 . S
C289 C290 1.363 . S
C289 H292 0.929 . S
C290 C289 1.363 . S
C290 C296 1.428 1_556 S
H291 C287 0.930 . S
H292 C289 0.929 . S
S293 N294 1.613 . S
S293 N295 1.610 . S
N294 S293 1.613 . S
N294 C297 1.350 . S
N295 S293 1.610 . S
N295 C296 1.351 . S
C296 C290 1.428 1_554 S
C296 N295 1.351 . S
C296 C297 1.434 . S
C297 C288 1.429 . S
C297 N294 1.350 . S
C297 C296 1.434 . S
C298 C299 1.369 . S
C298 C300 1.419 . S
C298 H302 0.930 . S
C299 C298 1.369 . S
C299 C308 1.429 1_554 S
C300 C298 1.419 . S
C300 C301 1.363 1_554 S
C300 H303 0.929 . S
C301 C300 1.363 1_556 S
C301 C307 1.428 . S
H302 C298 0.930 . S
H303 C300 0.929 . S
S304 N305 1.613 . S
S304 N306 1.610 . S
N305 S304 1.613 . S
N305 C308 1.350 . S
N306 S304 1.610 . S
N306 C307 1.351 . S
C307 C301 1.428 . S
C307 N306 1.351 . S
C307 C308 1.434 . S
C308 C299 1.429 1_556 S
C308 N305 1.350 . S
C308 C307 1.434 . S
C309 C310 1.369 . S
C309 C311 1.419 1_655 S
C309 H313 0.930 . S
C310 C309 1.369 . S
C310 C319 1.429 . S
C311 C309 1.419 1_455 S
C311 C312 1.363 . S
C311 H314 0.929 . S
C312 C311 1.363 . S
C312 C318 1.428 1_455 S
H313 C309 0.930 . S
H314 C311 0.929 . S
S315 N316 1.613 . S
S315 N317 1.610 . S
N316 S315 1.613 . S
N316 C319 1.350 1_554 S
N317 S315 1.610 . S
N317 C318 1.351 1_554 S
C318 C312 1.428 1_655 S
C318 N317 1.351 1_556 S
C318 C319 1.434 . S
C319 C310 1.429 . S
C319 N316 1.350 1_556 S
C319 C318 1.434 . S
C320 C321 1.369 . S
C320 C322 1.419 . S
C320 H324 0.930 . S
C321 C320 1.369 . S
C321 C330 1.429 . S
C322 C320 1.419 . S
C322 C323 1.363 . S
C322 H325 0.929 . S
C323 C322 1.363 . S
C323 C329 1.428 . S
H324 C320 0.930 . S
H325 C322 0.929 . S
S326 N327 1.613 . S
S326 N328 1.610 . S
N327 S326 1.613 . S
N327 C330 1.350 . S
N328 S326 1.610 . S
N328 C329 1.351 . S
C329 C323 1.428 . S
C329 N328 1.351 . S
C329 C330 1.434 . S
C330 C321 1.429 . S
C330 N327 1.350 . S
C330 C329 1.434 . S
C331 C332 1.375 . S
C331 C333 1.419 . S
C331 H335 0.930 . S
C332 C331 1.375 . S
C332 C341 1.422 1_565 S
C333 C331 1.419 . S
C333 C334 1.363 . S
C333 H336 0.929 . S
C334 C333 1.363 . S
C334 C340 1.428 1_565 S
H335 C331 0.930 . S
H336 C333 0.929 . S
S337 N338 1.613 . S
S337 N339 1.610 . S
N338 S337 1.613 . S
N338 C341 1.350 . S
N339 S337 1.610 . S
N339 C340 1.351 . S
C340 C334 1.428 1_545 S
C340 N339 1.351 . S
C340 C341 1.434 . S
C341 C332 1.422 1_545 S
C341 N338 1.350 . S
C341 C340 1.434 . S
C342 C343 1.369 . S
C342 C344 1.419 . S
C342 H346 0.930 . S
C343 C342 1.369 . S
C343 C352 1.429 . S
C344 C342 1.419 . S
C344 C345 1.363 . S
C344 H347 0.929 . S
C345 C344 1.363 . S
C345 C351 1.428 . S
H346 C342 0.930 . S
H347 C344 0.929 . S
S348 N349 1.613 . S
S348 N350 1.610 . S
N349 S348 1.613 . S
N349 C352 1.350 . S
N350 S348 1.610 . S
N350 C351 1.351 . S
C351 C345 1.428 . S
C351 N350 1.351 . S
C351 C352 1.434 . S
C352 C343 1.429 . S
C352 N349 1.350 . S
C352 C351 1.434 . S
C353 C354 1.369 . S
C353 C355 1.419 . S
C353 H357 0.930 . S
C354 C353 1.369 . S
C354 C363 1.429 . S
C355 C353 1.419 . S
C355 C356 1.363 . S
C355 H358 0.929 . S
C356 C355 1.363 . S
C356 C362 1.428 . S
H357 C353 0.930 . S
H358 C355 0.929 . S
S359 N360 1.613 . S
S359 N361 1.610 . S
N360 S359 1.613 . S
N360 C363 1.350 . S
N361 S359 1.610 . S
N361 C362 1.351 . S
C362 C356 1.428 . S
C362 N361 1.351 . S
C362 C363 1.434 . S
C363 C354 1.429 . S
C363 N360 1.350 . S
C363 C362 1.434 . S
C364 C365 1.369 1_455 S
C364 C366 1.419 . S
C364 H368 0.930 . S
C365 C364 1.369 1_655 S
C365 C374 1.429 . S
C366 C364 1.419 . S
C366 C367 1.363 . S
C366 H369 0.929 . S
C367 C366 1.363 . S
C367 C373 1.428 1_455 S
H368 C364 0.930 . S
H369 C366 0.929 . S
S370 N371 1.613 . S
S370 N372 1.610 . S
N371 S370 1.613 . S
N371 C374 1.350 . S
N372 S370 1.610 . S
N372 C373 1.351 . S
C373 C367 1.428 1_655 S
C373 N372 1.351 . S
C373 C374 1.434 . S
C374 C365 1.429 . S
C374 N371 1.350 . S
C374 C373 1.434 . S
C375 C376 1.369 1_565 S
C375 C377 1.419 1_554 S
C375 H379 0.930 . S
C376 C375 1.369 1_545 S
C376 C385 1.429 1_554 S
C377 C375 1.419 1_556 S
C377 C378 1.363 1_565 S
C377 H380 0.929 . S
C378 C377 1.363 1_545 S
C378 C384 1.428 . S
H379 C375 0.930 . S
H380 C377 0.929 . S
S381 N382 1.613 . S
S381 N383 1.610 . S
N382 S381 1.613 . S
N382 C385 1.350 . S
N383 S381 1.610 . S
N383 C384 1.351 . S
C384 C378 1.428 . S
C384 N383 1.351 . S
C384 C385 1.434 . S
C385 C376 1.429 1_556 S
C385 N382 1.350 . S
C385 C384 1.434 . S
C386 C387 1.369 . S
C386 C388 1.419 . S
C386 H390 0.930 . S
C387 C386 1.369 . S
C387 C396 1.429 1_554 S
C388 C386 1.419 . S
C388 C389 1.363 1_554 S
C388 H391 0.929 . S
C389 C388 1.363 1_556 S
C389 C395 1.428 . S
H390 C386 0.930 . S
H391 C388 0.929 . S
S392 N393 1.613 . S
S392 N394 1.610 . S
N393 S392 1.613 . S
N393 C396 1.350 . S
N394 S392 1.610 . S
N394 C395 1.351 . S
C395 C389 1.428 . S
C395 N394 1.351 . S
C395 C396 1.434 . S
C396 C387 1.429 1_556 S
C396 N393 1.350 . S
C396 C395 1.434 . S
C397 C398 1.369 . S
C397 C399 1.419 . S
C397 H401 0.930 . S
C398 C397 1.369 . S
C398 C407 1.429 1_554 S
C399 C397 1.419 . S
C399 C400 1.363 1_554 S
C399 H402 0.929 . S
C400 C399 1.363 1_556 S
C400 C406 1.428 . S
H401 C397 0.930 . S
H402 C399 0.929 . S
S403 N404 1.613 . S
S403 N405 1.610 . S
N404 S403 1.613 . S
N404 C407 1.350 . S
N405 S403 1.610 . S
N405 C406 1.351 . S
C406 C400 1.428 . S
C406 N405 1.351 . S
C406 C407 1.434 . S
C407 C398 1.429 1_556 S
C407 N404 1.350 . S
C407 C406 1.434 . S
C408 C409 1.369 . S
C408 C410 1.419 . S
C408 H412 0.930 . S
C409 C408 1.369 . S
C409 C418 1.429 . S
C410 C408 1.419 . S
C410 C411 1.363 . S
C410 H413 0.929 . S
C411 C410 1.363 . S
C411 C417 1.428 . S
H412 C408 0.930 . S
H413 C410 0.929 . S
S414 N415 1.613 1_655 S
S414 N416 1.610 . S
N415 S414 1.613 1_455 S
N415 C418 1.350 . S
N416 S414 1.610 . S
N416 C417 1.351 1_655 S
C417 C411 1.428 . S
C417 N416 1.351 1_455 S
C417 C418 1.434 . S
C418 C409 1.429 . S
C418 N415 1.350 . S
C418 C417 1.434 . S
C419 C420 1.369 1_565 S
C419 C421 1.419 . S
C419 H423 0.930 . S
C420 C419 1.369 1_545 S
C420 C429 1.429 . S
C421 C419 1.419 . S
C421 C422 1.363 1_565 S
C421 H424 0.929 1_554 S
C422 C421 1.363 1_545 S
C422 C428 1.428 . S
H423 C419 0.930 . S
H424 C421 0.929 1_556 S
S425 N426 1.613 . S
S425 N427 1.610 . S
N426 S425 1.613 . S
N426 C429 1.350 . S
N427 S425 1.610 . S
N427 C428 1.351 . S
C428 C422 1.428 . S
C428 N427 1.351 . S
C428 C429 1.434 . S
C429 C420 1.429 . S
C429 N426 1.350 . S
C429 C428 1.434 . S
C430 C431 1.369 . S
C430 C432 1.419 . S
C430 H434 0.930 . S
C431 C430 1.369 . S
C431 C440 1.429 . S
C432 C430 1.419 . S
C432 C433 1.363 . S
C432 H435 0.929 . S
C433 C432 1.363 . S
C433 C439 1.428 . S
H434 C430 0.930 . S
H435 C432 0.929 . S
S436 N437 1.613 . S
S436 N438 1.610 . S
N437 S436 1.613 . S
N437 C440 1.350 . S
N438 S436 1.610 . S
N438 C439 1.351 . S
C439 C433 1.428 . S
C439 N438 1.351 . S
C439 C440 1.434 . S
C440 C431 1.429 . S
C440 N437 1.350 . S
C440 C439 1.434 . S
C441 C442 1.369 . S
C441 C443 1.419 1_554 S
C441 H445 0.930 1_554 S
C442 C441 1.369 . S
C442 C451 1.429 . S
C443 C441 1.419 1_556 S
C443 C444 1.363 . S
C443 H446 0.929 . S
C444 C443 1.363 . S
C444 C450 1.428 1_556 S
H445 C441 0.930 1_556 S
H446 C443 0.929 . S
S447 N448 1.613 . S
S447 N449 1.610 . S
N448 S447 1.613 . S
N448 C451 1.350 . S
N449 S447 1.610 . S
N449 C450 1.351 . S
C450 C444 1.428 1_554 S
C450 N449 1.351 . S
C450 C451 1.434 . S
C451 C442 1.429 . S
C451 N448 1.350 . S
C451 C450 1.434 . S
C452 C453 1.369 1_455 S
C452 C454 1.419 . S
C452 H456 0.930 . S
C453 C452 1.369 1_655 S
C453 C462 1.429 . S
C454 C452 1.419 . S
C454 C455 1.363 1_455 S
C454 H457 0.929 . S
C455 C454 1.363 1_655 S
C455 C461 1.428 . S
H456 C452 0.930 . S
H457 C454 0.929 . S
S458 N459 1.613 . S
S458 N460 1.610 . S
N459 S458 1.613 . S
N459 C462 1.350 . S
N460 S458 1.610 . S
N460 C461 1.351 . S
C461 C455 1.428 . S
C461 N460 1.351 . S
C461 C462 1.434 . S
C462 C453 1.429 . S
C462 N459 1.350 . S
C462 C461 1.434 . S
C463 C464 1.373 . S
C463 C465 1.419 . S
C463 H467 0.930 . S
C464 C463 1.373 . S
C464 C473 1.424 1_565 S
C465 C463 1.419 . S
C465 C466 1.363 . S
C465 H468 0.929 . S
C466 C465 1.363 . S
C466 C472 1.428 1_565 S
H467 C463 0.930 . S
H468 C465 0.929 . S
S469 N470 1.613 . S
S469 N471 1.610 . S
N470 S469 1.613 . S
N470 C473 1.350 . S
N471 S469 1.610 . S
N471 C472 1.351 . S
C472 C466 1.428 1_545 S
C472 N471 1.351 . S
C472 C473 1.434 . S
C473 C464 1.424 1_545 S
C473 N470 1.350 . S
C473 C472 1.434 . S
C474 C475 1.369 . S
C474 C476 1.419 . S
C474 H478 0.930 . S
C475 C474 1.369 . S
C475 C484 1.429 . S
C476 C474 1.419 . S
C476 C477 1.363 . S
C476 H479 0.929 . S
C477 C476 1.363 . S
C477 C483 1.428 . S
H478 C474 0.930 . S
H479 C476 0.929 . S
S480 N481 1.613 . S
S480 N482 1.610 . S
N481 S480 1.613 . S
N481 C484 1.350 . S
N482 S480 1.610 . S
N482 C483 1.351 . S
C483 C477 1.428 . S
C483 N482 1.351 . S
C483 C484 1.434 . S
C484 C475 1.429 . S
C484 N481 1.350 . S
C484 C483 1.434 . S
C485 C486 1.369 . S
C485 C487 1.419 . S
C485 H489 0.930 . S
C486 C485 1.369 . S
C486 C495 1.429 . S
C487 C485 1.419 . S
C487 C488 1.363 . S
C487 H490 0.929 . S
C488 C487 1.363 . S
C488 C494 1.428 . S
H489 C485 0.930 . S
H490 C487 0.929 . S
S491 N492 1.613 . S
S491 N493 1.610 . S
N492 S491 1.613 . S
N492 C495 1.350 . S
N493 S491 1.610 . S
N493 C494 1.351 . S
C494 C488 1.428 . S
C494 N493 1.351 . S
C494 C495 1.434 . S
C495 C486 1.429 . S
C495 N492 1.350 . S
C495 C494 1.434 . S
C233 C76 1.844 . S
C235 C113 1.880 . S
C246 C134 1.537 . S
C244 C88 1.497 . S
C257 C168 1.473 . S
C255 C52 1.421 . S
C268 C202 1.552 . S
C266 C64 1.528 . S
C279 C104 1.880 . S
C277 C28 1.844 1_546 S
C288 C40 1.512 . S
C290 C143 1.539 . S
C299 C4 1.409 . S
C301 C177 1.480 . S
C310 C16 1.537 . S
C312 C211 1.553 . S
C323 C125 0.862 . S
C321 C69 0.832 . S
C334 C130 1.266 . S
C332 C81 1.231 1_565 S
C345 C164 1.177 . S
C343 C93 1.156 . S
C354 C57 0.612 . S
C356 C198 0.613 . S
C365 C21 0.835 . S
C367 C96 0.865 . S
C378 C159 1.266 . S
C376 C33 1.228 . S
C389 C193 1.176 . S
C387 C45 1.155 . S
C398 C9 0.617 . S
C400 C227 0.619 . S
C409 C66 1.351 . S
C411 C109 1.389 . S
C420 C78 1.714 . S
C422 C138 1.769 1_554 S
C433 C172 1.549 1_554 S
C431 C90 1.520 . S
C444 C206 1.612 . S
C442 C54 1.557 . S
C453 C18 1.340 . S
C455 C100 1.398 . S
C466 C147 1.769 . S
C464 C30 1.717 1_565 S
C477 C181 1.549 . S
C475 C42 1.514 . S
C486 C6 1.563 . S
C488 C215 1.612 . S
