# Generated by pormake.
# Topology pyr, (3,6)-cn, num edge types: 1
# Building blocks:
#     Node 0, Type 0, BuildingBlock: BELTOD_clean_linker_0, # of connection points: 3
#     Node 1, Type 0, BuildingBlock: BELTOD_clean_linker_0, # of connection points: 3
#     Node 2, Type 0, BuildingBlock: BELTOD_clean_linker_0, # of connection points: 3
#     Node 3, Type 0, BuildingBlock: BELTOD_clean_linker_0, # of connection points: 3
#     Node 4, Type 0, BuildingBlock: BELTOD_clean_linker_0, # of connection points: 3
#     Node 5, Type 0, BuildingBlock: BELTOD_clean_linker_0, # of connection points: 3
#     Node 6, Type 0, BuildingBlock: BELTOD_clean_linker_0, # of connection points: 3
#     Node 7, Type 0, BuildingBlock: BELTOD_clean_linker_0, # of connection points: 3
#     Node 8, Type 1, BuildingBlock: FUNLAD_clean_sbu_0, # of connection points: 6
#     Node 9, Type 1, BuildingBlock: FUNLAD_clean_sbu_0, # of connection points: 6
#     Node 10, Type 1, BuildingBlock: FUNLAD_clean_sbu_0, # of connection points: 6
#     Node 11, Type 1, BuildingBlock: FUNLAD_clean_sbu_0, # of connection points: 6
#     Edge 12, Type (0, 1), BuildingBlock: XUDNAN_clean_linker_2, # of connection points: 2
#     Edge 13, Type (0, 1), BuildingBlock: XUDNAN_clean_linker_2, # of connection points: 2
#     Edge 14, Type (0, 1), BuildingBlock: XUDNAN_clean_linker_2, # of connection points: 2
#     Edge 15, Type (0, 1), BuildingBlock: XUDNAN_clean_linker_2, # of connection points: 2
#     Edge 16, Type (0, 1), BuildingBlock: XUDNAN_clean_linker_2, # of connection points: 2
#     Edge 17, Type (0, 1), BuildingBlock: XUDNAN_clean_linker_2, # of connection points: 2
#     Edge 18, Type (0, 1), BuildingBlock: XUDNAN_clean_linker_2, # of connection points: 2
#     Edge 19, Type (0, 1), BuildingBlock: XUDNAN_clean_linker_2, # of connection points: 2
#     Edge 20, Type (0, 1), BuildingBlock: XUDNAN_clean_linker_2, # of connection points: 2
#     Edge 21, Type (0, 1), BuildingBlock: XUDNAN_clean_linker_2, # of connection points: 2
#     Edge 22, Type (0, 1), BuildingBlock: XUDNAN_clean_linker_2, # of connection points: 2
#     Edge 23, Type (0, 1), BuildingBlock: XUDNAN_clean_linker_2, # of connection points: 2
#     Edge 24, Type (0, 1), BuildingBlock: XUDNAN_clean_linker_2, # of connection points: 2
#     Edge 25, Type (0, 1), BuildingBlock: XUDNAN_clean_linker_2, # of connection points: 2
#     Edge 26, Type (0, 1), BuildingBlock: XUDNAN_clean_linker_2, # of connection points: 2
#     Edge 27, Type (0, 1), BuildingBlock: XUDNAN_clean_linker_2, # of connection points: 2
#     Edge 28, Type (0, 1), BuildingBlock: XUDNAN_clean_linker_2, # of connection points: 2
#     Edge 29, Type (0, 1), BuildingBlock: XUDNAN_clean_linker_2, # of connection points: 2
#     Edge 30, Type (0, 1), BuildingBlock: XUDNAN_clean_linker_2, # of connection points: 2
#     Edge 31, Type (0, 1), BuildingBlock: XUDNAN_clean_linker_2, # of connection points: 2
#     Edge 32, Type (0, 1), BuildingBlock: XUDNAN_clean_linker_2, # of connection points: 2
#     Edge 33, Type (0, 1), BuildingBlock: XUDNAN_clean_linker_2, # of connection points: 2
#     Edge 34, Type (0, 1), BuildingBlock: XUDNAN_clean_linker_2, # of connection points: 2
#     Edge 35, Type (0, 1), BuildingBlock: XUDNAN_clean_linker_2, # of connection points: 2
# Relax obj value: 0.065
# Max RMSD: 0.068
# Mean RMSD: 0.035
data_MOF--net-pry--node1-FUNLAD_clean_sbu_0--node2-BELTOD_clean_linker_0--edge1-XUDNAN_clean_linker_2
_symmetry_space_group_name_H-M    P1
_symmetry_Int_Tables_number       1
_symmetry_cell_setting            triclinic
loop_
_symmetry_equiv_pos_as_xyz
'x, y, z'
_cell_length_a     40.810036
_cell_length_b     43.622934
_cell_length_c     43.24855
_cell_angle_alpha  90.066611
_cell_angle_beta   90.497035
_cell_angle_gamma 84.247837
loop_
_atom_site_label
_atom_site_type_symbol
_atom_site_fract_x
_atom_site_fract_y
_atom_site_fract_z
_atom_type_partial_charge
P0 P 0.17336 0.19532 0.23132 0.0
H1 H 0.16386 0.16893 0.16938 0.0
H2 H 0.2016 0.14101 0.13313 0.0
H3 H 0.28081 0.14277 0.19979 0.0
H4 H 0.24286 0.17043 0.23601 0.0
H5 H 0.18409 0.26045 0.22546 0.0
H6 H 0.15897 0.30245 0.19319 0.0
H7 H 0.09015 0.24243 0.1567 0.0
H8 H 0.11499 0.20043 0.18982 0.0
H9 H 0.17724 0.12888 0.2439 0.0
H10 H 0.11427 0.21015 0.26894 0.0
O11 O 0.19692 0.21057 0.25781 0.0
H12 H 0.14897 0.09852 0.28042 0.0
H13 H 0.08521 0.17967 0.30545 0.0
C14 C 0.20059 0.17255 0.20519 0.0
C15 C 0.1893 0.16336 0.17625 0.0
C16 C 0.211 0.14736 0.15548 0.0
C17 C 0.24445 0.1399 0.16333 0.0
C18 C 0.25527 0.14796 0.19295 0.0
C19 C 0.23357 0.16408 0.21363 0.0
C20 C 0.15137 0.22717 0.21028 0.0
C21 C 0.16314 0.25636 0.21106 0.0
C22 C 0.14871 0.2805 0.19258 0.0
C23 C 0.12255 0.27588 0.17231 0.0
C24 C 0.11039 0.24673 0.17194 0.0
C25 C 0.12452 0.2227 0.19089 0.0
C26 C 0.14738 0.17175 0.25293 0.0
C27 C 0.15664 0.1401 0.25656 0.0
C28 C 0.14038 0.12267 0.27767 0.0
C29 C 0.11461 0.13648 0.29605 0.0
C30 C 0.10506 0.1682 0.29198 0.0
C31 C 0.12136 0.18562 0.27073 0.0
P32 P 0.37969 0.88956 0.6631 0.0
H33 H 0.43882 0.90449 0.69688 0.0
H34 H 0.44872 0.91955 0.7504 0.0
H35 H 0.34815 0.90602 0.77254 0.0
H36 H 0.33865 0.89061 0.71904 0.0
H37 H 0.37131 0.86011 0.60337 0.0
H38 H 0.39113 0.80951 0.58265 0.0
H39 H 0.42519 0.78072 0.67399 0.0
H40 H 0.40636 0.83178 0.69412 0.0
H41 H 0.35508 0.95282 0.64948 0.0
H42 H 0.31441 0.86565 0.65567 0.0
O43 O 0.40609 0.90847 0.6431 0.0
H44 H 0.30091 0.97836 0.63673 0.0
H45 H 0.25935 0.89134 0.64359 0.0
C46 C 0.38789 0.89656 0.70376 0.0
C47 C 0.41894 0.90452 0.71329 0.0
C48 C 0.4245 0.91346 0.74394 0.0
C49 C 0.3992 0.91439 0.76595 0.0
C50 C 0.36837 0.90545 0.75644 0.0
C51 C 0.36282 0.89661 0.72574 0.0
C52 C 0.3871 0.84979 0.65037 0.0
C53 C 0.38243 0.84265 0.61906 0.0
C54 C 0.39379 0.81355 0.6072 0.0
C55 C 0.41028 0.79083 0.6264 0.0
C56 C 0.41335 0.79769 0.65819 0.0
C57 C 0.40217 0.82688 0.66995 0.0
C58 C 0.33895 0.90725 0.65305 0.0
C59 C 0.33441 0.93911 0.648 0.0
C60 C 0.30322 0.95378 0.64099 0.0
C61 C 0.27551 0.93703 0.63925 0.0
C62 C 0.28012 0.90495 0.64437 0.0
C63 C 0.31156 0.89022 0.65139 0.0
P64 P 0.71342 0.35289 0.86741 0.0
H65 H 0.73781 0.34381 0.93098 0.0
H66 H 0.77413 0.37219 0.96309 0.0
H67 H 0.78141 0.43717 0.88873 0.0
H68 H 0.74511 0.40872 0.85677 0.0
H69 H 0.69306 0.29092 0.86146 0.0
H70 H 0.64985 0.26542 0.88638 0.0
H71 H 0.62647 0.34593 0.94365 0.0
H72 H 0.67119 0.37029 0.92001 0.0
H73 H 0.69966 0.35288 0.80088 0.0
H74 H 0.66926 0.40789 0.88041 0.0
O75 O 0.73821 0.32855 0.84628 0.0
H76 H 0.65937 0.38367 0.76896 0.0
H77 H 0.62707 0.43715 0.84947 0.0
C78 C 0.73823 0.37464 0.89181 0.0
C79 C 0.74676 0.36446 0.9218 0.0
C80 C 0.76744 0.3807 0.94013 0.0
C81 C 0.78037 0.40695 0.92841 0.0
C82 C 0.77182 0.41696 0.89828 0.0
C83 C 0.75098 0.40084 0.88009 0.0
C84 C 0.68556 0.33228 0.88917 0.0
C85 C 0.67912 0.30275 0.87988 0.0
C86 C 0.65395 0.28845 0.89379 0.0
C87 C 0.63426 0.30381 0.91674 0.0
C88 C 0.64126 0.33329 0.92629 0.0
C89 C 0.66677 0.34732 0.91268 0.0
C90 C 0.68742 0.37817 0.84293 0.0
C91 C 0.68436 0.37167 0.81144 0.0
C92 C 0.66086 0.38902 0.79335 0.0
C93 C 0.63943 0.41264 0.8067 0.0
C94 C 0.64323 0.41942 0.83824 0.0
C95 C 0.66722 0.40249 0.85609 0.0
P96 P 0.84275 0.66542 0.44215 0.0
H97 H 0.87221 0.72111 0.4298 0.0
H98 H 0.91743 0.74498 0.45343 0.0
H99 H 0.93023 0.67156 0.52092 0.0
H100 H 0.88395 0.64786 0.49707 0.0
H101 H 0.81957 0.65743 0.37881 0.0
H102 H 0.84547 0.63168 0.33361 0.0
H103 H 0.93237 0.60389 0.38847 0.0
H104 H 0.90631 0.62941 0.43351 0.0
H105 H 0.78468 0.67428 0.48078 0.0
H106 H 0.85606 0.59912 0.45507 0.0
O107 O 0.81468 0.69317 0.42956 0.0
H108 H 0.74918 0.6378 0.50153 0.0
H109 H 0.82082 0.56236 0.47626 0.0
C110 C 0.87431 0.68327 0.4622 0.0
C111 C 0.88451 0.71027 0.44985 0.0
C112 C 0.91082 0.72355 0.46307 0.0
C113 C 0.92782 0.70982 0.48874 0.0
C114 C 0.9176 0.68257 0.50112 0.0
C115 C 0.89108 0.6692 0.48772 0.0
C116 C 0.86129 0.64577 0.40927 0.0
C117 C 0.84421 0.64585 0.38105 0.0
C118 C 0.85903 0.63122 0.35527 0.0
C119 C 0.89099 0.61599 0.35754 0.0
C120 C 0.90766 0.61531 0.38612 0.0
C121 C 0.89289 0.63009 0.41179 0.0
C122 C 0.82233 0.63929 0.46543 0.0
C123 C 0.79313 0.64994 0.48041 0.0
C124 C 0.77299 0.62901 0.49257 0.0
C125 C 0.78195 0.59713 0.49 0.0
C126 C 0.81303 0.58678 0.47801 0.0
C127 C 0.83315 0.60778 0.46584 0.0
P128 P 0.87552 0.87987 0.88466 0.0
H129 H 0.83074 0.8609 0.9319 0.0
H130 H 0.77523 0.88183 0.94701 0.0
H131 H 0.7681 0.93856 0.86499 0.0
H132 H 0.8237 0.91867 0.85085 0.0
H133 H 0.93001 0.85213 0.92315 0.0
H134 H 0.94817 0.79932 0.93846 0.0
H135 H 0.87183 0.76659 0.8811 0.0
H136 H 0.85358 0.8199 0.86588 0.0
H137 H 0.92355 0.92265 0.86879 0.0
H138 H 0.85831 0.86811 0.81879 0.0
O139 O 0.89144 0.90119 0.91197 0.0
H140 H 0.93687 0.94781 0.82112 0.0
H141 H 0.87181 0.89366 0.77025 0.0
C142 C 0.83144 0.88775 0.88994 0.0
C143 C 0.81681 0.87714 0.91667 0.0
C144 C 0.78498 0.88918 0.92534 0.0
C145 C 0.76722 0.91228 0.90751 0.0
C146 C 0.78121 0.92127 0.87967 0.0
C147 C 0.81304 0.90947 0.87123 0.0
C148 C 0.89024 0.84013 0.89341 0.0
C149 C 0.91706 0.83368 0.91378 0.0
C150 C 0.92734 0.80337 0.9228 0.0
C151 C 0.91134 0.77859 0.91134 0.0
C152 C 0.88484 0.78506 0.89035 0.0
C153 C 0.87437 0.81554 0.88154 0.0
C154 C 0.88943 0.8937 0.8477 0.0
C155 C 0.91225 0.91574 0.84751 0.0
C156 C 0.91984 0.93032 0.82008 0.0
C157 C 0.90498 0.92325 0.79184 0.0
C158 C 0.88366 0.89972 0.79159 0.0
C159 C 0.87591 0.8851 0.81932 0.0
P160 P 0.66609 0.20136 0.32793 0.0
H161 H 0.67002 0.26773 0.33405 0.0
H162 H 0.63896 0.30829 0.36346 0.0
H163 H 0.57595 0.24214 0.39748 0.0
H164 H 0.60772 0.20131 0.36798 0.0
H165 H 0.73518 0.20519 0.34518 0.0
H166 H 0.77422 0.17344 0.37763 0.0
H167 H 0.69704 0.11771 0.4033 0.0
H168 H 0.65803 0.14961 0.37029 0.0
H169 H 0.60424 0.212 0.29188 0.0
H170 H 0.67943 0.13705 0.30827 0.0
O171 O 0.68939 0.21862 0.30311 0.0
H172 H 0.57789 0.18036 0.25367 0.0
H173 H 0.65339 0.10555 0.2707 0.0
C174 C 0.641 0.23142 0.34842 0.0
C175 C 0.64929 0.26188 0.3475 0.0
C176 C 0.63132 0.28524 0.36432 0.0
C177 C 0.6047 0.27874 0.38284 0.0
C178 C 0.59641 0.24808 0.38368 0.0
C179 C 0.61441 0.22468 0.36668 0.0
C180 C 0.69377 0.17943 0.35473 0.0
C181 C 0.72652 0.18624 0.35785 0.0
C182 C 0.74888 0.16812 0.37668 0.0
C183 C 0.73899 0.14273 0.39298 0.0
C184 C 0.70573 0.1367 0.39069 0.0
C185 C 0.68331 0.15502 0.37195 0.0
C186 C 0.64309 0.17656 0.30406 0.0
C187 C 0.61463 0.18852 0.2879 0.0
C188 C 0.59983 0.17054 0.26573 0.0
C189 C 0.61329 0.14023 0.25923 0.0
C190 C 0.64184 0.12848 0.27551 0.0
C191 C 0.6567 0.1465 0.29732 0.0
P192 P 0.43536 0.57443 0.05365 0.0
H193 H 0.39082 0.53215 0.02778 0.0
H194 H 0.33119 0.52996 0.03188 0.0
H195 H 0.32359 0.61448 0.08475 0.0
H196 H 0.38251 0.61597 0.08146 0.0
H197 H 0.44554 0.62529 0.01132 0.0
H198 H 0.45233 0.67989 0.02068 0.0
H199 H 0.45147 0.66361 0.11916 0.0
H200 H 0.44418 0.60982 0.10984 0.0
H201 H 0.40932 0.53344 0.09973 0.0
H202 H 0.50232 0.56673 0.07761 0.0
O203 O 0.45074 0.56093 0.02013 0.0
H204 H 0.43072 0.51708 0.15033 0.0
H205 H 0.52331 0.55227 0.12891 0.0
C206 C 0.39119 0.57444 0.05382 0.0
C207 C 0.37617 0.55033 0.03993 0.0
C208 C 0.34211 0.54915 0.04228 0.0
C209 C 0.32263 0.57202 0.05875 0.0
C210 C 0.33787 0.59623 0.07233 0.0
C211 C 0.37176 0.59728 0.07011 0.0
C212 C 0.44507 0.61336 0.05982 0.0
C213 C 0.44747 0.63343 0.03486 0.0
C214 C 0.45135 0.66453 0.04024 0.0
C215 C 0.45233 0.6759 0.07066 0.0
C216 C 0.45056 0.65552 0.0955 0.0
C217 C 0.44684 0.62462 0.09013 0.0
C218 C 0.45403 0.55196 0.08517 0.0
C219 C 0.43461 0.53664 0.10542 0.0
C220 C 0.44681 0.52759 0.13461 0.0
C221 C 0.47834 0.53438 0.14423 0.0
C222 C 0.49892 0.54666 0.12249 0.0
C223 C 0.48692 0.55503 0.09304 0.0
P224 P 0.14144 0.3949 0.59146 0.0
H225 H 0.1337 0.34731 0.546 0.0
H226 H 0.08513 0.32501 0.52781 0.0
H227 H 0.02338 0.40094 0.56801 0.0
H228 H 0.07268 0.42266 0.58707 0.0
H229 H 0.18638 0.43578 0.61701 0.0
H230 H 0.22658 0.46572 0.5941 0.0
H231 H 0.1976 0.43704 0.503 0.0
H232 H 0.15518 0.40847 0.52635 0.0
H233 H 0.13076 0.36539 0.65056 0.0
H234 H 0.12035 0.45746 0.61296 0.0
O235 O 0.16531 0.36215 0.59795 0.0
H236 H 0.11933 0.38636 0.70237 0.0
H237 H 0.10994 0.47854 0.66492 0.0
C238 C 0.10668 0.38594 0.56877 0.0
C239 C 0.10976 0.35966 0.55012 0.0
C240 C 0.08174 0.34708 0.53942 0.0
C241 C 0.0501 0.36082 0.54702 0.0
C242 C 0.04733 0.38939 0.56241 0.0
C243 C 0.07552 0.40188 0.57327 0.0
C244 C 0.167 0.42069 0.57336 0.0
C245 C 0.18757 0.43683 0.59205 0.0
C246 C 0.21107 0.45356 0.57889 0.0
C247 C 0.21561 0.45341 0.54674 0.0
C248 C 0.19444 0.43784 0.52783 0.0
C249 C 0.17029 0.42145 0.54113 0.0
C250 C 0.12758 0.41 0.62826 0.0
C251 C 0.12575 0.39007 0.65343 0.0
C252 C 0.11907 0.40201 0.68291 0.0
C253 C 0.11434 0.434 0.68745 0.0
C254 C 0.11399 0.4538 0.66188 0.0
C255 C 0.12 0.4418 0.63234 0.0
C256 C 0.02003 0.04384 0.48014 0.0
N257 N 0.98925 0.10059 0.55476 0.0
C258 C 0.01495 0.11651 0.54703 0.0
C259 C 0.01145 0.1486 0.54764 0.0
C260 C 0.98122 0.16441 0.55628 0.0
C261 C 0.95574 0.14739 0.56586 0.0
C262 C 0.96029 0.11526 0.56483 0.0
Zn263 Zn 0.99179 0.055 0.54443 0.0
C264 C 0.92998 0.04243 0.50934 0.0
N265 N 0.99462 0.96086 0.51973 0.0
C266 C 0.02328 0.94521 0.51009 0.0
C267 C 0.96878 0.94584 0.52897 0.0
C268 C 0.97202 0.91388 0.53102 0.0
C269 C 1.00195 0.89726 0.52309 0.0
C270 C 0.02741 0.91304 0.51135 0.0
Zn271 Zn 0.99248 1.00652 0.52948 0.0
O272 O 0.01393 0.06429 0.50085 0.0
C273 C 0.0546 0.01968 0.56378 0.0
O274 O 0.01345 0.01643 0.48562 0.0
H275 H 0.94628 0.95874 0.53657 0.0
H276 H 0.0377 0.10436 0.53903 0.0
H277 H 0.04359 0.9577 0.50314 0.0
O278 O 0.03944 0.04658 0.5656 0.0
O279 O 0.04079 0.9988 0.54966 0.0
H280 H 0.9401 0.1021 0.57062 0.0
O281 O 0.97178 0.9969 0.5738 0.0
O282 O 0.96977 0.04516 0.58797 0.0
O283 O 0.9439 0.01494 0.50897 0.0
O284 O 0.94454 0.06313 0.52289 0.0
C285 C 0.96472 0.01749 0.59413 0.0
H286 H 0.03197 0.16092 0.54076 0.0
H287 H 0.9321 0.15877 0.5727 0.0
H288 H 0.95163 0.90227 0.53952 0.0
H289 H 0.05069 0.90075 0.50477 0.0
C290 C 0.55563 0.99881 0.9989 0.0
N291 N 0.50046 0.0844 0.9935 0.0
C292 C 0.52882 0.09625 1.00181 0.0
C293 C 0.53296 0.1268 0.99559 0.0
C294 C 0.50788 0.14525 0.98032 0.0
C295 C 0.47949 0.13232 0.97047 0.0
C296 C 0.47611 0.10152 0.97765 0.0
Zn297 Zn 0.49492 0.04197 1.01063 0.0
C298 C 0.46493 0.99982 0.9674 0.0
N299 N 0.48659 0.95511 0.05143 0.0
C300 C 0.51299 0.93646 0.06211 0.0
C301 C 0.45585 0.9456 0.05082 0.0
C302 C 0.45074 0.9162 0.06097 0.0
C303 C 0.47763 0.89623 0.07123 0.0
C304 C 0.50908 0.90655 0.0719 0.0
Zn305 Zn 0.49233 0.9972 0.03336 0.0
O306 O 0.54247 0.02621 0.99553 0.0
C307 C 0.52177 0.03792 0.07746 0.0
O308 O 0.5399 0.97974 0.01362 0.0
H309 H 0.43531 0.96053 0.04169 0.0
H310 H 0.54791 0.08229 0.0143 0.0
H311 H 0.53719 0.94453 0.06243 0.0
O312 O 0.51483 0.05643 0.05504 0.0
O313 O 0.51599 1.01001 0.07431 0.0
H314 H 0.4537 0.09159 0.97147 0.0
O315 O 0.44521 0.01607 0.0529 0.0
O316 O 0.44728 0.05789 0.02533 0.0
O317 O 0.46835 0.98415 0.9922 0.0
O318 O 0.47494 0.0266 0.96696 0.0
C319 C 0.43206 0.04244 0.0443 0.0
H320 H 0.55541 0.13609 1.00299 0.0
H321 H 0.45987 0.1461 0.95837 0.0
H322 H 0.42622 0.90875 0.05971 0.0
H323 H 0.53033 0.89159 0.0797 0.0
C324 C 0.51063 0.47092 0.48428 0.0
N325 N 0.50377 0.51174 0.57237 0.0
C326 C 0.48914 0.48763 0.58408 0.0
C327 C 0.49255 0.48029 0.61548 0.0
C328 C 0.51102 0.49809 0.6348 0.0
C329 C 0.52547 0.52298 0.62202 0.0
C330 C 0.52152 0.52941 0.5907 0.0
Zn331 Zn 0.49957 0.52376 0.5271 0.0
C332 C 0.56288 0.53768 0.50126 0.0
N333 N 0.48989 0.5522 0.43313 0.0
C334 C 0.47038 0.53589 0.41506 0.0
C335 C 0.51031 0.57152 0.42046 0.0
C336 C 0.51307 0.57352 0.38834 0.0
C337 C 0.49414 0.55592 0.36932 0.0
C338 C 0.47187 0.53769 0.38298 0.0
Zn339 Zn 0.49341 0.54075 0.47887 0.0
O340 O 0.50996 0.47703 0.51304 0.0
C341 C 0.43034 0.52522 0.50446 0.0
O342 O 0.50411 0.49286 0.46507 0.0
H343 H 0.52573 0.58417 0.43521 0.0
H344 H 0.475 0.47401 0.56904 0.0
H345 H 0.45499 0.52002 0.42542 0.0
O346 O 0.44893 0.51836 0.52767 0.0
O347 O 0.44242 0.53592 0.48029 0.0
H348 H 0.533 0.54844 0.58096 0.0
O349 O 0.4832 0.58883 0.49378 0.0
O350 O 0.48961 0.57034 0.54083 0.0
O351 O 0.54456 0.54457 0.47794 0.0
O352 O 0.55043 0.52884 0.52604 0.0
C353 C 0.48356 0.59329 0.52295 0.0
H354 H 0.48107 0.46086 0.62449 0.0
H355 H 0.54062 0.53684 0.63586 0.0
H356 H 0.53042 0.58792 0.37848 0.0
H357 H 0.4572 0.52348 0.36903 0.0
C358 C 1.00295 0.5795 1.00338 0.0
N359 N 1.0007 0.54343 0.09442 0.0
C360 C 0.00511 0.57096 0.10782 0.0
C361 C 0.99509 0.57687 0.13827 0.0
C362 C 0.9808 0.55405 0.1549 0.0
C363 C 0.97577 0.52629 0.14015 0.0
C364 C 0.98586 0.52146 0.10977 0.0
Zn365 Zn 0.01858 0.53176 0.05187 0.0
C366 C 0.9692 0.50044 0.01486 0.0
N367 N 0.05546 0.50221 0.96438 0.0
C368 C 0.06982 0.52402 0.94839 0.0
C369 C 0.05285 0.47377 0.95224 0.0
C370 C 0.06478 0.46652 0.92267 0.0
C371 C 0.07916 0.48888 0.90539 0.0
C372 C 0.08158 0.51795 0.91871 0.0
Zn373 Zn 0.03728 0.51423 1.0067 0.0
O374 O 0.99931 0.57644 0.03244 0.0
C375 C 0.08716 0.54501 0.0437 0.0
O376 O 0.01815 0.55746 0.98845 0.0
H377 H 0.04136 0.45678 0.96543 0.0
H378 H 0.01708 0.58801 0.09515 0.0
H379 H 0.07179 0.54645 0.95849 0.0
O380 O 0.06387 0.54903 0.06306 0.0
O381 O 0.08232 0.53147 0.01831 0.0
H382 H 0.98247 0.49978 0.09867 0.0
O383 O 0.05526 0.47061 0.02493 0.0
O384 O 0.0379 0.48688 0.07039 0.0
O385 O 0.99253 0.49706 0.99554 0.0
O386 O 0.97348 0.51409 0.0403 0.0
C387 C 0.05172 0.46545 0.05356 0.0
H388 H 0.99939 0.59858 0.149 0.0
H389 H 0.96432 0.50836 0.15206 0.0
H390 H 0.06277 0.44366 0.91354 0.0
H391 H 0.09179 0.53617 0.90616 0.0
H392 H 0.09395 0.15392 0.35507 0.0
H393 H 0.09915 0.0767 0.29127 0.0
H394 H 0.07607 0.04489 0.33113 0.0
H395 H 0.116 0.11048 0.42334 0.0
H396 H 0.08795 0.13338 0.44815 0.0
H397 H 0.10435 0.15049 0.41448 0.0
H398 H 0.04519 0.16738 0.39477 0.0
H399 H 0.02864 0.15049 0.4285 0.0
H400 H 0.01627 0.13899 0.39045 0.0
H401 H 0.0536 0.02071 0.37858 0.0
H402 H 0.03177 1.0068 0.42922 0.0
H403 H 0.03975 0.09986 0.46208 0.0
C404 C 0.08982 0.13047 0.34925 0.0
C405 C 0.09866 0.11792 0.31983 0.0
C406 C 0.09319 0.08687 0.31362 0.0
C407 C 0.07988 0.06859 0.33612 0.0
C408 C 0.0719 0.08155 0.3649 0.0
C409 C 0.07646 0.11185 0.37148 0.0
C410 C 0.06602 0.12006 0.40437 0.0
C411 C 0.09533 0.12913 0.42372 0.0
C412 C 0.03732 0.14575 0.40452 0.0
C413 C 0.055 0.08964 0.41525 0.0
C414 C 0.05865 0.06772 0.39213 0.0
C415 C 0.05052 0.03776 0.3968 0.0
C416 C 0.03817 0.03004 0.42573 0.0
C417 C 0.03392 0.05215 0.44979 0.0
C418 C 0.04258 0.08235 0.44427 0.0
H419 H 0.43485 0.96143 0.78732 0.0
H420 H 0.37688 0.8896 0.81913 0.0
H421 H 0.38551 0.90547 0.87303 0.0
H422 H 0.49513 0.95367 0.84915 0.0
H423 H 0.49902 0.99438 0.852 0.0
H424 H 0.48774 0.97801 0.81564 0.0
H425 H 0.43534 0.01666 0.81309 0.0
H426 H 0.44638 0.03305 0.84954 0.0
H427 H 0.40676 0.01864 0.84476 0.0
H428 H 0.40161 0.92754 0.92353 0.0
H429 H 0.42418 0.95436 0.96772 0.0
H430 H 0.47176 0.01303 0.90473 0.0
C431 C 0.42407 0.94892 0.80561 0.0
C432 C 0.40493 0.92425 0.79869 0.0
C433 C 0.39112 0.90882 0.82351 0.0
C434 C 0.39604 0.9176 0.85433 0.0
C435 C 0.41481 0.94198 0.86026 0.0
C436 C 0.42865 0.95749 0.83667 0.0
C437 C 0.44808 0.98274 0.84966 0.0
C438 C 0.48466 0.97684 0.8411 0.0
C439 C 0.43325 0.01467 0.8386 0.0
C440 C 0.44317 0.97882 0.88424 0.0
C441 C 0.42387 0.9551 0.88967 0.0
C442 C 0.41659 0.94625 0.91954 0.0
C443 C 0.4296 0.96168 0.94455 0.0
C444 C 0.44965 0.986 0.93987 0.0
C445 C 0.45617 0.99488 0.90915 0.0
H446 H 0.60339 0.39041 0.75921 0.0
H447 H 0.61597 0.47392 0.81098 0.0
H448 H 0.57404 0.50257 0.77806 0.0
H449 H 0.60301 0.42497 0.68811 0.0
H450 H 0.57368 0.40195 0.6704 0.0
H451 H 0.59874 0.3867 0.70221 0.0
H452 H 0.54606 0.37658 0.73213 0.0
H453 H 0.52079 0.39222 0.70037 0.0
H454 H 0.51456 0.40787 0.73871 0.0
H455 H 0.5368 0.52364 0.73592 0.0
H456 H 0.5121 0.53663 0.68477 0.0
H457 H 0.52749 0.44041 0.65806 0.0
C458 C 0.59724 0.41467 0.76389 0.0
C459 C 0.61297 0.42976 0.78792 0.0
C460 C 0.60384 0.46154 0.79323 0.0
C461 C 0.57998 0.47807 0.77464 0.0
C462 C 0.56549 0.46255 0.75079 0.0
C463 C 0.57395 0.43159 0.74524 0.0
C464 C 0.55854 0.42132 0.71554 0.0
C465 C 0.58507 0.40798 0.69273 0.0
C466 C 0.53349 0.39812 0.72209 0.0
C467 C 0.54151 0.45173 0.70438 0.0
C468 C 0.54489 0.47501 0.72556 0.0
C469 C 0.53363 0.50557 0.71932 0.0
C470 C 0.51983 0.51274 0.69016 0.0
C471 C 0.51806 0.48951 0.66745 0.0
C472 C 0.52787 0.45852 0.67516 0.0
H473 H 0.89281 0.63988 0.29923 0.0
H474 H 0.92584 0.55919 0.35403 0.0
H475 H 0.95387 0.53518 0.30831 0.0
H476 H 0.87649 0.59948 0.22924 0.0
H477 H 0.89079 0.62835 0.20433 0.0
H478 H 0.87369 0.63918 0.24148 0.0
H479 H 0.92699 0.66375 0.25605 0.0
H480 H 0.94435 0.65283 0.21901 0.0
H481 H 0.96619 0.64078 0.25403 0.0
H482 H 0.97718 0.51971 0.25673 0.0
H483 H 0.99452 0.51359 0.20233 0.0
H484 H 0.94642 0.6045 0.18121 0.0
C485 C 0.90573 0.61705 0.30152 0.0
C486 C 0.90719 0.60132 0.33008 0.0
C487 C 0.92472 0.5717 0.33237 0.0
C488 C 0.94059 0.55787 0.30656 0.0
C489 C 0.93877 0.57408 0.27877 0.0
C490 C 0.92182 0.603 0.27607 0.0
C491 C 0.92361 0.61546 0.24355 0.0
C492 C 0.88909 0.62093 0.22878 0.0
C493 C 0.94135 0.64495 0.24316 0.0
C494 C 0.94405 0.5889 0.22831 0.0
C495 C 0.95253 0.56528 0.24905 0.0
C496 C 0.97076 0.53804 0.24028 0.0
C497 C 0.98036 0.53475 0.20937 0.0
C498 C 0.97173 0.55858 0.18769 0.0
C499 C 0.95363 0.58609 0.19741 0.0
H500 H 0.29602 0.09405 0.17218 0.0
H501 H 0.24745 0.1538 0.10185 0.0
H502 H 0.28779 0.1325 0.06348 0.0
H503 H 0.37808 0.10072 0.14782 0.0
H504 H 0.39297 0.06116 0.15566 0.0
H505 H 0.3591 0.0796 0.17742 0.0
H506 H 0.32326 0.03631 0.16159 0.0
H507 H 0.35705 0.01775 0.1397 0.0
H508 H 0.3177 0.02782 0.12119 0.0
H509 H 0.33552 0.10826 0.03367 0.0
H510 H 0.38696 0.08124 0.01369 0.0
H511 H 0.40483 0.0353 0.10202 0.0
C512 C 0.29377 0.10253 0.14867 0.0
C513 C 0.26823 0.12552 0.14008 0.0
C514 C 0.26625 0.13586 0.10899 0.0
C515 C 0.28922 0.124 0.087 0.0
C516 C 0.31406 0.10156 0.09624 0.0
C517 C 0.31644 0.09072 0.12625 0.0
C518 C 0.34616 0.06699 0.13011 0.0
C519 C 0.37051 0.07777 0.15418 0.0
C520 C 0.33539 0.03534 0.13866 0.0
C521 C 0.36043 0.06668 0.09774 0.0
C522 C 0.3414 0.08684 0.07865 0.0
C523 C 0.35035 0.0921 0.04826 0.0
C524 C 0.37966 0.07665 0.03713 0.0
C525 C 0.3997 0.05588 0.05613 0.0
C526 C 0.38965 0.05052 0.08675 0.0
H527 H 0.22513 0.91792 0.60263 0.0
H528 H 0.24997 0.99341 0.66103 0.0
H529 H 0.19679 0.02241 0.64798 0.0
H530 H 0.18388 0.96379 0.54309 0.0
H531 H 0.15213 0.93855 0.53661 0.0
H532 H 0.192 0.92312 0.55086 0.0
H533 H 0.16473 0.89971 0.598 0.0
H534 H 0.12476 0.91491 0.58376 0.0
H535 H 0.13771 0.9243 0.62229 0.0
H536 H 0.14174 0.04437 0.62721 0.0
H537 H 0.08741 0.05653 0.60213 0.0
H538 H 0.09677 0.96641 0.55849 0.0
C539 C 0.21924 0.94036 0.61301 0.0
C540 C 0.24215 0.95341 0.63264 0.0
C541 C 0.23335 0.98305 0.64543 0.0
C542 C 0.20303 0.9997 0.63831 0.0
C543 C 0.18136 0.98644 0.6185 0.0
C544 C 0.18888 0.95735 0.60622 0.0
C545 C 0.16111 0.94857 0.58541 0.0
C546 C 0.173 0.9432 0.55201 0.0
C547 C 0.14619 0.92019 0.59813 0.0
C548 C 0.137 0.97735 0.58781 0.0
C549 C 0.14924 0.99893 0.60696 0.0
C550 C 0.13181 0.02757 0.61231 0.0
C551 C 0.10096 0.03431 0.59787 0.0
C552 C 0.08765 0.01247 0.57837 0.0
C553 C 0.10609 0.98361 0.57336 0.0
H554 H 0.83883 0.42493 0.90918 0.0
H555 H 0.77573 0.42418 0.98932 0.0
H556 H 0.81671 0.44948 0.02029 0.0
H557 H 0.9144 0.4074 0.94925 0.0
H558 H 0.937 0.43188 0.92565 0.0
H559 H 0.90202 0.41514 0.90967 0.0
H560 H 0.875 0.4695 0.89469 0.0
H561 H 0.90999 0.48641 0.91052 0.0
H562 H 0.86914 0.49895 0.92396 0.0
H563 H 0.86507 0.47436 0.04232 0.0
H564 H 0.9178 0.49537 0.05427 0.0
H565 H 0.94895 0.47857 0.95947 0.0
C566 C 0.83342 0.43052 0.93313 0.0
C567 C 0.80411 0.42289 0.94689 0.0
C568 C 0.79817 0.42983 0.97846 0.0
C569 C 0.82118 0.44428 0.99613 0.0
C570 C 0.84993 0.45141 0.98182 0.0
C571 C 0.85612 0.44469 0.95106 0.0
C572 C 0.88934 0.45367 0.9414 0.0
C573 C 0.91202 0.42533 0.93088 0.0
C574 C 0.88563 0.47862 0.91615 0.0
C575 C 0.90103 0.46635 0.9716 0.0
C576 C 0.87791 0.46509 0.9946 0.0
C577 C 0.88335 0.47549 0.02449 0.0
C578 C 0.91333 0.48739 0.03103 0.0
C579 C 0.93745 0.48851 1.0078 0.0
C580 C 0.93105 0.4779 0.97775 0.0
H581 H 0.73594 0.59671 0.53612 0.0
H582 H 0.76923 0.55035 0.45154 0.0
H583 H 0.71905 0.52374 0.44988 0.0
H584 H 0.68918 0.5311 0.56702 0.0
H585 H 0.65725 0.55842 0.58216 0.0
H586 H 0.69921 0.56796 0.58111 0.0
H587 H 0.67992 0.61743 0.55026 0.0
H588 H 0.63814 0.60782 0.55056 0.0
H589 H 0.65779 0.61429 0.5143 0.0
H590 H 0.661 0.51334 0.44932 0.0
H591 H 0.60084 0.51288 0.45499 0.0
H592 H 0.60464 0.56306 0.54126 0.0
C593 C 0.73319 0.58001 0.51798 0.0
C594 C 0.75659 0.57548 0.4941 0.0
C595 C 0.75204 0.55375 0.47046 0.0
C596 C 0.72345 0.53863 0.46919 0.0
C597 C 0.69993 0.54502 0.49201 0.0
C598 C 0.7048 0.56452 0.5165 0.0
C599 C 0.67415 0.5699 0.53611 0.0
C600 C 0.68032 0.55601 0.56853 0.0
C601 C 0.66179 0.6044 0.53788 0.0
C602 C 0.65071 0.55211 0.5176 0.0
C603 C 0.66621 0.53777 0.49236 0.0
C604 C 0.6488 0.52348 0.46955 0.0
C605 C 0.61471 0.52362 0.47274 0.0
C606 C 0.59861 0.53761 0.49869 0.0
C607 C 0.6168 0.55161 0.52162 0.0
H608 H 0.10583 0.33797 0.1839 0.0
H609 H 0.11106 0.26997 0.11037 0.0
H610 H 0.09353 0.31086 0.07254 0.0
H611 H 0.03282 0.38422 0.15384 0.0
H612 H 0.04694 0.42033 0.16564 0.0
H613 H 0.05955 0.3857 0.18711 0.0
H614 H 0.12069 0.39471 0.17934 0.0
H615 H 0.10828 0.42927 0.15773 0.0
H616 H 0.13586 0.39915 0.14074 0.0
H617 H 0.07885 0.35939 0.04211 0.0
H618 H 0.06303 0.41155 0.02163 0.0
H619 H 0.06407 0.44864 0.11477 0.0
C620 C 0.10314 0.3317 0.15984 0.0
C621 C 0.10979 0.30064 0.15014 0.0
C622 C 0.10576 0.29343 0.11846 0.0
C623 C 0.09601 0.31657 0.09675 0.0
C624 C 0.08994 0.34691 0.10701 0.0
C625 C 0.0929 0.35453 0.13785 0.0
C626 C 0.08438 0.38896 0.1427 0.0
C627 C 0.05412 0.39516 0.16356 0.0
C628 C 0.11408 0.4039 0.15591 0.0
C629 C 0.07658 0.39952 0.10972 0.0
C630 C 0.08024 0.37486 0.08952 0.0
C631 C 0.07561 0.37881 0.05776 0.0
C632 C 0.06675 0.40863 0.04632 0.0
C633 C 0.06215 0.4343 0.06652 0.0
C634 C 0.06712 0.42952 0.09871 0.0
H635 H 0.59244 0.26719 0.88784 0.0
H636 H 0.61421 0.30619 0.97723 0.0
H637 H 0.57185 0.27777 1.00101 0.0
H638 H 0.5022 0.25915 0.90112 0.0
H639 H 0.50518 0.22263 0.88129 0.0
H640 H 0.53062 0.25202 0.86964 0.0
H641 H 0.58291 0.2137 0.87715 0.0
H642 H 0.55768 0.18432 0.8885 0.0
H643 H 0.59012 0.19459 0.91388 0.0
H644 H 0.53636 0.23844 0.0169 0.0
H645 H 0.51343 0.18873 0.02411 0.0
H646 H 0.51552 0.1733 0.92526 0.0
C647 C 0.58797 0.27017 0.91235 0.0
C648 C 0.60664 0.28906 0.9306 0.0
C649 C 0.59985 0.29239 0.96257 0.0
C650 C 0.57574 0.27634 0.97631 0.0
C651 C 0.55851 0.25717 0.95779 0.0
C652 C 0.56431 0.25402 0.92646 0.0
C653 C 0.54646 0.22839 0.91265 0.0
C654 C 0.51951 0.24133 0.88983 0.0
C655 C 0.57074 0.20381 0.89717 0.0
C656 C 0.53159 0.21618 0.94151 0.0
C657 C 0.53792 0.23381 0.96713 0.0
C658 C 0.53039 0.22497 0.99697 0.0
C659 C 0.51741 0.19678 1.00088 0.0
C660 C 0.51229 0.17783 0.97512 0.0
C661 C 0.51822 0.18811 0.94505 0.0
H662 H 0.97635 0.73703 0.45996 0.0
H663 H 0.93714 0.7202 0.55039 0.0
H664 H 0.96886 0.76007 0.57261 0.0
H665 H 0.05869 0.76818 0.48826 0.0
H666 H 0.05455 0.79643 0.45773 0.0
H667 H 0.04125 0.75869 0.45146 0.0
H668 H 0.98359 0.78396 0.43522 0.0
H669 H 0.99633 0.82148 0.44185 0.0
H670 H 0.96081 0.80994 0.4616 0.0
H671 H 0.98733 0.81074 0.58134 0.0
H672 H 0.99256 0.86629 0.57617 0.0
H673 H 0.01858 0.85324 0.47995 0.0
C674 C 0.97575 0.74087 0.48469 0.0
C675 C 0.95425 0.72577 0.50346 0.0
C676 C 0.95378 0.73125 0.53566 0.0
C677 C 0.97176 0.75393 0.54847 0.0
C678 C 0.9903 0.77062 0.52879 0.0
C679 C 0.993 0.76391 0.49756 0.0
C680 C 0.00817 0.78904 0.48017 0.0
C681 C 0.04273 0.77739 0.46874 0.0
C682 C 0.98587 0.80185 0.45318 0.0
C683 C 0.01005 0.81249 0.50574 0.0
C684 C 1.00099 0.80089 0.53388 0.0
C685 C 0.99561 0.81972 0.55977 0.0
C686 C 0.99834 0.85126 0.55659 0.0
C687 C 0.00617 0.86365 0.5277 0.0
C688 C 0.01347 0.84392 0.50239 0.0
H689 H 0.38886 0.75488 0.57802 0.0
H690 H 0.46921 0.75962 0.6439 0.0
H691 H 0.49693 0.71178 0.62253 0.0
H692 H 0.38829 0.67249 0.5791 0.0
H693 H 0.37991 0.6691 0.53831 0.0
H694 H 0.36598 0.70404 0.55855 0.0
H695 H 0.39684 0.73551 0.51957 0.0
H696 H 0.41104 0.70061 0.49932 0.0
H697 H 0.44029 0.72567 0.51362 0.0
H698 H 0.51564 0.6628 0.59581 0.0
H699 H 0.5238 0.61479 0.56551 0.0
H700 H 0.43366 0.6412 0.5142 0.0
C701 C 0.41239 0.74602 0.58785 0.0
C702 C 0.42646 0.76121 0.61312 0.0
C703 C 0.45725 0.74837 0.62523 0.0
C704 C 0.47349 0.72125 0.61296 0.0
C705 C 0.459 0.70699 0.58825 0.0
C706 C 0.42916 0.71882 0.57573 0.0
C707 C 0.41898 0.69838 0.54941 0.0
C708 C 0.38636 0.68522 0.55679 0.0
C709 C 0.41665 0.71611 0.51865 0.0
C710 C 0.44765 0.67315 0.54934 0.0
C711 C 0.4704 0.67879 0.57202 0.0
C712 C 0.4982 0.65833 0.57776 0.0
C713 C 0.50268 0.63113 0.56037 0.0
C714 C 0.47977 0.62451 0.53712 0.0
C715 C 0.45206 0.64607 0.53122 0.0
H716 H 0.91981 0.90406 0.7315 0.0
H717 H 0.90203 0.98577 0.7886 0.0
H718 H 0.91319 0.01831 0.74416 0.0
H719 H 0.98685 0.92982 0.68901 0.0
H720 H 0.97566 0.91334 0.65265 0.0
H721 H 0.96456 0.89617 0.68843 0.0
H722 H 0.90335 0.90145 0.67116 0.0
H723 H 0.91434 0.91861 0.6353 0.0
H724 H 0.88378 0.93868 0.65984 0.0
H725 H 0.92811 0.04236 0.69432 0.0
H726 H 0.9463 0.05613 0.64233 0.0
H727 H 0.95507 0.95949 0.61635 0.0
C728 C 0.91789 0.92881 0.73448 0.0
C729 C 0.91017 0.94228 0.76375 0.0
C730 C 0.90827 0.97481 0.76666 0.0
C731 C 0.91441 0.99356 0.74145 0.0
C732 C 0.92248 0.97965 0.71316 0.0
C733 C 0.92423 0.94804 0.70941 0.0
C734 C 0.93459 0.93913 0.6766 0.0
C735 C 0.96736 0.91839 0.67669 0.0
C736 C 0.90739 0.92354 0.65973 0.0
C737 C 0.93861 0.97061 0.66273 0.0
C738 C 0.9313 0.99363 0.68424 0.0
C739 C 0.93375 0.02452 0.67722 0.0
C740 C 0.94414 0.03214 0.64755 0.0
C741 C 0.9521 1.00903 0.62502 0.0
C742 C 0.94903 0.97782 0.63286 0.0
H743 H 0.5886 0.15664 0.20077 0.0
H744 H 0.6038 0.07927 0.26406 0.0
H745 H 0.58221 0.04551 0.2247 0.0
H746 H 0.51209 0.13498 0.16608 0.0
H747 H 0.52194 0.14731 0.1278 0.0
H748 H 0.53779 0.16589 0.1612 0.0
H749 H 0.59711 0.15371 0.14077 0.0
H750 H 0.58145 0.13495 0.10742 0.0
H751 H 0.61212 0.11442 0.13195 0.0
H752 H 0.56038 0.01956 0.17852 0.0
H753 H 0.53847 1.0031 0.12868 0.0
H754 H 0.53657 0.0967 0.09405 0.0
C755 C 0.58697 0.13269 0.20647 0.0
C756 C 0.59811 0.12066 0.23564 0.0
C757 C 0.5959 0.08903 0.24189 0.0
C758 C 0.58351 0.06965 0.21968 0.0
C759 C 0.57328 0.08206 0.19112 0.0
C760 C 0.5747 0.11285 0.1844 0.0
C761 C 0.56251 0.12001 0.15156 0.0
C762 C 0.53175 0.14344 0.15168 0.0
C763 C 0.58994 0.13144 0.13176 0.0
C764 C 0.55414 0.08842 0.14093 0.0
C765 C 0.56057 0.06695 0.16423 0.0
C766 C 0.55516 0.03619 0.16014 0.0
C767 C 0.54271 0.02705 0.13161 0.0
C768 C 0.53569 0.0485 0.10723 0.0
C769 C 0.54163 0.07967 0.11211 0.0
H770 H 0.43803 0.54758 0.19375 0.0
H771 H 0.53998 0.51944 0.17041 0.0
H772 H 0.55568 0.52432 0.22539 0.0
H773 H 0.45246 0.60248 0.25014 0.0
H774 H 0.42005 0.59299 0.27538 0.0
H775 H 0.41668 0.58674 0.23437 0.0
H776 H 0.409 0.52919 0.24364 0.0
H777 H 0.41167 0.53538 0.28472 0.0
H778 H 0.43902 0.50584 0.26654 0.0
H779 H 0.56029 0.5349 0.28292 0.0
H780 H 0.55246 0.54426 0.33902 0.0
H781 H 0.44719 0.56273 0.3239 0.0
C782 C 0.46358 0.54155 0.20008 0.0
C783 C 0.48773 0.53303 0.17756 0.0
C784 C 0.52102 0.52633 0.18709 0.0
C785 C 0.53019 0.52899 0.21828 0.0
C786 C 0.50574 0.53811 0.23965 0.0
C787 C 0.47306 0.54376 0.23097 0.0
C788 C 0.45137 0.55294 0.25829 0.0
C789 C 0.43413 0.58573 0.25429 0.0
C790 C 0.4263 0.52943 0.26361 0.0
C791 C 0.47696 0.55169 0.2838 0.0
C792 C 0.50825 0.54343 0.27261 0.0
C793 C 0.53589 0.54122 0.29194 0.0
C794 C 0.53127 0.54684 0.32364 0.0
C795 C 0.49925 0.55425 0.33558 0.0
C796 C 0.4719 0.55704 0.31529 0.0
H797 H 0.07198 0.42196 0.73358 0.0
H798 H 0.15411 0.4739 0.71222 0.0
H799 H 0.15515 0.49241 0.76625 0.0
H800 H 0.03107 0.47966 0.78468 0.0
H801 H 0.01694 0.45153 0.81058 0.0
H802 H 0.02295 0.44233 0.77029 0.0
H803 H 0.06221 0.3942 0.78556 0.0
H804 H 0.05661 0.40347 0.82589 0.0
H805 H 0.09747 0.39871 0.80993 0.0
H806 H 0.14929 0.50269 0.82276 0.0
H807 H 0.13299 0.50931 0.8772 0.0
H808 H 0.05165 0.45401 0.86082 0.0
C809 C 0.09 0.43736 0.74039 0.0
C810 C 0.11296 0.44664 0.71903 0.0
C811 C 0.13618 0.46687 0.7284 0.0
C812 C 0.13708 0.47728 0.75898 0.0
C813 C 0.11434 0.46747 0.77965 0.0
C814 C 0.09088 0.4484 0.7707 0.0
C815 C 0.06865 0.44212 0.7973 0.0
C816 C 0.03278 0.45467 0.79029 0.0
C817 C 0.07142 0.40757 0.80512 0.0
C818 C 0.08352 0.46042 0.82264 0.0
C819 C 0.11004 0.47456 0.81202 0.0
C820 C 0.12824 0.49213 0.83128 0.0
C821 C 0.11863 0.49589 0.86214 0.0
C822 C 0.09072 0.48256 0.87334 0.0
C823 C 0.07325 0.46431 0.85323 0.0
H824 H 0.71469 0.89 0.93865 0.0
H825 H 0.74998 0.97421 0.90431 0.0
H826 H 0.70047 1.00408 0.92414 0.0
H827 H 0.62802 0.91148 0.92195 0.0
H828 H 0.61358 0.89438 0.95655 0.0
H829 H 0.65177 0.87883 0.93938 0.0
H830 H 0.68219 0.88578 0.9913 0.0
H831 H 0.64411 0.90145 1.0086 0.0
H832 H 0.67938 0.92322 1.00933 0.0
H833 H 0.64852 0.02547 0.94757 0.0
H834 H 0.59523 0.03765 0.97263 0.0
H835 H 0.59112 0.94064 0.99348 0.0
C836 C 0.71198 0.91472 0.93533 0.0
C837 C 0.73626 0.92957 0.91935 0.0
C838 C 0.73158 0.96202 0.91561 0.0
C839 C 0.7036 0.97933 0.9271 0.0
C840 C 0.68024 0.96408 0.94252 0.0
C841 C 0.6839 0.93255 0.94669 0.0
C842 C 0.65461 0.92229 0.96421 0.0
C843 C 0.63589 0.90045 0.94433 0.0
C844 C 0.66575 0.9073 0.9952 0.0
C845 C 0.63412 0.95304 0.96916 0.0
C846 C 0.64965 0.97669 0.95641 0.0
C847 C 0.63605 1.00717 0.95762 0.0
C848 C 0.60561 0.01381 0.97198 0.0
C849 C 0.58867 0.99017 0.98511 0.0
C850 C 0.60337 0.95928 0.9838 0.0
H851 H 0.78999 0.15898 0.43017 0.0
H852 H 0.74437 0.07949 0.39663 0.0
H853 H 0.78664 0.04509 0.42427 0.0
H854 H 0.87316 0.12636 0.42269 0.0
H855 H 0.88747 0.14415 0.45724 0.0
H856 H 0.85271 0.16245 0.43605 0.0
H857 H 0.81733 0.16336 0.48557 0.0
H858 H 0.85203 0.14505 0.5069 0.0
H859 H 0.81362 0.12793 0.50608 0.0
H860 H 0.83643 0.019 0.45346 0.0
H861 H 0.88791 1.00401 0.48286 0.0
H862 H 0.90029 0.1006 0.4977 0.0
C863 C 0.7888 0.13435 0.42863 0.0
C864 C 0.76361 0.12206 0.41118 0.0
C865 C 0.76298 0.08961 0.41015 0.0
C866 C 0.78707 0.06982 0.42565 0.0
C867 C 0.81167 0.08271 0.44235 0.0
C868 C 0.81255 0.11427 0.44408 0.0
C869 C 0.84186 0.12231 0.46318 0.0
C870 C 0.86517 0.13985 0.44362 0.0
C871 C 0.83052 0.14075 0.49215 0.0
C872 C 0.85756 0.09039 0.47164 0.0
C873 C 0.83984 0.0678 0.45941 0.0
C874 C 0.8503 0.03655 0.46335 0.0
C875 C 0.87961 0.02822 0.48008 0.0
C876 C 0.89814 0.05103 0.49286 0.0
C877 C 0.88662 0.0825 0.4886 0.0
H878 H 0.27821 0.55552 0.01509 0.0
H879 H 0.28565 0.58508 0.11059 0.0
H880 H 0.22569 0.58428 0.1163 0.0
H881 H 0.20005 0.59809 0.99757 0.0
H882 H 0.18567 0.56794 0.97405 0.0
H883 H 0.22912 0.57183 0.97705 0.0
H884 H 0.23994 0.51515 0.99548 0.0
H885 H 0.19658 0.51104 0.99229 0.0
H886 H 0.21798 0.50261 0.02839 0.0
H887 H 0.16496 0.57957 0.1119 0.0
H888 H 0.10831 0.56872 0.09831 0.0
H889 H 0.14101 0.54116 1.00616 0.0
C890 C 0.26729 0.56163 0.03727 0.0
C891 C 0.28664 0.57062 0.0623 0.0
C892 C 0.27128 0.57869 0.09087 0.0
C893 C 0.23724 0.57819 0.09441 0.0
C894 C 0.21889 0.56948 0.06919 0.0
C895 C 0.23337 0.56118 0.04124 0.0
C896 C 0.2082 0.55193 0.01803 0.0
C897 C 0.20562 0.57376 0.99002 0.0
C898 C 0.21615 0.51818 1.00797 0.0
C899 C 0.17739 0.55607 0.03741 0.0
C900 C 0.18399 0.56643 0.06678 0.0
C901 C 0.15944 0.57151 0.08894 0.0
C902 C 0.12734 0.56535 0.08099 0.0
C903 C 0.12022 0.5541 0.0512 0.0
C904 C 0.1456 0.5498 0.02912 0.0
H905 H 0.27765 0.44927 0.57071 0.0
H906 H 0.21878 0.48786 0.49345 0.0
H907 H 0.26751 0.51114 0.47358 0.0
H908 H 0.32243 0.51438 0.58372 0.0
H909 H 0.35996 0.49121 0.59411 0.0
H910 H 0.32075 0.47706 0.60116 0.0
H911 H 0.33866 0.42783 0.56937 0.0
H912 H 0.37795 0.44179 0.5623 0.0
H913 H 0.35268 0.43155 0.53026 0.0
H914 H 0.32367 0.53019 0.46283 0.0
H915 H 0.38149 0.54288 0.46202 0.0
H916 H 0.40069 0.49315 0.54823 0.0
C917 C 0.27472 0.46295 0.5498 0.0
C918 C 0.24432 0.46711 0.53382 0.0
C919 C 0.24191 0.48435 0.50601 0.0
C920 C 0.26937 0.49775 0.49468 0.0
C921 C 0.29884 0.49359 0.51149 0.0
C922 C 0.30153 0.47655 0.53845 0.0
C923 C 0.33558 0.47543 0.55253 0.0
C924 C 0.3346 0.49042 0.58478 0.0
C925 C 0.35219 0.44218 0.55366 0.0
C926 C 0.35183 0.4946 0.52934 0.0
C927 C 0.33046 0.50482 0.50571 0.0
C928 C 0.34053 0.52241 0.48131 0.0
C929 C 0.37335 0.52951 0.48106 0.0
C930 C 0.39547 0.51917 0.50518 0.0
C931 C 0.38433 0.50169 0.52962 0.0
H932 H 0.93056 0.75582 0.96941 0.0
H933 H 0.91908 0.72779 0.8739 0.0
H934 H 0.94007 0.67457 0.8878 0.0
H935 H 0.00581 0.70794 0.98517 0.0
H936 H 0.995 0.69852 0.0241 0.0
H937 H 0.97839 0.73451 1.0071 0.0
H938 H 0.91925 0.72115 0.01824 0.0
H939 H 0.93568 0.68512 0.03532 0.0
H940 H 0.9062 0.68541 1.00402 0.0
H941 H 0.96471 0.62531 0.91088 0.0
H942 H 0.98875 0.58167 0.9421 0.0
H943 H 0.98335 0.63946 0.02412 0.0
C944 C 0.93247 0.73847 0.95142 0.0
C945 C 0.92301 0.74615 0.92044 0.0
C946 C 0.92567 0.72259 0.89776 0.0
C947 C 0.93778 0.69227 0.90543 0.0
C948 C 0.94699 0.68557 0.936 0.0
C949 C 0.94427 0.70785 0.95876 0.0
C950 C 0.95587 0.69419 0.98988 0.0
C951 C 0.98553 0.70972 1.00229 0.0
C952 C 0.92756 0.69661 0.01325 0.0
C953 C 0.96583 0.6608 0.98095 0.0
C954 C 0.96058 0.65659 0.94966 0.0
C955 C 0.96871 0.62829 0.93542 0.0
C956 C 0.98253 0.60359 0.95347 0.0
C957 C 0.98801 0.60691 0.98571 0.0
C958 C 0.97928 0.63602 0.99965 0.0
H959 H 0.49253 0.71516 0.04415 0.0
H960 H 0.414 0.71158 0.11067 0.0
H961 H 0.41494 0.76711 0.12106 0.0
H962 H 0.53721 0.77069 0.08625 0.0
H963 H 0.54821 0.79014 0.05167 0.0
H964 H 0.54252 0.74971 0.0504 0.0
H965 H 0.49913 0.75997 1.00652 0.0
H966 H 0.50486 0.80034 1.00752 0.0
H967 H 0.46429 0.78815 0.01233 0.0
H968 H 0.42155 0.82325 0.12161 0.0
H969 H 0.43398 0.87685 0.11239 0.0
H970 H 0.50928 0.84391 0.04688 0.0
C971 C 0.47562 0.72612 0.06093 0.0
C972 C 0.45333 0.70915 0.07676 0.0
C973 C 0.43159 0.72415 0.09863 0.0
C974 C 0.43189 0.75564 0.10465 0.0
C975 C 0.45424 0.77172 0.08875 0.0
C976 C 0.47578 0.75752 0.06742 0.0
C977 C 0.49667 0.78033 0.05292 0.0
C978 C 0.53332 0.77223 0.06079 0.0
C979 C 0.49087 0.78231 0.01774 0.0
C980 C 0.48301 0.80964 0.069 0.0
C981 C 0.45861 0.80413 0.08964 0.0
C982 C 0.44092 0.82785 0.10586 0.0
C983 C 0.44807 0.85811 0.10049 0.0
C984 C 0.47281 0.86421 0.0793 0.0
C985 C 0.4908 0.83964 0.06374 0.0
H986 H 0.03625 0.32075 0.50083 0.0
H987 H 1.00104 0.3571 0.5892 0.0
H988 H 0.96689 0.31438 0.59442 0.0
H989 H 0.95969 0.27797 0.47929 0.0
H990 H 0.98662 0.2465 0.4638 0.0
H991 H 0.99738 0.28547 0.46058 0.0
H992 H 0.05345 0.26877 0.48709 0.0
H993 H 0.04273 0.23016 0.4911 0.0
H994 H 0.05412 0.25114 0.52482 0.0
H995 H 0.95102 0.26153 0.59847 0.0
H996 H 0.95242 0.20479 0.59902 0.0
H997 H 0.99977 0.20059 0.50957 0.0
C998 C 0.02021 0.32041 0.52061 0.0
C999 C 0.02154 0.34226 0.54458 0.0
C1000 C 1.0002 0.34106 0.57015 0.0
C1001 C 0.98071 0.31664 0.57344 0.0
C1002 C 0.98256 0.29374 0.55088 0.0
C1003 C 1.00126 0.29574 0.52453 0.0
C1004 C 1.00443 0.2656 0.50687 0.0
C1005 C 0.98591 0.2691 0.47579 0.0
C1006 C 0.04082 0.25322 0.50225 0.0
C1007 C 0.98735 0.24564 0.52888 0.0
C1008 C 0.97384 0.26248 0.55356 0.0
C1009 C 0.96051 0.24826 0.57877 0.0
C1010 C 0.96153 0.21603 0.57898 0.0
C1011 C 0.97631 0.19843 0.55439 0.0
C1012 C 0.98839 0.21357 0.52869 0.0
H1013 H 0.58704 0.33994 0.36748 0.0
H1014 H 0.58224 0.2743 0.44226 0.0
H1015 H 0.55537 0.31554 0.47516 0.0
H1016 H 0.60646 0.40306 0.41446 0.0
H1017 H 0.58198 0.43191 0.39213 0.0
H1018 H 0.59925 0.39694 0.37383 0.0
H1019 H 0.5411 0.3861 0.35501 0.0
H1020 H 0.52365 0.42106 0.37329 0.0
H1021 H 0.50853 0.38482 0.38274 0.0
H1022 H 0.53215 0.36477 0.50131 0.0
H1023 H 0.51284 0.41764 0.51797 0.0
H1024 H 0.53173 0.45161 0.42621 0.0
C1025 C 0.58031 0.33416 0.39075 0.0
C1026 C 0.58677 0.3036 0.4021 0.0
C1027 C 0.57719 0.29722 0.4327 0.0
C1028 C 0.56205 0.32062 0.45169 0.0
C1029 C 0.55637 0.35043 0.43986 0.0
C1030 C 0.56502 0.35724 0.41002 0.0
C1031 C 0.55672 0.39133 0.40316 0.0
C1032 C 0.58796 0.40671 0.39545 0.0
C1033 C 0.53096 0.3961 0.377 0.0
C1034 C 0.54241 0.40269 0.4339 0.0
C1035 C 0.54247 0.3787 0.45476 0.0
C1036 C 0.53171 0.38365 0.48505 0.0
C1037 C 0.5208 0.41383 0.49433 0.0
C1038 C 0.52045 0.43886 0.47341 0.0
C1039 C 0.53119 0.43299 0.44268 0.0
loop_
_geom_bond_atom_site_label_1
_geom_bond_atom_site_label_2
_geom_bond_distance
_geom_bond_site_symmetry_2
_ccdc_geom_bond_type
P0 O11 1.490 . S
P0 C14 1.812 . S
P0 C20 1.803 . S
P0 C26 1.819 . S
H1 C15 0.941 . S
H2 C16 0.939 . S
H3 C18 0.940 . S
H4 C19 0.940 . S
H5 C21 0.939 . S
H6 C22 0.942 . S
H7 C24 0.940 . S
H8 C25 0.939 . S
H9 C27 0.941 . S
H10 C31 0.939 . S
O11 P0 1.490 . S
H12 C28 0.939 . S
H13 C30 0.940 . S
C14 P0 1.812 . S
C14 C15 1.389 . S
C14 C19 1.391 . S
C15 H1 0.941 . S
C15 C14 1.389 . S
C15 C16 1.397 . S
C16 H2 0.939 . S
C16 C15 1.397 . S
C16 C17 1.378 . S
C17 C16 1.378 . S
C17 C18 1.378 . S
C18 H3 0.940 . S
C18 C17 1.378 . S
C18 C19 1.396 . S
C19 H4 0.940 . S
C19 C14 1.391 . S
C19 C18 1.396 . S
C20 P0 1.803 . S
C20 C21 1.378 . S
C20 C25 1.400 . S
C21 H5 0.939 . S
C21 C20 1.378 . S
C21 C22 1.361 . S
C22 H6 0.942 . S
C22 C21 1.361 . S
C22 C23 1.369 . S
C23 C22 1.369 . S
C23 C24 1.404 . S
C24 H7 0.940 . S
C24 C23 1.404 . S
C24 C25 1.389 . S
C25 H8 0.939 . S
C25 C20 1.400 . S
C25 C24 1.389 . S
C26 P0 1.819 . S
C26 C27 1.391 . S
C26 C31 1.391 . S
C27 H9 0.941 . S
C27 C26 1.391 . S
C27 C28 1.396 . S
C28 H12 0.939 . S
C28 C27 1.396 . S
C28 C29 1.397 . S
C29 C28 1.397 . S
C29 C30 1.385 . S
C30 H13 0.940 . S
C30 C29 1.385 . S
C30 C31 1.388 . S
C31 H10 0.939 . S
C31 C26 1.391 . S
C31 C30 1.388 . S
P32 O43 1.490 . S
P32 C46 1.812 . S
P32 C52 1.803 . S
P32 C58 1.819 . S
H33 C47 0.941 . S
H34 C48 0.939 . S
H35 C50 0.940 . S
H36 C51 0.940 . S
H37 C53 0.939 . S
H38 C54 0.942 . S
H39 C56 0.940 . S
H40 C57 0.939 . S
H41 C59 0.941 . S
H42 C63 0.939 . S
O43 P32 1.490 . S
H44 C60 0.939 . S
H45 C62 0.940 . S
C46 P32 1.812 . S
C46 C47 1.389 . S
C46 C51 1.391 . S
C47 H33 0.941 . S
C47 C46 1.389 . S
C47 C48 1.397 . S
C48 H34 0.939 . S
C48 C47 1.397 . S
C48 C49 1.378 . S
C49 C48 1.378 . S
C49 C50 1.378 . S
C50 H35 0.940 . S
C50 C49 1.378 . S
C50 C51 1.396 . S
C51 H36 0.940 . S
C51 C46 1.391 . S
C51 C50 1.396 . S
C52 P32 1.803 . S
C52 C53 1.378 . S
C52 C57 1.400 . S
C53 H37 0.939 . S
C53 C52 1.378 . S
C53 C54 1.361 . S
C54 H38 0.942 . S
C54 C53 1.361 . S
C54 C55 1.369 . S
C55 C54 1.369 . S
C55 C56 1.404 . S
C56 H39 0.940 . S
C56 C55 1.404 . S
C56 C57 1.389 . S
C57 H40 0.939 . S
C57 C52 1.400 . S
C57 C56 1.389 . S
C58 P32 1.819 . S
C58 C59 1.391 . S
C58 C63 1.391 . S
C59 H41 0.941 . S
C59 C58 1.391 . S
C59 C60 1.396 . S
C60 H44 0.939 . S
C60 C59 1.396 . S
C60 C61 1.397 . S
C61 C60 1.397 . S
C61 C62 1.385 . S
C62 H45 0.940 . S
C62 C61 1.385 . S
C62 C63 1.388 . S
C63 H42 0.939 . S
C63 C58 1.391 . S
C63 C62 1.388 . S
P64 O75 1.490 . S
P64 C78 1.812 . S
P64 C84 1.803 . S
P64 C90 1.819 . S
H65 C79 0.941 . S
H66 C80 0.939 . S
H67 C82 0.940 . S
H68 C83 0.940 . S
H69 C85 0.939 . S
H70 C86 0.942 . S
H71 C88 0.940 . S
H72 C89 0.939 . S
H73 C91 0.941 . S
H74 C95 0.939 . S
O75 P64 1.490 . S
H76 C92 0.939 . S
H77 C94 0.940 . S
C78 P64 1.812 . S
C78 C79 1.389 . S
C78 C83 1.391 . S
C79 H65 0.941 . S
C79 C78 1.389 . S
C79 C80 1.397 . S
C80 H66 0.939 . S
C80 C79 1.397 . S
C80 C81 1.378 . S
C81 C80 1.378 . S
C81 C82 1.378 . S
C82 H67 0.940 . S
C82 C81 1.378 . S
C82 C83 1.396 . S
C83 H68 0.940 . S
C83 C78 1.391 . S
C83 C82 1.396 . S
C84 P64 1.803 . S
C84 C85 1.378 . S
C84 C89 1.400 . S
C85 H69 0.939 . S
C85 C84 1.378 . S
C85 C86 1.361 . S
C86 H70 0.942 . S
C86 C85 1.361 . S
C86 C87 1.369 . S
C87 C86 1.369 . S
C87 C88 1.404 . S
C88 H71 0.940 . S
C88 C87 1.404 . S
C88 C89 1.389 . S
C89 H72 0.939 . S
C89 C84 1.400 . S
C89 C88 1.389 . S
C90 P64 1.819 . S
C90 C91 1.391 . S
C90 C95 1.391 . S
C91 H73 0.941 . S
C91 C90 1.391 . S
C91 C92 1.396 . S
C92 H76 0.939 . S
C92 C91 1.396 . S
C92 C93 1.397 . S
C93 C92 1.397 . S
C93 C94 1.385 . S
C94 H77 0.940 . S
C94 C93 1.385 . S
C94 C95 1.388 . S
C95 H74 0.939 . S
C95 C90 1.391 . S
C95 C94 1.388 . S
P96 O107 1.490 . S
P96 C110 1.812 . S
P96 C116 1.803 . S
P96 C122 1.819 . S
H97 C111 0.941 . S
H98 C112 0.939 . S
H99 C114 0.940 . S
H100 C115 0.940 . S
H101 C117 0.939 . S
H102 C118 0.942 . S
H103 C120 0.940 . S
H104 C121 0.939 . S
H105 C123 0.941 . S
H106 C127 0.939 . S
O107 P96 1.490 . S
H108 C124 0.939 . S
H109 C126 0.940 . S
C110 P96 1.812 . S
C110 C111 1.389 . S
C110 C115 1.391 . S
C111 H97 0.941 . S
C111 C110 1.389 . S
C111 C112 1.397 . S
C112 H98 0.939 . S
C112 C111 1.397 . S
C112 C113 1.378 . S
C113 C112 1.378 . S
C113 C114 1.378 . S
C114 H99 0.940 . S
C114 C113 1.378 . S
C114 C115 1.396 . S
C115 H100 0.940 . S
C115 C110 1.391 . S
C115 C114 1.396 . S
C116 P96 1.803 . S
C116 C117 1.378 . S
C116 C121 1.400 . S
C117 H101 0.939 . S
C117 C116 1.378 . S
C117 C118 1.361 . S
C118 H102 0.942 . S
C118 C117 1.361 . S
C118 C119 1.369 . S
C119 C118 1.369 . S
C119 C120 1.404 . S
C120 H103 0.940 . S
C120 C119 1.404 . S
C120 C121 1.389 . S
C121 H104 0.939 . S
C121 C116 1.400 . S
C121 C120 1.389 . S
C122 P96 1.819 . S
C122 C123 1.391 . S
C122 C127 1.391 . S
C123 H105 0.941 . S
C123 C122 1.391 . S
C123 C124 1.396 . S
C124 H108 0.939 . S
C124 C123 1.396 . S
C124 C125 1.397 . S
C125 C124 1.397 . S
C125 C126 1.385 . S
C126 H109 0.940 . S
C126 C125 1.385 . S
C126 C127 1.388 . S
C127 H106 0.939 . S
C127 C122 1.391 . S
C127 C126 1.388 . S
P128 O139 1.490 . S
P128 C142 1.812 . S
P128 C148 1.803 . S
P128 C154 1.819 . S
H129 C143 0.941 . S
H130 C144 0.939 . S
H131 C146 0.940 . S
H132 C147 0.940 . S
H133 C149 0.939 . S
H134 C150 0.942 . S
H135 C152 0.940 . S
H136 C153 0.939 . S
H137 C155 0.941 . S
H138 C159 0.939 . S
O139 P128 1.490 . S
H140 C156 0.939 . S
H141 C158 0.940 . S
C142 P128 1.812 . S
C142 C143 1.389 . S
C142 C147 1.391 . S
C143 H129 0.941 . S
C143 C142 1.389 . S
C143 C144 1.397 . S
C144 H130 0.939 . S
C144 C143 1.397 . S
C144 C145 1.378 . S
C145 C144 1.378 . S
C145 C146 1.378 . S
C146 H131 0.940 . S
C146 C145 1.378 . S
C146 C147 1.396 . S
C147 H132 0.940 . S
C147 C142 1.391 . S
C147 C146 1.396 . S
C148 P128 1.803 . S
C148 C149 1.378 . S
C148 C153 1.400 . S
C149 H133 0.939 . S
C149 C148 1.378 . S
C149 C150 1.361 . S
C150 H134 0.942 . S
C150 C149 1.361 . S
C150 C151 1.369 . S
C151 C150 1.369 . S
C151 C152 1.404 . S
C152 H135 0.940 . S
C152 C151 1.404 . S
C152 C153 1.389 . S
C153 H136 0.939 . S
C153 C148 1.400 . S
C153 C152 1.389 . S
C154 P128 1.819 . S
C154 C155 1.391 . S
C154 C159 1.391 . S
C155 H137 0.941 . S
C155 C154 1.391 . S
C155 C156 1.396 . S
C156 H140 0.939 . S
C156 C155 1.396 . S
C156 C157 1.397 . S
C157 C156 1.397 . S
C157 C158 1.385 . S
C158 H141 0.940 . S
C158 C157 1.385 . S
C158 C159 1.388 . S
C159 H138 0.939 . S
C159 C154 1.391 . S
C159 C158 1.388 . S
P160 O171 1.490 . S
P160 C174 1.812 . S
P160 C180 1.803 . S
P160 C186 1.819 . S
H161 C175 0.941 . S
H162 C176 0.939 . S
H163 C178 0.940 . S
H164 C179 0.940 . S
H165 C181 0.939 . S
H166 C182 0.942 . S
H167 C184 0.940 . S
H168 C185 0.939 . S
H169 C187 0.941 . S
H170 C191 0.939 . S
O171 P160 1.490 . S
H172 C188 0.939 . S
H173 C190 0.940 . S
C174 P160 1.812 . S
C174 C175 1.389 . S
C174 C179 1.391 . S
C175 H161 0.941 . S
C175 C174 1.389 . S
C175 C176 1.397 . S
C176 H162 0.939 . S
C176 C175 1.397 . S
C176 C177 1.378 . S
C177 C176 1.378 . S
C177 C178 1.378 . S
C178 H163 0.940 . S
C178 C177 1.378 . S
C178 C179 1.396 . S
C179 H164 0.940 . S
C179 C174 1.391 . S
C179 C178 1.396 . S
C180 P160 1.803 . S
C180 C181 1.378 . S
C180 C185 1.400 . S
C181 H165 0.939 . S
C181 C180 1.378 . S
C181 C182 1.361 . S
C182 H166 0.942 . S
C182 C181 1.361 . S
C182 C183 1.369 . S
C183 C182 1.369 . S
C183 C184 1.404 . S
C184 H167 0.940 . S
C184 C183 1.404 . S
C184 C185 1.389 . S
C185 H168 0.939 . S
C185 C180 1.400 . S
C185 C184 1.389 . S
C186 P160 1.819 . S
C186 C187 1.391 . S
C186 C191 1.391 . S
C187 H169 0.941 . S
C187 C186 1.391 . S
C187 C188 1.396 . S
C188 H172 0.939 . S
C188 C187 1.396 . S
C188 C189 1.397 . S
C189 C188 1.397 . S
C189 C190 1.385 . S
C190 H173 0.940 . S
C190 C189 1.385 . S
C190 C191 1.388 . S
C191 H170 0.939 . S
C191 C186 1.391 . S
C191 C190 1.388 . S
P192 O203 1.490 . S
P192 C206 1.812 . S
P192 C212 1.803 . S
P192 C218 1.819 . S
H193 C207 0.941 . S
H194 C208 0.939 . S
H195 C210 0.940 . S
H196 C211 0.940 . S
H197 C213 0.939 . S
H198 C214 0.942 . S
H199 C216 0.940 . S
H200 C217 0.939 . S
H201 C219 0.941 . S
H202 C223 0.939 . S
O203 P192 1.490 . S
H204 C220 0.939 . S
H205 C222 0.940 . S
C206 P192 1.812 . S
C206 C207 1.389 . S
C206 C211 1.391 . S
C207 H193 0.941 . S
C207 C206 1.389 . S
C207 C208 1.397 . S
C208 H194 0.939 . S
C208 C207 1.397 . S
C208 C209 1.378 . S
C209 C208 1.378 . S
C209 C210 1.378 . S
C210 H195 0.940 . S
C210 C209 1.378 . S
C210 C211 1.396 . S
C211 H196 0.940 . S
C211 C206 1.391 . S
C211 C210 1.396 . S
C212 P192 1.803 . S
C212 C213 1.378 . S
C212 C217 1.400 . S
C213 H197 0.939 . S
C213 C212 1.378 . S
C213 C214 1.361 . S
C214 H198 0.942 . S
C214 C213 1.361 . S
C214 C215 1.369 . S
C215 C214 1.369 . S
C215 C216 1.404 . S
C216 H199 0.940 . S
C216 C215 1.404 . S
C216 C217 1.389 . S
C217 H200 0.939 . S
C217 C212 1.400 . S
C217 C216 1.389 . S
C218 P192 1.819 . S
C218 C219 1.391 . S
C218 C223 1.391 . S
C219 H201 0.941 . S
C219 C218 1.391 . S
C219 C220 1.396 . S
C220 H204 0.939 . S
C220 C219 1.396 . S
C220 C221 1.397 . S
C221 C220 1.397 . S
C221 C222 1.385 . S
C222 H205 0.940 . S
C222 C221 1.385 . S
C222 C223 1.388 . S
C223 H202 0.939 . S
C223 C218 1.391 . S
C223 C222 1.388 . S
P224 O235 1.490 . S
P224 C238 1.812 . S
P224 C244 1.803 . S
P224 C250 1.819 . S
H225 C239 0.941 . S
H226 C240 0.939 . S
H227 C242 0.940 . S
H228 C243 0.940 . S
H229 C245 0.939 . S
H230 C246 0.942 . S
H231 C248 0.940 . S
H232 C249 0.939 . S
H233 C251 0.941 . S
H234 C255 0.939 . S
O235 P224 1.490 . S
H236 C252 0.939 . S
H237 C254 0.940 . S
C238 P224 1.812 . S
C238 C239 1.389 . S
C238 C243 1.391 . S
C239 H225 0.941 . S
C239 C238 1.389 . S
C239 C240 1.397 . S
C240 H226 0.939 . S
C240 C239 1.397 . S
C240 C241 1.378 . S
C241 C240 1.378 . S
C241 C242 1.378 . S
C242 H227 0.940 . S
C242 C241 1.378 . S
C242 C243 1.396 . S
C243 H228 0.940 . S
C243 C238 1.391 . S
C243 C242 1.396 . S
C244 P224 1.803 . S
C244 C245 1.378 . S
C244 C249 1.400 . S
C245 H229 0.939 . S
C245 C244 1.378 . S
C245 C246 1.361 . S
C246 H230 0.942 . S
C246 C245 1.361 . S
C246 C247 1.369 . S
C247 C246 1.369 . S
C247 C248 1.404 . S
C248 H231 0.940 . S
C248 C247 1.404 . S
C248 C249 1.389 . S
C249 H232 0.939 . S
C249 C244 1.400 . S
C249 C248 1.389 . S
C250 P224 1.819 . S
C250 C251 1.391 . S
C250 C255 1.391 . S
C251 H233 0.941 . S
C251 C250 1.391 . S
C251 C252 1.396 . S
C252 H236 0.939 . S
C252 C251 1.396 . S
C252 C253 1.397 . S
C253 C252 1.397 . S
C253 C254 1.385 . S
C254 H237 0.940 . S
C254 C253 1.385 . S
C254 C255 1.388 . S
C255 H234 0.939 . S
C255 C250 1.391 . S
C255 C254 1.388 . S
C256 O272 1.251 . S
C256 O274 1.254 1_545 S
N257 C258 1.333 . S
N257 C262 1.307 . S
N257 Zn263 2.020 . S
C258 N257 1.333 . S
C258 C259 1.379 . S
C258 H276 0.952 . S
C259 C258 1.379 . S
C259 C260 1.390 . S
C259 H286 0.949 . S
C260 C259 1.390 . S
C260 C261 1.357 . S
C261 C260 1.357 . S
C261 C262 1.370 . S
C261 H287 0.950 . S
C262 N257 1.307 . S
C262 C261 1.370 . S
C262 H280 0.948 1_455 S
Zn263 N257 2.020 . S
Zn263 O272 2.039 . S
Zn263 O278 2.034 . S
Zn263 O282 2.025 1_455 S
Zn263 O284 2.024 1_455 S
C264 O283 1.246 . S
C264 O284 1.249 . S
N265 C266 1.307 . S
N265 C267 1.333 . S
N265 Zn271 2.020 . S
C266 N265 1.307 . S
C266 C270 1.370 . S
C266 H277 0.948 1_655 S
C267 N265 1.333 . S
C267 C268 1.379 . S
C267 H275 0.952 . S
C268 C267 1.379 . S
C268 C269 1.390 . S
C268 H288 0.949 . S
C269 C268 1.390 . S
C269 C270 1.357 . S
C270 C266 1.370 . S
C270 C269 1.357 . S
C270 H289 0.950 1_655 S
Zn271 N265 2.020 . S
Zn271 O274 2.025 1_655 S
Zn271 O279 2.024 1_655 S
Zn271 O281 2.039 . S
Zn271 O283 2.034 1_565 S
O272 C256 1.251 . S
O272 Zn263 2.039 . S
C273 O278 1.246 1_565 S
C273 O279 1.249 . S
O274 C256 1.254 1_565 S
O274 Zn271 2.025 1_455 S
H275 C267 0.952 . S
H276 C258 0.952 . S
H277 C266 0.948 1_455 S
O278 Zn263 2.034 . S
O278 C273 1.246 1_545 S
O279 Zn271 2.024 1_455 S
O279 C273 1.249 . S
H280 C262 0.948 1_655 S
O281 Zn271 2.039 . S
O281 C285 1.251 . S
O282 Zn263 2.025 1_655 S
O282 C285 1.254 1_545 S
O283 C264 1.246 . S
O283 Zn271 2.034 1_545 S
O284 Zn263 2.024 1_655 S
O284 C264 1.249 . S
C285 O281 1.251 . S
C285 O282 1.254 1_565 S
H286 C259 0.949 . S
H287 C261 0.950 . S
H288 C268 0.949 . S
H289 C270 0.950 1_455 S
C290 O306 1.251 1_565 S
C290 O308 1.254 1_556 S
N291 C292 1.333 . S
N291 C296 1.307 . S
N291 Zn297 2.020 . S
C292 N291 1.333 . S
C292 C293 1.379 . S
C292 H310 0.952 . S
C293 C292 1.379 . S
C293 C294 1.390 . S
C293 H320 0.949 . S
C294 C293 1.390 . S
C294 C295 1.357 . S
C295 C294 1.357 . S
C295 C296 1.370 . S
C295 H321 0.950 . S
C296 N291 1.307 . S
C296 C295 1.370 . S
C296 H314 0.948 . S
Zn297 N291 2.020 . S
Zn297 O306 2.039 . S
Zn297 O312 2.034 1_556 S
Zn297 O316 2.025 1_556 S
Zn297 O318 2.024 . S
C298 O317 1.255 . S
C298 O318 1.236 1_565 S
N299 C300 1.307 . S
N299 C301 1.333 . S
N299 Zn305 2.020 . S
C300 N299 1.307 . S
C300 C304 1.370 . S
C300 H311 0.948 . S
C301 N299 1.333 . S
C301 C302 1.379 . S
C301 H309 0.952 . S
C302 C301 1.379 . S
C302 C303 1.390 . S
C302 H322 0.949 . S
C303 C302 1.390 . S
C303 C304 1.357 . S
C304 C300 1.370 . S
C304 C303 1.357 . S
C304 H323 0.950 . S
Zn305 N299 2.020 . S
Zn305 O308 2.025 . S
Zn305 O313 2.024 . S
Zn305 O315 2.039 1_565 S
Zn305 O317 2.034 1_554 S
O306 C290 1.251 1_545 S
O306 Zn297 2.039 . S
C307 O312 1.246 . S
C307 O313 1.249 1_545 S
O308 C290 1.254 1_554 S
O308 Zn305 2.025 . S
H309 C301 0.952 . S
H310 C292 0.952 . S
H311 C300 0.948 . S
O312 Zn297 2.034 1_554 S
O312 C307 1.246 . S
O313 Zn305 2.024 . S
O313 C307 1.249 1_565 S
H314 C296 0.948 . S
O315 Zn305 2.039 1_545 S
O315 C319 1.251 . S
O316 Zn297 2.025 1_554 S
O316 C319 1.254 . S
O317 C298 1.255 . S
O317 Zn305 2.034 1_556 S
O318 Zn297 2.024 . S
O318 C298 1.236 1_545 S
C319 O315 1.251 . S
C319 O316 1.254 . S
H320 C293 0.949 . S
H321 C295 0.950 . S
H322 C302 0.949 . S
H323 C304 0.950 . S
C324 O340 1.251 . S
C324 O342 1.254 . S
N325 C326 1.333 . S
N325 C330 1.307 . S
N325 Zn331 2.020 . S
C326 N325 1.333 . S
C326 C327 1.379 . S
C326 H344 0.952 . S
C327 C326 1.379 . S
C327 C328 1.390 . S
C327 H354 0.949 . S
C328 C327 1.390 . S
C328 C329 1.357 . S
C329 C328 1.357 . S
C329 C330 1.370 . S
C329 H355 0.950 . S
C330 N325 1.307 . S
C330 C329 1.370 . S
C330 H348 0.948 . S
Zn331 N325 2.020 . S
Zn331 O340 2.039 . S
Zn331 O346 2.034 . S
Zn331 O350 2.025 . S
Zn331 O352 2.024 . S
C332 O351 1.246 . S
C332 O352 1.249 . S
N333 C334 1.307 . S
N333 C335 1.333 . S
N333 Zn339 2.020 . S
C334 N333 1.307 . S
C334 C338 1.370 . S
C334 H345 0.948 . S
C335 N333 1.333 . S
C335 C336 1.379 . S
C335 H343 0.952 . S
C336 C335 1.379 . S
C336 C337 1.390 . S
C336 H356 0.949 . S
C337 C336 1.390 . S
C337 C338 1.357 . S
C338 C334 1.370 . S
C338 C337 1.357 . S
C338 H357 0.950 . S
Zn339 N333 2.020 . S
Zn339 O342 2.025 . S
Zn339 O347 2.024 . S
Zn339 O349 2.039 . S
Zn339 O351 2.034 . S
O340 C324 1.251 . S
O340 Zn331 2.039 . S
C341 O346 1.246 . S
C341 O347 1.249 . S
O342 C324 1.254 . S
O342 Zn339 2.025 . S
H343 C335 0.952 . S
H344 C326 0.952 . S
H345 C334 0.948 . S
O346 Zn331 2.034 . S
O346 C341 1.246 . S
O347 Zn339 2.024 . S
O347 C341 1.249 . S
H348 C330 0.948 . S
O349 Zn339 2.039 . S
O349 C353 1.251 . S
O350 Zn331 2.025 . S
O350 C353 1.254 . S
O351 C332 1.246 . S
O351 Zn339 2.034 . S
O352 Zn331 2.024 . S
O352 C332 1.249 . S
C353 O349 1.251 . S
C353 O350 1.254 . S
H354 C327 0.949 . S
H355 C329 0.950 . S
H356 C336 0.949 . S
H357 C338 0.950 . S
C358 O374 1.251 1_556 S
C358 O376 1.254 . S
N359 C360 1.333 . S
N359 C364 1.307 . S
N359 Zn365 2.020 . S
C360 N359 1.333 . S
C360 C361 1.379 . S
C360 H378 0.952 . S
C361 C360 1.379 . S
C361 C362 1.390 . S
C361 H388 0.949 . S
C362 C361 1.390 . S
C362 C363 1.357 . S
C363 C362 1.357 . S
C363 C364 1.370 . S
C363 H389 0.950 . S
C364 N359 1.307 . S
C364 C363 1.370 . S
C364 H382 0.948 . S
Zn365 N359 2.020 . S
Zn365 O374 2.039 . S
Zn365 O380 2.034 1_655 S
Zn365 O384 2.025 1_655 S
Zn365 O386 2.024 . S
C366 O385 1.246 . S
C366 O386 1.249 1_556 S
N367 C368 1.307 . S
N367 C369 1.333 . S
N367 Zn373 2.020 . S
C368 N367 1.307 . S
C368 C372 1.370 . S
C368 H379 0.948 . S
C369 N367 1.333 . S
C369 C370 1.379 . S
C369 H377 0.952 . S
C370 C369 1.379 . S
C370 C371 1.390 . S
C370 H390 0.949 . S
C371 C370 1.390 . S
C371 C372 1.357 . S
C372 C368 1.370 . S
C372 C371 1.357 . S
C372 H391 0.950 . S
Zn373 N367 2.020 . S
Zn373 O376 2.025 1_455 S
Zn373 O381 2.024 . S
Zn373 O383 2.039 . S
Zn373 O385 2.034 1_455 S
O374 C358 1.251 1_554 S
O374 Zn365 2.039 . S
C375 O380 1.246 . S
C375 O381 1.249 1_554 S
O376 C358 1.254 . S
O376 Zn373 2.025 1_655 S
H377 C369 0.952 . S
H378 C360 0.952 . S
H379 C368 0.948 . S
O380 Zn365 2.034 1_455 S
O380 C375 1.246 . S
O381 Zn373 2.024 . S
O381 C375 1.249 1_556 S
H382 C364 0.948 . S
O383 Zn373 2.039 . S
O383 C387 1.251 1_556 S
O384 Zn365 2.025 1_455 S
O384 C387 1.254 . S
O385 C366 1.246 . S
O385 Zn373 2.034 1_655 S
O386 Zn365 2.024 . S
O386 C366 1.249 1_554 S
C387 O383 1.251 1_554 S
C387 O384 1.254 . S
H388 C361 0.949 . S
H389 C363 0.950 . S
H390 C370 0.949 . S
H391 C372 0.950 . S
H392 C404 0.930 . S
H393 C406 0.930 . S
H394 C407 0.930 . S
H395 C411 0.959 . S
H396 C411 0.959 . S
H397 C411 0.961 . S
H398 C412 0.960 . S
H399 C412 0.961 . S
H400 C412 0.959 . S
H401 C415 0.929 1_565 S
H402 C416 0.931 1_565 S
H403 C418 0.930 . S
C404 H392 0.930 . S
C404 C405 1.399 . S
C404 C409 1.399 . S
C405 C404 1.399 . S
C405 C406 1.376 . S
C406 H393 0.930 . S
C406 C405 1.376 . S
C406 C407 1.388 . S
C407 H394 0.930 . S
C407 C406 1.388 . S
C407 C408 1.390 . S
C408 C407 1.390 . S
C408 C409 1.394 . S
C408 C414 1.465 . S
C409 C404 1.399 . S
C409 C408 1.394 . S
C409 C410 1.516 . S
C410 C409 1.516 . S
C410 C411 1.502 . S
C410 C412 1.561 . S
C410 C413 1.526 . S
C411 H395 0.959 . S
C411 H396 0.959 . S
C411 H397 0.961 . S
C411 C410 1.502 . S
C412 H398 0.960 . S
C412 H399 0.961 . S
C412 H400 0.959 . S
C412 C410 1.561 . S
C413 C410 1.526 . S
C413 C414 1.396 . S
C413 C418 1.390 . S
C414 C408 1.465 . S
C414 C413 1.396 . S
C414 C415 1.399 . S
C415 H401 0.929 1_545 S
C415 C414 1.399 . S
C415 C416 1.385 . S
C416 H402 0.931 1_545 S
C416 C415 1.385 . S
C416 C417 1.389 . S
C417 C416 1.389 . S
C417 C418 1.387 . S
C418 H403 0.930 . S
C418 C413 1.390 . S
C418 C417 1.387 . S
H419 C431 0.930 . S
H420 C433 0.930 . S
H421 C434 0.930 . S
H422 C438 0.959 . S
H423 C438 0.959 . S
H424 C438 0.961 . S
H425 C439 0.960 . S
H426 C439 0.961 . S
H427 C439 0.959 . S
H428 C442 0.929 . S
H429 C443 0.931 . S
H430 C445 0.930 1_545 S
C431 H419 0.930 . S
C431 C432 1.399 . S
C431 C436 1.399 . S
C432 C431 1.399 . S
C432 C433 1.376 . S
C433 H420 0.930 . S
C433 C432 1.376 . S
C433 C434 1.388 . S
C434 H421 0.930 . S
C434 C433 1.388 . S
C434 C435 1.390 . S
C435 C434 1.390 . S
C435 C436 1.394 . S
C435 C441 1.465 . S
C436 C431 1.399 . S
C436 C435 1.394 . S
C436 C437 1.516 . S
C437 C436 1.516 . S
C437 C438 1.502 . S
C437 C439 1.561 1_565 S
C437 C440 1.526 . S
C438 H422 0.959 . S
C438 H423 0.959 . S
C438 H424 0.961 . S
C438 C437 1.502 . S
C439 H425 0.960 . S
C439 H426 0.961 . S
C439 H427 0.959 . S
C439 C437 1.561 1_545 S
C440 C437 1.526 . S
C440 C441 1.396 . S
C440 C445 1.390 . S
C441 C435 1.465 . S
C441 C440 1.396 . S
C441 C442 1.399 . S
C442 H428 0.929 . S
C442 C441 1.399 . S
C442 C443 1.385 . S
C443 H429 0.931 . S
C443 C442 1.385 . S
C443 C444 1.389 . S
C444 C443 1.389 . S
C444 C445 1.387 . S
C445 H430 0.930 1_565 S
C445 C440 1.390 . S
C445 C444 1.387 . S
H446 C458 0.930 . S
H447 C460 0.930 . S
H448 C461 0.930 . S
H449 C465 0.959 . S
H450 C465 0.959 . S
H451 C465 0.961 . S
H452 C466 0.960 . S
H453 C466 0.961 . S
H454 C466 0.959 . S
H455 C469 0.929 . S
H456 C470 0.931 . S
H457 C472 0.930 . S
C458 H446 0.930 . S
C458 C459 1.399 . S
C458 C463 1.399 . S
C459 C458 1.399 . S
C459 C460 1.376 . S
C460 H447 0.930 . S
C460 C459 1.376 . S
C460 C461 1.388 . S
C461 H448 0.930 . S
C461 C460 1.388 . S
C461 C462 1.390 . S
C462 C461 1.390 . S
C462 C463 1.394 . S
C462 C468 1.465 . S
C463 C458 1.399 . S
C463 C462 1.394 . S
C463 C464 1.516 . S
C464 C463 1.516 . S
C464 C465 1.502 . S
C464 C466 1.561 . S
C464 C467 1.526 . S
C465 H449 0.959 . S
C465 H450 0.959 . S
C465 H451 0.961 . S
C465 C464 1.502 . S
C466 H452 0.960 . S
C466 H453 0.961 . S
C466 H454 0.959 . S
C466 C464 1.561 . S
C467 C464 1.526 . S
C467 C468 1.396 . S
C467 C472 1.390 . S
C468 C462 1.465 . S
C468 C467 1.396 . S
C468 C469 1.399 . S
C469 H455 0.929 . S
C469 C468 1.399 . S
C469 C470 1.385 . S
C470 H456 0.931 . S
C470 C469 1.385 . S
C470 C471 1.389 . S
C471 C470 1.389 . S
C471 C472 1.387 . S
C472 H457 0.930 . S
C472 C467 1.390 . S
C472 C471 1.387 . S
H473 C485 0.930 . S
H474 C487 0.930 . S
H475 C488 0.930 . S
H476 C492 0.959 . S
H477 C492 0.959 . S
H478 C492 0.961 . S
H479 C493 0.960 . S
H480 C493 0.961 . S
H481 C493 0.959 . S
H482 C496 0.929 . S
H483 C497 0.931 . S
H484 C499 0.930 . S
C485 H473 0.930 . S
C485 C486 1.399 . S
C485 C490 1.399 . S
C486 C485 1.399 . S
C486 C487 1.376 . S
C487 H474 0.930 . S
C487 C486 1.376 . S
C487 C488 1.388 . S
C488 H475 0.930 . S
C488 C487 1.388 . S
C488 C489 1.390 . S
C489 C488 1.390 . S
C489 C490 1.394 . S
C489 C495 1.465 . S
C490 C485 1.399 . S
C490 C489 1.394 . S
C490 C491 1.516 . S
C491 C490 1.516 . S
C491 C492 1.502 . S
C491 C493 1.561 . S
C491 C494 1.526 . S
C492 H476 0.959 . S
C492 H477 0.959 . S
C492 H478 0.961 . S
C492 C491 1.502 . S
C493 H479 0.960 . S
C493 H480 0.961 . S
C493 H481 0.959 . S
C493 C491 1.561 . S
C494 C491 1.526 . S
C494 C495 1.396 . S
C494 C499 1.390 . S
C495 C489 1.465 . S
C495 C494 1.396 . S
C495 C496 1.399 . S
C496 H482 0.929 . S
C496 C495 1.399 . S
C496 C497 1.385 . S
C497 H483 0.931 . S
C497 C496 1.385 . S
C497 C498 1.389 . S
C498 C497 1.389 . S
C498 C499 1.387 . S
C499 H484 0.930 . S
C499 C494 1.390 . S
C499 C498 1.387 . S
H500 C512 0.930 . S
H501 C514 0.930 . S
H502 C515 0.930 . S
H503 C519 0.959 . S
H504 C519 0.959 . S
H505 C519 0.961 . S
H506 C520 0.956 1_556 S
H507 C520 0.961 1_556 S
H508 C520 0.959 . S
H509 C523 0.929 . S
H510 C524 0.931 . S
H511 C526 0.930 . S
C512 H500 0.930 . S
C512 C513 1.399 . S
C512 C517 1.399 . S
C513 C512 1.399 . S
C513 C514 1.376 . S
C514 H501 0.930 . S
C514 C513 1.376 . S
C514 C515 1.388 . S
C515 H502 0.930 . S
C515 C514 1.388 . S
C515 C516 1.390 . S
C516 C515 1.390 . S
C516 C517 1.394 . S
C516 C522 1.465 . S
C517 C512 1.399 . S
C517 C516 1.394 . S
C517 C518 1.516 . S
C518 C517 1.516 . S
C518 C519 1.502 . S
C518 C520 1.561 . S
C518 C521 1.526 . S
C519 H503 0.959 . S
C519 H504 0.959 . S
C519 H505 0.961 . S
C519 C518 1.502 . S
C520 H506 0.956 1_554 S
C520 H507 0.961 1_554 S
C520 H508 0.959 . S
C520 C518 1.561 . S
C521 C518 1.526 . S
C521 C522 1.396 . S
C521 C526 1.390 . S
C522 C516 1.465 . S
C522 C521 1.396 . S
C522 C523 1.399 . S
C523 H509 0.929 . S
C523 C522 1.399 . S
C523 C524 1.385 . S
C524 H510 0.931 . S
C524 C523 1.385 . S
C524 C525 1.389 . S
C525 C524 1.389 . S
C525 C526 1.387 . S
C526 H511 0.930 . S
C526 C521 1.390 . S
C526 C525 1.387 . S
H527 C539 0.930 . S
H528 C541 0.930 . S
H529 C542 0.930 1_545 S
H530 C546 0.959 . S
H531 C546 0.959 . S
H532 C546 0.961 . S
H533 C547 0.960 . S
H534 C547 0.961 . S
H535 C547 0.959 . S
H536 C550 0.929 . S
H537 C551 0.931 . S
H538 C553 0.930 . S
C539 H527 0.930 . S
C539 C540 1.399 . S
C539 C544 1.399 . S
C540 C539 1.399 . S
C540 C541 1.376 . S
C541 H528 0.930 . S
C541 C540 1.376 . S
C541 C542 1.388 . S
C542 H529 0.930 1_565 S
C542 C541 1.388 . S
C542 C543 1.390 . S
C543 C542 1.390 . S
C543 C544 1.394 . S
C543 C549 1.465 . S
C544 C539 1.399 . S
C544 C543 1.394 . S
C544 C545 1.516 . S
C545 C544 1.516 . S
C545 C546 1.502 . S
C545 C547 1.561 . S
C545 C548 1.526 . S
C546 H530 0.959 . S
C546 H531 0.959 . S
C546 H532 0.961 . S
C546 C545 1.502 . S
C547 H533 0.960 . S
C547 H534 0.961 . S
C547 H535 0.959 . S
C547 C545 1.561 . S
C548 C545 1.526 . S
C548 C549 1.396 . S
C548 C553 1.390 . S
C549 C543 1.465 . S
C549 C548 1.396 . S
C549 C550 1.399 1_565 S
C550 H536 0.929 . S
C550 C549 1.399 1_545 S
C550 C551 1.385 . S
C551 H537 0.931 . S
C551 C550 1.385 . S
C551 C552 1.389 1_545 S
C552 C551 1.389 1_565 S
C552 C553 1.387 . S
C553 H538 0.930 . S
C553 C548 1.390 . S
C553 C552 1.387 . S
H554 C566 0.930 . S
H555 C568 0.930 . S
H556 C569 0.930 1_554 S
H557 C573 0.959 . S
H558 C573 0.959 . S
H559 C573 0.961 . S
H560 C574 0.960 . S
H561 C574 0.961 . S
H562 C574 0.959 . S
H563 C577 0.929 . S
H564 C578 0.931 . S
H565 C580 0.930 . S
C566 H554 0.930 . S
C566 C567 1.399 . S
C566 C571 1.399 . S
C567 C566 1.399 . S
C567 C568 1.376 . S
C568 H555 0.930 . S
C568 C567 1.376 . S
C568 C569 1.388 . S
C569 H556 0.930 1_556 S
C569 C568 1.388 . S
C569 C570 1.390 . S
C570 C569 1.390 . S
C570 C571 1.394 . S
C570 C576 1.465 . S
C571 C566 1.399 . S
C571 C570 1.394 . S
C571 C572 1.516 . S
C572 C571 1.516 . S
C572 C573 1.502 . S
C572 C574 1.561 . S
C572 C575 1.526 . S
C573 H557 0.959 . S
C573 H558 0.959 . S
C573 H559 0.961 . S
C573 C572 1.502 . S
C574 H560 0.960 . S
C574 H561 0.961 . S
C574 H562 0.959 . S
C574 C572 1.561 . S
C575 C572 1.526 . S
C575 C576 1.396 . S
C575 C580 1.390 . S
C576 C570 1.465 . S
C576 C575 1.396 . S
C576 C577 1.399 1_556 S
C577 H563 0.929 . S
C577 C576 1.399 1_554 S
C577 C578 1.385 . S
C578 H564 0.931 . S
C578 C577 1.385 . S
C578 C579 1.389 1_554 S
C579 C578 1.389 1_556 S
C579 C580 1.387 . S
C580 H565 0.930 . S
C580 C575 1.390 . S
C580 C579 1.387 . S
H581 C593 0.930 . S
H582 C595 0.930 . S
H583 C596 0.930 . S
H584 C600 0.959 . S
H585 C600 0.959 . S
H586 C600 0.961 . S
H587 C601 0.960 . S
H588 C601 0.961 . S
H589 C601 0.959 . S
H590 C604 0.929 . S
H591 C605 0.931 . S
H592 C607 0.930 . S
C593 H581 0.930 . S
C593 C594 1.399 . S
C593 C598 1.399 . S
C594 C593 1.399 . S
C594 C595 1.376 . S
C595 H582 0.930 . S
C595 C594 1.376 . S
C595 C596 1.388 . S
C596 H583 0.930 . S
C596 C595 1.388 . S
C596 C597 1.390 . S
C597 C596 1.390 . S
C597 C598 1.394 . S
C597 C603 1.465 . S
C598 C593 1.399 . S
C598 C597 1.394 . S
C598 C599 1.516 . S
C599 C598 1.516 . S
C599 C600 1.502 . S
C599 C601 1.561 . S
C599 C602 1.526 . S
C600 H584 0.959 . S
C600 H585 0.959 . S
C600 H586 0.961 . S
C600 C599 1.502 . S
C601 H587 0.960 . S
C601 H588 0.961 . S
C601 H589 0.959 . S
C601 C599 1.561 . S
C602 C599 1.526 . S
C602 C603 1.396 . S
C602 C607 1.390 . S
C603 C597 1.465 . S
C603 C602 1.396 . S
C603 C604 1.399 . S
C604 H590 0.929 . S
C604 C603 1.399 . S
C604 C605 1.385 . S
C605 H591 0.931 . S
C605 C604 1.385 . S
C605 C606 1.389 . S
C606 C605 1.389 . S
C606 C607 1.387 . S
C607 H592 0.930 . S
C607 C602 1.390 . S
C607 C606 1.387 . S
H608 C620 0.930 . S
H609 C622 0.930 . S
H610 C623 0.930 . S
H611 C627 0.959 . S
H612 C627 0.959 . S
H613 C627 0.961 . S
H614 C628 0.960 . S
H615 C628 0.961 . S
H616 C628 0.959 . S
H617 C631 0.929 1_556 S
H618 C632 0.931 1_556 S
H619 C634 0.930 . S
C620 H608 0.930 . S
C620 C621 1.399 . S
C620 C625 1.399 . S
C621 C620 1.399 . S
C621 C622 1.376 . S
C622 H609 0.930 . S
C622 C621 1.376 . S
C622 C623 1.388 . S
C623 H610 0.930 . S
C623 C622 1.388 . S
C623 C624 1.390 . S
C624 C623 1.390 . S
C624 C625 1.394 . S
C624 C630 1.465 . S
C625 C620 1.399 . S
C625 C624 1.394 . S
C625 C626 1.516 . S
C626 C625 1.516 . S
C626 C627 1.502 . S
C626 C628 1.561 . S
C626 C629 1.526 . S
C627 H611 0.959 . S
C627 H612 0.959 . S
C627 H613 0.961 . S
C627 C626 1.502 . S
C628 H614 0.960 . S
C628 H615 0.961 . S
C628 H616 0.959 . S
C628 C626 1.561 . S
C629 C626 1.526 . S
C629 C630 1.396 . S
C629 C634 1.390 . S
C630 C624 1.465 . S
C630 C629 1.396 . S
C630 C631 1.399 . S
C631 H617 0.929 1_554 S
C631 C630 1.399 . S
C631 C632 1.385 . S
C632 H618 0.931 1_554 S
C632 C631 1.385 . S
C632 C633 1.389 . S
C633 C632 1.389 . S
C633 C634 1.387 . S
C634 H619 0.930 . S
C634 C629 1.390 . S
C634 C633 1.387 . S
H635 C647 0.930 . S
H636 C649 0.930 . S
H637 C650 0.930 . S
H638 C654 0.959 . S
H639 C654 0.959 . S
H640 C654 0.961 . S
H641 C655 0.960 . S
H642 C655 0.961 . S
H643 C655 0.959 . S
H644 C658 0.929 . S
H645 C659 0.931 . S
H646 C661 0.930 . S
C647 H635 0.930 . S
C647 C648 1.399 . S
C647 C652 1.399 . S
C648 C647 1.399 . S
C648 C649 1.376 . S
C649 H636 0.930 . S
C649 C648 1.376 . S
C649 C650 1.388 . S
C650 H637 0.930 . S
C650 C649 1.388 . S
C650 C651 1.390 . S
C651 C650 1.390 . S
C651 C652 1.394 . S
C651 C657 1.465 . S
C652 C647 1.399 . S
C652 C651 1.394 . S
C652 C653 1.516 . S
C653 C652 1.516 . S
C653 C654 1.502 . S
C653 C655 1.561 . S
C653 C656 1.526 . S
C654 H638 0.959 . S
C654 H639 0.959 . S
C654 H640 0.961 . S
C654 C653 1.502 . S
C655 H641 0.960 . S
C655 H642 0.961 . S
C655 H643 0.959 . S
C655 C653 1.561 . S
C656 C653 1.526 . S
C656 C657 1.396 . S
C656 C661 1.390 . S
C657 C651 1.465 . S
C657 C656 1.396 . S
C657 C658 1.399 . S
C658 H644 0.929 . S
C658 C657 1.399 . S
C658 C659 1.385 . S
C659 H645 0.931 . S
C659 C658 1.385 . S
C659 C660 1.389 . S
C660 C659 1.389 . S
C660 C661 1.387 . S
C661 H646 0.930 . S
C661 C656 1.390 . S
C661 C660 1.387 . S
H662 C674 0.930 . S
H663 C676 0.930 . S
H664 C677 0.930 . S
H665 C681 0.959 . S
H666 C681 0.959 . S
H667 C681 0.961 . S
H668 C682 0.960 . S
H669 C682 0.961 . S
H670 C682 0.959 . S
H671 C685 0.929 . S
H672 C686 0.931 . S
H673 C688 0.930 . S
C674 H662 0.930 . S
C674 C675 1.399 . S
C674 C679 1.399 . S
C675 C674 1.399 . S
C675 C676 1.376 . S
C676 H663 0.930 . S
C676 C675 1.376 . S
C676 C677 1.388 . S
C677 H664 0.930 . S
C677 C676 1.388 . S
C677 C678 1.390 . S
C678 C677 1.390 . S
C678 C679 1.394 . S
C678 C684 1.465 . S
C679 C674 1.399 . S
C679 C678 1.394 . S
C679 C680 1.516 . S
C680 C679 1.516 . S
C680 C681 1.502 . S
C680 C682 1.561 . S
C680 C683 1.526 . S
C681 H665 0.959 . S
C681 H666 0.959 . S
C681 H667 0.961 . S
C681 C680 1.502 . S
C682 H668 0.960 . S
C682 H669 0.961 . S
C682 H670 0.959 . S
C682 C680 1.561 . S
C683 C680 1.526 . S
C683 C684 1.396 . S
C683 C688 1.390 . S
C684 C678 1.465 . S
C684 C683 1.396 . S
C684 C685 1.399 . S
C685 H671 0.929 . S
C685 C684 1.399 . S
C685 C686 1.385 . S
C686 H672 0.931 . S
C686 C685 1.385 . S
C686 C687 1.389 . S
C687 C686 1.389 . S
C687 C688 1.387 . S
C688 H673 0.930 . S
C688 C683 1.390 . S
C688 C687 1.387 . S
H689 C701 0.930 . S
H690 C703 0.930 . S
H691 C704 0.930 . S
H692 C708 0.959 . S
H693 C708 0.959 . S
H694 C708 0.961 . S
H695 C709 0.960 . S
H696 C709 0.961 . S
H697 C709 0.959 . S
H698 C712 0.929 . S
H699 C713 0.931 . S
H700 C715 0.930 . S
C701 H689 0.930 . S
C701 C702 1.399 . S
C701 C706 1.399 . S
C702 C701 1.399 . S
C702 C703 1.376 . S
C703 H690 0.930 . S
C703 C702 1.376 . S
C703 C704 1.388 . S
C704 H691 0.930 . S
C704 C703 1.388 . S
C704 C705 1.390 . S
C705 C704 1.390 . S
C705 C706 1.394 . S
C705 C711 1.465 . S
C706 C701 1.399 . S
C706 C705 1.394 . S
C706 C707 1.516 . S
C707 C706 1.516 . S
C707 C708 1.502 . S
C707 C709 1.561 . S
C707 C710 1.526 . S
C708 H692 0.959 . S
C708 H693 0.959 . S
C708 H694 0.961 . S
C708 C707 1.502 . S
C709 H695 0.960 . S
C709 H696 0.961 . S
C709 H697 0.959 . S
C709 C707 1.561 . S
C710 C707 1.526 . S
C710 C711 1.396 . S
C710 C715 1.390 . S
C711 C705 1.465 . S
C711 C710 1.396 . S
C711 C712 1.399 . S
C712 H698 0.929 . S
C712 C711 1.399 . S
C712 C713 1.385 . S
C713 H699 0.931 . S
C713 C712 1.385 . S
C713 C714 1.389 . S
C714 C713 1.389 . S
C714 C715 1.387 . S
C715 H700 0.930 . S
C715 C710 1.390 . S
C715 C714 1.387 . S
H716 C728 0.930 . S
H717 C730 0.930 . S
H718 C731 0.930 1_545 S
H719 C735 0.958 . S
H720 C735 0.958 . S
H721 C735 0.962 . S
H722 C736 0.960 . S
H723 C736 0.961 . S
H724 C736 0.959 . S
H725 C739 0.929 . S
H726 C740 0.931 . S
H727 C742 0.930 . S
C728 H716 0.930 . S
C728 C729 1.399 . S
C728 C733 1.399 . S
C729 C728 1.399 . S
C729 C730 1.376 . S
C730 H717 0.930 . S
C730 C729 1.376 . S
C730 C731 1.388 . S
C731 H718 0.930 1_565 S
C731 C730 1.388 . S
C731 C732 1.390 . S
C732 C731 1.390 . S
C732 C733 1.394 . S
C732 C738 1.465 . S
C733 C728 1.399 . S
C733 C732 1.394 . S
C733 C734 1.516 . S
C734 C733 1.516 . S
C734 C735 1.504 1_655 S
C734 C736 1.561 . S
C734 C737 1.526 . S
C735 H719 0.958 . S
C735 H720 0.958 . S
C735 H721 0.962 . S
C735 C734 1.504 1_455 S
C736 H722 0.960 . S
C736 H723 0.961 . S
C736 H724 0.959 . S
C736 C734 1.561 . S
C737 C734 1.526 . S
C737 C738 1.396 . S
C737 C742 1.390 . S
C738 C732 1.465 . S
C738 C737 1.396 . S
C738 C739 1.399 1_565 S
C739 H725 0.929 . S
C739 C738 1.399 1_545 S
C739 C740 1.385 . S
C740 H726 0.931 . S
C740 C739 1.385 . S
C740 C741 1.389 1_545 S
C741 C740 1.389 1_565 S
C741 C742 1.387 . S
C742 H727 0.930 . S
C742 C737 1.390 . S
C742 C741 1.387 . S
H743 C755 0.930 . S
H744 C757 0.930 . S
H745 C758 0.930 . S
H746 C762 0.959 . S
H747 C762 0.959 . S
H748 C762 0.961 . S
H749 C763 0.960 . S
H750 C763 0.961 . S
H751 C763 0.959 . S
H752 C766 0.929 1_565 S
H753 C767 0.931 1_565 S
H754 C769 0.930 . S
C755 H743 0.930 . S
C755 C756 1.399 . S
C755 C760 1.399 . S
C756 C755 1.399 . S
C756 C757 1.376 . S
C757 H744 0.930 . S
C757 C756 1.376 . S
C757 C758 1.388 . S
C758 H745 0.930 . S
C758 C757 1.388 . S
C758 C759 1.390 . S
C759 C758 1.390 . S
C759 C760 1.394 . S
C759 C765 1.465 . S
C760 C755 1.399 . S
C760 C759 1.394 . S
C760 C761 1.516 . S
C761 C760 1.516 . S
C761 C762 1.502 . S
C761 C763 1.561 . S
C761 C764 1.526 . S
C762 H746 0.959 . S
C762 H747 0.959 . S
C762 H748 0.961 . S
C762 C761 1.502 . S
C763 H749 0.960 . S
C763 H750 0.961 . S
C763 H751 0.959 . S
C763 C761 1.561 . S
C764 C761 1.526 . S
C764 C765 1.396 . S
C764 C769 1.390 . S
C765 C759 1.465 . S
C765 C764 1.396 . S
C765 C766 1.399 . S
C766 H752 0.929 1_545 S
C766 C765 1.399 . S
C766 C767 1.385 . S
C767 H753 0.931 1_545 S
C767 C766 1.385 . S
C767 C768 1.389 . S
C768 C767 1.389 . S
C768 C769 1.387 . S
C769 H754 0.930 . S
C769 C764 1.390 . S
C769 C768 1.387 . S
H770 C782 0.930 . S
H771 C784 0.930 . S
H772 C785 0.930 . S
H773 C789 0.959 . S
H774 C789 0.959 . S
H775 C789 0.961 . S
H776 C790 0.960 . S
H777 C790 0.961 . S
H778 C790 0.959 . S
H779 C793 0.929 . S
H780 C794 0.931 . S
H781 C796 0.930 . S
C782 H770 0.930 . S
C782 C783 1.399 . S
C782 C787 1.399 . S
C783 C782 1.399 . S
C783 C784 1.376 . S
C784 H771 0.930 . S
C784 C783 1.376 . S
C784 C785 1.388 . S
C785 H772 0.930 . S
C785 C784 1.388 . S
C785 C786 1.390 . S
C786 C785 1.390 . S
C786 C787 1.394 . S
C786 C792 1.465 . S
C787 C782 1.399 . S
C787 C786 1.394 . S
C787 C788 1.516 . S
C788 C787 1.516 . S
C788 C789 1.502 . S
C788 C790 1.561 . S
C788 C791 1.526 . S
C789 H773 0.959 . S
C789 H774 0.959 . S
C789 H775 0.961 . S
C789 C788 1.502 . S
C790 H776 0.960 . S
C790 H777 0.961 . S
C790 H778 0.959 . S
C790 C788 1.561 . S
C791 C788 1.526 . S
C791 C792 1.396 . S
C791 C796 1.390 . S
C792 C786 1.465 . S
C792 C791 1.396 . S
C792 C793 1.399 . S
C793 H779 0.929 . S
C793 C792 1.399 . S
C793 C794 1.385 . S
C794 H780 0.931 . S
C794 C793 1.385 . S
C794 C795 1.389 . S
C795 C794 1.389 . S
C795 C796 1.387 . S
C796 H781 0.930 . S
C796 C791 1.390 . S
C796 C795 1.387 . S
H797 C809 0.930 . S
H798 C811 0.930 . S
H799 C812 0.930 . S
H800 C816 0.959 . S
H801 C816 0.959 1_655 S
H802 C816 0.961 . S
H803 C817 0.960 . S
H804 C817 0.961 . S
H805 C817 0.959 . S
H806 C820 0.929 . S
H807 C821 0.931 . S
H808 C823 0.930 . S
C809 H797 0.930 . S
C809 C810 1.399 . S
C809 C814 1.399 . S
C810 C809 1.399 . S
C810 C811 1.376 . S
C811 H798 0.930 . S
C811 C810 1.376 . S
C811 C812 1.388 . S
C812 H799 0.930 . S
C812 C811 1.388 . S
C812 C813 1.390 . S
C813 C812 1.390 . S
C813 C814 1.394 . S
C813 C819 1.465 . S
C814 C809 1.399 . S
C814 C813 1.394 . S
C814 C815 1.516 . S
C815 C814 1.516 . S
C815 C816 1.502 . S
C815 C817 1.561 . S
C815 C818 1.526 . S
C816 H800 0.959 . S
C816 H801 0.959 1_455 S
C816 H802 0.961 . S
C816 C815 1.502 . S
C817 H803 0.960 . S
C817 H804 0.961 . S
C817 H805 0.959 . S
C817 C815 1.561 . S
C818 C815 1.526 . S
C818 C819 1.396 . S
C818 C823 1.390 . S
C819 C813 1.465 . S
C819 C818 1.396 . S
C819 C820 1.399 . S
C820 H806 0.929 . S
C820 C819 1.399 . S
C820 C821 1.385 . S
C821 H807 0.931 . S
C821 C820 1.385 . S
C821 C822 1.389 . S
C822 C821 1.389 . S
C822 C823 1.387 . S
C823 H808 0.930 . S
C823 C818 1.390 . S
C823 C822 1.387 . S
H824 C836 0.930 . S
H825 C838 0.930 . S
H826 C839 0.930 1_545 S
H827 C843 0.959 . S
H828 C843 0.959 . S
H829 C843 0.961 . S
H830 C844 0.960 . S
H831 C844 0.958 1_554 S
H832 C844 0.959 1_554 S
H833 C847 0.929 . S
H834 C848 0.931 . S
H835 C850 0.930 . S
C836 H824 0.930 . S
C836 C837 1.399 . S
C836 C841 1.399 . S
C837 C836 1.399 . S
C837 C838 1.376 . S
C838 H825 0.930 . S
C838 C837 1.376 . S
C838 C839 1.388 . S
C839 H826 0.930 1_565 S
C839 C838 1.388 . S
C839 C840 1.390 . S
C840 C839 1.390 . S
C840 C841 1.394 . S
C840 C846 1.465 . S
C841 C836 1.399 . S
C841 C840 1.394 . S
C841 C842 1.516 . S
C842 C841 1.516 . S
C842 C843 1.502 . S
C842 C844 1.561 . S
C842 C845 1.526 . S
C843 H827 0.959 . S
C843 H828 0.959 . S
C843 H829 0.961 . S
C843 C842 1.502 . S
C844 H830 0.960 . S
C844 H831 0.958 1_556 S
C844 H832 0.959 1_556 S
C844 C842 1.561 . S
C845 C842 1.526 . S
C845 C846 1.396 . S
C845 C850 1.390 . S
C846 C840 1.465 . S
C846 C845 1.396 . S
C846 C847 1.399 1_565 S
C847 H833 0.929 . S
C847 C846 1.399 1_545 S
C847 C848 1.385 . S
C848 H834 0.931 . S
C848 C847 1.385 . S
C848 C849 1.389 1_545 S
C849 C848 1.389 1_565 S
C849 C850 1.387 . S
C850 H835 0.930 . S
C850 C845 1.390 . S
C850 C849 1.387 . S
H851 C863 0.930 . S
H852 C865 0.930 . S
H853 C866 0.930 . S
H854 C870 0.959 . S
H855 C870 0.959 . S
H856 C870 0.961 . S
H857 C871 0.960 . S
H858 C871 0.961 . S
H859 C871 0.959 . S
H860 C874 0.929 1_565 S
H861 C875 0.931 1_565 S
H862 C877 0.930 . S
C863 H851 0.930 . S
C863 C864 1.399 . S
C863 C868 1.399 . S
C864 C863 1.399 . S
C864 C865 1.376 . S
C865 H852 0.930 . S
C865 C864 1.376 . S
C865 C866 1.388 . S
C866 H853 0.930 . S
C866 C865 1.388 . S
C866 C867 1.390 . S
C867 C866 1.390 . S
C867 C868 1.394 . S
C867 C873 1.465 . S
C868 C863 1.399 . S
C868 C867 1.394 . S
C868 C869 1.516 . S
C869 C868 1.516 . S
C869 C870 1.502 . S
C869 C871 1.561 . S
C869 C872 1.526 . S
C870 H854 0.959 . S
C870 H855 0.959 . S
C870 H856 0.961 . S
C870 C869 1.502 . S
C871 H857 0.960 . S
C871 H858 0.961 . S
C871 H859 0.959 . S
C871 C869 1.561 . S
C872 C869 1.526 . S
C872 C873 1.396 . S
C872 C877 1.390 . S
C873 C867 1.465 . S
C873 C872 1.396 . S
C873 C874 1.399 . S
C874 H860 0.929 1_545 S
C874 C873 1.399 . S
C874 C875 1.385 . S
C875 H861 0.931 1_545 S
C875 C874 1.385 . S
C875 C876 1.389 . S
C876 C875 1.389 . S
C876 C877 1.387 . S
C877 H862 0.930 . S
C877 C872 1.390 . S
C877 C876 1.387 . S
H878 C890 0.930 . S
H879 C892 0.930 . S
H880 C893 0.930 . S
H881 C897 0.959 1_554 S
H882 C897 0.959 . S
H883 C897 0.961 . S
H884 C898 0.960 . S
H885 C898 0.961 . S
H886 C898 0.959 . S
H887 C901 0.929 . S
H888 C902 0.931 . S
H889 C904 0.930 1_556 S
C890 H878 0.930 . S
C890 C891 1.399 . S
C890 C895 1.399 . S
C891 C890 1.399 . S
C891 C892 1.376 . S
C892 H879 0.930 . S
C892 C891 1.376 . S
C892 C893 1.388 . S
C893 H880 0.930 . S
C893 C892 1.388 . S
C893 C894 1.390 . S
C894 C893 1.390 . S
C894 C895 1.394 . S
C894 C900 1.465 . S
C895 C890 1.399 . S
C895 C894 1.394 . S
C895 C896 1.516 . S
C896 C895 1.516 . S
C896 C897 1.502 1_554 S
C896 C898 1.561 1_554 S
C896 C899 1.526 . S
C897 H881 0.959 1_556 S
C897 H882 0.959 . S
C897 H883 0.961 . S
C897 C896 1.502 1_556 S
C898 H884 0.960 . S
C898 H885 0.961 . S
C898 H886 0.959 . S
C898 C896 1.561 1_556 S
C899 C896 1.526 . S
C899 C900 1.396 . S
C899 C904 1.390 . S
C900 C894 1.465 . S
C900 C899 1.396 . S
C900 C901 1.399 . S
C901 H887 0.929 . S
C901 C900 1.399 . S
C901 C902 1.385 . S
C902 H888 0.931 . S
C902 C901 1.385 . S
C902 C903 1.389 . S
C903 C902 1.389 . S
C903 C904 1.387 . S
C904 H889 0.930 1_554 S
C904 C899 1.390 . S
C904 C903 1.387 . S
H905 C917 0.930 . S
H906 C919 0.930 . S
H907 C920 0.930 . S
H908 C924 0.959 . S
H909 C924 0.959 . S
H910 C924 0.961 . S
H911 C925 0.960 . S
H912 C925 0.961 . S
H913 C925 0.959 . S
H914 C928 0.929 . S
H915 C929 0.931 . S
H916 C931 0.930 . S
C917 H905 0.930 . S
C917 C918 1.399 . S
C917 C922 1.399 . S
C918 C917 1.399 . S
C918 C919 1.376 . S
C919 H906 0.930 . S
C919 C918 1.376 . S
C919 C920 1.388 . S
C920 H907 0.930 . S
C920 C919 1.388 . S
C920 C921 1.390 . S
C921 C920 1.390 . S
C921 C922 1.394 . S
C921 C927 1.465 . S
C922 C917 1.399 . S
C922 C921 1.394 . S
C922 C923 1.516 . S
C923 C922 1.516 . S
C923 C924 1.502 . S
C923 C925 1.561 . S
C923 C926 1.526 . S
C924 H908 0.959 . S
C924 H909 0.959 . S
C924 H910 0.961 . S
C924 C923 1.502 . S
C925 H911 0.960 . S
C925 H912 0.961 . S
C925 H913 0.959 . S
C925 C923 1.561 . S
C926 C923 1.526 . S
C926 C927 1.396 . S
C926 C931 1.390 . S
C927 C921 1.465 . S
C927 C926 1.396 . S
C927 C928 1.399 . S
C928 H914 0.929 . S
C928 C927 1.399 . S
C928 C929 1.385 . S
C929 H915 0.931 . S
C929 C928 1.385 . S
C929 C930 1.389 . S
C930 C929 1.389 . S
C930 C931 1.387 . S
C931 H916 0.930 . S
C931 C926 1.390 . S
C931 C930 1.387 . S
H932 C944 0.930 . S
H933 C946 0.930 . S
H934 C947 0.930 . S
H935 C951 0.959 . S
H936 C951 0.959 . S
H937 C951 0.961 . S
H938 C952 0.960 . S
H939 C952 0.961 . S
H940 C952 0.959 . S
H941 C955 0.929 . S
H942 C956 0.931 . S
H943 C958 0.930 . S
C944 H932 0.930 . S
C944 C945 1.399 . S
C944 C949 1.399 . S
C945 C944 1.399 . S
C945 C946 1.376 . S
C946 H933 0.930 . S
C946 C945 1.376 . S
C946 C947 1.388 . S
C947 H934 0.930 . S
C947 C946 1.388 . S
C947 C948 1.390 . S
C948 C947 1.390 . S
C948 C949 1.394 . S
C948 C954 1.465 . S
C949 C944 1.399 . S
C949 C948 1.394 . S
C949 C950 1.516 . S
C950 C949 1.516 . S
C950 C951 1.502 1_655 S
C950 C952 1.561 1_556 S
C950 C953 1.526 . S
C951 H935 0.959 . S
C951 H936 0.959 . S
C951 H937 0.961 . S
C951 C950 1.502 1_455 S
C952 H938 0.960 . S
C952 H939 0.961 . S
C952 H940 0.959 . S
C952 C950 1.561 1_554 S
C953 C950 1.526 . S
C953 C954 1.396 . S
C953 C958 1.390 . S
C954 C948 1.465 . S
C954 C953 1.396 . S
C954 C955 1.399 . S
C955 H941 0.929 . S
C955 C954 1.399 . S
C955 C956 1.385 . S
C956 H942 0.931 . S
C956 C955 1.385 . S
C956 C957 1.389 . S
C957 C956 1.389 . S
C957 C958 1.387 . S
C958 H943 0.930 . S
C958 C953 1.390 . S
C958 C957 1.387 . S
H959 C971 0.930 . S
H960 C973 0.930 . S
H961 C974 0.930 . S
H962 C978 0.959 . S
H963 C978 0.959 . S
H964 C978 0.961 . S
H965 C979 0.960 . S
H966 C979 0.961 . S
H967 C979 0.959 . S
H968 C982 0.929 . S
H969 C983 0.931 . S
H970 C985 0.930 . S
C971 H959 0.930 . S
C971 C972 1.399 . S
C971 C976 1.399 . S
C972 C971 1.399 . S
C972 C973 1.376 . S
C973 H960 0.930 . S
C973 C972 1.376 . S
C973 C974 1.388 . S
C974 H961 0.930 . S
C974 C973 1.388 . S
C974 C975 1.390 . S
C975 C974 1.390 . S
C975 C976 1.394 . S
C975 C981 1.465 . S
C976 C971 1.399 . S
C976 C975 1.394 . S
C976 C977 1.516 . S
C977 C976 1.516 . S
C977 C978 1.502 . S
C977 C979 1.561 . S
C977 C980 1.526 . S
C978 H962 0.959 . S
C978 H963 0.959 . S
C978 H964 0.961 . S
C978 C977 1.502 . S
C979 H965 0.960 . S
C979 H966 0.961 . S
C979 H967 0.959 . S
C979 C977 1.561 . S
C980 C977 1.526 . S
C980 C981 1.396 . S
C980 C985 1.390 . S
C981 C975 1.465 . S
C981 C980 1.396 . S
C981 C982 1.399 . S
C982 H968 0.929 . S
C982 C981 1.399 . S
C982 C983 1.385 . S
C983 H969 0.931 . S
C983 C982 1.385 . S
C983 C984 1.389 . S
C984 C983 1.389 . S
C984 C985 1.387 . S
C985 H970 0.930 . S
C985 C980 1.390 . S
C985 C984 1.387 . S
H986 C998 0.930 . S
H987 C1000 0.930 . S
H988 C1001 0.930 . S
H989 C1005 0.959 . S
H990 C1005 0.959 . S
H991 C1005 0.961 . S
H992 C1006 0.960 . S
H993 C1006 0.961 . S
H994 C1006 0.959 . S
H995 C1009 0.929 . S
H996 C1010 0.931 . S
H997 C1012 0.930 . S
C998 H986 0.930 . S
C998 C999 1.399 . S
C998 C1003 1.399 . S
C999 C998 1.399 . S
C999 C1000 1.376 . S
C1000 H987 0.930 . S
C1000 C999 1.376 . S
C1000 C1001 1.388 . S
C1001 H988 0.930 . S
C1001 C1000 1.388 . S
C1001 C1002 1.390 . S
C1002 C1001 1.390 . S
C1002 C1003 1.394 . S
C1002 C1008 1.465 . S
C1003 C998 1.399 . S
C1003 C1002 1.394 . S
C1003 C1004 1.516 . S
C1004 C1003 1.516 . S
C1004 C1005 1.502 . S
C1004 C1006 1.561 . S
C1004 C1007 1.526 . S
C1005 H989 0.959 . S
C1005 H990 0.959 . S
C1005 H991 0.961 . S
C1005 C1004 1.502 . S
C1006 H992 0.960 . S
C1006 H993 0.961 . S
C1006 H994 0.959 . S
C1006 C1004 1.561 . S
C1007 C1004 1.526 . S
C1007 C1008 1.396 . S
C1007 C1012 1.390 . S
C1008 C1002 1.465 . S
C1008 C1007 1.396 . S
C1008 C1009 1.399 . S
C1009 H995 0.929 . S
C1009 C1008 1.399 . S
C1009 C1010 1.385 . S
C1010 H996 0.931 . S
C1010 C1009 1.385 . S
C1010 C1011 1.389 . S
C1011 C1010 1.389 . S
C1011 C1012 1.387 . S
C1012 H997 0.930 . S
C1012 C1007 1.390 . S
C1012 C1011 1.387 . S
H1013 C1025 0.930 . S
H1014 C1027 0.930 . S
H1015 C1028 0.930 . S
H1016 C1032 0.959 . S
H1017 C1032 0.959 . S
H1018 C1032 0.961 . S
H1019 C1033 0.960 . S
H1020 C1033 0.961 . S
H1021 C1033 0.959 . S
H1022 C1036 0.929 . S
H1023 C1037 0.931 . S
H1024 C1039 0.930 . S
C1025 H1013 0.930 . S
C1025 C1026 1.399 . S
C1025 C1030 1.399 . S
C1026 C1025 1.399 . S
C1026 C1027 1.376 . S
C1027 H1014 0.930 . S
C1027 C1026 1.376 . S
C1027 C1028 1.388 . S
C1028 H1015 0.930 . S
C1028 C1027 1.388 . S
C1028 C1029 1.390 . S
C1029 C1028 1.390 . S
C1029 C1030 1.394 . S
C1029 C1035 1.465 . S
C1030 C1025 1.399 . S
C1030 C1029 1.394 . S
C1030 C1031 1.516 . S
C1031 C1030 1.516 . S
C1031 C1032 1.502 . S
C1031 C1033 1.561 . S
C1031 C1034 1.526 . S
C1032 H1016 0.959 . S
C1032 H1017 0.959 . S
C1032 H1018 0.961 . S
C1032 C1031 1.502 . S
C1033 H1019 0.960 . S
C1033 H1020 0.961 . S
C1033 H1021 0.959 . S
C1033 C1031 1.561 . S
C1034 C1031 1.526 . S
C1034 C1035 1.396 . S
C1034 C1039 1.390 . S
C1035 C1029 1.465 . S
C1035 C1034 1.396 . S
C1035 C1036 1.399 . S
C1036 H1022 0.929 . S
C1036 C1035 1.399 . S
C1036 C1037 1.385 . S
C1037 H1023 0.931 . S
C1037 C1036 1.385 . S
C1037 C1038 1.389 . S
C1038 C1037 1.389 . S
C1038 C1039 1.387 . S
C1039 H1024 0.930 . S
C1039 C1034 1.390 . S
C1039 C1038 1.387 . S
C405 C29 2.288 . S
C417 C256 2.363 . S
C432 C49 2.242 . S
C444 C298 2.244 . S
C471 C328 0.975 . S
C459 C93 1.032 . S
C486 C119 0.998 . S
C498 C362 0.973 . S
C525 C319 1.844 . S
C513 C17 1.710 . S
C552 C273 1.871 . S
C540 C61 1.879 . S
C579 C366 1.300 . S
C567 C81 1.263 . S
C606 C332 1.440 . S
C594 C125 1.264 . S
C621 C23 2.081 . S
C633 C387 2.175 . S
C660 C294 1.093 . S
C648 C87 1.016 . S
C675 C113 1.149 . S
C687 C269 1.155 . S
C702 C55 2.159 . S
C714 C353 2.157 . S
C741 C285 2.299 . S
C729 C157 2.292 . S
C756 C189 2.183 . S
C768 C307 2.288 . S
C783 C221 0.976 . S
C795 C337 0.971 . S
C810 C253 0.923 . S
C822 C371 1.057 . S
C837 C145 1.876 . S
C849 C290 1.878 . S
C876 C264 1.797 . S
C864 C183 1.753 . S
C903 C375 1.370 . S
C891 C209 1.367 . S
C930 C341 1.374 . S
C918 C247 1.328 . S
C945 C151 2.192 . S
C957 C358 2.200 . S
C984 C303 1.118 . S
C972 C215 1.134 . S
C1011 C260 1.156 . S
C999 C241 1.020 . S
C1026 C177 2.138 . S
C1038 C324 2.196 . S
