# Generated by pormake.
# Topology ssa, (4,4)-cn, num edge types: 1
# Building blocks:
#     Node 0, Type 0, BuildingBlock: ESEHIV_clean_sbu_0, # of connection points: 4
#     Node 1, Type 0, BuildingBlock: ESEHIV_clean_sbu_0, # of connection points: 4
#     Node 2, Type 0, BuildingBlock: ESEHIV_clean_sbu_0, # of connection points: 4
#     Node 3, Type 0, BuildingBlock: ESEHIV_clean_sbu_0, # of connection points: 4
#     Node 4, Type 0, BuildingBlock: ESEHIV_clean_sbu_0, # of connection points: 4
#     Node 5, Type 0, BuildingBlock: ESEHIV_clean_sbu_0, # of connection points: 4
#     Node 6, Type 1, BuildingBlock: NAHDIM_clean_linker_0, # of connection points: 4
#     Node 7, Type 1, BuildingBlock: NAHDIM_clean_linker_0, # of connection points: 4
#     Node 8, Type 1, BuildingBlock: NAHDIM_clean_linker_0, # of connection points: 4
#     Node 9, Type 1, BuildingBlock: NAHDIM_clean_linker_0, # of connection points: 4
#     Node 10, Type 1, BuildingBlock: NAHDIM_clean_linker_0, # of connection points: 4
#     Node 11, Type 1, BuildingBlock: NAHDIM_clean_linker_0, # of connection points: 4
#     Edge 12, Type (0, 1), BuildingBlock: CIFDUS_clean_linker_0, # of connection points: 2
#     Edge 13, Type (0, 1), BuildingBlock: CIFDUS_clean_linker_0, # of connection points: 2
#     Edge 14, Type (0, 1), BuildingBlock: CIFDUS_clean_linker_0, # of connection points: 2
#     Edge 15, Type (0, 1), BuildingBlock: CIFDUS_clean_linker_0, # of connection points: 2
#     Edge 16, Type (0, 1), BuildingBlock: CIFDUS_clean_linker_0, # of connection points: 2
#     Edge 17, Type (0, 1), BuildingBlock: CIFDUS_clean_linker_0, # of connection points: 2
#     Edge 18, Type (0, 1), BuildingBlock: CIFDUS_clean_linker_0, # of connection points: 2
#     Edge 19, Type (0, 1), BuildingBlock: CIFDUS_clean_linker_0, # of connection points: 2
#     Edge 20, Type (0, 1), BuildingBlock: CIFDUS_clean_linker_0, # of connection points: 2
#     Edge 21, Type (0, 1), BuildingBlock: CIFDUS_clean_linker_0, # of connection points: 2
#     Edge 22, Type (0, 1), BuildingBlock: CIFDUS_clean_linker_0, # of connection points: 2
#     Edge 23, Type (0, 1), BuildingBlock: CIFDUS_clean_linker_0, # of connection points: 2
#     Edge 24, Type (0, 1), BuildingBlock: CIFDUS_clean_linker_0, # of connection points: 2
#     Edge 25, Type (0, 1), BuildingBlock: CIFDUS_clean_linker_0, # of connection points: 2
#     Edge 26, Type (0, 1), BuildingBlock: CIFDUS_clean_linker_0, # of connection points: 2
#     Edge 27, Type (0, 1), BuildingBlock: CIFDUS_clean_linker_0, # of connection points: 2
#     Edge 28, Type (0, 1), BuildingBlock: CIFDUS_clean_linker_0, # of connection points: 2
#     Edge 29, Type (0, 1), BuildingBlock: CIFDUS_clean_linker_0, # of connection points: 2
#     Edge 30, Type (0, 1), BuildingBlock: CIFDUS_clean_linker_0, # of connection points: 2
#     Edge 31, Type (0, 1), BuildingBlock: CIFDUS_clean_linker_0, # of connection points: 2
#     Edge 32, Type (0, 1), BuildingBlock: CIFDUS_clean_linker_0, # of connection points: 2
#     Edge 33, Type (0, 1), BuildingBlock: CIFDUS_clean_linker_0, # of connection points: 2
#     Edge 34, Type (0, 1), BuildingBlock: CIFDUS_clean_linker_0, # of connection points: 2
#     Edge 35, Type (0, 1), BuildingBlock: CIFDUS_clean_linker_0, # of connection points: 2
# Relax obj value: 0.018
# Max RMSD: 0.107
# Mean RMSD: 0.071
data_MOF--net-ssa--node1-ESEHIV_clean_sbu_0--node2-NAHDIM_clean_linker_0--edge1-CIFDUS_clean_linker_0
_symmetry_space_group_name_H-M    P1
_symmetry_Int_Tables_number       1
_symmetry_cell_setting            triclinic
loop_
_symmetry_equiv_pos_as_xyz
'x, y, z'
_cell_length_a     56.546022
_cell_length_b     59.979866
_cell_length_c     50.189495
_cell_angle_alpha  88.353702
_cell_angle_beta   91.24459
_cell_angle_gamma 122.05325
loop_
_atom_site_label
_atom_site_type_symbol
_atom_site_fract_x
_atom_site_fract_y
_atom_site_fract_z
_atom_type_partial_charge
Cu0 Cu 0.02974 0.52027 0.99683 0.0
N1 N 0.02768 0.50032 0.96807 0.0
N2 N 0.01088 0.46479 0.94273 0.0
C3 C 0.00779 0.47482 0.96526 0.0
C4 C 0.03377 0.48518 0.93093 0.0
C5 C 0.04399 0.50705 0.94655 0.0
O6 O 0.99944 0.52636 0.99251 0.0
C7 C 0.04394 0.49247 0.0311 0.0
O8 O 0.05951 0.49569 0.01053 0.0
H9 H 0.99134 0.46411 0.97964 0.0
H10 H 0.06195 0.52644 0.94243 0.0
N11 N 0.06326 0.55264 0.99847 0.0
N12 N 0.09388 0.59256 0.01401 0.0
C13 C 0.06679 0.57307 0.01231 0.0
C14 C 0.08899 0.55931 0.99112 0.0
C15 C 0.10797 0.58401 1.00063 0.0
C16 C 0.00146 0.54132 0.973 0.0
O17 O 0.02379 0.55194 0.95801 0.0
H18 H 0.04995 0.57283 0.02244 0.0
H19 H 0.09379 0.54659 0.98087 0.0
O20 O 0.02784 0.50132 0.02954 0.0
H21 H 0.04281 0.48457 0.91242 0.0
H22 H 0.13041 0.59447 0.99862 0.0
Cu23 Cu 0.52142 0.0204 0.51118 0.0
N24 N 0.54089 0.0198 0.48197 0.0
N25 N 0.56006 0.0041 0.45583 0.0
C26 C 0.54452 0.99981 0.47763 0.0
C27 C 0.56653 0.02792 0.4461 0.0
C28 C 0.55463 0.03756 0.46228 0.0
O29 O 0.48426 0.98911 0.50916 0.0
C30 C 0.56767 0.03924 0.54345 0.0
O31 O 0.57837 0.05524 0.52269 0.0
H32 H 0.53658 0.98279 0.49084 0.0
H33 H 0.55635 0.05635 0.46009 0.0
N34 N 0.51816 0.04976 0.5119 0.0
N35 N 0.50847 0.07786 0.52935 0.0
C36 C 0.51361 0.0586 0.53435 0.0
C37 C 0.51598 0.06401 0.49188 0.0
C38 C 0.50992 0.08136 0.50261 0.0
C39 C 0.47018 0.98767 0.48842 0.0
O40 O 0.4814 0.0071 0.47079 0.0
H41 H 0.51255 0.04997 0.55388 0.0
H42 H 0.51745 0.06125 0.47093 0.0
O43 O 0.54187 0.02128 0.54305 0.0
H44 H 0.57905 0.03775 0.42863 0.0
H45 H 0.50623 0.09501 0.49157 0.0
Cu46 Cu 0.52383 0.50693 0.043 0.0
N47 N 0.51776 0.47349 0.03811 0.0
N48 N 0.50721 0.43746 0.01614 0.0
C49 C 0.51277 0.46224 0.01418 0.0
C50 C 0.5087 0.43283 0.0424 0.0
C51 C 0.51541 0.45522 0.05595 0.0
O52 O 0.54602 0.52824 0.01275 0.0
C53 C 0.47191 0.4868 0.06366 0.0
O54 O 0.48203 0.47627 0.0799 0.0
H55 H 0.51229 0.47181 0.99574 0.0
H56 H 0.51777 0.45777 0.07729 0.0
N57 N 0.54375 0.52227 0.07423 0.0
N58 N 0.56252 0.55059 0.1076 0.0
C59 C 0.54464 0.54228 0.08668 0.0
C60 C 0.56155 0.51762 0.08777 0.0
C61 C 0.57323 0.53512 0.10837 0.0
C62 C 0.56828 0.52812 0.00989 0.0
O63 O 0.57436 0.51547 0.02781 0.0
H64 H 0.53303 0.55109 0.07997 0.0
H65 H 0.56614 0.50291 0.08271 0.0
O66 O 0.48732 0.50253 0.0452 0.0
H67 H 0.50503 0.41456 0.05116 0.0
H68 H 0.58839 0.53635 0.12277 0.0
Cu69 Cu 0.98475 0.47714 0.50664 0.0
N70 N 0.98301 0.46363 0.47312 0.0
N71 N 0.99966 0.4521 0.4397 0.0
C72 C 0.0055 0.46989 0.45861 0.0
C73 C 0.97211 0.43407 0.44208 0.0
C74 C 0.9619 0.44125 0.46274 0.0
O75 O 0.01573 0.51346 0.50721 0.0
C76 C 0.9889 0.45453 0.55724 0.0
O77 O 0.99498 0.47639 0.56872 0.0
H78 H 0.02636 0.48558 0.46362 0.0
H79 H 0.94122 0.42971 0.47116 0.0
N80 N 0.95324 0.4784 0.51338 0.0
N81 N 0.92771 0.49091 0.5341 0.0
C82 C 0.94969 0.48792 0.53585 0.0
C83 C 0.93276 0.47521 0.49668 0.0
C84 C 0.91695 0.483 0.50944 0.0
C85 C 0.04173 0.52267 0.5052 0.0
O86 O 0.05097 0.50667 0.50602 0.0
H87 H 0.96426 0.49449 0.5524 0.0
H88 H 0.93043 0.46908 0.47624 0.0
O89 O 0.98598 0.45282 0.53205 0.0
H90 H 0.9606 0.41605 0.43104 0.0
H91 H 0.89962 0.48374 0.50092 0.0
Cu92 Cu 0.52081 0.0133 0.0269 0.0
N93 N 0.51864 0.04279 0.02006 0.0
N94 N 0.51205 0.07081 0.99574 0.0
C95 C 0.5193 0.05273 0.99555 0.0
C96 C 0.50674 0.07243 0.02147 0.0
C97 C 0.51091 0.05511 0.03649 0.0
O98 O 0.5324 0.00685 0.99317 0.0
C99 C 0.47658 0.96219 0.04504 0.0
O100 O 0.49283 0.95357 0.03909 0.0
H101 H 0.52287 0.04533 0.97764 0.0
H102 H 0.50699 0.05067 0.05756 0.0
N103 N 0.54696 0.02019 0.05391 0.0
N104 N 0.57222 0.01339 0.0841 0.0
C105 C 0.55003 0.00218 0.06743 0.0
C106 C 0.56782 0.0437 0.06245 0.0
C107 C 0.58353 0.03957 0.08107 0.0
C108 C 0.55644 0.01035 0.98994 0.0
O109 O 0.57129 0.01171 0.011 0.0
H110 H 0.5372 0.98132 0.06409 0.0
H111 H 0.57173 0.0625 0.05513 0.0
O112 O 0.48423 0.98587 0.03939 0.0
H113 H 0.49926 0.0844 0.02872 0.0
H114 H 0.60197 0.05464 0.0913 0.0
Cu115 Cu 0.49984 0.48971 0.50482 0.0
N116 N 0.51157 0.52121 0.48616 0.0
N117 N 0.52846 0.56311 0.47391 0.0
C118 C 0.52179 0.54586 0.49464 0.0
C119 C 0.52219 0.54864 0.45179 0.0
C120 C 0.51181 0.52295 0.45941 0.0
O121 O 0.47052 0.46207 0.4831 0.0
C122 C 0.55641 0.5039 0.50925 0.0
O123 O 0.56172 0.52356 0.49302 0.0
H124 H 0.52433 0.55096 0.51546 0.0
H125 H 0.50525 0.50659 0.44636 0.0
N126 N 0.48465 0.48803 0.53793 0.0
N127 N 0.46829 0.47119 0.5784 0.0
C128 C 0.48285 0.4714 0.55744 0.0
C129 C 0.471 0.49908 0.54693 0.0
C130 C 0.46059 0.48846 0.57194 0.0
C131 C 0.4497 0.4646 0.47921 0.0
O132 O 0.45014 0.48438 0.49033 0.0
H133 H 0.49083 0.45861 0.55568 0.0
H134 H 0.46791 0.51303 0.53575 0.0
O135 O 0.53114 0.48568 0.51339 0.0
H136 H 0.52559 0.55613 0.43146 0.0
H137 H 0.44789 0.49263 0.58414 0.0
C138 C 0.11563 0.40531 0.42317 0.0
C139 C 0.11084 0.41771 0.39817 0.0
C140 C 0.1289 0.4073 0.35996 0.0
C141 C 0.14944 0.43272 0.35119 0.0
C142 C 0.17148 0.43681 0.33519 0.0
C143 C 0.17271 0.41497 0.32733 0.0
C144 C 0.15153 0.38925 0.33538 0.0
C145 C 0.12975 0.38574 0.35149 0.0
C146 C 0.19338 0.46449 0.32651 0.0
C147 C 0.15194 0.36554 0.32689 0.0
C148 C 0.36752 0.44223 0.39864 0.0
C149 C 0.34933 0.43343 0.37447 0.0
C150 C 0.31536 0.44291 0.35395 0.0
C151 C 0.29882 0.41886 0.34099 0.0
C152 C 0.27529 0.41388 0.32587 0.0
C153 C 0.26866 0.43355 0.32322 0.0
C154 C 0.28576 0.45797 0.33579 0.0
C155 C 0.30869 0.46217 0.35117 0.0
C156 C 0.25728 0.38751 0.31302 0.0
C157 C 0.27959 0.47954 0.3334 0.0
C158 C 0.31527 0.46755 0.14839 0.0
C159 C 0.29181 0.44168 0.14835 0.0
C160 C 0.26848 0.43447 0.16406 0.0
C161 C 0.26811 0.45365 0.17952 0.0
C162 C 0.29121 0.47992 0.17881 0.0
C163 C 0.31462 0.48642 0.1635 0.0
C164 C 0.24422 0.40627 0.16414 0.0
C165 C 0.29126 0.50112 0.19434 0.0
C166 C 0.0511 0.40248 0.16341 0.0
C167 C 0.07922 0.4242 0.15215 0.0
C168 C 0.11989 0.41977 0.15951 0.0
C169 C 0.12629 0.40028 0.16151 0.0
C170 C 0.15104 0.40511 0.17379 0.0
C171 C 0.17015 0.43033 0.18393 0.0
C172 C 0.16437 0.45053 0.18106 0.0
C173 C 0.13929 0.44509 0.16877 0.0
C174 C 0.15654 0.38312 0.17639 0.0
C175 C 0.18455 0.47774 0.1913 0.0
C176 C 0.19594 0.41918 0.31028 0.0
C177 C 0.21966 0.42192 0.32276 0.0
C178 C 0.2434 0.42853 0.30813 0.0
C179 C 0.2435 0.43244 0.28016 0.0
C180 C 0.26714 0.43967 0.26483 0.0
C181 C 0.26714 0.44386 0.2374 0.0
C182 C 0.24364 0.44139 0.22425 0.0
C183 C 0.24359 0.44611 0.19644 0.0
C184 C 0.2196 0.44292 0.18401 0.0
C185 C 0.19551 0.43508 0.19857 0.0
C186 C 0.19536 0.43074 0.22643 0.0
C187 C 0.1716 0.42321 0.24171 0.0
C188 C 0.17169 0.41926 0.26912 0.0
C189 C 0.19545 0.42245 0.28232 0.0
C190 C 0.21942 0.42941 0.26725 0.0
C191 C 0.21949 0.43387 0.23929 0.0
C192 C 0.37188 0.47157 0.10805 0.0
C193 C 0.34314 0.45887 0.11868 0.0
O194 O 0.10783 0.40292 0.37617 0.0
O195 O 0.0952 0.41336 0.14785 0.0
O196 O 0.33882 0.47502 0.13441 0.0
O197 O 0.33755 0.44842 0.36973 0.0
H198 H 0.12953 0.43794 0.39632 0.0
H199 H 0.13545 0.40583 0.42129 0.0
H200 H 0.0984 0.38447 0.42592 0.0
H201 H 0.1172 0.41647 0.44112 0.0
H202 H 0.14813 0.4494 0.35644 0.0
H203 H 0.11352 0.36616 0.35796 0.0
H204 H 0.21447 0.46868 0.33193 0.0
H205 H 0.19042 0.47947 0.3357 0.0
H206 H 0.19261 0.4665 0.30451 0.0
H207 H 0.13353 0.34679 0.33423 0.0
H208 H 0.17119 0.36686 0.33462 0.0
H209 H 0.1524 0.36523 0.3048 0.0
H210 H 0.35847 0.43071 0.35633 0.0
H211 H 0.38914 0.44993 0.39089 0.0
H212 H 0.34722 0.40975 0.42552 0.0
H213 H 0.37197 0.46235 0.40353 0.0
H214 H 0.30391 0.40385 0.34293 0.0
H215 H 0.32161 0.48065 0.36126 0.0
H216 H 0.23529 0.37842 0.3194 0.0
H217 H 0.26431 0.37377 0.31815 0.0
H218 H 0.25772 0.39022 0.29103 0.0
H219 H 0.29704 0.49853 0.34106 0.0
H220 H 0.26063 0.47374 0.34504 0.0
H221 H 0.27538 0.4825 0.3123 0.0
H222 H 0.33522 0.43895 0.12773 0.0
H223 H 0.2915 0.42689 0.13627 0.0
H224 H 0.33261 0.50637 0.16324 0.0
H225 H 0.23767 0.3989 0.18489 0.0
H226 H 0.2493 0.39305 0.15413 0.0
H227 H 0.22623 0.40522 0.15356 0.0
H228 H 0.30905 0.52108 0.1889 0.0
H229 H 0.29272 0.49762 0.21597 0.0
H230 H 0.27148 0.50053 0.19082 0.0
H231 H 0.08905 0.43991 0.16721 0.0
H232 H 0.03794 0.41042 0.16835 0.0
H233 H 0.05453 0.39401 0.18199 0.0
H234 H 0.03977 0.38649 0.1488 0.0
H235 H 0.11142 0.38095 0.15386 0.0
H236 H 0.1352 0.46072 0.16619 0.0
H237 H 0.15875 0.3792 0.19777 0.0
H238 H 0.17647 0.38908 0.16648 0.0
H239 H 0.13959 0.36462 0.16741 0.0
H240 H 0.17768 0.49165 0.18649 0.0
H241 H 0.20549 0.48559 0.18258 0.0
H242 H 0.18673 0.47671 0.21327 0.0
H243 H 0.21999 0.41971 0.34428 0.0
H244 H 0.28593 0.44216 0.27389 0.0
H245 H 0.28589 0.44924 0.22665 0.0
H246 H 0.21954 0.44619 0.16263 0.0
H247 H 0.1527 0.42049 0.23269 0.0
H248 H 0.15285 0.41366 0.27985 0.0
H249 H 0.36621 0.4729 0.0665 0.0
H250 H 0.38077 0.46031 0.11757 0.0
H251 H 0.38531 0.48978 0.12009 0.0
C252 C 0.93536 0.3063 0.89444 0.0
C253 C 0.93102 0.32378 0.8745 0.0
C254 C 0.88279 0.2958 0.85787 0.0
C255 C 0.88714 0.27825 0.84399 0.0
C256 C 0.86547 0.25769 0.8294 0.0
C257 C 0.83908 0.2551 0.82779 0.0
C258 C 0.83466 0.27285 0.8415 0.0
C259 C 0.85652 0.29278 0.85661 0.0
C260 C 0.8709 0.2387 0.81577 0.0
C261 C 0.80696 0.27092 0.84004 0.0
C262 C 0.66963 0.13241 0.89754 0.0
C263 C 0.66343 0.10803 0.88212 0.0
C264 C 0.70783 0.12803 0.85782 0.0
C265 C 0.70328 0.14445 0.84079 0.0
C266 C 0.72503 0.16446 0.82541 0.0
C267 C 0.75161 0.16743 0.82613 0.0
C268 C 0.75582 0.14997 0.8421 0.0
C269 C 0.73388 0.13059 0.85785 0.0
C270 C 0.71965 0.18277 0.80883 0.0
C271 C 0.78358 0.15199 0.84283 0.0
C272 C 0.73012 0.11571 0.65956 0.0
C273 C 0.71995 0.13187 0.66535 0.0
C274 C 0.7375 0.15659 0.67681 0.0
C275 C 0.76557 0.16499 0.683 0.0
C276 C 0.77609 0.14916 0.67608 0.0
C277 C 0.75826 0.12487 0.66407 0.0
C278 C 0.72589 0.17342 0.68295 0.0
C279 C 0.8059 0.15749 0.68218 0.0
C280 C 0.9371 0.37499 0.64107 0.0
C281 C 0.92246 0.35061 0.6579 0.0
C282 C 0.88125 0.3067 0.6574 0.0
C283 C 0.85279 0.29709 0.65498 0.0
C284 C 0.83294 0.27381 0.66831 0.0
C285 C 0.84183 0.25921 0.68344 0.0
C286 C 0.87062 0.26809 0.68449 0.0
C287 C 0.89008 0.2921 0.67197 0.0
C288 C 0.80256 0.26517 0.66662 0.0
C289 C 0.88099 0.25247 0.69904 0.0
C290 C 0.81635 0.23379 0.81167 0.0
C291 C 0.79515 0.21147 0.82499 0.0
C292 C 0.77512 0.18941 0.81093 0.0
C293 C 0.77715 0.18907 0.78292 0.0
C294 C 0.75929 0.16632 0.76842 0.0
C295 C 0.76146 0.16622 0.74087 0.0
C296 C 0.78115 0.18904 0.72665 0.0
C297 C 0.78331 0.18919 0.6986 0.0
C298 C 0.80323 0.21222 0.68515 0.0
C299 C 0.82117 0.23533 0.69895 0.0
C300 C 0.81931 0.23547 0.72705 0.0
C301 C 0.83684 0.25829 0.74168 0.0
C302 C 0.83592 0.25781 0.76937 0.0
C303 C 0.81681 0.23474 0.78349 0.0
C304 C 0.79771 0.21202 0.76911 0.0
C305 C 0.79935 0.2122 0.7409 0.0
C306 C 0.68182 0.04726 0.66271 0.0
C307 C 0.68558 0.07377 0.65472 0.0
O308 O 0.90304 0.3156 0.87284 0.0
O309 O 0.89972 0.32985 0.64514 0.0
O310 O 0.71362 0.09136 0.64935 0.0
O311 O 0.68804 0.10998 0.87486 0.0
H312 H 0.93851 0.32244 0.85463 0.0
H313 H 0.92492 0.28584 0.88734 0.0
H314 H 0.92656 0.30566 0.91422 0.0
H315 H 0.95797 0.31389 0.89682 0.0
H316 H 0.90726 0.28017 0.84455 0.0
H317 H 0.85327 0.30634 0.86735 0.0
H318 H 0.85336 0.2181 0.81915 0.0
H319 H 0.89053 0.24043 0.82292 0.0
H320 H 0.87263 0.24281 0.79397 0.0
H321 H 0.80792 0.28807 0.8491 0.0
H322 H 0.79102 0.25277 0.85075 0.0
H323 H 0.79997 0.2695 0.81896 0.0
H324 H 0.65098 0.10613 0.86389 0.0
H325 H 0.64988 0.1302 0.90425 0.0
H326 H 0.68057 0.15053 0.88495 0.0
H327 H 0.68294 0.13513 0.91529 0.0
H328 H 0.68299 0.14216 0.83976 0.0
H329 H 0.73715 0.11762 0.87071 0.0
H330 H 0.71981 0.17888 0.78738 0.0
H331 H 0.73635 0.20358 0.81226 0.0
H332 H 0.69919 0.18021 0.81337 0.0
H333 H 0.78226 0.13465 0.85295 0.0
H334 H 0.79903 0.1699 0.85372 0.0
H335 H 0.79145 0.1539 0.82228 0.0
H336 H 0.67887 0.08032 0.67198 0.0
H337 H 0.6984 0.12526 0.66087 0.0
H338 H 0.76598 0.11241 0.65903 0.0
H339 H 0.7234 0.17344 0.70482 0.0
H340 H 0.70526 0.16612 0.67326 0.0
H341 H 0.74057 0.19409 0.67626 0.0
H342 H 0.81056 0.14248 0.67637 0.0
H343 H 0.81022 0.16111 0.70383 0.0
H344 H 0.82029 0.17621 0.67136 0.0
H345 H 0.9178 0.35328 0.67865 0.0
H346 H 0.97696 0.38097 0.63552 0.0
H347 H 0.93388 0.38954 0.65152 0.0
H348 H 0.92262 0.3723 0.62395 0.0
H349 H 0.84624 0.30842 0.64335 0.0
H350 H 0.91213 0.29924 0.6732 0.0
H351 H 0.79341 0.26084 0.68687 0.0
H352 H 0.79088 0.24681 0.65508 0.0
H353 H 0.79951 0.28028 0.65674 0.0
H354 H 0.90213 0.25823 0.69231 0.0
H355 H 0.86652 0.23104 0.69606 0.0
H356 H 0.88221 0.25613 0.72071 0.0
H357 H 0.7943 0.21119 0.84658 0.0
H358 H 0.74367 0.14824 0.77827 0.0
H359 H 0.74735 0.14799 0.73089 0.0
H360 H 0.8049 0.2121 0.66366 0.0
H361 H 0.8518 0.27672 0.73195 0.0
H362 H 0.85026 0.27583 0.7796 0.0
H363 H 0.65992 0.0328 0.66858 0.0
H364 H 0.69555 0.04979 0.68003 0.0
H365 H 0.68745 0.03929 0.64593 0.0
C366 C 0.61233 0.73236 0.47266 0.0
C367 C 0.59295 0.71746 0.44921 0.0
C368 C 0.60572 0.74132 0.40606 0.0
C369 C 0.57989 0.738 0.39885 0.0
C370 C 0.57802 0.7534 0.37831 0.0
C371 C 0.60247 0.77264 0.36485 0.0
C372 C 0.6284 0.77562 0.37166 0.0
C373 C 0.62956 0.75959 0.39192 0.0
C374 C 0.54991 0.74924 0.37111 0.0
C375 C 0.65495 0.79606 0.35788 0.0
C376 C 0.60704 0.95726 0.39087 0.0
C377 C 0.61583 0.94028 0.37917 0.0
C378 C 0.59601 0.89481 0.36549 0.0
C379 C 0.62188 0.89727 0.36164 0.0
C380 C 0.6232 0.87604 0.35252 0.0
C381 C 0.59821 0.85187 0.34721 0.0
C382 C 0.57217 0.84917 0.35157 0.0
C383 C 0.57145 0.87073 0.36063 0.0
C384 C 0.6513 0.8795 0.34813 0.0
C385 C 0.54512 0.82362 0.34626 0.0
C386 C 0.59207 0.87244 0.17675 0.0
C387 C 0.61822 0.87727 0.18519 0.0
C388 C 0.6204 0.85787 0.1993 0.0
C389 C 0.59593 0.83332 0.20534 0.0
C390 C 0.56983 0.82785 0.19531 0.0
C391 C 0.56833 0.84745 0.18087 0.0
C392 C 0.64869 0.86407 0.20891 0.0
C393 C 0.54336 0.80177 0.201 0.0
C394 C 0.58536 0.65387 0.23156 0.0
C395 C 0.57255 0.6578 0.20597 0.0
C396 C 0.59107 0.70505 0.20374 0.0
C397 C 0.61708 0.72847 0.20563 0.0
C398 C 0.61951 0.75149 0.21493 0.0
C399 C 0.59522 0.75107 0.2221 0.0
C400 C 0.56873 0.72775 0.21908 0.0
C401 C 0.56691 0.70502 0.20982 0.0
C402 C 0.64803 0.77613 0.21756 0.0
C403 C 0.54233 0.72681 0.22585 0.0
C404 C 0.60109 0.79049 0.34461 0.0
C405 C 0.6006 0.81205 0.35381 0.0
C406 C 0.59928 0.82974 0.33609 0.0
C407 C 0.59877 0.82614 0.30832 0.0
C408 C 0.59768 0.84372 0.28997 0.0
C409 C 0.59707 0.84003 0.26271 0.0
C410 C 0.59767 0.81867 0.25265 0.0
C411 C 0.59714 0.81487 0.22489 0.0
C412 C 0.597 0.79305 0.21555 0.0
C413 C 0.59737 0.77478 0.23328 0.0
C414 C 0.59846 0.77857 0.26112 0.0
C415 C 0.59918 0.76078 0.27953 0.0
C416 C 0.6 0.76459 0.30688 0.0
C417 C 0.60017 0.78634 0.31688 0.0
C418 C 0.59923 0.80438 0.29868 0.0
C419 C 0.59857 0.80059 0.27079 0.0
C420 C 0.60686 0.92553 0.19783 0.0
C421 C 0.6058 0.91841 0.16848 0.0
O422 O 0.60846 0.72697 0.42598 0.0
O423 O 0.59005 0.68306 0.1957 0.0
O424 O 0.58869 0.89141 0.16528 0.0
O425 O 0.59381 0.91506 0.3737 0.0
H426 H 0.57612 0.72176 0.44949 0.0
H427 H 0.62186 0.75385 0.46934 0.0
H428 H 0.62943 0.72843 0.47449 0.0
H429 H 0.60043 0.72676 0.49156 0.0
H430 H 0.56104 0.72322 0.40887 0.0
H431 H 0.64932 0.76174 0.39733 0.0
H432 H 0.54939 0.76669 0.37693 0.0
H433 H 0.53252 0.73154 0.38122 0.0
H434 H 0.54646 0.74717 0.34921 0.0
H435 H 0.67366 0.79697 0.36662 0.0
H436 H 0.6577 0.81575 0.35921 0.0
H437 H 0.65357 0.79147 0.33643 0.0
H438 H 0.63103 0.94958 0.36251 0.0
H439 H 0.61313 0.97359 0.3757 0.0
H440 H 0.62418 0.96413 0.4298 0.0
H441 H 0.58395 0.94746 0.38682 0.0
H442 H 0.64111 0.91571 0.36553 0.0
H443 H 0.5516 0.86894 0.36378 0.0
H444 H 0.6533 0.87615 0.32687 0.0
H445 H 0.65303 0.86465 0.36025 0.0
H446 H 0.66885 0.89944 0.35348 0.0
H447 H 0.52661 0.82433 0.35177 0.0
H448 H 0.54475 0.80731 0.35768 0.0
H449 H 0.54357 0.81906 0.32478 0.0
H450 H 0.62721 0.92516 0.16165 0.0
H451 H 0.63689 0.89627 0.18136 0.0
H452 H 0.54832 0.84377 0.17383 0.0
H453 H 0.65052 0.86738 0.23071 0.0
H454 H 0.66592 0.88196 0.19889 0.0
H455 H 0.6512 0.84723 0.20538 0.0
H456 H 0.5247 0.80061 0.19181 0.0
H457 H 0.54021 0.79855 0.22287 0.0
H458 H 0.54518 0.7856 0.19325 0.0
H459 H 0.55215 0.65463 0.21178 0.0
H460 H 0.57265 0.63312 0.23883 0.0
H461 H 0.58584 0.66673 0.24733 0.0
H462 H 0.60711 0.65914 0.22827 0.0
H463 H 0.63559 0.72848 0.20043 0.0
H464 H 0.54653 0.6875 0.20704 0.0
H465 H 0.65193 0.78233 0.23866 0.0
H466 H 0.6489 0.79234 0.20546 0.0
H467 H 0.66491 0.77333 0.21101 0.0
H468 H 0.52326 0.70744 0.22153 0.0
H469 H 0.54128 0.74234 0.21432 0.0
H470 H 0.54254 0.73085 0.24733 0.0
H471 H 0.60115 0.81503 0.3751 0.0
H472 H 0.59725 0.86056 0.29646 0.0
H473 H 0.59607 0.85419 0.24966 0.0
H474 H 0.59613 0.79003 0.19426 0.0
H475 H 0.59914 0.74372 0.27301 0.0
H476 H 0.60047 0.75024 0.3201 0.0
H477 H 0.61649 0.91692 0.21047 0.0
H478 H 0.61967 0.94722 0.20011 0.0
H479 H 0.58548 0.91804 0.20526 0.0
C480 C 0.70984 0.60047 0.90573 0.0
C481 C 0.68145 0.58007 0.89332 0.0
C482 C 0.70121 0.56254 0.86248 0.0
C483 C 0.71748 0.58517 0.84658 0.0
C484 C 0.73862 0.58733 0.83036 0.0
C485 C 0.74253 0.56592 0.82914 0.0
C486 C 0.72456 0.54235 0.84352 0.0
C487 C 0.70424 0.54106 0.86011 0.0
C488 C 0.75725 0.61272 0.81517 0.0
C489 C 0.72742 0.51878 0.84221 0.0
C490 C 0.89332 0.59881 0.9357 0.0
C491 C 0.89451 0.58065 0.91572 0.0
C492 C 0.87826 0.58741 0.87249 0.0
C493 C 0.85613 0.56188 0.86684 0.0
C494 C 0.83518 0.55777 0.84843 0.0
C495 C 0.83639 0.57966 0.83551 0.0
C496 C 0.85917 0.60537 0.8406 0.0
C497 C 0.88005 0.60886 0.85879 0.0
C498 C 0.81161 0.53004 0.84294 0.0
C499 C 0.8612 0.62913 0.82714 0.0
C500 C 0.88335 0.57507 0.66295 0.0
C501 C 0.86536 0.55101 0.67612 0.0
C502 C 0.84225 0.54717 0.69024 0.0
C503 C 0.83736 0.56796 0.69147 0.0
C504 C 0.85537 0.59212 0.67795 0.0
C505 C 0.8779 0.59518 0.66352 0.0
C506 C 0.82291 0.52086 0.70363 0.0
C507 C 0.85081 0.61472 0.67867 0.0
C508 C 0.66163 0.5686 0.6377 0.0
C509 C 0.67684 0.561 0.61849 0.0
C510 C 0.70129 0.54634 0.64839 0.0
C511 C 0.70186 0.52455 0.65812 0.0
C512 C 0.72239 0.52743 0.67645 0.0
C513 C 0.74294 0.55282 0.68521 0.0
C514 C 0.74237 0.57496 0.67575 0.0
C515 C 0.72155 0.57153 0.65755 0.0
C516 C 0.72233 0.5034 0.68628 0.0
C517 C 0.76405 0.60237 0.68459 0.0
C518 C 0.76659 0.56869 0.81457 0.0
C519 C 0.78998 0.57377 0.82962 0.0
C520 C 0.81311 0.57565 0.81775 0.0
C521 C 0.81331 0.57295 0.78987 0.0
C522 C 0.83646 0.57531 0.77714 0.0
C523 C 0.83649 0.5727 0.74967 0.0
C524 C 0.81315 0.56712 0.73393 0.0
C525 C 0.81288 0.56426 0.70602 0.0
C526 C 0.7894 0.55892 0.69101 0.0
C527 C 0.76606 0.55652 0.70298 0.0
C528 C 0.7658 0.55909 0.73088 0.0
C529 C 0.74253 0.55648 0.74364 0.0
C530 C 0.74267 0.55949 0.77106 0.0
C531 C 0.76612 0.56534 0.78674 0.0
C532 C 0.78967 0.56767 0.77434 0.0
C533 C 0.7895 0.56453 0.74638 0.0
C534 C 0.95312 0.59314 0.65631 0.0
C535 C 0.92284 0.56998 0.65592 0.0
O536 O 0.68247 0.56039 0.88048 0.0
O537 O 0.68102 0.54215 0.63032 0.0
O538 O 0.90581 0.57943 0.6491 0.0
O539 O 0.89864 0.59194 0.89036 0.0
H540 H 0.67482 0.59011 0.87879 0.0
H541 H 0.72507 0.61338 0.89034 0.0
H542 H 0.71874 0.59055 0.9174 0.0
H543 H 0.70739 0.61351 0.91918 0.0
H544 H 0.71405 0.60127 0.84709 0.0
H545 H 0.69108 0.52343 0.87198 0.0
H546 H 0.77944 0.62043 0.82037 0.0
H547 H 0.75251 0.62802 0.81942 0.0
H548 H 0.75471 0.60904 0.79345 0.0
H549 H 0.70871 0.50061 0.85013 0.0
H550 H 0.74578 0.52251 0.85432 0.0
H551 H 0.73087 0.51544 0.82138 0.0
H552 H 0.87439 0.56138 0.91677 0.0
H553 H 0.88966 0.59006 0.95615 0.0
H554 H 0.8759 0.60164 0.93036 0.0
H555 H 0.91315 0.61835 0.93556 0.0
H556 H 0.85536 0.54514 0.8765 0.0
H557 H 0.89754 0.62846 0.86295 0.0
H558 H 0.80916 0.52674 0.82113 0.0
H559 H 0.79182 0.52715 0.85038 0.0
H560 H 0.81499 0.51508 0.85269 0.0
H561 H 0.88019 0.64782 0.83335 0.0
H562 H 0.84253 0.62982 0.83195 0.0
H563 H 0.86153 0.62757 0.80518 0.0
H564 H 0.91813 0.56117 0.67644 0.0
H565 H 0.86904 0.5351 0.67495 0.0
H566 H 0.89175 0.61354 0.65299 0.0
H567 H 0.82402 0.52322 0.72556 0.0
H568 H 0.82828 0.50607 0.69899 0.0
H569 H 0.80103 0.51326 0.69727 0.0
H570 H 0.86862 0.63317 0.67007 0.0
H571 H 0.84762 0.6183 0.69949 0.0
H572 H 0.83169 0.60962 0.66709 0.0
H573 H 0.69732 0.57884 0.61326 0.0
H574 H 0.65803 0.5835 0.62813 0.0
H575 H 0.6412 0.55106 0.64359 0.0
H576 H 0.67423 0.5772 0.65605 0.0
H577 H 0.68617 0.5052 0.65113 0.0
H578 H 0.72153 0.58872 0.6506 0.0
H579 H 0.72279 0.50283 0.70842 0.0
H580 H 0.74141 0.50449 0.67926 0.0
H581 H 0.70376 0.48486 0.67915 0.0
H582 H 0.76115 0.61766 0.67493 0.0
H583 H 0.78524 0.60681 0.67984 0.0
H584 H 0.76305 0.60357 0.70653 0.0
H585 H 0.79001 0.57591 0.85103 0.0
H586 H 0.85491 0.57939 0.78828 0.0
H587 H 0.85501 0.57499 0.74093 0.0
H588 H 0.78953 0.55715 0.66956 0.0
H589 H 0.72396 0.55209 0.73253 0.0
H590 H 0.72418 0.55725 0.77982 0.0
H591 H 0.95928 0.60291 0.63633 0.0
H592 H 0.96736 0.58634 0.66231 0.0
H593 H 0.95556 0.6078 0.67093 0.0
C594 C 0.1619 0.68116 0.44854 0.0
C595 C 0.14066 0.6604 0.42932 0.0
C596 C 0.1665 0.67999 0.38769 0.0
C597 C 0.15895 0.69866 0.38308 0.0
C598 C 0.17381 0.71974 0.36494 0.0
C599 C 0.19703 0.72256 0.3515 0.0
C600 C 0.20403 0.70324 0.3554 0.0
C601 C 0.18828 0.68194 0.37307 0.0
C602 C 0.1652 0.7395 0.36081 0.0
C603 C 0.22896 0.7057 0.34194 0.0
C604 C 0.29724 0.87218 0.45643 0.0
C605 C 0.31897 0.87456 0.43699 0.0
C606 C 0.29831 0.85692 0.39327 0.0
C607 C 0.30688 0.83912 0.38973 0.0
C608 C 0.29319 0.81882 0.37126 0.0
C609 C 0.27051 0.81632 0.35612 0.0
C610 C 0.26249 0.83482 0.35907 0.0
C611 C 0.27685 0.85514 0.37734 0.0
C612 C 0.30274 0.79986 0.3681 0.0
C613 C 0.23828 0.8327 0.34347 0.0
C614 C 0.33296 0.86184 0.18226 0.0
C615 C 0.33618 0.84209 0.19412 0.0
C616 C 0.31468 0.82153 0.20925 0.0
C617 C 0.28928 0.82047 0.21229 0.0
C618 C 0.28577 0.84006 0.19999 0.0
C619 C 0.30764 0.86041 0.18495 0.0
C620 C 0.31885 0.80058 0.22152 0.0
C621 C 0.25883 0.83931 0.20253 0.0
C622 C 0.13944 0.65697 0.10622 0.0
C623 C 0.1451 0.67537 0.12815 0.0
C624 C 0.17507 0.69253 0.16767 0.0
C625 C 0.1955 0.69156 0.18287 0.0
C626 C 0.21155 0.71077 0.20181 0.0
C627 C 0.20646 0.73109 0.20606 0.0
C628 C 0.18506 0.73162 0.19145 0.0
C629 C 0.1697 0.71245 0.17228 0.0
C630 C 0.23454 0.70985 0.21663 0.0
C631 C 0.17892 0.75288 0.19562 0.0
C632 C 0.21608 0.74728 0.33631 0.0
C633 C 0.23388 0.7696 0.35113 0.0
C634 C 0.25377 0.79328 0.3388 0.0
C635 C 0.25683 0.79468 0.31081 0.0
C636 C 0.27783 0.81768 0.29788 0.0
C637 C 0.28083 0.81875 0.27032 0.0
C638 C 0.26271 0.79699 0.25464 0.0
C639 C 0.26576 0.79777 0.22668 0.0
C640 C 0.24694 0.77603 0.21167 0.0
C641 C 0.22522 0.75319 0.22375 0.0
C642 C 0.2222 0.75172 0.25177 0.0
C643 C 0.20093 0.72887 0.2647 0.0
C644 C 0.1988 0.72735 0.2924 0.0
C645 C 0.21758 0.74877 0.30814 0.0
C646 C 0.23845 0.77241 0.29541 0.0
C647 C 0.24106 0.77374 0.26725 0.0
C648 C 0.39005 0.92071 0.18774 0.0
C649 C 0.38174 0.89549 0.17307 0.0
O650 O 0.15387 0.66026 0.40636 0.0
O651 O 0.16148 0.67429 0.14851 0.0
O652 O 0.35336 0.88194 0.16741 0.0
O653 O 0.31076 0.8765 0.4112 0.0
H654 H 0.12447 0.66496 0.42397 0.0
H655 H 0.17165 0.70112 0.43929 0.0
H656 H 0.17859 0.67725 0.45375 0.0
H657 H 0.15144 0.68099 0.46711 0.0
H658 H 0.14169 0.69712 0.3937 0.0
H659 H 0.19377 0.66732 0.37653 0.0
H660 H 0.17984 0.75763 0.37182 0.0
H661 H 0.14376 0.73184 0.36815 0.0
H662 H 0.16616 0.74501 0.33936 0.0
H663 H 0.23304 0.6903 0.34896 0.0
H664 H 0.24789 0.72532 0.34571 0.0
H665 H 0.22537 0.70395 0.32008 0.0
H666 H 0.32011 0.85669 0.43975 0.0
H667 H 0.30303 0.87017 0.47726 0.0
H668 H 0.27655 0.85445 0.45187 0.0
H669 H 0.29549 0.88977 0.45471 0.0
H670 H 0.32441 0.84119 0.40109 0.0
H671 H 0.27079 0.86933 0.3799 0.0
H672 H 0.30531 0.79761 0.34666 0.0
H673 H 0.28662 0.78022 0.37619 0.0
H674 H 0.32275 0.80636 0.37872 0.0
H675 H 0.23381 0.84788 0.34909 0.0
H676 H 0.21924 0.81294 0.34682 0.0
H677 H 0.24291 0.83495 0.32184 0.0
H678 H 0.38709 0.88389 0.18672 0.0
H679 H 0.3551 0.84217 0.19104 0.0
H680 H 0.30514 0.87547 0.17537 0.0
H681 H 0.31576 0.79946 0.2434 0.0
H682 H 0.33998 0.8044 0.21765 0.0
H683 H 0.30305 0.78111 0.21338 0.0
H684 H 0.26003 0.85693 0.19328 0.0
H685 H 0.25338 0.83795 0.22389 0.0
H686 H 0.24169 0.82149 0.19273 0.0
H687 H 0.1265 0.67516 0.13548 0.0
H688 H 0.11617 0.64268 0.10654 0.0
H689 H 0.14447 0.6422 0.11427 0.0
H690 H 0.16022 0.68212 0.07315 0.0
H691 H 0.19943 0.67609 0.17923 0.0
H692 H 0.15374 0.71329 0.16084 0.0
H693 H 0.2304 0.70769 0.23835 0.0
H694 H 0.25477 0.7286 0.21329 0.0
H695 H 0.23649 0.69331 0.21029 0.0
H696 H 0.1593 0.74856 0.1855 0.0
H697 H 0.19636 0.77188 0.18759 0.0
H698 H 0.17729 0.75528 0.21724 0.0
H699 H 0.23226 0.76851 0.3727 0.0
H700 H 0.29235 0.835 0.30898 0.0
H701 H 0.29748 0.83689 0.26141 0.0
H702 H 0.24945 0.77678 0.19022 0.0
H703 H 0.18592 0.7118 0.25355 0.0
H704 H 0.18224 0.70921 0.30137 0.0
H705 H 0.38436 0.93314 0.17587 0.0
H706 H 0.41287 0.93221 0.19179 0.0
H707 H 0.379 0.9156 0.2071 0.0
C708 C 0.41621 0.10443 0.63931 0.0
C709 C 0.43523 0.12918 0.62237 0.0
C710 C 0.45337 0.16535 0.6543 0.0
C711 C 0.4773 0.18436 0.66772 0.0
C712 C 0.47658 0.20219 0.68468 0.0
C713 C 0.45105 0.20066 0.68867 0.0
C714 C 0.42666 0.18142 0.67528 0.0
C715 C 0.42807 0.16408 0.65808 0.0
C716 C 0.50315 0.22276 0.69823 0.0
C717 C 0.39907 0.17916 0.67918 0.0
C718 C 0.45621 0.38404 0.63866 0.0
C719 C 0.44508 0.35911 0.65439 0.0
C720 C 0.45958 0.32851 0.66856 0.0
C721 C 0.43399 0.309 0.67971 0.0
C722 C 0.43133 0.28678 0.69288 0.0
C723 C 0.45496 0.28453 0.6958 0.0
C724 C 0.48081 0.30436 0.6849 0.0
C725 C 0.48262 0.32588 0.67111 0.0
C726 C 0.40318 0.26563 0.70346 0.0
C727 C 0.50657 0.30286 0.68777 0.0
C728 C 0.45455 0.30751 0.87617 0.0
C729 C 0.42863 0.28547 0.86878 0.0
C730 C 0.42706 0.26717 0.85087 0.0
C731 C 0.45188 0.27068 0.84044 0.0
C732 C 0.47799 0.29275 0.84786 0.0
C733 C 0.47892 0.311 0.86545 0.0
C734 C 0.39884 0.24393 0.84326 0.0
C735 C 0.5049 0.29692 0.8374 0.0
C736 C 0.42856 0.07972 0.86001 0.0
C737 C 0.44758 0.10681 0.87209 0.0
C738 C 0.43662 0.14048 0.861 0.0
C739 C 0.41334 0.14198 0.85467 0.0
C740 C 0.41609 0.16375 0.84057 0.0
C741 C 0.44294 0.18477 0.8331 0.0
C742 C 0.46671 0.18368 0.84002 0.0
C743 C 0.46333 0.16155 0.854 0.0
C744 C 0.39031 0.16434 0.83373 0.0
C745 C 0.49567 0.20604 0.83284 0.0
C746 C 0.45009 0.21964 0.70637 0.0
C747 C 0.45169 0.24177 0.69451 0.0
C748 C 0.45266 0.26131 0.70991 0.0
C749 C 0.4522 0.25887 0.73806 0.0
C750 C 0.45412 0.27855 0.75424 0.0
C751 C 0.4534 0.27586 0.7819 0.0
C752 C 0.4511 0.25355 0.79447 0.0
C753 C 0.45051 0.2507 0.82257 0.0
C754 C 0.4481 0.22822 0.83439 0.0
C755 C 0.44617 0.20829 0.81896 0.0
C756 C 0.44687 0.21081 0.79083 0.0
C757 C 0.44507 0.19118 0.77469 0.0
C758 C 0.44603 0.19397 0.74703 0.0
C759 C 0.44867 0.21643 0.73445 0.0
C760 C 0.44999 0.23625 0.75033 0.0
C761 C 0.44934 0.23354 0.77856 0.0
C762 C 0.42048 0.33482 0.8905 0.0
C763 C 0.43613 0.32518 0.90786 0.0
O764 O 0.45577 0.14877 0.63817 0.0
O765 O 0.43249 0.11881 0.8746 0.0
O766 O 0.45711 0.32586 0.89336 0.0
O767 O 0.46294 0.34984 0.65481 0.0
H768 H 0.42242 0.13626 0.61271 0.0
H769 H 0.40531 0.1086 0.65463 0.0
H770 H 0.42853 0.0972 0.64966 0.0
H771 H 0.40013 0.08861 0.62649 0.0
H772 H 0.49672 0.18528 0.6647 0.0
H773 H 0.40929 0.14962 0.64786 0.0
H774 H 0.50667 0.24262 0.69431 0.0
H775 H 0.52166 0.22267 0.6914 0.0
H776 H 0.50123 0.21913 0.72011 0.0
H777 H 0.38156 0.16182 0.66909 0.0
H778 H 0.40032 0.19718 0.67111 0.0
H779 H 0.39444 0.17765 0.70078 0.0
H780 H 0.42291 0.34385 0.6499 0.0
H781 H 0.44093 0.379 0.62168 0.0
H782 H 0.47322 0.38594 0.62564 0.0
H783 H 0.46357 0.41209 0.66746 0.0
H784 H 0.41592 0.31069 0.67784 0.0
H785 H 0.50225 0.34101 0.66241 0.0
H786 H 0.39828 0.24591 0.69751 0.0
H787 H 0.38619 0.26839 0.69619 0.0
H788 H 0.40358 0.26594 0.72556 0.0
H789 H 0.52573 0.32147 0.68135 0.0
H790 H 0.50411 0.28671 0.67538 0.0
H791 H 0.50931 0.29833 0.7088 0.0
H792 H 0.42107 0.30469 0.9149 0.0
H793 H 0.40946 0.28232 0.87677 0.0
H794 H 0.49882 0.32802 0.87119 0.0
H795 H 0.39694 0.24218 0.82124 0.0
H796 H 0.38143 0.24548 0.85077 0.0
H797 H 0.39667 0.22561 0.85162 0.0
H798 H 0.52355 0.31441 0.84607 0.0
H799 H 0.50545 0.29955 0.81539 0.0
H800 H 0.50604 0.27928 0.84197 0.0
H801 H 0.46536 0.11814 0.85818 0.0
H802 H 0.44016 0.06969 0.85746 0.0
H803 H 0.42093 0.08192 0.84012 0.0
H804 H 0.41024 0.06724 0.87299 0.0
H805 H 0.39288 0.12579 0.86055 0.0
H806 H 0.48159 0.16109 0.85991 0.0
H807 H 0.38954 0.16787 0.81197 0.0
H808 H 0.39117 0.18085 0.84412 0.0
H809 H 0.37082 0.14575 0.83955 0.0
H810 H 0.51207 0.20231 0.8398 0.0
H811 H 0.49973 0.22449 0.84178 0.0
H812 H 0.49724 0.20917 0.81088 0.0
H813 H 0.45258 0.244 0.67295 0.0
H814 H 0.45616 0.29626 0.74571 0.0
H815 H 0.45476 0.29155 0.79331 0.0
H816 H 0.44751 0.2261 0.85596 0.0
H817 H 0.44302 0.17347 0.78328 0.0
H818 H 0.44463 0.17826 0.73561 0.0
H819 H 0.40413 0.33484 0.90236 0.0
H820 H 0.41014 0.32175 0.87333 0.0
H821 H 0.43505 0.35504 0.88255 0.0
H822 H 0.06586 0.46205 0.03635 0.0
H823 H 0.02889 0.49579 0.08171 0.0
H824 H 0.03751 0.47841 0.12306 0.0
H825 H 0.05672 0.45448 0.14629 0.0
H826 H 0.09111 0.41882 0.09995 0.0
H827 H 0.08277 0.43651 0.05915 0.0
C828 C 0.05959 0.46555 0.05528 0.0
C829 C 0.04688 0.4803 0.05599 0.0
C830 C 0.06445 0.4554 0.07884 0.0
C831 C 0.03861 0.48441 0.08063 0.0
C832 C 0.04369 0.47461 0.10427 0.0
C833 C 0.06237 0.45061 0.12723 0.0
C834 C 0.07484 0.4356 0.12641 0.0
C835 C 0.05681 0.46025 0.10361 0.0
C836 C 0.08183 0.43054 0.10148 0.0
C837 C 0.07694 0.44055 0.078 0.0
H838 H 0.62399 0.06567 0.54474 0.0
H839 H 0.55163 0.02089 0.59461 0.0
H840 H 0.58191 0.02884 0.63347 0.0
H841 H 0.62907 0.04884 0.65317 0.0
H842 H 0.70098 0.09102 0.60216 0.0
H843 H 0.67074 0.08413 0.56397 0.0
C844 C 0.61481 0.05764 0.56412 0.0
C845 C 0.58562 0.04282 0.56684 0.0
C846 C 0.63228 0.06202 0.5862 0.0
C847 C 0.57405 0.03229 0.592 0.0
C848 C 0.59134 0.03693 0.61422 0.0
C849 C 0.63807 0.05655 0.63367 0.0
C850 C 0.66727 0.07065 0.63074 0.0
C851 C 0.6205 0.05185 0.61154 0.0
C852 C 0.67867 0.08036 0.60527 0.0
C853 C 0.66135 0.07632 0.58331 0.0
H854 H 0.52811 0.56609 0.12253 0.0
H855 H 0.61206 0.58311 0.13185 0.0
H856 H 0.62329 0.61892 0.16186 0.0
H857 H 0.60891 0.64488 0.18609 0.0
H858 H 0.52422 0.62635 0.17819 0.0
H859 H 0.51389 0.59227 0.14632 0.0
C860 C 0.54892 0.57779 0.13095 0.0
C861 C 0.56919 0.5719 0.12502 0.0
C862 C 0.55513 0.59815 0.14839 0.0
C863 C 0.59598 0.58702 0.13638 0.0
C864 C 0.60246 0.6076 0.15341 0.0
C865 C 0.58813 0.63324 0.1776 0.0
C866 C 0.56715 0.63771 0.18513 0.0
C867 C 0.58212 0.61321 0.15974 0.0
C868 C 0.5406 0.62299 0.17316 0.0
C869 C 0.53466 0.60348 0.15494 0.0
H870 H 0.93041 0.48722 0.58725 0.0
H871 H 0.90976 0.52414 0.52389 0.0
H872 H 0.90423 0.55077 0.55628 0.0
H873 H 0.90974 0.56644 0.60224 0.0
H874 H 0.93029 0.52922 0.66551 0.0
H875 H 0.93164 0.49994 0.63355 0.0
C876 C 0.92445 0.50095 0.58063 0.0
C877 C 0.92071 0.50388 0.55326 0.0
C878 C 0.92151 0.51625 0.59932 0.0
C879 C 0.91258 0.52142 0.54487 0.0
C880 C 0.90965 0.53679 0.56337 0.0
C881 C 0.91387 0.55152 0.60911 0.0
C882 C 0.91957 0.54976 0.63629 0.0
C883 C 0.91464 0.53477 0.5906 0.0
C884 C 0.92548 0.53069 0.64476 0.0
C885 C 0.92638 0.51404 0.62649 0.0
H886 H 0.4692 0.92458 0.08125 0.0
H887 H 0.43125 0.96635 0.05053 0.0
H888 H 0.39648 0.94705 0.08592 0.0
H889 H 0.38002 0.92202 0.12832 0.0
H890 H 0.42051 0.88322 0.16081 0.0
H891 H 0.45086 0.89733 0.12199 0.0
C892 C 0.45291 0.92895 0.08193 0.0
C893 C 0.45276 0.94682 0.06327 0.0
C894 C 0.43364 0.91856 0.10291 0.0
C895 C 0.4318 0.95264 0.06468 0.0
C896 C 0.412 0.94171 0.08498 0.0
C897 C 0.39533 0.91648 0.12672 0.0
C898 C 0.39819 0.90182 0.14753 0.0
C899 C 0.41323 0.92526 0.10466 0.0
C900 C 0.41799 0.89461 0.14514 0.0
C901 C 0.43538 0.90271 0.12296 0.0
H902 H 0.50192 0.46119 0.60681 0.0
H903 H 0.4174 0.44332 0.59865 0.0
H904 H 0.39839 0.40861 0.63281 0.0
H905 H 0.40203 0.37221 0.66892 0.0
H906 H 0.50304 0.39448 0.68137 0.0
H907 H 0.52052 0.43784 0.64366 0.0
C908 C 0.48043 0.4496 0.61326 0.0
C909 C 0.46014 0.4535 0.60107 0.0
C910 C 0.47324 0.43063 0.63303 0.0
C911 C 0.43176 0.43924 0.60898 0.0
C912 C 0.42045 0.41906 0.62848 0.0
C913 C 0.42418 0.38521 0.66554 0.0
C914 C 0.4498 0.37585 0.67552 0.0
C915 C 0.43726 0.41197 0.64162 0.0
C916 C 0.48834 0.39928 0.6733 0.0
C917 C 0.49878 0.42542 0.64899 0.0
H918 H 0.60798 0.01996 0.43044 0.0
H919 H 0.53186 0.95186 0.46052 0.0
H920 H 0.54493 0.92068 0.45013 0.0
H921 H 0.58161 0.90627 0.42839 0.0
H922 H 0.67299 0.98667 0.39292 0.0
H923 H 0.65273 0.01958 0.40899 0.0
C924 C 0.5952 0.99888 0.43357 0.0
C925 C 0.56913 0.9873 0.44638 0.0
C926 C 0.60571 0.98379 0.42603 0.0
C927 C 0.55198 0.95968 0.45134 0.0
C928 C 0.55913 0.94132 0.44536 0.0
C929 C 0.59537 0.92735 0.42585 0.0
C930 C 0.62722 0.94237 0.40471 0.0
C931 C 0.58429 0.94949 0.43356 0.0
C932 C 0.6535 0.97842 0.40345 0.0
C933 C 0.64004 0.9985 0.41213 0.0
H934 H 0.60838 0.52014 0.9945 0.0
H935 H 0.5686 0.56256 0.97202 0.0
H936 H 0.59969 0.58213 0.93348 0.0
H937 H 0.63913 0.58765 0.90677 0.0
H938 H 0.67739 0.54404 0.93025 0.0
H939 H 0.64584 0.52442 0.96788 0.0
C940 C 0.60646 0.53373 0.98127 0.0
C941 C 0.58637 0.54007 0.98627 0.0
C942 C 0.6241 0.54461 0.95928 0.0
C943 C 0.58397 0.55743 0.96865 0.0
C944 C 0.60175 0.5686 0.94665 0.0
C945 C 0.6403 0.57367 0.92004 0.0
C946 C 0.66038 0.5671 0.91557 0.0
C947 C 0.62199 0.56239 0.94181 0.0
C948 C 0.66193 0.54919 0.9331 0.0
C949 C 0.64398 0.53804 0.95467 0.0
H950 H 0.09188 0.54565 0.47979 0.0
H951 H 0.0321 0.56218 0.51039 0.0
H952 H 0.05759 0.60603 0.48987 0.0
H953 H 0.09501 0.63868 0.46081 0.0
H954 H 0.15515 0.62279 0.43023 0.0
H955 H 0.13138 0.57977 0.453 0.0
C956 C 0.08475 0.55903 0.4824 0.0
C957 C 0.06005 0.55057 0.49657 0.0
C958 C 0.09926 0.58417 0.47009 0.0
C959 C 0.05098 0.56812 0.49953 0.0
C960 C 0.06547 0.59318 0.48769 0.0
C961 C 0.10278 0.62569 0.45904 0.0
C962 C 0.12619 0.63354 0.4431 0.0
C963 C 0.08923 0.60117 0.47242 0.0
C964 C 0.13664 0.61691 0.44168 0.0
C965 C 0.12318 0.59238 0.45487 0.0
H966 H 0.47049 0.07996 0.98932 0.0
H967 H 0.54058 0.08598 0.9497 0.0
H968 H 0.52798 0.09982 0.90829 0.0
H969 H 0.49498 0.10692 0.88255 0.0
H970 H 0.42337 0.09843 0.92158 0.0
H971 H 0.4387 0.08914 0.96405 0.0
C972 C 0.48332 0.08487 0.97177 0.0
C973 C 0.50645 0.08201 0.97253 0.0
C974 C 0.47557 0.09225 0.9479 0.0
C975 C 0.52259 0.08792 0.94949 0.0
C976 C 0.51539 0.09581 0.92585 0.0
C977 C 0.48305 0.10351 0.90049 0.0
C978 C 0.45843 0.10392 0.89901 0.0
C979 C 0.49162 0.09754 0.92469 0.0
C980 C 0.44272 0.09878 0.92226 0.0
C981 C 0.45138 0.09331 0.94653 0.0
H982 H 0.40087 0.46186 0.47592 0.0
H983 H 0.44727 0.43007 0.44377 0.0
H984 H 0.41236 0.40441 0.40992 0.0
H985 H 0.36299 0.39076 0.37841 0.0
H986 H 0.30775 0.42835 0.41709 0.0
H987 H 0.34955 0.45157 0.45872 0.0
C988 C 0.40244 0.44949 0.46167 0.0
C989 C 0.42616 0.44741 0.46112 0.0
C990 C 0.38098 0.43665 0.44354 0.0
C991 C 0.42859 0.4309 0.44306 0.0
C992 C 0.40865 0.41602 0.42334 0.0
C993 C 0.35939 0.40049 0.39421 0.0
C994 C 0.33355 0.41086 0.39062 0.0
C995 C 0.38475 0.41686 0.42039 0.0
C996 C 0.32451 0.42468 0.41861 0.0
C997 C 0.35121 0.43995 0.44366 0.0
H998 H 0.01323 0.44555 0.89501 0.0
H999 H 0.96853 0.42251 0.96963 0.0
H1000 H 0.93929 0.37793 0.95441 0.0
H1001 H 0.92647 0.34477 0.92043 0.0
H1002 H 0.9729 0.36664 0.84723 0.0
H1003 H 0.00109 0.4123 0.86141 0.0
C1004 C 0.99729 0.43096 0.90816 0.0
C1005 C 0.99343 0.43802 0.93355 0.0
C1006 C 0.98063 0.4049 0.89951 0.0
C1007 C 0.97222 0.41833 0.94991 0.0
C1008 C 0.95535 0.39253 0.94127 0.0
C1009 C 0.94288 0.35951 0.90766 0.0
C1010 C 0.94779 0.35223 0.88297 0.0
C1011 C 0.95942 0.38557 0.91618 0.0
C1012 C 0.96882 0.37167 0.86643 0.0
C1013 C 0.98497 0.39777 0.87454 0.0
H1014 H 0.00366 0.57751 0.93791 0.0
H1015 H 0.94827 0.51556 0.99275 0.0
H1016 H 0.91037 0.522 0.97941 0.0
H1017 H 0.89283 0.54487 0.95151 0.0
H1018 H 0.94917 0.60794 0.8982 0.0
H1019 H 0.98678 0.60129 0.91148 0.0
C1020 C 0.98331 0.5654 0.947 0.0
C1021 C 0.97878 0.54598 0.96621 0.0
C1022 C 0.96172 0.56926 0.93932 0.0
C1023 C 0.95234 0.53066 0.97795 0.0
C1024 C 0.93064 0.53427 0.97025 0.0
C1025 C 0.91331 0.55697 0.94268 0.0
C1026 C 0.9179 0.57629 0.92329 0.0
C1027 C 0.93504 0.5534 0.95081 0.0
C1028 C 0.94478 0.59242 0.91258 0.0
C1029 C 0.96637 0.58875 0.9203 0.0
H1030 H 0.43248 0.984 0.45201 0.0
H1031 H 0.44488 0.93901 0.51312 0.0
H1032 H 0.39945 0.90002 0.50216 0.0
H1033 H 0.35657 0.87862 0.47443 0.0
H1034 H 0.34404 0.92482 0.4149 0.0
H1035 H 0.38927 0.9634 0.42592 0.0
C1036 C 0.42529 0.96568 0.46299 0.0
C1037 C 0.44211 0.96435 0.48323 0.0
C1038 C 0.39923 0.94351 0.45668 0.0
C1039 C 0.43231 0.94055 0.49746 0.0
C1040 C 0.4064 0.91825 0.49113 0.0
C1041 C 0.36393 0.89712 0.46378 0.0
C1042 C 0.34732 0.89857 0.44332 0.0
C1043 C 0.38979 0.91946 0.47062 0.0
C1044 C 0.35666 0.92287 0.4302 0.0
C1045 C 0.38248 0.94503 0.43661 0.0
H1046 H 0.46945 0.38535 0.01752 0.0
H1047 H 0.52725 0.4494 0.96613 0.0
H1048 H 0.51159 0.41991 0.92828 0.0
H1049 H 0.47976 0.37637 0.90935 0.0
H1050 H 0.42028 0.31275 0.96024 0.0
H1051 H 0.43845 0.34139 0.99878 0.0
C1052 C 0.47886 0.39268 0.99811 0.0
C1053 C 0.49942 0.41947 0.99456 0.0
C1054 C 0.46937 0.37569 0.97635 0.0
C1055 C 0.51119 0.42889 0.96923 0.0
C1056 C 0.50229 0.41204 0.94763 0.0
C1057 C 0.47097 0.36878 0.92894 0.0
C1058 C 0.4488 0.34247 0.93196 0.0
C1059 C 0.48112 0.38549 0.95087 0.0
C1060 C 0.43745 0.33289 0.95742 0.0
C1061 C 0.44777 0.34927 0.97944 0.0
H1062 H 0.99678 0.40725 0.42658 0.0
H1063 H 0.04942 0.49188 0.42187 0.0
H1064 H 0.08815 0.48864 0.4066 0.0
H1065 H 0.10839 0.46191 0.39934 0.0
H1066 H 0.0559 0.37729 0.40338 0.0
H1067 H 0.01562 0.38033 0.41385 0.0
C1068 C 0.01646 0.42497 0.42153 0.0
C1069 C 0.02028 0.4498 0.42571 0.0
C1070 C 0.03877 0.42295 0.41301 0.0
C1071 C 0.04608 0.47255 0.41924 0.0
C1072 C 0.06824 0.47071 0.41053 0.0
C1073 C 0.08806 0.44413 0.40219 0.0
C1074 C 0.08524 0.41942 0.40115 0.0
C1075 C 0.06507 0.44604 0.40817 0.0
C1076 C 0.05867 0.39654 0.40452 0.0
C1077 C 0.03566 0.39828 0.41047 0.0
H1078 H 0.61011 0.02696 0.97811 0.0
H1079 H 0.53498 0.01783 0.94341 0.0
H1080 H 0.56134 0.04466 0.90486 0.0
H1081 H 0.6068 0.07616 0.88451 0.0
H1082 H 0.68205 0.08729 0.92084 0.0
H1083 H 0.6546 0.05418 0.95511 0.0
C1084 C 0.59931 0.03029 0.96186 0.0
C1085 C 0.57063 0.02066 0.96392 0.0
C1086 C 0.61475 0.04641 0.94012 0.0
C1087 C 0.55705 0.02509 0.94251 0.0
C1088 C 0.57216 0.04061 0.9205 0.0
C1089 C 0.61707 0.07075 0.89951 0.0
C1090 C 0.64639 0.08393 0.8999 0.0
C1091 C 0.60119 0.0522 0.9196 0.0
C1092 C 0.65951 0.07716 0.91981 0.0
C1093 C 0.64383 0.05836 0.93954 0.0
H1094 H 0.52485 0.59371 0.4358 0.0
H1095 H 0.55994 0.59609 0.51364 0.0
H1096 H 0.58281 0.64395 0.51345 0.0
H1097 H 0.59393 0.68487 0.4906 0.0
H1098 H 0.5597 0.68228 0.412 0.0
H1099 H 0.53582 0.63454 0.41301 0.0
C1100 C 0.5377 0.60463 0.45266 0.0
C1101 C 0.5408 0.59121 0.4746 0.0
C1102 C 0.55114 0.63212 0.45222 0.0
C1103 C 0.55696 0.60578 0.49656 0.0
C1104 C 0.57024 0.63321 0.49637 0.0
C1105 C 0.58143 0.6742 0.47351 0.0
C1106 C 0.57904 0.68763 0.45099 0.0
C1107 C 0.56767 0.64661 0.47417 0.0
C1108 C 0.56222 0.67272 0.42947 0.0
C1109 C 0.54847 0.64534 0.43003 0.0
H1110 H 0.47243 0.09396 0.52149 0.0
H1111 H 0.52536 0.08806 0.58066 0.0
H1112 H 0.5085 0.10477 0.61446 0.0
H1113 H 0.477 0.11907 0.62767 0.0
H1114 H 0.42289 0.12354 0.56883 0.0
H1115 H 0.4421 0.10971 0.53436 0.0
C1116 C 0.4806 0.09675 0.54167 0.0
C1117 C 0.5001 0.08974 0.54856 0.0
C1118 C 0.47053 0.10606 0.56107 0.0
C1119 C 0.51014 0.09306 0.57493 0.0
C1120 C 0.50056 0.10267 0.59424 0.0
C1121 C 0.46968 0.11728 0.60723 0.0
C1122 C 0.44875 0.12257 0.60077 0.0
C1123 C 0.48048 0.1089 0.58762 0.0
C1124 C 0.43917 0.11984 0.57426 0.0
C1125 C 0.45007 0.11185 0.55457 0.0
H1126 H 0.44884 0.51626 0.06749 0.0
H1127 H 0.43129 0.43691 0.06303 0.0
H1128 H 0.38135 0.41567 0.06892 0.0
H1129 H 0.33263 0.4157 0.08256 0.0
H1130 H 0.35085 0.50916 0.08918 0.0
H1131 H 0.40868 0.52973 0.07566 0.0
C1132 C 0.43356 0.49531 0.06775 0.0
C1133 C 0.44201 0.4772 0.06501 0.0
C1134 C 0.40578 0.48645 0.07225 0.0
C1135 C 0.42312 0.44951 0.06533 0.0
C1136 C 0.3943 0.43693 0.06867 0.0
C1137 C 0.34612 0.43676 0.07961 0.0
C1138 C 0.33666 0.46003 0.09176 0.0
C1139 C 0.38252 0.45157 0.07265 0.0
C1140 C 0.35785 0.49617 0.08416 0.0
C1141 C 0.39397 0.50872 0.07691 0.0
H1142 H 0.99508 0.45139 0.61093 0.0
H1143 H 0.96771 0.40586 0.53865 0.0
H1144 H 0.95117 0.36414 0.56115 0.0
H1145 H 0.9372 0.33073 0.60781 0.0
H1146 H 0.97142 0.38337 0.69448 0.0
H1147 H 0.9932 0.43113 0.66233 0.0
C1148 C 0.98573 0.43254 0.60141 0.0
C1149 C 0.98187 0.43062 0.57344 0.0
C1150 C 0.97731 0.41032 0.61731 0.0
C1151 C 0.97007 0.40622 0.56014 0.0
C1152 C 0.96025 0.38178 0.5728 0.0
C1153 C 0.94867 0.34933 0.61788 0.0
C1154 C 0.94757 0.3516 0.65475 0.0
C1155 C 0.96172 0.38006 0.6001 0.0
C1156 C 0.97062 0.38275 0.67295 0.0
C1157 C 0.9828 0.41221 0.65289 0.0
H1158 H 0.54194 0.96473 0.10586 0.0
H1159 H 0.62599 0.03165 0.09799 0.0
H1160 H 0.64378 0.00787 0.12289 0.0
H1161 H 0.63544 0.96766 0.14634 0.0
H1162 H 0.55115 0.90127 0.15497 0.0
H1163 H 0.5335 0.92502 0.1299 0.0
C1164 C 0.56416 0.97405 0.10943 0.0
C1165 C 0.5826 0.9999 0.09995 0.0
C1166 C 0.57422 0.96022 0.12363 0.0
C1167 C 0.61131 0.0119 0.10527 0.0
C1168 C 0.62151 0.99822 0.11933 0.0
C1169 C 0.61325 0.95834 0.14241 0.0
C1170 C 0.59477 0.93245 0.15174 0.0
C1171 C 0.60318 0.97231 0.12845 0.0
C1172 C 0.56593 0.92087 0.14733 0.0
C1173 C 0.5558 0.93452 0.13318 0.0
H1174 H 0.61088 0.54357 0.5103 0.0
H1175 H 0.55145 0.47103 0.55088 0.0
H1176 H 0.58492 0.48093 0.58713 0.0
H1177 H 0.62868 0.51307 0.61006 0.0
H1178 H 0.68657 0.58652 0.57017 0.0
H1179 H 0.65618 0.57336 0.53099 0.0
C1180 C 0.60538 0.52961 0.52678 0.0
C1181 C 0.57853 0.50673 0.52792 0.0
C1182 C 0.6244 0.53578 0.54793 0.0
C1183 C 0.57192 0.48885 0.54944 0.0
C1184 C 0.591 0.49459 0.57032 0.0
C1185 C 0.63484 0.52589 0.59254 0.0
C1186 C 0.6599 0.55069 0.593 0.0
C1187 C 0.61693 0.51843 0.57022 0.0
C1188 C 0.6675 0.56728 0.57028 0.0
C1189 C 0.65007 0.55981 0.54789 0.0
H1190 H 0.14239 0.61563 0.04105 0.0
H1191 H 0.07002 0.61988 0.02103 0.0
H1192 H 0.08328 0.65704 0.04914 0.0
H1193 H 0.11737 0.69408 0.08934 0.0
H1194 H 0.20536 0.69172 0.11219 0.0
H1195 H 0.18655 0.65004 0.07408 0.0
C1196 C 0.13091 0.62525 0.04322 0.0
C1197 C 0.10517 0.61582 0.02982 0.0
C1198 C 0.14148 0.64624 0.06021 0.0
C1199 C 0.08933 0.62779 0.03222 0.0
C1200 C 0.09674 0.64933 0.04826 0.0
C1201 C 0.13111 0.68712 0.08544 0.0
C1202 C 0.16067 0.69413 0.10817 0.0
C1203 C 0.12089 0.66044 0.06328 0.0
C1204 C 0.18686 0.68543 0.10012 0.0
C1205 C 0.17434 0.65876 0.07732 0.0
loop_
_geom_bond_atom_site_label_1
_geom_bond_atom_site_label_2
_geom_bond_distance
_geom_bond_site_symmetry_2
_ccdc_geom_bond_type
Cu0 N1 1.999 1_554 S
Cu0 O6 1.974 1_554 S
Cu0 N11 1.985 . S
Cu0 O20 1.959 . S
N1 Cu0 1.999 1_556 S
N1 C3 1.263 . S
N1 C5 1.389 1_456 S
N2 C3 1.358 1_655 S
N2 C4 1.400 . S
C3 N1 1.263 . S
C3 N2 1.358 1_455 S
C3 H9 0.929 . S
C4 N2 1.400 . S
C4 C5 1.351 1_556 S
C4 H21 0.930 . S
C5 N1 1.389 1_654 S
C5 C4 1.351 1_554 S
C5 H10 0.926 1_655 S
O6 Cu0 1.974 1_556 S
O6 C16 1.282 . S
C7 O8 1.261 . S
C7 O20 1.251 . S
O8 C7 1.261 . S
H9 C3 0.929 . S
H10 C5 0.926 1_455 S
N11 Cu0 1.985 . S
N11 C13 1.335 . S
N11 C14 1.390 . S
N12 C13 1.345 . S
N12 C15 1.336 . S
C13 N11 1.335 . S
C13 N12 1.345 . S
C13 H18 0.930 . S
C14 N11 1.390 . S
C14 C15 1.346 . S
C14 H19 0.930 1_554 S
C15 N12 1.336 . S
C15 C14 1.346 . S
C15 H22 0.929 . S
C16 O6 1.282 . S
C16 O17 1.216 . S
O17 C16 1.216 . S
H18 C13 0.930 . S
H19 C14 0.930 1_556 S
O20 Cu0 1.959 . S
O20 C7 1.251 . S
H21 C4 0.930 . S
H22 C15 0.929 . S
Cu23 N24 1.999 . S
Cu23 O29 1.974 . S
Cu23 N34 1.985 1_565 S
Cu23 O43 1.959 1_565 S
N24 Cu23 1.999 . S
N24 C26 1.263 . S
N24 C28 1.389 . S
N25 C26 1.358 . S
N25 C27 1.400 . S
C26 N24 1.263 . S
C26 N25 1.358 . S
C26 H32 0.930 . S
C27 N25 1.400 . S
C27 C28 1.351 . S
C27 H44 0.930 . S
C28 N24 1.389 . S
C28 C27 1.351 . S
C28 H33 0.930 . S
O29 Cu23 1.974 . S
O29 C39 1.282 . S
C30 O31 1.261 . S
C30 O43 1.251 . S
O31 C30 1.261 . S
H32 C26 0.930 . S
H33 C28 0.930 . S
N34 Cu23 1.985 1_545 S
N34 C36 1.335 . S
N34 C37 1.390 . S
N35 C36 1.345 . S
N35 C38 1.336 . S
C36 N34 1.335 . S
C36 N35 1.345 . S
C36 H41 0.930 . S
C37 N34 1.390 . S
C37 C38 1.346 . S
C37 H42 0.930 . S
C38 N35 1.336 . S
C38 C37 1.346 . S
C38 H45 0.929 . S
C39 O29 1.282 . S
C39 O40 1.216 1_565 S
O40 C39 1.216 1_545 S
H41 C36 0.930 . S
H42 C37 0.930 . S
O43 Cu23 1.959 1_545 S
O43 C30 1.251 . S
H44 C27 0.930 . S
H45 C38 0.929 . S
Cu46 N47 1.999 1_554 S
Cu46 O52 1.974 1_554 S
Cu46 N57 1.985 . S
Cu46 O66 1.959 . S
N47 Cu46 1.999 1_556 S
N47 C49 1.263 . S
N47 C51 1.389 . S
N48 C49 1.358 . S
N48 C50 1.400 . S
C49 N47 1.263 . S
C49 N48 1.358 . S
C49 H55 0.930 . S
C50 N48 1.400 . S
C50 C51 1.351 . S
C50 H67 0.930 . S
C51 N47 1.389 . S
C51 C50 1.351 . S
C51 H56 0.930 . S
O52 Cu46 1.974 1_556 S
O52 C62 1.282 . S
C53 O54 1.261 . S
C53 O66 1.251 . S
O54 C53 1.261 . S
H55 C49 0.930 . S
H56 C51 0.930 . S
N57 Cu46 1.985 . S
N57 C59 1.335 . S
N57 C60 1.390 . S
N58 C59 1.345 . S
N58 C61 1.336 . S
C59 N57 1.335 . S
C59 N58 1.345 . S
C59 H64 0.930 . S
C60 N57 1.390 . S
C60 C61 1.346 . S
C60 H65 0.930 . S
C61 N58 1.336 . S
C61 C60 1.346 . S
C61 H68 0.929 . S
C62 O52 1.282 . S
C62 O63 1.216 1_556 S
O63 C62 1.216 1_554 S
H64 C59 0.930 . S
H65 C60 0.930 . S
O66 Cu46 1.959 . S
O66 C53 1.251 . S
H67 C50 0.930 . S
H68 C61 0.929 . S
Cu69 N70 1.999 1_655 S
Cu69 O75 1.974 1_655 S
Cu69 N80 1.985 . S
Cu69 O89 1.959 . S
N70 Cu69 1.999 1_455 S
N70 C72 1.263 . S
N70 C74 1.389 1_455 S
N71 C72 1.358 . S
N71 C73 1.400 . S
C72 N70 1.263 . S
C72 N71 1.358 . S
C72 H78 0.930 . S
C73 N71 1.400 . S
C73 C74 1.351 1_455 S
C73 H90 0.930 1_455 S
C74 N70 1.389 1_655 S
C74 C73 1.351 1_655 S
C74 H79 0.930 . S
O75 Cu69 1.974 1_455 S
O75 C85 1.282 . S
C76 O77 1.261 1_655 S
C76 O89 1.251 . S
O77 C76 1.261 1_455 S
H78 C72 0.930 . S
H79 C74 0.930 . S
N80 Cu69 1.985 . S
N80 C82 1.335 . S
N80 C83 1.390 . S
N81 C82 1.345 . S
N81 C84 1.336 . S
C82 N80 1.335 . S
C82 N81 1.345 . S
C82 H87 0.930 . S
C83 N80 1.390 . S
C83 C84 1.346 . S
C83 H88 0.930 1_655 S
C84 N81 1.336 . S
C84 C83 1.346 . S
C84 H91 0.929 . S
C85 O75 1.282 . S
C85 O86 1.216 . S
O86 C85 1.216 . S
H87 C82 0.930 . S
H88 C83 0.930 1_455 S
O89 Cu69 1.959 . S
O89 C76 1.251 . S
H90 C73 0.930 1_655 S
H91 C84 0.929 . S
Cu92 N93 1.999 . S
Cu92 O98 1.974 . S
Cu92 N103 1.984 . S
Cu92 O112 1.959 . S
N93 Cu92 1.999 . S
N93 C95 1.263 1_554 S
N93 C97 1.389 . S
N94 C95 1.358 . S
N94 C96 1.400 1_556 S
C95 N93 1.263 1_556 S
C95 N94 1.358 . S
C95 H101 0.930 . S
C96 N94 1.400 1_554 S
C96 C97 1.351 . S
C96 H113 0.930 . S
C97 N93 1.389 . S
C97 C96 1.351 . S
C97 H102 0.930 . S
O98 Cu92 1.974 . S
O98 C108 1.282 1_554 S
C99 O100 1.261 . S
C99 O112 1.251 1_565 S
O100 C99 1.261 . S
H101 C95 0.930 . S
H102 C97 0.930 . S
N103 Cu92 1.984 . S
N103 C105 1.335 1_545 S
N103 C106 1.390 1_545 S
N104 C105 1.345 . S
N104 C107 1.336 . S
C105 N103 1.335 1_565 S
C105 N104 1.345 . S
C105 H110 0.930 . S
C106 N103 1.390 1_565 S
C106 C107 1.346 . S
C106 H111 0.930 1_565 S
C107 N104 1.336 . S
C107 C106 1.346 . S
C107 H114 0.929 . S
C108 O98 1.282 1_556 S
C108 O109 1.216 . S
O109 C108 1.216 . S
H110 C105 0.930 . S
H111 C106 0.930 1_545 S
O112 Cu92 1.959 . S
O112 C99 1.251 1_545 S
H113 C96 0.930 . S
H114 C107 0.929 . S
Cu115 N116 1.999 . S
Cu115 O121 1.974 . S
Cu115 N126 1.985 . S
Cu115 O135 1.959 . S
N116 Cu115 1.999 . S
N116 C118 1.263 . S
N116 C120 1.389 . S
N117 C118 1.358 . S
N117 C119 1.400 . S
C118 N116 1.263 . S
C118 N117 1.358 . S
C118 H124 0.930 . S
C119 N117 1.400 . S
C119 C120 1.351 . S
C119 H136 0.930 . S
C120 N116 1.389 . S
C120 C119 1.351 . S
C120 H125 0.930 . S
O121 Cu115 1.974 . S
O121 C131 1.282 . S
C122 O123 1.261 . S
C122 O135 1.251 . S
O123 C122 1.261 . S
H124 C118 0.930 . S
H125 C120 0.930 . S
N126 Cu115 1.985 . S
N126 C128 1.335 . S
N126 C129 1.390 . S
N127 C128 1.345 . S
N127 C130 1.336 . S
C128 N126 1.335 . S
C128 N127 1.345 . S
C128 H133 0.930 . S
C129 N126 1.390 . S
C129 C130 1.346 . S
C129 H134 0.930 . S
C130 N127 1.336 . S
C130 C129 1.346 . S
C130 H137 0.929 . S
C131 O121 1.282 . S
C131 O132 1.216 . S
O132 C131 1.216 . S
H133 C128 0.930 . S
H134 C129 0.930 . S
O135 Cu115 1.959 . S
O135 C122 1.251 . S
H136 C119 0.930 . S
H137 C130 0.929 . S
C138 C139 1.560 . S
C138 H199 0.959 . S
C138 H200 0.959 . S
C138 H201 0.960 . S
C139 C138 1.560 . S
C139 O194 1.426 . S
C139 H198 0.980 . S
C140 C141 1.407 . S
C140 C145 1.418 . S
C140 O194 1.334 . S
C141 C140 1.407 . S
C141 C142 1.360 . S
C141 H202 0.929 . S
C142 C141 1.360 . S
C142 C143 1.401 . S
C142 C146 1.527 . S
C143 C142 1.401 . S
C143 C144 1.405 . S
C143 C176 1.587 . S
C144 C143 1.405 . S
C144 C145 1.332 . S
C144 C147 1.496 . S
C145 C140 1.418 . S
C145 C144 1.332 . S
C145 H203 0.929 . S
C146 C142 1.527 . S
C146 H204 0.959 . S
C146 H205 0.961 . S
C146 H206 0.961 . S
C147 C144 1.496 . S
C147 H207 0.960 . S
C147 H208 0.960 . S
C147 H209 0.961 . S
C148 C149 1.517 . S
C148 H211 0.961 . S
C148 H212 0.960 . S
C148 H213 0.959 . S
C149 C148 1.517 . S
C149 O197 1.468 . S
C149 H210 0.980 . S
C150 C151 1.349 . S
C150 C155 1.367 . S
C150 O197 1.408 . S
C151 C150 1.349 . S
C151 C152 1.407 . S
C151 H214 0.930 . S
C152 C151 1.407 . S
C152 C153 1.449 . S
C152 C156 1.535 . S
C153 C152 1.449 . S
C153 C154 1.384 . S
C153 C178 1.553 . S
C154 C153 1.384 . S
C154 C155 1.364 . S
C154 C157 1.450 . S
C155 C150 1.367 . S
C155 C154 1.364 . S
C155 H215 0.931 . S
C156 C152 1.535 . S
C156 H216 0.959 . S
C156 H217 0.961 . S
C156 H218 0.959 . S
C157 C154 1.450 . S
C157 H219 0.960 . S
C157 H220 0.960 . S
C157 H221 0.960 . S
C158 C159 1.309 . S
C158 C163 1.304 . S
C158 O196 1.435 . S
C159 C158 1.309 . S
C159 C160 1.476 . S
C159 H223 0.930 . S
C160 C159 1.476 . S
C160 C161 1.400 . S
C160 C164 1.567 . S
C161 C160 1.400 . S
C161 C162 1.373 . S
C161 C183 1.432 . S
C162 C161 1.373 . S
C162 C163 1.339 . S
C162 C165 1.530 . S
C163 C158 1.304 . S
C163 C162 1.339 . S
C163 H224 0.930 . S
C164 C160 1.567 . S
C164 H225 0.961 . S
C164 H226 0.960 . S
C164 H227 0.958 . S
C165 C162 1.530 . S
C165 H228 0.961 . S
C165 H229 0.960 . S
C165 H230 0.960 . S
C166 C167 1.530 . S
C166 H232 0.961 . S
C166 H233 0.961 . S
C166 H234 0.959 . S
C167 C166 1.530 . S
C167 O195 1.412 . S
C167 H231 0.980 . S
C168 C169 1.288 . S
C168 C173 1.377 . S
C168 O195 1.393 . S
C169 C168 1.288 . S
C169 C170 1.369 . S
C169 H235 0.932 . S
C170 C169 1.369 . S
C170 C171 1.398 . S
C170 C174 1.527 . S
C171 C170 1.398 . S
C171 C172 1.380 . S
C171 C185 1.497 . S
C172 C171 1.380 . S
C172 C173 1.383 . S
C172 C175 1.603 . S
C173 C168 1.377 . S
C173 C172 1.383 . S
C173 H236 0.929 . S
C174 C170 1.527 . S
C174 H237 0.961 . S
C174 H238 0.959 . S
C174 H239 0.959 . S
C175 C172 1.603 . S
C175 H240 0.960 . S
C175 H241 0.962 . S
C175 H242 0.961 . S
C176 C143 1.587 . S
C176 C177 1.360 . S
C176 C189 1.412 . S
C177 C176 1.360 . S
C177 C178 1.365 . S
C177 H243 0.929 . S
C178 C153 1.553 . S
C178 C177 1.365 . S
C178 C179 1.404 . S
C179 C178 1.404 . S
C179 C180 1.395 . S
C179 C190 1.451 . S
C180 C179 1.395 . S
C180 C181 1.322 . S
C180 H244 0.930 . S
C181 C180 1.322 . S
C181 C182 1.459 . S
C181 H245 0.929 . S
C182 C181 1.459 . S
C182 C183 1.445 . S
C182 C191 1.395 . S
C183 C161 1.432 . S
C183 C182 1.445 . S
C183 C184 1.370 . S
C184 C183 1.370 . S
C184 C185 1.438 . S
C184 H246 0.930 . S
C185 C171 1.497 . S
C185 C184 1.438 . S
C185 C186 1.360 . S
C186 C185 1.360 . S
C186 C187 1.401 . S
C186 C191 1.446 . S
C187 C186 1.401 . S
C187 C188 1.347 . S
C187 H247 0.929 . S
C188 C187 1.347 . S
C188 C189 1.455 . S
C188 H248 0.930 . S
C189 C176 1.412 . S
C189 C188 1.455 . S
C189 C190 1.331 . S
C190 C179 1.451 . S
C190 C189 1.331 . S
C190 C191 1.497 . S
C191 C182 1.395 . S
C191 C186 1.446 . S
C191 C190 1.497 . S
C192 C193 1.582 . S
C192 H249 0.962 . S
C192 H250 0.959 . S
C192 H251 0.958 . S
C193 C192 1.582 . S
C193 O196 1.458 . S
C193 H222 0.980 . S
O194 C139 1.426 . S
O194 C140 1.334 . S
O195 C167 1.412 . S
O195 C168 1.393 . S
O196 C158 1.435 . S
O196 C193 1.458 . S
O197 C149 1.468 . S
O197 C150 1.408 . S
H198 C139 0.980 . S
H199 C138 0.959 . S
H200 C138 0.959 . S
H201 C138 0.960 . S
H202 C141 0.929 . S
H203 C145 0.929 . S
H204 C146 0.959 . S
H205 C146 0.961 . S
H206 C146 0.961 . S
H207 C147 0.960 . S
H208 C147 0.960 . S
H209 C147 0.961 . S
H210 C149 0.980 . S
H211 C148 0.961 . S
H212 C148 0.960 . S
H213 C148 0.959 . S
H214 C151 0.930 . S
H215 C155 0.931 . S
H216 C156 0.959 . S
H217 C156 0.961 . S
H218 C156 0.959 . S
H219 C157 0.960 . S
H220 C157 0.960 . S
H221 C157 0.960 . S
H222 C193 0.980 . S
H223 C159 0.930 . S
H224 C163 0.930 . S
H225 C164 0.961 . S
H226 C164 0.960 . S
H227 C164 0.958 . S
H228 C165 0.961 . S
H229 C165 0.960 . S
H230 C165 0.960 . S
H231 C167 0.980 . S
H232 C166 0.961 . S
H233 C166 0.961 . S
H234 C166 0.959 . S
H235 C169 0.932 . S
H236 C173 0.929 . S
H237 C174 0.961 . S
H238 C174 0.959 . S
H239 C174 0.959 . S
H240 C175 0.960 . S
H241 C175 0.962 . S
H242 C175 0.961 . S
H243 C177 0.929 . S
H244 C180 0.930 . S
H245 C181 0.929 . S
H246 C184 0.930 . S
H247 C187 0.929 . S
H248 C188 0.930 . S
H249 C192 0.962 . S
H250 C192 0.959 . S
H251 C192 0.958 . S
C252 C253 1.560 . S
C252 H313 0.959 . S
C252 H314 0.959 . S
C252 H315 0.960 . S
C253 C252 1.560 . S
C253 O308 1.426 . S
C253 H312 0.980 . S
C254 C255 1.407 . S
C254 C259 1.418 . S
C254 O308 1.334 . S
C255 C254 1.407 . S
C255 C256 1.360 . S
C255 H316 0.929 . S
C256 C255 1.360 . S
C256 C257 1.401 . S
C256 C260 1.527 . S
C257 C256 1.401 . S
C257 C258 1.405 . S
C257 C290 1.587 . S
C258 C257 1.405 . S
C258 C259 1.332 . S
C258 C261 1.496 . S
C259 C254 1.418 . S
C259 C258 1.332 . S
C259 H317 0.929 . S
C260 C256 1.527 . S
C260 H318 0.959 . S
C260 H319 0.961 . S
C260 H320 0.961 . S
C261 C258 1.496 . S
C261 H321 0.960 . S
C261 H322 0.960 . S
C261 H323 0.961 . S
C262 C263 1.517 . S
C262 H325 0.961 . S
C262 H326 0.960 . S
C262 H327 0.959 . S
C263 C262 1.517 . S
C263 O311 1.468 . S
C263 H324 0.980 . S
C264 C265 1.349 . S
C264 C269 1.367 . S
C264 O311 1.408 . S
C265 C264 1.349 . S
C265 C266 1.407 . S
C265 H328 0.930 . S
C266 C265 1.407 . S
C266 C267 1.449 . S
C266 C270 1.535 . S
C267 C266 1.449 . S
C267 C268 1.384 . S
C267 C292 1.553 . S
C268 C267 1.384 . S
C268 C269 1.364 . S
C268 C271 1.450 . S
C269 C264 1.367 . S
C269 C268 1.364 . S
C269 H329 0.931 . S
C270 C266 1.535 . S
C270 H330 0.959 . S
C270 H331 0.961 . S
C270 H332 0.959 . S
C271 C268 1.450 . S
C271 H333 0.960 . S
C271 H334 0.960 . S
C271 H335 0.960 . S
C272 C273 1.309 . S
C272 C277 1.304 . S
C272 O310 1.435 . S
C273 C272 1.309 . S
C273 C274 1.476 . S
C273 H337 0.930 . S
C274 C273 1.476 . S
C274 C275 1.400 . S
C274 C278 1.567 . S
C275 C274 1.400 . S
C275 C276 1.373 . S
C275 C297 1.432 . S
C276 C275 1.373 . S
C276 C277 1.339 . S
C276 C279 1.530 . S
C277 C272 1.304 . S
C277 C276 1.339 . S
C277 H338 0.930 . S
C278 C274 1.567 . S
C278 H339 0.961 . S
C278 H340 0.960 . S
C278 H341 0.958 . S
C279 C276 1.530 . S
C279 H342 0.961 . S
C279 H343 0.960 . S
C279 H344 0.960 . S
C280 C281 1.530 . S
C280 H346 0.961 . S
C280 H347 0.961 . S
C280 H348 0.959 . S
C281 C280 1.530 . S
C281 O309 1.412 . S
C281 H345 0.980 . S
C282 C283 1.288 . S
C282 C287 1.377 . S
C282 O309 1.393 . S
C283 C282 1.288 . S
C283 C284 1.369 . S
C283 H349 0.932 . S
C284 C283 1.369 . S
C284 C285 1.398 . S
C284 C288 1.527 . S
C285 C284 1.398 . S
C285 C286 1.380 . S
C285 C299 1.497 . S
C286 C285 1.380 . S
C286 C287 1.383 . S
C286 C289 1.603 . S
C287 C282 1.377 . S
C287 C286 1.383 . S
C287 H350 0.929 . S
C288 C284 1.527 . S
C288 H351 0.961 . S
C288 H352 0.959 . S
C288 H353 0.959 . S
C289 C286 1.603 . S
C289 H354 0.960 . S
C289 H355 0.962 . S
C289 H356 0.961 . S
C290 C257 1.587 . S
C290 C291 1.360 . S
C290 C303 1.412 . S
C291 C290 1.360 . S
C291 C292 1.365 . S
C291 H357 0.929 . S
C292 C267 1.553 . S
C292 C291 1.365 . S
C292 C293 1.404 . S
C293 C292 1.404 . S
C293 C294 1.395 . S
C293 C304 1.451 . S
C294 C293 1.395 . S
C294 C295 1.322 . S
C294 H358 0.930 . S
C295 C294 1.322 . S
C295 C296 1.459 . S
C295 H359 0.929 . S
C296 C295 1.459 . S
C296 C297 1.445 . S
C296 C305 1.395 . S
C297 C275 1.432 . S
C297 C296 1.445 . S
C297 C298 1.370 . S
C298 C297 1.370 . S
C298 C299 1.438 . S
C298 H360 0.930 . S
C299 C285 1.497 . S
C299 C298 1.438 . S
C299 C300 1.360 . S
C300 C299 1.360 . S
C300 C301 1.401 . S
C300 C305 1.446 . S
C301 C300 1.401 . S
C301 C302 1.347 . S
C301 H361 0.929 . S
C302 C301 1.347 . S
C302 C303 1.455 . S
C302 H362 0.930 . S
C303 C290 1.412 . S
C303 C302 1.455 . S
C303 C304 1.331 . S
C304 C293 1.451 . S
C304 C303 1.331 . S
C304 C305 1.497 . S
C305 C296 1.395 . S
C305 C300 1.446 . S
C305 C304 1.497 . S
C306 C307 1.582 . S
C306 H363 0.962 . S
C306 H364 0.959 . S
C306 H365 0.958 . S
C307 C306 1.582 . S
C307 O310 1.458 . S
C307 H336 0.980 . S
O308 C253 1.426 . S
O308 C254 1.334 . S
O309 C281 1.412 . S
O309 C282 1.393 . S
O310 C272 1.435 . S
O310 C307 1.458 . S
O311 C263 1.468 . S
O311 C264 1.408 . S
H312 C253 0.980 . S
H313 C252 0.959 . S
H314 C252 0.959 . S
H315 C252 0.960 . S
H316 C255 0.929 . S
H317 C259 0.929 . S
H318 C260 0.959 . S
H319 C260 0.961 . S
H320 C260 0.961 . S
H321 C261 0.960 . S
H322 C261 0.960 . S
H323 C261 0.961 . S
H324 C263 0.980 . S
H325 C262 0.961 . S
H326 C262 0.960 . S
H327 C262 0.959 . S
H328 C265 0.930 . S
H329 C269 0.931 . S
H330 C270 0.959 . S
H331 C270 0.961 . S
H332 C270 0.959 . S
H333 C271 0.960 . S
H334 C271 0.960 . S
H335 C271 0.960 . S
H336 C307 0.980 . S
H337 C273 0.930 . S
H338 C277 0.930 . S
H339 C278 0.961 . S
H340 C278 0.960 . S
H341 C278 0.958 . S
H342 C279 0.961 . S
H343 C279 0.960 . S
H344 C279 0.960 . S
H345 C281 0.980 . S
H346 C280 0.961 . S
H347 C280 0.961 . S
H348 C280 0.959 . S
H349 C283 0.932 . S
H350 C287 0.929 . S
H351 C288 0.961 . S
H352 C288 0.959 . S
H353 C288 0.959 . S
H354 C289 0.960 . S
H355 C289 0.962 . S
H356 C289 0.961 . S
H357 C291 0.929 . S
H358 C294 0.930 . S
H359 C295 0.929 . S
H360 C298 0.930 . S
H361 C301 0.929 . S
H362 C302 0.930 . S
H363 C306 0.962 . S
H364 C306 0.959 . S
H365 C306 0.958 . S
C366 C367 1.560 . S
C366 H427 0.959 . S
C366 H428 0.959 . S
C366 H429 0.960 . S
C367 C366 1.560 . S
C367 O422 1.426 . S
C367 H426 0.980 . S
C368 C369 1.407 . S
C368 C373 1.418 . S
C368 O422 1.334 . S
C369 C368 1.407 . S
C369 C370 1.360 . S
C369 H430 0.929 . S
C370 C369 1.360 . S
C370 C371 1.401 . S
C370 C374 1.527 . S
C371 C370 1.401 . S
C371 C372 1.405 . S
C371 C404 1.587 . S
C372 C371 1.405 . S
C372 C373 1.332 . S
C372 C375 1.496 . S
C373 C368 1.418 . S
C373 C372 1.332 . S
C373 H431 0.929 . S
C374 C370 1.527 . S
C374 H432 0.959 . S
C374 H433 0.961 . S
C374 H434 0.961 . S
C375 C372 1.496 . S
C375 H435 0.960 . S
C375 H436 0.960 . S
C375 H437 0.961 . S
C376 C377 1.517 . S
C376 H439 0.961 . S
C376 H440 0.960 . S
C376 H441 0.959 . S
C377 C376 1.517 . S
C377 O425 1.468 . S
C377 H438 0.980 . S
C378 C379 1.349 . S
C378 C383 1.367 . S
C378 O425 1.408 . S
C379 C378 1.349 . S
C379 C380 1.407 . S
C379 H442 0.930 . S
C380 C379 1.407 . S
C380 C381 1.449 . S
C380 C384 1.535 . S
C381 C380 1.449 . S
C381 C382 1.384 . S
C381 C406 1.553 . S
C382 C381 1.384 . S
C382 C383 1.364 . S
C382 C385 1.450 . S
C383 C378 1.367 . S
C383 C382 1.364 . S
C383 H443 0.931 . S
C384 C380 1.535 . S
C384 H444 0.959 . S
C384 H445 0.961 . S
C384 H446 0.959 . S
C385 C382 1.450 . S
C385 H447 0.960 . S
C385 H448 0.960 . S
C385 H449 0.960 . S
C386 C387 1.309 . S
C386 C391 1.304 . S
C386 O424 1.435 . S
C387 C386 1.309 . S
C387 C388 1.476 . S
C387 H451 0.930 . S
C388 C387 1.476 . S
C388 C389 1.400 . S
C388 C392 1.567 . S
C389 C388 1.400 . S
C389 C390 1.373 . S
C389 C411 1.432 . S
C390 C389 1.373 . S
C390 C391 1.339 . S
C390 C393 1.530 . S
C391 C386 1.304 . S
C391 C390 1.339 . S
C391 H452 0.930 . S
C392 C388 1.567 . S
C392 H453 0.961 . S
C392 H454 0.960 . S
C392 H455 0.958 . S
C393 C390 1.530 . S
C393 H456 0.961 . S
C393 H457 0.960 . S
C393 H458 0.960 . S
C394 C395 1.530 . S
C394 H460 0.961 . S
C394 H461 0.961 . S
C394 H462 0.959 . S
C395 C394 1.530 . S
C395 O423 1.412 . S
C395 H459 0.980 . S
C396 C397 1.288 . S
C396 C401 1.377 . S
C396 O423 1.393 . S
C397 C396 1.288 . S
C397 C398 1.369 . S
C397 H463 0.932 . S
C398 C397 1.369 . S
C398 C399 1.398 . S
C398 C402 1.527 . S
C399 C398 1.398 . S
C399 C400 1.380 . S
C399 C413 1.497 . S
C400 C399 1.380 . S
C400 C401 1.383 . S
C400 C403 1.603 . S
C401 C396 1.377 . S
C401 C400 1.383 . S
C401 H464 0.929 . S
C402 C398 1.527 . S
C402 H465 0.961 . S
C402 H466 0.959 . S
C402 H467 0.959 . S
C403 C400 1.603 . S
C403 H468 0.960 . S
C403 H469 0.962 . S
C403 H470 0.961 . S
C404 C371 1.587 . S
C404 C405 1.360 . S
C404 C417 1.412 . S
C405 C404 1.360 . S
C405 C406 1.365 . S
C405 H471 0.929 . S
C406 C381 1.553 . S
C406 C405 1.365 . S
C406 C407 1.404 . S
C407 C406 1.404 . S
C407 C408 1.395 . S
C407 C418 1.451 . S
C408 C407 1.395 . S
C408 C409 1.322 . S
C408 H472 0.930 . S
C409 C408 1.322 . S
C409 C410 1.459 . S
C409 H473 0.929 . S
C410 C409 1.459 . S
C410 C411 1.445 . S
C410 C419 1.395 . S
C411 C389 1.432 . S
C411 C410 1.445 . S
C411 C412 1.370 . S
C412 C411 1.370 . S
C412 C413 1.438 . S
C412 H474 0.930 . S
C413 C399 1.497 . S
C413 C412 1.438 . S
C413 C414 1.360 . S
C414 C413 1.360 . S
C414 C415 1.401 . S
C414 C419 1.446 . S
C415 C414 1.401 . S
C415 C416 1.347 . S
C415 H475 0.929 . S
C416 C415 1.347 . S
C416 C417 1.455 . S
C416 H476 0.930 . S
C417 C404 1.412 . S
C417 C416 1.455 . S
C417 C418 1.331 . S
C418 C407 1.451 . S
C418 C417 1.331 . S
C418 C419 1.497 . S
C419 C410 1.395 . S
C419 C414 1.446 . S
C419 C418 1.497 . S
C420 C421 1.582 . S
C420 H477 0.962 . S
C420 H478 0.959 . S
C420 H479 0.958 . S
C421 C420 1.582 . S
C421 O424 1.458 . S
C421 H450 0.980 . S
O422 C367 1.426 . S
O422 C368 1.334 . S
O423 C395 1.412 . S
O423 C396 1.393 . S
O424 C386 1.435 . S
O424 C421 1.458 . S
O425 C377 1.468 . S
O425 C378 1.408 . S
H426 C367 0.980 . S
H427 C366 0.959 . S
H428 C366 0.959 . S
H429 C366 0.960 . S
H430 C369 0.929 . S
H431 C373 0.929 . S
H432 C374 0.959 . S
H433 C374 0.961 . S
H434 C374 0.961 . S
H435 C375 0.960 . S
H436 C375 0.960 . S
H437 C375 0.961 . S
H438 C377 0.980 . S
H439 C376 0.961 . S
H440 C376 0.960 . S
H441 C376 0.959 . S
H442 C379 0.930 . S
H443 C383 0.931 . S
H444 C384 0.959 . S
H445 C384 0.961 . S
H446 C384 0.959 . S
H447 C385 0.960 . S
H448 C385 0.960 . S
H449 C385 0.960 . S
H450 C421 0.980 . S
H451 C387 0.930 . S
H452 C391 0.930 . S
H453 C392 0.961 . S
H454 C392 0.960 . S
H455 C392 0.958 . S
H456 C393 0.961 . S
H457 C393 0.960 . S
H458 C393 0.960 . S
H459 C395 0.980 . S
H460 C394 0.961 . S
H461 C394 0.961 . S
H462 C394 0.959 . S
H463 C397 0.932 . S
H464 C401 0.929 . S
H465 C402 0.961 . S
H466 C402 0.959 . S
H467 C402 0.959 . S
H468 C403 0.960 . S
H469 C403 0.962 . S
H470 C403 0.961 . S
H471 C405 0.929 . S
H472 C408 0.930 . S
H473 C409 0.929 . S
H474 C412 0.930 . S
H475 C415 0.929 . S
H476 C416 0.930 . S
H477 C420 0.962 . S
H478 C420 0.959 . S
H479 C420 0.958 . S
C480 C481 1.560 . S
C480 H541 0.959 . S
C480 H542 0.959 . S
C480 H543 0.960 . S
C481 C480 1.560 . S
C481 O536 1.426 . S
C481 H540 0.980 . S
C482 C483 1.407 . S
C482 C487 1.418 . S
C482 O536 1.334 . S
C483 C482 1.407 . S
C483 C484 1.360 . S
C483 H544 0.929 . S
C484 C483 1.360 . S
C484 C485 1.401 . S
C484 C488 1.527 . S
C485 C484 1.401 . S
C485 C486 1.405 . S
C485 C518 1.587 . S
C486 C485 1.405 . S
C486 C487 1.332 . S
C486 C489 1.496 . S
C487 C482 1.418 . S
C487 C486 1.332 . S
C487 H545 0.929 . S
C488 C484 1.527 . S
C488 H546 0.959 . S
C488 H547 0.961 . S
C488 H548 0.961 . S
C489 C486 1.496 . S
C489 H549 0.960 . S
C489 H550 0.960 . S
C489 H551 0.961 . S
C490 C491 1.517 . S
C490 H553 0.961 . S
C490 H554 0.960 . S
C490 H555 0.959 . S
C491 C490 1.517 . S
C491 O539 1.468 . S
C491 H552 0.980 . S
C492 C493 1.349 . S
C492 C497 1.367 . S
C492 O539 1.408 . S
C493 C492 1.349 . S
C493 C494 1.407 . S
C493 H556 0.930 . S
C494 C493 1.407 . S
C494 C495 1.449 . S
C494 C498 1.535 . S
C495 C494 1.449 . S
C495 C496 1.384 . S
C495 C520 1.553 . S
C496 C495 1.384 . S
C496 C497 1.364 . S
C496 C499 1.450 . S
C497 C492 1.367 . S
C497 C496 1.364 . S
C497 H557 0.931 . S
C498 C494 1.535 . S
C498 H558 0.959 . S
C498 H559 0.961 . S
C498 H560 0.959 . S
C499 C496 1.450 . S
C499 H561 0.960 . S
C499 H562 0.960 . S
C499 H563 0.960 . S
C500 C501 1.309 . S
C500 C505 1.304 . S
C500 O538 1.435 . S
C501 C500 1.309 . S
C501 C502 1.476 . S
C501 H565 0.930 . S
C502 C501 1.476 . S
C502 C503 1.400 . S
C502 C506 1.567 . S
C503 C502 1.400 . S
C503 C504 1.373 . S
C503 C525 1.432 . S
C504 C503 1.373 . S
C504 C505 1.339 . S
C504 C507 1.530 . S
C505 C500 1.304 . S
C505 C504 1.339 . S
C505 H566 0.930 . S
C506 C502 1.567 . S
C506 H567 0.961 . S
C506 H568 0.960 . S
C506 H569 0.958 . S
C507 C504 1.530 . S
C507 H570 0.961 . S
C507 H571 0.960 . S
C507 H572 0.960 . S
C508 C509 1.530 . S
C508 H574 0.961 . S
C508 H575 0.961 . S
C508 H576 0.959 . S
C509 C508 1.530 . S
C509 O537 1.412 . S
C509 H573 0.980 . S
C510 C511 1.288 . S
C510 C515 1.377 . S
C510 O537 1.393 . S
C511 C510 1.288 . S
C511 C512 1.369 . S
C511 H577 0.932 . S
C512 C511 1.369 . S
C512 C513 1.398 . S
C512 C516 1.527 . S
C513 C512 1.398 . S
C513 C514 1.380 . S
C513 C527 1.497 . S
C514 C513 1.380 . S
C514 C515 1.383 . S
C514 C517 1.603 . S
C515 C510 1.377 . S
C515 C514 1.383 . S
C515 H578 0.929 . S
C516 C512 1.527 . S
C516 H579 0.961 . S
C516 H580 0.959 . S
C516 H581 0.959 . S
C517 C514 1.603 . S
C517 H582 0.960 . S
C517 H583 0.962 . S
C517 H584 0.961 . S
C518 C485 1.587 . S
C518 C519 1.360 . S
C518 C531 1.412 . S
C519 C518 1.360 . S
C519 C520 1.365 . S
C519 H585 0.929 . S
C520 C495 1.553 . S
C520 C519 1.365 . S
C520 C521 1.404 . S
C521 C520 1.404 . S
C521 C522 1.395 . S
C521 C532 1.451 . S
C522 C521 1.395 . S
C522 C523 1.322 . S
C522 H586 0.930 . S
C523 C522 1.322 . S
C523 C524 1.459 . S
C523 H587 0.929 . S
C524 C523 1.459 . S
C524 C525 1.445 . S
C524 C533 1.395 . S
C525 C503 1.432 . S
C525 C524 1.445 . S
C525 C526 1.370 . S
C526 C525 1.370 . S
C526 C527 1.438 . S
C526 H588 0.930 . S
C527 C513 1.497 . S
C527 C526 1.438 . S
C527 C528 1.360 . S
C528 C527 1.360 . S
C528 C529 1.401 . S
C528 C533 1.446 . S
C529 C528 1.401 . S
C529 C530 1.347 . S
C529 H589 0.929 . S
C530 C529 1.347 . S
C530 C531 1.455 . S
C530 H590 0.930 . S
C531 C518 1.412 . S
C531 C530 1.455 . S
C531 C532 1.331 . S
C532 C521 1.451 . S
C532 C531 1.331 . S
C532 C533 1.497 . S
C533 C524 1.395 . S
C533 C528 1.446 . S
C533 C532 1.497 . S
C534 C535 1.582 . S
C534 H591 0.962 . S
C534 H592 0.959 . S
C534 H593 0.958 . S
C535 C534 1.582 . S
C535 O538 1.458 . S
C535 H564 0.980 . S
O536 C481 1.426 . S
O536 C482 1.334 . S
O537 C509 1.412 . S
O537 C510 1.393 . S
O538 C500 1.435 . S
O538 C535 1.458 . S
O539 C491 1.468 . S
O539 C492 1.408 . S
H540 C481 0.980 . S
H541 C480 0.959 . S
H542 C480 0.959 . S
H543 C480 0.960 . S
H544 C483 0.929 . S
H545 C487 0.929 . S
H546 C488 0.959 . S
H547 C488 0.961 . S
H548 C488 0.961 . S
H549 C489 0.960 . S
H550 C489 0.960 . S
H551 C489 0.961 . S
H552 C491 0.980 . S
H553 C490 0.961 . S
H554 C490 0.960 . S
H555 C490 0.959 . S
H556 C493 0.930 . S
H557 C497 0.931 . S
H558 C498 0.959 . S
H559 C498 0.961 . S
H560 C498 0.959 . S
H561 C499 0.960 . S
H562 C499 0.960 . S
H563 C499 0.960 . S
H564 C535 0.980 . S
H565 C501 0.930 . S
H566 C505 0.930 . S
H567 C506 0.961 . S
H568 C506 0.960 . S
H569 C506 0.958 . S
H570 C507 0.961 . S
H571 C507 0.960 . S
H572 C507 0.960 . S
H573 C509 0.980 . S
H574 C508 0.961 . S
H575 C508 0.961 . S
H576 C508 0.959 . S
H577 C511 0.932 . S
H578 C515 0.929 . S
H579 C516 0.961 . S
H580 C516 0.959 . S
H581 C516 0.959 . S
H582 C517 0.960 . S
H583 C517 0.962 . S
H584 C517 0.961 . S
H585 C519 0.929 . S
H586 C522 0.930 . S
H587 C523 0.929 . S
H588 C526 0.930 . S
H589 C529 0.929 . S
H590 C530 0.930 . S
H591 C534 0.962 . S
H592 C534 0.959 . S
H593 C534 0.958 . S
C594 C595 1.560 . S
C594 H655 0.959 . S
C594 H656 0.959 . S
C594 H657 0.960 . S
C595 C594 1.560 . S
C595 O650 1.426 . S
C595 H654 0.980 . S
C596 C597 1.407 . S
C596 C601 1.418 . S
C596 O650 1.334 . S
C597 C596 1.407 . S
C597 C598 1.360 . S
C597 H658 0.929 . S
C598 C597 1.360 . S
C598 C599 1.401 . S
C598 C602 1.527 . S
C599 C598 1.401 . S
C599 C600 1.405 . S
C599 C632 1.587 . S
C600 C599 1.405 . S
C600 C601 1.332 . S
C600 C603 1.496 . S
C601 C596 1.418 . S
C601 C600 1.332 . S
C601 H659 0.929 . S
C602 C598 1.527 . S
C602 H660 0.959 . S
C602 H661 0.961 . S
C602 H662 0.961 . S
C603 C600 1.496 . S
C603 H663 0.960 . S
C603 H664 0.960 . S
C603 H665 0.961 . S
C604 C605 1.517 . S
C604 H667 0.961 . S
C604 H668 0.960 . S
C604 H669 0.959 . S
C605 C604 1.517 . S
C605 O653 1.468 . S
C605 H666 0.980 . S
C606 C607 1.349 . S
C606 C611 1.367 . S
C606 O653 1.408 . S
C607 C606 1.349 . S
C607 C608 1.407 . S
C607 H670 0.930 . S
C608 C607 1.407 . S
C608 C609 1.449 . S
C608 C612 1.535 . S
C609 C608 1.449 . S
C609 C610 1.384 . S
C609 C634 1.553 . S
C610 C609 1.384 . S
C610 C611 1.364 . S
C610 C613 1.450 . S
C611 C606 1.367 . S
C611 C610 1.364 . S
C611 H671 0.931 . S
C612 C608 1.535 . S
C612 H672 0.959 . S
C612 H673 0.961 . S
C612 H674 0.959 . S
C613 C610 1.450 . S
C613 H675 0.960 . S
C613 H676 0.960 . S
C613 H677 0.960 . S
C614 C615 1.309 . S
C614 C619 1.304 . S
C614 O652 1.435 . S
C615 C614 1.309 . S
C615 C616 1.476 . S
C615 H679 0.930 . S
C616 C615 1.476 . S
C616 C617 1.400 . S
C616 C620 1.567 . S
C617 C616 1.400 . S
C617 C618 1.373 . S
C617 C639 1.432 . S
C618 C617 1.373 . S
C618 C619 1.339 . S
C618 C621 1.530 . S
C619 C614 1.304 . S
C619 C618 1.339 . S
C619 H680 0.930 . S
C620 C616 1.567 . S
C620 H681 0.961 . S
C620 H682 0.960 . S
C620 H683 0.958 . S
C621 C618 1.530 . S
C621 H684 0.961 . S
C621 H685 0.960 . S
C621 H686 0.960 . S
C622 C623 1.530 . S
C622 H688 0.961 . S
C622 H689 0.961 . S
C622 H690 0.959 . S
C623 C622 1.530 . S
C623 O651 1.412 . S
C623 H687 0.980 . S
C624 C625 1.288 . S
C624 C629 1.377 . S
C624 O651 1.393 . S
C625 C624 1.288 . S
C625 C626 1.369 . S
C625 H691 0.932 . S
C626 C625 1.369 . S
C626 C627 1.398 . S
C626 C630 1.527 . S
C627 C626 1.398 . S
C627 C628 1.380 . S
C627 C641 1.497 . S
C628 C627 1.380 . S
C628 C629 1.383 . S
C628 C631 1.603 . S
C629 C624 1.377 . S
C629 C628 1.383 . S
C629 H692 0.929 . S
C630 C626 1.527 . S
C630 H693 0.961 . S
C630 H694 0.959 . S
C630 H695 0.959 . S
C631 C628 1.603 . S
C631 H696 0.960 . S
C631 H697 0.962 . S
C631 H698 0.961 . S
C632 C599 1.587 . S
C632 C633 1.360 . S
C632 C645 1.412 . S
C633 C632 1.360 . S
C633 C634 1.365 . S
C633 H699 0.929 . S
C634 C609 1.553 . S
C634 C633 1.365 . S
C634 C635 1.404 . S
C635 C634 1.404 . S
C635 C636 1.395 . S
C635 C646 1.451 . S
C636 C635 1.395 . S
C636 C637 1.322 . S
C636 H700 0.930 . S
C637 C636 1.322 . S
C637 C638 1.459 . S
C637 H701 0.929 . S
C638 C637 1.459 . S
C638 C639 1.445 . S
C638 C647 1.395 . S
C639 C617 1.432 . S
C639 C638 1.445 . S
C639 C640 1.370 . S
C640 C639 1.370 . S
C640 C641 1.438 . S
C640 H702 0.930 . S
C641 C627 1.497 . S
C641 C640 1.438 . S
C641 C642 1.360 . S
C642 C641 1.360 . S
C642 C643 1.401 . S
C642 C647 1.446 . S
C643 C642 1.401 . S
C643 C644 1.347 . S
C643 H703 0.929 . S
C644 C643 1.347 . S
C644 C645 1.455 . S
C644 H704 0.930 . S
C645 C632 1.412 . S
C645 C644 1.455 . S
C645 C646 1.331 . S
C646 C635 1.451 . S
C646 C645 1.331 . S
C646 C647 1.497 . S
C647 C638 1.395 . S
C647 C642 1.446 . S
C647 C646 1.497 . S
C648 C649 1.582 . S
C648 H705 0.962 . S
C648 H706 0.959 . S
C648 H707 0.958 . S
C649 C648 1.582 . S
C649 O652 1.458 . S
C649 H678 0.980 . S
O650 C595 1.426 . S
O650 C596 1.334 . S
O651 C623 1.412 . S
O651 C624 1.393 . S
O652 C614 1.435 . S
O652 C649 1.458 . S
O653 C605 1.468 . S
O653 C606 1.408 . S
H654 C595 0.980 . S
H655 C594 0.959 . S
H656 C594 0.959 . S
H657 C594 0.960 . S
H658 C597 0.929 . S
H659 C601 0.929 . S
H660 C602 0.959 . S
H661 C602 0.961 . S
H662 C602 0.961 . S
H663 C603 0.960 . S
H664 C603 0.960 . S
H665 C603 0.961 . S
H666 C605 0.980 . S
H667 C604 0.961 . S
H668 C604 0.960 . S
H669 C604 0.959 . S
H670 C607 0.930 . S
H671 C611 0.931 . S
H672 C612 0.959 . S
H673 C612 0.961 . S
H674 C612 0.959 . S
H675 C613 0.960 . S
H676 C613 0.960 . S
H677 C613 0.960 . S
H678 C649 0.980 . S
H679 C615 0.930 . S
H680 C619 0.930 . S
H681 C620 0.961 . S
H682 C620 0.960 . S
H683 C620 0.958 . S
H684 C621 0.961 . S
H685 C621 0.960 . S
H686 C621 0.960 . S
H687 C623 0.980 . S
H688 C622 0.961 . S
H689 C622 0.961 . S
H690 C622 0.959 . S
H691 C625 0.932 . S
H692 C629 0.929 . S
H693 C630 0.961 . S
H694 C630 0.959 . S
H695 C630 0.959 . S
H696 C631 0.960 . S
H697 C631 0.962 . S
H698 C631 0.961 . S
H699 C633 0.929 . S
H700 C636 0.930 . S
H701 C637 0.929 . S
H702 C640 0.930 . S
H703 C643 0.929 . S
H704 C644 0.930 . S
H705 C648 0.962 . S
H706 C648 0.959 . S
H707 C648 0.958 . S
C708 C709 1.560 . S
C708 H769 0.959 . S
C708 H770 0.959 . S
C708 H771 0.960 . S
C709 C708 1.560 . S
C709 O764 1.426 . S
C709 H768 0.980 . S
C710 C711 1.407 . S
C710 C715 1.418 . S
C710 O764 1.334 . S
C711 C710 1.407 . S
C711 C712 1.360 . S
C711 H772 0.929 . S
C712 C711 1.360 . S
C712 C713 1.401 . S
C712 C716 1.527 . S
C713 C712 1.401 . S
C713 C714 1.405 . S
C713 C746 1.587 . S
C714 C713 1.405 . S
C714 C715 1.332 . S
C714 C717 1.496 . S
C715 C710 1.418 . S
C715 C714 1.332 . S
C715 H773 0.929 . S
C716 C712 1.527 . S
C716 H774 0.959 . S
C716 H775 0.961 . S
C716 H776 0.961 . S
C717 C714 1.496 . S
C717 H777 0.960 . S
C717 H778 0.960 . S
C717 H779 0.961 . S
C718 C719 1.517 . S
C718 H781 0.961 . S
C718 H782 0.960 . S
C718 H783 0.959 . S
C719 C718 1.517 . S
C719 O767 1.468 . S
C719 H780 0.980 . S
C720 C721 1.349 . S
C720 C725 1.367 . S
C720 O767 1.408 . S
C721 C720 1.349 . S
C721 C722 1.407 . S
C721 H784 0.930 . S
C722 C721 1.407 . S
C722 C723 1.449 . S
C722 C726 1.535 . S
C723 C722 1.449 . S
C723 C724 1.384 . S
C723 C748 1.553 . S
C724 C723 1.384 . S
C724 C725 1.364 . S
C724 C727 1.450 . S
C725 C720 1.367 . S
C725 C724 1.364 . S
C725 H785 0.931 . S
C726 C722 1.535 . S
C726 H786 0.959 . S
C726 H787 0.961 . S
C726 H788 0.959 . S
C727 C724 1.450 . S
C727 H789 0.960 . S
C727 H790 0.960 . S
C727 H791 0.960 . S
C728 C729 1.309 . S
C728 C733 1.304 . S
C728 O766 1.435 . S
C729 C728 1.309 . S
C729 C730 1.476 . S
C729 H793 0.930 . S
C730 C729 1.476 . S
C730 C731 1.400 . S
C730 C734 1.567 . S
C731 C730 1.400 . S
C731 C732 1.373 . S
C731 C753 1.432 . S
C732 C731 1.373 . S
C732 C733 1.339 . S
C732 C735 1.530 . S
C733 C728 1.304 . S
C733 C732 1.339 . S
C733 H794 0.930 . S
C734 C730 1.567 . S
C734 H795 0.961 . S
C734 H796 0.960 . S
C734 H797 0.958 . S
C735 C732 1.530 . S
C735 H798 0.961 . S
C735 H799 0.960 . S
C735 H800 0.960 . S
C736 C737 1.530 . S
C736 H802 0.961 . S
C736 H803 0.961 . S
C736 H804 0.959 . S
C737 C736 1.530 . S
C737 O765 1.412 . S
C737 H801 0.980 . S
C738 C739 1.288 . S
C738 C743 1.377 . S
C738 O765 1.393 . S
C739 C738 1.288 . S
C739 C740 1.369 . S
C739 H805 0.932 . S
C740 C739 1.369 . S
C740 C741 1.398 . S
C740 C744 1.527 . S
C741 C740 1.398 . S
C741 C742 1.380 . S
C741 C755 1.497 . S
C742 C741 1.380 . S
C742 C743 1.383 . S
C742 C745 1.603 . S
C743 C738 1.377 . S
C743 C742 1.383 . S
C743 H806 0.929 . S
C744 C740 1.527 . S
C744 H807 0.961 . S
C744 H808 0.959 . S
C744 H809 0.959 . S
C745 C742 1.603 . S
C745 H810 0.960 . S
C745 H811 0.962 . S
C745 H812 0.961 . S
C746 C713 1.587 . S
C746 C747 1.360 . S
C746 C759 1.412 . S
C747 C746 1.360 . S
C747 C748 1.365 . S
C747 H813 0.929 . S
C748 C723 1.553 . S
C748 C747 1.365 . S
C748 C749 1.404 . S
C749 C748 1.404 . S
C749 C750 1.395 . S
C749 C760 1.451 . S
C750 C749 1.395 . S
C750 C751 1.322 . S
C750 H814 0.930 . S
C751 C750 1.322 . S
C751 C752 1.459 . S
C751 H815 0.929 . S
C752 C751 1.459 . S
C752 C753 1.445 . S
C752 C761 1.395 . S
C753 C731 1.432 . S
C753 C752 1.445 . S
C753 C754 1.370 . S
C754 C753 1.370 . S
C754 C755 1.438 . S
C754 H816 0.930 . S
C755 C741 1.497 . S
C755 C754 1.438 . S
C755 C756 1.360 . S
C756 C755 1.360 . S
C756 C757 1.401 . S
C756 C761 1.446 . S
C757 C756 1.401 . S
C757 C758 1.347 . S
C757 H817 0.929 . S
C758 C757 1.347 . S
C758 C759 1.455 . S
C758 H818 0.930 . S
C759 C746 1.412 . S
C759 C758 1.455 . S
C759 C760 1.331 . S
C760 C749 1.451 . S
C760 C759 1.331 . S
C760 C761 1.497 . S
C761 C752 1.395 . S
C761 C756 1.446 . S
C761 C760 1.497 . S
C762 C763 1.582 . S
C762 H819 0.962 . S
C762 H820 0.959 . S
C762 H821 0.958 . S
C763 C762 1.582 . S
C763 O766 1.458 . S
C763 H792 0.980 . S
O764 C709 1.426 . S
O764 C710 1.334 . S
O765 C737 1.412 . S
O765 C738 1.393 . S
O766 C728 1.435 . S
O766 C763 1.458 . S
O767 C719 1.468 . S
O767 C720 1.408 . S
H768 C709 0.980 . S
H769 C708 0.959 . S
H770 C708 0.959 . S
H771 C708 0.960 . S
H772 C711 0.929 . S
H773 C715 0.929 . S
H774 C716 0.959 . S
H775 C716 0.961 . S
H776 C716 0.961 . S
H777 C717 0.960 . S
H778 C717 0.960 . S
H779 C717 0.961 . S
H780 C719 0.980 . S
H781 C718 0.961 . S
H782 C718 0.960 . S
H783 C718 0.959 . S
H784 C721 0.930 . S
H785 C725 0.931 . S
H786 C726 0.959 . S
H787 C726 0.961 . S
H788 C726 0.959 . S
H789 C727 0.960 . S
H790 C727 0.960 . S
H791 C727 0.960 . S
H792 C763 0.980 . S
H793 C729 0.930 . S
H794 C733 0.930 . S
H795 C734 0.961 . S
H796 C734 0.960 . S
H797 C734 0.958 . S
H798 C735 0.961 . S
H799 C735 0.960 . S
H800 C735 0.960 . S
H801 C737 0.980 . S
H802 C736 0.961 . S
H803 C736 0.961 . S
H804 C736 0.959 . S
H805 C739 0.932 . S
H806 C743 0.929 . S
H807 C744 0.961 . S
H808 C744 0.959 . S
H809 C744 0.959 . S
H810 C745 0.960 . S
H811 C745 0.962 . S
H812 C745 0.961 . S
H813 C747 0.929 . S
H814 C750 0.930 . S
H815 C751 0.929 . S
H816 C754 0.930 . S
H817 C757 0.929 . S
H818 C758 0.930 . S
H819 C762 0.962 . S
H820 C762 0.959 . S
H821 C762 0.958 . S
H822 C828 0.930 . S
H823 C831 0.930 . S
H824 C832 0.930 . S
H825 C833 0.930 . S
H826 C836 0.930 . S
H827 C837 0.930 . S
C828 H822 0.930 . S
C828 C829 1.355 . S
C828 C830 1.415 . S
C829 C828 1.355 . S
C829 C831 1.419 . S
C830 C828 1.415 . S
C830 C835 1.425 . S
C830 C837 1.409 . S
C831 H823 0.930 . S
C831 C829 1.419 . S
C831 C832 1.362 . S
C832 H824 0.930 . S
C832 C831 1.362 . S
C832 C835 1.409 . S
C833 H825 0.930 . S
C833 C834 1.355 . S
C833 C835 1.415 . S
C834 C833 1.355 . S
C834 C836 1.419 . S
C835 C830 1.425 . S
C835 C832 1.409 . S
C835 C833 1.415 . S
C836 H826 0.930 . S
C836 C834 1.419 . S
C836 C837 1.362 . S
C837 H827 0.930 . S
C837 C830 1.409 . S
C837 C836 1.362 . S
H838 C844 0.930 . S
H839 C847 0.930 . S
H840 C848 0.930 . S
H841 C849 0.930 . S
H842 C852 0.930 . S
H843 C853 0.930 . S
C844 H838 0.930 . S
C844 C845 1.355 . S
C844 C846 1.415 . S
C845 C844 1.355 . S
C845 C847 1.419 . S
C846 C844 1.415 . S
C846 C851 1.425 . S
C846 C853 1.409 . S
C847 H839 0.930 . S
C847 C845 1.419 . S
C847 C848 1.362 . S
C848 H840 0.930 . S
C848 C847 1.362 . S
C848 C851 1.409 . S
C849 H841 0.930 . S
C849 C850 1.355 . S
C849 C851 1.415 . S
C850 C849 1.355 . S
C850 C852 1.419 . S
C851 C846 1.425 . S
C851 C848 1.409 . S
C851 C849 1.415 . S
C852 H842 0.930 . S
C852 C850 1.419 . S
C852 C853 1.362 . S
C853 H843 0.930 . S
C853 C846 1.409 . S
C853 C852 1.362 . S
H854 C860 0.930 . S
H855 C863 0.930 . S
H856 C864 0.930 . S
H857 C865 0.930 . S
H858 C868 0.930 . S
H859 C869 0.930 . S
C860 H854 0.930 . S
C860 C861 1.355 . S
C860 C862 1.415 . S
C861 C860 1.355 . S
C861 C863 1.419 . S
C862 C860 1.415 . S
C862 C867 1.425 . S
C862 C869 1.409 . S
C863 H855 0.930 . S
C863 C861 1.419 . S
C863 C864 1.362 . S
C864 H856 0.930 . S
C864 C863 1.362 . S
C864 C867 1.409 . S
C865 H857 0.930 . S
C865 C866 1.355 . S
C865 C867 1.415 . S
C866 C865 1.355 . S
C866 C868 1.419 . S
C867 C862 1.425 . S
C867 C864 1.409 . S
C867 C865 1.415 . S
C868 H858 0.930 . S
C868 C866 1.419 . S
C868 C869 1.362 . S
C869 H859 0.930 . S
C869 C862 1.409 . S
C869 C868 1.362 . S
H870 C876 0.930 . S
H871 C879 0.930 . S
H872 C880 0.930 . S
H873 C881 0.930 . S
H874 C884 0.930 . S
H875 C885 0.930 . S
C876 H870 0.930 . S
C876 C877 1.355 . S
C876 C878 1.415 . S
C877 C876 1.355 . S
C877 C879 1.419 . S
C878 C876 1.415 . S
C878 C883 1.425 . S
C878 C885 1.409 . S
C879 H871 0.930 . S
C879 C877 1.419 . S
C879 C880 1.362 . S
C880 H872 0.930 . S
C880 C879 1.362 . S
C880 C883 1.409 . S
C881 H873 0.930 . S
C881 C882 1.355 . S
C881 C883 1.415 . S
C882 C881 1.355 . S
C882 C884 1.419 . S
C883 C878 1.425 . S
C883 C880 1.409 . S
C883 C881 1.415 . S
C884 H874 0.930 . S
C884 C882 1.419 . S
C884 C885 1.362 . S
C885 H875 0.930 . S
C885 C878 1.409 . S
C885 C884 1.362 . S
H886 C892 0.930 . S
H887 C895 0.930 . S
H888 C896 0.930 . S
H889 C897 0.930 . S
H890 C900 0.930 . S
H891 C901 0.930 . S
C892 H886 0.930 . S
C892 C893 1.355 . S
C892 C894 1.415 . S
C893 C892 1.355 . S
C893 C895 1.419 . S
C894 C892 1.415 . S
C894 C899 1.425 . S
C894 C901 1.409 . S
C895 H887 0.930 . S
C895 C893 1.419 . S
C895 C896 1.362 . S
C896 H888 0.930 . S
C896 C895 1.362 . S
C896 C899 1.409 . S
C897 H889 0.930 . S
C897 C898 1.355 . S
C897 C899 1.415 . S
C898 C897 1.355 . S
C898 C900 1.419 . S
C899 C894 1.425 . S
C899 C896 1.409 . S
C899 C897 1.415 . S
C900 H890 0.930 . S
C900 C898 1.419 . S
C900 C901 1.362 . S
C901 H891 0.930 . S
C901 C894 1.409 . S
C901 C900 1.362 . S
H902 C908 0.930 . S
H903 C911 0.930 . S
H904 C912 0.930 . S
H905 C913 0.930 . S
H906 C916 0.930 . S
H907 C917 0.930 . S
C908 H902 0.930 . S
C908 C909 1.355 . S
C908 C910 1.415 . S
C909 C908 1.355 . S
C909 C911 1.419 . S
C910 C908 1.415 . S
C910 C915 1.425 . S
C910 C917 1.409 . S
C911 H903 0.930 . S
C911 C909 1.419 . S
C911 C912 1.362 . S
C912 H904 0.930 . S
C912 C911 1.362 . S
C912 C915 1.409 . S
C913 H905 0.930 . S
C913 C914 1.355 . S
C913 C915 1.415 . S
C914 C913 1.355 . S
C914 C916 1.419 . S
C915 C910 1.425 . S
C915 C912 1.409 . S
C915 C913 1.415 . S
C916 H906 0.930 . S
C916 C914 1.419 . S
C916 C917 1.362 . S
C917 H907 0.930 . S
C917 C910 1.409 . S
C917 C916 1.362 . S
H918 C924 0.930 . S
H919 C927 0.930 . S
H920 C928 0.930 . S
H921 C929 0.930 . S
H922 C932 0.930 . S
H923 C933 0.930 . S
C924 H918 0.930 . S
C924 C925 1.355 . S
C924 C926 1.415 . S
C925 C924 1.355 . S
C925 C927 1.419 . S
C926 C924 1.415 . S
C926 C931 1.425 . S
C926 C933 1.409 . S
C927 H919 0.930 . S
C927 C925 1.419 . S
C927 C928 1.362 . S
C928 H920 0.930 . S
C928 C927 1.362 . S
C928 C931 1.409 . S
C929 H921 0.930 . S
C929 C930 1.355 . S
C929 C931 1.415 . S
C930 C929 1.355 . S
C930 C932 1.419 . S
C931 C926 1.425 . S
C931 C928 1.409 . S
C931 C929 1.415 . S
C932 H922 0.930 . S
C932 C930 1.419 . S
C932 C933 1.362 . S
C933 H923 0.930 . S
C933 C926 1.409 . S
C933 C932 1.362 . S
H934 C940 0.930 . S
H935 C943 0.930 . S
H936 C944 0.930 . S
H937 C945 0.930 . S
H938 C948 0.930 . S
H939 C949 0.930 . S
C940 H934 0.930 . S
C940 C941 1.355 . S
C940 C942 1.415 . S
C941 C940 1.355 . S
C941 C943 1.419 . S
C942 C940 1.415 . S
C942 C947 1.425 . S
C942 C949 1.409 . S
C943 H935 0.930 . S
C943 C941 1.419 . S
C943 C944 1.362 . S
C944 H936 0.930 . S
C944 C943 1.362 . S
C944 C947 1.409 . S
C945 H937 0.930 . S
C945 C946 1.355 . S
C945 C947 1.415 . S
C946 C945 1.355 . S
C946 C948 1.419 . S
C947 C942 1.425 . S
C947 C944 1.409 . S
C947 C945 1.415 . S
C948 H938 0.930 . S
C948 C946 1.419 . S
C948 C949 1.362 . S
C949 H939 0.930 . S
C949 C942 1.409 . S
C949 C948 1.362 . S
H950 C956 0.930 . S
H951 C959 0.930 . S
H952 C960 0.930 . S
H953 C961 0.930 . S
H954 C964 0.930 . S
H955 C965 0.930 . S
C956 H950 0.930 . S
C956 C957 1.355 . S
C956 C958 1.415 . S
C957 C956 1.355 . S
C957 C959 1.419 . S
C958 C956 1.415 . S
C958 C963 1.425 . S
C958 C965 1.409 . S
C959 H951 0.930 . S
C959 C957 1.419 . S
C959 C960 1.362 . S
C960 H952 0.930 . S
C960 C959 1.362 . S
C960 C963 1.409 . S
C961 H953 0.930 . S
C961 C962 1.355 . S
C961 C963 1.415 . S
C962 C961 1.355 . S
C962 C964 1.419 . S
C963 C958 1.425 . S
C963 C960 1.409 . S
C963 C961 1.415 . S
C964 H954 0.930 . S
C964 C962 1.419 . S
C964 C965 1.362 . S
C965 H955 0.930 . S
C965 C958 1.409 . S
C965 C964 1.362 . S
H966 C972 0.930 . S
H967 C975 0.930 . S
H968 C976 0.930 . S
H969 C977 0.930 . S
H970 C980 0.930 . S
H971 C981 0.930 . S
C972 H966 0.930 . S
C972 C973 1.355 . S
C972 C974 1.415 . S
C973 C972 1.355 . S
C973 C975 1.419 . S
C974 C972 1.415 . S
C974 C979 1.425 . S
C974 C981 1.409 . S
C975 H967 0.930 . S
C975 C973 1.419 . S
C975 C976 1.362 . S
C976 H968 0.930 . S
C976 C975 1.362 . S
C976 C979 1.409 . S
C977 H969 0.930 . S
C977 C978 1.355 . S
C977 C979 1.415 . S
C978 C977 1.355 . S
C978 C980 1.419 . S
C979 C974 1.425 . S
C979 C976 1.409 . S
C979 C977 1.415 . S
C980 H970 0.930 . S
C980 C978 1.419 . S
C980 C981 1.362 . S
C981 H971 0.930 . S
C981 C974 1.409 . S
C981 C980 1.362 . S
H982 C988 0.930 . S
H983 C991 0.930 . S
H984 C992 0.930 . S
H985 C993 0.930 . S
H986 C996 0.930 . S
H987 C997 0.930 . S
C988 H982 0.930 . S
C988 C989 1.355 . S
C988 C990 1.415 . S
C989 C988 1.355 . S
C989 C991 1.419 . S
C990 C988 1.415 . S
C990 C995 1.425 . S
C990 C997 1.409 . S
C991 H983 0.930 . S
C991 C989 1.419 . S
C991 C992 1.362 . S
C992 H984 0.930 . S
C992 C991 1.362 . S
C992 C995 1.409 . S
C993 H985 0.930 . S
C993 C994 1.355 . S
C993 C995 1.415 . S
C994 C993 1.355 . S
C994 C996 1.419 . S
C995 C990 1.425 . S
C995 C992 1.409 . S
C995 C993 1.415 . S
C996 H986 0.930 . S
C996 C994 1.419 . S
C996 C997 1.362 . S
C997 H987 0.930 . S
C997 C990 1.409 . S
C997 C996 1.362 . S
H998 C1004 0.930 . S
H999 C1007 0.930 . S
H1000 C1008 0.930 . S
H1001 C1009 0.930 . S
H1002 C1012 0.930 . S
H1003 C1013 0.930 . S
C1004 H998 0.930 . S
C1004 C1005 1.355 . S
C1004 C1006 1.415 . S
C1005 C1004 1.355 . S
C1005 C1007 1.419 . S
C1006 C1004 1.415 . S
C1006 C1011 1.425 . S
C1006 C1013 1.409 . S
C1007 H999 0.930 . S
C1007 C1005 1.419 . S
C1007 C1008 1.362 . S
C1008 H1000 0.930 . S
C1008 C1007 1.362 . S
C1008 C1011 1.409 . S
C1009 H1001 0.930 . S
C1009 C1010 1.355 . S
C1009 C1011 1.415 . S
C1010 C1009 1.355 . S
C1010 C1012 1.419 . S
C1011 C1006 1.425 . S
C1011 C1008 1.409 . S
C1011 C1009 1.415 . S
C1012 H1002 0.930 . S
C1012 C1010 1.419 . S
C1012 C1013 1.362 . S
C1013 H1003 0.930 . S
C1013 C1006 1.409 . S
C1013 C1012 1.362 . S
H1014 C1020 0.930 1_455 S
H1015 C1023 0.930 . S
H1016 C1024 0.930 . S
H1017 C1025 0.930 . S
H1018 C1028 0.930 . S
H1019 C1029 0.930 . S
C1020 H1014 0.930 1_655 S
C1020 C1021 1.355 . S
C1020 C1022 1.415 . S
C1021 C1020 1.355 . S
C1021 C1023 1.419 . S
C1022 C1020 1.415 . S
C1022 C1027 1.425 . S
C1022 C1029 1.409 . S
C1023 H1015 0.930 . S
C1023 C1021 1.419 . S
C1023 C1024 1.362 . S
C1024 H1016 0.930 . S
C1024 C1023 1.362 . S
C1024 C1027 1.409 . S
C1025 H1017 0.930 . S
C1025 C1026 1.355 . S
C1025 C1027 1.415 . S
C1026 C1025 1.355 . S
C1026 C1028 1.419 . S
C1027 C1022 1.425 . S
C1027 C1024 1.409 . S
C1027 C1025 1.415 . S
C1028 H1018 0.930 . S
C1028 C1026 1.419 . S
C1028 C1029 1.362 . S
C1029 H1019 0.930 . S
C1029 C1022 1.409 . S
C1029 C1028 1.362 . S
H1030 C1036 0.930 . S
H1031 C1039 0.930 . S
H1032 C1040 0.930 . S
H1033 C1041 0.930 . S
H1034 C1044 0.930 . S
H1035 C1045 0.930 . S
C1036 H1030 0.930 . S
C1036 C1037 1.355 . S
C1036 C1038 1.415 . S
C1037 C1036 1.355 . S
C1037 C1039 1.419 . S
C1038 C1036 1.415 . S
C1038 C1043 1.425 . S
C1038 C1045 1.409 . S
C1039 H1031 0.930 . S
C1039 C1037 1.419 . S
C1039 C1040 1.362 . S
C1040 H1032 0.930 . S
C1040 C1039 1.362 . S
C1040 C1043 1.409 . S
C1041 H1033 0.930 . S
C1041 C1042 1.355 . S
C1041 C1043 1.415 . S
C1042 C1041 1.355 . S
C1042 C1044 1.419 . S
C1043 C1038 1.425 . S
C1043 C1040 1.409 . S
C1043 C1041 1.415 . S
C1044 H1034 0.930 . S
C1044 C1042 1.419 . S
C1044 C1045 1.362 . S
C1045 H1035 0.930 . S
C1045 C1038 1.409 . S
C1045 C1044 1.362 . S
H1046 C1052 0.930 . S
H1047 C1055 0.930 . S
H1048 C1056 0.930 . S
H1049 C1057 0.930 . S
H1050 C1060 0.930 . S
H1051 C1061 0.930 . S
C1052 H1046 0.930 . S
C1052 C1053 1.355 . S
C1052 C1054 1.415 . S
C1053 C1052 1.355 . S
C1053 C1055 1.419 . S
C1054 C1052 1.415 . S
C1054 C1059 1.425 . S
C1054 C1061 1.409 . S
C1055 H1047 0.930 . S
C1055 C1053 1.419 . S
C1055 C1056 1.362 . S
C1056 H1048 0.930 . S
C1056 C1055 1.362 . S
C1056 C1059 1.409 . S
C1057 H1049 0.930 . S
C1057 C1058 1.355 . S
C1057 C1059 1.415 . S
C1058 C1057 1.355 . S
C1058 C1060 1.419 . S
C1059 C1054 1.425 . S
C1059 C1056 1.409 . S
C1059 C1057 1.415 . S
C1060 H1050 0.930 . S
C1060 C1058 1.419 . S
C1060 C1061 1.362 . S
C1061 H1051 0.930 . S
C1061 C1054 1.409 . S
C1061 C1060 1.362 . S
H1062 C1068 0.930 . S
H1063 C1071 0.930 . S
H1064 C1072 0.930 . S
H1065 C1073 0.930 . S
H1066 C1076 0.930 . S
H1067 C1077 0.930 . S
C1068 H1062 0.930 . S
C1068 C1069 1.355 . S
C1068 C1070 1.415 . S
C1069 C1068 1.355 . S
C1069 C1071 1.419 . S
C1070 C1068 1.415 . S
C1070 C1075 1.425 . S
C1070 C1077 1.409 . S
C1071 H1063 0.930 . S
C1071 C1069 1.419 . S
C1071 C1072 1.362 . S
C1072 H1064 0.930 . S
C1072 C1071 1.362 . S
C1072 C1075 1.409 . S
C1073 H1065 0.930 . S
C1073 C1074 1.355 . S
C1073 C1075 1.415 . S
C1074 C1073 1.355 . S
C1074 C1076 1.419 . S
C1075 C1070 1.425 . S
C1075 C1072 1.409 . S
C1075 C1073 1.415 . S
C1076 H1066 0.930 . S
C1076 C1074 1.419 . S
C1076 C1077 1.362 . S
C1077 H1067 0.930 . S
C1077 C1070 1.409 . S
C1077 C1076 1.362 . S
H1078 C1084 0.930 . S
H1079 C1087 0.930 . S
H1080 C1088 0.930 . S
H1081 C1089 0.930 . S
H1082 C1092 0.930 . S
H1083 C1093 0.930 . S
C1084 H1078 0.930 . S
C1084 C1085 1.355 . S
C1084 C1086 1.415 . S
C1085 C1084 1.355 . S
C1085 C1087 1.419 . S
C1086 C1084 1.415 . S
C1086 C1091 1.425 . S
C1086 C1093 1.409 . S
C1087 H1079 0.930 . S
C1087 C1085 1.419 . S
C1087 C1088 1.362 . S
C1088 H1080 0.930 . S
C1088 C1087 1.362 . S
C1088 C1091 1.409 . S
C1089 H1081 0.930 . S
C1089 C1090 1.355 . S
C1089 C1091 1.415 . S
C1090 C1089 1.355 . S
C1090 C1092 1.419 . S
C1091 C1086 1.425 . S
C1091 C1088 1.409 . S
C1091 C1089 1.415 . S
C1092 H1082 0.930 . S
C1092 C1090 1.419 . S
C1092 C1093 1.362 . S
C1093 H1083 0.930 . S
C1093 C1086 1.409 . S
C1093 C1092 1.362 . S
H1094 C1100 0.930 . S
H1095 C1103 0.930 . S
H1096 C1104 0.930 . S
H1097 C1105 0.930 . S
H1098 C1108 0.930 . S
H1099 C1109 0.930 . S
C1100 H1094 0.930 . S
C1100 C1101 1.355 . S
C1100 C1102 1.415 . S
C1101 C1100 1.355 . S
C1101 C1103 1.419 . S
C1102 C1100 1.415 . S
C1102 C1107 1.425 . S
C1102 C1109 1.409 . S
C1103 H1095 0.930 . S
C1103 C1101 1.419 . S
C1103 C1104 1.362 . S
C1104 H1096 0.930 . S
C1104 C1103 1.362 . S
C1104 C1107 1.409 . S
C1105 H1097 0.930 . S
C1105 C1106 1.355 . S
C1105 C1107 1.415 . S
C1106 C1105 1.355 . S
C1106 C1108 1.419 . S
C1107 C1102 1.425 . S
C1107 C1104 1.409 . S
C1107 C1105 1.415 . S
C1108 H1098 0.930 . S
C1108 C1106 1.419 . S
C1108 C1109 1.362 . S
C1109 H1099 0.930 . S
C1109 C1102 1.409 . S
C1109 C1108 1.362 . S
H1110 C1116 0.930 . S
H1111 C1119 0.930 . S
H1112 C1120 0.930 . S
H1113 C1121 0.930 . S
H1114 C1124 0.930 . S
H1115 C1125 0.930 . S
C1116 H1110 0.930 . S
C1116 C1117 1.355 . S
C1116 C1118 1.415 . S
C1117 C1116 1.355 . S
C1117 C1119 1.419 . S
C1118 C1116 1.415 . S
C1118 C1123 1.425 . S
C1118 C1125 1.409 . S
C1119 H1111 0.930 . S
C1119 C1117 1.419 . S
C1119 C1120 1.362 . S
C1120 H1112 0.930 . S
C1120 C1119 1.362 . S
C1120 C1123 1.409 . S
C1121 H1113 0.930 . S
C1121 C1122 1.355 . S
C1121 C1123 1.415 . S
C1122 C1121 1.355 . S
C1122 C1124 1.419 . S
C1123 C1118 1.425 . S
C1123 C1120 1.409 . S
C1123 C1121 1.415 . S
C1124 H1114 0.930 . S
C1124 C1122 1.419 . S
C1124 C1125 1.362 . S
C1125 H1115 0.930 . S
C1125 C1118 1.409 . S
C1125 C1124 1.362 . S
H1126 C1132 0.930 . S
H1127 C1135 0.930 . S
H1128 C1136 0.930 . S
H1129 C1137 0.930 . S
H1130 C1140 0.930 . S
H1131 C1141 0.930 . S
C1132 H1126 0.930 . S
C1132 C1133 1.355 . S
C1132 C1134 1.415 . S
C1133 C1132 1.355 . S
C1133 C1135 1.419 . S
C1134 C1132 1.415 . S
C1134 C1139 1.425 . S
C1134 C1141 1.409 . S
C1135 H1127 0.930 . S
C1135 C1133 1.419 . S
C1135 C1136 1.362 . S
C1136 H1128 0.930 . S
C1136 C1135 1.362 . S
C1136 C1139 1.409 . S
C1137 H1129 0.930 . S
C1137 C1138 1.355 . S
C1137 C1139 1.415 . S
C1138 C1137 1.355 . S
C1138 C1140 1.419 . S
C1139 C1134 1.425 . S
C1139 C1136 1.409 . S
C1139 C1137 1.415 . S
C1140 H1130 0.930 . S
C1140 C1138 1.419 . S
C1140 C1141 1.362 . S
C1141 H1131 0.930 . S
C1141 C1134 1.409 . S
C1141 C1140 1.362 . S
H1142 C1148 0.930 . S
H1143 C1151 0.930 . S
H1144 C1152 0.930 . S
H1145 C1153 0.930 . S
H1146 C1156 0.930 . S
H1147 C1157 0.930 . S
C1148 H1142 0.930 . S
C1148 C1149 1.355 . S
C1148 C1150 1.415 . S
C1149 C1148 1.355 . S
C1149 C1151 1.419 . S
C1150 C1148 1.415 . S
C1150 C1155 1.425 . S
C1150 C1157 1.409 . S
C1151 H1143 0.930 . S
C1151 C1149 1.419 . S
C1151 C1152 1.362 . S
C1152 H1144 0.930 . S
C1152 C1151 1.362 . S
C1152 C1155 1.409 . S
C1153 H1145 0.930 . S
C1153 C1154 1.355 . S
C1153 C1155 1.415 . S
C1154 C1153 1.355 . S
C1154 C1156 1.419 . S
C1155 C1150 1.425 . S
C1155 C1152 1.409 . S
C1155 C1153 1.415 . S
C1156 H1146 0.930 . S
C1156 C1154 1.419 . S
C1156 C1157 1.362 . S
C1157 H1147 0.930 . S
C1157 C1150 1.409 . S
C1157 C1156 1.362 . S
H1158 C1164 0.930 . S
H1159 C1167 0.930 1_545 S
H1160 C1168 0.919 1_545 S
H1161 C1169 0.930 . S
H1162 C1172 0.930 . S
H1163 C1173 0.930 . S
C1164 H1158 0.930 . S
C1164 C1165 1.355 . S
C1164 C1166 1.415 . S
C1165 C1164 1.355 . S
C1165 C1167 1.419 . S
C1166 C1164 1.415 . S
C1166 C1171 1.425 . S
C1166 C1173 1.409 . S
C1167 H1159 0.930 1_565 S
C1167 C1165 1.419 . S
C1167 C1168 1.362 . S
C1168 H1160 0.919 1_565 S
C1168 C1167 1.362 . S
C1168 C1171 1.409 . S
C1169 H1161 0.930 . S
C1169 C1170 1.355 . S
C1169 C1171 1.415 . S
C1170 C1169 1.355 . S
C1170 C1172 1.419 . S
C1171 C1166 1.425 . S
C1171 C1168 1.409 . S
C1171 C1169 1.415 . S
C1172 H1162 0.930 . S
C1172 C1170 1.419 . S
C1172 C1173 1.362 . S
C1173 H1163 0.930 . S
C1173 C1166 1.409 . S
C1173 C1172 1.362 . S
H1174 C1180 0.930 . S
H1175 C1183 0.930 . S
H1176 C1184 0.930 . S
H1177 C1185 0.930 . S
H1178 C1188 0.930 . S
H1179 C1189 0.930 . S
C1180 H1174 0.930 . S
C1180 C1181 1.355 . S
C1180 C1182 1.415 . S
C1181 C1180 1.355 . S
C1181 C1183 1.419 . S
C1182 C1180 1.415 . S
C1182 C1187 1.425 . S
C1182 C1189 1.409 . S
C1183 H1175 0.930 . S
C1183 C1181 1.419 . S
C1183 C1184 1.362 . S
C1184 H1176 0.930 . S
C1184 C1183 1.362 . S
C1184 C1187 1.409 . S
C1185 H1177 0.930 . S
C1185 C1186 1.355 . S
C1185 C1187 1.415 . S
C1186 C1185 1.355 . S
C1186 C1188 1.419 . S
C1187 C1182 1.425 . S
C1187 C1184 1.409 . S
C1187 C1185 1.415 . S
C1188 H1178 0.930 . S
C1188 C1186 1.419 . S
C1188 C1189 1.362 . S
C1189 H1179 0.930 . S
C1189 C1182 1.409 . S
C1189 C1188 1.362 . S
H1190 C1196 0.930 . S
H1191 C1199 0.930 . S
H1192 C1200 0.930 . S
H1193 C1201 0.930 . S
H1194 C1204 0.930 . S
H1195 C1205 0.930 . S
C1196 H1190 0.930 . S
C1196 C1197 1.355 . S
C1196 C1198 1.415 . S
C1197 C1196 1.355 . S
C1197 C1199 1.419 . S
C1198 C1196 1.415 . S
C1198 C1203 1.425 . S
C1198 C1205 1.409 . S
C1199 H1191 0.930 . S
C1199 C1197 1.419 . S
C1199 C1200 1.362 . S
C1200 H1192 0.930 . S
C1200 C1199 1.362 . S
C1200 C1203 1.409 . S
C1201 H1193 0.930 . S
C1201 C1202 1.355 . S
C1201 C1203 1.415 . S
C1202 C1201 1.355 . S
C1202 C1204 1.419 . S
C1203 C1198 1.425 . S
C1203 C1200 1.409 . S
C1203 C1201 1.415 . S
C1204 H1194 0.930 . S
C1204 C1202 1.419 . S
C1204 C1205 1.362 . S
C1205 H1195 0.930 . S
C1205 C1198 1.409 . S
C1205 C1204 1.362 . S
C829 C7 2.019 . S
C834 C167 1.930 . S
C845 C30 1.847 . S
C850 C307 1.660 . S
C866 C395 1.688 . S
C861 N58 1.777 . S
C882 C535 1.479 . S
C877 N81 1.655 . S
C898 C649 1.698 . S
C893 C99 1.969 . S
C914 C719 0.833 . S
C909 N127 1.606 . S
C925 N25 1.901 . S
C930 C377 0.936 . S
C941 C62 1.679 . S
C946 C481 1.125 . S
C962 C595 1.413 . S
C957 C85 1.868 . S
C978 C737 1.538 . S
C973 N94 1.661 . S
C989 C131 2.101 . S
C994 C149 1.112 . S
C1010 C253 1.094 . S
C1005 N2 1.423 . S
C1026 C491 1.704 . S
C1021 C16 2.039 1_655 S
C1037 C39 1.887 . S
C1042 C605 1.472 . S
C1058 C763 1.280 . S
C1053 N48 2.029 . S
C1069 N71 1.610 . S
C1074 C139 1.500 . S
C1085 C108 2.179 . S
C1090 C263 1.700 . S
C1101 N117 1.577 . S
C1106 C367 1.573 . S
C1117 N35 1.907 . S
C1122 C709 1.726 . S
C1138 C193 1.242 . S
C1133 C53 1.919 . S
C1149 C76 2.055 . S
C1154 C281 1.351 . S
C1165 N104 1.735 . S
C1170 C421 0.997 . S
C1181 C122 1.959 . S
C1186 C509 1.439 . S
C1197 N12 1.598 . S
C1202 C623 1.103 . S
