# Generated by pormake.
# Topology pyr, (3,6)-cn, num edge types: 1
# Building blocks:
#     Node 0, Type 0, BuildingBlock: BETDIP_clean_linker_0, # of connection points: 3
#     Node 1, Type 0, BuildingBlock: BETDIP_clean_linker_0, # of connection points: 3
#     Node 2, Type 0, BuildingBlock: BETDIP_clean_linker_0, # of connection points: 3
#     Node 3, Type 0, BuildingBlock: BETDIP_clean_linker_0, # of connection points: 3
#     Node 4, Type 0, BuildingBlock: BETDIP_clean_linker_0, # of connection points: 3
#     Node 5, Type 0, BuildingBlock: BETDIP_clean_linker_0, # of connection points: 3
#     Node 6, Type 0, BuildingBlock: BETDIP_clean_linker_0, # of connection points: 3
#     Node 7, Type 0, BuildingBlock: BETDIP_clean_linker_0, # of connection points: 3
#     Node 8, Type 1, BuildingBlock: MIDCAF_clean_sbu_0, # of connection points: 6
#     Node 9, Type 1, BuildingBlock: MIDCAF_clean_sbu_0, # of connection points: 6
#     Node 10, Type 1, BuildingBlock: MIDCAF_clean_sbu_0, # of connection points: 6
#     Node 11, Type 1, BuildingBlock: MIDCAF_clean_sbu_0, # of connection points: 6
#     Edge 12, Type (0, 1), BuildingBlock: CIFDUS_clean_linker_0, # of connection points: 2
#     Edge 13, Type (0, 1), BuildingBlock: CIFDUS_clean_linker_0, # of connection points: 2
#     Edge 14, Type (0, 1), BuildingBlock: CIFDUS_clean_linker_0, # of connection points: 2
#     Edge 15, Type (0, 1), BuildingBlock: CIFDUS_clean_linker_0, # of connection points: 2
#     Edge 16, Type (0, 1), BuildingBlock: CIFDUS_clean_linker_0, # of connection points: 2
#     Edge 17, Type (0, 1), BuildingBlock: CIFDUS_clean_linker_0, # of connection points: 2
#     Edge 18, Type (0, 1), BuildingBlock: CIFDUS_clean_linker_0, # of connection points: 2
#     Edge 19, Type (0, 1), BuildingBlock: CIFDUS_clean_linker_0, # of connection points: 2
#     Edge 20, Type (0, 1), BuildingBlock: CIFDUS_clean_linker_0, # of connection points: 2
#     Edge 21, Type (0, 1), BuildingBlock: CIFDUS_clean_linker_0, # of connection points: 2
#     Edge 22, Type (0, 1), BuildingBlock: CIFDUS_clean_linker_0, # of connection points: 2
#     Edge 23, Type (0, 1), BuildingBlock: CIFDUS_clean_linker_0, # of connection points: 2
#     Edge 24, Type (0, 1), BuildingBlock: CIFDUS_clean_linker_0, # of connection points: 2
#     Edge 25, Type (0, 1), BuildingBlock: CIFDUS_clean_linker_0, # of connection points: 2
#     Edge 26, Type (0, 1), BuildingBlock: CIFDUS_clean_linker_0, # of connection points: 2
#     Edge 27, Type (0, 1), BuildingBlock: CIFDUS_clean_linker_0, # of connection points: 2
#     Edge 28, Type (0, 1), BuildingBlock: CIFDUS_clean_linker_0, # of connection points: 2
#     Edge 29, Type (0, 1), BuildingBlock: CIFDUS_clean_linker_0, # of connection points: 2
#     Edge 30, Type (0, 1), BuildingBlock: CIFDUS_clean_linker_0, # of connection points: 2
#     Edge 31, Type (0, 1), BuildingBlock: CIFDUS_clean_linker_0, # of connection points: 2
#     Edge 32, Type (0, 1), BuildingBlock: CIFDUS_clean_linker_0, # of connection points: 2
#     Edge 33, Type (0, 1), BuildingBlock: CIFDUS_clean_linker_0, # of connection points: 2
#     Edge 34, Type (0, 1), BuildingBlock: CIFDUS_clean_linker_0, # of connection points: 2
#     Edge 35, Type (0, 1), BuildingBlock: CIFDUS_clean_linker_0, # of connection points: 2
# Relax obj value: 0.090
# Max RMSD: 0.177
# Mean RMSD: 0.135
data_MOF--net-pry--node1-MIDCAF_clean_sbu_0--node2-BETDIP_clean_linker_0--edge1-CIFDUS_clean_linker_0
_symmetry_space_group_name_H-M    P1
_symmetry_Int_Tables_number       1
_symmetry_cell_setting            triclinic
loop_
_symmetry_equiv_pos_as_xyz
'x, y, z'
_cell_length_a     30.692737
_cell_length_b     30.318395
_cell_length_c     31.857968
_cell_angle_alpha  93.236973
_cell_angle_beta   86.208575
_cell_angle_gamma 95.528708
loop_
_atom_site_label
_atom_site_type_symbol
_atom_site_fract_x
_atom_site_fract_y
_atom_site_fract_z
_atom_type_partial_charge
H0 H 0.18666 0.24301 0.28702 0.0
H1 H 0.27085 0.25419 0.17506 0.0
H2 H 0.26692 0.13729 0.2454 0.0
H3 H 0.26634 0.32822 0.19402 0.0
C4 C 0.23075 0.32632 0.1977 0.0
C5 C 0.21039 0.2286 0.26506 0.0
C6 C 0.22541 0.18714 0.27196 0.0
C7 C 0.22634 0.25264 0.23012 0.0
C8 C 0.25833 0.2355 0.20189 0.0
C9 C 0.27363 0.19407 0.20728 0.0
C10 C 0.25669 0.17004 0.24225 0.0
N11 N 0.20807 0.29274 0.22246 0.0
H12 H 0.28967 0.86343 0.78026 0.0
H13 H 0.28071 0.7366 0.71253 0.0
H14 H 0.3892 0.77584 0.79037 0.0
H15 H 0.22682 0.87279 0.75489 0.0
C16 C 0.2205 0.84914 0.7287 0.0
C17 C 0.30189 0.83157 0.77239 0.0
C18 C 0.34055 0.822 0.78994 0.0
C19 C 0.2802 0.80062 0.74439 0.0
C20 C 0.29775 0.7601 0.73408 0.0
C21 C 0.3373 0.75039 0.75004 0.0
C22 C 0.35799 0.78155 0.77867 0.0
N23 N 0.2427 0.80986 0.7234 0.0
H24 H 0.81965 0.35598 0.77783 0.0
H25 H 0.71383 0.25317 0.7763 0.0
H26 H 0.80357 0.26214 0.87532 0.0
H27 H 0.69648 0.27951 0.71769 0.0
C28 C 0.71487 0.3114 0.71309 0.0
C29 C 0.8025 0.32683 0.79163 0.0
C30 C 0.81575 0.31216 0.82942 0.0
C31 C 0.76622 0.30563 0.772 0.0
C32 C 0.74316 0.26836 0.79004 0.0
C33 C 0.75666 0.25162 0.82707 0.0
C34 C 0.79331 0.2738 0.84637 0.0
N35 N 0.75251 0.32517 0.73605 0.0
H36 H 0.75688 0.65322 0.29217 0.0
H37 H 0.86173 0.75511 0.27585 0.0
H38 H 0.7786 0.75715 0.38925 0.0
H39 H 0.84961 0.73814 0.2059 0.0
C40 C 0.84814 0.70229 0.20728 0.0
C41 C 0.77376 0.68398 0.30389 0.0
C42 C 0.76123 0.70347 0.34363 0.0
C43 C 0.80905 0.70305 0.27895 0.0
C44 C 0.83366 0.74111 0.29458 0.0
C45 C 0.82417 0.7597 0.33522 0.0
C46 C 0.78673 0.74186 0.35867 0.0
N47 N 0.82183 0.68098 0.24005 0.0
H48 H 0.87899 0.9028 0.96486 0.0
H49 H 0.96537 0.88265 0.85541 0.0
H50 H 0.86641 0.97307 0.85267 0.0
H51 H 0.01273 0.87868 0.91238 0.0
C52 C 0.99123 0.8538 0.92884 0.0
C53 C 0.88973 0.91083 0.93288 0.0
C54 C 0.86858 0.94169 0.91182 0.0
C55 C 0.92521 0.89034 0.91328 0.0
C56 C 0.9388 0.89929 0.87142 0.0
C57 C 0.917 0.92831 0.84939 0.0
C58 C 0.88215 0.94964 0.86963 0.0
N59 N 0.94594 0.8598 0.93572 0.0
H60 H 0.63704 0.07949 0.359 0.0
H61 H 0.6344 0.17236 0.46583 0.0
H62 H 0.54279 0.17627 0.3695 0.0
H63 H 0.65604 0.10996 0.49637 0.0
C64 C 0.68061 0.09908 0.47293 0.0
C65 C 0.62283 0.1072 0.37594 0.0
C66 C 0.58755 0.12571 0.35989 0.0
C67 C 0.63943 0.12318 0.41422 0.0
C68 C 0.62145 0.15939 0.43635 0.0
C69 C 0.58646 0.1788 0.42049 0.0
C70 C 0.56987 0.16181 0.38201 0.0
N71 N 0.67416 0.10202 0.42951 0.0
H72 H 0.40861 0.55724 0.13536 0.0
H73 H 0.48088 0.68488 0.15554 0.0
H74 H 0.39329 0.66386 0.0555 0.0
H75 H 0.48691 0.66274 0.21952 0.0
C76 C 0.48662 0.62688 0.21745 0.0
C77 C 0.41746 0.59102 0.12631 0.0
C78 C 0.39827 0.60696 0.09205 0.0
C79 C 0.4473 0.61878 0.14961 0.0
C80 C 0.45768 0.66292 0.13836 0.0
C81 C 0.43819 0.67926 0.10447 0.0
C82 C 0.40927 0.65093 0.08095 0.0
N83 N 0.46562 0.60134 0.18433 0.0
H84 H 0.05747 0.35726 0.59779 0.0
H85 H 0.11947 0.48649 0.63122 0.0
H86 H 0.19694 0.38422 0.57615 0.0
H87 H 0.00764 0.48628 0.66331 0.0
C88 C 0.03251 0.46393 0.6672 0.0
C89 C 0.08697 0.37988 0.59957 0.0
C90 C 0.12762 0.36564 0.58502 0.0
C91 C 0.08395 0.42255 0.61774 0.0
C92 C 0.12188 0.45259 0.61926 0.0
C93 C 0.16278 0.43875 0.60422 0.0
C94 C 0.16555 0.39491 0.58812 0.0
N95 N 0.04182 0.43476 0.63201 0.0
Zn96 Zn 0.97776 0.077 0.57642 0.0
Zn97 Zn 0.06541 0.96625 0.48255 0.0
Zn98 Zn 0.01487 0.02064 0.52649 0.0
C99 C 0.09285 0.04975 0.45461 0.0
C100 C 0.97511 0.94422 0.46349 0.0
O101 O 0.01725 0.00399 0.5944 0.0
O102 O 0.98078 0.05387 0.6318 0.0
C103 C 0.04172 0.12686 0.53237 0.0
O104 O 0.06264 0.05903 0.48305 0.0
O105 O 0.10222 0.01021 0.44796 0.0
O106 O 0.01374 0.93299 0.45724 0.0
O107 O 0.9677 0.97816 0.48825 0.0
O108 O 0.01481 0.13121 0.56357 0.0
O109 O 0.04514 0.0886 0.51333 0.0
O110 O 0.94535 0.01329 0.50914 0.0
O111 O 0.92068 0.06698 0.55146 0.0
C112 C 0.91412 0.03684 0.52302 0.0
O113 O 0.04922 0.98181 0.56987 0.0
O114 O 0.0917 0.93983 0.52928 0.0
C115 C 0.00123 0.01973 0.63009 0.0
C116 C 0.07813 0.95328 0.56557 0.0
Zn117 Zn 0.49956 0.07183 0.97865 0.0
Zn118 Zn 0.58382 0.98344 0.07172 0.0
Zn119 Zn 0.53771 0.02327 0.02648 0.0
C120 C 0.64389 0.01328 0.01245 0.0
C121 C 0.52145 0.91988 0.03981 0.0
O122 O 0.49648 0.06545 0.06978 0.0
O123 O 0.46031 0.09729 0.02398 0.0
C124 C 0.5867 0.0951 0.96169 0.0
O125 O 0.60885 0.02955 1.00224 0.0
O126 O 0.64242 0.99004 0.04413 0.0
O127 O 0.55077 0.9254 0.06596 0.0
O128 O 0.51204 0.95252 0.01894 0.0
O129 O 0.55068 0.10853 0.95359 0.0
O130 O 0.5875 0.06287 0.98631 0.0
O131 O 0.4925 0.97617 0.98874 0.0
O132 O 0.47318 0.02198 0.94324 0.0
C133 C 0.47228 0.98309 0.95573 0.0
O134 O 0.52861 0.05036 0.09364 0.0
O135 O 0.57562 0.015 0.12572 0.0
C136 C 0.46593 0.0897 0.06174 0.0
C137 C 0.54793 0.04317 0.12712 0.0
Zn138 Zn 0.5587 0.5572 0.59614 0.0
Zn139 Zn 0.46034 0.47219 0.48757 0.0
Zn140 Zn 0.51323 0.51541 0.53737 0.0
C141 C 0.51188 0.40968 0.51143 0.0
C142 C 0.50973 0.53546 0.43974 0.0
O143 O 0.47015 0.54983 0.58592 0.0
O144 O 0.51292 0.5837 0.63334 0.0
C145 C 0.57832 0.46979 0.59498 0.0
O146 O 0.52937 0.44465 0.53122 0.0
O147 O 0.47842 0.41213 0.49105 0.0
O148 O 0.48091 0.50307 0.43673 0.0
O149 O 0.52663 0.54635 0.47533 0.0
O150 O 0.58605 0.50642 0.61515 0.0
O151 O 0.55228 0.46656 0.56452 0.0
O152 O 0.5586 0.56545 0.5036 0.0
O153 O 0.59563 0.59545 0.55687 0.0
C154 C 0.58974 0.59271 0.5179 0.0
O155 O 0.44332 0.51967 0.56169 0.0
O156 O 0.40267 0.48482 0.51308 0.0
C157 C 0.47523 0.57495 0.61973 0.0
C158 C 0.40538 0.50631 0.54797 0.0
Zn159 Zn 0.11387 0.55021 0.94689 0.0
Zn160 Zn 0.98136 0.4385 0.08634 0.0
Zn161 Zn 0.06135 0.51703 1.00237 0.0
C162 C 0.08095 0.46807 0.07114 0.0
C163 C 0.98596 0.4229 0.99007 0.0
O164 O 0.04209 0.58522 1.00281 0.0
O165 O 0.08891 0.60915 0.95159 0.0
C166 C 0.17005 0.53054 1.00232 0.0
O167 O 0.10394 0.4918 0.04467 0.0
O168 O 0.04005 0.46853 0.06948 0.0
O169 O 0.97133 0.41128 0.02694 0.0
O170 O 0.01427 0.45706 0.98299 0.0
O171 O 0.1728 0.54769 0.967 0.0
O172 O 0.13201 0.51655 0.01896 0.0
O173 O 0.04018 0.48107 0.9448 0.0
O174 O 0.09445 0.50717 0.90142 0.0
C175 C 0.05966 0.48207 0.90787 0.0
O176 O 0.02205 0.563 0.03785 0.0
O177 O 0.00089 0.50108 0.06624 0.0
C178 C 0.05776 0.61608 0.97844 0.0
C179 C 0.99757 0.54242 0.06574 0.0
H180 H 0.14418 0.18707 0.3152 0.0
H181 H 0.26765 0.12914 0.31517 0.0
H182 H 0.23817 0.08297 0.37208 0.0
H183 H 0.17626 0.05611 0.42 0.0
H184 H 0.05595 0.11925 0.42529 0.0
H185 H 0.0863 0.16796 0.36976 0.0
C186 C 0.16537 0.16534 0.328 0.0
C187 C 0.2081 0.16138 0.30951 0.0
C188 C 0.1489 0.13997 0.36225 0.0
C189 C 0.23415 0.1321 0.32702 0.0
C190 C 0.21752 0.10591 0.36019 0.0
C191 C 0.15699 0.08104 0.4094 0.0
C192 C 0.11391 0.08405 0.42663 0.0
C193 C 0.17474 0.10906 0.37762 0.0
C194 C 0.08936 0.11664 0.41286 0.0
C195 C 0.10656 0.14416 0.38077 0.0
H196 H 0.36794 0.81432 0.86906 0.0
H197 H 0.3685 0.90612 0.7704 0.0
H198 H 0.41041 0.96293 0.81249 0.0
H199 H 0.44675 0.98654 0.87659 0.0
H200 H 0.44105 0.899 0.97904 0.0
H201 H 0.4022 0.83999 0.9361 0.0
C202 C 0.37734 0.84683 0.85698 0.0
C203 C 0.36513 0.85617 0.81674 0.0
C204 C 0.4009 0.87974 0.88179 0.0
C205 C 0.37719 0.89838 0.80139 0.0
C206 C 0.40129 0.93077 0.82537 0.0
C207 C 0.43709 0.95459 0.88977 0.0
C208 C 0.44825 0.9467 0.93072 0.0
C209 C 0.41325 0.92183 0.86554 0.0
C210 C 0.43485 0.9052 0.94708 0.0
C211 C 0.41193 0.87177 0.92268 0.0
H212 H 0.63889 0.30064 0.6727 0.0
H213 H 0.75315 0.39275 0.6914 0.0
H214 H 0.72221 0.44762 0.6524 0.0
H215 H 0.66045 0.47221 0.61873 0.0
H216 H 0.54462 0.38278 0.60074 0.0
H217 H 0.57866 0.32371 0.63269 0.0
C218 C 0.65712 0.33256 0.66772 0.0
C219 C 0.69797 0.34274 0.68544 0.0
C220 C 0.63889 0.3644 0.64537 0.0
C221 C 0.72144 0.3841 0.67862 0.0
C222 C 0.7038 0.4156 0.65624 0.0
C223 C 0.64287 0.43956 0.62133 0.0
C224 C 0.60019 0.4317 0.60748 0.0
C225 C 0.66221 0.40648 0.6404 0.0
C226 C 0.57777 0.38934 0.61074 0.0
C227 C 0.59708 0.35579 0.62939 0.0
H228 H 0.85458 0.6124 0.19888 0.0
H229 H 0.90575 0.73703 0.14774 0.0
H230 H 0.95653 0.69879 0.0994 0.0
H231 H 0.98832 0.63057 0.07378 0.0
H232 H 0.93606 0.50529 0.12271 0.0
H233 H 0.88438 0.5432 0.17046 0.0
C234 C 0.87669 0.63111 0.17701 0.0
C235 C 0.87656 0.67752 0.17689 0.0
C236 C 0.90584 0.60886 0.14924 0.0
C237 C 0.90531 0.70128 0.14834 0.0
C238 C 0.93442 0.67949 0.12081 0.0
C239 C 0.96511 0.61143 0.09428 0.0
C240 C 0.96573 0.56513 0.09424 0.0
C241 C 0.9352 0.63336 0.12121 0.0
C242 C 0.93621 0.54098 0.12197 0.0
C243 C 0.90659 0.56263 0.14927 0.0
H244 H 0.34206 0.14454 0.22022 0.0
H245 H 0.27856 0.20158 0.12179 0.0
H246 H 0.33423 0.17795 0.07008 0.0
H247 H 0.40037 0.14128 0.052 0.0
H248 H 0.45852 0.07407 0.14677 0.0
H249 H 0.406 0.10176 0.20053 0.0
C250 C 0.34002 0.1514 0.18742 0.0
C251 C 0.30639 0.17596 0.17548 0.0
C252 C 0.37165 0.13638 0.15712 0.0
C253 C 0.30465 0.18428 0.13258 0.0
C254 C 0.33637 0.17041 0.10269 0.0
C255 C 0.40199 0.13276 0.08443 0.0
C256 C 0.43494 0.10698 0.09543 0.0
C257 C 0.37015 0.14675 0.11462 0.0
C258 C 0.4353 0.09562 0.13757 0.0
C259 C 0.40457 0.11083 0.16826 0.0
H260 H 0.18029 0.92447 0.72605 0.0
H261 H 0.193 0.7977 0.66002 0.0
H262 H 0.1472 0.81769 0.60561 0.0
H263 H 0.10701 0.8728 0.57442 0.0
H264 H 0.09799 0.00115 0.63755 0.0
H265 H 0.13766 0.97882 0.69593 0.0
C266 C 0.17265 0.90113 0.6999 0.0
C267 C 0.19023 0.85981 0.69703 0.0
C268 C 0.14659 0.91305 0.66838 0.0
C269 C 0.18015 0.82984 0.66298 0.0
C270 C 0.15391 0.84124 0.63179 0.0
C271 C 0.11328 0.89562 0.60127 0.0
C272 C 0.09833 0.93814 0.6025 0.0
C273 C 0.13749 0.88297 0.63383 0.0
C274 C 0.10728 0.96761 0.63705 0.0
C275 C 0.13072 0.95508 0.66996 0.0
H276 H 0.88218 0.28371 0.87155 0.0
H277 H 0.82643 0.40235 0.84068 0.0
H278 H 0.87872 0.44765 0.88287 0.0
H279 H 0.93452 0.45311 0.93528 0.0
H280 H 0.98866 0.33524 0.9689 0.0
H281 H 0.94263 0.29005 0.91961 0.0
C282 C 0.88157 0.31947 0.87397 0.0
C283 C 0.85024 0.3394 0.8529 0.0
C284 C 0.9114 0.34551 0.89902 0.0
C285 C 0.85041 0.38595 0.856 0.0
C286 C 0.88014 0.412 0.88044 0.0
C287 C 0.93743 0.4178 0.93036 0.0
C288 C 0.96569 0.39756 0.95448 0.0
C289 C 0.91019 0.39211 0.90273 0.0
C290 C 0.96767 0.35147 0.94981 0.0
C291 C 0.94114 0.32568 0.92193 0.0
H292 H 0.74839 0.70642 0.43022 0.0
H293 H 0.68731 0.65165 0.31772 0.0
H294 H 0.63024 0.61144 0.36093 0.0
H295 H 0.59982 0.58875 0.43122 0.0
H296 H 0.6535 0.65576 0.54197 0.0
H297 H 0.71105 0.69452 0.49855 0.0
C298 C 0.72219 0.68708 0.4145 0.0
C299 C 0.72347 0.68207 0.37016 0.0
C300 C 0.68789 0.66584 0.43942 0.0
C301 C 0.6889 0.65532 0.35156 0.0
C302 C 0.65564 0.63251 0.37631 0.0
C303 C 0.62271 0.61323 0.44574 0.0
C304 C 0.62136 0.61954 0.48987 0.0
C305 C 0.65505 0.63715 0.42036 0.0
C306 C 0.65327 0.64994 0.50812 0.0
C307 C 0.68642 0.67229 0.4833 0.0
H308 H 0.14287 0.33978 0.20161 0.0
H309 H 0.26734 0.37692 0.13596 0.0
H310 H 0.23183 0.42243 0.09013 0.0
H311 H 0.16563 0.44979 0.06735 0.0
H312 H 0.04143 0.41888 0.13544 0.0
H313 H 0.07617 0.37148 0.18075 0.0
C314 C 0.16211 0.35794 0.17733 0.0
C315 C 0.20768 0.35489 0.172 0.0
C316 C 0.14147 0.38468 0.15128 0.0
C317 C 0.23226 0.3788 0.14062 0.0
C318 C 0.21198 0.40469 0.11431 0.0
C319 C 0.14627 0.4337 0.09273 0.0
C320 C 0.1012 0.43871 0.09847 0.0
C321 C 0.16666 0.40775 0.11927 0.0
C322 C 0.07627 0.4158 0.13041 0.0
C323 C 0.09617 0.38881 0.15642 0.0
H324 H 0.74014 0.23627 0.91133 0.0
H325 H 0.71368 0.17894 0.78722 0.0
H326 H 0.66083 0.12313 0.81819 0.0
H327 H 0.61622 0.09545 0.88014 0.0
H328 H 0.64689 0.14797 0.00414 0.0
H329 H 0.70524 0.19983 0.97367 0.0
C330 C 0.72393 0.21097 0.89087 0.0
C331 C 0.73023 0.21308 0.8467 0.0
C332 C 0.69425 0.17797 0.90894 0.0
C333 C 0.70842 0.1796 0.82118 0.0
C334 C 0.67836 0.14725 0.83887 0.0
C335 C 0.63653 0.11757 0.90036 0.0
C336 C 0.62749 0.11835 0.94411 0.0
C337 C 0.67004 0.14696 0.8826 0.0
C338 C 0.6537 0.14689 0.97031 0.0
C339 C 0.68673 0.1767 0.95286 0.0
H340 H 0.80867 0.83086 0.39144 0.0
H341 H 0.91328 0.76509 0.32406 0.0
H342 H 0.96712 0.8186 0.35446 0.0
H343 H 0.98582 0.88127 0.40177 0.0
H344 H 0.88474 0.94324 0.47742 0.0
H345 H 0.82845 0.89413 0.44225 0.0
C346 C 0.8432 0.82807 0.38351 0.0
C347 C 0.85634 0.79414 0.3544 0.0
C348 C 0.87482 0.85833 0.40262 0.0
C349 C 0.90152 0.79148 0.34479 0.0
C350 C 0.93269 0.82186 0.36268 0.0
C351 C 0.9515 0.8844 0.41077 0.0
C352 C 0.93966 0.91662 0.44188 0.0
C353 C 0.91977 0.85511 0.39172 0.0
C354 C 0.89489 0.9197 0.45285 0.0
C355 C 0.86271 0.89117 0.43304 0.0
H356 H 0.33583 0.70866 0.67115 0.0
H357 H 0.38814 0.7001 0.79285 0.0
H358 H 0.43273 0.64208 0.76397 0.0
H359 H 0.46244 0.59916 0.70251 0.0
H360 H 0.40702 0.60465 0.58226 0.0
H361 H 0.35642 0.65688 0.61294 0.0
C362 C 0.35583 0.69343 0.69197 0.0
C363 C 0.35906 0.70995 0.73413 0.0
C364 C 0.38079 0.65922 0.67543 0.0
C365 C 0.38588 0.68951 0.75998 0.0
C366 C 0.41121 0.65591 0.74359 0.0
C367 C 0.43861 0.61111 0.68328 0.0
C368 C 0.43859 0.59823 0.64015 0.0
C369 C 0.40987 0.64143 0.70108 0.0
C370 C 0.40741 0.61367 0.61562 0.0
C371 C 0.37881 0.64398 0.63306 0.0
H372 H 0.99267 0.97128 0.81864 0.0
H373 H 0.87092 0.90239 0.7813 0.0
H374 H 0.89134 0.91723 0.70739 0.0
H375 H 0.94045 0.95629 0.65474 0.0
H376 H 0.05626 0.03511 0.69385 0.0
H377 H 0.04292 0.00893 0.76528 0.0
C378 C 0.971 0.95928 0.79408 0.0
C379 C 0.93042 0.93598 0.80491 0.0
C380 C 0.9824 0.96922 0.75199 0.0
C381 C 0.90219 0.92066 0.7733 0.0
C382 C 0.91394 0.929 0.7312 0.0
C383 C 0.96348 0.96631 0.6787 0.0
C384 C 0.00041 0.9957 0.66885 0.0
C385 C 0.95359 0.95392 0.72028 0.0
C386 C 0.02889 0.01066 0.70038 0.0
C387 C 0.02073 0.9964 0.74137 0.0
H388 H 0.57027 0.1671 0.28931 0.0
H389 H 0.56195 0.03904 0.34341 0.0
H390 H 0.54033 0.00286 0.27675 0.0
H391 H 0.53434 0.00656 0.20134 0.0
H392 H 0.54603 0.13288 0.14433 0.0
H393 H 0.55431 0.17117 0.21396 0.0
C394 C 0.56287 0.13139 0.28654 0.0
C395 C 0.56852 0.1056 0.32088 0.0
C396 C 0.5511 0.11063 0.24766 0.0
C397 C 0.55872 0.0594 0.3171 0.0
C398 C 0.5462 0.03873 0.27909 0.0
C399 C 0.53755 0.04256 0.20438 0.0
C400 C 0.5399 0.06701 0.16807 0.0
C401 C 0.54383 0.06384 0.24389 0.0
C402 C 0.54392 0.11353 0.17207 0.0
C403 C 0.54918 0.13527 0.21176 0.0
H404 H 0.5067 0.66471 0.29371 0.0
H405 H 0.49847 0.53924 0.22227 0.0
H406 H 0.51316 0.5012 0.28448 0.0
H407 H 0.51875 0.5022 0.36052 0.0
H408 H 0.52152 0.62588 0.43425 0.0
H409 H 0.52003 0.66638 0.36977 0.0
C410 C 0.50877 0.62913 0.29179 0.0
C411 C 0.50074 0.60469 0.25374 0.0
C412 C 0.51636 0.60727 0.32805 0.0
C413 C 0.50376 0.55869 0.25136 0.0
C414 C 0.51228 0.53692 0.2869 0.0
C415 C 0.52002 0.53815 0.36232 0.0
C416 C 0.52028 0.56114 0.40185 0.0
C417 C 0.51723 0.56068 0.32559 0.0
C418 C 0.52178 0.60763 0.40401 0.0
C419 C 0.52042 0.63063 0.36724 0.0
H420 H 0.98004 0.48109 0.73587 0.0
H421 H 0.0993 0.42103 0.69765 0.0
H422 H 0.11252 0.41185 0.77069 0.0
H423 H 0.09642 0.43174 0.84564 0.0
H424 H 0.97902 0.49411 0.88397 0.0
H425 H 0.95749 0.48912 0.81132 0.0
C426 C 0.00864 0.46545 0.74354 0.0
C427 C 0.03904 0.45286 0.7111 0.0
C428 C 0.01596 0.45987 0.7859 0.0
C429 C 0.07547 0.4318 0.72147 0.0
C430 C 0.08311 0.42634 0.76354 0.0
C431 C 0.06516 0.44231 0.83818 0.0
C432 C 0.03879 0.46231 0.87014 0.0
C433 C 0.05434 0.44157 0.79601 0.0
C434 C 0.99889 0.47693 0.86021 0.0
C435 C 0.98723 0.47522 0.81842 0.0
H436 H 0.79288 0.96511 0.88059 0.0
H437 H 0.86413 0.97336 0.99375 0.0
H438 H 0.80266 0.00376 0.03361 0.0
H439 H 0.72576 0.01881 0.03837 0.0
H440 H 0.65374 0.01226 0.92628 0.0
H441 H 0.71924 0.99269 0.88353 0.0
C442 C 0.79543 0.97441 0.91374 0.0
C443 C 0.83278 0.96548 0.9343 0.0
C444 C 0.75993 0.99255 0.93663 0.0
C445 C 0.83528 0.97809 0.97733 0.0
C446 C 0.80029 0.996 1.00015 0.0
C447 C 0.72478 0.0143 0.00439 0.0
C448 C 0.68499 0.01633 0.98549 0.0
C449 C 0.762 0.00197 0.98043 0.0
C450 C 0.6841 0.01095 0.94149 0.0
C451 C 0.72138 -0.00087 0.91717 0.0
H452 H 0.75033 0.06764 0.42514 0.0
H453 H 0.69713 0.08684 0.55299 0.0
H454 H 0.76243 0.0609 0.57947 0.0
H455 H 0.83741 0.04124 0.56688 0.0
H456 H 0.89379 0.02547 0.44012 0.0
H457 H 0.82397 0.04001 0.41235 0.0
C458 C 0.7529 0.06568 0.45874 0.0
C459 C 0.71921 0.07968 0.48723 0.0
C460 C 0.79093 0.05107 0.47382 0.0
C461 C 0.72282 0.07664 0.53059 0.0
C462 C 0.76008 0.06173 0.54573 0.0
C463 C 0.83403 0.0399 0.53311 0.0
C464 C 0.87049 0.03236 0.50552 0.0
C465 C 0.79468 0.04996 0.51772 0.0
C466 C 0.86592 0.03072 0.4619 0.0
C467 C 0.82622 0.03966 0.44612 0.0
H468 H 0.32076 0.57204 0.12651 0.0
H469 H 0.39694 0.58409 0.00851 0.0
H470 H 0.33323 0.55405 0.9702 0.0
H471 H 0.25394 0.53501 0.97 0.0
H472 H 0.17595 0.53087 0.08769 0.0
H473 H 0.24219 0.54585 0.12651 0.0
C474 C 0.32354 0.56676 0.09251 0.0
C475 C 0.3632 0.58001 0.07017 0.0
C476 C 0.28632 0.55124 0.07071 0.0
C477 C 0.36656 0.57393 0.02613 0.0
C478 C 0.33015 0.55704 0.00431 0.0
C479 C 0.25152 0.53661 0.00418 0.0
C480 C 0.21009 0.53152 0.0259 0.0
C481 C 0.28951 0.54724 0.02619 0.0
C482 C 0.20745 0.53381 0.07017 0.0
C483 C 0.24532 0.54289 0.09241 0.0
H484 H 0.23484 0.44547 0.65014 0.0
H485 H 0.17922 0.50052 0.54638 0.0
H486 H 0.25132 0.53563 0.52351 0.0
H487 H 0.33138 0.53639 0.52472 0.0
H488 H 0.3877 0.48257 0.62868 0.0
H489 H 0.31421 0.46242 0.66083 0.0
C490 C 0.23846 0.46666 0.62357 0.0
C491 C 0.20219 0.47044 0.59973 0.0
C492 C 0.28013 0.48645 0.61049 0.0
C493 C 0.20686 0.49755 0.56518 0.0
C494 C 0.24809 0.51726 0.55194 0.0
C495 C 0.32743 0.5219 0.55527 0.0
C496 C 0.3645 0.51033 0.57416 0.0
C497 C 0.2852 0.50998 0.5731 0.0
C498 C 0.35942 0.49176 0.61373 0.0
C499 C 0.31742 0.47975 0.63179 0.0
H500 H 0.94875 0.78072 0.96654 0.0
H501 H 0.07594 0.8377 0.92028 0.0
H502 H 0.10852 0.77054 0.93554 0.0
H503 H 0.10014 0.69407 0.95681 0.0
H504 H 0.97319 0.63462 1.00048 0.0
H505 H 0.94133 0.7046 0.99256 0.0
C506 C 0.98364 0.77854 0.96024 0.0
C507 C 0.00997 0.81397 0.94203 0.0
C508 C 0.00216 0.73948 0.96877 0.0
C509 C 0.05509 0.81074 0.93411 0.0
C510 C 0.07372 0.77238 0.9428 0.0
C511 C 0.06556 0.69655 0.96504 0.0
C512 C 0.0391 0.65936 0.97947 0.0
C513 C 0.04745 0.73631 0.95934 0.0
C514 C 0.99441 0.66307 0.99013 0.0
C515 C 0.97611 0.70292 0.98508 0.0
H516 H 0.4639 0.71647 0.02974 0.0
H517 H 0.42758 0.7483 0.16027 0.0
H518 H 0.44226 0.82732 0.14864 0.0
H519 H 0.47277 0.8864 0.10379 0.0
H520 H 0.51671 0.85612 0.97525 0.0
H521 H 0.4904 0.77751 0.98282 0.0
C522 C 0.45886 0.74091 0.05536 0.0
C523 C 0.44535 0.72687 0.09594 0.0
C524 C 0.4683 0.78637 0.04859 0.0
C525 C 0.43879 0.75853 0.12903 0.0
C526 C 0.44688 0.80361 0.12234 0.0
C527 C 0.4753 0.86265 0.07712 0.0
C528 C 0.49565 0.87665 0.03886 0.0
C529 C 0.46254 0.81777 0.08258 0.0
C530 C 0.50009 0.84588 0.00466 0.0
C531 C 0.48565 0.80101 0.00926 0.0
H532 H 0.0849 0.32618 0.51941 0.0
H533 H 0.17438 0.30248 0.61252 0.0
H534 H 0.16385 0.22254 0.59538 0.0
H535 H 0.11668 0.16 0.56519 0.0
H536 H 0.02427 0.18404 0.47514 0.0
H537 H 0.04942 0.26315 0.47829 0.0
C538 C 0.10293 0.30344 0.53502 0.0
C539 C 0.12969 0.31967 0.56762 0.0
C540 C 0.09612 0.25768 0.52543 0.0
C541 C 0.15344 0.2904 0.58746 0.0
C542 C 0.14724 0.24478 0.5778 0.0
C543 C 0.1038 0.1824 0.54472 0.0
C544 C 0.06908 0.16666 0.51974 0.0
C545 C 0.11701 0.22799 0.54834 0.0
C546 C 0.0516 0.19565 0.494 0.0
C547 C 0.06546 0.24092 0.49639 0.0
H548 H 0.62778 0.25359 0.45784 0.0
H549 H 0.49959 0.1874 0.43689 0.0
H550 H 0.46523 0.25112 0.46941 0.0
H551 H 0.4715 0.328 0.49682 0.0
H552 H 0.59896 0.39684 0.51499 0.0
H553 H 0.63368 0.32924 0.49227 0.0
C554 C 0.59233 0.25291 0.46106 0.0
C555 C 0.56628 0.2161 0.44427 0.0
C556 C 0.57268 0.29004 0.47952 0.0
C557 C 0.52038 0.2157 0.44864 0.0
C558 C 0.50069 0.25202 0.46747 0.0
C559 C 0.50688 0.32802 0.49655 0.0
C560 C 0.53261 0.36738 0.50753 0.0
C561 C 0.52651 0.28974 0.48195 0.0
C562 C 0.57836 0.36685 0.50719 0.0
C563 C 0.59823 0.32834 0.49365 0.0
loop_
_geom_bond_atom_site_label_1
_geom_bond_atom_site_label_2
_geom_bond_distance
_geom_bond_site_symmetry_2
_ccdc_geom_bond_type
H0 C5 0.930 . S
H1 C8 0.930 . S
H2 C10 0.930 . S
H3 C4 1.016 . S
C4 H3 1.016 . S
C4 N11 1.286 . S
C5 H0 0.930 . S
C5 C6 1.397 . S
C5 C7 1.361 . S
C6 C5 1.397 . S
C6 C10 1.390 . S
C7 C5 1.361 . S
C7 C8 1.393 . S
C7 N11 1.413 . S
C8 H1 0.930 . S
C8 C7 1.393 . S
C8 C9 1.399 . S
C9 C8 1.399 . S
C9 C10 1.381 . S
C10 H2 0.930 . S
C10 C6 1.390 . S
C10 C9 1.381 . S
N11 C4 1.286 . S
N11 C7 1.413 . S
H12 C17 0.930 . S
H13 C20 0.930 . S
H14 C22 0.930 . S
H15 C16 1.016 . S
C16 H15 1.016 . S
C16 N23 1.286 . S
C17 H12 0.930 . S
C17 C18 1.397 . S
C17 C19 1.361 . S
C18 C17 1.397 . S
C18 C22 1.390 . S
C19 C17 1.361 . S
C19 C20 1.393 . S
C19 N23 1.413 . S
C20 H13 0.930 . S
C20 C19 1.393 . S
C20 C21 1.399 . S
C21 C20 1.399 . S
C21 C22 1.381 . S
C22 H14 0.930 . S
C22 C18 1.390 . S
C22 C21 1.381 . S
N23 C16 1.286 . S
N23 C19 1.413 . S
H24 C29 0.930 . S
H25 C32 0.930 . S
H26 C34 0.930 . S
H27 C28 1.016 . S
C28 H27 1.016 . S
C28 N35 1.286 . S
C29 H24 0.930 . S
C29 C30 1.397 . S
C29 C31 1.361 . S
C30 C29 1.397 . S
C30 C34 1.390 . S
C31 C29 1.361 . S
C31 C32 1.393 . S
C31 N35 1.413 . S
C32 H25 0.930 . S
C32 C31 1.393 . S
C32 C33 1.399 . S
C33 C32 1.399 . S
C33 C34 1.381 . S
C34 H26 0.930 . S
C34 C30 1.390 . S
C34 C33 1.381 . S
N35 C28 1.286 . S
N35 C31 1.413 . S
H36 C41 0.930 . S
H37 C44 0.930 . S
H38 C46 0.930 . S
H39 C40 1.016 . S
C40 H39 1.016 . S
C40 N47 1.286 . S
C41 H36 0.930 . S
C41 C42 1.397 . S
C41 C43 1.361 . S
C42 C41 1.397 . S
C42 C46 1.390 . S
C43 C41 1.361 . S
C43 C44 1.393 . S
C43 N47 1.413 . S
C44 H37 0.930 . S
C44 C43 1.393 . S
C44 C45 1.399 . S
C45 C44 1.399 . S
C45 C46 1.381 . S
C46 H38 0.930 . S
C46 C42 1.390 . S
C46 C45 1.381 . S
N47 C40 1.286 . S
N47 C43 1.413 . S
H48 C53 0.930 . S
H49 C56 0.930 1_455 S
H50 C58 0.930 1_545 S
H51 C52 1.016 1_455 S
C52 H51 1.016 1_655 S
C52 N59 1.286 . S
C53 H48 0.930 . S
C53 C54 1.397 . S
C53 C55 1.361 . S
C54 C53 1.397 . S
C54 C58 1.390 . S
C55 C53 1.361 . S
C55 C56 1.393 . S
C55 N59 1.413 . S
C56 H49 0.930 1_655 S
C56 C55 1.393 . S
C56 C57 1.399 . S
C57 C56 1.399 . S
C57 C58 1.381 . S
C58 H50 0.930 1_565 S
C58 C54 1.390 . S
C58 C57 1.381 . S
N59 C52 1.286 . S
N59 C55 1.413 . S
H60 C65 0.930 . S
H61 C68 0.930 . S
H62 C70 0.930 . S
H63 C64 1.016 . S
C64 H63 1.016 . S
C64 N71 1.286 . S
C65 H60 0.930 . S
C65 C66 1.397 . S
C65 C67 1.361 . S
C66 C65 1.397 . S
C66 C70 1.390 . S
C67 C65 1.361 . S
C67 C68 1.393 . S
C67 N71 1.413 . S
C68 H61 0.930 . S
C68 C67 1.393 . S
C68 C69 1.399 . S
C69 C68 1.399 . S
C69 C70 1.381 . S
C70 H62 0.930 . S
C70 C66 1.390 . S
C70 C69 1.381 . S
N71 C64 1.286 . S
N71 C67 1.413 . S
H72 C77 0.930 . S
H73 C80 0.930 . S
H74 C82 0.930 . S
H75 C76 1.016 . S
C76 H75 1.016 . S
C76 N83 1.286 . S
C77 H72 0.930 . S
C77 C78 1.397 . S
C77 C79 1.361 . S
C78 C77 1.397 . S
C78 C82 1.390 . S
C79 C77 1.361 . S
C79 C80 1.393 . S
C79 N83 1.413 . S
C80 H73 0.930 . S
C80 C79 1.393 . S
C80 C81 1.399 . S
C81 C80 1.399 . S
C81 C82 1.381 . S
C82 H74 0.930 . S
C82 C78 1.390 . S
C82 C81 1.381 . S
N83 C76 1.286 . S
N83 C79 1.413 . S
H84 C89 0.930 . S
H85 C92 0.930 . S
H86 C94 0.930 . S
H87 C88 1.016 . S
C88 H87 1.016 . S
C88 N95 1.286 . S
C89 H84 0.930 . S
C89 C90 1.397 . S
C89 C91 1.361 . S
C90 C89 1.397 . S
C90 C94 1.390 . S
C91 C89 1.361 . S
C91 C92 1.393 . S
C91 N95 1.413 . S
C92 H85 0.930 . S
C92 C91 1.393 . S
C92 C93 1.399 . S
C93 C92 1.399 . S
C93 C94 1.381 . S
C94 H86 0.930 . S
C94 C90 1.390 . S
C94 C93 1.381 . S
N95 C88 1.286 . S
N95 C91 1.413 . S
Zn96 O102 1.920 . S
Zn96 O108 1.898 . S
Zn96 O111 1.905 . S
Zn97 O105 1.905 1_565 S
Zn97 O106 1.898 . S
Zn97 O114 1.920 . S
Zn98 O101 2.080 1_455 S
Zn98 O104 2.114 . S
Zn98 O107 2.120 1_445 S
Zn98 O109 2.120 . S
Zn98 O110 2.114 1_455 S
Zn98 O113 2.080 . S
C99 O104 1.166 . S
C99 O105 1.182 . S
C100 O106 1.167 1_655 S
C100 O107 1.299 . S
O101 Zn98 2.080 1_655 S
O101 C115 1.305 . S
O102 Zn96 1.920 . S
O102 C115 1.234 . S
C103 O108 1.167 1_455 S
C103 O109 1.299 . S
O104 Zn98 2.114 . S
O104 C99 1.166 . S
O105 Zn97 1.905 1_545 S
O105 C99 1.182 . S
O106 Zn97 1.898 . S
O106 C100 1.167 1_455 S
O107 Zn98 2.120 1_665 S
O107 C100 1.299 . S
O108 Zn96 1.898 . S
O108 C103 1.167 1_655 S
O109 Zn98 2.120 . S
O109 C103 1.299 . S
O110 Zn98 2.114 1_655 S
O110 C112 1.166 . S
O111 Zn96 1.905 . S
O111 C112 1.182 . S
C112 O110 1.166 . S
C112 O111 1.182 . S
O113 Zn98 2.080 . S
O113 C116 1.305 1_545 S
O114 Zn97 1.920 . S
O114 C116 1.234 . S
C115 O101 1.305 . S
C115 O102 1.234 . S
C116 O113 1.305 1_565 S
C116 O114 1.234 . S
Zn117 O123 1.920 1_556 S
Zn117 O129 1.898 . S
Zn117 O132 1.905 . S
Zn118 O126 1.905 . S
Zn118 O127 1.898 . S
Zn118 O135 1.920 . S
Zn119 O122 2.080 . S
Zn119 O125 2.114 1_545 S
Zn119 O128 2.120 1_545 S
Zn119 O130 2.120 . S
Zn119 O131 2.114 1_544 S
Zn119 O134 2.080 . S
C120 O125 1.166 . S
C120 O126 1.182 . S
C121 O127 1.167 . S
C121 O128 1.299 . S
O122 Zn119 2.080 . S
O122 C136 1.305 . S
O123 Zn117 1.920 1_554 S
O123 C136 1.234 . S
C124 O129 1.167 . S
C124 O130 1.299 1_556 S
O125 Zn119 2.114 1_565 S
O125 C120 1.166 . S
O126 Zn118 1.905 . S
O126 C120 1.182 . S
O127 Zn118 1.898 . S
O127 C121 1.167 . S
O128 Zn119 2.120 1_565 S
O128 C121 1.299 . S
O129 Zn117 1.898 . S
O129 C124 1.167 . S
O130 Zn119 2.120 . S
O130 C124 1.299 1_554 S
O131 Zn119 2.114 1_566 S
O131 C133 1.166 . S
O132 Zn117 1.905 . S
O132 C133 1.182 1_545 S
C133 O131 1.166 . S
C133 O132 1.182 1_565 S
O134 Zn119 2.080 . S
O134 C137 1.305 . S
O135 Zn118 1.920 . S
O135 C137 1.234 1_565 S
C136 O122 1.305 . S
C136 O123 1.234 . S
C137 O134 1.305 . S
C137 O135 1.234 1_545 S
Zn138 O144 1.920 . S
Zn138 O150 1.898 . S
Zn138 O153 1.905 . S
Zn139 O147 1.905 . S
Zn139 O148 1.898 . S
Zn139 O156 1.920 . S
Zn140 O143 2.080 . S
Zn140 O146 2.114 . S
Zn140 O149 2.120 . S
Zn140 O151 2.120 . S
Zn140 O152 2.114 . S
Zn140 O155 2.080 . S
C141 O146 1.166 . S
C141 O147 1.182 . S
C142 O148 1.167 . S
C142 O149 1.299 . S
O143 Zn140 2.080 . S
O143 C157 1.305 . S
O144 Zn138 1.920 . S
O144 C157 1.234 . S
C145 O150 1.167 . S
C145 O151 1.299 . S
O146 Zn140 2.114 . S
O146 C141 1.166 . S
O147 Zn139 1.905 . S
O147 C141 1.182 . S
O148 Zn139 1.898 . S
O148 C142 1.167 . S
O149 Zn140 2.120 . S
O149 C142 1.299 . S
O150 Zn138 1.898 . S
O150 C145 1.167 . S
O151 Zn140 2.120 . S
O151 C145 1.299 . S
O152 Zn140 2.114 . S
O152 C154 1.166 . S
O153 Zn138 1.905 . S
O153 C154 1.182 . S
C154 O152 1.166 . S
C154 O153 1.182 . S
O155 Zn140 2.080 . S
O155 C158 1.305 . S
O156 Zn139 1.920 . S
O156 C158 1.234 . S
C157 O143 1.305 . S
C157 O144 1.234 . S
C158 O155 1.305 . S
C158 O156 1.234 . S
Zn159 O165 1.920 . S
Zn159 O171 1.898 . S
Zn159 O174 1.905 . S
Zn160 O168 1.905 1_655 S
Zn160 O169 1.898 . S
Zn160 O177 1.920 . S
Zn161 O164 2.080 1_554 S
Zn161 O167 2.114 . S
Zn161 O170 2.120 1_454 S
Zn161 O172 2.120 . S
Zn161 O173 2.114 1_554 S
Zn161 O176 2.080 . S
C162 O167 1.166 . S
C162 O168 1.182 . S
C163 O169 1.167 1_556 S
C163 O170 1.299 . S
O164 Zn161 2.080 1_556 S
O164 C178 1.305 . S
O165 Zn159 1.920 . S
O165 C178 1.234 . S
C166 O171 1.167 1_554 S
C166 O172 1.299 . S
O167 Zn161 2.114 . S
O167 C162 1.166 . S
O168 Zn160 1.905 1_455 S
O168 C162 1.182 . S
O169 Zn160 1.898 . S
O169 C163 1.167 1_554 S
O170 Zn161 2.120 1_656 S
O170 C163 1.299 . S
O171 Zn159 1.898 . S
O171 C166 1.167 1_556 S
O172 Zn161 2.120 . S
O172 C166 1.299 . S
O173 Zn161 2.114 1_556 S
O173 C175 1.166 . S
O174 Zn159 1.905 . S
O174 C175 1.182 . S
C175 O173 1.166 . S
C175 O174 1.182 . S
O176 Zn161 2.080 . S
O176 C179 1.305 1_455 S
O177 Zn160 1.920 . S
O177 C179 1.234 . S
C178 O164 1.305 . S
C178 O165 1.234 . S
C179 O176 1.305 1_655 S
C179 O177 1.234 . S
H180 C186 0.930 . S
H181 C189 0.930 . S
H182 C190 0.930 . S
H183 C191 0.930 . S
H184 C194 0.930 . S
H185 C195 0.930 . S
C186 H180 0.930 . S
C186 C187 1.355 . S
C186 C188 1.415 . S
C187 C186 1.355 . S
C187 C189 1.419 . S
C188 C186 1.415 . S
C188 C193 1.425 . S
C188 C195 1.409 . S
C189 H181 0.930 . S
C189 C187 1.419 . S
C189 C190 1.362 . S
C190 H182 0.930 . S
C190 C189 1.362 . S
C190 C193 1.409 . S
C191 H183 0.930 . S
C191 C192 1.355 . S
C191 C193 1.415 . S
C192 C191 1.355 . S
C192 C194 1.419 . S
C193 C188 1.425 . S
C193 C190 1.409 . S
C193 C191 1.415 . S
C194 H184 0.930 . S
C194 C192 1.419 . S
C194 C195 1.362 . S
C195 H185 0.930 . S
C195 C188 1.409 . S
C195 C194 1.362 . S
H196 C202 0.930 . S
H197 C205 0.930 . S
H198 C206 0.930 . S
H199 C207 0.930 . S
H200 C210 0.930 . S
H201 C211 0.930 . S
C202 H196 0.930 . S
C202 C203 1.355 . S
C202 C204 1.415 . S
C203 C202 1.355 . S
C203 C205 1.419 . S
C204 C202 1.415 . S
C204 C209 1.425 . S
C204 C211 1.409 . S
C205 H197 0.930 . S
C205 C203 1.419 . S
C205 C206 1.362 . S
C206 H198 0.930 . S
C206 C205 1.362 . S
C206 C209 1.409 . S
C207 H199 0.930 . S
C207 C208 1.355 . S
C207 C209 1.415 . S
C208 C207 1.355 . S
C208 C210 1.419 . S
C209 C204 1.425 . S
C209 C206 1.409 . S
C209 C207 1.415 . S
C210 H200 0.930 . S
C210 C208 1.419 . S
C210 C211 1.362 . S
C211 H201 0.930 . S
C211 C204 1.409 . S
C211 C210 1.362 . S
H212 C218 0.930 . S
H213 C221 0.930 . S
H214 C222 0.930 . S
H215 C223 0.930 . S
H216 C226 0.930 . S
H217 C227 0.930 . S
C218 H212 0.930 . S
C218 C219 1.355 . S
C218 C220 1.415 . S
C219 C218 1.355 . S
C219 C221 1.419 . S
C220 C218 1.415 . S
C220 C225 1.425 . S
C220 C227 1.409 . S
C221 H213 0.930 . S
C221 C219 1.419 . S
C221 C222 1.362 . S
C222 H214 0.930 . S
C222 C221 1.362 . S
C222 C225 1.409 . S
C223 H215 0.930 . S
C223 C224 1.355 . S
C223 C225 1.415 . S
C224 C223 1.355 . S
C224 C226 1.419 . S
C225 C220 1.425 . S
C225 C222 1.409 . S
C225 C223 1.415 . S
C226 H216 0.930 . S
C226 C224 1.419 . S
C226 C227 1.362 . S
C227 H217 0.930 . S
C227 C220 1.409 . S
C227 C226 1.362 . S
H228 C234 0.930 . S
H229 C237 0.930 . S
H230 C238 0.930 1_455 S
H231 C239 0.930 1_455 S
H232 C242 0.930 . S
H233 C243 0.930 . S
C234 H228 0.930 . S
C234 C235 1.355 . S
C234 C236 1.415 . S
C235 C234 1.355 . S
C235 C237 1.419 . S
C236 C234 1.415 . S
C236 C241 1.425 . S
C236 C243 1.409 . S
C237 H229 0.930 . S
C237 C235 1.419 . S
C237 C238 1.362 . S
C238 H230 0.930 1_655 S
C238 C237 1.362 . S
C238 C241 1.409 . S
C239 H231 0.930 1_655 S
C239 C240 1.355 . S
C239 C241 1.415 . S
C240 C239 1.355 . S
C240 C242 1.419 . S
C241 C236 1.425 . S
C241 C238 1.409 . S
C241 C239 1.415 . S
C242 H232 0.930 . S
C242 C240 1.419 . S
C242 C243 1.362 . S
C243 H233 0.930 . S
C243 C236 1.409 . S
C243 C242 1.362 . S
H244 C250 0.930 . S
H245 C253 0.930 . S
H246 C254 0.930 . S
H247 C255 0.930 . S
H248 C258 0.930 . S
H249 C259 0.930 . S
C250 H244 0.930 . S
C250 C251 1.355 . S
C250 C252 1.415 . S
C251 C250 1.355 . S
C251 C253 1.419 . S
C252 C250 1.415 . S
C252 C257 1.425 . S
C252 C259 1.409 . S
C253 H245 0.930 . S
C253 C251 1.419 . S
C253 C254 1.362 . S
C254 H246 0.930 . S
C254 C253 1.362 . S
C254 C257 1.409 . S
C255 H247 0.930 . S
C255 C256 1.355 . S
C255 C257 1.415 . S
C256 C255 1.355 . S
C256 C258 1.419 . S
C257 C252 1.425 . S
C257 C254 1.409 . S
C257 C255 1.415 . S
C258 H248 0.930 . S
C258 C256 1.419 . S
C258 C259 1.362 . S
C259 H249 0.930 . S
C259 C252 1.409 . S
C259 C258 1.362 . S
H260 C266 0.930 . S
H261 C269 0.930 . S
H262 C270 0.930 . S
H263 C271 0.930 . S
H264 C274 0.930 . S
H265 C275 0.930 . S
C266 H260 0.930 . S
C266 C267 1.355 . S
C266 C268 1.415 . S
C267 C266 1.355 . S
C267 C269 1.419 . S
C268 C266 1.415 . S
C268 C273 1.425 . S
C268 C275 1.409 . S
C269 H261 0.930 . S
C269 C267 1.419 . S
C269 C270 1.362 . S
C270 H262 0.930 . S
C270 C269 1.362 . S
C270 C273 1.409 . S
C271 H263 0.930 . S
C271 C272 1.355 . S
C271 C273 1.415 . S
C272 C271 1.355 . S
C272 C274 1.419 . S
C273 C268 1.425 . S
C273 C270 1.409 . S
C273 C271 1.415 . S
C274 H264 0.930 . S
C274 C272 1.419 . S
C274 C275 1.362 . S
C275 H265 0.930 . S
C275 C268 1.409 . S
C275 C274 1.362 . S
H276 C282 0.930 . S
H277 C285 0.930 . S
H278 C286 0.930 . S
H279 C287 0.930 . S
H280 C290 0.930 . S
H281 C291 0.930 . S
C282 H276 0.930 . S
C282 C283 1.355 . S
C282 C284 1.415 . S
C283 C282 1.355 . S
C283 C285 1.419 . S
C284 C282 1.415 . S
C284 C289 1.425 . S
C284 C291 1.409 . S
C285 H277 0.930 . S
C285 C283 1.419 . S
C285 C286 1.362 . S
C286 H278 0.930 . S
C286 C285 1.362 . S
C286 C289 1.409 . S
C287 H279 0.930 . S
C287 C288 1.355 . S
C287 C289 1.415 . S
C288 C287 1.355 . S
C288 C290 1.419 . S
C289 C284 1.425 . S
C289 C286 1.409 . S
C289 C287 1.415 . S
C290 H280 0.930 . S
C290 C288 1.419 . S
C290 C291 1.362 . S
C291 H281 0.930 . S
C291 C284 1.409 . S
C291 C290 1.362 . S
H292 C298 0.930 . S
H293 C301 0.930 . S
H294 C302 0.930 . S
H295 C303 0.930 . S
H296 C306 0.930 . S
H297 C307 0.930 . S
C298 H292 0.930 . S
C298 C299 1.355 . S
C298 C300 1.415 . S
C299 C298 1.355 . S
C299 C301 1.419 . S
C300 C298 1.415 . S
C300 C305 1.425 . S
C300 C307 1.409 . S
C301 H293 0.930 . S
C301 C299 1.419 . S
C301 C302 1.362 . S
C302 H294 0.930 . S
C302 C301 1.362 . S
C302 C305 1.409 . S
C303 H295 0.930 . S
C303 C304 1.355 . S
C303 C305 1.415 . S
C304 C303 1.355 . S
C304 C306 1.419 . S
C305 C300 1.425 . S
C305 C302 1.409 . S
C305 C303 1.415 . S
C306 H296 0.930 . S
C306 C304 1.419 . S
C306 C307 1.362 . S
C307 H297 0.930 . S
C307 C300 1.409 . S
C307 C306 1.362 . S
H308 C314 0.930 . S
H309 C317 0.930 . S
H310 C318 0.930 . S
H311 C319 0.930 . S
H312 C322 0.930 . S
H313 C323 0.930 . S
C314 H308 0.930 . S
C314 C315 1.355 . S
C314 C316 1.415 . S
C315 C314 1.355 . S
C315 C317 1.419 . S
C316 C314 1.415 . S
C316 C321 1.425 . S
C316 C323 1.409 . S
C317 H309 0.930 . S
C317 C315 1.419 . S
C317 C318 1.362 . S
C318 H310 0.930 . S
C318 C317 1.362 . S
C318 C321 1.409 . S
C319 H311 0.930 . S
C319 C320 1.355 . S
C319 C321 1.415 . S
C320 C319 1.355 . S
C320 C322 1.419 . S
C321 C316 1.425 . S
C321 C318 1.409 . S
C321 C319 1.415 . S
C322 H312 0.930 . S
C322 C320 1.419 . S
C322 C323 1.362 . S
C323 H313 0.930 . S
C323 C316 1.409 . S
C323 C322 1.362 . S
H324 C330 0.930 . S
H325 C333 0.930 . S
H326 C334 0.930 . S
H327 C335 0.930 . S
H328 C338 0.930 1_554 S
H329 C339 0.930 . S
C330 H324 0.930 . S
C330 C331 1.355 . S
C330 C332 1.415 . S
C331 C330 1.355 . S
C331 C333 1.419 . S
C332 C330 1.415 . S
C332 C337 1.425 . S
C332 C339 1.409 . S
C333 H325 0.930 . S
C333 C331 1.419 . S
C333 C334 1.362 . S
C334 H326 0.930 . S
C334 C333 1.362 . S
C334 C337 1.409 . S
C335 H327 0.930 . S
C335 C336 1.355 . S
C335 C337 1.415 . S
C336 C335 1.355 . S
C336 C338 1.419 . S
C337 C332 1.425 . S
C337 C334 1.409 . S
C337 C335 1.415 . S
C338 H328 0.930 1_556 S
C338 C336 1.419 . S
C338 C339 1.362 . S
C339 H329 0.930 . S
C339 C332 1.409 . S
C339 C338 1.362 . S
H340 C346 0.930 . S
H341 C349 0.930 . S
H342 C350 0.930 . S
H343 C351 0.930 1_455 S
H344 C354 0.930 . S
H345 C355 0.930 . S
C346 H340 0.930 . S
C346 C347 1.355 . S
C346 C348 1.415 . S
C347 C346 1.355 . S
C347 C349 1.419 . S
C348 C346 1.415 . S
C348 C353 1.425 . S
C348 C355 1.409 . S
C349 H341 0.930 . S
C349 C347 1.419 . S
C349 C350 1.362 . S
C350 H342 0.930 . S
C350 C349 1.362 . S
C350 C353 1.409 . S
C351 H343 0.930 1_655 S
C351 C352 1.355 . S
C351 C353 1.415 . S
C352 C351 1.355 . S
C352 C354 1.419 . S
C353 C348 1.425 . S
C353 C350 1.409 . S
C353 C351 1.415 . S
C354 H344 0.930 . S
C354 C352 1.419 . S
C354 C355 1.362 . S
C355 H345 0.930 . S
C355 C348 1.409 . S
C355 C354 1.362 . S
H356 C362 0.930 . S
H357 C365 0.930 . S
H358 C366 0.930 . S
H359 C367 0.930 . S
H360 C370 0.930 . S
H361 C371 0.930 . S
C362 H356 0.930 . S
C362 C363 1.355 . S
C362 C364 1.415 . S
C363 C362 1.355 . S
C363 C365 1.419 . S
C364 C362 1.415 . S
C364 C369 1.425 . S
C364 C371 1.409 . S
C365 H357 0.930 . S
C365 C363 1.419 . S
C365 C366 1.362 . S
C366 H358 0.930 . S
C366 C365 1.362 . S
C366 C369 1.409 . S
C367 H359 0.930 . S
C367 C368 1.355 . S
C367 C369 1.415 . S
C368 C367 1.355 . S
C368 C370 1.419 . S
C369 C364 1.425 . S
C369 C366 1.409 . S
C369 C367 1.415 . S
C370 H360 0.930 . S
C370 C368 1.419 . S
C370 C371 1.362 . S
C371 H361 0.930 . S
C371 C364 1.409 . S
C371 C370 1.362 . S
H372 C378 0.930 1_455 S
H373 C381 0.930 . S
H374 C382 0.930 . S
H375 C383 0.930 . S
H376 C386 0.930 . S
H377 C387 0.930 . S
C378 H372 0.930 1_655 S
C378 C379 1.355 1_545 S
C378 C380 1.415 . S
C379 C378 1.355 1_565 S
C379 C381 1.419 . S
C380 C378 1.415 . S
C380 C385 1.425 1_545 S
C380 C387 1.409 1_655 S
C381 H373 0.930 . S
C381 C379 1.419 . S
C381 C382 1.362 . S
C382 H374 0.930 . S
C382 C381 1.362 . S
C382 C385 1.409 . S
C383 H375 0.930 . S
C383 C384 1.355 1_565 S
C383 C385 1.415 . S
C384 C383 1.355 1_545 S
C384 C386 1.419 1_655 S
C385 C380 1.425 1_565 S
C385 C382 1.409 . S
C385 C383 1.415 . S
C386 H376 0.930 . S
C386 C384 1.419 1_455 S
C386 C387 1.362 . S
C387 H377 0.930 . S
C387 C380 1.409 1_455 S
C387 C386 1.362 . S
H388 C394 0.930 . S
H389 C397 0.930 . S
H390 C398 0.930 . S
H391 C399 0.930 . S
H392 C402 0.930 . S
H393 C403 0.930 . S
C394 H388 0.930 . S
C394 C395 1.355 . S
C394 C396 1.415 . S
C395 C394 1.355 . S
C395 C397 1.419 . S
C396 C394 1.415 . S
C396 C401 1.425 . S
C396 C403 1.409 . S
C397 H389 0.930 . S
C397 C395 1.419 . S
C397 C398 1.362 . S
C398 H390 0.930 . S
C398 C397 1.362 . S
C398 C401 1.409 . S
C399 H391 0.930 . S
C399 C400 1.355 . S
C399 C401 1.415 . S
C400 C399 1.355 . S
C400 C402 1.419 . S
C401 C396 1.425 . S
C401 C398 1.409 . S
C401 C399 1.415 . S
C402 H392 0.930 . S
C402 C400 1.419 . S
C402 C403 1.362 . S
C403 H393 0.930 . S
C403 C396 1.409 . S
C403 C402 1.362 . S
H404 C410 0.930 . S
H405 C413 0.930 . S
H406 C414 0.930 . S
H407 C415 0.930 . S
H408 C418 0.930 . S
H409 C419 0.930 . S
C410 H404 0.930 . S
C410 C411 1.355 . S
C410 C412 1.415 . S
C411 C410 1.355 . S
C411 C413 1.419 . S
C412 C410 1.415 . S
C412 C417 1.425 . S
C412 C419 1.409 . S
C413 H405 0.930 . S
C413 C411 1.419 . S
C413 C414 1.362 . S
C414 H406 0.930 . S
C414 C413 1.362 . S
C414 C417 1.409 . S
C415 H407 0.930 . S
C415 C416 1.355 . S
C415 C417 1.415 . S
C416 C415 1.355 . S
C416 C418 1.419 . S
C417 C412 1.425 . S
C417 C414 1.409 . S
C417 C415 1.415 . S
C418 H408 0.930 . S
C418 C416 1.419 . S
C418 C419 1.362 . S
C419 H409 0.930 . S
C419 C412 1.409 . S
C419 C418 1.362 . S
H420 C426 0.930 . S
H421 C429 0.930 . S
H422 C430 0.930 . S
H423 C431 0.930 . S
H424 C434 0.930 . S
H425 C435 0.930 . S
C426 H420 0.930 . S
C426 C427 1.355 . S
C426 C428 1.415 . S
C427 C426 1.355 . S
C427 C429 1.419 . S
C428 C426 1.415 . S
C428 C433 1.425 . S
C428 C435 1.409 . S
C429 H421 0.930 . S
C429 C427 1.419 . S
C429 C430 1.362 . S
C430 H422 0.930 . S
C430 C429 1.362 . S
C430 C433 1.409 . S
C431 H423 0.930 . S
C431 C432 1.355 . S
C431 C433 1.415 . S
C432 C431 1.355 . S
C432 C434 1.419 . S
C433 C428 1.425 . S
C433 C430 1.409 . S
C433 C431 1.415 . S
C434 H424 0.930 . S
C434 C432 1.419 . S
C434 C435 1.362 . S
C435 H425 0.930 . S
C435 C428 1.409 . S
C435 C434 1.362 . S
H436 C442 0.930 . S
H437 C445 0.930 . S
H438 C446 0.930 . S
H439 C447 0.930 . S
H440 C450 0.930 . S
H441 C451 0.930 . S
C442 H436 0.930 . S
C442 C443 1.355 1_545 S
C442 C444 1.415 . S
C443 C442 1.355 1_565 S
C443 C445 1.419 1_556 S
C444 C442 1.415 . S
C444 C449 1.425 1_545 S
C444 C451 1.409 . S
C445 H437 0.930 . S
C445 C443 1.419 1_554 S
C445 C446 1.362 . S
C446 H438 0.930 . S
C446 C445 1.362 . S
C446 C449 1.409 1_554 S
C447 H439 0.930 . S
C447 C448 1.355 1_554 S
C447 C449 1.415 1_554 S
C448 C447 1.355 1_556 S
C448 C450 1.419 1_565 S
C449 C444 1.425 1_565 S
C449 C446 1.409 1_556 S
C449 C447 1.415 1_556 S
C450 H440 0.930 . S
C450 C448 1.419 1_545 S
C450 C451 1.362 . S
C451 H441 0.930 . S
C451 C444 1.409 . S
C451 C450 1.362 . S
H452 C458 0.930 . S
H453 C461 0.930 . S
H454 C462 0.930 . S
H455 C463 0.930 . S
H456 C466 0.930 1_565 S
H457 C467 0.930 1_565 S
C458 H452 0.930 . S
C458 C459 1.355 . S
C458 C460 1.415 . S
C459 C458 1.355 . S
C459 C461 1.419 . S
C460 C458 1.415 . S
C460 C465 1.425 . S
C460 C467 1.409 . S
C461 H453 0.930 . S
C461 C459 1.419 . S
C461 C462 1.362 . S
C462 H454 0.930 . S
C462 C461 1.362 . S
C462 C465 1.409 . S
C463 H455 0.930 . S
C463 C464 1.355 . S
C463 C465 1.415 . S
C464 C463 1.355 . S
C464 C466 1.419 . S
C465 C460 1.425 . S
C465 C462 1.409 . S
C465 C463 1.415 . S
C466 H456 0.930 1_545 S
C466 C464 1.419 . S
C466 C467 1.362 . S
C467 H457 0.930 1_545 S
C467 C460 1.409 . S
C467 C466 1.362 . S
H468 C474 0.930 . S
H469 C477 0.930 1_556 S
H470 C478 0.930 . S
H471 C479 0.930 1_556 S
H472 C482 0.930 . S
H473 C483 0.930 . S
C474 H468 0.930 . S
C474 C475 1.355 . S
C474 C476 1.415 . S
C475 C474 1.355 . S
C475 C477 1.419 . S
C476 C474 1.415 . S
C476 C481 1.425 . S
C476 C483 1.409 . S
C477 H469 0.930 1_554 S
C477 C475 1.419 . S
C477 C478 1.362 1_554 S
C478 H470 0.930 . S
C478 C477 1.362 1_556 S
C478 C481 1.409 1_556 S
C479 H471 0.930 1_554 S
C479 C480 1.355 . S
C479 C481 1.415 . S
C480 C479 1.355 . S
C480 C482 1.419 . S
C481 C476 1.425 . S
C481 C478 1.409 1_554 S
C481 C479 1.415 . S
C482 H472 0.930 . S
C482 C480 1.419 . S
C482 C483 1.362 . S
C483 H473 0.930 . S
C483 C476 1.409 . S
C483 C482 1.362 . S
H484 C490 0.930 . S
H485 C493 0.930 . S
H486 C494 0.930 . S
H487 C495 0.930 . S
H488 C498 0.930 . S
H489 C499 0.930 . S
C490 H484 0.930 . S
C490 C491 1.355 . S
C490 C492 1.415 . S
C491 C490 1.355 . S
C491 C493 1.419 . S
C492 C490 1.415 . S
C492 C497 1.425 . S
C492 C499 1.409 . S
C493 H485 0.930 . S
C493 C491 1.419 . S
C493 C494 1.362 . S
C494 H486 0.930 . S
C494 C493 1.362 . S
C494 C497 1.409 . S
C495 H487 0.930 . S
C495 C496 1.355 . S
C495 C497 1.415 . S
C496 C495 1.355 . S
C496 C498 1.419 . S
C497 C492 1.425 . S
C497 C494 1.409 . S
C497 C495 1.415 . S
C498 H488 0.930 . S
C498 C496 1.419 . S
C498 C499 1.362 . S
C499 H489 0.930 . S
C499 C492 1.409 . S
C499 C498 1.362 . S
H500 C506 0.938 . S
H501 C509 0.930 . S
H502 C510 0.930 . S
H503 C511 0.930 . S
H504 C514 0.930 . S
H505 C515 0.930 . S
C506 H500 0.938 . S
C506 C507 1.355 1_655 S
C506 C508 1.414 1_655 S
C507 C506 1.355 1_455 S
C507 C509 1.419 . S
C508 C506 1.414 1_455 S
C508 C513 1.427 . S
C508 C515 1.408 1_456 S
C509 H501 0.930 . S
C509 C507 1.419 . S
C509 C510 1.362 . S
C510 H502 0.930 . S
C510 C509 1.362 . S
C510 C513 1.409 . S
C511 H503 0.930 . S
C511 C512 1.355 . S
C511 C513 1.415 . S
C512 C511 1.355 . S
C512 C514 1.419 1_456 S
C513 C508 1.427 . S
C513 C510 1.409 . S
C513 C511 1.415 . S
C514 H504 0.930 . S
C514 C512 1.419 1_654 S
C514 C515 1.362 . S
C515 H505 0.930 . S
C515 C508 1.408 1_654 S
C515 C514 1.362 . S
H516 C522 0.930 . S
H517 C525 0.930 . S
H518 C526 0.930 . S
H519 C527 0.930 . S
H520 C530 0.930 1_556 S
H521 C531 0.930 1_556 S
C522 H516 0.930 . S
C522 C523 1.355 . S
C522 C524 1.415 . S
C523 C522 1.355 . S
C523 C525 1.419 . S
C524 C522 1.415 . S
C524 C529 1.425 . S
C524 C531 1.409 . S
C525 H517 0.930 . S
C525 C523 1.419 . S
C525 C526 1.362 . S
C526 H518 0.930 . S
C526 C525 1.362 . S
C526 C529 1.409 . S
C527 H519 0.930 . S
C527 C528 1.355 . S
C527 C529 1.415 . S
C528 C527 1.355 . S
C528 C530 1.419 . S
C529 C524 1.425 . S
C529 C526 1.409 . S
C529 C527 1.415 . S
C530 H520 0.930 1_554 S
C530 C528 1.419 . S
C530 C531 1.362 . S
C531 H521 0.930 1_554 S
C531 C524 1.409 . S
C531 C530 1.362 . S
H532 C538 0.930 . S
H533 C541 0.930 . S
H534 C542 0.930 . S
H535 C543 0.930 . S
H536 C546 0.930 1_655 S
H537 C547 0.930 1_655 S
C538 H532 0.930 . S
C538 C539 1.355 . S
C538 C540 1.415 . S
C539 C538 1.355 . S
C539 C541 1.419 . S
C540 C538 1.415 . S
C540 C545 1.425 . S
C540 C547 1.409 . S
C541 H533 0.930 . S
C541 C539 1.419 . S
C541 C542 1.362 . S
C542 H534 0.930 . S
C542 C541 1.362 . S
C542 C545 1.409 . S
C543 H535 0.930 . S
C543 C544 1.355 . S
C543 C545 1.415 . S
C544 C543 1.355 . S
C544 C546 1.419 . S
C545 C540 1.425 . S
C545 C542 1.409 . S
C545 C543 1.415 . S
C546 H536 0.930 1_455 S
C546 C544 1.419 . S
C546 C547 1.362 . S
C547 H537 0.930 1_455 S
C547 C540 1.409 . S
C547 C546 1.362 . S
H548 C554 0.930 . S
H549 C557 0.930 . S
H550 C558 0.930 . S
H551 C559 0.930 . S
H552 C562 0.930 . S
H553 C563 0.930 . S
C554 H548 0.930 . S
C554 C555 1.355 . S
C554 C556 1.415 . S
C555 C554 1.355 . S
C555 C557 1.419 . S
C556 C554 1.415 . S
C556 C561 1.425 . S
C556 C563 1.409 . S
C557 H549 0.930 . S
C557 C555 1.419 . S
C557 C558 1.362 . S
C558 H550 0.930 . S
C558 C557 1.362 . S
C558 C561 1.409 . S
C559 H551 0.930 . S
C559 C560 1.355 . S
C559 C561 1.415 . S
C560 C559 1.355 . S
C560 C562 1.419 . S
C561 C556 1.425 . S
C561 C558 1.409 . S
C561 C559 1.415 . S
C562 H552 0.930 . S
C562 C560 1.419 . S
C562 C563 1.362 . S
C563 H553 0.930 . S
C563 C556 1.409 . S
C563 C562 1.362 . S
C187 C6 1.705 . S
C192 C99 1.545 . S
C203 C18 1.771 . S
C208 C133 1.651 . S
C224 C145 1.416 . S
C219 C28 1.492 . S
C235 C40 1.074 . S
C240 C179 0.972 . S
C256 C136 1.664 . S
C251 C9 1.763 . S
C272 C116 1.368 . S
C267 C16 1.512 . S
C288 C163 1.446 . S
C283 C30 1.524 . S
C304 C154 1.141 . S
C299 C42 1.267 . S
C315 C4 1.513 . S
C320 C162 1.400 . S
C336 C124 1.406 . S
C331 C33 1.561 . S
C347 C45 1.319 . S
C352 C100 1.280 . S
C363 C21 1.743 . S
C368 C157 1.591 . S
C384 C115 1.662 . S
C379 C57 1.754 . S
C395 C66 1.838 . S
C400 C137 1.670 . S
C411 C76 1.666 . S
C416 C142 1.598 . S
C427 C88 1.115 . S
C432 C175 1.154 . S
C443 C54 1.816 . S
C448 C120 1.739 1_556 S
C464 C112 1.563 . S
C459 C64 1.609 . S
C480 C166 1.467 . S
C475 C78 1.497 . S
C496 C158 1.347 . S
C491 C93 1.387 . S
C507 C52 1.493 1_455 S
C512 C178 1.468 . S
C528 C121 1.540 . S
C523 C81 1.609 . S
C544 C103 1.328 . S
C539 C90 1.413 . S
C555 C69 1.801 . S
C560 C141 1.715 . S
