# Generated by pormake.
# Topology zzz, (3,6)-cn, num edge types: 1
# Building blocks:
#     Node 0, Type 0, BuildingBlock: BELTOD_clean_linker_0, # of connection points: 3
#     Node 1, Type 0, BuildingBlock: BELTOD_clean_linker_0, # of connection points: 3
#     Node 2, Type 0, BuildingBlock: BELTOD_clean_linker_0, # of connection points: 3
#     Node 3, Type 0, BuildingBlock: BELTOD_clean_linker_0, # of connection points: 3
#     Node 4, Type 0, BuildingBlock: BELTOD_clean_linker_0, # of connection points: 3
#     Node 5, Type 0, BuildingBlock: BELTOD_clean_linker_0, # of connection points: 3
#     Node 6, Type 0, BuildingBlock: BELTOD_clean_linker_0, # of connection points: 3
#     Node 7, Type 0, BuildingBlock: BELTOD_clean_linker_0, # of connection points: 3
#     Node 8, Type 1, BuildingBlock: GEDQOX_clean_sbu_0, # of connection points: 6
#     Node 9, Type 1, BuildingBlock: GEDQOX_clean_sbu_0, # of connection points: 6
#     Node 10, Type 1, BuildingBlock: GEDQOX_clean_sbu_0, # of connection points: 6
#     Node 11, Type 1, BuildingBlock: GEDQOX_clean_sbu_0, # of connection points: 6
#     Edge 12, Type (0, 1), BuildingBlock: EZIPEK_clean_linker_0, # of connection points: 2
#     Edge 13, Type (0, 1), BuildingBlock: EZIPEK_clean_linker_0, # of connection points: 2
#     Edge 14, Type (0, 1), BuildingBlock: EZIPEK_clean_linker_0, # of connection points: 2
#     Edge 15, Type (0, 1), BuildingBlock: EZIPEK_clean_linker_0, # of connection points: 2
#     Edge 16, Type (0, 1), BuildingBlock: EZIPEK_clean_linker_0, # of connection points: 2
#     Edge 17, Type (0, 1), BuildingBlock: EZIPEK_clean_linker_0, # of connection points: 2
#     Edge 18, Type (0, 1), BuildingBlock: EZIPEK_clean_linker_0, # of connection points: 2
#     Edge 19, Type (0, 1), BuildingBlock: EZIPEK_clean_linker_0, # of connection points: 2
#     Edge 20, Type (0, 1), BuildingBlock: EZIPEK_clean_linker_0, # of connection points: 2
#     Edge 21, Type (0, 1), BuildingBlock: EZIPEK_clean_linker_0, # of connection points: 2
#     Edge 22, Type (0, 1), BuildingBlock: EZIPEK_clean_linker_0, # of connection points: 2
#     Edge 23, Type (0, 1), BuildingBlock: EZIPEK_clean_linker_0, # of connection points: 2
#     Edge 24, Type (0, 1), BuildingBlock: EZIPEK_clean_linker_0, # of connection points: 2
#     Edge 25, Type (0, 1), BuildingBlock: EZIPEK_clean_linker_0, # of connection points: 2
#     Edge 26, Type (0, 1), BuildingBlock: EZIPEK_clean_linker_0, # of connection points: 2
#     Edge 27, Type (0, 1), BuildingBlock: EZIPEK_clean_linker_0, # of connection points: 2
#     Edge 28, Type (0, 1), BuildingBlock: EZIPEK_clean_linker_0, # of connection points: 2
#     Edge 29, Type (0, 1), BuildingBlock: EZIPEK_clean_linker_0, # of connection points: 2
#     Edge 30, Type (0, 1), BuildingBlock: EZIPEK_clean_linker_0, # of connection points: 2
#     Edge 31, Type (0, 1), BuildingBlock: EZIPEK_clean_linker_0, # of connection points: 2
#     Edge 32, Type (0, 1), BuildingBlock: EZIPEK_clean_linker_0, # of connection points: 2
#     Edge 33, Type (0, 1), BuildingBlock: EZIPEK_clean_linker_0, # of connection points: 2
#     Edge 34, Type (0, 1), BuildingBlock: EZIPEK_clean_linker_0, # of connection points: 2
#     Edge 35, Type (0, 1), BuildingBlock: EZIPEK_clean_linker_0, # of connection points: 2
# Relax obj value: 0.295
# Max RMSD: 0.325
# Mean RMSD: 0.183
data_MOF--net-zzz--node1-GEDQOX_clean_sbu_0--node2-BELTOD_clean_linker_0--edge1-EZIPEK_clean_linker_0
_symmetry_space_group_name_H-M    P1
_symmetry_Int_Tables_number       1
_symmetry_cell_setting            triclinic
loop_
_symmetry_equiv_pos_as_xyz
'x, y, z'
_cell_length_a     44.969764
_cell_length_b     42.532648
_cell_length_c     16.718217
_cell_angle_alpha  78.900828
_cell_angle_beta   90.390506
_cell_angle_gamma 105.33775
loop_
_atom_site_label
_atom_site_type_symbol
_atom_site_fract_x
_atom_site_fract_y
_atom_site_fract_z
_atom_type_partial_charge
P0 P 0.75664 0.46934 0.16109 0.0
H1 H 0.78768 0.4451 0.30377 0.0
H2 H 0.82308 0.47437 0.39435 0.0
H3 H 0.80381 0.56652 0.28198 0.0
H4 H 0.76877 0.53745 0.1906 0.0
H5 H 0.74175 0.49098 0.9902 0.0
H6 H 0.70003 0.51388 0.93111 0.0
H7 H 0.667 0.51428 0.17232 0.0
H8 H 0.70826 0.49066 0.23176 0.0
H9 H 0.75917 0.4311 0.03316 0.0
H10 H 0.82035 0.51101 0.12746 0.0
O11 O 0.73872 0.4297 0.20017 0.0
H12 H 0.80095 0.43276 0.93593 0.0
H13 H 0.86166 0.5113 0.03514 0.0
C14 C 0.77502 0.48891 0.24176 0.0
C15 C 0.7902 0.47136 0.30052 0.0
C16 C 0.8105 0.48804 0.3518 0.0
C17 C 0.81597 0.52253 0.34457 0.0
C18 C 0.79964 0.53985 0.28865 0.0
C19 C 0.77946 0.52318 0.23707 0.0
C20 C 0.7283 0.48941 0.11551 0.0
C21 C 0.72583 0.4963 0.03053 0.0
C22 C 0.70212 0.50951 0.99665 0.0
C23 C 0.68067 0.51601 0.04739 0.0
C24 C 0.68355 0.50973 0.13223 0.0
C25 C 0.70701 0.49623 0.16602 0.0
C26 C 0.78665 0.47056 0.08856 0.0
C27 C 0.78151 0.44867 0.03364 0.0
C28 C 0.80527 0.44946 0.97866 0.0
C29 C 0.83452 0.47169 0.97963 0.0
C30 C 0.83937 0.49364 0.03414 0.0
C31 C 0.81563 0.49338 0.08723 0.0
P32 P 0.01256 0.74412 0.28791 0.0
H33 H 0.02642 0.75027 0.45594 0.0
H34 H 0.00732 0.78325 0.53733 0.0
H35 H 0.93041 0.78294 0.38217 0.0
H36 H 0.9488 0.74856 0.30237 0.0
H37 H 0.01291 0.74204 0.11403 0.0
H38 H 0.00713 0.69668 0.04232 0.0
H39 H 0.98205 0.62608 0.26904 0.0
H40 H 0.98595 0.67208 0.34208 0.0
H41 H 0.06063 0.80725 0.26675 0.0
H42 H 0.97295 0.76859 0.16595 0.0
O43 O 0.04716 0.74146 0.32036 0.0
H44 H 0.06397 0.86258 0.18377 0.0
H45 H 0.97651 0.82367 0.08295 0.0
C46 C 0.98938 0.74741 0.37185 0.0
C47 C 0.00441 0.75537 0.4421 0.0
C48 C 0.99362 0.77445 0.48853 0.0
C49 C 0.96785 0.78606 0.46464 0.0
C50 C 0.95042 0.7743 0.40131 0.0
C51 C 0.96091 0.75456 0.35592 0.0
C52 C 0.99866 0.71067 0.23365 0.0
C53 C 0.00416 0.71701 0.14862 0.0
C54 C 0.0012 0.691 0.10719 0.0
C55 C 0.99378 0.65811 0.1502 0.0
C56 C 0.98702 0.65136 0.23472 0.0
C57 C 0.98931 0.67757 0.27625 0.0
C58 C 0.01703 0.78363 0.22043 0.0
C59 C 0.04247 0.81046 0.22568 0.0
C60 C 0.04431 0.84195 0.17896 0.0
C61 C 0.0206 0.84681 0.12712 0.0
C62 C 0.99509 0.8201 0.12222 0.0
C63 C 0.99318 0.78877 0.16926 0.0
P64 P 0.78252 0.0702 0.1701 0.0
H65 H 0.74435 0.08915 0.27941 0.0
H66 H 0.70585 0.05731 0.38784 0.0
H67 H 0.72857 0.96719 0.36296 0.0
H68 H 0.76709 0.99923 0.25256 0.0
H69 H 0.84826 0.07927 0.19425 0.0
H70 H 0.88734 0.06014 0.13043 0.0
H71 H 0.81635 0.99966 0.00799 0.0
H72 H 0.77705 0.01895 0.07167 0.0
H73 H 0.79061 0.12106 0.02099 0.0
H74 H 0.7197 0.03451 0.13797 0.0
O75 O 0.80159 0.10694 0.19054 0.0
H76 H 0.75515 0.13276 0.91314 0.0
H77 H 0.68442 0.0467 0.03224 0.0
C78 C 0.75895 0.04665 0.25919 0.0
C79 C 0.74156 0.06266 0.29824 0.0
C80 C 0.71946 0.04449 0.35956 0.0
C81 C 0.71429 0.00995 0.3828 0.0
C82 C 0.73224 0.99385 0.34541 0.0
C83 C 0.75431 0.01213 0.28312 0.0
C84 C 0.8099 0.05092 0.13654 0.0
C85 C 0.84098 0.06153 0.1547 0.0
C86 C 0.86325 0.05067 0.11835 0.0
C87 C 0.85464 0.02891 0.06392 0.0
C88 C 0.82332 0.01665 0.04953 0.0
C89 C 0.80101 0.02762 0.08582 0.0
C90 C 0.75744 0.07757 0.08869 0.0
C91 C 0.76749 0.1047 0.02359 0.0
C92 C 0.74742 0.11132 0.96222 0.0
C93 C 0.71712 0.0909 0.96606 0.0
C94 C 0.70762 0.06295 0.02918 0.0
C95 C 0.72773 0.05616 0.08974 0.0
P96 P 0.49552 0.81324 0.47744 0.0
H97 H 0.49312 0.78738 0.6528 0.0
H98 H 0.51285 0.74204 0.7239 0.0
H99 H 0.57584 0.75589 0.51911 0.0
H100 H 0.55544 0.80103 0.44645 0.0
H101 H 0.45761 0.8489 0.38173 0.0
H102 H 0.46821 0.8987 0.27469 0.0
H103 H 0.56569 0.91607 0.31273 0.0
H104 H 0.55496 0.86498 0.42018 0.0
H105 H 0.45744 0.74487 0.51137 0.0
H106 H 0.51294 0.81312 0.30851 0.0
O107 O 0.4643 0.81127 0.53367 0.0
H108 H 0.45056 0.69969 0.43505 0.0
H109 H 0.50548 0.76821 0.23231 0.0
C110 C 0.52258 0.79768 0.54367 0.0
C111 C 0.51229 0.78206 0.62434 0.0
C112 C 0.52344 0.75585 0.66511 0.0
C113 C 0.54534 0.74507 0.62624 0.0
C114 C 0.55882 0.76372 0.55015 0.0
C115 C 0.54741 0.78982 0.50899 0.0
C116 C 0.50542 0.8535 0.40992 0.0
C117 C 0.4813 0.86362 0.36835 0.0
C118 C 0.48733 0.89195 0.30675 0.0
C119 C 0.51771 0.91109 0.28533 0.0
C120 C 0.54206 0.90158 0.32829 0.0
C121 C 0.53596 0.87264 0.38981 0.0
C122 C 0.48489 0.78254 0.41475 0.0
C123 C 0.46722 0.75038 0.4496 0.0
C124 C 0.46347 0.72464 0.40653 0.0
C125 C 0.47737 0.73092 0.32822 0.0
C126 C 0.49437 0.76319 0.29246 0.0
C127 C 0.49838 0.78881 0.33581 0.0
P128 P 0.24484 0.49756 0.6773 0.0
H129 H 0.20606 0.4353 0.64063 0.0
H130 H 0.17368 0.42399 0.52572 0.0
H131 H 0.21408 0.52406 0.3949 0.0
H132 H 0.24596 0.53583 0.511 0.0
H133 H 0.28618 0.49673 0.81052 0.0
H134 H 0.34243 0.50938 0.81673 0.0
H135 H 0.35157 0.53718 0.55434 0.0
H136 H 0.29508 0.52426 0.54771 0.0
H137 H 0.18622 0.51171 0.63917 0.0
H138 H 0.26635 0.55269 0.76723 0.0
O139 O 0.2322 0.46464 0.75281 0.0
H140 H 0.15836 0.54583 0.69134 0.0
H141 H 0.23826 0.58772 0.81865 0.0
C142 C 0.22895 0.4863 0.58398 0.0
C143 C 0.20879 0.45459 0.58646 0.0
C144 C 0.19014 0.44811 0.52108 0.0
C145 C 0.19155 0.47319 0.45206 0.0
C146 C 0.21287 0.50436 0.44758 0.0
C147 C 0.23134 0.51092 0.51332 0.0
C148 C 0.28638 0.50918 0.67864 0.0
C149 C 0.3002 0.50564 0.75416 0.0
C150 C 0.33224 0.51294 0.75788 0.0
C151 C 0.35098 0.52412 0.68606 0.0
C152 C 0.33733 0.52861 0.61036 0.0
C153 C 0.30513 0.5212 0.60666 0.0
C154 C 0.22834 0.52938 0.69942 0.0
C155 C 0.19813 0.52855 0.67696 0.0
C156 C 0.18216 0.54805 0.70683 0.0
C157 C 0.196 0.5686 0.76041 0.0
C158 C 0.22712 0.57165 0.778 0.0
C159 C 0.24309 0.55166 0.74863 0.0
P160 P 0.11028 0.34625 0.44904 0.0
H161 H 0.14842 0.34175 0.31469 0.0
H162 H 0.13398 0.30735 0.21256 0.0
H163 H 0.03809 0.30031 0.25915 0.0
H164 H 0.05262 0.33497 0.36242 0.0
H165 H 0.10228 0.35069 0.61749 0.0
H166 H 0.08296 0.3883 0.68385 0.0
H167 H 0.06798 0.44273 0.44826 0.0
H168 H 0.08664 0.40382 0.38191 0.0
H169 H 0.13175 0.28674 0.4656 0.0
H170 H 0.05193 0.31308 0.54433 0.0
O171 O 0.14845 0.35694 0.45797 0.0
H172 H 0.1078 0.22831 0.52766 0.0
H173 H 0.02903 0.25516 0.61089 0.0
C174 C 0.10163 0.34118 0.34622 0.0
C175 C 0.1244 0.33467 0.29981 0.0
C176 C 0.11615 0.31465 0.24184 0.0
C177 C 0.08497 0.30076 0.2295 0.0
C178 C 0.06231 0.31077 0.268 0.0
C179 C 0.07064 0.3309 0.32627 0.0
C180 C 0.09487 0.37399 0.49472 0.0
C181 C 0.09426 0.37028 0.57996 0.0
C182 C 0.08328 0.39171 0.61791 0.0
C183 C 0.07369 0.41801 0.57109 0.0
C184 C 0.07484 0.42224 0.48546 0.0
C185 C 0.08542 0.40025 0.44756 0.0
C186 C 0.09436 0.30447 0.50403 0.0
C187 C 0.10949 0.28011 0.49791 0.0
C188 C 0.09569 0.24683 0.53219 0.0
C189 C 0.06674 0.2376 0.57392 0.0
C190 C 0.05139 0.26189 0.57897 0.0
C191 C 0.0648 0.29502 0.54252 0.0
P192 P 0.29454 0.10922 0.58944 0.0
H193 H 0.34966 0.16027 0.521 0.0
H194 H 0.38434 0.16607 0.40446 0.0
H195 H 0.32048 0.08352 0.32757 0.0
H196 H 0.28492 0.07822 0.44408 0.0
H197 H 0.24714 0.14443 0.5874 0.0
H198 H 0.19205 0.1245 0.62728 0.0
H199 H 0.19565 0.0234 0.63895 0.0
H200 H 0.25108 0.04331 0.60006 0.0
H201 H 0.31935 0.05453 0.55988 0.0
H202 H 0.30153 0.09569 0.76553 0.0
O203 O 0.30379 0.14371 0.62838 0.0
H204 H 0.35429 0.02734 0.63967 0.0
H205 H 0.33627 0.06776 0.8461 0.0
C206 C 0.31447 0.11905 0.49079 0.0
C207 C 0.34237 0.14418 0.47758 0.0
C208 C 0.36236 0.1474 0.41128 0.0
C209 C 0.35504 0.12512 0.35784 0.0
C210 C 0.32638 0.10104 0.36811 0.0
C211 C 0.30607 0.09815 0.43415 0.0
C212 C 0.2532 0.09527 0.5921 0.0
C213 C 0.23601 0.11803 0.59661 0.0
C214 C 0.20465 0.10671 0.61964 0.0
C215 C 0.19009 0.07252 0.63741 0.0
C216 C 0.2067 0.04987 0.62618 0.0
C217 C 0.23819 0.06123 0.60363 0.0
C218 C 0.30936 0.07875 0.65547 0.0
C219 C 0.32201 0.05683 0.62291 0.0
C220 C 0.34148 0.0406 0.66909 0.0
C221 C 0.3482 0.04606 0.74812 0.0
C222 C 0.33131 0.06328 0.78515 0.0
C223 C 0.31193 0.07969 0.73865 0.0
P224 P 0.45502 0.23977 0.26778 0.0
H225 H 0.43723 0.25426 0.0975 0.0
H226 H 0.45066 0.30624 0.99529 0.0
H227 H 0.52221 0.34907 0.14609 0.0
H228 H 0.50952 0.297 0.24671 0.0
H229 H 0.43476 0.17012 0.34497 0.0
H230 H 0.46035 0.13526 0.43872 0.0
H231 H 0.54735 0.20929 0.37643 0.0
H232 H 0.52152 0.24426 0.28221 0.0
H233 H 0.43737 0.30096 0.2701 0.0
H234 H 0.46731 0.22774 0.44448 0.0
O235 O 0.4192 0.22029 0.24808 0.0
H236 H 0.45258 0.3407 0.36087 0.0
H237 H 0.48222 0.26741 0.53452 0.0
C238 C 0.47235 0.27158 0.18002 0.0
C239 C 0.45667 0.27426 0.10713 0.0
C240 C 0.46413 0.30406 0.04904 0.0
C241 C 0.48697 0.3318 0.06392 0.0
C242 C 0.50436 0.32812 0.13353 0.0
C243 C 0.49732 0.29816 0.19063 0.0
C244 C 0.47615 0.20963 0.30538 0.0
C245 C 0.45952 0.17822 0.34822 0.0
C246 C 0.4741 0.1585 0.40273 0.0
C247 C 0.50566 0.16995 0.4156 0.0
C248 C 0.52293 0.20011 0.36767 0.0
C249 C 0.50821 0.21992 0.31322 0.0
C250 C 0.45284 0.26204 0.34817 0.0
C251 C 0.44621 0.29299 0.32879 0.0
C252 C 0.4548 0.31565 0.38053 0.0
C253 C 0.46926 0.30709 0.45289 0.0
C254 C 0.47151 0.27446 0.47808 0.0
C255 C 0.4632 0.25193 0.42596 0.0
Nd256 Nd 0.00305 0.02195 0.77732 0.0
Nd257 Nd 0.03129 0.05337 0.91635 0.0
C258 C 0.96769 0.99327 0.67018 0.0
C259 C 0.96485 0.96194 0.64183 0.0
C260 C 0.9399 0.94932 0.59574 0.0
C261 C 0.93759 0.91967 0.56818 0.0
C262 C 0.96022 0.9024 0.58657 0.0
C263 C 0.98488 0.91481 0.63368 0.0
C264 C 0.98713 0.94431 0.66126 0.0
C265 C 0.06573 0.02953 0.78067 0.0
C266 C 0.02189 0.97587 0.93685 0.0
C267 C 0.06182 0.09096 0.01617 0.0
C268 C 0.06535 0.1245 0.03315 0.0
C269 C 0.08899 0.13736 0.08252 0.0
C270 C 0.0908 0.1675 0.10672 0.0
C271 C 0.06896 0.18526 0.08193 0.0
C272 C 0.04582 0.17294 0.03037 0.0
C273 C 0.04406 0.14276 0.00595 0.0
C274 C 0.96827 0.02521 0.93293 0.0
C275 C 0.01985 0.10257 0.75238 0.0
O276 O 0.9586 0.99009 0.74622 0.0
O277 O 0.99378 0.01615 0.64989 0.0
O278 O 0.04605 0.0045 0.76005 0.0
O279 O 0.05202 0.05018 0.79617 0.0
O280 O 0.00049 0.97735 0.88276 0.0
O281 O 0.04181 0.00303 0.95004 0.0
O282 O 0.07392 0.08887 0.94721 0.0
O283 O 0.03465 0.07008 0.03423 0.0
O284 O 0.98711 0.02239 0.99116 0.0
O285 O 0.98298 0.04336 0.86945 0.0
O286 O 0.02387 0.099 0.83134 0.0
O287 O 0.01176 0.07694 0.71567 0.0
H288 H 0.92243 0.96252 0.58047 0.0
H289 H 0.91854 0.91052 0.53137 0.0
H290 H 0.00261 0.90189 0.64801 0.0
H291 H 0.00647 0.95359 0.69699 0.0
H292 H 0.10553 0.12359 0.10436 0.0
H293 H 0.10871 0.17653 0.14681 0.0
H294 H 0.02868 0.18619 0.01101 0.0
H295 H 0.02558 0.1332 0.96795 0.0
Nd296 Nd 0.53944 0.035 0.8176 0.0
Nd297 Nd 0.53867 0.08645 0.89147 0.0
C298 C 0.54076 0.98005 0.76679 0.0
C299 C 0.5621 0.97449 0.70757 0.0
C300 C 0.57712 0.94922 0.72977 0.0
C301 C 0.60119 0.94737 0.67959 0.0
C302 C 0.61047 0.97086 0.60682 0.0
C303 C 0.59451 0.99504 0.58276 0.0
C304 C 0.57063 0.99694 0.63274 0.0
C305 C 0.54579 0.09215 0.6996 0.0
C306 C 0.60487 0.08819 0.82939 0.0
C307 C 0.53182 0.12791 0.98623 0.0
C308 C 0.50579 0.13026 0.03616 0.0
C309 C 0.47527 0.12075 0.01165 0.0
C310 C 0.45063 0.12123 0.06155 0.0
C311 C 0.45607 0.13137 0.13661 0.0
C312 C 0.48658 0.14134 0.16071 0.0
C313 C 0.51125 0.14074 0.11086 0.0
C314 C 0.51867 0.01711 0.00719 0.0
C315 C 0.47209 0.047 0.84617 0.0
O316 O 0.55305 0.98766 0.83366 0.0
O317 O 0.52253 0.9984 0.73789 0.0
O318 O 0.56239 0.07144 0.70018 0.0
O319 O 0.52752 0.08323 0.76145 0.0
O320 O 0.59125 0.05644 0.83251 0.0
O321 O 0.5881 0.1081 0.84053 0.0
O322 O 0.52945 0.13374 0.90731 0.0
O323 O 0.5428 0.1025 0.01127 0.0
O324 O 0.54106 0.03529 0.95626 0.0
O325 O 0.54052 0.03557 0.95636 0.0
O326 O 0.48742 0.07356 0.872 0.0
O327 O 0.48632 0.02544 0.82949 0.0
H328 H 0.57114 0.93186 0.78753 0.0
H329 H 0.61341 0.92862 0.69902 0.0
H330 H 0.60147 0.01339 0.52686 0.0
H331 H 0.55982 0.01692 0.61423 0.0
H332 H 0.47035 0.11257 0.95441 0.0
H333 H 0.42725 0.11326 0.04216 0.0
H334 H 0.49122 0.14916 0.21856 0.0
H335 H 0.53457 0.14804 0.13111 0.0
Nd336 Nd 0.51058 0.5449 0.90241 0.0
Nd337 Nd 0.54047 0.53477 0.75249 0.0
C338 C 0.47441 0.54993 0.02018 0.0
C339 C 0.47431 0.5757 0.06669 0.0
C340 C 0.45145 0.57003 0.12824 0.0
C341 C 0.45131 0.59472 0.17247 0.0
C342 C 0.47404 0.6252 0.15525 0.0
C343 C 0.49696 0.63081 0.09375 0.0
C344 C 0.4971 0.60615 0.0496 0.0
C345 C 0.57337 0.55331 0.91197 0.0
C346 C 0.54503 0.60946 0.76602 0.0
C347 C 0.56926 0.515 0.64264 0.0
C348 C 0.56362 0.48226 0.62015 0.0
C349 C 0.55684 0.45303 0.68058 0.0
C350 C 0.54384 0.42221 0.65976 0.0
C351 C 0.53748 0.42039 0.57837 0.0
C352 C 0.54614 0.4492 0.51736 0.0
C353 C 0.55915 0.47999 0.53815 0.0
C354 C 0.48142 0.54155 0.73328 0.0
C355 C 0.50749 0.46833 0.8897 0.0
O356 O 0.46904 0.55724 0.94265 0.0
O357 O 0.49716 0.53604 0.03354 0.0
O358 O 0.55872 0.57175 0.93991 0.0
O359 O 0.55464 0.5316 0.88181 0.0
O360 O 0.52069 0.59636 0.81713 0.0
O361 O 0.56168 0.59075 0.74506 0.0
O362 O 0.58 0.51786 0.7146 0.0
O363 O 0.54694 0.52915 0.62564 0.0
O364 O 0.50366 0.55484 0.67854 0.0
O365 O 0.49046 0.52465 0.79408 0.0
O366 O 0.52132 0.47996 0.81647 0.0
O367 O 0.50016 0.48797 0.93398 0.0
H368 H 0.43376 0.5466 0.14195 0.0
H369 H 0.43353 0.59014 0.21995 0.0
H370 H 0.51464 0.65425 0.07999 0.0
H371 H 0.5149 0.61081 1.00212 0.0
H372 H 0.56002 0.4541 0.74425 0.0
H373 H 0.53748 0.40006 0.70732 0.0
H374 H 0.54154 0.44801 0.45415 0.0
H375 H 0.56397 0.50224 0.49081 0.0
Nd376 Nd 0.01905 0.56384 0.77242 0.0
Nd377 Nd 0.02515 0.50779 0.91737 0.0
C378 C 0.99768 0.6063 0.66763 0.0
C379 C 0.9714 0.59864 0.61511 0.0
C380 C 0.95327 0.62088 0.59248 0.0
C381 C 0.92695 0.61194 0.54762 0.0
C382 C 0.91868 0.5807 0.52514 0.0
C383 C 0.93689 0.55862 0.54751 0.0
C384 C 0.96293 0.56742 0.59246 0.0
C385 C 0.03922 0.51389 0.72954 0.0
C386 C 0.95677 0.50431 0.85142 0.0
C387 C 0.04226 0.45689 1.00059 0.0
C388 C 0.06455 0.45445 0.0655 0.0
C389 C 0.09611 0.47125 0.05085 0.0
C390 C 0.11625 0.47179 0.11489 0.0
C391 C 0.10525 0.45576 0.19456 0.0
C392 C 0.07399 0.43825 0.20901 0.0
C393 C 0.05385 0.43746 0.14492 0.0
C394 C 0.01721 0.5599 0.98198 0.0
C395 C 0.08449 0.57338 0.85427 0.0
O396 O 0.9905 0.59967 0.74588 0.0
O397 O 0.0216 0.59628 0.65056 0.0
O398 O 0.04979 0.54498 0.69536 0.0
O399 O 0.01788 0.50969 0.7828 0.0
O400 O 0.96971 0.5291 0.79101 0.0
O401 O 0.97311 0.49056 0.90654 0.0
O402 O 0.05377 0.47228 0.92722 0.0
O403 O 0.01732 0.46462 0.02051 0.0
O404 O 0.02097 0.53279 0.02621 0.0
O405 O 0.01838 0.55874 0.90735 0.0
O406 O 0.07437 0.54155 0.88882 0.0
O407 O 0.06605 0.5898 0.81415 0.0
H408 H 0.95921 0.64486 0.61038 0.0
H409 H 0.913 0.6292 0.53076 0.0
H410 H 0.93072 0.53439 0.53088 0.0
H411 H 0.97626 0.5496 0.6105 0.0
H412 H 0.10515 0.48475 0.99046 0.0
H413 H 0.1403 0.48543 0.10278 0.0
H414 H 0.06489 0.42602 0.27001 0.0
H415 H 0.02968 0.42446 0.15791 0.0
C416 C 0.1332 0.06546 0.62451 0.0
C417 C 0.15807 0.06054 0.67339 0.0
C418 C 0.12193 0.03226 0.79031 0.0
C419 C 0.09753 0.0403 0.74408 0.0
N420 N 0.0799 0.06743 0.61926 0.0
N421 N 0.1771 0.04465 0.8064 0.0
C422 C 0.10316 0.05782 0.66175 0.0
C423 C 0.15273 0.04536 0.75734 0.0
N424 N 0.13814 0.07627 0.54197 0.0
N425 N 0.11565 0.01142 0.86489 0.0
H426 H 0.20007 0.05426 0.78499 0.0
H427 H 0.1746 0.03723 0.86965 0.0
H428 H 0.09335 1.00128 0.89079 0.0
H429 H 0.13213 1.00179 0.8976 0.0
H430 H 0.12046 0.07694 0.50168 0.0
H431 H 0.15984 0.0819 0.51259 0.0
H432 H 0.08349 0.08387 0.56317 0.0
H433 H 0.05713 0.06072 0.64211 0.0
C434 C 0.52693 0.16482 0.55648 0.0
C435 C 0.51954 0.15161 0.48463 0.0
C436 C 0.52827 0.09881 0.55436 0.0
C437 C 0.53873 0.11306 0.6233 0.0
N438 N 0.55251 0.16143 0.68485 0.0
N439 N 0.51923 0.10853 0.40965 0.0
C440 C 0.53951 0.14669 0.62257 0.0
C441 C 0.52231 0.11944 0.48179 0.0
N442 N 0.52038 0.1938 0.56362 0.0
N443 N 0.52154 0.06519 0.55982 0.0
H444 H 0.51479 0.12301 0.35538 0.0
H445 H 0.524 0.08658 0.40214 0.0
H446 H 0.52297 0.04873 0.61353 0.0
H447 H 0.511 0.05327 0.51402 0.0
H448 H 0.52183 0.20254 0.61798 0.0
H449 H 0.51089 0.20778 0.51738 0.0
H450 H 0.55666 0.18679 0.68372 0.0
H451 H 0.56168 0.14885 0.73455 0.0
C452 C 0.39736 0.50171 0.69531 0.0
C453 C 0.38487 0.52931 0.69085 0.0
C454 C 0.43653 0.56577 0.70119 0.0
C455 C 0.44849 0.53753 0.7147 0.0
N456 N 0.44114 0.47863 0.72259 0.0
N457 N 0.39128 0.58698 0.69521 0.0
C458 C 0.42912 0.50547 0.71122 0.0
C459 C 0.40415 0.56125 0.69475 0.0
N460 N 0.3789 0.47215 0.68193 0.0
N461 N 0.45617 0.59693 0.69371 0.0
H462 H 0.3678 0.58481 0.68812 0.0
H463 H 0.40335 0.60987 0.7077 0.0
H464 H 0.47987 0.60121 0.70025 0.0
H465 H 0.44949 0.61873 0.67493 0.0
H466 H 0.38695 0.45192 0.67569 0.0
H467 H 0.35546 0.46838 0.67122 0.0
H468 H 0.42781 0.45406 0.73268 0.0
H469 H 0.46473 0.48069 0.72431 0.0
C470 C 0.03281 0.44238 0.61686 0.0
C471 C 0.06424 0.44206 0.61267 0.0
C472 C 0.07747 0.48409 0.69844 0.0
C473 C 0.04677 0.48705 0.69533 0.0
N474 N 0.99599 0.4724 0.64195 0.0
N475 N 0.11734 0.46543 0.64041 0.0
C476 C 0.02454 0.46697 0.65234 0.0
C477 C 0.08678 0.4636 0.65131 0.0
N478 N 0.01074 0.41857 0.58912 0.0
N479 N 0.09761 0.5003 0.74818 0.0
H480 H 0.12535 0.45128 0.60539 0.0
H481 H 0.135 0.48304 0.66022 0.0
H482 H 0.09202 0.51641 0.78141 0.0
H483 H 0.11876 0.49548 0.76235 0.0
H484 H 0.98715 0.41518 0.59864 0.0
H485 H 0.01595 0.4003 0.56245 0.0
H486 H 0.98013 0.46128 0.60325 0.0
H487 H 0.98891 0.49004 0.66689 0.0
C488 C 0.89353 0.99662 0.05785 0.0
C489 C 0.87897 0.02085 0.01866 0.0
C490 C 0.91618 0.03581 0.90207 0.0
C491 C 0.93424 0.01706 0.94913 0.0
N492 N 0.93396 0.96872 0.05099 0.0
N493 N 0.87545 0.06332 0.90294 0.0
C494 C 0.92091 0.99393 0.02087 0.0
C495 C 0.88963 0.03993 0.93976 0.0
N496 N 0.88187 0.97739 0.13193 0.0
N497 N 0.92348 0.04823 0.82094 0.0
H498 H 0.85547 0.06657 0.92749 0.0
H499 H 0.88455 0.08094 0.85063 0.0
H500 H 0.94054 0.0423 0.78968 0.0
H501 H 0.90991 0.06022 0.7822 0.0
H502 H 0.89307 0.96185 0.16855 0.0
H503 H 0.86107 0.97784 0.1584 0.0
H504 H 0.92477 0.94965 0.10045 0.0
H505 H 0.95256 0.96503 0.02053 0.0
C506 C 0.53813 0.94149 0.1424 0.0
C507 C 0.52309 0.94082 0.21726 0.0
C508 C 0.50698 0.99031 0.15374 0.0
C509 C 0.52353 0.99229 0.07974 0.0
N510 N 0.56399 0.97521 0.01696 0.0
N511 N 0.50108 0.9701 0.30019 0.0
C512 C 0.54209 0.96978 0.07783 0.0
C513 C 0.51001 0.96703 0.22473 0.0
N514 N 0.54739 0.91448 0.13094 0.0
N515 N 0.48807 0.01059 0.15658 0.0
H516 H 0.50369 0.95389 0.35355 0.0
H517 H 0.49421 0.99057 0.31067 0.0
H518 H 0.48613 0.02933 0.10801 0.0
H519 H 0.47272 0.00742 0.20574 0.0
H520 H 0.55506 0.91212 0.07426 0.0
H521 H 0.54467 0.89308 0.17582 0.0
H522 H 0.57947 0.96073 0.01811 0.0
H523 H 0.56995 0.99631 0.97136 0.0
C524 C 0.65692 0.55933 0.96761 0.0
C525 C 0.6535 0.52653 0.01274 0.0
C526 C 0.59745 0.51488 0.00573 0.0
C527 C 0.60097 0.54589 0.95162 0.0
N528 N 0.63387 0.59704 0.87574 0.0
N529 N 0.62096 0.47089 0.06044 0.0
C530 C 0.63069 0.56809 0.93124 0.0
C531 C 0.62388 0.50366 0.02769 0.0
N532 N 0.68499 0.58226 0.9615 0.0
N533 N 0.56896 0.49673 0.03906 0.0
H534 H 0.63981 0.4614 0.0762 0.0
H535 H 0.60011 0.45256 0.06432 0.0
H536 H 0.54921 0.50511 0.02874 0.0
H537 H 0.56549 0.47534 0.08429 0.0
H538 H 0.68835 0.60739 0.93651 0.0
H539 H 0.70462 0.57662 0.9872 0.0
H540 H 0.65513 0.61257 0.85132 0.0
H541 H 0.61502 0.60457 0.85026 0.0
C542 C 0.97392 0.61088 0.07594 0.0
C543 C 0.9989 0.63208 0.10834 0.0
C544 C 0.03568 0.61007 0.0439 0.0
C545 C 0.01075 0.58696 0.01707 0.0
N546 N 0.95602 0.56246 0.01367 0.0
N547 N 0.05306 0.64833 0.13526 0.0
C548 C 0.97976 0.58661 0.03453 0.0
C549 C 0.02966 0.63067 0.09568 0.0
N550 N 0.94479 0.61441 0.08365 0.0
N551 N 0.06519 0.61288 0.01815 0.0
H552 H 0.04971 0.66383 0.17372 0.0
H553 H 0.07535 0.64546 0.1359 0.0
H554 H 0.07025 0.59822 0.97991 0.0
H555 H 0.08422 0.63163 0.02804 0.0
H556 H 0.926 0.60223 0.05434 0.0
H557 H 0.93972 0.63118 0.11596 0.0
H558 H 0.93304 0.55845 0.03213 0.0
H559 H 0.95951 0.545 0.98124 0.0
C560 C 0.02603 0.18234 0.59536 0.0
C561 C 0.05391 0.20291 0.61819 0.0
C562 C 0.06102 0.15593 0.71812 0.0
C563 C 0.03126 0.13659 0.70317 0.0
N564 N 0.98471 0.13197 0.62792 0.0
N565 N 0.0935 0.21108 0.71656 0.0
C566 C 0.01353 0.14996 0.6421 0.0
C567 C 0.07008 0.19025 0.68418 0.0
N568 N 0.01081 0.19281 0.52911 0.0
N569 N 0.0816 0.14123 0.76026 0.0
H570 H 0.10038 0.23676 0.69535 0.0
H571 H 0.10376 0.20324 0.77013 0.0
H572 H 0.07721 0.1156 0.78006 0.0
H573 H 0.10448 0.15401 0.76609 0.0
H574 H 0.01868 0.21578 0.48951 0.0
H575 H 0.01868 0.21578 0.48951 0.0
H576 H 0.97118 0.14124 0.58325 0.0
H577 H 0.97403 0.10853 0.66255 0.0
C578 C 0.40389 0.07387 0.74897 0.0
C579 C 0.3792 0.04531 0.77705 0.0
C580 C 0.41512 0.01717 0.85258 0.0
C581 C 0.44005 0.04534 0.82111 0.0
N582 N 0.4571 0.09975 0.72925 0.0
N583 N 0.36081 0.98829 0.84627 0.0
C584 C 0.43421 0.07323 0.76727 0.0
C585 C 0.38464 0.01644 0.82628 0.0
N586 N 0.3988 0.10193 0.70158 0.0
N587 N 0.42034 0.99195 0.91028 0.0
H588 H 0.33825 0.98756 0.82971 0.0
H589 H 0.36359 0.96528 0.87458 0.0
H590 H 0.4422 0.99191 0.93141 0.0
H591 H 0.40286 0.97225 0.94163 0.0
H592 H 0.41646 0.12349 0.6805 0.0
H593 H 0.37715 0.10428 0.68365 0.0
H594 H 0.48061 0.102 0.73313 0.0
H595 H 0.48061 0.102 0.73313 0.0
C596 C 0.51936 0.34576 0.47765 0.0
C597 C 0.4869 0.33366 0.49361 0.0
C598 C 0.48767 0.37757 0.56953 0.0
C599 C 0.52029 0.3887 0.55647 0.0
N600 N 0.56789 0.37937 0.51499 0.0
N601 N 0.44086 0.3335 0.56639 0.0
C602 C 0.53636 0.37142 0.51597 0.0
C603 C 0.47126 0.34813 0.54347 0.0
N604 N 0.53373 0.33397 0.42263 0.0
N605 N 0.47231 0.39594 0.60342 0.0
H606 H 0.42824 0.31205 0.54745 0.0
H607 H 0.42889 0.34088 0.60927 0.0
H608 H 0.4835 0.41748 0.62413 0.0
H609 H 0.44837 0.39122 0.60601 0.0
H610 H 0.5566 0.34463 0.40151 0.0
H611 H 0.52228 0.31524 0.39254 0.0
H612 H 0.58082 0.36538 0.49379 0.0
H613 H 0.58104 0.3982 0.54243 0.0
C614 C 0.16289 0.60767 0.75583 0.0
C615 C 0.17599 0.58359 0.80283 0.0
C616 C 0.13565 0.57214 0.90977 0.0
C617 C 0.11853 0.58847 0.85294 0.0
N618 N 0.12213 0.63607 0.74573 0.0
N619 N 0.17717 0.54555 0.92986 0.0
C620 C 0.13421 0.61111 0.78331 0.0
C621 C 0.16377 0.56758 0.88293 0.0
N622 N 0.17709 0.6255 0.683 0.0
N623 N 0.12435 0.56049 0.98854 0.0
H624 H 0.19806 0.54182 0.91337 0.0
H625 H 0.16699 0.52986 0.98387 0.0
H626 H 0.10367 0.56394 0.00815 0.0
H627 H 0.13663 0.55056 0.03529 0.0
H628 H 0.16738 0.64083 0.64084 0.0
H629 H 0.19877 0.62419 0.66432 0.0
H630 H 0.13286 0.65426 0.69605 0.0
H631 H 0.10307 0.64089 0.77103 0.0
C632 C 0.01251 0.90335 0.11639 0.0
C633 C 0.02192 0.88017 0.07904 0.0
C634 C 0.02931 0.91863 0.94729 0.0
C635 C 0.02263 0.94315 0.98601 0.0
N636 N 0.01248 0.96049 0.11058 0.0
N637 N 0.04385 0.86687 0.96303 0.0
C638 C 0.01581 0.93609 0.07162 0.0
C639 C 0.03165 0.88814 0.9956 0.0
N640 N 0.99913 0.89362 0.19354 0.0
N641 N 0.03305 0.92417 0.86432 0.0
H642 H 0.0455 0.84404 0.99643 0.0
H643 H 0.05465 0.87293 0.9051 0.0
H644 H 0.03303 0.9466 0.82673 0.0
H645 H 0.03399 0.90575 0.83218 0.0
H646 H 0.98848 0.90814 0.22066 0.0
H647 H 0.99609 0.86968 0.22785 0.0
H648 H 0.01118 0.95764 0.17386 0.0
H649 H 0.01339 0.98452 0.08053 0.0
C650 C 0.68447 0.07775 0.84919 0.0
C651 C 0.69448 0.09866 0.90606 0.0
C652 C 0.65391 0.12631 0.86554 0.0
C653 C 0.63928 0.09947 0.82804 0.0
N654 N 0.6477 0.0588 0.75346 0.0
N655 N 0.68947 0.14423 0.96723 0.0
C656 C 0.65679 0.07835 0.80952 0.0
C657 C 0.6799 0.12395 0.91257 0.0
N658 N 0.70084 0.05643 0.83475 0.0
N659 N 0.64383 0.15435 0.8535 0.0
H660 H 0.70851 0.14349 1.00268 0.0
H661 H 0.67722 0.16029 0.98115 0.0
H662 H 0.62728 0.15806 0.81134 0.0
H663 H 0.65495 0.17557 0.87545 0.0
H664 H 0.69355 0.03997 0.79518 0.0
H665 H 0.72183 0.05583 0.86124 0.0
H666 H 0.62867 0.05955 0.71769 0.0
H667 H 0.62867 0.05955 0.71769 0.0
C668 C 0.45273 0.69601 0.2286 0.0
C669 C 0.47586 0.70327 0.28538 0.0
C670 C 0.49525 0.6568 0.26387 0.0
C671 C 0.47398 0.65146 0.20168 0.0
N672 N 0.43524 0.66829 0.11626 0.0
N673 N 0.5222 0.69454 0.34846 0.0
C674 C 0.45337 0.67165 0.18175 0.0
C675 C 0.49799 0.68474 0.30077 0.0
N676 N 0.42992 0.71207 0.22051 0.0
N677 N 0.51227 0.63468 0.28894 0.0
H678 H 0.52498 0.71491 0.37664 0.0
H679 H 0.54084 0.68419 0.355 0.0
H680 H 0.51101 0.61401 0.26281 0.0
H681 H 0.52564 0.63518 0.34001 0.0
H682 H 0.41052 0.70538 0.18679 0.0
H683 H 0.42918 0.73064 0.25255 0.0
H684 H 0.4223 0.68468 0.09299 0.0
H685 H 0.43486 0.65047 0.08096 0.0
C686 C 0.87786 0.45063 0.93386 0.0
C687 C 0.86047 0.47435 0.92197 0.0
C688 C 0.90449 0.51677 0.8508 0.0
C689 C 0.92244 0.49324 0.8623 0.0
N690 N 0.92194 0.43527 0.8869 0.0
N691 N 0.85303 0.52444 0.8405 0.0
C692 C 0.90765 0.45922 0.89442 0.0
C693 C 0.87231 0.50526 0.86885 0.0
N694 N 0.86691 0.42082 0.9861 0.0
N695 N 0.91794 0.55027 0.83253 0.0
H696 H 0.82928 0.51634 0.85454 0.0
H697 H 0.86015 0.54632 0.79673 0.0
H698 H 0.94156 0.56097 0.83077 0.0
H699 H 0.90542 0.5678 0.8305 0.0
H700 H 0.8803 0.4043 0.004 0.0
H701 H 0.84505 0.4135 0.01515 0.0
H702 H 0.91121 0.40991 0.90417 0.0
H703 H 0.9431 0.44078 0.85475 0.0
C704 C 0.06632 0.23898 0.23737 0.0
C705 C 0.07653 0.27154 0.18878 0.0
C706 C 0.08051 0.2477 0.06777 0.0
C707 C 0.06915 0.21526 0.11595 0.0
N708 N 0.04402 0.18024 0.24101 0.0
N709 N 0.0878 0.30718 0.05613 0.0
C710 C 0.05972 0.21103 0.199 0.0
C711 C 0.08183 0.27596 0.10326 0.0
N712 N 0.06462 0.23456 0.32067 0.0
N713 N 0.09121 0.25147 0.98923 0.0
H714 H 0.08892 0.32822 0.08067 0.0
H715 H 0.08903 0.31193 0.99261 0.0
H716 H 0.09021 0.23138 0.96107 0.0
H717 H 0.10292 0.27428 0.95369 0.0
H718 H 0.06095 0.21139 0.35926 0.0
H719 H 0.06945 0.25412 0.35207 0.0
H720 H 0.03369 0.17619 0.29901 0.0
H721 H 0.03872 0.15915 0.21487 0.0
C722 C 0.38342 0.14691 0.2209 0.0
C723 C 0.37917 0.12484 0.2978 0.0
C724 C 0.4238 0.10587 0.26521 0.0
C725 C 0.42962 0.12982 0.19192 0.0
N726 N 0.41813 0.17658 0.10386 0.0
N727 N 0.39702 0.08596 0.39855 0.0
C728 C 0.41018 0.15122 0.1704 0.0
C729 C 0.39976 0.10482 0.32144 0.0
N730 N 0.36171 0.1635 0.19616 0.0
N731 N 0.44131 0.08381 0.27768 0.0
H732 H 0.37906 0.08363 0.44029 0.0
H733 H 0.41361 0.07444 0.42361 0.0
H734 H 0.43793 0.06361 0.32633 0.0
H735 H 0.43793 0.06361 0.32633 0.0
H736 H 0.36176 0.17748 0.13775 0.0
H737 H 0.34215 0.16119 0.23238 0.0
H738 H 0.40662 0.19502 0.0889 0.0
H739 H 0.43796 0.18084 0.06694 0.0
C740 C 0.4672 0.38187 0.00871 0.0
C741 C 0.4911 0.3655 0.01124 0.0
C742 C 0.52612 0.4169 0.93478 0.0
C743 C 0.50145 0.43226 0.92595 0.0
N744 N 0.44681 0.42649 0.93824 0.0
N745 N 0.54101 0.36524 0.96024 0.0
C746 C 0.47143 0.41381 0.95782 0.0
C747 C 0.51983 0.38234 0.96884 0.0
N748 N 0.44115 0.36794 0.05834 0.0
N749 N 0.55589 0.43559 0.91595 0.0
H750 H 0.537 0.33982 0.98363 0.0
H751 H 0.5611 0.37552 0.92312 0.0
H752 H 0.56189 0.46122 0.89423 0.0
H753 H 0.57491 0.42621 0.92956 0.0
H754 H 0.4246 0.38048 0.0651 0.0
H755 H 0.43741 0.34521 0.09892 0.0
H756 H 0.424 0.41275 0.95318 0.0
H757 H 0.44897 0.44952 0.89986 0.0
C758 C 0.14405 0.48264 0.38305 0.0
C759 C 0.16891 0.46769 0.38751 0.0
C760 C 0.14928 0.44105 0.27277 0.0
C761 C 0.1264 0.45878 0.26314 0.0
N762 N 0.10456 0.5002 0.30107 0.0
N763 N 0.19751 0.43555 0.33239 0.0
C764 C 0.12439 0.48052 0.31629 0.0
C765 C 0.17212 0.44756 0.33131 0.0
N766 N 0.13869 0.49811 0.44389 0.0
N767 N 0.14874 0.41755 0.22694 0.0
H768 H 0.21455 0.43967 0.37473 0.0
H769 H 0.20301 0.42366 0.28794 0.0
H770 H 0.13208 0.41188 0.18438 0.0
H771 H 0.16321 0.40185 0.23512 0.0
H772 H 0.11876 0.50575 0.44945 0.0
H773 H 0.15287 0.50078 0.49313 0.0
H774 H 0.10457 0.51924 0.33203 0.0
H775 H 0.0897 0.49944 0.2529 0.0
C776 C 0.98117 0.84782 0.45321 0.0
C777 C 0.96357 0.8157 0.49315 0.0
C778 C 0.9428 0.84039 0.59387 0.0
C779 C 0.95955 0.87251 0.55201 0.0
N780 N 0.98991 0.90758 0.43399 0.0
N781 N 0.92443 0.78121 0.59334 0.0
C782 C 0.9773 0.87643 0.47925 0.0
C783 C 0.94331 0.81193 0.56101 0.0
N784 N 0.0024 0.85096 0.39192 0.0
N785 N 0.92727 0.83709 0.66632 0.0
H786 H 0.92488 0.75992 0.57162 0.0
H787 H 0.90692 0.77705 0.6376 0.0
H788 H 0.92579 0.85744 0.69081 0.0
H789 H 0.91737 0.81433 0.70463 0.0
H790 H 0.01899 0.87307 0.36869 0.0
H791 H 0.00488 0.83103 0.36722 0.0
H792 H 0.00012 0.912 0.37576 0.0
H793 H 0.98797 0.92921 0.45164 0.0
C794 C 0.66043 0.97367 0.42375 0.0
C795 C 0.68966 0.99144 0.4463 0.0
C796 C 0.66793 0.98981 0.58132 0.0
C797 C 0.63857 0.97268 0.55826 0.0
N798 N 0.60834 0.94043 0.46818 0.0
N799 N 0.72329 0.0079 0.55206 0.0
C800 C 0.63539 0.96184 0.48293 0.0
C801 C 0.69405 0.9965 0.5273 0.0
N802 N 0.65609 0.96995 0.34474 0.0
N803 N 0.67056 1.00147 0.65246 0.0
H804 H 0.74282 0.01287 0.51342 0.0
H805 H 0.72835 0.00933 0.61234 0.0
H806 H 0.65214 0.99658 0.69465 0.0
H807 H 0.69054 0.01779 0.66727 0.0
H808 H 0.63451 0.96077 0.32243 0.0
H809 H 0.6739 0.97794 0.29983 0.0
H810 H 0.60551 0.92899 0.41786 0.0
H811 H 0.58963 0.93164 0.51058 0.0
C812 C 0.56305 0.70429 0.73475 0.0
C813 C 0.54963 0.71126 0.65845 0.0
C814 C 0.54269 0.65343 0.6442 0.0
C815 C 0.55136 0.64518 0.72566 0.0
N816 N 0.56874 0.66242 0.85094 0.0
N817 N 0.51995 0.68994 0.54997 0.0
C818 C 0.56134 0.67059 0.77167 0.0
C819 C 0.53784 0.68522 0.61531 0.0
N820 N 0.57783 0.72992 0.77111 0.0
N821 N 0.53891 0.63099 0.59403 0.0
H822 H 0.51442 0.71226 0.52832 0.0
H823 H 0.50776 0.67056 0.52287 0.0
H824 H 0.54301 0.60776 0.6118 0.0
H825 H 0.53523 0.63697 0.53197 0.0
H826 H 0.59054 0.72688 0.82297 0.0
H827 H 0.57958 0.75474 0.74516 0.0
H828 H 0.57263 0.67895 0.89084 0.0
H829 H 0.56953 0.63843 0.87797 0.0
C830 C 0.86988 0.55855 0.34849 0.0
C831 C 0.84109 0.5408 0.38992 0.0
C832 C 0.86244 0.55174 0.5203 0.0
C833 C 0.89085 0.57035 0.47832 0.0
N834 N 0.91987 0.5976 0.35206 0.0
N835 N 0.80785 0.52557 0.51138 0.0
C836 C 0.89393 0.5758 0.39213 0.0
C837 C 0.83671 0.53899 0.4748 0.0
N838 N 0.8748 0.55744 0.26851 0.0
N839 N 0.86041 0.54538 0.60373 0.0
H840 H 0.7886 0.51593 0.47964 0.0
H841 H 0.80244 0.52638 0.57126 0.0
H842 H 0.87841 0.55543 0.63882 0.0
H843 H 0.84164 0.52872 0.63844 0.0
H844 H 0.89634 0.56659 0.23779 0.0
H845 H 0.85789 0.54499 0.23414 0.0
H846 H 0.92208 0.60541 0.2889 0.0
H847 H 0.93817 0.61023 0.3824 0.0
loop_
_geom_bond_atom_site_label_1
_geom_bond_atom_site_label_2
_geom_bond_distance
_geom_bond_site_symmetry_2
_ccdc_geom_bond_type
P0 O11 1.490 . S
P0 C14 1.812 . S
P0 C20 1.803 . S
P0 C26 1.819 1_554 S
H1 C15 0.941 . S
H2 C16 0.939 . S
H3 C18 0.940 . S
H4 C19 0.940 . S
H5 C21 0.939 . S
H6 C22 0.942 . S
H7 C24 0.944 . S
H8 C25 0.939 . S
H9 C27 0.941 1_554 S
H10 C31 0.939 . S
O11 P0 1.490 . S
H12 C28 0.939 . S
H13 C30 0.940 . S
C14 P0 1.812 . S
C14 C15 1.389 . S
C14 C19 1.391 . S
C15 H1 0.941 . S
C15 C14 1.389 . S
C15 C16 1.397 . S
C16 H2 0.939 . S
C16 C15 1.397 . S
C16 C17 1.378 . S
C17 C16 1.378 . S
C17 C18 1.378 . S
C18 H3 0.940 . S
C18 C17 1.378 . S
C18 C19 1.396 . S
C19 H4 0.940 . S
C19 C14 1.391 . S
C19 C18 1.396 . S
C20 P0 1.803 . S
C20 C21 1.378 1_554 S
C20 C25 1.400 . S
C21 H5 0.939 . S
C21 C20 1.378 1_556 S
C21 C22 1.361 . S
C22 H6 0.942 . S
C22 C21 1.361 . S
C22 C23 1.369 . S
C23 C22 1.369 . S
C23 C24 1.404 . S
C24 H7 0.944 . S
C24 C23 1.404 . S
C24 C25 1.389 1_556 S
C25 H8 0.939 . S
C25 C20 1.400 . S
C25 C24 1.389 1_554 S
C26 P0 1.819 1_556 S
C26 C27 1.391 . S
C26 C31 1.391 . S
C27 H9 0.941 1_556 S
C27 C26 1.391 . S
C27 C28 1.396 . S
C28 H12 0.939 . S
C28 C27 1.396 . S
C28 C29 1.397 . S
C29 C28 1.397 . S
C29 C30 1.385 . S
C30 H13 0.940 . S
C30 C29 1.385 . S
C30 C31 1.388 . S
C31 H10 0.939 . S
C31 C26 1.391 . S
C31 C30 1.388 . S
P32 O43 1.490 1_655 S
P32 C46 1.812 . S
P32 C52 1.803 . S
P32 C58 1.819 1_554 S
H33 C47 0.941 . S
H34 C48 0.939 . S
H35 C50 0.940 . S
H36 C51 0.940 . S
H37 C53 0.939 1_556 S
H38 C54 0.942 . S
H39 C56 0.940 . S
H40 C57 0.939 . S
H41 C59 0.941 1_554 S
H42 C63 0.939 . S
O43 P32 1.490 1_455 S
H44 C60 0.939 . S
H45 C62 0.940 . S
C46 P32 1.812 . S
C46 C47 1.389 . S
C46 C51 1.391 . S
C47 H33 0.941 . S
C47 C46 1.389 . S
C47 C48 1.397 . S
C48 H34 0.939 . S
C48 C47 1.397 . S
C48 C49 1.378 . S
C49 C48 1.378 . S
C49 C50 1.378 . S
C50 H35 0.940 . S
C50 C49 1.378 . S
C50 C51 1.396 . S
C51 H36 0.940 . S
C51 C46 1.391 . S
C51 C50 1.396 . S
C52 P32 1.803 . S
C52 C53 1.378 . S
C52 C57 1.400 . S
C53 H37 0.939 1_554 S
C53 C52 1.378 . S
C53 C54 1.361 1_554 S
C54 H38 0.942 . S
C54 C53 1.361 1_556 S
C54 C55 1.369 1_556 S
C55 C54 1.369 1_554 S
C55 C56 1.404 . S
C56 H39 0.940 . S
C56 C55 1.404 . S
C56 C57 1.389 . S
C57 H40 0.939 . S
C57 C52 1.400 . S
C57 C56 1.389 . S
C58 P32 1.819 1_556 S
C58 C59 1.391 . S
C58 C63 1.391 . S
C59 H41 0.941 1_556 S
C59 C58 1.391 . S
C59 C60 1.396 . S
C60 H44 0.939 . S
C60 C59 1.396 . S
C60 C61 1.397 . S
C61 C60 1.397 . S
C61 C62 1.385 . S
C62 H45 0.940 . S
C62 C61 1.385 . S
C62 C63 1.388 . S
C63 H42 0.939 . S
C63 C58 1.391 . S
C63 C62 1.388 . S
P64 O75 1.490 . S
P64 C78 1.812 1_556 S
P64 C84 1.803 . S
P64 C90 1.819 . S
H65 C79 0.941 . S
H66 C80 0.939 . S
H67 C82 0.940 . S
H68 C83 0.940 . S
H69 C85 0.939 . S
H70 C86 0.942 . S
H71 C88 0.940 1_554 S
H72 C89 0.939 . S
H73 C91 0.941 . S
H74 C95 0.939 . S
O75 P64 1.490 . S
H76 C92 0.939 . S
H77 C94 0.940 . S
C78 P64 1.812 1_554 S
C78 C79 1.389 . S
C78 C83 1.391 1_545 S
C79 H65 0.941 . S
C79 C78 1.389 . S
C79 C80 1.397 . S
C80 H66 0.939 . S
C80 C79 1.397 . S
C80 C81 1.378 1_545 S
C81 C80 1.378 1_565 S
C81 C82 1.378 . S
C82 H67 0.940 . S
C82 C81 1.378 . S
C82 C83 1.396 . S
C83 H68 0.940 . S
C83 C78 1.391 1_565 S
C83 C82 1.396 . S
C84 P64 1.803 . S
C84 C85 1.378 . S
C84 C89 1.400 1_546 S
C85 H69 0.939 . S
C85 C84 1.378 . S
C85 C86 1.361 . S
C86 H70 0.942 . S
C86 C85 1.361 . S
C86 C87 1.369 1_545 S
C87 C86 1.369 1_565 S
C87 C88 1.404 . S
C88 H71 0.940 1_556 S
C88 C87 1.404 . S
C88 C89 1.389 1_556 S
C89 H72 0.939 . S
C89 C84 1.400 1_564 S
C89 C88 1.389 1_554 S
C90 P64 1.819 . S
C90 C91 1.391 . S
C90 C95 1.391 1_545 S
C91 H73 0.941 . S
C91 C90 1.391 . S
C91 C92 1.396 . S
C92 H76 0.939 . S
C92 C91 1.396 . S
C92 C93 1.397 1_545 S
C93 C92 1.397 1_565 S
C93 C94 1.385 . S
C94 H77 0.940 . S
C94 C93 1.385 . S
C94 C95 1.388 . S
C95 H74 0.939 . S
C95 C90 1.391 1_565 S
C95 C94 1.388 . S
P96 O107 1.490 . S
P96 C110 1.812 . S
P96 C116 1.803 . S
P96 C122 1.819 . S
H97 C111 0.941 . S
H98 C112 0.939 . S
H99 C114 0.940 . S
H100 C115 0.940 . S
H101 C117 0.939 . S
H102 C118 0.942 . S
H103 C120 0.940 . S
H104 C121 0.939 . S
H105 C123 0.941 . S
H106 C127 0.939 . S
O107 P96 1.490 . S
H108 C124 0.939 . S
H109 C126 0.940 . S
C110 P96 1.812 . S
C110 C111 1.389 . S
C110 C115 1.391 . S
C111 H97 0.941 . S
C111 C110 1.389 . S
C111 C112 1.397 . S
C112 H98 0.939 . S
C112 C111 1.397 . S
C112 C113 1.378 . S
C113 C112 1.378 . S
C113 C114 1.378 . S
C114 H99 0.940 . S
C114 C113 1.378 . S
C114 C115 1.396 . S
C115 H100 0.940 . S
C115 C110 1.391 . S
C115 C114 1.396 . S
C116 P96 1.803 . S
C116 C117 1.378 . S
C116 C121 1.400 . S
C117 H101 0.939 . S
C117 C116 1.378 . S
C117 C118 1.361 . S
C118 H102 0.942 . S
C118 C117 1.361 . S
C118 C119 1.369 . S
C119 C118 1.369 . S
C119 C120 1.404 . S
C120 H103 0.940 . S
C120 C119 1.404 . S
C120 C121 1.389 . S
C121 H104 0.939 . S
C121 C116 1.400 . S
C121 C120 1.389 . S
C122 P96 1.819 . S
C122 C123 1.391 . S
C122 C127 1.391 . S
C123 H105 0.941 . S
C123 C122 1.391 . S
C123 C124 1.396 . S
C124 H108 0.939 . S
C124 C123 1.396 . S
C124 C125 1.397 . S
C125 C124 1.397 . S
C125 C126 1.385 . S
C126 H109 0.940 . S
C126 C125 1.385 . S
C126 C127 1.388 . S
C127 H106 0.939 . S
C127 C122 1.391 . S
C127 C126 1.388 . S
P128 O139 1.490 . S
P128 C142 1.812 . S
P128 C148 1.803 . S
P128 C154 1.819 . S
H129 C143 0.941 . S
H130 C144 0.939 . S
H131 C146 0.940 . S
H132 C147 0.940 . S
H133 C149 0.939 . S
H134 C150 0.942 . S
H135 C152 0.940 . S
H136 C153 0.939 . S
H137 C155 0.941 . S
H138 C159 0.939 . S
O139 P128 1.490 . S
H140 C156 0.939 . S
H141 C158 0.940 . S
C142 P128 1.812 . S
C142 C143 1.389 . S
C142 C147 1.391 . S
C143 H129 0.941 . S
C143 C142 1.389 . S
C143 C144 1.397 . S
C144 H130 0.939 . S
C144 C143 1.397 . S
C144 C145 1.378 . S
C145 C144 1.378 . S
C145 C146 1.378 . S
C146 H131 0.940 . S
C146 C145 1.378 . S
C146 C147 1.396 . S
C147 H132 0.940 . S
C147 C142 1.391 . S
C147 C146 1.396 . S
C148 P128 1.803 . S
C148 C149 1.378 . S
C148 C153 1.400 . S
C149 H133 0.939 . S
C149 C148 1.378 . S
C149 C150 1.361 . S
C150 H134 0.942 . S
C150 C149 1.361 . S
C150 C151 1.369 . S
C151 C150 1.369 . S
C151 C152 1.404 . S
C152 H135 0.940 . S
C152 C151 1.404 . S
C152 C153 1.389 . S
C153 H136 0.939 . S
C153 C148 1.400 . S
C153 C152 1.389 . S
C154 P128 1.819 . S
C154 C155 1.391 . S
C154 C159 1.391 . S
C155 H137 0.941 . S
C155 C154 1.391 . S
C155 C156 1.396 . S
C156 H140 0.939 . S
C156 C155 1.396 . S
C156 C157 1.397 . S
C157 C156 1.397 . S
C157 C158 1.385 . S
C158 H141 0.940 . S
C158 C157 1.385 . S
C158 C159 1.388 . S
C159 H138 0.939 . S
C159 C154 1.391 . S
C159 C158 1.388 . S
P160 O171 1.490 . S
P160 C174 1.812 . S
P160 C180 1.803 . S
P160 C186 1.819 . S
H161 C175 0.941 . S
H162 C176 0.939 . S
H163 C178 0.940 . S
H164 C179 0.940 . S
H165 C181 0.939 . S
H166 C182 0.942 . S
H167 C184 0.940 . S
H168 C185 0.939 . S
H169 C187 0.941 . S
H170 C191 0.939 . S
O171 P160 1.490 . S
H172 C188 0.939 . S
H173 C190 0.940 . S
C174 P160 1.812 . S
C174 C175 1.389 . S
C174 C179 1.391 . S
C175 H161 0.941 . S
C175 C174 1.389 . S
C175 C176 1.397 . S
C176 H162 0.939 . S
C176 C175 1.397 . S
C176 C177 1.378 . S
C177 C176 1.378 . S
C177 C178 1.378 . S
C178 H163 0.940 . S
C178 C177 1.378 . S
C178 C179 1.396 . S
C179 H164 0.940 . S
C179 C174 1.391 . S
C179 C178 1.396 . S
C180 P160 1.803 . S
C180 C181 1.378 . S
C180 C185 1.400 . S
C181 H165 0.939 . S
C181 C180 1.378 . S
C181 C182 1.361 . S
C182 H166 0.942 . S
C182 C181 1.361 . S
C182 C183 1.369 . S
C183 C182 1.369 . S
C183 C184 1.404 . S
C184 H167 0.940 . S
C184 C183 1.404 . S
C184 C185 1.389 . S
C185 H168 0.939 . S
C185 C180 1.400 . S
C185 C184 1.389 . S
C186 P160 1.819 . S
C186 C187 1.391 . S
C186 C191 1.391 . S
C187 H169 0.941 . S
C187 C186 1.391 . S
C187 C188 1.396 . S
C188 H172 0.939 . S
C188 C187 1.396 . S
C188 C189 1.397 . S
C189 C188 1.397 . S
C189 C190 1.385 . S
C190 H173 0.940 . S
C190 C189 1.385 . S
C190 C191 1.388 . S
C191 H170 0.939 . S
C191 C186 1.391 . S
C191 C190 1.388 . S
P192 O203 1.490 . S
P192 C206 1.812 . S
P192 C212 1.803 . S
P192 C218 1.819 . S
H193 C207 0.941 . S
H194 C208 0.939 . S
H195 C210 0.940 . S
H196 C211 0.940 . S
H197 C213 0.939 . S
H198 C214 0.942 . S
H199 C216 0.940 . S
H200 C217 0.939 . S
H201 C219 0.941 . S
H202 C223 0.939 . S
O203 P192 1.490 . S
H204 C220 0.939 . S
H205 C222 0.940 . S
C206 P192 1.812 . S
C206 C207 1.389 . S
C206 C211 1.391 . S
C207 H193 0.941 . S
C207 C206 1.389 . S
C207 C208 1.397 . S
C208 H194 0.939 . S
C208 C207 1.397 . S
C208 C209 1.378 . S
C209 C208 1.378 . S
C209 C210 1.378 . S
C210 H195 0.940 . S
C210 C209 1.378 . S
C210 C211 1.396 . S
C211 H196 0.940 . S
C211 C206 1.391 . S
C211 C210 1.396 . S
C212 P192 1.803 . S
C212 C213 1.378 . S
C212 C217 1.400 . S
C213 H197 0.939 . S
C213 C212 1.378 . S
C213 C214 1.361 . S
C214 H198 0.942 . S
C214 C213 1.361 . S
C214 C215 1.369 . S
C215 C214 1.369 . S
C215 C216 1.404 . S
C216 H199 0.940 . S
C216 C215 1.404 . S
C216 C217 1.389 . S
C217 H200 0.939 . S
C217 C212 1.400 . S
C217 C216 1.389 . S
C218 P192 1.819 . S
C218 C219 1.391 . S
C218 C223 1.391 . S
C219 H201 0.941 . S
C219 C218 1.391 . S
C219 C220 1.396 . S
C220 H204 0.939 . S
C220 C219 1.396 . S
C220 C221 1.397 . S
C221 C220 1.397 . S
C221 C222 1.385 . S
C222 H205 0.940 . S
C222 C221 1.385 . S
C222 C223 1.388 . S
C223 H202 0.939 . S
C223 C218 1.391 . S
C223 C222 1.388 . S
P224 O235 1.490 . S
P224 C238 1.812 . S
P224 C244 1.803 . S
P224 C250 1.819 . S
H225 C239 0.941 . S
H226 C240 0.939 . S
H227 C242 0.940 . S
H228 C243 0.940 . S
H229 C245 0.939 . S
H230 C246 0.942 . S
H231 C248 0.940 . S
H232 C249 0.939 . S
H233 C251 0.941 . S
H234 C255 0.939 . S
O235 P224 1.490 . S
H236 C252 0.939 . S
H237 C254 0.940 . S
C238 P224 1.812 . S
C238 C239 1.389 . S
C238 C243 1.391 . S
C239 H225 0.941 . S
C239 C238 1.389 . S
C239 C240 1.397 . S
C240 H226 0.939 . S
C240 C239 1.397 . S
C240 C241 1.378 . S
C241 C240 1.378 . S
C241 C242 1.378 . S
C242 H227 0.940 . S
C242 C241 1.378 . S
C242 C243 1.396 . S
C243 H228 0.940 . S
C243 C238 1.391 . S
C243 C242 1.396 . S
C244 P224 1.803 . S
C244 C245 1.378 . S
C244 C249 1.400 . S
C245 H229 0.939 . S
C245 C244 1.378 . S
C245 C246 1.361 . S
C246 H230 0.942 . S
C246 C245 1.361 . S
C246 C247 1.369 . S
C247 C246 1.369 . S
C247 C248 1.404 . S
C248 H231 0.940 . S
C248 C247 1.404 . S
C248 C249 1.389 . S
C249 H232 0.939 . S
C249 C244 1.400 . S
C249 C248 1.389 . S
C250 P224 1.819 . S
C250 C251 1.391 . S
C250 C255 1.391 . S
C251 H233 0.941 . S
C251 C250 1.391 . S
C251 C252 1.396 . S
C252 H236 0.939 . S
C252 C251 1.396 . S
C252 C253 1.397 . S
C253 C252 1.397 . S
C253 C254 1.385 . S
C254 H237 0.940 . S
C254 C253 1.385 . S
C254 C255 1.388 . S
C255 H234 0.939 . S
C255 C250 1.391 . S
C255 C254 1.388 . S
Nd256 C258 2.836 1_445 S
Nd256 O276 2.500 1_445 S
Nd256 O277 2.492 1_545 S
Nd256 O278 2.487 . S
Nd256 O279 2.682 . S
Nd256 O280 2.410 1_545 S
Nd256 O285 2.414 1_455 S
Nd256 O287 2.424 . S
Nd257 C267 2.836 1_556 S
Nd257 O279 2.414 . S
Nd257 O281 2.424 1_545 S
Nd257 O282 2.500 1_556 S
Nd257 O283 2.492 1_556 S
Nd257 O284 2.487 1_455 S
Nd257 O285 2.682 1_455 S
Nd257 O286 2.410 . S
C258 Nd256 2.836 1_665 S
C258 C259 1.498 . S
C258 O276 1.258 . S
C258 O277 1.239 1_655 S
C259 C258 1.498 . S
C259 C260 1.366 . S
C259 C264 1.407 1_655 S
C260 C259 1.366 . S
C260 C261 1.392 . S
C260 H288 0.930 . S
C261 C260 1.392 . S
C261 C262 1.398 . S
C261 H289 0.929 . S
C262 C261 1.398 . S
C262 C263 1.352 . S
C263 C262 1.352 . S
C263 C264 1.384 1_655 S
C263 H290 0.930 1_655 S
C264 C259 1.407 1_455 S
C264 C263 1.384 1_455 S
C264 H291 0.929 . S
C265 O278 1.241 . S
C265 O279 1.273 . S
C266 O280 1.251 . S
C266 O281 1.268 . S
C267 Nd257 2.836 1_554 S
C267 C268 1.498 . S
C267 O282 1.258 . S
C267 O283 1.239 . S
C268 C267 1.498 . S
C268 C269 1.366 . S
C268 C273 1.407 . S
C269 C268 1.366 . S
C269 C270 1.392 . S
C269 H292 0.930 . S
C270 C269 1.392 . S
C270 C271 1.398 . S
C270 H293 0.929 . S
C271 C270 1.398 . S
C271 C272 1.352 . S
C272 C271 1.352 . S
C272 C273 1.384 . S
C272 H294 0.930 . S
C273 C268 1.407 . S
C273 C272 1.384 . S
C273 H295 0.929 . S
C274 O284 1.241 . S
C274 O285 1.273 . S
C275 O286 1.251 . S
C275 O287 1.268 . S
O276 Nd256 2.500 1_665 S
O276 C258 1.258 . S
O277 Nd256 2.492 1_565 S
O277 C258 1.239 1_455 S
O278 Nd256 2.487 . S
O278 C265 1.241 . S
O279 Nd256 2.682 . S
O279 Nd257 2.414 . S
O279 C265 1.273 . S
O280 Nd256 2.410 1_565 S
O280 C266 1.251 . S
O281 Nd257 2.424 1_565 S
O281 C266 1.268 . S
O282 Nd257 2.500 1_554 S
O282 C267 1.258 . S
O283 Nd257 2.492 1_554 S
O283 C267 1.239 . S
O284 Nd257 2.487 1_655 S
O284 C274 1.241 . S
O285 Nd256 2.414 1_655 S
O285 Nd257 2.682 1_655 S
O285 C274 1.273 . S
O286 Nd257 2.410 . S
O286 C275 1.251 . S
O287 Nd256 2.424 . S
O287 C275 1.268 . S
H288 C260 0.930 . S
H289 C261 0.929 . S
H290 C263 0.930 1_455 S
H291 C264 0.929 . S
H292 C269 0.930 . S
H293 C270 0.929 . S
H294 C272 0.930 . S
H295 C273 0.929 . S
Nd296 C298 2.836 1_545 S
Nd296 O316 2.500 1_545 S
Nd296 O317 2.492 . S
Nd296 O318 2.487 . S
Nd296 O319 2.682 . S
Nd296 O320 2.410 . S
Nd296 O325 2.414 . S
Nd296 O327 2.424 . S
Nd297 C307 2.836 1_556 S
Nd297 O319 2.414 . S
Nd297 O321 2.424 . S
Nd297 O322 2.500 . S
Nd297 O323 2.492 1_556 S
Nd297 O324 2.487 1_546 S
Nd297 O325 2.682 . S
Nd297 O326 2.410 . S
C298 Nd296 2.836 1_565 S
C298 C299 1.498 . S
C298 O316 1.258 . S
C298 O317 1.239 1_565 S
C299 C298 1.498 . S
C299 C300 1.366 . S
C299 C304 1.407 . S
C300 C299 1.366 . S
C300 C301 1.392 . S
C300 H328 0.930 . S
C301 C300 1.392 . S
C301 C302 1.398 . S
C301 H329 0.929 . S
C302 C301 1.398 . S
C302 C303 1.352 . S
C303 C302 1.352 . S
C303 C304 1.384 . S
C303 H330 0.930 . S
C304 C299 1.407 . S
C304 C303 1.384 . S
C304 H331 0.929 1_565 S
C305 O318 1.241 . S
C305 O319 1.273 . S
C306 O320 1.251 . S
C306 O321 1.268 . S
C307 Nd297 2.836 1_554 S
C307 C308 1.498 . S
C307 O322 1.258 1_554 S
C307 O323 1.239 . S
C308 C307 1.498 . S
C308 C309 1.366 . S
C308 C313 1.407 . S
C309 C308 1.366 . S
C309 C310 1.392 . S
C309 H332 0.930 1_554 S
C310 C309 1.392 . S
C310 C311 1.398 . S
C310 H333 0.929 . S
C311 C310 1.398 . S
C311 C312 1.352 . S
C312 C311 1.352 . S
C312 C313 1.384 . S
C312 H334 0.930 . S
C313 C308 1.407 . S
C313 C312 1.384 . S
C313 H335 0.929 . S
C314 O324 1.241 1_556 S
C314 O325 1.273 1_565 S
C315 O326 1.251 . S
C315 O327 1.268 . S
O316 Nd296 2.500 1_565 S
O316 C298 1.258 . S
O317 Nd296 2.492 . S
O317 C298 1.239 1_545 S
O318 Nd296 2.487 . S
O318 C305 1.241 . S
O319 Nd296 2.682 . S
O319 Nd297 2.414 . S
O319 C305 1.273 . S
O320 Nd296 2.410 . S
O320 C306 1.251 . S
O321 Nd297 2.424 . S
O321 C306 1.268 . S
O322 Nd297 2.500 . S
O322 C307 1.258 1_556 S
O323 Nd297 2.492 1_554 S
O323 C307 1.239 . S
O324 Nd297 2.487 1_564 S
O324 C314 1.241 1_554 S
O325 Nd296 2.414 . S
O325 Nd297 2.682 . S
O325 C314 1.273 1_545 S
O326 Nd297 2.410 . S
O326 C315 1.251 . S
O327 Nd296 2.424 . S
O327 C315 1.268 . S
H328 C300 0.930 . S
H329 C301 0.929 . S
H330 C303 0.930 . S
H331 C304 0.929 1_545 S
H332 C309 0.930 1_556 S
H333 C310 0.929 . S
H334 C312 0.930 . S
H335 C313 0.929 . S
Nd336 C338 2.836 1_556 S
Nd336 O356 2.500 . S
Nd336 O357 2.492 1_556 S
Nd336 O358 2.487 . S
Nd336 O359 2.682 . S
Nd336 O360 2.410 . S
Nd336 O365 2.414 . S
Nd336 O367 2.424 . S
Nd337 C347 2.836 . S
Nd337 O359 2.414 . S
Nd337 O361 2.424 . S
Nd337 O362 2.500 . S
Nd337 O363 2.492 . S
Nd337 O364 2.487 . S
Nd337 O365 2.682 . S
Nd337 O366 2.410 . S
C338 Nd336 2.836 1_554 S
C338 C339 1.498 . S
C338 O356 1.258 1_554 S
C338 O357 1.239 . S
C339 C338 1.498 . S
C339 C340 1.367 . S
C339 C344 1.407 . S
C340 C339 1.367 . S
C340 C341 1.393 . S
C340 H368 0.929 1_554 S
C341 C340 1.393 . S
C341 C342 1.398 . S
C341 H369 0.929 . S
C342 C341 1.398 . S
C342 C343 1.352 . S
C343 C342 1.352 . S
C343 C344 1.384 . S
C343 H370 0.930 . S
C344 C339 1.407 . S
C344 C343 1.384 . S
C344 H371 0.929 . S
C345 O358 1.241 . S
C345 O359 1.273 . S
C346 O360 1.251 . S
C346 O361 1.268 . S
C347 Nd337 2.836 . S
C347 C348 1.498 . S
C347 O362 1.258 . S
C347 O363 1.239 . S
C348 C347 1.498 . S
C348 C349 1.366 . S
C348 C353 1.407 . S
C349 C348 1.366 . S
C349 C350 1.392 . S
C349 H372 0.930 . S
C350 C349 1.392 . S
C350 C351 1.398 . S
C350 H373 0.929 . S
C351 C350 1.398 . S
C351 C352 1.352 . S
C352 C351 1.352 . S
C352 C353 1.384 . S
C352 H374 0.930 . S
C353 C348 1.407 . S
C353 C352 1.384 . S
C353 H375 0.929 . S
C354 O364 1.241 . S
C354 O365 1.273 . S
C355 O366 1.251 . S
C355 O367 1.268 . S
O356 Nd336 2.500 . S
O356 C338 1.258 1_556 S
O357 Nd336 2.492 1_554 S
O357 C338 1.239 . S
O358 Nd336 2.487 . S
O358 C345 1.241 . S
O359 Nd336 2.682 . S
O359 Nd337 2.414 . S
O359 C345 1.273 . S
O360 Nd336 2.410 . S
O360 C346 1.251 . S
O361 Nd337 2.424 . S
O361 C346 1.268 . S
O362 Nd337 2.500 . S
O362 C347 1.258 . S
O363 Nd337 2.492 . S
O363 C347 1.239 . S
O364 Nd337 2.487 . S
O364 C354 1.241 . S
O365 Nd336 2.414 . S
O365 Nd337 2.682 . S
O365 C354 1.273 . S
O366 Nd337 2.410 . S
O366 C355 1.251 . S
O367 Nd336 2.424 . S
O367 C355 1.268 . S
H368 C340 0.929 1_556 S
H369 C341 0.929 . S
H370 C343 0.930 . S
H371 C344 0.929 . S
H372 C349 0.930 . S
H373 C350 0.929 . S
H374 C352 0.930 . S
H375 C353 0.929 . S
Nd376 C378 2.836 1_455 S
Nd376 O396 2.500 1_455 S
Nd376 O397 2.492 1_455 S
Nd376 O398 2.487 . S
Nd376 O399 2.682 . S
Nd376 O400 2.410 1_455 S
Nd376 O405 2.414 . S
Nd376 O407 2.424 . S
Nd377 C387 2.836 1_556 S
Nd377 O399 2.414 . S
Nd377 O401 2.424 1_455 S
Nd377 O402 2.500 1_556 S
Nd377 O403 2.492 1_556 S
Nd377 O404 2.487 . S
Nd377 O405 2.682 . S
Nd377 O406 2.410 . S
C378 Nd376 2.836 1_655 S
C378 C379 1.498 . S
C378 O396 1.258 . S
C378 O397 1.239 . S
C379 C378 1.498 . S
C379 C380 1.366 . S
C379 C384 1.407 . S
C380 C379 1.366 . S
C380 C381 1.392 . S
C380 H408 0.930 . S
C381 C380 1.392 . S
C381 C382 1.398 . S
C381 H409 0.929 . S
C382 C381 1.398 . S
C382 C383 1.352 . S
C383 C382 1.352 . S
C383 C384 1.384 . S
C383 H410 0.930 . S
C384 C379 1.407 . S
C384 C383 1.384 . S
C384 H411 0.929 . S
C385 O398 1.241 . S
C385 O399 1.273 . S
C386 O400 1.251 . S
C386 O401 1.268 . S
C387 Nd377 2.836 1_554 S
C387 C388 1.498 . S
C387 O402 1.258 . S
C387 O403 1.239 . S
C388 C387 1.498 . S
C388 C389 1.366 . S
C388 C393 1.407 . S
C389 C388 1.366 . S
C389 C390 1.392 . S
C389 H412 0.930 . S
C390 C389 1.392 . S
C390 C391 1.398 . S
C390 H413 0.929 . S
C391 C390 1.398 . S
C391 C392 1.352 . S
C392 C391 1.352 . S
C392 C393 1.384 . S
C392 H414 0.930 . S
C393 C388 1.407 . S
C393 C392 1.384 . S
C393 H415 0.929 . S
C394 O404 1.241 . S
C394 O405 1.273 . S
C395 O406 1.251 . S
C395 O407 1.268 . S
O396 Nd376 2.500 1_655 S
O396 C378 1.258 . S
O397 Nd376 2.492 1_655 S
O397 C378 1.239 . S
O398 Nd376 2.487 . S
O398 C385 1.241 . S
O399 Nd376 2.682 . S
O399 Nd377 2.414 . S
O399 C385 1.273 . S
O400 Nd376 2.410 1_655 S
O400 C386 1.251 . S
O401 Nd377 2.424 1_655 S
O401 C386 1.268 . S
O402 Nd377 2.500 1_554 S
O402 C387 1.258 . S
O403 Nd377 2.492 1_554 S
O403 C387 1.239 . S
O404 Nd377 2.487 . S
O404 C394 1.241 . S
O405 Nd376 2.414 . S
O405 Nd377 2.682 . S
O405 C394 1.273 . S
O406 Nd377 2.410 . S
O406 C395 1.251 . S
O407 Nd376 2.424 . S
O407 C395 1.268 . S
H408 C380 0.930 . S
H409 C381 0.929 . S
H410 C383 0.930 . S
H411 C384 0.929 . S
H412 C389 0.930 . S
H413 C390 0.929 . S
H414 C392 0.930 . S
H415 C393 0.929 . S
C416 C417 1.363 . S
C416 C422 1.379 . S
C416 N424 1.356 . S
C417 C416 1.363 . S
C417 C423 1.363 . S
C418 C419 1.363 . S
C418 C423 1.379 . S
C418 N425 1.356 . S
C419 C418 1.363 . S
C419 C422 1.363 . S
N420 C422 1.356 . S
N420 H432 0.984 . S
N420 H433 0.985 . S
N421 C423 1.356 . S
N421 H426 0.984 . S
N421 H427 0.985 . S
C422 C416 1.379 . S
C422 C419 1.363 . S
C422 N420 1.356 . S
C423 C417 1.363 . S
C423 C418 1.379 . S
C423 N421 1.356 . S
N424 C416 1.356 . S
N424 H430 0.984 . S
N424 H431 0.984 . S
N425 C418 1.356 . S
N425 H428 0.984 . S
N425 H429 0.996 . S
H426 N421 0.984 . S
H427 N421 0.985 . S
H428 N425 0.984 . S
H429 N425 0.996 . S
H430 N424 0.984 . S
H431 N424 0.984 . S
H432 N420 0.984 . S
H433 N420 0.985 . S
C434 C435 1.363 . S
C434 C440 1.379 . S
C434 N442 1.356 . S
C435 C434 1.363 . S
C435 C441 1.363 . S
C436 C437 1.363 . S
C436 C441 1.379 . S
C436 N443 1.356 . S
C437 C436 1.363 . S
C437 C440 1.363 . S
N438 C440 1.356 . S
N438 H450 0.984 . S
N438 H451 0.985 . S
N439 C441 1.356 . S
N439 H444 0.984 . S
N439 H445 0.985 . S
C440 C434 1.379 . S
C440 C437 1.363 . S
C440 N438 1.356 . S
C441 C435 1.363 . S
C441 C436 1.379 . S
C441 N439 1.356 . S
N442 C434 1.356 . S
N442 H448 0.984 . S
N442 H449 0.984 . S
N443 C436 1.356 . S
N443 H446 0.984 . S
N443 H447 0.985 . S
H444 N439 0.984 . S
H445 N439 0.985 . S
H446 N443 0.984 . S
H447 N443 0.985 . S
H448 N442 0.984 . S
H449 N442 0.984 . S
H450 N438 0.984 . S
H451 N438 0.985 . S
C452 C453 1.363 . S
C452 C458 1.379 . S
C452 N460 1.356 . S
C453 C452 1.363 . S
C453 C459 1.363 . S
C454 C455 1.363 . S
C454 C459 1.379 . S
C454 N461 1.356 . S
C455 C454 1.363 . S
C455 C458 1.363 . S
N456 C458 1.356 . S
N456 H468 0.984 . S
N456 H469 0.985 . S
N457 C459 1.356 . S
N457 H462 0.984 . S
N457 H463 0.985 . S
C458 C452 1.379 . S
C458 C455 1.363 . S
C458 N456 1.356 . S
C459 C453 1.363 . S
C459 C454 1.379 . S
C459 N457 1.356 . S
N460 C452 1.356 . S
N460 H466 0.984 . S
N460 H467 0.984 . S
N461 C454 1.356 . S
N461 H464 0.984 . S
N461 H465 0.985 . S
H462 N457 0.984 . S
H463 N457 0.985 . S
H464 N461 0.984 . S
H465 N461 0.985 . S
H466 N460 0.984 . S
H467 N460 0.984 . S
H468 N456 0.984 . S
H469 N456 0.985 . S
C470 C471 1.363 . S
C470 C476 1.379 . S
C470 N478 1.356 . S
C471 C470 1.363 . S
C471 C477 1.363 . S
C472 C473 1.363 . S
C472 C477 1.379 . S
C472 N479 1.356 . S
C473 C472 1.363 . S
C473 C476 1.363 . S
N474 C476 1.356 . S
N474 H486 0.984 . S
N474 H487 0.985 . S
N475 C477 1.356 . S
N475 H480 0.984 . S
N475 H481 0.985 . S
C476 C470 1.379 . S
C476 C473 1.363 . S
C476 N474 1.356 . S
C477 C471 1.363 . S
C477 C472 1.379 . S
C477 N475 1.356 . S
N478 C470 1.356 . S
N478 H484 0.984 . S
N478 H485 0.984 . S
N479 C472 1.356 . S
N479 H482 0.984 . S
N479 H483 0.985 . S
H480 N475 0.984 . S
H481 N475 0.985 . S
H482 N479 0.984 . S
H483 N479 0.985 . S
H484 N478 0.984 . S
H485 N478 0.984 . S
H486 N474 0.984 . S
H487 N474 0.985 . S
C488 C489 1.363 . S
C488 C494 1.379 . S
C488 N496 1.356 . S
C489 C488 1.363 . S
C489 C495 1.363 1_565 S
C490 C491 1.363 . S
C490 C495 1.379 . S
C490 N497 1.356 . S
C491 C490 1.363 . S
C491 C494 1.363 1_545 S
N492 C494 1.356 . S
N492 H504 0.984 . S
N492 H505 0.985 . S
N493 C495 1.356 . S
N493 H498 0.984 . S
N493 H499 0.985 . S
C494 C488 1.379 . S
C494 C491 1.363 1_565 S
C494 N492 1.356 . S
C495 C489 1.363 1_545 S
C495 C490 1.379 . S
C495 N493 1.356 . S
N496 C488 1.356 . S
N496 H502 0.985 . S
N496 H503 0.984 . S
N497 C490 1.356 . S
N497 H500 0.984 . S
N497 H501 0.985 . S
H498 N493 0.984 . S
H499 N493 0.985 . S
H500 N497 0.984 . S
H501 N497 0.985 . S
H502 N496 0.985 . S
H503 N496 0.984 . S
H504 N492 0.984 . S
H505 N492 0.985 . S
C506 C507 1.363 . S
C506 C512 1.379 . S
C506 N514 1.356 . S
C507 C506 1.363 . S
C507 C513 1.363 . S
C508 C509 1.363 . S
C508 C513 1.379 . S
C508 N515 1.356 1_565 S
C509 C508 1.363 . S
C509 C512 1.363 . S
N510 C512 1.356 . S
N510 H522 0.984 . S
N510 H523 0.985 1_554 S
N511 C513 1.356 . S
N511 H516 0.984 . S
N511 H517 0.985 1_565 S
C512 C506 1.379 . S
C512 C509 1.363 . S
C512 N510 1.356 . S
C513 C507 1.363 . S
C513 C508 1.379 . S
C513 N511 1.356 . S
N514 C506 1.356 . S
N514 H520 0.984 . S
N514 H521 0.984 . S
N515 C508 1.356 1_545 S
N515 H518 0.984 1_545 S
N515 H519 0.985 . S
H516 N511 0.984 . S
H517 N511 0.985 1_545 S
H518 N515 0.984 1_565 S
H519 N515 0.985 . S
H520 N514 0.984 . S
H521 N514 0.984 . S
H522 N510 0.984 . S
H523 N510 0.985 1_556 S
C524 C525 1.363 . S
C524 C530 1.379 . S
C524 N532 1.356 . S
C525 C524 1.363 . S
C525 C531 1.363 . S
C526 C527 1.363 . S
C526 C531 1.379 . S
C526 N533 1.356 . S
C527 C526 1.363 . S
C527 C530 1.363 . S
N528 C530 1.356 . S
N528 H540 0.984 . S
N528 H541 0.985 . S
N529 C531 1.356 1_554 S
N529 H534 0.984 . S
N529 H535 0.985 . S
C530 C524 1.379 . S
C530 C527 1.363 . S
C530 N528 1.356 . S
C531 C525 1.363 . S
C531 C526 1.379 . S
C531 N529 1.356 1_556 S
N532 C524 1.356 . S
N532 H538 0.984 . S
N532 H539 0.984 . S
N533 C526 1.356 . S
N533 H536 0.984 . S
N533 H537 0.985 1_556 S
H534 N529 0.984 . S
H535 N529 0.985 . S
H536 N533 0.984 . S
H537 N533 0.985 1_554 S
H538 N532 0.984 . S
H539 N532 0.984 . S
H540 N528 0.984 . S
H541 N528 0.985 . S
C542 C543 1.363 . S
C542 C548 1.379 . S
C542 N550 1.356 . S
C543 C542 1.363 . S
C543 C549 1.365 . S
C544 C545 1.363 . S
C544 C549 1.382 . S
C544 N551 1.356 1_655 S
C545 C544 1.363 . S
C545 C548 1.363 . S
N546 C548 1.356 . S
N546 H558 0.984 . S
N546 H559 0.985 . S
N547 C549 1.352 1_554 S
N547 H552 0.984 . S
N547 H553 0.985 . S
C548 C542 1.379 . S
C548 C545 1.363 . S
C548 N546 1.356 . S
C549 C543 1.365 . S
C549 C544 1.382 . S
C549 N547 1.352 1_556 S
N550 C542 1.356 . S
N550 H556 0.984 . S
N550 H557 0.984 . S
N551 C544 1.356 1_455 S
N551 H554 0.984 . S
N551 H555 0.985 1_556 S
H552 N547 0.984 . S
H553 N547 0.985 . S
H554 N551 0.984 . S
H555 N551 0.985 1_554 S
H556 N550 0.984 . S
H557 N550 0.984 . S
H558 N546 0.984 . S
H559 N546 0.985 . S
C560 C561 1.363 . S
C560 C566 1.379 . S
C560 N568 1.356 . S
C561 C560 1.363 . S
C561 C567 1.363 . S
C562 C563 1.363 . S
C562 C567 1.379 . S
C562 N569 1.356 . S
C563 C562 1.363 . S
C563 C566 1.363 . S
N564 C566 1.356 . S
N564 H576 0.984 . S
N564 H577 0.985 . S
N565 C567 1.356 . S
N565 H570 0.984 . S
N565 H571 0.985 . S
C566 C560 1.379 . S
C566 C563 1.363 . S
C566 N564 1.356 . S
C567 C561 1.363 . S
C567 C562 1.379 . S
C567 N565 1.356 . S
N568 C560 1.356 . S
N568 H574 0.984 . S
N568 H575 0.984 . S
N569 C562 1.356 . S
N569 H572 0.984 . S
N569 H573 0.985 . S
H570 N565 0.984 . S
H571 N565 0.985 . S
H572 N569 0.984 . S
H573 N569 0.985 . S
H574 N568 0.984 . S
H575 N568 0.984 . S
H576 N564 0.984 . S
H577 N564 0.985 . S
C578 C579 1.363 . S
C578 C584 1.379 . S
C578 N586 1.356 . S
C579 C578 1.363 . S
C579 C585 1.363 . S
C580 C581 1.363 . S
C580 C585 1.379 . S
C580 N587 1.356 . S
C581 C580 1.363 . S
C581 C584 1.363 . S
N582 C584 1.356 . S
N582 H594 0.984 . S
N582 H595 0.985 . S
N583 C585 1.356 . S
N583 H588 0.984 . S
N583 H589 0.985 . S
C584 C578 1.379 . S
C584 C581 1.363 . S
C584 N582 1.356 . S
C585 C579 1.363 . S
C585 C580 1.379 . S
C585 N583 1.356 . S
N586 C578 1.356 . S
N586 H592 0.984 1_556 S
N586 H593 0.984 . S
N587 C580 1.356 . S
N587 H590 0.984 . S
N587 H591 0.985 . S
H588 N583 0.984 . S
H589 N583 0.985 . S
H590 N587 0.984 . S
H591 N587 0.985 . S
H592 N586 0.984 1_554 S
H593 N586 0.984 . S
H594 N582 0.984 . S
H595 N582 0.985 . S
C596 C597 1.363 . S
C596 C602 1.379 . S
C596 N604 1.356 . S
C597 C596 1.363 . S
C597 C603 1.363 . S
C598 C599 1.363 . S
C598 C603 1.379 . S
C598 N605 1.356 . S
C599 C598 1.363 . S
C599 C602 1.363 . S
N600 C602 1.356 . S
N600 H612 0.984 . S
N600 H613 0.985 . S
N601 C603 1.356 . S
N601 H606 0.984 . S
N601 H607 0.985 . S
C602 C596 1.379 . S
C602 C599 1.363 . S
C602 N600 1.356 . S
C603 C597 1.363 . S
C603 C598 1.379 . S
C603 N601 1.356 . S
N604 C596 1.356 . S
N604 H610 0.984 . S
N604 H611 0.984 . S
N605 C598 1.356 . S
N605 H608 0.984 . S
N605 H609 0.985 . S
H606 N601 0.984 . S
H607 N601 0.985 . S
H608 N605 0.984 . S
H609 N605 0.985 . S
H610 N604 0.984 . S
H611 N604 0.984 . S
H612 N600 0.984 . S
H613 N600 0.985 . S
C614 C615 1.363 . S
C614 C620 1.379 . S
C614 N622 1.356 . S
C615 C614 1.363 . S
C615 C621 1.363 . S
C616 C617 1.363 . S
C616 C621 1.379 . S
C616 N623 1.356 . S
C617 C616 1.363 . S
C617 C620 1.363 . S
N618 C620 1.356 . S
N618 H630 0.984 . S
N618 H631 0.985 . S
N619 C621 1.356 . S
N619 H624 0.984 . S
N619 H625 0.985 . S
C620 C614 1.379 . S
C620 C617 1.363 . S
C620 N618 1.356 . S
C621 C615 1.363 . S
C621 C616 1.379 . S
C621 N619 1.356 . S
N622 C614 1.356 . S
N622 H628 0.984 . S
N622 H629 0.984 . S
N623 C616 1.356 . S
N623 H626 0.984 . S
N623 H627 0.985 . S
H624 N619 0.984 . S
H625 N619 0.985 . S
H626 N623 0.984 . S
H627 N623 0.985 . S
H628 N622 0.984 . S
H629 N622 0.984 . S
H630 N618 0.984 . S
H631 N618 0.985 . S
C632 C633 1.363 . S
C632 C638 1.379 . S
C632 N640 1.356 . S
C633 C632 1.363 . S
C633 C639 1.363 . S
C634 C635 1.363 . S
C634 C639 1.379 . S
C634 N641 1.356 1_655 S
C635 C634 1.363 . S
C635 C638 1.363 . S
N636 C638 1.356 1_554 S
N636 H648 0.984 . S
N636 H649 0.985 . S
N637 C639 1.356 . S
N637 H642 0.984 . S
N637 H643 0.985 . S
C638 C632 1.379 . S
C638 C635 1.363 . S
C638 N636 1.356 1_556 S
C639 C633 1.363 . S
C639 C634 1.379 . S
C639 N637 1.356 . S
N640 C632 1.356 . S
N640 H646 0.984 1_556 S
N640 H647 0.984 . S
N641 C634 1.356 1_455 S
N641 H644 0.984 . S
N641 H645 0.985 . S
H642 N637 0.984 . S
H643 N637 0.985 . S
H644 N641 0.984 . S
H645 N641 0.985 . S
H646 N640 0.984 1_554 S
H647 N640 0.984 . S
H648 N636 0.984 . S
H649 N636 0.985 . S
C650 C651 1.363 . S
C650 C656 1.379 1_565 S
C650 N658 1.356 . S
C651 C650 1.363 . S
C651 C657 1.363 1_565 S
C652 C653 1.363 . S
C652 C657 1.379 . S
C652 N659 1.356 . S
C653 C652 1.363 . S
C653 C656 1.363 . S
N654 C656 1.356 . S
N654 H666 0.984 . S
N654 H667 0.985 . S
N655 C657 1.356 . S
N655 H660 0.984 1_545 S
N655 H661 0.985 . S
C656 C650 1.379 1_545 S
C656 C653 1.363 . S
C656 N654 1.356 . S
C657 C651 1.363 1_545 S
C657 C652 1.379 . S
C657 N655 1.356 . S
N658 C650 1.356 . S
N658 H664 0.984 . S
N658 H665 0.984 . S
N659 C652 1.356 . S
N659 H662 0.984 . S
N659 H663 0.985 . S
H660 N655 0.984 1_565 S
H661 N655 0.985 . S
H662 N659 0.984 . S
H663 N659 0.985 . S
H664 N658 0.984 . S
H665 N658 0.984 . S
H666 N654 0.984 . S
H667 N654 0.985 . S
C668 C669 1.363 . S
C668 C674 1.379 . S
C668 N676 1.356 . S
C669 C668 1.363 . S
C669 C675 1.363 . S
C670 C671 1.363 . S
C670 C675 1.379 . S
C670 N677 1.356 . S
C671 C670 1.363 . S
C671 C674 1.363 . S
N672 C674 1.356 1_556 S
N672 H684 0.984 . S
N672 H685 0.985 . S
N673 C675 1.356 . S
N673 H678 0.984 . S
N673 H679 0.985 . S
C674 C668 1.379 . S
C674 C671 1.363 . S
C674 N672 1.356 1_554 S
C675 C669 1.363 . S
C675 C670 1.379 . S
C675 N673 1.356 . S
N676 C668 1.356 . S
N676 H682 0.984 . S
N676 H683 0.984 . S
N677 C670 1.356 . S
N677 H680 0.984 . S
N677 H681 0.985 . S
H678 N673 0.984 . S
H679 N673 0.985 . S
H680 N677 0.984 . S
H681 N677 0.985 . S
H682 N676 0.984 . S
H683 N676 0.984 . S
H684 N672 0.984 . S
H685 N672 0.985 . S
C686 C687 1.363 . S
C686 C692 1.379 . S
C686 N694 1.356 . S
C687 C686 1.363 . S
C687 C693 1.363 . S
C688 C689 1.363 . S
C688 C693 1.379 . S
C688 N695 1.356 . S
C689 C688 1.363 . S
C689 C692 1.363 . S
N690 C692 1.356 . S
N690 H702 0.984 1_556 S
N690 H703 0.985 . S
N691 C693 1.356 . S
N691 H696 0.984 . S
N691 H697 0.985 . S
C692 C686 1.379 . S
C692 C689 1.363 . S
C692 N690 1.356 . S
C693 C687 1.363 . S
C693 C688 1.379 . S
C693 N691 1.356 . S
N694 C686 1.356 . S
N694 H700 0.984 1_556 S
N694 H701 0.984 . S
N695 C688 1.356 . S
N695 H698 0.984 . S
N695 H699 0.985 . S
H696 N691 0.984 . S
H697 N691 0.985 . S
H698 N695 0.984 . S
H699 N695 0.985 . S
H700 N694 0.984 1_554 S
H701 N694 0.984 . S
H702 N690 0.984 1_554 S
H703 N690 0.985 . S
C704 C705 1.363 . S
C704 C710 1.379 . S
C704 N712 1.356 . S
C705 C704 1.363 . S
C705 C711 1.363 . S
C706 C707 1.363 . S
C706 C711 1.379 . S
C706 N713 1.356 . S
C707 C706 1.363 . S
C707 C710 1.363 . S
N708 C710 1.356 . S
N708 H720 0.984 . S
N708 H721 0.985 . S
N709 C711 1.356 . S
N709 H714 0.984 . S
N709 H715 0.985 . S
C710 C704 1.379 . S
C710 C707 1.363 . S
C710 N708 1.356 . S
C711 C705 1.363 . S
C711 C706 1.379 . S
C711 N709 1.356 . S
N712 C704 1.356 . S
N712 H718 0.984 . S
N712 H719 0.984 . S
N713 C706 1.356 . S
N713 H716 0.984 . S
N713 H717 0.985 . S
H714 N709 0.984 . S
H715 N709 0.985 . S
H716 N713 0.984 . S
H717 N713 0.985 . S
H718 N712 0.984 . S
H719 N712 0.984 . S
H720 N708 0.984 . S
H721 N708 0.985 . S
C722 C723 1.363 . S
C722 C728 1.379 . S
C722 N730 1.356 . S
C723 C722 1.363 . S
C723 C729 1.363 . S
C724 C725 1.363 . S
C724 C729 1.379 . S
C724 N731 1.356 . S
C725 C724 1.363 . S
C725 C728 1.363 . S
N726 C728 1.356 . S
N726 H738 0.984 . S
N726 H739 0.985 . S
N727 C729 1.356 . S
N727 H732 0.984 . S
N727 H733 0.985 . S
C728 C722 1.379 . S
C728 C725 1.363 . S
C728 N726 1.356 . S
C729 C723 1.363 . S
C729 C724 1.379 . S
C729 N727 1.356 . S
N730 C722 1.356 . S
N730 H736 0.984 . S
N730 H737 0.984 . S
N731 C724 1.356 . S
N731 H734 0.984 . S
N731 H735 0.985 . S
H732 N727 0.984 . S
H733 N727 0.985 . S
H734 N731 0.984 . S
H735 N731 0.985 . S
H736 N730 0.984 . S
H737 N730 0.984 . S
H738 N726 0.984 . S
H739 N726 0.985 . S
C740 C741 1.363 . S
C740 C746 1.379 . S
C740 N748 1.356 . S
C741 C740 1.363 . S
C741 C747 1.363 1_554 S
C742 C743 1.363 . S
C742 C747 1.379 . S
C742 N749 1.356 . S
C743 C742 1.363 . S
C743 C746 1.363 1_556 S
N744 C746 1.356 . S
N744 H756 0.984 . S
N744 H757 0.985 . S
N745 C747 1.356 . S
N745 H750 0.984 . S
N745 H751 0.985 . S
C746 C740 1.379 . S
C746 C743 1.363 1_554 S
C746 N744 1.356 . S
C747 C741 1.363 1_556 S
C747 C742 1.379 . S
C747 N745 1.356 . S
N748 C740 1.356 . S
N748 H754 0.984 . S
N748 H755 0.984 . S
N749 C742 1.356 . S
N749 H752 0.984 . S
N749 H753 0.985 . S
H750 N745 0.984 . S
H751 N745 0.985 . S
H752 N749 0.984 . S
H753 N749 0.985 . S
H754 N748 0.984 . S
H755 N748 0.984 . S
H756 N744 0.984 . S
H757 N744 0.985 . S
C758 C759 1.363 . S
C758 C764 1.379 . S
C758 N766 1.356 . S
C759 C758 1.363 . S
C759 C765 1.363 . S
C760 C761 1.363 . S
C760 C765 1.379 . S
C760 N767 1.356 . S
C761 C760 1.363 . S
C761 C764 1.363 . S
N762 C764 1.356 . S
N762 H774 0.984 . S
N762 H775 0.985 . S
N763 C765 1.356 . S
N763 H768 0.984 . S
N763 H769 0.985 . S
C764 C758 1.379 . S
C764 C761 1.363 . S
C764 N762 1.356 . S
C765 C759 1.363 . S
C765 C760 1.379 . S
C765 N763 1.356 . S
N766 C758 1.356 . S
N766 H772 0.984 . S
N766 H773 0.984 . S
N767 C760 1.356 . S
N767 H770 0.984 . S
N767 H771 0.985 . S
H768 N763 0.984 . S
H769 N763 0.985 . S
H770 N767 0.984 . S
H771 N767 0.985 . S
H772 N766 0.984 . S
H773 N766 0.984 . S
H774 N762 0.984 . S
H775 N762 0.985 . S
C776 C777 1.363 . S
C776 C782 1.379 . S
C776 N784 1.356 . S
C777 C776 1.363 . S
C777 C783 1.363 . S
C778 C779 1.363 . S
C778 C783 1.379 . S
C778 N785 1.356 . S
C779 C778 1.363 . S
C779 C782 1.363 . S
N780 C782 1.356 . S
N780 H792 0.984 . S
N780 H793 0.985 . S
N781 C783 1.356 . S
N781 H786 0.984 . S
N781 H787 0.985 . S
C782 C776 1.379 . S
C782 C779 1.363 . S
C782 N780 1.356 . S
C783 C777 1.363 . S
C783 C778 1.379 . S
C783 N781 1.356 . S
N784 C776 1.356 . S
N784 H790 0.984 . S
N784 H791 0.984 . S
N785 C778 1.356 . S
N785 H788 0.984 . S
N785 H789 0.985 . S
H786 N781 0.984 . S
H787 N781 0.985 . S
H788 N785 0.984 . S
H789 N785 0.985 . S
H790 N784 0.984 . S
H791 N784 0.984 . S
H792 N780 0.984 . S
H793 N780 0.985 . S
C794 C795 1.363 . S
C794 C800 1.379 . S
C794 N802 1.356 . S
C795 C794 1.363 . S
C795 C801 1.363 . S
C796 C797 1.363 . S
C796 C801 1.379 . S
C796 N803 1.356 1_565 S
C797 C796 1.363 . S
C797 C800 1.363 . S
N798 C800 1.356 . S
N798 H810 0.984 . S
N798 H811 0.985 . S
N799 C801 1.356 1_545 S
N799 H804 0.984 . S
N799 H805 0.985 . S
C800 C794 1.379 . S
C800 C797 1.363 . S
C800 N798 1.356 . S
C801 C795 1.363 . S
C801 C796 1.379 . S
C801 N799 1.356 1_565 S
N802 C794 1.356 . S
N802 H808 0.984 . S
N802 H809 0.984 . S
N803 C796 1.356 1_545 S
N803 H806 0.984 1_545 S
N803 H807 0.985 . S
H804 N799 0.984 . S
H805 N799 0.985 . S
H806 N803 0.984 1_565 S
H807 N803 0.985 . S
H808 N802 0.984 . S
H809 N802 0.984 . S
H810 N798 0.984 . S
H811 N798 0.985 . S
C812 C813 1.363 . S
C812 C818 1.379 . S
C812 N820 1.356 . S
C813 C812 1.363 . S
C813 C819 1.363 . S
C814 C815 1.363 . S
C814 C819 1.379 . S
C814 N821 1.356 . S
C815 C814 1.363 . S
C815 C818 1.363 . S
N816 C818 1.356 . S
N816 H828 0.984 . S
N816 H829 0.985 . S
N817 C819 1.356 . S
N817 H822 0.984 . S
N817 H823 0.985 . S
C818 C812 1.379 . S
C818 C815 1.363 . S
C818 N816 1.356 . S
C819 C813 1.363 . S
C819 C814 1.379 . S
C819 N817 1.356 . S
N820 C812 1.356 . S
N820 H826 0.984 . S
N820 H827 0.984 . S
N821 C814 1.356 . S
N821 H824 0.984 . S
N821 H825 0.985 . S
H822 N817 0.984 . S
H823 N817 0.985 . S
H824 N821 0.984 . S
H825 N821 0.985 . S
H826 N820 0.984 . S
H827 N820 0.984 . S
H828 N816 0.984 . S
H829 N816 0.985 . S
C830 C831 1.363 . S
C830 C836 1.379 . S
C830 N838 1.356 . S
C831 C830 1.363 . S
C831 C837 1.363 . S
C832 C833 1.363 . S
C832 C837 1.379 . S
C832 N839 1.356 . S
C833 C832 1.363 . S
C833 C836 1.363 . S
N834 C836 1.356 . S
N834 H846 0.984 . S
N834 H847 0.985 . S
N835 C837 1.356 . S
N835 H840 0.984 . S
N835 H841 0.985 . S
C836 C830 1.379 . S
C836 C833 1.363 . S
C836 N834 1.356 . S
C837 C831 1.363 . S
C837 C832 1.379 . S
C837 N835 1.356 . S
N838 C830 1.356 . S
N838 H844 0.984 . S
N838 H845 0.984 . S
N839 C832 1.356 . S
N839 H842 0.984 . S
N839 H843 0.985 . S
H840 N835 0.984 . S
H841 N835 0.985 . S
H842 N839 0.984 . S
H843 N839 0.985 . S
H844 N838 0.984 . S
H845 N838 0.984 . S
H846 N834 0.984 . S
H847 N834 0.985 . S
C417 C215 1.500 . S
C419 C265 1.447 . S
C437 C305 1.948 . S
C435 C247 2.145 . S
C455 C354 1.416 . S
C453 C151 1.300 . S
C473 C385 1.919 . S
C471 C183 2.053 . S
C491 C274 1.447 . S
C489 C87 1.357 . S
C507 C119 1.912 . S
C509 C314 1.949 1_554 S
C525 C23 1.449 . S
C527 C345 1.415 . S
C543 C55 1.818 1_556 S
C545 C394 1.918 1_655 S
C563 C275 1.599 . S
C561 C189 1.446 . S
C581 C315 1.691 . S
C579 C221 1.586 . S
C599 C351 0.845 . S
C597 C253 0.857 . S
C615 C157 1.354 . S
C617 C395 1.638 . S
C633 C61 1.154 . S
C635 C266 1.599 1_655 S
C653 C306 1.691 . S
C651 C93 1.335 . S
C671 C342 0.845 . S
C669 C125 0.819 . S
C687 C29 1.468 . S
C689 C386 1.638 . S
C705 C177 1.894 . S
C707 C271 1.948 . S
C723 C209 1.663 . S
C725 C311 1.680 . S
C743 C355 2.733 . S
C741 C241 2.478 . S
C761 C391 1.633 . S
C759 C145 1.519 . S
C777 C49 1.799 . S
C779 C262 1.948 . S
C797 C302 1.680 . S
C795 C81 1.706 . S
C815 C346 2.733 . S
C813 C113 2.352 . S
C831 C17 1.672 . S
C833 C382 1.633 . S
