# Generated by pormake.
# Topology nom, (4,4)-cn, num edge types: 1
# Building blocks:
#     Node 0, Type 0, BuildingBlock: AZAVOO_clean_linker_0, # of connection points: 4
#     Node 1, Type 0, BuildingBlock: AZAVOO_clean_linker_0, # of connection points: 4
#     Node 2, Type 0, BuildingBlock: AZAVOO_clean_linker_0, # of connection points: 4
#     Node 3, Type 0, BuildingBlock: AZAVOO_clean_linker_0, # of connection points: 4
#     Node 4, Type 0, BuildingBlock: AZAVOO_clean_linker_0, # of connection points: 4
#     Node 5, Type 0, BuildingBlock: AZAVOO_clean_linker_0, # of connection points: 4
#     Node 6, Type 1, BuildingBlock: TATPOV_clean_sbu_0, # of connection points: 4
#     Node 7, Type 1, BuildingBlock: TATPOV_clean_sbu_0, # of connection points: 4
#     Node 8, Type 1, BuildingBlock: TATPOV_clean_sbu_0, # of connection points: 4
#     Node 9, Type 1, BuildingBlock: TATPOV_clean_sbu_0, # of connection points: 4
#     Node 10, Type 1, BuildingBlock: TATPOV_clean_sbu_0, # of connection points: 4
#     Node 11, Type 1, BuildingBlock: TATPOV_clean_sbu_0, # of connection points: 4
#     Edge 12, Type (0, 1), BuildingBlock: AJUNOK_clean_linker_0, # of connection points: 2
#     Edge 13, Type (0, 1), BuildingBlock: AJUNOK_clean_linker_0, # of connection points: 2
#     Edge 14, Type (0, 1), BuildingBlock: AJUNOK_clean_linker_0, # of connection points: 2
#     Edge 15, Type (0, 1), BuildingBlock: AJUNOK_clean_linker_0, # of connection points: 2
#     Edge 16, Type (0, 1), BuildingBlock: AJUNOK_clean_linker_0, # of connection points: 2
#     Edge 17, Type (0, 1), BuildingBlock: AJUNOK_clean_linker_0, # of connection points: 2
#     Edge 18, Type (0, 1), BuildingBlock: AJUNOK_clean_linker_0, # of connection points: 2
#     Edge 19, Type (0, 1), BuildingBlock: AJUNOK_clean_linker_0, # of connection points: 2
#     Edge 20, Type (0, 1), BuildingBlock: AJUNOK_clean_linker_0, # of connection points: 2
#     Edge 21, Type (0, 1), BuildingBlock: AJUNOK_clean_linker_0, # of connection points: 2
#     Edge 22, Type (0, 1), BuildingBlock: AJUNOK_clean_linker_0, # of connection points: 2
#     Edge 23, Type (0, 1), BuildingBlock: AJUNOK_clean_linker_0, # of connection points: 2
#     Edge 24, Type (0, 1), BuildingBlock: AJUNOK_clean_linker_0, # of connection points: 2
#     Edge 25, Type (0, 1), BuildingBlock: AJUNOK_clean_linker_0, # of connection points: 2
#     Edge 26, Type (0, 1), BuildingBlock: AJUNOK_clean_linker_0, # of connection points: 2
#     Edge 27, Type (0, 1), BuildingBlock: AJUNOK_clean_linker_0, # of connection points: 2
#     Edge 28, Type (0, 1), BuildingBlock: AJUNOK_clean_linker_0, # of connection points: 2
#     Edge 29, Type (0, 1), BuildingBlock: AJUNOK_clean_linker_0, # of connection points: 2
#     Edge 30, Type (0, 1), BuildingBlock: AJUNOK_clean_linker_0, # of connection points: 2
#     Edge 31, Type (0, 1), BuildingBlock: AJUNOK_clean_linker_0, # of connection points: 2
#     Edge 32, Type (0, 1), BuildingBlock: AJUNOK_clean_linker_0, # of connection points: 2
#     Edge 33, Type (0, 1), BuildingBlock: AJUNOK_clean_linker_0, # of connection points: 2
#     Edge 34, Type (0, 1), BuildingBlock: AJUNOK_clean_linker_0, # of connection points: 2
#     Edge 35, Type (0, 1), BuildingBlock: AJUNOK_clean_linker_0, # of connection points: 2
# Relax obj value: 0.172
# Max RMSD: 0.229
# Mean RMSD: 0.171
data_MOF--net-nom--node1-TATPOV_clean_sbu_0--node2-AZAVOO_clean_linker_0--edge1-AJUNOK_clean_linker_0
_symmetry_space_group_name_H-M    P1
_symmetry_Int_Tables_number       1
_symmetry_cell_setting            triclinic
loop_
_symmetry_equiv_pos_as_xyz
'x, y, z'
_cell_length_a     37.045031
_cell_length_b     38.812095
_cell_length_c     45.89312
_cell_angle_alpha  90.762247
_cell_angle_beta   90.249658
_cell_angle_gamma 121.06584
loop_
_atom_site_label
_atom_site_type_symbol
_atom_site_fract_x
_atom_site_fract_y
_atom_site_fract_z
_atom_type_partial_charge
H0 H 0.11241 0.38957 0.12742 0.0
H1 H 0.30803 0.66128 0.38825 0.0
H2 H 0.99853 0.36671 0.26752 0.0
H3 H 0.94708 0.33434 0.22751 0.0
H4 H 0.93125 0.43688 0.22475 0.0
H5 H 0.98317 0.46943 0.26405 0.0
H6 H 0.10379 0.40997 0.25324 0.0
H7 H 0.11243 0.39458 0.2028 0.0
H8 H 0.05651 0.46186 0.17253 0.0
H9 H 0.04833 0.47727 0.22298 0.0
H10 H 0.19026 0.49126 0.29239 0.0
H11 H 0.25633 0.55194 0.27884 0.0
H12 H 0.18555 0.59148 0.22913 0.0
H13 H 0.12035 0.53367 0.24486 0.0
H14 H 0.15282 0.47401 0.35599 0.0
H15 H 0.21717 0.51998 0.38364 0.0
H16 H 0.2228 0.62103 0.34051 0.0
H17 H 0.15822 0.57478 0.31331 0.0
H18 H 0.06748 0.44251 0.38033 0.0
H19 H 0.09291 0.47418 0.42869 0.0
H20 H 0.11002 0.58536 0.39603 0.0
H21 H 0.08554 0.55402 0.34795 0.0
H22 H 0.95792 0.3964 0.33348 0.0
H23 H 0.89573 0.39979 0.34816 0.0
H24 H 0.96541 0.52784 0.3337 0.0
H25 H 0.02529 0.5237 0.31735 0.0
O26 O 0.10755 0.39501 0.1472 0.0
O27 O 0.0847 0.43509 0.13295 0.0
O28 O 0.27907 0.5894 0.39846 0.0
O29 O 0.28274 0.64242 0.37747 0.0
C30 C 0.03422 0.44454 0.28609 0.0
C31 C 0.07324 0.45628 0.27253 0.0
C32 C 0.11155 0.48289 0.28719 0.0
C33 C 0.11103 0.49318 0.31674 0.0
C34 C 0.07234 0.48127 0.3304 0.0
C35 C 0.03404 0.45944 0.31444 0.0
C36 C 0.99461 0.42043 0.26883 0.0
C37 C 0.98273 0.38149 0.25903 0.0
C38 C 0.95359 0.36314 0.23612 0.0
C39 C 0.93562 0.38335 0.22295 0.0
C40 C 0.94441 0.42054 0.23472 0.0
C41 C 0.9739 0.43908 0.25735 0.0
C42 C 0.07487 0.44422 0.24185 0.0
C43 C 0.09296 0.42095 0.23569 0.0
C44 C 0.09796 0.41229 0.20685 0.0
C45 C 0.08532 0.42714 0.18363 0.0
C46 C 0.06667 0.45004 0.1899 0.0
C47 C 0.06151 0.4585 0.21873 0.0
C48 C 0.1503 0.50825 0.27009 0.0
C49 C 0.18915 0.5123 0.27769 0.0
C50 C 0.22688 0.54682 0.26979 0.0
C51 C 0.22579 0.57664 0.25344 0.0
C52 C 0.18711 0.56915 0.24212 0.0
C53 C 0.1497 0.53566 0.25077 0.0
C54 C 0.15109 0.52108 0.33258 0.0
C55 C 0.16814 0.50607 0.3525 0.0
C56 C 0.20483 0.53239 0.36826 0.0
C57 C 0.22512 0.5742 0.36429 0.0
C58 C 0.20797 0.58905 0.34414 0.0
C59 C 0.1712 0.56272 0.3285 0.0
C60 C 0.07366 0.49562 0.36075 0.0
C61 C 0.07502 0.47317 0.38398 0.0
C62 C 0.09022 0.49144 0.41137 0.0
C63 C 0.10391 0.5323 0.41584 0.0
C64 C 0.09946 0.55377 0.39315 0.0
C65 C 0.08476 0.53568 0.36578 0.0
C66 C 0.99643 0.45997 0.32486 0.0
C67 C 0.9595 0.42506 0.33352 0.0
C68 C 0.92418 0.42707 0.34193 0.0
C69 C 0.92546 0.46399 0.34161 0.0
C70 C 0.9629 0.49877 0.33347 0.0
C71 C 0.99758 0.49663 0.32473 0.0
C72 C 0.09237 0.41937 0.15304 0.0
C73 C 0.26391 0.60231 0.38115 0.0
H74 H 0.63136 0.09823 0.31266 0.0
H75 H 0.56261 0.27906 0.59009 0.0
H76 H 0.58073 0.01242 0.45766 0.0
H77 H 0.57051 0.96229 0.42031 0.0
H78 H 0.43705 0.91849 0.41849 0.0
H79 H 0.44748 0.96837 0.45591 0.0
H80 H 0.61977 0.10409 0.43954 0.0
H81 H 0.63736 0.10831 0.38786 0.0
H82 H 0.50455 0.04187 0.36544 0.0
H83 H 0.48745 0.03843 0.41714 0.0
H84 H 0.62745 0.17103 0.487 0.0
H85 H 0.65193 0.23662 0.46489 0.0
H86 H 0.53461 0.18637 0.41673 0.0
H87 H 0.5099 0.12109 0.43934 0.0
H88 H 0.60554 0.13819 0.54987 0.0
H89 H 0.62127 0.19644 0.58059 0.0
H90 H 0.51899 0.20122 0.53898 0.0
H91 H 0.50311 0.14245 0.50878 0.0
H92 H 0.56614 0.05073 0.56595 0.0
H93 H 0.56923 0.0696 0.61755 0.0
H94 H 0.46709 0.09076 0.60278 0.0
H95 H 0.46399 0.07162 0.55153 0.0
H96 H 0.52223 0.96154 0.51283 0.0
H97 H 0.47005 0.8935 0.52809 0.0
H98 H 0.3826 0.93301 0.54668 0.0
H99 H 0.43288 0.99921 0.52849 0.0
O100 O 0.62371 0.09652 0.33296 0.0
O101 O 0.55504 0.06183 0.32264 0.0
O102 O 0.60887 0.25182 0.59922 0.0
O103 O 0.55725 0.25616 0.57808 0.0
C104 C 0.52256 0.02947 0.47712 0.0
C105 C 0.54186 0.06744 0.46353 0.0
C106 C 0.55061 0.10217 0.47964 0.0
C107 C 0.54225 0.09934 0.50973 0.0
C108 C 0.52217 0.06135 0.52324 0.0
C109 C 0.5105 0.02597 0.50672 0.0
C110 C 0.5148 0.99387 0.45954 0.0
C111 C 0.54912 0.99112 0.44981 0.0
C112 C 0.54332 0.9627 0.42842 0.0
C113 C 0.50301 0.93636 0.41662 0.0
C114 C 0.46835 0.93776 0.42763 0.0
C115 C 0.4742 0.96626 0.44897 0.0
C116 C 0.55237 0.07076 0.43207 0.0
C117 C 0.59456 0.09066 0.42341 0.0
C118 C 0.60449 0.09292 0.39388 0.0
C119 C 0.57236 0.0753 0.37251 0.0
C120 C 0.53007 0.05566 0.38132 0.0
C121 C 0.5202 0.05356 0.41083 0.0
C122 C 0.56689 0.14127 0.46479 0.0
C123 C 0.60709 0.17416 0.47163 0.0
C124 C 0.62098 0.21151 0.45905 0.0
C125 C 0.59516 0.21639 0.43906 0.0
C126 C 0.55528 0.18323 0.4318 0.0
C127 C 0.5412 0.14603 0.44467 0.0
C128 C 0.55318 0.13612 0.52716 0.0
C129 C 0.58661 0.15191 0.54742 0.0
C130 C 0.59553 0.18518 0.56492 0.0
C131 C 0.57134 0.20348 0.56226 0.0
C132 C 0.53822 0.18786 0.5416 0.0
C133 C 0.52917 0.15441 0.52424 0.0
C134 C 0.51481 0.05976 0.55507 0.0
C135 C 0.5432 0.05767 0.5742 0.0
C136 C 0.54523 0.06884 0.60352 0.0
C137 C 0.51849 0.08173 0.61409 0.0
C138 C 0.48762 0.08034 0.59538 0.0
C139 C 0.48575 0.06937 0.5661 0.0
C140 C 0.4816 0.98568 0.51942 0.0
C141 C 0.49177 0.95546 0.52016 0.0
C142 C 0.46205 0.91664 0.52937 0.0
C143 C 0.42199 0.9076 0.53886 0.0
C144 C 0.41281 0.93854 0.53922 0.0
C145 C 0.44191 0.97677 0.52924 0.0
C146 C 0.583 0.0774 0.34119 0.0
C147 C 0.58043 0.23859 0.581 0.0
H148 H 0.54606 0.5564 0.82879 0.0
H149 H 0.64726 0.41581 0.53577 0.0
H150 H 0.57951 0.64615 0.67745 0.0
H151 H 0.55465 0.66243 0.72155 0.0
H152 H 0.42916 0.56191 0.70379 0.0
H153 H 0.45488 0.5449 0.66016 0.0
H154 H 0.6024 0.59844 0.70864 0.0
H155 H 0.59077 0.5902 0.76122 0.0
H156 H 0.47053 0.48144 0.74487 0.0
H157 H 0.48222 0.49059 0.69233 0.0
H158 H 0.63287 0.54272 0.6848 0.0
H159 H 0.63962 0.49129 0.71107 0.0
H160 H 0.51934 0.39923 0.67528 0.0
H161 H 0.51269 0.4505 0.64961 0.0
H162 H 0.65874 0.56545 0.61673 0.0
H163 H 0.69407 0.53516 0.5915 0.0
H164 H 0.57265 0.43352 0.56574 0.0
H165 H 0.53784 0.46434 0.59091 0.0
H166 H 0.63621 0.62283 0.58725 0.0
H167 H 0.67589 0.61971 0.54636 0.0
H168 H 0.56351 0.51406 0.51282 0.0
H169 H 0.52461 0.51613 0.55499 0.0
H170 H 0.55193 0.65263 0.61942 0.0
H171 H 0.5014 0.6702 0.6006 0.0
H172 H 0.42757 0.55168 0.56149 0.0
H173 H 0.47712 0.53384 0.58103 0.0
O174 O 0.55035 0.5588 0.80795 0.0
O175 O 0.4912 0.50065 0.7985 0.0
O176 O 0.69575 0.48067 0.56063 0.0
O177 O 0.63413 0.42813 0.54634 0.0
C178 C 0.53768 0.57426 0.64931 0.0
C179 C 0.54996 0.55068 0.66495 0.0
C180 C 0.56673 0.53034 0.65012 0.0
C181 C 0.5747 0.53614 0.62021 0.0
C182 C 0.5629 0.56003 0.60446 0.0
C183 C 0.54189 0.57719 0.61865 0.0
C184 C 0.51908 0.59406 0.66596 0.0
C185 C 0.54615 0.62907 0.68216 0.0
C186 C 0.53182 0.63839 0.7074 0.0
C187 C 0.49011 0.61298 0.71637 0.0
C188 C 0.4616 0.58167 0.6975 0.0
C189 C 0.47611 0.57209 0.67245 0.0
C190 C 0.54301 0.54527 0.69681 0.0
C191 C 0.57354 0.57295 0.71651 0.0
C192 C 0.56683 0.56812 0.7465 0.0
C193 C 0.52971 0.53515 0.75725 0.0
C194 C 0.49947 0.50712 0.73732 0.0
C195 C 0.50601 0.51227 0.70734 0.0
C196 C 0.57234 0.50009 0.66537 0.0
C197 C 0.6082 0.51138 0.68265 0.0
C198 C 0.61206 0.48212 0.69746 0.0
C199 C 0.57998 0.44141 0.69512 0.0
C200 C 0.54433 0.43044 0.67761 0.0
C201 C 0.54057 0.45954 0.66286 0.0
C202 C 0.59585 0.51715 0.60542 0.0
C203 C 0.63991 0.53661 0.60566 0.0
C204 C 0.65995 0.51924 0.59125 0.0
C205 C 0.63616 0.4819 0.57658 0.0
C206 C 0.59191 0.46227 0.5768 0.0
C207 C 0.57194 0.47977 0.59113 0.0
C208 C 0.57749 0.56978 0.57412 0.0
C209 C 0.61948 0.60045 0.57018 0.0
C210 C 0.6423 0.5984 0.5468 0.0
C211 C 0.62302 0.56623 0.52654 0.0
C212 C 0.57938 0.53879 0.52839 0.0
C213 C 0.55676 0.54048 0.5521 0.0
C214 C 0.5184 0.59191 0.60161 0.0
C215 C 0.52539 0.63076 0.60625 0.0
C216 C 0.49649 0.64072 0.59558 0.0
C217 C 0.46063 0.61227 0.5796 0.0
C218 C 0.45523 0.57436 0.57337 0.0
C219 C 0.48374 0.56424 0.58438 0.0
C220 C 0.52249 0.5303 0.7891 0.0
C221 C 0.65729 0.46363 0.5608 0.0
H222 H 0.02901 0.4073 0.00431 0.0
H223 H 0.28933 0.53223 0.72453 0.0
H224 H 0.9601 0.44584 0.84363 0.0
H225 H 0.91107 0.42459 0.88422 0.0
H226 H 0.90607 0.31115 0.88573 0.0
H227 H 0.95344 0.33165 0.84392 0.0
H228 H 0.04137 0.46542 0.88569 0.0
H229 H 0.03829 0.45214 0.9379 0.0
H230 H 0.02651 0.3374 0.91841 0.0
H231 H 0.02944 0.35105 0.86626 0.0
H232 H 0.13598 0.51252 0.84662 0.0
H233 H 0.20116 0.53234 0.87309 0.0
H234 H 0.16808 0.40796 0.87462 0.0
H235 H 0.10443 0.38895 0.84578 0.0
H236 H 0.12694 0.53155 0.78761 0.0
H237 H 0.1952 0.5683 0.76361 0.0
H238 H 0.19665 0.45793 0.75492 0.0
H239 H 0.12799 0.42142 0.77849 0.0
H240 H 0.03853 0.50874 0.77146 0.0
H241 H 0.07064 0.55398 0.73069 0.0
H242 H 0.09611 0.46822 0.68936 0.0
H243 H 0.06451 0.42331 0.73073 0.0
H244 H 0.96111 0.46042 0.78783 0.0
H245 H 0.88813 0.43036 0.77001 0.0
H246 H 0.88476 0.31985 0.74952 0.0
H247 H 0.95734 0.34983 0.76765 0.0
O248 O 0.0308 0.4122 0.98359 0.0
O249 O 0.02688 0.3544 0.9725 0.0
O250 O 0.25946 0.57413 0.73835 0.0
O251 O 0.26231 0.51844 0.73406 0.0
C252 C 0.00091 0.40873 0.82501 0.0
C253 C 0.03775 0.41773 0.84069 0.0
C254 C 0.07716 0.43813 0.8271 0.0
C255 C 0.08028 0.45119 0.79821 0.0
C256 C 0.04361 0.44332 0.78263 0.0
C257 C 0.00374 0.42101 0.7958 0.0
C258 C 0.96045 0.39035 0.84087 0.0
C259 C 0.94634 0.41541 0.8514 0.0
C260 C 0.91854 0.40335 0.8747 0.0
C261 C 0.90513 0.36638 0.888 0.0
C262 C 0.91583 0.33965 0.87559 0.0
C263 C 0.94279 0.35132 0.85175 0.0
C264 C 0.0357 0.40922 0.87231 0.0
C265 C 0.03818 0.43748 0.89279 0.0
C266 C 0.03649 0.42983 0.92257 0.0
C267 C 0.03236 0.39378 0.93234 0.0
C268 C 0.02989 0.36553 0.91164 0.0
C269 C 0.03154 0.37322 0.88187 0.0
C270 C 0.11574 0.4494 0.84423 0.0
C271 C 0.14289 0.48961 0.85267 0.0
C272 C 0.17965 0.5007 0.86837 0.0
C273 C 0.18929 0.47154 0.87667 0.0
C274 C 0.16139 0.43105 0.86868 0.0
C275 C 0.12506 0.42013 0.85233 0.0
C276 C 0.12236 0.47378 0.78446 0.0
C277 C 0.14195 0.51535 0.78033 0.0
C278 C 0.18099 0.53627 0.76671 0.0
C279 C 0.20134 0.51601 0.75725 0.0
C280 C 0.18182 0.47442 0.76185 0.0
C281 C 0.14266 0.4535 0.77535 0.0
C282 C 0.04867 0.46247 0.75396 0.0
C283 C 0.04913 0.4988 0.75297 0.0
C284 C 0.06789 0.52483 0.72972 0.0
C285 C 0.08611 0.51477 0.70683 0.0
C286 C 0.08268 0.47694 0.70681 0.0
C287 C 0.06398 0.45094 0.73015 0.0
C288 C 0.96441 0.40728 0.77893 0.0
C289 C 0.94502 0.43019 0.77865 0.0
C290 C 0.90341 0.41298 0.76856 0.0
C291 C 0.88077 0.37263 0.75887 0.0
C292 C 0.90138 0.35081 0.75731 0.0
C293 C 0.94285 0.36798 0.76737 0.0
C294 C 0.02992 0.38549 0.96398 0.0
C295 C 0.24276 0.53808 0.74268 0.0
H296 H 0.4109 0.00353 0.79278 0.0
H297 H 0.39814 0.72952 0.02846 0.0
H298 H 0.44137 0.04903 0.94549 0.0
H299 H 0.468 0.10782 0.91499 0.0
H300 H 0.59556 0.13623 0.93164 0.0
H301 H 0.56816 0.0755 0.96082 0.0
H302 H 0.39438 0.96022 0.91571 0.0
H303 H 0.38839 0.9722 0.86416 0.0
H304 H 0.52394 0.03283 0.85681 0.0
H305 H 0.5294 0.02005 0.9082 0.0
H306 H 0.37312 0.87541 0.95132 0.0
H307 H 0.35984 0.81244 0.92811 0.0
H308 H 0.48557 0.87481 0.89341 0.0
H309 H 0.4995 0.93679 0.91775 0.0
H310 H 0.38475 0.8943 0.02103 0.0
H311 H 0.35716 0.82601 0.03872 0.0
H312 H 0.4591 0.82202 0.9965 0.0
H313 H 0.48658 0.89038 0.97921 0.0
H314 H 0.43963 0.99071 0.05254 0.0
H315 H 0.4367 0.97196 0.10354 0.0
H316 H 0.5101 0.91736 0.08307 0.0
H317 H 0.51595 0.93932 0.03276 0.0
H318 H 0.47842 0.07275 0.01307 0.0
H319 H 0.53067 0.13694 0.03619 0.0
H320 H 0.61532 0.09241 0.0469 0.0
H321 H 0.56412 0.02944 0.02248 0.0
O322 O 0.41393 0.99866 0.81302 0.0
O323 O 0.48376 0.02983 0.8105 0.0
O324 O 0.3575 0.76064 0.04417 0.0
O325 O 0.40856 0.75667 0.02202 0.0
C326 C 0.48557 0.01693 0.96687 0.0
C327 C 0.46583 0.98351 0.94736 0.0
C328 C 0.45076 0.94443 0.95767 0.0
C329 C 0.45381 0.93846 0.98773 0.0
C330 C 0.47376 0.97188 0.00723 0.0
C331 C 0.49053 0.01124 0.99667 0.0
C332 C 0.50277 0.05788 0.95517 0.0
C333 C 0.47513 0.06861 0.94326 0.0
C334 C 0.49053 0.10254 0.92605 0.0
C335 C 0.53402 0.12693 0.92101 0.0
C336 C 0.56192 0.11792 0.93505 0.0
C337 C 0.54638 0.0835 0.95191 0.0
C338 C 0.46231 0.98956 0.91575 0.0
C339 C 0.42269 0.97586 0.90287 0.0
C340 C 0.4194 0.98287 0.87345 0.0
C341 C 0.45571 0.00365 0.85639 0.0
C342 C 0.49535 0.01686 0.86933 0.0
C343 C 0.49857 0.0097 0.8987 0.0
C344 C 0.43754 0.91045 0.93668 0.0
C345 C 0.39727 0.87571 0.93791 0.0
C346 C 0.38964 0.83991 0.92456 0.0
C347 C 0.42205 0.83895 0.90956 0.0
C348 C 0.46036 0.87492 0.90522 0.0
C349 C 0.46822 0.91036 0.91894 0.0
C350 C 0.43744 0.89714 -0.00133 0.0
C351 C 0.40107 0.87861 0.01568 0.0
C352 C 0.38538 0.83962 0.02571 0.0
C353 C 0.40582 0.81848 0.01887 0.0
C354 C 0.44247 0.83734 0.00201 0.0
C355 C 0.4582 0.87635 0.99207 0.0
C356 C 0.47698 0.96538 0.03876 0.0
C357 C 0.45584 0.97549 0.05924 0.0
C358 C 0.45373 0.96426 0.08825 0.0
C359 C 0.47184 0.94185 0.09709 0.0
C360 C 0.4955 0.93427 0.07694 0.0
C361 C 0.49847 0.94639 0.04811 0.0
C362 C 0.51763 0.04658 0.01586 0.0
C363 C 0.50794 0.07665 0.02093 0.0
C364 C 0.53762 0.1131 0.03437 0.0
C365 C 0.57706 0.11961 0.04326 0.0
C366 C 0.58528 0.08826 0.04005 0.0
C367 C 0.55594 0.05218 0.02632 0.0
C368 C 0.45216 0.01156 0.82526 0.0
C369 C 0.38906 0.7769 0.02918 0.0
H370 H 0.61112 0.51682 0.9548 0.0
H371 H 0.74155 0.49137 0.2684 0.0
H372 H 0.53064 0.56995 0.10667 0.0
H373 H 0.50821 0.59026 0.0634 0.0
H374 H 0.63502 0.69037 0.05297 0.0
H375 H 0.65709 0.67066 0.09718 0.0
H376 H 0.57049 0.51816 0.07768 0.0
H377 H 0.57572 0.50749 0.02555 0.0
H378 H 0.69677 0.61822 0.02407 0.0
H379 H 0.69094 0.62858 0.07619 0.0
H380 H 0.6123 0.47821 0.12424 0.0
H381 H 0.6501 0.44606 0.10635 0.0
H382 H 0.75858 0.56313 0.08903 0.0
H383 H 0.72165 0.59493 0.10926 0.0
H384 H 0.59324 0.48051 0.17902 0.0
H385 H 0.6168 0.44804 0.21325 0.0
H386 H 0.73802 0.55822 0.22095 0.0
H387 H 0.7141 0.59015 0.18646 0.0
H388 H 0.55092 0.51884 0.20138 0.0
H389 H 0.55312 0.49883 0.25152 0.0
H390 H 0.6724 0.60915 0.26554 0.0
H391 H 0.67025 0.62847 0.21561 0.0
H392 H 0.52556 0.58564 0.15827 0.0
H393 H 0.50219 0.62825 0.18139 0.0
H394 H 0.63039 0.71371 0.20779 0.0
H395 H 0.65391 0.67199 0.18357 0.0
O396 O 0.60913 0.52223 0.97519 0.0
O397 O 0.6732 0.57703 0.9764 0.0
O398 O 0.66998 0.44644 0.24806 0.0
O399 O 0.73187 0.5031 0.25416 0.0
C400 C 0.61074 0.59964 0.12499 0.0
C401 C 0.62849 0.57818 0.11266 0.0
C402 C 0.64264 0.55846 0.13079 0.0
C403 C 0.6368 0.55803 0.16103 0.0
C404 C 0.61773 0.57827 0.17331 0.0
C405 C 0.60607 0.60039 0.1555 0.0
C406 C 0.59532 0.61909 0.1052 0.0
C407 C 0.55305 0.59755 0.09607 0.0
C408 C 0.54039 0.60902 0.07125 0.0
C409 C 0.57005 0.64166 0.05492 0.0
C410 C 0.6117 0.66512 0.06532 0.0
C411 C 0.6242 0.65404 0.09054 0.0
C412 C 0.63028 0.57414 0.08059 0.0
C413 C 0.59786 0.54028 0.06594 0.0
C414 C 0.60102 0.5342 0.03622 0.0
C415 C 0.63686 0.5618 0.02071 0.0
C416 C 0.66889 0.59623 0.03541 0.0
C417 C 0.66557 0.60235 0.06512 0.0
C418 C 0.66435 0.53882 0.1181 0.0
C419 C 0.64426 0.49681 0.11664 0.0
C420 C 0.66568 0.47853 0.10595 0.0
C421 C 0.70716 0.50205 0.09582 0.0
C422 C 0.72674 0.5442 0.09677 0.0
C423 C 0.70564 0.56241 0.10808 0.0
C424 C 0.65206 0.53756 0.18024 0.0
C425 C 0.62502 0.49738 0.18788 0.0
C426 C 0.63853 0.47898 0.20749 0.0
C427 C 0.67929 0.50059 0.21991 0.0
C428 C 0.70644 0.54074 0.21184 0.0
C429 C 0.69295 0.55902 0.19209 0.0
C430 C 0.6103 0.57524 0.20502 0.0
C431 C 0.57628 0.53965 0.21586 0.0
C432 C 0.57779 0.52803 0.2443 0.0
C433 C 0.61294 0.55239 0.26228 0.0
C434 C 0.64458 0.59011 0.25232 0.0
C435 C 0.6433 0.60142 0.22383 0.0
C436 C 0.59147 0.62591 0.16903 0.0
C437 C 0.54866 0.61384 0.16862 0.0
C438 C 0.53536 0.63799 0.18192 0.0
C439 C 0.56458 0.67402 0.19637 0.0
C440 C 0.60734 0.68591 0.19691 0.0
C441 C 0.62072 0.66217 0.18313 0.0
C442 C 0.64098 0.55429 0.98945 0.0
C443 C 0.6933 0.48159 0.24148 0.0
Zn444 Zn 0.75857 0.53972 0.39324 0.0
Zn445 Zn 0.702 0.46306 0.39863 0.0
O446 O 0.75741 0.46509 0.38786 0.0
O447 O 0.80368 0.52893 0.38039 0.0
O448 O 0.6651 0.4048 0.40948 0.0
O449 O 0.75232 0.55532 0.43392 0.0
O450 O 0.69837 0.4933 0.43471 0.0
C451 C 0.79413 0.49259 0.38042 0.0
C452 C 0.6842 0.50887 0.35513 0.0
O453 O 0.6734 0.47407 0.36448 0.0
O454 O 0.71797 0.53971 0.36408 0.0
C455 C 0.65926 0.37624 0.39241 0.0
O456 O 0.67493 0.38481 0.36608 0.0
C457 C 0.71911 0.52861 0.44599 0.0
Zn458 Zn 0.20179 0.67978 0.56839 0.0
Zn459 Zn 0.2552 0.65332 0.57039 0.0
O460 O 0.29291 0.71544 0.56754 0.0
O461 O 0.24908 0.73763 0.56557 0.0
O462 O 0.2996 0.63798 0.57495 0.0
O463 O 0.17557 0.65289 0.60632 0.0
O464 O 0.21737 0.62834 0.60652 0.0
C465 C 0.28641 0.74453 0.56537 0.0
C466 C 0.19089 0.6255 0.52049 0.0
O467 O 0.22179 0.62512 0.53258 0.0
O468 O 0.17724 0.64664 0.53154 0.0
C469 C 0.32221 0.63836 0.55401 0.0
O470 O 0.31537 0.64711 0.52778 0.0
C471 C 0.18699 0.6304 0.61765 0.0
Zn472 Zn 0.5279 0.22025 0.76216 0.0
Zn473 Zn 0.61134 0.24952 0.7581 0.0
O474 O 0.60576 0.29816 0.74806 0.0
O475 O 0.53753 0.27405 0.75052 0.0
O476 O 0.67403 0.27195 0.75811 0.0
O477 O 0.52922 0.20911 0.80466 0.0
O478 O 0.59611 0.22824 0.79982 0.0
C479 C 0.5744 0.30303 0.74571 0.0
C480 C 0.54968 0.17898 0.7188 0.0
O481 O 0.58733 0.20522 0.72643 0.0
O482 O 0.51891 0.17856 0.73114 0.0
C483 C 0.69971 0.29774 0.74037 0.0
O484 O 0.68516 0.31053 0.71965 0.0
C485 C 0.56327 0.21442 0.81539 0.0
Zn486 Zn 0.44843 0.56364 0.89583 0.0
Zn487 Zn 0.44011 0.62917 0.89759 0.0
O488 O 0.3805 0.58388 0.90414 0.0
O489 O 0.3856 0.5297 0.90389 0.0
O490 O 0.43732 0.67888 0.90059 0.0
O491 O 0.49173 0.58832 0.92874 0.0
O492 O 0.47999 0.63837 0.93132 0.0
C493 C 0.36359 0.546 0.90619 0.0
C494 C 0.46617 0.60564 0.84132 0.0
O495 O 0.45889 0.62961 0.85571 0.0
O496 O 0.4646 0.57589 0.85367 0.0
C497 C 0.41053 0.68559 0.88883 0.0
O498 O 0.3803 0.65757 0.8723 0.0
C499 C 0.49831 0.62063 0.9408 0.0
Zn500 Zn 0.87576 0.41825 0.05973 0.0
Zn501 Zn 0.80181 0.34749 0.05991 0.0
O502 O 0.78085 0.38626 0.06333 0.0
O503 O 0.84062 0.44466 0.06527 0.0
O504 O 0.74971 0.29296 0.05786 0.0
O505 O 0.88856 0.40581 0.01954 0.0
O506 O 0.82736 0.34889 0.01994 0.0
C507 C 0.80065 0.42442 0.06568 0.0
C508 C 0.86864 0.36932 0.10806 0.0
O509 O 0.83172 0.34628 0.09758 0.0
O510 O 0.89456 0.40124 0.0952 0.0
C511 C 0.71564 0.2811 0.07153 0.0
O512 O 0.71272 0.30601 0.08966 0.0
C513 C 0.86126 0.37333 0.00705 0.0
Zn514 Zn 0.39637 0.82776 0.26164 0.0
Zn515 Zn 0.45585 0.80994 0.24971 0.0
O516 O 0.40051 0.75513 0.25104 0.0
O517 O 0.3515 0.76958 0.25971 0.0
O518 O 0.49522 0.79151 0.23676 0.0
O519 O 0.41057 0.86084 0.22555 0.0
O520 O 0.45969 0.84654 0.21611 0.0
C521 C 0.36199 0.74375 0.25503 0.0
C522 C 0.45973 0.85198 0.30717 0.0
O523 O 0.47667 0.83824 0.29013 0.0
O524 O 0.4262 0.85093 0.29986 0.0
C525 C 0.50115 0.76752 0.25175 0.0
O526 O 0.48471 0.75772 0.27782 0.0
C527 C 0.4395 0.86379 0.2093 0.0
C528 C 0.2556 0.64928 0.26326 0.0
C529 C 0.2621 0.61842 0.25354 0.0
C530 C 0.28817 0.68936 0.26369 0.0
C531 C 0.32895 0.70049 0.25465 0.0
H532 H 0.22492 0.64236 0.27081 0.0
H533 H 0.28111 0.71175 0.27132 0.0
S534 S 0.36289 0.63075 0.22832 0.0
N535 N 0.3123 0.6011 0.23538 0.0
N536 N 0.37438 0.67699 0.23637 0.0
C537 C 0.33629 0.66982 0.24547 0.0
C538 C 0.30271 0.62866 0.24496 0.0
C539 C 0.62284 0.29001 0.44503 0.0
C540 C 0.60953 0.25638 0.42649 0.0
C541 C 0.63745 0.32835 0.43378 0.0
C542 C 0.63994 0.33466 0.4035 0.0
H543 H 0.62196 0.28666 0.46846 0.0
H544 H 0.64788 0.35336 0.44901 0.0
S545 S 0.60798 0.25593 0.34572 0.0
N546 N 0.59882 0.23137 0.37651 0.0
N547 N 0.62667 0.30345 0.35519 0.0
C548 C 0.62614 0.30104 0.38472 0.0
C549 C 0.6108 0.26191 0.39624 0.0
C550 C 0.40857 0.63187 0.59409 0.0
C551 C 0.42676 0.62047 0.57201 0.0
C552 C 0.37455 0.6371 0.58808 0.0
C553 C 0.35769 0.63169 0.55967 0.0
H554 H 0.42017 0.63595 0.61634 0.0
H555 H 0.36158 0.64575 0.60589 0.0
S556 S 0.39477 0.60252 0.49403 0.0
N557 N 0.42585 0.60423 0.52064 0.0
N558 N 0.36228 0.61457 0.50915 0.0
C559 C 0.376 0.62075 0.53731 0.0
C560 C 0.41035 0.61494 0.54354 0.0
C561 C 0.81823 0.36832 0.73371 0.0
C562 C 0.83475 0.35218 0.75321 0.0
C563 C 0.77456 0.34995 0.72914 0.0
C564 C 0.74581 0.31509 0.74423 0.0
H565 H 0.83922 0.39537 0.72196 0.0
H566 H 0.76332 0.3637 0.71407 0.0
S567 S 0.77361 0.26167 0.79822 0.0
N568 N 0.81938 0.29983 0.78799 0.0
N569 N 0.73754 0.26519 0.77948 0.0
C570 C 0.76217 0.29863 0.76372 0.0
C571 C 0.80655 0.3172 0.76819 0.0
C572 C 0.38707 0.77019 0.88604 0.0
C573 C 0.41935 0.80022 0.90366 0.0
C574 C 0.38446 0.73315 0.88115 0.0
C575 C 0.41375 0.72488 0.89404 0.0
H576 H 0.36395 0.77548 0.87588 0.0
H577 H 0.35925 0.71089 0.86725 0.0
S578 S 0.50231 0.79334 0.94396 0.0
N579 N 0.47974 0.81899 0.9352 0.0
N580 N 0.47514 0.74988 0.92629 0.0
C581 C 0.44576 0.75476 0.91216 0.0
C582 C 0.44844 0.79228 0.91692 0.0
C583 C 0.77289 0.49892 0.09566 0.0
C584 C 0.73101 0.48294 0.08601 0.0
C585 C 0.7956 0.48049 0.08813 0.0
C586 C 0.7771 0.44501 0.07104 0.0
H587 H 0.78797 0.52531 0.10985 0.0
H588 H 0.82742 0.49341 0.09664 0.0
S589 S 0.66998 0.39315 0.03775 0.0
N590 N 0.67327 0.43149 0.05622 0.0
N591 N 0.71552 0.39588 0.04306 0.0
C592 C 0.73566 0.42915 0.06063 0.0
C593 C 0.71271 0.44832 0.06789 0.0
C594 C 0.34669 0.85086 0.53694 0.0
C595 C 0.38847 0.86575 0.54649 0.0
C596 C 0.31411 0.8121 0.54372 0.0
C597 C 0.32181 0.78598 0.5599 0.0
H598 H 0.33897 0.86911 0.52367 0.0
H599 H 0.28268 0.80223 0.53557 0.0
S600 S 0.42493 0.81007 0.59117 0.0
N601 N 0.43525 0.85144 0.57426 0.0
N602 N 0.37411 0.77775 0.58584 0.0
C603 C 0.36333 0.80012 0.56954 0.0
C604 C 0.39658 0.84009 0.56309 0.0
C605 C 0.54799 0.38232 0.72756 0.0
C606 C 0.58253 0.40986 0.71105 0.0
C607 C 0.54667 0.34891 0.73973 0.0
C608 C 0.57988 0.34165 0.73591 0.0
H609 H 0.52119 0.38609 0.73044 0.0
H610 H 0.51877 0.32802 0.75159 0.0
S611 S 0.67876 0.40631 0.69586 0.0
N612 N 0.65163 0.42903 0.6925 0.0
N613 N 0.64952 0.36624 0.71568 0.0
C614 C 0.61564 0.37011 0.72064 0.0
C615 C 0.61688 0.40422 0.70814 0.0
C616 C 0.25522 0.46912 0.87934 0.0
C617 C 0.23069 0.48429 0.89045 0.0
C618 C 0.29782 0.48694 0.88701 0.0
C619 C 0.3174 0.52091 0.90563 0.0
H620 H 0.24244 0.44531 0.86292 0.0
H621 H 0.31627 0.4762 0.87628 0.0
S622 S 0.26513 0.56639 0.9457 0.0
N623 N 0.22723 0.53024 0.9254 0.0
N624 N 0.30811 0.56513 0.93858 0.0
C625 C 0.29249 0.53403 0.91897 0.0
C626 C 0.24889 0.51535 0.91167 0.0
C627 C 0.65082 0.17636 0.03845 0.0
C628 C 0.61168 0.16032 0.05217 0.0
C629 C 0.68401 0.21513 0.04517 0.0
C630 C 0.67957 0.23975 0.06589 0.0
H631 H 0.65567 0.15906 0.02187 0.0
H632 H 0.71329 0.22591 0.03367 0.0
S633 S 0.58357 0.21122 0.10876 0.0
N634 N 0.57033 0.17125 0.08798 0.0
N635 N 0.63282 0.24471 0.10061 0.0
C636 C 0.6406 0.22397 0.08003 0.0
C637 C 0.60663 0.18419 0.07312 0.0
C638 C 0.53161 0.71611 0.19436 0.0
C639 C 0.55039 0.69917 0.21087 0.0
C640 C 0.51726 0.73949 0.2077 0.0
C641 C 0.52037 0.74604 0.23812 0.0
H642 H 0.52797 0.7112 0.17096 0.0
H643 H 0.50245 0.75148 0.19412 0.0
S644 S 0.56768 0.70838 0.29087 0.0
N645 N 0.57234 0.69104 0.25891 0.0
N646 N 0.54439 0.73412 0.28422 0.0
C647 C 0.53939 0.7294 0.25481 0.0
C648 C 0.55469 0.70621 0.24112 0.0
C649 C 0.86628 0.45011 0.37554 0.0
C650 C 0.88834 0.4671 0.34966 0.0
C651 C 0.83465 0.45729 0.38512 0.0
C652 C 0.82469 0.48217 0.36935 0.0
H653 H 0.87457 0.43244 0.38901 0.0
H654 H 0.81909 0.44462 0.40551 0.0
S655 S 0.86782 0.52799 0.29792 0.0
N656 N 0.89347 0.5051 0.30651 0.0
N657 N 0.83566 0.51994 0.32521 0.0
C658 C 0.84495 0.49759 0.34282 0.0
C659 C 0.87635 0.48968 0.33279 0.0
C660 C 0.11164 0.57657 0.45821 0.0
C661 C 0.12532 0.55365 0.44334 0.0
C662 C 0.13307 0.59943 0.48305 0.0
C663 C 0.16935 0.60059 0.49401 0.0
H664 H 0.08417 0.57695 0.45048 0.0
H665 H 0.12097 0.61645 0.49365 0.0
S666 S 0.21885 0.5467 0.46203 0.0
N667 N 0.17772 0.53392 0.44061 0.0
N668 N 0.2182 0.57685 0.48748 0.0
C669 C 0.18336 0.57765 0.47927 0.0
C670 C 0.1613 0.55418 0.45393 0.0
C671 C 0.56717 0.13434 0.65003 0.0
C672 C 0.52654 0.10205 0.64299 0.0
C673 C 0.57468 0.15809 0.67518 0.0
C674 C 0.54177 0.15057 0.6942 0.0
H675 H 0.59304 0.14251 0.63528 0.0
H676 H 0.60622 0.18348 0.67905 0.0
S677 S 0.43064 0.06624 0.68729 0.0
N678 N 0.45386 0.06137 0.65823 0.0
N679 N 0.46762 0.10594 0.70551 0.0
C680 C 0.50135 0.11707 0.6881 0.0
C681 C 0.49381 0.09288 0.66249 0.0
C682 C 0.46336 0.57587 0.76238 0.0
C683 C 0.47987 0.61237 0.7476 0.0
C684 C 0.45959 0.57441 0.79261 0.0
C685 C 0.47163 0.6093 0.80942 0.0
H686 H 0.45467 0.54823 0.75063 0.0
H687 H 0.44701 0.54549 0.80284 0.0
S688 S 0.51369 0.71209 0.78118 0.0
N689 N 0.50653 0.68409 0.75179 0.0
N690 N 0.49864 0.68127 0.809 0.0
C691 C 0.48672 0.64589 0.79493 0.0
C692 C 0.49112 0.64746 0.76396 0.0
C693 C 0.91598 0.36393 0.94101 0.0
C694 C 0.88909 0.36051 0.918 0.0
C695 C 0.9061 0.36679 0.97 0.0
C696 C 0.86833 0.36501 0.97694 0.0
H697 H 0.94588 0.36655 0.93642 0.0
H698 H 0.92857 0.37134 0.98704 0.0
S699 S 0.78597 0.35343 0.92478 0.0
N700 N 0.82268 0.35421 0.90398 0.0
N701 N 0.80286 0.35749 0.95877 0.0
C702 C 0.84005 0.35937 0.95427 0.0
C703 C 0.85076 0.35766 0.92466 0.0
C704 C 0.49632 0.92435 0.14273 0.0
C705 C 0.46368 0.92388 0.12651 0.0
C706 C 0.48845 0.90508 0.16963 0.0
C707 C 0.4478 0.88518 0.18145 0.0
H708 H 0.52816 0.93954 0.13451 0.0
H709 H 0.51438 0.90589 0.18128 0.0
S710 S 0.35088 0.8726 0.14685 0.0
N711 N 0.38861 0.89948 0.12357 0.0
N712 N 0.37427 0.86483 0.17451 0.0
C713 C 0.41496 0.88463 0.16557 0.0
C714 C 0.42278 0.9036 0.13803 0.0
C715 C 0.62145 0.50027 0.28738 0.0
C716 C 0.62088 0.5363 0.28898 0.0
C717 C 0.63947 0.48964 0.30988 0.0
C718 C 0.65752 0.5149 0.33447 0.0
H719 H 0.61061 0.48164 0.26779 0.0
H720 H 0.64185 0.46312 0.3071 0.0
S721 S 0.65594 0.60783 0.35167 0.0
N722 N 0.63383 0.59362 0.31898 0.0
N723 N 0.66786 0.57396 0.36121 0.0
C724 C 0.65365 0.54899 0.33741 0.0
C725 C 0.63524 0.55962 0.31467 0.0
C726 C 0.52262 0.92859 0.36587 0.0
C727 C 0.49755 0.91097 0.39057 0.0
C728 C 0.51271 0.9077 0.33902 0.0
C729 C 0.47753 0.86864 0.33617 0.0
H730 H 0.54825 0.95966 0.36674 0.0
H731 H 0.53072 0.92323 0.32001 0.0
S732 S 0.40587 0.80701 0.3949 0.0
N733 N 0.43936 0.85039 0.4111 0.0
N734 N 0.42025 0.81162 0.36047 0.0
C735 C 0.45416 0.84973 0.36105 0.0
C736 C 0.46431 0.87077 0.38834 0.0
C737 C 0.64201 0.5188 0.50384 0.0
C738 C 0.64912 0.55804 0.50635 0.0
C739 C 0.66655 0.51 0.48563 0.0
C740 C 0.69936 0.54011 0.46921 0.0
H741 H 0.61714 0.4945 0.516 0.0
H742 H 0.65905 0.47911 0.48391 0.0
S743 S 0.73052 0.64775 0.4676 0.0
N744 N 0.69103 0.62722 0.49061 0.0
N745 N 0.73771 0.61105 0.4567 0.0
C746 C 0.70749 0.57975 0.47201 0.0
C747 C 0.68221 0.5886 0.49043 0.0
C748 C 0.1518 0.55239 0.67727 0.0
C749 C 0.11138 0.54481 0.68431 0.0
C750 C 0.17652 0.58089 0.65637 0.0
C751 C 0.16199 0.60322 0.64175 0.0
H752 H 0.16458 0.53631 0.68815 0.0
H753 H 0.20716 0.58519 0.65151 0.0
S754 S 0.05779 0.59403 0.652 0.0
N755 N 0.0576 0.56133 0.6747 0.0
N756 N 0.10401 0.61535 0.63595 0.0
C757 C 0.12173 0.59621 0.64892 0.0
C758 C 0.09649 0.56696 0.67004 0.0
C759 C 0.57595 0.15701 0.87612 0.0
C760 C 0.54898 0.15716 0.89761 0.0
C761 C 0.58316 0.17839 0.85033 0.0
C762 C 0.56307 0.20005 0.84496 0.0
H763 H 0.58933 0.13806 0.87826 0.0
H764 H 0.60208 0.17549 0.83364 0.0
S765 S 0.49652 0.21671 0.89643 0.0
N766 N 0.50793 0.18641 0.91375 0.0
N767 N 0.51999 0.22514 0.8646 0.0
C768 C 0.53874 0.20305 0.86709 0.0
C769 C 0.53207 0.18196 0.8936 0.0
C770 C 0.52331 0.65 0.02014 0.0
C771 C 0.55852 0.64615 0.025 0.0
C772 C 0.50589 0.6448 0.99212 0.0
C773 C 0.52248 0.63448 0.96832 0.0
H774 H 0.50797 0.65508 0.03832 0.0
H775 H 0.47751 0.64606 0.98946 0.0
S776 S 0.61729 0.62571 0.96904 0.0
N777 N 0.61192 0.63558 0.00333 0.0
N778 N 0.57825 0.62466 0.95075 0.0
C779 C 0.55908 0.63293 0.9726 0.0
C780 C 0.57739 0.63911 0.00096 0.0
C781 C 0.8746 0.36674 0.18979 0.0
C782 C 0.91371 0.3697 0.19431 0.0
C783 C 0.8579 0.36259 0.16156 0.0
C784 C 0.88033 0.36223 0.13705 0.0
H785 H 0.8579 0.36966 0.20807 0.0
H786 H 0.82892 0.36274 0.1588 0.0
S787 S 0.98172 0.36515 0.13718 0.0
N788 N 0.97241 0.36835 0.17197 0.0
N789 N 0.94148 0.36184 0.11898 0.0
C790 C 0.91811 0.36285 0.14134 0.0
C791 C 0.93469 0.3662 0.17001 0.0
loop_
_geom_bond_atom_site_label_1
_geom_bond_atom_site_label_2
_geom_bond_distance
_geom_bond_site_symmetry_2
_ccdc_geom_bond_type
H0 O26 0.856 . S
H1 O29 0.854 . S
H2 C37 0.930 1_455 S
H3 C38 0.930 . S
H4 C40 0.930 . S
H5 C41 0.930 . S
H6 C43 0.931 . S
H7 C44 0.930 . S
H8 C46 0.930 . S
H9 C47 0.929 . S
H10 C49 0.930 . S
H11 C50 0.931 . S
H12 C52 0.930 . S
H13 C53 0.929 . S
H14 C55 0.931 . S
H15 C56 0.930 . S
H16 C58 0.930 . S
H17 C59 0.932 . S
H18 C61 0.930 . S
H19 C62 0.929 . S
H20 C64 0.931 . S
H21 C65 0.930 . S
H22 C67 0.929 . S
H23 C68 0.931 . S
H24 C70 0.930 . S
H25 C71 0.929 . S
O26 H0 0.856 . S
O26 C72 1.300 . S
O27 C72 1.209 . S
O28 C73 1.199 . S
O29 H1 0.854 . S
O29 C73 1.297 . S
C30 C31 1.404 . S
C30 C35 1.397 . S
C30 C36 1.492 . S
C31 C30 1.404 . S
C31 C32 1.396 . S
C31 C42 1.492 . S
C32 C31 1.396 . S
C32 C33 1.397 . S
C32 C48 1.509 . S
C33 C32 1.397 . S
C33 C34 1.412 . S
C33 C54 1.485 . S
C34 C33 1.412 . S
C34 C35 1.388 . S
C34 C60 1.490 . S
C35 C30 1.397 . S
C35 C34 1.388 . S
C35 C66 1.519 1_455 S
C36 C30 1.492 . S
C36 C37 1.363 1_455 S
C36 C41 1.390 1_455 S
C37 H2 0.930 1_655 S
C37 C36 1.363 1_655 S
C37 C38 1.372 . S
C38 H3 0.930 . S
C38 C37 1.372 . S
C38 C39 1.383 . S
C39 C38 1.383 . S
C39 C40 1.395 . S
C40 H4 0.930 . S
C40 C39 1.395 . S
C40 C41 1.362 . S
C41 H5 0.930 . S
C41 C36 1.390 1_655 S
C41 C40 1.362 . S
C42 C31 1.492 . S
C42 C43 1.377 . S
C42 C47 1.397 . S
C43 H6 0.931 . S
C43 C42 1.377 . S
C43 C44 1.376 . S
C44 H7 0.930 . S
C44 C43 1.376 . S
C44 C45 1.376 . S
C45 C44 1.376 . S
C45 C46 1.378 . S
C45 C72 1.486 . S
C46 H8 0.930 . S
C46 C45 1.378 . S
C46 C47 1.376 . S
C47 H9 0.929 . S
C47 C42 1.397 . S
C47 C46 1.376 . S
C48 C32 1.509 . S
C48 C49 1.391 . S
C48 C53 1.386 . S
C49 H10 0.930 . S
C49 C48 1.391 . S
C49 C50 1.375 . S
C50 H11 0.931 . S
C50 C49 1.375 . S
C50 C51 1.375 . S
C51 C50 1.375 . S
C51 C52 1.361 . S
C52 H12 0.930 . S
C52 C51 1.361 . S
C52 C53 1.399 . S
C53 H13 0.929 . S
C53 C48 1.386 . S
C53 C52 1.399 . S
C54 C33 1.485 . S
C54 C55 1.394 . S
C54 C59 1.360 . S
C55 H14 0.931 . S
C55 C54 1.394 . S
C55 C56 1.372 . S
C56 H15 0.930 . S
C56 C55 1.372 . S
C56 C57 1.397 . S
C57 C56 1.397 . S
C57 C58 1.390 . S
C57 C73 1.476 . S
C58 H16 0.930 . S
C58 C57 1.390 . S
C58 C59 1.366 . S
C59 H17 0.932 . S
C59 C54 1.360 . S
C59 C58 1.366 . S
C60 C34 1.490 . S
C60 C61 1.380 . S
C60 C65 1.386 . S
C61 H18 0.930 . S
C61 C60 1.380 . S
C61 C62 1.381 . S
C62 H19 0.929 . S
C62 C61 1.381 . S
C62 C63 1.371 . S
C63 C62 1.371 . S
C63 C64 1.380 . S
C64 H20 0.931 . S
C64 C63 1.380 . S
C64 C65 1.387 . S
C65 H21 0.930 . S
C65 C60 1.386 . S
C65 C64 1.387 . S
C66 C35 1.519 1_655 S
C66 C67 1.377 . S
C66 C71 1.361 . S
C67 H22 0.929 . S
C67 C66 1.377 . S
C67 C68 1.386 . S
C68 H23 0.931 . S
C68 C67 1.386 . S
C68 C69 1.363 . S
C69 C68 1.363 . S
C69 C70 1.385 . S
C70 H24 0.930 . S
C70 C69 1.385 . S
C70 C71 1.396 . S
C71 H25 0.929 . S
C71 C66 1.361 . S
C71 C70 1.396 . S
C72 O26 1.300 . S
C72 O27 1.209 . S
C72 C45 1.486 . S
C73 O28 1.199 . S
C73 O29 1.297 . S
C73 C57 1.476 . S
H74 O100 0.856 . S
H75 O103 0.854 . S
H76 C111 0.930 1_545 S
H77 C112 0.930 . S
H78 C114 0.930 . S
H79 C115 0.930 . S
H80 C117 0.931 . S
H81 C118 0.930 . S
H82 C120 0.930 . S
H83 C121 0.929 . S
H84 C123 0.930 . S
H85 C124 0.931 . S
H86 C126 0.930 . S
H87 C127 0.929 . S
H88 C129 0.931 . S
H89 C130 0.930 . S
H90 C132 0.930 . S
H91 C133 0.932 . S
H92 C135 0.930 . S
H93 C136 0.929 . S
H94 C138 0.931 . S
H95 C139 0.930 . S
H96 C141 0.929 . S
H97 C142 0.931 . S
H98 C144 0.930 . S
H99 C145 0.929 . S
O100 H74 0.856 . S
O100 C146 1.300 . S
O101 C146 1.209 . S
O102 C147 1.199 . S
O103 H75 0.854 . S
O103 C147 1.297 . S
C104 C105 1.404 . S
C104 C109 1.397 . S
C104 C110 1.492 1_545 S
C105 C104 1.404 . S
C105 C106 1.396 . S
C105 C116 1.492 . S
C106 C105 1.396 . S
C106 C107 1.397 . S
C106 C122 1.509 . S
C107 C106 1.397 . S
C107 C108 1.412 . S
C107 C128 1.485 . S
C108 C107 1.412 . S
C108 C109 1.388 . S
C108 C134 1.490 . S
C109 C104 1.397 . S
C109 C108 1.388 . S
C109 C140 1.519 1_545 S
C110 C104 1.492 1_565 S
C110 C111 1.363 . S
C110 C115 1.390 . S
C111 H76 0.930 1_565 S
C111 C110 1.363 . S
C111 C112 1.372 . S
C112 H77 0.930 . S
C112 C111 1.372 . S
C112 C113 1.383 . S
C113 C112 1.383 . S
C113 C114 1.395 . S
C114 H78 0.930 . S
C114 C113 1.395 . S
C114 C115 1.362 . S
C115 H79 0.930 . S
C115 C110 1.390 . S
C115 C114 1.362 . S
C116 C105 1.492 . S
C116 C117 1.377 . S
C116 C121 1.397 . S
C117 H80 0.931 . S
C117 C116 1.377 . S
C117 C118 1.376 . S
C118 H81 0.930 . S
C118 C117 1.376 . S
C118 C119 1.376 . S
C119 C118 1.376 . S
C119 C120 1.378 . S
C119 C146 1.486 . S
C120 H82 0.930 . S
C120 C119 1.378 . S
C120 C121 1.376 . S
C121 H83 0.929 . S
C121 C116 1.397 . S
C121 C120 1.376 . S
C122 C106 1.509 . S
C122 C123 1.391 . S
C122 C127 1.386 . S
C123 H84 0.930 . S
C123 C122 1.391 . S
C123 C124 1.375 . S
C124 H85 0.931 . S
C124 C123 1.375 . S
C124 C125 1.375 . S
C125 C124 1.375 . S
C125 C126 1.361 . S
C126 H86 0.930 . S
C126 C125 1.361 . S
C126 C127 1.399 . S
C127 H87 0.929 . S
C127 C122 1.386 . S
C127 C126 1.399 . S
C128 C107 1.485 . S
C128 C129 1.394 . S
C128 C133 1.360 . S
C129 H88 0.931 . S
C129 C128 1.394 . S
C129 C130 1.372 . S
C130 H89 0.930 . S
C130 C129 1.372 . S
C130 C131 1.397 . S
C131 C130 1.397 . S
C131 C132 1.390 . S
C131 C147 1.476 . S
C132 H90 0.930 . S
C132 C131 1.390 . S
C132 C133 1.366 . S
C133 H91 0.932 . S
C133 C128 1.360 . S
C133 C132 1.366 . S
C134 C108 1.490 . S
C134 C135 1.380 . S
C134 C139 1.386 . S
C135 H92 0.930 . S
C135 C134 1.380 . S
C135 C136 1.381 . S
C136 H93 0.929 . S
C136 C135 1.381 . S
C136 C137 1.371 . S
C137 C136 1.371 . S
C137 C138 1.380 . S
C138 H94 0.931 . S
C138 C137 1.380 . S
C138 C139 1.387 . S
C139 H95 0.930 . S
C139 C134 1.386 . S
C139 C138 1.387 . S
C140 C109 1.519 1_565 S
C140 C141 1.377 . S
C140 C145 1.361 . S
C141 H96 0.929 . S
C141 C140 1.377 . S
C141 C142 1.386 . S
C142 H97 0.931 . S
C142 C141 1.386 . S
C142 C143 1.363 . S
C143 C142 1.363 . S
C143 C144 1.385 . S
C144 H98 0.930 . S
C144 C143 1.385 . S
C144 C145 1.396 . S
C145 H99 0.929 . S
C145 C140 1.361 . S
C145 C144 1.396 . S
C146 O100 1.300 . S
C146 O101 1.209 . S
C146 C119 1.486 . S
C147 O102 1.199 . S
C147 O103 1.297 . S
C147 C131 1.476 . S
H148 O174 0.856 . S
H149 O177 0.854 . S
H150 C185 0.930 . S
H151 C186 0.930 . S
H152 C188 0.930 . S
H153 C189 0.930 . S
H154 C191 0.931 . S
H155 C192 0.930 . S
H156 C194 0.930 . S
H157 C195 0.929 . S
H158 C197 0.930 . S
H159 C198 0.931 . S
H160 C200 0.930 . S
H161 C201 0.929 . S
H162 C203 0.931 . S
H163 C204 0.930 . S
H164 C206 0.930 . S
H165 C207 0.932 . S
H166 C209 0.930 . S
H167 C210 0.929 . S
H168 C212 0.931 . S
H169 C213 0.930 . S
H170 C215 0.929 . S
H171 C216 0.931 . S
H172 C218 0.930 . S
H173 C219 0.929 . S
O174 H148 0.856 . S
O174 C220 1.300 . S
O175 C220 1.209 . S
O176 C221 1.199 . S
O177 H149 0.854 . S
O177 C221 1.297 . S
C178 C179 1.404 . S
C178 C183 1.397 . S
C178 C184 1.492 . S
C179 C178 1.404 . S
C179 C180 1.396 . S
C179 C190 1.492 . S
C180 C179 1.396 . S
C180 C181 1.397 . S
C180 C196 1.509 . S
C181 C180 1.397 . S
C181 C182 1.412 . S
C181 C202 1.485 . S
C182 C181 1.412 . S
C182 C183 1.388 . S
C182 C208 1.490 . S
C183 C178 1.397 . S
C183 C182 1.388 . S
C183 C214 1.519 . S
C184 C178 1.492 . S
C184 C185 1.363 . S
C184 C189 1.390 . S
C185 H150 0.930 . S
C185 C184 1.363 . S
C185 C186 1.372 . S
C186 H151 0.930 . S
C186 C185 1.372 . S
C186 C187 1.383 . S
C187 C186 1.383 . S
C187 C188 1.395 . S
C188 H152 0.930 . S
C188 C187 1.395 . S
C188 C189 1.362 . S
C189 H153 0.930 . S
C189 C184 1.390 . S
C189 C188 1.362 . S
C190 C179 1.492 . S
C190 C191 1.377 . S
C190 C195 1.397 . S
C191 H154 0.931 . S
C191 C190 1.377 . S
C191 C192 1.376 . S
C192 H155 0.930 . S
C192 C191 1.376 . S
C192 C193 1.376 . S
C193 C192 1.376 . S
C193 C194 1.378 . S
C193 C220 1.486 . S
C194 H156 0.930 . S
C194 C193 1.378 . S
C194 C195 1.376 . S
C195 H157 0.929 . S
C195 C190 1.397 . S
C195 C194 1.376 . S
C196 C180 1.509 . S
C196 C197 1.391 . S
C196 C201 1.386 . S
C197 H158 0.930 . S
C197 C196 1.391 . S
C197 C198 1.375 . S
C198 H159 0.931 . S
C198 C197 1.375 . S
C198 C199 1.375 . S
C199 C198 1.375 . S
C199 C200 1.361 . S
C200 H160 0.930 . S
C200 C199 1.361 . S
C200 C201 1.399 . S
C201 H161 0.929 . S
C201 C196 1.386 . S
C201 C200 1.399 . S
C202 C181 1.485 . S
C202 C203 1.394 . S
C202 C207 1.360 . S
C203 H162 0.931 . S
C203 C202 1.394 . S
C203 C204 1.372 . S
C204 H163 0.930 . S
C204 C203 1.372 . S
C204 C205 1.397 . S
C205 C204 1.397 . S
C205 C206 1.390 . S
C205 C221 1.476 . S
C206 H164 0.930 . S
C206 C205 1.390 . S
C206 C207 1.366 . S
C207 H165 0.932 . S
C207 C202 1.360 . S
C207 C206 1.366 . S
C208 C182 1.490 . S
C208 C209 1.380 . S
C208 C213 1.386 . S
C209 H166 0.930 . S
C209 C208 1.380 . S
C209 C210 1.381 . S
C210 H167 0.929 . S
C210 C209 1.381 . S
C210 C211 1.371 . S
C211 C210 1.371 . S
C211 C212 1.380 . S
C212 H168 0.931 . S
C212 C211 1.380 . S
C212 C213 1.387 . S
C213 H169 0.930 . S
C213 C208 1.386 . S
C213 C212 1.387 . S
C214 C183 1.519 . S
C214 C215 1.377 . S
C214 C219 1.361 . S
C215 H170 0.929 . S
C215 C214 1.377 . S
C215 C216 1.386 . S
C216 H171 0.931 . S
C216 C215 1.386 . S
C216 C217 1.363 . S
C217 C216 1.363 . S
C217 C218 1.385 . S
C218 H172 0.930 . S
C218 C217 1.385 . S
C218 C219 1.396 . S
C219 H173 0.929 . S
C219 C214 1.361 . S
C219 C218 1.396 . S
C220 O174 1.300 . S
C220 O175 1.209 . S
C220 C193 1.486 . S
C221 O176 1.199 . S
C221 O177 1.297 . S
C221 C205 1.476 . S
H222 O248 0.856 1_554 S
H223 O251 0.854 . S
H224 C259 0.930 1_455 S
H225 C260 0.930 . S
H226 C262 0.930 . S
H227 C263 0.930 . S
H228 C265 0.931 . S
H229 C266 0.930 . S
H230 C268 0.930 . S
H231 C269 0.929 . S
H232 C271 0.930 . S
H233 C272 0.931 . S
H234 C274 0.930 . S
H235 C275 0.929 . S
H236 C277 0.931 . S
H237 C278 0.930 . S
H238 C280 0.930 . S
H239 C281 0.932 . S
H240 C283 0.930 . S
H241 C284 0.929 . S
H242 C286 0.931 . S
H243 C287 0.930 . S
H244 C289 0.929 . S
H245 C290 0.931 . S
H246 C292 0.930 . S
H247 C293 0.929 . S
O248 H222 0.856 1_556 S
O248 C294 1.300 . S
O249 C294 1.209 . S
O250 C295 1.199 . S
O251 H223 0.854 . S
O251 C295 1.297 . S
C252 C253 1.404 . S
C252 C257 1.397 . S
C252 C258 1.496 . S
C253 C252 1.404 . S
C253 C254 1.396 . S
C253 C264 1.492 . S
C254 C253 1.396 . S
C254 C255 1.397 . S
C254 C270 1.509 . S
C255 C254 1.397 . S
C255 C256 1.412 . S
C255 C276 1.485 . S
C256 C255 1.412 . S
C256 C257 1.388 . S
C256 C282 1.490 . S
C257 C252 1.397 . S
C257 C256 1.388 . S
C257 C288 1.519 1_455 S
C258 C252 1.496 . S
C258 C259 1.360 1_455 S
C258 C263 1.389 1_455 S
C259 H224 0.930 1_655 S
C259 C258 1.360 1_655 S
C259 C260 1.372 . S
C260 H225 0.930 . S
C260 C259 1.372 . S
C260 C261 1.383 . S
C261 C260 1.383 . S
C261 C262 1.395 . S
C262 H226 0.930 . S
C262 C261 1.395 . S
C262 C263 1.362 . S
C263 H227 0.930 . S
C263 C258 1.389 1_655 S
C263 C262 1.362 . S
C264 C253 1.492 . S
C264 C265 1.377 . S
C264 C269 1.397 . S
C265 H228 0.931 . S
C265 C264 1.377 . S
C265 C266 1.376 . S
C266 H229 0.930 . S
C266 C265 1.376 . S
C266 C267 1.376 . S
C267 C266 1.376 . S
C267 C268 1.378 . S
C267 C294 1.486 . S
C268 H230 0.930 . S
C268 C267 1.378 . S
C268 C269 1.376 . S
C269 H231 0.929 . S
C269 C264 1.397 . S
C269 C268 1.376 . S
C270 C254 1.509 . S
C270 C271 1.391 . S
C270 C275 1.386 . S
C271 H232 0.930 . S
C271 C270 1.391 . S
C271 C272 1.375 . S
C272 H233 0.931 . S
C272 C271 1.375 . S
C272 C273 1.375 . S
C273 C272 1.375 . S
C273 C274 1.361 . S
C274 H234 0.930 . S
C274 C273 1.361 . S
C274 C275 1.399 . S
C275 H235 0.929 . S
C275 C270 1.386 . S
C275 C274 1.399 . S
C276 C255 1.485 . S
C276 C277 1.394 . S
C276 C281 1.360 . S
C277 H236 0.931 . S
C277 C276 1.394 . S
C277 C278 1.372 . S
C278 H237 0.930 . S
C278 C277 1.372 . S
C278 C279 1.397 . S
C279 C278 1.397 . S
C279 C280 1.390 . S
C279 C295 1.476 . S
C280 H238 0.930 . S
C280 C279 1.390 . S
C280 C281 1.366 . S
C281 H239 0.932 . S
C281 C276 1.360 . S
C281 C280 1.366 . S
C282 C256 1.490 . S
C282 C283 1.380 . S
C282 C287 1.386 . S
C283 H240 0.930 . S
C283 C282 1.380 . S
C283 C284 1.381 . S
C284 H241 0.929 . S
C284 C283 1.381 . S
C284 C285 1.371 . S
C285 C284 1.371 . S
C285 C286 1.380 . S
C286 H242 0.931 . S
C286 C285 1.380 . S
C286 C287 1.387 . S
C287 H243 0.930 . S
C287 C282 1.386 . S
C287 C286 1.387 . S
C288 C257 1.519 1_655 S
C288 C289 1.377 . S
C288 C293 1.361 . S
C289 H244 0.929 . S
C289 C288 1.377 . S
C289 C290 1.386 . S
C290 H245 0.931 . S
C290 C289 1.386 . S
C290 C291 1.363 . S
C291 C290 1.363 . S
C291 C292 1.385 . S
C292 H246 0.930 . S
C292 C291 1.385 . S
C292 C293 1.396 . S
C293 H247 0.929 . S
C293 C288 1.361 . S
C293 C292 1.396 . S
C294 O248 1.300 . S
C294 O249 1.209 . S
C294 C267 1.486 . S
C295 O250 1.199 . S
C295 O251 1.297 . S
C295 C279 1.476 . S
H296 O322 0.856 . S
H297 O325 0.854 . S
H298 C333 0.930 . S
H299 C334 0.930 . S
H300 C336 0.930 . S
H301 C337 0.930 . S
H302 C339 0.931 . S
H303 C340 0.930 . S
H304 C342 0.930 . S
H305 C343 0.929 . S
H306 C345 0.930 . S
H307 C346 0.931 . S
H308 C348 0.930 . S
H309 C349 0.929 . S
H310 C351 0.931 . S
H311 C352 0.930 . S
H312 C354 0.930 . S
H313 C355 0.932 . S
H314 C357 0.930 . S
H315 C358 0.922 1_545 S
H316 C360 0.931 . S
H317 C361 0.930 . S
H318 C363 0.929 1_556 S
H319 C364 0.931 . S
H320 C366 0.930 . S
H321 C367 0.929 . S
O322 H296 0.856 . S
O322 C368 1.300 . S
O323 C368 1.209 . S
O324 C369 1.199 . S
O325 H297 0.854 . S
O325 C369 1.297 . S
C326 C327 1.404 1_545 S
C326 C331 1.397 . S
C326 C332 1.492 . S
C327 C326 1.404 1_565 S
C327 C328 1.396 . S
C327 C338 1.492 . S
C328 C327 1.396 . S
C328 C329 1.397 . S
C328 C344 1.509 . S
C329 C328 1.397 . S
C329 C330 1.412 1_556 S
C329 C350 1.485 1_556 S
C330 C329 1.412 1_554 S
C330 C331 1.388 1_564 S
C330 C356 1.490 . S
C331 C326 1.397 . S
C331 C330 1.388 1_546 S
C331 C362 1.519 1_556 S
C332 C326 1.492 . S
C332 C333 1.363 . S
C332 C337 1.390 . S
C333 H298 0.930 . S
C333 C332 1.363 . S
C333 C334 1.372 . S
C334 H299 0.930 . S
C334 C333 1.372 . S
C334 C335 1.383 . S
C335 C334 1.383 . S
C335 C336 1.395 . S
C336 H300 0.930 . S
C336 C335 1.395 . S
C336 C337 1.362 . S
C337 H301 0.930 . S
C337 C332 1.390 . S
C337 C336 1.362 . S
C338 C327 1.492 . S
C338 C339 1.377 . S
C338 C343 1.397 . S
C339 H302 0.931 . S
C339 C338 1.377 . S
C339 C340 1.376 . S
C340 H303 0.930 . S
C340 C339 1.376 . S
C340 C341 1.376 . S
C341 C340 1.376 . S
C341 C342 1.378 . S
C341 C368 1.486 . S
C342 H304 0.930 . S
C342 C341 1.378 . S
C342 C343 1.376 . S
C343 H305 0.929 . S
C343 C338 1.397 . S
C343 C342 1.376 . S
C344 C328 1.509 . S
C344 C345 1.391 . S
C344 C349 1.386 . S
C345 H306 0.930 . S
C345 C344 1.391 . S
C345 C346 1.375 . S
C346 H307 0.931 . S
C346 C345 1.375 . S
C346 C347 1.375 . S
C347 C346 1.375 . S
C347 C348 1.361 . S
C348 H308 0.930 . S
C348 C347 1.361 . S
C348 C349 1.399 . S
C349 H309 0.929 . S
C349 C344 1.386 . S
C349 C348 1.399 . S
C350 C329 1.485 1_554 S
C350 C351 1.394 . S
C350 C355 1.360 . S
C351 H310 0.931 . S
C351 C350 1.394 . S
C351 C352 1.372 . S
C352 H311 0.930 . S
C352 C351 1.372 . S
C352 C353 1.397 . S
C353 C352 1.397 . S
C353 C354 1.390 . S
C353 C369 1.476 . S
C354 H312 0.930 . S
C354 C353 1.390 . S
C354 C355 1.366 . S
C355 H313 0.932 . S
C355 C350 1.360 . S
C355 C354 1.366 . S
C356 C330 1.490 . S
C356 C357 1.380 . S
C356 C361 1.386 . S
C357 H314 0.930 . S
C357 C356 1.380 . S
C357 C358 1.383 . S
C358 H315 0.922 1_565 S
C358 C357 1.383 . S
C358 C359 1.377 . S
C359 C358 1.377 . S
C359 C360 1.380 . S
C360 H316 0.931 . S
C360 C359 1.380 . S
C360 C361 1.387 . S
C361 H317 0.930 . S
C361 C356 1.386 . S
C361 C360 1.387 . S
C362 C331 1.519 1_554 S
C362 C363 1.377 . S
C362 C367 1.361 . S
C363 H318 0.929 1_554 S
C363 C362 1.377 . S
C363 C364 1.386 . S
C364 H319 0.931 . S
C364 C363 1.386 . S
C364 C365 1.363 . S
C365 C364 1.363 . S
C365 C366 1.385 . S
C366 H320 0.930 . S
C366 C365 1.385 . S
C366 C367 1.396 . S
C367 H321 0.929 . S
C367 C362 1.361 . S
C367 C366 1.396 . S
C368 O322 1.300 . S
C368 O323 1.209 . S
C368 C341 1.486 . S
C369 O324 1.199 . S
C369 O325 1.297 . S
C369 C353 1.476 . S
H370 O396 0.856 . S
H371 O399 0.854 . S
H372 C407 0.930 . S
H373 C408 0.930 . S
H374 C410 0.930 . S
H375 C411 0.930 . S
H376 C413 0.931 . S
H377 C414 0.930 . S
H378 C416 0.930 . S
H379 C417 0.929 . S
H380 C419 0.930 . S
H381 C420 0.931 . S
H382 C422 0.930 . S
H383 C423 0.929 . S
H384 C425 0.931 . S
H385 C426 0.930 . S
H386 C428 0.930 . S
H387 C429 0.932 . S
H388 C431 0.930 . S
H389 C432 0.929 . S
H390 C434 0.931 . S
H391 C435 0.930 . S
H392 C437 0.929 . S
H393 C438 0.931 . S
H394 C440 0.930 . S
H395 C441 0.929 . S
O396 H370 0.856 . S
O396 C442 1.300 . S
O397 C442 1.209 . S
O398 C443 1.199 . S
O399 H371 0.854 . S
O399 C443 1.297 . S
C400 C401 1.404 . S
C400 C405 1.397 . S
C400 C406 1.492 . S
C401 C400 1.404 . S
C401 C402 1.396 . S
C401 C412 1.492 . S
C402 C401 1.396 . S
C402 C403 1.397 . S
C402 C418 1.509 . S
C403 C402 1.397 . S
C403 C404 1.412 . S
C403 C424 1.485 . S
C404 C403 1.412 . S
C404 C405 1.388 . S
C404 C430 1.490 . S
C405 C400 1.397 . S
C405 C404 1.388 . S
C405 C436 1.519 . S
C406 C400 1.492 . S
C406 C407 1.363 . S
C406 C411 1.390 . S
C407 H372 0.930 . S
C407 C406 1.363 . S
C407 C408 1.372 . S
C408 H373 0.930 . S
C408 C407 1.372 . S
C408 C409 1.383 . S
C409 C408 1.383 . S
C409 C410 1.395 . S
C410 H374 0.930 . S
C410 C409 1.395 . S
C410 C411 1.362 . S
C411 H375 0.930 . S
C411 C406 1.390 . S
C411 C410 1.362 . S
C412 C401 1.492 . S
C412 C413 1.377 . S
C412 C417 1.397 . S
C413 H376 0.931 . S
C413 C412 1.377 . S
C413 C414 1.376 . S
C414 H377 0.930 . S
C414 C413 1.376 . S
C414 C415 1.376 . S
C415 C414 1.376 . S
C415 C416 1.378 . S
C415 C442 1.486 1_554 S
C416 H378 0.930 . S
C416 C415 1.378 . S
C416 C417 1.376 . S
C417 H379 0.929 . S
C417 C412 1.397 . S
C417 C416 1.376 . S
C418 C402 1.509 . S
C418 C419 1.391 . S
C418 C423 1.386 . S
C419 H380 0.930 . S
C419 C418 1.391 . S
C419 C420 1.375 . S
C420 H381 0.931 . S
C420 C419 1.375 . S
C420 C421 1.375 . S
C421 C420 1.375 . S
C421 C422 1.361 . S
C422 H382 0.930 . S
C422 C421 1.361 . S
C422 C423 1.399 . S
C423 H383 0.929 . S
C423 C418 1.386 . S
C423 C422 1.399 . S
C424 C403 1.485 . S
C424 C425 1.394 . S
C424 C429 1.360 . S
C425 H384 0.931 . S
C425 C424 1.394 . S
C425 C426 1.372 . S
C426 H385 0.930 . S
C426 C425 1.372 . S
C426 C427 1.397 . S
C427 C426 1.397 . S
C427 C428 1.390 . S
C427 C443 1.476 . S
C428 H386 0.930 . S
C428 C427 1.390 . S
C428 C429 1.366 . S
C429 H387 0.932 . S
C429 C424 1.360 . S
C429 C428 1.366 . S
C430 C404 1.490 . S
C430 C431 1.380 . S
C430 C435 1.386 . S
C431 H388 0.930 . S
C431 C430 1.380 . S
C431 C432 1.381 . S
C432 H389 0.929 . S
C432 C431 1.381 . S
C432 C433 1.371 . S
C433 C432 1.371 . S
C433 C434 1.380 . S
C434 H390 0.931 . S
C434 C433 1.380 . S
C434 C435 1.387 . S
C435 H391 0.930 . S
C435 C430 1.386 . S
C435 C434 1.387 . S
C436 C405 1.519 . S
C436 C437 1.377 . S
C436 C441 1.361 . S
C437 H392 0.929 . S
C437 C436 1.377 . S
C437 C438 1.386 . S
C438 H393 0.931 . S
C438 C437 1.386 . S
C438 C439 1.363 . S
C439 C438 1.363 . S
C439 C440 1.385 . S
C440 H394 0.930 . S
C440 C439 1.385 . S
C440 C441 1.396 . S
C441 H395 0.929 . S
C441 C436 1.361 . S
C441 C440 1.396 . S
C442 O396 1.300 . S
C442 O397 1.209 . S
C442 C415 1.486 1_556 S
C443 O398 1.199 . S
C443 O399 1.297 . S
C443 C427 1.476 . S
Zn444 O447 2.031 . S
Zn444 O449 2.049 . S
Zn444 O454 2.067 . S
Zn445 O446 1.962 . S
Zn445 O448 1.986 . S
Zn445 O450 1.996 . S
Zn445 O453 1.943 . S
O446 Zn445 1.962 . S
O446 C451 1.254 . S
O447 Zn444 2.031 . S
O447 C451 1.269 . S
O448 Zn445 1.986 . S
O448 C455 1.262 . S
O449 Zn444 2.049 . S
O449 C457 1.260 . S
O450 Zn445 1.996 . S
O450 C457 1.257 . S
C451 O446 1.254 . S
C451 O447 1.269 . S
C452 O453 1.249 . S
C452 O454 1.270 . S
O453 Zn445 1.943 . S
O453 C452 1.249 . S
O454 Zn444 2.067 . S
O454 C452 1.270 . S
C455 O448 1.262 . S
C455 O456 1.232 . S
O456 C455 1.232 . S
C457 O449 1.260 . S
C457 O450 1.257 . S
Zn458 O461 2.031 . S
Zn458 O463 2.049 . S
Zn458 O468 2.067 . S
Zn459 O460 1.962 . S
Zn459 O462 1.986 . S
Zn459 O464 1.996 . S
Zn459 O467 1.943 . S
O460 Zn459 1.962 . S
O460 C465 1.254 . S
O461 Zn458 2.031 . S
O461 C465 1.269 . S
O462 Zn459 1.986 . S
O462 C469 1.262 . S
O463 Zn458 2.049 . S
O463 C471 1.260 . S
O464 Zn459 1.996 . S
O464 C471 1.257 . S
C465 O460 1.254 . S
C465 O461 1.269 . S
C466 O467 1.249 . S
C466 O468 1.270 . S
O467 Zn459 1.943 . S
O467 C466 1.249 . S
O468 Zn458 2.067 . S
O468 C466 1.270 . S
C469 O462 1.262 . S
C469 O470 1.232 . S
O470 C469 1.232 . S
C471 O463 1.260 . S
C471 O464 1.257 . S
Zn472 O475 2.031 . S
Zn472 O477 2.049 . S
Zn472 O482 2.067 . S
Zn473 O474 1.962 . S
Zn473 O476 1.986 . S
Zn473 O478 1.996 . S
Zn473 O481 1.943 . S
O474 Zn473 1.962 . S
O474 C479 1.254 . S
O475 Zn472 2.031 . S
O475 C479 1.269 . S
O476 Zn473 1.986 . S
O476 C483 1.262 . S
O477 Zn472 2.049 . S
O477 C485 1.260 . S
O478 Zn473 1.996 . S
O478 C485 1.257 . S
C479 O474 1.254 . S
C479 O475 1.269 . S
C480 O481 1.249 . S
C480 O482 1.270 . S
O481 Zn473 1.943 . S
O481 C480 1.249 . S
O482 Zn472 2.067 . S
O482 C480 1.270 . S
C483 O476 1.262 . S
C483 O484 1.232 . S
O484 C483 1.232 . S
C485 O477 1.260 . S
C485 O478 1.257 . S
Zn486 O489 2.031 . S
Zn486 O491 2.049 . S
Zn486 O496 2.067 . S
Zn487 O488 1.962 . S
Zn487 O490 1.986 . S
Zn487 O492 1.996 . S
Zn487 O495 1.943 . S
O488 Zn487 1.962 . S
O488 C493 1.254 . S
O489 Zn486 2.031 . S
O489 C493 1.269 . S
O490 Zn487 1.986 . S
O490 C497 1.262 . S
O491 Zn486 2.049 . S
O491 C499 1.260 . S
O492 Zn487 1.996 . S
O492 C499 1.257 . S
C493 O488 1.254 . S
C493 O489 1.269 . S
C494 O495 1.249 . S
C494 O496 1.270 . S
O495 Zn487 1.943 . S
O495 C494 1.249 . S
O496 Zn486 2.067 . S
O496 C494 1.270 . S
C497 O490 1.262 . S
C497 O498 1.232 . S
O498 C497 1.232 . S
C499 O491 1.260 . S
C499 O492 1.257 . S
Zn500 O503 2.031 . S
Zn500 O505 2.049 . S
Zn500 O510 2.067 . S
Zn501 O502 1.962 . S
Zn501 O504 1.986 . S
Zn501 O506 1.996 . S
Zn501 O509 1.943 . S
O502 Zn501 1.962 . S
O502 C507 1.254 . S
O503 Zn500 2.031 . S
O503 C507 1.269 . S
O504 Zn501 1.986 . S
O504 C511 1.262 . S
O505 Zn500 2.049 . S
O505 C513 1.260 . S
O506 Zn501 1.996 . S
O506 C513 1.257 . S
C507 O502 1.254 . S
C507 O503 1.269 . S
C508 O509 1.249 . S
C508 O510 1.270 . S
O509 Zn501 1.943 . S
O509 C508 1.249 . S
O510 Zn500 2.067 . S
O510 C508 1.270 . S
C511 O504 1.262 . S
C511 O512 1.232 . S
O512 C511 1.232 . S
C513 O505 1.260 . S
C513 O506 1.257 . S
Zn514 O517 2.031 . S
Zn514 O519 2.049 . S
Zn514 O524 2.067 . S
Zn515 O516 1.962 . S
Zn515 O518 1.986 . S
Zn515 O520 1.996 . S
Zn515 O523 1.943 . S
O516 Zn515 1.962 . S
O516 C521 1.254 . S
O517 Zn514 2.031 . S
O517 C521 1.269 . S
O518 Zn515 1.986 . S
O518 C525 1.262 . S
O519 Zn514 2.049 . S
O519 C527 1.260 . S
O520 Zn515 1.996 . S
O520 C527 1.257 . S
C521 O516 1.254 . S
C521 O517 1.269 . S
C522 O523 1.249 . S
C522 O524 1.270 . S
O523 Zn515 1.943 . S
O523 C522 1.249 . S
O524 Zn514 2.067 . S
O524 C522 1.270 . S
C525 O518 1.262 . S
C525 O526 1.232 . S
O526 C525 1.232 . S
C527 O519 1.260 . S
C527 O520 1.257 . S
C528 C529 1.369 . S
C528 C530 1.419 . S
C528 H532 0.930 . S
C529 C528 1.369 . S
C529 C538 1.429 . S
C530 C528 1.419 . S
C530 C531 1.363 . S
C530 H533 0.929 . S
C531 C530 1.363 . S
C531 C537 1.428 . S
H532 C528 0.930 . S
H533 C530 0.929 . S
S534 N535 1.613 . S
S534 N536 1.610 . S
N535 S534 1.613 . S
N535 C538 1.350 . S
N536 S534 1.610 . S
N536 C537 1.351 . S
C537 C531 1.428 . S
C537 N536 1.351 . S
C537 C538 1.434 . S
C538 C529 1.429 . S
C538 N535 1.350 . S
C538 C537 1.434 . S
C539 C540 1.369 . S
C539 C541 1.419 . S
C539 H543 0.930 . S
C540 C539 1.369 . S
C540 C549 1.429 . S
C541 C539 1.419 . S
C541 C542 1.363 . S
C541 H544 0.929 . S
C542 C541 1.363 . S
C542 C548 1.428 . S
H543 C539 0.930 . S
H544 C541 0.929 . S
S545 N546 1.613 . S
S545 N547 1.610 . S
N546 S545 1.613 . S
N546 C549 1.350 . S
N547 S545 1.610 . S
N547 C548 1.351 . S
C548 C542 1.428 . S
C548 N547 1.351 . S
C548 C549 1.434 . S
C549 C540 1.429 . S
C549 N546 1.350 . S
C549 C548 1.434 . S
C550 C551 1.369 . S
C550 C552 1.419 . S
C550 H554 0.930 . S
C551 C550 1.369 . S
C551 C560 1.429 . S
C552 C550 1.419 . S
C552 C553 1.363 . S
C552 H555 0.929 . S
C553 C552 1.363 . S
C553 C559 1.428 . S
H554 C550 0.930 . S
H555 C552 0.929 . S
S556 N557 1.613 . S
S556 N558 1.610 . S
N557 S556 1.613 . S
N557 C560 1.350 . S
N558 S556 1.610 . S
N558 C559 1.351 . S
C559 C553 1.428 . S
C559 N558 1.351 . S
C559 C560 1.434 . S
C560 C551 1.429 . S
C560 N557 1.350 . S
C560 C559 1.434 . S
C561 C562 1.369 . S
C561 C563 1.419 . S
C561 H565 0.930 . S
C562 C561 1.369 . S
C562 C571 1.429 . S
C563 C561 1.419 . S
C563 C564 1.363 . S
C563 H566 0.929 . S
C564 C563 1.363 . S
C564 C570 1.428 . S
H565 C561 0.930 . S
H566 C563 0.929 . S
S567 N568 1.613 . S
S567 N569 1.610 . S
N568 S567 1.613 . S
N568 C571 1.350 . S
N569 S567 1.610 . S
N569 C570 1.351 . S
C570 C564 1.428 . S
C570 N569 1.351 . S
C570 C571 1.434 . S
C571 C562 1.429 . S
C571 N568 1.350 . S
C571 C570 1.434 . S
C572 C573 1.369 . S
C572 C574 1.419 . S
C572 H576 0.930 . S
C573 C572 1.369 . S
C573 C582 1.429 . S
C574 C572 1.419 . S
C574 C575 1.363 . S
C574 H577 0.929 . S
C575 C574 1.363 . S
C575 C581 1.428 . S
H576 C572 0.930 . S
H577 C574 0.929 . S
S578 N579 1.613 . S
S578 N580 1.610 . S
N579 S578 1.613 . S
N579 C582 1.350 . S
N580 S578 1.610 . S
N580 C581 1.351 . S
C581 C575 1.428 . S
C581 N580 1.351 . S
C581 C582 1.434 . S
C582 C573 1.429 . S
C582 N579 1.350 . S
C582 C581 1.434 . S
C583 C584 1.369 . S
C583 C585 1.419 . S
C583 H587 0.930 . S
C584 C583 1.369 . S
C584 C593 1.429 . S
C585 C583 1.419 . S
C585 C586 1.363 . S
C585 H588 0.929 . S
C586 C585 1.363 . S
C586 C592 1.428 . S
H587 C583 0.930 . S
H588 C585 0.929 . S
S589 N590 1.613 . S
S589 N591 1.610 . S
N590 S589 1.613 . S
N590 C593 1.350 . S
N591 S589 1.610 . S
N591 C592 1.351 . S
C592 C586 1.428 . S
C592 N591 1.351 . S
C592 C593 1.434 . S
C593 C584 1.429 . S
C593 N590 1.350 . S
C593 C592 1.434 . S
C594 C595 1.369 . S
C594 C596 1.419 . S
C594 H598 0.930 . S
C595 C594 1.369 . S
C595 C604 1.429 . S
C596 C594 1.419 . S
C596 C597 1.363 . S
C596 H599 0.929 . S
C597 C596 1.363 . S
C597 C603 1.428 . S
H598 C594 0.930 . S
H599 C596 0.929 . S
S600 N601 1.613 . S
S600 N602 1.610 . S
N601 S600 1.613 . S
N601 C604 1.350 . S
N602 S600 1.610 . S
N602 C603 1.351 . S
C603 C597 1.428 . S
C603 N602 1.351 . S
C603 C604 1.434 . S
C604 C595 1.429 . S
C604 N601 1.350 . S
C604 C603 1.434 . S
C605 C606 1.369 . S
C605 C607 1.419 . S
C605 H609 0.930 . S
C606 C605 1.369 . S
C606 C615 1.429 . S
C607 C605 1.419 . S
C607 C608 1.363 . S
C607 H610 0.929 . S
C608 C607 1.363 . S
C608 C614 1.428 . S
H609 C605 0.930 . S
H610 C607 0.929 . S
S611 N612 1.613 . S
S611 N613 1.610 . S
N612 S611 1.613 . S
N612 C615 1.350 . S
N613 S611 1.610 . S
N613 C614 1.351 . S
C614 C608 1.428 . S
C614 N613 1.351 . S
C614 C615 1.434 . S
C615 C606 1.429 . S
C615 N612 1.350 . S
C615 C614 1.434 . S
C616 C617 1.369 . S
C616 C618 1.419 . S
C616 H620 0.930 . S
C617 C616 1.369 . S
C617 C626 1.429 . S
C618 C616 1.419 . S
C618 C619 1.363 . S
C618 H621 0.929 . S
C619 C618 1.363 . S
C619 C625 1.428 . S
H620 C616 0.930 . S
H621 C618 0.929 . S
S622 N623 1.613 . S
S622 N624 1.610 . S
N623 S622 1.613 . S
N623 C626 1.350 . S
N624 S622 1.610 . S
N624 C625 1.351 . S
C625 C619 1.428 . S
C625 N624 1.351 . S
C625 C626 1.434 . S
C626 C617 1.429 . S
C626 N623 1.350 . S
C626 C625 1.434 . S
C627 C628 1.369 . S
C627 C629 1.419 . S
C627 H631 0.930 1_554 S
C628 C627 1.369 . S
C628 C637 1.429 . S
C629 C627 1.419 . S
C629 C630 1.363 . S
C629 H632 0.929 . S
C630 C629 1.363 . S
C630 C636 1.428 . S
H631 C627 0.930 1_556 S
H632 C629 0.929 . S
S633 N634 1.613 . S
S633 N635 1.610 . S
N634 S633 1.613 . S
N634 C637 1.350 . S
N635 S633 1.610 . S
N635 C636 1.351 . S
C636 C630 1.428 . S
C636 N635 1.351 . S
C636 C637 1.434 . S
C637 C628 1.429 . S
C637 N634 1.350 . S
C637 C636 1.434 . S
C638 C639 1.369 . S
C638 C640 1.419 . S
C638 H642 0.930 . S
C639 C638 1.369 . S
C639 C648 1.429 . S
C640 C638 1.419 . S
C640 C641 1.363 . S
C640 H643 0.929 . S
C641 C640 1.363 . S
C641 C647 1.428 . S
H642 C638 0.930 . S
H643 C640 0.929 . S
S644 N645 1.613 . S
S644 N646 1.610 . S
N645 S644 1.613 . S
N645 C648 1.350 . S
N646 S644 1.610 . S
N646 C647 1.351 . S
C647 C641 1.428 . S
C647 N646 1.351 . S
C647 C648 1.434 . S
C648 C639 1.429 . S
C648 N645 1.350 . S
C648 C647 1.434 . S
C649 C650 1.369 . S
C649 C651 1.419 . S
C649 H653 0.930 . S
C650 C649 1.369 . S
C650 C659 1.429 . S
C651 C649 1.419 . S
C651 C652 1.363 . S
C651 H654 0.929 . S
C652 C651 1.363 . S
C652 C658 1.428 . S
H653 C649 0.930 . S
H654 C651 0.929 . S
S655 N656 1.613 . S
S655 N657 1.610 . S
N656 S655 1.613 . S
N656 C659 1.350 . S
N657 S655 1.610 . S
N657 C658 1.351 . S
C658 C652 1.428 . S
C658 N657 1.351 . S
C658 C659 1.434 . S
C659 C650 1.429 . S
C659 N656 1.350 . S
C659 C658 1.434 . S
C660 C661 1.369 . S
C660 C662 1.419 . S
C660 H664 0.930 . S
C661 C660 1.369 . S
C661 C670 1.429 . S
C662 C660 1.419 . S
C662 C663 1.363 . S
C662 H665 0.929 . S
C663 C662 1.363 . S
C663 C669 1.428 . S
H664 C660 0.930 . S
H665 C662 0.929 . S
S666 N667 1.613 . S
S666 N668 1.610 . S
N667 S666 1.613 . S
N667 C670 1.350 . S
N668 S666 1.610 . S
N668 C669 1.351 . S
C669 C663 1.428 . S
C669 N668 1.351 . S
C669 C670 1.434 . S
C670 C661 1.429 . S
C670 N667 1.350 . S
C670 C669 1.434 . S
C671 C672 1.369 . S
C671 C673 1.419 . S
C671 H675 0.930 . S
C672 C671 1.369 . S
C672 C681 1.429 . S
C673 C671 1.419 . S
C673 C674 1.363 . S
C673 H676 0.929 . S
C674 C673 1.363 . S
C674 C680 1.428 . S
H675 C671 0.930 . S
H676 C673 0.929 . S
S677 N678 1.613 . S
S677 N679 1.610 . S
N678 S677 1.613 . S
N678 C681 1.350 . S
N679 S677 1.610 . S
N679 C680 1.351 . S
C680 C674 1.428 . S
C680 N679 1.351 . S
C680 C681 1.434 . S
C681 C672 1.429 . S
C681 N678 1.350 . S
C681 C680 1.434 . S
C682 C683 1.369 . S
C682 C684 1.419 . S
C682 H686 0.930 . S
C683 C682 1.369 . S
C683 C692 1.429 . S
C684 C682 1.419 . S
C684 C685 1.363 . S
C684 H687 0.929 . S
C685 C684 1.363 . S
C685 C691 1.428 . S
H686 C682 0.930 . S
H687 C684 0.929 . S
S688 N689 1.613 . S
S688 N690 1.610 . S
N689 S688 1.613 . S
N689 C692 1.350 . S
N690 S688 1.610 . S
N690 C691 1.351 . S
C691 C685 1.428 . S
C691 N690 1.351 . S
C691 C692 1.434 . S
C692 C683 1.429 . S
C692 N689 1.350 . S
C692 C691 1.434 . S
C693 C694 1.369 . S
C693 C695 1.419 . S
C693 H697 0.930 . S
C694 C693 1.369 . S
C694 C703 1.429 . S
C695 C693 1.419 . S
C695 C696 1.363 . S
C695 H698 0.929 . S
C696 C695 1.363 . S
C696 C702 1.428 . S
H697 C693 0.930 . S
H698 C695 0.929 . S
S699 N700 1.613 . S
S699 N701 1.610 . S
N700 S699 1.613 . S
N700 C703 1.350 . S
N701 S699 1.610 . S
N701 C702 1.351 . S
C702 C696 1.428 . S
C702 N701 1.351 . S
C702 C703 1.434 . S
C703 C694 1.429 . S
C703 N700 1.350 . S
C703 C702 1.434 . S
C704 C705 1.369 . S
C704 C706 1.419 . S
C704 H708 0.930 1_565 S
C705 C704 1.369 . S
C705 C714 1.429 . S
C706 C704 1.419 . S
C706 C707 1.363 . S
C706 H709 0.929 . S
C707 C706 1.363 . S
C707 C713 1.428 . S
H708 C704 0.930 1_545 S
H709 C706 0.929 . S
S710 N711 1.613 . S
S710 N712 1.610 . S
N711 S710 1.613 . S
N711 C714 1.350 . S
N712 S710 1.610 . S
N712 C713 1.351 . S
C713 C707 1.428 . S
C713 N712 1.351 . S
C713 C714 1.434 . S
C714 C705 1.429 . S
C714 N711 1.350 . S
C714 C713 1.434 . S
C715 C716 1.369 . S
C715 C717 1.419 . S
C715 H719 0.930 . S
C716 C715 1.369 . S
C716 C725 1.429 . S
C717 C715 1.419 . S
C717 C718 1.363 . S
C717 H720 0.929 . S
C718 C717 1.363 . S
C718 C724 1.428 . S
H719 C715 0.930 . S
H720 C717 0.929 . S
S721 N722 1.613 . S
S721 N723 1.610 . S
N722 S721 1.613 . S
N722 C725 1.350 . S
N723 S721 1.610 . S
N723 C724 1.351 . S
C724 C718 1.428 . S
C724 N723 1.351 . S
C724 C725 1.434 . S
C725 C716 1.429 . S
C725 N722 1.350 . S
C725 C724 1.434 . S
C726 C727 1.369 . S
C726 C728 1.419 . S
C726 H730 0.930 . S
C727 C726 1.369 . S
C727 C736 1.429 . S
C728 C726 1.419 . S
C728 C729 1.363 . S
C728 H731 0.929 . S
C729 C728 1.363 . S
C729 C735 1.428 . S
H730 C726 0.930 . S
H731 C728 0.929 . S
S732 N733 1.613 . S
S732 N734 1.610 . S
N733 S732 1.613 . S
N733 C736 1.350 . S
N734 S732 1.610 . S
N734 C735 1.351 . S
C735 C729 1.428 . S
C735 N734 1.351 . S
C735 C736 1.434 . S
C736 C727 1.429 . S
C736 N733 1.350 . S
C736 C735 1.434 . S
C737 C738 1.369 . S
C737 C739 1.419 . S
C737 H741 0.930 . S
C738 C737 1.369 . S
C738 C747 1.429 . S
C739 C737 1.419 . S
C739 C740 1.363 . S
C739 H742 0.929 . S
C740 C739 1.363 . S
C740 C746 1.428 . S
H741 C737 0.930 . S
H742 C739 0.929 . S
S743 N744 1.613 . S
S743 N745 1.610 . S
N744 S743 1.613 . S
N744 C747 1.350 . S
N745 S743 1.610 . S
N745 C746 1.351 . S
C746 C740 1.428 . S
C746 N745 1.351 . S
C746 C747 1.434 . S
C747 C738 1.429 . S
C747 N744 1.350 . S
C747 C746 1.434 . S
C748 C749 1.369 . S
C748 C750 1.419 . S
C748 H752 0.930 . S
C749 C748 1.369 . S
C749 C758 1.429 . S
C750 C748 1.419 . S
C750 C751 1.363 . S
C750 H753 0.929 . S
C751 C750 1.363 . S
C751 C757 1.428 . S
H752 C748 0.930 . S
H753 C750 0.929 . S
S754 N755 1.613 . S
S754 N756 1.610 . S
N755 S754 1.613 . S
N755 C758 1.350 . S
N756 S754 1.610 . S
N756 C757 1.351 . S
C757 C751 1.428 . S
C757 N756 1.351 . S
C757 C758 1.434 . S
C758 C749 1.429 . S
C758 N755 1.350 . S
C758 C757 1.434 . S
C759 C760 1.369 . S
C759 C761 1.419 . S
C759 H763 0.930 . S
C760 C759 1.369 . S
C760 C769 1.429 . S
C761 C759 1.419 . S
C761 C762 1.363 . S
C761 H764 0.929 . S
C762 C761 1.363 . S
C762 C768 1.428 . S
H763 C759 0.930 . S
H764 C761 0.929 . S
S765 N766 1.613 . S
S765 N767 1.610 . S
N766 S765 1.613 . S
N766 C769 1.350 . S
N767 S765 1.610 . S
N767 C768 1.351 . S
C768 C762 1.428 . S
C768 N767 1.351 . S
C768 C769 1.434 . S
C769 C760 1.429 . S
C769 N766 1.350 . S
C769 C768 1.434 . S
C770 C771 1.369 . S
C770 C772 1.419 1_554 S
C770 H774 0.930 . S
C771 C770 1.369 . S
C771 C780 1.429 . S
C772 C770 1.419 1_556 S
C772 C773 1.363 . S
C772 H775 0.929 . S
C773 C772 1.363 . S
C773 C779 1.428 . S
H774 C770 0.930 . S
H775 C772 0.929 . S
S776 N777 1.613 1_556 S
S776 N778 1.610 . S
N777 S776 1.613 1_554 S
N777 C780 1.350 . S
N778 S776 1.610 . S
N778 C779 1.351 . S
C779 C773 1.428 . S
C779 N778 1.351 . S
C779 C780 1.434 1_556 S
C780 C771 1.429 . S
C780 N777 1.350 . S
C780 C779 1.434 1_554 S
C781 C782 1.369 . S
C781 C783 1.419 . S
C781 H785 0.930 . S
C782 C781 1.369 . S
C782 C791 1.429 . S
C783 C781 1.419 . S
C783 C784 1.363 . S
C783 H786 0.929 . S
C784 C783 1.363 . S
C784 C790 1.428 . S
H785 C781 0.930 . S
H786 C783 0.929 . S
S787 N788 1.613 . S
S787 N789 1.610 . S
N788 S787 1.613 . S
N788 C791 1.350 . S
N789 S787 1.610 . S
N789 C790 1.351 . S
C790 C784 1.428 . S
C790 N789 1.351 . S
C790 C791 1.434 . S
C791 C782 1.429 . S
C791 N788 1.350 . S
C791 C790 1.434 . S
C531 C521 1.420 . S
C529 C51 1.378 . S
C540 C125 1.456 . S
C542 C455 1.426 . S
C551 C217 2.350 . S
C553 C469 2.342 . S
C562 C291 1.492 . S
C564 C483 1.456 . S
C575 C497 1.108 . S
C573 C347 1.105 . S
C584 C421 0.938 . S
C586 C507 0.947 . S
C595 C143 2.271 . S
C597 C465 2.281 . S
C606 C199 1.623 . S
C608 C479 1.667 . S
C617 C273 0.691 . S
C619 C493 0.688 . S
C630 C511 1.640 . S
C628 C365 1.658 . S
C641 C525 1.812 . S
C639 C439 1.888 . S
C652 C451 2.365 . S
C650 C69 2.317 . S
C661 C63 1.514 . S
C663 C466 1.593 . S
C672 C137 1.713 . S
C674 C480 1.754 . S
C685 C494 1.517 . S
C683 C187 1.413 . S
C694 C261 1.513 . S
C696 C513 1.558 1_556 S
C707 C527 1.481 . S
C705 C359 1.477 . S
C718 C452 1.220 . S
C716 C433 1.180 . S
C729 C522 1.704 . S
C727 C113 1.704 . S
C738 C211 1.314 . S
C740 C457 1.369 . S
C751 C471 1.663 . S
C749 C285 1.552 . S
C760 C335 1.399 . S
C762 C485 1.409 . S
C771 C409 1.379 . S
C773 C499 1.456 . S
C782 C39 1.661 . S
C784 C508 1.684 . S
