# Generated by pormake.
# Topology pts, (4,4)-cn, num edge types: 1
# Building blocks:
#     Node 0, Type 0, BuildingBlock: NAWXER_clean_linker_0, # of connection points: 4
#     Node 1, Type 0, BuildingBlock: NAWXER_clean_linker_0, # of connection points: 4
#     Node 2, Type 1, BuildingBlock: QUQFOY_clean_sbu_1, # of connection points: 4
#     Node 3, Type 1, BuildingBlock: QUQFOY_clean_sbu_1, # of connection points: 4
#     Edge 4, Type (0, 1), BuildingBlock: MIFKUJ_clean_linker_0, # of connection points: 2
#     Edge 5, Type (0, 1), BuildingBlock: MIFKUJ_clean_linker_0, # of connection points: 2
#     Edge 6, Type (0, 1), BuildingBlock: MIFKUJ_clean_linker_0, # of connection points: 2
#     Edge 7, Type (0, 1), BuildingBlock: MIFKUJ_clean_linker_0, # of connection points: 2
#     Edge 8, Type (0, 1), BuildingBlock: MIFKUJ_clean_linker_0, # of connection points: 2
#     Edge 9, Type (0, 1), BuildingBlock: MIFKUJ_clean_linker_0, # of connection points: 2
#     Edge 10, Type (0, 1), BuildingBlock: MIFKUJ_clean_linker_0, # of connection points: 2
#     Edge 11, Type (0, 1), BuildingBlock: MIFKUJ_clean_linker_0, # of connection points: 2
# Relax obj value: 0.095
# Max RMSD: 0.253
# Mean RMSD: 0.145
data_MOF--net-pts--node1-QUQFOY_clean_sbu_1--node2-NAWXER_clean_linker_0--edge1-MIFKUJ_clean_linker_0
_symmetry_space_group_name_H-M    P1
_symmetry_Int_Tables_number       1
_symmetry_cell_setting            triclinic
loop_
_symmetry_equiv_pos_as_xyz
'x, y, z'
_cell_length_a     34.498512
_cell_length_b     38.028046
_cell_length_c     56.342889
_cell_angle_alpha  89.991385
_cell_angle_beta   89.963454
_cell_angle_gamma 89.954897
loop_
_atom_site_label
_atom_site_type_symbol
_atom_site_fract_x
_atom_site_fract_y
_atom_site_fract_z
_atom_type_partial_charge
C0 C 0.62783 0.00948 0.95656 0.0
C1 C 0.62964 0.98008 0.94148 0.0
C2 C 0.59683 0.01367 0.97227 0.0
C3 C 0.56708 0.98852 0.97321 0.0
C4 C 0.6004 0.95446 0.9429 0.0
C5 C 0.56922 0.95882 0.95847 0.0
C6 C 0.5318 0.99493 0.98749 0.0
C7 C 0.62317 0.9769 0.04388 0.0
C8 C 0.63143 0.0068 0.05775 0.0
C9 C 0.59208 0.97702 0.02798 0.0
C10 C 0.56853 0.00692 0.02574 0.0
C11 C 0.60846 0.03709 0.05475 0.0
C12 C 0.57707 0.03697 0.03913 0.0
C13 C 0.53275 0.00587 0.0114 0.0
C14 C 0.36821 0.99741 0.04272 0.0
C15 C 0.36705 0.0265 0.05815 0.0
C16 C 0.39878 0.99331 0.02666 0.0
C17 C 0.42875 0.01823 0.02568 0.0
C18 C 0.39647 0.05199 0.05651 0.0
C19 C 0.42715 0.04771 0.04059 0.0
C20 C 0.46391 0.01168 0.01133 0.0
C21 C 0.37282 0.03236 0.95562 0.0
C22 C 0.3639 0.00319 0.94124 0.0
C23 C 0.40409 0.03118 0.97136 0.0
C24 C 0.4272 1.0009 0.97296 0.0
C25 C 0.38656 0.97255 0.94345 0.0
C26 C 0.41815 0.97159 0.95894 0.0
C27 C 0.46294 1.00092 0.98737 0.0
H28 H 0.65005 0.02956 0.95589 0.0
H29 H 0.59539 0.03726 0.983 0.0
H30 H 0.60083 0.93176 0.93129 0.0
H31 H 0.54635 0.93931 0.95871 0.0
H32 H 0.63972 0.9529 0.04595 0.0
H33 H 0.58548 0.95327 0.01818 0.0
H34 H 0.61438 0.06084 0.06469 0.0
H35 H 0.55915 0.06029 0.03768 0.0
H36 H 0.34645 0.97697 0.04374 0.0
H37 H 0.39988 0.96983 0.0158 0.0
H38 H 0.39616 0.07502 0.06781 0.0
H39 H 0.45006 0.06718 0.04021 0.0
H40 H 0.35659 0.05663 0.95415 0.0
H41 H 0.41112 0.05443 0.98159 0.0
H42 H 0.38018 0.94933 0.93306 0.0
H43 H 0.43574 0.94801 0.95986 0.0
N44 N 0.49689 0.99284 0.9764 0.0
N45 N 0.4988 0.01384 0.02237 0.0
C46 C 0.03242 0.61838 0.53895 0.0
C47 C 0.00208 0.6269 0.55457 0.0
C48 C 0.03109 0.58741 0.52562 0.0
C49 C -0.00044 0.56431 0.52788 0.0
C50 C 0.9707 0.60361 0.55693 0.0
C51 C 0.9697 0.57234 0.54389 0.0
C52 C 0.99764 0.53184 0.51354 0.0
C53 C 0.97358 0.62304 0.46536 0.0
C54 C 0.00034 0.62708 0.4467 0.0
C55 C 0.97289 0.59219 0.47884 0.0
C56 C -0.00056 0.56496 0.4743 0.0
C57 C 0.0263 0.59941 0.44187 0.0
C58 C 0.02576 0.56867 0.45548 0.0
C59 C -0.00089 0.5321 0.48849 0.0
C60 C 0.96694 0.38052 0.46404 0.0
C61 C 0.9958 0.37423 0.44691 0.0
C62 C 0.96697 0.41167 0.47723 0.0
C63 C 0.99606 0.43697 0.47367 0.0
C64 C 0.02415 0.40013 0.44291 0.0
C65 C 0.02411 0.43128 0.45607 0.0
C66 C 0.99755 0.46935 0.48822 0.0
C67 C 0.02163 0.37751 0.53573 0.0
C68 C 0.99637 0.37395 0.55522 0.0
C69 C 0.02236 0.40853 0.52243 0.0
C70 C 0.99685 0.4363 0.5277 0.0
C71 C 0.9721 0.40248 0.56108 0.0
C72 C 0.97228 0.43319 0.54744 0.0
C73 C 0.99643 0.46908 0.51335 0.0
H74 H 0.05691 0.63592 0.53682 0.0
H75 H 0.05464 0.58146 0.51354 0.0
H76 H 0.94718 0.60943 0.56906 0.0
H77 H 0.94525 0.55473 0.54595 0.0
H78 H 0.95326 0.64378 0.46967 0.0
H79 H 0.95135 0.58959 0.49271 0.0
H80 H 0.04673 0.60125 0.42732 0.0
H81 H 0.04613 0.54783 0.45139 0.0
H82 H 0.94475 0.36108 0.46758 0.0
H83 H 0.94454 0.41583 0.4904 0.0
H84 H 0.04632 0.39638 0.42953 0.0
H85 H 0.04653 0.45065 0.45283 0.0
H86 H 0.04066 0.35625 0.5305 0.0
H87 H 0.0429 0.41066 0.50797 0.0
H88 H 0.95308 0.40133 0.57634 0.0
H89 H 0.95292 0.45449 0.55223 0.0
N90 N 0.99616 0.50041 0.52501 0.0
N91 N -0.00077 0.50082 0.4768 0.0
O92 O 0.95527 0.96777 0.23554 0.0
Cd93 Cd 0.00477 0.96391 0.2558 0.0
Cd94 Cd 0.99529 0.03564 0.25927 0.0
O95 O 0.94405 0.02411 0.242 0.0
O96 O 0.01021 0.91295 0.26303 0.0
O97 O 0.00165 0.95327 0.29082 0.0
C98 C 0.0063 0.92059 0.28518 0.0
C99 C 0.99275 0.0777 0.28958 0.0
C100 C 0.9343 0.99494 0.23278 0.0
C101 C 0.06632 0.00838 0.23362 0.0
O102 O 0.04585 0.03481 0.23947 0.0
O103 O 0.05586 0.97753 0.23941 0.0
O104 O 0.98933 0.08623 0.26757 0.0
O105 O 0.99734 0.04481 0.2946 0.0
O106 O 0.93706 0.01844 0.75844 0.0
Cd107 Cd 0.98786 0.03541 0.7431 0.0
Cd108 Cd 0.00318 0.96545 0.74169 0.0
O109 O 0.95366 0.96276 0.76234 0.0
O110 O 0.97707 0.08507 0.73415 0.0
O111 O 0.99398 0.04436 0.70802 0.0
C112 C 0.98469 0.07661 0.7125 0.0
C113 C 0.00821 0.92468 0.71088 0.0
C114 C 0.92996 0.98774 0.76619 0.0
C115 C 0.06009 0.01153 0.76736 0.0
O116 O 0.05361 0.9817 0.75802 0.0
O117 O 0.0362 0.03664 0.76462 0.0
O118 O 0.01488 0.91601 0.73259 0.0
O119 O 0.99878 0.9569 0.70643 0.0
H120 H 0.28987 0.00938 0.05479 0.0
H121 H 0.2413 0.01032 0.08634 0.0
H122 H 0.32631 0.05153 0.13508 0.0
H123 H 0.37549 0.04891 0.10403 0.0
H124 H 0.28755 0.0017 0.15578 0.0
H125 H 0.25365 0.10401 0.11117 0.0
H126 H 0.23706 0.13812 0.07535 0.0
H127 H 0.1357 0.07453 0.0649 0.0
H128 H 0.15197 0.03972 0.10049 0.0
H129 H 0.09754 0.07031 0.21774 0.0
H130 H 0.15179 0.07789 0.19028 0.0
H131 H 0.16711 0.96538 0.18723 0.0
H132 H 0.11351 0.95756 0.21496 0.0
H133 H 0.15839 0.05717 0.14578 0.0
H134 H 0.26092 0.94524 0.17736 0.0
H135 H 0.27963 0.91583 0.21467 0.0
H136 H 0.24791 0.00801 0.25418 0.0
H137 H 0.22951 0.03814 0.21711 0.0
C138 C 0.29831 0.01849 0.07224 0.0
C139 C 0.33663 0.02916 0.07681 0.0
C140 C 0.27037 0.01938 0.09022 0.0
C141 C 0.28003 0.03139 0.11304 0.0
C142 C 0.31814 0.04227 0.1176 0.0
C143 C 0.34614 0.04114 0.09971 0.0
C144 C 0.25073 0.03158 0.13236 0.0
C145 C 0.25935 0.01392 0.15361 0.0
C146 C 0.21419 0.0481 0.12974 0.0
C147 C 0.20421 0.06908 0.10839 0.0
C148 C 0.22797 0.09714 0.10114 0.0
C149 C 0.2186 0.11663 0.0809 0.0
C150 C 0.18539 0.10845 0.06783 0.0
C151 C 0.16143 0.08082 0.07503 0.0
C152 C 0.17068 0.06123 0.09525 0.0
C153 C 0.11275 0.04718 0.21147 0.0
C154 C 0.10115 0.01331 0.21857 0.0
C155 C 0.14366 0.05157 0.19569 0.0
C156 C 0.16365 0.02224 0.18679 0.0
C157 C 0.15252 0.98845 0.19414 0.0
C158 C 0.12174 0.98402 0.20997 0.0
C159 C 0.19499 0.02676 0.169 0.0
C160 C 0.1867 0.04517 0.148 0.0
C161 C 0.23213 0.0116 0.17206 0.0
C162 C 0.24351 0.99382 0.19445 0.0
C163 C 0.25809 0.95929 0.194 0.0
C164 C 0.26861 0.94248 0.21511 0.0
C165 C 0.26485 0.96001 0.23679 0.0
C166 C 0.25067 0.99442 0.23739 0.0
C167 C 0.24013 0.01135 0.21633 0.0
H168 H 0.27299 0.94694 0.25311 0.0
H169 H 0.17819 0.12356 0.05216 0.0
H170 H 0.93373 0.34307 0.57714 0.0
H171 H 0.93305 0.29049 0.60201 0.0
H172 H 0.05505 0.27534 0.58938 0.0
H173 H 0.05693 0.32918 0.56575 0.0
H174 H 0.98954 0.21164 0.58446 0.0
H175 H 0.0529 0.29985 0.63526 0.0
H176 H 0.0559 0.35884 0.65337 0.0
H177 H 0.94391 0.34295 0.6849 0.0
H178 H 0.94005 0.28404 0.66664 0.0
H179 H 0.02706 0.07908 0.67148 0.0
H180 H 0.02948 0.12727 0.64267 0.0
H181 H 0.94079 0.18242 0.68202 0.0
H182 H 0.9402 0.13542 0.71148 0.0
H183 H 0.99155 0.22636 0.67194 0.0
H184 H 0.92644 0.13941 0.62521 0.0
H185 H 0.91644 0.0817 0.60622 0.0
H186 H 0.0213 0.09493 0.56613 0.0
H187 H 0.0322 0.15255 0.58511 0.0
C188 C 0.96065 0.329 0.57984 0.0
C189 C 0.99547 0.34082 0.56947 0.0
C190 C 0.96002 0.29867 0.59384 0.0
C191 C 0.99396 0.27915 0.59739 0.0
C192 C 0.02852 0.29005 0.58663 0.0
C193 C 0.0294 0.32079 0.57301 0.0
C194 C 0.99354 0.24835 0.61337 0.0
C195 C 0.99051 0.21458 0.6036 0.0
C196 C 0.99352 0.25257 0.63823 0.0
C197 C 0.996 0.28778 0.64936 0.0
C198 C 0.02876 0.3091 0.64585 0.0
C199 C 0.03065 0.34248 0.65618 0.0
C200 C 6e-05 0.35468 0.67021 0.0
C201 C 0.96756 0.33349 0.67399 0.0
C202 C 0.96551 0.30011 0.66367 0.0
C203 C 0.00786 0.10138 0.67377 0.0
C204 C 0.98352 0.10363 0.6937 0.0
C205 C 0.00908 0.12887 0.65724 0.0
C206 C 0.98504 0.15853 0.65994 0.0
C207 C 0.95986 0.16006 0.67953 0.0
C208 C 0.9594 0.13311 0.69634 0.0
C209 C 0.98736 0.18887 0.64324 0.0
C210 C 0.99068 0.22288 0.65284 0.0
C211 C 0.98681 0.18476 0.61821 0.0
C212 C 0.98034 0.15013 0.60677 0.0
C213 C 0.94752 0.12989 0.61248 0.0
C214 C 0.94167 0.09722 0.60169 0.0
C215 C 0.96828 0.08461 0.58503 0.0
C216 C 0.00075 0.10471 0.57907 0.0
C217 C 0.00676 0.13738 0.58982 0.0
H218 H 0.96369 0.05931 0.5767 0.0
H219 H 0.00158 0.38052 0.67821 0.0
H220 H 0.70218 0.97345 0.05549 0.0
H221 H 0.75167 0.96999 0.08647 0.0
H222 H 0.68171 0.03538 0.13201 0.0
H223 H 0.63129 0.03774 0.10173 0.0
H224 H 0.76234 0.05533 0.12834 0.0
H225 H 0.68201 0.9536 0.14363 0.0
H226 H 0.64902 0.89851 0.13254 0.0
H227 H 0.75847 0.85185 0.11437 0.0
H228 H 0.79207 0.90688 0.12504 0.0
H229 H 0.8705 0.03752 0.23345 0.0
H230 H 0.81669 0.03797 0.20522 0.0
H231 H 0.86852 0.95088 0.1676 0.0
H232 H 0.92108 0.94909 0.19656 0.0
H233 H 0.79575 0.94209 0.16706 0.0
H234 H 0.87712 0.04083 0.1494 0.0
H235 H 0.91306 0.09549 0.15772 0.0
H236 H 0.80684 0.14742 0.17656 0.0
H237 H 0.77031 0.0929 0.16864 0.0
C238 C 0.69704 0.98681 0.07216 0.0
C239 C 0.6626 0.00588 0.07603 0.0
C240 C 0.72548 0.98495 0.08978 0.0
C241 C 0.72018 0.00235 0.11149 0.0
C242 C 0.68633 0.02191 0.11529 0.0
C243 C 0.65767 0.02342 0.09785 0.0
C244 C 0.74984 1.00001 0.13035 0.0
C245 C 0.76941 0.03071 0.13706 0.0
C246 C 0.75965 0.96765 0.14113 0.0
C247 C 0.7395 0.93447 0.13491 0.0
C248 C 0.69901 0.9317 0.13708 0.0
C249 C 0.6802 0.90046 0.13091 0.0
C250 C 0.70162 0.87173 0.1227 0.0
C251 C 0.74191 0.87414 0.12071 0.0
C252 C 0.76085 0.90534 0.12683 0.0
C253 C 0.87011 0.01823 0.2193 0.0
C254 C 0.90005 0.9934 0.21711 0.0
C255 C 0.83952 0.01867 0.20306 0.0
C256 C 0.83901 0.99507 0.18385 0.0
C257 C 0.86825 0.96947 0.18217 0.0
C258 C 0.89832 0.96846 0.19874 0.0
C259 C 0.80866 0.99752 0.16518 0.0
C260 C 0.78886 0.96683 0.15844 0.0
C261 C 0.79919 0.02982 0.15399 0.0
C262 C 0.82105 0.06269 0.15865 0.0
C263 C 0.86146 0.06384 0.15546 0.0
C264 C 0.88193 0.0948 0.16009 0.0
C265 C 0.86226 0.12488 0.16773 0.0
C266 C 0.82205 0.12408 0.17068 0.0
C267 C 0.80144 0.09317 0.16611 0.0
H268 H 0.87816 0.14882 0.1713 0.0
H269 H 0.68701 0.84756 0.11793 0.0
H270 H 0.06133 0.65088 0.5821 0.0
H271 H 0.06255 0.70426 0.60654 0.0
H272 H 0.94733 0.73066 0.58283 0.0
H273 H 0.94569 0.67692 0.55864 0.0
H274 H 0.00692 0.78879 0.58318 0.0
H275 H 0.94889 0.69851 0.63249 0.0
H276 H 0.94684 0.63989 0.65116 0.0
H277 H 0.05429 0.66105 0.68682 0.0
H278 H 0.05727 0.71963 0.66805 0.0
H279 H 0.96595 0.92099 0.66992 0.0
H280 H 0.96515 0.87265 0.64119 0.0
H281 H 0.05631 0.82054 0.68026 0.0
H282 H 0.05522 0.8676 0.70968 0.0
H283 H 0.00688 0.77515 0.67074 0.0
H284 H 0.06802 0.86353 0.62294 0.0
H285 H 0.07522 0.92133 0.60358 0.0
H286 H 0.97006 0.90414 0.56455 0.0
H287 H 0.96197 0.8464 0.58391 0.0
C288 C 0.03641 0.66823 0.58199 0.0
C289 C 0.00336 0.65981 0.5686 0.0
C290 C 0.03712 0.69861 0.59593 0.0
C291 C 0.00502 0.72128 0.59643 0.0
C292 C 0.97238 0.71347 0.58258 0.0
C293 C 0.97139 0.68274 0.56895 0.0
C294 C 0.00499 0.75227 0.6123 0.0
C295 C 0.00647 0.78603 0.60235 0.0
C296 C 0.00544 0.74837 0.63722 0.0
C297 C 0.00349 0.71329 0.64867 0.0
C298 C 0.97225 0.69053 0.64414 0.0
C299 C 0.97089 0.65734 0.65478 0.0
C300 C 0.00047 0.64671 0.67012 0.0
C301 C 0.03142 0.6693 0.67491 0.0
C302 C 0.03295 0.7025 0.66429 0.0
C303 C 0.98605 0.89935 0.67214 0.0
C304 C 0.01057 0.8979 0.69199 0.0
C305 C 0.98577 0.87178 0.65565 0.0
C306 C 0.01095 0.8429 0.65833 0.0
C307 C 0.03638 0.84227 0.6778 0.0
C308 C 0.03589 0.86925 0.69457 0.0
C309 C 0.0095 0.81231 0.6418 0.0
C310 C 0.00751 0.77835 0.65161 0.0
C311 C 0.00937 0.81612 0.61675 0.0
C312 C 0.01419 0.8508 0.60506 0.0
C313 C 0.04628 0.87219 0.61036 0.0
C314 C 0.05054 0.90492 0.59936 0.0
C315 C 0.02305 0.91645 0.5829 0.0
C316 C 0.9913 0.89521 0.57734 0.0
C317 C 0.98688 0.86246 0.5883 0.0
H318 H 0.0264 0.94179 0.57441 0.0
H319 H -0.00064 0.62101 0.67834 0.0
H320 H 0.29379 0.03732 0.94487 0.0
H321 H 0.24363 0.04283 0.91463 0.0
H322 H 0.31087 0.97778 0.86722 0.0
H323 H 0.36239 0.97428 0.89664 0.0
H324 H 0.28256 0.02904 0.84329 0.0
H325 H 0.22907 0.94691 0.89867 0.0
H326 H 0.20816 0.92467 0.93775 0.0
H327 H 0.12699 0.00983 0.94401 0.0
H328 H 0.14779 0.03285 0.90509 0.0
H329 H 0.1263 0.97216 0.76818 0.0
H330 H 0.17938 0.97565 0.79692 0.0
H331 H 0.12304 0.06311 0.83133 0.0
H332 H 0.07017 0.06032 0.80237 0.0
H333 H 0.14477 0.00349 0.86166 0.0
H334 H 0.19834 0.0823 0.80337 0.0
H335 H 0.219 0.09983 0.76319 0.0
H336 H 0.30001 0.0141 0.76129 0.0
H337 H 0.27941 0.99572 0.80136 0.0
C338 C 0.29818 0.02448 0.92793 0.0
C339 C 0.33223 0.00523 0.92332 0.0
C340 C 0.26917 0.02728 0.91074 0.0
C341 C 0.27313 0.01027 0.88873 0.0
C342 C 0.30703 0.99105 0.88408 0.0
C343 C 0.3363 0.98867 0.9011 0.0
C344 C 0.24223 0.01278 0.87043 0.0
C345 C 0.25252 0.02304 0.8473 0.0
C346 C 0.20284 0.00556 0.87566 0.0
C347 C 0.1903 0.99182 0.89908 0.0
C348 C 0.20699 0.96106 0.90847 0.0
C349 C 0.19511 0.94828 0.93057 0.0
C350 C 0.16635 0.96589 0.94338 0.0
C351 C 0.14932 0.99626 0.93408 0.0
C352 C 0.16112 0.00917 0.912 0.0
C353 C 0.12548 0.99246 0.78166 0.0
C354 C 0.09407 0.01595 0.78304 0.0
C355 C 0.15582 0.99443 0.79801 0.0
C356 C 0.15498 0.0196 0.81619 0.0
C357 C 0.1241 0.04353 0.81738 0.0
C358 C 0.09408 0.042 0.80076 0.0
C359 C 0.1853 0.01954 0.83472 0.0
C360 C 0.17484 0.00965 0.85782 0.0
C361 C 0.22456 0.0264 0.82936 0.0
C362 C 0.23704 0.03744 0.80528 0.0
C363 C 0.22029 0.06698 0.79431 0.0
C364 C 0.23205 0.07712 0.77156 0.0
C365 C 0.26072 0.05804 0.75967 0.0
C366 C 0.27777 0.02883 0.77052 0.0
C367 C 0.26608 0.01856 0.79325 0.0
H368 H 0.2698 0.06594 0.74206 0.0
H369 H 0.15718 0.95595 0.96049 0.0
H370 H 0.93453 0.33923 0.42699 0.0
H371 H 0.93622 0.28491 0.40378 0.0
H372 H 0.06024 0.27921 0.41289 0.0
H373 H 0.05874 0.33354 0.43606 0.0
H374 H 0.0424 0.26789 0.36841 0.0
H375 H -0.00063 0.22311 0.44271 0.0
H376 H 0.95861 0.21977 0.4786 0.0
H377 H 0.85853 0.19887 0.43561 0.0
H378 H 0.89859 0.2026 0.39942 0.0
H379 H 0.00632 0.07035 0.3374 0.0
H380 H 0.0092 0.1173 0.36726 0.0
H381 H 0.98039 0.19379 0.31354 0.0
H382 H 0.97807 0.14747 0.28374 0.0
H383 H 0.9575 0.16508 0.38386 0.0
H384 H 0.03099 0.26776 0.3222 0.0
H385 H 0.07613 0.2689 0.28823 0.0
H386 H 0.12403 0.16978 0.31002 0.0
H387 H 0.07957 0.16827 0.34429 0.0
C388 C 0.9621 0.32617 0.42429 0.0
C389 C 0.99652 0.34075 0.43331 0.0
C390 C 0.96303 0.29509 0.41104 0.0
C391 C 0.99832 0.27776 0.40677 0.0
C392 C 0.03268 0.29214 0.41591 0.0
C393 C 0.03179 0.32327 0.42907 0.0
C394 C -0.00037 0.24556 0.39186 0.0
C395 C 0.02391 0.24539 0.37187 0.0
C396 C 0.97615 0.21583 0.39661 0.0
C397 C 0.95195 0.21341 0.41833 0.0
C398 C 0.96861 0.21806 0.44089 0.0
C399 C 0.94565 0.21606 0.4613 0.0
C400 C 0.90599 0.20918 0.45939 0.0
C401 C 0.88924 0.20422 0.43706 0.0
C402 C 0.91208 0.20623 0.4166 0.0
C403 C 0.00046 0.09717 0.33202 0.0
C404 C 0.99232 0.10522 0.30817 0.0
C405 C 0.00204 0.12393 0.34909 0.0
C406 C 0.99563 0.15911 0.34255 0.0
C407 C 0.9862 0.16694 0.31891 0.0
C408 C 0.98477 0.14035 0.3019 0.0
C409 C -0.00057 0.18797 0.36013 0.0
C410 C 0.97613 0.18752 0.38056 0.0
C411 C 0.02444 0.21687 0.35609 0.0
C412 C 0.0517 0.21779 0.3357 0.0
C413 C 0.05129 0.24629 0.31981 0.0
C414 C 0.07673 0.24699 0.30049 0.0
C415 C 0.10286 0.21939 0.29693 0.0
C416 C 0.10369 0.19108 0.31274 0.0
C417 C 0.07834 0.19028 0.3321 0.0
H418 H 0.1225 0.21996 0.28195 0.0
H419 H 0.88826 0.20764 0.4752 0.0
H420 H 0.65485 0.03134 0.91147 0.0
H421 H 0.70398 0.02656 0.88035 0.0
H422 H 0.72289 0.91782 0.8988 0.0
H423 H 0.67369 0.92249 0.93018 0.0
H424 H 0.79184 0.95661 0.89221 0.0
H425 H 0.67321 0.93376 0.8512 0.0
H426 H 0.60562 0.94486 0.83914 0.0
H427 H 0.63951 0.04283 0.80744 0.0
H428 H 0.70725 0.03257 0.81963 0.0
H429 H 0.90994 0.92808 0.79064 0.0
H430 H 0.85658 0.92105 0.81888 0.0
H431 H 0.81903 0.02716 0.80457 0.0
H432 H 0.87189 0.03435 0.77621 0.0
H433 H 0.75796 0.98296 0.80846 0.0
H434 H 0.87391 0.0095 0.85248 0.0
H435 H 0.9416 1.00073 0.86524 0.0
H436 H 0.91284 0.89818 0.89183 0.0
H437 H 0.84503 0.90616 0.87891 0.0
C438 C 0.66974 0.00651 0.90907 0.0
C439 C 0.66053 0.97729 0.92327 0.0
C440 C 0.69754 0.00374 0.89117 0.0
C441 C 0.71673 0.97175 0.88715 0.0
C442 C 0.70823 0.94268 0.90159 0.0
C443 C 0.68009 0.94534 0.91939 0.0
C444 C 0.74573 0.96896 0.86786 0.0
C445 C 0.78436 0.96167 0.87382 0.0
C446 C 0.73597 0.9763 0.84398 0.0
C447 C 0.69527 0.98251 0.83651 0.0
C448 C 0.66621 0.95781 0.84183 0.0
C449 C 0.62788 0.96393 0.83494 0.0
C450 C 0.61826 0.99457 0.82257 0.0
C451 C 0.647 0.01912 0.81703 0.0
C452 C 0.68538 0.01314 0.82391 0.0
C453 C 0.89004 0.94978 0.79327 0.0
C454 C 0.8954 0.98189 0.7813 0.0
C455 C 0.85967 0.94575 0.80949 0.0
C456 C 0.8342 0.97376 0.81406 0.0
C457 C 0.83842 0.00524 0.80135 0.0
C458 C 0.86876 0.00932 0.78519 0.0
C459 C 0.80421 0.97105 0.83283 0.0
C460 C 0.76538 0.9774 0.82679 0.0
C461 C 0.81383 0.96309 0.85667 0.0
C462 C 0.85454 0.95825 0.86447 0.0
C463 C 0.8821 0.98495 0.86086 0.0
C464 C 0.92047 0.98016 0.86815 0.0
C465 C 0.93154 0.94887 0.87927 0.0
C466 C 0.90423 0.92237 0.88317 0.0
C467 C 0.86583 0.92702 0.87587 0.0
H468 H 0.96126 0.94521 0.88491 0.0
H469 H 0.58857 0.99925 0.81725 0.0
H470 H 0.9382 0.666 0.43128 0.0
H471 H 0.93901 0.71859 0.40645 0.0
H472 H 0.06384 0.71392 0.4032 0.0
H473 H 0.06343 0.66232 0.42903 0.0
H474 H 0.04116 0.78005 0.4076 0.0
H475 H 0.00694 0.68234 0.35772 0.0
H476 H 0.96879 0.63054 0.34563 0.0
H477 H 0.86622 0.69427 0.3413 0.0
H478 H 0.9037 0.74638 0.35367 0.0
H479 H 0.02239 0.85126 0.27835 0.0
H480 H 0.02182 0.80408 0.30759 0.0
H481 H 0.98956 0.87816 0.36215 0.0
H482 H 0.99091 0.92593 0.33291 0.0
H483 H 0.96543 0.77803 0.33279 0.0
H484 H 0.02556 0.84895 0.41565 0.0
H485 H 0.06945 0.89796 0.42566 0.0
H486 H 0.13043 0.88324 0.35993 0.0
H487 H 0.08724 0.83388 0.34969 0.0
C488 C 0.96591 0.67645 0.42565 0.0
C489 C 0.00076 0.65971 0.43207 0.0
C490 C 0.96628 0.70637 0.41124 0.0
C491 C 0.00145 0.71993 0.40266 0.0
C492 C 0.03633 0.70387 0.40953 0.0
C493 C 0.03601 0.67409 0.42408 0.0
C494 C 0.00189 0.75005 0.38586 0.0
C495 C 0.02448 0.77968 0.39128 0.0
C496 C 0.9806 0.74942 0.36439 0.0
C497 C 0.95804 0.71816 0.35685 0.0
C498 C 0.9762 0.68524 0.35435 0.0
C499 C 0.9547 0.65584 0.34742 0.0
C500 C 0.91508 0.65909 0.34276 0.0
C501 C 0.8969 0.69178 0.34495 0.0
C502 C 0.91826 0.72126 0.35191 0.0
C503 C 0.01532 0.85764 0.29658 0.0
C504 C 0.00671 0.89238 0.30331 0.0
C505 C 0.01489 0.83056 0.31328 0.0
C506 C 0.00578 0.83751 0.3371 0.0
C507 C 0.99717 0.87221 0.34393 0.0
C508 C 0.99784 0.89946 0.3272 0.0
C509 C 0.00474 0.80811 0.35447 0.0
C510 C 0.98189 0.77859 0.34919 0.0
C511 C 0.02653 0.80855 0.37576 0.0
C512 C 0.05287 0.83801 0.3818 0.0
C513 C 0.0484 0.85613 0.40337 0.0
C514 C 0.07315 0.88397 0.40908 0.0
C515 C 0.10262 0.8938 0.3934 0.0
C516 C 0.10749 0.87571 0.37202 0.0
C517 C 0.08285 0.84784 0.36624 0.0
H518 H 0.12173 0.91537 0.39784 0.0
H519 H 0.89849 0.63629 0.3374 0.0
loop_
_geom_bond_atom_site_label_1
_geom_bond_atom_site_label_2
_geom_bond_distance
_geom_bond_site_symmetry_2
_ccdc_geom_bond_type
C0 C1 1.367 1_545 S
C0 C2 1.384 . S
C0 H28 0.931 . S
C1 C0 1.367 1_565 S
C1 C4 1.400 . S
C2 C0 1.384 . S
C2 C3 1.381 1_545 S
C2 H29 0.930 . S
C3 C2 1.381 1_565 S
C3 C5 1.381 . S
C3 C6 1.487 . S
C4 C1 1.400 . S
C4 C5 1.387 . S
C4 H30 0.930 . S
C5 C3 1.381 . S
C5 C4 1.387 . S
C5 H31 0.931 . S
C6 C3 1.487 . S
C6 C13 1.399 1_566 S
C6 N44 1.343 . S
C7 C8 1.384 1_565 S
C7 C9 1.384 . S
C7 H32 0.931 . S
C8 C7 1.384 1_545 S
C8 C11 1.382 . S
C9 C7 1.384 . S
C9 C10 1.381 1_565 S
C9 H33 0.930 . S
C10 C9 1.381 1_545 S
C10 C12 1.381 . S
C10 C13 1.487 . S
C11 C8 1.382 . S
C11 C12 1.387 . S
C11 H34 0.930 . S
C12 C10 1.381 . S
C12 C11 1.387 . S
C12 H35 0.931 . S
C13 C6 1.399 1_544 S
C13 C10 1.487 . S
C13 N45 1.343 . S
C14 C15 1.384 1_565 S
C14 C16 1.384 . S
C14 H36 0.931 . S
C15 C14 1.384 1_545 S
C15 C18 1.382 . S
C16 C14 1.384 . S
C16 C17 1.381 1_565 S
C16 H37 0.930 . S
C17 C16 1.381 1_545 S
C17 C19 1.381 . S
C17 C20 1.487 . S
C18 C15 1.382 . S
C18 C19 1.387 . S
C18 H38 0.930 . S
C19 C17 1.381 . S
C19 C18 1.387 . S
C19 H39 0.931 . S
C20 C17 1.487 . S
C20 C27 1.399 1_544 S
C20 N45 1.343 . S
C21 C22 1.367 1_545 S
C21 C23 1.384 . S
C21 H40 0.931 . S
C22 C21 1.367 1_565 S
C22 C25 1.400 . S
C23 C21 1.384 . S
C23 C24 1.381 1_545 S
C23 H41 0.930 . S
C24 C23 1.381 1_565 S
C24 C26 1.381 . S
C24 C27 1.487 . S
C25 C22 1.400 . S
C25 C26 1.387 . S
C25 H42 0.930 . S
C26 C24 1.381 . S
C26 C25 1.387 . S
C26 H43 0.931 . S
C27 C20 1.399 1_566 S
C27 C24 1.487 . S
C27 N44 1.343 . S
H28 C0 0.931 . S
H29 C2 0.930 . S
H30 C4 0.930 . S
H31 C5 0.931 . S
H32 C7 0.931 . S
H33 C9 0.930 . S
H34 C11 0.930 . S
H35 C12 0.931 . S
H36 C14 0.931 . S
H37 C16 0.930 . S
H38 C18 0.930 . S
H39 C19 0.931 . S
H40 C21 0.931 . S
H41 C23 0.930 . S
H42 C25 0.930 . S
H43 C26 0.931 . S
N44 C6 1.343 . S
N44 C27 1.343 . S
N45 C13 1.343 . S
N45 C20 1.343 . S
C46 C47 1.366 1_455 S
C46 C48 1.384 . S
C46 H74 0.931 . S
C47 C46 1.366 1_655 S
C47 C50 1.402 . S
C48 C46 1.384 . S
C48 C49 1.381 1_455 S
C48 H75 0.930 . S
C49 C48 1.381 1_655 S
C49 C51 1.381 . S
C49 C52 1.487 . S
C50 C47 1.402 . S
C50 C51 1.387 . S
C50 H76 0.930 . S
C51 C49 1.381 . S
C51 C50 1.387 . S
C51 H77 0.931 . S
C52 C49 1.487 . S
C52 C59 1.399 1_655 S
C52 N90 1.343 . S
C53 C54 1.384 1_655 S
C53 C55 1.384 . S
C53 H78 0.931 . S
C54 C53 1.384 1_455 S
C54 C57 1.382 . S
C55 C53 1.384 . S
C55 C56 1.381 1_655 S
C55 H79 0.930 . S
C56 C55 1.381 1_455 S
C56 C58 1.381 . S
C56 C59 1.487 . S
C57 C54 1.382 . S
C57 C58 1.387 . S
C57 H80 0.930 . S
C58 C56 1.381 . S
C58 C57 1.387 . S
C58 H81 0.931 . S
C59 C52 1.399 1_455 S
C59 C56 1.487 . S
C59 N91 1.343 . S
C60 C61 1.384 1_655 S
C60 C62 1.384 . S
C60 H82 0.931 . S
C61 C60 1.384 1_455 S
C61 C64 1.382 . S
C62 C60 1.384 . S
C62 C63 1.381 1_655 S
C62 H83 0.930 . S
C63 C62 1.381 1_455 S
C63 C65 1.381 . S
C63 C66 1.487 . S
C64 C61 1.382 . S
C64 C65 1.387 . S
C64 H84 0.930 . S
C65 C63 1.381 . S
C65 C64 1.387 . S
C65 H85 0.931 . S
C66 C63 1.487 . S
C66 C73 1.399 1_455 S
C66 N91 1.343 . S
C67 C68 1.366 1_455 S
C67 C69 1.384 . S
C67 H86 0.931 . S
C68 C67 1.366 1_655 S
C68 C71 1.402 . S
C69 C67 1.384 . S
C69 C70 1.381 1_455 S
C69 H87 0.930 . S
C70 C69 1.381 1_655 S
C70 C72 1.381 . S
C70 C73 1.487 . S
C71 C68 1.402 . S
C71 C72 1.387 . S
C71 H88 0.930 . S
C72 C70 1.381 . S
C72 C71 1.387 . S
C72 H89 0.931 . S
C73 C66 1.399 1_655 S
C73 C70 1.487 . S
C73 N90 1.343 . S
H74 C46 0.931 . S
H75 C48 0.930 . S
H76 C50 0.930 . S
H77 C51 0.931 . S
H78 C53 0.931 . S
H79 C55 0.930 . S
H80 C57 0.930 . S
H81 C58 0.931 . S
H82 C60 0.931 . S
H83 C62 0.930 . S
H84 C64 0.930 . S
H85 C65 0.931 . S
H86 C67 0.931 . S
H87 C69 0.930 . S
H88 C71 0.930 . S
H89 C72 0.931 . S
N90 C52 1.343 . S
N90 C73 1.343 . S
N91 C59 1.343 . S
N91 C66 1.343 . S
O92 Cd93 2.223 1_655 S
O92 C100 1.315 . S
Cd93 O92 2.223 1_455 S
Cd93 O96 2.297 1_455 S
Cd93 O97 2.439 1_455 S
Cd93 O103 2.240 1_565 S
Cd94 O95 2.240 1_545 S
Cd94 O102 2.223 1_655 S
Cd94 O104 2.297 1_655 S
Cd94 O105 2.439 1_655 S
O95 Cd94 2.240 1_565 S
O95 C100 1.279 . S
O96 Cd93 2.297 1_655 S
O96 C98 1.247 . S
O97 Cd93 2.439 1_655 S
O97 C98 1.208 . S
C98 O96 1.247 . S
C98 O97 1.208 . S
C99 O104 1.247 . S
C99 O105 1.208 . S
C100 O92 1.315 . S
C100 O95 1.279 . S
C101 O102 1.315 . S
C101 O103 1.279 . S
O102 Cd94 2.223 1_455 S
O102 C101 1.315 . S
O103 Cd93 2.240 1_545 S
O103 C101 1.279 . S
O104 Cd94 2.297 1_455 S
O104 C99 1.247 . S
O105 Cd94 2.439 1_455 S
O105 C99 1.208 . S
O106 Cd107 2.223 1_655 S
O106 C114 1.315 . S
Cd107 O106 2.223 1_455 S
Cd107 O110 2.297 1_455 S
Cd107 O111 2.439 1_455 S
Cd107 O117 2.240 1_545 S
Cd108 O109 2.240 1_565 S
Cd108 O116 2.223 1_655 S
Cd108 O118 2.297 1_655 S
Cd108 O119 2.439 1_655 S
O109 Cd108 2.240 1_545 S
O109 C114 1.279 . S
O110 Cd107 2.297 1_655 S
O110 C112 1.247 . S
O111 Cd107 2.439 1_655 S
O111 C112 1.208 . S
C112 O110 1.247 . S
C112 O111 1.208 . S
C113 O118 1.247 . S
C113 O119 1.208 . S
C114 O106 1.315 . S
C114 O109 1.279 . S
C115 O116 1.315 . S
C115 O117 1.279 . S
O116 Cd108 2.223 1_455 S
O116 C115 1.315 . S
O117 Cd107 2.240 1_565 S
O117 C115 1.279 . S
O118 Cd108 2.297 1_455 S
O118 C113 1.247 . S
O119 Cd108 2.439 1_455 S
O119 C113 1.208 . S
H120 C138 0.951 . S
H121 C140 0.951 . S
H122 C142 0.950 . S
H123 C143 0.950 . S
H124 C145 0.950 . S
H125 C148 0.950 . S
H126 C149 0.950 . S
H127 C151 0.950 . S
H128 C152 0.950 . S
H129 C153 0.951 . S
H130 C155 0.951 . S
H131 C157 0.958 . S
H132 C158 0.950 1_565 S
H133 C160 0.950 . S
H134 C163 0.950 . S
H135 C164 0.950 . S
H136 C166 0.950 . S
H137 C167 0.950 1_545 S
C138 H120 0.951 . S
C138 C139 1.366 1_565 S
C138 C140 1.388 . S
C139 C138 1.366 1_545 S
C139 C143 1.385 . S
C140 H121 0.951 . S
C140 C138 1.388 . S
C140 C141 1.366 1_565 S
C141 C140 1.366 1_545 S
C141 C142 1.414 . S
C141 C144 1.499 . S
C142 H122 0.950 . S
C142 C141 1.414 . S
C142 C143 1.374 . S
C143 H123 0.950 . S
C143 C139 1.385 . S
C143 C142 1.374 . S
C144 C141 1.499 . S
C144 C145 1.373 1_545 S
C144 C146 1.389 . S
C145 H124 0.950 . S
C145 C144 1.373 1_565 S
C145 C161 1.377 . S
C146 C144 1.389 . S
C146 C147 1.524 . S
C146 C160 1.377 . S
C147 C146 1.524 . S
C147 C148 1.397 . S
C147 C152 1.363 . S
C148 H125 0.950 . S
C148 C147 1.397 . S
C148 C149 1.334 . S
C149 H126 0.950 . S
C149 C148 1.334 . S
C149 C150 1.287 . S
C150 C149 1.287 . S
C150 C151 1.524 . S
C150 H169 0.913 . S
C151 H127 0.950 . S
C151 C150 1.524 . S
C151 C152 1.415 . S
C152 H128 0.950 . S
C152 C147 1.363 . S
C152 C151 1.415 . S
C153 H129 0.951 . S
C153 C154 1.366 . S
C153 C155 1.388 . S
C154 C153 1.366 . S
C154 C158 1.385 . S
C155 H130 0.951 . S
C155 C153 1.388 . S
C155 C156 1.366 . S
C156 C155 1.366 . S
C156 C157 1.408 1_545 S
C156 C159 1.499 . S
C157 H131 0.958 . S
C157 C156 1.408 1_565 S
C157 C158 1.373 1_565 S
C158 H132 0.950 1_545 S
C158 C154 1.385 . S
C158 C157 1.373 1_545 S
C159 C156 1.499 . S
C159 C160 1.373 . S
C159 C161 1.389 1_545 S
C160 H133 0.950 . S
C160 C146 1.377 . S
C160 C159 1.373 . S
C161 C145 1.377 . S
C161 C159 1.389 1_565 S
C161 C162 1.524 . S
C162 C161 1.524 . S
C162 C163 1.397 . S
C162 C167 1.363 . S
C163 H134 0.950 . S
C163 C162 1.397 . S
C163 C164 1.334 . S
C164 H135 0.950 . S
C164 C163 1.334 . S
C164 C165 1.287 . S
C165 C164 1.287 . S
C165 C166 1.524 . S
C165 H168 0.999 . S
C166 H136 0.950 . S
C166 C165 1.524 . S
C166 C167 1.415 . S
C167 H137 0.950 1_565 S
C167 C162 1.363 . S
C167 C166 1.415 . S
H168 C165 0.999 . S
H169 C150 0.913 . S
H170 C188 0.951 . S
H171 C190 0.951 . S
H172 C192 0.950 . S
H173 C193 0.950 . S
H174 C195 0.956 . S
H175 C198 0.950 . S
H176 C199 0.950 . S
H177 C201 0.950 . S
H178 C202 0.950 . S
H179 C203 0.951 . S
H180 C205 0.951 . S
H181 C207 0.950 . S
H182 C208 0.950 . S
H183 C210 0.950 . S
H184 C213 0.950 . S
H185 C214 0.950 . S
H186 C216 0.950 . S
H187 C217 0.950 . S
C188 H170 0.951 . S
C188 C189 1.366 . S
C188 C190 1.388 . S
C189 C188 1.366 . S
C189 C193 1.385 1_655 S
C190 H171 0.951 . S
C190 C188 1.388 . S
C190 C191 1.366 . S
C191 C190 1.366 . S
C191 C192 1.414 1_655 S
C191 C194 1.499 . S
C192 H172 0.950 . S
C192 C191 1.414 1_455 S
C192 C193 1.374 . S
C193 H173 0.950 . S
C193 C189 1.385 1_455 S
C193 C192 1.374 . S
C194 C191 1.499 . S
C194 C195 1.373 . S
C194 C196 1.389 . S
C195 H174 0.956 . S
C195 C194 1.373 . S
C195 C211 1.377 . S
C196 C194 1.389 . S
C196 C197 1.524 . S
C196 C210 1.377 . S
C197 C196 1.524 . S
C197 C198 1.397 1_655 S
C197 C202 1.363 . S
C198 H175 0.950 . S
C198 C197 1.397 1_455 S
C198 C199 1.334 . S
C199 H176 0.950 . S
C199 C198 1.334 . S
C199 C200 1.287 1_455 S
C200 C199 1.287 1_655 S
C200 C201 1.524 . S
C200 H219 0.913 . S
C201 H177 0.950 . S
C201 C200 1.524 . S
C201 C202 1.415 . S
C202 H178 0.950 . S
C202 C197 1.363 . S
C202 C201 1.415 . S
C203 H179 0.951 . S
C203 C204 1.366 1_455 S
C203 C205 1.388 . S
C204 C203 1.366 1_655 S
C204 C208 1.385 . S
C205 H180 0.951 . S
C205 C203 1.388 . S
C205 C206 1.366 1_455 S
C206 C205 1.366 1_655 S
C206 C207 1.414 . S
C206 C209 1.499 . S
C207 H181 0.950 . S
C207 C206 1.414 . S
C207 C208 1.374 . S
C208 H182 0.950 . S
C208 C204 1.385 . S
C208 C207 1.374 . S
C209 C206 1.499 . S
C209 C210 1.373 . S
C209 C211 1.389 . S
C210 H183 0.950 . S
C210 C196 1.377 . S
C210 C209 1.373 . S
C211 C195 1.377 . S
C211 C209 1.389 . S
C211 C212 1.524 . S
C212 C211 1.524 . S
C212 C213 1.397 . S
C212 C217 1.363 1_655 S
C213 H184 0.950 . S
C213 C212 1.397 . S
C213 C214 1.334 . S
C214 H185 0.950 . S
C214 C213 1.334 . S
C214 C215 1.287 . S
C215 C214 1.287 . S
C215 C216 1.524 1_655 S
C215 H218 0.999 . S
C216 H186 0.950 . S
C216 C215 1.524 1_455 S
C216 C217 1.415 . S
C217 H187 0.950 . S
C217 C212 1.363 1_455 S
C217 C216 1.415 . S
H218 C215 0.999 . S
H219 C200 0.913 . S
H220 C238 0.951 . S
H221 C240 0.951 . S
H222 C242 0.950 . S
H223 C243 0.950 . S
H224 C245 0.950 . S
H225 C248 0.950 . S
H226 C249 0.950 . S
H227 C251 0.950 . S
H228 C252 0.950 . S
H229 C253 0.951 . S
H230 C255 0.954 . S
H231 C257 0.950 . S
H232 C258 0.950 . S
H233 C260 0.950 . S
H234 C263 0.950 . S
H235 C264 0.950 . S
H236 C266 0.950 . S
H237 C267 0.950 . S
C238 H220 0.951 . S
C238 C239 1.366 . S
C238 C240 1.388 . S
C239 C238 1.366 . S
C239 C243 1.385 1_565 S
C240 H221 0.951 . S
C240 C238 1.388 . S
C240 C241 1.366 . S
C241 C240 1.366 . S
C241 C242 1.414 1_565 S
C241 C244 1.499 . S
C242 H222 0.950 . S
C242 C241 1.414 1_545 S
C242 C243 1.374 . S
C243 H223 0.950 . S
C243 C239 1.385 1_545 S
C243 C242 1.374 . S
C244 C241 1.499 . S
C244 C245 1.373 1_565 S
C244 C246 1.389 . S
C245 H224 0.950 . S
C245 C244 1.373 1_545 S
C245 C261 1.377 . S
C246 C244 1.389 . S
C246 C247 1.524 . S
C246 C260 1.377 . S
C247 C246 1.524 . S
C247 C248 1.397 . S
C247 C252 1.363 . S
C248 H225 0.950 . S
C248 C247 1.397 . S
C248 C249 1.334 . S
C249 H226 0.950 . S
C249 C248 1.334 . S
C249 C250 1.287 . S
C250 C249 1.287 . S
C250 C251 1.524 . S
C250 H269 0.913 . S
C251 H227 0.950 . S
C251 C250 1.524 . S
C251 C252 1.415 . S
C252 H228 0.950 . S
C252 C247 1.363 . S
C252 C251 1.415 . S
C253 H229 0.951 . S
C253 C254 1.366 . S
C253 C255 1.388 . S
C254 C253 1.366 . S
C254 C258 1.385 . S
C255 H230 0.954 . S
C255 C253 1.388 . S
C255 C256 1.366 . S
C256 C255 1.366 . S
C256 C257 1.414 . S
C256 C259 1.499 . S
C257 H231 0.950 . S
C257 C256 1.414 . S
C257 C258 1.374 . S
C258 H232 0.950 . S
C258 C254 1.385 . S
C258 C257 1.374 . S
C259 C256 1.499 . S
C259 C260 1.373 . S
C259 C261 1.389 1_565 S
C260 H233 0.950 . S
C260 C246 1.377 . S
C260 C259 1.373 . S
C261 C245 1.377 . S
C261 C259 1.389 1_545 S
C261 C262 1.524 . S
C262 C261 1.524 . S
C262 C263 1.397 . S
C262 C267 1.363 . S
C263 H234 0.950 . S
C263 C262 1.397 . S
C263 C264 1.334 . S
C264 H235 0.950 . S
C264 C263 1.334 . S
C264 C265 1.287 . S
C265 C264 1.287 . S
C265 C266 1.524 . S
C265 H268 0.999 . S
C266 H236 0.950 . S
C266 C265 1.524 . S
C266 C267 1.415 . S
C267 H237 0.950 . S
C267 C262 1.363 . S
C267 C266 1.415 . S
H268 C265 0.999 . S
H269 C250 0.913 . S
H270 C288 0.951 . S
H271 C290 0.951 . S
H272 C292 0.950 . S
H273 C293 0.950 . S
H274 C295 0.950 . S
H275 C298 0.950 1_655 S
H276 C299 0.950 1_655 S
H277 C301 0.950 . S
H278 C302 0.950 . S
H279 C303 0.951 . S
H280 C305 0.951 . S
H281 C307 0.950 . S
H282 C308 0.950 . S
H283 C310 0.950 . S
H284 C313 0.950 . S
H285 C314 0.950 . S
H286 C316 0.950 . S
H287 C317 0.950 . S
C288 H270 0.951 . S
C288 C289 1.366 . S
C288 C290 1.388 . S
C289 C288 1.366 . S
C289 C293 1.385 1_455 S
C290 H271 0.951 . S
C290 C288 1.388 . S
C290 C291 1.366 . S
C291 C290 1.366 . S
C291 C292 1.414 1_455 S
C291 C294 1.499 . S
C292 H272 0.950 . S
C292 C291 1.414 1_655 S
C292 C293 1.374 . S
C293 H273 0.950 . S
C293 C289 1.385 1_655 S
C293 C292 1.374 . S
C294 C291 1.499 . S
C294 C295 1.373 1_455 S
C294 C296 1.389 . S
C295 H274 0.950 . S
C295 C294 1.373 1_655 S
C295 C311 1.377 1_655 S
C296 C294 1.389 . S
C296 C297 1.524 . S
C296 C310 1.377 . S
C297 C296 1.524 . S
C297 C298 1.397 . S
C297 C302 1.363 . S
C298 H275 0.950 1_455 S
C298 C297 1.397 . S
C298 C299 1.334 . S
C299 H276 0.950 1_455 S
C299 C298 1.334 . S
C299 C300 1.287 . S
C300 C299 1.287 . S
C300 C301 1.524 . S
C300 H319 0.913 . S
C301 H277 0.950 . S
C301 C300 1.524 . S
C301 C302 1.415 . S
C302 H278 0.950 . S
C302 C297 1.363 . S
C302 C301 1.415 . S
C303 H279 0.951 . S
C303 C304 1.366 1_655 S
C303 C305 1.388 . S
C304 C303 1.366 1_455 S
C304 C308 1.385 . S
C305 H280 0.951 . S
C305 C303 1.388 . S
C305 C306 1.366 1_655 S
C306 C305 1.366 1_455 S
C306 C307 1.414 . S
C306 C309 1.499 . S
C307 H281 0.950 . S
C307 C306 1.414 . S
C307 C308 1.374 . S
C308 H282 0.950 . S
C308 C304 1.385 . S
C308 C307 1.374 . S
C309 C306 1.499 . S
C309 C310 1.373 . S
C309 C311 1.389 . S
C310 H283 0.950 . S
C310 C296 1.377 . S
C310 C309 1.373 . S
C311 C295 1.377 1_455 S
C311 C309 1.389 . S
C311 C312 1.524 1_455 S
C312 C311 1.524 1_655 S
C312 C313 1.397 1_655 S
C312 C317 1.363 . S
C313 H284 0.950 . S
C313 C312 1.397 1_455 S
C313 C314 1.334 . S
C314 H285 0.950 . S
C314 C313 1.334 . S
C314 C315 1.287 1_455 S
C315 C314 1.287 1_655 S
C315 C316 1.524 . S
C315 H318 0.999 . S
C316 H286 0.950 . S
C316 C315 1.524 . S
C316 C317 1.415 . S
C317 H287 0.950 . S
C317 C312 1.363 . S
C317 C316 1.415 . S
H318 C315 0.999 . S
H319 C300 0.913 . S
H320 C338 0.951 . S
H321 C340 0.951 . S
H322 C342 0.950 . S
H323 C343 0.950 . S
H324 C345 0.950 . S
H325 C348 0.950 . S
H326 C349 0.950 . S
H327 C351 0.950 . S
H328 C352 0.950 . S
H329 C353 0.951 . S
H330 C355 0.951 . S
H331 C357 0.961 . S
H332 C358 0.950 1_545 S
H333 C360 0.950 . S
H334 C363 0.950 . S
H335 C364 0.950 . S
H336 C366 0.950 . S
H337 C367 0.950 1_565 S
C338 H320 0.951 . S
C338 C339 1.366 1_545 S
C338 C340 1.388 . S
C339 C338 1.366 1_565 S
C339 C343 1.385 . S
C340 H321 0.951 . S
C340 C338 1.388 . S
C340 C341 1.366 1_545 S
C341 C340 1.366 1_565 S
C341 C342 1.414 . S
C341 C344 1.499 . S
C342 H322 0.950 . S
C342 C341 1.414 . S
C342 C343 1.374 . S
C343 H323 0.950 . S
C343 C339 1.385 . S
C343 C342 1.374 . S
C344 C341 1.499 . S
C344 C345 1.373 1_565 S
C344 C346 1.389 . S
C345 H324 0.950 . S
C345 C344 1.373 1_545 S
C345 C361 1.377 . S
C346 C344 1.389 . S
C346 C347 1.524 . S
C346 C360 1.377 . S
C347 C346 1.524 . S
C347 C348 1.397 . S
C347 C352 1.363 . S
C348 H325 0.950 . S
C348 C347 1.397 . S
C348 C349 1.334 . S
C349 H326 0.950 . S
C349 C348 1.334 . S
C349 C350 1.287 . S
C350 C349 1.287 . S
C350 C351 1.524 . S
C350 H369 0.913 . S
C351 H327 0.950 . S
C351 C350 1.524 . S
C351 C352 1.415 . S
C352 H328 0.950 . S
C352 C347 1.363 . S
C352 C351 1.415 . S
C353 H329 0.951 . S
C353 C354 1.366 . S
C353 C355 1.388 . S
C354 C353 1.366 . S
C354 C358 1.385 . S
C355 H330 0.951 . S
C355 C353 1.388 . S
C355 C356 1.366 . S
C356 C355 1.366 . S
C356 C357 1.406 1_565 S
C356 C359 1.499 . S
C357 H331 0.961 . S
C357 C356 1.406 1_545 S
C357 C358 1.372 1_545 S
C358 H332 0.950 1_565 S
C358 C354 1.385 . S
C358 C357 1.372 1_565 S
C359 C356 1.499 . S
C359 C360 1.373 . S
C359 C361 1.389 1_565 S
C360 H333 0.950 . S
C360 C346 1.377 . S
C360 C359 1.373 . S
C361 C345 1.377 . S
C361 C359 1.389 1_545 S
C361 C362 1.524 . S
C362 C361 1.524 . S
C362 C363 1.397 . S
C362 C367 1.363 . S
C363 H334 0.950 . S
C363 C362 1.397 . S
C363 C364 1.334 . S
C364 H335 0.950 . S
C364 C363 1.334 . S
C364 C365 1.287 . S
C365 C364 1.287 . S
C365 C366 1.524 . S
C365 H368 0.999 . S
C366 H336 0.950 . S
C366 C365 1.524 . S
C366 C367 1.415 . S
C367 H337 0.950 1_545 S
C367 C362 1.363 . S
C367 C366 1.415 . S
H368 C365 0.999 . S
H369 C350 0.913 . S
H370 C388 0.951 . S
H371 C390 0.951 . S
H372 C392 0.950 . S
H373 C393 0.950 . S
H374 C395 0.950 . S
H375 C398 0.950 1_455 S
H376 C399 0.950 . S
H377 C401 0.950 . S
H378 C402 0.950 . S
H379 C403 0.951 . S
H380 C405 0.951 . S
H381 C407 0.950 . S
H382 C408 0.950 . S
H383 C410 0.950 . S
H384 C413 0.950 . S
H385 C414 0.950 . S
H386 C416 0.950 . S
H387 C417 0.950 . S
C388 H370 0.951 . S
C388 C389 1.366 1_655 S
C388 C390 1.388 . S
C389 C388 1.366 1_455 S
C389 C393 1.385 . S
C390 H371 0.951 . S
C390 C388 1.388 . S
C390 C391 1.366 1_655 S
C391 C390 1.366 1_455 S
C391 C392 1.414 . S
C391 C394 1.499 . S
C392 H372 0.950 . S
C392 C391 1.414 . S
C392 C393 1.374 . S
C393 H373 0.950 . S
C393 C389 1.385 . S
C393 C392 1.374 . S
C394 C391 1.499 . S
C394 C395 1.373 . S
C394 C396 1.389 1_455 S
C395 H374 0.950 . S
C395 C394 1.373 . S
C395 C411 1.377 . S
C396 C394 1.389 1_655 S
C396 C397 1.524 . S
C396 C410 1.377 . S
C397 C396 1.524 . S
C397 C398 1.397 . S
C397 C402 1.363 . S
C398 H375 0.950 1_655 S
C398 C397 1.397 . S
C398 C399 1.334 . S
C399 H376 0.950 . S
C399 C398 1.334 . S
C399 C400 1.287 . S
C400 C399 1.287 . S
C400 C401 1.524 . S
C400 H419 0.913 . S
C401 H377 0.950 . S
C401 C400 1.524 . S
C401 C402 1.415 . S
C402 H378 0.950 . S
C402 C397 1.363 . S
C402 C401 1.415 . S
C403 H379 0.951 . S
C403 C404 1.366 . S
C403 C405 1.388 . S
C404 C403 1.366 . S
C404 C408 1.385 1_455 S
C405 H380 0.951 . S
C405 C403 1.388 . S
C405 C406 1.366 . S
C406 C405 1.366 . S
C406 C407 1.414 1_455 S
C406 C409 1.499 . S
C407 H381 0.950 . S
C407 C406 1.414 1_655 S
C407 C408 1.374 . S
C408 H382 0.950 . S
C408 C404 1.385 1_655 S
C408 C407 1.374 . S
C409 C406 1.499 . S
C409 C410 1.373 1_455 S
C409 C411 1.389 . S
C410 H383 0.950 . S
C410 C396 1.377 . S
C410 C409 1.373 1_655 S
C411 C395 1.377 . S
C411 C409 1.389 . S
C411 C412 1.524 . S
C412 C411 1.524 . S
C412 C413 1.397 . S
C412 C417 1.363 . S
C413 H384 0.950 . S
C413 C412 1.397 . S
C413 C414 1.334 . S
C414 H385 0.950 . S
C414 C413 1.334 . S
C414 C415 1.287 . S
C415 C414 1.287 . S
C415 C416 1.524 . S
C415 H418 0.999 . S
C416 H386 0.950 . S
C416 C415 1.524 . S
C416 C417 1.415 . S
C417 H387 0.950 . S
C417 C412 1.363 . S
C417 C416 1.415 . S
H418 C415 0.999 . S
H419 C400 0.913 . S
H420 C438 0.951 . S
H421 C440 0.951 . S
H422 C442 0.950 . S
H423 C443 0.950 . S
H424 C445 0.950 . S
H425 C448 0.950 . S
H426 C449 0.950 . S
H427 C451 0.950 . S
H428 C452 0.934 1_545 S
H429 C453 0.946 1_565 S
H430 C455 0.967 . S
H431 C457 0.950 . S
H432 C458 0.950 . S
H433 C460 0.948 1_565 S
H434 C463 0.950 . S
H435 C464 0.950 . S
H436 C466 0.950 . S
H437 C467 0.950 1_565 S
C438 H420 0.951 . S
C438 C439 1.366 . S
C438 C440 1.388 . S
C439 C438 1.366 . S
C439 C443 1.385 1_545 S
C440 H421 0.951 . S
C440 C438 1.388 . S
C440 C441 1.366 . S
C441 C440 1.366 . S
C441 C442 1.414 1_545 S
C441 C444 1.499 . S
C442 H422 0.950 . S
C442 C441 1.414 1_565 S
C442 C443 1.374 . S
C443 H423 0.950 . S
C443 C439 1.385 1_565 S
C443 C442 1.374 . S
C444 C441 1.499 . S
C444 C445 1.373 . S
C444 C446 1.385 1_545 S
C445 H424 0.950 . S
C445 C444 1.373 . S
C445 C461 1.377 . S
C446 C444 1.385 1_565 S
C446 C447 1.535 . S
C446 C460 1.373 1_565 S
C447 C446 1.535 . S
C447 C448 1.397 . S
C447 C452 1.371 . S
C448 H425 0.950 . S
C448 C447 1.397 . S
C448 C449 1.334 . S
C449 H426 0.950 . S
C449 C448 1.334 . S
C449 C450 1.287 . S
C450 C449 1.287 . S
C450 C451 1.524 . S
C450 H469 0.913 . S
C451 H427 0.950 . S
C451 C450 1.524 . S
C451 C452 1.423 . S
C452 H428 0.934 1_565 S
C452 C447 1.371 . S
C452 C451 1.423 . S
C453 H429 0.946 1_545 S
C453 C454 1.371 . S
C453 C455 1.387 1_545 S
C454 C453 1.371 . S
C454 C458 1.385 . S
C455 H430 0.967 . S
C455 C453 1.387 1_565 S
C455 C456 1.351 1_565 S
C456 C455 1.351 1_545 S
C456 C457 1.414 . S
C456 C459 1.499 . S
C457 H431 0.950 . S
C457 C456 1.414 . S
C457 C458 1.374 . S
C458 H432 0.950 . S
C458 C454 1.385 . S
C458 C457 1.374 . S
C459 C456 1.499 . S
C459 C460 1.373 . S
C459 C461 1.389 . S
C460 H433 0.948 1_545 S
C460 C446 1.373 1_545 S
C460 C459 1.373 . S
C461 C445 1.377 . S
C461 C459 1.389 . S
C461 C462 1.524 . S
C462 C461 1.524 . S
C462 C463 1.397 . S
C462 C467 1.363 . S
C463 H434 0.950 . S
C463 C462 1.397 . S
C463 C464 1.334 . S
C464 H435 0.950 . S
C464 C463 1.334 . S
C464 C465 1.287 . S
C465 C464 1.287 . S
C465 C466 1.524 . S
C465 H468 0.999 . S
C466 H436 0.950 . S
C466 C465 1.524 . S
C466 C467 1.415 . S
C467 H437 0.950 1_545 S
C467 C462 1.363 . S
C467 C466 1.415 . S
H468 C465 0.999 . S
H469 C450 0.913 . S
H470 C488 0.951 . S
H471 C490 0.951 . S
H472 C492 0.950 . S
H473 C493 0.950 . S
H474 C495 0.950 . S
H475 C498 0.950 . S
H476 C499 0.950 . S
H477 C501 0.950 . S
H478 C502 0.950 . S
H479 C503 0.951 . S
H480 C505 0.951 . S
H481 C507 0.950 . S
H482 C508 0.950 . S
H483 C510 0.950 . S
H484 C513 0.953 1_655 S
H485 C514 0.950 . S
H486 C516 0.950 . S
H487 C517 0.950 . S
C488 H470 0.951 . S
C488 C489 1.366 . S
C488 C490 1.388 . S
C489 C488 1.366 . S
C489 C493 1.385 1_655 S
C490 H471 0.951 . S
C490 C488 1.388 . S
C490 C491 1.366 . S
C491 C490 1.366 . S
C491 C492 1.414 1_655 S
C491 C494 1.499 . S
C492 H472 0.950 . S
C492 C491 1.414 1_455 S
C492 C493 1.374 . S
C493 H473 0.950 . S
C493 C489 1.385 1_455 S
C493 C492 1.374 . S
C494 C491 1.499 . S
C494 C495 1.373 1_655 S
C494 C496 1.389 . S
C495 H474 0.950 . S
C495 C494 1.373 1_455 S
C495 C511 1.377 . S
C496 C494 1.389 . S
C496 C497 1.524 . S
C496 C510 1.377 . S
C497 C496 1.524 . S
C497 C498 1.397 . S
C497 C502 1.363 . S
C498 H475 0.950 . S
C498 C497 1.397 . S
C498 C499 1.334 . S
C499 H476 0.950 . S
C499 C498 1.334 . S
C499 C500 1.287 . S
C500 C499 1.287 . S
C500 C501 1.524 . S
C500 H519 0.913 . S
C501 H477 0.950 . S
C501 C500 1.524 . S
C501 C502 1.415 . S
C502 H478 0.950 . S
C502 C497 1.363 . S
C502 C501 1.415 . S
C503 H479 0.951 . S
C503 C504 1.366 1_455 S
C503 C505 1.388 . S
C504 C503 1.366 1_655 S
C504 C508 1.385 . S
C505 H480 0.951 . S
C505 C503 1.388 . S
C505 C506 1.366 1_455 S
C506 C505 1.366 1_655 S
C506 C507 1.414 . S
C506 C509 1.499 . S
C507 H481 0.950 . S
C507 C506 1.414 . S
C507 C508 1.374 . S
C508 H482 0.950 . S
C508 C504 1.385 . S
C508 C507 1.374 . S
C509 C506 1.499 . S
C509 C510 1.373 . S
C509 C511 1.389 1_655 S
C510 H483 0.950 . S
C510 C496 1.377 . S
C510 C509 1.373 . S
C511 C495 1.377 . S
C511 C509 1.389 1_455 S
C511 C512 1.524 . S
C512 C511 1.524 . S
C512 C513 1.397 . S
C512 C517 1.363 . S
C513 H484 0.953 1_455 S
C513 C512 1.397 . S
C513 C514 1.334 . S
C514 H485 0.950 . S
C514 C513 1.334 . S
C514 C515 1.287 . S
C515 C514 1.287 . S
C515 C516 1.524 . S
C515 H518 0.999 . S
C516 H486 0.950 . S
C516 C515 1.524 . S
C516 C517 1.415 . S
C517 H487 0.950 . S
C517 C512 1.363 . S
C517 C516 1.415 . S
H518 C515 0.999 . S
H519 C500 0.913 . S
C154 C101 1.605 . S
C139 C15 1.599 . S
C204 C112 1.536 . S
C189 C68 1.597 . S
C254 C100 1.605 . S
C239 C8 1.606 1_565 S
C304 C113 1.536 . S
C289 C47 1.598 1_455 S
C354 C115 1.605 . S
C339 C22 1.607 . S
C404 C99 1.536 . S
C389 C61 1.597 . S
C454 C114 1.605 . S
C439 C1 1.612 1_545 S
C489 C54 1.599 1_655 S
C504 C98 1.536 . S
