# Generated by pormake.
# Topology tsx, (6,3)-cn, num edge types: 1
# Building blocks:
#     Node 0, Type 0, BuildingBlock: CIFDUS_clean_sbu_1, # of connection points: 6
#     Node 1, Type 0, BuildingBlock: CIFDUS_clean_sbu_1, # of connection points: 6
#     Node 2, Type 1, BuildingBlock: KAKCAD_clean_linker_0, # of connection points: 3
#     Node 3, Type 1, BuildingBlock: KAKCAD_clean_linker_0, # of connection points: 3
#     Node 4, Type 1, BuildingBlock: KAKCAD_clean_linker_0, # of connection points: 3
#     Node 5, Type 1, BuildingBlock: KAKCAD_clean_linker_0, # of connection points: 3
#     Edge 6, Type (0, 1), BuildingBlock: XIVTED_clean_linker_0, # of connection points: 2
#     Edge 7, Type (0, 1), BuildingBlock: XIVTED_clean_linker_0, # of connection points: 2
#     Edge 8, Type (0, 1), BuildingBlock: XIVTED_clean_linker_0, # of connection points: 2
#     Edge 9, Type (0, 1), BuildingBlock: XIVTED_clean_linker_0, # of connection points: 2
#     Edge 10, Type (0, 1), BuildingBlock: XIVTED_clean_linker_0, # of connection points: 2
#     Edge 11, Type (0, 1), BuildingBlock: XIVTED_clean_linker_0, # of connection points: 2
#     Edge 12, Type (0, 1), BuildingBlock: XIVTED_clean_linker_0, # of connection points: 2
#     Edge 13, Type (0, 1), BuildingBlock: XIVTED_clean_linker_0, # of connection points: 2
#     Edge 14, Type (0, 1), BuildingBlock: XIVTED_clean_linker_0, # of connection points: 2
#     Edge 15, Type (0, 1), BuildingBlock: XIVTED_clean_linker_0, # of connection points: 2
#     Edge 16, Type (0, 1), BuildingBlock: XIVTED_clean_linker_0, # of connection points: 2
#     Edge 17, Type (0, 1), BuildingBlock: XIVTED_clean_linker_0, # of connection points: 2
# Relax obj value: 0.127
# Max RMSD: 0.155
# Mean RMSD: 0.118
data_MOF--net-tsx--node1-CIFDUS_clean_sbu_1--node2-KAKCAD_clean_linker_0--edge1-XIVTED_clean_linker_0
_symmetry_space_group_name_H-M    P1
_symmetry_Int_Tables_number       1
_symmetry_cell_setting            triclinic
loop_
_symmetry_equiv_pos_as_xyz
'x, y, z'
_cell_length_a     21.565955
_cell_length_b     27.544862
_cell_length_c     45.060156
_cell_angle_alpha  97.44651
_cell_angle_beta   94.15309
_cell_angle_gamma 91.584644
loop_
_atom_site_label
_atom_site_type_symbol
_atom_site_fract_x
_atom_site_fract_y
_atom_site_fract_z
_atom_type_partial_charge
O0 O 1.0188 0.10015 0.01326 0.0
Mn1 Mn 0.07057 0.03623 0.00841 0.0
O2 O 0.92118 0.07752 0.99386 0.0
Mn3 Mn 0.93854 0.01561 0.97608 0.0
O4 O 0.1204 0.97127 0.00331 0.0
O5 O 0.14919 0.07943 0.01553 0.0
Mn6 Mn 0.20306 0.05061 0.03831 0.0
O7 O 0.06861 0.03265 0.05451 0.0
O8 O 0.22057 -0.00823 0.01692 0.0
O9 O 0.07312 0.03815 0.96187 0.0
O10 O 0.97803 0.01169 0.94092 0.0
O11 O 0.24319 0.10722 0.03169 0.0
O12 O 0.16761 0.04543 0.07411 0.0
C13 C 0.95281 0.95875 0.00371 0.0
C14 C 0.96107 0.10908 0.0077 0.0
C15 C 0.17806 0.96053 0.00566 0.0
C16 C 0.19167 0.114 0.01644 0.0
C17 C 0.11009 0.03627 0.07678 0.0
C18 C 0.03474 0.02421 0.93886 0.0
O19 O 0.99248 -0.00619 1.00178 0.0
O20 O 0.90144 0.96021 0.98724 0.0
O21 O 0.50371 0.61011 0.52006 0.0
Mn22 Mn 0.55245 0.5443 0.51793 0.0
O23 O 0.40398 0.58858 0.50412 0.0
Mn24 Mn 0.41934 0.52652 0.48606 0.0
O25 O 0.60057 0.47879 0.51586 0.0
O26 O 0.63318 0.58436 0.52439 0.0
Mn27 Mn 0.68038 0.56225 0.55308 0.0
O28 O 0.54611 0.54527 0.56445 0.0
O29 O 0.69473 0.49729 0.54025 0.0
O30 O 0.55691 0.54193 0.4713 0.0
O31 O 0.45924 0.52242 0.45085 0.0
O32 O 0.72664 0.61209 0.54108 0.0
O33 O 0.63855 0.57277 0.58748 0.0
C34 C 0.43381 0.46867 0.51307 0.0
C35 C 0.44592 0.6202 0.51585 0.0
C36 C 0.65491 0.46668 0.52545 0.0
C37 C 0.67815 0.61587 0.52296 0.0
C38 C 0.58177 0.55955 0.58832 0.0
C39 C 0.51713 0.53067 0.44849 0.0
O40 O 0.47311 0.50396 0.5114 0.0
O41 O 0.38188 0.47102 0.49719 0.0
C42 C 0.0403 0.95542 0.30323 0.0
C43 C 0.03406 -0.00249 0.28876 0.0
C44 C 0.03934 0.95867 0.33451 0.0
C45 C 0.03278 0.00418 0.35198 0.0
C46 C 0.02721 0.0462 0.33733 0.0
C47 C 0.02736 0.04284 0.30617 0.0
C48 C 0.03176 0.00858 0.38532 0.0
C49 C 0.07038 0.98089 0.40258 0.0
C50 C 0.07197 0.98804 0.43416 0.0
C51 C 0.03492 0.02374 0.44861 0.0
C52 C 0.99539 0.0513 0.43162 0.0
C53 C 0.99325 0.04242 0.40014 0.0
C54 C 0.95654 0.09022 0.44594 0.0
C55 C 0.92271 0.08313 0.4707 0.0
C56 C 0.95013 0.13412 0.43335 0.0
C57 C 0.90844 0.16874 0.44396 0.0
C58 C 0.87271 0.16091 0.46781 0.0
C59 C 0.11291 0.95798 0.4517 0.0
C60 C 0.10787 0.9067 0.44566 0.0
C61 C 0.15906 0.97994 0.47332 0.0
C62 C 0.20091 0.95094 0.48782 0.0
C63 C 0.19611 0.89958 0.48147 0.0
C64 C 0.14861 0.87781 0.46059 0.0
C65 C 0.88129 0.11838 0.48165 0.0
H66 H 0.04545 0.91995 0.29033 0.0
H67 H 0.04312 0.92548 0.34492 0.0
H68 H 0.02381 0.08211 0.34997 0.0
H69 H 0.02392 0.07607 0.29576 0.0
H70 H 0.10078 0.95473 0.3916 0.0
H71 H 0.96098 0.0621 0.38698 0.0
H72 H 0.03699 0.02998 0.47292 0.0
H73 H 0.92656 0.04971 0.48088 0.0
H74 H 0.97682 0.1415 0.41486 0.0
H75 H 0.90411 0.20183 0.43344 0.0
H76 H 0.07256 0.88895 0.42917 0.0
H77 H 0.16389 0.01947 0.47829 0.0
H78 H 0.85457 0.1117 0.50026 0.0
H79 H 0.14409 0.83833 0.45517 0.0
H80 H 0.23698 0.96854 0.50394 0.0
C81 C 0.08492 0.06796 0.70944 0.0
C82 C 0.09014 0.02285 0.72068 0.0
C83 C 0.08114 0.06998 0.67854 0.0
C84 C 0.08236 0.02695 0.65806 0.0
C85 C 0.08716 0.98178 0.6692 0.0
C86 C 0.09121 0.97976 0.70015 0.0
C87 C 0.08072 0.02968 0.62528 0.0
C88 C 0.11708 0.06568 0.61466 0.0
C89 C 0.11636 0.06946 0.5839 0.0
C90 C 0.07812 0.03695 0.56333 0.0
C91 C 0.04115 0.00071 0.57363 0.0
C92 C 0.04323 -0.00311 0.60454 0.0
C93 C 0.99914 0.967 0.55255 0.0
C94 C 0.94644 0.98447 0.53771 0.0
C95 C 1.00823 0.91647 0.54959 0.0
C96 C 0.9643 0.88368 0.53292 0.0
C97 C 0.90973 0.90073 0.51937 0.0
C98 C 0.15677 0.10762 0.57413 0.0
C99 C 0.15348 0.15637 0.58732 0.0
C100 C 0.20385 0.09499 0.55492 0.0
C101 C 0.2491 0.13023 0.55036 0.0
C102 C 0.24761 0.17868 0.5648 0.0
C103 C 0.19806 0.19154 0.58256 0.0
C104 C 0.90167 0.95153 0.5215 0.0
H105 H 0.08258 0.10175 0.72449 0.0
H106 H 0.07661 0.10531 0.67064 0.0
H107 H 0.08906 0.94809 0.65401 0.0
H108 H 0.09594 0.94442 0.708 0.0
H109 H 0.14742 0.09037 0.6304 0.0
H110 H 1.01425 0.96921 0.61246 0.0
H111 H 0.07697 0.0399 0.53953 0.0
H112 H 0.9385 0.0234 0.53986 0.0
H113 H 0.04849 0.9023 0.56095 0.0
H114 H 0.97149 0.84476 0.53198 0.0
H115 H 0.11724 0.16696 0.60206 0.0
H116 H 0.20749 0.05743 0.54472 0.0
H117 H 0.86012 0.96564 0.51123 0.0
H118 H 0.19408 0.22877 0.59321 0.0
H119 H 0.28651 0.11903 0.53651 0.0
C120 C 0.51285 0.45987 0.80715 0.0
C121 C 0.50994 0.50752 0.79911 0.0
C122 C 0.50917 0.45195 0.83713 0.0
C123 C 0.50193 0.49148 0.85955 0.0
C124 C 0.49894 0.53897 0.85138 0.0
C125 C 0.50267 0.54685 0.82161 0.0
C126 C 0.49728 0.48406 0.89147 0.0
C127 C 0.53824 0.45398 0.90569 0.0
C128 C 0.53813 0.45197 0.93676 0.0
C129 C 0.49589 0.47981 0.95357 0.0
C130 C 0.45323 0.50876 0.93945 0.0
C131 C 0.45424 0.51032 0.90845 0.0
C132 C 0.41161 0.54176 0.95683 0.0
C133 C 0.35108 0.54893 0.94476 0.0
C134 C 0.43525 0.5721 0.9829 0.0
C135 C 0.40194 0.61217 0.9945 0.0
C136 C 0.34454 0.6227 0.98019 0.0
C137 C 0.58373 0.42193 0.95167 0.0
C138 C 0.58978 0.37256 0.94024 0.0
C139 C 0.62263 0.44261 0.9768 0.0
C140 C 0.66775 0.41458 0.98983 0.0
C141 C 0.67355 0.36517 0.97836 0.0
C142 C 0.63383 0.34434 0.95363 0.0
C143 C 0.31797 0.58908 0.95623 0.0
H144 H 0.51902 0.42884 0.79039 0.0
H145 H 0.51141 0.41493 0.84271 0.0
H146 H 0.49436 0.57038 0.86811 0.0
H147 H 0.49958 0.58394 0.81621 0.0
H148 H 0.57232 0.434 0.89292 0.0
H149 H 0.42275 0.53372 0.89758 0.0
H150 H 0.49606 0.47873 0.97753 0.0
H151 H 0.33105 0.5254 0.92507 0.0
H152 H 0.48152 0.56735 0.9929 0.0
H153 H 0.42296 0.63667 0.01353 0.0
H154 H 0.56019 0.35576 0.92098 0.0
H155 H 0.61898 0.4807 0.98595 0.0
H156 H 0.27385 0.59579 0.9447 0.0
H157 H 0.6376 0.30632 0.94435 0.0
H158 H 0.69773 0.4313 0.00897 0.0
C159 C 0.58859 0.56843 0.22123 0.0
C160 C 0.58337 0.52198 0.23077 0.0
C161 C 0.58618 0.57319 0.1907 0.0
C162 C 0.57838 0.53167 0.16887 0.0
C163 C 0.5731 0.48519 0.17828 0.0
C164 C 0.57579 0.48037 0.2089 0.0
C165 C 0.57672 0.53737 0.13648 0.0
C166 C 0.61951 0.56966 0.12659 0.0
C167 C 0.61666 0.57894 0.09657 0.0
C168 C 0.57185 0.55274 0.0757 0.0
C169 C 0.52916 0.51948 0.08524 0.0
C170 C 0.5317 0.51224 0.11562 0.0
C171 C 0.48048 0.49242 0.06411 0.0
C172 C 0.41756 0.50102 0.06787 0.0
C173 C 0.49602 0.45344 0.04307 0.0
C174 C 0.44941 0.42124 0.02773 0.0
C175 C 0.38621 0.42771 0.03296 0.0
C176 C 0.65957 0.61744 0.08813 0.0
C177 C 0.67492 0.6599 0.10856 0.0
C178 C 0.68747 0.61177 0.0607 0.0
C179 C 0.73084 0.6472 0.05432 0.0
C180 C 0.74758 0.68892 0.07531 0.0
C181 C 0.71879 0.69459 0.10248 0.0
C182 C 0.37093 0.46942 0.05221 0.0
H183 H 0.59302 0.60135 0.23734 0.0
H184 H 0.58943 0.6096 0.18415 0.0
H185 H 0.56777 0.45251 0.16198 0.0
H186 H 0.57232 0.44397 0.21542 0.0
H187 H 0.65549 0.58777 0.14258 0.0
H188 H 0.498 0.48738 0.12305 0.0
H189 H 0.56861 0.5593 0.05245 0.0
H190 H 0.40458 0.53113 0.08389 0.0
H191 H 0.54437 0.44606 0.03993 0.0
H192 H 0.46351 0.38962 0.01328 0.0
H193 H 0.65335 0.66637 0.12961 0.0
H194 H 0.67683 0.57955 0.04445 0.0
H195 H 0.32295 0.47669 0.05619 0.0
H196 H 0.73068 0.72554 0.11951 0.0
H197 H 0.75099 0.64188 0.03287 0.0
H198 H 0.1242 0.19135 0.03714 0.0
H199 H 0.37772 0.36544 0.97918 0.0
H200 H 0.25004 0.14315 0.97042 0.0
H201 H 0.28374 0.39917 0.06042 0.0
H202 H 0.30824 0.29298 0.96538 0.0
H203 H 0.15582 0.27659 0.03377 0.0
C204 C 0.15588 0.19887 0.02056 0.0
C205 C 0.18444 0.16037 0.00393 0.0
C206 C 0.3022 0.31689 0.98594 0.0
C207 C 0.22291 0.25729 1.00086 0.0
C208 C 0.34223 0.35814 0.99399 0.0
C209 C 0.33777 0.38843 0.02135 0.0
C210 C 0.25704 0.30574 0.00526 0.0
C211 C 0.28932 0.37748 0.03906 0.0
C212 C 0.17487 0.24747 0.01904 0.0
C213 C 0.22665 0.17198 0.98342 0.0
N214 N 0.25158 0.33687 0.0309 0.0
N215 N 0.2456 0.21933 0.98287 0.0
H216 H 0.10586 0.87471 0.99905 0.0
H217 H 0.40691 0.71123 0.99226 0.0
H218 H 0.29412 0.92989 0.99545 0.0
H219 H 0.22074 0.64635 0.98202 0.0
H220 H 0.36377 0.7919 0.997 0.0
H221 H 0.1439 0.79081 0.99379 0.0
C222 C 0.15486 0.8692 0.99668 0.0
C223 C 0.19691 0.90943 0.99792 0.0
C224 C 0.33209 0.76015 0.99386 0.0
C225 C 0.24067 0.81412 0.99248 0.0
C226 C 0.35683 0.71385 0.9916 0.0
C227 C 0.31752 0.67169 0.98691 0.0
C228 C 0.2673 0.76484 0.99137 0.0
C229 C 0.25283 0.67783 0.98541 0.0
C230 C 0.17659 0.82141 0.99393 0.0
C231 C 0.25999 0.90016 0.99497 0.0
N232 N 0.22966 0.72358 0.98758 0.0
N233 N 0.27983 0.85371 0.9926 0.0
H234 H 0.93436 0.96411 0.06272 0.0
H235 H 0.85218 0.67661 0.04334 0.0
H236 H 0.98114 0.86493 0.98642 0.0
H237 H 0.74995 0.78849 0.09311 0.0
H238 H 0.92526 0.7405 0.03242 0.0
H239 H 0.89812 0.89402 0.08611 0.0
C240 C 0.9401 0.92734 0.05167 0.0
C241 C 0.96103 0.91995 0.02281 0.0
C242 C 0.88722 0.75067 0.04611 0.0
C243 C 0.91751 0.84014 0.04859 0.0
C244 C 0.84493 0.71435 0.05206 0.0
C245 C 0.79415 0.72683 0.06909 0.0
C246 C 0.87929 0.79977 0.05759 0.0
C247 C 0.78857 0.7765 0.08034 0.0
C248 C 0.9184 0.88744 0.06472 0.0
C249 C 0.96584 0.8718 0.00891 0.0
N250 N 0.83037 0.81097 0.07433 0.0
N251 N 0.94317 0.8336 0.02169 0.0
H252 H 0.87663 0.13167 0.04804 0.0
H253 H 0.65391 0.27899 0.99997 0.0
H254 H 0.98739 0.19504 0.98609 0.0
H255 H 0.80003 0.38177 0.98631 0.0
H256 H 0.73205 0.22416 0.01673 0.0
H257 H 0.81023 0.20233 0.04989 0.0
C258 C 0.888 0.1614 0.03556 0.0
C259 C 0.93727 0.15777 0.01688 0.0
C260 C 0.74736 0.25927 0.01096 0.0
C261 C 0.85925 0.23696 0.01722 0.0
C262 C 0.70264 0.29029 1.00107 0.0
C263 C 0.72071 0.33482 0.99184 0.0
C264 C 0.81091 0.27252 0.01128 0.0
C265 C 0.78443 0.34777 0.99349 0.0
C266 C 0.84944 0.20122 0.03614 0.0
C267 C 0.94989 0.19685 1.00089 0.0
N268 N 0.82746 0.31627 1.00248 0.0
N269 N 0.9103 0.2346 1.00097 0.0
H270 H 0.61655 0.70072 0.53073 0.0
H271 H 0.91906 0.81857 0.47894 0.0
H272 H 0.74474 0.62231 0.47517 0.0
H273 H 0.78626 0.90089 0.52989 0.0
H274 H 0.84137 0.75152 0.46582 0.0
H275 H 0.65974 0.77809 0.51821 0.0
C276 C 0.65137 0.69973 0.51451 0.0
C277 C 0.67735 0.6553 0.50397 0.0
C278 C 0.82855 0.78458 0.47937 0.0
C279 C 0.72916 0.74334 0.49074 0.0
C280 C 0.87304 0.82283 0.48688 0.0
C281 C 0.85938 0.86496 0.50591 0.0
C282 C 0.77028 0.78794 0.49151 0.0
C283 C 0.79878 0.86891 0.51526 0.0
C284 C 0.67689 0.74395 0.50776 0.0
C285 C 0.72345 0.65596 0.48366 0.0
N286 N 0.75691 0.83044 0.50853 0.0
N287 N 0.749 0.6993 0.47829 0.0
H288 H 0.73477 0.4198 0.56032 0.0
H289 H 0.78498 0.20214 0.43322 0.0
H290 H 0.6183 0.39671 0.4774 0.0
H291 H 0.85746 0.20378 0.52507 0.0
H292 H 0.71995 0.27079 0.449 0.0
H293 H 0.77639 0.33894 0.54836 0.0
C294 C 0.7176 0.39746 0.53962 0.0
C295 C 0.67367 0.41528 0.51958 0.0
C296 C 0.74932 0.25571 0.46579 0.0
C297 C 0.72179 0.32252 0.50558 0.0
C298 C 0.78663 0.21671 0.45679 0.0
C299 C 0.82713 0.19771 0.47786 0.0
C300 C 0.75325 0.27641 0.49603 0.0
C301 C 0.82693 0.21741 0.50813 0.0
C302 C 0.74122 0.35114 0.53289 0.0
C303 C 0.65238 0.38444 0.49336 0.0
N304 N 0.79131 0.25621 0.51625 0.0
N305 N 0.6775 0.33979 0.48683 0.0
H306 H 0.4797 0.3825 0.49081 0.0
H307 H 0.29985 0.25027 0.60814 0.0
H308 H 0.40554 0.45808 0.56937 0.0
H309 H 0.31004 0.19193 0.515 0.0
H310 H 0.37114 0.31768 0.6014 0.0
H311 H 0.45351 0.30398 0.50794 0.0
C312 C 0.46097 0.38246 0.51249 0.0
C313 C 0.44538 0.42647 0.52901 0.0
C314 C 0.35843 0.28968 0.58259 0.0
C315 C 0.41343 0.33749 0.54811 0.0
C316 C 0.31721 0.25142 0.58628 0.0
C317 C 0.29732 0.21599 0.56185 0.0
C318 C 0.38057 0.29245 0.55435 0.0
C319 C 0.32356 0.21847 0.53442 0.0
C320 C 0.44519 0.33777 0.52201 0.0
C321 C 0.41939 0.42478 0.55643 0.0
N322 N 0.36321 0.25644 0.53131 0.0
N323 N 0.40329 0.3809 0.56496 0.0
H324 H 0.34754 0.64732 0.54685 0.0
H325 H 0.32364 0.90408 0.48281 0.0
H326 H 0.49345 0.70623 0.49999 0.0
H327 H 0.1705 0.82278 0.5116 0.0
H328 H 0.39533 0.84348 0.49984 0.0
H329 H 0.29335 0.72374 0.54646 0.0
C330 C 0.36898 0.67707 0.5372 0.0
C331 C 0.42479 0.67051 0.52332 0.0
C332 C 0.34618 0.83942 0.50285 0.0
C333 C 0.36185 0.75768 0.52176 0.0
C334 C 0.30538 0.87403 0.49329 0.0
C335 C 0.2411 0.86806 0.49562 0.0
C336 C 0.3224 0.79904 0.51513 0.0
C337 C 0.21966 0.8284 0.50913 0.0
C338 C 0.33777 0.72056 0.53673 0.0
C339 C 0.45058 0.71006 0.51105 0.0
N340 N 0.26009 0.79537 0.5182 0.0
N341 N 0.41823 0.75181 0.51002 0.0
H342 H 0.99486 0.04256 0.10001 0.0
H343 H 0.11824 0.94977 0.25415 0.0
H344 H 0.18512 0.0069 0.12161 0.0
H345 H 0.95903 0.04049 0.24855 0.0
H346 H 0.13117 0.95396 0.20104 0.0
H347 H 0.96998 0.0271 0.15059 0.0
C348 C 0.03123 0.03141 0.11529 0.0
C349 C 0.09234 0.02671 0.10672 0.0
C350 C 0.09308 0.97262 0.21138 0.0
C351 C 0.06403 0.00808 0.16399 0.0
C352 C 0.08541 0.96991 0.24161 0.0
C353 C 0.03782 -0.00486 0.25582 0.0
C354 C 0.05255 0.00036 0.19511 0.0
C355 C 0.99687 0.02107 0.2385 0.0
C356 C 1.01704 0.02265 0.14406 0.0
C357 C 0.13761 0.01181 0.12734 0.0
N358 N 1.00526 0.02317 0.20904 0.0
N359 N 0.12251 0.00295 0.15488 0.0
H360 H 0.998 0.95447 0.89294 0.0
H361 H 0.15058 0.08642 0.76682 0.0
H362 H 0.11819 0.08386 0.91485 0.0
H363 H 0.03372 0.95447 0.74983 0.0
H364 H 0.14685 0.08426 0.8209 0.0
H365 H 1.01991 0.95104 0.8407 0.0
C366 C 0.02946 0.98213 0.88669 0.0
C367 C 0.05571 0.01989 0.90817 0.0
C368 C 0.12256 0.0556 0.80528 0.0
C369 C 0.08062 0.01659 0.84789 0.0
C370 C 0.12425 0.05694 0.77439 0.0
C371 C 0.09211 0.02067 0.7536 0.0
C372 C 0.08836 0.01778 0.81546 0.0
C373 C 0.05979 0.98295 0.76482 0.0
C374 C 0.04202 0.98014 0.85677 0.0
C375 C 0.09692 0.05423 0.8989 0.0
N376 N 0.0585 0.98271 0.79486 0.0
N377 N 0.10751 0.0522 0.86926 0.0
H378 H 0.49091 0.49796 0.60434 0.0
H379 H 0.57616 0.58192 0.77992 0.0
H380 H 0.62326 0.61444 0.64086 0.0
H381 H 0.4579 0.45472 0.74653 0.0
H382 H 0.58473 0.59856 0.72866 0.0
H383 H 0.4678 0.48652 0.65568 0.0
C384 C 0.51405 0.52176 0.6231 0.0
C385 C 0.55918 0.55706 0.61834 0.0
C386 C 0.55671 0.56702 0.73243 0.0
C387 C 0.53383 0.54386 0.67694 0.0
C388 C 0.55156 0.5576 0.76179 0.0
C389 C 0.51604 0.51692 0.76763 0.0
C390 C 0.52629 0.53555 0.70845 0.0
C391 C 0.48625 0.48623 0.74306 0.0
C392 C 0.50136 0.51491 0.65238 0.0
C393 C 0.5885 0.58649 0.64347 0.0
N394 N 0.49203 0.49617 0.71452 0.0
N395 N 0.57555 0.57907 0.67157 0.0
H396 H 0.61806 0.57513 0.42657 0.0
H397 H 0.51107 0.45942 0.25738 0.0
H398 H 0.46265 0.4728 0.40002 0.0
H399 H 0.65362 0.5744 0.27857 0.0
H400 H 0.50434 0.45641 0.31072 0.0
H401 H 0.64256 0.56869 0.37359 0.0
C402 C 0.58959 0.55104 0.40972 0.0
C403 C 0.53769 0.52508 0.41763 0.0
C404 C 0.53741 0.4822 0.30379 0.0
C405 C 0.5654 0.51732 0.35744 0.0
C406 C 0.54164 0.48364 0.27321 0.0
C407 C 0.58269 0.51742 0.26333 0.0
C408 C 0.57421 0.51495 0.32489 0.0
C409 C 0.62042 0.54837 0.28513 0.0
C410 C 0.6034 0.54749 0.37955 0.0
C411 C 0.50241 0.49426 0.39494 0.0
N412 N 0.615 0.54664 0.3149 0.0
N413 N 0.51676 0.49143 0.36602 0.0
loop_
_geom_bond_atom_site_label_1
_geom_bond_atom_site_label_2
_geom_bond_distance
_geom_bond_site_symmetry_2
_ccdc_geom_bond_type
O0 Mn1 2.163 . S
O0 C14 1.244 1_455 S
Mn1 O0 2.163 . S
Mn1 O4 2.160 1_544 S
Mn1 O5 2.221 . S
Mn1 O7 2.163 . S
Mn1 O9 2.160 1_554 S
Mn1 O19 2.221 1_444 S
O2 Mn3 2.087 . S
O2 C14 1.256 1_556 S
Mn3 O2 2.087 . S
Mn3 O10 2.089 . S
Mn3 O19 2.290 1_545 S
Mn3 O20 2.251 1_546 S
O4 Mn1 2.160 1_566 S
O4 C15 1.239 1_556 S
O5 Mn1 2.221 . S
O5 Mn6 2.290 . S
O5 C16 1.278 . S
Mn6 O5 2.290 . S
Mn6 O8 2.089 1_545 S
Mn6 O11 2.251 . S
Mn6 O12 2.087 . S
O7 Mn1 2.163 . S
O7 C17 1.244 . S
O8 Mn6 2.089 1_565 S
O8 C15 1.256 . S
O9 Mn1 2.160 1_556 S
O9 C18 1.239 . S
O10 Mn3 2.089 . S
O10 C18 1.256 1_655 S
O11 Mn6 2.251 . S
O11 C16 1.241 . S
O12 Mn6 2.087 . S
O12 C17 1.256 . S
C13 O19 1.278 1_554 S
C13 O20 1.241 . S
C14 O0 1.244 1_655 S
C14 O2 1.256 1_554 S
C15 O4 1.239 1_554 S
C15 O8 1.256 . S
C16 O5 1.278 . S
C16 O11 1.241 . S
C17 O7 1.244 . S
C17 O12 1.256 . S
C18 O9 1.239 . S
C18 O10 1.256 1_455 S
O19 Mn1 2.221 1_666 S
O19 Mn3 2.290 1_565 S
O19 C13 1.278 1_556 S
O20 Mn3 2.251 1_564 S
O20 C13 1.241 . S
O21 Mn22 2.163 . S
O21 C35 1.244 . S
Mn22 O21 2.163 . S
Mn22 O25 2.160 . S
Mn22 O26 2.221 . S
Mn22 O28 2.163 . S
Mn22 O30 2.160 . S
Mn22 O40 2.221 . S
O23 Mn24 2.087 . S
O23 C35 1.256 . S
Mn24 O23 2.087 . S
Mn24 O31 2.089 . S
Mn24 O40 2.290 . S
Mn24 O41 2.251 . S
O25 Mn22 2.160 . S
O25 C36 1.239 . S
O26 Mn22 2.221 . S
O26 Mn27 2.290 . S
O26 C37 1.278 . S
Mn27 O26 2.290 . S
Mn27 O29 2.089 . S
Mn27 O32 2.251 . S
Mn27 O33 2.087 . S
O28 Mn22 2.163 . S
O28 C38 1.244 . S
O29 Mn27 2.089 . S
O29 C36 1.256 . S
O30 Mn22 2.160 . S
O30 C39 1.239 . S
O31 Mn24 2.089 . S
O31 C39 1.256 . S
O32 Mn27 2.251 . S
O32 C37 1.241 . S
O33 Mn27 2.087 . S
O33 C38 1.256 . S
C34 O40 1.278 . S
C34 O41 1.241 . S
C35 O21 1.244 . S
C35 O23 1.256 . S
C36 O25 1.239 . S
C36 O29 1.256 . S
C37 O26 1.278 . S
C37 O32 1.241 . S
C38 O28 1.244 . S
C38 O33 1.256 . S
C39 O30 1.239 . S
C39 O31 1.256 . S
O40 Mn22 2.221 . S
O40 Mn24 2.290 . S
O40 C34 1.278 . S
O41 Mn24 2.251 . S
O41 C34 1.241 . S
C42 C43 1.386 . S
C42 C44 1.397 . S
C42 H66 0.931 . S
C43 C42 1.386 . S
C43 C47 1.397 1_565 S
C44 C42 1.397 . S
C44 C45 1.384 . S
C44 H67 0.930 . S
C45 C44 1.384 . S
C45 C46 1.377 1_565 S
C45 C48 1.481 . S
C46 C45 1.377 1_545 S
C46 C47 1.389 . S
C46 H68 0.929 . S
C47 C43 1.397 1_545 S
C47 C46 1.389 . S
C47 H69 0.931 . S
C48 C45 1.481 . S
C48 C49 1.387 . S
C48 C53 1.390 1_565 S
C49 C48 1.387 . S
C49 C50 1.401 . S
C49 H70 0.930 . S
C50 C49 1.401 . S
C50 C51 1.376 1_565 S
C50 C59 1.511 . S
C51 C50 1.376 1_545 S
C51 C52 1.392 . S
C51 H72 0.931 . S
C52 C51 1.392 . S
C52 C53 1.361 . S
C52 C54 1.500 1_455 S
C53 C48 1.390 1_545 S
C53 C52 1.361 . S
C53 H71 0.931 1_455 S
C54 C52 1.500 1_655 S
C54 C55 1.371 . S
C54 C56 1.365 . S
C55 C54 1.371 . S
C55 C65 1.386 . S
C55 H73 0.931 . S
C56 C54 1.365 . S
C56 C57 1.409 . S
C56 H74 0.929 . S
C57 C56 1.409 . S
C57 C58 1.380 . S
C57 H75 0.930 . S
C58 C57 1.380 . S
C58 C65 1.357 . S
C59 C50 1.511 . S
C59 C60 1.341 . S
C59 C61 1.371 . S
C60 C59 1.341 . S
C60 C64 1.394 . S
C60 H76 0.930 . S
C61 C59 1.371 . S
C61 C62 1.392 . S
C61 H77 0.931 . S
C62 C61 1.392 . S
C62 C63 1.331 . S
C62 H80 0.932 . S
C63 C62 1.331 . S
C63 C64 1.336 . S
C64 C60 1.394 . S
C64 C63 1.336 . S
C64 H79 0.929 . S
C65 C55 1.386 . S
C65 C58 1.357 . S
C65 H78 0.928 . S
H66 C42 0.931 . S
H67 C44 0.930 . S
H68 C46 0.929 . S
H69 C47 0.931 . S
H70 C49 0.930 . S
H71 C53 0.931 1_655 S
H72 C51 0.931 . S
H73 C55 0.931 . S
H74 C56 0.929 . S
H75 C57 0.930 . S
H76 C60 0.930 . S
H77 C61 0.931 . S
H78 C65 0.928 . S
H79 C64 0.929 . S
H80 C62 0.932 . S
C81 C82 1.386 . S
C81 C83 1.397 . S
C81 H105 0.931 . S
C82 C81 1.386 . S
C82 C86 1.397 . S
C83 C81 1.397 . S
C83 C84 1.384 . S
C83 H106 0.930 . S
C84 C83 1.384 . S
C84 C85 1.377 . S
C84 C87 1.481 . S
C85 C84 1.377 . S
C85 C86 1.389 . S
C85 H107 0.929 . S
C86 C82 1.397 . S
C86 C85 1.389 . S
C86 H108 0.931 . S
C87 C84 1.481 . S
C87 C88 1.387 . S
C87 C92 1.390 1_455 S
C88 C87 1.387 . S
C88 C89 1.401 . S
C88 H109 0.930 . S
C89 C88 1.401 . S
C89 C90 1.376 1_455 S
C89 C98 1.511 . S
C90 C89 1.376 1_655 S
C90 C91 1.392 . S
C90 H111 0.931 . S
C91 C90 1.392 . S
C91 C92 1.361 . S
C91 C93 1.500 . S
C92 C87 1.390 1_655 S
C92 C91 1.361 . S
C92 H110 0.931 . S
C93 C91 1.500 . S
C93 C94 1.371 . S
C93 C95 1.365 1_545 S
C94 C93 1.371 . S
C94 C104 1.386 1_545 S
C94 H112 0.931 . S
C95 C93 1.365 1_565 S
C95 C96 1.409 . S
C95 H113 0.929 . S
C96 C95 1.409 . S
C96 C97 1.380 . S
C96 H114 0.930 . S
C97 C96 1.380 . S
C97 C104 1.357 . S
C98 C89 1.511 . S
C98 C99 1.341 . S
C98 C100 1.371 . S
C99 C98 1.341 . S
C99 C103 1.394 . S
C99 H115 0.930 . S
C100 C98 1.371 . S
C100 C101 1.392 . S
C100 H116 0.931 . S
C101 C100 1.392 . S
C101 C102 1.331 . S
C101 H119 0.932 . S
C102 C101 1.331 . S
C102 C103 1.336 . S
C103 C99 1.394 . S
C103 C102 1.336 . S
C103 H118 0.929 . S
C104 C94 1.386 1_565 S
C104 C97 1.357 . S
C104 H117 0.928 . S
H105 C81 0.931 . S
H106 C83 0.930 . S
H107 C85 0.929 . S
H108 C86 0.931 . S
H109 C88 0.930 . S
H110 C92 0.931 . S
H111 C90 0.931 . S
H112 C94 0.931 . S
H113 C95 0.929 . S
H114 C96 0.930 . S
H115 C99 0.930 . S
H116 C100 0.931 . S
H117 C104 0.928 . S
H118 C103 0.929 . S
H119 C101 0.932 . S
C120 C121 1.386 . S
C120 C122 1.397 . S
C120 H144 0.931 . S
C121 C120 1.386 . S
C121 C125 1.397 . S
C122 C120 1.397 . S
C122 C123 1.384 . S
C122 H145 0.930 . S
C123 C122 1.384 . S
C123 C124 1.377 . S
C123 C126 1.481 . S
C124 C123 1.377 . S
C124 C125 1.389 . S
C124 H146 0.929 . S
C125 C121 1.397 . S
C125 C124 1.389 . S
C125 H147 0.931 . S
C126 C123 1.481 . S
C126 C127 1.387 . S
C126 C131 1.390 . S
C127 C126 1.387 . S
C127 C128 1.401 . S
C127 H148 0.930 . S
C128 C127 1.401 . S
C128 C129 1.376 . S
C128 C137 1.511 . S
C129 C128 1.376 . S
C129 C130 1.392 . S
C129 H150 0.931 . S
C130 C129 1.392 . S
C130 C131 1.361 . S
C130 C132 1.500 . S
C131 C126 1.390 . S
C131 C130 1.361 . S
C131 H149 0.931 . S
C132 C130 1.500 . S
C132 C133 1.371 . S
C132 C134 1.365 . S
C133 C132 1.371 . S
C133 C143 1.386 . S
C133 H151 0.931 . S
C134 C132 1.365 . S
C134 C135 1.409 . S
C134 H152 0.929 . S
C135 C134 1.409 . S
C135 C136 1.380 . S
C135 H153 0.930 . S
C136 C135 1.380 . S
C136 C143 1.357 . S
C137 C128 1.511 . S
C137 C138 1.341 . S
C137 C139 1.371 . S
C138 C137 1.341 . S
C138 C142 1.394 . S
C138 H154 0.930 . S
C139 C137 1.371 . S
C139 C140 1.392 . S
C139 H155 0.931 . S
C140 C139 1.392 . S
C140 C141 1.331 . S
C140 H158 0.932 1_556 S
C141 C140 1.331 . S
C141 C142 1.336 . S
C142 C138 1.394 . S
C142 C141 1.336 . S
C142 H157 0.929 . S
C143 C133 1.386 . S
C143 C136 1.357 . S
C143 H156 0.928 1_556 S
H144 C120 0.931 . S
H145 C122 0.930 . S
H146 C124 0.929 . S
H147 C125 0.931 . S
H148 C127 0.930 . S
H149 C131 0.931 . S
H150 C129 0.931 . S
H151 C133 0.931 . S
H152 C134 0.929 . S
H153 C135 0.930 . S
H154 C138 0.930 . S
H155 C139 0.931 . S
H156 C143 0.928 1_554 S
H157 C142 0.929 . S
H158 C140 0.932 1_554 S
C159 C160 1.386 . S
C159 C161 1.397 . S
C159 H183 0.931 . S
C160 C159 1.386 . S
C160 C164 1.397 . S
C161 C159 1.397 . S
C161 C162 1.384 . S
C161 H184 0.930 . S
C162 C161 1.384 . S
C162 C163 1.377 . S
C162 C165 1.481 . S
C163 C162 1.377 . S
C163 C164 1.389 . S
C163 H185 0.929 . S
C164 C160 1.397 . S
C164 C163 1.389 . S
C164 H186 0.931 . S
C165 C162 1.481 . S
C165 C166 1.387 . S
C165 C170 1.390 . S
C166 C165 1.387 . S
C166 C167 1.401 . S
C166 H187 0.930 . S
C167 C166 1.401 . S
C167 C168 1.376 . S
C167 C176 1.511 . S
C168 C167 1.376 . S
C168 C169 1.392 . S
C168 H189 0.931 . S
C169 C168 1.392 . S
C169 C170 1.361 . S
C169 C171 1.500 . S
C170 C165 1.390 . S
C170 C169 1.361 . S
C170 H188 0.931 . S
C171 C169 1.500 . S
C171 C172 1.371 . S
C171 C173 1.365 . S
C172 C171 1.371 . S
C172 C182 1.386 . S
C172 H190 0.931 . S
C173 C171 1.365 . S
C173 C174 1.409 . S
C173 H191 0.929 . S
C174 C173 1.409 . S
C174 C175 1.380 . S
C174 H192 0.930 . S
C175 C174 1.380 . S
C175 C182 1.357 . S
C176 C167 1.511 . S
C176 C177 1.341 . S
C176 C178 1.371 . S
C177 C176 1.341 . S
C177 C181 1.394 . S
C177 H193 0.930 . S
C178 C176 1.371 . S
C178 C179 1.392 . S
C178 H194 0.931 . S
C179 C178 1.392 . S
C179 C180 1.331 . S
C179 H197 0.932 . S
C180 C179 1.331 . S
C180 C181 1.336 . S
C181 C177 1.394 . S
C181 C180 1.336 . S
C181 H196 0.929 . S
C182 C172 1.386 . S
C182 C175 1.357 . S
C182 H195 0.928 . S
H183 C159 0.931 . S
H184 C161 0.930 . S
H185 C163 0.929 . S
H186 C164 0.931 . S
H187 C166 0.930 . S
H188 C170 0.931 . S
H189 C168 0.931 . S
H190 C172 0.931 . S
H191 C173 0.929 . S
H192 C174 0.930 . S
H193 C177 0.930 . S
H194 C178 0.931 . S
H195 C182 0.928 . S
H196 C181 0.929 . S
H197 C179 0.932 . S
H198 C204 0.930 . S
H199 C208 0.930 1_556 S
H200 C213 0.929 . S
H201 C211 0.929 . S
H202 C206 0.941 . S
H203 C212 0.929 . S
C204 H198 0.930 . S
C204 C205 1.367 . S
C204 C212 1.378 . S
C205 C204 1.367 . S
C205 C213 1.433 1_554 S
C206 H202 0.941 . S
C206 C208 1.378 1_556 S
C206 C210 1.337 1_556 S
C207 C210 1.463 . S
C207 C212 1.350 . S
C207 N215 1.427 1_554 S
C208 H199 0.930 1_554 S
C208 C206 1.378 1_554 S
C208 C209 1.367 . S
C209 C208 1.367 . S
C209 C211 1.433 . S
C210 C206 1.337 1_554 S
C210 C207 1.463 . S
C210 N214 1.427 . S
C211 H201 0.929 . S
C211 C209 1.433 . S
C211 N214 1.384 . S
C212 H203 0.929 . S
C212 C204 1.378 . S
C212 C207 1.350 . S
C213 H200 0.929 . S
C213 C205 1.433 1_556 S
C213 N215 1.384 . S
N214 C210 1.427 . S
N214 C211 1.384 . S
N215 C207 1.427 1_556 S
N215 C213 1.384 . S
H216 C222 0.930 . S
H217 C226 0.930 . S
H218 C231 0.929 . S
H219 C229 0.929 . S
H220 C224 0.929 . S
H221 C230 0.929 . S
C222 H216 0.930 . S
C222 C223 1.367 . S
C222 C230 1.378 . S
C223 C222 1.367 . S
C223 C231 1.433 1_554 S
C224 H220 0.929 . S
C224 C226 1.378 . S
C224 C228 1.350 . S
C225 C228 1.463 1_554 S
C225 C230 1.350 . S
C225 N233 1.427 1_554 S
C226 H217 0.930 . S
C226 C224 1.378 . S
C226 C227 1.367 . S
C227 C226 1.367 . S
C227 C229 1.433 1_556 S
C228 C224 1.350 . S
C228 C225 1.463 1_556 S
C228 N232 1.427 1_556 S
C229 H219 0.929 . S
C229 C227 1.433 1_554 S
C229 N232 1.384 . S
C230 H221 0.929 . S
C230 C222 1.378 . S
C230 C225 1.350 . S
C231 H218 0.929 . S
C231 C223 1.433 1_556 S
C231 N233 1.384 . S
N232 C228 1.427 1_554 S
N232 C229 1.384 . S
N233 C225 1.427 1_556 S
N233 C231 1.384 . S
H234 C240 0.930 . S
H235 C244 0.930 . S
H236 C249 0.915 1_556 S
H237 C247 0.929 . S
H238 C242 0.929 . S
H239 C248 0.929 . S
C240 H234 0.930 . S
C240 C241 1.367 . S
C240 C248 1.378 . S
C241 C240 1.367 . S
C241 C249 1.433 . S
C242 H238 0.929 . S
C242 C244 1.378 . S
C242 C246 1.350 . S
C243 C246 1.463 . S
C243 C248 1.350 . S
C243 N251 1.427 . S
C244 H235 0.930 . S
C244 C242 1.378 . S
C244 C245 1.367 . S
C245 C244 1.367 . S
C245 C247 1.433 . S
C246 C242 1.350 . S
C246 C243 1.463 . S
C246 N250 1.427 . S
C247 H237 0.929 . S
C247 C245 1.433 . S
C247 N250 1.384 . S
C248 H239 0.929 . S
C248 C240 1.378 . S
C248 C243 1.350 . S
C249 H236 0.915 1_554 S
C249 C241 1.433 . S
C249 N251 1.384 . S
N250 C246 1.427 . S
N250 C247 1.384 . S
N251 C243 1.427 . S
N251 C249 1.384 . S
H252 C258 0.930 . S
H253 C262 0.930 . S
H254 C267 0.929 . S
H255 C265 0.929 . S
H256 C260 0.929 . S
H257 C266 0.929 . S
C258 H252 0.930 . S
C258 C259 1.367 . S
C258 C266 1.378 . S
C259 C258 1.367 . S
C259 C267 1.433 1_554 S
C260 H256 0.929 . S
C260 C262 1.378 . S
C260 C264 1.350 . S
C261 C264 1.463 . S
C261 C266 1.350 1_556 S
C261 N269 1.427 . S
C262 H253 0.930 . S
C262 C260 1.378 . S
C262 C263 1.367 . S
C263 C262 1.367 . S
C263 C265 1.433 1_556 S
C264 C260 1.350 . S
C264 C261 1.463 . S
C264 N268 1.427 1_556 S
C265 H255 0.929 . S
C265 C263 1.433 1_554 S
C265 N268 1.384 . S
C266 H257 0.929 . S
C266 C258 1.378 . S
C266 C261 1.350 1_554 S
C267 H254 0.929 . S
C267 C259 1.433 1_556 S
C267 N269 1.384 . S
N268 C264 1.427 1_554 S
N268 C265 1.384 . S
N269 C261 1.427 . S
N269 C267 1.384 . S
H270 C276 0.930 . S
H271 C280 0.930 . S
H272 C285 0.929 . S
H273 C283 0.929 . S
H274 C278 0.929 . S
H275 C284 0.929 . S
C276 H270 0.930 . S
C276 C277 1.367 . S
C276 C284 1.378 . S
C277 C276 1.367 . S
C277 C285 1.433 . S
C278 H274 0.929 . S
C278 C280 1.378 . S
C278 C282 1.350 . S
C279 C282 1.463 . S
C279 C284 1.350 . S
C279 N287 1.427 . S
C280 H271 0.930 . S
C280 C278 1.378 . S
C280 C281 1.367 . S
C281 C280 1.367 . S
C281 C283 1.433 . S
C282 C278 1.350 . S
C282 C279 1.463 . S
C282 N286 1.427 . S
C283 H273 0.929 . S
C283 C281 1.433 . S
C283 N286 1.384 . S
C284 H275 0.929 . S
C284 C276 1.378 . S
C284 C279 1.350 . S
C285 H272 0.929 . S
C285 C277 1.433 . S
C285 N287 1.384 . S
N286 C282 1.427 . S
N286 C283 1.384 . S
N287 C279 1.427 . S
N287 C285 1.384 . S
H288 C294 0.930 . S
H289 C298 0.930 . S
H290 C303 0.929 . S
H291 C301 0.929 . S
H292 C296 0.929 . S
H293 C302 0.929 . S
C294 H288 0.930 . S
C294 C295 1.367 . S
C294 C302 1.378 . S
C295 C294 1.367 . S
C295 C303 1.433 . S
C296 H292 0.929 . S
C296 C298 1.378 . S
C296 C300 1.350 . S
C297 C300 1.463 . S
C297 C302 1.350 . S
C297 N305 1.427 . S
C298 H289 0.930 . S
C298 C296 1.378 . S
C298 C299 1.367 . S
C299 C298 1.367 . S
C299 C301 1.433 . S
C300 C296 1.350 . S
C300 C297 1.463 . S
C300 N304 1.427 . S
C301 H291 0.929 . S
C301 C299 1.433 . S
C301 N304 1.384 . S
C302 H293 0.929 . S
C302 C294 1.378 . S
C302 C297 1.350 . S
C303 H290 0.929 . S
C303 C295 1.433 . S
C303 N305 1.384 . S
N304 C300 1.427 . S
N304 C301 1.384 . S
N305 C297 1.427 . S
N305 C303 1.384 . S
H306 C312 0.930 . S
H307 C316 0.930 . S
H308 C321 0.929 . S
H309 C319 0.929 . S
H310 C314 0.929 . S
H311 C320 0.929 . S
C312 H306 0.930 . S
C312 C313 1.367 . S
C312 C320 1.378 . S
C313 C312 1.367 . S
C313 C321 1.433 . S
C314 H310 0.929 . S
C314 C316 1.378 . S
C314 C318 1.350 . S
C315 C318 1.463 . S
C315 C320 1.350 . S
C315 N323 1.427 . S
C316 H307 0.930 . S
C316 C314 1.378 . S
C316 C317 1.367 . S
C317 C316 1.367 . S
C317 C319 1.433 . S
C318 C314 1.350 . S
C318 C315 1.463 . S
C318 N322 1.427 . S
C319 H309 0.929 . S
C319 C317 1.433 . S
C319 N322 1.384 . S
C320 H311 0.929 . S
C320 C312 1.378 . S
C320 C315 1.350 . S
C321 H308 0.929 . S
C321 C313 1.433 . S
C321 N323 1.384 . S
N322 C318 1.427 . S
N322 C319 1.384 . S
N323 C315 1.427 . S
N323 C321 1.384 . S
H324 C330 0.930 . S
H325 C334 0.930 . S
H326 C339 0.929 . S
H327 C337 0.929 . S
H328 C332 0.929 . S
H329 C338 0.929 . S
C330 H324 0.930 . S
C330 C331 1.367 . S
C330 C338 1.378 . S
C331 C330 1.367 . S
C331 C339 1.433 . S
C332 H328 0.929 . S
C332 C334 1.378 . S
C332 C336 1.350 . S
C333 C336 1.463 . S
C333 C338 1.350 . S
C333 N341 1.427 . S
C334 H325 0.930 . S
C334 C332 1.378 . S
C334 C335 1.367 . S
C335 C334 1.367 . S
C335 C337 1.433 . S
C336 C332 1.350 . S
C336 C333 1.463 . S
C336 N340 1.427 . S
C337 H327 0.929 . S
C337 C335 1.433 . S
C337 N340 1.384 . S
C338 H329 0.929 . S
C338 C330 1.378 . S
C338 C333 1.350 . S
C339 H326 0.929 . S
C339 C331 1.433 . S
C339 N341 1.384 . S
N340 C336 1.427 . S
N340 C337 1.384 . S
N341 C333 1.427 . S
N341 C339 1.384 . S
H342 C348 0.930 1_655 S
H343 C352 0.930 . S
H344 C357 0.929 . S
H345 C355 0.929 1_655 S
H346 C350 0.929 . S
H347 C356 0.929 1_655 S
C348 H342 0.930 1_455 S
C348 C349 1.367 . S
C348 C356 1.378 . S
C349 C348 1.367 . S
C349 C357 1.433 1_545 S
C350 H346 0.929 . S
C350 C352 1.378 . S
C350 C354 1.350 1_565 S
C351 C354 1.463 . S
C351 C356 1.350 . S
C351 N359 1.427 1_545 S
C352 H343 0.930 . S
C352 C350 1.378 . S
C352 C353 1.367 . S
C353 C352 1.367 . S
C353 C355 1.433 1_565 S
C354 C350 1.350 1_545 S
C354 C351 1.463 . S
C354 N358 1.427 . S
C355 H345 0.929 1_455 S
C355 C353 1.433 1_545 S
C355 N358 1.384 . S
C356 H347 0.929 1_455 S
C356 C348 1.378 . S
C356 C351 1.350 . S
C357 H344 0.929 . S
C357 C349 1.433 1_565 S
C357 N359 1.384 . S
N358 C354 1.427 . S
N358 C355 1.384 . S
N359 C351 1.427 1_565 S
N359 C357 1.384 . S
H360 C366 0.930 1_665 S
H361 C370 0.930 . S
H362 C375 0.929 . S
H363 C373 0.929 . S
H364 C368 0.929 . S
H365 C374 0.929 1_665 S
C366 H360 0.930 1_445 S
C366 C367 1.367 . S
C366 C374 1.378 . S
C367 C366 1.367 . S
C367 C375 1.433 . S
C368 H364 0.929 . S
C368 C370 1.378 . S
C368 C372 1.350 . S
C369 C372 1.463 . S
C369 C374 1.350 . S
C369 N377 1.427 . S
C370 H361 0.930 . S
C370 C368 1.378 . S
C370 C371 1.367 . S
C371 C370 1.367 . S
C371 C373 1.433 1_455 S
C372 C368 1.350 . S
C372 C369 1.463 . S
C372 N376 1.427 1_455 S
C373 H363 0.929 . S
C373 C371 1.433 1_655 S
C373 N376 1.384 . S
C374 H365 0.929 1_445 S
C374 C366 1.378 . S
C374 C369 1.350 . S
C375 H362 0.929 . S
C375 C367 1.433 . S
C375 N377 1.384 . S
N376 C372 1.427 1_655 S
N376 C373 1.384 . S
N377 C369 1.427 . S
N377 C375 1.384 . S
H378 C384 0.930 . S
H379 C388 0.930 . S
H380 C393 0.929 . S
H381 C391 0.929 . S
H382 C386 0.929 . S
H383 C392 0.929 . S
C384 H378 0.930 . S
C384 C385 1.367 . S
C384 C392 1.378 . S
C385 C384 1.367 . S
C385 C393 1.433 . S
C386 H382 0.929 . S
C386 C388 1.378 . S
C386 C390 1.350 . S
C387 C390 1.463 . S
C387 C392 1.350 . S
C387 N395 1.427 . S
C388 H379 0.930 . S
C388 C386 1.378 . S
C388 C389 1.367 . S
C389 C388 1.367 . S
C389 C391 1.433 . S
C390 C386 1.350 . S
C390 C387 1.463 . S
C390 N394 1.427 . S
C391 H381 0.929 . S
C391 C389 1.433 . S
C391 N394 1.384 . S
C392 H383 0.929 . S
C392 C384 1.378 . S
C392 C387 1.350 . S
C393 H380 0.929 . S
C393 C385 1.433 . S
C393 N395 1.384 . S
N394 C390 1.427 . S
N394 C391 1.384 . S
N395 C387 1.427 . S
N395 C393 1.384 . S
H396 C402 0.930 . S
H397 C406 0.930 . S
H398 C411 0.929 . S
H399 C409 0.929 . S
H400 C404 0.929 . S
H401 C410 0.929 . S
C402 H396 0.930 . S
C402 C403 1.367 . S
C402 C410 1.378 . S
C403 C402 1.367 . S
C403 C411 1.433 . S
C404 H400 0.929 . S
C404 C406 1.378 . S
C404 C408 1.350 . S
C405 C408 1.463 . S
C405 C410 1.350 . S
C405 N413 1.427 . S
C406 H397 0.930 . S
C406 C404 1.378 . S
C406 C407 1.367 . S
C407 C406 1.367 . S
C407 C409 1.433 . S
C408 C404 1.350 . S
C408 C405 1.463 . S
C408 N412 1.427 . S
C409 H399 0.929 . S
C409 C407 1.433 . S
C409 N412 1.384 . S
C410 H401 0.929 . S
C410 C402 1.378 . S
C410 C405 1.350 . S
C411 H398 0.929 . S
C411 C403 1.433 . S
C411 N413 1.384 . S
N412 C408 1.427 . S
N412 C409 1.384 . S
N413 C405 1.427 . S
N413 C411 1.384 . S
C209 C175 1.476 . S
C205 C16 1.331 . S
C223 C15 1.539 . S
C227 C136 1.517 . S
C241 C13 1.289 . S
C245 C180 1.487 . S
C259 C14 1.352 . S
C263 C141 1.381 . S
C277 C37 1.357 . S
C281 C97 1.463 . S
C295 C36 1.535 . S
C299 C58 1.518 . S
C317 C102 1.483 . S
C313 C34 1.289 . S
C335 C63 1.382 . S
C331 C35 1.336 . S
C349 C17 1.519 . S
C353 C43 1.561 . S
C367 C18 1.380 . S
C371 C82 1.437 . S
C389 C121 1.560 . S
C385 C38 1.523 . S
C403 C39 1.391 . S
C407 C160 1.435 . S
