# Generated by pormake.
# Topology pyr, (3,6)-cn, num edge types: 1
# Building blocks:
#     Node 0, Type 0, BuildingBlock: BELTOD_clean_linker_0, # of connection points: 3
#     Node 1, Type 0, BuildingBlock: BELTOD_clean_linker_0, # of connection points: 3
#     Node 2, Type 0, BuildingBlock: BELTOD_clean_linker_0, # of connection points: 3
#     Node 3, Type 0, BuildingBlock: BELTOD_clean_linker_0, # of connection points: 3
#     Node 4, Type 0, BuildingBlock: BELTOD_clean_linker_0, # of connection points: 3
#     Node 5, Type 0, BuildingBlock: BELTOD_clean_linker_0, # of connection points: 3
#     Node 6, Type 0, BuildingBlock: BELTOD_clean_linker_0, # of connection points: 3
#     Node 7, Type 0, BuildingBlock: BELTOD_clean_linker_0, # of connection points: 3
#     Node 8, Type 1, BuildingBlock: BETFAJ_clean_sbu_0, # of connection points: 6
#     Node 9, Type 1, BuildingBlock: BETFAJ_clean_sbu_0, # of connection points: 6
#     Node 10, Type 1, BuildingBlock: BETFAJ_clean_sbu_0, # of connection points: 6
#     Node 11, Type 1, BuildingBlock: BETFAJ_clean_sbu_0, # of connection points: 6
#     Edge 12, Type (0, 1), BuildingBlock: EZIPEK_clean_linker_0, # of connection points: 2
#     Edge 13, Type (0, 1), BuildingBlock: EZIPEK_clean_linker_0, # of connection points: 2
#     Edge 14, Type (0, 1), BuildingBlock: EZIPEK_clean_linker_0, # of connection points: 2
#     Edge 15, Type (0, 1), BuildingBlock: EZIPEK_clean_linker_0, # of connection points: 2
#     Edge 16, Type (0, 1), BuildingBlock: EZIPEK_clean_linker_0, # of connection points: 2
#     Edge 17, Type (0, 1), BuildingBlock: EZIPEK_clean_linker_0, # of connection points: 2
#     Edge 18, Type (0, 1), BuildingBlock: EZIPEK_clean_linker_0, # of connection points: 2
#     Edge 19, Type (0, 1), BuildingBlock: EZIPEK_clean_linker_0, # of connection points: 2
#     Edge 20, Type (0, 1), BuildingBlock: EZIPEK_clean_linker_0, # of connection points: 2
#     Edge 21, Type (0, 1), BuildingBlock: EZIPEK_clean_linker_0, # of connection points: 2
#     Edge 22, Type (0, 1), BuildingBlock: EZIPEK_clean_linker_0, # of connection points: 2
#     Edge 23, Type (0, 1), BuildingBlock: EZIPEK_clean_linker_0, # of connection points: 2
#     Edge 24, Type (0, 1), BuildingBlock: EZIPEK_clean_linker_0, # of connection points: 2
#     Edge 25, Type (0, 1), BuildingBlock: EZIPEK_clean_linker_0, # of connection points: 2
#     Edge 26, Type (0, 1), BuildingBlock: EZIPEK_clean_linker_0, # of connection points: 2
#     Edge 27, Type (0, 1), BuildingBlock: EZIPEK_clean_linker_0, # of connection points: 2
#     Edge 28, Type (0, 1), BuildingBlock: EZIPEK_clean_linker_0, # of connection points: 2
#     Edge 29, Type (0, 1), BuildingBlock: EZIPEK_clean_linker_0, # of connection points: 2
#     Edge 30, Type (0, 1), BuildingBlock: EZIPEK_clean_linker_0, # of connection points: 2
#     Edge 31, Type (0, 1), BuildingBlock: EZIPEK_clean_linker_0, # of connection points: 2
#     Edge 32, Type (0, 1), BuildingBlock: EZIPEK_clean_linker_0, # of connection points: 2
#     Edge 33, Type (0, 1), BuildingBlock: EZIPEK_clean_linker_0, # of connection points: 2
#     Edge 34, Type (0, 1), BuildingBlock: EZIPEK_clean_linker_0, # of connection points: 2
#     Edge 35, Type (0, 1), BuildingBlock: EZIPEK_clean_linker_0, # of connection points: 2
# Relax obj value: 0.154
# Max RMSD: 0.134
# Mean RMSD: 0.067
data_MOF--net-pyr--node1-BETFAJ_clean_sbu_0--node2-BELTOD_clean_linker_0--edge1-EZIPEK_clean_linker_0
_symmetry_space_group_name_H-M    P1
_symmetry_Int_Tables_number       1
_symmetry_cell_setting            triclinic
loop_
_symmetry_equiv_pos_as_xyz
'x, y, z'
_cell_length_a     32.742192
_cell_length_b     36.077088
_cell_length_c     32.87484
_cell_angle_alpha  91.420125
_cell_angle_beta   89.100364
_cell_angle_gamma 101.63782
loop_
_atom_site_label
_atom_site_type_symbol
_atom_site_fract_x
_atom_site_fract_y
_atom_site_fract_z
_atom_type_partial_charge
P0 P 0.38601 0.31588 0.25423 0.0
H1 H 0.46624 0.29348 0.23691 0.0
H2 H 0.4837 0.23711 0.20277 0.0
H3 H 0.35367 0.19545 0.17658 0.0
H4 H 0.33641 0.2519 0.20916 0.0
H5 H 0.35299 0.38203 0.27607 0.0
H6 H 0.30039 0.40959 0.24263 0.0
H7 H 0.31784 0.34751 0.13206 0.0
H8 H 0.36949 0.31872 0.16606 0.0
H9 H 0.38335 0.29305 0.34003 0.0
H10 H 0.29649 0.29344 0.24261 0.0
O11 O 0.42647 0.33979 0.28052 0.0
H12 H 0.32516 0.26206 0.38397 0.0
H13 H 0.23946 0.26232 0.28576 0.0
C14 C 0.39998 0.2768 0.2259 0.0
C15 C 0.44156 0.27242 0.2235 0.0
C16 C 0.4515 0.24026 0.20427 0.0
C17 C 0.41985 0.21204 0.18764 0.0
C18 C 0.37842 0.21679 0.18955 0.0
C19 C 0.36863 0.24905 0.20822 0.0
C20 C 0.36464 0.34793 0.22378 0.0
C21 C 0.34683 0.3755 0.24413 0.0
C22 C 0.31661 0.39105 0.22515 0.0
C23 C 0.3046 0.37987 0.18523 0.0
C24 C 0.32642 0.35608 0.16309 0.0
C25 C 0.356 0.33977 0.18248 0.0
C26 C 0.3442 0.29588 0.28822 0.0
C27 C 0.35195 0.28689 0.32826 0.0
C28 C 0.31895 0.26931 0.35321 0.0
C29 C 0.27828 0.26004 0.33782 0.0
C30 C 0.27067 0.26938 0.29802 0.0
C31 C 0.30331 0.28717 0.27347 0.0
P32 P 0.39068 0.98451 0.53962 0.0
H33 H 0.46109 0.99596 0.59464 0.0
H34 H 0.46547 1.00242 0.66919 0.0
H35 H 0.33468 1.00581 0.67614 0.0
H36 H 0.32992 0.99888 0.60237 0.0
H37 H 0.43754 0.94517 0.48168 0.0
H38 H 0.45692 0.88277 0.48361 0.0
H39 H 0.38117 0.85665 0.5916 0.0
H40 H 0.36125 0.91846 0.58941 0.0
H41 H 0.35902 0.05095 0.51893 0.0
H42 H 0.31117 0.93073 0.52619 0.0
O43 O 0.42791 1.01296 0.51348 0.0
H44 H 0.28789 0.06135 0.51071 0.0
H45 H 0.24012 0.94118 0.51755 0.0
C46 C 0.39544 0.99753 0.59278 0.0
C47 C 0.43364 0.9991 0.61214 0.0
C48 C 0.43612 1.00262 0.65451 0.0
C49 C 0.40037 1.00463 0.67785 0.0
C50 C 0.36256 1.00451 0.65844 0.0
C51 C 0.36002 1.00072 0.6162 0.0
C52 C 0.39842 0.93656 0.5357 0.0
C53 C 0.42444 0.92574 0.50527 0.0
C54 C 0.43552 0.89027 0.50635 0.0
C55 C 0.42075 0.86551 0.538 0.0
C56 C 0.39296 0.87556 0.56711 0.0
C57 C 0.38167 0.91078 0.56582 0.0
C58 C 0.34043 0.99006 0.5225 0.0
C59 C 0.33341 1.02672 0.51737 0.0
C60 C 0.29291 1.0327 0.51298 0.0
C61 C 0.25894 1.00202 0.5136 0.0
C62 C 0.26608 0.96513 0.51687 0.0
C63 C 0.30662 0.9592 0.52156 0.0
P64 P 0.66512 0.34227 0.84553 0.0
H65 H 0.71432 0.32123 0.91237 0.0
H66 H 0.77341 0.35541 0.9519 0.0
H67 H 0.76235 0.45934 0.8956 0.0
H68 H 0.70237 0.4253 0.85649 0.0
H69 H 0.6809 0.26554 0.85573 0.0
H70 H 0.64798 0.21015 0.89381 0.0
H71 H 0.55088 0.2676 0.93379 0.0
H72 H 0.58485 0.32431 0.89592 0.0
H73 H 0.70009 0.39874 0.78513 0.0
H74 H 0.57589 0.34767 0.82429 0.0
O75 O 0.69618 0.32414 0.81329 0.0
H76 H 0.67167 0.43268 0.73239 0.0
H77 H 0.54712 0.3822 0.77107 0.0
C78 C 0.70277 0.37029 0.8813 0.0
C79 C 0.72353 0.35153 0.90905 0.0
C80 C 0.75777 0.3711 0.93163 0.0
C81 C 0.77288 0.41016 0.92695 0.0
C82 C 0.75156 0.4293 0.90004 0.0
C83 C 0.71703 0.40966 0.87757 0.0
C84 C 0.63521 0.29965 0.8714 0.0
C85 C 0.65212 0.26657 0.87193 0.0
C86 C 0.63331 0.23451 0.89415 0.0
C87 C 0.59641 0.23375 0.91693 0.0
C88 C 0.57912 0.26678 0.91651 0.0
C89 C 0.59844 0.29933 0.89448 0.0
C90 C 0.64059 0.37087 0.81015 0.0
C91 C 0.66654 0.39527 0.78315 0.0
C92 C 0.65021 0.41469 0.75246 0.0
C93 C 0.60693 0.4106 0.74698 0.0
C94 C 0.58062 0.38635 0.77414 0.0
C95 C 0.59714 0.36667 0.80503 0.0
P96 P 0.84041 0.69646 0.34378 0.0
H97 H 0.89017 0.76839 0.31417 0.0
H98 H 0.92309 0.82825 0.34808 0.0
H99 H 0.89393 0.77742 0.46486 0.0
H100 H 0.86072 0.71753 0.43091 0.0
H101 H 0.81081 0.62656 0.29525 0.0
H102 H 0.84202 0.59315 0.24081 0.0
H103 H 0.95943 0.67058 0.25715 0.0
H104 H 0.92816 0.70395 0.31206 0.0
H105 H 0.77261 0.71856 0.39151 0.0
H106 H 0.82006 0.61631 0.37329 0.0
O107 O 0.81207 0.71575 0.31172 0.0
H108 H 0.71502 0.68417 0.43325 0.0
H109 H 0.76196 0.58173 0.41492 0.0
C110 C 0.87289 0.73785 0.36964 0.0
C111 C 0.89148 0.76969 0.34708 0.0
C112 C 0.91014 0.80416 0.36653 0.0
C113 C 0.91098 0.80797 0.4093 0.0
C114 C 0.89375 0.77567 0.43193 0.0
C115 C 0.87492 0.74118 0.41241 0.0
C116 C 0.86713 0.66734 0.30936 0.0
C117 C 0.84363 0.63587 0.28819 0.0
C118 C 0.86143 0.61689 0.25652 0.0
C119 C 0.90339 0.62895 0.24434 0.0
C120 C 0.92714 0.66026 0.2657 0.0
C121 C 0.90925 0.67926 0.29751 0.0
C122 C 0.80096 0.67026 0.37873 0.0
C123 C 0.77095 0.68876 0.39668 0.0
C124 C 0.73785 0.66907 0.42056 0.0
C125 C 0.73361 0.63012 0.42726 0.0
C126 C 0.76421 0.61167 0.41022 0.0
C127 C 0.79753 0.6315 0.38634 0.0
P128 P 0.70516 0.80374 0.89371 0.0
H129 H 0.67896 0.86056 0.84516 0.0
H130 H 0.63311 0.90349 0.86429 0.0
H131 H 0.58297 0.83111 0.96307 0.0
H132 H 0.6297 0.78808 0.94428 0.0
H133 H 0.73962 0.77308 0.96337 0.0
H134 H 0.76657 0.71526 0.96659 0.0
H135 H 0.69632 0.67059 0.86025 0.0
H136 H 0.66938 0.72925 0.85657 0.0
H137 H 0.67532 0.78281 0.81083 0.0
H138 H 0.79102 0.83311 0.86946 0.0
O139 O 0.73553 0.83287 0.92619 0.0
H140 H 0.71106 0.78969 0.74406 0.0
H141 H 0.82592 0.84118 0.8032 0.0
C142 C 0.6575 0.82084 0.89312 0.0
C143 C 0.65641 0.85246 0.8694 0.0
C144 C 0.63031 0.87722 0.88038 0.0
C145 C 0.60505 0.87059 0.91523 0.0
C146 C 0.60219 0.83648 0.93589 0.0
C147 C 0.62869 0.81184 0.92507 0.0
C148 C 0.70357 0.756 0.90892 0.0
C149 C 0.72837 0.75042 0.94165 0.0
C150 C 0.7439 0.71734 0.94351 0.0
C151 C 0.73451 0.68939 0.91283 0.0
C152 C 0.70434 0.69225 0.88382 0.0
C153 C 0.68895 0.72569 0.88181 0.0
C154 C 0.73044 0.80824 0.84484 0.0
C155 C 0.70827 0.79528 0.80932 0.0
C156 C 0.72849 0.7991 0.77142 0.0
C157 C 0.77081 0.8164 0.76901 0.0
C158 C 0.7931 0.82811 0.80467 0.0
C159 C 0.77312 0.82377 0.84238 0.0
P160 P 0.88144 0.26273 0.40179 0.0
H161 H 0.87955 0.33002 0.45354 0.0
H162 H 0.82265 0.36273 0.47289 0.0
H163 H 0.73562 0.27825 0.40612 0.0
H164 H 0.79172 0.24546 0.38728 0.0
H165 H 0.95198 0.22963 0.42455 0.0
H166 H 0.95656 0.17376 0.46419 0.0
H167 H 0.8247 0.15601 0.49045 0.0
H168 H 0.82009 0.21193 0.45139 0.0
H169 H 0.87855 0.29919 0.3242 0.0
H170 H 0.85164 0.18536 0.36932 0.0
O171 O 0.92635 0.29422 0.39984 0.0
H172 H 0.84145 0.2764 0.2611 0.0
H173 H 0.8144 0.16304 0.30696 0.0
C174 C 0.84002 0.2858 0.41832 0.0
C175 C 0.84821 0.31851 0.44323 0.0
C176 C 0.81591 0.33707 0.4543 0.0
C177 C 0.77524 0.32287 0.44061 0.0
C178 C 0.76692 0.2896 0.41672 0.0
C179 C 0.79902 0.27107 0.40586 0.0
C180 C 0.8859 0.22539 0.43572 0.0
C181 C 0.92426 0.21429 0.43964 0.0
C182 C 0.92687 0.18246 0.46209 0.0
C183 C 0.89099 0.16114 0.48038 0.0
C184 C 0.85271 0.17246 0.47687 0.0
C185 C 0.8502 0.20443 0.45469 0.0
C186 C 0.86799 0.24403 0.35144 0.0
C187 C 0.86613 0.26919 0.31995 0.0
C188 C 0.84484 0.25631 0.28413 0.0
C189 C 0.82487 0.2182 0.27984 0.0
C190 C 0.82956 0.19258 0.30993 0.0
C191 C 0.85096 0.2054 0.34555 0.0
P192 P 0.37485 0.69378 0.21624 0.0
H193 H 0.34573 0.68153 0.1321 0.0
H194 H 0.27995 0.65036 0.10041 0.0
H195 H 0.22511 0.62546 0.21906 0.0
H196 H 0.29124 0.65708 0.25096 0.0
H197 H 0.45168 0.75331 0.22539 0.0
H198 H 0.47303 0.81771 0.19895 0.0
H199 H 0.34862 0.81251 0.15572 0.0
H200 H 0.32702 0.74857 0.18272 0.0
H201 H 0.35852 0.61673 0.24854 0.0
H202 H 0.41628 0.72737 0.29423 0.0
O203 O 0.40925 0.67764 0.18621 0.0
H204 H 0.38044 0.58801 0.30927 0.0
H205 H 0.43802 0.69853 0.35558 0.0
C206 C 0.32407 0.67162 0.19414 0.0
C207 C 0.31967 0.66945 0.15153 0.0
C208 C 0.28195 0.65152 0.13329 0.0
C209 C 0.24716 0.6351 0.15704 0.0
C210 C 0.25127 0.63764 0.1998 0.0
C211 C 0.28916 0.6558 0.21811 0.0
C212 C 0.38729 0.74548 0.20716 0.0
C213 C 0.42841 0.76632 0.21158 0.0
C214 C 0.44082 0.80325 0.19602 0.0
C215 C 0.41265 0.82063 0.17505 0.0
C216 C 0.3712 0.80032 0.17175 0.0
C217 C 0.35876 0.7635 0.18753 0.0
C218 C 0.38443 0.67467 0.2665 0.0
C219 C 0.37497 0.63516 0.27205 0.0
C220 C 0.38791 0.61853 0.3069 0.0
C221 C 0.41118 0.64065 0.33782 0.0
C222 C 0.42016 0.68036 0.33269 0.0
C223 C 0.40736 0.69703 0.29752 0.0
P224 P 0.17611 0.35294 0.7395 0.0
H225 H 0.19724 0.31526 0.66366 0.0
H226 H 0.16551 0.25748 0.62663 0.0
H227 H 0.06126 0.24123 0.71022 0.0
H228 H 0.09275 0.30031 0.74701 0.0
H229 H 0.26032 0.39483 0.75994 0.0
H230 H 0.31847 0.42999 0.71968 0.0
H231 H 0.24056 0.41636 0.61384 0.0
H232 H 0.1816 0.38225 0.65463 0.0
H233 H 0.20465 0.39385 0.81501 0.0
H234 H 0.08972 0.37149 0.74847 0.0
O235 O 0.20315 0.32938 0.76851 0.0
H236 H 0.1724 0.42703 0.86851 0.0
H237 H 0.05708 0.40507 0.80268 0.0
C238 C 0.14662 0.31422 0.70721 0.0
C239 C 0.16661 0.30064 0.67326 0.0
C240 C 0.14873 0.26687 0.65226 0.0
C241 C 0.11062 0.24448 0.66507 0.0
C242 C 0.09041 0.25783 0.6991 0.0
C243 C 0.10826 0.29203 0.71997 0.0
C244 C 0.21638 0.38496 0.71041 0.0
C245 C 0.25522 0.39989 0.72828 0.0
C246 C 0.28867 0.42 0.7052 0.0
C247 C 0.28444 0.42556 0.66338 0.0
C248 C 0.24497 0.41232 0.64588 0.0
C249 C 0.2112 0.39275 0.66926 0.0
C250 C 0.14988 0.37947 0.7773 0.0
C251 C 0.17241 0.39606 0.81163 0.0
C252 C 0.15388 0.41514 0.84254 0.0
C253 C 0.11199 0.41874 0.84036 0.0
C254 C 0.08937 0.4028 0.80559 0.0
C255 C 0.10808 0.38352 0.77445 0.0
Sm256 Sm 1.01514 0.04584 0.49476 0.0
Sm257 Sm 1.00976 1.00903 0.57115 0.0
C258 C 1.01812 0.09407 0.43528 0.0
C259 C 0.05226 0.12585 0.42625 0.0
C260 C 0.05598 0.1425 0.38799 0.0
C261 C 0.09256 0.16801 0.3775 0.0
C262 C 0.12553 0.17674 0.4052 0.0
C263 C 0.12098 0.1614 0.44406 0.0
C264 C 0.08456 0.1361 0.45451 0.0
C265 C 0.08777 1.02137 0.51111 0.0
C266 C 0.04627 0.09798 0.57881 0.0
C267 C 1.00524 0.96092 0.63112 0.0
C268 C 0.97209 0.92888 0.64196 0.0
C269 C 0.96558 0.91891 0.68274 0.0
C270 C 0.9297 0.8932 0.69418 0.0
C271 C 0.9001 0.87735 0.66492 0.0
C272 C 0.90776 0.88552 0.62377 0.0
C273 C 0.94352 0.91139 0.61236 0.0
C274 C 0.93849 0.03598 0.5524 0.0
C275 C 0.97937 0.95635 0.48858 0.0
O276 O 0.99801 0.09715 0.46947 0.0
O277 O 0.02794 0.06092 0.43018 0.0
O278 O 0.06773 0.03764 0.5366 0.0
O279 O 0.06886 1.01661 0.47659 0.0
O280 O 0.02986 0.09712 0.54204 0.0
O281 O 0.0486 0.06568 0.59579 0.0
O282 O 0.02489 0.95713 0.59688 0.0
O283 O 0.99522 0.99404 0.63557 0.0
O284 O 0.95868 1.01806 0.52909 0.0
O285 O 0.95602 0.03994 0.58764 0.0
O286 O 0.99691 0.95755 0.52466 0.0
O287 O 0.97608 0.98836 0.4715 0.0
H288 H 0.03155 0.1345 0.36572 0.0
H289 H 0.09598 0.1795 0.34723 0.0
H290 H 0.14638 0.1676 0.46551 0.0
H291 H 0.08261 0.12294 0.4839 0.0
H292 H 0.98711 0.93239 0.70592 0.0
H293 H 0.92392 0.88716 0.72612 0.0
H294 H 0.88497 0.87366 0.60098 0.0
H295 H 0.94776 0.91909 0.58075 0.0
Sm296 Sm 0.53385 0.03691 0.07825 0.0
Sm297 Sm 0.46676 1.02869 0.03307 0.0
C298 C 0.59694 0.05494 0.12976 0.0
C299 C 0.62984 0.08542 0.14559 0.0
C300 C 0.6514 0.1143 0.12075 0.0
C301 C 0.68462 0.14123 0.13659 0.0
C302 C 0.69638 0.13934 0.17725 0.0
C303 C 0.6742 0.11098 0.20208 0.0
C304 C 0.64121 0.08421 0.18634 0.0
C305 C 0.48136 0.96687 0.09605 0.0
C306 C 0.46357 0.08139 0.10698 0.0
C307 C 0.40295 1.00538 0.98366 0.0
C308 C 0.39942 1.00197 0.93899 0.0
C309 C 0.42192 0.9791 0.91623 0.0
C310 C 0.42166 0.97906 0.8738 0.0
C311 C 0.39863 1.00157 0.8535 0.0
C312 C 0.37512 1.02353 0.87601 0.0
C313 C 0.37554 1.02374 0.91851 0.0
C314 C 0.51957 0.09763 1.01133 0.0
C315 C 0.54299 0.99085 0.99958 0.0
O316 O 0.6009 0.043 0.09249 0.0
O317 O 0.55854 0.0561 0.13968 0.0
O318 O 0.46938 0.99815 0.093 0.0
O319 O 0.52056 0.97208 0.0875 0.0
O320 O 0.50382 0.08634 0.10017 0.0
O321 O 0.43918 0.05207 0.09004 0.0
O322 O 0.42295 0.98246 1.00125 0.0
O323 O 0.41253 0.03973 0.9987 0.0
O324 O 0.53156 0.06673 1.01747 0.0
O325 O 0.47974 0.09216 1.0166 0.0
O326 O 0.50229 0.98644 1.00165 0.0
O327 O 0.56564 1.01727 1.02209 0.0
H328 H 0.64294 0.11569 0.08918 0.0
H329 H 0.70137 0.16317 0.11719 0.0
H330 H 0.68283 0.10933 0.23357 0.0
H331 H 0.62495 0.06211 0.20587 0.0
H332 H 0.44036 0.96177 0.9311 0.0
H333 H 0.43976 0.9618 0.85675 0.0
H334 H 0.35701 0.04089 0.86065 0.0
H335 H 0.35792 0.04152 0.9354 0.0
Sm336 Sm 0.50461 0.49431 0.51941 0.0
Sm337 Sm 0.51205 0.55976 0.56914 0.0
C338 C 0.52007 0.43446 0.47809 0.0
C339 C 0.55807 0.41897 0.4742 0.0
C340 C 0.59664 0.44128 0.48568 0.0
C341 C 0.63298 0.4268 0.48195 0.0
C342 C 0.63108 0.3898 0.46695 0.0
C343 C 0.59252 0.36732 0.45593 0.0
C344 C 0.55612 0.38187 0.45953 0.0
C345 C 0.43093 0.49277 0.56372 0.0
C346 C 0.54525 0.49206 0.6112 0.0
C347 C 0.49851 0.6205 0.60983 0.0
C348 C 0.49186 0.65786 0.59822 0.0
C349 C 0.46606 0.67614 0.62252 0.0
C350 C 0.45641 0.71011 0.61018 0.0
C351 C 0.47255 0.7262 0.57343 0.0
C352 C 0.4988 0.70822 0.54927 0.0
C353 C 0.50817 0.67404 0.56146 0.0
C354 C 0.58573 0.55999 0.52384 0.0
C355 C 0.47188 0.56302 0.47629 0.0
O356 O 0.52217 0.46745 0.46205 0.0
O357 O 0.5026 0.43231 0.51405 0.0
O358 O 0.46763 0.50287 0.57736 0.0
O359 O 0.43272 0.48318 0.52553 0.0
O360 O 0.54781 0.48159 0.57237 0.0
O361 O 0.52706 0.52082 0.61985 0.0
O362 O 0.46883 0.59213 0.59931 0.0
O363 O 0.53576 0.61348 0.60347 0.0
O364 O 0.54866 0.55084 0.51111 0.0
O365 O 0.58414 0.57016 0.56196 0.0
O366 O 0.4788 0.57946 0.5127 0.0
O367 O 0.48069 0.52925 0.46955 0.0
H368 H 0.59861 0.46996 0.49732 0.0
H369 H 0.66257 0.44443 0.49053 0.0
H370 H 0.59074 0.33869 0.44426 0.0
H371 H 0.52656 0.3643 0.45078 0.0
H372 H 0.45281 0.66378 0.65069 0.0
H373 H 0.43618 0.72377 0.62914 0.0
H374 H 0.51144 0.72036 0.52082 0.0
H375 H 0.5276 0.65999 0.54194 0.0
Sm376 Sm 1.00744 0.49296 0.06828 0.0
Sm377 Sm 1.01001 0.55493 1.01929 0.0
C378 C 0.02739 0.43717 0.10986 0.0
C379 C 0.06831 0.42874 0.11916 0.0
C380 C 0.10325 0.4429 0.09462 0.0
C381 C 0.14227 0.43553 0.10363 0.0
C382 C 0.14727 0.41485 0.13808 0.0
C383 C 0.11256 0.40137 0.16321 0.0
C384 C 0.07324 0.40811 0.15365 0.0
C385 C 0.96627 0.545 0.10731 0.0
C386 C 0.09091 0.56199 0.07454 0.0
C387 C 0.9898 0.61251 0.98139 0.0
C388 C 0.95188 0.61713 0.96055 0.0
C389 C 0.93907 0.65179 0.9644 0.0
C390 C 0.90024 0.65534 0.95004 0.0
C391 C 0.87362 0.62421 0.9318 0.0
C392 C 0.8868 0.58973 0.92672 0.0
C393 C 0.92578 0.58617 0.94114 0.0
C394 C 0.05029 0.50331 0.97823 0.0
C395 C 0.92676 0.48469 1.01197 0.0
O396 O 1.01657 0.4337 0.07175 0.0
O397 O 0.01946 0.46788 0.12704 0.0
O398 O 1.00089 0.55285 0.08821 0.0
O399 O 0.9521 0.50871 0.10514 0.0
O400 O 0.07653 0.52518 0.07702 0.0
O401 O 0.06874 0.58258 0.05534 0.0
O402 O 0.98528 0.60781 1.0205 0.0
O403 O 1.01168 0.58987 0.96419 0.0
O404 O 1.01636 0.49489 0.99872 0.0
O405 O 0.06473 0.53959 0.98138 0.0
O406 O 0.94272 0.5207 1.00535 0.0
O407 O 0.94704 0.46513 0.03485 0.0
H408 H 0.10056 0.45989 0.06861 0.0
H409 H 0.16866 0.44623 0.08396 0.0
H410 H 0.11591 0.38537 0.18998 0.0
H411 H 0.0468 0.39744 0.17327 0.0
H412 H 0.95856 0.67579 0.97967 0.0
H413 H 0.89049 0.68219 0.95395 0.0
H414 H 0.86664 0.56555 0.91247 0.0
H415 H 0.93501 0.55905 0.93806 0.0
C416 C 0.2353 0.19891 0.36084 0.0
C417 C 0.24305 0.23903 0.36201 0.0
C418 C 0.17654 0.23813 0.39765 0.0
C419 C 0.16669 0.19827 0.392 0.0
N420 N 0.18495 0.13999 0.36773 0.0
N421 N 0.22226 0.29759 0.3805 0.0
C422 C 0.1958 0.17838 0.37383 0.0
C423 C 0.21416 0.25889 0.38055 0.0
N424 N 0.26579 0.18058 0.34722 0.0
N425 N 0.15005 0.25591 0.4197 0.0
H426 H 0.25054 0.3136 0.37022 0.0
H427 H 0.20058 0.31392 0.38894 0.0
H428 H 0.12175 0.24153 0.43171 0.0
H429 H 0.15713 0.28436 0.42851 0.0
H430 H 0.26398 0.15158 0.34942 0.0
H431 H 0.29467 0.19473 0.33631 0.0
H432 H 0.20252 0.12423 0.35047 0.0
H433 H 0.15686 0.12372 0.37805 0.0
C434 C 0.42 0.0366 0.74551 0.0
C435 C 0.40143 1.00375 0.72283 0.0
C436 C 0.37825 0.97061 0.78577 0.0
C437 C 0.39957 1.00238 0.80847 0.0
N438 N 0.44715 0.06292 0.8105 0.0
N439 N 0.37021 0.93715 0.72071 0.0
C440 C 0.42232 0.03468 0.7885 0.0
C441 C 0.38267 0.97002 0.74278 0.0
N442 N 0.43424 0.06987 0.72609 0.0
N443 N 0.35268 0.94155 0.80519 0.0
H444 H 0.37319 0.93549 0.6891 0.0
H445 H 0.36045 0.91085 0.73391 0.0
H446 H 0.34853 0.94098 0.83671 0.0
H447 H 0.33281 0.9196 0.78992 0.0
H448 H 0.44385 0.09573 0.74136 0.0
H449 H 0.43338 0.07224 0.69457 0.0
H450 H 0.46789 0.0852 0.79725 0.0
H451 H 0.44976 0.06247 0.84206 0.0
C452 C 0.59773 0.47169 0.71194 0.0
C453 C 0.59002 0.43131 0.71249 0.0
C454 C 0.55043 0.43059 0.64819 0.0
C455 C 0.56176 0.47088 0.64549 0.0
N456 N 0.60415 0.52858 0.67207 0.0
N457 N 0.56536 0.37274 0.67561 0.0
C458 C 0.58752 0.49102 0.67675 0.0
C459 C 0.5681 0.41096 0.67902 0.0
N460 N 0.61367 0.49189 0.74578 0.0
N461 N 0.52103 0.41083 0.62254 0.0
H462 H 0.57793 0.3574 0.69693 0.0
H463 H 0.55414 0.35684 0.64979 0.0
H464 H 0.50655 0.42371 0.60048 0.0
H465 H 0.50794 0.38223 0.62583 0.0
H466 H 0.61589 0.52101 0.74922 0.0
H467 H 0.62085 0.47907 0.7721 0.0
H468 H 0.62659 0.54402 0.69137 0.0
H469 H 0.59893 0.54339 0.64646 0.0
C470 C 0.95134 0.58614 0.21534 0.0
C471 C 0.92173 0.60935 0.20865 0.0
C472 C 0.92231 0.5914 0.13505 0.0
C473 C 0.95313 0.56947 0.14157 0.0
N474 N 1.00263 0.55195 0.18701 0.0
N475 N 0.88496 0.63938 0.16053 0.0
C476 C 0.96933 0.56876 0.18148 0.0
C477 C 0.9089 0.61338 0.16798 0.0
N478 N 0.96096 0.5792 0.25436 0.0
N479 N 0.90522 0.59073 0.09732 0.0
H480 H 0.8749 0.65602 0.18349 0.0
H481 H 0.87796 0.64685 0.13146 0.0
H482 H 0.9158 0.57686 0.07229 0.0
H483 H 0.87915 0.602 0.09122 0.0
H484 H 0.97837 0.55923 0.26182 0.0
H485 H 0.94867 0.59124 0.27972 0.0
H486 H 0.01911 0.55398 0.21406 0.0
H487 H 1.0162 0.53867 0.16338 0.0
C488 C 0.44322 0.14981 0.19118 0.0
C489 C 0.42976 0.17749 0.16764 0.0
C490 C 0.42769 0.13641 0.107 0.0
C491 C 0.44666 0.11127 0.12917 0.0
N492 N 0.47521 0.09473 0.19175 0.0
N493 N 0.41631 0.20032 0.1018 0.0
C494 C 0.45528 0.11822 0.17114 0.0
C495 C 0.42382 0.17162 0.12516 0.0
N496 N 0.44303 0.15299 0.23271 0.0
N497 N 0.41293 0.12664 0.06877 0.0
H498 H 0.41413 0.2269 0.1138 0.0
H499 H 0.41635 0.19907 0.07011 0.0
H500 H 0.41407 0.10074 0.0547 0.0
H501 H 0.39536 0.1424 0.05283 0.0
H502 H 0.44838 0.1318 0.25164 0.0
H503 H 0.43397 0.17551 0.24847 0.0
H504 H 0.48702 0.10085 0.22092 0.0
H505 H 0.4818 0.06986 0.17881 0.0
C506 C 0.19954 1.02217 0.47877 0.0
C507 C 0.21575 1.00891 0.51402 0.0
C508 C 0.14892 1.00669 0.54966 0.0
C509 C 0.13301 1.02089 0.51454 0.0
N510 N 0.14945 0.05606 0.4527 0.0
N511 N 0.20994 0.99795 0.58618 0.0
C512 C 0.16011 1.03268 0.48104 0.0
C513 C 0.19164 1.00395 0.55046 0.0
N514 N 0.2213 1.02397 0.44282 0.0
N515 N 0.12321 0.99481 0.58185 0.0
H516 H 0.24124 0.99612 0.58812 0.0
H517 H 0.19526 0.99829 0.61448 0.0
H518 H 0.09271 0.99873 0.58393 0.0
H519 H 0.13153 0.97938 0.60564 0.0
H520 H 0.20879 1.02973 0.41526 0.0
H521 H 0.25033 1.01639 0.43986 0.0
H522 H 0.16971 0.06807 0.42967 0.0
H523 H 0.12278 0.06759 0.45544 0.0
C524 C 0.85167 0.42197 0.93666 0.0
C525 C 0.81234 0.43019 0.94845 0.0
C526 C 0.84835 0.4764 0.99991 0.0
C527 C 0.88703 0.46556 0.99064 0.0
N528 N 0.92483 0.42556 0.95181 0.0
N529 N 0.77261 0.46215 0.99474 0.0
C530 C 0.88833 0.43746 0.95963 0.0
C531 C 0.81062 0.4568 0.98086 0.0
N532 N 0.8544 0.40076 0.90202 0.0
N533 N 0.84759 0.50558 1.02704 0.0
H534 H 0.74459 0.44844 0.98175 0.0
H535 H 0.76847 0.47781 1.02094 0.0
H536 H 0.87358 0.51863 0.04369 0.0
H537 H 0.82199 0.51834 0.03137 0.0
H538 H 0.88247 0.39711 0.88886 0.0
H539 H 0.82869 0.38947 0.88409 0.0
H540 H 0.92682 0.40188 0.93375 0.0
H541 H 0.95305 0.43797 0.96526 0.0
C542 C 0.7001 0.60178 0.49324 0.0
C543 C 0.69656 0.60865 0.45115 0.0
C544 C 0.62294 0.57424 0.45396 0.0
C545 C 0.62495 0.57128 0.49714 0.0
N546 N 0.67065 0.5672 0.55288 0.0
N547 N 0.65328 0.60423 0.39202 0.0
C548 C 0.66508 0.58096 0.51544 0.0
C549 C 0.6576 0.59554 0.43175 0.0
N550 N 0.73666 0.61648 0.51254 0.0
N551 N 0.58967 0.5538 0.43333 0.0
H552 H 0.67811 0.61787 0.3741 0.0
H553 H 0.62455 0.60051 0.37768 0.0
H554 H 0.56677 0.53374 0.44707 0.0
H555 H 0.58779 0.55227 0.40174 0.0
H556 H 0.73996 0.61695 0.544 0.0
H557 H 0.76309 0.63091 0.4973 0.0
H558 H 0.69954 0.57019 0.5667 0.0
H559 H 0.64735 0.54817 0.56778 0.0
C560 C 0.26264 0.42717 0.1638 0.0
C561 C 0.26562 0.38892 0.16922 0.0
C562 C 0.19353 0.36817 0.1467 0.0
C563 C 0.18866 0.40633 0.14728 0.0
N564 N 0.21707 0.47229 0.16254 0.0
N565 N 0.23053 0.32328 0.17426 0.0
C566 C 0.22287 0.43599 0.15732 0.0
C567 C 0.23021 0.3594 0.16282 0.0
N568 N 0.29785 0.45492 0.16422 0.0
N569 N 0.16355 0.34033 0.12992 0.0
H570 H 0.25599 0.31549 0.18781 0.0
H571 H 0.20394 0.3018 0.17415 0.0
H572 H 0.13658 0.34572 0.11684 0.0
H573 H 0.16758 0.31261 0.12517 0.0
H574 H 0.29807 0.48281 0.15655 0.0
H575 H 0.32751 0.44926 0.16841 0.0
H576 H 0.23995 0.49429 0.17391 0.0
H577 H 0.18824 0.47986 0.15906 0.0
C578 C 0.56289 0.16271 0.92149 0.0
C579 C 0.57702 0.19859 0.94141 0.0
C580 C 0.5535 0.16805 1.0071 0.0
C581 C 0.54297 0.1316 0.98769 0.0
N582 N 0.54244 0.09407 0.92605 0.0
N583 N 0.59303 0.23277 1.00496 0.0
C584 C 0.54945 0.12895 0.94481 0.0
C585 C 0.5742 0.20045 0.98472 0.0
N586 N 0.56007 0.16112 0.88003 0.0
N587 N 0.54298 0.17213 0.04709 0.0
H588 H 0.60911 0.25665 0.99014 0.0
H589 H 0.5962 0.23468 0.03646 0.0
H590 H 0.52953 0.14935 0.06496 0.0
H591 H 0.54475 0.19835 0.06169 0.0
H592 H 0.54599 0.13701 0.86361 0.0
H593 H 0.56819 0.18498 0.8621 0.0
H594 H 0.55094 0.0895 0.89597 0.0
H595 H 0.53097 0.06915 0.94144 0.0
C596 C 0.90207 0.8664 0.4519 0.0
C597 C 0.92875 0.84595 0.43012 0.0
C598 C 0.98805 0.89943 0.44388 0.0
C599 C 0.96191 0.91841 0.46815 0.0
N600 N 0.8955 0.91615 0.50146 0.0
N601 N 0.9988 0.84067 0.41146 0.0
C602 C 0.91934 0.90073 0.47392 0.0
C603 C 0.97223 0.86195 0.42773 0.0
N604 N 0.85984 0.85391 0.4502 0.0
N605 N 0.02805 0.91752 0.43564 0.0
H606 H 0.9886 0.81324 0.39987 0.0
H607 H 0.03114 0.84874 0.41262 0.0
H608 H 0.04091 0.94424 0.44774 0.0
H609 H 0.04744 0.9074 0.41456 0.0
H610 H 0.83852 0.86954 0.46151 0.0
H611 H 0.84592 0.82942 0.43419 0.0
H612 H 0.86577 0.90257 0.51064 0.0
H613 H 0.90688 0.94107 0.51794 0.0
C614 C 0.47354 0.83147 0.56535 0.0
C615 C 0.43657 0.83015 0.54286 0.0
C616 C 0.42739 0.7612 0.53467 0.0
C617 C 0.46189 0.76219 0.56059 0.0
N618 N 0.51704 0.79706 0.60239 0.0
N619 N 0.37686 0.79473 0.5075 0.0
C620 C 0.48497 0.79706 0.57619 0.0
C621 C 0.41323 0.79527 0.52761 0.0
N622 N 0.49781 0.86572 0.57603 0.0
N623 N 0.40848 0.72769 0.51663 0.0
H624 H 0.36655 0.8193 0.50034 0.0
H625 H 0.35568 0.77009 0.49968 0.0
H626 H 0.4172 0.70203 0.52213 0.0
H627 H 0.38606 0.72543 0.49413 0.0
H628 H 0.52737 0.86893 0.58847 0.0
H629 H 0.48973 0.89152 0.56992 0.0
H630 H 0.53191 0.8208 0.6189 0.0
H631 H 0.52757 0.77259 0.6095 0.0
C632 C 0.82232 0.80241 0.71729 0.0
C633 C 0.79279 0.82434 0.72967 0.0
C634 C 0.82689 0.87655 0.68752 0.0
C635 C 0.85903 0.8563 0.6788 0.0
N636 N 0.88238 0.79733 0.67454 0.0
N637 N 0.75856 0.87603 0.7175 0.0
C638 C 0.85481 0.81805 0.68984 0.0
C639 C 0.79203 0.85919 0.71122 0.0
N640 N 0.82029 0.76765 0.73371 0.0
N641 N 0.83125 0.91323 0.67567 0.0
H642 H 0.73298 0.86412 0.73545 0.0
H643 H 0.75428 0.89986 0.70224 0.0
H644 H 0.85581 0.92656 0.65728 0.0
H645 H 0.81171 0.93119 0.68542 0.0
H646 H 0.84317 0.7516 0.72971 0.0
H647 H 0.79551 0.75516 0.75243 0.0
H648 H 0.87981 0.76852 0.67915 0.0
H649 H 0.90634 0.80863 0.65435 0.0
C650 C 0.75387 0.2129 0.24992 0.0
C651 C 0.79478 0.20535 0.24669 0.0
C652 C 0.77294 0.15964 0.19104 0.0
C653 C 0.73194 0.16666 0.19493 0.0
N654 N 0.68587 0.20669 0.21917 0.0
N655 N 0.84607 0.1794 0.20851 0.0
C656 C 0.72338 0.19578 0.22133 0.0
C657 C 0.80525 0.18135 0.21515 0.0
N658 N 0.74337 0.2343 0.28184 0.0
N659 N 0.78042 0.13092 0.16593 0.0
H660 H 0.87021 0.1951 0.2259 0.0
H661 H 0.85638 0.16502 0.18381 0.0
H662 H 0.75774 0.11524 0.14696 0.0
H663 H 0.80834 0.12131 0.16535 0.0
H664 H 0.71288 0.23689 0.28855 0.0
H665 H 0.76463 0.24751 0.30355 0.0
H666 H 0.67905 0.23015 0.2349 0.0
H667 H 0.66293 0.19436 0.19851 0.0
C668 C 0.39814 0.60116 0.403 0.0
C669 C 0.42682 0.62194 0.37453 0.0
C670 C 0.48476 0.60787 0.41595 0.0
C671 C 0.4561 0.58391 0.44175 0.0
N672 N 0.38499 0.55481 0.45697 0.0
N673 N 0.49808 0.63929 0.351 0.0
C674 C 0.41264 0.57976 0.43434 0.0
C675 C 0.47033 0.62382 0.38042 0.0
N676 N 0.35697 0.6031 0.40119 0.0
N677 N 0.52602 0.61616 0.42584 0.0
H678 H 0.48906 0.65058 0.32449 0.0
H679 H 0.52951 0.63782 0.351 0.0
H680 H 0.53764 0.60512 0.45123 0.0
H681 H 0.54805 0.63647 0.41114 0.0
H682 H 0.33497 0.59211 0.42322 0.0
H683 H 0.34538 0.61879 0.37951 0.0
H684 H 0.35339 0.54689 0.45041 0.0
H685 H 0.39425 0.53988 0.48078 0.0
C686 C 0.08459 0.42216 0.91372 0.0
C687 C 0.09247 0.4389 0.87481 0.0
C688 C 0.06422 0.49364 0.90179 0.0
C689 C 0.06199 0.47952 0.94215 0.0
N690 N 0.07278 0.4304 0.98632 0.0
N691 N 0.09446 0.49359 0.83374 0.0
C692 C 0.07264 0.4436 0.94786 0.0
C693 C 0.08343 0.47544 0.86944 0.0
N694 N 0.08742 0.38517 0.91787 0.0
N695 N 0.0458 0.52335 0.89364 0.0
H696 H 0.10814 0.48137 0.80938 0.0
H697 H 0.0933 0.5219 0.82959 0.0
H698 H 0.02898 0.5356 0.91549 0.0
H699 H 0.04275 0.53272 0.86434 0.0
H700 H 0.07795 0.36981 0.94394 0.0
H701 H 0.09578 0.36871 0.89382 0.0
H702 H 0.08499 0.40697 0.99379 0.0
H703 H 0.06312 0.44474 1.01127 0.0
C704 C 0.55833 0.91839 0.91801 0.0
C705 C 0.59024 0.90277 0.93531 0.0
C706 C 0.59212 0.94521 0.99459 0.0
C707 C 0.56216 0.96292 0.97617 0.0
N708 N 0.52573 0.97286 0.91541 0.0
N709 N 0.64683 0.9102 0.98315 0.0
C710 C 0.54783 0.9514 0.93636 0.0
C711 C 0.61006 0.91896 0.97142 0.0
N712 N 0.53746 0.90131 0.88471 0.0
N713 N 0.60197 0.95132 0.03478 0.0
H714 H 0.662 0.89191 0.96651 0.0
H715 H 0.66459 0.92439 1.00696 0.0
H716 H 0.58931 0.96925 0.05417 0.0
H717 H 0.61987 0.93539 0.0501 0.0
H718 H 0.51107 0.90929 0.87333 0.0
H719 H 0.54454 0.87715 0.87054 0.0
H720 H 0.51785 0.96774 0.88492 0.0
H721 H 0.51913 0.99813 0.92722 0.0
C722 C 0.89493 0.12429 0.54368 0.0
C723 C 0.89306 0.12531 0.50061 0.0
C724 C 0.90081 0.05927 0.49545 0.0
C725 C 0.91122 0.06111 0.53717 0.0
N726 N 0.89654 0.08584 0.60313 0.0
N727 N 0.89083 0.0934 0.43502 0.0
C728 C 0.90146 0.09072 0.56217 0.0
C729 C 0.89431 0.09242 0.47636 0.0
N730 N 0.89252 0.15592 0.56662 0.0
N731 N 0.89487 1.02525 0.47498 0.0
H732 H 0.88372 0.11647 0.42015 0.0
H733 H 0.89695 0.07215 0.41526 0.0
H734 H 0.89527 1.00012 0.48983 0.0
H735 H 0.88445 1.0211 0.44515 0.0
H736 H 0.89789 0.15837 0.59777 0.0
H737 H 0.88732 0.18081 0.55406 0.0
H738 H 0.88702 0.10535 0.62309 0.0
H739 H 0.89674 0.0599 0.61637 0.0
C740 C 0.20461 0.58143 0.1136 0.0
C741 C 0.20668 0.61564 0.13684 0.0
C742 C 0.13178 0.61191 0.12316 0.0
C743 C 0.13105 0.58048 0.09577 0.0
N744 N 0.16973 0.53902 0.06052 0.0
N745 N 0.1732 0.66683 0.15758 0.0
C746 C 0.16829 0.56616 0.08995 0.0
C747 C 0.17049 0.63178 0.13985 0.0
N748 N 0.23693 0.56276 0.11505 0.0
N749 N 0.09518 0.62172 0.13522 0.0
H750 H 0.2007 0.68237 0.16996 0.0
H751 H 0.14924 0.6819 0.15664 0.0
H752 H 0.06607 0.60716 0.12548 0.0
H753 H 0.09332 0.64162 0.15833 0.0
H754 H 0.23567 0.53579 0.10245 0.0
H755 H 0.2636 0.5727 0.13221 0.0
H756 H 0.19699 0.53007 0.05194 0.0
H757 H 0.14457 0.52801 0.04179 0.0
C758 C 0.32729 0.4812 0.62468 0.0
C759 C 0.32199 0.44312 0.63771 0.0
C760 C 0.38748 0.43742 0.6015 0.0
C761 C 0.39382 0.47601 0.59005 0.0
N762 N 0.37143 0.53549 0.59234 0.0
N763 N 0.34864 0.38571 0.64131 0.0
C764 C 0.36408 0.49808 0.60211 0.0
C765 C 0.35265 0.42154 0.62691 0.0
N766 N 0.29675 0.50109 0.63358 0.0
N767 N 0.41412 0.41543 0.58679 0.0
H768 H 0.32231 0.37189 0.65711 0.0
H769 H 0.37215 0.37016 0.63961 0.0
H770 H 0.44046 0.42607 0.56929 0.0
H771 H 0.40903 0.38619 0.58951 0.0
H772 H 0.29585 0.52741 0.62185 0.0
H773 H 0.27071 0.4904 0.65155 0.0
H774 H 0.3539 0.55469 0.60328 0.0
H775 H 0.39679 0.54805 0.57442 0.0
C776 C 0.76066 0.6338 0.93766 0.0
C777 C 0.76232 0.6618 0.90792 0.0
C778 C 0.82952 0.64975 0.8833 0.0
C779 C 0.83193 0.62877 0.91856 0.0
N780 N 0.7996 0.59805 0.97853 0.0
N781 N 0.79863 0.69719 0.85191 0.0
C782 C 0.797 0.61916 0.94507 0.0
C783 C 0.79628 0.66926 0.87976 0.0
N784 N 0.72453 0.62208 0.95916 0.0
N785 N 0.85967 0.65161 0.85379 0.0
H786 H 0.7751 0.71228 0.84784 0.0
H787 H 0.82514 0.70715 0.83436 0.0
H788 H 0.88447 0.6376 0.85613 0.0
H789 H 0.85791 0.66369 0.82559 0.0
H790 H 0.71993 0.59977 0.9793 0.0
H791 H 0.69774 0.63273 0.95387 0.0
H792 H 0.77714 0.59366 1.00161 0.0
H793 H 0.82536 0.58606 0.98408 0.0
C794 C 0.44679 0.85967 0.11488 0.0
C795 C 0.42728 0.85853 0.154 0.0
C796 C 0.44009 0.92906 0.15481 0.0
C797 C 0.45804 0.93008 0.11487 0.0
N798 N 0.4705 0.89526 0.05406 0.0
N799 N 0.39931 0.89221 0.20823 0.0
C800 C 0.45909 0.89497 0.09426 0.0
C801 C 0.42195 0.8933 0.17287 0.0
N802 N 0.45435 0.82686 0.09749 0.0
N803 N 0.44253 0.9621 0.1767 0.0
H804 H 0.38717 0.86703 0.22299 0.0
H805 H 0.38993 0.91574 0.22133 0.0
H806 H 0.45535 0.98854 0.16504 0.0
H807 H 0.43477 0.96326 0.20747 0.0
H808 H 0.47316 0.82601 0.0718 0.0
H809 H 0.44408 0.8004 0.11029 0.0
H810 H 0.46794 0.87097 0.03575 0.0
H811 H 0.47871 0.92011 0.03774 0.0
C812 C 0.11565 0.17654 0.64425 0.0
C813 C 0.09331 0.20659 0.64372 0.0
C814 C 0.03811 0.16417 0.60419 0.0
C815 C 0.06263 0.13566 0.6009 0.0
N816 N 0.12975 0.11954 0.61092 0.0
N817 N 0.03636 0.23065 0.61604 0.0
C818 C 0.10275 0.14318 0.61916 0.0
C819 C 0.05539 0.2008 0.62165 0.0
N820 N 0.14865 0.17918 0.66982 0.0
N821 N 0.99741 0.15587 0.59248 0.0
H822 H 0.04795 0.25772 0.62796 0.0
H823 H 1.01139 0.22942 0.59646 0.0
H824 H 0.98304 0.12933 0.58113 0.0
H825 H 0.9768 0.17398 0.59804 0.0
H826 H 0.16342 0.1567 0.67481 0.0
H827 H 0.15856 0.20249 0.68918 0.0
H828 H 0.16081 0.12558 0.61986 0.0
H829 H 0.12262 0.096 0.59135 0.0
C830 C 0.71641 0.33484 0.48552 0.0
C831 C 0.74107 0.34322 0.44979 0.0
C832 C 0.69378 0.3823 0.42545 0.0
C833 C 0.66981 0.37486 0.46173 0.0
N834 N 0.66133 0.34987 0.52933 0.0
N835 N 0.75831 0.37966 0.38922 0.0
C836 C 0.6821 0.35289 0.49276 0.0
C837 C 0.73131 0.36851 0.42083 0.0
N838 N 0.72507 0.3087 0.51177 0.0
N839 N 0.67984 0.40144 0.39486 0.0
H840 H 0.78578 0.36961 0.38455 0.0
H841 H 0.75537 0.40103 0.36945 0.0
H842 H 0.65299 0.41277 0.3975 0.0
H843 H 0.69315 0.40399 0.36585 0.0
H844 H 0.70555 0.29793 0.53581 0.0
H845 H 0.75082 0.29592 0.50813 0.0
H846 H 0.67131 0.33766 0.55473 0.0
H847 H 0.63556 0.36216 0.53534 0.0
loop_
_geom_bond_atom_site_label_1
_geom_bond_atom_site_label_2
_geom_bond_distance
_geom_bond_site_symmetry_2
_ccdc_geom_bond_type
P0 O11 1.490 . S
P0 C14 1.812 . S
P0 C20 1.803 . S
P0 C26 1.819 . S
H1 C15 0.941 . S
H2 C16 0.939 . S
H3 C18 0.940 . S
H4 C19 0.940 . S
H5 C21 0.939 . S
H6 C22 0.942 . S
H7 C24 0.940 . S
H8 C25 0.939 . S
H9 C27 0.941 . S
H10 C31 0.939 . S
O11 P0 1.490 . S
H12 C28 0.939 . S
H13 C30 0.940 . S
C14 P0 1.812 . S
C14 C15 1.389 . S
C14 C19 1.391 . S
C15 H1 0.941 . S
C15 C14 1.389 . S
C15 C16 1.397 . S
C16 H2 0.939 . S
C16 C15 1.397 . S
C16 C17 1.378 . S
C17 C16 1.378 . S
C17 C18 1.378 . S
C18 H3 0.940 . S
C18 C17 1.378 . S
C18 C19 1.396 . S
C19 H4 0.940 . S
C19 C14 1.391 . S
C19 C18 1.396 . S
C20 P0 1.803 . S
C20 C21 1.378 . S
C20 C25 1.400 . S
C21 H5 0.939 . S
C21 C20 1.378 . S
C21 C22 1.361 . S
C22 H6 0.942 . S
C22 C21 1.361 . S
C22 C23 1.369 . S
C23 C22 1.369 . S
C23 C24 1.404 . S
C24 H7 0.940 . S
C24 C23 1.404 . S
C24 C25 1.389 . S
C25 H8 0.939 . S
C25 C20 1.400 . S
C25 C24 1.389 . S
C26 P0 1.819 . S
C26 C27 1.391 . S
C26 C31 1.391 . S
C27 H9 0.941 . S
C27 C26 1.391 . S
C27 C28 1.396 . S
C28 H12 0.939 . S
C28 C27 1.396 . S
C28 C29 1.397 . S
C29 C28 1.397 . S
C29 C30 1.385 . S
C30 H13 0.940 . S
C30 C29 1.385 . S
C30 C31 1.388 . S
C31 H10 0.939 . S
C31 C26 1.391 . S
C31 C30 1.388 . S
P32 O43 1.490 . S
P32 C46 1.812 . S
P32 C52 1.803 . S
P32 C58 1.819 . S
H33 C47 0.941 . S
H34 C48 0.939 . S
H35 C50 0.940 . S
H36 C51 0.940 . S
H37 C53 0.939 . S
H38 C54 0.942 . S
H39 C56 0.940 . S
H40 C57 0.939 . S
H41 C59 0.941 . S
H42 C63 0.939 . S
O43 P32 1.490 . S
H44 C60 0.939 . S
H45 C62 0.940 . S
C46 P32 1.812 . S
C46 C47 1.389 . S
C46 C51 1.391 . S
C47 H33 0.941 . S
C47 C46 1.389 . S
C47 C48 1.397 . S
C48 H34 0.939 . S
C48 C47 1.397 . S
C48 C49 1.378 . S
C49 C48 1.378 . S
C49 C50 1.378 . S
C50 H35 0.940 . S
C50 C49 1.378 . S
C50 C51 1.396 . S
C51 H36 0.940 . S
C51 C46 1.391 . S
C51 C50 1.396 . S
C52 P32 1.803 . S
C52 C53 1.378 . S
C52 C57 1.400 . S
C53 H37 0.939 . S
C53 C52 1.378 . S
C53 C54 1.361 . S
C54 H38 0.942 . S
C54 C53 1.361 . S
C54 C55 1.369 . S
C55 C54 1.369 . S
C55 C56 1.404 . S
C56 H39 0.940 . S
C56 C55 1.404 . S
C56 C57 1.389 . S
C57 H40 0.939 . S
C57 C52 1.400 . S
C57 C56 1.389 . S
C58 P32 1.819 . S
C58 C59 1.391 . S
C58 C63 1.391 . S
C59 H41 0.941 . S
C59 C58 1.391 . S
C59 C60 1.396 . S
C60 H44 0.939 . S
C60 C59 1.396 . S
C60 C61 1.397 . S
C61 C60 1.397 . S
C61 C62 1.385 . S
C62 H45 0.940 . S
C62 C61 1.385 . S
C62 C63 1.388 . S
C63 H42 0.939 . S
C63 C58 1.391 . S
C63 C62 1.388 . S
P64 O75 1.490 . S
P64 C78 1.812 . S
P64 C84 1.803 . S
P64 C90 1.819 . S
H65 C79 0.941 . S
H66 C80 0.939 . S
H67 C82 0.940 . S
H68 C83 0.940 . S
H69 C85 0.939 . S
H70 C86 0.942 . S
H71 C88 0.940 . S
H72 C89 0.939 . S
H73 C91 0.941 . S
H74 C95 0.939 . S
O75 P64 1.490 . S
H76 C92 0.939 . S
H77 C94 0.940 . S
C78 P64 1.812 . S
C78 C79 1.389 . S
C78 C83 1.391 . S
C79 H65 0.941 . S
C79 C78 1.389 . S
C79 C80 1.397 . S
C80 H66 0.939 . S
C80 C79 1.397 . S
C80 C81 1.378 . S
C81 C80 1.378 . S
C81 C82 1.378 . S
C82 H67 0.940 . S
C82 C81 1.378 . S
C82 C83 1.396 . S
C83 H68 0.940 . S
C83 C78 1.391 . S
C83 C82 1.396 . S
C84 P64 1.803 . S
C84 C85 1.378 . S
C84 C89 1.400 . S
C85 H69 0.939 . S
C85 C84 1.378 . S
C85 C86 1.361 . S
C86 H70 0.942 . S
C86 C85 1.361 . S
C86 C87 1.369 . S
C87 C86 1.369 . S
C87 C88 1.404 . S
C88 H71 0.940 . S
C88 C87 1.404 . S
C88 C89 1.389 . S
C89 H72 0.939 . S
C89 C84 1.400 . S
C89 C88 1.389 . S
C90 P64 1.819 . S
C90 C91 1.391 . S
C90 C95 1.391 . S
C91 H73 0.941 . S
C91 C90 1.391 . S
C91 C92 1.396 . S
C92 H76 0.939 . S
C92 C91 1.396 . S
C92 C93 1.397 . S
C93 C92 1.397 . S
C93 C94 1.385 . S
C94 H77 0.940 . S
C94 C93 1.385 . S
C94 C95 1.388 . S
C95 H74 0.939 . S
C95 C90 1.391 . S
C95 C94 1.388 . S
P96 O107 1.490 . S
P96 C110 1.812 . S
P96 C116 1.803 . S
P96 C122 1.819 . S
H97 C111 0.941 . S
H98 C112 0.939 . S
H99 C114 0.940 . S
H100 C115 0.940 . S
H101 C117 0.939 . S
H102 C118 0.942 . S
H103 C120 0.940 . S
H104 C121 0.939 . S
H105 C123 0.941 . S
H106 C127 0.939 . S
O107 P96 1.490 . S
H108 C124 0.939 . S
H109 C126 0.940 . S
C110 P96 1.812 . S
C110 C111 1.389 . S
C110 C115 1.391 . S
C111 H97 0.941 . S
C111 C110 1.389 . S
C111 C112 1.397 . S
C112 H98 0.939 . S
C112 C111 1.397 . S
C112 C113 1.378 . S
C113 C112 1.378 . S
C113 C114 1.378 . S
C114 H99 0.940 . S
C114 C113 1.378 . S
C114 C115 1.396 . S
C115 H100 0.940 . S
C115 C110 1.391 . S
C115 C114 1.396 . S
C116 P96 1.803 . S
C116 C117 1.378 . S
C116 C121 1.400 . S
C117 H101 0.939 . S
C117 C116 1.378 . S
C117 C118 1.361 . S
C118 H102 0.942 . S
C118 C117 1.361 . S
C118 C119 1.369 . S
C119 C118 1.369 . S
C119 C120 1.404 . S
C120 H103 0.940 . S
C120 C119 1.404 . S
C120 C121 1.389 . S
C121 H104 0.939 . S
C121 C116 1.400 . S
C121 C120 1.389 . S
C122 P96 1.819 . S
C122 C123 1.391 . S
C122 C127 1.391 . S
C123 H105 0.941 . S
C123 C122 1.391 . S
C123 C124 1.396 . S
C124 H108 0.939 . S
C124 C123 1.396 . S
C124 C125 1.397 . S
C125 C124 1.397 . S
C125 C126 1.385 . S
C126 H109 0.940 . S
C126 C125 1.385 . S
C126 C127 1.388 . S
C127 H106 0.939 . S
C127 C122 1.391 . S
C127 C126 1.388 . S
P128 O139 1.490 . S
P128 C142 1.812 . S
P128 C148 1.803 . S
P128 C154 1.819 . S
H129 C143 0.941 . S
H130 C144 0.939 . S
H131 C146 0.940 . S
H132 C147 0.940 . S
H133 C149 0.939 . S
H134 C150 0.942 . S
H135 C152 0.940 . S
H136 C153 0.939 . S
H137 C155 0.941 . S
H138 C159 0.939 . S
O139 P128 1.490 . S
H140 C156 0.939 . S
H141 C158 0.940 . S
C142 P128 1.812 . S
C142 C143 1.389 . S
C142 C147 1.391 . S
C143 H129 0.941 . S
C143 C142 1.389 . S
C143 C144 1.397 . S
C144 H130 0.939 . S
C144 C143 1.397 . S
C144 C145 1.378 . S
C145 C144 1.378 . S
C145 C146 1.378 . S
C146 H131 0.940 . S
C146 C145 1.378 . S
C146 C147 1.396 . S
C147 H132 0.940 . S
C147 C142 1.391 . S
C147 C146 1.396 . S
C148 P128 1.803 . S
C148 C149 1.378 . S
C148 C153 1.400 . S
C149 H133 0.939 . S
C149 C148 1.378 . S
C149 C150 1.361 . S
C150 H134 0.942 . S
C150 C149 1.361 . S
C150 C151 1.369 . S
C151 C150 1.369 . S
C151 C152 1.404 . S
C152 H135 0.940 . S
C152 C151 1.404 . S
C152 C153 1.389 . S
C153 H136 0.939 . S
C153 C148 1.400 . S
C153 C152 1.389 . S
C154 P128 1.819 . S
C154 C155 1.391 . S
C154 C159 1.391 . S
C155 H137 0.941 . S
C155 C154 1.391 . S
C155 C156 1.396 . S
C156 H140 0.939 . S
C156 C155 1.396 . S
C156 C157 1.397 . S
C157 C156 1.397 . S
C157 C158 1.385 . S
C158 H141 0.940 . S
C158 C157 1.385 . S
C158 C159 1.388 . S
C159 H138 0.939 . S
C159 C154 1.391 . S
C159 C158 1.388 . S
P160 O171 1.490 . S
P160 C174 1.812 . S
P160 C180 1.803 . S
P160 C186 1.819 . S
H161 C175 0.941 . S
H162 C176 0.939 . S
H163 C178 0.940 . S
H164 C179 0.940 . S
H165 C181 0.939 . S
H166 C182 0.942 . S
H167 C184 0.940 . S
H168 C185 0.939 . S
H169 C187 0.941 . S
H170 C191 0.939 . S
O171 P160 1.490 . S
H172 C188 0.939 . S
H173 C190 0.940 . S
C174 P160 1.812 . S
C174 C175 1.389 . S
C174 C179 1.391 . S
C175 H161 0.941 . S
C175 C174 1.389 . S
C175 C176 1.397 . S
C176 H162 0.939 . S
C176 C175 1.397 . S
C176 C177 1.378 . S
C177 C176 1.378 . S
C177 C178 1.378 . S
C178 H163 0.940 . S
C178 C177 1.378 . S
C178 C179 1.396 . S
C179 H164 0.940 . S
C179 C174 1.391 . S
C179 C178 1.396 . S
C180 P160 1.803 . S
C180 C181 1.378 . S
C180 C185 1.400 . S
C181 H165 0.939 . S
C181 C180 1.378 . S
C181 C182 1.361 . S
C182 H166 0.942 . S
C182 C181 1.361 . S
C182 C183 1.369 . S
C183 C182 1.369 . S
C183 C184 1.404 . S
C184 H167 0.940 . S
C184 C183 1.404 . S
C184 C185 1.389 . S
C185 H168 0.939 . S
C185 C180 1.400 . S
C185 C184 1.389 . S
C186 P160 1.819 . S
C186 C187 1.391 . S
C186 C191 1.391 . S
C187 H169 0.941 . S
C187 C186 1.391 . S
C187 C188 1.396 . S
C188 H172 0.939 . S
C188 C187 1.396 . S
C188 C189 1.397 . S
C189 C188 1.397 . S
C189 C190 1.385 . S
C190 H173 0.940 . S
C190 C189 1.385 . S
C190 C191 1.388 . S
C191 H170 0.939 . S
C191 C186 1.391 . S
C191 C190 1.388 . S
P192 O203 1.490 . S
P192 C206 1.812 . S
P192 C212 1.803 . S
P192 C218 1.819 . S
H193 C207 0.941 . S
H194 C208 0.939 . S
H195 C210 0.940 . S
H196 C211 0.940 . S
H197 C213 0.939 . S
H198 C214 0.942 . S
H199 C216 0.940 . S
H200 C217 0.939 . S
H201 C219 0.941 . S
H202 C223 0.939 . S
O203 P192 1.490 . S
H204 C220 0.939 . S
H205 C222 0.940 . S
C206 P192 1.812 . S
C206 C207 1.389 . S
C206 C211 1.391 . S
C207 H193 0.941 . S
C207 C206 1.389 . S
C207 C208 1.397 . S
C208 H194 0.939 . S
C208 C207 1.397 . S
C208 C209 1.378 . S
C209 C208 1.378 . S
C209 C210 1.378 . S
C210 H195 0.940 . S
C210 C209 1.378 . S
C210 C211 1.396 . S
C211 H196 0.940 . S
C211 C206 1.391 . S
C211 C210 1.396 . S
C212 P192 1.803 . S
C212 C213 1.378 . S
C212 C217 1.400 . S
C213 H197 0.939 . S
C213 C212 1.378 . S
C213 C214 1.361 . S
C214 H198 0.942 . S
C214 C213 1.361 . S
C214 C215 1.369 . S
C215 C214 1.369 . S
C215 C216 1.404 . S
C216 H199 0.940 . S
C216 C215 1.404 . S
C216 C217 1.389 . S
C217 H200 0.939 . S
C217 C212 1.400 . S
C217 C216 1.389 . S
C218 P192 1.819 . S
C218 C219 1.391 . S
C218 C223 1.391 . S
C219 H201 0.941 . S
C219 C218 1.391 . S
C219 C220 1.396 . S
C220 H204 0.939 . S
C220 C219 1.396 . S
C220 C221 1.397 . S
C221 C220 1.397 . S
C221 C222 1.385 . S
C222 H205 0.940 . S
C222 C221 1.385 . S
C222 C223 1.388 . S
C223 H202 0.939 . S
C223 C218 1.391 . S
C223 C222 1.388 . S
P224 O235 1.490 . S
P224 C238 1.812 . S
P224 C244 1.803 . S
P224 C250 1.819 . S
H225 C239 0.941 . S
H226 C240 0.939 . S
H227 C242 0.940 . S
H228 C243 0.940 . S
H229 C245 0.939 . S
H230 C246 0.942 . S
H231 C248 0.940 . S
H232 C249 0.939 . S
H233 C251 0.941 . S
H234 C255 0.939 . S
O235 P224 1.490 . S
H236 C252 0.939 . S
H237 C254 0.940 . S
C238 P224 1.812 . S
C238 C239 1.389 . S
C238 C243 1.391 . S
C239 H225 0.941 . S
C239 C238 1.389 . S
C239 C240 1.397 . S
C240 H226 0.939 . S
C240 C239 1.397 . S
C240 C241 1.378 . S
C241 C240 1.378 . S
C241 C242 1.378 . S
C242 H227 0.940 . S
C242 C241 1.378 . S
C242 C243 1.396 . S
C243 H228 0.940 . S
C243 C238 1.391 . S
C243 C242 1.396 . S
C244 P224 1.803 . S
C244 C245 1.378 . S
C244 C249 1.400 . S
C245 H229 0.939 . S
C245 C244 1.378 . S
C245 C246 1.361 . S
C246 H230 0.942 . S
C246 C245 1.361 . S
C246 C247 1.369 . S
C247 C246 1.369 . S
C247 C248 1.404 . S
C248 H231 0.940 . S
C248 C247 1.404 . S
C248 C249 1.389 . S
C249 H232 0.939 . S
C249 C244 1.400 . S
C249 C248 1.389 . S
C250 P224 1.819 . S
C250 C251 1.391 . S
C250 C255 1.391 . S
C251 H233 0.941 . S
C251 C250 1.391 . S
C251 C252 1.396 . S
C252 H236 0.939 . S
C252 C251 1.396 . S
C252 C253 1.397 . S
C253 C252 1.397 . S
C253 C254 1.385 . S
C254 H237 0.940 . S
C254 C253 1.385 . S
C254 C255 1.388 . S
C255 H234 0.939 . S
C255 C250 1.391 . S
C255 C254 1.388 . S
Sm256 C258 2.846 . S
Sm256 O276 2.543 . S
Sm256 O277 2.450 . S
Sm256 O278 2.681 1_545 S
Sm256 O279 2.464 1_545 S
Sm256 O280 2.396 . S
Sm256 O284 2.386 1_455 S
Sm256 O287 2.408 1_445 S
Sm257 C267 2.846 . S
Sm257 O278 2.386 1_655 S
Sm257 O281 2.408 1_665 S
Sm257 O282 2.543 . S
Sm257 O283 2.450 . S
Sm257 O284 2.681 1_565 S
Sm257 O285 2.464 1_565 S
Sm257 O286 2.396 . S
C258 Sm256 2.846 . S
C258 C259 1.506 . S
C258 O276 1.261 . S
C258 O277 1.242 . S
C259 C258 1.506 . S
C259 C260 1.358 . S
C259 C264 1.382 . S
C260 C259 1.358 . S
C260 C261 1.385 . S
C260 H288 0.930 . S
C261 C260 1.385 . S
C261 C262 1.395 . S
C261 H289 0.929 . S
C262 C261 1.395 . S
C262 C263 1.335 . S
C263 C262 1.335 . S
C263 C264 1.398 . S
C263 H290 0.930 . S
C264 C259 1.382 . S
C264 C263 1.398 . S
C264 H291 0.929 . S
C265 O278 1.271 . S
C265 O279 1.251 . S
C266 O280 1.252 . S
C266 O281 1.272 . S
C267 Sm257 2.846 . S
C267 C268 1.506 . S
C267 O282 1.261 . S
C267 O283 1.242 . S
C268 C267 1.506 . S
C268 C269 1.358 . S
C268 C273 1.382 . S
C269 C268 1.358 . S
C269 C270 1.385 . S
C269 H292 0.930 . S
C270 C269 1.385 . S
C270 C271 1.395 . S
C270 H293 0.929 . S
C271 C270 1.395 . S
C271 C272 1.335 . S
C272 C271 1.335 . S
C272 C273 1.398 . S
C272 H294 0.930 . S
C273 C268 1.382 . S
C273 C272 1.398 . S
C273 H295 0.929 . S
C274 O284 1.271 . S
C274 O285 1.251 . S
C275 O286 1.252 . S
C275 O287 1.272 . S
O276 Sm256 2.543 . S
O276 C258 1.261 . S
O277 Sm256 2.450 . S
O277 C258 1.242 . S
O278 Sm256 2.681 1_565 S
O278 Sm257 2.386 1_455 S
O278 C265 1.271 . S
O279 Sm256 2.464 1_565 S
O279 C265 1.251 . S
O280 Sm256 2.396 . S
O280 C266 1.252 . S
O281 Sm257 2.408 1_445 S
O281 C266 1.272 . S
O282 Sm257 2.543 . S
O282 C267 1.261 . S
O283 Sm257 2.450 . S
O283 C267 1.242 . S
O284 Sm256 2.386 1_655 S
O284 Sm257 2.681 1_545 S
O284 C274 1.271 . S
O285 Sm257 2.464 1_545 S
O285 C274 1.251 . S
O286 Sm257 2.396 . S
O286 C275 1.252 . S
O287 Sm256 2.408 1_665 S
O287 C275 1.272 . S
H288 C260 0.930 . S
H289 C261 0.929 . S
H290 C263 0.930 . S
H291 C264 0.929 . S
H292 C269 0.930 . S
H293 C270 0.929 . S
H294 C272 0.930 . S
H295 C273 0.929 . S
Sm296 C298 2.846 . S
Sm296 O316 2.543 . S
Sm296 O317 2.450 . S
Sm296 O318 2.681 1_545 S
Sm296 O319 2.464 1_545 S
Sm296 O320 2.396 . S
Sm296 O324 2.386 1_554 S
Sm296 O327 2.408 1_544 S
Sm297 C307 2.846 1_545 S
Sm297 O318 2.386 1_546 S
Sm297 O321 2.408 1_556 S
Sm297 O322 2.543 1_545 S
Sm297 O323 2.450 . S
Sm297 O324 2.681 . S
Sm297 O325 2.464 . S
Sm297 O326 2.396 1_545 S
C298 Sm296 2.846 . S
C298 C299 1.506 . S
C298 O316 1.261 . S
C298 O317 1.242 . S
C299 C298 1.506 . S
C299 C300 1.358 . S
C299 C304 1.382 . S
C300 C299 1.358 . S
C300 C301 1.385 . S
C300 H328 0.930 . S
C301 C300 1.385 . S
C301 C302 1.395 . S
C301 H329 0.929 . S
C302 C301 1.395 . S
C302 C303 1.335 . S
C303 C302 1.335 . S
C303 C304 1.398 . S
C303 H330 0.930 . S
C304 C299 1.382 . S
C304 C303 1.398 . S
C304 H331 0.929 . S
C305 O318 1.271 . S
C305 O319 1.251 . S
C306 O320 1.252 . S
C306 O321 1.272 . S
C307 Sm297 2.846 1_565 S
C307 C308 1.506 . S
C307 O322 1.261 . S
C307 O323 1.242 1_565 S
C308 C307 1.506 . S
C308 C309 1.358 . S
C308 C313 1.382 . S
C309 C308 1.358 . S
C309 C310 1.385 . S
C309 H332 0.930 . S
C310 C309 1.385 . S
C310 C311 1.395 . S
C310 H333 0.929 . S
C311 C310 1.395 . S
C311 C312 1.335 . S
C312 C311 1.335 . S
C312 C313 1.398 . S
C312 H334 0.930 . S
C313 C308 1.382 . S
C313 C312 1.398 . S
C313 H335 0.929 . S
C314 O324 1.271 . S
C314 O325 1.251 . S
C315 O326 1.252 . S
C315 O327 1.272 . S
O316 Sm296 2.543 . S
O316 C298 1.261 . S
O317 Sm296 2.450 . S
O317 C298 1.242 . S
O318 Sm296 2.681 1_565 S
O318 Sm297 2.386 1_564 S
O318 C305 1.271 . S
O319 Sm296 2.464 1_565 S
O319 C305 1.251 . S
O320 Sm296 2.396 . S
O320 C306 1.252 . S
O321 Sm297 2.408 1_554 S
O321 C306 1.272 . S
O322 Sm297 2.543 1_565 S
O322 C307 1.261 . S
O323 Sm297 2.450 . S
O323 C307 1.242 1_545 S
O324 Sm296 2.386 1_556 S
O324 Sm297 2.681 . S
O324 C314 1.271 . S
O325 Sm297 2.464 . S
O325 C314 1.251 . S
O326 Sm297 2.396 1_565 S
O326 C315 1.252 . S
O327 Sm296 2.408 1_566 S
O327 C315 1.272 . S
H328 C300 0.930 . S
H329 C301 0.929 . S
H330 C303 0.930 . S
H331 C304 0.929 . S
H332 C309 0.930 . S
H333 C310 0.929 . S
H334 C312 0.930 . S
H335 C313 0.929 . S
Sm336 C338 2.846 . S
Sm336 O356 2.543 . S
Sm336 O357 2.450 . S
Sm336 O358 2.681 . S
Sm336 O359 2.464 . S
Sm336 O360 2.396 . S
Sm336 O364 2.386 . S
Sm336 O367 2.408 . S
Sm337 C347 2.846 . S
Sm337 O358 2.386 . S
Sm337 O361 2.408 . S
Sm337 O362 2.543 . S
Sm337 O363 2.450 . S
Sm337 O364 2.681 . S
Sm337 O365 2.464 . S
Sm337 O366 2.396 . S
C338 Sm336 2.846 . S
C338 C339 1.506 . S
C338 O356 1.261 . S
C338 O357 1.242 . S
C339 C338 1.506 . S
C339 C340 1.358 . S
C339 C344 1.382 . S
C340 C339 1.358 . S
C340 C341 1.385 . S
C340 H368 0.930 . S
C341 C340 1.385 . S
C341 C342 1.395 . S
C341 H369 0.929 . S
C342 C341 1.395 . S
C342 C343 1.335 . S
C343 C342 1.335 . S
C343 C344 1.398 . S
C343 H370 0.930 . S
C344 C339 1.382 . S
C344 C343 1.398 . S
C344 H371 0.929 . S
C345 O358 1.271 . S
C345 O359 1.251 . S
C346 O360 1.252 . S
C346 O361 1.272 . S
C347 Sm337 2.846 . S
C347 C348 1.506 . S
C347 O362 1.261 . S
C347 O363 1.242 . S
C348 C347 1.506 . S
C348 C349 1.358 . S
C348 C353 1.382 . S
C349 C348 1.358 . S
C349 C350 1.385 . S
C349 H372 0.930 . S
C350 C349 1.385 . S
C350 C351 1.395 . S
C350 H373 0.929 . S
C351 C350 1.395 . S
C351 C352 1.335 . S
C352 C351 1.335 . S
C352 C353 1.398 . S
C352 H374 0.930 . S
C353 C348 1.382 . S
C353 C352 1.398 . S
C353 H375 0.929 . S
C354 O364 1.271 . S
C354 O365 1.251 . S
C355 O366 1.252 . S
C355 O367 1.272 . S
O356 Sm336 2.543 . S
O356 C338 1.261 . S
O357 Sm336 2.450 . S
O357 C338 1.242 . S
O358 Sm336 2.681 . S
O358 Sm337 2.386 . S
O358 C345 1.271 . S
O359 Sm336 2.464 . S
O359 C345 1.251 . S
O360 Sm336 2.396 . S
O360 C346 1.252 . S
O361 Sm337 2.408 . S
O361 C346 1.272 . S
O362 Sm337 2.543 . S
O362 C347 1.261 . S
O363 Sm337 2.450 . S
O363 C347 1.242 . S
O364 Sm336 2.386 . S
O364 Sm337 2.681 . S
O364 C354 1.271 . S
O365 Sm337 2.464 . S
O365 C354 1.251 . S
O366 Sm337 2.396 . S
O366 C355 1.252 . S
O367 Sm336 2.408 . S
O367 C355 1.272 . S
H368 C340 0.930 . S
H369 C341 0.929 . S
H370 C343 0.930 . S
H371 C344 0.929 . S
H372 C349 0.930 . S
H373 C350 0.929 . S
H374 C352 0.930 . S
H375 C353 0.929 . S
Sm376 C378 2.846 . S
Sm376 O396 2.543 . S
Sm376 O397 2.450 . S
Sm376 O398 2.681 1_455 S
Sm376 O399 2.464 1_455 S
Sm376 O400 2.396 . S
Sm376 O404 2.386 1_554 S
Sm376 O407 2.408 1_454 S
Sm377 C387 2.846 . S
Sm377 O398 2.386 1_556 S
Sm377 O401 2.408 1_656 S
Sm377 O402 2.543 . S
Sm377 O403 2.450 . S
Sm377 O404 2.681 1_655 S
Sm377 O405 2.464 1_655 S
Sm377 O406 2.396 . S
C378 Sm376 2.846 . S
C378 C379 1.506 . S
C378 O396 1.261 . S
C378 O397 1.242 . S
C379 C378 1.506 . S
C379 C380 1.358 . S
C379 C384 1.382 . S
C380 C379 1.358 . S
C380 C381 1.385 . S
C380 H408 0.930 . S
C381 C380 1.385 . S
C381 C382 1.395 . S
C381 H409 0.929 . S
C382 C381 1.395 . S
C382 C383 1.335 . S
C383 C382 1.335 . S
C383 C384 1.398 . S
C383 H410 0.930 . S
C384 C379 1.382 . S
C384 C383 1.398 . S
C384 H411 0.929 . S
C385 O398 1.271 . S
C385 O399 1.251 . S
C386 O400 1.252 . S
C386 O401 1.272 . S
C387 Sm377 2.846 . S
C387 C388 1.506 . S
C387 O402 1.261 . S
C387 O403 1.242 . S
C388 C387 1.506 . S
C388 C389 1.358 . S
C388 C393 1.382 . S
C389 C388 1.358 . S
C389 C390 1.385 . S
C389 H412 0.930 . S
C390 C389 1.385 . S
C390 C391 1.395 . S
C390 H413 0.929 . S
C391 C390 1.395 . S
C391 C392 1.335 . S
C392 C391 1.335 . S
C392 C393 1.398 . S
C392 H414 0.930 . S
C393 C388 1.382 . S
C393 C392 1.398 . S
C393 H415 0.929 . S
C394 O404 1.271 . S
C394 O405 1.251 . S
C395 O406 1.252 . S
C395 O407 1.272 . S
O396 Sm376 2.543 . S
O396 C378 1.261 . S
O397 Sm376 2.450 . S
O397 C378 1.242 . S
O398 Sm376 2.681 1_655 S
O398 Sm377 2.386 1_554 S
O398 C385 1.271 . S
O399 Sm376 2.464 1_655 S
O399 C385 1.251 . S
O400 Sm376 2.396 . S
O400 C386 1.252 . S
O401 Sm377 2.408 1_454 S
O401 C386 1.272 . S
O402 Sm377 2.543 . S
O402 C387 1.261 . S
O403 Sm377 2.450 . S
O403 C387 1.242 . S
O404 Sm376 2.386 1_556 S
O404 Sm377 2.681 1_455 S
O404 C394 1.271 . S
O405 Sm377 2.464 1_455 S
O405 C394 1.251 . S
O406 Sm377 2.396 . S
O406 C395 1.252 . S
O407 Sm376 2.408 1_656 S
O407 C395 1.272 . S
H408 C380 0.930 . S
H409 C381 0.929 . S
H410 C383 0.930 . S
H411 C384 0.929 . S
H412 C389 0.930 . S
H413 C390 0.929 . S
H414 C392 0.930 . S
H415 C393 0.929 . S
C416 C417 1.363 . S
C416 C422 1.379 . S
C416 N424 1.356 . S
C417 C416 1.363 . S
C417 C423 1.363 . S
C418 C419 1.363 . S
C418 C423 1.379 . S
C418 N425 1.356 . S
C419 C418 1.363 . S
C419 C422 1.363 . S
N420 C422 1.356 . S
N420 H432 0.984 . S
N420 H433 0.985 . S
N421 C423 1.356 . S
N421 H426 0.984 . S
N421 H427 0.985 . S
C422 C416 1.379 . S
C422 C419 1.363 . S
C422 N420 1.356 . S
C423 C417 1.363 . S
C423 C418 1.379 . S
C423 N421 1.356 . S
N424 C416 1.356 . S
N424 H430 0.984 . S
N424 H431 0.984 . S
N425 C418 1.356 . S
N425 H428 0.984 . S
N425 H429 0.985 . S
H426 N421 0.984 . S
H427 N421 0.985 . S
H428 N425 0.984 . S
H429 N425 0.985 . S
H430 N424 0.984 . S
H431 N424 0.984 . S
H432 N420 0.984 . S
H433 N420 0.985 . S
C434 C435 1.363 . S
C434 C440 1.379 . S
C434 N442 1.356 . S
C435 C434 1.363 . S
C435 C441 1.363 . S
C436 C437 1.363 . S
C436 C441 1.379 . S
C436 N443 1.356 . S
C437 C436 1.363 . S
C437 C440 1.363 . S
N438 C440 1.356 . S
N438 H450 0.984 . S
N438 H451 0.985 . S
N439 C441 1.356 . S
N439 H444 0.984 . S
N439 H445 0.985 . S
C440 C434 1.379 . S
C440 C437 1.363 . S
C440 N438 1.356 . S
C441 C435 1.363 . S
C441 C436 1.379 . S
C441 N439 1.356 . S
N442 C434 1.356 . S
N442 H448 0.984 . S
N442 H449 0.984 . S
N443 C436 1.356 . S
N443 H446 0.984 . S
N443 H447 0.985 . S
H444 N439 0.984 . S
H445 N439 0.985 . S
H446 N443 0.984 . S
H447 N443 0.985 . S
H448 N442 0.984 . S
H449 N442 0.984 . S
H450 N438 0.984 . S
H451 N438 0.985 . S
C452 C453 1.363 . S
C452 C458 1.379 . S
C452 N460 1.356 . S
C453 C452 1.363 . S
C453 C459 1.363 . S
C454 C455 1.363 . S
C454 C459 1.379 . S
C454 N461 1.356 . S
C455 C454 1.363 . S
C455 C458 1.363 . S
N456 C458 1.356 . S
N456 H468 0.984 . S
N456 H469 0.985 . S
N457 C459 1.356 . S
N457 H462 0.984 . S
N457 H463 0.985 . S
C458 C452 1.379 . S
C458 C455 1.363 . S
C458 N456 1.356 . S
C459 C453 1.363 . S
C459 C454 1.379 . S
C459 N457 1.356 . S
N460 C452 1.356 . S
N460 H466 0.984 . S
N460 H467 0.984 . S
N461 C454 1.356 . S
N461 H464 0.984 . S
N461 H465 0.985 . S
H462 N457 0.984 . S
H463 N457 0.985 . S
H464 N461 0.984 . S
H465 N461 0.985 . S
H466 N460 0.984 . S
H467 N460 0.984 . S
H468 N456 0.984 . S
H469 N456 0.985 . S
C470 C471 1.363 . S
C470 C476 1.379 . S
C470 N478 1.356 . S
C471 C470 1.363 . S
C471 C477 1.363 . S
C472 C473 1.363 . S
C472 C477 1.379 . S
C472 N479 1.356 . S
C473 C472 1.363 . S
C473 C476 1.363 . S
N474 C476 1.356 . S
N474 H486 0.984 . S
N474 H487 0.985 . S
N475 C477 1.356 . S
N475 H480 0.984 . S
N475 H481 0.985 . S
C476 C470 1.379 . S
C476 C473 1.363 . S
C476 N474 1.356 . S
C477 C471 1.363 . S
C477 C472 1.379 . S
C477 N475 1.356 . S
N478 C470 1.356 . S
N478 H484 0.984 . S
N478 H485 0.984 . S
N479 C472 1.356 . S
N479 H482 0.984 . S
N479 H483 0.985 . S
H480 N475 0.984 . S
H481 N475 0.985 . S
H482 N479 0.984 . S
H483 N479 0.985 . S
H484 N478 0.984 . S
H485 N478 0.984 . S
H486 N474 0.984 . S
H487 N474 0.985 . S
C488 C489 1.363 . S
C488 C494 1.379 . S
C488 N496 1.356 . S
C489 C488 1.363 . S
C489 C495 1.363 . S
C490 C491 1.363 . S
C490 C495 1.379 . S
C490 N497 1.356 . S
C491 C490 1.363 . S
C491 C494 1.363 . S
N492 C494 1.356 . S
N492 H504 0.984 . S
N492 H505 0.985 . S
N493 C495 1.356 . S
N493 H498 0.984 . S
N493 H499 0.985 . S
C494 C488 1.379 . S
C494 C491 1.363 . S
C494 N492 1.356 . S
C495 C489 1.363 . S
C495 C490 1.379 . S
C495 N493 1.356 . S
N496 C488 1.356 . S
N496 H502 0.984 . S
N496 H503 0.984 . S
N497 C490 1.356 . S
N497 H500 0.984 . S
N497 H501 0.985 . S
H498 N493 0.984 . S
H499 N493 0.985 . S
H500 N497 0.984 . S
H501 N497 0.985 . S
H502 N496 0.984 . S
H503 N496 0.984 . S
H504 N492 0.984 . S
H505 N492 0.985 . S
C506 C507 1.363 . S
C506 C512 1.379 . S
C506 N514 1.356 . S
C507 C506 1.363 . S
C507 C513 1.363 . S
C508 C509 1.363 . S
C508 C513 1.379 . S
C508 N515 1.356 . S
C509 C508 1.363 . S
C509 C512 1.363 . S
N510 C512 1.356 . S
N510 H522 0.984 . S
N510 H523 0.979 1_565 S
N511 C513 1.356 . S
N511 H516 0.984 . S
N511 H517 0.985 . S
C512 C506 1.379 . S
C512 C509 1.363 . S
C512 N510 1.356 . S
C513 C507 1.363 . S
C513 C508 1.379 . S
C513 N511 1.356 . S
N514 C506 1.356 . S
N514 H520 0.984 . S
N514 H521 0.984 . S
N515 C508 1.356 . S
N515 H518 0.984 . S
N515 H519 0.985 . S
H516 N511 0.984 . S
H517 N511 0.985 . S
H518 N515 0.984 . S
H519 N515 0.985 . S
H520 N514 0.984 . S
H521 N514 0.984 . S
H522 N510 0.984 . S
H523 N510 0.979 1_545 S
C524 C525 1.363 . S
C524 C530 1.379 . S
C524 N532 1.356 . S
C525 C524 1.363 . S
C525 C531 1.363 . S
C526 C527 1.363 . S
C526 C531 1.379 . S
C526 N533 1.356 . S
C527 C526 1.363 . S
C527 C530 1.363 . S
N528 C530 1.356 . S
N528 H540 0.984 . S
N528 H541 0.985 . S
N529 C531 1.356 . S
N529 H534 0.984 . S
N529 H535 0.985 . S
C530 C524 1.379 . S
C530 C527 1.363 . S
C530 N528 1.356 . S
C531 C525 1.363 . S
C531 C526 1.379 . S
C531 N529 1.356 . S
N532 C524 1.356 . S
N532 H538 0.984 . S
N532 H539 0.984 . S
N533 C526 1.356 . S
N533 H536 0.984 . S
N533 H537 0.985 . S
H534 N529 0.984 . S
H535 N529 0.985 . S
H536 N533 0.984 . S
H537 N533 0.985 . S
H538 N532 0.984 . S
H539 N532 0.984 . S
H540 N528 0.984 . S
H541 N528 0.985 . S
C542 C543 1.363 . S
C542 C548 1.379 . S
C542 N550 1.356 . S
C543 C542 1.363 . S
C543 C549 1.363 . S
C544 C545 1.363 . S
C544 C549 1.379 . S
C544 N551 1.356 . S
C545 C544 1.363 . S
C545 C548 1.363 . S
N546 C548 1.356 . S
N546 H558 0.984 . S
N546 H559 0.985 . S
N547 C549 1.356 . S
N547 H552 0.984 . S
N547 H553 0.985 . S
C548 C542 1.379 . S
C548 C545 1.363 . S
C548 N546 1.356 . S
C549 C543 1.363 . S
C549 C544 1.379 . S
C549 N547 1.356 . S
N550 C542 1.356 . S
N550 H556 0.984 . S
N550 H557 0.984 . S
N551 C544 1.356 . S
N551 H554 0.984 . S
N551 H555 0.985 . S
H552 N547 0.984 . S
H553 N547 0.985 . S
H554 N551 0.984 . S
H555 N551 0.985 . S
H556 N550 0.984 . S
H557 N550 0.984 . S
H558 N546 0.984 . S
H559 N546 0.985 . S
C560 C561 1.363 . S
C560 C566 1.379 . S
C560 N568 1.356 . S
C561 C560 1.363 . S
C561 C567 1.363 . S
C562 C563 1.363 . S
C562 C567 1.379 . S
C562 N569 1.356 . S
C563 C562 1.363 . S
C563 C566 1.363 . S
N564 C566 1.356 . S
N564 H576 0.984 . S
N564 H577 0.985 . S
N565 C567 1.356 . S
N565 H570 0.984 . S
N565 H571 0.985 . S
C566 C560 1.379 . S
C566 C563 1.363 . S
C566 N564 1.356 . S
C567 C561 1.363 . S
C567 C562 1.379 . S
C567 N565 1.356 . S
N568 C560 1.356 . S
N568 H574 0.984 . S
N568 H575 0.984 . S
N569 C562 1.356 . S
N569 H572 0.984 . S
N569 H573 0.985 . S
H570 N565 0.984 . S
H571 N565 0.985 . S
H572 N569 0.984 . S
H573 N569 0.985 . S
H574 N568 0.984 . S
H575 N568 0.984 . S
H576 N564 0.984 . S
H577 N564 0.985 . S
C578 C579 1.363 . S
C578 C584 1.379 . S
C578 N586 1.356 . S
C579 C578 1.363 . S
C579 C585 1.363 . S
C580 C581 1.363 . S
C580 C585 1.379 . S
C580 N587 1.356 . S
C581 C580 1.363 . S
C581 C584 1.363 . S
N582 C584 1.356 . S
N582 H594 0.984 . S
N582 H595 0.985 . S
N583 C585 1.356 . S
N583 H588 0.984 . S
N583 H589 0.985 . S
C584 C578 1.379 . S
C584 C581 1.363 . S
C584 N582 1.356 . S
C585 C579 1.363 . S
C585 C580 1.379 . S
C585 N583 1.356 . S
N586 C578 1.356 . S
N586 H592 0.984 . S
N586 H593 0.984 . S
N587 C580 1.356 . S
N587 H590 0.984 1_556 S
N587 H591 0.985 1_556 S
H588 N583 0.984 . S
H589 N583 0.985 . S
H590 N587 0.984 1_554 S
H591 N587 0.985 1_554 S
H592 N586 0.984 . S
H593 N586 0.984 . S
H594 N582 0.984 . S
H595 N582 0.985 . S
C596 C597 1.363 . S
C596 C602 1.379 . S
C596 N604 1.356 . S
C597 C596 1.363 . S
C597 C603 1.363 . S
C598 C599 1.363 . S
C598 C603 1.379 . S
C598 N605 1.356 . S
C599 C598 1.363 . S
C599 C602 1.363 . S
N600 C602 1.356 . S
N600 H612 0.984 . S
N600 H613 0.985 . S
N601 C603 1.356 . S
N601 H606 0.984 . S
N601 H607 0.985 . S
C602 C596 1.379 . S
C602 C599 1.363 . S
C602 N600 1.356 . S
C603 C597 1.363 . S
C603 C598 1.379 . S
C603 N601 1.356 . S
N604 C596 1.356 . S
N604 H610 0.984 . S
N604 H611 0.984 . S
N605 C598 1.356 . S
N605 H608 0.984 . S
N605 H609 0.985 . S
H606 N601 0.984 . S
H607 N601 0.985 . S
H608 N605 0.984 . S
H609 N605 0.985 . S
H610 N604 0.984 . S
H611 N604 0.984 . S
H612 N600 0.984 . S
H613 N600 0.985 . S
C614 C615 1.363 . S
C614 C620 1.379 . S
C614 N622 1.356 . S
C615 C614 1.363 . S
C615 C621 1.363 . S
C616 C617 1.363 . S
C616 C621 1.379 . S
C616 N623 1.356 . S
C617 C616 1.363 . S
C617 C620 1.363 . S
N618 C620 1.356 . S
N618 H630 0.984 . S
N618 H631 0.985 . S
N619 C621 1.356 . S
N619 H624 0.984 . S
N619 H625 0.985 . S
C620 C614 1.379 . S
C620 C617 1.363 . S
C620 N618 1.356 . S
C621 C615 1.363 . S
C621 C616 1.379 . S
C621 N619 1.356 . S
N622 C614 1.356 . S
N622 H628 0.984 . S
N622 H629 0.984 . S
N623 C616 1.356 . S
N623 H626 0.984 . S
N623 H627 0.985 . S
H624 N619 0.984 . S
H625 N619 0.985 . S
H626 N623 0.984 . S
H627 N623 0.985 . S
H628 N622 0.984 . S
H629 N622 0.984 . S
H630 N618 0.984 . S
H631 N618 0.985 . S
C632 C633 1.363 . S
C632 C638 1.379 . S
C632 N640 1.356 . S
C633 C632 1.363 . S
C633 C639 1.363 . S
C634 C635 1.363 . S
C634 C639 1.379 . S
C634 N641 1.356 . S
C635 C634 1.363 . S
C635 C638 1.363 . S
N636 C638 1.356 . S
N636 H648 0.984 . S
N636 H649 0.985 . S
N637 C639 1.356 . S
N637 H642 0.984 . S
N637 H643 0.985 . S
C638 C632 1.379 . S
C638 C635 1.363 . S
C638 N636 1.356 . S
C639 C633 1.363 . S
C639 C634 1.379 . S
C639 N637 1.356 . S
N640 C632 1.356 . S
N640 H646 0.984 . S
N640 H647 0.984 . S
N641 C634 1.356 . S
N641 H644 0.984 . S
N641 H645 0.985 . S
H642 N637 0.984 . S
H643 N637 0.985 . S
H644 N641 0.984 . S
H645 N641 0.985 . S
H646 N640 0.984 . S
H647 N640 0.984 . S
H648 N636 0.984 . S
H649 N636 0.985 . S
C650 C651 1.363 . S
C650 C656 1.379 . S
C650 N658 1.356 . S
C651 C650 1.363 . S
C651 C657 1.363 . S
C652 C653 1.363 . S
C652 C657 1.379 . S
C652 N659 1.356 . S
C653 C652 1.363 . S
C653 C656 1.363 . S
N654 C656 1.356 . S
N654 H666 0.984 . S
N654 H667 0.985 . S
N655 C657 1.356 . S
N655 H660 0.984 . S
N655 H661 0.985 . S
C656 C650 1.379 . S
C656 C653 1.363 . S
C656 N654 1.356 . S
C657 C651 1.363 . S
C657 C652 1.379 . S
C657 N655 1.356 . S
N658 C650 1.356 . S
N658 H664 0.984 . S
N658 H665 0.984 . S
N659 C652 1.356 . S
N659 H662 0.984 . S
N659 H663 0.985 . S
H660 N655 0.984 . S
H661 N655 0.985 . S
H662 N659 0.984 . S
H663 N659 0.985 . S
H664 N658 0.984 . S
H665 N658 0.984 . S
H666 N654 0.984 . S
H667 N654 0.985 . S
C668 C669 1.363 . S
C668 C674 1.379 . S
C668 N676 1.356 . S
C669 C668 1.363 . S
C669 C675 1.363 . S
C670 C671 1.363 . S
C670 C675 1.379 . S
C670 N677 1.356 . S
C671 C670 1.363 . S
C671 C674 1.363 . S
N672 C674 1.356 . S
N672 H684 0.984 . S
N672 H685 0.985 . S
N673 C675 1.356 . S
N673 H678 0.984 . S
N673 H679 0.985 . S
C674 C668 1.379 . S
C674 C671 1.363 . S
C674 N672 1.356 . S
C675 C669 1.363 . S
C675 C670 1.379 . S
C675 N673 1.356 . S
N676 C668 1.356 . S
N676 H682 0.984 . S
N676 H683 0.984 . S
N677 C670 1.356 . S
N677 H680 0.984 . S
N677 H681 0.985 . S
H678 N673 0.984 . S
H679 N673 0.985 . S
H680 N677 0.984 . S
H681 N677 0.985 . S
H682 N676 0.984 . S
H683 N676 0.984 . S
H684 N672 0.984 . S
H685 N672 0.985 . S
C686 C687 1.363 . S
C686 C692 1.379 . S
C686 N694 1.356 . S
C687 C686 1.363 . S
C687 C693 1.363 . S
C688 C689 1.363 . S
C688 C693 1.379 . S
C688 N695 1.356 . S
C689 C688 1.363 . S
C689 C692 1.363 . S
N690 C692 1.356 . S
N690 H702 0.984 . S
N690 H703 0.985 . S
N691 C693 1.356 . S
N691 H696 0.984 . S
N691 H697 0.985 . S
C692 C686 1.379 . S
C692 C689 1.363 . S
C692 N690 1.356 . S
C693 C687 1.363 . S
C693 C688 1.379 . S
C693 N691 1.356 . S
N694 C686 1.356 . S
N694 H700 0.984 . S
N694 H701 0.984 . S
N695 C688 1.356 . S
N695 H698 0.984 . S
N695 H699 0.985 . S
H696 N691 0.984 . S
H697 N691 0.985 . S
H698 N695 0.984 . S
H699 N695 0.985 . S
H700 N694 0.984 . S
H701 N694 0.984 . S
H702 N690 0.984 . S
H703 N690 0.985 . S
C704 C705 1.363 . S
C704 C710 1.379 . S
C704 N712 1.356 . S
C705 C704 1.363 . S
C705 C711 1.363 . S
C706 C707 1.363 . S
C706 C711 1.379 . S
C706 N713 1.356 . S
C707 C706 1.363 . S
C707 C710 1.363 . S
N708 C710 1.356 . S
N708 H720 0.984 . S
N708 H721 0.985 . S
N709 C711 1.356 . S
N709 H714 0.984 . S
N709 H715 0.985 . S
C710 C704 1.379 . S
C710 C707 1.363 . S
C710 N708 1.356 . S
C711 C705 1.363 . S
C711 C706 1.379 . S
C711 N709 1.356 . S
N712 C704 1.356 . S
N712 H718 0.984 . S
N712 H719 0.984 . S
N713 C706 1.356 . S
N713 H716 0.984 . S
N713 H717 0.985 . S
H714 N709 0.984 . S
H715 N709 0.985 . S
H716 N713 0.984 . S
H717 N713 0.985 . S
H718 N712 0.984 . S
H719 N712 0.984 . S
H720 N708 0.984 . S
H721 N708 0.985 . S
C722 C723 1.363 . S
C722 C728 1.379 . S
C722 N730 1.356 . S
C723 C722 1.363 . S
C723 C729 1.363 . S
C724 C725 1.363 . S
C724 C729 1.379 . S
C724 N731 1.356 . S
C725 C724 1.363 . S
C725 C728 1.363 . S
N726 C728 1.356 . S
N726 H738 0.984 . S
N726 H739 0.985 . S
N727 C729 1.356 . S
N727 H732 0.984 . S
N727 H733 0.985 . S
C728 C722 1.379 . S
C728 C725 1.363 . S
C728 N726 1.356 . S
C729 C723 1.363 . S
C729 C724 1.379 . S
C729 N727 1.356 . S
N730 C722 1.356 . S
N730 H736 0.984 . S
N730 H737 0.984 . S
N731 C724 1.356 . S
N731 H734 0.984 . S
N731 H735 0.985 . S
H732 N727 0.984 . S
H733 N727 0.985 . S
H734 N731 0.984 . S
H735 N731 0.985 . S
H736 N730 0.984 . S
H737 N730 0.984 . S
H738 N726 0.984 . S
H739 N726 0.985 . S
C740 C741 1.363 . S
C740 C746 1.379 . S
C740 N748 1.356 . S
C741 C740 1.363 . S
C741 C747 1.363 . S
C742 C743 1.363 . S
C742 C747 1.379 . S
C742 N749 1.356 . S
C743 C742 1.363 . S
C743 C746 1.363 . S
N744 C746 1.356 . S
N744 H756 0.984 . S
N744 H757 0.985 . S
N745 C747 1.356 . S
N745 H750 0.984 . S
N745 H751 0.985 . S
C746 C740 1.379 . S
C746 C743 1.363 . S
C746 N744 1.356 . S
C747 C741 1.363 . S
C747 C742 1.379 . S
C747 N745 1.356 . S
N748 C740 1.356 . S
N748 H754 0.984 . S
N748 H755 0.984 . S
N749 C742 1.356 . S
N749 H752 0.984 . S
N749 H753 0.985 . S
H750 N745 0.984 . S
H751 N745 0.985 . S
H752 N749 0.984 . S
H753 N749 0.985 . S
H754 N748 0.984 . S
H755 N748 0.984 . S
H756 N744 0.984 . S
H757 N744 0.985 . S
C758 C759 1.363 . S
C758 C764 1.379 . S
C758 N766 1.356 . S
C759 C758 1.363 . S
C759 C765 1.363 . S
C760 C761 1.363 . S
C760 C765 1.379 . S
C760 N767 1.356 . S
C761 C760 1.363 . S
C761 C764 1.363 . S
N762 C764 1.356 . S
N762 H774 0.984 . S
N762 H775 0.985 . S
N763 C765 1.356 . S
N763 H768 0.984 . S
N763 H769 0.985 . S
C764 C758 1.379 . S
C764 C761 1.363 . S
C764 N762 1.356 . S
C765 C759 1.363 . S
C765 C760 1.379 . S
C765 N763 1.356 . S
N766 C758 1.356 . S
N766 H772 0.984 . S
N766 H773 0.984 . S
N767 C760 1.356 . S
N767 H770 0.984 . S
N767 H771 0.985 . S
H768 N763 0.984 . S
H769 N763 0.985 . S
H770 N767 0.984 . S
H771 N767 0.985 . S
H772 N766 0.984 . S
H773 N766 0.984 . S
H774 N762 0.984 . S
H775 N762 0.985 . S
C776 C777 1.363 . S
C776 C782 1.379 . S
C776 N784 1.356 . S
C777 C776 1.363 . S
C777 C783 1.363 . S
C778 C779 1.363 . S
C778 C783 1.379 . S
C778 N785 1.356 . S
C779 C778 1.363 . S
C779 C782 1.363 . S
N780 C782 1.356 . S
N780 H792 0.984 . S
N780 H793 0.985 . S
N781 C783 1.356 . S
N781 H786 0.984 . S
N781 H787 0.985 . S
C782 C776 1.379 . S
C782 C779 1.363 . S
C782 N780 1.356 . S
C783 C777 1.363 . S
C783 C778 1.379 . S
C783 N781 1.356 . S
N784 C776 1.356 . S
N784 H790 0.984 . S
N784 H791 0.984 . S
N785 C778 1.356 . S
N785 H788 0.984 . S
N785 H789 0.985 . S
H786 N781 0.984 . S
H787 N781 0.985 . S
H788 N785 0.984 . S
H789 N785 0.985 . S
H790 N784 0.984 . S
H791 N784 0.984 . S
H792 N780 0.984 . S
H793 N780 0.985 . S
C794 C795 1.363 . S
C794 C800 1.379 . S
C794 N802 1.356 . S
C795 C794 1.363 . S
C795 C801 1.363 . S
C796 C797 1.363 . S
C796 C801 1.379 . S
C796 N803 1.356 . S
C797 C796 1.363 . S
C797 C800 1.363 . S
N798 C800 1.356 . S
N798 H810 0.984 . S
N798 H811 0.985 . S
N799 C801 1.356 . S
N799 H804 0.984 . S
N799 H805 0.985 . S
C800 C794 1.379 . S
C800 C797 1.363 . S
C800 N798 1.356 . S
C801 C795 1.363 . S
C801 C796 1.379 . S
C801 N799 1.356 . S
N802 C794 1.356 . S
N802 H808 0.984 . S
N802 H809 0.984 . S
N803 C796 1.356 . S
N803 H806 0.984 . S
N803 H807 0.985 . S
H804 N799 0.984 . S
H805 N799 0.985 . S
H806 N803 0.984 . S
H807 N803 0.985 . S
H808 N802 0.984 . S
H809 N802 0.984 . S
H810 N798 0.984 . S
H811 N798 0.985 . S
C812 C813 1.363 . S
C812 C818 1.379 . S
C812 N820 1.356 . S
C813 C812 1.363 . S
C813 C819 1.363 . S
C814 C815 1.363 . S
C814 C819 1.379 . S
C814 N821 1.356 . S
C815 C814 1.363 . S
C815 C818 1.363 . S
N816 C818 1.356 . S
N816 H828 0.984 . S
N816 H829 0.985 . S
N817 C819 1.356 . S
N817 H822 0.984 . S
N817 H823 0.985 . S
C818 C812 1.379 . S
C818 C815 1.363 . S
C818 N816 1.356 . S
C819 C813 1.363 . S
C819 C814 1.379 . S
C819 N817 1.356 . S
N820 C812 1.356 . S
N820 H826 0.984 . S
N820 H827 0.984 . S
N821 C814 1.356 . S
N821 H824 0.984 . S
N821 H825 0.985 . S
H822 N817 0.984 . S
H823 N817 0.985 . S
H824 N821 0.984 . S
H825 N821 0.985 . S
H826 N820 0.984 . S
H827 N820 0.984 . S
H828 N816 0.984 . S
H829 N816 0.985 . S
C830 C831 1.363 . S
C830 C836 1.379 . S
C830 N838 1.356 . S
C831 C830 1.363 . S
C831 C837 1.363 . S
C832 C833 1.363 . S
C832 C837 1.379 . S
C832 N839 1.356 . S
C833 C832 1.363 . S
C833 C836 1.363 . S
N834 C836 1.356 . S
N834 H846 0.984 . S
N834 H847 0.985 . S
N835 C837 1.356 . S
N835 H840 0.984 . S
N835 H841 0.985 . S
C836 C830 1.379 . S
C836 C833 1.363 . S
C836 N834 1.356 . S
C837 C831 1.363 . S
C837 C832 1.379 . S
C837 N835 1.356 . S
N838 C830 1.356 . S
N838 H844 0.984 . S
N838 H845 0.984 . S
N839 C832 1.356 . S
N839 H842 0.984 . S
N839 H843 0.985 . S
H840 N835 0.984 . S
H841 N835 0.985 . S
H842 N839 0.984 . S
H843 N839 0.985 . S
H844 N838 0.984 . S
H845 N838 0.984 . S
H846 N834 0.984 . S
H847 N834 0.985 . S
C417 C29 1.280 . S
C419 C262 1.291 . S
C435 C49 1.025 . S
C437 C311 1.050 . S
C455 C346 2.535 . S
C453 C93 2.548 . S
C471 C119 2.380 . S
C473 C385 2.374 . S
C491 C306 2.391 . S
C489 C17 2.320 . S
C509 C265 0.828 . S
C507 C61 0.841 . S
C527 C395 1.929 . S
C525 C81 1.973 . S
C545 C354 1.760 . S
C543 C125 1.744 . S
C561 C23 1.641 . S
C563 C382 1.661 . S
C581 C314 2.314 . S
C579 C87 2.371 . S
C597 C113 2.339 . S
C599 C275 2.375 . S
C615 C55 1.020 . S
C617 C351 1.125 . S
C635 C271 1.299 . S
C633 C157 1.090 . S
C651 C189 1.069 . S
C653 C302 1.077 . S
C669 C221 2.517 . S
C671 C355 2.497 . S
C687 C253 2.445 . S
C689 C394 2.460 . S
C705 C145 2.093 . S
C707 C315 2.461 . S
C725 C274 0.796 . S
C723 C183 0.804 . S
C743 C386 1.961 . S
C741 C209 1.959 . S
C761 C345 1.731 . S
C759 C247 1.703 . S
C777 C151 1.471 . S
C779 C391 1.683 . S
C797 C305 2.312 . S
C795 C215 2.374 . S
C815 C266 2.353 . S
C813 C241 2.298 . S
C831 C177 1.095 . S
C833 C342 1.096 . S
