# Generated by pormake.
# Topology csq, (4,8)-cn, num edge types: 1
# Building blocks:
#     Node 0, Type 0, BuildingBlock: NAWXER_clean_linker_0, # of connection points: 4
#     Node 1, Type 0, BuildingBlock: NAWXER_clean_linker_0, # of connection points: 4
#     Node 2, Type 0, BuildingBlock: NAWXER_clean_linker_0, # of connection points: 4
#     Node 3, Type 0, BuildingBlock: NAWXER_clean_linker_0, # of connection points: 4
#     Node 4, Type 0, BuildingBlock: NAWXER_clean_linker_0, # of connection points: 4
#     Node 5, Type 0, BuildingBlock: NAWXER_clean_linker_0, # of connection points: 4
#     Node 6, Type 1, BuildingBlock: TAGTUT_clean_sbu_3, # of connection points: 8
#     Node 7, Type 1, BuildingBlock: TAGTUT_clean_sbu_3, # of connection points: 8
#     Node 8, Type 1, BuildingBlock: TAGTUT_clean_sbu_3, # of connection points: 8
#     Edge 9, Type (0, 1), BuildingBlock: OJICUG_clean_linker_0, # of connection points: 2
#     Edge 10, Type (0, 1), BuildingBlock: OJICUG_clean_linker_0, # of connection points: 2
#     Edge 11, Type (0, 1), BuildingBlock: OJICUG_clean_linker_0, # of connection points: 2
#     Edge 12, Type (0, 1), BuildingBlock: OJICUG_clean_linker_0, # of connection points: 2
#     Edge 13, Type (0, 1), BuildingBlock: OJICUG_clean_linker_0, # of connection points: 2
#     Edge 14, Type (0, 1), BuildingBlock: OJICUG_clean_linker_0, # of connection points: 2
#     Edge 15, Type (0, 1), BuildingBlock: OJICUG_clean_linker_0, # of connection points: 2
#     Edge 16, Type (0, 1), BuildingBlock: OJICUG_clean_linker_0, # of connection points: 2
#     Edge 17, Type (0, 1), BuildingBlock: OJICUG_clean_linker_0, # of connection points: 2
#     Edge 18, Type (0, 1), BuildingBlock: OJICUG_clean_linker_0, # of connection points: 2
#     Edge 19, Type (0, 1), BuildingBlock: OJICUG_clean_linker_0, # of connection points: 2
#     Edge 20, Type (0, 1), BuildingBlock: OJICUG_clean_linker_0, # of connection points: 2
#     Edge 21, Type (0, 1), BuildingBlock: OJICUG_clean_linker_0, # of connection points: 2
#     Edge 22, Type (0, 1), BuildingBlock: OJICUG_clean_linker_0, # of connection points: 2
#     Edge 23, Type (0, 1), BuildingBlock: OJICUG_clean_linker_0, # of connection points: 2
#     Edge 24, Type (0, 1), BuildingBlock: OJICUG_clean_linker_0, # of connection points: 2
#     Edge 25, Type (0, 1), BuildingBlock: OJICUG_clean_linker_0, # of connection points: 2
#     Edge 26, Type (0, 1), BuildingBlock: OJICUG_clean_linker_0, # of connection points: 2
#     Edge 27, Type (0, 1), BuildingBlock: OJICUG_clean_linker_0, # of connection points: 2
#     Edge 28, Type (0, 1), BuildingBlock: OJICUG_clean_linker_0, # of connection points: 2
#     Edge 29, Type (0, 1), BuildingBlock: OJICUG_clean_linker_0, # of connection points: 2
#     Edge 30, Type (0, 1), BuildingBlock: OJICUG_clean_linker_0, # of connection points: 2
#     Edge 31, Type (0, 1), BuildingBlock: OJICUG_clean_linker_0, # of connection points: 2
#     Edge 32, Type (0, 1), BuildingBlock: OJICUG_clean_linker_0, # of connection points: 2
# Relax obj value: 0.028
# Max RMSD: 0.107
# Mean RMSD: 0.039
data_MOF--net-csq--node1-TAGTUT_clean_sbu_3--node2-NAWXER_clean_linker_0--edge1-OJICUG_clean_linker_0
_symmetry_space_group_name_H-M    P1
_symmetry_Int_Tables_number       1
_symmetry_cell_setting            triclinic
loop_
_symmetry_equiv_pos_as_xyz
'x, y, z'
_cell_length_a     49.186215
_cell_length_b     48.299473
_cell_length_c     17.221646
_cell_angle_alpha  91.986471
_cell_angle_beta   93.011676
_cell_angle_gamma 120.06054
loop_
_atom_site_label
_atom_site_type_symbol
_atom_site_fract_x
_atom_site_fract_y
_atom_site_fract_z
_atom_type_partial_charge
C0 C 0.35139 0.52792 0.07539 0.0
C1 C 0.34272 0.50304 0.01775 0.0
C2 C 0.32832 0.5301 0.11488 0.0
C3 C 0.29619 0.50715 0.09838 0.0
C4 C 0.31048 0.48067 0.99989 0.0
C5 C 0.28748 0.48281 0.03948 0.0
C6 C 0.27193 0.50681 0.14674 0.0
C7 C 0.32255 0.46984 0.28245 0.0
C8 C 0.34619 0.49292 0.33599 0.0
C9 C 0.29927 0.47505 0.24969 0.0
C10 C 0.29955 0.50368 0.26868 0.0
C11 C 0.34625 0.52148 0.35592 0.0
C12 C 0.32287 0.52676 0.3226 0.0
C13 C 0.27573 0.50911 0.22882 0.0
C14 C 0.14861 0.47328 0.3293 0.0
C15 C 0.15406 0.50024 0.3764 0.0
C16 C 0.172 0.4746 0.28431 0.0
C17 C 0.20124 0.50298 0.28498 0.0
C18 C 0.1836 0.52848 0.37788 0.0
C19 C 0.20705 0.52974 0.33295 0.0
C20 C 0.2257 0.50484 0.23542 0.0
C21 C 0.14547 0.4964 0.0807 0.0
C22 C 0.12989 0.46685 0.03597 0.0
C23 C 0.17525 0.50741 0.11818 0.0
C24 C 0.18987 0.48902 0.11164 0.0
C25 C 0.14477 0.44863 0.02926 0.0
C26 C 0.17462 0.45974 0.06652 0.0
C27 C 0.22061 0.49938 0.15341 0.0
H28 H 0.37594 0.5458 0.08953 0.0
H29 H 0.3356 0.54944 0.15934 0.0
H30 H 0.303 0.46098 0.95634 0.0
H31 H 0.26295 0.4647 0.0261 0.0
H32 H 0.32202 0.44772 0.26595 0.0
H33 H 0.28114 0.45681 0.20862 0.0
H34 H 0.36398 0.53937 0.39825 0.0
H35 H 0.32323 0.5489 0.33786 0.0
H36 H 0.12607 0.45123 0.32638 0.0
H37 H 0.16718 0.4535 0.24854 0.0
H38 H 0.18869 0.5495 0.4144 0.0
H39 H 0.22957 0.55177 0.3347 0.0
H40 H 0.135 0.51142 0.08529 0.0
H41 H 0.18691 0.53028 0.15199 0.0
H42 H 0.13333 0.42578 0.99543 0.0
H43 H 0.1856 0.44519 0.06128 0.0
N44 N 0.24403 0.50099 0.11185 0.0
N45 N 0.25296 0.50891 0.27053 0.0
C46 C 0.6688 0.16054 0.24545 0.0
C47 C 0.67731 0.13675 0.24592 0.0
C48 C 0.68936 0.19081 0.22102 0.0
C49 C 0.71851 0.19763 0.19563 0.0
C50 C 0.70694 0.14396 0.22224 0.0
C51 C 0.72737 0.17421 0.19686 0.0
C52 C 0.73872 0.22848 0.16288 0.0
C53 C 0.69523 0.16565 0.93189 0.0
C54 C 0.66292 0.15378 0.93862 0.0
C55 C 0.71783 0.19244 0.97825 0.0
C56 C 0.7086 0.2079 0.03202 0.0
C57 C 0.65376 0.16997 0.99115 0.0
C58 C 0.67648 0.19694 0.03737 0.0
C59 C 0.73286 0.23393 0.0858 0.0
C60 C 0.85183 0.34173 0.00429 0.0
C61 C 0.84116 0.35881 0.96001 0.0
C62 C 0.8322 0.31934 0.05418 0.0
C63 C 0.80147 0.3135 0.06026 0.0
C64 C 0.81094 0.35406 0.96859 0.0
C65 C 0.79104 0.33118 0.01761 0.0
C66 C 0.77887 0.28561 0.10053 0.0
C67 C 0.84296 0.3566 0.29718 0.0
C68 C 0.86395 0.34792 0.33127 0.0
C69 C 0.81743 0.33476 0.24617 0.0
C70 C 0.81227 0.30377 0.22962 0.0
C71 C 0.85886 0.31698 0.3144 0.0
C72 C 0.83291 0.2949 0.26485 0.0
C73 C 0.78476 0.2801 0.17811 0.0
H74 H 0.64641 0.15588 0.26504 0.0
H75 H 0.68233 0.20879 0.22084 0.0
H76 H 0.71408 0.12608 0.22236 0.0
H77 H 0.74981 0.17918 0.17697 0.0
H78 H 0.70311 0.15423 0.89069 0.0
H79 H 0.74258 0.20068 0.97342 0.0
H80 H 0.62907 0.16144 0.99772 0.0
H81 H 0.66901 0.20888 0.07815 0.0
H82 H 0.87517 0.34521 0.99892 0.0
H83 H 0.84049 0.30543 0.08488 0.0
H84 H 0.80227 0.36699 0.9349 0.0
H85 H 0.76722 0.32664 0.02067 0.0
H86 H 0.84669 0.3805 0.30887 0.0
H87 H 0.80154 0.34192 0.22027 0.0
H88 H 0.87489 0.30991 0.33984 0.0
H89 H 0.8292 0.27102 0.25298 0.0
N90 N 0.7645 0.25161 0.20647 0.0
N91 N 0.75324 0.26214 0.05699 0.0
C92 C 0.56577 0.68632 0.91105 0.0
C93 C 0.55028 0.67909 0.83565 0.0
C94 C 0.56273 0.70659 0.96497 0.0
C95 C 0.54288 0.71887 0.94633 0.0
C96 C 0.53266 0.69379 0.81511 0.0
C97 C 0.52875 0.71314 0.87007 0.0
C98 C 0.53878 0.73992 0.00311 0.0
C99 C 0.51193 0.6504 0.13717 0.0
C100 C 0.52822 0.6563 0.21129 0.0
C101 C 0.51496 0.67595 0.09432 0.0
C102 C 0.5349 0.70794 0.12394 0.0
C103 C 0.5474 0.68835 0.24108 0.0
C104 C 0.55087 0.71363 0.19794 0.0
C105 C 0.53722 0.73591 0.08413 0.0
C106 C 0.5192 0.83931 0.22578 0.0
C107 C 0.53897 0.84543 0.29428 0.0
C108 C 0.51997 0.82128 0.16147 0.0
C109 C 0.541 0.80967 0.16406 0.0
C110 C 0.56019 0.83404 0.29594 0.0
C111 C 0.56126 0.81652 0.23153 0.0
C112 C 0.53914 0.78619 0.10387 0.0
C113 C 0.55951 0.87319 0.96915 0.0
C114 C 0.53819 0.86645 0.90354 0.0
C115 C 0.55957 0.84834 0.00879 0.0
C116 C 0.53811 0.81615 0.9842 0.0
C117 C 0.51726 0.8342 0.87819 0.0
C118 C 0.51734 0.80943 0.91779 0.0
C119 C 0.53838 0.78915 0.02251 0.0
H120 H 0.57942 0.67552 0.93006 0.0
H121 H 0.57568 0.71225 0.02152 0.0
H122 H 0.52126 0.68985 0.75707 0.0
H123 H 0.51426 0.72332 0.85306 0.0
H124 H 0.49696 0.62612 0.11202 0.0
H125 H 0.5014 0.67064 0.03871 0.0
H126 H 0.55955 0.69415 0.29871 0.0
H127 H 0.56596 0.7379 0.22332 0.0
H128 H 0.50298 0.84829 0.22186 0.0
H129 H 0.50347 0.81557 0.1111 0.0
H130 H 0.5755 0.83793 0.34769 0.0
H131 H 0.5774 0.8074 0.23533 0.0
H132 H 0.57637 0.89773 0.9896 0.0
H133 H 0.57669 0.85433 0.05791 0.0
H134 H 0.50023 0.828 0.82872 0.0
H135 H 0.5008 0.78483 0.89689 0.0
N136 N 0.53851 0.76593 0.97582 0.0
N137 N 0.53801 0.75957 0.13044 0.0
C138 C 0.84053 0.53944 0.83382 0.0
C139 C 0.85411 0.51983 0.83754 0.0
C140 C 0.81614 0.53427 0.88015 0.0
C141 C 0.80521 0.50968 0.93142 0.0
C142 C 0.84169 0.49399 0.88571 0.0
C143 C 0.81748 0.48901 0.93232 0.0
C144 C 0.78393 0.50815 0.99043 0.0
C145 C 0.86002 0.50683 0.16763 0.0
C146 C 0.88655 0.53437 0.1447 0.0
C147 C 0.82972 0.50061 0.14519 0.0
C148 C 0.82555 0.52164 0.09895 0.0
C149 C 0.88224 0.55545 0.0985 0.0
C150 C 0.85192 0.54914 0.07586 0.0
C151 C 0.7936 0.51371 0.07054 0.0
C152 C 0.6706 0.48215 0.20593 0.0
C153 C 0.681 0.50858 0.2605 0.0
C154 C 0.6914 0.48018 0.15716 0.0
C155 C 0.72281 0.50514 0.15952 0.0
C156 C 0.71314 0.53233 0.26675 0.0
C157 C 0.73382 0.53064 0.21658 0.0
C158 C 0.7436 0.50584 0.09953 0.0
C159 C 0.66559 0.51387 0.97102 0.0
C160 C 0.64834 0.48938 0.91218 0.0
C161 C 0.69325 0.51737 0.00748 0.0
C162 C 0.70351 0.49589 0.98682 0.0
C163 C 0.65807 0.46735 0.89337 0.0
C164 C 0.68548 0.47061 0.93042 0.0
C165 C 0.73418 0.501 0.01876 0.0
H166 H 0.84965 0.55966 0.79777 0.0
H167 H 0.80703 0.55057 0.87917 0.0
H168 H 0.85105 0.47794 0.88853 0.0
H169 H 0.80911 0.46972 0.97122 0.0
H170 H 0.86269 0.49058 0.20484 0.0
H171 H 0.80956 0.47921 0.16307 0.0
H172 H 0.9023 0.57692 0.08053 0.0
H173 H 0.84902 0.56566 0.04014 0.0
H174 H 0.64609 0.46345 0.19832 0.0
H175 H 0.68254 0.45975 0.11515 0.0
H176 H 0.72229 0.55257 0.30937 0.0
H177 H 0.75813 0.54994 0.22032 0.0
H178 H 0.65883 0.53153 0.98505 0.0
H179 H 0.70724 0.53755 0.04945 0.0
H180 H 0.64518 0.44846 0.84757 0.0
H181 H 0.6931 0.4539 0.91349 0.0
N182 N 0.75467 0.50223 0.96716 0.0
N183 N 0.77316 0.51223 0.12257 0.0
C184 C 0.29785 0.9128 0.01071 0.0
C185 C 0.30605 0.90707 0.93738 0.0
C186 C 0.27792 0.88722 0.05318 0.0
C187 C 0.2662 0.8555 0.02338 0.0
C188 C 0.29247 0.87533 0.90546 0.0
C189 C 0.27263 0.84979 0.94801 0.0
C190 C 0.2471 0.82812 0.0698 0.0
C191 C 0.34248 0.87663 0.20868 0.0
C192 C 0.34226 0.88549 0.28713 0.0
C193 C 0.31414 0.85898 0.16191 0.0
C194 C 0.28519 0.85046 0.19252 0.0
C195 C 0.31337 0.87783 0.31661 0.0
C196 C 0.28519 0.86043 0.26995 0.0
C197 C 0.25479 0.82723 0.14922 0.0
C198 C 0.16381 0.69775 0.2473 0.0
C199 C 0.15725 0.7079 0.31821 0.0
C200 C 0.17942 0.71968 0.19164 0.0
C201 C 0.18779 0.7519 0.20476 0.0
C202 C 0.16646 0.7404 0.33143 0.0
C203 C 0.1813 0.76199 0.27528 0.0
C204 C 0.20743 0.77671 0.15267 0.0
C205 C 0.12213 0.70277 0.99674 0.0
C206 C 0.12866 0.69644 0.92133 0.0
C207 C 0.14486 0.72904 0.04533 0.0
C208 C 0.17524 0.7487 0.02141 0.0
C209 C 0.15836 0.71769 0.89587 0.0
C210 C 0.18133 0.743 0.94539 0.0
C211 C 0.20097 0.77621 0.07111 0.0
H212 H 0.30763 0.93705 0.03618 0.0
H213 H 0.27224 0.89223 0.10996 0.0
H214 H 0.2986 0.87011 0.8495 0.0
H215 H 0.26344 0.8255 0.92336 0.0
H216 H 0.3644 0.88214 0.18454 0.0
H217 H 0.3148 0.85077 0.10311 0.0
H218 H 0.31249 0.88493 0.37638 0.0
H219 H 0.26321 0.854 0.29509 0.0
H220 H 0.15676 0.67285 0.23439 0.0
H221 H 0.18524 0.71155 0.139 0.0
H222 H 0.16263 0.74942 0.38571 0.0
H223 H 0.18834 0.78695 0.28771 0.0
H224 H 0.0997 0.68721 0.01942 0.0
H225 H 0.13852 0.73372 0.10145 0.0
H226 H 0.16423 0.71487 0.83758 0.0
H227 H 0.20419 0.75808 0.92386 0.0
N228 N 0.22098 0.80237 0.03384 0.0
N229 N 0.23421 0.80202 0.18748 0.0
C230 C 0.50494 0.17392 0.06215 0.0
C231 C 0.48962 0.15922 0.9885 0.0
C232 C 0.49131 0.18582 0.11294 0.0
C233 C 0.46214 0.1831 0.0909 0.0
C234 C 0.46023 0.15635 0.96745 0.0
C235 C 0.44684 0.16844 0.01778 0.0
C236 C 0.44932 0.19911 0.13847 0.0
C237 C 0.44335 0.11913 0.27468 0.0
C238 C 0.46112 0.12933 0.34737 0.0
C239 C 0.43751 0.14012 0.23282 0.0
C240 C 0.44945 0.17184 0.26253 0.0
C241 C 0.47166 0.16059 0.37887 0.0
C242 C 0.46577 0.1816 0.33691 0.0
C243 C 0.44434 0.19478 0.21795 0.0
C244 C 0.40586 0.29456 0.29902 0.0
C245 C 0.41721 0.29931 0.37821 0.0
C246 C 0.40726 0.27196 0.24898 0.0
C247 C 0.42216 0.25528 0.27539 0.0
C248 C 0.42678 0.27838 0.40684 0.0
C249 C 0.43002 0.25738 0.35606 0.0
C250 C 0.43017 0.23565 0.22267 0.0
C251 C 0.45754 0.32096 0.06806 0.0
C252 C 0.44111 0.31202 0.99347 0.0
C253 C 0.45467 0.29767 0.11861 0.0
C254 C 0.43464 0.26497 0.09658 0.0
C255 C 0.42083 0.2792 0.97227 0.0
C256 C 0.4177 0.25603 0.02313 0.0
C257 C 0.43533 0.23989 0.1423 0.0
H258 H 0.52765 0.17666 0.08005 0.0
H259 H 0.50394 0.19793 0.16835 0.0
H260 H 0.44725 0.14436 0.91231 0.0
H261 H 0.42446 0.16644 0.99945 0.0
H262 H 0.43427 0.09494 0.24959 0.0
H263 H 0.42376 0.13154 0.17712 0.0
H264 H 0.4855 0.1692 0.43445 0.0
H265 H 0.47481 0.20584 0.36162 0.0
H266 H 0.39738 0.30926 0.27373 0.0
H267 H 0.39756 0.26862 0.18945 0.0
H268 H 0.43351 0.27922 0.46806 0.0
H269 H 0.43998 0.24372 0.38044 0.0
H270 H 0.47301 0.34597 0.08717 0.0
H271 H 0.46871 0.30518 0.17397 0.0
H272 H 0.4082 0.27122 0.91514 0.0
H273 H 0.40274 0.23091 0.00399 0.0
N274 N 0.44432 0.22114 0.10407 0.0
N275 N 0.43494 0.21314 0.25628 0.0
C276 C 0.05521 0.49248 0.56033 0.0
C277 C 0.02774 0.45732 0.84597 0.0
C278 C 0.93778 0.44561 0.77679 0.0
Mg279 Mg 0.02769 0.5268 0.45074 0.0
Mg280 Mg 0.00366 0.57408 0.52703 0.0
O281 O -1e-05 0.53361 0.52173 0.0
Mg282 Mg 0.00822 0.51661 0.61815 0.0
O283 O 0.01642 0.49699 0.709 0.0
Mg284 Mg -0.00447 0.45113 0.66557 0.0
Mg285 Mg 0.00284 0.50333 0.80415 0.0
C286 C 0.95989 0.54237 0.66466 0.0
O287 O 0.04107 0.56618 0.68543 0.0
O288 O 0.00254 0.53905 0.35119 0.0
O289 O 0.02574 0.55522 0.80768 0.0
O290 O 0.06641 0.57999 0.46477 0.0
O291 O 0.98698 0.571 0.40828 0.0
O292 O 0.05269 0.60996 0.53539 0.0
O293 O 0.97483 0.46587 0.56133 0.0
O294 O 0.98874 0.47428 0.43917 0.0
C295 C 0.97204 0.4557 0.48999 0.0
C296 C 0.98899 0.55593 0.34817 0.0
O297 O 0.96861 0.52142 0.67021 0.0
O298 O 0.01947 0.44379 0.77637 0.0
O299 O 0.97166 0.56523 0.61852 0.0
O300 O 0.95028 0.4346 0.73083 0.0
O301 O 0.0232 0.48017 0.8686 0.0
O302 O 0.95298 0.47446 0.8056 0.0
O303 O 0.04777 0.51437 0.55966 0.0
O304 O 0.04004 0.46764 0.59878 0.0
C305 C 0.07274 0.60701 0.49709 0.0
C306 C 0.04116 0.57501 0.75706 0.0
C307 C 0.4998 0.0456 0.48696 0.0
C308 C 0.59081 0.02963 0.4055 0.0
C309 C 0.53938 0.93768 0.50467 0.0
Mg310 Mg 0.45849 0.02132 0.63698 0.0
Mg311 Mg 0.48677 0.00495 0.79358 0.0
O312 O 0.47518 0.99505 0.68681 0.0
Mg313 Mg 0.50979 0.00383 0.61918 0.0
O314 O 0.54256 0.01293 0.54587 0.0
Mg315 Mg 0.51496 0.98871 0.44953 0.0
Mg316 Mg 0.57657 0.00667 0.57283 0.0
C317 C 0.51804 0.96264 0.76146 0.0
O318 O 0.54955 0.04147 0.70521 0.0
O319 O 0.41823 -0.00188 0.72077 0.0
O320 O 0.59059 0.03395 0.68595 0.0
O321 O 0.48539 0.06472 0.72819 0.0
O322 O 0.44039 0.98903 0.8276 0.0
O323 O 0.51292 0.05527 0.81928 0.0
O324 O 0.47259 0.9671 0.52705 0.0
O325 O 0.43435 0.97861 0.54638 0.0
C326 C 0.44491 0.96277 0.51008 0.0
C327 C 0.41688 0.98835 0.78983 0.0
O328 O 0.51771 0.96645 0.68753 0.0
O329 O 0.56102 0.01549 0.38572 0.0
O330 O 0.50949 0.97704 0.80994 0.0
O331 O 0.52317 0.94688 0.46474 0.0
O332 O 0.60186 0.0293 0.47435 0.0
O333 O 0.56103 0.95632 0.5566 0.0
O334 O 0.50033 0.04093 0.55992 0.0
O335 O 0.50634 0.02988 0.43765 0.0
C336 C 0.50486 0.07396 0.78873 0.0
C337 C 0.57772 0.04731 0.72343 0.0
C338 C 0.53031 0.56136 0.71076 0.0
C339 C 0.42917 0.48158 0.84564 0.0
C340 C 0.45779 0.41216 0.79155 0.0
Mg341 Mg 0.56024 0.54713 0.56129 0.0
Mg342 Mg 0.51274 0.49056 0.42882 0.0
O343 O 0.52877 0.50079 0.53376 0.0
Mg344 Mg 0.49885 0.49231 0.61561 0.0
O345 O 0.47089 0.48566 0.7006 0.0
Mg346 Mg 0.49977 0.49375 0.79558 0.0
Mg347 Mg 0.43258 0.44679 0.6937 0.0
C348 C 0.46561 0.42623 0.50512 0.0
O349 O 0.4609 0.49144 0.53308 0.0
O350 O 0.59126 0.5396 0.47401 0.0
O351 O 0.41733 0.44982 0.57515 0.0
O352 O 0.54185 0.56585 0.4622 0.0
O353 O 0.5567 0.49778 0.39113 0.0
O354 O 0.50403 0.52688 0.38229 0.0
O355 O 0.53362 0.49152 0.70768 0.0
O356 O 0.57782 0.52831 0.65963 0.0
C357 C 0.56368 0.50803 0.71007 0.0
C358 C 0.58494 0.51882 0.41682 0.0
O359 O 0.47506 0.43893 0.57526 0.0
O360 O 0.45912 0.49442 0.86365 0.0
O361 O 0.47455 0.44225 0.44426 0.0
O362 O 0.47919 0.44033 0.81723 0.0
O363 O 0.41519 0.4627 0.78458 0.0
O364 O 0.43768 0.40783 0.73564 0.0
O365 O 0.52387 0.54626 0.64395 0.0
O366 O 0.52167 0.54665 0.77307 0.0
C367 C 0.52164 0.55658 0.40338 0.0
C368 C 0.4312 0.47111 0.52604 0.0
C369 C 0.12296 0.52419 0.42921 0.0
C370 C 0.12905 0.49868 0.42419 0.0
H371 H 0.09485 0.54227 0.47564 0.0
C372 C 0.11083 0.47138 0.46471 0.0
H373 H 0.13641 0.54544 0.39811 0.0
C374 C 0.08702 0.46951 0.50884 0.0
C375 C 0.0807 0.49486 0.51349 0.0
H376 H 0.11518 0.4515 0.46298 0.0
H377 H 0.07352 0.44807 0.53925 0.0
C378 C 0.099 0.52227 0.47323 0.0
C379 C 0.66693 0.09239 0.3319 0.0
C380 C 0.65574 0.10521 0.27513 0.0
H381 H 0.65503 0.05781 0.41712 0.0
C382 C 0.62332 0.08935 0.25231 0.0
H383 H 0.69182 0.10413 0.3505 0.0
C384 C 0.60219 0.06268 0.29007 0.0
C385 C 0.61312 0.05163 0.35196 0.0
H386 H 0.61417 0.09846 0.20762 0.0
H387 H 0.5772 0.05222 0.27433 0.0
C388 C 0.64581 0.06589 0.37013 0.0
C389 C 0.55206 0.63456 0.30644 0.0
C390 C 0.52584 0.6297 0.25817 0.0
H391 H 0.57093 0.61594 0.39029 0.0
C392 C 0.4977 0.59982 0.25732 0.0
H393 H 0.57451 0.65659 0.30714 0.0
C394 C 0.49592 0.57578 0.30434 0.0
C395 C 0.52204 0.58139 0.35412 0.0
H396 H 0.4769 0.59515 0.22145 0.0
H397 H 0.47405 0.55306 0.30257 0.0
C398 C 0.55006 0.61104 0.35427 0.0
C399 C 0.93828 0.57334 0.21423 0.0
C400 C 0.91831 0.54274 0.17725 0.0
H401 H 0.97739 0.60178 0.29731 0.0
C402 C 0.92678 0.51903 0.18285 0.0
H403 H 0.93235 0.59207 0.21081 0.0
C404 C 0.9528 0.5247 0.23205 0.0
C405 C 0.97027 0.55399 0.27676 0.0
H406 H 0.91198 0.4954 0.15368 0.0
H407 H 0.95717 0.50512 0.24097 0.0
C408 C 0.96403 0.57888 0.26386 0.0
C409 C 0.3989 0.92889 0.3166 0.0
C410 C 0.37169 0.90207 0.33953 0.0
H411 H 0.44442 0.96936 0.35408 0.0
C412 C 0.37181 0.89257 0.41575 0.0
H413 H 0.39942 0.9368 0.25832 0.0
C414 C 0.39746 0.91096 0.46978 0.0
C415 C 0.42362 0.93893 0.44838 0.0
H416 H 0.35141 0.87167 0.43465 0.0
H417 H 0.39603 0.90445 0.52965 0.0
C418 C 0.42469 0.94735 0.37098 0.0
C419 C 0.40818 0.34567 0.40781 0.0
C420 C 0.42346 0.32844 0.42713 0.0
H421 H 0.41012 0.39106 0.41729 0.0
C422 C 0.44846 0.3421 0.48646 0.0
H423 H 0.38801 0.33578 0.36549 0.0
C424 C 0.45977 0.37307 0.51921 0.0
C425 C 0.44705 0.39136 0.49178 0.0
H426 H 0.46145 0.3304 0.50351 0.0
H427 H 0.48056 0.3838 0.55996 0.0
C428 C 0.42039 0.37718 0.43847 0.0
C429 C 0.53913 0.91891 0.90963 0.0
C430 C 0.53647 0.89278 0.86449 0.0
H431 H 0.53597 0.96135 0.91258 0.0
C432 C 0.53039 0.8913 0.78296 0.0
H433 H 0.54347 0.92082 0.97243 0.0
C434 C 0.52588 0.91476 0.74808 0.0
C435 C 0.5271 0.94 0.79418 0.0
H436 H 0.52863 0.87173 0.74617 0.0
H437 H 0.52027 0.91242 0.68567 0.0
C438 C 0.53454 0.94211 0.87508 0.0
C439 C 0.59838 0.49128 0.89106 0.0
C440 C 0.62401 0.49042 0.8611 0.0
H441 H 0.55809 0.49676 0.86522 0.0
C442 C 0.6283 0.49349 0.78145 0.0
H443 H 0.59485 0.48906 0.9526 0.0
C444 C 0.6081 0.49862 0.73279 0.0
C445 C 0.58289 0.50021 0.76251 0.0
H446 H 0.64811 0.49328 0.75733 0.0
H447 H 0.61247 0.50175 0.67178 0.0
C448 C 0.57751 0.49564 0.84149 0.0
C449 C 0.07272 0.65284 0.87843 0.0
C450 C 0.10535 0.66729 0.87068 0.0
H451 H 0.02676 0.61207 0.84825 0.0
C452 C 0.11565 0.65258 0.81648 0.0
H453 H 0.06345 0.66361 0.9172 0.0
C454 C 0.09425 0.62386 0.77397 0.0
C455 C 0.06219 0.6086 0.78636 0.0
H456 H 0.14042 0.66217 0.80924 0.0
H457 H 0.10309 0.61243 0.73564 0.0
C458 C 0.0515 0.62354 0.83783 0.0
C459 C 0.51629 0.12737 0.96481 0.0
C460 C 0.50269 0.14481 0.93524 0.0
H461 H 0.529 0.09192 0.94036 0.0
C462 C 0.49785 0.1447 0.85393 0.0
H463 H 0.52062 0.12708 0.02699 0.0
C464 C 0.50214 0.12404 0.80411 0.0
C465 C 0.51174 0.10346 0.83475 0.0
H466 H 0.4886 0.1589 0.82906 0.0
H467 H 0.49544 0.12234 0.74242 0.0
C468 C 0.52107 0.1071 0.91486 0.0
C469 C 0.39491 0.50466 0.01293 0.0
C470 C 0.36685 0.50042 0.97473 0.0
H471 H 0.43709 0.50206 0.00225 0.0
C472 C 0.36116 0.49245 0.89426 0.0
H473 H 0.39995 0.51086 0.07509 0.0
C474 C 0.38198 0.48723 0.85344 0.0
C475 C 0.40935 0.48999 0.89155 0.0
H476 H 0.34033 0.48993 0.86259 0.0
H477 H 0.37636 0.48073 0.79143 0.0
C478 C 0.41612 0.49957 0.97149 0.0
C479 C 0.87377 0.36883 0.84723 0.0
C480 C 0.86139 0.38043 0.90285 0.0
H481 H 0.90685 0.38025 0.76129 0.0
C482 C 0.87044 0.41302 0.90719 0.0
H483 H 0.86669 0.34364 0.84209 0.0
C484 C 0.89371 0.4342 0.86126 0.0
C485 C 0.90793 0.42296 0.80968 0.0
H486 H 0.86097 0.42241 0.94938 0.0
H487 H 0.90178 0.45956 0.86943 0.0
C488 C 0.89659 0.38982 0.80055 0.0
C489 C 0.90652 0.5235 0.82822 0.0
C490 C 0.88188 0.52694 0.79383 0.0
H491 H 0.95097 0.5266 0.81468 0.0
C492 C 0.88421 0.53744 0.71801 0.0
H493 H 0.90601 0.51647 0.88741 0.0
C494 C 0.9102 0.54357 0.67691 0.0
C495 C 0.93411 0.53894 0.71052 0.0
H496 H 0.86561 0.54019 0.68966 0.0
H497 H 0.91108 0.55088 0.61789 0.0
C498 C 0.93229 0.52932 0.78681 0.0
C499 C 0.36019 0.95437 0.94429 0.0
C500 C 0.33204 0.93329 0.89946 0.0
H501 H 0.40917 0.98872 0.94408 0.0
C502 C 0.33087 0.93457 0.81792 0.0
H503 H 0.36194 0.95383 0.00712 0.0
C504 C 0.35811 0.95472 0.78161 0.0
C505 C 0.38685 0.97347 0.8265 0.0
H506 H 0.30934 0.91878 0.78211 0.0
H507 H 0.35716 0.95382 0.71853 0.0
C508 C 0.38734 0.97418 0.90813 0.0
C509 C 0.42074 0.33279 0.88556 0.0
C510 C 0.4458 0.33667 0.93723 0.0
H511 H 0.40499 0.35318 0.79781 0.0
C512 C 0.47551 0.36439 0.9346 0.0
H513 H 0.39744 0.31196 0.88609 0.0
C514 C 0.47969 0.38815 0.8845 0.0
C515 C 0.4544 0.38471 0.83482 0.0
H516 H 0.49563 0.36793 0.97162 0.0
H517 H 0.50268 0.40959 0.88582 0.0
C518 C 0.42505 0.35642 0.83463 0.0
C519 C 0.07686 0.46217 0.02507 0.0
C520 C 0.0993 0.45654 0.99207 0.0
H521 H 0.03574 0.46606 0.00422 0.0
C522 C 0.09389 0.44446 0.91388 0.0
H523 H 0.07994 0.47057 0.0858 0.0
C524 C 0.06822 0.44129 0.86749 0.0
C525 C 0.04789 0.4505 0.89852 0.0
H526 H 0.11075 0.43988 0.88677 0.0
H527 H 0.06607 0.43445 0.80592 0.0
C528 C 0.05142 0.45931 0.97858 0.0
C529 C 0.64415 0.09898 0.87561 0.0
C530 C 0.63913 0.12485 0.89 0.0
H531 H 0.62848 0.05398 0.81215 0.0
C532 C 0.61208 0.1235 0.85441 0.0
H533 H 0.66439 0.09894 0.90354 0.0
C534 C 0.59134 0.09755 0.80272 0.0
C535 C 0.59721 0.07244 0.78566 0.0
H536 H 0.60765 0.14314 0.86369 0.0
H537 H 0.57163 0.09802 0.7731 0.0
C538 C 0.62351 0.07313 0.82368 0.0
C539 C 0.52193 0.63282 0.73491 0.0
C540 C 0.54948 0.65356 0.78285 0.0
H541 H 0.49502 0.5872 0.67102 0.0
C542 C 0.57402 0.64646 0.78863 0.0
H543 H 0.50229 0.637 0.72895 0.0
C544 C 0.56919 0.61717 0.75718 0.0
C545 C 0.54042 0.59536 0.71645 0.0
H546 H 0.59609 0.66236 0.82224 0.0
H547 H 0.58696 0.61058 0.76958 0.0
C548 C 0.51762 0.60411 0.70136 0.0
C549 C 0.48141 0.09149 0.34053 0.0
C550 C 0.47084 0.10825 0.38606 0.0
H551 H 0.49881 0.05932 0.33618 0.0
C552 C 0.4705 0.10509 0.46719 0.0
H553 H 0.48278 0.09397 0.27835 0.0
C554 C 0.47998 0.08491 0.50147 0.0
C555 C 0.49015 0.06785 0.45503 0.0
H556 H 0.46251 0.11784 0.50382 0.0
H557 H 0.47919 0.08255 0.56373 0.0
C558 C 0.49087 0.07168 0.37429 0.0
C559 C 0.359 0.45596 0.40455 0.0
C560 C 0.36931 0.48605 0.37491 0.0
H561 H 0.37087 0.42735 0.47431 0.0
C562 C 0.40126 0.50974 0.38635 0.0
H563 H 0.33444 0.43729 0.39668 0.0
C564 C 0.42222 0.50403 0.43094 0.0
C565 C 0.41134 0.47467 0.46522 0.0
H566 H 0.40982 0.53293 0.36275 0.0
H567 H 0.44643 0.52326 0.44222 0.0
C568 C 0.37984 0.4503 0.44921 0.0
C569 C 0.88895 0.38721 0.44758 0.0
C570 C 0.89206 0.37186 0.38069 0.0
H571 H 0.91248 0.42537 0.53733 0.0
C572 C 0.92221 0.38143 0.35719 0.0
H573 H 0.86584 0.38006 0.46669 0.0
C574 C 0.94871 0.40754 0.39655 0.0
C575 C 0.94554 0.42399 0.46113 0.0
H576 H 0.92508 0.36994 0.30563 0.0
H577 H 0.97156 0.4158 0.37436 0.0
C578 C 0.91559 0.41285 0.48826 0.0
C579 C 0.50942 0.86173 0.38182 0.0
C580 C 0.53802 0.86433 0.36292 0.0
H581 H 0.48729 0.88284 0.44526 0.0
C582 C 0.56603 0.88675 0.40693 0.0
H583 H 0.48729 0.84398 0.35111 0.0
C584 C 0.56581 0.90822 0.46294 0.0
C585 C 0.53772 0.908 0.47469 0.0
H586 H 0.58852 0.88947 0.39414 0.0
H587 H 0.58811 0.92712 0.49054 0.0
C588 C 0.50929 0.8835 0.43692 0.0
C589 C 0.66148 0.54215 0.32671 0.0
C590 C 0.65798 0.51183 0.30751 0.0
H591 H 0.64118 0.56824 0.37755 0.0
C592 C 0.63114 0.48436 0.32954 0.0
H593 H 0.68154 0.56388 0.31002 0.0
C594 C 0.60767 0.48693 0.36534 0.0
C595 C 0.61085 0.51706 0.3824 0.0
H596 H 0.62794 0.46067 0.31841 0.0
H597 H 0.58696 0.46524 0.37993 0.0
C598 C 0.63828 0.54475 0.36479 0.0
C599 C 0.11814 0.6882 0.42019 0.0
C600 C 0.13982 0.68462 0.37684 0.0
H601 H 0.08083 0.66701 0.49542 0.0
C602 C 0.14324 0.65772 0.38702 0.0
H603 H 0.11454 0.70838 0.41388 0.0
C604 C 0.12341 0.63359 0.43338 0.0
C605 C 0.09998 0.63605 0.47126 0.0
H606 H 0.16039 0.65462 0.35679 0.0
H607 H 0.12511 0.61212 0.4356 0.0
C608 C 0.09873 0.66439 0.46753 0.0
loop_
_geom_bond_atom_site_label_1
_geom_bond_atom_site_label_2
_geom_bond_distance
_geom_bond_site_symmetry_2
_ccdc_geom_bond_type
C0 C1 1.384 . S
C0 C2 1.384 . S
C0 H28 0.931 . S
C1 C0 1.384 . S
C1 C4 1.382 . S
C2 C0 1.384 . S
C2 C3 1.381 . S
C2 H29 0.930 . S
C3 C2 1.381 . S
C3 C5 1.381 . S
C3 C6 1.487 . S
C4 C1 1.382 . S
C4 C5 1.387 . S
C4 H30 0.930 1_554 S
C5 C3 1.381 . S
C5 C4 1.387 . S
C5 H31 0.931 . S
C6 C3 1.487 . S
C6 C13 1.399 . S
C6 N44 1.343 . S
C7 C8 1.384 . S
C7 C9 1.384 . S
C7 H32 0.931 . S
C8 C7 1.384 . S
C8 C11 1.382 . S
C9 C7 1.384 . S
C9 C10 1.381 . S
C9 H33 0.930 . S
C10 C9 1.381 . S
C10 C12 1.381 . S
C10 C13 1.487 . S
C11 C8 1.382 . S
C11 C12 1.387 . S
C11 H34 0.930 . S
C12 C10 1.381 . S
C12 C11 1.387 . S
C12 H35 0.931 . S
C13 C6 1.399 . S
C13 C10 1.487 . S
C13 N45 1.343 . S
C14 C15 1.384 . S
C14 C16 1.384 . S
C14 H36 0.931 . S
C15 C14 1.384 . S
C15 C18 1.382 . S
C16 C14 1.384 . S
C16 C17 1.381 . S
C16 H37 0.930 . S
C17 C16 1.381 . S
C17 C19 1.381 . S
C17 C20 1.487 . S
C18 C15 1.382 . S
C18 C19 1.387 . S
C18 H38 0.930 . S
C19 C17 1.381 . S
C19 C18 1.387 . S
C19 H39 0.931 . S
C20 C17 1.487 . S
C20 C27 1.399 . S
C20 N45 1.343 . S
C21 C22 1.384 . S
C21 C23 1.384 . S
C21 H40 0.931 . S
C22 C21 1.384 . S
C22 C25 1.382 . S
C23 C21 1.384 . S
C23 C24 1.381 . S
C23 H41 0.930 . S
C24 C23 1.381 . S
C24 C26 1.381 . S
C24 C27 1.487 . S
C25 C22 1.382 . S
C25 C26 1.387 . S
C25 H42 0.930 1_554 S
C26 C24 1.381 . S
C26 C25 1.387 . S
C26 H43 0.931 . S
C27 C20 1.399 . S
C27 C24 1.487 . S
C27 N44 1.343 . S
H28 C0 0.931 . S
H29 C2 0.930 . S
H30 C4 0.930 1_556 S
H31 C5 0.931 . S
H32 C7 0.931 . S
H33 C9 0.930 . S
H34 C11 0.930 . S
H35 C12 0.931 . S
H36 C14 0.931 . S
H37 C16 0.930 . S
H38 C18 0.930 . S
H39 C19 0.931 . S
H40 C21 0.931 . S
H41 C23 0.930 . S
H42 C25 0.930 1_556 S
H43 C26 0.931 . S
N44 C6 1.343 . S
N44 C27 1.343 . S
N45 C13 1.343 . S
N45 C20 1.343 . S
C46 C47 1.384 . S
C46 C48 1.384 . S
C46 H74 0.931 . S
C47 C46 1.384 . S
C47 C50 1.382 . S
C48 C46 1.384 . S
C48 C49 1.381 . S
C48 H75 0.930 . S
C49 C48 1.381 . S
C49 C51 1.381 . S
C49 C52 1.487 . S
C50 C47 1.382 . S
C50 C51 1.387 . S
C50 H76 0.930 . S
C51 C49 1.381 . S
C51 C50 1.387 . S
C51 H77 0.931 . S
C52 C49 1.487 . S
C52 C59 1.399 . S
C52 N90 1.343 . S
C53 C54 1.384 . S
C53 C55 1.384 1_556 S
C53 H78 0.931 . S
C54 C53 1.384 . S
C54 C57 1.382 . S
C55 C53 1.384 1_554 S
C55 C56 1.381 . S
C55 H79 0.930 . S
C56 C55 1.381 . S
C56 C58 1.381 1_554 S
C56 C59 1.487 . S
C57 C54 1.382 . S
C57 C58 1.387 . S
C57 H80 0.930 . S
C58 C56 1.381 1_556 S
C58 C57 1.387 . S
C58 H81 0.931 . S
C59 C52 1.399 . S
C59 C56 1.487 . S
C59 N91 1.343 . S
C60 C61 1.384 . S
C60 C62 1.384 1_556 S
C60 H82 0.931 . S
C61 C60 1.384 . S
C61 C64 1.382 . S
C62 C60 1.384 1_554 S
C62 C63 1.381 . S
C62 H83 0.930 . S
C63 C62 1.381 . S
C63 C65 1.381 1_554 S
C63 C66 1.487 . S
C64 C61 1.382 . S
C64 C65 1.387 . S
C64 H84 0.930 . S
C65 C63 1.381 1_556 S
C65 C64 1.387 . S
C65 H85 0.931 . S
C66 C63 1.487 . S
C66 C73 1.399 . S
C66 N91 1.343 . S
C67 C68 1.384 . S
C67 C69 1.384 . S
C67 H86 0.931 . S
C68 C67 1.384 . S
C68 C71 1.382 . S
C69 C67 1.384 . S
C69 C70 1.381 . S
C69 H87 0.930 . S
C70 C69 1.381 . S
C70 C72 1.381 . S
C70 C73 1.487 . S
C71 C68 1.382 . S
C71 C72 1.387 . S
C71 H88 0.930 . S
C72 C70 1.381 . S
C72 C71 1.387 . S
C72 H89 0.931 . S
C73 C66 1.399 . S
C73 C70 1.487 . S
C73 N90 1.343 . S
H74 C46 0.931 . S
H75 C48 0.930 . S
H76 C50 0.930 . S
H77 C51 0.931 . S
H78 C53 0.931 . S
H79 C55 0.930 . S
H80 C57 0.930 . S
H81 C58 0.931 . S
H82 C60 0.931 . S
H83 C62 0.930 . S
H84 C64 0.930 . S
H85 C65 0.931 . S
H86 C67 0.931 . S
H87 C69 0.930 . S
H88 C71 0.930 . S
H89 C72 0.931 . S
N90 C52 1.343 . S
N90 C73 1.343 . S
N91 C59 1.343 . S
N91 C66 1.343 . S
C92 C93 1.384 . S
C92 C94 1.384 . S
C92 H120 0.931 . S
C93 C92 1.384 . S
C93 C96 1.382 . S
C94 C92 1.384 . S
C94 C95 1.381 . S
C94 H121 0.930 1_556 S
C95 C94 1.381 . S
C95 C97 1.381 . S
C95 C98 1.493 . S
C96 C93 1.382 . S
C96 C97 1.387 . S
C96 H122 0.930 . S
C97 C95 1.381 . S
C97 C96 1.387 . S
C97 H123 0.931 . S
C98 C95 1.493 . S
C98 C105 1.388 1_556 S
C98 N136 1.349 . S
C99 C100 1.384 . S
C99 C101 1.384 . S
C99 H124 0.931 . S
C100 C99 1.384 . S
C100 C103 1.382 . S
C101 C99 1.384 . S
C101 C102 1.381 . S
C101 H125 0.930 . S
C102 C101 1.381 . S
C102 C104 1.381 . S
C102 C105 1.487 . S
C103 C100 1.382 . S
C103 C104 1.387 . S
C103 H126 0.930 . S
C104 C102 1.381 . S
C104 C103 1.387 . S
C104 H127 0.931 . S
C105 C98 1.388 1_554 S
C105 C102 1.487 . S
C105 N137 1.343 . S
C106 C107 1.384 . S
C106 C108 1.384 . S
C106 H128 0.931 . S
C107 C106 1.384 . S
C107 C110 1.382 . S
C108 C106 1.384 . S
C108 C109 1.381 . S
C108 H129 0.930 . S
C109 C108 1.381 . S
C109 C111 1.381 . S
C109 C112 1.487 . S
C110 C107 1.382 . S
C110 C111 1.387 . S
C110 H130 0.930 . S
C111 C109 1.381 . S
C111 C110 1.387 . S
C111 H131 0.931 . S
C112 C109 1.487 . S
C112 C119 1.399 . S
C112 N137 1.343 . S
C113 C114 1.384 . S
C113 C115 1.384 . S
C113 H132 0.931 . S
C114 C113 1.384 . S
C114 C117 1.382 . S
C115 C113 1.384 . S
C115 C116 1.381 . S
C115 H133 0.930 1_556 S
C116 C115 1.381 . S
C116 C118 1.381 . S
C116 C119 1.487 1_556 S
C117 C114 1.382 . S
C117 C118 1.387 . S
C117 H134 0.930 . S
C118 C116 1.381 . S
C118 C117 1.387 . S
C118 H135 0.931 . S
C119 C112 1.399 . S
C119 C116 1.487 1_554 S
C119 N136 1.343 1_554 S
H120 C92 0.931 . S
H121 C94 0.930 1_554 S
H122 C96 0.930 . S
H123 C97 0.931 . S
H124 C99 0.931 . S
H125 C101 0.930 . S
H126 C103 0.930 . S
H127 C104 0.931 . S
H128 C106 0.931 . S
H129 C108 0.930 . S
H130 C110 0.930 . S
H131 C111 0.931 . S
H132 C113 0.931 . S
H133 C115 0.930 1_554 S
H134 C117 0.930 . S
H135 C118 0.931 . S
N136 C98 1.349 . S
N136 C119 1.343 1_556 S
N137 C105 1.343 . S
N137 C112 1.343 . S
C138 C139 1.384 . S
C138 C140 1.384 . S
C138 H166 0.931 . S
C139 C138 1.384 . S
C139 C142 1.382 . S
C140 C138 1.384 . S
C140 C141 1.381 . S
C140 H167 0.930 . S
C141 C140 1.381 . S
C141 C143 1.381 . S
C141 C144 1.487 . S
C142 C139 1.382 . S
C142 C143 1.387 . S
C142 H168 0.930 . S
C143 C141 1.381 . S
C143 C142 1.387 . S
C143 H169 0.931 . S
C144 C141 1.487 . S
C144 C151 1.399 1_556 S
C144 N182 1.343 . S
C145 C146 1.384 . S
C145 C147 1.384 . S
C145 H170 0.931 . S
C146 C145 1.384 . S
C146 C149 1.382 . S
C147 C145 1.384 . S
C147 C148 1.381 . S
C147 H171 0.930 . S
C148 C147 1.381 . S
C148 C150 1.381 . S
C148 C151 1.487 . S
C149 C146 1.382 . S
C149 C150 1.387 . S
C149 H172 0.930 . S
C150 C148 1.381 . S
C150 C149 1.387 . S
C150 H173 0.931 . S
C151 C144 1.399 1_554 S
C151 C148 1.487 . S
C151 N183 1.343 . S
C152 C153 1.384 . S
C152 C154 1.384 . S
C152 H174 0.931 . S
C153 C152 1.384 . S
C153 C156 1.382 . S
C154 C152 1.384 . S
C154 C155 1.381 . S
C154 H175 0.930 . S
C155 C154 1.381 . S
C155 C157 1.381 . S
C155 C158 1.487 . S
C156 C153 1.382 . S
C156 C157 1.387 . S
C156 H176 0.930 . S
C157 C155 1.381 . S
C157 C156 1.387 . S
C157 H177 0.931 . S
C158 C155 1.487 . S
C158 C165 1.399 1_554 S
C158 N183 1.343 . S
C159 C160 1.384 . S
C159 C161 1.384 . S
C159 H178 0.931 . S
C160 C159 1.384 . S
C160 C163 1.382 . S
C161 C159 1.384 . S
C161 C162 1.381 . S
C161 H179 0.930 . S
C162 C161 1.381 . S
C162 C164 1.381 . S
C162 C165 1.487 . S
C163 C160 1.382 . S
C163 C164 1.387 . S
C163 H180 0.930 . S
C164 C162 1.381 . S
C164 C163 1.387 . S
C164 H181 0.931 . S
C165 C158 1.399 1_556 S
C165 C162 1.487 . S
C165 N182 1.343 . S
H166 C138 0.931 . S
H167 C140 0.930 . S
H168 C142 0.930 . S
H169 C143 0.931 . S
H170 C145 0.931 . S
H171 C147 0.930 . S
H172 C149 0.930 . S
H173 C150 0.931 . S
H174 C152 0.931 . S
H175 C154 0.930 . S
H176 C156 0.930 . S
H177 C157 0.931 . S
H178 C159 0.931 . S
H179 C161 0.930 . S
H180 C163 0.930 . S
H181 C164 0.931 . S
N182 C144 1.343 . S
N182 C165 1.343 . S
N183 C151 1.343 . S
N183 C158 1.343 . S
C184 C185 1.384 1_554 S
C184 C186 1.384 . S
C184 H212 0.931 . S
C185 C184 1.384 1_556 S
C185 C188 1.382 . S
C186 C184 1.384 . S
C186 C187 1.381 . S
C186 H213 0.930 . S
C187 C186 1.381 . S
C187 C189 1.381 1_554 S
C187 C190 1.487 . S
C188 C185 1.382 . S
C188 C189 1.387 . S
C188 H214 0.930 . S
C189 C187 1.381 1_556 S
C189 C188 1.387 . S
C189 H215 0.931 . S
C190 C187 1.487 . S
C190 C197 1.399 . S
C190 N228 1.343 . S
C191 C192 1.384 . S
C191 C193 1.384 . S
C191 H216 0.931 . S
C192 C191 1.384 . S
C192 C195 1.382 . S
C193 C191 1.384 . S
C193 C194 1.381 . S
C193 H217 0.930 . S
C194 C193 1.381 . S
C194 C196 1.381 . S
C194 C197 1.487 . S
C195 C192 1.382 . S
C195 C196 1.387 . S
C195 H218 0.930 . S
C196 C194 1.381 . S
C196 C195 1.387 . S
C196 H219 0.931 . S
C197 C190 1.399 . S
C197 C194 1.487 . S
C197 N229 1.343 . S
C198 C199 1.384 . S
C198 C200 1.384 . S
C198 H220 0.931 . S
C199 C198 1.384 . S
C199 C202 1.382 . S
C200 C198 1.384 . S
C200 C201 1.381 . S
C200 H221 0.930 . S
C201 C200 1.381 . S
C201 C203 1.381 . S
C201 C204 1.487 . S
C202 C199 1.382 . S
C202 C203 1.387 . S
C202 H222 0.930 . S
C203 C201 1.381 . S
C203 C202 1.387 . S
C203 H223 0.931 . S
C204 C201 1.487 . S
C204 C211 1.399 . S
C204 N229 1.343 . S
C205 C206 1.384 . S
C205 C207 1.384 1_556 S
C205 H224 0.931 . S
C206 C205 1.384 . S
C206 C209 1.382 . S
C207 C205 1.384 1_554 S
C207 C208 1.381 . S
C207 H225 0.930 . S
C208 C207 1.381 . S
C208 C210 1.381 1_554 S
C208 C211 1.487 . S
C209 C206 1.382 . S
C209 C210 1.387 . S
C209 H226 0.930 . S
C210 C208 1.381 1_556 S
C210 C209 1.387 . S
C210 H227 0.931 . S
C211 C204 1.399 . S
C211 C208 1.487 . S
C211 N228 1.343 . S
H212 C184 0.931 . S
H213 C186 0.930 . S
H214 C188 0.930 . S
H215 C189 0.931 . S
H216 C191 0.931 . S
H217 C193 0.930 . S
H218 C195 0.930 . S
H219 C196 0.931 . S
H220 C198 0.931 . S
H221 C200 0.930 . S
H222 C202 0.930 . S
H223 C203 0.931 . S
H224 C205 0.931 . S
H225 C207 0.930 . S
H226 C209 0.930 . S
H227 C210 0.931 . S
N228 C190 1.343 . S
N228 C211 1.343 . S
N229 C197 1.343 . S
N229 C204 1.343 . S
C230 C231 1.384 1_554 S
C230 C232 1.384 . S
C230 H258 0.931 . S
C231 C230 1.384 1_556 S
C231 C234 1.382 . S
C232 C230 1.384 . S
C232 C233 1.381 . S
C232 H259 0.930 . S
C233 C232 1.381 . S
C233 C235 1.381 . S
C233 C236 1.487 . S
C234 C231 1.382 . S
C234 C235 1.387 1_556 S
C234 H260 0.930 . S
C235 C233 1.381 . S
C235 C234 1.387 1_554 S
C235 H261 0.931 . S
C236 C233 1.487 . S
C236 C243 1.399 . S
C236 N274 1.343 . S
C237 C238 1.384 . S
C237 C239 1.384 . S
C237 H262 0.931 . S
C238 C237 1.384 . S
C238 C241 1.382 . S
C239 C237 1.384 . S
C239 C240 1.381 . S
C239 H263 0.930 . S
C240 C239 1.381 . S
C240 C242 1.381 . S
C240 C243 1.487 . S
C241 C238 1.382 . S
C241 C242 1.387 . S
C241 H264 0.930 . S
C242 C240 1.381 . S
C242 C241 1.387 . S
C242 H265 0.931 . S
C243 C236 1.399 . S
C243 C240 1.487 . S
C243 N275 1.343 . S
C244 C245 1.384 . S
C244 C246 1.384 . S
C244 H266 0.931 . S
C245 C244 1.384 . S
C245 C248 1.382 . S
C246 C244 1.384 . S
C246 C247 1.381 . S
C246 H267 0.930 . S
C247 C246 1.381 . S
C247 C249 1.381 . S
C247 C250 1.487 . S
C248 C245 1.382 . S
C248 C249 1.387 . S
C248 H268 0.930 . S
C249 C247 1.381 . S
C249 C248 1.387 . S
C249 H269 0.931 . S
C250 C247 1.487 . S
C250 C257 1.399 . S
C250 N275 1.343 . S
C251 C252 1.384 . S
C251 C253 1.384 . S
C251 H270 0.931 . S
C252 C251 1.384 . S
C252 C255 1.382 1_554 S
C253 C251 1.384 . S
C253 C254 1.381 . S
C253 H271 0.930 . S
C254 C253 1.381 . S
C254 C256 1.381 . S
C254 C257 1.487 . S
C255 C252 1.382 1_556 S
C255 C256 1.387 1_556 S
C255 H272 0.930 . S
C256 C254 1.381 . S
C256 C255 1.387 1_554 S
C256 H273 0.931 . S
C257 C250 1.399 . S
C257 C254 1.487 . S
C257 N274 1.343 . S
H258 C230 0.931 . S
H259 C232 0.930 . S
H260 C234 0.930 . S
H261 C235 0.931 . S
H262 C237 0.931 . S
H263 C239 0.930 . S
H264 C241 0.930 . S
H265 C242 0.931 . S
H266 C244 0.931 . S
H267 C246 0.930 . S
H268 C248 0.930 . S
H269 C249 0.931 . S
H270 C251 0.931 . S
H271 C253 0.930 . S
H272 C255 0.930 . S
H273 C256 0.931 . S
N274 C236 1.343 . S
N274 C257 1.343 . S
N275 C243 1.343 . S
N275 C250 1.343 . S
C276 O303 1.312 . S
C276 O304 1.208 . S
C277 O298 1.331 . S
C277 O301 1.244 . S
C278 O300 1.264 . S
C278 O302 1.273 . S
Mg279 O281 1.936 1_455 S
Mg279 O288 2.081 1_455 S
Mg279 O290 2.023 . S
Mg279 O294 2.031 1_455 S
Mg279 O303 2.291 . S
Mg280 O281 1.963 . S
Mg280 O291 1.942 . S
Mg280 O292 1.955 1_655 S
Mg280 O299 1.986 . S
O281 Mg279 1.936 1_655 S
O281 Mg280 1.963 . S
O281 Mg282 1.915 1_655 S
Mg282 O281 1.915 1_455 S
Mg282 O283 1.915 . S
Mg282 O287 2.013 . S
Mg282 O293 2.114 1_455 S
Mg282 O297 2.013 1_455 S
Mg282 O303 2.114 . S
O283 Mg282 1.915 . S
O283 Mg284 1.936 . S
O283 Mg285 1.963 . S
Mg284 O283 1.936 . S
Mg284 O293 2.291 1_455 S
Mg284 O298 2.081 . S
Mg284 O300 2.023 1_455 S
Mg284 O304 2.031 . S
Mg285 O283 1.963 . S
Mg285 O289 1.986 . S
Mg285 O301 1.942 . S
Mg285 O302 1.955 1_455 S
C286 O297 1.191 . S
C286 O299 1.307 . S
O287 Mg282 2.013 . S
O287 C306 1.191 . S
O288 Mg279 2.081 1_655 S
O288 C296 1.331 . S
O289 Mg285 1.986 . S
O289 C306 1.307 . S
O290 Mg279 2.023 . S
O290 C305 1.264 . S
O291 Mg280 1.942 . S
O291 C296 1.244 . S
O292 Mg280 1.955 1_455 S
O292 C305 1.273 . S
O293 Mg282 2.114 1_655 S
O293 Mg284 2.291 1_655 S
O293 C295 1.312 . S
O294 Mg279 2.031 1_655 S
O294 C295 1.208 . S
C295 O293 1.312 . S
C295 O294 1.208 . S
C296 O288 1.331 . S
C296 O291 1.244 . S
O297 Mg282 2.013 1_655 S
O297 C286 1.191 . S
O298 C277 1.331 . S
O298 Mg284 2.081 . S
O299 Mg280 1.986 . S
O299 C286 1.307 . S
O300 C278 1.264 . S
O300 Mg284 2.023 1_655 S
O301 C277 1.244 . S
O301 Mg285 1.942 . S
O302 C278 1.273 . S
O302 Mg285 1.955 1_655 S
O303 C276 1.312 . S
O303 Mg279 2.291 . S
O303 Mg282 2.114 . S
O304 C276 1.208 . S
O304 Mg284 2.031 . S
C305 O290 1.264 . S
C305 O292 1.273 . S
C306 O287 1.191 . S
C306 O289 1.307 . S
C307 O334 1.312 . S
C307 O335 1.208 . S
C308 O329 1.331 . S
C308 O332 1.244 . S
C309 O331 1.264 . S
C309 O333 1.273 . S
Mg310 O312 1.936 1_545 S
Mg310 O319 2.081 1_545 S
Mg310 O321 2.023 . S
Mg310 O325 2.031 1_545 S
Mg310 O334 2.291 . S
Mg311 O312 1.959 . S
Mg311 O322 1.946 . S
Mg311 O323 1.929 1_565 S
Mg311 O330 2.010 . S
O312 Mg310 1.936 1_565 S
O312 Mg311 1.959 . S
O312 Mg313 1.915 1_565 S
Mg313 O312 1.915 1_545 S
Mg313 O314 1.915 . S
Mg313 O318 2.013 . S
Mg313 O324 2.114 1_545 S
Mg313 O328 2.013 1_545 S
Mg313 O334 2.114 . S
O314 Mg313 1.915 . S
O314 Mg315 1.936 . S
O314 Mg316 1.963 . S
Mg315 O314 1.936 . S
Mg315 O324 2.291 1_545 S
Mg315 O329 2.081 . S
Mg315 O331 2.023 1_545 S
Mg315 O335 2.031 . S
Mg316 O314 1.963 . S
Mg316 O320 1.986 . S
Mg316 O332 1.942 . S
Mg316 O333 1.955 1_545 S
C317 O328 1.191 . S
C317 O330 1.307 . S
O318 Mg313 2.013 . S
O318 C337 1.191 . S
O319 Mg310 2.081 1_565 S
O319 C327 1.331 . S
O320 Mg316 1.986 . S
O320 C337 1.307 . S
O321 Mg310 2.023 . S
O321 C336 1.264 . S
O322 Mg311 1.946 . S
O322 C327 1.244 . S
O323 Mg311 1.929 1_545 S
O323 C336 1.273 . S
O324 Mg313 2.114 1_565 S
O324 Mg315 2.291 1_565 S
O324 C326 1.312 . S
O325 Mg310 2.031 1_565 S
O325 C326 1.208 . S
C326 O324 1.312 . S
C326 O325 1.208 . S
C327 O319 1.331 . S
C327 O322 1.244 . S
O328 Mg313 2.013 1_565 S
O328 C317 1.191 . S
O329 C308 1.331 . S
O329 Mg315 2.081 . S
O330 Mg311 2.010 . S
O330 C317 1.307 . S
O331 C309 1.264 . S
O331 Mg315 2.023 1_565 S
O332 C308 1.244 . S
O332 Mg316 1.942 . S
O333 C309 1.273 . S
O333 Mg316 1.955 1_565 S
O334 C307 1.312 . S
O334 Mg310 2.291 . S
O334 Mg313 2.114 . S
O335 C307 1.208 . S
O335 Mg315 2.031 . S
C336 O321 1.264 . S
C336 O323 1.273 . S
C337 O318 1.191 . S
C337 O320 1.307 . S
C338 O365 1.312 . S
C338 O366 1.208 . S
C339 O360 1.331 . S
C339 O363 1.244 . S
C340 O362 1.264 . S
C340 O364 1.273 . S
Mg341 O343 1.936 . S
Mg341 O350 2.081 . S
Mg341 O352 2.023 . S
Mg341 O356 2.031 . S
Mg341 O365 2.291 . S
Mg342 O343 1.963 . S
Mg342 O353 1.942 . S
Mg342 O354 1.955 . S
Mg342 O361 1.986 . S
O343 Mg341 1.936 . S
O343 Mg342 1.963 . S
O343 Mg344 1.915 . S
Mg344 O343 1.915 . S
Mg344 O345 1.915 . S
Mg344 O349 2.013 . S
Mg344 O355 2.114 . S
Mg344 O359 2.013 . S
Mg344 O365 2.114 . S
O345 Mg344 1.915 . S
O345 Mg346 1.936 . S
O345 Mg347 1.963 . S
Mg346 O345 1.936 . S
Mg346 O355 2.291 . S
Mg346 O360 2.081 . S
Mg346 O362 2.023 . S
Mg346 O366 2.031 . S
Mg347 O345 1.963 . S
Mg347 O351 1.986 . S
Mg347 O363 1.942 . S
Mg347 O364 1.955 . S
C348 O359 1.191 . S
C348 O361 1.307 . S
O349 Mg344 2.013 . S
O349 C368 1.191 . S
O350 Mg341 2.081 . S
O350 C358 1.331 . S
O351 Mg347 1.986 . S
O351 C368 1.307 . S
O352 Mg341 2.023 . S
O352 C367 1.264 . S
O353 Mg342 1.942 . S
O353 C358 1.244 . S
O354 Mg342 1.955 . S
O354 C367 1.273 . S
O355 Mg344 2.114 . S
O355 Mg346 2.291 . S
O355 C357 1.312 . S
O356 Mg341 2.031 . S
O356 C357 1.208 . S
C357 O355 1.312 . S
C357 O356 1.208 . S
C358 O350 1.331 . S
C358 O353 1.244 . S
O359 Mg344 2.013 . S
O359 C348 1.191 . S
O360 C339 1.331 . S
O360 Mg346 2.081 . S
O361 Mg342 1.986 . S
O361 C348 1.307 . S
O362 C340 1.264 . S
O362 Mg346 2.023 . S
O363 C339 1.244 . S
O363 Mg347 1.942 . S
O364 C340 1.273 . S
O364 Mg347 1.955 . S
O365 C338 1.312 . S
O365 Mg341 2.291 . S
O365 Mg344 2.114 . S
O366 C338 1.208 . S
O366 Mg346 2.031 . S
C367 O352 1.264 . S
C367 O354 1.273 . S
C368 O349 1.191 . S
C368 O351 1.307 . S
C369 C370 1.387 . S
C369 H373 0.950 . S
C369 C378 1.390 . S
C370 C369 1.387 . S
C370 C372 1.387 . S
H371 C378 0.950 . S
C372 C370 1.387 . S
C372 C374 1.390 . S
C372 H376 0.950 . S
H373 C369 0.950 . S
C374 C372 1.390 . S
C374 C375 1.387 . S
C374 H377 0.950 . S
C375 C374 1.387 . S
C375 C378 1.387 . S
H376 C372 0.950 . S
H377 C374 0.950 . S
C378 C369 1.390 . S
C378 H371 0.950 . S
C378 C375 1.387 . S
C379 C380 1.387 . S
C379 H383 0.950 . S
C379 C388 1.390 . S
C380 C379 1.387 . S
C380 C382 1.387 . S
H381 C388 0.950 . S
C382 C380 1.387 . S
C382 C384 1.390 . S
C382 H386 0.950 . S
H383 C379 0.950 . S
C384 C382 1.390 . S
C384 C385 1.387 . S
C384 H387 0.950 . S
C385 C384 1.387 . S
C385 C388 1.387 . S
H386 C382 0.950 . S
H387 C384 0.950 . S
C388 C379 1.390 . S
C388 H381 0.950 . S
C388 C385 1.387 . S
C389 C390 1.387 . S
C389 H393 0.950 . S
C389 C398 1.390 . S
C390 C389 1.387 . S
C390 C392 1.387 . S
H391 C398 0.950 . S
C392 C390 1.387 . S
C392 C394 1.390 . S
C392 H396 0.950 . S
H393 C389 0.950 . S
C394 C392 1.390 . S
C394 C395 1.387 . S
C394 H397 0.950 . S
C395 C394 1.387 . S
C395 C398 1.387 . S
H396 C392 0.950 . S
H397 C394 0.950 . S
C398 C389 1.390 . S
C398 H391 0.950 . S
C398 C395 1.387 . S
C399 C400 1.387 . S
C399 H403 0.950 . S
C399 C408 1.390 . S
C400 C399 1.387 . S
C400 C402 1.387 . S
H401 C408 0.950 . S
C402 C400 1.387 . S
C402 C404 1.390 . S
C402 H406 0.950 . S
H403 C399 0.950 . S
C404 C402 1.390 . S
C404 C405 1.387 . S
C404 H407 0.950 . S
C405 C404 1.387 . S
C405 C408 1.387 . S
H406 C402 0.950 . S
H407 C404 0.950 . S
C408 C399 1.390 . S
C408 H401 0.950 . S
C408 C405 1.387 . S
C409 C410 1.387 . S
C409 H413 0.950 . S
C409 C418 1.390 . S
C410 C409 1.387 . S
C410 C412 1.387 . S
H411 C418 0.950 . S
C412 C410 1.387 . S
C412 C414 1.390 . S
C412 H416 0.950 . S
H413 C409 0.950 . S
C414 C412 1.390 . S
C414 C415 1.387 . S
C414 H417 0.950 . S
C415 C414 1.387 . S
C415 C418 1.387 . S
H416 C412 0.950 . S
H417 C414 0.950 . S
C418 C409 1.390 . S
C418 H411 0.950 . S
C418 C415 1.387 . S
C419 C420 1.387 . S
C419 H423 0.950 . S
C419 C428 1.390 . S
C420 C419 1.387 . S
C420 C422 1.387 . S
H421 C428 0.950 . S
C422 C420 1.387 . S
C422 C424 1.390 . S
C422 H426 0.950 . S
H423 C419 0.950 . S
C424 C422 1.390 . S
C424 C425 1.387 . S
C424 H427 0.950 . S
C425 C424 1.387 . S
C425 C428 1.387 . S
H426 C422 0.950 . S
H427 C424 0.950 . S
C428 C419 1.390 . S
C428 H421 0.950 . S
C428 C425 1.387 . S
C429 C430 1.387 . S
C429 H433 0.950 . S
C429 C438 1.390 . S
C430 C429 1.387 . S
C430 C432 1.387 . S
H431 C438 0.950 . S
C432 C430 1.387 . S
C432 C434 1.390 . S
C432 H436 0.950 . S
H433 C429 0.950 . S
C434 C432 1.390 . S
C434 C435 1.387 . S
C434 H437 0.950 . S
C435 C434 1.387 . S
C435 C438 1.387 . S
H436 C432 0.950 . S
H437 C434 0.950 . S
C438 C429 1.390 . S
C438 H431 0.950 . S
C438 C435 1.387 . S
C439 C440 1.387 . S
C439 H443 0.950 . S
C439 C448 1.390 . S
C440 C439 1.387 . S
C440 C442 1.387 . S
H441 C448 0.950 . S
C442 C440 1.387 . S
C442 C444 1.390 . S
C442 H446 0.950 . S
H443 C439 0.950 . S
C444 C442 1.390 . S
C444 C445 1.387 . S
C444 H447 0.950 . S
C445 C444 1.387 . S
C445 C448 1.387 . S
H446 C442 0.950 . S
H447 C444 0.950 . S
C448 C439 1.390 . S
C448 H441 0.950 . S
C448 C445 1.387 . S
C449 C450 1.387 . S
C449 H453 0.950 . S
C449 C458 1.390 . S
C450 C449 1.387 . S
C450 C452 1.387 . S
H451 C458 0.950 . S
C452 C450 1.387 . S
C452 C454 1.390 . S
C452 H456 0.950 . S
H453 C449 0.950 . S
C454 C452 1.390 . S
C454 C455 1.387 . S
C454 H457 0.950 . S
C455 C454 1.387 . S
C455 C458 1.387 . S
H456 C452 0.950 . S
H457 C454 0.950 . S
C458 C449 1.390 . S
C458 H451 0.950 . S
C458 C455 1.387 . S
C459 C460 1.387 . S
C459 H463 0.950 1_556 S
C459 C468 1.390 . S
C460 C459 1.387 . S
C460 C462 1.387 . S
H461 C468 0.950 . S
C462 C460 1.387 . S
C462 C464 1.390 . S
C462 H466 0.950 . S
H463 C459 0.950 1_554 S
C464 C462 1.390 . S
C464 C465 1.387 . S
C464 H467 0.950 . S
C465 C464 1.387 . S
C465 C468 1.387 . S
H466 C462 0.950 . S
H467 C464 0.950 . S
C468 C459 1.390 . S
C468 H461 0.950 . S
C468 C465 1.387 . S
C469 C470 1.387 . S
C469 H473 0.950 1_556 S
C469 C478 1.390 . S
C470 C469 1.387 . S
C470 C472 1.387 . S
H471 C478 0.950 . S
C472 C470 1.387 . S
C472 C474 1.390 . S
C472 H476 0.950 . S
H473 C469 0.950 1_554 S
C474 C472 1.390 . S
C474 C475 1.387 . S
C474 H477 0.950 . S
C475 C474 1.387 . S
C475 C478 1.387 . S
H476 C472 0.950 . S
H477 C474 0.950 . S
C478 C469 1.390 . S
C478 H471 0.950 . S
C478 C475 1.387 . S
C479 C480 1.387 . S
C479 H483 0.950 . S
C479 C488 1.390 . S
C480 C479 1.387 . S
C480 C482 1.387 . S
H481 C488 0.950 . S
C482 C480 1.387 . S
C482 C484 1.390 . S
C482 H486 0.950 . S
H483 C479 0.950 . S
C484 C482 1.390 . S
C484 C485 1.387 . S
C484 H487 0.950 . S
C485 C484 1.387 . S
C485 C488 1.387 . S
H486 C482 0.950 . S
H487 C484 0.950 . S
C488 C479 1.390 . S
C488 H481 0.950 . S
C488 C485 1.387 . S
C489 C490 1.387 . S
C489 H493 0.950 . S
C489 C498 1.390 . S
C490 C489 1.387 . S
C490 C492 1.387 . S
H491 C498 0.950 . S
C492 C490 1.387 . S
C492 C494 1.390 . S
C492 H496 0.950 . S
H493 C489 0.950 . S
C494 C492 1.390 . S
C494 C495 1.387 . S
C494 H497 0.950 . S
C495 C494 1.387 . S
C495 C498 1.387 . S
H496 C492 0.950 . S
H497 C494 0.950 . S
C498 C489 1.390 . S
C498 H491 0.950 . S
C498 C495 1.387 . S
C499 C500 1.387 . S
C499 H503 0.950 . S
C499 C508 1.390 . S
C500 C499 1.387 . S
C500 C502 1.387 . S
H501 C508 0.950 . S
C502 C500 1.387 . S
C502 C504 1.390 . S
C502 H506 0.950 . S
H503 C499 0.950 . S
C504 C502 1.390 . S
C504 C505 1.387 . S
C504 H507 0.950 . S
C505 C504 1.387 . S
C505 C508 1.387 . S
H506 C502 0.950 . S
H507 C504 0.950 . S
C508 C499 1.390 . S
C508 H501 0.950 . S
C508 C505 1.387 . S
C509 C510 1.387 . S
C509 H513 0.950 . S
C509 C518 1.390 . S
C510 C509 1.387 . S
C510 C512 1.387 . S
H511 C518 0.950 . S
C512 C510 1.387 . S
C512 C514 1.390 . S
C512 H516 0.950 . S
H513 C509 0.950 . S
C514 C512 1.390 . S
C514 C515 1.387 . S
C514 H517 0.950 . S
C515 C514 1.387 . S
C515 C518 1.387 . S
H516 C512 0.950 . S
H517 C514 0.950 . S
C518 C509 1.390 . S
C518 H511 0.950 . S
C518 C515 1.387 . S
C519 C520 1.387 . S
C519 H523 0.950 1_556 S
C519 C528 1.390 . S
C520 C519 1.387 . S
C520 C522 1.387 . S
H521 C528 0.950 . S
C522 C520 1.387 . S
C522 C524 1.390 . S
C522 H526 0.950 . S
H523 C519 0.950 1_554 S
C524 C522 1.390 . S
C524 C525 1.387 . S
C524 H527 0.950 . S
C525 C524 1.387 . S
C525 C528 1.387 . S
H526 C522 0.950 . S
H527 C524 0.950 . S
C528 C519 1.390 . S
C528 H521 0.950 . S
C528 C525 1.387 . S
C529 C530 1.387 . S
C529 H533 0.950 . S
C529 C538 1.390 . S
C530 C529 1.387 . S
C530 C532 1.387 . S
H531 C538 0.950 . S
C532 C530 1.387 . S
C532 C534 1.390 . S
C532 H536 0.950 . S
H533 C529 0.950 . S
C534 C532 1.390 . S
C534 C535 1.387 . S
C534 H537 0.950 . S
C535 C534 1.387 . S
C535 C538 1.387 . S
H536 C532 0.950 . S
H537 C534 0.950 . S
C538 C529 1.390 . S
C538 H531 0.950 . S
C538 C535 1.387 . S
C539 C540 1.387 . S
C539 H543 0.950 . S
C539 C548 1.390 . S
C540 C539 1.387 . S
C540 C542 1.387 . S
H541 C548 0.950 . S
C542 C540 1.387 . S
C542 C544 1.390 . S
C542 H546 0.950 . S
H543 C539 0.950 . S
C544 C542 1.390 . S
C544 C545 1.387 . S
C544 H547 0.950 . S
C545 C544 1.387 . S
C545 C548 1.387 . S
H546 C542 0.950 . S
H547 C544 0.950 . S
C548 C539 1.390 . S
C548 H541 0.950 . S
C548 C545 1.387 . S
C549 C550 1.387 . S
C549 H553 0.950 . S
C549 C558 1.390 . S
C550 C549 1.387 . S
C550 C552 1.387 . S
H551 C558 0.950 . S
C552 C550 1.387 . S
C552 C554 1.390 . S
C552 H556 0.950 . S
H553 C549 0.950 . S
C554 C552 1.390 . S
C554 C555 1.387 . S
C554 H557 0.950 . S
C555 C554 1.387 . S
C555 C558 1.387 . S
H556 C552 0.950 . S
H557 C554 0.950 . S
C558 C549 1.390 . S
C558 H551 0.950 . S
C558 C555 1.387 . S
C559 C560 1.387 . S
C559 H563 0.950 . S
C559 C568 1.390 . S
C560 C559 1.387 . S
C560 C562 1.387 . S
H561 C568 0.950 . S
C562 C560 1.387 . S
C562 C564 1.390 . S
C562 H566 0.950 . S
H563 C559 0.950 . S
C564 C562 1.390 . S
C564 C565 1.387 . S
C564 H567 0.950 . S
C565 C564 1.387 . S
C565 C568 1.387 . S
H566 C562 0.950 . S
H567 C564 0.950 . S
C568 C559 1.390 . S
C568 H561 0.950 . S
C568 C565 1.387 . S
C569 C570 1.387 . S
C569 H573 0.950 . S
C569 C578 1.390 . S
C570 C569 1.387 . S
C570 C572 1.387 . S
H571 C578 0.950 . S
C572 C570 1.387 . S
C572 C574 1.390 . S
C572 H576 0.950 . S
H573 C569 0.950 . S
C574 C572 1.390 . S
C574 C575 1.387 . S
C574 H577 0.950 . S
C575 C574 1.387 . S
C575 C578 1.387 . S
H576 C572 0.950 . S
H577 C574 0.950 . S
C578 C569 1.390 . S
C578 H571 0.950 . S
C578 C575 1.387 . S
C579 C580 1.387 . S
C579 H583 0.950 . S
C579 C588 1.390 . S
C580 C579 1.387 . S
C580 C582 1.387 . S
H581 C588 0.950 . S
C582 C580 1.387 . S
C582 C584 1.390 . S
C582 H586 0.950 . S
H583 C579 0.950 . S
C584 C582 1.390 . S
C584 C585 1.387 . S
C584 H587 0.950 . S
C585 C584 1.387 . S
C585 C588 1.387 . S
H586 C582 0.950 . S
H587 C584 0.950 . S
C588 C579 1.390 . S
C588 H581 0.950 . S
C588 C585 1.387 . S
C589 C590 1.387 . S
C589 H593 0.950 . S
C589 C598 1.390 . S
C590 C589 1.387 . S
C590 C592 1.387 . S
H591 C598 0.950 . S
C592 C590 1.387 . S
C592 C594 1.390 . S
C592 H596 0.950 . S
H593 C589 0.950 . S
C594 C592 1.390 . S
C594 C595 1.387 . S
C594 H597 0.950 . S
C595 C594 1.387 . S
C595 C598 1.387 . S
H596 C592 0.950 . S
H597 C594 0.950 . S
C598 C589 1.390 . S
C598 H591 0.950 . S
C598 C595 1.387 . S
C599 C600 1.387 . S
C599 H603 0.950 . S
C599 C608 1.390 . S
C600 C599 1.387 . S
C600 C602 1.387 . S
H601 C608 0.950 . S
C602 C600 1.387 . S
C602 C604 1.390 . S
C602 H606 0.950 . S
H603 C599 0.950 . S
C604 C602 1.390 . S
C604 C605 1.387 . S
C604 H607 0.950 . S
C605 C604 1.387 . S
C605 C608 1.387 . S
H606 C602 0.950 . S
H607 C604 0.950 . S
C608 C599 1.390 . S
C608 H601 0.950 . S
C608 C605 1.387 . S
C370 C15 1.823 . S
C375 C276 1.731 . S
C380 C47 1.555 . S
C385 C308 1.523 . S
C395 C367 1.817 . S
C390 C100 1.884 . S
C405 C296 1.409 . S
C400 C146 1.457 . S
C410 C192 1.767 . S
C415 C326 1.630 . S
C425 C348 1.371 . S
C420 C245 1.342 . S
C435 C317 1.758 . S
C430 C114 1.747 . S
C440 C160 1.428 . S
C445 C357 1.358 . S
C455 C306 1.675 . S
C450 C206 1.686 . S
C460 C231 1.520 . S
C465 C336 1.465 . S
C470 C1 1.811 1_556 S
C475 C339 1.746 . S
C485 C278 1.588 . S
C480 C61 1.604 . S
C495 C286 1.693 . S
C490 C139 1.741 . S
C505 C327 1.497 . S
C500 C185 1.514 . S
C515 C340 1.826 . S
C510 C252 1.894 1_556 S
C525 C277 1.422 . S
C520 C22 1.469 1_556 S
C535 C337 1.602 . S
C530 C54 1.659 . S
C540 C93 1.356 . S
C545 C338 1.347 . S
C555 C307 1.699 . S
C550 C238 1.738 . S
C565 C368 1.341 . S
C560 C8 1.375 . S
C575 C295 1.617 . S
C570 C68 1.702 . S
C585 C309 1.496 . S
C580 C107 1.547 . S
C590 C153 1.807 . S
C595 C358 1.742 . S
C600 C199 1.625 . S
C605 C305 1.590 . S
