# Generated by pormake.
# Topology wbl, (4,4)-cn, num edge types: 1
# Building blocks:
#     Node 0, Type 0, BuildingBlock: MUDLON_clean_linker_0, # of connection points: 4
#     Node 1, Type 0, BuildingBlock: MUDLON_clean_linker_0, # of connection points: 4
#     Node 2, Type 0, BuildingBlock: MUDLON_clean_linker_0, # of connection points: 4
#     Node 3, Type 0, BuildingBlock: MUDLON_clean_linker_0, # of connection points: 4
#     Node 4, Type 0, BuildingBlock: MUDLON_clean_linker_0, # of connection points: 4
#     Node 5, Type 0, BuildingBlock: MUDLON_clean_linker_0, # of connection points: 4
#     Node 6, Type 0, BuildingBlock: MUDLON_clean_linker_0, # of connection points: 4
#     Node 7, Type 0, BuildingBlock: MUDLON_clean_linker_0, # of connection points: 4
#     Node 8, Type 1, BuildingBlock: NAHDIM_clean_sbu_0, # of connection points: 4
#     Node 9, Type 1, BuildingBlock: NAHDIM_clean_sbu_0, # of connection points: 4
#     Node 10, Type 1, BuildingBlock: NAHDIM_clean_sbu_0, # of connection points: 4
#     Node 11, Type 1, BuildingBlock: NAHDIM_clean_sbu_0, # of connection points: 4
#     Node 12, Type 1, BuildingBlock: NAHDIM_clean_sbu_0, # of connection points: 4
#     Node 13, Type 1, BuildingBlock: NAHDIM_clean_sbu_0, # of connection points: 4
#     Node 14, Type 1, BuildingBlock: NAHDIM_clean_sbu_0, # of connection points: 4
#     Node 15, Type 1, BuildingBlock: NAHDIM_clean_sbu_0, # of connection points: 4
#     Edge 16, Type (0, 1), BuildingBlock: XUDNAN_clean_linker_2, # of connection points: 2
#     Edge 17, Type (0, 1), BuildingBlock: XUDNAN_clean_linker_2, # of connection points: 2
#     Edge 18, Type (0, 1), BuildingBlock: XUDNAN_clean_linker_2, # of connection points: 2
#     Edge 19, Type (0, 1), BuildingBlock: XUDNAN_clean_linker_2, # of connection points: 2
#     Edge 20, Type (0, 1), BuildingBlock: XUDNAN_clean_linker_2, # of connection points: 2
#     Edge 21, Type (0, 1), BuildingBlock: XUDNAN_clean_linker_2, # of connection points: 2
#     Edge 22, Type (0, 1), BuildingBlock: XUDNAN_clean_linker_2, # of connection points: 2
#     Edge 23, Type (0, 1), BuildingBlock: XUDNAN_clean_linker_2, # of connection points: 2
#     Edge 24, Type (0, 1), BuildingBlock: XUDNAN_clean_linker_2, # of connection points: 2
#     Edge 25, Type (0, 1), BuildingBlock: XUDNAN_clean_linker_2, # of connection points: 2
#     Edge 26, Type (0, 1), BuildingBlock: XUDNAN_clean_linker_2, # of connection points: 2
#     Edge 27, Type (0, 1), BuildingBlock: XUDNAN_clean_linker_2, # of connection points: 2
#     Edge 28, Type (0, 1), BuildingBlock: XUDNAN_clean_linker_2, # of connection points: 2
#     Edge 29, Type (0, 1), BuildingBlock: XUDNAN_clean_linker_2, # of connection points: 2
#     Edge 30, Type (0, 1), BuildingBlock: XUDNAN_clean_linker_2, # of connection points: 2
#     Edge 31, Type (0, 1), BuildingBlock: XUDNAN_clean_linker_2, # of connection points: 2
#     Edge 32, Type (0, 1), BuildingBlock: XUDNAN_clean_linker_2, # of connection points: 2
#     Edge 33, Type (0, 1), BuildingBlock: XUDNAN_clean_linker_2, # of connection points: 2
#     Edge 34, Type (0, 1), BuildingBlock: XUDNAN_clean_linker_2, # of connection points: 2
#     Edge 35, Type (0, 1), BuildingBlock: XUDNAN_clean_linker_2, # of connection points: 2
#     Edge 36, Type (0, 1), BuildingBlock: XUDNAN_clean_linker_2, # of connection points: 2
#     Edge 37, Type (0, 1), BuildingBlock: XUDNAN_clean_linker_2, # of connection points: 2
#     Edge 38, Type (0, 1), BuildingBlock: XUDNAN_clean_linker_2, # of connection points: 2
#     Edge 39, Type (0, 1), BuildingBlock: XUDNAN_clean_linker_2, # of connection points: 2
#     Edge 40, Type (0, 1), BuildingBlock: XUDNAN_clean_linker_2, # of connection points: 2
#     Edge 41, Type (0, 1), BuildingBlock: XUDNAN_clean_linker_2, # of connection points: 2
#     Edge 42, Type (0, 1), BuildingBlock: XUDNAN_clean_linker_2, # of connection points: 2
#     Edge 43, Type (0, 1), BuildingBlock: XUDNAN_clean_linker_2, # of connection points: 2
#     Edge 44, Type (0, 1), BuildingBlock: XUDNAN_clean_linker_2, # of connection points: 2
#     Edge 45, Type (0, 1), BuildingBlock: XUDNAN_clean_linker_2, # of connection points: 2
#     Edge 46, Type (0, 1), BuildingBlock: XUDNAN_clean_linker_2, # of connection points: 2
#     Edge 47, Type (0, 1), BuildingBlock: XUDNAN_clean_linker_2, # of connection points: 2
# Relax obj value: 0.108
# Max RMSD: 0.121
# Mean RMSD: 0.110
data_MOF--net-wbl--node1-NAHDIM_clean_sbu_0--node2-MUDLON_clean_linker_0--edge1-XUDNAN_clean_linker_2
_symmetry_space_group_name_H-M    P1
_symmetry_Int_Tables_number       1
_symmetry_cell_setting            triclinic
loop_
_symmetry_equiv_pos_as_xyz
'x, y, z'
_cell_length_a     54.858114
_cell_length_b     53.266625
_cell_length_c     74.479809
_cell_angle_alpha  89.986915
_cell_angle_beta   89.968422
_cell_angle_gamma 90.006259
loop_
_atom_site_label
_atom_site_type_symbol
_atom_site_fract_x
_atom_site_fract_y
_atom_site_fract_z
_atom_type_partial_charge
H0 H 0.12647 0.97443 0.32847 0.0
N1 N 0.0893 0.95596 0.30989 0.0
H2 H 0.13901 0.96325 0.35898 0.0
H3 H 0.06419 0.92553 0.33334 0.0
H4 H 0.0758 0.91525 0.36381 0.0
H5 H 0.07687 0.90651 0.30526 0.0
H6 H 0.10093 0.87531 0.28912 0.0
H7 H 0.12574 0.96481 0.28761 0.0
H8 H 0.15045 0.93378 0.27196 0.0
H9 H 0.08237 0.00363 0.30124 0.0
H10 H 0.04414 0.93365 0.30792 0.0
H11 H 0.04364 0.0255 0.29759 0.0
H12 H 0.00555 0.95535 0.30655 0.0
H13 H 0.94021 0.08818 0.32715 0.0
H14 H 0.93982 0.10934 0.35611 0.0
H15 H 0.92238 0.03915 0.38221 0.0
H16 H 0.92262 0.01798 0.35292 0.0
H17 H 0.88327 0.02729 0.31874 0.0
H18 H 0.85169 0.05022 0.30255 0.0
H19 H 0.90686 0.09797 0.279 0.0
H20 H 0.93838 0.07486 0.29551 0.0
H21 H 0.97559 0.06064 0.32204 0.0
H22 H 0.01365 0.04049 0.31512 0.0
H23 H 0.97452 0.97654 0.2937 0.0
N24 N 0.93009 0.03853 0.32082 0.0
H25 H 0.93617 0.9961 0.3026 0.0
C26 C 0.09433 0.95112 0.32857 0.0
C27 C 0.11522 0.96176 0.33626 0.0
C28 C 0.12228 0.95539 0.35371 0.0
C29 C 0.10846 0.93824 0.36386 0.0
C30 C 0.08711 0.92818 0.35629 0.0
C31 C 0.08022 0.93437 0.33881 0.0
C32 C 0.09956 0.93808 0.29758 0.0
C33 C 0.09235 0.91276 0.29749 0.0
C34 C 0.10632 0.89484 0.28839 0.0
C35 C 0.1278 0.90192 0.27937 0.0
C36 C 0.13389 0.92757 0.2785 0.0
C37 C 0.11985 0.9454 0.28749 0.0
C38 C 0.06623 0.96724 0.30551 0.0
C39 C 0.06555 0.99303 0.30199 0.0
C40 C 0.04331 0.00551 0.30016 0.0
C41 C 0.02112 0.99252 0.30237 0.0
C42 C 0.02199 0.96626 0.30471 0.0
C43 C 0.04429 0.95371 0.30592 0.0
C44 C 0.93133 0.05138 0.33787 0.0
C45 C 0.9364 0.07724 0.33905 0.0
C46 C 0.9364 0.08932 0.35566 0.0
C47 C 0.93111 0.07589 0.37142 0.0
C48 C 0.92636 0.04999 0.37026 0.0
C49 C 0.92656 0.03787 0.35361 0.0
C50 C 0.91301 0.04941 0.30839 0.0
C51 C 0.88854 0.04227 0.3097 0.0
C52 C 0.87056 0.05538 0.30039 0.0
C53 C 0.87675 0.07604 0.28954 0.0
C54 C 0.90151 0.08232 0.28742 0.0
C55 C 0.91954 0.06906 0.29674 0.0
C56 C 0.95281 0.02946 0.31349 0.0
C57 C 0.97498 0.04229 0.31591 0.0
C58 C 0.99704 0.03073 0.3116 0.0
C59 C 0.99754 0.00642 0.30412 0.0
C60 C 0.97514 0.99477 0.30007 0.0
C61 C 0.95309 0.00606 0.30492 0.0
H62 H 0.98682 0.39076 0.60259 0.0
N63 N 0.96778 0.40958 0.57269 0.0
H64 H 0.96898 0.39135 0.63286 0.0
H65 H 0.92626 0.43433 0.58289 0.0
H66 H 0.90867 0.43535 0.61294 0.0
H67 H 0.93117 0.42704 0.55109 0.0
H68 H 0.90191 0.40098 0.53447 0.0
H69 H 0.96974 0.36059 0.56771 0.0
H70 H 0.94081 0.33445 0.55136 0.0
H71 H 0.01066 0.40469 0.55672 0.0
H72 H 0.95692 0.45999 0.57145 0.0
H73 H 0.03812 0.43805 0.54682 0.0
H74 H 0.98466 0.49338 0.56292 0.0
H75 H 0.12255 0.55159 0.57549 0.0
H76 H 0.12595 0.56377 0.60707 0.0
H77 H 0.04809 0.57635 0.6089 0.0
H78 H 0.04484 0.56296 0.57773 0.0
H79 H 0.05045 0.58906 0.55255 0.0
H80 H 0.05808 0.62812 0.53676 0.0
H81 H 0.12606 0.59817 0.51673 0.0
H82 H 0.11772 0.5585 0.5321 0.0
H83 H 0.09177 0.50157 0.56097 0.0
H84 H 0.06296 0.46694 0.56128 0.0
H85 H 0.00654 0.51665 0.54173 0.0
N86 N 0.08244 0.54952 0.55557 0.0
H87 H 0.0352 0.55136 0.54233 0.0
C88 C 0.95811 0.41268 0.59055 0.0
C89 C 0.96996 0.40084 0.60488 0.0
C90 C 0.95971 0.40109 0.62207 0.0
C91 C 0.9375 0.41346 0.62521 0.0
C92 C 0.92599 0.42598 0.61095 0.0
C93 C 0.93607 0.42542 0.59373 0.0
C94 C 0.95254 0.39557 0.56064 0.0
C95 C 0.93352 0.40688 0.55092 0.0
C96 C 0.9168 0.39198 0.54151 0.0
C97 C 0.91903 0.36565 0.54159 0.0
C98 C 0.93875 0.35466 0.55073 0.0
C99 C 0.95528 0.3695 0.56014 0.0
C100 C 0.98205 0.42974 0.56526 0.0
C101 C 0.00479 0.42406 0.55777 0.0
C102 C 0.02051 0.44319 0.55226 0.0
C103 C 0.01393 0.46855 0.55442 0.0
C104 C 0.99043 0.47415 0.56093 0.0
C105 C 0.97454 0.45494 0.56611 0.0
C106 C 0.08358 0.55647 0.57425 0.0
C107 C 0.10628 0.55687 0.58281 0.0
C108 C 0.10816 0.56404 0.60079 0.0
C109 C 0.0873 0.57119 0.61054 0.0
C110 C 0.0645 0.57067 0.60191 0.0
C111 C 0.06262 0.56326 0.58398 0.0
C112 C 0.08353 0.5706 0.54344 0.0
C113 C 0.06656 0.59039 0.54427 0.0
C114 C 0.07111 0.61297 0.53537 0.0
C115 C 0.09287 0.61646 0.52571 0.0
C116 C 0.10902 0.5961 0.52392 0.0
C117 C 0.10431 0.5734 0.5327 0.0
C118 C 0.06588 0.52915 0.55178 0.0
C119 C 0.07331 0.50484 0.55637 0.0
C120 C 0.05674 0.485 0.55645 0.0
C121 C 0.03222 0.48892 0.55167 0.0
C122 C 0.02512 0.51301 0.54589 0.0
C123 C 0.04169 0.53298 0.54608 0.0
H124 H 0.62602 0.49214 0.83917 0.0
N125 N 0.59081 0.47879 0.81673 0.0
H126 H 0.63285 0.47693 0.86983 0.0
H127 H 0.56084 0.44725 0.83562 0.0
H128 H 0.56766 0.43175 0.86613 0.0
H129 H 0.58029 0.42931 0.81007 0.0
H130 H 0.60437 0.40094 0.79128 0.0
H131 H 0.62524 0.4915 0.79348 0.0
H132 H 0.64901 0.46333 0.77425 0.0
H133 H 0.58717 0.52819 0.81686 0.0
H134 H 0.54617 0.46082 0.80643 0.0
H135 H 0.55084 0.55357 0.81146 0.0
H136 H 0.5095 0.48608 0.80084 0.0
H137 H 0.46745 0.62303 0.82842 0.0
H138 H 0.4572 0.63277 0.85969 0.0
H139 H 0.40043 0.57658 0.85845 0.0
H140 H 0.41075 0.567 0.8273 0.0
H141 H 0.4172 0.55086 0.79562 0.0
H142 H 0.38024 0.55498 0.7776 0.0
H143 H 0.39346 0.63461 0.77231 0.0
H144 H 0.43029 0.63033 0.79061 0.0
H145 H 0.48787 0.59568 0.78937 0.0
H146 H 0.52264 0.56691 0.78829 0.0
H147 H 0.48146 0.51233 0.8187 0.0
N148 N 0.4464 0.58956 0.80707 0.0
H149 H 0.4467 0.54092 0.81929 0.0
C150 C 0.5931 0.47077 0.83511 0.0
C151 C 0.61309 0.47919 0.8451 0.0
C152 C 0.6169 0.47056 0.86258 0.0
C153 C 0.6008 0.45311 0.87033 0.0
C154 C 0.58047 0.44501 0.86041 0.0
C155 C 0.57654 0.4539 0.84298 0.0
C156 C 0.6013 0.46253 0.80338 0.0
C157 C 0.59499 0.437 0.80213 0.0
C158 C 0.60875 0.42077 0.79137 0.0
C159 C 0.62861 0.42993 0.78141 0.0
C160 C 0.63368 0.45578 0.78168 0.0
C161 C 0.6202 0.47188 0.79265 0.0
C162 C 0.56933 0.49278 0.8121 0.0
C163 C 0.5703 0.51896 0.81316 0.0
C164 C 0.54956 0.53339 0.80995 0.0
C165 C 0.52726 0.52186 0.80563 0.0
C166 C 0.52637 0.4955 0.80426 0.0
C167 C 0.54729 0.48105 0.80742 0.0
C168 C 0.43985 0.5945 0.82549 0.0
C169 C 0.45283 0.61284 0.83495 0.0
C170 C 0.44702 0.61827 0.85279 0.0
C171 C 0.42799 0.60543 0.8615 0.0
C172 C 0.415 0.58697 0.85202 0.0
C173 C 0.42095 0.58143 0.8342 0.0
C174 C 0.42653 0.5904 0.79445 0.0
C175 C 0.41245 0.56911 0.79032 0.0
C176 C 0.39131 0.57149 0.77996 0.0
C177 C 0.38384 0.59516 0.77364 0.0
C178 C 0.39854 0.61618 0.77719 0.0
C179 C 0.41965 0.61377 0.7875 0.0
C180 C 0.46484 0.57063 0.8045 0.0
C181 C 0.48624 0.57729 0.79544 0.0
C182 C 0.50609 0.5609 0.79497 0.0
C183 C 0.50494 0.53746 0.80364 0.0
C184 C 0.48292 0.53017 0.81181 0.0
C185 C 0.46302 0.5466 0.81223 0.0
H186 H 0.47812 0.86266 0.07961 0.0
N187 N 0.47898 0.90622 0.06246 0.0
H188 H 0.45438 0.85194 0.10641 0.0
H189 H 0.45469 0.93967 0.08406 0.0
H190 H 0.43122 0.92913 0.111 0.0
H191 H 0.43249 0.92235 0.05555 0.0
H192 H 0.40316 0.90031 0.0365 0.0
H193 H 0.48976 0.8736 0.03675 0.0
H194 H 0.46063 0.85192 0.01728 0.0
H195 H 0.52592 0.90865 0.07001 0.0
H196 H 0.46575 0.95343 0.05114 0.0
H197 H 0.55241 0.94557 0.06931 0.0
H198 H 0.49217 0.99061 0.05044 0.0
H199 H 0.63584 0.05788 0.07371 0.0
H200 H 0.65057 0.07676 0.10169 0.0
H201 H 0.57633 0.09256 0.11736 0.0
H202 H 0.56176 0.07377 0.08929 0.0
H203 H 0.54759 0.08245 0.05806 0.0
H204 H 0.54329 0.12299 0.04344 0.0
H205 H 0.61981 0.12066 0.02896 0.0
H206 H 0.6228 0.07899 0.04171 0.0
H207 H 0.5829 0.01985 0.08766 0.0
H208 H 0.55501 0.9848 0.08686 0.0
H209 H 0.53021 0.00751 0.03438 0.0
N210 N 0.59013 0.05574 0.06192 0.0
H211 H 0.55818 0.04297 0.03499 0.0
C212 C 0.46834 0.90187 0.07989 0.0
C213 C 0.46835 0.87733 0.08665 0.0
C214 C 0.45466 0.87124 0.10181 0.0
C215 C 0.44086 0.8897 0.11062 0.0
C216 C 0.44183 0.91461 0.10446 0.0
C217 C 0.4553 0.92064 0.0891 0.0
C218 C 0.46334 0.89933 0.04772 0.0
C219 C 0.43897 0.90755 0.04683 0.0
C220 C 0.42218 0.89489 0.036 0.0
C221 C 0.4296 0.87426 0.02561 0.0
C222 C 0.45443 0.86784 0.0251 0.0
C223 C 0.47111 0.88023 0.03615 0.0
C224 C 0.494 0.92823 0.0606 0.0
C225 C 0.51853 0.92647 0.06559 0.0
C226 C 0.53354 0.94758 0.06529 0.0
C227 C 0.5243 0.97103 0.05997 0.0
C228 C 0.4998 0.97274 0.05452 0.0
C229 C 0.48468 0.95153 0.05493 0.0
C230 C 0.59782 0.06434 0.07945 0.0
C231 C 0.62279 0.06513 0.08331 0.0
C232 C 0.63113 0.07604 0.09919 0.0
C233 C 0.61458 0.08623 0.11161 0.0
C234 C 0.58946 0.08471 0.10805 0.0
C235 C 0.58113 0.07406 0.09203 0.0
C236 C 0.58553 0.07744 0.05075 0.0
C237 C 0.56313 0.0903 0.05108 0.0
C238 C 0.56089 0.11388 0.04298 0.0
C239 C 0.5813 0.12584 0.0352 0.0
C240 C 0.6034 0.11236 0.03437 0.0
C241 C 0.60529 0.08838 0.0418 0.0
C242 C 0.57182 0.0358 0.06197 0.0
C243 C 0.57103 0.01816 0.07613 0.0
C244 C 0.55525 0.99765 0.07558 0.0
C245 C 0.54017 0.99358 0.06066 0.0
C246 C 0.54117 0.01056 0.04627 0.0
C247 C 0.55714 0.03107 0.04674 0.0
H248 H 0.09186 0.54307 0.93347 0.0
N249 N 0.04832 0.56055 0.94629 0.0
H250 H 0.10732 0.54783 0.90297 0.0
H251 H 0.02427 0.57817 0.91799 0.0
H252 H 0.03953 0.58277 0.88721 0.0
H253 H 0.05401 0.60972 0.94887 0.0
H254 H 0.08792 0.63216 0.96299 0.0
H255 H 0.08102 0.53997 0.97069 0.0
H256 H 0.11443 0.56239 0.98495 0.0
H257 H 0.06762 0.51298 0.94844 0.0
H258 H 0.00188 0.55612 0.95547 0.0
H259 H 0.04514 0.47446 0.95376 0.0
H260 H 0.97867 0.51744 0.95948 0.0
H261 H 0.94962 0.36165 0.93182 0.0
H262 H 0.93156 0.3551 0.90212 0.0
H263 H 0.91452 0.43419 0.89901 0.0
H264 H 0.93222 0.44046 0.92874 0.0
H265 H 0.90728 0.42989 0.95472 0.0
H266 H 0.87081 0.41484 0.96974 0.0
H267 H 0.91094 0.35089 0.98981 0.0
H268 H 0.94741 0.36581 0.97405 0.0
H269 H 0.99349 0.41184 0.93632 0.0
H270 H 0.01865 0.44925 0.93798 0.0
H271 H 0.96804 0.48185 0.97591 0.0
N272 N 0.95011 0.40384 0.95097 0.0
H273 H 0.94234 0.44511 0.97348 0.0
C274 C 0.05684 0.56034 0.92797 0.0
C275 C 0.08011 0.55127 0.92339 0.0
C276 C 0.08893 0.55397 0.90591 0.0
C277 C 0.07469 0.5658 0.8927 0.0
C278 C 0.05104 0.57388 0.89716 0.0
C279 C 0.04223 0.57114 0.91465 0.0
C280 C 0.06481 0.57313 0.95847 0.0
C281 C 0.06674 0.59935 0.95715 0.0
C282 C 0.08617 0.6121 0.96508 0.0
C283 C 0.10383 0.59891 0.97487 0.0
C284 C 0.10097 0.57296 0.97746 0.0
C285 C 0.08175 0.5601 0.96922 0.0
C286 C 0.03647 0.53765 0.95186 0.0
C287 C 0.04839 0.51427 0.95146 0.0
C288 C 0.03533 0.49208 0.95421 0.0
C289 C 0.00991 0.4926 0.95683 0.0
C290 C 0.99822 0.51611 0.9578 0.0
C291 C 0.01143 0.53832 0.95544 0.0
C292 C 0.94227 0.40141 0.93252 0.0
C293 C 0.94234 0.37758 0.92456 0.0
C294 C 0.93208 0.37393 0.90759 0.0
C295 C 0.92146 0.39411 0.89828 0.0
C296 C 0.92222 0.4182 0.90598 0.0
C297 C 0.93249 0.42183 0.92293 0.0
C298 C 0.9302 0.39888 0.96321 0.0
C299 C 0.90846 0.41293 0.96266 0.0
C300 C 0.88755 0.40432 0.97139 0.0
C301 C 0.88783 0.38148 0.98086 0.0
C302 C 0.90999 0.36835 0.98238 0.0
C303 C 0.93093 0.37698 0.97359 0.0
C304 C 0.96556 0.4255 0.95427 0.0
C305 C 0.98784 0.42702 0.94505 0.0
C306 C 0.00238 0.44844 0.94618 0.0
C307 C 0.9954 0.46887 0.95701 0.0
C308 C 0.97374 0.46684 0.96706 0.0
C309 C 0.95892 0.44552 0.96567 0.0
H310 H 0.5336 0.36535 0.18449 0.0
N311 N 0.52861 0.40948 0.20051 0.0
H312 H 0.55811 0.35559 0.15788 0.0
H313 H 0.55137 0.44379 0.17869 0.0
H314 H 0.57554 0.43418 0.15187 0.0
H315 H 0.5739 0.42843 0.20805 0.0
H316 H 0.60313 0.40946 0.22879 0.0
H317 H 0.51804 0.37808 0.22703 0.0
H318 H 0.54703 0.35939 0.24809 0.0
H319 H 0.48281 0.41009 0.18964 0.0
H320 H 0.5384 0.45704 0.21302 0.0
H321 H 0.4548 0.44586 0.1889 0.0
H322 H 0.5103 0.49284 0.21256 0.0
H323 H 0.36873 0.54788 0.18028 0.0
H324 H 0.35567 0.56158 0.15039 0.0
H325 H 0.42754 0.59189 0.14057 0.0
H326 H 0.44036 0.57814 0.17049 0.0
H327 H 0.45462 0.57979 0.20242 0.0
H328 H 0.45828 0.6193 0.21848 0.0
H329 H 0.38011 0.61956 0.22697 0.0
H330 H 0.37735 0.57874 0.21273 0.0
H331 H 0.4263 0.5211 0.16887 0.0
H332 H 0.45511 0.48709 0.17132 0.0
H333 H 0.4676 0.50527 0.22695 0.0
N334 N 0.41214 0.55413 0.19547 0.0
H335 H 0.43827 0.53956 0.22484 0.0
C336 C 0.54045 0.4052 0.18349 0.0
C337 C 0.54239 0.38048 0.17724 0.0
C338 C 0.5565 0.37495 0.16218 0.0
C339 C 0.56878 0.39415 0.15295 0.0
C340 C 0.56611 0.4191 0.15873 0.0
C341 C 0.55225 0.42459 0.17401 0.0
C342 C 0.54384 0.40428 0.21582 0.0
C343 C 0.56766 0.41395 0.21714 0.0
C344 C 0.58437 0.4031 0.22897 0.0
C345 C 0.57738 0.38281 0.23988 0.0
C346 C 0.55288 0.37511 0.23992 0.0
C347 C 0.53629 0.38573 0.22791 0.0
C348 C 0.51253 0.43079 0.20145 0.0
C349 C 0.48884 0.42808 0.19477 0.0
C350 C 0.47296 0.44849 0.19429 0.0
C351 C 0.48047 0.47207 0.20063 0.0
C352 C 0.50407 0.47477 0.20771 0.0
C353 C 0.52011 0.45433 0.20797 0.0
C354 C 0.40536 0.56202 0.17759 0.0
C355 C 0.38161 0.55741 0.17162 0.0
C356 C 0.37427 0.56516 0.15455 0.0
C357 C 0.39061 0.57779 0.14313 0.0
C358 C 0.41447 0.58246 0.14914 0.0
C359 C 0.42184 0.57459 0.16621 0.0
C360 C 0.41566 0.57602 0.20666 0.0
C361 C 0.43843 0.58798 0.20832 0.0
C362 C 0.44038 0.61094 0.21727 0.0
C363 C 0.41948 0.62318 0.22399 0.0
C364 C 0.39684 0.61082 0.22252 0.0
C365 C 0.39509 0.58743 0.21421 0.0
C366 C 0.43088 0.53468 0.19636 0.0
C367 C 0.43551 0.51868 0.18159 0.0
C368 C 0.45188 0.49878 0.18299 0.0
C369 C 0.46383 0.49384 0.19923 0.0
C370 C 0.45903 0.50912 0.21414 0.0
C371 C 0.44234 0.5289 0.21284 0.0
H372 H 0.38776 0.99544 0.41877 0.0
N373 N 0.4085 0.97204 0.44632 0.0
H374 H 0.38067 0.97893 0.3885 0.0
H375 H 0.42324 0.92633 0.43361 0.0
H376 H 0.41652 0.90977 0.40346 0.0
H377 H 0.4273 0.93287 0.46557 0.0
H378 H 0.40445 0.90599 0.48655 0.0
H379 H 0.36377 0.9792 0.45829 0.0
H380 H 0.34091 0.95286 0.47912 0.0
H381 H 0.41182 0.0132 0.46616 0.0
H382 H 0.45543 0.96017 0.43652 0.0
H383 H 0.44759 0.0397 0.47058 0.0
H384 H 0.49073 0.98737 0.4395 0.0
H385 H 0.54377 0.13369 0.43064 0.0
H386 H 0.54873 0.14588 0.39907 0.0
H387 H 0.56177 0.06843 0.38497 0.0
H388 H 0.55589 0.05625 0.41642 0.0
H389 H 0.5874 0.05718 0.43746 0.0
H390 H 0.62895 0.06318 0.44785 0.0
H391 H 0.60519 0.12447 0.48151 0.0
H392 H 0.5632 0.11816 0.47112 0.0
H393 H 0.50175 0.09741 0.44881 0.0
H394 H 0.46883 0.06734 0.45255 0.0
H395 H 0.52161 0.00712 0.45563 0.0
N396 N 0.5486 0.0882 0.44474 0.0
H397 H 0.55424 0.03725 0.45081 0.0
C398 C 0.40583 0.96214 0.42843 0.0
C399 C 0.39417 0.97679 0.41541 0.0
C400 C 0.39027 0.96737 0.39815 0.0
C401 C 0.39797 0.943 0.39361 0.0
C402 C 0.41005 0.92847 0.40662 0.0
C403 C 0.41397 0.93794 0.42387 0.0
C404 C 0.39699 0.95784 0.46035 0.0
C405 C 0.40854 0.9374 0.4687 0.0
C406 C 0.3955 0.92212 0.48065 0.0
C407 C 0.37091 0.92735 0.48455 0.0
C408 C 0.35992 0.94854 0.47671 0.0
C409 C 0.37285 0.96355 0.46472 0.0
C410 C 0.43071 0.98509 0.45066 0.0
C411 C 0.42917 0.00725 0.46068 0.0
C412 C 0.44961 0.02249 0.463 0.0
C413 C 0.47201 0.01615 0.45496 0.0
C414 C 0.47389 0.99298 0.44594 0.0
C415 C 0.45352 0.97743 0.44401 0.0
C416 C 0.54974 0.09423 0.4259 0.0
C417 C 0.54734 0.11936 0.42067 0.0
C418 C 0.55012 0.12624 0.4027 0.0
C419 C 0.55572 0.10806 0.38968 0.0
C420 C 0.55764 0.08277 0.39482 0.0
C421 C 0.55437 0.07584 0.41277 0.0
C422 C 0.57204 0.08736 0.45348 0.0
C423 C 0.5908 0.07144 0.44746 0.0
C424 C 0.61468 0.07499 0.45332 0.0
C425 C 0.62034 0.09454 0.46527 0.0
C426 C 0.60133 0.10918 0.47235 0.0
C427 C 0.57739 0.10562 0.46644 0.0
C428 C 0.53045 0.06982 0.44954 0.0
C429 C 0.50618 0.07774 0.45056 0.0
C430 C 0.48738 0.06044 0.45285 0.0
C431 C 0.49242 0.03463 0.45446 0.0
C432 C 0.51693 0.02676 0.45417 0.0
C433 C 0.53576 0.04413 0.45156 0.0
H434 H 0.05431 0.89576 0.6822 0.0
N435 N 0.06335 0.93718 0.70292 0.0
H436 H 0.06524 0.89023 0.65063 0.0
H437 H 0.0851 0.9702 0.68151 0.0
H438 H 0.09648 0.96472 0.64994 0.0
H439 H 0.10929 0.93017 0.71257 0.0
H440 H 0.12692 0.89332 0.72736 0.0
H441 H 0.03741 0.89835 0.71902 0.0
H442 H 0.05492 0.86199 0.73381 0.0
H443 H 0.01887 0.91684 0.69433 0.0
H444 H 0.05389 0.98162 0.7174 0.0
H445 H 0.97955 0.93739 0.69667 0.0
H446 H 0.01478 0.00343 0.7184 0.0
H447 H 0.86365 0.03109 0.68082 0.0
H448 H 0.85569 0.04253 0.64935 0.0
H449 H 0.93217 0.05824 0.64183 0.0
H450 H 0.93996 0.04769 0.67327 0.0
H451 H 0.93601 0.07304 0.70017 0.0
H452 H 0.92588 0.11303 0.71443 0.0
H453 H 0.85844 0.08111 0.73392 0.0
H454 H 0.8689 0.04109 0.71973 0.0
H455 H 0.92096 0.99174 0.67881 0.0
H456 H 0.95788 0.96754 0.68203 0.0
H457 H 0.97584 0.00911 0.73009 0.0
N458 N 0.90629 0.0318 0.69805 0.0
H459 H 0.93964 0.03451 0.7262 0.0
C460 C 0.06898 0.93348 0.68419 0.0
C461 C 0.06336 0.91095 0.67523 0.0
C462 C 0.06977 0.90775 0.65722 0.0
C463 C 0.08176 0.92702 0.6478 0.0
C464 C 0.08701 0.94963 0.65675 0.0
C465 C 0.08066 0.95277 0.67477 0.0
C466 C 0.07206 0.9173 0.7145 0.0
C467 C 0.09727 0.91559 0.71751 0.0
C468 C 0.10732 0.89451 0.72583 0.0
C469 C 0.09227 0.87479 0.73161 0.0
C470 C 0.06691 0.87702 0.72956 0.0
C471 C 0.05687 0.89795 0.72097 0.0
C472 C 0.0394 0.94753 0.70606 0.0
C473 C 0.01808 0.93539 0.70018 0.0
C474 C 0.99553 0.94746 0.70123 0.0
C475 C 0.99379 0.97236 0.7075 0.0
C476 C 0.01513 0.98418 0.71377 0.0
C477 C 0.0376 0.9718 0.71314 0.0
C478 C 0.90236 0.03808 0.67935 0.0
C479 C 0.87865 0.03699 0.67235 0.0
C480 C 0.87413 0.04361 0.6545 0.0
C481 C 0.89339 0.05104 0.64328 0.0
C482 C 0.91711 0.05232 0.65024 0.0
C483 C 0.92153 0.04629 0.66818 0.0
C484 C 0.90311 0.05404 0.70891 0.0
C485 C 0.91927 0.07453 0.70778 0.0
C486 C 0.91338 0.09741 0.71586 0.0
C487 C 0.89124 0.10033 0.72516 0.0
C488 C 0.87574 0.07945 0.72702 0.0
C489 C 0.88165 0.05657 0.71893 0.0
C490 C 0.92796 0.01654 0.70132 0.0
C491 C 0.93302 0.99614 0.68988 0.0
C492 C 0.9541 0.98183 0.69197 0.0
C493 C 0.97033 0.98652 0.70618 0.0
C494 C 0.96434 0.00552 0.71857 0.0
C495 C 0.94342 0.02024 0.71626 0.0
C496 C 0.26754 0.67037 0.98437 0.0
O497 O 0.27632 0.67347 0.96811 0.0
O498 O 0.33027 0.6571 0.01929 0.0
Zn499 Zn 0.31835 0.6755 0.99735 0.0
O500 O 0.33366 0.65882 0.97584 0.0
C501 C 0.32595 0.72888 0.00811 0.0
O502 O 0.31315 0.7241 0.02263 0.0
O503 O 0.28183 0.67156 0.99776 0.0
C504 C 0.35682 0.65809 0.97646 0.0
O505 O 0.36789 0.66739 0.99061 0.0
C506 C 0.34512 0.66409 0.03139 0.0
O507 O 0.35514 0.68645 0.03045 0.0
O508 O 0.32937 0.7116 0.99663 0.0
C509 C 0.28449 0.83628 0.247 0.0
O510 O 0.29382 0.85132 0.23482 0.0
O511 O 0.34267 0.83708 0.22791 0.0
Zn512 Zn 0.33506 0.8266 0.25326 0.0
O513 O 0.34778 0.85193 0.27091 0.0
C514 C 0.37518 0.79418 0.25414 0.0
O515 O 0.38563 0.81574 0.25037 0.0
O516 O 0.29875 0.82305 0.25656 0.0
C517 C 0.34883 0.84611 0.28743 0.0
O518 O 0.34154 0.82369 0.29248 0.0
C519 C 0.35603 0.85568 0.22373 0.0
O520 O 0.36487 0.87007 0.23648 0.0
O521 O 0.35232 0.79373 0.25694 0.0
C522 C 0.22046 0.85602 0.52159 0.0
O523 O 0.20687 0.87421 0.52806 0.0
O524 O 0.15703 0.85318 0.53198 0.0
Zn525 Zn 0.17375 0.83733 0.51051 0.0
O526 O 0.16655 0.85815 0.48853 0.0
C527 C 0.14686 0.79131 0.51703 0.0
O528 O 0.13813 0.804 0.53072 0.0
O529 O 0.21018 0.83754 0.51392 0.0
C530 C 0.15466 0.85059 0.47494 0.0
O531 O 0.1465 0.82741 0.47454 0.0
C532 C 0.1486 0.87539 0.53106 0.0
O533 O 0.15104 0.88809 0.51606 0.0
O534 O 0.16229 0.8017 0.5067 0.0
C535 C 0.21439 0.63067 0.74144 0.0
O536 O 0.19846 0.61577 0.73371 0.0
O537 O 0.15394 0.64338 0.72928 0.0
Zn538 Zn 0.17043 0.65502 0.75195 0.0
O539 O 0.1585 0.63375 0.77256 0.0
C540 C 0.16546 0.70841 0.7449 0.0
O541 O 0.17691 0.70285 0.72992 0.0
O542 O 0.20675 0.64986 0.74992 0.0
C543 C 0.14266 0.64167 0.78366 0.0
O544 O 0.13382 0.66443 0.78175 0.0
C545 C 0.13201 0.63572 0.72965 0.0
O546 O 0.12001 0.63608 0.74491 0.0
O547 O 0.16158 0.6912 0.75635 0.0
C548 C 0.78187 0.15062 0.50595 0.0
O549 O 0.78395 0.14914 0.52348 0.0
O550 O 0.8417 0.14285 0.52741 0.0
Zn551 Zn 0.83434 0.16291 0.50507 0.0
O552 O 0.8559 0.1508 0.48512 0.0
C553 C 0.82566 0.21682 0.51135 0.0
O554 O 0.80238 0.21113 0.51211 0.0
O555 O 0.80024 0.15677 0.49654 0.0
C556 C 0.87726 0.15877 0.48179 0.0
O557 O 0.88672 0.17651 0.49186 0.0
C558 C 0.85022 0.12079 0.52561 0.0
O559 O 0.85313 0.11157 0.5094 0.0
O560 O 0.84127 0.19955 0.50885 0.0
C561 C 0.773 0.33054 0.75929 0.0
O562 O 0.77896 0.31966 0.7745 0.0
O563 O 0.8453 0.34115 0.73364 0.0
Zn564 Zn 0.82433 0.32485 0.75246 0.0
O565 O 0.83327 0.33969 0.77633 0.0
C566 C 0.84136 0.27618 0.74066 0.0
O567 O 0.84919 0.28925 0.72685 0.0
O568 O 0.78933 0.33375 0.7474 0.0
C569 C 0.85414 0.33618 0.78326 0.0
O570 O 0.87008 0.3221 0.77477 0.0
C571 C 0.84574 0.36495 0.73256 0.0
O572 O 0.83256 0.37821 0.74384 0.0
O573 O 0.82975 0.28732 0.7531 0.0
C574 C 0.71631 0.34688 0.00716 0.0
O575 O 0.70567 0.36771 0.01245 0.0
O576 O 0.66121 0.34307 0.03302 0.0
Zn577 Zn 0.66699 0.33173 0.00759 0.0
O578 O 0.65434 0.35744 0.99008 0.0
C579 C 0.62678 0.29897 0.00947 0.0
O580 O 0.61681 0.32035 0.01431 0.0
O581 O 0.70317 0.32772 0.00397 0.0
C582 C 0.64601 0.35124 0.9748 0.0
O583 O 0.64534 0.32738 0.97035 0.0
C584 C 0.64756 0.36132 0.03744 0.0
O585 O 0.63709 0.37479 0.02484 0.0
O586 O 0.64912 0.29879 0.0049 0.0
C587 C 0.71854 0.1508 0.26251 0.0
O588 O 0.70347 0.13367 0.25635 0.0
O589 O 0.66755 0.17154 0.23574 0.0
Zn590 Zn 0.67507 0.18015 0.26157 0.0
O591 O 0.65331 0.16114 0.27864 0.0
C592 C 0.67303 0.23427 0.25514 0.0
O593 O 0.68385 0.22894 0.23987 0.0
O594 O 0.71037 0.17252 0.26618 0.0
C595 C 0.63105 0.16778 0.27898 0.0
O596 O 0.6236 0.18516 0.26772 0.0
C597 C 0.65425 0.15313 0.23103 0.0
O598 O 0.6442 0.13892 0.2434 0.0
O599 O 0.66838 0.21668 0.26613 0.0
H600 H 0.15679 0.90363 0.24926 0.0
H601 H 0.14007 0.85764 0.29577 0.0
H602 H 0.17518 0.83059 0.28891 0.0
H603 H 0.18426 0.85203 0.22045 0.0
H604 H 0.20723 0.87318 0.21204 0.0
H605 H 0.17738 0.8849 0.21775 0.0
H606 H 0.1971 0.91746 0.23912 0.0
H607 H 0.22688 0.90576 0.23365 0.0
H608 H 0.21708 0.90674 0.25675 0.0
H609 H 0.21622 0.81393 0.2809 0.0
H610 H 0.25923 0.80859 0.27191 0.0
H611 H 0.2501 0.86611 0.23117 0.0
C612 C 0.16009 0.88744 0.2577 0.0
C613 C 0.14552 0.88275 0.27299 0.0
C614 C 0.15055 0.86139 0.28374 0.0
C615 C 0.17059 0.84592 0.28 0.0
C616 C 0.18533 0.85189 0.26537 0.0
C617 C 0.18014 0.87197 0.25424 0.0
C618 C 0.20052 0.87645 0.24091 0.0
C619 C 0.19182 0.87133 0.22164 0.0
C620 C 0.21101 0.90317 0.24274 0.0
C621 C 0.21862 0.85678 0.247 0.0
C622 C 0.20931 0.8424 0.26084 0.0
C623 C 0.22352 0.82466 0.26979 0.0
C624 C 0.24797 0.82184 0.26464 0.0
C625 C 0.25802 0.83689 0.25081 0.0
C626 C 0.2429 0.8541 0.24164 0.0
H627 H 0.08668 0.66086 0.54347 0.0
H628 H 0.11619 0.62957 0.49424 0.0
H629 H 0.13171 0.67157 0.48579 0.0
H630 H 0.06817 0.72169 0.52456 0.0
H631 H 0.07636 0.73831 0.54475 0.0
H632 H 0.0661 0.70622 0.54603 0.0
H633 H 0.10569 0.69422 0.56298 0.0
H634 H 0.11618 0.72615 0.5616 0.0
H635 H 0.13484 0.70108 0.55292 0.0
H636 H 0.1465 0.71661 0.48395 0.0
H637 H 0.15841 0.76093 0.48848 0.0
H638 H 0.11821 0.76214 0.5387 0.0
C639 C 0.09576 0.66287 0.53064 0.0
C640 C 0.10002 0.64191 0.51944 0.0
C641 C 0.11277 0.64533 0.50307 0.0
C642 C 0.12155 0.66913 0.49812 0.0
C643 C 0.11733 0.68929 0.50966 0.0
C644 C 0.10456 0.68639 0.52551 0.0
C645 C 0.10341 0.71065 0.53602 0.0
C646 C 0.07694 0.71975 0.53794 0.0
C647 C 0.11577 0.70784 0.55446 0.0
C648 C 0.1179 0.72764 0.52376 0.0
C649 C 0.12571 0.71506 0.50858 0.0
C650 C 0.14026 0.72671 0.49569 0.0
C651 C 0.14699 0.75185 0.49842 0.0
C652 C 0.13919 0.76503 0.51393 0.0
C653 C 0.12433 0.75269 0.52664 0.0
H654 H 0.34979 0.63173 0.77951 0.0
H655 H 0.3637 0.56514 0.74756 0.0
H656 H 0.3227 0.56894 0.734 0.0
H657 H 0.28898 0.61836 0.78949 0.0
H658 H 0.27861 0.65043 0.78827 0.0
H659 H 0.30974 0.64377 0.79416 0.0
H660 H 0.32476 0.67195 0.76802 0.0
H661 H 0.29362 0.67877 0.76206 0.0
H662 H 0.31414 0.66595 0.74553 0.0
H663 H 0.27926 0.57846 0.72553 0.0
H664 H 0.23649 0.59238 0.72315 0.0
H665 H 0.25131 0.65302 0.76053 0.0
C666 C 0.34447 0.61829 0.76933 0.0
C667 C 0.36 0.59824 0.76447 0.0
C668 C 0.35205 0.5806 0.75151 0.0
C669 C 0.32888 0.5827 0.74367 0.0
C670 C 0.31394 0.60257 0.74891 0.0
C671 C 0.32145 0.62009 0.76142 0.0
C672 C 0.30142 0.63876 0.76558 0.0
C673 C 0.29427 0.63775 0.78556 0.0
C674 C 0.30894 0.66544 0.75996 0.0
C675 C 0.28126 0.62874 0.75372 0.0
C676 C 0.28891 0.608 0.74409 0.0
C677 C 0.27315 0.59483 0.73286 0.0
C678 C 0.24887 0.60287 0.73163 0.0
C679 C 0.24054 0.62384 0.74161 0.0
C680 C 0.25714 0.6371 0.75258 0.0
H681 H 0.39023 0.85357 0.04215 0.0
H682 H 0.42908 0.85499 0.99148 0.0
H683 H 0.40253 0.82099 0.98002 0.0
H684 H 0.38687 0.7897 0.04548 0.0
H685 H 0.35703 0.78827 0.05557 0.0
H686 H 0.37563 0.81573 0.05856 0.0
H687 H 0.34123 0.84369 0.04562 0.0
H688 H 0.32234 0.81629 0.04274 0.0
H689 H 0.32857 0.83653 0.02389 0.0
H690 H 0.37565 0.78361 0.97564 0.0
H691 H 0.35093 0.74521 0.97856 0.0
H692 H 0.33006 0.76744 0.03251 0.0
C693 C 0.39246 0.8474 0.02839 0.0
C694 C 0.41135 0.85716 0.01753 0.0
C695 C 0.4145 0.8479 -0.00012 0.0
C696 C 0.39948 0.82868 0.99328 0.0
C697 C 0.38146 0.81893 0.00453 0.0
C698 C 0.37782 0.82806 0.02169 0.0
C699 C 0.35919 0.81248 0.0318 0.0
C700 C 0.37036 0.80086 0.04885 0.0
C701 C 0.33648 0.82819 0.03627 0.0
C702 C 0.35353 0.79262 0.01787 0.0
C703 C 0.36626 0.79694 0.00214 0.0
C704 C 0.3653 0.78025 0.98778 0.0
C705 C 0.35126 0.75842 0.98961 0.0
C706 C 0.33847 0.75331 0.00576 0.0
C707 C 0.33933 0.77094 0.01992 0.0
H708 H 0.13491 0.62618 0.95415 0.0
H709 H 0.1241 0.59922 0.00848 0.0
H710 H 0.16351 0.61823 0.01748 0.0
H711 H 0.19725 0.61213 0.95214 0.0
H712 H 0.20546 0.63903 0.93875 0.0
H713 H 0.17524 0.62609 0.93719 0.0
H714 H 0.15678 0.6695 0.94504 0.0
H715 H 0.18699 0.68262 0.94659 0.0
H716 H 0.16625 0.6853 0.96528 0.0
H717 H 0.20481 0.63835 0.02005 0.0
H718 H 0.2462 0.65529 0.01579 0.0
H719 H 0.23087 0.66737 0.95924 0.0
C720 C 0.14062 0.62484 0.96804 0.0
C721 C 0.12641 0.61167 0.98075 0.0
C722 C 0.13473 0.60946 0.99864 0.0
C723 C 0.15698 0.62026 0.00385 0.0
C724 C 0.1707 0.63295 0.99093 0.0
C725 C 0.1629 0.63515 0.97336 0.0
C726 C 0.18198 0.64777 0.96173 0.0
C727 C 0.19048 0.6302 0.94657 0.0
C728 C 0.17242 0.67279 0.95422 0.0
C729 C 0.20193 0.65199 0.97543 0.0
C730 C 0.1949 0.64369 0.99224 0.0
C731 C 0.21046 0.64502 0.00696 0.0
C732 C 0.23396 0.65471 0.00439 0.0
C733 C 0.24185 0.66266 0.98716 0.0
C734 C 0.22541 0.66154 0.97258 0.0
H735 H 0.38926 0.64644 0.24885 0.0
H736 H 0.45199 0.66054 0.21449 0.0
H737 H 0.45129 0.70478 0.22328 0.0
H738 H 0.35789 0.69854 0.23424 0.0
H739 H 0.34348 0.70547 0.25542 0.0
H740 H 0.35226 0.67379 0.25023 0.0
H741 H 0.37798 0.67182 0.27937 0.0
H742 H 0.36924 0.70359 0.28468 0.0
H743 H 0.40104 0.69527 0.28339 0.0
H744 H 0.44113 0.74833 0.23247 0.0
H745 H 0.42027 0.78813 0.23933 0.0
H746 H 0.36132 0.74684 0.26468 0.0
C747 C 0.40307 0.6586 0.24321 0.0
C748 C 0.42084 0.64946 0.23104 0.0
C749 C 0.43859 0.66643 0.22427 0.0
C750 C 0.43829 0.69184 0.2291 0.0
C751 C 0.41999 0.70025 0.24056 0.0
C752 C 0.40259 0.68418 0.24744 0.0
C753 C 0.38281 0.6985 0.25729 0.0
C754 C 0.35764 0.6938 0.24878 0.0
C755 C 0.38278 0.6919 0.27738 0.0
C756 C 0.39132 0.7252 0.25423 0.0
C757 C 0.4132 0.72572 0.24503 0.0
C758 C 0.42414 0.74818 0.23986 0.0
C759 C 0.41212 0.7707 0.24382 0.0
C760 C 0.38915 0.77057 0.25251 0.0
C761 C 0.37891 0.74752 0.25809 0.0
H762 H 0.33701 0.93915 0.51008 0.0
H763 H 0.36951 0.8761 0.48215 0.0
H764 H 0.33766 0.84819 0.49434 0.0
H765 H 0.31142 0.90215 0.54997 0.0
H766 H 0.28441 0.92142 0.5501 0.0
H767 H 0.3133 0.93471 0.54351 0.0
H768 H 0.29419 0.94924 0.51344 0.0
H769 H 0.26546 0.93585 0.5198 0.0
H770 H 0.27977 0.9264 0.49907 0.0
H771 H 0.29774 0.82965 0.50344 0.0
H772 H 0.25413 0.8219 0.50943 0.0
H773 H 0.2472 0.89711 0.5312 0.0
C774 C 0.33789 0.91928 0.50707 0.0
C775 C 0.35574 0.90977 0.49523 0.0
C776 C 0.35626 0.88373 0.49145 0.0
C777 C 0.33817 0.86773 0.49829 0.0
C778 C 0.31994 0.87801 0.50908 0.0
C779 C 0.31993 0.90316 0.51371 0.0
C780 C 0.29661 0.91041 0.52326 0.0
C781 C 0.30175 0.91759 0.54288 0.0
C782 C 0.28323 0.93171 0.51329 0.0
C783 C 0.28276 0.88591 0.52213 0.0
C784 C 0.29672 0.86726 0.51433 0.0
C785 C 0.28686 0.84389 0.51001 0.0
C786 C 0.26202 0.8397 0.51338 0.0
C787 C 0.24727 0.85888 0.52084 0.0
C788 C 0.25806 0.88194 0.52576 0.0
H789 H 0.12856 0.8473 0.71617 0.0
H790 H 0.07952 0.8485 0.76182 0.0
H791 H 0.09562 0.8073 0.77171 0.0
H792 H 0.12113 0.78356 0.70631 0.0
H793 H 0.15227 0.77836 0.69951 0.0
H794 H 0.13894 0.80905 0.69726 0.0
H795 H 0.17386 0.82809 0.71632 0.0
H796 H 0.18736 0.79742 0.7186 0.0
H797 H 0.18005 0.81552 0.73833 0.0
H798 H 0.11546 0.76504 0.77554 0.0
H799 H 0.13584 0.724 0.77235 0.0
H800 H 0.17106 0.75006 0.72355 0.0
C801 C 0.12166 0.83915 0.72849 0.0
C802 C 0.10306 0.85114 0.7384 0.0
C803 C 0.09387 0.83959 0.75412 0.0
C804 C 0.10297 0.8163 0.75985 0.0
C805 C 0.12115 0.80482 0.74964 0.0
C806 C 0.13034 0.81584 0.73426 0.0
C807 C 0.1484 0.79877 0.72491 0.0
C808 C 0.13965 0.79204 0.70588 0.0
C809 C 0.17393 0.81066 0.72453 0.0
C810 C 0.14764 0.77621 0.73726 0.0
C811 C 0.13208 0.78021 0.75158 0.0
C812 C 0.12781 0.76176 0.76446 0.0
C813 C 0.1395 0.7385 0.76252 0.0
C814 C 0.15507 0.73378 0.74769 0.0
C815 C 0.15936 0.75308 0.73507 0.0
H816 H 0.64998 0.3886 0.79597 0.0
H817 H 0.64709 0.43304 0.74727 0.0
H818 H 0.68057 0.40764 0.73437 0.0
H819 H 0.71192 0.3866 0.79886 0.0
H820 H 0.71419 0.35508 0.80751 0.0
H821 H 0.68706 0.37314 0.81145 0.0
H822 H 0.66082 0.33813 0.79697 0.0
H823 H 0.68794 0.31979 0.79309 0.0
H824 H 0.66796 0.32731 0.77465 0.0
H825 H 0.71763 0.38132 0.72851 0.0
H826 H 0.75597 0.35726 0.73042 0.0
H827 H 0.73517 0.33063 0.78335 0.0
C828 C 0.65577 0.39231 0.78232 0.0
C829 C 0.64575 0.41246 0.77247 0.0
C830 C 0.65444 0.4175 0.75494 0.0
C831 C 0.67335 0.40311 0.7475 0.0
C832 C 0.68334 0.3838 0.75778 0.0
C833 C 0.67478 0.37832 0.7748 0.0
C834 C 0.69049 0.35875 0.78394 0.0
C835 C 0.70157 0.36902 0.80146 0.0
C836 C 0.67593 0.33455 0.78736 0.0
C837 C 0.70979 0.35478 0.7697 0.0
C838 C 0.70509 0.369 0.75457 0.0
C839 C 0.72129 0.36979 0.74016 0.0
C840 C 0.74306 0.35608 0.7414 0.0
C841 C 0.74858 0.342 0.75702 0.0
C842 C 0.7314 0.34097 0.77114 0.0
H843 H 0.60978 0.15081 0.00988 0.0
H844 H 0.55146 0.16333 0.04853 0.0
H845 H 0.55293 0.20828 0.04209 0.0
H846 H 0.64455 0.20072 0.0252 0.0
H847 H 0.65678 0.20923 0.00357 0.0
H848 H 0.64768 0.17736 0.00784 0.0
H849 H 0.6188 0.17871 0.98033 0.0
H850 H 0.62787 0.21067 0.97594 0.0
H851 H 0.59608 0.20307 0.97879 0.0
H852 H 0.56332 0.25235 0.03426 0.0
H853 H 0.58393 0.29227 0.02739 0.0
H854 H 0.63882 0.25198 0.99681 0.0
C855 C 0.59712 0.16276 0.017 0.0
C856 C 0.58029 0.15289 0.02964 0.0
C857 C 0.56403 0.16974 0.03833 0.0
C858 C 0.56482 0.19558 0.03488 0.0
C859 C 0.58217 0.20457 0.02287 0.0
C860 C 0.59816 0.18872 0.01415 0.0
C861 C 0.61721 0.20343 0.00378 0.0
C862 C 0.64308 0.19732 0.01051 0.0
C863 C 0.61484 0.19869 0.98351 0.0
C864 C 0.60987 0.23003 0.00855 0.0
C865 C 0.5892 0.23024 0.01916 0.0
C866 C 0.57939 0.25246 0.02583 0.0
C867 C 0.59126 0.27506 0.02184 0.0
C868 C 0.61302 0.27526 0.01158 0.0
C869 C 0.62218 0.25243 0.00464 0.0
H870 H 0.83353 0.06132 0.27416 0.0
H871 H 0.87519 0.1274 0.28901 0.0
H872 H 0.84012 0.15424 0.28121 0.0
H873 H 0.79834 0.0907 0.23705 0.0
H874 H 0.77113 0.07346 0.24274 0.0
H875 H 0.80069 0.05991 0.24694 0.0
H876 H 0.78905 0.05361 0.28037 0.0
H877 H 0.75962 0.06738 0.27635 0.0
H878 H 0.77923 0.08024 0.29344 0.0
H879 H 0.79895 0.1733 0.27565 0.0
H880 H 0.75549 0.18339 0.27091 0.0
H881 H 0.74062 0.10481 0.25997 0.0
C882 C 0.83544 0.08148 0.27545 0.0
C883 C 0.85717 0.09225 0.28211 0.0
C884 C 0.85892 0.11872 0.28362 0.0
C885 C 0.83902 0.13412 0.27933 0.0
C886 C 0.81758 0.12279 0.27343 0.0
C887 C 0.81577 0.09709 0.27126 0.0
C888 C 0.79022 0.08945 0.26588 0.0
C889 C 0.79009 0.07769 0.24703 0.0
C890 C 0.77887 0.07162 0.27985 0.0
C891 C 0.77774 0.11478 0.26592 0.0
C892 C 0.79386 0.1338 0.27018 0.0
C893 C 0.78623 0.15862 0.27203 0.0
C894 C 0.76149 0.16414 0.26941 0.0
C895 C 0.74467 0.14491 0.26501 0.0
C896 C 0.75304 0.11997 0.26315 0.0
H897 H 0.9259 0.32259 0.52223 0.0
H898 H 0.86936 0.37114 0.54347 0.0
H899 H 0.83815 0.34005 0.53465 0.0
H900 H 0.88956 0.29473 0.48475 0.0
H901 H 0.90334 0.26436 0.48803 0.0
H902 H 0.92043 0.29246 0.49287 0.0
H903 H 0.92843 0.27624 0.52515 0.0
H904 H 0.91119 0.2483 0.52051 0.0
H905 H 0.90293 0.26796 0.53925 0.0
H906 H 0.81385 0.30093 0.52742 0.0
H907 H 0.79871 0.25787 0.52178 0.0
H908 H 0.8717 0.23493 0.50636 0.0
C909 C 0.9069 0.32694 0.52468 0.0
C910 C 0.90006 0.34931 0.53349 0.0
C911 C 0.87501 0.35432 0.53646 0.0
C912 C 0.85716 0.3367 0.53157 0.0
C913 C 0.86467 0.31431 0.5236 0.0
C914 C 0.88896 0.30955 0.51999 0.0
C915 C 0.89266 0.28321 0.51294 0.0
C916 C 0.90205 0.28373 0.49349 0.0
C917 C 0.9098 0.26805 0.5252 0.0
C918 C 0.86681 0.27349 0.51385 0.0
C919 C 0.85081 0.29176 0.51973 0.0
C920 C 0.82617 0.28659 0.52255 0.0
C921 C 0.81775 0.26208 0.51936 0.0
C922 C 0.83402 0.24303 0.51366 0.0
C923 C 0.85876 0.24904 0.51068 0.0
H924 H 0.64266 0.10637 0.49739 0.0
H925 H 0.65592 0.09932 0.44014 0.0
H926 H 0.69829 0.11328 0.44451 0.0
H927 H 0.67862 0.16181 0.50421 0.0
H928 H 0.69041 0.15213 0.52571 0.0
H929 H 0.66102 0.14113 0.51834 0.0
H930 H 0.67504 0.09507 0.52262 0.0
H931 H 0.70442 0.10593 0.53012 0.0
H932 H 0.70236 0.08432 0.51156 0.0
H933 H 0.73823 0.12941 0.45452 0.0
H934 H 0.77513 0.14405 0.47001 0.0
H935 H 0.73713 0.13997 0.52115 0.0
C936 C 0.65456 0.10769 0.48583 0.0
C937 C 0.6461 0.10156 0.46845 0.0
C938 C 0.66216 0.10348 0.45361 0.0
C939 C 0.68619 0.11158 0.45593 0.0
C940 C 0.69394 0.1176 0.47317 0.0
C941 C 0.67878 0.11556 0.48792 0.0
C942 C 0.69198 0.12302 0.505 0.0
C943 C 0.67978 0.14588 0.51383 0.0
C944 C 0.69354 0.10075 0.51809 0.0
C945 C 0.71685 0.12969 0.49747 0.0
C946 C 0.71742 0.12656 0.47906 0.0
C947 C 0.73811 0.13182 0.46895 0.0
C948 C 0.75896 0.14022 0.4779 0.0
C949 C 0.75908 0.14311 0.49682 0.0
C950 C 0.73764 0.13787 0.50669 0.0
H951 H 0.89558 0.1453 0.70768 0.0
H952 H 0.86858 0.11206 0.75704 0.0
H953 H 0.85301 0.15355 0.76661 0.0
H954 H 0.91486 0.20476 0.72708 0.0
H955 H 0.9057 0.22255 0.70764 0.0
H956 H 0.91537 0.19043 0.70516 0.0
H957 H 0.87459 0.17986 0.6893 0.0
H958 H 0.8647 0.21188 0.69187 0.0
H959 H 0.8462 0.18664 0.7005 0.0
H960 H 0.83932 0.19867 0.77026 0.0
H961 H 0.82939 0.24382 0.768 0.0
H962 H 0.8658 0.24706 0.71626 0.0
C963 C 0.88684 0.14679 0.72068 0.0
C964 C 0.88342 0.12544 0.73166 0.0
C965 C 0.87129 0.12814 0.74836 0.0
C966 C 0.86247 0.15162 0.75393 0.0
C967 C 0.86592 0.17221 0.74265 0.0
C968 C 0.87792 0.17001 0.72641 0.0
C969 C 0.87878 0.19484 0.71655 0.0
C970 C 0.90525 0.20366 0.71396 0.0
C971 C 0.86526 0.19319 0.69849 0.0
C972 C 0.86529 0.21137 0.72973 0.0
C973 C 0.85802 0.19802 0.74471 0.0
C974 C 0.845 0.20932 0.75861 0.0
C975 C 0.83941 0.23497 0.75718 0.0
C976 C 0.84681 0.24901 0.74196 0.0
C977 C 0.85988 0.23691 0.72809 0.0
H978 H 0.84893 0.4057 0.99661 0.0
H979 H 0.87366 0.33217 0.97925 0.0
H980 H 0.83332 0.31449 0.98649 0.0
H981 H 0.8082 0.38394 0.03297 0.0
H982 H 0.78573 0.40767 0.02812 0.0
H983 H 0.81751 0.41379 0.02384 0.0
H984 H 0.80733 0.42456 0.99075 0.0
H985 H 0.77559 0.4183 0.99486 0.0
H986 H 0.79136 0.40188 0.97717 0.0
H987 H 0.78897 0.30572 0.99244 0.0
H988 H 0.74449 0.30637 0.99772 0.0
H989 H 0.74863 0.38576 0.01059 0.0
C990 C 0.846 0.38581 0.99455 0.0
C991 C 0.86461 0.37034 0.98746 0.0
C992 C 0.85995 0.34437 0.98502 0.0
C993 C 0.837 0.33415 0.98897 0.0
C994 C 0.81889 0.35009 0.99544 0.0
C995 C 0.8232 0.37532 0.99837 0.0
C996 C 0.80024 0.38873 0.00432 0.0
C997 C 0.8031 0.39914 0.02345 0.0
C998 C 0.79322 0.40959 0.99097 0.0
C999 C 0.7822 0.36724 0.0038 0.0
C1000 C 0.79333 0.34505 0.9988 0.0
C1001 C 0.78011 0.32291 0.99659 0.0
C1002 C 0.75484 0.32349 -0.00044 0.0
C1003 C 0.74307 0.34608 0.00462 0.0
C1004 C 0.75707 0.36813 0.00687 0.0
H1005 H 0.61773 0.36346 0.22416 0.0
H1006 H 0.57757 0.36419 0.27425 0.0
H1007 H 0.60376 0.33001 0.28583 0.0
H1008 H 0.61937 0.30112 0.21978 0.0
H1009 H 0.64935 0.29859 0.21004 0.0
H1010 H 0.63223 0.32706 0.20744 0.0
H1011 H 0.66751 0.35269 0.22151 0.0
H1012 H 0.68501 0.32424 0.22396 0.0
H1013 H 0.6793 0.34389 0.24321 0.0
H1014 H 0.62883 0.29135 0.28968 0.0
H1015 H 0.65017 0.25107 0.28553 0.0
H1016 H 0.67333 0.27481 0.23244 0.0
C1017 C 0.61528 0.35728 0.2379 0.0
C1018 C 0.59601 0.36674 0.24849 0.0
C1019 C 0.59249 0.35737 0.26607 0.0
C1020 C 0.60733 0.33804 0.27274 0.0
C1021 C 0.62555 0.32836 0.26165 0.0
C1022 C 0.62971 0.33782 0.24463 0.0
C1023 C 0.64777 0.32181 0.23436 0.0
C1024 C 0.63649 0.31154 0.21689 0.0
C1025 C 0.6713 0.33654 0.23054 0.0
C1026 C 0.65217 0.3011 0.24788 0.0
C1027 C 0.63966 0.30554 0.26369 0.0
C1028 C 0.63911 0.28794 0.27752 0.0
C1029 C 0.65122 0.26504 0.27499 0.0
C1030 C 0.66348 0.25979 0.25866 0.0
C1031 C 0.66443 0.27838 0.24516 0.0
H1032 H 0.10619 0.89086 0.37828 0.0
H1033 H 0.12975 0.96685 0.39032 0.0
H1034 H 0.14454 0.95263 0.41995 0.0
H1035 H 0.08432 0.87643 0.4229 0.0
H1036 H 0.09417 0.84418 0.42187 0.0
H1037 H 0.08571 0.86043 0.4016 0.0
H1038 H 0.12781 0.84985 0.38771 0.0
H1039 H 0.13645 0.83369 0.40796 0.0
H1040 H 0.1552 0.85881 0.39945 0.0
H1041 H 0.1571 0.9299 0.44814 0.0
H1042 H 0.16566 0.90068 0.47307 0.0
H1043 H 0.13253 0.83995 0.44279 0.0
C1044 C 0.11412 0.90466 0.3872 0.0
C1045 C 0.11677 0.93002 0.38193 0.0
C1046 C 0.12778 0.94727 0.39394 0.0
C1047 C 0.13611 0.9394 0.41084 0.0
C1048 C 0.13321 0.91426 0.41555 0.0
C1049 C 0.12238 0.89718 0.40411 0.0
C1050 C 0.12135 0.87125 0.41239 0.0
C1051 C 0.09481 0.86257 0.41484 0.0
C1052 C 0.13609 0.85229 0.40121 0.0
C1053 C 0.13342 0.87635 0.43028 0.0
C1054 C 0.14017 0.90126 0.43183 0.0
C1055 C 0.15183 0.91038 0.4471 0.0
C1056 C 0.15664 0.89361 0.46117 0.0
C1057 C 0.14974 0.86801 0.4599 0.0
C1058 C 0.13799 0.85938 0.44421 0.0
H1059 H 0.12363 0.59943 0.62603 0.0
H1060 H 0.05569 0.56116 0.63829 0.0
H1061 H 0.05891 0.575 0.66979 0.0
H1062 H 0.15395 0.58262 0.66696 0.0
H1063 H 0.1699 0.6121 0.6688 0.0
H1064 H 0.16162 0.60014 0.64703 0.0
H1065 H 0.13868 0.64157 0.64011 0.0
H1066 H 0.1468 0.65362 0.6619 0.0
H1067 H 0.11524 0.65229 0.65526 0.0
H1068 H 0.0697 0.59271 0.70003 0.0
H1069 H 0.08815 0.61151 0.72709 0.0
H1070 H 0.14992 0.63648 0.69526 0.0
C1071 C 0.1095 0.59373 0.63533 0.0
C1072 C 0.08933 0.57928 0.62959 0.0
C1073 C 0.07109 0.5726 0.64223 0.0
C1074 C 0.07282 0.58025 0.66019 0.0
C1075 C 0.09294 0.59446 0.66535 0.0
C1076 C 0.11102 0.60102 0.65331 0.0
C1077 C 0.1311 0.61582 0.66238 0.0
C1078 C 0.15559 0.60183 0.66123 0.0
C1079 C 0.13306 0.6424 0.65444 0.0
C1080 C 0.12154 0.61645 0.68143 0.0
C1081 C 0.09942 0.6042 0.68283 0.0
C1082 C 0.08703 0.60234 0.6991 0.0
C1083 C 0.09764 0.61312 0.71439 0.0
C1084 C 0.1205 0.62542 0.7133 0.0
C1085 C 0.13247 0.62716 0.69655 0.0
H1086 H 0.38246 0.61228 0.87604 0.0
H1087 H 0.45941 0.61232 0.88954 0.0
H1088 H 0.44925 0.62387 0.92077 0.0
H1089 H 0.36628 0.66512 0.90233 0.0
H1090 H 0.33709 0.65288 0.90919 0.0
H1091 H 0.35025 0.64323 0.88815 0.0
H1092 H 0.34692 0.59663 0.89783 0.0
H1093 H 0.3337 0.60614 0.91892 0.0
H1094 H 0.36057 0.58667 0.91867 0.0
H1095 H 0.43105 0.63689 0.95 0.0
H1096 H 0.40605 0.65126 0.97547 0.0
H1097 H 0.34066 0.6427 0.94319 0.0
C1098 C 0.39713 0.61434 0.88565 0.0
C1099 C 0.42174 0.61139 0.8804 0.0
C1100 C 0.44046 0.61472 0.89326 0.0
C1101 C 0.43486 0.62112 0.91103 0.0
C1102 C 0.41045 0.62409 0.91573 0.0
C1103 C 0.39187 0.62081 0.90344 0.0
C1104 C 0.36722 0.62614 0.91182 0.0
C1105 C 0.35447 0.64815 0.90231 0.0
C1106 C 0.35116 0.60248 0.91181 0.0
C1107 C 0.37489 0.63319 0.9307 0.0
C1108 C 0.3999 0.63172 0.93266 0.0
C1109 C 0.41143 0.63798 0.94868 0.0
C1110 C 0.39705 0.64616 0.96306 0.0
C1111 C 0.37138 0.64808 0.96135 0.0
C1112 C 0.3602 0.64127 0.94496 0.0
H1113 H 0.43686 0.91133 0.14395 0.0
H1114 H 0.40766 0.85181 0.11055 0.0
H1115 H 0.38039 0.83879 0.13524 0.0
H1116 H 0.43832 0.87604 0.1842 0.0
H1117 H 0.42991 0.90181 0.1986 0.0
H1118 H 0.44566 0.90782 0.17784 0.0
H1119 H 0.41099 0.93785 0.16796 0.0
H1120 H 0.3951 0.93188 0.18871 0.0
H1121 H 0.37999 0.92661 0.16756 0.0
H1122 H 0.35769 0.83112 0.16365 0.0
H1123 H 0.34241 0.82769 0.19466 0.0
H1124 H 0.38685 0.89165 0.21009 0.0
C1125 C 0.42447 0.89579 0.14182 0.0
C1126 C 0.42428 0.88253 0.12541 0.0
C1127 C 0.40815 0.86204 0.12312 0.0
C1128 C 0.3925 0.85464 0.13699 0.0
C1129 C 0.39325 0.86792 0.15308 0.0
C1130 C 0.40887 0.88798 0.15562 0.0
C1131 C 0.40709 0.89799 0.17462 0.0
C1132 C 0.43171 0.89577 0.18439 0.0
C1133 C 0.39773 0.9252 0.17471 0.0
C1134 C 0.38835 0.88015 0.1824 0.0
C1135 C 0.3804 0.86318 0.16966 0.0
C1136 C 0.36366 0.84438 0.17374 0.0
C1137 C 0.3551 0.84259 0.19141 0.0
C1138 C 0.36344 0.85939 0.20483 0.0
C1139 C 0.38003 0.87862 0.20013 0.0
H1140 H 0.07088 0.60948 0.87364 0.0
H1141 H 0.10279 0.53499 0.87153 0.0
H1142 H 0.12285 0.54581 0.8428 0.0
H1143 H 0.05972 0.61595 0.82547 0.0
H1144 H 0.06722 0.6489 0.82547 0.0
H1145 H 0.05441 0.63462 0.84527 0.0
H1146 H 0.09123 0.65038 0.86394 0.0
H1147 H 0.10424 0.66452 0.84419 0.0
H1148 H 0.12171 0.64217 0.85702 0.0
H1149 H 0.14096 0.56565 0.81506 0.0
H1150 H 0.15515 0.59264 0.79018 0.0
H1151 H 0.1108 0.65385 0.81058 0.0
C1152 C 0.08163 0.59522 0.86695 0.0
C1153 C 0.08517 0.57134 0.87477 0.0
C1154 C 0.09994 0.55345 0.86581 0.0
C1155 C 0.1113 0.55939 0.84947 0.0
C1156 C 0.10766 0.58325 0.84228 0.0
C1157 C 0.09308 0.60083 0.85069 0.0
C1158 C 0.09281 0.62543 0.84055 0.0
C1159 C 0.06701 0.63157 0.83379 0.0
C1160 C 0.10312 0.64688 0.85212 0.0
C1161 C 0.10973 0.61906 0.82518 0.0
C1162 C 0.11806 0.59464 0.82637 0.0
C1163 C 0.13441 0.58475 0.81392 0.0
C1164 C 0.14241 0.60025 0.79987 0.0
C1165 C 0.13405 0.62535 0.79841 0.0
C1166 C 0.11745 0.63473 0.81125 0.0
H1167 H 0.39942 0.62306 0.12663 0.0
H1168 H 0.36379 0.55112 0.11878 0.0
H1169 H 0.34926 0.56515 0.08907 0.0
H1170 H 0.35334 0.66045 0.10632 0.0
H1171 H 0.37427 0.68218 0.09598 0.0
H1172 H 0.3827 0.66623 0.11637 0.0
H1173 H 0.42161 0.64908 0.10091 0.0
H1174 H 0.41333 0.66504 0.08047 0.0
H1175 H 0.41887 0.63169 0.08024 0.0
H1176 H 0.3377 0.58712 0.0608 0.0
H1177 H 0.32962 0.61572 0.03553 0.0
H1178 H 0.37301 0.67355 0.06143 0.0
C1179 C 0.38884 0.61015 0.11855 0.0
C1180 C 0.38269 0.586 0.12502 0.0
C1181 C 0.36847 0.5698 0.11417 0.0
C1182 C 0.36026 0.57753 0.09725 0.0
C1183 C 0.36646 0.60151 0.09135 0.0
C1184 C 0.38044 0.61759 0.10162 0.0
C1185 C 0.38396 0.64262 0.09228 0.0
C1186 C 0.3729 0.66414 0.1034 0.0
C1187 C 0.41105 0.64738 0.08824 0.0
C1188 C 0.36961 0.63814 0.07521 0.0
C1189 C 0.35976 0.61426 0.07495 0.0
C1190 C 0.3454 0.60583 0.0608 0.0
C1191 C 0.34089 0.62227 0.04651 0.0
C1192 C 0.35069 0.64691 0.04646 0.0
C1193 C 0.36534 0.65482 0.06101 0.0
H1194 H 0.38179 0.89572 0.3854 0.0
H1195 H 0.40226 0.96668 0.36103 0.0
H1196 H 0.3924 0.9495 0.33107 0.0
H1197 H 0.40604 0.8557 0.35031 0.0
H1198 H 0.38151 0.83331 0.35206 0.0
H1199 H 0.39066 0.85114 0.37146 0.0
H1200 H 0.34633 0.86711 0.37533 0.0
H1201 H 0.33707 0.8494 0.35591 0.0
H1202 H 0.33147 0.88272 0.35686 0.0
H1203 H 0.3797 0.92465 0.30383 0.0
H1204 H 0.36499 0.89409 0.28137 0.0
H1205 H 0.3532 0.83942 0.32376 0.0
C1206 C 0.38453 0.90755 0.37375 0.0
C1207 C 0.39284 0.93253 0.37554 0.0
C1208 C 0.3957 0.94756 0.35998 0.0
C1209 C 0.39028 0.93793 0.34291 0.0
C1210 C 0.38202 0.91326 0.34165 0.0
C1211 C 0.37919 0.89827 0.35665 0.0
C1212 C 0.36959 0.87255 0.35171 0.0
C1213 C 0.38806 0.85196 0.35668 0.0
C1214 C 0.34463 0.86767 0.36047 0.0
C1215 C 0.36735 0.87543 0.33157 0.0
C1216 C 0.37466 0.89901 0.32601 0.0
C1217 C 0.37399 0.9061 0.30802 0.0
C1218 C 0.36559 0.88862 0.29537 0.0
C1219 C 0.35794 0.86436 0.3008 0.0
C1220 C 0.35893 0.85778 0.31916 0.0
H1221 H 0.10257 0.88528 0.63256 0.0
H1222 H 0.07794 0.96077 0.62017 0.0
H1223 H 0.09172 0.95543 0.58883 0.0
H1224 H 0.15612 0.88663 0.60575 0.0
H1225 H 0.1537 0.85442 0.59855 0.0
H1226 H 0.14118 0.86383 0.61986 0.0
H1227 H 0.09895 0.84638 0.61052 0.0
H1228 H 0.11136 0.83683 0.58919 0.0
H1229 H 0.08509 0.85712 0.58996 0.0
H1230 H 0.10898 0.94229 0.55914 0.0
H1231 H 0.12851 0.92227 0.53299 0.0
H1232 H 0.14158 0.85511 0.56464 0.0
C1233 C 0.09975 0.90056 0.62319 0.0
C1234 C 0.08917 0.92345 0.6288 0.0
C1235 C 0.08623 0.94317 0.61621 0.0
C1236 C 0.09387 0.94026 0.59837 0.0
C1237 C 0.10438 0.91753 0.59333 0.0
C1238 C 0.10729 0.89799 0.60535 0.0
C1239 C 0.11963 0.87569 0.59658 0.0
C1240 C 0.14411 0.86981 0.60573 0.0
C1241 C 0.10275 0.85264 0.59656 0.0
C1242 C 0.12335 0.88582 0.57779 0.0
C1243 C 0.11436 0.90995 0.57619 0.0
C1244 C 0.116 0.92336 0.5602 0.0
C1245 C 0.12716 0.91182 0.54542 0.0
C1246 C 0.13657 0.88711 0.54674 0.0
C1247 C 0.13453 0.87399 0.56317 0.0
H1248 H 0.59976 0.40379 0.88053 0.0
H1249 H 0.61395 0.47878 0.90066 0.0
H1250 H 0.62503 0.46097 0.93024 0.0
H1251 H 0.57451 0.37774 0.92214 0.0
H1252 H 0.58874 0.34761 0.91878 0.0
H1253 H 0.58019 0.36646 0.89971 0.0
H1254 H 0.62457 0.36439 0.88784 0.0
H1255 H 0.63327 0.34565 0.90689 0.0
H1256 H 0.64922 0.37448 0.90212 0.0
H1257 H 0.63627 0.43483 0.9571 0.0
H1258 H 0.6477 0.4023 0.97915 0.0
H1259 H 0.62664 0.34434 0.9412 0.0
C1260 C 0.60472 0.41648 0.89128 0.0
C1261 C 0.60586 0.44266 0.88839 0.0
C1262 C 0.61304 0.45865 0.90263 0.0
C1263 C 0.61924 0.44873 0.91946 0.0
C1264 C 0.61821 0.42279 0.9218 0.0
C1265 C 0.61112 0.40688 0.9081 0.0
C1266 C 0.61282 0.37964 0.91379 0.0
C1267 C 0.58756 0.36713 0.91359 0.0
C1268 C 0.63106 0.3652 0.90196 0.0
C1269 C 0.62226 0.38269 0.93275 0.0
C1270 C 0.62504 0.40772 0.93717 0.0
C1271 C 0.63404 0.41517 0.95383 0.0
C1272 C 0.6405 0.39654 0.96625 0.0
C1273 C 0.63808 0.37075 0.96191 0.0
C1274 C 0.62866 0.36386 0.94496 0.0
H1275 H 0.59904 0.08049 0.14642 0.0
H1276 H 0.65042 0.12162 0.11331 0.0
H1277 H 0.66552 0.14395 0.14017 0.0
H1278 H 0.58454 0.1311 0.17693 0.0
H1279 H 0.58287 0.11103 0.19638 0.0
H1280 H 0.57572 0.09867 0.17449 0.0
H1281 H 0.6081 0.06375 0.17873 0.0
H1282 H 0.61532 0.07597 0.20063 0.0
H1283 H 0.63905 0.0723 0.18409 0.0
H1284 H 0.67469 0.16207 0.17048 0.0
H1285 H 0.67894 0.1732 0.20249 0.0
H1286 H 0.62234 0.11941 0.21606 0.0
C1287 C 0.61336 0.09431 0.14485 0.0
C1288 C 0.6236 0.09937 0.12783 0.0
C1289 C 0.64252 0.11734 0.12628 0.0
C1290 C 0.6511 0.1302 0.14142 0.0
C1291 C 0.64066 0.12476 0.15802 0.0
C1292 C 0.62232 0.10714 0.15987 0.0
C1293 C 0.61474 0.10431 0.17932 0.0
C1294 C 0.58787 0.11173 0.18192 0.0
C1295 C 0.6196 0.07749 0.18609 0.0
C1296 C 0.63168 0.12309 0.18811 0.0
C1297 C 0.64634 0.13482 0.17557 0.0
C1298 C 0.66335 0.15299 0.18044 0.0
C1299 C 0.66559 0.15921 0.19865 0.0
C1300 C 0.65103 0.14713 0.21179 0.0
C1301 C 0.63381 0.12891 0.20636 0.0
H1302 H 0.89523 0.07106 0.39656 0.0
H1303 H 0.96221 0.11134 0.38522 0.0
H1304 H 0.95701 0.13579 0.41322 0.0
H1305 H 0.86246 0.12264 0.41296 0.0
H1306 H 0.84645 0.10525 0.43005 0.0
H1307 H 0.85659 0.0896 0.40998 0.0
H1308 H 0.88041 0.05726 0.42919 0.0
H1309 H 0.87022 0.07273 0.44935 0.0
H1310 H 0.90234 0.06819 0.44543 0.0
H1311 H 0.94314 0.15724 0.44183 0.0
H1312 H 0.92151 0.17417 0.46837 0.0
H1313 H 0.86371 0.11962 0.46036 0.0
C1314 C 0.9091 0.08461 0.40017 0.0
C1315 C 0.92921 0.08921 0.38882 0.0
C1316 C 0.94663 0.1076 0.39374 0.0
C1317 C 0.94389 0.12147 0.40964 0.0
C1318 C 0.92363 0.11669 0.42042 0.0
C1319 C 0.90658 0.09866 0.41589 0.0
C1320 C 0.88577 0.09801 0.42918 0.0
C1321 C 0.86139 0.10426 0.41999 0.0
C1322 C 0.88463 0.07254 0.43886 0.0
C1323 C 0.89359 0.11872 0.44179 0.0
C1324 C 0.91555 0.12918 0.43664 0.0
C1325 C 0.926 0.14908 0.44606 0.0
C1326 C 0.91359 0.15858 0.46109 0.0
C1327 C 0.89092 0.14825 0.46643 0.0
C1328 C 0.881 0.12796 0.45666 0.0
H1329 H 0.93 0.37152 0.64554 0.0
H1330 H 0.91709 0.45182 0.64453 0.0
H1331 H 0.89414 0.44856 0.67307 0.0
H1332 H 0.87183 0.35466 0.66099 0.0
H1333 H 0.88214 0.32909 0.6749 0.0
H1334 H 0.89948 0.33811 0.65542 0.0
H1335 H 0.93787 0.34432 0.67521 0.0
H1336 H 0.92066 0.33517 0.69476 0.0
H1337 H 0.93639 0.36488 0.6944 0.0
H1338 H 0.87083 0.43607 0.70078 0.0
H1339 H 0.84816 0.4153 0.72528 0.0
H1340 H 0.87582 0.34299 0.70768 0.0
C1341 C 0.92282 0.38848 0.65156 0.0
C1342 C 0.92548 0.41197 0.64298 0.0
C1343 C 0.91523 0.43367 0.65095 0.0
C1344 C 0.90228 0.432 0.66715 0.0
C1345 C 0.8997 0.40848 0.67514 0.0
C1346 C 0.90969 0.38711 0.66761 0.0
C1347 C 0.90299 0.36388 0.67824 0.0
C1348 C 0.88823 0.34536 0.6667 0.0
C1349 C 0.92584 0.35133 0.68612 0.0
C1350 C 0.88741 0.37547 0.6928 0.0
C1351 C 0.88591 0.40123 0.69089 0.0
C1352 C 0.872 0.41592 0.70248 0.0
C1353 C 0.85916 0.40395 0.71635 0.0
C1354 C 0.8602 0.37752 0.71841 0.0
C1355 C 0.87469 0.36322 0.70651 0.0
H1356 H 0.59612 0.09738 0.36975 0.0
H1357 H 0.5272 0.13708 0.36798 0.0
H1358 H 0.53741 0.15323 0.33773 0.0
H1359 H 0.63062 0.14535 0.35067 0.0
H1360 H 0.65074 0.12513 0.33814 0.0
H1361 H 0.63663 0.11388 0.3584 0.0
H1362 H 0.6184 0.07617 0.34099 0.0
H1363 H 0.63256 0.08728 0.32064 0.0
H1364 H 0.60015 0.08183 0.32128 0.0
H1365 H 0.55639 0.16756 0.30898 0.0
H1366 H 0.5834 0.18078 0.28427 0.0
H1367 H 0.64074 0.13278 0.30518 0.0
C1368 C 0.58295 0.10893 0.36274 0.0
C1369 C 0.56075 0.11579 0.37098 0.0
C1370 C 0.54423 0.13157 0.36176 0.0
C1371 C 0.54983 0.1407 0.34459 0.0
C1372 C 0.57208 0.13395 0.33692 0.0
C1373 C 0.5884 0.11845 0.3457 0.0
C1374 C 0.61199 0.11595 0.33526 0.0
C1375 C 0.63377 0.12567 0.34627 0.0
C1376 C 0.616 0.08869 0.32918 0.0
C1377 C 0.60659 0.13292 0.31944 0.0
C1378 C 0.58333 0.14278 0.32052 0.0
C1379 C 0.57455 0.15978 0.30788 0.0
C1380 C 0.59007 0.1672 0.2939 0.0
C1381 C 0.6142 0.15782 0.29277 0.0
C1382 C 0.62236 0.14016 0.3056 0.0
H1383 H 0.86263 0.08676 0.6298 0.0
H1384 H 0.91447 0.0294 0.61412 0.0
H1385 H 0.9077 0.03992 0.58213 0.0
H1386 H 0.82056 0.07929 0.59253 0.0
H1387 H 0.8149 0.11249 0.59034 0.0
H1388 H 0.82272 0.09944 0.61191 0.0
H1389 H 0.85883 0.13061 0.6145 0.0
H1390 H 0.85112 0.14374 0.59296 0.0
H1391 H 0.88137 0.13175 0.5969 0.0
H1392 H 0.89526 0.0565 0.55211 0.0
H1393 H 0.88032 0.08008 0.52583 0.0
H1394 H 0.83824 0.12851 0.56104 0.0
C1395 C 0.87231 0.07631 0.61956 0.0
C1396 C 0.8889 0.05716 0.62425 0.0
C1397 C 0.90167 0.04411 0.61065 0.0
C1398 C 0.89788 0.0499 0.59252 0.0
C1399 C 0.88147 0.06897 0.58829 0.0
C1400 C 0.86905 0.08216 0.6014 0.0
C1401 C 0.85346 0.10269 0.59326 0.0
C1402 C 0.8263 0.0982 0.59725 0.0
C1403 C 0.8617 0.12874 0.59979 0.0
C1404 C 0.85908 0.09898 0.57352 0.0
C1405 C 0.87505 0.07924 0.57096 0.0
C1406 C 0.88279 0.07204 0.55393 0.0
C1407 C 0.87415 0.08551 0.53909 0.0
C1408 C 0.85819 0.10617 0.5414 0.0
C1409 C 0.85053 0.11289 0.55887 0.0
H1410 H 0.93539 0.36419 0.86995 0.0
H1411 H 0.87759 0.4138 0.88802 0.0
H1412 H 0.85464 0.4052 0.86023 0.0
H1413 H 0.93168 0.38013 0.8226 0.0
H1414 H 0.93751 0.34846 0.81524 0.0
H1415 H 0.94991 0.35938 0.83623 0.0
H1416 H 0.92917 0.32229 0.85279 0.0
H1417 H 0.91665 0.3113 0.83188 0.0
H1418 H 0.89674 0.31777 0.85058 0.0
H1419 H 0.83709 0.38978 0.83126 0.0
H1420 H 0.82668 0.3696 0.80247 0.0
H1421 H 0.89582 0.32987 0.8032 0.0
C1422 C 0.91793 0.37327 0.86804 0.0
C1423 C 0.90835 0.38978 0.88112 0.0
C1424 C 0.88549 0.40142 0.87806 0.0
C1425 C 0.87224 0.39653 0.86238 0.0
C1426 C 0.8821 0.38001 0.84985 0.0
C1427 C 0.90447 0.36864 0.85244 0.0
C1428 C 0.91075 0.35134 0.83697 0.0
C1429 C 0.93383 0.36038 0.82718 0.0
C1430 C 0.91348 0.32406 0.84345 0.0
C1431 C 0.88829 0.35456 0.82539 0.0
C1432 C 0.87201 0.37119 0.83306 0.0
C1433 C 0.84975 0.37683 0.82506 0.0
C1434 C 0.84398 0.36522 0.80872 0.0
C1435 C 0.86044 0.34818 0.80055 0.0
C1436 C 0.88289 0.34287 0.80905 0.0
H1437 H 0.56955 0.41503 0.11929 0.0
H1438 H 0.6046 0.35883 0.15258 0.0
H1439 H 0.63109 0.34683 0.12715 0.0
H1440 H 0.56757 0.3783 0.07994 0.0
H1441 H 0.57332 0.40395 0.06473 0.0
H1442 H 0.55877 0.4098 0.08597 0.0
H1443 H 0.59218 0.44238 0.09387 0.0
H1444 H 0.60687 0.43659 0.07262 0.0
H1445 H 0.6238 0.43318 0.09321 0.0
H1446 H 0.65211 0.33942 0.09798 0.0
H1447 H 0.6651 0.33554 0.06643 0.0
H1448 H 0.61589 0.39601 0.05169 0.0
C1449 C 0.5831 0.4005 0.12124 0.0
C1450 C 0.58515 0.38786 0.13783 0.0
C1451 C 0.60272 0.3686 0.13989 0.0
C1452 C 0.61792 0.36179 0.1256 0.0
C1453 C 0.61528 0.3744 0.10933 0.0
C1454 C 0.59827 0.39329 0.10703 0.0
C1455 C 0.59804 0.4026 0.08781 0.0
C1456 C 0.57294 0.3984 0.0791 0.0
C1457 C 0.60568 0.43033 0.08683 0.0
C1458 C 0.61725 0.38568 0.07962 0.0
C1459 C 0.62717 0.3698 0.09233 0.0
C1460 C 0.64462 0.35187 0.08791 0.0
C1461 C 0.65187 0.34981 0.06994 0.0
C1462 C 0.64153 0.36547 0.05657 0.0
C1463 C 0.62426 0.38387 0.06159 0.0
loop_
_geom_bond_atom_site_label_1
_geom_bond_atom_site_label_2
_geom_bond_distance
_geom_bond_site_symmetry_2
_ccdc_geom_bond_type
H0 C27 0.929 . S
N1 C26 1.433 . S
N1 C32 1.435 . S
N1 C38 1.423 . S
H2 C28 0.930 . S
H3 C31 0.931 . S
H4 C30 0.929 . S
H5 C33 0.930 . S
H6 C34 0.932 . S
H7 C37 0.929 . S
H8 C36 0.931 . S
H9 C39 0.929 . S
H10 C43 0.932 . S
H11 C40 0.931 . S
H12 C42 0.929 . S
H13 C45 0.929 . S
H14 C46 0.930 . S
H15 C48 0.929 . S
H16 C49 0.931 . S
H17 C51 0.930 . S
H18 C52 0.932 . S
H19 C54 0.931 . S
H20 C55 0.929 . S
H21 C57 0.929 . S
H22 C58 0.931 1_455 S
H23 C60 0.929 . S
N24 C44 1.433 . S
N24 C50 1.435 . S
N24 C56 1.423 . S
H25 C61 0.932 . S
C26 N1 1.433 . S
C26 C27 1.363 . S
C26 C31 1.370 . S
C27 H0 0.929 . S
C27 C26 1.363 . S
C27 C28 1.385 . S
C28 H2 0.930 . S
C28 C27 1.385 . S
C28 C29 1.357 . S
C29 C28 1.357 . S
C29 C30 1.406 . S
C30 H4 0.929 . S
C30 C29 1.406 . S
C30 C31 1.391 . S
C31 H3 0.931 . S
C31 C26 1.370 . S
C31 C30 1.391 . S
C32 N1 1.435 . S
C32 C33 1.358 . S
C32 C37 1.371 . S
C33 H5 0.930 . S
C33 C32 1.358 . S
C33 C34 1.405 . S
C34 H6 0.932 . S
C34 C33 1.405 . S
C34 C35 1.383 . S
C35 C34 1.383 . S
C35 C36 1.393 . S
C36 H8 0.931 . S
C36 C35 1.393 . S
C36 C37 1.382 . S
C37 H7 0.929 . S
C37 C32 1.371 . S
C37 C36 1.382 . S
C38 N1 1.423 . S
C38 C39 1.362 . S
C38 C43 1.388 . S
C39 H9 0.929 . S
C39 C38 1.362 . S
C39 C40 1.376 1_565 S
C40 H11 0.931 . S
C40 C39 1.376 1_545 S
C40 C41 1.396 . S
C41 C40 1.396 . S
C41 C42 1.348 1_545 S
C41 C59 1.473 1_455 S
C42 H12 0.929 . S
C42 C41 1.348 1_565 S
C42 C43 1.443 . S
C43 H10 0.932 . S
C43 C38 1.388 . S
C43 C42 1.443 . S
C44 N24 1.433 . S
C44 C45 1.363 . S
C44 C49 1.370 . S
C45 H13 0.929 . S
C45 C44 1.363 . S
C45 C46 1.385 . S
C46 H14 0.930 . S
C46 C45 1.385 . S
C46 C47 1.357 . S
C47 C46 1.357 . S
C47 C48 1.406 . S
C48 H15 0.929 . S
C48 C47 1.406 . S
C48 C49 1.391 . S
C49 H16 0.931 . S
C49 C44 1.370 . S
C49 C48 1.391 . S
C50 N24 1.435 . S
C50 C51 1.358 . S
C50 C55 1.371 . S
C51 H17 0.930 . S
C51 C50 1.358 . S
C51 C52 1.405 . S
C52 H18 0.932 . S
C52 C51 1.405 . S
C52 C53 1.383 . S
C53 C52 1.383 . S
C53 C54 1.393 . S
C54 H19 0.931 . S
C54 C53 1.393 . S
C54 C55 1.382 . S
C55 H20 0.929 . S
C55 C50 1.371 . S
C55 C54 1.382 . S
C56 N24 1.423 . S
C56 C57 1.362 . S
C56 C61 1.388 . S
C57 H21 0.929 . S
C57 C56 1.362 . S
C57 C58 1.376 . S
C58 H22 0.931 1_655 S
C58 C57 1.376 . S
C58 C59 1.396 . S
C59 C41 1.473 1_655 S
C59 C58 1.396 . S
C59 C60 1.347 . S
C60 H23 0.929 . S
C60 C59 1.347 . S
C60 C61 1.443 . S
C61 H25 0.932 . S
C61 C56 1.388 . S
C61 C60 1.443 . S
H62 C89 0.929 . S
N63 C88 1.433 . S
N63 C94 1.435 . S
N63 C100 1.423 . S
H64 C90 0.930 . S
H65 C93 0.931 . S
H66 C92 0.929 . S
H67 C95 0.930 . S
H68 C96 0.932 . S
H69 C99 0.929 . S
H70 C98 0.931 . S
H71 C101 0.929 . S
H72 C105 0.932 . S
H73 C102 0.931 . S
H74 C104 0.929 . S
H75 C107 0.929 . S
H76 C108 0.930 . S
H77 C110 0.929 . S
H78 C111 0.931 . S
H79 C113 0.930 . S
H80 C114 0.932 . S
H81 C116 0.931 . S
H82 C117 0.929 . S
H83 C119 0.929 . S
H84 C120 0.931 . S
H85 C122 0.929 . S
N86 C106 1.433 . S
N86 C112 1.435 . S
N86 C118 1.423 . S
H87 C123 0.932 . S
C88 N63 1.433 . S
C88 C89 1.363 . S
C88 C93 1.370 . S
C89 H62 0.929 . S
C89 C88 1.363 . S
C89 C90 1.385 . S
C90 H64 0.930 . S
C90 C89 1.385 . S
C90 C91 1.357 . S
C91 C90 1.357 . S
C91 C92 1.406 . S
C92 H66 0.929 . S
C92 C91 1.406 . S
C92 C93 1.391 . S
C93 H65 0.931 . S
C93 C88 1.370 . S
C93 C92 1.391 . S
C94 N63 1.435 . S
C94 C95 1.358 . S
C94 C99 1.371 . S
C95 H67 0.930 . S
C95 C94 1.358 . S
C95 C96 1.405 . S
C96 H68 0.932 . S
C96 C95 1.405 . S
C96 C97 1.383 . S
C97 C96 1.383 . S
C97 C98 1.393 . S
C98 H70 0.931 . S
C98 C97 1.393 . S
C98 C99 1.382 . S
C99 H69 0.929 . S
C99 C94 1.371 . S
C99 C98 1.382 . S
C100 N63 1.423 . S
C100 C101 1.362 . S
C100 C105 1.388 . S
C101 H71 0.929 . S
C101 C100 1.362 . S
C101 C102 1.376 1_655 S
C102 H73 0.931 . S
C102 C101 1.376 1_455 S
C102 C103 1.396 . S
C103 C102 1.396 . S
C103 C104 1.348 1_455 S
C103 C121 1.472 . S
C104 H74 0.929 . S
C104 C103 1.348 1_655 S
C104 C105 1.443 . S
C105 H72 0.932 . S
C105 C100 1.388 . S
C105 C104 1.443 . S
C106 N86 1.433 . S
C106 C107 1.363 . S
C106 C111 1.370 . S
C107 H75 0.929 . S
C107 C106 1.363 . S
C107 C108 1.385 . S
C108 H76 0.930 . S
C108 C107 1.385 . S
C108 C109 1.357 . S
C109 C108 1.357 . S
C109 C110 1.406 . S
C110 H77 0.929 . S
C110 C109 1.406 . S
C110 C111 1.391 . S
C111 H78 0.931 . S
C111 C106 1.370 . S
C111 C110 1.391 . S
C112 N86 1.435 . S
C112 C113 1.358 . S
C112 C117 1.371 . S
C113 H79 0.930 . S
C113 C112 1.358 . S
C113 C114 1.405 . S
C114 H80 0.932 . S
C114 C113 1.405 . S
C114 C115 1.383 . S
C115 C114 1.383 . S
C115 C116 1.393 . S
C116 H81 0.931 . S
C116 C115 1.393 . S
C116 C117 1.382 . S
C117 H82 0.929 . S
C117 C112 1.371 . S
C117 C116 1.382 . S
C118 N86 1.423 . S
C118 C119 1.362 . S
C118 C123 1.388 . S
C119 H83 0.929 . S
C119 C118 1.362 . S
C119 C120 1.376 . S
C120 H84 0.931 . S
C120 C119 1.376 . S
C120 C121 1.396 . S
C121 C103 1.472 . S
C121 C120 1.396 . S
C121 C122 1.348 . S
C122 H85 0.929 . S
C122 C121 1.348 . S
C122 C123 1.443 . S
C123 H87 0.932 . S
C123 C118 1.388 . S
C123 C122 1.443 . S
H124 C151 0.929 . S
N125 C150 1.433 . S
N125 C156 1.435 . S
N125 C162 1.423 . S
H126 C152 0.930 . S
H127 C155 0.931 . S
H128 C154 0.929 . S
H129 C157 0.930 . S
H130 C158 0.932 . S
H131 C161 0.929 . S
H132 C160 0.931 . S
H133 C163 0.929 . S
H134 C167 0.932 . S
H135 C164 0.931 . S
H136 C166 0.929 . S
H137 C169 0.929 . S
H138 C170 0.930 . S
H139 C172 0.929 . S
H140 C173 0.931 . S
H141 C175 0.930 . S
H142 C176 0.932 . S
H143 C178 0.931 . S
H144 C179 0.929 . S
H145 C181 0.929 . S
H146 C182 0.931 . S
H147 C184 0.929 . S
N148 C168 1.433 . S
N148 C174 1.435 . S
N148 C180 1.423 . S
H149 C185 0.932 . S
C150 N125 1.433 . S
C150 C151 1.363 . S
C150 C155 1.370 . S
C151 H124 0.929 . S
C151 C150 1.363 . S
C151 C152 1.385 . S
C152 H126 0.930 . S
C152 C151 1.385 . S
C152 C153 1.357 . S
C153 C152 1.357 . S
C153 C154 1.406 . S
C154 H128 0.929 . S
C154 C153 1.406 . S
C154 C155 1.391 . S
C155 H127 0.931 . S
C155 C150 1.370 . S
C155 C154 1.391 . S
C156 N125 1.435 . S
C156 C157 1.358 . S
C156 C161 1.371 . S
C157 H129 0.930 . S
C157 C156 1.358 . S
C157 C158 1.405 . S
C158 H130 0.932 . S
C158 C157 1.405 . S
C158 C159 1.383 . S
C159 C158 1.383 . S
C159 C160 1.393 . S
C160 H132 0.931 . S
C160 C159 1.393 . S
C160 C161 1.382 . S
C161 H131 0.929 . S
C161 C156 1.371 . S
C161 C160 1.382 . S
C162 N125 1.423 . S
C162 C163 1.362 . S
C162 C167 1.388 . S
C163 H133 0.929 . S
C163 C162 1.362 . S
C163 C164 1.376 . S
C164 H135 0.931 . S
C164 C163 1.376 . S
C164 C165 1.396 . S
C165 C164 1.396 . S
C165 C166 1.348 . S
C165 C183 1.472 . S
C166 H136 0.929 . S
C166 C165 1.348 . S
C166 C167 1.443 . S
C167 H134 0.932 . S
C167 C162 1.388 . S
C167 C166 1.443 . S
C168 N148 1.433 . S
C168 C169 1.363 . S
C168 C173 1.370 . S
C169 H137 0.929 . S
C169 C168 1.363 . S
C169 C170 1.385 . S
C170 H138 0.930 . S
C170 C169 1.385 . S
C170 C171 1.357 . S
C171 C170 1.357 . S
C171 C172 1.406 . S
C172 H139 0.929 . S
C172 C171 1.406 . S
C172 C173 1.391 . S
C173 H140 0.931 . S
C173 C168 1.370 . S
C173 C172 1.391 . S
C174 N148 1.435 . S
C174 C175 1.358 . S
C174 C179 1.371 . S
C175 H141 0.930 . S
C175 C174 1.358 . S
C175 C176 1.405 . S
C176 H142 0.932 . S
C176 C175 1.405 . S
C176 C177 1.383 . S
C177 C176 1.383 . S
C177 C178 1.393 . S
C178 H143 0.931 . S
C178 C177 1.393 . S
C178 C179 1.382 . S
C179 H144 0.929 . S
C179 C174 1.371 . S
C179 C178 1.382 . S
C180 N148 1.423 . S
C180 C181 1.362 . S
C180 C185 1.388 . S
C181 H145 0.929 . S
C181 C180 1.362 . S
C181 C182 1.376 . S
C182 H146 0.931 . S
C182 C181 1.376 . S
C182 C183 1.396 . S
C183 C165 1.472 . S
C183 C182 1.396 . S
C183 C184 1.348 . S
C184 H147 0.929 . S
C184 C183 1.348 . S
C184 C185 1.443 . S
C185 H149 0.932 . S
C185 C180 1.388 . S
C185 C184 1.443 . S
H186 C213 0.929 . S
N187 C212 1.433 . S
N187 C218 1.435 . S
N187 C224 1.423 . S
H188 C214 0.930 . S
H189 C217 0.931 . S
H190 C216 0.929 . S
H191 C219 0.930 . S
H192 C220 0.932 . S
H193 C223 0.929 . S
H194 C222 0.931 . S
H195 C225 0.929 . S
H196 C229 0.932 . S
H197 C226 0.931 . S
H198 C228 0.929 . S
H199 C231 0.929 . S
H200 C232 0.930 . S
H201 C234 0.929 . S
H202 C235 0.931 . S
H203 C237 0.930 . S
H204 C238 0.932 . S
H205 C240 0.931 . S
H206 C241 0.929 . S
H207 C243 0.929 . S
H208 C244 0.931 1_565 S
H209 C246 0.929 . S
N210 C230 1.433 . S
N210 C236 1.435 . S
N210 C242 1.423 . S
H211 C247 0.932 . S
C212 N187 1.433 . S
C212 C213 1.363 . S
C212 C217 1.370 . S
C213 H186 0.929 . S
C213 C212 1.363 . S
C213 C214 1.385 . S
C214 H188 0.930 . S
C214 C213 1.385 . S
C214 C215 1.357 . S
C215 C214 1.357 . S
C215 C216 1.406 . S
C216 H190 0.929 . S
C216 C215 1.406 . S
C216 C217 1.391 . S
C217 H189 0.931 . S
C217 C212 1.370 . S
C217 C216 1.391 . S
C218 N187 1.435 . S
C218 C219 1.358 . S
C218 C223 1.371 . S
C219 H191 0.930 . S
C219 C218 1.358 . S
C219 C220 1.405 . S
C220 H192 0.932 . S
C220 C219 1.405 . S
C220 C221 1.383 . S
C221 C220 1.383 . S
C221 C222 1.393 . S
C222 H194 0.931 . S
C222 C221 1.393 . S
C222 C223 1.382 . S
C223 H193 0.929 . S
C223 C218 1.371 . S
C223 C222 1.382 . S
C224 N187 1.423 . S
C224 C225 1.362 . S
C224 C229 1.388 . S
C225 H195 0.929 . S
C225 C224 1.362 . S
C225 C226 1.376 . S
C226 H197 0.931 . S
C226 C225 1.376 . S
C226 C227 1.396 . S
C227 C226 1.396 . S
C227 C228 1.348 . S
C227 C245 1.489 . S
C228 H198 0.929 . S
C228 C227 1.348 . S
C228 C229 1.443 . S
C229 H196 0.932 . S
C229 C224 1.388 . S
C229 C228 1.443 . S
C230 N210 1.433 . S
C230 C231 1.363 . S
C230 C235 1.370 . S
C231 H199 0.929 . S
C231 C230 1.363 . S
C231 C232 1.385 . S
C232 H200 0.930 . S
C232 C231 1.385 . S
C232 C233 1.357 . S
C233 C232 1.357 . S
C233 C234 1.406 . S
C234 H201 0.929 . S
C234 C233 1.406 . S
C234 C235 1.391 . S
C235 H202 0.931 . S
C235 C230 1.370 . S
C235 C234 1.391 . S
C236 N210 1.435 . S
C236 C237 1.358 . S
C236 C241 1.371 . S
C237 H203 0.930 . S
C237 C236 1.358 . S
C237 C238 1.405 . S
C238 H204 0.932 . S
C238 C237 1.405 . S
C238 C239 1.383 . S
C239 C238 1.383 . S
C239 C240 1.393 . S
C240 H205 0.931 . S
C240 C239 1.393 . S
C240 C241 1.382 . S
C241 H206 0.929 . S
C241 C236 1.371 . S
C241 C240 1.382 . S
C242 N210 1.423 . S
C242 C243 1.362 . S
C242 C247 1.388 . S
C243 H207 0.929 . S
C243 C242 1.362 . S
C243 C244 1.376 . S
C244 H208 0.931 1_545 S
C244 C243 1.376 . S
C244 C245 1.394 1_545 S
C245 C227 1.489 . S
C245 C244 1.394 1_565 S
C245 C246 1.332 1_565 S
C246 H209 0.929 . S
C246 C245 1.332 1_545 S
C246 C247 1.443 . S
C247 H211 0.932 . S
C247 C242 1.388 . S
C247 C246 1.443 . S
H248 C275 0.929 . S
N249 C274 1.433 . S
N249 C280 1.435 . S
N249 C286 1.423 . S
H250 C276 0.930 . S
H251 C279 0.931 . S
H252 C278 0.929 . S
H253 C281 0.930 . S
H254 C282 0.932 . S
H255 C285 0.929 . S
H256 C284 0.931 . S
H257 C287 0.929 . S
H258 C291 0.932 . S
H259 C288 0.931 . S
H260 C290 0.929 . S
H261 C293 0.929 . S
H262 C294 0.930 . S
H263 C296 0.929 . S
H264 C297 0.931 . S
H265 C299 0.930 . S
H266 C300 0.932 . S
H267 C302 0.931 . S
H268 C303 0.929 . S
H269 C305 0.929 . S
H270 C306 0.931 1_455 S
H271 C308 0.929 . S
N272 C292 1.433 . S
N272 C298 1.435 . S
N272 C304 1.423 . S
H273 C309 0.932 . S
C274 N249 1.433 . S
C274 C275 1.363 . S
C274 C279 1.370 . S
C275 H248 0.929 . S
C275 C274 1.363 . S
C275 C276 1.385 . S
C276 H250 0.930 . S
C276 C275 1.385 . S
C276 C277 1.357 . S
C277 C276 1.357 . S
C277 C278 1.406 . S
C278 H252 0.929 . S
C278 C277 1.406 . S
C278 C279 1.391 . S
C279 H251 0.931 . S
C279 C274 1.370 . S
C279 C278 1.391 . S
C280 N249 1.435 . S
C280 C281 1.358 . S
C280 C285 1.371 . S
C281 H253 0.930 . S
C281 C280 1.358 . S
C281 C282 1.405 . S
C282 H254 0.932 . S
C282 C281 1.405 . S
C282 C283 1.383 . S
C283 C282 1.383 . S
C283 C284 1.393 . S
C284 H256 0.931 . S
C284 C283 1.393 . S
C284 C285 1.382 . S
C285 H255 0.929 . S
C285 C280 1.371 . S
C285 C284 1.382 . S
C286 N249 1.423 . S
C286 C287 1.362 . S
C286 C291 1.388 . S
C287 H257 0.929 . S
C287 C286 1.362 . S
C287 C288 1.376 . S
C288 H259 0.931 . S
C288 C287 1.376 . S
C288 C289 1.396 . S
C289 C288 1.396 . S
C289 C290 1.348 . S
C289 C307 1.473 1_455 S
C290 H260 0.929 . S
C290 C289 1.348 . S
C290 C291 1.443 . S
C291 H258 0.932 . S
C291 C286 1.388 . S
C291 C290 1.443 . S
C292 N272 1.433 . S
C292 C293 1.363 . S
C292 C297 1.370 . S
C293 H261 0.929 . S
C293 C292 1.363 . S
C293 C294 1.385 . S
C294 H262 0.930 . S
C294 C293 1.385 . S
C294 C295 1.357 . S
C295 C294 1.357 . S
C295 C296 1.406 . S
C296 H263 0.929 . S
C296 C295 1.406 . S
C296 C297 1.391 . S
C297 H264 0.931 . S
C297 C292 1.370 . S
C297 C296 1.391 . S
C298 N272 1.435 . S
C298 C299 1.358 . S
C298 C303 1.371 . S
C299 H265 0.930 . S
C299 C298 1.358 . S
C299 C300 1.405 . S
C300 H266 0.932 . S
C300 C299 1.405 . S
C300 C301 1.383 . S
C301 C300 1.383 . S
C301 C302 1.393 . S
C302 H267 0.931 . S
C302 C301 1.393 . S
C302 C303 1.382 . S
C303 H268 0.929 . S
C303 C298 1.371 . S
C303 C302 1.382 . S
C304 N272 1.423 . S
C304 C305 1.362 . S
C304 C309 1.388 . S
C305 H269 0.929 . S
C305 C304 1.362 . S
C305 C306 1.376 . S
C306 H270 0.931 1_655 S
C306 C305 1.376 . S
C306 C307 1.396 . S
C307 C289 1.473 1_655 S
C307 C306 1.396 . S
C307 C308 1.347 . S
C308 H271 0.929 . S
C308 C307 1.347 . S
C308 C309 1.443 . S
C309 H273 0.932 . S
C309 C304 1.388 . S
C309 C308 1.443 . S
H310 C337 0.929 . S
N311 C336 1.433 . S
N311 C342 1.435 . S
N311 C348 1.423 . S
H312 C338 0.930 . S
H313 C341 0.931 . S
H314 C340 0.929 . S
H315 C343 0.930 . S
H316 C344 0.932 . S
H317 C347 0.929 . S
H318 C346 0.931 . S
H319 C349 0.929 . S
H320 C353 0.932 . S
H321 C350 0.931 . S
H322 C352 0.929 . S
H323 C355 0.929 . S
H324 C356 0.930 . S
H325 C358 0.929 . S
H326 C359 0.931 . S
H327 C361 0.930 . S
H328 C362 0.932 . S
H329 C364 0.931 . S
H330 C365 0.929 . S
H331 C367 0.929 . S
H332 C368 0.931 . S
H333 C370 0.929 . S
N334 C354 1.433 . S
N334 C360 1.435 . S
N334 C366 1.423 . S
H335 C371 0.932 . S
C336 N311 1.433 . S
C336 C337 1.363 . S
C336 C341 1.370 . S
C337 H310 0.929 . S
C337 C336 1.363 . S
C337 C338 1.385 . S
C338 H312 0.930 . S
C338 C337 1.385 . S
C338 C339 1.357 . S
C339 C338 1.357 . S
C339 C340 1.406 . S
C340 H314 0.929 . S
C340 C339 1.406 . S
C340 C341 1.391 . S
C341 H313 0.931 . S
C341 C336 1.370 . S
C341 C340 1.391 . S
C342 N311 1.435 . S
C342 C343 1.358 . S
C342 C347 1.371 . S
C343 H315 0.930 . S
C343 C342 1.358 . S
C343 C344 1.405 . S
C344 H316 0.932 . S
C344 C343 1.405 . S
C344 C345 1.383 . S
C345 C344 1.383 . S
C345 C346 1.393 . S
C346 H318 0.931 . S
C346 C345 1.393 . S
C346 C347 1.382 . S
C347 H317 0.929 . S
C347 C342 1.371 . S
C347 C346 1.382 . S
C348 N311 1.423 . S
C348 C349 1.362 . S
C348 C353 1.388 . S
C349 H319 0.929 . S
C349 C348 1.362 . S
C349 C350 1.376 . S
C350 H321 0.931 . S
C350 C349 1.376 . S
C350 C351 1.396 . S
C351 C350 1.396 . S
C351 C352 1.348 . S
C351 C369 1.472 . S
C352 H322 0.929 . S
C352 C351 1.348 . S
C352 C353 1.443 . S
C353 H320 0.932 . S
C353 C348 1.388 . S
C353 C352 1.443 . S
C354 N334 1.433 . S
C354 C355 1.363 . S
C354 C359 1.370 . S
C355 H323 0.929 . S
C355 C354 1.363 . S
C355 C356 1.385 . S
C356 H324 0.930 . S
C356 C355 1.385 . S
C356 C357 1.357 . S
C357 C356 1.357 . S
C357 C358 1.406 . S
C358 H325 0.929 . S
C358 C357 1.406 . S
C358 C359 1.391 . S
C359 H326 0.931 . S
C359 C354 1.370 . S
C359 C358 1.391 . S
C360 N334 1.435 . S
C360 C361 1.358 . S
C360 C365 1.371 . S
C361 H327 0.930 . S
C361 C360 1.358 . S
C361 C362 1.405 . S
C362 H328 0.932 . S
C362 C361 1.405 . S
C362 C363 1.383 . S
C363 C362 1.383 . S
C363 C364 1.393 . S
C364 H329 0.931 . S
C364 C363 1.393 . S
C364 C365 1.382 . S
C365 H330 0.929 . S
C365 C360 1.371 . S
C365 C364 1.382 . S
C366 N334 1.423 . S
C366 C367 1.362 . S
C366 C371 1.388 . S
C367 H331 0.929 . S
C367 C366 1.362 . S
C367 C368 1.376 . S
C368 H332 0.931 . S
C368 C367 1.376 . S
C368 C369 1.396 . S
C369 C351 1.472 . S
C369 C368 1.396 . S
C369 C370 1.348 . S
C370 H333 0.929 . S
C370 C369 1.348 . S
C370 C371 1.443 . S
C371 H335 0.932 . S
C371 C366 1.388 . S
C371 C370 1.443 . S
H372 C399 0.929 . S
N373 C398 1.433 . S
N373 C404 1.435 . S
N373 C410 1.423 . S
H374 C400 0.930 . S
H375 C403 0.931 . S
H376 C402 0.929 . S
H377 C405 0.930 . S
H378 C406 0.932 . S
H379 C409 0.929 . S
H380 C408 0.931 . S
H381 C411 0.929 . S
H382 C415 0.932 . S
H383 C412 0.931 . S
H384 C414 0.929 . S
H385 C417 0.929 . S
H386 C418 0.930 . S
H387 C420 0.929 . S
H388 C421 0.931 . S
H389 C423 0.930 . S
H390 C424 0.932 . S
H391 C426 0.931 . S
H392 C427 0.929 . S
H393 C429 0.929 . S
H394 C430 0.931 . S
H395 C432 0.929 . S
N396 C416 1.433 . S
N396 C422 1.435 . S
N396 C428 1.423 . S
H397 C433 0.932 . S
C398 N373 1.433 . S
C398 C399 1.363 . S
C398 C403 1.370 . S
C399 H372 0.929 . S
C399 C398 1.363 . S
C399 C400 1.385 . S
C400 H374 0.930 . S
C400 C399 1.385 . S
C400 C401 1.357 . S
C401 C400 1.357 . S
C401 C402 1.406 . S
C402 H376 0.929 . S
C402 C401 1.406 . S
C402 C403 1.391 . S
C403 H375 0.931 . S
C403 C398 1.370 . S
C403 C402 1.391 . S
C404 N373 1.435 . S
C404 C405 1.358 . S
C404 C409 1.371 . S
C405 H377 0.930 . S
C405 C404 1.358 . S
C405 C406 1.405 . S
C406 H378 0.932 . S
C406 C405 1.405 . S
C406 C407 1.383 . S
C407 C406 1.383 . S
C407 C408 1.393 . S
C408 H380 0.931 . S
C408 C407 1.393 . S
C408 C409 1.382 . S
C409 H379 0.929 . S
C409 C404 1.371 . S
C409 C408 1.382 . S
C410 N373 1.423 . S
C410 C411 1.362 . S
C410 C415 1.388 . S
C411 H381 0.929 . S
C411 C410 1.362 . S
C411 C412 1.376 1_565 S
C412 H383 0.931 . S
C412 C411 1.376 1_545 S
C412 C413 1.396 . S
C413 C412 1.396 . S
C413 C414 1.348 1_545 S
C413 C431 1.472 . S
C414 H384 0.929 . S
C414 C413 1.348 1_565 S
C414 C415 1.443 . S
C415 H382 0.932 . S
C415 C410 1.388 . S
C415 C414 1.443 . S
C416 N396 1.433 . S
C416 C417 1.363 . S
C416 C421 1.370 . S
C417 H385 0.929 . S
C417 C416 1.363 . S
C417 C418 1.385 . S
C418 H386 0.930 . S
C418 C417 1.385 . S
C418 C419 1.357 . S
C419 C418 1.357 . S
C419 C420 1.406 . S
C420 H387 0.929 . S
C420 C419 1.406 . S
C420 C421 1.391 . S
C421 H388 0.931 . S
C421 C416 1.370 . S
C421 C420 1.391 . S
C422 N396 1.435 . S
C422 C423 1.358 . S
C422 C427 1.371 . S
C423 H389 0.930 . S
C423 C422 1.358 . S
C423 C424 1.405 . S
C424 H390 0.932 . S
C424 C423 1.405 . S
C424 C425 1.383 . S
C425 C424 1.383 . S
C425 C426 1.393 . S
C426 H391 0.931 . S
C426 C425 1.393 . S
C426 C427 1.382 . S
C427 H392 0.929 . S
C427 C422 1.371 . S
C427 C426 1.382 . S
C428 N396 1.423 . S
C428 C429 1.362 . S
C428 C433 1.388 . S
C429 H393 0.929 . S
C429 C428 1.362 . S
C429 C430 1.376 . S
C430 H394 0.931 . S
C430 C429 1.376 . S
C430 C431 1.396 . S
C431 C413 1.472 . S
C431 C430 1.396 . S
C431 C432 1.348 . S
C432 H395 0.929 . S
C432 C431 1.348 . S
C432 C433 1.443 . S
C433 H397 0.932 . S
C433 C428 1.388 . S
C433 C432 1.443 . S
H434 C461 0.929 . S
N435 C460 1.433 . S
N435 C466 1.435 . S
N435 C472 1.423 . S
H436 C462 0.930 . S
H437 C465 0.931 . S
H438 C464 0.929 . S
H439 C467 0.930 . S
H440 C468 0.932 . S
H441 C471 0.929 . S
H442 C470 0.931 . S
H443 C473 0.929 . S
H444 C477 0.932 . S
H445 C474 0.931 . S
H446 C476 0.929 . S
H447 C479 0.929 . S
H448 C480 0.930 . S
H449 C482 0.929 . S
H450 C483 0.931 . S
H451 C485 0.930 . S
H452 C486 0.932 . S
H453 C488 0.931 . S
H454 C489 0.929 . S
H455 C491 0.929 . S
H456 C492 0.931 1_565 S
H457 C494 0.929 . S
N458 C478 1.433 . S
N458 C484 1.435 . S
N458 C490 1.423 . S
H459 C495 0.932 . S
C460 N435 1.433 . S
C460 C461 1.363 . S
C460 C465 1.370 . S
C461 H434 0.929 . S
C461 C460 1.363 . S
C461 C462 1.385 . S
C462 H436 0.930 . S
C462 C461 1.385 . S
C462 C463 1.357 . S
C463 C462 1.357 . S
C463 C464 1.406 . S
C464 H438 0.929 . S
C464 C463 1.406 . S
C464 C465 1.391 . S
C465 H437 0.931 . S
C465 C460 1.370 . S
C465 C464 1.391 . S
C466 N435 1.435 . S
C466 C467 1.358 . S
C466 C471 1.371 . S
C467 H439 0.930 . S
C467 C466 1.358 . S
C467 C468 1.405 . S
C468 H440 0.932 . S
C468 C467 1.405 . S
C468 C469 1.383 . S
C469 C468 1.383 . S
C469 C470 1.393 . S
C470 H442 0.931 . S
C470 C469 1.393 . S
C470 C471 1.382 . S
C471 H441 0.929 . S
C471 C466 1.371 . S
C471 C470 1.382 . S
C472 N435 1.423 . S
C472 C473 1.362 . S
C472 C477 1.388 . S
C473 H443 0.929 . S
C473 C472 1.362 . S
C473 C474 1.376 1_455 S
C474 H445 0.931 . S
C474 C473 1.376 1_655 S
C474 C475 1.396 . S
C475 C474 1.396 . S
C475 C476 1.348 1_655 S
C475 C493 1.489 . S
C476 H446 0.929 . S
C476 C475 1.348 1_455 S
C476 C477 1.443 . S
C477 H444 0.932 . S
C477 C472 1.388 . S
C477 C476 1.443 . S
C478 N458 1.433 . S
C478 C479 1.363 . S
C478 C483 1.370 . S
C479 H447 0.929 . S
C479 C478 1.363 . S
C479 C480 1.385 . S
C480 H448 0.930 . S
C480 C479 1.385 . S
C480 C481 1.357 . S
C481 C480 1.357 . S
C481 C482 1.406 . S
C482 H449 0.929 . S
C482 C481 1.406 . S
C482 C483 1.391 . S
C483 H450 0.931 . S
C483 C478 1.370 . S
C483 C482 1.391 . S
C484 N458 1.435 . S
C484 C485 1.358 . S
C484 C489 1.371 . S
C485 H451 0.930 . S
C485 C484 1.358 . S
C485 C486 1.405 . S
C486 H452 0.932 . S
C486 C485 1.405 . S
C486 C487 1.383 . S
C487 C486 1.383 . S
C487 C488 1.393 . S
C488 H453 0.931 . S
C488 C487 1.393 . S
C488 C489 1.382 . S
C489 H454 0.929 . S
C489 C484 1.371 . S
C489 C488 1.382 . S
C490 N458 1.423 . S
C490 C491 1.362 . S
C490 C495 1.388 . S
C491 H455 0.929 . S
C491 C490 1.362 . S
C491 C492 1.376 . S
C492 H456 0.931 1_545 S
C492 C491 1.376 . S
C492 C493 1.394 1_545 S
C493 C475 1.489 . S
C493 C492 1.394 1_565 S
C493 C494 1.332 1_565 S
C494 H457 0.929 . S
C494 C493 1.332 1_545 S
C494 C495 1.443 . S
C495 H459 0.932 . S
C495 C490 1.388 . S
C495 C494 1.443 . S
C496 O497 1.160 . S
C496 O503 1.185 . S
O497 C496 1.160 . S
O498 Zn499 1.899 . S
O498 C506 1.284 . S
Zn499 O498 1.899 . S
Zn499 O500 2.032 1_554 S
Zn499 O503 2.086 . S
Zn499 O508 1.977 . S
O500 Zn499 2.032 1_556 S
O500 C504 1.278 . S
C501 O502 1.203 . S
C501 O508 1.267 . S
O502 C501 1.203 . S
O503 C496 1.185 . S
O503 Zn499 2.086 . S
C504 O500 1.278 . S
C504 O505 1.211 . S
O505 C504 1.211 . S
C506 O498 1.284 . S
C506 O507 1.273 . S
O507 C506 1.273 . S
O508 Zn499 1.977 . S
O508 C501 1.267 . S
C509 O510 1.160 . S
C509 O516 1.185 . S
O510 C509 1.160 . S
O511 Zn512 1.899 . S
O511 C519 1.284 . S
Zn512 O511 1.899 . S
Zn512 O513 2.032 . S
Zn512 O516 2.086 . S
Zn512 O521 1.977 . S
O513 Zn512 2.032 . S
O513 C517 1.278 . S
C514 O515 1.203 . S
C514 O521 1.267 . S
O515 C514 1.203 . S
O516 C509 1.185 . S
O516 Zn512 2.086 . S
C517 O513 1.278 . S
C517 O518 1.211 . S
O518 C517 1.211 . S
C519 O511 1.284 . S
C519 O520 1.273 . S
O520 C519 1.273 . S
O521 Zn512 1.977 . S
O521 C514 1.267 . S
C522 O523 1.160 . S
C522 O529 1.185 . S
O523 C522 1.160 . S
O524 Zn525 1.899 . S
O524 C532 1.284 . S
Zn525 O524 1.899 . S
Zn525 O526 2.032 . S
Zn525 O529 2.086 . S
Zn525 O534 1.977 . S
O526 Zn525 2.032 . S
O526 C530 1.278 . S
C527 O528 1.203 . S
C527 O534 1.267 . S
O528 C527 1.203 . S
O529 C522 1.185 . S
O529 Zn525 2.086 . S
C530 O526 1.278 . S
C530 O531 1.211 . S
O531 C530 1.211 . S
C532 O524 1.284 . S
C532 O533 1.273 . S
O533 C532 1.273 . S
O534 Zn525 1.977 . S
O534 C527 1.267 . S
C535 O536 1.160 . S
C535 O542 1.185 . S
O536 C535 1.160 . S
O537 Zn538 1.899 . S
O537 C545 1.284 . S
Zn538 O537 1.899 . S
Zn538 O539 2.032 . S
Zn538 O542 2.086 . S
Zn538 O547 1.977 . S
O539 Zn538 2.032 . S
O539 C543 1.278 . S
C540 O541 1.203 . S
C540 O547 1.267 . S
O541 C540 1.203 . S
O542 C535 1.185 . S
O542 Zn538 2.086 . S
C543 O539 1.278 . S
C543 O544 1.211 . S
O544 C543 1.211 . S
C545 O537 1.284 . S
C545 O546 1.273 . S
O546 C545 1.273 . S
O547 Zn538 1.977 . S
O547 C540 1.267 . S
C548 O549 1.160 . S
C548 O555 1.185 . S
O549 C548 1.160 . S
O550 Zn551 1.899 . S
O550 C558 1.284 . S
Zn551 O550 1.899 . S
Zn551 O552 2.032 . S
Zn551 O555 2.086 . S
Zn551 O560 1.977 . S
O552 Zn551 2.032 . S
O552 C556 1.278 . S
C553 O554 1.203 . S
C553 O560 1.267 . S
O554 C553 1.203 . S
O555 C548 1.185 . S
O555 Zn551 2.086 . S
C556 O552 1.278 . S
C556 O557 1.211 . S
O557 C556 1.211 . S
C558 O550 1.284 . S
C558 O559 1.273 . S
O559 C558 1.273 . S
O560 Zn551 1.977 . S
O560 C553 1.267 . S
C561 O562 1.160 . S
C561 O568 1.185 . S
O562 C561 1.160 . S
O563 Zn564 1.899 . S
O563 C571 1.284 . S
Zn564 O563 1.899 . S
Zn564 O565 2.032 . S
Zn564 O568 2.086 . S
Zn564 O573 1.977 . S
O565 Zn564 2.032 . S
O565 C569 1.278 . S
C566 O567 1.203 . S
C566 O573 1.267 . S
O567 C566 1.203 . S
O568 C561 1.185 . S
O568 Zn564 2.086 . S
C569 O565 1.278 . S
C569 O570 1.211 . S
O570 C569 1.211 . S
C571 O563 1.284 . S
C571 O572 1.273 . S
O572 C571 1.273 . S
O573 Zn564 1.977 . S
O573 C566 1.267 . S
C574 O575 1.160 . S
C574 O581 1.185 . S
O575 C574 1.160 . S
O576 Zn577 1.899 . S
O576 C584 1.284 . S
Zn577 O576 1.899 . S
Zn577 O578 2.032 1_554 S
Zn577 O581 2.086 . S
Zn577 O586 1.977 . S
O578 Zn577 2.032 1_556 S
O578 C582 1.278 . S
C579 O580 1.203 . S
C579 O586 1.267 . S
O580 C579 1.203 . S
O581 C574 1.185 . S
O581 Zn577 2.086 . S
C582 O578 1.278 . S
C582 O583 1.211 . S
O583 C582 1.211 . S
C584 O576 1.284 . S
C584 O585 1.273 . S
O585 C584 1.273 . S
O586 Zn577 1.977 . S
O586 C579 1.267 . S
C587 O588 1.160 . S
C587 O594 1.185 . S
O588 C587 1.160 . S
O589 Zn590 1.899 . S
O589 C597 1.284 . S
Zn590 O589 1.899 . S
Zn590 O591 2.032 . S
Zn590 O594 2.086 . S
Zn590 O599 1.977 . S
O591 Zn590 2.032 . S
O591 C595 1.278 . S
C592 O593 1.203 . S
C592 O599 1.267 . S
O593 C592 1.203 . S
O594 C587 1.185 . S
O594 Zn590 2.086 . S
C595 O591 1.278 . S
C595 O596 1.211 . S
O596 C595 1.211 . S
C597 O589 1.284 . S
C597 O598 1.273 . S
O598 C597 1.273 . S
O599 Zn590 1.977 . S
O599 C592 1.267 . S
H600 C612 0.930 . S
H601 C614 0.930 . S
H602 C615 0.930 . S
H603 C619 0.959 . S
H604 C619 0.959 . S
H605 C619 0.961 . S
H606 C620 0.960 . S
H607 C620 0.961 . S
H608 C620 0.959 . S
H609 C623 0.929 . S
H610 C624 0.931 . S
H611 C626 0.930 . S
C612 H600 0.930 . S
C612 C613 1.399 . S
C612 C617 1.399 . S
C613 C612 1.399 . S
C613 C614 1.376 . S
C614 H601 0.930 . S
C614 C613 1.376 . S
C614 C615 1.388 . S
C615 H602 0.930 . S
C615 C614 1.388 . S
C615 C616 1.390 . S
C616 C615 1.390 . S
C616 C617 1.394 . S
C616 C622 1.465 . S
C617 C612 1.399 . S
C617 C616 1.394 . S
C617 C618 1.516 . S
C618 C617 1.516 . S
C618 C619 1.502 . S
C618 C620 1.561 . S
C618 C621 1.526 . S
C619 H603 0.959 . S
C619 H604 0.959 . S
C619 H605 0.961 . S
C619 C618 1.502 . S
C620 H606 0.960 . S
C620 H607 0.961 . S
C620 H608 0.959 . S
C620 C618 1.561 . S
C621 C618 1.526 . S
C621 C622 1.396 . S
C621 C626 1.390 . S
C622 C616 1.465 . S
C622 C621 1.396 . S
C622 C623 1.399 . S
C623 H609 0.929 . S
C623 C622 1.399 . S
C623 C624 1.385 . S
C624 H610 0.931 . S
C624 C623 1.385 . S
C624 C625 1.389 . S
C625 C624 1.389 . S
C625 C626 1.387 . S
C626 H611 0.930 . S
C626 C621 1.390 . S
C626 C625 1.387 . S
H627 C639 0.930 . S
H628 C641 0.930 . S
H629 C642 0.930 . S
H630 C646 0.959 . S
H631 C646 0.959 . S
H632 C646 0.961 . S
H633 C647 0.960 . S
H634 C647 0.961 . S
H635 C647 0.959 . S
H636 C650 0.929 . S
H637 C651 0.931 . S
H638 C653 0.930 . S
C639 H627 0.930 . S
C639 C640 1.399 . S
C639 C644 1.399 . S
C640 C639 1.399 . S
C640 C641 1.376 . S
C641 H628 0.930 . S
C641 C640 1.376 . S
C641 C642 1.388 . S
C642 H629 0.930 . S
C642 C641 1.388 . S
C642 C643 1.390 . S
C643 C642 1.390 . S
C643 C644 1.394 . S
C643 C649 1.465 . S
C644 C639 1.399 . S
C644 C643 1.394 . S
C644 C645 1.516 . S
C645 C644 1.516 . S
C645 C646 1.502 . S
C645 C647 1.561 . S
C645 C648 1.526 . S
C646 H630 0.959 . S
C646 H631 0.959 . S
C646 H632 0.961 . S
C646 C645 1.502 . S
C647 H633 0.960 . S
C647 H634 0.961 . S
C647 H635 0.959 . S
C647 C645 1.561 . S
C648 C645 1.526 . S
C648 C649 1.396 . S
C648 C653 1.390 . S
C649 C643 1.465 . S
C649 C648 1.396 . S
C649 C650 1.399 . S
C650 H636 0.929 . S
C650 C649 1.399 . S
C650 C651 1.385 . S
C651 H637 0.931 . S
C651 C650 1.385 . S
C651 C652 1.389 . S
C652 C651 1.389 . S
C652 C653 1.387 . S
C653 H638 0.930 . S
C653 C648 1.390 . S
C653 C652 1.387 . S
H654 C666 0.930 . S
H655 C668 0.930 . S
H656 C669 0.930 . S
H657 C673 0.959 . S
H658 C673 0.959 . S
H659 C673 0.961 . S
H660 C674 0.960 . S
H661 C674 0.961 . S
H662 C674 0.959 . S
H663 C677 0.929 . S
H664 C678 0.931 . S
H665 C680 0.930 . S
C666 H654 0.930 . S
C666 C667 1.399 . S
C666 C671 1.399 . S
C667 C666 1.399 . S
C667 C668 1.376 . S
C668 H655 0.930 . S
C668 C667 1.376 . S
C668 C669 1.388 . S
C669 H656 0.930 . S
C669 C668 1.388 . S
C669 C670 1.390 . S
C670 C669 1.390 . S
C670 C671 1.394 . S
C670 C676 1.465 . S
C671 C666 1.399 . S
C671 C670 1.394 . S
C671 C672 1.516 . S
C672 C671 1.516 . S
C672 C673 1.502 . S
C672 C674 1.561 . S
C672 C675 1.526 . S
C673 H657 0.959 . S
C673 H658 0.959 . S
C673 H659 0.961 . S
C673 C672 1.502 . S
C674 H660 0.960 . S
C674 H661 0.961 . S
C674 H662 0.959 . S
C674 C672 1.561 . S
C675 C672 1.526 . S
C675 C676 1.396 . S
C675 C680 1.390 . S
C676 C670 1.465 . S
C676 C675 1.396 . S
C676 C677 1.399 . S
C677 H663 0.929 . S
C677 C676 1.399 . S
C677 C678 1.385 . S
C678 H664 0.931 . S
C678 C677 1.385 . S
C678 C679 1.389 . S
C679 C678 1.389 . S
C679 C680 1.387 . S
C680 H665 0.930 . S
C680 C675 1.390 . S
C680 C679 1.387 . S
H681 C693 0.930 . S
H682 C695 0.944 . S
H683 C696 0.930 . S
H684 C700 0.959 . S
H685 C700 0.959 . S
H686 C700 0.961 . S
H687 C701 0.960 . S
H688 C701 0.961 . S
H689 C701 0.959 . S
H690 C704 0.929 . S
H691 C705 0.968 . S
H692 C707 0.930 . S
C693 H681 0.930 . S
C693 C694 1.399 . S
C693 C698 1.399 . S
C694 C693 1.399 . S
C694 C695 1.359 1_554 S
C695 H682 0.944 . S
C695 C694 1.359 1_556 S
C695 C696 1.393 . S
C696 H683 0.930 . S
C696 C695 1.393 . S
C696 C697 1.390 1_556 S
C697 C696 1.390 1_554 S
C697 C698 1.394 . S
C697 C703 1.465 . S
C698 C693 1.399 . S
C698 C697 1.394 . S
C698 C699 1.516 . S
C699 C698 1.516 . S
C699 C700 1.502 . S
C699 C701 1.561 . S
C699 C702 1.526 . S
C700 H684 0.959 . S
C700 H685 0.959 . S
C700 H686 0.961 . S
C700 C699 1.502 . S
C701 H687 0.960 . S
C701 H688 0.961 . S
C701 H689 0.959 . S
C701 C699 1.561 . S
C702 C699 1.526 . S
C702 C703 1.396 . S
C702 C707 1.390 . S
C703 C697 1.465 . S
C703 C702 1.396 . S
C703 C704 1.399 1_554 S
C704 H690 0.929 . S
C704 C703 1.399 1_556 S
C704 C705 1.398 . S
C705 H691 0.968 . S
C705 C704 1.398 . S
C705 C706 1.344 1_556 S
C706 C705 1.344 1_554 S
C706 C707 1.387 . S
C707 H692 0.930 . S
C707 C702 1.390 . S
C707 C706 1.387 . S
H708 C720 0.930 . S
H709 C722 0.930 . S
H710 C723 0.930 . S
H711 C727 0.959 . S
H712 C727 0.959 . S
H713 C727 0.961 . S
H714 C728 0.960 . S
H715 C728 0.961 . S
H716 C728 0.959 . S
H717 C731 0.929 . S
H718 C732 0.931 . S
H719 C734 0.930 . S
C720 H708 0.930 . S
C720 C721 1.399 . S
C720 C725 1.399 . S
C721 C720 1.399 . S
C721 C722 1.376 1_556 S
C722 H709 0.930 . S
C722 C721 1.376 1_554 S
C722 C723 1.388 . S
C723 H710 0.930 . S
C723 C722 1.388 . S
C723 C724 1.390 . S
C724 C723 1.390 . S
C724 C725 1.394 1_554 S
C724 C730 1.465 . S
C725 C720 1.399 . S
C725 C724 1.394 1_556 S
C725 C726 1.516 . S
C726 C725 1.516 . S
C726 C727 1.502 . S
C726 C728 1.561 . S
C726 C729 1.526 . S
C727 H711 0.959 . S
C727 H712 0.959 . S
C727 H713 0.961 . S
C727 C726 1.502 . S
C728 H714 0.960 . S
C728 H715 0.961 . S
C728 H716 0.959 . S
C728 C726 1.561 . S
C729 C726 1.526 . S
C729 C730 1.396 1_556 S
C729 C734 1.390 . S
C730 C724 1.465 . S
C730 C729 1.396 1_554 S
C730 C731 1.399 . S
C731 H717 0.929 . S
C731 C730 1.399 . S
C731 C732 1.385 . S
C732 H718 0.931 . S
C732 C731 1.385 . S
C732 C733 1.416 . S
C733 C732 1.416 . S
C733 C734 1.364 1_554 S
C734 H719 0.930 . S
C734 C729 1.390 . S
C734 C733 1.364 1_556 S
H735 C747 0.930 . S
H736 C749 0.930 . S
H737 C750 0.930 . S
H738 C754 0.959 . S
H739 C754 0.959 . S
H740 C754 0.961 . S
H741 C755 0.960 . S
H742 C755 0.961 . S
H743 C755 0.959 . S
H744 C758 0.929 . S
H745 C759 0.931 . S
H746 C761 0.930 . S
C747 H735 0.930 . S
C747 C748 1.399 . S
C747 C752 1.399 . S
C748 C747 1.399 . S
C748 C749 1.376 . S
C749 H736 0.930 . S
C749 C748 1.376 . S
C749 C750 1.388 . S
C750 H737 0.930 . S
C750 C749 1.388 . S
C750 C751 1.390 . S
C751 C750 1.390 . S
C751 C752 1.394 . S
C751 C757 1.465 . S
C752 C747 1.399 . S
C752 C751 1.394 . S
C752 C753 1.516 . S
C753 C752 1.516 . S
C753 C754 1.502 . S
C753 C755 1.561 . S
C753 C756 1.526 . S
C754 H738 0.959 . S
C754 H739 0.959 . S
C754 H740 0.961 . S
C754 C753 1.502 . S
C755 H741 0.960 . S
C755 H742 0.961 . S
C755 H743 0.959 . S
C755 C753 1.561 . S
C756 C753 1.526 . S
C756 C757 1.396 . S
C756 C761 1.390 . S
C757 C751 1.465 . S
C757 C756 1.396 . S
C757 C758 1.399 . S
C758 H744 0.929 . S
C758 C757 1.399 . S
C758 C759 1.385 . S
C759 H745 0.931 . S
C759 C758 1.385 . S
C759 C760 1.389 . S
C760 C759 1.389 . S
C760 C761 1.387 . S
C761 H746 0.930 . S
C761 C756 1.390 . S
C761 C760 1.387 . S
H762 C774 0.930 . S
H763 C776 0.930 . S
H764 C777 0.930 . S
H765 C781 0.959 . S
H766 C781 0.959 . S
H767 C781 0.961 . S
H768 C782 0.960 . S
H769 C782 0.961 . S
H770 C782 0.959 . S
H771 C785 0.929 . S
H772 C786 0.931 . S
H773 C788 0.930 . S
C774 H762 0.930 . S
C774 C775 1.399 . S
C774 C779 1.399 . S
C775 C774 1.399 . S
C775 C776 1.376 . S
C776 H763 0.930 . S
C776 C775 1.376 . S
C776 C777 1.388 . S
C777 H764 0.930 . S
C777 C776 1.388 . S
C777 C778 1.390 . S
C778 C777 1.390 . S
C778 C779 1.394 . S
C778 C784 1.465 . S
C779 C774 1.399 . S
C779 C778 1.394 . S
C779 C780 1.516 . S
C780 C779 1.516 . S
C780 C781 1.502 . S
C780 C782 1.561 . S
C780 C783 1.526 . S
C781 H765 0.959 . S
C781 H766 0.959 . S
C781 H767 0.961 . S
C781 C780 1.502 . S
C782 H768 0.960 . S
C782 H769 0.961 . S
C782 H770 0.959 . S
C782 C780 1.561 . S
C783 C780 1.526 . S
C783 C784 1.396 . S
C783 C788 1.390 . S
C784 C778 1.465 . S
C784 C783 1.396 . S
C784 C785 1.399 . S
C785 H771 0.929 . S
C785 C784 1.399 . S
C785 C786 1.385 . S
C786 H772 0.931 . S
C786 C785 1.385 . S
C786 C787 1.389 . S
C787 C786 1.389 . S
C787 C788 1.387 . S
C788 H773 0.930 . S
C788 C783 1.390 . S
C788 C787 1.387 . S
H789 C801 0.930 . S
H790 C803 0.930 . S
H791 C804 0.930 . S
H792 C808 0.959 . S
H793 C808 0.959 . S
H794 C808 0.961 . S
H795 C809 0.960 . S
H796 C809 0.961 . S
H797 C809 0.959 . S
H798 C812 0.929 . S
H799 C813 0.931 . S
H800 C815 0.930 . S
C801 H789 0.930 . S
C801 C802 1.399 . S
C801 C806 1.399 . S
C802 C801 1.399 . S
C802 C803 1.376 . S
C803 H790 0.930 . S
C803 C802 1.376 . S
C803 C804 1.388 . S
C804 H791 0.930 . S
C804 C803 1.388 . S
C804 C805 1.390 . S
C805 C804 1.390 . S
C805 C806 1.394 . S
C805 C811 1.465 . S
C806 C801 1.399 . S
C806 C805 1.394 . S
C806 C807 1.516 . S
C807 C806 1.516 . S
C807 C808 1.502 . S
C807 C809 1.561 . S
C807 C810 1.526 . S
C808 H792 0.959 . S
C808 H793 0.959 . S
C808 H794 0.961 . S
C808 C807 1.502 . S
C809 H795 0.960 . S
C809 H796 0.961 . S
C809 H797 0.959 . S
C809 C807 1.561 . S
C810 C807 1.526 . S
C810 C811 1.396 . S
C810 C815 1.390 . S
C811 C805 1.465 . S
C811 C810 1.396 . S
C811 C812 1.399 . S
C812 H798 0.929 . S
C812 C811 1.399 . S
C812 C813 1.385 . S
C813 H799 0.931 . S
C813 C812 1.385 . S
C813 C814 1.389 . S
C814 C813 1.389 . S
C814 C815 1.387 . S
C815 H800 0.930 . S
C815 C810 1.390 . S
C815 C814 1.387 . S
H816 C828 0.930 . S
H817 C830 0.930 . S
H818 C831 0.930 . S
H819 C835 0.959 . S
H820 C835 0.959 . S
H821 C835 0.961 . S
H822 C836 0.960 . S
H823 C836 0.961 . S
H824 C836 0.959 . S
H825 C839 0.929 . S
H826 C840 0.931 . S
H827 C842 0.930 . S
C828 H816 0.930 . S
C828 C829 1.399 . S
C828 C833 1.399 . S
C829 C828 1.399 . S
C829 C830 1.376 . S
C830 H817 0.930 . S
C830 C829 1.376 . S
C830 C831 1.388 . S
C831 H818 0.930 . S
C831 C830 1.388 . S
C831 C832 1.390 . S
C832 C831 1.390 . S
C832 C833 1.394 . S
C832 C838 1.465 . S
C833 C828 1.399 . S
C833 C832 1.394 . S
C833 C834 1.516 . S
C834 C833 1.516 . S
C834 C835 1.502 . S
C834 C836 1.561 . S
C834 C837 1.526 . S
C835 H819 0.959 . S
C835 H820 0.959 . S
C835 H821 0.961 . S
C835 C834 1.502 . S
C836 H822 0.960 . S
C836 H823 0.961 . S
C836 H824 0.959 . S
C836 C834 1.561 . S
C837 C834 1.526 . S
C837 C838 1.396 . S
C837 C842 1.390 . S
C838 C832 1.465 . S
C838 C837 1.396 . S
C838 C839 1.399 . S
C839 H825 0.929 . S
C839 C838 1.399 . S
C839 C840 1.385 . S
C840 H826 0.931 . S
C840 C839 1.385 . S
C840 C841 1.389 . S
C841 C840 1.389 . S
C841 C842 1.387 . S
C842 H827 0.930 . S
C842 C837 1.390 . S
C842 C841 1.387 . S
H843 C855 0.930 1_556 S
H844 C857 0.930 . S
H845 C858 0.930 . S
H846 C862 0.959 . S
H847 C862 0.959 . S
H848 C862 0.961 . S
H849 C863 0.960 . S
H850 C863 0.961 . S
H851 C863 0.959 . S
H852 C866 0.929 . S
H853 C867 0.931 . S
H854 C869 0.930 1_556 S
C855 H843 0.930 1_554 S
C855 C856 1.399 . S
C855 C860 1.399 . S
C856 C855 1.399 . S
C856 C857 1.376 . S
C857 H844 0.930 . S
C857 C856 1.376 . S
C857 C858 1.388 . S
C858 H845 0.930 . S
C858 C857 1.388 . S
C858 C859 1.390 . S
C859 C858 1.390 . S
C859 C860 1.394 . S
C859 C865 1.465 . S
C860 C855 1.399 . S
C860 C859 1.394 . S
C860 C861 1.516 1_554 S
C861 C860 1.516 1_556 S
C861 C862 1.502 . S
C861 C863 1.561 . S
C861 C864 1.526 1_556 S
C862 H846 0.959 . S
C862 H847 0.959 . S
C862 H848 0.961 . S
C862 C861 1.502 . S
C863 H849 0.960 . S
C863 H850 0.961 . S
C863 H851 0.959 . S
C863 C861 1.561 . S
C864 C861 1.526 1_554 S
C864 C865 1.396 . S
C864 C869 1.390 . S
C865 C859 1.465 . S
C865 C864 1.396 . S
C865 C866 1.399 . S
C866 H852 0.929 . S
C866 C865 1.399 . S
C866 C867 1.385 . S
C867 H853 0.931 . S
C867 C866 1.385 . S
C867 C868 1.389 . S
C868 C867 1.389 . S
C868 C869 1.387 . S
C869 H854 0.930 1_554 S
C869 C864 1.390 . S
C869 C868 1.387 . S
H870 C882 0.930 . S
H871 C884 0.930 . S
H872 C885 0.930 . S
H873 C889 0.959 . S
H874 C889 0.959 . S
H875 C889 0.961 . S
H876 C890 0.960 . S
H877 C890 0.961 . S
H878 C890 0.959 . S
H879 C893 0.929 . S
H880 C894 0.931 . S
H881 C896 0.930 . S
C882 H870 0.930 . S
C882 C883 1.399 . S
C882 C887 1.399 . S
C883 C882 1.399 . S
C883 C884 1.376 . S
C884 H871 0.930 . S
C884 C883 1.376 . S
C884 C885 1.388 . S
C885 H872 0.930 . S
C885 C884 1.388 . S
C885 C886 1.390 . S
C886 C885 1.390 . S
C886 C887 1.394 . S
C886 C892 1.465 . S
C887 C882 1.399 . S
C887 C886 1.394 . S
C887 C888 1.516 . S
C888 C887 1.516 . S
C888 C889 1.502 . S
C888 C890 1.561 . S
C888 C891 1.526 . S
C889 H873 0.959 . S
C889 H874 0.959 . S
C889 H875 0.961 . S
C889 C888 1.502 . S
C890 H876 0.960 . S
C890 H877 0.961 . S
C890 H878 0.959 . S
C890 C888 1.561 . S
C891 C888 1.526 . S
C891 C892 1.396 . S
C891 C896 1.390 . S
C892 C886 1.465 . S
C892 C891 1.396 . S
C892 C893 1.399 . S
C893 H879 0.929 . S
C893 C892 1.399 . S
C893 C894 1.385 . S
C894 H880 0.931 . S
C894 C893 1.385 . S
C894 C895 1.389 . S
C895 C894 1.389 . S
C895 C896 1.387 . S
C896 H881 0.930 . S
C896 C891 1.390 . S
C896 C895 1.387 . S
H897 C909 0.930 . S
H898 C911 0.930 . S
H899 C912 0.930 . S
H900 C916 0.959 . S
H901 C916 0.959 . S
H902 C916 0.961 . S
H903 C917 0.960 . S
H904 C917 0.961 . S
H905 C917 0.959 . S
H906 C920 0.929 . S
H907 C921 0.931 . S
H908 C923 0.930 . S
C909 H897 0.930 . S
C909 C910 1.399 . S
C909 C914 1.399 . S
C910 C909 1.399 . S
C910 C911 1.376 . S
C911 H898 0.930 . S
C911 C910 1.376 . S
C911 C912 1.388 . S
C912 H899 0.930 . S
C912 C911 1.388 . S
C912 C913 1.390 . S
C913 C912 1.390 . S
C913 C914 1.394 . S
C913 C919 1.465 . S
C914 C909 1.399 . S
C914 C913 1.394 . S
C914 C915 1.516 . S
C915 C914 1.516 . S
C915 C916 1.502 . S
C915 C917 1.561 . S
C915 C918 1.526 . S
C916 H900 0.959 . S
C916 H901 0.959 . S
C916 H902 0.961 . S
C916 C915 1.502 . S
C917 H903 0.960 . S
C917 H904 0.961 . S
C917 H905 0.959 . S
C917 C915 1.561 . S
C918 C915 1.526 . S
C918 C919 1.396 . S
C918 C923 1.390 . S
C919 C913 1.465 . S
C919 C918 1.396 . S
C919 C920 1.399 . S
C920 H906 0.929 . S
C920 C919 1.399 . S
C920 C921 1.385 . S
C921 H907 0.931 . S
C921 C920 1.385 . S
C921 C922 1.389 . S
C922 C921 1.389 . S
C922 C923 1.387 . S
C923 H908 0.930 . S
C923 C918 1.390 . S
C923 C922 1.387 . S
H924 C936 0.930 . S
H925 C938 0.930 . S
H926 C939 0.930 . S
H927 C943 0.959 . S
H928 C943 0.959 . S
H929 C943 0.961 . S
H930 C944 0.960 . S
H931 C944 0.961 . S
H932 C944 0.959 . S
H933 C947 0.929 . S
H934 C948 0.931 . S
H935 C950 0.930 . S
C936 H924 0.930 . S
C936 C937 1.399 . S
C936 C941 1.399 . S
C937 C936 1.399 . S
C937 C938 1.376 . S
C938 H925 0.930 . S
C938 C937 1.376 . S
C938 C939 1.388 . S
C939 H926 0.930 . S
C939 C938 1.388 . S
C939 C940 1.390 . S
C940 C939 1.390 . S
C940 C941 1.394 . S
C940 C946 1.465 . S
C941 C936 1.399 . S
C941 C940 1.394 . S
C941 C942 1.516 . S
C942 C941 1.516 . S
C942 C943 1.502 . S
C942 C944 1.561 . S
C942 C945 1.526 . S
C943 H927 0.959 . S
C943 H928 0.959 . S
C943 H929 0.961 . S
C943 C942 1.502 . S
C944 H930 0.960 . S
C944 H931 0.961 . S
C944 H932 0.959 . S
C944 C942 1.561 . S
C945 C942 1.526 . S
C945 C946 1.396 . S
C945 C950 1.390 . S
C946 C940 1.465 . S
C946 C945 1.396 . S
C946 C947 1.399 . S
C947 H933 0.929 . S
C947 C946 1.399 . S
C947 C948 1.385 . S
C948 H934 0.931 . S
C948 C947 1.385 . S
C948 C949 1.389 . S
C949 C948 1.389 . S
C949 C950 1.387 . S
C950 H935 0.930 . S
C950 C945 1.390 . S
C950 C949 1.387 . S
H951 C963 0.930 . S
H952 C965 0.930 . S
H953 C966 0.930 . S
H954 C970 0.959 . S
H955 C970 0.959 . S
H956 C970 0.961 . S
H957 C971 0.960 . S
H958 C971 0.961 . S
H959 C971 0.959 . S
H960 C974 0.929 . S
H961 C975 0.931 . S
H962 C977 0.930 . S
C963 H951 0.930 . S
C963 C964 1.399 . S
C963 C968 1.399 . S
C964 C963 1.399 . S
C964 C965 1.376 . S
C965 H952 0.930 . S
C965 C964 1.376 . S
C965 C966 1.388 . S
C966 H953 0.930 . S
C966 C965 1.388 . S
C966 C967 1.390 . S
C967 C966 1.390 . S
C967 C968 1.394 . S
C967 C973 1.465 . S
C968 C963 1.399 . S
C968 C967 1.394 . S
C968 C969 1.516 . S
C969 C968 1.516 . S
C969 C970 1.502 . S
C969 C971 1.561 . S
C969 C972 1.526 . S
C970 H954 0.959 . S
C970 H955 0.959 . S
C970 H956 0.961 . S
C970 C969 1.502 . S
C971 H957 0.960 . S
C971 H958 0.961 . S
C971 H959 0.959 . S
C971 C969 1.561 . S
C972 C969 1.526 . S
C972 C973 1.396 . S
C972 C977 1.390 . S
C973 C967 1.465 . S
C973 C972 1.396 . S
C973 C974 1.399 . S
C974 H960 0.929 . S
C974 C973 1.399 . S
C974 C975 1.385 . S
C975 H961 0.931 . S
C975 C974 1.385 . S
C975 C976 1.389 . S
C976 C975 1.389 . S
C976 C977 1.387 . S
C977 H962 0.930 . S
C977 C972 1.390 . S
C977 C976 1.387 . S
H978 C990 0.930 . S
H979 C992 0.930 . S
H980 C993 0.930 . S
H981 C997 0.959 . S
H982 C997 0.959 . S
H983 C997 0.961 . S
H984 C998 0.960 . S
H985 C998 0.961 . S
H986 C998 0.959 . S
H987 C1001 0.929 . S
H988 C1002 0.931 . S
H989 C1004 0.930 . S
C990 H978 0.930 . S
C990 C991 1.399 1_554 S
C990 C995 1.399 . S
C991 C990 1.399 1_556 S
C991 C992 1.376 . S
C992 H979 0.930 . S
C992 C991 1.376 . S
C992 C993 1.388 . S
C993 H980 0.930 . S
C993 C992 1.388 . S
C993 C994 1.390 . S
C994 C993 1.390 . S
C994 C995 1.394 1_556 S
C994 C1000 1.465 . S
C995 C990 1.399 . S
C995 C994 1.394 1_554 S
C995 C996 1.516 . S
C996 C995 1.516 . S
C996 C997 1.502 . S
C996 C998 1.561 . S
C996 C999 1.526 . S
C997 H981 0.959 . S
C997 H982 0.959 . S
C997 H983 0.961 . S
C997 C996 1.502 . S
C998 H984 0.960 . S
C998 H985 0.961 . S
C998 H986 0.959 . S
C998 C996 1.561 . S
C999 C996 1.526 . S
C999 C1000 1.396 1_554 S
C999 C1004 1.390 . S
C1000 C994 1.465 . S
C1000 C999 1.396 1_556 S
C1000 C1001 1.399 . S
C1001 H987 0.929 . S
C1001 C1000 1.399 . S
C1001 C1002 1.385 . S
C1002 H988 0.931 . S
C1002 C1001 1.385 . S
C1002 C1003 1.389 . S
C1003 C1002 1.389 . S
C1003 C1004 1.387 1_556 S
C1004 H989 0.930 . S
C1004 C999 1.390 . S
C1004 C1003 1.387 1_554 S
H1005 C1017 0.930 . S
H1006 C1019 0.930 . S
H1007 C1020 0.930 . S
H1008 C1024 0.959 . S
H1009 C1024 0.959 . S
H1010 C1024 0.961 . S
H1011 C1025 0.960 . S
H1012 C1025 0.961 . S
H1013 C1025 0.959 . S
H1014 C1028 0.929 . S
H1015 C1029 0.931 . S
H1016 C1031 0.930 . S
C1017 H1005 0.930 . S
C1017 C1018 1.399 . S
C1017 C1022 1.399 . S
C1018 C1017 1.399 . S
C1018 C1019 1.376 . S
C1019 H1006 0.930 . S
C1019 C1018 1.376 . S
C1019 C1020 1.388 . S
C1020 H1007 0.930 . S
C1020 C1019 1.388 . S
C1020 C1021 1.390 . S
C1021 C1020 1.390 . S
C1021 C1022 1.394 . S
C1021 C1027 1.465 . S
C1022 C1017 1.399 . S
C1022 C1021 1.394 . S
C1022 C1023 1.516 . S
C1023 C1022 1.516 . S
C1023 C1024 1.502 . S
C1023 C1025 1.561 . S
C1023 C1026 1.526 . S
C1024 H1008 0.959 . S
C1024 H1009 0.959 . S
C1024 H1010 0.961 . S
C1024 C1023 1.502 . S
C1025 H1011 0.960 . S
C1025 H1012 0.961 . S
C1025 H1013 0.959 . S
C1025 C1023 1.561 . S
C1026 C1023 1.526 . S
C1026 C1027 1.396 . S
C1026 C1031 1.390 . S
C1027 C1021 1.465 . S
C1027 C1026 1.396 . S
C1027 C1028 1.399 . S
C1028 H1014 0.929 . S
C1028 C1027 1.399 . S
C1028 C1029 1.385 . S
C1029 H1015 0.931 . S
C1029 C1028 1.385 . S
C1029 C1030 1.389 . S
C1030 C1029 1.389 . S
C1030 C1031 1.387 . S
C1031 H1016 0.930 . S
C1031 C1026 1.390 . S
C1031 C1030 1.387 . S
H1032 C1044 0.930 . S
H1033 C1046 0.930 . S
H1034 C1047 0.930 . S
H1035 C1051 0.959 . S
H1036 C1051 0.959 . S
H1037 C1051 0.961 . S
H1038 C1052 0.960 . S
H1039 C1052 0.961 . S
H1040 C1052 0.959 . S
H1041 C1055 0.929 . S
H1042 C1056 0.931 . S
H1043 C1058 0.930 . S
C1044 H1032 0.930 . S
C1044 C1045 1.399 . S
C1044 C1049 1.399 . S
C1045 C1044 1.399 . S
C1045 C1046 1.376 . S
C1046 H1033 0.930 . S
C1046 C1045 1.376 . S
C1046 C1047 1.388 . S
C1047 H1034 0.930 . S
C1047 C1046 1.388 . S
C1047 C1048 1.390 . S
C1048 C1047 1.390 . S
C1048 C1049 1.394 . S
C1048 C1054 1.465 . S
C1049 C1044 1.399 . S
C1049 C1048 1.394 . S
C1049 C1050 1.516 . S
C1050 C1049 1.516 . S
C1050 C1051 1.502 . S
C1050 C1052 1.561 . S
C1050 C1053 1.526 . S
C1051 H1035 0.959 . S
C1051 H1036 0.959 . S
C1051 H1037 0.961 . S
C1051 C1050 1.502 . S
C1052 H1038 0.960 . S
C1052 H1039 0.961 . S
C1052 H1040 0.959 . S
C1052 C1050 1.561 . S
C1053 C1050 1.526 . S
C1053 C1054 1.396 . S
C1053 C1058 1.390 . S
C1054 C1048 1.465 . S
C1054 C1053 1.396 . S
C1054 C1055 1.399 . S
C1055 H1041 0.929 . S
C1055 C1054 1.399 . S
C1055 C1056 1.385 . S
C1056 H1042 0.931 . S
C1056 C1055 1.385 . S
C1056 C1057 1.389 . S
C1057 C1056 1.389 . S
C1057 C1058 1.387 . S
C1058 H1043 0.930 . S
C1058 C1053 1.390 . S
C1058 C1057 1.387 . S
H1059 C1071 0.930 . S
H1060 C1073 0.930 . S
H1061 C1074 0.930 . S
H1062 C1078 0.959 . S
H1063 C1078 0.959 . S
H1064 C1078 0.961 . S
H1065 C1079 0.960 . S
H1066 C1079 0.961 . S
H1067 C1079 0.959 . S
H1068 C1082 0.929 . S
H1069 C1083 0.931 . S
H1070 C1085 0.930 . S
C1071 H1059 0.930 . S
C1071 C1072 1.399 . S
C1071 C1076 1.399 . S
C1072 C1071 1.399 . S
C1072 C1073 1.376 . S
C1073 H1060 0.930 . S
C1073 C1072 1.376 . S
C1073 C1074 1.388 . S
C1074 H1061 0.930 . S
C1074 C1073 1.388 . S
C1074 C1075 1.390 . S
C1075 C1074 1.390 . S
C1075 C1076 1.394 . S
C1075 C1081 1.465 . S
C1076 C1071 1.399 . S
C1076 C1075 1.394 . S
C1076 C1077 1.516 . S
C1077 C1076 1.516 . S
C1077 C1078 1.502 . S
C1077 C1079 1.561 . S
C1077 C1080 1.526 . S
C1078 H1062 0.959 . S
C1078 H1063 0.959 . S
C1078 H1064 0.961 . S
C1078 C1077 1.502 . S
C1079 H1065 0.960 . S
C1079 H1066 0.961 . S
C1079 H1067 0.959 . S
C1079 C1077 1.561 . S
C1080 C1077 1.526 . S
C1080 C1081 1.396 . S
C1080 C1085 1.390 . S
C1081 C1075 1.465 . S
C1081 C1080 1.396 . S
C1081 C1082 1.399 . S
C1082 H1068 0.929 . S
C1082 C1081 1.399 . S
C1082 C1083 1.385 . S
C1083 H1069 0.931 . S
C1083 C1082 1.385 . S
C1083 C1084 1.389 . S
C1084 C1083 1.389 . S
C1084 C1085 1.387 . S
C1085 H1070 0.930 . S
C1085 C1080 1.390 . S
C1085 C1084 1.387 . S
H1086 C1098 0.930 . S
H1087 C1100 0.930 . S
H1088 C1101 0.930 . S
H1089 C1105 0.959 . S
H1090 C1105 0.959 . S
H1091 C1105 0.961 . S
H1092 C1106 0.960 . S
H1093 C1106 0.961 . S
H1094 C1106 0.959 . S
H1095 C1109 0.929 . S
H1096 C1110 0.931 . S
H1097 C1112 0.930 . S
C1098 H1086 0.930 . S
C1098 C1099 1.399 . S
C1098 C1103 1.399 . S
C1099 C1098 1.399 . S
C1099 C1100 1.376 . S
C1100 H1087 0.930 . S
C1100 C1099 1.376 . S
C1100 C1101 1.388 . S
C1101 H1088 0.930 . S
C1101 C1100 1.388 . S
C1101 C1102 1.390 . S
C1102 C1101 1.390 . S
C1102 C1103 1.394 . S
C1102 C1108 1.465 . S
C1103 C1098 1.399 . S
C1103 C1102 1.394 . S
C1103 C1104 1.516 . S
C1104 C1103 1.516 . S
C1104 C1105 1.502 . S
C1104 C1106 1.561 . S
C1104 C1107 1.526 . S
C1105 H1089 0.959 . S
C1105 H1090 0.959 . S
C1105 H1091 0.961 . S
C1105 C1104 1.502 . S
C1106 H1092 0.960 . S
C1106 H1093 0.961 . S
C1106 H1094 0.959 . S
C1106 C1104 1.561 . S
C1107 C1104 1.526 . S
C1107 C1108 1.396 . S
C1107 C1112 1.390 . S
C1108 C1102 1.465 . S
C1108 C1107 1.396 . S
C1108 C1109 1.399 . S
C1109 H1095 0.929 . S
C1109 C1108 1.399 . S
C1109 C1110 1.385 . S
C1110 H1096 0.931 . S
C1110 C1109 1.385 . S
C1110 C1111 1.389 . S
C1111 C1110 1.389 . S
C1111 C1112 1.387 . S
C1112 H1097 0.930 . S
C1112 C1107 1.390 . S
C1112 C1111 1.387 . S
H1113 C1125 0.930 . S
H1114 C1127 0.930 . S
H1115 C1128 0.930 . S
H1116 C1132 0.959 . S
H1117 C1132 0.959 . S
H1118 C1132 0.961 . S
H1119 C1133 0.960 . S
H1120 C1133 0.961 . S
H1121 C1133 0.959 . S
H1122 C1136 0.929 . S
H1123 C1137 0.931 . S
H1124 C1139 0.930 . S
C1125 H1113 0.930 . S
C1125 C1126 1.399 . S
C1125 C1130 1.399 . S
C1126 C1125 1.399 . S
C1126 C1127 1.376 . S
C1127 H1114 0.930 . S
C1127 C1126 1.376 . S
C1127 C1128 1.388 . S
C1128 H1115 0.930 . S
C1128 C1127 1.388 . S
C1128 C1129 1.390 . S
C1129 C1128 1.390 . S
C1129 C1130 1.394 . S
C1129 C1135 1.465 . S
C1130 C1125 1.399 . S
C1130 C1129 1.394 . S
C1130 C1131 1.516 . S
C1131 C1130 1.516 . S
C1131 C1132 1.502 . S
C1131 C1133 1.561 . S
C1131 C1134 1.526 . S
C1132 H1116 0.959 . S
C1132 H1117 0.959 . S
C1132 H1118 0.961 . S
C1132 C1131 1.502 . S
C1133 H1119 0.960 . S
C1133 H1120 0.961 . S
C1133 H1121 0.959 . S
C1133 C1131 1.561 . S
C1134 C1131 1.526 . S
C1134 C1135 1.396 . S
C1134 C1139 1.390 . S
C1135 C1129 1.465 . S
C1135 C1134 1.396 . S
C1135 C1136 1.399 . S
C1136 H1122 0.929 . S
C1136 C1135 1.399 . S
C1136 C1137 1.385 . S
C1137 H1123 0.931 . S
C1137 C1136 1.385 . S
C1137 C1138 1.389 . S
C1138 C1137 1.389 . S
C1138 C1139 1.387 . S
C1139 H1124 0.930 . S
C1139 C1134 1.390 . S
C1139 C1138 1.387 . S
H1140 C1152 0.930 . S
H1141 C1154 0.930 . S
H1142 C1155 0.930 . S
H1143 C1159 0.959 . S
H1144 C1159 0.959 . S
H1145 C1159 0.961 . S
H1146 C1160 0.960 . S
H1147 C1160 0.961 . S
H1148 C1160 0.959 . S
H1149 C1163 0.929 . S
H1150 C1164 0.931 . S
H1151 C1166 0.930 . S
C1152 H1140 0.930 . S
C1152 C1153 1.399 . S
C1152 C1157 1.399 . S
C1153 C1152 1.399 . S
C1153 C1154 1.376 . S
C1154 H1141 0.930 . S
C1154 C1153 1.376 . S
C1154 C1155 1.388 . S
C1155 H1142 0.930 . S
C1155 C1154 1.388 . S
C1155 C1156 1.390 . S
C1156 C1155 1.390 . S
C1156 C1157 1.394 . S
C1156 C1162 1.465 . S
C1157 C1152 1.399 . S
C1157 C1156 1.394 . S
C1157 C1158 1.516 . S
C1158 C1157 1.516 . S
C1158 C1159 1.502 . S
C1158 C1160 1.561 . S
C1158 C1161 1.526 . S
C1159 H1143 0.959 . S
C1159 H1144 0.959 . S
C1159 H1145 0.961 . S
C1159 C1158 1.502 . S
C1160 H1146 0.960 . S
C1160 H1147 0.961 . S
C1160 H1148 0.959 . S
C1160 C1158 1.561 . S
C1161 C1158 1.526 . S
C1161 C1162 1.396 . S
C1161 C1166 1.390 . S
C1162 C1156 1.465 . S
C1162 C1161 1.396 . S
C1162 C1163 1.399 . S
C1163 H1149 0.929 . S
C1163 C1162 1.399 . S
C1163 C1164 1.385 . S
C1164 H1150 0.931 . S
C1164 C1163 1.385 . S
C1164 C1165 1.389 . S
C1165 C1164 1.389 . S
C1165 C1166 1.387 . S
C1166 H1151 0.930 . S
C1166 C1161 1.390 . S
C1166 C1165 1.387 . S
H1167 C1179 0.930 . S
H1168 C1181 0.930 . S
H1169 C1182 0.930 . S
H1170 C1186 0.959 . S
H1171 C1186 0.959 . S
H1172 C1186 0.961 . S
H1173 C1187 0.960 . S
H1174 C1187 0.961 . S
H1175 C1187 0.959 . S
H1176 C1190 0.929 . S
H1177 C1191 0.931 . S
H1178 C1193 0.930 . S
C1179 H1167 0.930 . S
C1179 C1180 1.399 . S
C1179 C1184 1.399 . S
C1180 C1179 1.399 . S
C1180 C1181 1.376 . S
C1181 H1168 0.930 . S
C1181 C1180 1.376 . S
C1181 C1182 1.388 . S
C1182 H1169 0.930 . S
C1182 C1181 1.388 . S
C1182 C1183 1.390 . S
C1183 C1182 1.390 . S
C1183 C1184 1.394 . S
C1183 C1189 1.465 . S
C1184 C1179 1.399 . S
C1184 C1183 1.394 . S
C1184 C1185 1.516 . S
C1185 C1184 1.516 . S
C1185 C1186 1.502 . S
C1185 C1187 1.561 . S
C1185 C1188 1.526 . S
C1186 H1170 0.959 . S
C1186 H1171 0.959 . S
C1186 H1172 0.961 . S
C1186 C1185 1.502 . S
C1187 H1173 0.960 . S
C1187 H1174 0.961 . S
C1187 H1175 0.959 . S
C1187 C1185 1.561 . S
C1188 C1185 1.526 . S
C1188 C1189 1.396 . S
C1188 C1193 1.390 . S
C1189 C1183 1.465 . S
C1189 C1188 1.396 . S
C1189 C1190 1.399 . S
C1190 H1176 0.929 . S
C1190 C1189 1.399 . S
C1190 C1191 1.385 . S
C1191 H1177 0.931 . S
C1191 C1190 1.385 . S
C1191 C1192 1.389 . S
C1192 C1191 1.389 . S
C1192 C1193 1.387 . S
C1193 H1178 0.930 . S
C1193 C1188 1.390 . S
C1193 C1192 1.387 . S
H1194 C1206 0.930 . S
H1195 C1208 0.930 . S
H1196 C1209 0.930 . S
H1197 C1213 0.959 . S
H1198 C1213 0.959 . S
H1199 C1213 0.961 . S
H1200 C1214 0.960 . S
H1201 C1214 0.961 . S
H1202 C1214 0.959 . S
H1203 C1217 0.929 . S
H1204 C1218 0.931 . S
H1205 C1220 0.930 . S
C1206 H1194 0.930 . S
C1206 C1207 1.399 . S
C1206 C1211 1.399 . S
C1207 C1206 1.399 . S
C1207 C1208 1.376 . S
C1208 H1195 0.930 . S
C1208 C1207 1.376 . S
C1208 C1209 1.388 . S
C1209 H1196 0.930 . S
C1209 C1208 1.388 . S
C1209 C1210 1.390 . S
C1210 C1209 1.390 . S
C1210 C1211 1.394 . S
C1210 C1216 1.465 . S
C1211 C1206 1.399 . S
C1211 C1210 1.394 . S
C1211 C1212 1.516 . S
C1212 C1211 1.516 . S
C1212 C1213 1.502 . S
C1212 C1214 1.561 . S
C1212 C1215 1.526 . S
C1213 H1197 0.959 . S
C1213 H1198 0.959 . S
C1213 H1199 0.961 . S
C1213 C1212 1.502 . S
C1214 H1200 0.960 . S
C1214 H1201 0.961 . S
C1214 H1202 0.959 . S
C1214 C1212 1.561 . S
C1215 C1212 1.526 . S
C1215 C1216 1.396 . S
C1215 C1220 1.390 . S
C1216 C1210 1.465 . S
C1216 C1215 1.396 . S
C1216 C1217 1.399 . S
C1217 H1203 0.929 . S
C1217 C1216 1.399 . S
C1217 C1218 1.385 . S
C1218 H1204 0.931 . S
C1218 C1217 1.385 . S
C1218 C1219 1.389 . S
C1219 C1218 1.389 . S
C1219 C1220 1.387 . S
C1220 H1205 0.930 . S
C1220 C1215 1.390 . S
C1220 C1219 1.387 . S
H1221 C1233 0.930 . S
H1222 C1235 0.930 . S
H1223 C1236 0.930 . S
H1224 C1240 0.959 . S
H1225 C1240 0.959 . S
H1226 C1240 0.961 . S
H1227 C1241 0.960 . S
H1228 C1241 0.961 . S
H1229 C1241 0.959 . S
H1230 C1244 0.929 . S
H1231 C1245 0.931 . S
H1232 C1247 0.930 . S
C1233 H1221 0.930 . S
C1233 C1234 1.399 . S
C1233 C1238 1.399 . S
C1234 C1233 1.399 . S
C1234 C1235 1.376 . S
C1235 H1222 0.930 . S
C1235 C1234 1.376 . S
C1235 C1236 1.388 . S
C1236 H1223 0.930 . S
C1236 C1235 1.388 . S
C1236 C1237 1.390 . S
C1237 C1236 1.390 . S
C1237 C1238 1.394 . S
C1237 C1243 1.465 . S
C1238 C1233 1.399 . S
C1238 C1237 1.394 . S
C1238 C1239 1.516 . S
C1239 C1238 1.516 . S
C1239 C1240 1.502 . S
C1239 C1241 1.561 . S
C1239 C1242 1.526 . S
C1240 H1224 0.959 . S
C1240 H1225 0.959 . S
C1240 H1226 0.961 . S
C1240 C1239 1.502 . S
C1241 H1227 0.960 . S
C1241 H1228 0.961 . S
C1241 H1229 0.959 . S
C1241 C1239 1.561 . S
C1242 C1239 1.526 . S
C1242 C1243 1.396 . S
C1242 C1247 1.390 . S
C1243 C1237 1.465 . S
C1243 C1242 1.396 . S
C1243 C1244 1.399 . S
C1244 H1230 0.929 . S
C1244 C1243 1.399 . S
C1244 C1245 1.385 . S
C1245 H1231 0.931 . S
C1245 C1244 1.385 . S
C1245 C1246 1.389 . S
C1246 C1245 1.389 . S
C1246 C1247 1.387 . S
C1247 H1232 0.930 . S
C1247 C1242 1.390 . S
C1247 C1246 1.387 . S
H1248 C1260 0.930 . S
H1249 C1262 0.930 . S
H1250 C1263 0.930 . S
H1251 C1267 0.959 . S
H1252 C1267 0.959 . S
H1253 C1267 0.961 . S
H1254 C1268 0.960 . S
H1255 C1268 0.961 . S
H1256 C1268 0.959 . S
H1257 C1271 0.929 . S
H1258 C1272 0.931 . S
H1259 C1274 0.930 . S
C1260 H1248 0.930 . S
C1260 C1261 1.399 . S
C1260 C1265 1.399 . S
C1261 C1260 1.399 . S
C1261 C1262 1.376 . S
C1262 H1249 0.930 . S
C1262 C1261 1.376 . S
C1262 C1263 1.388 . S
C1263 H1250 0.930 . S
C1263 C1262 1.388 . S
C1263 C1264 1.390 . S
C1264 C1263 1.390 . S
C1264 C1265 1.394 . S
C1264 C1270 1.465 . S
C1265 C1260 1.399 . S
C1265 C1264 1.394 . S
C1265 C1266 1.516 . S
C1266 C1265 1.516 . S
C1266 C1267 1.502 . S
C1266 C1268 1.561 . S
C1266 C1269 1.526 . S
C1267 H1251 0.959 . S
C1267 H1252 0.959 . S
C1267 H1253 0.961 . S
C1267 C1266 1.502 . S
C1268 H1254 0.960 . S
C1268 H1255 0.961 . S
C1268 H1256 0.959 . S
C1268 C1266 1.561 . S
C1269 C1266 1.526 . S
C1269 C1270 1.396 . S
C1269 C1274 1.390 . S
C1270 C1264 1.465 . S
C1270 C1269 1.396 . S
C1270 C1271 1.399 . S
C1271 H1257 0.929 . S
C1271 C1270 1.399 . S
C1271 C1272 1.385 . S
C1272 H1258 0.931 . S
C1272 C1271 1.385 . S
C1272 C1273 1.389 . S
C1273 C1272 1.389 . S
C1273 C1274 1.387 . S
C1274 H1259 0.930 . S
C1274 C1269 1.390 . S
C1274 C1273 1.387 . S
H1275 C1287 0.930 . S
H1276 C1289 0.930 . S
H1277 C1290 0.930 . S
H1278 C1294 0.959 . S
H1279 C1294 0.959 . S
H1280 C1294 0.961 . S
H1281 C1295 0.960 . S
H1282 C1295 0.961 . S
H1283 C1295 0.959 . S
H1284 C1298 0.929 . S
H1285 C1299 0.931 . S
H1286 C1301 0.930 . S
C1287 H1275 0.930 . S
C1287 C1288 1.399 . S
C1287 C1292 1.399 . S
C1288 C1287 1.399 . S
C1288 C1289 1.376 . S
C1289 H1276 0.930 . S
C1289 C1288 1.376 . S
C1289 C1290 1.388 . S
C1290 H1277 0.930 . S
C1290 C1289 1.388 . S
C1290 C1291 1.390 . S
C1291 C1290 1.390 . S
C1291 C1292 1.394 . S
C1291 C1297 1.465 . S
C1292 C1287 1.399 . S
C1292 C1291 1.394 . S
C1292 C1293 1.516 . S
C1293 C1292 1.516 . S
C1293 C1294 1.502 . S
C1293 C1295 1.561 . S
C1293 C1296 1.526 . S
C1294 H1278 0.959 . S
C1294 H1279 0.959 . S
C1294 H1280 0.961 . S
C1294 C1293 1.502 . S
C1295 H1281 0.960 . S
C1295 H1282 0.961 . S
C1295 H1283 0.959 . S
C1295 C1293 1.561 . S
C1296 C1293 1.526 . S
C1296 C1297 1.396 . S
C1296 C1301 1.390 . S
C1297 C1291 1.465 . S
C1297 C1296 1.396 . S
C1297 C1298 1.399 . S
C1298 H1284 0.929 . S
C1298 C1297 1.399 . S
C1298 C1299 1.385 . S
C1299 H1285 0.931 . S
C1299 C1298 1.385 . S
C1299 C1300 1.389 . S
C1300 C1299 1.389 . S
C1300 C1301 1.387 . S
C1301 H1286 0.930 . S
C1301 C1296 1.390 . S
C1301 C1300 1.387 . S
H1302 C1314 0.930 . S
H1303 C1316 0.930 . S
H1304 C1317 0.930 . S
H1305 C1321 0.959 . S
H1306 C1321 0.959 . S
H1307 C1321 0.961 . S
H1308 C1322 0.960 . S
H1309 C1322 0.961 . S
H1310 C1322 0.959 . S
H1311 C1325 0.929 . S
H1312 C1326 0.931 . S
H1313 C1328 0.930 . S
C1314 H1302 0.930 . S
C1314 C1315 1.399 . S
C1314 C1319 1.399 . S
C1315 C1314 1.399 . S
C1315 C1316 1.376 . S
C1316 H1303 0.930 . S
C1316 C1315 1.376 . S
C1316 C1317 1.388 . S
C1317 H1304 0.930 . S
C1317 C1316 1.388 . S
C1317 C1318 1.390 . S
C1318 C1317 1.390 . S
C1318 C1319 1.394 . S
C1318 C1324 1.465 . S
C1319 C1314 1.399 . S
C1319 C1318 1.394 . S
C1319 C1320 1.516 . S
C1320 C1319 1.516 . S
C1320 C1321 1.502 . S
C1320 C1322 1.561 . S
C1320 C1323 1.526 . S
C1321 H1305 0.959 . S
C1321 H1306 0.959 . S
C1321 H1307 0.961 . S
C1321 C1320 1.502 . S
C1322 H1308 0.960 . S
C1322 H1309 0.961 . S
C1322 H1310 0.959 . S
C1322 C1320 1.561 . S
C1323 C1320 1.526 . S
C1323 C1324 1.396 . S
C1323 C1328 1.390 . S
C1324 C1318 1.465 . S
C1324 C1323 1.396 . S
C1324 C1325 1.399 . S
C1325 H1311 0.929 . S
C1325 C1324 1.399 . S
C1325 C1326 1.385 . S
C1326 H1312 0.931 . S
C1326 C1325 1.385 . S
C1326 C1327 1.389 . S
C1327 C1326 1.389 . S
C1327 C1328 1.387 . S
C1328 H1313 0.930 . S
C1328 C1323 1.390 . S
C1328 C1327 1.387 . S
H1329 C1341 0.930 . S
H1330 C1343 0.930 . S
H1331 C1344 0.930 . S
H1332 C1348 0.959 . S
H1333 C1348 0.959 . S
H1334 C1348 0.961 . S
H1335 C1349 0.960 . S
H1336 C1349 0.961 . S
H1337 C1349 0.959 . S
H1338 C1352 0.929 . S
H1339 C1353 0.931 . S
H1340 C1355 0.930 . S
C1341 H1329 0.930 . S
C1341 C1342 1.399 . S
C1341 C1346 1.399 . S
C1342 C1341 1.399 . S
C1342 C1343 1.376 . S
C1343 H1330 0.930 . S
C1343 C1342 1.376 . S
C1343 C1344 1.388 . S
C1344 H1331 0.930 . S
C1344 C1343 1.388 . S
C1344 C1345 1.390 . S
C1345 C1344 1.390 . S
C1345 C1346 1.394 . S
C1345 C1351 1.465 . S
C1346 C1341 1.399 . S
C1346 C1345 1.394 . S
C1346 C1347 1.516 . S
C1347 C1346 1.516 . S
C1347 C1348 1.502 . S
C1347 C1349 1.561 . S
C1347 C1350 1.526 . S
C1348 H1332 0.959 . S
C1348 H1333 0.959 . S
C1348 H1334 0.961 . S
C1348 C1347 1.502 . S
C1349 H1335 0.960 . S
C1349 H1336 0.961 . S
C1349 H1337 0.959 . S
C1349 C1347 1.561 . S
C1350 C1347 1.526 . S
C1350 C1351 1.396 . S
C1350 C1355 1.390 . S
C1351 C1345 1.465 . S
C1351 C1350 1.396 . S
C1351 C1352 1.399 . S
C1352 H1338 0.929 . S
C1352 C1351 1.399 . S
C1352 C1353 1.385 . S
C1353 H1339 0.931 . S
C1353 C1352 1.385 . S
C1353 C1354 1.389 . S
C1354 C1353 1.389 . S
C1354 C1355 1.387 . S
C1355 H1340 0.930 . S
C1355 C1350 1.390 . S
C1355 C1354 1.387 . S
H1356 C1368 0.930 . S
H1357 C1370 0.930 . S
H1358 C1371 0.930 . S
H1359 C1375 0.959 . S
H1360 C1375 0.959 . S
H1361 C1375 0.961 . S
H1362 C1376 0.960 . S
H1363 C1376 0.961 . S
H1364 C1376 0.959 . S
H1365 C1379 0.929 . S
H1366 C1380 0.931 . S
H1367 C1382 0.930 . S
C1368 H1356 0.930 . S
C1368 C1369 1.399 . S
C1368 C1373 1.399 . S
C1369 C1368 1.399 . S
C1369 C1370 1.376 . S
C1370 H1357 0.930 . S
C1370 C1369 1.376 . S
C1370 C1371 1.388 . S
C1371 H1358 0.930 . S
C1371 C1370 1.388 . S
C1371 C1372 1.390 . S
C1372 C1371 1.390 . S
C1372 C1373 1.394 . S
C1372 C1378 1.465 . S
C1373 C1368 1.399 . S
C1373 C1372 1.394 . S
C1373 C1374 1.516 . S
C1374 C1373 1.516 . S
C1374 C1375 1.502 . S
C1374 C1376 1.561 . S
C1374 C1377 1.526 . S
C1375 H1359 0.959 . S
C1375 H1360 0.959 . S
C1375 H1361 0.961 . S
C1375 C1374 1.502 . S
C1376 H1362 0.960 . S
C1376 H1363 0.961 . S
C1376 H1364 0.959 . S
C1376 C1374 1.561 . S
C1377 C1374 1.526 . S
C1377 C1378 1.396 . S
C1377 C1382 1.390 . S
C1378 C1372 1.465 . S
C1378 C1377 1.396 . S
C1378 C1379 1.399 . S
C1379 H1365 0.929 . S
C1379 C1378 1.399 . S
C1379 C1380 1.385 . S
C1380 H1366 0.931 . S
C1380 C1379 1.385 . S
C1380 C1381 1.389 . S
C1381 C1380 1.389 . S
C1381 C1382 1.387 . S
C1382 H1367 0.930 . S
C1382 C1377 1.390 . S
C1382 C1381 1.387 . S
H1383 C1395 0.930 . S
H1384 C1397 0.930 . S
H1385 C1398 0.930 . S
H1386 C1402 0.959 . S
H1387 C1402 0.959 . S
H1388 C1402 0.961 . S
H1389 C1403 0.960 . S
H1390 C1403 0.961 . S
H1391 C1403 0.959 . S
H1392 C1406 0.929 . S
H1393 C1407 0.931 . S
H1394 C1409 0.930 . S
C1395 H1383 0.930 . S
C1395 C1396 1.399 . S
C1395 C1400 1.399 . S
C1396 C1395 1.399 . S
C1396 C1397 1.376 . S
C1397 H1384 0.930 . S
C1397 C1396 1.376 . S
C1397 C1398 1.388 . S
C1398 H1385 0.930 . S
C1398 C1397 1.388 . S
C1398 C1399 1.390 . S
C1399 C1398 1.390 . S
C1399 C1400 1.394 . S
C1399 C1405 1.465 . S
C1400 C1395 1.399 . S
C1400 C1399 1.394 . S
C1400 C1401 1.516 . S
C1401 C1400 1.516 . S
C1401 C1402 1.502 . S
C1401 C1403 1.561 . S
C1401 C1404 1.526 . S
C1402 H1386 0.959 . S
C1402 H1387 0.959 . S
C1402 H1388 0.961 . S
C1402 C1401 1.502 . S
C1403 H1389 0.960 . S
C1403 H1390 0.961 . S
C1403 H1391 0.959 . S
C1403 C1401 1.561 . S
C1404 C1401 1.526 . S
C1404 C1405 1.396 . S
C1404 C1409 1.390 . S
C1405 C1399 1.465 . S
C1405 C1404 1.396 . S
C1405 C1406 1.399 . S
C1406 H1392 0.929 . S
C1406 C1405 1.399 . S
C1406 C1407 1.385 . S
C1407 H1393 0.931 . S
C1407 C1406 1.385 . S
C1407 C1408 1.389 . S
C1408 C1407 1.389 . S
C1408 C1409 1.387 . S
C1409 H1394 0.930 . S
C1409 C1404 1.390 . S
C1409 C1408 1.387 . S
H1410 C1422 0.930 . S
H1411 C1424 0.930 . S
H1412 C1425 0.930 . S
H1413 C1429 0.959 . S
H1414 C1429 0.959 . S
H1415 C1429 0.961 . S
H1416 C1430 0.960 . S
H1417 C1430 0.961 . S
H1418 C1430 0.959 . S
H1419 C1433 0.929 . S
H1420 C1434 0.931 . S
H1421 C1436 0.930 . S
C1422 H1410 0.930 . S
C1422 C1423 1.399 . S
C1422 C1427 1.399 . S
C1423 C1422 1.399 . S
C1423 C1424 1.376 . S
C1424 H1411 0.930 . S
C1424 C1423 1.376 . S
C1424 C1425 1.388 . S
C1425 H1412 0.930 . S
C1425 C1424 1.388 . S
C1425 C1426 1.390 . S
C1426 C1425 1.390 . S
C1426 C1427 1.394 . S
C1426 C1432 1.465 . S
C1427 C1422 1.399 . S
C1427 C1426 1.394 . S
C1427 C1428 1.516 . S
C1428 C1427 1.516 . S
C1428 C1429 1.502 . S
C1428 C1430 1.561 . S
C1428 C1431 1.526 . S
C1429 H1413 0.959 . S
C1429 H1414 0.959 . S
C1429 H1415 0.961 . S
C1429 C1428 1.502 . S
C1430 H1416 0.960 . S
C1430 H1417 0.961 . S
C1430 H1418 0.959 . S
C1430 C1428 1.561 . S
C1431 C1428 1.526 . S
C1431 C1432 1.396 . S
C1431 C1436 1.390 . S
C1432 C1426 1.465 . S
C1432 C1431 1.396 . S
C1432 C1433 1.399 . S
C1433 H1419 0.929 . S
C1433 C1432 1.399 . S
C1433 C1434 1.385 . S
C1434 H1420 0.931 . S
C1434 C1433 1.385 . S
C1434 C1435 1.389 . S
C1435 C1434 1.389 . S
C1435 C1436 1.387 . S
C1436 H1421 0.930 . S
C1436 C1431 1.390 . S
C1436 C1435 1.387 . S
H1437 C1449 0.930 . S
H1438 C1451 0.930 . S
H1439 C1452 0.930 . S
H1440 C1456 0.959 . S
H1441 C1456 0.959 . S
H1442 C1456 0.961 . S
H1443 C1457 0.960 . S
H1444 C1457 0.961 . S
H1445 C1457 0.959 . S
H1446 C1460 0.929 . S
H1447 C1461 0.931 . S
H1448 C1463 0.930 . S
C1449 H1437 0.930 . S
C1449 C1450 1.399 . S
C1449 C1454 1.399 . S
C1450 C1449 1.399 . S
C1450 C1451 1.376 . S
C1451 H1438 0.930 . S
C1451 C1450 1.376 . S
C1451 C1452 1.388 . S
C1452 H1439 0.930 . S
C1452 C1451 1.388 . S
C1452 C1453 1.390 . S
C1453 C1452 1.390 . S
C1453 C1454 1.394 . S
C1453 C1459 1.465 . S
C1454 C1449 1.399 . S
C1454 C1453 1.394 . S
C1454 C1455 1.516 . S
C1455 C1454 1.516 . S
C1455 C1456 1.502 . S
C1455 C1457 1.561 . S
C1455 C1458 1.526 . S
C1456 H1440 0.959 . S
C1456 H1441 0.959 . S
C1456 H1442 0.961 . S
C1456 C1455 1.502 . S
C1457 H1443 0.960 . S
C1457 H1444 0.961 . S
C1457 H1445 0.959 . S
C1457 C1455 1.561 . S
C1458 C1455 1.526 . S
C1458 C1459 1.396 . S
C1458 C1463 1.390 . S
C1459 C1453 1.465 . S
C1459 C1458 1.396 . S
C1459 C1460 1.399 . S
C1460 H1446 0.929 . S
C1460 C1459 1.399 . S
C1460 C1461 1.385 . S
C1461 H1447 0.931 . S
C1461 C1460 1.385 . S
C1461 C1462 1.389 . S
C1462 C1461 1.389 . S
C1462 C1463 1.387 . S
C1463 H1448 0.930 . S
C1463 C1458 1.390 . S
C1463 C1462 1.387 . S
C625 C509 1.433 . S
C613 C35 1.285 . S
C652 C527 1.478 . S
C640 C115 1.398 . S
C679 C535 1.409 . S
C667 C177 1.334 . S
C694 C221 1.406 . S
C706 C501 1.437 . S
C721 C283 1.393 . S
C733 C496 1.410 . S
C748 C363 1.317 . S
C760 C514 1.426 . S
C787 C522 1.427 . S
C775 C407 1.294 . S
C814 C540 1.476 . S
C802 C469 1.404 . S
C829 C159 1.400 . S
C841 C561 1.402 . S
C868 C579 1.430 . S
C856 C239 1.307 . S
C883 C53 1.296 . S
C895 C587 1.446 . S
C922 C553 1.428 . S
C910 C97 1.295 . S
C937 C425 1.300 . S
C949 C548 1.436 . S
C964 C487 1.411 . S
C976 C566 1.465 . S
C1003 C574 1.442 1_556 S
C991 C301 1.301 . S
C1018 C345 1.404 . S
C1030 C592 1.430 . S
C1057 C530 1.673 . S
C1045 C29 1.620 . S
C1084 C545 1.610 . S
C1072 C109 1.639 . S
C1099 C171 1.597 . S
C1111 C504 1.655 . S
C1126 C215 1.618 . S
C1138 C519 1.651 . S
C1153 C277 1.634 . S
C1165 C543 1.673 . S
C1192 C506 1.632 . S
C1180 C357 1.616 . S
C1219 C517 1.674 . S
C1207 C401 1.640 . S
C1246 C532 1.617 . S
C1234 C463 1.665 . S
C1273 C582 1.675 . S
C1261 C153 1.633 . S
C1300 C597 1.646 . S
C1288 C233 1.583 . S
C1315 C47 1.590 . S
C1327 C556 1.655 . S
C1354 C571 1.607 . S
C1342 C91 1.667 . S
C1381 C595 1.656 . S
C1369 C419 1.585 . S
C1396 C481 1.631 . S
C1408 C558 1.620 . S
C1435 C569 1.673 . S
C1423 C295 1.639 . S
C1462 C584 1.650 . S
C1450 C339 1.618 . S
