# Generated by pormake.
# Topology ssb, (4,4)-cn, num edge types: 1
# Building blocks:
#     Node 0, Type 0, BuildingBlock: KUFVIS_clean_linker_0, # of connection points: 4
#     Node 1, Type 0, BuildingBlock: KUFVIS_clean_linker_0, # of connection points: 4
#     Node 2, Type 0, BuildingBlock: KUFVIS_clean_linker_0, # of connection points: 4
#     Node 3, Type 0, BuildingBlock: KUFVIS_clean_linker_0, # of connection points: 4
#     Node 4, Type 0, BuildingBlock: KUFVIS_clean_linker_0, # of connection points: 4
#     Node 5, Type 0, BuildingBlock: KUFVIS_clean_linker_0, # of connection points: 4
#     Node 6, Type 0, BuildingBlock: KUFVIS_clean_linker_0, # of connection points: 4
#     Node 7, Type 0, BuildingBlock: KUFVIS_clean_linker_0, # of connection points: 4
#     Node 8, Type 1, BuildingBlock: KOZSID_clean_sbu_0, # of connection points: 4
#     Node 9, Type 1, BuildingBlock: KOZSID_clean_sbu_0, # of connection points: 4
#     Node 10, Type 1, BuildingBlock: KOZSID_clean_sbu_0, # of connection points: 4
#     Node 11, Type 1, BuildingBlock: KOZSID_clean_sbu_0, # of connection points: 4
#     Node 12, Type 1, BuildingBlock: KOZSID_clean_sbu_0, # of connection points: 4
#     Node 13, Type 1, BuildingBlock: KOZSID_clean_sbu_0, # of connection points: 4
#     Node 14, Type 1, BuildingBlock: KOZSID_clean_sbu_0, # of connection points: 4
#     Node 15, Type 1, BuildingBlock: KOZSID_clean_sbu_0, # of connection points: 4
#     Edge 16, Type (0, 1), BuildingBlock: XIVTED_clean_linker_0, # of connection points: 2
#     Edge 17, Type (0, 1), BuildingBlock: XIVTED_clean_linker_0, # of connection points: 2
#     Edge 18, Type (0, 1), BuildingBlock: XIVTED_clean_linker_0, # of connection points: 2
#     Edge 19, Type (0, 1), BuildingBlock: XIVTED_clean_linker_0, # of connection points: 2
#     Edge 20, Type (0, 1), BuildingBlock: XIVTED_clean_linker_0, # of connection points: 2
#     Edge 21, Type (0, 1), BuildingBlock: XIVTED_clean_linker_0, # of connection points: 2
#     Edge 22, Type (0, 1), BuildingBlock: XIVTED_clean_linker_0, # of connection points: 2
#     Edge 23, Type (0, 1), BuildingBlock: XIVTED_clean_linker_0, # of connection points: 2
#     Edge 24, Type (0, 1), BuildingBlock: XIVTED_clean_linker_0, # of connection points: 2
#     Edge 25, Type (0, 1), BuildingBlock: XIVTED_clean_linker_0, # of connection points: 2
#     Edge 26, Type (0, 1), BuildingBlock: XIVTED_clean_linker_0, # of connection points: 2
#     Edge 27, Type (0, 1), BuildingBlock: XIVTED_clean_linker_0, # of connection points: 2
#     Edge 28, Type (0, 1), BuildingBlock: XIVTED_clean_linker_0, # of connection points: 2
#     Edge 29, Type (0, 1), BuildingBlock: XIVTED_clean_linker_0, # of connection points: 2
#     Edge 30, Type (0, 1), BuildingBlock: XIVTED_clean_linker_0, # of connection points: 2
#     Edge 31, Type (0, 1), BuildingBlock: XIVTED_clean_linker_0, # of connection points: 2
#     Edge 32, Type (0, 1), BuildingBlock: XIVTED_clean_linker_0, # of connection points: 2
#     Edge 33, Type (0, 1), BuildingBlock: XIVTED_clean_linker_0, # of connection points: 2
#     Edge 34, Type (0, 1), BuildingBlock: XIVTED_clean_linker_0, # of connection points: 2
#     Edge 35, Type (0, 1), BuildingBlock: XIVTED_clean_linker_0, # of connection points: 2
#     Edge 36, Type (0, 1), BuildingBlock: XIVTED_clean_linker_0, # of connection points: 2
#     Edge 37, Type (0, 1), BuildingBlock: XIVTED_clean_linker_0, # of connection points: 2
#     Edge 38, Type (0, 1), BuildingBlock: XIVTED_clean_linker_0, # of connection points: 2
#     Edge 39, Type (0, 1), BuildingBlock: XIVTED_clean_linker_0, # of connection points: 2
#     Edge 40, Type (0, 1), BuildingBlock: XIVTED_clean_linker_0, # of connection points: 2
#     Edge 41, Type (0, 1), BuildingBlock: XIVTED_clean_linker_0, # of connection points: 2
#     Edge 42, Type (0, 1), BuildingBlock: XIVTED_clean_linker_0, # of connection points: 2
#     Edge 43, Type (0, 1), BuildingBlock: XIVTED_clean_linker_0, # of connection points: 2
#     Edge 44, Type (0, 1), BuildingBlock: XIVTED_clean_linker_0, # of connection points: 2
#     Edge 45, Type (0, 1), BuildingBlock: XIVTED_clean_linker_0, # of connection points: 2
#     Edge 46, Type (0, 1), BuildingBlock: XIVTED_clean_linker_0, # of connection points: 2
#     Edge 47, Type (0, 1), BuildingBlock: XIVTED_clean_linker_0, # of connection points: 2
# Relax obj value: 0.003
# Max RMSD: 0.066
# Mean RMSD: 0.032
data_MOF--net-ssb--node1-KOZSID_clean_sbu_0--node2-KUFVIS_clean_linker_0--edge1-XIVTED_clean_linker_0
_symmetry_space_group_name_H-M    P1
_symmetry_Int_Tables_number       1
_symmetry_cell_setting            triclinic
loop_
_symmetry_equiv_pos_as_xyz
'x, y, z'
_cell_length_a     54.66869
_cell_length_b     54.577343
_cell_length_c     40.141452
_cell_angle_alpha  92.574162
_cell_angle_beta   95.021847
_cell_angle_gamma 89.986344
loop_
_atom_site_label
_atom_site_type_symbol
_atom_site_fract_x
_atom_site_fract_y
_atom_site_fract_z
_atom_type_partial_charge
H0 H 0.22356 0.20946 0.36644 0.0
H1 H 0.27333 0.20932 0.29037 0.0
H2 H 0.22612 0.27219 0.3065 0.0
H3 H 0.23306 0.28297 0.2568 0.0
H4 H 0.29448 0.29281 0.19967 0.0
H5 H 0.29621 0.23453 0.2674 0.0
C6 C 0.23125 0.21881 0.34645 0.0
C7 C 0.22248 0.242 0.33784 0.0
C8 C 0.2498 0.20729 0.32993 0.0
C9 C 0.2595 0.21904 0.30329 0.0
C10 C 0.25127 0.24284 0.29371 0.0
C11 C 0.23254 0.25392 0.31168 0.0
C12 C 0.26272 0.25643 0.26633 0.0
C13 C 0.25106 0.27702 0.2508 0.0
C14 C 0.26272 0.29038 0.22718 0.0
C15 C 0.28569 0.28276 0.2181 0.0
C16 C 0.29742 0.26235 0.23198 0.0
C17 C 0.28608 0.24946 0.2561 0.0
H18 H 0.69798 0.29969 0.21118 0.0
H19 H 0.76667 0.30188 0.27073 0.0
H20 H 0.71834 0.23854 0.26939 0.0
H21 H 0.7364 0.23061 0.31589 0.0
H22 H 0.80842 0.22406 0.36471 0.0
H23 H 0.79438 0.2811 0.29655 0.0
C24 C 0.71097 0.29118 0.22909 0.0
C25 C 0.70536 0.26836 0.24074 0.0
C26 C 0.73356 0.30257 0.23864 0.0
C27 C 0.74992 0.29203 0.26284 0.0
C28 C 0.74491 0.26888 0.27544 0.0
C29 C 0.72267 0.25686 0.26273 0.0
C30 C 0.76275 0.25708 0.30097 0.0
C31 C 0.7552 0.23688 0.31852 0.0
C32 C 0.77158 0.22458 0.34075 0.0
C33 C 0.7956 0.23333 0.34738 0.0
C34 C 0.80338 0.2541 0.33223 0.0
C35 C 0.78729 0.26567 0.30861 0.0
H36 H 0.8013 0.80556 0.34693 0.0
H37 H 0.79362 0.74183 0.28151 0.0
H38 H 0.73084 0.78879 0.2963 0.0
H39 H 0.71507 0.77311 0.24967 0.0
H40 H 0.70335 0.70522 0.19362 0.0
H41 H 0.76947 0.715 0.25767 0.0
C42 C 0.7898 0.79398 0.32931 0.0
C43 C 0.76511 0.80006 0.3221 0.0
C44 C 0.79957 0.77255 0.31553 0.0
C45 C 0.78488 0.75749 0.29268 0.0
C46 C 0.75984 0.76285 0.28423 0.0
C47 C 0.75003 0.78414 0.30037 0.0
C48 C 0.74439 0.74648 0.25873 0.0
C49 C 0.72158 0.75483 0.24408 0.0
C50 C 0.70662 0.73976 0.22154 0.0
C51 C 0.71467 0.71643 0.21194 0.0
C52 C 0.73769 0.70789 0.22405 0.0
C53 C 0.75229 0.72266 0.24784 0.0
H54 H 0.1928 0.80801 0.30298 0.0
H55 H 0.2521 0.80042 0.24071 0.0
H56 H 0.21008 0.73673 0.2626 0.0
H57 H 0.22145 0.72353 0.21252 0.0
H58 H 0.28969 0.71242 0.16926 0.0
H59 H 0.28213 0.77418 0.2369 0.0
C60 C 0.20361 0.79656 0.28709 0.0
C61 C 0.19832 0.77146 0.28283 0.0
C62 C 0.22355 0.80675 0.27296 0.0
C63 C 0.23768 0.79184 0.25292 0.0
C64 C 0.23343 0.76638 0.24883 0.0
C65 C 0.21369 0.75626 0.26452 0.0
C66 C 0.24952 0.75088 0.22793 0.0
C67 C 0.24023 0.72927 0.2108 0.0
C68 C 0.25471 0.71541 0.18986 0.0
C69 C 0.27864 0.72306 0.18578 0.0
C70 C 0.28839 0.74444 0.20224 0.0
C71 C 0.27397 0.75811 0.2236 0.0
H72 H 0.29695 0.72557 0.84819 0.0
H73 H 0.24105 0.72663 0.76708 0.0
H74 H 0.29144 0.78818 0.78765 0.0
H75 H 0.28176 0.79877 0.73671 0.0
H76 H 0.21686 0.80831 0.67072 0.0
H77 H 0.21745 0.75275 0.74216 0.0
C78 C 0.28775 0.73504 0.82746 0.0
C79 C 0.2965 0.75793 0.81939 0.0
C80 C 0.26754 0.72394 0.80913 0.0
C81 C 0.25601 0.73609 0.78162 0.0
C82 C 0.26434 0.75964 0.77276 0.0
C83 C 0.28475 0.77016 0.79241 0.0
C84 C 0.25165 0.77345 0.74393 0.0
C85 C 0.26306 0.79334 0.7289 0.0
C86 C 0.25044 0.80617 0.70269 0.0
C87 C 0.2266 0.79887 0.69107 0.0
C88 C 0.2152 0.77935 0.70498 0.0
C89 C 0.22744 0.76703 0.73135 0.0
H90 H 0.28969 0.28677 0.90106 0.0
H91 H 0.28064 0.22368 0.83394 0.0
H92 H 0.2371 0.2889 0.81606 0.0
H93 H 0.21169 0.26446 0.78552 0.0
H94 H 0.21882 0.21496 0.70103 0.0
H95 H 0.2761 0.21848 0.78034 0.0
C96 C 0.28015 0.27738 0.87932 0.0
C97 C 0.26159 0.28967 0.86059 0.0
C98 C 0.28762 0.2539 0.86918 0.0
C99 C 0.27542 0.24227 0.8404 0.0
C100 C 0.25695 0.25455 0.82042 0.0
C101 C 0.2505 0.2785 0.83094 0.0
C102 C 0.24555 0.24312 0.78784 0.0
C103 C 0.22248 0.25092 0.77291 0.0
C104 C 0.21323 0.24151 0.741 0.0
C105 C 0.22632 0.22311 0.7249 0.0
C106 C 0.24842 0.21433 0.73989 0.0
C107 C 0.25823 0.22472 0.77061 0.0
H108 H 0.70954 0.29371 0.85756 0.0
H109 H 0.76634 0.29339 0.79102 0.0
H110 H 0.71577 0.23168 0.79031 0.0
H111 H 0.72715 0.22002 0.74279 0.0
H112 H 0.79064 0.21265 0.6883 0.0
H113 H 0.78946 0.2696 0.76442 0.0
C114 C 0.71877 0.28459 0.83761 0.0
C115 C 0.70991 0.262 0.82388 0.0
C116 C 0.73948 0.29553 0.8265 0.0
C117 C 0.75106 0.28391 0.79994 0.0
C118 C 0.74308 0.26039 0.78586 0.0
C119 C 0.72248 0.24963 0.79904 0.0
C120 C 0.75616 0.24704 0.75817 0.0
C121 C 0.74537 0.22638 0.73913 0.0
C122 C 0.75775 0.21387 0.714 0.0
C123 C 0.78098 0.22214 0.70751 0.0
C124 C 0.79211 0.24237 0.72529 0.0
C125 C 0.77984 0.25463 0.75051 0.0
H126 H 0.71202 0.70218 0.83021 0.0
H127 H 0.77235 0.71272 0.7714 0.0
H128 H 0.72685 0.77413 0.79934 0.0
H129 H 0.73739 0.78943 0.75444 0.0
H130 H 0.80355 0.80679 0.71159 0.0
H131 H 0.79934 0.73968 0.76201 0.0
C132 C 0.72272 0.71422 0.8163 0.0
C133 C 0.71644 0.73902 0.81482 0.0
C134 C 0.74342 0.70509 0.80173 0.0
C135 C 0.7573 0.72067 0.78385 0.0
C136 C 0.75161 0.74582 0.7819 0.0
C137 C 0.7314 0.75486 0.79872 0.0
C138 C 0.7664 0.76243 0.76219 0.0
C139 C 0.75613 0.78453 0.75062 0.0
C140 C 0.76977 0.80081 0.73363 0.0
C141 C 0.79352 0.79457 0.72613 0.0
C142 C 0.80383 0.77211 0.73524 0.0
C143 C 0.79051 0.75636 0.75392 0.0
C144 C 0.04539 0.29338 0.59181 0.0
C145 C 0.05412 0.31561 0.6063 0.0
C146 C 0.04142 0.33353 0.58971 0.0
C147 C 0.02571 0.32128 0.56618 0.0
N148 N 0.02732 0.29659 0.56698 0.0
Co149 Co 0.00859 0.27188 0.53611 0.0
N150 N 0.99086 0.2983 0.51051 0.0
C151 C 0.99348 0.3228 0.51639 0.0
C152 C 0.97875 0.33645 0.49502 0.0
C153 C 0.96562 0.3197 0.4745 0.0
C154 C 0.97303 0.29668 0.48474 0.0
N155 N 0.99023 0.24713 0.50479 0.0
C156 C 0.97244 0.25029 0.47951 0.0
C157 C 0.96401 0.22794 0.46495 0.0
C158 C 0.97694 0.21011 0.4814 0.0
C159 C 0.99238 0.22243 0.50514 0.0
N160 N 0.02597 0.24542 0.5622 0.0
C161 C 0.02285 0.22091 0.55696 0.0
C162 C 0.03757 0.20729 0.57839 0.0
C163 C 0.0511 0.22406 0.5984 0.0
C164 C 0.04379 0.24706 0.58798 0.0
N165 N 0.98164 0.27153 0.56659 0.0
C166 C 0.94348 0.27029 0.60997 0.0
C167 C 0.95222 0.24881 0.59494 0.0
C168 C 0.97102 0.24983 0.57364 0.0
C169 C 0.95406 0.29253 0.60253 0.0
C170 C 0.973 0.29272 0.58103 0.0
N171 N 0.03563 0.27216 0.50577 0.0
C172 C 0.06686 0.25029 0.47726 0.0
C173 C 0.07652 0.27216 0.46721 0.0
C174 C 0.06485 0.29404 0.47574 0.0
C175 C 0.04469 0.29365 0.49512 0.0
C176 C 0.04647 0.25068 0.49595 0.0
H177 H 0.03703 0.31098 0.50167 0.0
H178 H 0.04007 0.23332 0.50254 0.0
H179 H 0.97655 0.23274 0.56308 0.0
H180 H 0.98038 0.31022 0.57647 0.0
C181 C 0.00982 0.33242 0.54234 0.0
C182 C 0.05532 0.2698 0.60206 0.0
C183 C 0.96215 0.27391 0.46958 0.0
C184 C 0.00744 0.21127 0.52996 0.0
H185 H 0.06842 0.31852 0.6265 0.0
H186 H 0.04367 0.35317 0.5939 0.0
H187 H 0.97755 0.35624 0.4946 0.0
H188 H 0.95195 0.32396 0.45446 0.0
H189 H 0.94956 0.22467 0.44509 0.0
H190 H 0.97473 0.19047 0.47732 0.0
H191 H 0.03888 0.18751 0.57872 0.0
H192 H 0.0652 0.21979 0.61788 0.0
H193 H 0.94435 0.23112 0.59913 0.0
H194 H 0.94805 0.30971 0.61359 0.0
H195 H 0.07508 0.23284 0.47078 0.0
H196 H 0.07175 0.31144 0.46847 0.0
C197 C 0.70875 0.04461 0.56169 0.0
C198 C 0.68575 0.05382 0.56732 0.0
C199 C 0.66899 0.03927 0.54853 0.0
C200 C 0.68261 0.02202 0.53259 0.0
N201 N 0.7071 0.02458 0.54012 0.0
Co202 Co 0.73343 0.00329 0.52217 0.0
N203 N 0.70887 0.98302 0.49248 0.0
C204 C 0.68429 0.98648 0.489 0.0
C205 C 0.67206 0.9703 0.46632 0.0
C206 C 0.68985 0.95555 0.45456 0.0
C207 C 0.71204 0.96345 0.471 0.0
N208 N 0.75978 0.98161 0.50496 0.0
C209 C 0.75819 0.96166 0.48324 0.0
C210 C 0.78109 0.95119 0.4801 0.0
C211 C 0.7977 0.96509 0.50002 0.0
C212 C 0.78413 0.98307 0.51447 0.0
N213 N 0.75812 0.024 0.55109 0.0
C214 C 0.78282 0.02132 0.55344 0.0
C215 C 0.79517 0.03873 0.57408 0.0
C216 C 0.77737 0.05366 0.58537 0.0
C217 C 0.75506 0.04443 0.57096 0.0
N218 N 0.7305 0.98084 0.55909 0.0
C219 C 0.72715 0.94779 0.61031 0.0
C220 C 0.74961 0.95824 0.60461 0.0
C221 C 0.75084 0.97454 0.57918 0.0
C222 C 0.70625 0.95448 0.59033 0.0
C223 C 0.7083 0.97103 0.56514 0.0
N224 N 0.73637 0.02594 0.48562 0.0
C225 C 0.76204 0.05255 0.45724 0.0
C226 C 0.74158 0.06578 0.44516 0.0
C227 C 0.7183 0.05726 0.45073 0.0
C228 C 0.71612 0.03727 0.47081 0.0
C229 C 0.75902 0.03263 0.47697 0.0
H230 H 0.69796 0.032 0.47516 0.0
H231 H 0.77535 0.02363 0.48605 0.0
H232 H 0.76858 0.98147 0.57604 0.0
H233 H 0.69173 0.9754 0.55074 0.0
C234 C 0.67315 0.00443 0.50848 0.0
C235 C 0.73157 0.05599 0.5767 0.0
C236 C 0.73556 0.95177 0.46524 0.0
C237 C 0.7938 1.00196 0.53639 0.0
H238 H 0.68158 0.06966 0.58299 0.0
H239 H 0.64923 0.0414 0.54613 0.0
H240 H 0.6525 0.96922 0.45936 0.0
H241 H 0.68678 0.94061 0.43602 0.0
H242 H 0.78542 0.93506 0.4651 0.0
H243 H 0.81736 0.96238 0.50357 0.0
H244 H 0.81481 0.04042 0.58011 0.0
H245 H 0.78045 0.06963 0.6022 0.0
H246 H 0.76644 0.95327 0.61897 0.0
H247 H 0.68841 0.94691 0.59399 0.0
H248 H 0.78041 0.05807 0.45249 0.0
H249 H 0.70191 0.06678 0.44132 0.0
C250 C 0.04388 0.7711 0.56296 0.0
C251 C 0.05345 0.79412 0.57311 0.0
C252 C 0.03929 0.81087 0.55632 0.0
C253 C 0.02216 0.79727 0.53663 0.0
N254 N 0.02438 0.77277 0.53986 0.0
Co255 Co 0.00468 0.74634 0.51338 0.0
N256 N 0.98438 0.77118 0.488 0.0
C257 C 0.9857 0.79587 0.49267 0.0
C258 C 0.9686 0.80821 0.47295 0.0
C259 C 0.95549 0.79037 0.45448 0.0
C260 C 0.9656 0.76804 0.46378 0.0
N261 N 0.98545 0.71994 0.48616 0.0
C262 C 0.96732 0.72162 0.46102 0.0
C263 C 0.95978 0.69865 0.44775 0.0
C264 C 0.97339 0.68185 0.46535 0.0
C265 C 0.98854 0.69544 0.48808 0.0
N266 N 0.02453 0.72155 0.53941 0.0
C267 C 0.02177 0.69689 0.53681 0.0
C268 C 0.03746 0.68462 0.5587 0.0
C269 C 0.05118 0.7025 0.5763 0.0
C270 C 0.04317 0.72472 0.56384 0.0
N271 N 0.98026 0.74671 0.54758 0.0
C272 C 0.94506 0.74745 0.59548 0.0
C273 C 0.9527 0.72536 0.58072 0.0
C274 C 0.9701 0.72541 0.55708 0.0
C275 C 0.95554 0.76913 0.58584 0.0
C276 C 0.97294 0.76834 0.56225 0.0
N277 N 0.02907 0.74595 0.47924 0.0
C278 C 0.0575 0.72409 0.44556 0.0
C279 C 0.06389 0.74573 0.43102 0.0
C280 C 0.05258 0.76745 0.44121 0.0
C281 C 0.03546 0.76716 0.46511 0.0
C282 C 0.04012 0.72459 0.46928 0.0
H283 H 0.0277 0.78439 0.47182 0.0
H284 H 0.03589 0.70745 0.47917 0.0
H285 H 0.975 0.70795 0.54682 0.0
H286 H 0.98007 0.78555 0.55617 0.0
C287 C 0.00376 0.807 0.51494 0.0
C288 C 0.05419 0.74825 0.5756 0.0
C289 C 0.95667 0.74444 0.44892 0.0
C290 C 0.00525 0.68574 0.51226 0.0
H291 H 0.06919 0.79852 0.59056 0.0
H292 H 0.04139 0.83063 0.558 0.0
H293 H 0.96602 0.82784 0.47204 0.0
H294 H 0.94018 0.79357 0.43627 0.0
H295 H 0.94584 0.69445 0.42747 0.0
H296 H 0.97228 0.66207 0.46208 0.0
H297 H 0.03899 0.665 0.5612 0.0
H298 H 0.06562 0.69948 0.59587 0.0
H299 H 0.94548 0.70798 0.58752 0.0
H300 H 0.95007 0.78683 0.59594 0.0
H301 H 0.06556 0.70674 0.43833 0.0
H302 H 0.05714 0.7848 0.43116 0.0
C303 C 0.29844 0.96383 0.5571 0.0
C304 C 0.32128 0.95399 0.56646 0.0
C305 C 0.33817 0.96747 0.55197 0.0
C306 C 0.32481 0.98482 0.53473 0.0
N307 N 0.30035 0.98326 0.53722 0.0
Co308 Co 0.27451 0.00554 0.51646 0.0
N309 N 0.29939 0.02508 0.49443 0.0
C310 C 0.32389 0.02104 0.49613 0.0
C311 C 0.33634 0.03662 0.47773 0.0
C312 C 0.3188 0.05153 0.4633 0.0
C313 C 0.29651 0.04433 0.47395 0.0
N314 N 0.24867 0.02797 0.4961 0.0
C315 C 0.25049 0.04733 0.47614 0.0
C316 C 0.22782 0.05828 0.46895 0.0
C317 C 0.21109 0.04523 0.48427 0.0
C318 C 0.22438 0.02724 0.5002 0.0
N319 N 0.24956 0.98576 0.53799 0.0
C320 C 0.22498 0.98935 0.53552 0.0
C321 C 0.21231 0.97281 0.55216 0.0
C322 C 0.22979 0.95767 0.56618 0.0
C323 C 0.25228 0.96596 0.55747 0.0
N324 N 0.27876 0.02801 0.55676 0.0
C325 C 0.2839 0.06442 0.60855 0.0
C326 C 0.26113 0.05355 0.59909 0.0
C327 C 0.25897 0.03557 0.57322 0.0
C328 C 0.3043 0.05589 0.59314 0.0
C329 C 0.3014 0.03749 0.56786 0.0
N330 N 0.27034 0.98333 0.476 0.0
C331 C 0.24417 0.9615 0.43298 0.0
C332 C 0.26458 0.95235 0.41783 0.0
C333 C 0.28789 0.95925 0.43218 0.0
C334 C 0.29032 0.97436 0.46118 0.0
C335 C 0.24745 0.97697 0.46164 0.0
H336 H 0.30858 0.97846 0.47113 0.0
H337 H 0.23119 0.98341 0.47182 0.0
H338 H 0.24099 0.02859 0.56646 0.0
H339 H 0.31767 0.03168 0.55724 0.0
C340 C 0.33461 1.00243 0.51533 0.0
C341 C 0.27559 0.95423 0.56826 0.0
C342 C 0.27314 0.05619 0.46349 0.0
C343 C 0.21445 0.00893 0.51822 0.0
H344 H 0.32534 0.93868 0.58222 0.0
H345 H 0.35786 0.96489 0.55374 0.0
H346 H 0.35585 0.037 0.47498 0.0
H347 H 0.32208 0.06596 0.44661 0.0
H348 H 0.22371 0.07408 0.45415 0.0
H349 H 0.19152 0.04842 0.48372 0.0
H350 H 0.1927 0.97193 0.55401 0.0
H351 H 0.22632 0.94225 0.58117 0.0
H352 H 0.24482 0.05971 0.61047 0.0
H353 H 0.32235 0.06366 0.60021 0.0
H354 H 0.22568 0.95638 0.42336 0.0
H355 H 0.30434 0.95302 0.42124 0.0
C356 C 0.54195 0.79553 0.07312 0.0
C357 C 0.55045 0.81728 0.08942 0.0
C358 C 0.53854 0.83586 0.07327 0.0
C359 C 0.52333 0.82447 0.04837 0.0
N360 N 0.52466 0.79971 0.04772 0.0
Co361 Co 0.50484 0.77603 0.01661 0.0
N362 N 0.48798 0.80348 0.9922 0.0
C363 C 0.49248 0.82776 0.99743 0.0
C364 C 0.47781 0.84218 0.97697 0.0
C365 C 0.46285 0.82616 0.9577 0.0
C366 C 0.46929 0.80284 0.96765 0.0
N367 N 0.4844 0.75236 0.98614 0.0
C368 C 0.46559 0.75667 0.96287 0.0
C369 C 0.45541 0.73503 0.94835 0.0
C370 C 0.46798 0.71632 0.96335 0.0
C371 C 0.485 0.72757 0.98608 0.0
N372 N 0.52218 0.74854 0.0404 0.0
C373 C 0.51918 0.7242 0.03305 0.0
C374 C 0.53467 0.70975 0.05224 0.0
C375 C 0.54858 0.72574 0.07297 0.0
C376 C 0.54055 0.74919 0.06545 0.0
N377 N 0.47883 0.77619 0.04838 0.0
C378 C 0.44084 0.77567 0.09195 0.0
C379 C 0.4511 0.7539 0.07992 0.0
C380 C 0.46985 0.75458 0.05852 0.0
C381 C 0.45009 0.7978 0.08179 0.0
C382 C 0.46897 0.79765 0.06023 0.0
N383 N 0.53096 0.77573 0.98479 0.0
C384 C 0.5559 0.75316 0.94705 0.0
C385 C 0.56937 0.77415 0.94171 0.0
C386 C 0.56313 0.7961 0.95824 0.0
C387 C 0.54394 0.7965 0.97934 0.0
C388 C 0.53704 0.75435 0.96833 0.0
H389 H 0.54003 0.8138 0.99108 0.0
H390 H 0.52788 0.73756 0.97124 0.0
H391 H 0.47661 0.73729 0.05023 0.0
H392 H 0.47523 0.81508 0.05334 0.0
C393 C 0.5086 0.83652 0.02415 0.0
C394 C 0.55142 0.77149 0.0821 0.0
C395 C 0.45618 0.7808 0.95453 0.0
C396 C 0.50157 0.71543 0.00804 0.0
H397 H 0.56411 0.81951 0.11054 0.0
H398 H 0.54096 0.85536 0.07869 0.0
H399 H 0.47738 0.86201 0.977 0.0
H400 H 0.44835 0.8311 0.93912 0.0
H401 H 0.44021 0.73301 0.92923 0.0
H402 H 0.46481 0.69684 0.95865 0.0
H403 H 0.5359 0.68994 0.05104 0.0
H404 H 0.56319 0.7206 0.09121 0.0
H405 H 0.44436 0.73622 0.08635 0.0
H406 H 0.44296 0.8152 0.09058 0.0
H407 H 0.56018 0.73558 0.9354 0.0
H408 H 0.57284 0.81295 0.95472 0.0
C409 C 0.20949 0.53912 0.06156 0.0
C410 C 0.18615 0.54562 0.06978 0.0
C411 C 0.17 0.53233 0.04827 0.0
C412 C 0.18437 0.51859 0.0283 0.0
N413 N 0.20874 0.52201 0.03603 0.0
Co414 Co 0.23623 0.50622 0.01314 0.0
N415 N 0.21247 0.48867 0.97945 0.0
C416 C 0.18771 0.49046 0.97664 0.0
C417 C 0.17642 0.47581 0.9512 0.0
C418 C 0.19508 0.46364 0.93724 0.0
C419 C 0.21667 0.47163 0.95515 0.0
N420 N 0.26371 0.49009 0.99056 0.0
C421 C 0.26281 0.47255 0.96556 0.0
C422 C 0.2861 0.46529 0.95806 0.0
C423 C 0.30236 0.47851 0.97951 0.0
C424 C 0.2881 0.49295 0.99881 0.0
N425 N 0.25999 0.52412 0.04652 0.0
C426 C 0.28481 0.52297 0.04865 0.0
C427 C 0.29608 0.53809 0.07358 0.0
C428 C 0.27735 0.54994 0.08783 0.0
C429 C 0.25571 0.5413 0.07066 0.0
N430 N 0.23563 0.47782 0.0433 0.0
C431 C 0.2355 0.4374 0.08601 0.0
C432 C 0.25716 0.44997 0.08131 0.0
C433 C 0.25684 0.46971 0.06007 0.0
C434 C 0.21385 0.44541 0.06848 0.0
C435 C 0.2143 0.46551 0.04763 0.0
N436 N 0.237 0.53459 0.98296 0.0
C437 C 0.26022 0.56413 0.9547 0.0
C438 C 0.23882 0.57454 0.93964 0.0
C439 C 0.21639 0.56465 0.94728 0.0
C440 C 0.2159 0.5449 0.96872 0.0
C441 C 0.25891 0.54453 0.97591 0.0
H442 H 0.19821 0.53824 0.9734 0.0
H443 H 0.276 0.5378 0.98643 0.0
H444 H 0.27413 0.47803 0.05752 0.0
H445 H 0.19714 0.47079 0.03524 0.0
C446 C 0.17557 0.50416 1.00025 0.0
C447 C 0.23169 0.5511 0.07679 0.0
C448 C 0.24045 0.46096 0.95008 0.0
C449 C 0.29698 0.50831 0.02596 0.0
H450 H 0.18132 0.55912 0.08864 0.0
H451 H 0.15016 0.53331 0.04655 0.0
H452 H 0.15692 0.4735 0.94451 0.0
H453 H 0.19305 0.44982 0.91698 0.0
H454 H 0.29079 0.4514 0.93962 0.0
H455 H 0.32219 0.47718 0.98151 0.0
H456 H 0.31558 0.54067 0.08002 0.0
H457 H 0.27934 0.56382 0.10802 0.0
H458 H 0.27457 0.44437 0.09358 0.0
H459 H 0.19649 0.4365 0.07121 0.0
H460 H 0.27813 0.57127 0.95058 0.0
H461 H 0.19918 0.57179 0.93636 0.0
C462 C 0.46783 0.2445 0.98728 0.0
C463 C 0.46137 0.26602 0.97166 0.0
C464 C 0.48031 0.28228 0.98 0.0
C465 C 0.4972 0.26978 1.0001 0.0
N466 N 0.49004 0.24674 0.00489 0.0
Co467 Co 0.50853 0.22242 0.03232 0.0
N468 N 0.52893 0.24846 0.05729 0.0
C469 C 0.53182 0.27144 0.04722 0.0
C470 C 0.54801 0.28521 0.06833 0.0
C471 C 0.55614 0.26986 0.09296 0.0
C472 C 0.54436 0.24743 0.08555 0.0
N473 N 0.52692 0.19791 0.05971 0.0
C474 C 0.54203 0.20107 0.08823 0.0
C475 C 0.55073 0.17865 0.09926 0.0
C476 C 0.54142 0.16104 0.07624 0.0
C477 C 0.52737 0.17354 0.05267 0.0
N478 N 0.48819 0.19657 0.00692 0.0
C479 C 0.49334 0.17249 0.00475 0.0
C480 C 0.47537 0.15908 0.98601 0.0
C481 C 0.45785 0.17581 0.97582 0.0
C482 C 0.46621 0.19855 0.98888 0.0
N483 N 0.53293 0.2196 0.99913 0.0
C484 C 0.56824 0.22023 0.95224 0.0
C485 C 0.54305 0.22001 0.94184 0.0
C486 C 0.52574 0.21947 0.96559 0.0
C487 C 0.57527 0.21926 0.98656 0.0
C488 C 0.55745 0.21903 0.00945 0.0
N489 N 0.48418 0.22546 0.06536 0.0
C490 C 0.45584 0.20707 0.0998 0.0
C491 C 0.44722 0.23026 0.10981 0.0
C492 C 0.45789 0.25095 0.09728 0.0
C493 C 0.4763 0.24817 0.07535 0.0
C494 C 0.47426 0.20508 0.07764 0.0
H495 H 0.48384 0.26447 0.06598 0.0
H496 H 0.48028 0.18702 0.07017 0.0
H497 H 0.50651 0.21952 0.95684 0.0
H498 H 0.56367 0.21907 0.03562 0.0
C499 C 0.51721 0.28017 0.01986 0.0
C500 C 0.45339 0.22179 0.98323 0.0
C501 C 0.55092 0.22492 0.10316 0.0
C502 C 0.5121 0.16284 0.02615 0.0
H503 H 0.44476 0.26955 0.95593 0.0
H504 H 0.4811 0.30127 0.97345 0.0
H505 H 0.55318 0.30418 0.06623 0.0
H506 H 0.56983 0.27453 0.11335 0.0
H507 H 0.56303 0.1754 0.12122 0.0
H508 H 0.54419 0.14143 0.07699 0.0
H509 H 0.4744 0.13936 0.98188 0.0
H510 H 0.44078 0.17165 0.96093 0.0
H511 H 0.53672 0.22044 0.91554 0.0
H512 H 0.59447 0.21965 0.99589 0.0
H513 H 0.44851 0.19051 0.10906 0.0
H514 H 0.45171 0.26928 0.10366 0.0
C515 C 0.74011 0.54894 0.05885 0.0
C516 C 0.7175 0.55971 0.06317 0.0
C517 C 0.70026 0.54598 0.04411 0.0
C518 C 0.71319 0.52779 0.02898 0.0
N519 N 0.73774 0.52909 0.03701 0.0
Co520 Co 0.76323 0.50652 0.01938 0.0
N521 N 0.7376 0.48592 0.99197 0.0
C522 C 0.71301 0.48935 0.99015 0.0
C523 C 0.69993 0.47223 0.9699 0.0
C524 C 0.71713 0.45687 0.95797 0.0
C525 C 0.73987 0.46559 0.97154 0.0
N526 N 0.78866 0.48393 1.00167 0.0
C527 C 0.78621 0.46382 0.98028 0.0
C528 C 0.80886 0.45381 0.97444 0.0
C529 C 0.8262 0.46788 0.99288 0.0
C530 C 0.81325 0.4857 0.0088 0.0
N531 N 0.78878 0.52708 0.04691 0.0
C532 C 0.81335 0.5235 0.0489 0.0
C533 C 0.82634 0.53982 0.07054 0.0
C534 C 0.8091 0.55476 0.08327 0.0
C535 C 0.78642 0.54681 0.06841 0.0
N536 N 0.76071 0.48518 0.05759 0.0
C537 C 0.75665 0.45026 0.10613 0.0
C538 C 0.77965 0.45846 0.09879 0.0
C539 C 0.78125 0.47587 0.07458 0.0
C540 C 0.73578 0.46101 0.09054 0.0
C541 C 0.73821 0.47841 0.06672 0.0
N542 N 0.76578 0.52773 0.98093 0.0
C543 C 0.79015 0.5494 0.94411 0.0
C544 C 0.76898 0.55756 0.92592 0.0
C545 C 0.74625 0.55041 0.93568 0.0
C546 C 0.74509 0.53563 0.96288 0.0
C547 C 0.78814 0.53463 0.97132 0.0
H548 H 0.7272 0.53103 0.96889 0.0
H549 H 0.80492 0.52912 0.98421 0.0
H550 H 0.79926 0.48096 0.06936 0.0
H551 H 0.7216 0.48562 0.05544 0.0
C552 C 0.70275 0.509 0.00754 0.0
C553 C 0.7632 0.55834 0.07613 0.0
C554 C 0.76299 0.45366 0.96454 0.0
C555 C 0.82362 0.50422 0.03077 0.0
H556 H 0.71377 0.57586 0.0785 0.0
H557 H 0.68061 0.54888 0.04164 0.0
H558 H 0.6802 0.47104 0.96448 0.0
H559 H 0.7133 0.44096 0.94126 0.0
H560 H 0.81251 0.438 0.9584 0.0
H561 H 0.8459 0.46542 0.99448 0.0
H562 H 0.84601 0.54056 0.07671 0.0
H563 H 0.81286 0.56964 0.10172 0.0
H564 H 0.79632 0.45064 0.11042 0.0
H565 H 0.71757 0.45553 0.09606 0.0
H566 H 0.80822 0.55433 0.93745 0.0
H567 H 0.72925 0.55668 0.92297 0.0
H568 H 0.17949 0.26437 0.31397 0.0
H569 H 0.1198 0.24995 0.48556 0.0
H570 H 0.22044 0.24478 0.40561 0.0
H571 H 0.0848 0.29345 0.40814 0.0
H572 H 0.15643 0.24718 0.45496 0.0
H573 H 0.1445 0.27559 0.34621 0.0
C574 C 0.1813 0.26289 0.34088 0.0
C575 C 0.2028 0.25323 0.35702 0.0
C576 C 0.14086 0.25751 0.44466 0.0
C577 C 0.16281 0.26555 0.39385 0.0
C578 C 0.11989 0.25897 0.46207 0.0
C579 C 0.09921 0.27183 0.44928 0.0
C580 C 0.14117 0.26863 0.41378 0.0
C581 C 0.10042 0.2834 0.41886 0.0
C582 C 0.16129 0.26915 0.35923 0.0
C583 C 0.20407 0.25162 0.39197 0.0
N584 N 0.12094 0.28128 0.40188 0.0
N585 N 0.18432 0.25734 0.40904 0.0
H586 H 0.74347 0.18626 0.31229 0.0
H587 H 0.77265 0.10268 0.46801 0.0
H588 H 0.78214 0.21202 0.40569 0.0
H589 H 0.71737 0.08292 0.38794 0.0
H590 H 0.77777 0.14217 0.4435 0.0
H591 H 0.73412 0.14794 0.33806 0.0
C592 C 0.74972 0.18399 0.33832 0.0
C593 C 0.76383 0.20226 0.35679 0.0
C594 C 0.76447 0.12926 0.43125 0.0
C595 C 0.7536 0.15841 0.3861 0.0
C596 C 0.76173 0.10664 0.44505 0.0
C597 C 0.74477 0.08948 0.42971 0.0
C598 C 0.75029 0.13477 0.40171 0.0
C599 C 0.73066 0.09571 0.40045 0.0
C600 C 0.74448 0.16209 0.35293 0.0
C601 C 0.77167 0.19824 0.3903 0.0
N602 N 0.73386 0.11786 0.38719 0.0
N603 N 0.76662 0.17668 0.40377 0.0
H604 H 0.84181 0.79908 0.31428 0.0
H605 H 0.95532 0.76085 0.38552 0.0
H606 H 0.81434 0.73011 0.34406 0.0
H607 H 0.91038 0.72707 0.4537 0.0
H608 H 0.91881 0.7652 0.34595 0.0
H609 H 0.88243 0.78917 0.34098 0.0
C610 C 0.84456 0.78162 0.32587 0.0
C611 C 0.82488 0.7653 0.32693 0.0
C612 C 0.91698 0.75675 0.3695 0.0
C613 C 0.87103 0.75389 0.35759 0.0
C614 C 0.93775 0.7541 0.39184 0.0
C615 C 0.9356 0.7439 0.42288 0.0
C616 C 0.89402 0.74892 0.37829 0.0
C617 C 0.91262 0.73517 0.43001 0.0
C618 C 0.86772 0.77589 0.34088 0.0
C619 C 0.82919 0.74302 0.34249 0.0
N620 N 0.89263 0.73796 0.40789 0.0
N621 N 0.85172 0.73815 0.35783 0.0
H622 H 0.19498 0.84806 0.27688 0.0
H623 H 0.294 0.91327 0.40336 0.0
H624 H 0.26986 0.82308 0.29227 0.0
H625 H 0.22823 0.95056 0.3656 0.0
H626 H 0.28669 0.88196 0.35887 0.0
H627 H 0.20744 0.88746 0.30479 0.0
C628 C 0.21411 0.85106 0.28557 0.0
C629 C 0.23135 0.8322 0.28275 0.0
C630 C 0.27402 0.89717 0.35997 0.0
C631 C 0.24565 0.87693 0.31485 0.0
C632 C 0.27825 0.91522 0.38538 0.0
C633 C 0.26157 0.93457 0.38862 0.0
C634 C 0.25269 0.8981 0.33792 0.0
C635 C 0.24124 0.93565 0.36472 0.0
C636 C 0.22123 0.87354 0.30137 0.0
C637 C 0.25596 0.83711 0.29395 0.0
N638 N 0.23716 0.91744 0.34068 0.0
N639 N 0.26229 0.85884 0.31007 0.0
H640 H 0.20284 0.73716 0.66903 0.0
H641 H 0.06014 0.76836 0.63943 0.0
H642 H 0.17206 0.80391 0.7085 0.0
H643 H 0.09932 0.72986 0.56467 0.0
H644 H 0.09889 0.7735 0.67513 0.0
H645 H 0.16238 0.72624 0.64049 0.0
C646 C 0.1874 0.74926 0.67205 0.0
C647 C 0.19053 0.77141 0.69092 0.0
C648 C 0.09889 0.76372 0.65106 0.0
C649 C 0.1446 0.75909 0.65893 0.0
C650 C 0.07691 0.76076 0.63082 0.0
C651 C 0.0768 0.749 0.59904 0.0
C652 C 0.1207 0.75429 0.63966 0.0
C653 C 0.09881 0.73917 0.58899 0.0
C654 C 0.16447 0.74312 0.65573 0.0
C655 C 0.17019 0.78668 0.69405 0.0
N656 N 0.11996 0.74207 0.60924 0.0
N657 N 0.14799 0.78022 0.6782 0.0
H658 H 0.26123 0.17125 0.76788 0.0
H659 H 0.30394 0.10885 0.59906 0.0
H660 H 0.26233 0.20938 0.67624 0.0
H661 H 0.26741 0.06896 0.67084 0.0
H662 H 0.3012 0.14636 0.63452 0.0
H663 H 0.27595 0.13414 0.73923 0.0
C664 C 0.26508 0.17188 0.74191 0.0
C665 C 0.26047 0.19318 0.72418 0.0
C666 C 0.29417 0.12929 0.6427 0.0
C667 C 0.27728 0.1512 0.69161 0.0
C668 C 0.29586 0.10793 0.62268 0.0
C669 C 0.28573 0.08596 0.63211 0.0
C670 C 0.28261 0.12847 0.67246 0.0
C671 C 0.27522 0.08567 0.6627 0.0
C672 C 0.27332 0.15077 0.72562 0.0
C673 C 0.26551 0.19316 0.69056 0.0
N674 N 0.27383 0.1067 0.68181 0.0
N675 N 0.2736 0.17239 0.67524 0.0
H676 H 0.80595 0.28699 0.70386 0.0
H677 H 0.937 0.23635 0.65682 0.0
H678 H 0.8338 0.21508 0.72564 0.0
H679 H 0.90409 0.30154 0.61569 0.0
H680 H 0.90222 0.23213 0.69019 0.0
H681 H 0.84469 0.29651 0.68 0.0
C682 C 0.82046 0.27345 0.70431 0.0
C683 C 0.81674 0.25022 0.71667 0.0
C684 C 0.90261 0.24745 0.67401 0.0
C685 C 0.86082 0.26079 0.68924 0.0
C686 C 0.92246 0.24982 0.65475 0.0
C687 C 0.92338 0.26911 0.63285 0.0
C688 C 0.88336 0.2645 0.67162 0.0
C689 C 0.90423 0.28637 0.63217 0.0
C690 C 0.84244 0.27879 0.69045 0.0
C691 C 0.83595 0.23319 0.71628 0.0
N692 N 0.88492 0.28354 0.65101 0.0
N693 N 0.85704 0.23876 0.70266 0.0
H694 H 0.78909 0.84655 0.7454 0.0
H695 H 0.70148 0.90447 0.60421 0.0
H696 H 0.72622 0.80782 0.69649 0.0
H697 H 0.75122 0.94747 0.67299 0.0
H698 H 0.70701 0.86996 0.6408 0.0
H699 H 0.77329 0.88459 0.72203 0.0
C700 C 0.77181 0.8462 0.72994 0.0
C701 C 0.75901 0.82415 0.72249 0.0
C702 C 0.71635 0.8871 0.6482 0.0
C703 C 0.7409 0.86736 0.69545 0.0
C704 C 0.71309 0.90686 0.6274 0.0
C705 C 0.72632 0.9287 0.63524 0.0
C706 C 0.73313 0.88918 0.67676 0.0
C707 C 0.74121 0.93071 0.66554 0.0
C708 C 0.76271 0.86788 0.71676 0.0
C709 C 0.73659 0.82455 0.70269 0.0
N710 N 0.74455 0.91106 0.68491 0.0
N711 N 0.7284 0.8458 0.68936 0.0
H712 H 0.84663 0.79848 0.74036 0.0
H713 H 0.90422 0.71785 0.59651 0.0
H714 H 0.81488 0.73 0.70002 0.0
H715 H 0.94235 0.77843 0.65119 0.0
H716 H 0.87234 0.72071 0.63555 0.0
H717 H 0.88286 0.79019 0.71 0.0
C718 C 0.84753 0.78145 0.72556 0.0
C719 C 0.82773 0.76491 0.72266 0.0
C720 C 0.88779 0.73325 0.63915 0.0
C721 C 0.86894 0.7555 0.68713 0.0
C722 C 0.90612 0.73158 0.6169 0.0
C723 C 0.92607 0.74805 0.62021 0.0
C724 C 0.88921 0.75164 0.6649 0.0
C725 C 0.92714 0.76566 0.64701 0.0
C726 C 0.86818 0.77675 0.70813 0.0
C727 C 0.82982 0.74314 0.70312 0.0
N728 N 0.90894 0.76708 0.66806 0.0
N729 N 0.84989 0.73923 0.6857 0.0
H730 H 0.26645 0.80651 0.64019 0.0
H731 H 0.26657 0.95353 0.63451 0.0
H732 H 0.25669 0.854 0.72645 0.0
H733 H 0.2847 0.90574 0.55214 0.0
H734 H 0.26451 0.91771 0.6693 0.0
H735 H 0.27546 0.84246 0.60867 0.0
C736 C 0.26689 0.82451 0.65276 0.0
C737 C 0.26133 0.82718 0.68624 0.0
C738 C 0.26914 0.915 0.64372 0.0
C739 C 0.27069 0.86879 0.64981 0.0
C740 C 0.27031 0.93547 0.62388 0.0
C741 C 0.27584 0.93261 0.5904 0.0
C742 C 0.27336 0.89132 0.63002 0.0
C743 C 0.28043 0.90877 0.57783 0.0
C744 C 0.2718 0.8451 0.63466 0.0
C745 C 0.26142 0.85104 0.70096 0.0
N746 N 0.27896 0.88912 0.5975 0.0
N747 N 0.26578 0.87088 0.68263 0.0
H748 H 0.16773 0.24647 0.76521 0.0
H749 H 0.10157 0.2787 0.58576 0.0
H750 H 0.20576 0.25637 0.67711 0.0
H751 H 0.06156 0.25896 0.66835 0.0
H752 H 0.14011 0.2755 0.6214 0.0
H753 H 0.12881 0.25618 0.73295 0.0
C754 C 0.16792 0.25108 0.73927 0.0
C755 C 0.18994 0.25045 0.72372 0.0
C756 C 0.12294 0.27195 0.6319 0.0
C757 C 0.14566 0.26136 0.68667 0.0
C758 C 0.10102 0.27381 0.61155 0.0
C759 C 0.07857 0.26891 0.62423 0.0
C760 C 0.12242 0.26517 0.66524 0.0
C761 C 0.07864 0.26272 0.65777 0.0
C762 C 0.14573 0.25643 0.7208 0.0
C763 C 0.18915 0.25638 0.68996 0.0
N764 N 0.10026 0.26091 0.67714 0.0
N765 N 0.16743 0.26146 0.6726 0.0
H766 H 0.74028 0.17073 0.73661 0.0
H767 H 0.7342 0.1022 0.55397 0.0
H768 H 0.75263 0.20641 0.64596 0.0
H769 H 0.72855 0.06386 0.64433 0.0
H770 H 0.73632 0.14126 0.58696 0.0
H771 H 0.73075 0.13238 0.70324 0.0
C772 C 0.74043 0.17065 0.70964 0.0
C773 C 0.74731 0.19184 0.6941 0.0
C774 C 0.73445 0.12438 0.59969 0.0
C775 C 0.73681 0.14792 0.65571 0.0
C776 C 0.7332 0.10212 0.5808 0.0
C777 C 0.73116 0.0799 0.59651 0.0
C778 C 0.73374 0.12449 0.6347 0.0
C779 C 0.73005 0.08069 0.63136 0.0
C780 C 0.73524 0.14869 0.69061 0.0
C781 C 0.74755 0.19052 0.65905 0.0
N782 N 0.73144 0.10258 0.64931 0.0
N783 N 0.74257 0.16903 0.64119 0.0
H784 H 0.84751 0.23754 0.31377 0.0
H785 H 0.91701 0.29103 0.48276 0.0
H786 H 0.81497 0.29072 0.37876 0.0
H787 H 0.95614 0.25931 0.40291 0.0
H788 H 0.87946 0.29132 0.44459 0.0
H789 H 0.88777 0.24591 0.34435 0.0
C790 C 0.84909 0.25162 0.33375 0.0
C791 C 0.82812 0.26383 0.34347 0.0
C792 C 0.89627 0.28446 0.43527 0.0
C793 C 0.87367 0.27266 0.37953 0.0
C794 C 0.91763 0.28423 0.45708 0.0
C795 C 0.93952 0.27487 0.44598 0.0
C796 C 0.8967 0.27494 0.40219 0.0
C797 C 0.93948 0.26636 0.41246 0.0
C798 C 0.87196 0.25623 0.35141 0.0
C799 C 0.83086 0.28131 0.37019 0.0
N800 N 0.91833 0.2663 0.39183 0.0
N801 N 0.85314 0.28495 0.38763 0.0
H802 H 0.72737 0.80599 0.36324 0.0
H803 H 0.75763 0.949 0.40649 0.0
H804 H 0.78274 0.84651 0.31873 0.0
H805 H 0.71628 0.90535 0.46863 0.0
H806 H 0.76182 0.91294 0.36865 0.0
H807 H 0.71761 0.84341 0.39623 0.0
C808 C 0.73708 0.82287 0.35988 0.0
C809 C 0.75585 0.82314 0.33812 0.0
C810 C 0.75169 0.9112 0.39044 0.0
C811 C 0.74499 0.86596 0.37595 0.0
C812 C 0.74929 0.93181 0.412 0.0
C813 C 0.73671 0.93013 0.44082 0.0
C814 C 0.74126 0.88863 0.39745 0.0
C815 C 0.72614 0.90741 0.44668 0.0
C816 C 0.73169 0.84416 0.37893 0.0
C817 C 0.76813 0.84547 0.33518 0.0
N818 N 0.72868 0.88756 0.42528 0.0
N819 N 0.76254 0.86584 0.35383 0.0
H820 H 0.19709 0.73419 0.32679 0.0
H821 H 0.06188 0.77133 0.37368 0.0
H822 H 0.15127 0.78772 0.27623 0.0
H823 H 0.10756 0.72041 0.42985 0.0
H824 H 0.09297 0.7737 0.33399 0.0
H825 H 0.16301 0.72453 0.36036 0.0
C826 C 0.17968 0.74347 0.32225 0.0
C827 C 0.17698 0.76184 0.29884 0.0
C828 C 0.09623 0.76189 0.35487 0.0
C829 C 0.13816 0.75124 0.3373 0.0
C830 C 0.07848 0.76064 0.37772 0.0
C831 C 0.08217 0.74589 0.40547 0.0
C832 C 0.11804 0.74837 0.35967 0.0
C833 C 0.10387 0.732 0.40882 0.0
C834 C 0.16032 0.73814 0.34158 0.0
C835 C 0.15416 0.77355 0.29419 0.0
N836 N 0.12107 0.73374 0.38639 0.0
N837 N 0.13577 0.7682 0.31336 0.0
H838 H 0.28621 0.19997 0.37924 0.0
H839 H 0.25025 0.05861 0.3999 0.0
H840 H 0.23232 0.16092 0.31252 0.0
H841 H 0.29398 0.10207 0.47501 0.0
H842 H 0.24754 0.09397 0.36384 0.0
H843 H 0.29405 0.16246 0.41003 0.0
C844 C 0.27663 0.18323 0.37041 0.0
C845 C 0.25905 0.18341 0.34275 0.0
C846 C 0.25786 0.09579 0.38811 0.0
C847 C 0.26723 0.14044 0.37867 0.0
C848 C 0.25939 0.07559 0.4087 0.0
C849 C 0.27232 0.07739 0.44055 0.0
C850 C 0.26949 0.11804 0.39925 0.0
C851 C 0.28388 0.09984 0.45063 0.0
C852 C 0.28084 0.16188 0.38828 0.0
C853 C 0.24646 0.16142 0.33317 0.0
N854 N 0.28218 0.11921 0.43015 0.0
N855 N 0.25072 0.1409 0.35111 0.0
H856 H 0.7116 0.77891 0.85843 0.0
H857 H 0.57088 0.74786 0.88214 0.0
H858 H 0.67052 0.71913 0.80664 0.0
H859 H 0.61472 0.79701 0.95032 0.0
H860 H 0.60582 0.74198 0.84894 0.0
H861 H 0.67497 0.79054 0.88701 0.0
C862 C 0.6948 0.76845 0.85278 0.0
C863 C 0.69412 0.74792 0.83032 0.0
C864 C 0.60783 0.75415 0.87108 0.0
C865 C 0.65229 0.76105 0.86279 0.0
C866 C 0.58787 0.75746 0.89018 0.0
C867 C 0.58989 0.77266 0.91947 0.0
C868 C 0.63016 0.76615 0.88111 0.0
C869 C 0.61225 0.78514 0.92795 0.0
C870 C 0.67398 0.77498 0.86921 0.0
C871 C 0.67194 0.7349 0.82407 0.0
N872 N 0.63157 0.78146 0.90903 0.0
N873 N 0.652 0.74164 0.84021 0.0
H874 H 0.29293 0.68098 0.8087 0.0
H875 H 0.20789 0.61466 0.93123 0.0
H876 H 0.2248 0.71192 0.83652 0.0
H877 H 0.27296 0.58242 0.89442 0.0
H878 H 0.21203 0.64917 0.89493 0.0
H879 H 0.28413 0.64367 0.8372 0.0
C880 C 0.27577 0.67963 0.82014 0.0
C881 C 0.25942 0.69949 0.81976 0.0
C882 C 0.22533 0.63447 0.8947 0.0
C883 C 0.24949 0.6569 0.85377 0.0
C884 C 0.22293 0.61461 0.9154 0.0
C885 C 0.24022 0.59543 0.91642 0.0
C886 C 0.24518 0.63535 0.87468 0.0
C887 C 0.25942 0.59684 0.89533 0.0
C888 C 0.27083 0.65838 0.83672 0.0
C889 C 0.23771 0.6969 0.83567 0.0
N890 N 0.2614 0.61634 0.87564 0.0
N891 N 0.23349 0.67617 0.85229 0.0
H892 H 0.29941 0.25267 0.93701 0.0
H893 H 0.43781 0.20923 0.91814 0.0
H894 H 0.3265 0.23085 0.84241 0.0
H895 H 0.41177 0.23616 0.01106 0.0
H896 H 0.39601 0.2125 0.89085 0.0
H897 H 0.33895 0.24164 0.96554 0.0
C898 C 0.31359 0.24526 0.92226 0.0
C899 C 0.30968 0.24292 0.8872 0.0
C900 C 0.39933 0.21748 0.91727 0.0
C901 C 0.35517 0.23037 0.91976 0.0
C902 C 0.42312 0.21554 0.93279 0.0
C903 C 0.42797 0.2222 0.96685 0.0
C904 C 0.38032 0.22631 0.93596 0.0
C905 C 0.40858 0.2307 0.98477 0.0
C906 C 0.3362 0.239 0.93858 0.0
C907 C 0.32862 0.23288 0.86946 0.0
N908 N 0.38559 0.23255 0.9691 0.0
N909 N 0.35062 0.22724 0.88588 0.0
H910 H 0.75703 0.30156 0.89171 0.0
H911 H 0.75195 0.44869 0.89642 0.0
H912 H 0.7417 0.34222 0.80286 0.0
H913 H 0.77321 0.40664 0.98235 0.0
H914 H 0.74979 0.41056 0.86102 0.0
H915 H 0.76536 0.34005 0.92431 0.0
C916 C 0.7559 0.31866 0.87896 0.0
C917 C 0.74888 0.31866 0.84447 0.0
C918 C 0.7551 0.40964 0.88756 0.0
C919 C 0.75775 0.36316 0.88193 0.0
C920 C 0.7563 0.43139 0.90773 0.0
C921 C 0.76273 0.43075 0.94233 0.0
C922 C 0.76027 0.38702 0.9021 0.0
C923 C 0.76819 0.40791 0.95579 0.0
C924 C 0.76051 0.34069 0.89763 0.0
C925 C 0.74737 0.34138 0.8293 0.0
N926 N 0.76672 0.38702 0.93575 0.0
N927 N 0.75152 0.36272 0.84817 0.0
H928 H 0.69802 0.22265 0.21015 0.0
H929 H 0.59656 0.207 0.09452 0.0
H930 H 0.65925 0.28734 0.24125 0.0
H931 H 0.55554 0.2459 0.16685 0.0
H932 H 0.63383 0.21235 0.13239 0.0
H933 H 0.65976 0.20678 0.18029 0.0
C934 C 0.68134 0.23329 0.21113 0.0
C935 C 0.68179 0.25643 0.22782 0.0
C936 C 0.61663 0.21908 0.14058 0.0
C937 C 0.63823 0.23885 0.19303 0.0
C938 C 0.59536 0.21609 0.11888 0.0
C939 C 0.57294 0.22566 0.12792 0.0
C940 C 0.61558 0.23216 0.17139 0.0
C941 C 0.57246 0.23801 0.15924 0.0
C942 C 0.65961 0.22443 0.19369 0.0
C943 C 0.6597 0.26953 0.22828 0.0
N944 N 0.59356 0.24123 0.17969 0.0
N945 N 0.63886 0.26064 0.21098 0.0
H946 H 0.71719 0.66251 0.22749 0.0
H947 H 0.78327 0.60437 0.07323 0.0
H948 H 0.7762 0.6994 0.18568 0.0
H949 H 0.74206 0.56088 0.13578 0.0
H950 H 0.78064 0.63956 0.11326 0.0
H951 H 0.72587 0.62519 0.19427 0.0
C952 C 0.73238 0.66253 0.21188 0.0
C953 C 0.74622 0.68398 0.20972 0.0
C954 C 0.77235 0.62227 0.11842 0.0
C955 C 0.75572 0.64152 0.17047 0.0
C956 C 0.77386 0.6022 0.09557 0.0
C957 C 0.76289 0.57966 0.10121 0.0
C958 C 0.75941 0.61998 0.14694 0.0
C959 C 0.75072 0.57794 0.13043 0.0
C960 C 0.73724 0.64127 0.19273 0.0
C961 C 0.76537 0.68314 0.18853 0.0
N962 N 0.74911 0.59782 0.15197 0.0
N963 N 0.76934 0.66241 0.16941 0.0
H964 H 0.33112 0.71864 0.20848 0.0
H965 H 0.39997 0.80537 0.09253 0.0
H966 H 0.30172 0.78826 0.17828 0.0
H967 H 0.43464 0.74421 0.14216 0.0
H968 H 0.3648 0.80103 0.12564 0.0
H969 H 0.37004 0.72904 0.18676 0.0
C970 C 0.33309 0.73634 0.19779 0.0
C971 C 0.31324 0.75263 0.19515 0.0
C972 C 0.38022 0.78872 0.1295 0.0
C973 C 0.35755 0.76449 0.16941 0.0
C974 C 0.4004 0.79125 0.11067 0.0
C975 C 0.42028 0.77493 0.11412 0.0
C976 C 0.37979 0.76965 0.15184 0.0
C977 C 0.41955 0.75685 0.13791 0.0
C978 C 0.35527 0.74227 0.1853 0.0
C979 C 0.31667 0.77529 0.18099 0.0
N980 N 0.3996 0.75457 0.15553 0.0
N981 N 0.33828 0.78041 0.16816 0.0
H982 H 0.27499 0.33766 0.24532 0.0
H983 H 0.20966 0.39348 0.0778 0.0
H984 H 0.22898 0.29445 0.17259 0.0
H985 H 0.26212 0.43275 0.14695 0.0
H986 H 0.21236 0.35861 0.11463 0.0
H987 H 0.26591 0.37407 0.21288 0.0
C988 C 0.26234 0.33603 0.22299 0.0
C989 C 0.25228 0.31309 0.21208 0.0
C990 C 0.22319 0.37491 0.1218 0.0
C991 C 0.24243 0.35469 0.17379 0.0
C992 C 0.22158 0.39494 0.10082 0.0
C993 C 0.23582 0.41623 0.10894 0.0
C994 C 0.23902 0.37608 0.15145 0.0
C995 C 0.25108 0.41672 0.13913 0.0
C996 C 0.25738 0.35677 0.20418 0.0
C997 C 0.23665 0.31188 0.18231 0.0
N998 N 0.25227 0.39708 0.15906 0.0
N999 N 0.23232 0.3323 0.16413 0.0
H1000 H 0.31127 0.21727 0.20699 0.0
H1001 H 0.44157 0.2661 0.15905 0.0
H1002 H 0.33832 0.29077 0.2302 0.0
H1003 H 0.40645 0.20075 0.11273 0.0
H1004 H 0.40691 0.2721 0.19284 0.0
H1005 H 0.34928 0.20748 0.18059 0.0
C1006 C 0.32542 0.23117 0.20708 0.0
C1007 C 0.32164 0.25488 0.22064 0.0
C1008 C 0.40683 0.25637 0.17539 0.0
C1009 C 0.36498 0.24393 0.19043 0.0
C1010 C 0.4266 0.25299 0.15586 0.0
C1011 C 0.42696 0.23303 0.1325 0.0
C1012 C 0.38717 0.23963 0.1719 0.0
C1013 C 0.40719 0.21633 0.13044 0.0
C1014 C 0.34698 0.22566 0.19179 0.0
C1015 C 0.34045 0.27231 0.21981 0.0
N1016 N 0.38809 0.22007 0.14971 0.0
N1017 N 0.3612 0.26653 0.20489 0.0
H1018 H 0.75472 0.34621 0.26467 0.0
H1019 H 0.72756 0.41045 0.09165 0.0
H1020 H 0.72825 0.30835 0.17179 0.0
H1021 H 0.78054 0.44158 0.16785 0.0
H1022 H 0.72393 0.3747 0.12491 0.0
H1023 H 0.76217 0.38292 0.23325 0.0
C1024 C 0.75068 0.34557 0.23775 0.0
C1025 C 0.74036 0.32444 0.22085 0.0
C1026 C 0.73639 0.3893 0.13445 0.0
C1027 C 0.7485 0.36601 0.1852 0.0
C1028 C 0.73828 0.40981 0.11562 0.0
C1029 C 0.75423 0.42902 0.12718 0.0
C1030 C 0.75042 0.38794 0.16531 0.0
C1031 C 0.76806 0.42706 0.15813 0.0
C1032 C 0.75486 0.36645 0.21992 0.0
C1033 C 0.73554 0.32448 0.18596 0.0
N1034 N 0.76574 0.40685 0.17635 0.0
N1035 N 0.73941 0.34497 0.16941 0.0
H1036 H 0.69776 0.78011 0.18458 0.0
H1037 H 0.55449 0.75142 0.14352 0.0
H1038 H 0.66169 0.71873 0.22358 0.0
H1039 H 0.59776 0.78802 0.07592 0.0
H1040 H 0.59163 0.74666 0.18185 0.0
H1041 H 0.6588 0.79093 0.15344 0.0
C1042 C 0.68149 0.76924 0.18703 0.0
C1043 C 0.68278 0.74851 0.20645 0.0
C1044 C 0.59293 0.75588 0.15872 0.0
C1045 C 0.63849 0.76065 0.17122 0.0
C1046 C 0.57185 0.75855 0.13697 0.0
C1047 C 0.57333 0.76981 0.10653 0.0
C1048 C 0.61547 0.76496 0.15015 0.0
C1049 C 0.59605 0.77909 0.09916 0.0
C1050 C 0.6594 0.77528 0.16916 0.0
C1051 C 0.66134 0.7348 0.20867 0.0
N1052 N 0.6163 0.77643 0.12083 0.0
N1053 N 0.64004 0.74109 0.1912 0.0
H1054 H 0.25429 0.70429 0.12318 0.0
H1055 H 0.22186 0.56322 0.14101 0.0
H1056 H 0.23373 0.67554 0.21509 0.0
H1057 H 0.23826 0.59442 0.04884 0.0
H1058 H 0.22222 0.60465 0.16788 0.0
H1059 H 0.24411 0.66486 0.09432 0.0
C1060 C 0.24735 0.68964 0.13714 0.0
C1061 C 0.24507 0.69293 0.17153 0.0
C1062 C 0.22548 0.60247 0.1417 0.0
C1063 C 0.23367 0.64769 0.13892 0.0
C1064 C 0.2253 0.57894 0.12652 0.0
C1065 C 0.23013 0.57578 0.09295 0.0
C1066 C 0.2307 0.62274 0.12304 0.0
C1067 C 0.23455 0.59638 0.07489 0.0
C1068 C 0.24154 0.66715 0.12072 0.0
C1069 C 0.23574 0.6736 0.18851 0.0
N1070 N 0.23487 0.61903 0.09023 0.0
N1071 N 0.23068 0.6516 0.1721 0.0
H1072 H 0.33823 0.77617 0.79628 0.0
H1073 H 0.41138 0.77864 0.97821 0.0
H1074 H 0.30504 0.76277 0.88735 0.0
H1075 H 0.44651 0.78703 0.88751 0.0
H1076 H 0.37126 0.77859 0.94577 0.0
H1077 H 0.37694 0.78656 0.82958 0.0
C1078 C 0.33898 0.77592 0.82332 0.0
C1079 C 0.31855 0.76836 0.83912 0.0
C1080 C 0.38767 0.78067 0.93288 0.0
C1081 C 0.36267 0.77985 0.87725 0.0
C1082 C 0.41047 0.78071 0.95141 0.0
C1083 C 0.43196 0.78279 0.93527 0.0
C1084 C 0.38646 0.78256 0.89794 0.0
C1085 C 0.43014 0.78539 0.90061 0.0
C1086 C 0.36109 0.78165 0.84229 0.0
C1087 C 0.3205 0.76816 0.87419 0.0
N1088 N 0.40773 0.78504 0.88296 0.0
N1089 N 0.34221 0.77358 0.89203 0.0
H1090 H 0.25675 0.33056 0.82338 0.0
H1091 H 0.23381 0.41929 0.9819 0.0
H1092 H 0.25136 0.30571 0.923 0.0
H1093 H 0.24897 0.44583 0.88638 0.0
H1094 H 0.23583 0.3771 0.95886 0.0
H1095 H 0.24915 0.3726 0.84392 0.0
C1096 C 0.25363 0.33395 0.84946 0.0
C1097 C 0.2548 0.31476 0.87163 0.0
C1098 C 0.23868 0.39209 0.94284 0.0
C1099 C 0.24638 0.36259 0.89528 0.0
C1100 C 0.23755 0.41604 0.95599 0.0
C1101 C 0.24143 0.43566 0.93587 0.0
C1102 C 0.24371 0.38786 0.90932 0.0
C1103 C 0.24606 0.43091 0.90249 0.0
C1104 C 0.24948 0.35792 0.86121 0.0
C1105 C 0.25089 0.32009 0.90523 0.0
N1106 N 0.24715 0.40738 0.89017 0.0
N1107 N 0.24694 0.34352 0.91606 0.0
H1108 H 0.70368 0.21776 0.85238 0.0
H1109 H 0.56728 0.25053 0.89947 0.0
H1110 H 0.66512 0.28359 0.82434 0.0
H1111 H 0.61249 0.19635 0.94992 0.0
H1112 H 0.60011 0.25768 0.86335 0.0
H1113 H 0.66761 0.20461 0.87986 0.0
C1114 C 0.68744 0.22917 0.85147 0.0
C1115 C 0.68733 0.2518 0.83621 0.0
C1116 C 0.60279 0.24407 0.88214 0.0
C1117 C 0.64621 0.23705 0.86754 0.0
C1118 C 0.58396 0.23985 0.90263 0.0
C1119 C 0.58714 0.2229 0.92796 0.0
C1120 C 0.625 0.23117 0.88674 0.0
C1121 C 0.60935 0.20983 0.93106 0.0
C1122 C 0.66697 0.22179 0.86733 0.0
C1123 C 0.66595 0.26606 0.836 0.0
N1124 N 0.62744 0.21429 0.91081 0.0
N1125 N 0.64633 0.25851 0.85149 0.0
H1126 H 0.78904 0.69002 0.82481 0.0
H1127 H 0.73977 0.55838 0.86675 0.0
H1128 H 0.7161 0.66288 0.79402 0.0
H1129 H 0.80099 0.5959 0.92229 0.0
H1130 H 0.73737 0.59108 0.82697 0.0
H1131 H 0.79988 0.64992 0.84676 0.0
C1132 C 0.77553 0.67539 0.82185 0.0
C1133 C 0.75155 0.67975 0.80805 0.0
C1134 C 0.75156 0.5919 0.84759 0.0
C1135 C 0.7637 0.63413 0.83328 0.0
C1136 C 0.75287 0.57335 0.87042 0.0
C1137 C 0.77023 0.57469 0.8984 0.0
C1138 C 0.76778 0.61189 0.85267 0.0
C1139 C 0.78725 0.5941 0.90121 0.0
C1140 C 0.78166 0.65261 0.83458 0.0
C1141 C 0.73467 0.66028 0.80499 0.0
N1142 N 0.78538 0.61213 0.87889 0.0
N1143 N 0.74098 0.63836 0.81789 0.0
loop_
_geom_bond_atom_site_label_1
_geom_bond_atom_site_label_2
_geom_bond_distance
_geom_bond_site_symmetry_2
_ccdc_geom_bond_type
H0 C6 0.930 . S
H1 C9 0.931 . S
H2 C11 0.931 . S
H3 C13 0.930 . S
H4 C15 0.930 . S
H5 C17 0.931 . S
C6 H0 0.930 . S
C6 C7 1.380 . S
C6 C8 1.394 . S
C7 C6 1.380 . S
C7 C11 1.382 . S
C8 C6 1.394 . S
C8 C9 1.400 . S
C9 H1 0.931 . S
C9 C8 1.400 . S
C9 C10 1.375 . S
C10 C9 1.375 . S
C10 C11 1.415 . S
C10 C12 1.501 . S
C11 H2 0.931 . S
C11 C7 1.382 . S
C11 C10 1.415 . S
C12 C10 1.501 . S
C12 C13 1.384 . S
C12 C17 1.408 . S
C13 H3 0.930 . S
C13 C12 1.384 . S
C13 C14 1.389 . S
C14 C13 1.389 . S
C14 C15 1.405 . S
C15 H4 0.930 . S
C15 C14 1.405 . S
C15 C16 1.364 . S
C16 C15 1.364 . S
C16 C17 1.400 . S
C17 H5 0.931 . S
C17 C12 1.408 . S
C17 C16 1.400 . S
H18 C24 0.930 . S
H19 C27 0.931 . S
H20 C29 0.931 . S
H21 C31 0.930 . S
H22 C33 0.930 . S
H23 C35 0.931 . S
C24 H18 0.930 . S
C24 C25 1.380 . S
C24 C26 1.394 . S
C25 C24 1.380 . S
C25 C29 1.382 . S
C26 C24 1.394 . S
C26 C27 1.400 . S
C27 H19 0.931 . S
C27 C26 1.400 . S
C27 C28 1.375 . S
C28 C27 1.375 . S
C28 C29 1.415 . S
C28 C30 1.501 . S
C29 H20 0.931 . S
C29 C25 1.382 . S
C29 C28 1.415 . S
C30 C28 1.501 . S
C30 C31 1.384 . S
C30 C35 1.408 . S
C31 H21 0.930 . S
C31 C30 1.384 . S
C31 C32 1.389 . S
C32 C31 1.389 . S
C32 C33 1.405 . S
C33 H22 0.930 . S
C33 C32 1.405 . S
C33 C34 1.364 . S
C34 C33 1.364 . S
C34 C35 1.400 . S
C35 H23 0.931 . S
C35 C30 1.408 . S
C35 C34 1.400 . S
H36 C42 0.930 . S
H37 C45 0.931 . S
H38 C47 0.931 . S
H39 C49 0.930 . S
H40 C51 0.930 . S
H41 C53 0.931 . S
C42 H36 0.930 . S
C42 C43 1.380 . S
C42 C44 1.394 . S
C43 C42 1.380 . S
C43 C47 1.382 . S
C44 C42 1.394 . S
C44 C45 1.400 . S
C45 H37 0.931 . S
C45 C44 1.400 . S
C45 C46 1.375 . S
C46 C45 1.375 . S
C46 C47 1.415 . S
C46 C48 1.501 . S
C47 H38 0.931 . S
C47 C43 1.382 . S
C47 C46 1.415 . S
C48 C46 1.501 . S
C48 C49 1.384 . S
C48 C53 1.408 . S
C49 H39 0.930 . S
C49 C48 1.384 . S
C49 C50 1.389 . S
C50 C49 1.389 . S
C50 C51 1.405 . S
C51 H40 0.930 . S
C51 C50 1.405 . S
C51 C52 1.364 . S
C52 C51 1.364 . S
C52 C53 1.400 . S
C53 H41 0.931 . S
C53 C48 1.408 . S
C53 C52 1.400 . S
H54 C60 0.930 . S
H55 C63 0.931 . S
H56 C65 0.931 . S
H57 C67 0.930 . S
H58 C69 0.930 . S
H59 C71 0.931 . S
C60 H54 0.930 . S
C60 C61 1.380 . S
C60 C62 1.394 . S
C61 C60 1.380 . S
C61 C65 1.382 . S
C62 C60 1.394 . S
C62 C63 1.400 . S
C63 H55 0.931 . S
C63 C62 1.400 . S
C63 C64 1.375 . S
C64 C63 1.375 . S
C64 C65 1.415 . S
C64 C66 1.501 . S
C65 H56 0.931 . S
C65 C61 1.382 . S
C65 C64 1.415 . S
C66 C64 1.501 . S
C66 C67 1.384 . S
C66 C71 1.408 . S
C67 H57 0.930 . S
C67 C66 1.384 . S
C67 C68 1.389 . S
C68 C67 1.389 . S
C68 C69 1.405 . S
C69 H58 0.930 . S
C69 C68 1.405 . S
C69 C70 1.364 . S
C70 C69 1.364 . S
C70 C71 1.400 . S
C71 H59 0.931 . S
C71 C66 1.408 . S
C71 C70 1.400 . S
H72 C78 0.930 . S
H73 C81 0.931 . S
H74 C83 0.931 . S
H75 C85 0.930 . S
H76 C87 0.930 . S
H77 C89 0.931 . S
C78 H72 0.930 . S
C78 C79 1.380 . S
C78 C80 1.394 . S
C79 C78 1.380 . S
C79 C83 1.382 . S
C80 C78 1.394 . S
C80 C81 1.400 . S
C81 H73 0.931 . S
C81 C80 1.400 . S
C81 C82 1.375 . S
C82 C81 1.375 . S
C82 C83 1.415 . S
C82 C84 1.501 . S
C83 H74 0.931 . S
C83 C79 1.382 . S
C83 C82 1.415 . S
C84 C82 1.501 . S
C84 C85 1.384 . S
C84 C89 1.408 . S
C85 H75 0.930 . S
C85 C84 1.384 . S
C85 C86 1.389 . S
C86 C85 1.389 . S
C86 C87 1.405 . S
C87 H76 0.930 . S
C87 C86 1.405 . S
C87 C88 1.364 . S
C88 C87 1.364 . S
C88 C89 1.400 . S
C89 H77 0.931 . S
C89 C84 1.408 . S
C89 C88 1.400 . S
H90 C96 0.930 . S
H91 C99 0.931 . S
H92 C101 0.931 . S
H93 C103 0.930 . S
H94 C105 0.930 . S
H95 C107 0.931 . S
C96 H90 0.930 . S
C96 C97 1.380 . S
C96 C98 1.394 . S
C97 C96 1.380 . S
C97 C101 1.382 . S
C98 C96 1.394 . S
C98 C99 1.400 . S
C99 H91 0.931 . S
C99 C98 1.400 . S
C99 C100 1.375 . S
C100 C99 1.375 . S
C100 C101 1.415 . S
C100 C102 1.501 . S
C101 H92 0.931 . S
C101 C97 1.382 . S
C101 C100 1.415 . S
C102 C100 1.501 . S
C102 C103 1.384 . S
C102 C107 1.408 . S
C103 H93 0.930 . S
C103 C102 1.384 . S
C103 C104 1.389 . S
C104 C103 1.389 . S
C104 C105 1.405 . S
C105 H94 0.930 . S
C105 C104 1.405 . S
C105 C106 1.364 . S
C106 C105 1.364 . S
C106 C107 1.400 . S
C107 H95 0.931 . S
C107 C102 1.408 . S
C107 C106 1.400 . S
H108 C114 0.930 . S
H109 C117 0.931 . S
H110 C119 0.931 . S
H111 C121 0.930 . S
H112 C123 0.930 . S
H113 C125 0.931 . S
C114 H108 0.930 . S
C114 C115 1.380 . S
C114 C116 1.394 . S
C115 C114 1.380 . S
C115 C119 1.382 . S
C116 C114 1.394 . S
C116 C117 1.400 . S
C117 H109 0.931 . S
C117 C116 1.400 . S
C117 C118 1.375 . S
C118 C117 1.375 . S
C118 C119 1.415 . S
C118 C120 1.501 . S
C119 H110 0.931 . S
C119 C115 1.382 . S
C119 C118 1.415 . S
C120 C118 1.501 . S
C120 C121 1.384 . S
C120 C125 1.408 . S
C121 H111 0.930 . S
C121 C120 1.384 . S
C121 C122 1.389 . S
C122 C121 1.389 . S
C122 C123 1.405 . S
C123 H112 0.930 . S
C123 C122 1.405 . S
C123 C124 1.364 . S
C124 C123 1.364 . S
C124 C125 1.400 . S
C125 H113 0.931 . S
C125 C120 1.408 . S
C125 C124 1.400 . S
H126 C132 0.930 . S
H127 C135 0.931 . S
H128 C137 0.931 . S
H129 C139 0.930 . S
H130 C141 0.930 . S
H131 C143 0.931 . S
C132 H126 0.930 . S
C132 C133 1.380 . S
C132 C134 1.394 . S
C133 C132 1.380 . S
C133 C137 1.382 . S
C134 C132 1.394 . S
C134 C135 1.400 . S
C135 H127 0.931 . S
C135 C134 1.400 . S
C135 C136 1.375 . S
C136 C135 1.375 . S
C136 C137 1.415 . S
C136 C138 1.501 . S
C137 H128 0.931 . S
C137 C133 1.382 . S
C137 C136 1.415 . S
C138 C136 1.501 . S
C138 C139 1.384 . S
C138 C143 1.408 . S
C139 H129 0.930 . S
C139 C138 1.384 . S
C139 C140 1.389 . S
C140 C139 1.389 . S
C140 C141 1.405 . S
C141 H130 0.930 . S
C141 C140 1.405 . S
C141 C142 1.364 . S
C142 C141 1.364 . S
C142 C143 1.400 . S
C143 H131 0.931 . S
C143 C138 1.408 . S
C143 C142 1.400 . S
C144 C145 1.443 . S
C144 N148 1.376 . S
C144 C182 1.389 . S
C145 C144 1.443 . S
C145 C146 1.340 . S
C145 H185 0.951 . S
C146 C145 1.340 . S
C146 C147 1.439 . S
C146 H186 0.950 . S
C147 C146 1.439 . S
C147 N148 1.374 . S
C147 C181 1.395 . S
N148 C144 1.376 . S
N148 C147 1.374 . S
N148 Co149 2.008 . S
Co149 N148 2.008 . S
Co149 N150 1.995 1_455 S
Co149 N155 2.008 1_455 S
Co149 N160 1.995 . S
Co149 N165 2.282 1_455 S
Co149 N171 2.282 . S
N150 Co149 1.995 1_655 S
N150 C151 1.376 . S
N150 C154 1.383 . S
C151 N150 1.376 . S
C151 C152 1.446 . S
C151 C181 1.391 1_655 S
C152 C151 1.446 . S
C152 C153 1.339 . S
C152 H187 0.949 . S
C153 C152 1.339 . S
C153 C154 1.439 . S
C153 H188 0.950 . S
C154 N150 1.383 . S
C154 C153 1.439 . S
C154 C183 1.392 . S
N155 Co149 2.008 1_655 S
N155 C156 1.376 . S
N155 C159 1.374 . S
C156 N155 1.376 . S
C156 C157 1.443 . S
C156 C183 1.389 . S
C157 C156 1.443 . S
C157 C158 1.340 . S
C157 H189 0.951 . S
C158 C157 1.340 . S
C158 C159 1.439 . S
C158 H190 0.950 . S
C159 N155 1.374 . S
C159 C158 1.439 . S
C159 C184 1.410 . S
N160 Co149 1.995 . S
N160 C161 1.376 . S
N160 C164 1.383 . S
C161 N160 1.376 . S
C161 C162 1.446 . S
C161 C184 1.375 1_455 S
C162 C161 1.446 . S
C162 C163 1.339 . S
C162 H191 0.949 . S
C163 C162 1.339 . S
C163 C164 1.439 . S
C163 H192 0.950 . S
C164 N160 1.383 . S
C164 C163 1.439 . S
C164 C182 1.392 . S
N165 Co149 2.282 1_655 S
N165 C168 1.332 . S
N165 C170 1.332 . S
C166 C167 1.386 . S
C166 C169 1.388 . S
C167 C166 1.386 . S
C167 C168 1.382 . S
C167 H193 0.950 . S
C168 N165 1.332 . S
C168 C167 1.382 . S
C168 H179 0.952 . S
C169 C166 1.388 . S
C169 C170 1.382 . S
C169 H194 0.950 . S
C170 N165 1.332 . S
C170 C169 1.382 . S
C170 H180 0.948 . S
N171 Co149 2.282 . S
N171 C175 1.332 . S
N171 C176 1.332 . S
C172 C173 1.388 . S
C172 C176 1.382 . S
C172 H195 0.950 . S
C173 C172 1.388 . S
C173 C174 1.386 . S
C174 C173 1.386 . S
C174 C175 1.382 . S
C174 H196 0.950 . S
C175 N171 1.332 . S
C175 C174 1.382 . S
C175 H177 0.952 . S
C176 N171 1.332 . S
C176 C172 1.382 . S
C176 H178 0.948 . S
H177 C175 0.952 . S
H178 C176 0.948 . S
H179 C168 0.952 . S
H180 C170 0.948 . S
C181 C147 1.395 . S
C181 C151 1.391 1_455 S
C182 C144 1.389 . S
C182 C164 1.392 . S
C183 C154 1.392 . S
C183 C156 1.389 . S
C184 C159 1.410 . S
C184 C161 1.375 1_655 S
H185 C145 0.951 . S
H186 C146 0.950 . S
H187 C152 0.949 . S
H188 C153 0.950 . S
H189 C157 0.951 . S
H190 C158 0.950 . S
H191 C162 0.949 . S
H192 C163 0.950 . S
H193 C167 0.950 . S
H194 C169 0.950 . S
H195 C172 0.950 . S
H196 C174 0.950 . S
C197 C198 1.443 . S
C197 N201 1.376 . S
C197 C235 1.389 . S
C198 C197 1.443 . S
C198 C199 1.340 . S
C198 H238 0.951 . S
C199 C198 1.340 . S
C199 C200 1.439 . S
C199 H239 0.950 . S
C200 C199 1.439 . S
C200 N201 1.374 . S
C200 C234 1.395 . S
N201 C197 1.376 . S
N201 C200 1.374 . S
N201 Co202 2.008 . S
Co202 N201 2.008 . S
Co202 N203 1.995 1_545 S
Co202 N208 2.008 1_545 S
Co202 N213 1.995 . S
Co202 N218 2.282 1_545 S
Co202 N224 2.282 . S
N203 Co202 1.995 1_565 S
N203 C204 1.376 . S
N203 C207 1.383 . S
C204 N203 1.376 . S
C204 C205 1.446 . S
C204 C234 1.391 1_565 S
C205 C204 1.446 . S
C205 C206 1.339 . S
C205 H240 0.949 . S
C206 C205 1.339 . S
C206 C207 1.439 . S
C206 H241 0.950 . S
C207 N203 1.383 . S
C207 C206 1.439 . S
C207 C236 1.392 . S
N208 Co202 2.008 1_565 S
N208 C209 1.376 . S
N208 C212 1.374 . S
C209 N208 1.376 . S
C209 C210 1.443 . S
C209 C236 1.389 . S
C210 C209 1.443 . S
C210 C211 1.340 . S
C210 H242 0.951 . S
C211 C210 1.340 . S
C211 C212 1.439 . S
C211 H243 0.950 . S
C212 N208 1.374 . S
C212 C211 1.439 . S
C212 C237 1.381 1_565 S
N213 Co202 1.995 . S
N213 C214 1.376 . S
N213 C217 1.383 . S
C214 N213 1.376 . S
C214 C215 1.446 . S
C214 C237 1.407 . S
C215 C214 1.446 . S
C215 C216 1.339 . S
C215 H244 0.949 . S
C216 C215 1.339 . S
C216 C217 1.439 . S
C216 H245 0.950 . S
C217 N213 1.383 . S
C217 C216 1.439 . S
C217 C235 1.392 . S
N218 Co202 2.282 1_565 S
N218 C221 1.332 . S
N218 C223 1.332 . S
C219 C220 1.386 . S
C219 C222 1.388 . S
C220 C219 1.386 . S
C220 C221 1.382 . S
C220 H246 0.950 . S
C221 N218 1.332 . S
C221 C220 1.382 . S
C221 H232 0.952 . S
C222 C219 1.388 . S
C222 C223 1.382 . S
C222 H247 0.950 . S
C223 N218 1.332 . S
C223 C222 1.382 . S
C223 H233 0.948 . S
N224 Co202 2.282 . S
N224 C228 1.332 . S
N224 C229 1.332 . S
C225 C226 1.388 . S
C225 C229 1.382 . S
C225 H248 0.950 . S
C226 C225 1.388 . S
C226 C227 1.386 . S
C227 C226 1.386 . S
C227 C228 1.382 . S
C227 H249 0.950 . S
C228 N224 1.332 . S
C228 C227 1.382 . S
C228 H230 0.952 . S
C229 N224 1.332 . S
C229 C225 1.382 . S
C229 H231 0.948 . S
H230 C228 0.952 . S
H231 C229 0.948 . S
H232 C221 0.952 . S
H233 C223 0.948 . S
C234 C200 1.395 . S
C234 C204 1.391 1_545 S
C235 C197 1.389 . S
C235 C217 1.392 . S
C236 C207 1.392 . S
C236 C209 1.389 . S
C237 C212 1.381 1_545 S
C237 C214 1.407 . S
H238 C198 0.951 . S
H239 C199 0.950 . S
H240 C205 0.949 . S
H241 C206 0.950 . S
H242 C210 0.951 . S
H243 C211 0.950 . S
H244 C215 0.949 . S
H245 C216 0.950 . S
H246 C220 0.950 . S
H247 C222 0.950 . S
H248 C225 0.950 . S
H249 C227 0.950 . S
C250 C251 1.443 . S
C250 N254 1.376 . S
C250 C288 1.389 . S
C251 C250 1.443 . S
C251 C252 1.340 . S
C251 H291 0.951 . S
C252 C251 1.340 . S
C252 C253 1.439 . S
C252 H292 0.950 . S
C253 C252 1.439 . S
C253 N254 1.374 . S
C253 C287 1.395 . S
N254 C250 1.376 . S
N254 C253 1.374 . S
N254 Co255 2.008 . S
Co255 N254 2.008 . S
Co255 N256 1.995 1_455 S
Co255 N261 2.008 1_455 S
Co255 N266 1.995 . S
Co255 N271 2.282 1_455 S
Co255 N277 2.282 . S
N256 Co255 1.995 1_655 S
N256 C257 1.376 . S
N256 C260 1.383 . S
C257 N256 1.376 . S
C257 C258 1.446 . S
C257 C287 1.391 1_655 S
C258 C257 1.446 . S
C258 C259 1.339 . S
C258 H293 0.949 . S
C259 C258 1.339 . S
C259 C260 1.439 . S
C259 H294 0.950 . S
C260 N256 1.383 . S
C260 C259 1.439 . S
C260 C289 1.392 . S
N261 Co255 2.008 1_655 S
N261 C262 1.376 . S
N261 C265 1.374 . S
C262 N261 1.376 . S
C262 C263 1.443 . S
C262 C289 1.389 . S
C263 C262 1.443 . S
C263 C264 1.340 . S
C263 H295 0.951 . S
C264 C263 1.340 . S
C264 C265 1.439 . S
C264 H296 0.950 . S
C265 N261 1.374 . S
C265 C264 1.439 . S
C265 C290 1.395 . S
N266 Co255 1.995 . S
N266 C267 1.376 . S
N266 C270 1.383 . S
C267 N266 1.376 . S
C267 C268 1.446 . S
C267 C290 1.391 1_455 S
C268 C267 1.446 . S
C268 C269 1.339 . S
C268 H297 0.949 . S
C269 C268 1.339 . S
C269 C270 1.439 . S
C269 H298 0.950 . S
C270 N266 1.383 . S
C270 C269 1.439 . S
C270 C288 1.392 . S
N271 Co255 2.282 1_655 S
N271 C274 1.332 . S
N271 C276 1.332 . S
C272 C273 1.386 . S
C272 C275 1.388 . S
C273 C272 1.386 . S
C273 C274 1.382 . S
C273 H299 0.950 . S
C274 N271 1.332 . S
C274 C273 1.382 . S
C274 H285 0.952 . S
C275 C272 1.388 . S
C275 C276 1.382 . S
C275 H300 0.950 . S
C276 N271 1.332 . S
C276 C275 1.382 . S
C276 H286 0.948 . S
N277 Co255 2.282 . S
N277 C281 1.332 . S
N277 C282 1.332 . S
C278 C279 1.388 . S
C278 C282 1.382 . S
C278 H301 0.950 . S
C279 C278 1.388 . S
C279 C280 1.386 . S
C280 C279 1.386 . S
C280 C281 1.382 . S
C280 H302 0.950 . S
C281 N277 1.332 . S
C281 C280 1.382 . S
C281 H283 0.952 . S
C282 N277 1.332 . S
C282 C278 1.382 . S
C282 H284 0.948 . S
H283 C281 0.952 . S
H284 C282 0.948 . S
H285 C274 0.952 . S
H286 C276 0.948 . S
C287 C253 1.395 . S
C287 C257 1.391 1_455 S
C288 C250 1.389 . S
C288 C270 1.392 . S
C289 C260 1.392 . S
C289 C262 1.389 . S
C290 C265 1.395 . S
C290 C267 1.391 1_655 S
H291 C251 0.951 . S
H292 C252 0.950 . S
H293 C258 0.949 . S
H294 C259 0.950 . S
H295 C263 0.951 . S
H296 C264 0.950 . S
H297 C268 0.949 . S
H298 C269 0.950 . S
H299 C273 0.950 . S
H300 C275 0.950 . S
H301 C278 0.950 . S
H302 C280 0.950 . S
C303 C304 1.443 . S
C303 N307 1.376 . S
C303 C341 1.389 . S
C304 C303 1.443 . S
C304 C305 1.340 . S
C304 H344 0.951 . S
C305 C304 1.340 . S
C305 C306 1.439 . S
C305 H345 0.950 . S
C306 C305 1.439 . S
C306 N307 1.374 . S
C306 C340 1.409 . S
N307 C303 1.376 . S
N307 C306 1.374 . S
N307 Co308 2.008 1_565 S
Co308 N307 2.008 1_545 S
Co308 N309 1.995 . S
Co308 N314 2.008 . S
Co308 N319 1.995 1_545 S
Co308 N324 2.282 . S
Co308 N330 2.282 1_545 S
N309 Co308 1.995 . S
N309 C310 1.376 . S
N309 C313 1.383 . S
C310 N309 1.376 . S
C310 C311 1.446 . S
C310 C340 1.377 1_545 S
C311 C310 1.446 . S
C311 C312 1.339 . S
C311 H346 0.949 . S
C312 C311 1.339 . S
C312 C313 1.439 . S
C312 H347 0.950 . S
C313 N309 1.383 . S
C313 C312 1.439 . S
C313 C342 1.392 . S
N314 Co308 2.008 . S
N314 C315 1.376 . S
N314 C318 1.374 . S
C315 N314 1.376 . S
C315 C316 1.443 . S
C315 C342 1.389 . S
C316 C315 1.443 . S
C316 C317 1.340 . S
C316 H348 0.951 . S
C317 C316 1.340 . S
C317 C318 1.439 . S
C317 H349 0.950 . S
C318 N314 1.374 . S
C318 C317 1.439 . S
C318 C343 1.395 . S
N319 Co308 1.995 1_565 S
N319 C320 1.376 . S
N319 C323 1.383 . S
C320 N319 1.376 . S
C320 C321 1.446 . S
C320 C343 1.391 1_565 S
C321 C320 1.446 . S
C321 C322 1.339 . S
C321 H350 0.949 . S
C322 C321 1.339 . S
C322 C323 1.439 . S
C322 H351 0.950 . S
C323 N319 1.383 . S
C323 C322 1.439 . S
C323 C341 1.392 . S
N324 Co308 2.282 . S
N324 C327 1.332 . S
N324 C329 1.332 . S
C325 C326 1.386 . S
C325 C328 1.388 . S
C326 C325 1.386 . S
C326 C327 1.382 . S
C326 H352 0.950 . S
C327 N324 1.332 . S
C327 C326 1.382 . S
C327 H338 0.952 . S
C328 C325 1.388 . S
C328 C329 1.382 . S
C328 H353 0.950 . S
C329 N324 1.332 . S
C329 C328 1.382 . S
C329 H339 0.948 . S
N330 Co308 2.282 1_565 S
N330 C334 1.332 . S
N330 C335 1.332 . S
C331 C332 1.388 . S
C331 C335 1.382 . S
C331 H354 0.950 . S
C332 C331 1.388 . S
C332 C333 1.386 . S
C333 C332 1.386 . S
C333 C334 1.382 . S
C333 H355 0.950 . S
C334 N330 1.332 . S
C334 C333 1.382 . S
C334 H336 0.952 . S
C335 N330 1.332 . S
C335 C331 1.382 . S
C335 H337 0.948 . S
H336 C334 0.952 . S
H337 C335 0.948 . S
H338 C327 0.952 . S
H339 C329 0.948 . S
C340 C306 1.409 . S
C340 C310 1.377 1_565 S
C341 C303 1.389 . S
C341 C323 1.392 . S
C342 C313 1.392 . S
C342 C315 1.389 . S
C343 C318 1.395 . S
C343 C320 1.391 1_545 S
H344 C304 0.951 . S
H345 C305 0.950 . S
H346 C311 0.949 . S
H347 C312 0.950 . S
H348 C316 0.951 . S
H349 C317 0.950 . S
H350 C321 0.949 . S
H351 C322 0.950 . S
H352 C326 0.950 . S
H353 C328 0.950 . S
H354 C331 0.950 . S
H355 C333 0.950 . S
C356 C357 1.443 . S
C356 N360 1.376 . S
C356 C394 1.389 . S
C357 C356 1.443 . S
C357 C358 1.340 . S
C357 H397 0.951 . S
C358 C357 1.340 . S
C358 C359 1.439 . S
C358 H398 0.950 . S
C359 C358 1.439 . S
C359 N360 1.374 . S
C359 C393 1.398 1_554 S
N360 C356 1.376 . S
N360 C359 1.374 . S
N360 Co361 2.008 . S
Co361 N360 2.008 . S
Co361 N362 1.995 1_554 S
Co361 N367 2.008 1_554 S
Co361 N372 1.995 . S
Co361 N377 2.282 . S
Co361 N383 2.282 1_554 S
N362 Co361 1.995 1_556 S
N362 C363 1.376 . S
N362 C366 1.383 . S
C363 N362 1.376 . S
C363 C364 1.446 . S
C363 C393 1.389 . S
C364 C363 1.446 . S
C364 C365 1.339 . S
C364 H399 0.949 . S
C365 C364 1.339 . S
C365 C366 1.439 . S
C365 H400 0.950 . S
C366 N362 1.383 . S
C366 C365 1.439 . S
C366 C395 1.392 . S
N367 Co361 2.008 1_556 S
N367 C368 1.376 . S
N367 C371 1.374 . S
C368 N367 1.376 . S
C368 C369 1.443 . S
C368 C395 1.389 . S
C369 C368 1.443 . S
C369 C370 1.340 . S
C369 H401 0.951 . S
C370 C369 1.340 . S
C370 C371 1.439 . S
C370 H402 0.950 . S
C371 N367 1.374 . S
C371 C370 1.439 . S
C371 C396 1.395 1_556 S
N372 Co361 1.995 . S
N372 C373 1.376 . S
N372 C376 1.383 . S
C373 N372 1.376 . S
C373 C374 1.446 . S
C373 C396 1.391 . S
C374 C373 1.446 . S
C374 C375 1.339 . S
C374 H403 0.949 . S
C375 C374 1.339 . S
C375 C376 1.439 . S
C375 H404 0.950 . S
C376 N372 1.383 . S
C376 C375 1.439 . S
C376 C394 1.392 . S
N377 Co361 2.282 . S
N377 C380 1.332 . S
N377 C382 1.332 . S
C378 C379 1.386 . S
C378 C381 1.388 . S
C379 C378 1.386 . S
C379 C380 1.382 . S
C379 H405 0.950 . S
C380 N377 1.332 . S
C380 C379 1.382 . S
C380 H391 0.952 . S
C381 C378 1.388 . S
C381 C382 1.382 . S
C381 H406 0.950 . S
C382 N377 1.332 . S
C382 C381 1.382 . S
C382 H392 0.948 . S
N383 Co361 2.282 1_556 S
N383 C387 1.332 . S
N383 C388 1.332 . S
C384 C385 1.388 . S
C384 C388 1.382 . S
C384 H407 0.950 . S
C385 C384 1.388 . S
C385 C386 1.386 . S
C386 C385 1.386 . S
C386 C387 1.382 . S
C386 H408 0.950 . S
C387 N383 1.332 . S
C387 C386 1.382 . S
C387 H389 0.952 . S
C388 N383 1.332 . S
C388 C384 1.382 . S
C388 H390 0.948 . S
H389 C387 0.952 . S
H390 C388 0.948 . S
H391 C380 0.952 . S
H392 C382 0.948 . S
C393 C359 1.398 1_556 S
C393 C363 1.389 . S
C394 C356 1.389 . S
C394 C376 1.392 . S
C395 C366 1.392 . S
C395 C368 1.389 . S
C396 C371 1.395 1_554 S
C396 C373 1.391 . S
H397 C357 0.951 . S
H398 C358 0.950 . S
H399 C364 0.949 . S
H400 C365 0.950 . S
H401 C369 0.951 . S
H402 C370 0.950 . S
H403 C374 0.949 . S
H404 C375 0.950 . S
H405 C379 0.950 . S
H406 C381 0.950 . S
H407 C384 0.950 . S
H408 C386 0.950 . S
C409 C410 1.443 . S
C409 N413 1.376 . S
C409 C447 1.389 . S
C410 C409 1.443 . S
C410 C411 1.340 . S
C410 H450 0.951 . S
C411 C410 1.340 . S
C411 C412 1.439 . S
C411 H451 0.950 . S
C412 C411 1.439 . S
C412 N413 1.374 . S
C412 C446 1.395 . S
N413 C409 1.376 . S
N413 C412 1.374 . S
N413 Co414 2.008 . S
Co414 N413 2.008 . S
Co414 N415 1.995 1_554 S
Co414 N420 2.008 . S
Co414 N425 1.995 . S
Co414 N430 2.282 . S
Co414 N436 2.282 1_554 S
N415 Co414 1.995 1_556 S
N415 C416 1.376 . S
N415 C419 1.383 . S
C416 N415 1.376 . S
C416 C417 1.446 . S
C416 C446 1.391 1_556 S
C417 C416 1.446 . S
C417 C418 1.339 . S
C417 H452 0.949 . S
C418 C417 1.339 . S
C418 C419 1.439 . S
C418 H453 0.950 . S
C419 N415 1.383 . S
C419 C418 1.439 . S
C419 C448 1.392 . S
N420 Co414 2.008 . S
N420 C421 1.376 1_554 S
N420 C424 1.374 . S
C421 N420 1.376 1_556 S
C421 C422 1.443 . S
C421 C448 1.389 . S
C422 C421 1.443 . S
C422 C423 1.340 1_556 S
C422 H454 0.951 . S
C423 C422 1.340 1_554 S
C423 C424 1.439 . S
C423 H455 0.950 . S
C424 N420 1.374 . S
C424 C423 1.439 . S
C424 C449 1.395 . S
N425 Co414 1.995 . S
N425 C426 1.376 . S
N425 C429 1.383 . S
C426 N425 1.376 . S
C426 C427 1.446 . S
C426 C449 1.391 . S
C427 C426 1.446 . S
C427 C428 1.339 . S
C427 H456 0.949 . S
C428 C427 1.339 . S
C428 C429 1.439 . S
C428 H457 0.950 . S
C429 N425 1.383 . S
C429 C428 1.439 . S
C429 C447 1.392 . S
N430 Co414 2.282 . S
N430 C433 1.332 . S
N430 C435 1.332 . S
C431 C432 1.386 . S
C431 C434 1.388 . S
C432 C431 1.386 . S
C432 C433 1.382 . S
C432 H458 0.950 . S
C433 N430 1.332 . S
C433 C432 1.382 . S
C433 H444 0.952 . S
C434 C431 1.388 . S
C434 C435 1.382 . S
C434 H459 0.950 . S
C435 N430 1.332 . S
C435 C434 1.382 . S
C435 H445 0.948 . S
N436 Co414 2.282 1_556 S
N436 C440 1.332 . S
N436 C441 1.332 . S
C437 C438 1.388 . S
C437 C441 1.382 . S
C437 H460 0.950 . S
C438 C437 1.388 . S
C438 C439 1.386 . S
C439 C438 1.386 . S
C439 C440 1.382 . S
C439 H461 0.950 . S
C440 N436 1.332 . S
C440 C439 1.382 . S
C440 H442 0.952 . S
C441 N436 1.332 . S
C441 C437 1.382 . S
C441 H443 0.948 . S
H442 C440 0.952 . S
H443 C441 0.948 . S
H444 C433 0.952 . S
H445 C435 0.948 . S
C446 C412 1.395 . S
C446 C416 1.391 1_554 S
C447 C409 1.389 . S
C447 C429 1.392 . S
C448 C419 1.392 . S
C448 C421 1.389 . S
C449 C424 1.395 . S
C449 C426 1.391 . S
H450 C410 0.951 . S
H451 C411 0.950 . S
H452 C417 0.949 . S
H453 C418 0.950 . S
H454 C422 0.951 . S
H455 C423 0.950 . S
H456 C427 0.949 . S
H457 C428 0.950 . S
H458 C432 0.950 . S
H459 C434 0.950 . S
H460 C437 0.950 . S
H461 C439 0.950 . S
C462 C463 1.443 . S
C462 N466 1.376 1_556 S
C462 C500 1.389 . S
C463 C462 1.443 . S
C463 C464 1.340 1_556 S
C463 H503 0.951 . S
C464 C463 1.340 1_554 S
C464 C465 1.439 . S
C464 H504 0.950 . S
C465 C464 1.439 . S
C465 N466 1.374 . S
C465 C499 1.395 . S
N466 C462 1.376 1_554 S
N466 C465 1.374 . S
N466 Co467 2.008 . S
Co467 N466 2.008 . S
Co467 N468 1.995 . S
Co467 N473 2.008 . S
Co467 N478 1.995 . S
Co467 N483 2.282 1_554 S
Co467 N489 2.282 . S
N468 Co467 1.995 . S
N468 C469 1.376 . S
N468 C472 1.383 . S
C469 N468 1.376 . S
C469 C470 1.446 . S
C469 C499 1.391 . S
C470 C469 1.446 . S
C470 C471 1.339 . S
C470 H505 0.949 . S
C471 C470 1.339 . S
C471 C472 1.439 . S
C471 H506 0.950 . S
C472 N468 1.383 . S
C472 C471 1.439 . S
C472 C501 1.392 . S
N473 Co467 2.008 . S
N473 C474 1.376 . S
N473 C477 1.374 . S
C474 N473 1.376 . S
C474 C475 1.443 . S
C474 C501 1.389 . S
C475 C474 1.443 . S
C475 C476 1.340 . S
C475 H507 0.951 . S
C476 C475 1.340 . S
C476 C477 1.439 . S
C476 H508 0.950 . S
C477 N473 1.374 . S
C477 C476 1.439 . S
C477 C502 1.395 . S
N478 Co467 1.995 . S
N478 C479 1.376 . S
N478 C482 1.383 1_554 S
C479 N478 1.376 . S
C479 C480 1.446 1_554 S
C479 C502 1.391 . S
C480 C479 1.446 1_556 S
C480 C481 1.339 . S
C480 H509 0.949 . S
C481 C480 1.339 . S
C481 C482 1.439 . S
C481 H510 0.950 . S
C482 N478 1.383 1_556 S
C482 C481 1.439 . S
C482 C500 1.392 . S
N483 Co467 2.282 1_556 S
N483 C486 1.332 . S
N483 C488 1.332 . S
C484 C485 1.386 . S
C484 C487 1.388 . S
C485 C484 1.386 . S
C485 C486 1.382 . S
C485 H511 0.950 . S
C486 N483 1.332 . S
C486 C485 1.382 . S
C486 H497 0.952 . S
C487 C484 1.388 . S
C487 C488 1.382 . S
C487 H512 0.950 . S
C488 N483 1.332 . S
C488 C487 1.382 . S
C488 H498 0.948 1_556 S
N489 Co467 2.282 . S
N489 C493 1.332 . S
N489 C494 1.332 . S
C490 C491 1.388 . S
C490 C494 1.382 . S
C490 H513 0.950 . S
C491 C490 1.388 . S
C491 C492 1.386 . S
C492 C491 1.386 . S
C492 C493 1.382 . S
C492 H514 0.950 . S
C493 N489 1.332 . S
C493 C492 1.382 . S
C493 H495 0.952 . S
C494 N489 1.332 . S
C494 C490 1.382 . S
C494 H496 0.948 . S
H495 C493 0.952 . S
H496 C494 0.948 . S
H497 C486 0.952 . S
H498 C488 0.948 1_554 S
C499 C465 1.395 . S
C499 C469 1.391 . S
C500 C462 1.389 . S
C500 C482 1.392 . S
C501 C472 1.392 . S
C501 C474 1.389 . S
C502 C477 1.395 . S
C502 C479 1.391 . S
H503 C463 0.951 . S
H504 C464 0.950 . S
H505 C470 0.949 . S
H506 C471 0.950 . S
H507 C475 0.951 . S
H508 C476 0.950 . S
H509 C480 0.949 . S
H510 C481 0.950 . S
H511 C485 0.950 . S
H512 C487 0.950 . S
H513 C490 0.950 . S
H514 C492 0.950 . S
C515 C516 1.443 . S
C515 N519 1.376 . S
C515 C553 1.389 . S
C516 C515 1.443 . S
C516 C517 1.340 . S
C516 H556 0.951 . S
C517 C516 1.340 . S
C517 C518 1.439 . S
C517 H557 0.950 . S
C518 C517 1.439 . S
C518 N519 1.374 . S
C518 C552 1.395 1_554 S
N519 C515 1.376 . S
N519 C518 1.374 . S
N519 Co520 2.008 . S
Co520 N519 2.008 . S
Co520 N521 1.995 1_554 S
Co520 N526 2.008 1_554 S
Co520 N531 1.995 . S
Co520 N536 2.282 . S
Co520 N542 2.282 1_554 S
N521 Co520 1.995 1_556 S
N521 C522 1.376 . S
N521 C525 1.383 . S
C522 N521 1.376 . S
C522 C523 1.446 . S
C522 C552 1.391 . S
C523 C522 1.446 . S
C523 C524 1.339 . S
C523 H558 0.949 . S
C524 C523 1.339 . S
C524 C525 1.439 . S
C524 H559 0.950 . S
C525 N521 1.383 . S
C525 C524 1.439 . S
C525 C554 1.392 . S
N526 Co520 2.008 1_556 S
N526 C527 1.376 . S
N526 C530 1.374 1_556 S
C527 N526 1.376 . S
C527 C528 1.443 . S
C527 C554 1.389 . S
C528 C527 1.443 . S
C528 C529 1.340 . S
C528 H560 0.951 . S
C529 C528 1.340 . S
C529 C530 1.439 1_556 S
C529 H561 0.950 . S
C530 N526 1.374 1_554 S
C530 C529 1.439 1_554 S
C530 C555 1.395 . S
N531 Co520 1.995 . S
N531 C532 1.376 . S
N531 C535 1.383 . S
C532 N531 1.376 . S
C532 C533 1.446 . S
C532 C555 1.391 . S
C533 C532 1.446 . S
C533 C534 1.339 . S
C533 H562 0.949 . S
C534 C533 1.339 . S
C534 C535 1.439 . S
C534 H563 0.950 . S
C535 N531 1.383 . S
C535 C534 1.439 . S
C535 C553 1.392 . S
N536 Co520 2.282 . S
N536 C539 1.332 . S
N536 C541 1.332 . S
C537 C538 1.386 . S
C537 C540 1.388 . S
C538 C537 1.386 . S
C538 C539 1.382 . S
C538 H564 0.950 . S
C539 N536 1.332 . S
C539 C538 1.382 . S
C539 H550 0.952 . S
C540 C537 1.388 . S
C540 C541 1.382 . S
C540 H565 0.950 . S
C541 N536 1.332 . S
C541 C540 1.382 . S
C541 H551 0.948 . S
N542 Co520 2.282 1_556 S
N542 C546 1.332 . S
N542 C547 1.332 . S
C543 C544 1.388 . S
C543 C547 1.382 . S
C543 H566 0.950 . S
C544 C543 1.388 . S
C544 C545 1.386 . S
C545 C544 1.386 . S
C545 C546 1.382 . S
C545 H567 0.950 . S
C546 N542 1.332 . S
C546 C545 1.382 . S
C546 H548 0.952 . S
C547 N542 1.332 . S
C547 C543 1.382 . S
C547 H549 0.948 . S
H548 C546 0.952 . S
H549 C547 0.948 . S
H550 C539 0.952 . S
H551 C541 0.948 . S
C552 C518 1.395 1_556 S
C552 C522 1.391 . S
C553 C515 1.389 . S
C553 C535 1.392 . S
C554 C525 1.392 . S
C554 C527 1.389 . S
C555 C530 1.395 . S
C555 C532 1.391 . S
H556 C516 0.951 . S
H557 C517 0.950 . S
H558 C523 0.949 . S
H559 C524 0.950 . S
H560 C528 0.951 . S
H561 C529 0.950 . S
H562 C533 0.949 . S
H563 C534 0.950 . S
H564 C538 0.950 . S
H565 C540 0.950 . S
H566 C543 0.950 . S
H567 C545 0.950 . S
H568 C574 0.930 . S
H569 C578 0.930 . S
H570 C583 0.929 . S
H571 C581 0.929 . S
H572 C576 0.929 . S
H573 C582 0.929 . S
C574 H568 0.930 . S
C574 C575 1.367 . S
C574 C582 1.378 . S
C575 C574 1.367 . S
C575 C583 1.433 . S
C576 H572 0.929 . S
C576 C578 1.378 . S
C576 C580 1.350 . S
C577 C580 1.463 . S
C577 C582 1.350 . S
C577 N585 1.427 . S
C578 H569 0.930 . S
C578 C576 1.378 . S
C578 C579 1.367 . S
C579 C578 1.367 . S
C579 C581 1.433 . S
C580 C576 1.350 . S
C580 C577 1.463 . S
C580 N584 1.427 . S
C581 H571 0.929 . S
C581 C579 1.433 . S
C581 N584 1.384 . S
C582 H573 0.929 . S
C582 C574 1.378 . S
C582 C577 1.350 . S
C583 H570 0.929 . S
C583 C575 1.433 . S
C583 N585 1.384 . S
N584 C580 1.427 . S
N584 C581 1.384 . S
N585 C577 1.427 . S
N585 C583 1.384 . S
H586 C592 0.930 . S
H587 C596 0.930 . S
H588 C601 0.929 . S
H589 C599 0.929 . S
H590 C594 0.929 . S
H591 C600 0.929 . S
C592 H586 0.930 . S
C592 C593 1.367 . S
C592 C600 1.378 . S
C593 C592 1.367 . S
C593 C601 1.433 . S
C594 H590 0.929 . S
C594 C596 1.378 . S
C594 C598 1.350 . S
C595 C598 1.463 . S
C595 C600 1.350 . S
C595 N603 1.427 . S
C596 H587 0.930 . S
C596 C594 1.378 . S
C596 C597 1.367 . S
C597 C596 1.367 . S
C597 C599 1.433 . S
C598 C594 1.350 . S
C598 C595 1.463 . S
C598 N602 1.427 . S
C599 H589 0.929 . S
C599 C597 1.433 . S
C599 N602 1.384 . S
C600 H591 0.929 . S
C600 C592 1.378 . S
C600 C595 1.350 . S
C601 H588 0.929 . S
C601 C593 1.433 . S
C601 N603 1.384 . S
N602 C598 1.427 . S
N602 C599 1.384 . S
N603 C595 1.427 . S
N603 C601 1.384 . S
H604 C610 0.930 . S
H605 C614 0.930 . S
H606 C619 0.929 . S
H607 C617 0.929 . S
H608 C612 0.929 . S
H609 C618 0.929 . S
C610 H604 0.930 . S
C610 C611 1.367 . S
C610 C618 1.378 . S
C611 C610 1.367 . S
C611 C619 1.433 . S
C612 H608 0.929 . S
C612 C614 1.378 . S
C612 C616 1.350 . S
C613 C616 1.463 . S
C613 C618 1.350 . S
C613 N621 1.427 . S
C614 H605 0.930 . S
C614 C612 1.378 . S
C614 C615 1.367 . S
C615 C614 1.367 . S
C615 C617 1.433 . S
C616 C612 1.350 . S
C616 C613 1.463 . S
C616 N620 1.427 . S
C617 H607 0.929 . S
C617 C615 1.433 . S
C617 N620 1.384 . S
C618 H609 0.929 . S
C618 C610 1.378 . S
C618 C613 1.350 . S
C619 H606 0.929 . S
C619 C611 1.433 . S
C619 N621 1.384 . S
N620 C616 1.427 . S
N620 C617 1.384 . S
N621 C613 1.427 . S
N621 C619 1.384 . S
H622 C628 0.930 . S
H623 C632 0.930 . S
H624 C637 0.929 . S
H625 C635 0.929 . S
H626 C630 0.929 . S
H627 C636 0.929 . S
C628 H622 0.930 . S
C628 C629 1.367 . S
C628 C636 1.378 . S
C629 C628 1.367 . S
C629 C637 1.433 . S
C630 H626 0.929 . S
C630 C632 1.378 . S
C630 C634 1.350 . S
C631 C634 1.463 . S
C631 C636 1.350 . S
C631 N639 1.427 . S
C632 H623 0.930 . S
C632 C630 1.378 . S
C632 C633 1.367 . S
C633 C632 1.367 . S
C633 C635 1.433 . S
C634 C630 1.350 . S
C634 C631 1.463 . S
C634 N638 1.427 . S
C635 H625 0.929 . S
C635 C633 1.433 . S
C635 N638 1.384 . S
C636 H627 0.929 . S
C636 C628 1.378 . S
C636 C631 1.350 . S
C637 H624 0.929 . S
C637 C629 1.433 . S
C637 N639 1.384 . S
N638 C634 1.427 . S
N638 C635 1.384 . S
N639 C631 1.427 . S
N639 C637 1.384 . S
H640 C646 0.930 . S
H641 C650 0.930 . S
H642 C655 0.929 . S
H643 C653 0.929 . S
H644 C648 0.929 . S
H645 C654 0.929 . S
C646 H640 0.930 . S
C646 C647 1.367 . S
C646 C654 1.378 . S
C647 C646 1.367 . S
C647 C655 1.433 . S
C648 H644 0.929 . S
C648 C650 1.378 . S
C648 C652 1.350 . S
C649 C652 1.463 . S
C649 C654 1.350 . S
C649 N657 1.427 . S
C650 H641 0.930 . S
C650 C648 1.378 . S
C650 C651 1.367 . S
C651 C650 1.367 . S
C651 C653 1.433 . S
C652 C648 1.350 . S
C652 C649 1.463 . S
C652 N656 1.427 . S
C653 H643 0.929 . S
C653 C651 1.433 . S
C653 N656 1.384 . S
C654 H645 0.929 . S
C654 C646 1.378 . S
C654 C649 1.350 . S
C655 H642 0.929 . S
C655 C647 1.433 . S
C655 N657 1.384 . S
N656 C652 1.427 . S
N656 C653 1.384 . S
N657 C649 1.427 . S
N657 C655 1.384 . S
H658 C664 0.930 . S
H659 C668 0.930 . S
H660 C673 0.929 . S
H661 C671 0.929 . S
H662 C666 0.929 . S
H663 C672 0.929 . S
C664 H658 0.930 . S
C664 C665 1.367 . S
C664 C672 1.378 . S
C665 C664 1.367 . S
C665 C673 1.433 . S
C666 H662 0.929 . S
C666 C668 1.378 . S
C666 C670 1.350 . S
C667 C670 1.463 . S
C667 C672 1.350 . S
C667 N675 1.427 . S
C668 H659 0.930 . S
C668 C666 1.378 . S
C668 C669 1.367 . S
C669 C668 1.367 . S
C669 C671 1.433 . S
C670 C666 1.350 . S
C670 C667 1.463 . S
C670 N674 1.427 . S
C671 H661 0.929 . S
C671 C669 1.433 . S
C671 N674 1.384 . S
C672 H663 0.929 . S
C672 C664 1.378 . S
C672 C667 1.350 . S
C673 H660 0.929 . S
C673 C665 1.433 . S
C673 N675 1.384 . S
N674 C670 1.427 . S
N674 C671 1.384 . S
N675 C667 1.427 . S
N675 C673 1.384 . S
H676 C682 0.930 . S
H677 C686 0.930 . S
H678 C691 0.929 . S
H679 C689 0.929 . S
H680 C684 0.929 . S
H681 C690 0.929 . S
C682 H676 0.930 . S
C682 C683 1.367 . S
C682 C690 1.378 . S
C683 C682 1.367 . S
C683 C691 1.433 . S
C684 H680 0.929 . S
C684 C686 1.378 . S
C684 C688 1.350 . S
C685 C688 1.463 . S
C685 C690 1.350 . S
C685 N693 1.427 . S
C686 H677 0.930 . S
C686 C684 1.378 . S
C686 C687 1.367 . S
C687 C686 1.367 . S
C687 C689 1.433 . S
C688 C684 1.350 . S
C688 C685 1.463 . S
C688 N692 1.427 . S
C689 H679 0.929 . S
C689 C687 1.433 . S
C689 N692 1.384 . S
C690 H681 0.929 . S
C690 C682 1.378 . S
C690 C685 1.350 . S
C691 H678 0.929 . S
C691 C683 1.433 . S
C691 N693 1.384 . S
N692 C688 1.427 . S
N692 C689 1.384 . S
N693 C685 1.427 . S
N693 C691 1.384 . S
H694 C700 0.930 . S
H695 C704 0.930 . S
H696 C709 0.929 . S
H697 C707 0.929 . S
H698 C702 0.929 . S
H699 C708 0.929 . S
C700 H694 0.930 . S
C700 C701 1.367 . S
C700 C708 1.378 . S
C701 C700 1.367 . S
C701 C709 1.433 . S
C702 H698 0.929 . S
C702 C704 1.378 . S
C702 C706 1.350 . S
C703 C706 1.463 . S
C703 C708 1.350 . S
C703 N711 1.427 . S
C704 H695 0.930 . S
C704 C702 1.378 . S
C704 C705 1.367 . S
C705 C704 1.367 . S
C705 C707 1.433 . S
C706 C702 1.350 . S
C706 C703 1.463 . S
C706 N710 1.427 . S
C707 H697 0.929 . S
C707 C705 1.433 . S
C707 N710 1.384 . S
C708 H699 0.929 . S
C708 C700 1.378 . S
C708 C703 1.350 . S
C709 H696 0.929 . S
C709 C701 1.433 . S
C709 N711 1.384 . S
N710 C706 1.427 . S
N710 C707 1.384 . S
N711 C703 1.427 . S
N711 C709 1.384 . S
H712 C718 0.930 . S
H713 C722 0.930 . S
H714 C727 0.929 . S
H715 C725 0.929 . S
H716 C720 0.929 . S
H717 C726 0.929 . S
C718 H712 0.930 . S
C718 C719 1.367 . S
C718 C726 1.378 . S
C719 C718 1.367 . S
C719 C727 1.433 . S
C720 H716 0.929 . S
C720 C722 1.378 . S
C720 C724 1.350 . S
C721 C724 1.463 . S
C721 C726 1.350 . S
C721 N729 1.427 . S
C722 H713 0.930 . S
C722 C720 1.378 . S
C722 C723 1.367 . S
C723 C722 1.367 . S
C723 C725 1.433 . S
C724 C720 1.350 . S
C724 C721 1.463 . S
C724 N728 1.427 . S
C725 H715 0.929 . S
C725 C723 1.433 . S
C725 N728 1.384 . S
C726 H717 0.929 . S
C726 C718 1.378 . S
C726 C721 1.350 . S
C727 H714 0.929 . S
C727 C719 1.433 . S
C727 N729 1.384 . S
N728 C724 1.427 . S
N728 C725 1.384 . S
N729 C721 1.427 . S
N729 C727 1.384 . S
H730 C736 0.930 . S
H731 C740 0.930 . S
H732 C745 0.929 . S
H733 C743 0.929 . S
H734 C738 0.929 . S
H735 C744 0.929 . S
C736 H730 0.930 . S
C736 C737 1.367 . S
C736 C744 1.378 . S
C737 C736 1.367 . S
C737 C745 1.433 . S
C738 H734 0.929 . S
C738 C740 1.378 . S
C738 C742 1.350 . S
C739 C742 1.463 . S
C739 C744 1.350 . S
C739 N747 1.427 . S
C740 H731 0.930 . S
C740 C738 1.378 . S
C740 C741 1.367 . S
C741 C740 1.367 . S
C741 C743 1.433 . S
C742 C738 1.350 . S
C742 C739 1.463 . S
C742 N746 1.427 . S
C743 H733 0.929 . S
C743 C741 1.433 . S
C743 N746 1.384 . S
C744 H735 0.929 . S
C744 C736 1.378 . S
C744 C739 1.350 . S
C745 H732 0.929 . S
C745 C737 1.433 . S
C745 N747 1.384 . S
N746 C742 1.427 . S
N746 C743 1.384 . S
N747 C739 1.427 . S
N747 C745 1.384 . S
H748 C754 0.930 . S
H749 C758 0.930 . S
H750 C763 0.929 . S
H751 C761 0.929 . S
H752 C756 0.929 . S
H753 C762 0.929 . S
C754 H748 0.930 . S
C754 C755 1.367 . S
C754 C762 1.378 . S
C755 C754 1.367 . S
C755 C763 1.433 . S
C756 H752 0.929 . S
C756 C758 1.378 . S
C756 C760 1.350 . S
C757 C760 1.463 . S
C757 C762 1.350 . S
C757 N765 1.427 . S
C758 H749 0.930 . S
C758 C756 1.378 . S
C758 C759 1.367 . S
C759 C758 1.367 . S
C759 C761 1.433 . S
C760 C756 1.350 . S
C760 C757 1.463 . S
C760 N764 1.427 . S
C761 H751 0.929 . S
C761 C759 1.433 . S
C761 N764 1.384 . S
C762 H753 0.929 . S
C762 C754 1.378 . S
C762 C757 1.350 . S
C763 H750 0.929 . S
C763 C755 1.433 . S
C763 N765 1.384 . S
N764 C760 1.427 . S
N764 C761 1.384 . S
N765 C757 1.427 . S
N765 C763 1.384 . S
H766 C772 0.930 . S
H767 C776 0.930 . S
H768 C781 0.929 . S
H769 C779 0.929 . S
H770 C774 0.929 . S
H771 C780 0.929 . S
C772 H766 0.930 . S
C772 C773 1.367 . S
C772 C780 1.378 . S
C773 C772 1.367 . S
C773 C781 1.433 . S
C774 H770 0.929 . S
C774 C776 1.378 . S
C774 C778 1.350 . S
C775 C778 1.463 . S
C775 C780 1.350 . S
C775 N783 1.427 . S
C776 H767 0.930 . S
C776 C774 1.378 . S
C776 C777 1.367 . S
C777 C776 1.367 . S
C777 C779 1.433 . S
C778 C774 1.350 . S
C778 C775 1.463 . S
C778 N782 1.427 . S
C779 H769 0.929 . S
C779 C777 1.433 . S
C779 N782 1.384 . S
C780 H771 0.929 . S
C780 C772 1.378 . S
C780 C775 1.350 . S
C781 H768 0.929 . S
C781 C773 1.433 . S
C781 N783 1.384 . S
N782 C778 1.427 . S
N782 C779 1.384 . S
N783 C775 1.427 . S
N783 C781 1.384 . S
H784 C790 0.930 . S
H785 C794 0.930 . S
H786 C799 0.929 . S
H787 C797 0.929 . S
H788 C792 0.929 . S
H789 C798 0.929 . S
C790 H784 0.930 . S
C790 C791 1.367 . S
C790 C798 1.378 . S
C791 C790 1.367 . S
C791 C799 1.433 . S
C792 H788 0.929 . S
C792 C794 1.378 . S
C792 C796 1.350 . S
C793 C796 1.463 . S
C793 C798 1.350 . S
C793 N801 1.427 . S
C794 H785 0.930 . S
C794 C792 1.378 . S
C794 C795 1.367 . S
C795 C794 1.367 . S
C795 C797 1.433 . S
C796 C792 1.350 . S
C796 C793 1.463 . S
C796 N800 1.427 . S
C797 H787 0.929 . S
C797 C795 1.433 . S
C797 N800 1.384 . S
C798 H789 0.929 . S
C798 C790 1.378 . S
C798 C793 1.350 . S
C799 H786 0.929 . S
C799 C791 1.433 . S
C799 N801 1.384 . S
N800 C796 1.427 . S
N800 C797 1.384 . S
N801 C793 1.427 . S
N801 C799 1.384 . S
H802 C808 0.930 . S
H803 C812 0.930 . S
H804 C817 0.929 . S
H805 C815 0.929 . S
H806 C810 0.929 . S
H807 C816 0.929 . S
C808 H802 0.930 . S
C808 C809 1.367 . S
C808 C816 1.378 . S
C809 C808 1.367 . S
C809 C817 1.433 . S
C810 H806 0.929 . S
C810 C812 1.378 . S
C810 C814 1.350 . S
C811 C814 1.463 . S
C811 C816 1.350 . S
C811 N819 1.427 . S
C812 H803 0.930 . S
C812 C810 1.378 . S
C812 C813 1.367 . S
C813 C812 1.367 . S
C813 C815 1.433 . S
C814 C810 1.350 . S
C814 C811 1.463 . S
C814 N818 1.427 . S
C815 H805 0.929 . S
C815 C813 1.433 . S
C815 N818 1.384 . S
C816 H807 0.929 . S
C816 C808 1.378 . S
C816 C811 1.350 . S
C817 H804 0.929 . S
C817 C809 1.433 . S
C817 N819 1.384 . S
N818 C814 1.427 . S
N818 C815 1.384 . S
N819 C811 1.427 . S
N819 C817 1.384 . S
H820 C826 0.930 . S
H821 C830 0.930 . S
H822 C835 0.929 . S
H823 C833 0.929 . S
H824 C828 0.929 . S
H825 C834 0.929 . S
C826 H820 0.930 . S
C826 C827 1.367 . S
C826 C834 1.378 . S
C827 C826 1.367 . S
C827 C835 1.433 . S
C828 H824 0.929 . S
C828 C830 1.378 . S
C828 C832 1.350 . S
C829 C832 1.463 . S
C829 C834 1.350 . S
C829 N837 1.427 . S
C830 H821 0.930 . S
C830 C828 1.378 . S
C830 C831 1.367 . S
C831 C830 1.367 . S
C831 C833 1.433 . S
C832 C828 1.350 . S
C832 C829 1.463 . S
C832 N836 1.427 . S
C833 H823 0.929 . S
C833 C831 1.433 . S
C833 N836 1.384 . S
C834 H825 0.929 . S
C834 C826 1.378 . S
C834 C829 1.350 . S
C835 H822 0.929 . S
C835 C827 1.433 . S
C835 N837 1.384 . S
N836 C832 1.427 . S
N836 C833 1.384 . S
N837 C829 1.427 . S
N837 C835 1.384 . S
H838 C844 0.930 . S
H839 C848 0.930 . S
H840 C853 0.929 . S
H841 C851 0.929 . S
H842 C846 0.929 . S
H843 C852 0.929 . S
C844 H838 0.930 . S
C844 C845 1.367 . S
C844 C852 1.378 . S
C845 C844 1.367 . S
C845 C853 1.433 . S
C846 H842 0.929 . S
C846 C848 1.378 . S
C846 C850 1.350 . S
C847 C850 1.463 . S
C847 C852 1.350 . S
C847 N855 1.427 . S
C848 H839 0.930 . S
C848 C846 1.378 . S
C848 C849 1.367 . S
C849 C848 1.367 . S
C849 C851 1.433 . S
C850 C846 1.350 . S
C850 C847 1.463 . S
C850 N854 1.427 . S
C851 H841 0.929 . S
C851 C849 1.433 . S
C851 N854 1.384 . S
C852 H843 0.929 . S
C852 C844 1.378 . S
C852 C847 1.350 . S
C853 H840 0.929 . S
C853 C845 1.433 . S
C853 N855 1.384 . S
N854 C850 1.427 . S
N854 C851 1.384 . S
N855 C847 1.427 . S
N855 C853 1.384 . S
H856 C862 0.930 . S
H857 C866 0.930 . S
H858 C871 0.929 . S
H859 C869 0.929 . S
H860 C864 0.929 . S
H861 C870 0.929 . S
C862 H856 0.930 . S
C862 C863 1.367 . S
C862 C870 1.378 . S
C863 C862 1.367 . S
C863 C871 1.433 . S
C864 H860 0.929 . S
C864 C866 1.378 . S
C864 C868 1.350 . S
C865 C868 1.463 . S
C865 C870 1.350 . S
C865 N873 1.427 . S
C866 H857 0.930 . S
C866 C864 1.378 . S
C866 C867 1.367 . S
C867 C866 1.367 . S
C867 C869 1.433 . S
C868 C864 1.350 . S
C868 C865 1.463 . S
C868 N872 1.427 . S
C869 H859 0.929 . S
C869 C867 1.433 . S
C869 N872 1.384 . S
C870 H861 0.929 . S
C870 C862 1.378 . S
C870 C865 1.350 . S
C871 H858 0.929 . S
C871 C863 1.433 . S
C871 N873 1.384 . S
N872 C868 1.427 . S
N872 C869 1.384 . S
N873 C865 1.427 . S
N873 C871 1.384 . S
H874 C880 0.930 . S
H875 C884 0.930 . S
H876 C889 0.929 . S
H877 C887 0.929 . S
H878 C882 0.929 . S
H879 C888 0.929 . S
C880 H874 0.930 . S
C880 C881 1.367 . S
C880 C888 1.378 . S
C881 C880 1.367 . S
C881 C889 1.433 . S
C882 H878 0.929 . S
C882 C884 1.378 . S
C882 C886 1.350 . S
C883 C886 1.463 . S
C883 C888 1.350 . S
C883 N891 1.427 . S
C884 H875 0.930 . S
C884 C882 1.378 . S
C884 C885 1.367 . S
C885 C884 1.367 . S
C885 C887 1.433 . S
C886 C882 1.350 . S
C886 C883 1.463 . S
C886 N890 1.427 . S
C887 H877 0.929 . S
C887 C885 1.433 . S
C887 N890 1.384 . S
C888 H879 0.929 . S
C888 C880 1.378 . S
C888 C883 1.350 . S
C889 H876 0.929 . S
C889 C881 1.433 . S
C889 N891 1.384 . S
N890 C886 1.427 . S
N890 C887 1.384 . S
N891 C883 1.427 . S
N891 C889 1.384 . S
H892 C898 0.930 . S
H893 C902 0.930 . S
H894 C907 0.929 . S
H895 C905 0.929 1_554 S
H896 C900 0.929 . S
H897 C906 0.929 . S
C898 H892 0.930 . S
C898 C899 1.367 . S
C898 C906 1.378 . S
C899 C898 1.367 . S
C899 C907 1.433 . S
C900 H896 0.929 . S
C900 C902 1.378 . S
C900 C904 1.350 . S
C901 C904 1.463 . S
C901 C906 1.350 . S
C901 N909 1.427 . S
C902 H893 0.930 . S
C902 C900 1.378 . S
C902 C903 1.367 . S
C903 C902 1.367 . S
C903 C905 1.433 . S
C904 C900 1.350 . S
C904 C901 1.463 . S
C904 N908 1.427 . S
C905 H895 0.929 1_556 S
C905 C903 1.433 . S
C905 N908 1.384 . S
C906 H897 0.929 . S
C906 C898 1.378 . S
C906 C901 1.350 . S
C907 H894 0.929 . S
C907 C899 1.433 . S
C907 N909 1.384 . S
N908 C904 1.427 . S
N908 C905 1.384 . S
N909 C901 1.427 . S
N909 C907 1.384 . S
H910 C916 0.930 . S
H911 C920 0.930 . S
H912 C925 0.929 . S
H913 C923 0.929 . S
H914 C918 0.929 . S
H915 C924 0.929 . S
C916 H910 0.930 . S
C916 C917 1.367 . S
C916 C924 1.378 . S
C917 C916 1.367 . S
C917 C925 1.433 . S
C918 H914 0.929 . S
C918 C920 1.378 . S
C918 C922 1.350 . S
C919 C922 1.463 . S
C919 C924 1.350 . S
C919 N927 1.427 . S
C920 H911 0.930 . S
C920 C918 1.378 . S
C920 C921 1.367 . S
C921 C920 1.367 . S
C921 C923 1.433 . S
C922 C918 1.350 . S
C922 C919 1.463 . S
C922 N926 1.427 . S
C923 H913 0.929 . S
C923 C921 1.433 . S
C923 N926 1.384 . S
C924 H915 0.929 . S
C924 C916 1.378 . S
C924 C919 1.350 . S
C925 H912 0.929 . S
C925 C917 1.433 . S
C925 N927 1.384 . S
N926 C922 1.427 . S
N926 C923 1.384 . S
N927 C919 1.427 . S
N927 C925 1.384 . S
H928 C934 0.930 . S
H929 C938 0.930 . S
H930 C943 0.929 . S
H931 C941 0.929 . S
H932 C936 0.929 . S
H933 C942 0.929 . S
C934 H928 0.930 . S
C934 C935 1.367 . S
C934 C942 1.378 . S
C935 C934 1.367 . S
C935 C943 1.433 . S
C936 H932 0.929 . S
C936 C938 1.378 . S
C936 C940 1.350 . S
C937 C940 1.463 . S
C937 C942 1.350 . S
C937 N945 1.427 . S
C938 H929 0.930 . S
C938 C936 1.378 . S
C938 C939 1.367 . S
C939 C938 1.367 . S
C939 C941 1.433 . S
C940 C936 1.350 . S
C940 C937 1.463 . S
C940 N944 1.427 . S
C941 H931 0.929 . S
C941 C939 1.433 . S
C941 N944 1.384 . S
C942 H933 0.929 . S
C942 C934 1.378 . S
C942 C937 1.350 . S
C943 H930 0.929 . S
C943 C935 1.433 . S
C943 N945 1.384 . S
N944 C940 1.427 . S
N944 C941 1.384 . S
N945 C937 1.427 . S
N945 C943 1.384 . S
H946 C952 0.930 . S
H947 C956 0.930 . S
H948 C961 0.929 . S
H949 C959 0.929 . S
H950 C954 0.929 . S
H951 C960 0.929 . S
C952 H946 0.930 . S
C952 C953 1.367 . S
C952 C960 1.378 . S
C953 C952 1.367 . S
C953 C961 1.433 . S
C954 H950 0.929 . S
C954 C956 1.378 . S
C954 C958 1.350 . S
C955 C958 1.463 . S
C955 C960 1.350 . S
C955 N963 1.427 . S
C956 H947 0.930 . S
C956 C954 1.378 . S
C956 C957 1.367 . S
C957 C956 1.367 . S
C957 C959 1.433 . S
C958 C954 1.350 . S
C958 C955 1.463 . S
C958 N962 1.427 . S
C959 H949 0.929 . S
C959 C957 1.433 . S
C959 N962 1.384 . S
C960 H951 0.929 . S
C960 C952 1.378 . S
C960 C955 1.350 . S
C961 H948 0.929 . S
C961 C953 1.433 . S
C961 N963 1.384 . S
N962 C958 1.427 . S
N962 C959 1.384 . S
N963 C955 1.427 . S
N963 C961 1.384 . S
H964 C970 0.930 . S
H965 C974 0.930 . S
H966 C979 0.929 . S
H967 C977 0.929 . S
H968 C972 0.929 . S
H969 C978 0.929 . S
C970 H964 0.930 . S
C970 C971 1.367 . S
C970 C978 1.378 . S
C971 C970 1.367 . S
C971 C979 1.433 . S
C972 H968 0.929 . S
C972 C974 1.378 . S
C972 C976 1.350 . S
C973 C976 1.463 . S
C973 C978 1.350 . S
C973 N981 1.427 . S
C974 H965 0.930 . S
C974 C972 1.378 . S
C974 C975 1.367 . S
C975 C974 1.367 . S
C975 C977 1.433 . S
C976 C972 1.350 . S
C976 C973 1.463 . S
C976 N980 1.427 . S
C977 H967 0.929 . S
C977 C975 1.433 . S
C977 N980 1.384 . S
C978 H969 0.929 . S
C978 C970 1.378 . S
C978 C973 1.350 . S
C979 H966 0.929 . S
C979 C971 1.433 . S
C979 N981 1.384 . S
N980 C976 1.427 . S
N980 C977 1.384 . S
N981 C973 1.427 . S
N981 C979 1.384 . S
H982 C988 0.930 . S
H983 C992 0.930 . S
H984 C997 0.929 . S
H985 C995 0.929 . S
H986 C990 0.929 . S
H987 C996 0.929 . S
C988 H982 0.930 . S
C988 C989 1.367 . S
C988 C996 1.378 . S
C989 C988 1.367 . S
C989 C997 1.433 . S
C990 H986 0.929 . S
C990 C992 1.378 . S
C990 C994 1.350 . S
C991 C994 1.463 . S
C991 C996 1.350 . S
C991 N999 1.427 . S
C992 H983 0.930 . S
C992 C990 1.378 . S
C992 C993 1.367 . S
C993 C992 1.367 . S
C993 C995 1.433 . S
C994 C990 1.350 . S
C994 C991 1.463 . S
C994 N998 1.427 . S
C995 H985 0.929 . S
C995 C993 1.433 . S
C995 N998 1.384 . S
C996 H987 0.929 . S
C996 C988 1.378 . S
C996 C991 1.350 . S
C997 H984 0.929 . S
C997 C989 1.433 . S
C997 N999 1.384 . S
N998 C994 1.427 . S
N998 C995 1.384 . S
N999 C991 1.427 . S
N999 C997 1.384 . S
H1000 C1006 0.930 . S
H1001 C1010 0.930 . S
H1002 C1015 0.929 . S
H1003 C1013 0.929 . S
H1004 C1008 0.929 . S
H1005 C1014 0.929 . S
C1006 H1000 0.930 . S
C1006 C1007 1.367 . S
C1006 C1014 1.378 . S
C1007 C1006 1.367 . S
C1007 C1015 1.433 . S
C1008 H1004 0.929 . S
C1008 C1010 1.378 . S
C1008 C1012 1.350 . S
C1009 C1012 1.463 . S
C1009 C1014 1.350 . S
C1009 N1017 1.427 . S
C1010 H1001 0.930 . S
C1010 C1008 1.378 . S
C1010 C1011 1.367 . S
C1011 C1010 1.367 . S
C1011 C1013 1.433 . S
C1012 C1008 1.350 . S
C1012 C1009 1.463 . S
C1012 N1016 1.427 . S
C1013 H1003 0.929 . S
C1013 C1011 1.433 . S
C1013 N1016 1.384 . S
C1014 H1005 0.929 . S
C1014 C1006 1.378 . S
C1014 C1009 1.350 . S
C1015 H1002 0.929 . S
C1015 C1007 1.433 . S
C1015 N1017 1.384 . S
N1016 C1012 1.427 . S
N1016 C1013 1.384 . S
N1017 C1009 1.427 . S
N1017 C1015 1.384 . S
H1018 C1024 0.930 . S
H1019 C1028 0.930 . S
H1020 C1033 0.929 . S
H1021 C1031 0.929 . S
H1022 C1026 0.929 . S
H1023 C1032 0.929 . S
C1024 H1018 0.930 . S
C1024 C1025 1.367 . S
C1024 C1032 1.378 . S
C1025 C1024 1.367 . S
C1025 C1033 1.433 . S
C1026 H1022 0.929 . S
C1026 C1028 1.378 . S
C1026 C1030 1.350 . S
C1027 C1030 1.463 . S
C1027 C1032 1.350 . S
C1027 N1035 1.427 . S
C1028 H1019 0.930 . S
C1028 C1026 1.378 . S
C1028 C1029 1.367 . S
C1029 C1028 1.367 . S
C1029 C1031 1.433 . S
C1030 C1026 1.350 . S
C1030 C1027 1.463 . S
C1030 N1034 1.427 . S
C1031 H1021 0.929 . S
C1031 C1029 1.433 . S
C1031 N1034 1.384 . S
C1032 H1023 0.929 . S
C1032 C1024 1.378 . S
C1032 C1027 1.350 . S
C1033 H1020 0.929 . S
C1033 C1025 1.433 . S
C1033 N1035 1.384 . S
N1034 C1030 1.427 . S
N1034 C1031 1.384 . S
N1035 C1027 1.427 . S
N1035 C1033 1.384 . S
H1036 C1042 0.930 . S
H1037 C1046 0.930 . S
H1038 C1051 0.929 . S
H1039 C1049 0.929 . S
H1040 C1044 0.929 . S
H1041 C1050 0.929 . S
C1042 H1036 0.930 . S
C1042 C1043 1.367 . S
C1042 C1050 1.378 . S
C1043 C1042 1.367 . S
C1043 C1051 1.433 . S
C1044 H1040 0.929 . S
C1044 C1046 1.378 . S
C1044 C1048 1.350 . S
C1045 C1048 1.463 . S
C1045 C1050 1.350 . S
C1045 N1053 1.427 . S
C1046 H1037 0.930 . S
C1046 C1044 1.378 . S
C1046 C1047 1.367 . S
C1047 C1046 1.367 . S
C1047 C1049 1.433 . S
C1048 C1044 1.350 . S
C1048 C1045 1.463 . S
C1048 N1052 1.427 . S
C1049 H1039 0.929 . S
C1049 C1047 1.433 . S
C1049 N1052 1.384 . S
C1050 H1041 0.929 . S
C1050 C1042 1.378 . S
C1050 C1045 1.350 . S
C1051 H1038 0.929 . S
C1051 C1043 1.433 . S
C1051 N1053 1.384 . S
N1052 C1048 1.427 . S
N1052 C1049 1.384 . S
N1053 C1045 1.427 . S
N1053 C1051 1.384 . S
H1054 C1060 0.930 . S
H1055 C1064 0.930 . S
H1056 C1069 0.929 . S
H1057 C1067 0.929 . S
H1058 C1062 0.929 . S
H1059 C1068 0.929 . S
C1060 H1054 0.930 . S
C1060 C1061 1.367 . S
C1060 C1068 1.378 . S
C1061 C1060 1.367 . S
C1061 C1069 1.433 . S
C1062 H1058 0.929 . S
C1062 C1064 1.378 . S
C1062 C1066 1.350 . S
C1063 C1066 1.463 . S
C1063 C1068 1.350 . S
C1063 N1071 1.427 . S
C1064 H1055 0.930 . S
C1064 C1062 1.378 . S
C1064 C1065 1.367 . S
C1065 C1064 1.367 . S
C1065 C1067 1.433 . S
C1066 C1062 1.350 . S
C1066 C1063 1.463 . S
C1066 N1070 1.427 . S
C1067 H1057 0.929 . S
C1067 C1065 1.433 . S
C1067 N1070 1.384 . S
C1068 H1059 0.929 . S
C1068 C1060 1.378 . S
C1068 C1063 1.350 . S
C1069 H1056 0.929 . S
C1069 C1061 1.433 . S
C1069 N1071 1.384 . S
N1070 C1066 1.427 . S
N1070 C1067 1.384 . S
N1071 C1063 1.427 . S
N1071 C1069 1.384 . S
H1072 C1078 0.930 . S
H1073 C1082 0.930 . S
H1074 C1087 0.929 . S
H1075 C1085 0.929 . S
H1076 C1080 0.929 . S
H1077 C1086 0.929 . S
C1078 H1072 0.930 . S
C1078 C1079 1.367 . S
C1078 C1086 1.378 . S
C1079 C1078 1.367 . S
C1079 C1087 1.433 . S
C1080 H1076 0.929 . S
C1080 C1082 1.378 . S
C1080 C1084 1.350 . S
C1081 C1084 1.463 . S
C1081 C1086 1.350 . S
C1081 N1089 1.427 . S
C1082 H1073 0.930 . S
C1082 C1080 1.378 . S
C1082 C1083 1.367 . S
C1083 C1082 1.367 . S
C1083 C1085 1.433 . S
C1084 C1080 1.350 . S
C1084 C1081 1.463 . S
C1084 N1088 1.427 . S
C1085 H1075 0.929 . S
C1085 C1083 1.433 . S
C1085 N1088 1.384 . S
C1086 H1077 0.929 . S
C1086 C1078 1.378 . S
C1086 C1081 1.350 . S
C1087 H1074 0.929 . S
C1087 C1079 1.433 . S
C1087 N1089 1.384 . S
N1088 C1084 1.427 . S
N1088 C1085 1.384 . S
N1089 C1081 1.427 . S
N1089 C1087 1.384 . S
H1090 C1096 0.930 . S
H1091 C1100 0.930 . S
H1092 C1105 0.929 . S
H1093 C1103 0.929 . S
H1094 C1098 0.929 . S
H1095 C1104 0.929 . S
C1096 H1090 0.930 . S
C1096 C1097 1.367 . S
C1096 C1104 1.378 . S
C1097 C1096 1.367 . S
C1097 C1105 1.433 . S
C1098 H1094 0.929 . S
C1098 C1100 1.378 . S
C1098 C1102 1.350 . S
C1099 C1102 1.463 . S
C1099 C1104 1.350 . S
C1099 N1107 1.427 . S
C1100 H1091 0.930 . S
C1100 C1098 1.378 . S
C1100 C1101 1.367 . S
C1101 C1100 1.367 . S
C1101 C1103 1.433 . S
C1102 C1098 1.350 . S
C1102 C1099 1.463 . S
C1102 N1106 1.427 . S
C1103 H1093 0.929 . S
C1103 C1101 1.433 . S
C1103 N1106 1.384 . S
C1104 H1095 0.929 . S
C1104 C1096 1.378 . S
C1104 C1099 1.350 . S
C1105 H1092 0.929 . S
C1105 C1097 1.433 . S
C1105 N1107 1.384 . S
N1106 C1102 1.427 . S
N1106 C1103 1.384 . S
N1107 C1099 1.427 . S
N1107 C1105 1.384 . S
H1108 C1114 0.930 . S
H1109 C1118 0.930 . S
H1110 C1123 0.929 . S
H1111 C1121 0.929 . S
H1112 C1116 0.929 . S
H1113 C1122 0.929 . S
C1114 H1108 0.930 . S
C1114 C1115 1.367 . S
C1114 C1122 1.378 . S
C1115 C1114 1.367 . S
C1115 C1123 1.433 . S
C1116 H1112 0.929 . S
C1116 C1118 1.378 . S
C1116 C1120 1.350 . S
C1117 C1120 1.463 . S
C1117 C1122 1.350 . S
C1117 N1125 1.427 . S
C1118 H1109 0.930 . S
C1118 C1116 1.378 . S
C1118 C1119 1.367 . S
C1119 C1118 1.367 . S
C1119 C1121 1.433 . S
C1120 C1116 1.350 . S
C1120 C1117 1.463 . S
C1120 N1124 1.427 . S
C1121 H1111 0.929 . S
C1121 C1119 1.433 . S
C1121 N1124 1.384 . S
C1122 H1113 0.929 . S
C1122 C1114 1.378 . S
C1122 C1117 1.350 . S
C1123 H1110 0.929 . S
C1123 C1115 1.433 . S
C1123 N1125 1.384 . S
N1124 C1120 1.427 . S
N1124 C1121 1.384 . S
N1125 C1117 1.427 . S
N1125 C1123 1.384 . S
H1126 C1132 0.930 . S
H1127 C1136 0.930 . S
H1128 C1141 0.929 . S
H1129 C1139 0.929 . S
H1130 C1134 0.929 . S
H1131 C1140 0.929 . S
C1132 H1126 0.930 . S
C1132 C1133 1.367 . S
C1132 C1140 1.378 . S
C1133 C1132 1.367 . S
C1133 C1141 1.433 . S
C1134 H1130 0.929 . S
C1134 C1136 1.378 . S
C1134 C1138 1.350 . S
C1135 C1138 1.463 . S
C1135 C1140 1.350 . S
C1135 N1143 1.427 . S
C1136 H1127 0.930 . S
C1136 C1134 1.378 . S
C1136 C1137 1.367 . S
C1137 C1136 1.367 . S
C1137 C1139 1.433 . S
C1138 C1134 1.350 . S
C1138 C1135 1.463 . S
C1138 N1142 1.427 . S
C1139 H1129 0.929 . S
C1139 C1137 1.433 . S
C1139 N1142 1.384 . S
C1140 H1131 0.929 . S
C1140 C1132 1.378 . S
C1140 C1135 1.350 . S
C1141 H1128 0.929 . S
C1141 C1133 1.433 . S
C1141 N1143 1.384 . S
N1142 C1138 1.427 . S
N1142 C1139 1.384 . S
N1143 C1135 1.427 . S
N1143 C1141 1.384 . S
C579 C173 1.495 . S
C575 C7 1.436 . S
C597 C226 1.304 . S
C593 C32 1.265 . S
C615 C289 1.540 . S
C611 C44 1.487 . S
C633 C332 1.275 . S
C629 C62 1.221 . S
C647 C88 1.495 . S
C651 C288 1.548 . S
C669 C325 1.322 . S
C665 C106 1.274 . S
C687 C166 1.497 . S
C683 C124 1.434 . S
C705 C219 1.254 . S
C701 C140 1.207 . S
C723 C272 1.532 . S
C719 C142 1.450 . S
C741 C341 1.811 . S
C737 C86 1.744 . S
C759 C182 1.584 . S
C755 C104 1.522 . S
C777 C235 1.758 . S
C773 C122 1.693 . S
C795 C183 1.577 . S
C791 C34 1.504 . S
C813 C236 1.807 . S
C809 C43 1.731 . S
C831 C279 1.539 . S
C827 C61 1.464 . S
C849 C342 1.764 . S
C845 C8 1.688 . S
C867 C385 1.478 . S
C863 C133 1.415 . S
C881 C80 1.621 . S
C885 C438 1.685 . S
C899 C98 1.513 . S
C903 C500 1.561 . S
C917 C116 1.623 . S
C921 C554 1.683 . S
C935 C25 1.466 . S
C939 C501 1.519 . S
C953 C52 1.676 . S
C957 C553 1.739 . S
C971 C70 1.443 . S
C975 C378 1.511 . S
C993 C431 1.643 . S
C989 C14 1.578 . S
C1011 C491 1.509 . S
C1007 C16 1.435 . S
C1025 C26 1.324 . S
C1029 C537 1.377 . S
C1043 C50 1.539 . S
C1047 C394 1.601 . S
C1061 C68 1.298 . S
C1065 C447 1.356 . S
C1083 C395 1.552 . S
C1079 C79 1.485 . S
C1101 C448 1.411 . S
C1097 C97 1.364 . S
C1115 C115 1.469 . S
C1119 C484 1.552 . S
C1137 C544 1.329 . S
C1133 C134 1.274 . S
