# Generated by pormake.
# Topology hwx, (6,3)-cn, num edge types: 1
# Building blocks:
#     Node 0, Type 0, BuildingBlock: IZENUY_clean_sbu_0, # of connection points: 6
#     Node 1, Type 0, BuildingBlock: IZENUY_clean_sbu_0, # of connection points: 6
#     Node 2, Type 0, BuildingBlock: IZENUY_clean_sbu_0, # of connection points: 6
#     Node 3, Type 0, BuildingBlock: IZENUY_clean_sbu_0, # of connection points: 6
#     Node 4, Type 1, BuildingBlock: BELTOD_clean_linker_0, # of connection points: 3
#     Node 5, Type 1, BuildingBlock: BELTOD_clean_linker_0, # of connection points: 3
#     Node 6, Type 1, BuildingBlock: BELTOD_clean_linker_0, # of connection points: 3
#     Node 7, Type 1, BuildingBlock: BELTOD_clean_linker_0, # of connection points: 3
#     Node 8, Type 1, BuildingBlock: BELTOD_clean_linker_0, # of connection points: 3
#     Node 9, Type 1, BuildingBlock: BELTOD_clean_linker_0, # of connection points: 3
#     Node 10, Type 1, BuildingBlock: BELTOD_clean_linker_0, # of connection points: 3
#     Node 11, Type 1, BuildingBlock: BELTOD_clean_linker_0, # of connection points: 3
#     Edge 12, Type (0, 1), BuildingBlock: AJUNOK_clean_linker_0, # of connection points: 2
#     Edge 13, Type (0, 1), BuildingBlock: AJUNOK_clean_linker_0, # of connection points: 2
#     Edge 14, Type (0, 1), BuildingBlock: AJUNOK_clean_linker_0, # of connection points: 2
#     Edge 15, Type (0, 1), BuildingBlock: AJUNOK_clean_linker_0, # of connection points: 2
#     Edge 16, Type (0, 1), BuildingBlock: AJUNOK_clean_linker_0, # of connection points: 2
#     Edge 17, Type (0, 1), BuildingBlock: AJUNOK_clean_linker_0, # of connection points: 2
#     Edge 18, Type (0, 1), BuildingBlock: AJUNOK_clean_linker_0, # of connection points: 2
#     Edge 19, Type (0, 1), BuildingBlock: AJUNOK_clean_linker_0, # of connection points: 2
#     Edge 20, Type (0, 1), BuildingBlock: AJUNOK_clean_linker_0, # of connection points: 2
#     Edge 21, Type (0, 1), BuildingBlock: AJUNOK_clean_linker_0, # of connection points: 2
#     Edge 22, Type (0, 1), BuildingBlock: AJUNOK_clean_linker_0, # of connection points: 2
#     Edge 23, Type (0, 1), BuildingBlock: AJUNOK_clean_linker_0, # of connection points: 2
#     Edge 24, Type (0, 1), BuildingBlock: AJUNOK_clean_linker_0, # of connection points: 2
#     Edge 25, Type (0, 1), BuildingBlock: AJUNOK_clean_linker_0, # of connection points: 2
#     Edge 26, Type (0, 1), BuildingBlock: AJUNOK_clean_linker_0, # of connection points: 2
#     Edge 27, Type (0, 1), BuildingBlock: AJUNOK_clean_linker_0, # of connection points: 2
#     Edge 28, Type (0, 1), BuildingBlock: AJUNOK_clean_linker_0, # of connection points: 2
#     Edge 29, Type (0, 1), BuildingBlock: AJUNOK_clean_linker_0, # of connection points: 2
#     Edge 30, Type (0, 1), BuildingBlock: AJUNOK_clean_linker_0, # of connection points: 2
#     Edge 31, Type (0, 1), BuildingBlock: AJUNOK_clean_linker_0, # of connection points: 2
#     Edge 32, Type (0, 1), BuildingBlock: AJUNOK_clean_linker_0, # of connection points: 2
#     Edge 33, Type (0, 1), BuildingBlock: AJUNOK_clean_linker_0, # of connection points: 2
#     Edge 34, Type (0, 1), BuildingBlock: AJUNOK_clean_linker_0, # of connection points: 2
#     Edge 35, Type (0, 1), BuildingBlock: AJUNOK_clean_linker_0, # of connection points: 2
# Relax obj value: 0.046
# Max RMSD: 0.072
# Mean RMSD: 0.062
data_MOF--net-hwx--node1-IZENUY_clean_sbu_0--node2-BELTOD_clean_linker_0--edge1-AJUNOK_clean_linker_0
_symmetry_space_group_name_H-M    P1
_symmetry_Int_Tables_number       1
_symmetry_cell_setting            triclinic
loop_
_symmetry_equiv_pos_as_xyz
'x, y, z'
_cell_length_a     41.867923
_cell_length_b     41.798001
_cell_length_c     19.84867
_cell_angle_alpha  89.424067
_cell_angle_beta   90.628953
_cell_angle_gamma 89.991012
loop_
_atom_site_label
_atom_site_type_symbol
_atom_site_fract_x
_atom_site_fract_y
_atom_site_fract_z
_atom_type_partial_charge
Fe0 Fe 0.24044 0.21273 0.07904 0.0
Fe1 Fe 0.23926 0.21283 0.92548 0.0
O2 O 0.2299 0.19381 0.00276 0.0
Fe3 Fe 0.2099 0.15625 0.00345 0.0
O4 O 0.18701 0.16434 0.08053 0.0
O5 O 0.19925 0.21419 0.1041 0.0
O6 O 0.23491 0.25353 0.04629 0.0
C7 C 0.21873 0.26412 0.99666 0.0
C8 C 0.25332 0.14739 0.10648 0.0
O9 O 0.21482 0.24733 0.9448 0.0
C10 C 0.25469 0.15108 0.89686 0.0
O11 O 0.28268 0.21281 0.05859 0.0
O12 O 0.27543 0.23254 0.95686 0.0
O13 O 0.24209 0.13722 0.05143 0.0
O14 O 0.24755 0.1755 0.12582 0.0
C15 C 0.17831 0.18722 0.90039 0.0
O16 O 0.26411 0.17963 0.90168 0.0
O17 O 0.22947 0.14182 0.92643 0.0
C18 C 0.29341 0.22688 0.00713 0.0
O19 O 0.20494 0.19699 0.87939 0.0
O20 O 0.17603 0.17246 0.95581 0.0
C21 C 0.18071 0.19059 0.10915 0.0
Fe22 Fe 0.24585 0.72195 0.57102 0.0
Fe23 Fe 0.28444 0.67288 0.49276 0.0
O24 O 0.25975 0.70728 0.49332 0.0
Fe25 Fe 0.24912 0.72727 0.41745 0.0
O26 O 0.25049 0.76736 0.45477 0.0
O27 O 0.26745 0.75909 0.55912 0.0
O28 O 0.2797 0.70734 0.62099 0.0
C29 C 0.30823 0.70231 0.60436 0.0
C30 C 0.19349 0.73458 0.48378 0.0
O31 O 0.31441 0.69199 0.54642 0.0
C32 C 0.24546 0.66121 0.38378 0.0
O33 O 0.2237 0.6854 0.58651 0.0
O34 O 0.26445 0.65395 0.56492 0.0
O35 O 0.2066 0.72282 0.43296 0.0
O36 O 0.20944 0.73983 0.53669 0.0
C37 C 0.31158 0.71256 0.39132 0.0
O38 O 0.25649 0.65151 0.4397 0.0
O39 O 0.24667 0.69058 0.36739 0.0
C40 C 0.23685 0.65818 0.58932 0.0
O41 O 0.30829 0.68553 0.41975 0.0
O42 O 0.29035 0.73368 0.39597 0.0
C43 C 0.26415 0.77719 0.50814 0.0
Fe44 Fe 0.76041 0.77581 0.92648 0.0
Fe45 Fe 0.7548 0.7757 0.08054 0.0
O46 O 0.76876 0.7939 0.00515 0.0
Fe47 Fe 0.79079 0.82999 0.00843 0.0
O48 O 0.76206 0.8508 0.95486 0.0
O49 O 0.75774 0.81339 0.87874 0.0
O50 O 0.7179 0.7792 0.9398 0.0
C51 C 0.70352 0.76719 0.98932 0.0
C52 C 0.82208 0.79448 0.90688 0.0
O53 O 0.71865 0.75867 0.04199 0.0
C54 C 0.81554 0.79995 0.1196 0.0
O55 O 0.76177 0.7347 0.95979 0.0
O56 O 0.77773 0.73971 0.06489 0.0
O57 O 0.81625 0.8204 0.93687 0.0
O58 O 0.80239 0.77165 0.90727 0.0
C59 C 0.74254 0.83866 0.10631 0.0
O60 O 0.78802 0.78948 0.13311 0.0
O61 O 0.82124 0.81214 0.06266 0.0
C62 C 0.77549 0.72335 0.01194 0.0
O63 O 0.73123 0.81071 0.10181 0.0
O64 O 0.76907 0.84592 0.08023 0.0
C65 C 0.75361 0.84198 0.89687 0.0
Fe66 Fe 0.70381 0.34443 0.52401 0.0
Fe67 Fe 0.73471 0.28709 0.59813 0.0
O68 O 0.72333 0.3068 0.52212 0.0
Fe69 Fe 0.73175 0.28885 0.44389 0.0
O70 O 0.73751 0.3265 0.3983 0.0
O71 O 0.73542 0.36354 0.47556 0.0
O72 O 0.72454 0.3581 0.60045 0.0
C73 C 0.74978 0.34884 0.6305 0.0
C74 C 0.67204 0.31203 0.41688 0.0
O75 O 0.75971 0.32051 0.62387 0.0
C76 C 0.71305 0.23625 0.52489 0.0
O77 O 0.67088 0.32825 0.57306 0.0
O78 O 0.70105 0.30212 0.64638 0.0
O79 O 0.68976 0.28766 0.42077 0.0
O80 O 0.67952 0.33739 0.44785 0.0
C81 C 0.78726 0.27609 0.51295 0.0
O82 O 0.71047 0.25218 0.57827 0.0
O83 O 0.72755 0.24779 0.47474 0.0
C84 C 0.67457 0.3146 0.6297 0.0
O85 O 0.77068 0.26865 0.56365 0.0
O86 O 0.77436 0.28901 0.46176 0.0
C87 C 0.74462 0.35415 0.4187 0.0
P88 P 0.2411 0.50725 0.98818 0.0
H89 H 0.27641 0.51056 0.11506 0.0
H90 H 0.27022 0.54453 0.21335 0.0
H91 H 0.17958 0.57817 0.13442 0.0
H92 H 0.18617 0.54431 0.03523 0.0
H93 H 0.26234 0.45395 0.90885 0.0
H94 H 0.24841 0.39734 0.90839 0.0
H95 H 0.17452 0.41479 0.05381 0.0
H96 H 0.18919 0.4717 0.05514 0.0
H97 H 0.24551 0.57526 0.96344 0.0
H98 H 0.20583 0.49335 0.86173 0.0
O99 O 0.28078 0.50647 0.98107 0.0
H100 H 0.23406 0.60858 0.86472 0.0
H101 H 0.19407 0.52685 0.76248 0.0
C102 C 0.2322 0.52571 0.06718 0.0
C103 C 0.25493 0.52479 0.1194 0.0
C104 C 0.25129 0.54411 0.1757 0.0
C105 C 0.22477 0.56452 0.18065 0.0
C106 C 0.20062 0.56323 0.13097 0.0
C107 C 0.20429 0.54382 0.07458 0.0
C108 C 0.22734 0.4667 0.9833 0.0
C109 C 0.24301 0.44564 0.94038 0.0
C110 C 0.23482 0.41337 0.93966 0.0
C111 C 0.21065 0.4016 0.98169 0.0
C112 C 0.19366 0.42316 0.02189 0.0
C113 C 0.20196 0.45561 0.02261 0.0
C114 C 0.22645 0.53192 0.92003 0.0
C115 C 0.23355 0.56463 0.92047 0.0
C116 C 0.22688 0.58368 0.86412 0.0
C117 C 0.21332 0.57023 0.8059 0.0
C118 C 0.2048 0.5377 0.80658 0.0
C119 C 0.21145 0.5186 0.86333 0.0
P120 P 0.97355 0.84606 0.51401 0.0
H121 H 0.95765 0.87781 0.64002 0.0
H122 H 0.92532 0.8617 0.7357 0.0
H123 H 0.91181 0.7684 0.64762 0.0
H124 H 0.94223 0.78574 0.54926 0.0
H125 H 0.02876 0.86225 0.43399 0.0
H126 H 0.08001 0.8355 0.41594 0.0
H127 H 0.05215 0.75948 0.55179 0.0
H128 H 0.0012 0.78618 0.57007 0.0
H129 H 0.91447 0.87511 0.46703 0.0
H130 H 0.97724 0.79942 0.40374 0.0
O131 O 0.97981 0.88543 0.51816 0.0
H132 H 0.87824 0.86334 0.37268 0.0
H133 H 0.94115 0.78783 0.30935 0.0
C134 C 0.95253 0.83288 0.58783 0.0
C135 C 0.94797 0.8538 0.64149 0.0
C136 C 0.9298 0.84434 0.69682 0.0
C137 C 0.91651 0.81343 0.70028 0.0
C138 C 0.9217 0.79234 0.64669 0.0
C139 C 0.93925 0.80213 0.59065 0.0
C140 C 0.01147 0.82663 0.50451 0.0
C141 C 0.0338 0.83996 0.4603 0.0
C142 C 0.06287 0.82461 0.44964 0.0
C143 C 0.06984 0.79556 0.4827 0.0
C144 C 0.04711 0.78178 0.52549 0.0
C145 C 0.0181 0.79724 0.5364 0.0
C146 C 0.94863 0.83842 0.44192 0.0
C147 C 0.9206 0.85623 0.43248 0.0
C148 C 0.89993 0.84943 0.37894 0.0
C149 C 0.90703 0.82463 0.33428 0.0
C150 C 0.93539 0.80717 0.34306 0.0
C151 C 0.95595 0.81383 0.39699 0.0
P152 P 0.84517 0.48334 0.02566 0.0
H153 H 0.87426 0.46012 0.9014 0.0
H154 H 0.85307 0.42931 0.80625 0.0
H155 H 0.76077 0.426 0.90074 0.0
H156 H 0.78196 0.45664 0.99566 0.0
H157 H 0.86883 0.53972 0.09451 0.0
H158 H 0.85317 0.59623 0.09084 0.0
H159 H 0.77897 0.57413 0.94582 0.0
H160 H 0.79511 0.51802 0.94849 0.0
H161 H 0.87077 0.43285 0.11289 0.0
H162 H 0.7882 0.49454 0.10723 0.0
O163 O 0.885 0.48164 0.02549 0.0
H164 H 0.85003 0.40578 0.21308 0.0
H165 H 0.76696 0.46705 0.20662 0.0
C166 C 0.82974 0.46048 0.95587 0.0
C167 C 0.8495 0.45266 0.90181 0.0
C168 C 0.83744 0.43504 0.84755 0.0
C169 C 0.80528 0.42549 0.84606 0.0
C170 C 0.78556 0.4334 0.9003 0.0
C171 C 0.7977 0.45073 0.95472 0.0
C172 C 0.83359 0.52479 0.02082 0.0
C173 C 0.8494 0.54715 0.06142 0.0
C174 C 0.84032 0.57933 0.05965 0.0
C175 C 0.81517 0.58965 0.0173 0.0
C176 C 0.79896 0.56701 0.97767 0.0
C177 C 0.8081 0.53485 0.97941 0.0
C178 C 0.83127 0.46597 0.10329 0.0
C179 C 0.84844 0.44092 0.13387 0.0
C180 C 0.83653 0.42542 0.19098 0.0
C181 C 0.80704 0.43453 0.21812 0.0
C182 C 0.79011 0.46004 0.18791 0.0
C183 C 0.80213 0.47561 0.13084 0.0
P184 P 0.03345 0.24879 0.4962 0.0
H185 H 0.02555 0.26252 0.35335 0.0
H186 H 0.05401 0.24383 0.25422 0.0
H187 H 0.10532 0.17538 0.37883 0.0
H188 H 0.07596 0.19325 0.47707 0.0
H189 H 0.99029 0.27294 0.59628 0.0
H190 H 0.93209 0.27636 0.6012 0.0
H191 H 0.92441 0.22285 0.41679 0.0
H192 H 0.98277 0.21949 0.41197 0.0
H193 H 0.09675 0.2624 0.5471 0.0
H194 H 0.01657 0.2047 0.6083 0.0
O195 O 0.04142 0.28771 0.48734 0.0
H196 H 0.12623 0.24583 0.6481 0.0
H197 H 0.04584 0.18856 0.71127 0.0
C198 C 0.04887 0.22956 0.4226 0.0
C199 C 0.04223 0.24283 0.35891 0.0
C200 C 0.05856 0.2322 0.3024 0.0
C201 C 0.082 0.20824 0.30878 0.0
C202 C 0.08708 0.19353 0.37202 0.0
C203 C 0.0705 0.20402 0.42849 0.0
C204 C 0.99083 0.2458 0.50413 0.0
C205 C 0.97607 0.26134 0.55767 0.0
C206 C 0.94285 0.26324 0.56049 0.0
C207 C 0.92381 0.24966 0.50958 0.0
C208 C 0.93862 0.23352 0.45658 0.0
C209 C 0.97194 0.23151 0.45398 0.0
C210 C 0.0543 0.23536 0.57105 0.0
C211 C 0.08541 0.24633 0.58268 0.0
C212 C 0.10218 0.23689 0.64049 0.0
C213 C 0.08821 0.21617 0.68798 0.0
C214 C 0.05724 0.20445 0.67544 0.0
C215 C 0.04043 0.21387 0.617 0.0
P216 P 0.74732 0.99551 0.48868 0.0
H217 H 0.77268 0.99353 0.35295 0.0
H218 H 0.76212 0.95793 0.25909 0.0
H219 H 0.68021 0.91946 0.36288 0.0
H220 H 0.69178 0.95464 0.45839 0.0
H221 H 0.77037 0.04758 0.56977 0.0
H222 H 0.75331 0.10282 0.58316 0.0
H223 H 0.67193 0.08546 0.45276 0.0
H224 H 0.68991 0.02995 0.43797 0.0
H225 H 0.76805 0.93111 0.51837 0.0
H226 H 0.71112 0.00306 0.61506 0.0
O227 O 0.78692 0.99908 0.48302 0.0
H228 H 0.76312 0.89638 0.61729 0.0
H229 H 0.70585 0.96812 0.71429 0.0
C230 C 0.73347 0.97617 0.41316 0.0
C231 C 0.75209 0.97788 0.35513 0.0
C232 C 0.7459 0.95754 0.30124 0.0
C233 C 0.72073 0.93528 0.30408 0.0
C234 C 0.70033 0.93567 0.35998 0.0
C235 C 0.70672 0.95598 0.41426 0.0
C236 C 0.73188 0.03506 0.50148 0.0
C237 C 0.74881 0.05562 0.5441 0.0
C238 C 0.73882 0.08711 0.55235 0.0
C239 C 0.71147 0.09864 0.51843 0.0
C240 C 0.69348 0.07742 0.47843 0.0
C241 C 0.70365 0.04575 0.47001 0.0
C242 C 0.74023 0.96967 0.55968 0.0
C243 C 0.75421 0.93927 0.5607 0.0
C244 C 0.75126 0.91942 0.61706 0.0
C245 C 0.7343 0.9297 0.67356 0.0
C246 C 0.71944 0.95986 0.67173 0.0
C247 C 0.72237 0.97975 0.61498 0.0
P248 P 0.5124 0.3444 0.01645 0.0
H249 H 0.51798 0.37541 0.88403 0.0
H250 H 0.55411 0.36646 0.78967 0.0
H251 H 0.59229 0.28299 0.89205 0.0
H252 H 0.55676 0.29248 0.98688 0.0
H253 H 0.44938 0.3605 0.06589 0.0
H254 H 0.39858 0.3316 0.06727 0.0
H255 H 0.44399 0.24984 0.97809 0.0
H256 H 0.49497 0.27892 0.97649 0.0
H257 H 0.5651 0.37981 0.075 0.0
H258 H 0.514 0.2926 0.11892 0.0
O259 O 0.50353 0.38334 0.01373 0.0
H260 H 0.60011 0.37009 0.17248 0.0
H261 H 0.54865 0.28303 0.21731 0.0
C262 C 0.5353 0.33504 0.94304 0.0
C263 C 0.53396 0.35505 0.88593 0.0
C264 C 0.55443 0.34982 0.83187 0.0
C265 C 0.57639 0.32442 0.83425 0.0
C266 C 0.57609 0.30319 0.88967 0.0
C267 C 0.55576 0.30853 0.94373 0.0
C268 C 0.47567 0.32218 0.01931 0.0
C269 C 0.44846 0.33641 0.04642 0.0
C270 C 0.41952 0.31989 0.04743 0.0
C271 C 0.41746 0.28873 0.02202 0.0
C272 C 0.44507 0.2739 0.99774 0.0
C273 C 0.47405 0.29058 0.99631 0.0
C274 C 0.53668 0.33724 0.09038 0.0
C275 C 0.56121 0.35875 0.10608 0.0
C276 C 0.58115 0.35319 0.16177 0.0
C277 C 0.5771 0.3258 0.20243 0.0
C278 C 0.55252 0.30416 0.18642 0.0
C279 C 0.53254 0.30977 0.13054 0.0
P280 P 0.34369 0.01318 0.50667 0.0
H281 H 0.33353 0.9968 0.64886 0.0
H282 H 0.31429 0.02789 0.74454 0.0
H283 H 0.30516 0.11113 0.61537 0.0
H284 H 0.32403 0.08012 0.52001 0.0
H285 H 0.37084 0.9536 0.45858 0.0
H286 H 0.35179 0.89812 0.46052 0.0
H287 H 0.26587 0.92825 0.55995 0.0
H288 H 0.28465 0.98379 0.55676 0.0
H289 H 0.3779 0.0454 0.39711 0.0
H290 H 0.28057 0.02114 0.4448 0.0
O291 O 0.38352 0.013 0.51074 0.0
H292 H 0.35945 0.07382 0.29554 0.0
H293 H 0.26193 0.04996 0.34362 0.0
C294 C 0.32929 0.03587 0.57685 0.0
C295 C 0.32704 0.02164 0.64097 0.0
C296 C 0.31616 0.03937 0.69556 0.0
C297 C 0.3083 0.07182 0.68712 0.0
C298 C 0.31127 0.08617 0.62319 0.0
C299 C 0.3218 0.06837 0.56858 0.0
C300 C 0.32961 0.97258 0.5094 0.0
C301 C 0.34802 0.94824 0.48124 0.0
C302 C 0.33712 0.91666 0.48213 0.0
C303 C 0.30768 0.90904 0.51141 0.0
C304 C 0.28897 0.93355 0.53841 0.0
C305 C 0.2997 0.96519 0.53666 0.0
C306 C 0.33057 0.03117 0.42838 0.0
C307 C 0.35259 0.04591 0.38541 0.0
C308 C 0.34203 0.06225 0.32756 0.0
C309 C 0.30924 0.06433 0.31215 0.0
C310 C 0.28734 0.04856 0.35412 0.0
C311 C 0.29794 0.0322 0.41195 0.0
P312 P 0.45697 0.77449 0.99384 0.0
H313 H 0.45473 0.79945 0.13005 0.0
H314 H 0.42639 0.78229 0.2313 0.0
H315 H 0.39023 0.69995 0.12501 0.0
H316 H 0.41959 0.71656 0.02491 0.0
H317 H 0.50121 0.77111 0.88188 0.0
H318 H 0.55898 0.7639 0.87699 0.0
H319 H 0.56278 0.75363 0.0938 0.0
H320 H 0.50492 0.75897 0.09797 0.0
H321 H 0.40135 0.79909 0.9221 0.0
H322 H 0.46411 0.71758 0.90857 0.0
O323 O 0.45448 0.81433 0.99378 0.0
H324 H 0.36983 0.77916 0.82702 0.0
H325 H 0.43268 0.69776 0.8122 0.0
C326 C 0.43875 0.75963 0.06967 0.0
C327 C 0.44105 0.77747 0.12889 0.0
C328 C 0.42489 0.76764 0.18667 0.0
C329 C 0.40607 0.73978 0.18616 0.0
C330 C 0.40496 0.72121 0.12747 0.0
C331 C 0.42142 0.73093 0.06983 0.0
C332 C 0.49861 0.76458 0.99004 0.0
C333 C 0.51433 0.76617 0.92814 0.0
C334 C 0.54739 0.76239 0.92545 0.0
C335 C 0.56539 0.75778 0.98491 0.0
C336 C 0.54951 0.7561 0.0469 0.0
C337 C 0.51637 0.75941 0.04938 0.0
C338 C 0.43544 0.76021 0.92126 0.0
C339 C 0.40867 0.7772 0.89794 0.0
C340 C 0.3907 0.76582 0.84377 0.0
C341 C 0.39922 0.73723 0.8121 0.0
C342 C 0.42612 0.72019 0.83518 0.0
C343 C 0.44396 0.73147 0.89009 0.0
C344 C 0.14261 0.22427 0.17269 0.0
C345 C 0.15304 0.19352 0.15474 0.0
C346 C 0.11875 0.22854 0.2204 0.0
C347 C 0.10424 0.20226 0.25248 0.0
H348 H 0.15345 0.24544 0.15078 0.0
H349 H 0.11255 0.25276 0.23418 0.0
S350 S 0.12077 0.11665 0.21998 0.0
N351 N 0.14556 0.13616 0.1701 0.0
N352 N 0.10039 0.14432 0.25998 0.0
C353 C 0.11346 0.17131 0.23339 0.0
C354 C 0.13782 0.1669 0.1843 0.0
C355 C 0.20575 0.64254 0.69123 0.0
C356 C 0.22409 0.63348 0.63556 0.0
C357 C 0.20005 0.62101 0.74428 0.0
C358 C 0.21213 0.58962 0.74308 0.0
H359 H 0.19771 0.66702 0.69635 0.0
H360 H 0.18767 0.62951 0.7883 0.0
S361 S 0.25682 0.55264 0.60352 0.0
N362 N 0.25051 0.58986 0.57816 0.0
N363 N 0.24006 0.54949 0.6782 0.0
C364 C 0.22793 0.57944 0.68496 0.0
C365 C 0.23385 0.60138 0.63111 0.0
C366 C 0.87139 0.8104 0.16069 0.0
C367 C 0.83926 0.80334 0.17502 0.0
C368 C 0.89352 0.8165 0.21257 0.0
C369 C 0.88411 0.81622 0.28031 0.0
H370 H 0.87943 0.81166 0.10903 0.0
H371 H 0.91791 0.82234 0.19957 0.0
S372 S 0.80361 0.79766 0.34565 0.0
N373 N 0.7997 0.79524 0.26305 0.0
N374 N 0.84139 0.80692 0.3597 0.0
C375 C 0.85242 0.80848 0.29557 0.0
C376 C 0.82997 0.80194 0.24314 0.0
C377 C 0.79313 0.36026 0.71587 0.0
C378 C 0.76505 0.37003 0.68157 0.0
C379 C 0.8065 0.37868 0.76786 0.0
C380 C 0.79213 0.4074 0.78804 0.0
H381 H 0.80467 0.33794 0.7033 0.0
H382 H 0.82774 0.36995 0.79373 0.0
S383 S 0.72008 0.44525 0.71196 0.0
N384 N 0.72455 0.41176 0.66971 0.0
N385 N 0.74971 0.4459 0.76745 0.0
C386 C 0.76471 0.41797 0.75317 0.0
C387 C 0.7512 0.39946 0.69993 0.0
C388 C 0.62758 0.34157 0.35833 0.0
C389 C 0.64529 0.3131 0.36689 0.0
C390 C 0.60494 0.34503 0.30636 0.0
C391 C 0.59883 0.32014 0.26094 0.0
H392 H 0.63182 0.36184 0.3908 0.0
H393 H 0.59246 0.36764 0.30097 0.0
S394 S 0.63689 0.23998 0.26307 0.0
N395 N 0.65364 0.25878 0.3271 0.0
N396 N 0.61121 0.26559 0.22908 0.0
C397 C 0.61526 0.29107 0.27031 0.0
C398 C 0.63843 0.28748 0.32331 0.0
C399 C 0.25694 0.09998 0.83141 0.0
C400 C 0.27067 0.12972 0.84804 0.0
C401 C 0.26984 0.08086 0.78073 0.0
C402 C 0.2968 0.09083 0.74457 0.0
H403 H 0.23555 0.09173 0.85635 0.0
H404 H 0.258 0.05862 0.7682 0.0
S405 S 0.3442 0.16439 0.77321 0.0
N406 N 0.31477 0.1666 0.82763 0.0
N407 N 0.3385 0.13067 0.73223 0.0
C408 C 0.31158 0.1197 0.76237 0.0
C409 C 0.29868 0.1391 0.81417 0.0
C410 C 0.34324 0.75011 0.31993 0.0
C411 C 0.33857 0.71883 0.34503 0.0
C412 C 0.36587 0.75666 0.27045 0.0
C413 C 0.38493 0.73226 0.24384 0.0
H414 H 0.32869 0.76976 0.33729 0.0
H415 H 0.36756 0.78092 0.25107 0.0
S416 S 0.38481 0.6469 0.29683 0.0
N417 N 0.3567 0.66348 0.34266 0.0
N418 N 0.39964 0.67605 0.24989 0.0
C419 C 0.38165 0.70112 0.27039 0.0
C420 C 0.3585 0.69437 0.32106 0.0
C421 C 0.73141 0.85531 0.78295 0.0
C422 C 0.74356 0.86595 0.84527 0.0
C423 C 0.72668 0.87648 0.7288 0.0
C424 C 0.7338 0.90917 0.73478 0.0
H425 H 0.72663 0.83015 0.7749 0.0
H426 H 0.71849 0.86699 0.68104 0.0
S427 S 0.76318 0.95 0.88848 0.0
N428 N 0.76006 0.91204 0.91129 0.0
N429 N 0.75147 0.95176 0.80883 0.0
C430 C 0.74401 0.92059 0.79781 0.0
C431 C 0.7488 0.899 0.85324 0.0
C432 C 0.84338 0.78321 0.79304 0.0
C433 C 0.84868 0.79412 0.85893 0.0
C434 C 0.86604 0.78843 0.74268 0.0
C435 C 0.89504 0.80429 0.75664 0.0
H436 H 0.82076 0.77238 0.77922 0.0
H437 H 0.85998 0.78141 0.69175 0.0
S438 S 0.92238 0.83221 0.92472 0.0
N439 N 0.88598 0.81837 0.93761 0.0
N440 N 0.92943 0.82676 0.84392 0.0
C441 C 0.9015 0.81313 0.82375 0.0
C442 C 0.87812 0.80838 0.87463 0.0
C443 C 0.77639 0.36252 0.31466 0.0
C444 C 0.76184 0.3758 0.37165 0.0
C445 C 0.7914 0.38171 0.26651 0.0
C446 C 0.79256 0.41511 0.27293 0.0
H447 H 0.77599 0.33693 0.30649 0.0
H448 H 0.80149 0.37026 0.22287 0.0
S449 S 0.76004 0.46205 0.41424 0.0
N450 N 0.7508 0.42462 0.43308 0.0
N451 N 0.77929 0.4608 0.34209 0.0
C452 C 0.77882 0.42885 0.33022 0.0
C453 C 0.76353 0.40919 0.37978 0.0
C454 C 0.14372 0.22517 0.83803 0.0
C455 C 0.15021 0.19341 0.85724 0.0
C456 C 0.122 0.23224 0.78606 0.0
C457 C 0.10635 0.20777 0.75044 0.0
H458 H 0.15658 0.24469 0.86152 0.0
H459 H 0.11845 0.25708 0.77171 0.0
S460 S 0.11418 0.12061 0.78396 0.0
N461 N 0.13828 0.13729 0.83997 0.0
N462 N 0.09772 0.15042 0.7406 0.0
C463 C 0.11139 0.17588 0.77158 0.0
C464 C 0.13337 0.16873 0.82535 0.0
C465 C 0.23685 0.60425 0.34974 0.0
C466 C 0.23526 0.63712 0.33327 0.0
C467 C 0.23171 0.58081 0.30087 0.0
C468 C 0.22447 0.58924 0.23373 0.0
H469 H 0.2433 0.59641 0.40027 0.0
H470 H 0.23441 0.55587 0.31527 0.0
S471 S 0.21485 0.67158 0.1649 0.0
N472 N 0.22359 0.67667 0.24536 0.0
N473 N 0.21433 0.63252 0.15366 0.0
C474 C 0.22109 0.62186 0.21716 0.0
C475 C 0.22637 0.6458 0.26687 0.0
C476 C 0.32413 0.71012 0.72398 0.0
C477 C 0.33343 0.70701 0.6563 0.0
C478 C 0.34597 0.7187 0.7741 0.0
C479 C 0.37809 0.72432 0.75894 0.0
H480 H 0.29947 0.70674 0.73846 0.0
H481 H 0.33749 0.72173 0.82505 0.0
S482 S 0.41559 0.71738 0.59151 0.0
N483 N 0.3776 0.70864 0.57762 0.0
N484 N 0.41894 0.72464 0.67299 0.0
C485 C 0.38831 0.71982 0.69252 0.0
C486 C 0.3659 0.71116 0.6409 0.0
C487 C 0.7285 0.89453 0.13536 0.0
C488 C 0.72858 0.8619 0.15311 0.0
C489 C 0.72317 0.91813 0.18358 0.0
C490 C 0.71836 0.91003 0.25176 0.0
H491 H 0.7342 0.90193 0.0844 0.0
H492 H 0.72458 0.94301 0.16802 0.0
S493 S 0.71479 0.82761 0.32312 0.0
N494 N 0.7213 0.8224 0.24208 0.0
N495 N 0.71241 0.86668 0.33356 0.0
C496 C 0.71649 0.87731 0.2693 0.0
C497 C 0.72139 0.85325 0.21976 0.0
C498 C 0.61705 0.32002 0.66355 0.0
C499 C 0.64953 0.31707 0.68168 0.0
C500 C 0.59334 0.32223 0.71297 0.0
C501 C 0.60135 0.32162 0.78208 0.0
H502 H 0.60989 0.32029 0.61094 0.0
H503 H 0.56858 0.32416 0.69708 0.0
S504 S 0.68309 0.31839 0.85585 0.0
N505 N 0.68848 0.31625 0.77382 0.0
N506 N 0.64409 0.32067 0.86581 0.0
C507 C 0.63375 0.31956 0.80067 0.0
C508 C 0.65778 0.31722 0.75073 0.0
C509 C 0.2622 0.09288 0.15768 0.0
C510 C 0.27036 0.1255 0.15365 0.0
C511 C 0.27538 0.07295 0.2082 0.0
C512 C 0.29759 0.08482 0.25551 0.0
H513 H 0.24456 0.08301 0.12339 0.0
H514 H 0.26782 0.04819 0.2109 0.0
S515 S 0.32843 0.16792 0.2636 0.0
N516 N 0.30328 0.1683 0.19898 0.0
N517 N 0.32792 0.13095 0.29358 0.0
C518 C 0.30682 0.11707 0.25029 0.0
C519 C 0.29324 0.13736 0.19946 0.0
C520 C 0.20608 0.31445 0.93232 0.0
C521 C 0.21021 0.29851 0.99459 0.0
C522 C 0.20408 0.34789 0.92877 0.0
C523 C 0.20581 0.36655 0.98733 0.0
H524 H 0.20623 0.30124 0.88565 0.0
H525 H 0.20258 0.35932 0.87961 0.0
S526 S 0.21197 0.33615 0.16324 0.0
N527 N 0.21216 0.30368 0.11661 0.0
N528 N 0.20895 0.36651 0.10971 0.0
C529 C 0.20751 0.35079 0.05013 0.0
C530 C 0.2096 0.31677 0.05379 0.0
C531 C 0.13501 0.73384 0.45648 0.0
C532 C 0.16246 0.75064 0.47658 0.0
C533 C 0.1049 0.74867 0.4573 0.0
C534 C 0.10169 0.78082 0.47678 0.0
H535 H 0.13668 0.7089 0.44258 0.0
H536 H 0.08397 0.73488 0.44345 0.0
S537 S 0.16687 0.8354 0.52966 0.0
N538 N 0.18491 0.80126 0.51356 0.0
N539 N 0.12855 0.82909 0.5144 0.0
C540 C 0.1292 0.79805 0.49453 0.0
C541 C 0.15958 0.78294 0.49458 0.0
C542 C 0.79123 0.67294 0.07367 0.0
C543 C 0.7863 0.68951 0.01232 0.0
C544 C 0.80073 0.64073 0.07489 0.0
C545 C 0.80573 0.6239 0.01486 0.0
H546 H 0.78728 0.68474 0.1212 0.0
H547 H 0.80368 0.62876 0.12323 0.0
S548 S 0.79934 0.65706 0.8412 0.0
N549 N 0.7892 0.68707 0.89 0.0
N550 N 0.80731 0.62676 0.89264 0.0
C551 C 0.80167 0.64036 0.95329 0.0
C552 C 0.79193 0.67309 0.95194 0.0
C553 C 0.84006 0.27383 0.45441 0.0
C554 C 0.82177 0.26766 0.5123 0.0
C555 C 0.87285 0.26705 0.45328 0.0
C556 C 0.88868 0.25405 0.51007 0.0
H557 H 0.82911 0.28434 0.40971 0.0
H558 H 0.8861 0.27286 0.40819 0.0
S559 S 0.85196 0.23158 0.67287 0.0
N560 N 0.82216 0.24643 0.62727 0.0
N561 N 0.88368 0.23372 0.62441 0.0
C562 C 0.87073 0.2471 0.56769 0.0
C563 C 0.83734 0.25387 0.56897 0.0
C564 C 0.70635 0.18343 0.58402 0.0
C565 C 0.70507 0.20172 0.52421 0.0
C566 C 0.70602 0.14987 0.58219 0.0
C567 C 0.70416 0.13343 0.5206 0.0
H568 H 0.70975 0.19496 0.6322 0.0
H569 H 0.70886 0.13666 0.62912 0.0
S570 S 0.69522 0.1705 0.35075 0.0
N571 N 0.69766 0.20108 0.40249 0.0
N572 N 0.69767 0.13818 0.399 0.0
C573 C 0.70017 0.15152 0.46101 0.0
C574 C 0.70051 0.18562 0.46286 0.0
C575 C 0.3506 0.22824 0.04644 0.0
C576 C 0.32516 0.24232 0.00991 0.0
C577 C 0.38074 0.24303 0.04936 0.0
C578 C 0.38606 0.27267 0.01719 0.0
H579 H 0.34726 0.20558 0.07239 0.0
H580 H 0.39983 0.23152 0.0778 0.0
S581 S 0.32726 0.31985 0.91675 0.0
N582 N 0.30736 0.28785 0.94164 0.0
N583 N 0.36373 0.31551 0.94791 0.0
C584 C 0.36083 0.28701 0.98093 0.0
C585 C 0.33044 0.27186 0.9771 0.0
C586 C 0.28244 0.82716 0.45089 0.0
C587 C 0.27485 0.81087 0.51105 0.0
C588 C 0.2932 0.85886 0.45155 0.0
C589 C 0.29626 0.87559 0.51227 0.0
H590 H 0.2805 0.81519 0.40284 0.0
H591 H 0.29894 0.87047 0.40416 0.0
S592 S 0.2794 0.84423 0.6835 0.0
N593 N 0.27123 0.81402 0.63314 0.0
N594 N 0.2911 0.87387 0.63398 0.0
C595 C 0.28858 0.85981 0.57272 0.0
C596 C 0.27802 0.82735 0.57224 0.0
C597 C 0.65 0.78334 0.94523 0.0
C598 C 0.66865 0.76249 0.98529 0.0
C599 C 0.61667 0.78112 0.94431 0.0
C600 C 0.60077 0.75771 0.9828 0.0
H601 H 0.66114 0.80226 0.91609 0.0
H602 H 0.60325 0.79856 0.91483 0.0
S603 S 0.63895 0.69478 0.08941 0.0
N604 N 0.66909 0.71617 0.06051 0.0
N605 N 0.60634 0.71142 0.05725 0.0
C606 C 0.61922 0.73584 0.02087 0.0
C607 C 0.65318 0.73835 0.02246 0.0
loop_
_geom_bond_atom_site_label_1
_geom_bond_atom_site_label_2
_geom_bond_distance
_geom_bond_site_symmetry_2
_ccdc_geom_bond_type
Fe0 O2 1.918 . S
Fe0 O5 1.997 . S
Fe0 O6 2.002 . S
Fe0 O11 1.976 . S
Fe0 O14 1.996 . S
Fe1 O2 1.918 1_556 S
Fe1 O9 1.997 . S
Fe1 O12 1.996 . S
Fe1 O16 1.976 . S
Fe1 O19 2.002 . S
O2 Fe0 1.918 . S
O2 Fe1 1.918 1_554 S
O2 Fe3 1.918 . S
Fe3 O2 1.918 . S
Fe3 O4 2.002 . S
Fe3 O13 1.976 . S
Fe3 O17 1.996 1_554 S
Fe3 O20 1.997 1_554 S
O4 Fe3 2.002 . S
O4 C21 1.295 . S
O5 Fe0 1.997 . S
O5 C21 1.235 . S
O6 Fe0 2.002 . S
O6 C7 1.295 . S
C7 O6 1.295 . S
C7 O9 1.235 1_554 S
C8 O13 1.287 . S
C8 O14 1.255 . S
O9 Fe1 1.997 . S
O9 C7 1.235 1_556 S
C10 O16 1.287 . S
C10 O17 1.255 . S
O11 Fe0 1.976 . S
O11 C18 1.287 . S
O12 Fe1 1.996 . S
O12 C18 1.255 1_556 S
O13 Fe3 1.976 . S
O13 C8 1.287 . S
O14 Fe0 1.996 . S
O14 C8 1.255 . S
C15 O19 1.295 . S
C15 O20 1.235 . S
O16 Fe1 1.976 . S
O16 C10 1.287 . S
O17 Fe3 1.996 1_556 S
O17 C10 1.255 . S
C18 O11 1.287 . S
C18 O12 1.255 1_554 S
O19 Fe1 2.002 . S
O19 C15 1.295 . S
O20 Fe3 1.997 1_556 S
O20 C15 1.235 . S
C21 O4 1.295 . S
C21 O5 1.235 . S
Fe22 O24 1.918 . S
Fe22 O27 1.997 . S
Fe22 O28 2.002 . S
Fe22 O33 1.976 . S
Fe22 O36 1.996 . S
Fe23 O24 1.918 . S
Fe23 O31 1.997 . S
Fe23 O34 1.996 . S
Fe23 O38 1.976 . S
Fe23 O41 2.002 . S
O24 Fe22 1.918 . S
O24 Fe23 1.918 . S
O24 Fe25 1.918 . S
Fe25 O24 1.918 . S
Fe25 O26 2.002 . S
Fe25 O35 1.976 . S
Fe25 O39 1.996 . S
Fe25 O42 1.997 . S
O26 Fe25 2.002 . S
O26 C43 1.295 . S
O27 Fe22 1.997 . S
O27 C43 1.235 . S
O28 Fe22 2.002 . S
O28 C29 1.295 . S
C29 O28 1.295 . S
C29 O31 1.235 . S
C30 O35 1.287 . S
C30 O36 1.255 . S
O31 Fe23 1.997 . S
O31 C29 1.235 . S
C32 O38 1.287 . S
C32 O39 1.255 . S
O33 Fe22 1.976 . S
O33 C40 1.287 . S
O34 Fe23 1.996 . S
O34 C40 1.255 . S
O35 Fe25 1.976 . S
O35 C30 1.287 . S
O36 Fe22 1.996 . S
O36 C30 1.255 . S
C37 O41 1.295 . S
C37 O42 1.235 . S
O38 Fe23 1.976 . S
O38 C32 1.287 . S
O39 Fe25 1.996 . S
O39 C32 1.255 . S
C40 O33 1.287 . S
C40 O34 1.255 . S
O41 Fe23 2.002 . S
O41 C37 1.295 . S
O42 Fe25 1.997 . S
O42 C37 1.235 . S
C43 O26 1.295 . S
C43 O27 1.235 . S
Fe44 O46 1.918 1_556 S
Fe44 O49 1.997 . S
Fe44 O50 2.002 . S
Fe44 O55 1.976 . S
Fe44 O58 1.996 . S
Fe45 O46 1.918 . S
Fe45 O53 1.997 . S
Fe45 O56 1.996 . S
Fe45 O60 1.976 . S
Fe45 O63 2.002 . S
O46 Fe44 1.918 1_554 S
O46 Fe45 1.918 . S
O46 Fe47 1.918 . S
Fe47 O46 1.918 . S
Fe47 O48 2.002 1_554 S
Fe47 O57 1.976 1_554 S
Fe47 O61 1.996 . S
Fe47 O64 1.997 . S
O48 Fe47 2.002 1_556 S
O48 C65 1.295 . S
O49 Fe44 1.997 . S
O49 C65 1.235 . S
O50 Fe44 2.002 . S
O50 C51 1.295 1_556 S
C51 O50 1.295 1_554 S
C51 O53 1.235 . S
C52 O57 1.287 . S
C52 O58 1.255 . S
O53 Fe45 1.997 . S
O53 C51 1.235 . S
C54 O60 1.287 . S
C54 O61 1.255 . S
O55 Fe44 1.976 . S
O55 C62 1.287 1_556 S
O56 Fe45 1.996 . S
O56 C62 1.255 . S
O57 Fe47 1.976 1_556 S
O57 C52 1.287 . S
O58 Fe44 1.996 . S
O58 C52 1.255 . S
C59 O63 1.295 . S
C59 O64 1.235 . S
O60 Fe45 1.976 . S
O60 C54 1.287 . S
O61 Fe47 1.996 . S
O61 C54 1.255 . S
C62 O55 1.287 1_554 S
C62 O56 1.255 . S
O63 Fe45 2.002 . S
O63 C59 1.295 . S
O64 Fe47 1.997 . S
O64 C59 1.235 . S
C65 O48 1.295 . S
C65 O49 1.235 . S
Fe66 O68 1.918 . S
Fe66 O71 1.997 . S
Fe66 O72 2.002 . S
Fe66 O77 1.976 . S
Fe66 O80 1.996 . S
Fe67 O68 1.918 . S
Fe67 O75 1.997 . S
Fe67 O78 1.996 . S
Fe67 O82 1.976 . S
Fe67 O85 2.002 . S
O68 Fe66 1.918 . S
O68 Fe67 1.918 . S
O68 Fe69 1.918 . S
Fe69 O68 1.918 . S
Fe69 O70 2.002 . S
Fe69 O79 1.976 . S
Fe69 O83 1.996 . S
Fe69 O86 1.997 . S
O70 Fe69 2.002 . S
O70 C87 1.295 . S
O71 Fe66 1.997 . S
O71 C87 1.235 . S
O72 Fe66 2.002 . S
O72 C73 1.295 . S
C73 O72 1.295 . S
C73 O75 1.235 . S
C74 O79 1.287 . S
C74 O80 1.255 . S
O75 Fe67 1.997 . S
O75 C73 1.235 . S
C76 O82 1.287 . S
C76 O83 1.255 . S
O77 Fe66 1.976 . S
O77 C84 1.287 . S
O78 Fe67 1.996 . S
O78 C84 1.255 . S
O79 Fe69 1.976 . S
O79 C74 1.287 . S
O80 Fe66 1.996 . S
O80 C74 1.255 . S
C81 O85 1.295 . S
C81 O86 1.235 . S
O82 Fe67 1.976 . S
O82 C76 1.287 . S
O83 Fe69 1.996 . S
O83 C76 1.255 . S
C84 O77 1.287 . S
C84 O78 1.255 . S
O85 Fe67 2.002 . S
O85 C81 1.295 . S
O86 Fe69 1.997 . S
O86 C81 1.235 . S
C87 O70 1.295 . S
C87 O71 1.235 . S
P88 O99 1.490 . S
P88 C102 1.812 . S
P88 C108 1.803 . S
P88 C114 1.819 1_554 S
H89 C103 0.941 . S
H90 C104 0.939 . S
H91 C106 0.940 . S
H92 C107 0.940 . S
H93 C109 0.939 . S
H94 C110 0.942 . S
H95 C112 0.940 . S
H96 C113 0.939 . S
H97 C115 0.941 . S
H98 C119 0.939 . S
O99 P88 1.490 . S
H100 C116 0.939 . S
H101 C118 0.940 . S
C102 P88 1.812 . S
C102 C103 1.389 . S
C102 C107 1.391 . S
C103 H89 0.941 . S
C103 C102 1.389 . S
C103 C104 1.397 . S
C104 H90 0.939 . S
C104 C103 1.397 . S
C104 C105 1.378 . S
C105 C104 1.378 . S
C105 C106 1.378 . S
C106 H91 0.940 . S
C106 C105 1.378 . S
C106 C107 1.396 . S
C107 H92 0.940 . S
C107 C102 1.391 . S
C107 C106 1.396 . S
C108 P88 1.803 . S
C108 C109 1.378 1_554 S
C108 C113 1.400 . S
C109 H93 0.939 . S
C109 C108 1.378 1_556 S
C109 C110 1.361 . S
C110 H94 0.942 . S
C110 C109 1.361 . S
C110 C111 1.369 1_556 S
C111 C110 1.369 1_554 S
C111 C112 1.404 . S
C112 H95 0.940 . S
C112 C111 1.404 . S
C112 C113 1.389 . S
C113 H96 0.939 . S
C113 C108 1.400 . S
C113 C112 1.389 . S
C114 P88 1.819 1_556 S
C114 C115 1.391 . S
C114 C119 1.391 . S
C115 H97 0.941 . S
C115 C114 1.391 . S
C115 C116 1.396 . S
C116 H100 0.939 . S
C116 C115 1.396 . S
C116 C117 1.397 . S
C117 C116 1.397 . S
C117 C118 1.385 . S
C118 H101 0.940 . S
C118 C117 1.385 . S
C118 C119 1.388 . S
C119 H98 0.939 . S
C119 C114 1.391 . S
C119 C118 1.388 . S
P120 O131 1.490 1_655 S
P120 C134 1.812 . S
P120 C140 1.803 1_655 S
P120 C146 1.819 . S
H121 C135 0.941 . S
H122 C136 0.939 . S
H123 C138 0.940 . S
H124 C139 0.940 . S
H125 C141 0.939 . S
H126 C142 0.942 . S
H127 C144 0.940 . S
H128 C145 0.939 . S
H129 C147 0.941 . S
H130 C151 0.939 . S
O131 P120 1.490 1_455 S
H132 C148 0.939 . S
H133 C150 0.940 . S
C134 P120 1.812 . S
C134 C135 1.389 . S
C134 C139 1.391 . S
C135 H121 0.941 . S
C135 C134 1.389 . S
C135 C136 1.397 . S
C136 H122 0.939 . S
C136 C135 1.397 . S
C136 C137 1.378 . S
C137 C136 1.378 . S
C137 C138 1.378 . S
C138 H123 0.940 . S
C138 C137 1.378 . S
C138 C139 1.396 . S
C139 H124 0.940 . S
C139 C134 1.391 . S
C139 C138 1.396 . S
C140 P120 1.803 1_455 S
C140 C141 1.378 . S
C140 C145 1.400 . S
C141 H125 0.939 . S
C141 C140 1.378 . S
C141 C142 1.361 . S
C142 H126 0.942 . S
C142 C141 1.361 . S
C142 C143 1.369 . S
C143 C142 1.369 . S
C143 C144 1.404 . S
C144 H127 0.940 . S
C144 C143 1.404 . S
C144 C145 1.389 . S
C145 H128 0.939 . S
C145 C140 1.400 . S
C145 C144 1.389 . S
C146 P120 1.819 . S
C146 C147 1.391 . S
C146 C151 1.391 . S
C147 H129 0.941 . S
C147 C146 1.391 . S
C147 C148 1.396 . S
C148 H132 0.939 . S
C148 C147 1.396 . S
C148 C149 1.397 . S
C149 C148 1.397 . S
C149 C150 1.385 . S
C150 H133 0.940 . S
C150 C149 1.385 . S
C150 C151 1.388 . S
C151 H130 0.939 . S
C151 C146 1.391 . S
C151 C150 1.388 . S
P152 O163 1.490 . S
P152 C166 1.812 1_554 S
P152 C172 1.803 . S
P152 C178 1.819 . S
H153 C167 0.941 . S
H154 C168 0.939 . S
H155 C170 0.940 . S
H156 C171 0.940 . S
H157 C173 0.939 . S
H158 C174 0.942 . S
H159 C176 0.940 . S
H160 C177 0.939 . S
H161 C179 0.941 . S
H162 C183 0.939 . S
O163 P152 1.490 . S
H164 C180 0.939 . S
H165 C182 0.940 . S
C166 P152 1.812 1_556 S
C166 C167 1.389 . S
C166 C171 1.391 . S
C167 H153 0.941 . S
C167 C166 1.389 . S
C167 C168 1.397 . S
C168 H154 0.939 . S
C168 C167 1.397 . S
C168 C169 1.378 . S
C169 C168 1.378 . S
C169 C170 1.378 . S
C170 H155 0.940 . S
C170 C169 1.378 . S
C170 C171 1.396 . S
C171 H156 0.940 . S
C171 C166 1.391 . S
C171 C170 1.396 . S
C172 P152 1.803 . S
C172 C173 1.378 . S
C172 C177 1.400 1_554 S
C173 H157 0.939 . S
C173 C172 1.378 . S
C173 C174 1.361 . S
C174 H158 0.942 . S
C174 C173 1.361 . S
C174 C175 1.369 . S
C175 C174 1.369 . S
C175 C176 1.404 1_554 S
C176 H159 0.940 . S
C176 C175 1.404 1_556 S
C176 C177 1.389 . S
C177 H160 0.939 . S
C177 C172 1.400 1_556 S
C177 C176 1.389 . S
C178 P152 1.819 . S
C178 C179 1.391 . S
C178 C183 1.391 . S
C179 H161 0.941 . S
C179 C178 1.391 . S
C179 C180 1.396 . S
C180 H164 0.939 . S
C180 C179 1.396 . S
C180 C181 1.397 . S
C181 C180 1.397 . S
C181 C182 1.385 . S
C182 H165 0.940 . S
C182 C181 1.385 . S
C182 C183 1.388 . S
C183 H162 0.939 . S
C183 C178 1.391 . S
C183 C182 1.388 . S
P184 O195 1.490 . S
P184 C198 1.812 . S
P184 C204 1.803 1_455 S
P184 C210 1.819 . S
H185 C199 0.941 . S
H186 C200 0.939 . S
H187 C202 0.940 . S
H188 C203 0.940 . S
H189 C205 0.939 . S
H190 C206 0.942 . S
H191 C208 0.940 . S
H192 C209 0.939 . S
H193 C211 0.941 . S
H194 C215 0.939 . S
O195 P184 1.490 . S
H196 C212 0.939 . S
H197 C214 0.940 . S
C198 P184 1.812 . S
C198 C199 1.389 . S
C198 C203 1.391 . S
C199 H185 0.941 . S
C199 C198 1.389 . S
C199 C200 1.397 . S
C200 H186 0.939 . S
C200 C199 1.397 . S
C200 C201 1.378 . S
C201 C200 1.378 . S
C201 C202 1.378 . S
C202 H187 0.940 . S
C202 C201 1.378 . S
C202 C203 1.396 . S
C203 H188 0.940 . S
C203 C198 1.391 . S
C203 C202 1.396 . S
C204 P184 1.803 1_655 S
C204 C205 1.378 . S
C204 C209 1.400 . S
C205 H189 0.939 . S
C205 C204 1.378 . S
C205 C206 1.361 . S
C206 H190 0.942 . S
C206 C205 1.361 . S
C206 C207 1.369 . S
C207 C206 1.369 . S
C207 C208 1.404 . S
C208 H191 0.940 . S
C208 C207 1.404 . S
C208 C209 1.389 . S
C209 H192 0.939 . S
C209 C204 1.400 . S
C209 C208 1.389 . S
C210 P184 1.819 . S
C210 C211 1.391 . S
C210 C215 1.391 . S
C211 H193 0.941 . S
C211 C210 1.391 . S
C211 C212 1.396 . S
C212 H196 0.939 . S
C212 C211 1.396 . S
C212 C213 1.397 . S
C213 C212 1.397 . S
C213 C214 1.385 . S
C214 H197 0.940 . S
C214 C213 1.385 . S
C214 C215 1.388 . S
C215 H194 0.939 . S
C215 C210 1.391 . S
C215 C214 1.388 . S
P216 O227 1.490 1_565 S
P216 C230 1.809 . S
P216 C236 1.807 1_565 S
P216 C242 1.817 . S
H217 C231 0.941 . S
H218 C232 0.939 . S
H219 C234 0.940 . S
H220 C235 0.940 . S
H221 C237 0.939 . S
H222 C238 0.942 . S
H223 C240 0.940 . S
H224 C241 0.939 . S
H225 C243 0.941 . S
H226 C247 0.939 1_545 S
O227 P216 1.490 1_545 S
H228 C244 0.939 . S
H229 C246 0.940 . S
C230 P216 1.809 . S
C230 C231 1.389 . S
C230 C235 1.391 . S
C231 H217 0.941 . S
C231 C230 1.389 . S
C231 C232 1.397 . S
C232 H218 0.939 . S
C232 C231 1.397 . S
C232 C233 1.378 . S
C233 C232 1.378 . S
C233 C234 1.378 . S
C234 H219 0.940 . S
C234 C233 1.378 . S
C234 C235 1.396 . S
C235 H220 0.940 . S
C235 C230 1.391 . S
C235 C234 1.396 . S
C236 P216 1.807 1_545 S
C236 C237 1.378 . S
C236 C241 1.400 . S
C237 H221 0.939 . S
C237 C236 1.378 . S
C237 C238 1.361 . S
C238 H222 0.942 . S
C238 C237 1.361 . S
C238 C239 1.369 . S
C239 C238 1.369 . S
C239 C240 1.404 . S
C240 H223 0.940 . S
C240 C239 1.404 . S
C240 C241 1.389 . S
C241 H224 0.939 . S
C241 C236 1.400 . S
C241 C240 1.389 . S
C242 P216 1.817 . S
C242 C243 1.391 . S
C242 C247 1.391 . S
C243 H225 0.941 . S
C243 C242 1.391 . S
C243 C244 1.396 . S
C244 H228 0.939 . S
C244 C243 1.396 . S
C244 C245 1.397 . S
C245 C244 1.397 . S
C245 C246 1.385 . S
C246 H229 0.940 . S
C246 C245 1.385 . S
C246 C247 1.388 . S
C247 H226 0.939 1_565 S
C247 C242 1.391 . S
C247 C246 1.388 . S
P248 O259 1.490 . S
P248 C262 1.812 . S
P248 C268 1.803 . S
P248 C274 1.819 1_556 S
H249 C263 0.941 . S
H250 C264 0.939 . S
H251 C266 0.940 . S
H252 C267 0.940 . S
H253 C269 0.939 . S
H254 C270 0.942 . S
H255 C272 0.940 . S
H256 C273 0.939 . S
H257 C275 0.941 . S
H258 C279 0.939 . S
O259 P248 1.490 . S
H260 C276 0.939 . S
H261 C278 0.940 . S
C262 P248 1.812 . S
C262 C263 1.389 . S
C262 C267 1.391 . S
C263 H249 0.941 . S
C263 C262 1.389 . S
C263 C264 1.397 . S
C264 H250 0.939 . S
C264 C263 1.397 . S
C264 C265 1.378 . S
C265 C264 1.378 . S
C265 C266 1.378 . S
C266 H251 0.940 . S
C266 C265 1.378 . S
C266 C267 1.396 . S
C267 H252 0.940 . S
C267 C262 1.391 . S
C267 C266 1.396 . S
C268 P248 1.803 . S
C268 C269 1.378 1_556 S
C268 C273 1.400 . S
C269 H253 0.939 . S
C269 C268 1.378 1_554 S
C269 C270 1.361 . S
C270 H254 0.942 . S
C270 C269 1.361 . S
C270 C271 1.369 . S
C271 C270 1.369 . S
C271 C272 1.404 1_554 S
C272 H255 0.940 . S
C272 C271 1.404 1_556 S
C272 C273 1.389 . S
C273 H256 0.939 . S
C273 C268 1.400 . S
C273 C272 1.389 . S
C274 P248 1.819 1_554 S
C274 C275 1.391 . S
C274 C279 1.391 . S
C275 H257 0.941 . S
C275 C274 1.391 . S
C275 C276 1.396 . S
C276 H260 0.939 . S
C276 C275 1.396 . S
C276 C277 1.397 . S
C277 C276 1.397 . S
C277 C278 1.385 . S
C278 H261 0.940 . S
C278 C277 1.385 . S
C278 C279 1.388 . S
C279 H258 0.939 . S
C279 C274 1.391 . S
C279 C278 1.388 . S
P280 O291 1.490 . S
P280 C294 1.812 . S
P280 C300 1.803 1_545 S
P280 C306 1.819 . S
H281 C295 0.941 . S
H282 C296 0.939 . S
H283 C298 0.940 . S
H284 C299 0.940 . S
H285 C301 0.939 . S
H286 C302 0.942 . S
H287 C304 0.940 . S
H288 C305 0.939 . S
H289 C307 0.941 . S
H290 C311 0.939 1_565 S
O291 P280 1.490 . S
H292 C308 0.939 . S
H293 C310 0.940 . S
C294 P280 1.812 . S
C294 C295 1.389 . S
C294 C299 1.391 . S
C295 H281 0.941 . S
C295 C294 1.389 . S
C295 C296 1.397 . S
C296 H282 0.939 . S
C296 C295 1.397 . S
C296 C297 1.378 . S
C297 C296 1.378 . S
C297 C298 1.378 . S
C298 H283 0.940 . S
C298 C297 1.378 . S
C298 C299 1.396 . S
C299 H284 0.940 . S
C299 C294 1.391 . S
C299 C298 1.396 . S
C300 P280 1.803 1_565 S
C300 C301 1.378 . S
C300 C305 1.400 . S
C301 H285 0.939 . S
C301 C300 1.378 . S
C301 C302 1.361 . S
C302 H286 0.942 . S
C302 C301 1.361 . S
C302 C303 1.369 . S
C303 C302 1.369 . S
C303 C304 1.404 . S
C304 H287 0.940 . S
C304 C303 1.404 . S
C304 C305 1.389 . S
C305 H288 0.939 . S
C305 C300 1.400 . S
C305 C304 1.389 . S
C306 P280 1.819 . S
C306 C307 1.391 . S
C306 C311 1.391 . S
C307 H289 0.941 . S
C307 C306 1.391 . S
C307 C308 1.396 . S
C308 H292 0.939 . S
C308 C307 1.396 . S
C308 C309 1.397 . S
C309 C308 1.397 . S
C309 C310 1.385 . S
C310 H293 0.940 . S
C310 C309 1.385 . S
C310 C311 1.388 . S
C311 H290 0.939 1_545 S
C311 C306 1.391 . S
C311 C310 1.388 . S
P312 O323 1.490 . S
P312 C326 1.812 . S
P312 C332 1.803 . S
P312 C338 1.819 1_554 S
H313 C327 0.941 . S
H314 C328 0.939 . S
H315 C330 0.940 . S
H316 C331 0.940 . S
H317 C333 0.939 . S
H318 C334 0.942 . S
H319 C336 0.940 . S
H320 C337 0.939 . S
H321 C339 0.941 . S
H322 C343 0.939 . S
O323 P312 1.490 . S
H324 C340 0.939 . S
H325 C342 0.940 . S
C326 P312 1.812 . S
C326 C327 1.389 . S
C326 C331 1.391 . S
C327 H313 0.941 . S
C327 C326 1.389 . S
C327 C328 1.397 . S
C328 H314 0.939 . S
C328 C327 1.397 . S
C328 C329 1.378 . S
C329 C328 1.378 . S
C329 C330 1.378 . S
C330 H315 0.940 . S
C330 C329 1.378 . S
C330 C331 1.396 . S
C331 H316 0.940 . S
C331 C326 1.391 . S
C331 C330 1.396 . S
C332 P312 1.803 . S
C332 C333 1.378 1_554 S
C332 C337 1.400 . S
C333 H317 0.939 . S
C333 C332 1.378 1_556 S
C333 C334 1.361 . S
C334 H318 0.942 . S
C334 C333 1.361 . S
C334 C335 1.369 1_556 S
C335 C334 1.369 1_554 S
C335 C336 1.404 . S
C336 H319 0.940 . S
C336 C335 1.404 . S
C336 C337 1.389 . S
C337 H320 0.939 . S
C337 C332 1.400 . S
C337 C336 1.389 . S
C338 P312 1.819 1_556 S
C338 C339 1.391 . S
C338 C343 1.391 . S
C339 H321 0.941 . S
C339 C338 1.391 . S
C339 C340 1.396 . S
C340 H324 0.939 . S
C340 C339 1.396 . S
C340 C341 1.397 . S
C341 C340 1.397 . S
C341 C342 1.385 . S
C342 H325 0.940 . S
C342 C341 1.385 . S
C342 C343 1.388 . S
C343 H322 0.939 . S
C343 C338 1.391 . S
C343 C342 1.388 . S
C344 C345 1.369 . S
C344 C346 1.419 . S
C344 H348 0.930 . S
C345 C344 1.369 . S
C345 C354 1.429 . S
C346 C344 1.419 . S
C346 C347 1.363 . S
C346 H349 0.929 . S
C347 C346 1.363 . S
C347 C353 1.428 . S
H348 C344 0.930 . S
H349 C346 0.929 . S
S350 N351 1.613 . S
S350 N352 1.610 . S
N351 S350 1.613 . S
N351 C354 1.350 . S
N352 S350 1.610 . S
N352 C353 1.351 . S
C353 C347 1.428 . S
C353 N352 1.351 . S
C353 C354 1.434 . S
C354 C345 1.429 . S
C354 N351 1.350 . S
C354 C353 1.434 . S
C355 C356 1.369 . S
C355 C357 1.419 . S
C355 H359 0.930 . S
C356 C355 1.369 . S
C356 C365 1.429 . S
C357 C355 1.419 . S
C357 C358 1.363 . S
C357 H360 0.929 . S
C358 C357 1.363 . S
C358 C364 1.428 . S
H359 C355 0.930 . S
H360 C357 0.929 . S
S361 N362 1.613 . S
S361 N363 1.610 . S
N362 S361 1.613 . S
N362 C365 1.350 . S
N363 S361 1.610 . S
N363 C364 1.351 . S
C364 C358 1.428 . S
C364 N363 1.351 . S
C364 C365 1.434 . S
C365 C356 1.429 . S
C365 N362 1.350 . S
C365 C364 1.434 . S
C366 C367 1.369 . S
C366 C368 1.419 . S
C366 H370 0.930 . S
C367 C366 1.369 . S
C367 C376 1.429 . S
C368 C366 1.419 . S
C368 C369 1.363 . S
C368 H371 0.929 . S
C369 C368 1.363 . S
C369 C375 1.428 . S
H370 C366 0.930 . S
H371 C368 0.929 . S
S372 N373 1.613 . S
S372 N374 1.610 . S
N373 S372 1.613 . S
N373 C376 1.350 . S
N374 S372 1.610 . S
N374 C375 1.351 . S
C375 C369 1.428 . S
C375 N374 1.351 . S
C375 C376 1.434 . S
C376 C367 1.429 . S
C376 N373 1.350 . S
C376 C375 1.434 . S
C377 C378 1.369 . S
C377 C379 1.419 . S
C377 H381 0.930 . S
C378 C377 1.369 . S
C378 C387 1.429 . S
C379 C377 1.419 . S
C379 C380 1.363 . S
C379 H382 0.929 . S
C380 C379 1.363 . S
C380 C386 1.428 . S
H381 C377 0.930 . S
H382 C379 0.929 . S
S383 N384 1.613 . S
S383 N385 1.610 . S
N384 S383 1.613 . S
N384 C387 1.350 . S
N385 S383 1.610 . S
N385 C386 1.351 . S
C386 C380 1.428 . S
C386 N385 1.351 . S
C386 C387 1.434 . S
C387 C378 1.429 . S
C387 N384 1.350 . S
C387 C386 1.434 . S
C388 C389 1.369 . S
C388 C390 1.419 . S
C388 H392 0.930 . S
C389 C388 1.369 . S
C389 C398 1.429 . S
C390 C388 1.419 . S
C390 C391 1.363 . S
C390 H393 0.929 . S
C391 C390 1.363 . S
C391 C397 1.428 . S
H392 C388 0.930 . S
H393 C390 0.929 . S
S394 N395 1.613 . S
S394 N396 1.610 . S
N395 S394 1.613 . S
N395 C398 1.350 . S
N396 S394 1.610 . S
N396 C397 1.351 . S
C397 C391 1.428 . S
C397 N396 1.351 . S
C397 C398 1.434 . S
C398 C389 1.429 . S
C398 N395 1.350 . S
C398 C397 1.434 . S
C399 C400 1.369 . S
C399 C401 1.419 . S
C399 H403 0.930 . S
C400 C399 1.369 . S
C400 C409 1.429 . S
C401 C399 1.419 . S
C401 C402 1.363 . S
C401 H404 0.929 . S
C402 C401 1.363 . S
C402 C408 1.428 . S
H403 C399 0.930 . S
H404 C401 0.929 . S
S405 N406 1.613 . S
S405 N407 1.610 . S
N406 S405 1.613 . S
N406 C409 1.350 . S
N407 S405 1.610 . S
N407 C408 1.351 . S
C408 C402 1.428 . S
C408 N407 1.351 . S
C408 C409 1.434 . S
C409 C400 1.429 . S
C409 N406 1.350 . S
C409 C408 1.434 . S
C410 C411 1.369 . S
C410 C412 1.419 . S
C410 H414 0.930 . S
C411 C410 1.369 . S
C411 C420 1.429 . S
C412 C410 1.419 . S
C412 C413 1.363 . S
C412 H415 0.929 . S
C413 C412 1.363 . S
C413 C419 1.428 . S
H414 C410 0.930 . S
H415 C412 0.929 . S
S416 N417 1.613 . S
S416 N418 1.610 . S
N417 S416 1.613 . S
N417 C420 1.350 . S
N418 S416 1.610 . S
N418 C419 1.351 . S
C419 C413 1.428 . S
C419 N418 1.351 . S
C419 C420 1.434 . S
C420 C411 1.429 . S
C420 N417 1.350 . S
C420 C419 1.434 . S
C421 C422 1.369 . S
C421 C423 1.419 . S
C421 H425 0.930 . S
C422 C421 1.369 . S
C422 C431 1.429 . S
C423 C421 1.419 . S
C423 C424 1.363 . S
C423 H426 0.929 . S
C424 C423 1.363 . S
C424 C430 1.428 . S
H425 C421 0.930 . S
H426 C423 0.929 . S
S427 N428 1.613 . S
S427 N429 1.610 . S
N428 S427 1.613 . S
N428 C431 1.350 . S
N429 S427 1.610 . S
N429 C430 1.351 . S
C430 C424 1.428 . S
C430 N429 1.351 . S
C430 C431 1.434 . S
C431 C422 1.429 . S
C431 N428 1.350 . S
C431 C430 1.434 . S
C432 C433 1.369 . S
C432 C434 1.419 . S
C432 H436 0.930 . S
C433 C432 1.369 . S
C433 C442 1.429 . S
C434 C432 1.419 . S
C434 C435 1.363 . S
C434 H437 0.929 . S
C435 C434 1.363 . S
C435 C441 1.428 . S
H436 C432 0.930 . S
H437 C434 0.929 . S
S438 N439 1.613 . S
S438 N440 1.610 . S
N439 S438 1.613 . S
N439 C442 1.350 . S
N440 S438 1.610 . S
N440 C441 1.351 . S
C441 C435 1.428 . S
C441 N440 1.351 . S
C441 C442 1.434 . S
C442 C433 1.429 . S
C442 N439 1.350 . S
C442 C441 1.434 . S
C443 C444 1.369 . S
C443 C445 1.419 . S
C443 H447 0.930 . S
C444 C443 1.369 . S
C444 C453 1.429 . S
C445 C443 1.419 . S
C445 C446 1.363 . S
C445 H448 0.929 . S
C446 C445 1.363 . S
C446 C452 1.428 . S
H447 C443 0.930 . S
H448 C445 0.929 . S
S449 N450 1.613 . S
S449 N451 1.610 . S
N450 S449 1.613 . S
N450 C453 1.350 . S
N451 S449 1.610 . S
N451 C452 1.351 . S
C452 C446 1.428 . S
C452 N451 1.351 . S
C452 C453 1.434 . S
C453 C444 1.429 . S
C453 N450 1.350 . S
C453 C452 1.434 . S
C454 C455 1.369 . S
C454 C456 1.419 . S
C454 H458 0.930 . S
C455 C454 1.369 . S
C455 C464 1.429 . S
C456 C454 1.419 . S
C456 C457 1.363 . S
C456 H459 0.929 . S
C457 C456 1.363 . S
C457 C463 1.428 . S
H458 C454 0.930 . S
H459 C456 0.929 . S
S460 N461 1.613 . S
S460 N462 1.610 . S
N461 S460 1.613 . S
N461 C464 1.350 . S
N462 S460 1.610 . S
N462 C463 1.351 . S
C463 C457 1.428 . S
C463 N462 1.351 . S
C463 C464 1.434 . S
C464 C455 1.429 . S
C464 N461 1.350 . S
C464 C463 1.434 . S
C465 C466 1.369 . S
C465 C467 1.419 . S
C465 H469 0.930 . S
C466 C465 1.369 . S
C466 C475 1.429 . S
C467 C465 1.419 . S
C467 C468 1.363 . S
C467 H470 0.929 . S
C468 C467 1.363 . S
C468 C474 1.428 . S
H469 C465 0.930 . S
H470 C467 0.929 . S
S471 N472 1.613 . S
S471 N473 1.610 . S
N472 S471 1.613 . S
N472 C475 1.350 . S
N473 S471 1.610 . S
N473 C474 1.351 . S
C474 C468 1.428 . S
C474 N473 1.351 . S
C474 C475 1.434 . S
C475 C466 1.429 . S
C475 N472 1.350 . S
C475 C474 1.434 . S
C476 C477 1.369 . S
C476 C478 1.419 . S
C476 H480 0.930 . S
C477 C476 1.369 . S
C477 C486 1.429 . S
C478 C476 1.419 . S
C478 C479 1.363 . S
C478 H481 0.929 . S
C479 C478 1.363 . S
C479 C485 1.428 . S
H480 C476 0.930 . S
H481 C478 0.929 . S
S482 N483 1.613 . S
S482 N484 1.610 . S
N483 S482 1.613 . S
N483 C486 1.350 . S
N484 S482 1.610 . S
N484 C485 1.351 . S
C485 C479 1.428 . S
C485 N484 1.351 . S
C485 C486 1.434 . S
C486 C477 1.429 . S
C486 N483 1.350 . S
C486 C485 1.434 . S
C487 C488 1.369 . S
C487 C489 1.419 . S
C487 H491 0.930 . S
C488 C487 1.369 . S
C488 C497 1.429 . S
C489 C487 1.419 . S
C489 C490 1.363 . S
C489 H492 0.929 . S
C490 C489 1.363 . S
C490 C496 1.428 . S
H491 C487 0.930 . S
H492 C489 0.929 . S
S493 N494 1.613 . S
S493 N495 1.610 . S
N494 S493 1.613 . S
N494 C497 1.350 . S
N495 S493 1.610 . S
N495 C496 1.351 . S
C496 C490 1.428 . S
C496 N495 1.351 . S
C496 C497 1.434 . S
C497 C488 1.429 . S
C497 N494 1.350 . S
C497 C496 1.434 . S
C498 C499 1.369 . S
C498 C500 1.419 . S
C498 H502 0.930 . S
C499 C498 1.369 . S
C499 C508 1.429 . S
C500 C498 1.419 . S
C500 C501 1.363 . S
C500 H503 0.929 . S
C501 C500 1.363 . S
C501 C507 1.428 . S
H502 C498 0.930 . S
H503 C500 0.929 . S
S504 N505 1.613 . S
S504 N506 1.610 . S
N505 S504 1.613 . S
N505 C508 1.350 . S
N506 S504 1.610 . S
N506 C507 1.351 . S
C507 C501 1.428 . S
C507 N506 1.351 . S
C507 C508 1.434 . S
C508 C499 1.429 . S
C508 N505 1.350 . S
C508 C507 1.434 . S
C509 C510 1.369 . S
C509 C511 1.419 . S
C509 H513 0.930 . S
C510 C509 1.369 . S
C510 C519 1.429 . S
C511 C509 1.419 . S
C511 C512 1.363 . S
C511 H514 0.929 . S
C512 C511 1.363 . S
C512 C518 1.428 . S
H513 C509 0.930 . S
H514 C511 0.929 . S
S515 N516 1.613 . S
S515 N517 1.610 . S
N516 S515 1.613 . S
N516 C519 1.350 . S
N517 S515 1.610 . S
N517 C518 1.351 . S
C518 C512 1.428 . S
C518 N517 1.351 . S
C518 C519 1.434 . S
C519 C510 1.429 . S
C519 N516 1.350 . S
C519 C518 1.434 . S
C520 C521 1.369 1_556 S
C520 C522 1.419 . S
C520 H524 0.930 . S
C521 C520 1.369 1_554 S
C521 C530 1.429 . S
C522 C520 1.419 . S
C522 C523 1.363 1_556 S
C522 H525 0.929 . S
C523 C522 1.363 1_554 S
C523 C529 1.428 . S
H524 C520 0.930 . S
H525 C522 0.929 . S
S526 N527 1.613 . S
S526 N528 1.610 . S
N527 S526 1.613 . S
N527 C530 1.350 . S
N528 S526 1.610 . S
N528 C529 1.351 . S
C529 C523 1.428 . S
C529 N528 1.351 . S
C529 C530 1.434 . S
C530 C521 1.429 . S
C530 N527 1.350 . S
C530 C529 1.434 . S
C531 C532 1.369 . S
C531 C533 1.419 . S
C531 H535 0.930 . S
C532 C531 1.369 . S
C532 C541 1.429 . S
C533 C531 1.419 . S
C533 C534 1.363 . S
C533 H536 0.929 . S
C534 C533 1.363 . S
C534 C540 1.428 . S
H535 C531 0.930 . S
H536 C533 0.929 . S
S537 N538 1.613 . S
S537 N539 1.610 . S
N538 S537 1.613 . S
N538 C541 1.350 . S
N539 S537 1.610 . S
N539 C540 1.351 . S
C540 C534 1.428 . S
C540 N539 1.351 . S
C540 C541 1.434 . S
C541 C532 1.429 . S
C541 N538 1.350 . S
C541 C540 1.434 . S
C542 C543 1.369 . S
C542 C544 1.419 . S
C542 H546 0.930 . S
C543 C542 1.369 . S
C543 C552 1.429 1_554 S
C544 C542 1.419 . S
C544 C545 1.363 . S
C544 H547 0.929 . S
C545 C544 1.363 . S
C545 C551 1.428 1_554 S
H546 C542 0.930 . S
H547 C544 0.929 . S
S548 N549 1.613 . S
S548 N550 1.610 . S
N549 S548 1.613 . S
N549 C552 1.350 . S
N550 S548 1.610 . S
N550 C551 1.351 . S
C551 C545 1.428 1_556 S
C551 N550 1.351 . S
C551 C552 1.434 . S
C552 C543 1.429 1_556 S
C552 N549 1.350 . S
C552 C551 1.434 . S
C553 C554 1.369 . S
C553 C555 1.419 . S
C553 H557 0.930 . S
C554 C553 1.369 . S
C554 C563 1.429 . S
C555 C553 1.419 . S
C555 C556 1.363 . S
C555 H558 0.929 . S
C556 C555 1.363 . S
C556 C562 1.428 . S
H557 C553 0.930 . S
H558 C555 0.929 . S
S559 N560 1.613 . S
S559 N561 1.610 . S
N560 S559 1.613 . S
N560 C563 1.350 . S
N561 S559 1.610 . S
N561 C562 1.351 . S
C562 C556 1.428 . S
C562 N561 1.351 . S
C562 C563 1.434 . S
C563 C554 1.429 . S
C563 N560 1.350 . S
C563 C562 1.434 . S
C564 C565 1.369 . S
C564 C566 1.419 . S
C564 H568 0.930 . S
C565 C564 1.369 . S
C565 C574 1.429 . S
C566 C564 1.419 . S
C566 C567 1.363 . S
C566 H569 0.929 . S
C567 C566 1.363 . S
C567 C573 1.428 . S
H568 C564 0.930 . S
H569 C566 0.929 . S
S570 N571 1.613 . S
S570 N572 1.610 . S
N571 S570 1.613 . S
N571 C574 1.350 . S
N572 S570 1.610 . S
N572 C573 1.351 . S
C573 C567 1.428 . S
C573 N572 1.351 . S
C573 C574 1.434 . S
C574 C565 1.429 . S
C574 N571 1.350 . S
C574 C573 1.434 . S
C575 C576 1.369 . S
C575 C577 1.419 . S
C575 H579 0.930 . S
C576 C575 1.369 . S
C576 C585 1.429 1_554 S
C577 C575 1.419 . S
C577 C578 1.363 . S
C577 H580 0.929 . S
C578 C577 1.363 . S
C578 C584 1.428 1_554 S
H579 C575 0.930 . S
H580 C577 0.929 . S
S581 N582 1.613 . S
S581 N583 1.610 . S
N582 S581 1.613 . S
N582 C585 1.350 . S
N583 S581 1.610 . S
N583 C584 1.351 . S
C584 C578 1.428 1_556 S
C584 N583 1.351 . S
C584 C585 1.434 . S
C585 C576 1.429 1_556 S
C585 N582 1.350 . S
C585 C584 1.434 . S
C586 C587 1.369 . S
C586 C588 1.419 . S
C586 H590 0.930 . S
C587 C586 1.369 . S
C587 C596 1.429 . S
C588 C586 1.419 . S
C588 C589 1.363 . S
C588 H591 0.929 . S
C589 C588 1.363 . S
C589 C595 1.428 . S
H590 C586 0.930 . S
H591 C588 0.929 . S
S592 N593 1.613 . S
S592 N594 1.610 . S
N593 S592 1.613 . S
N593 C596 1.350 . S
N594 S592 1.610 . S
N594 C595 1.351 . S
C595 C589 1.428 . S
C595 N594 1.351 . S
C595 C596 1.434 . S
C596 C587 1.429 . S
C596 N593 1.350 . S
C596 C595 1.434 . S
C597 C598 1.369 1_556 S
C597 C599 1.419 . S
C597 H601 0.930 . S
C598 C597 1.369 1_554 S
C598 C607 1.429 . S
C599 C597 1.419 . S
C599 C600 1.363 1_556 S
C599 H602 0.929 . S
C600 C599 1.363 1_554 S
C600 C606 1.428 . S
H601 C597 0.930 . S
H602 C599 0.929 . S
S603 N604 1.613 . S
S603 N605 1.610 . S
N604 S603 1.613 . S
N604 C607 1.350 . S
N605 S603 1.610 . S
N605 C606 1.351 . S
C606 C600 1.428 . S
C606 N605 1.351 . S
C606 C607 1.434 . S
C607 C598 1.429 . S
C607 N604 1.350 . S
C607 C606 1.434 . S
C345 C21 1.589 . S
C347 C201 1.506 . S
C356 C40 1.704 . S
C358 C117 1.508 . S
C369 C149 1.589 . S
C367 C54 1.576 . S
C378 C73 1.727 . S
C380 C169 1.718 . S
C391 C277 1.590 . S
C389 C74 1.582 . S
C402 C297 1.689 . S
C400 C10 1.698 . S
C413 C329 1.503 . S
C411 C37 1.585 . S
C424 C245 1.540 . S
C422 C65 1.734 . S
C433 C52 1.576 . S
C435 C137 1.585 . S
C444 C87 1.736 . S
C446 C181 1.735 . S
C455 C15 1.598 . S
C457 C213 1.493 . S
C468 C105 1.517 . S
C466 C32 1.685 . S
C477 C29 1.605 . S
C479 C341 1.495 . S
C490 C233 1.560 . S
C488 C59 1.727 . S
C501 C265 1.582 . S
C499 C84 1.576 . S
C510 C8 1.693 . S
C512 C309 1.692 . S
C523 C111 1.588 . S
C521 C7 1.784 . S
C534 C143 1.658 . S
C532 C30 1.634 . S
C543 C62 1.792 . S
C545 C175 1.790 . S
C554 C81 1.611 . S
C556 C207 1.529 . S
C567 C239 1.598 . S
C565 C76 1.792 . S
C576 C18 1.634 . S
C578 C271 1.658 . S
C587 C43 1.783 . S
C589 C303 1.772 . S
C598 C51 1.610 . S
C600 C335 1.530 . S
