# Generated by pormake.
# Topology pyr, (3,6)-cn, num edge types: 1
# Building blocks:
#     Node 0, Type 0, BuildingBlock: CUQRIR_clean_linker_1, # of connection points: 3
#     Node 1, Type 0, BuildingBlock: CUQRIR_clean_linker_1, # of connection points: 3
#     Node 2, Type 0, BuildingBlock: CUQRIR_clean_linker_1, # of connection points: 3
#     Node 3, Type 0, BuildingBlock: CUQRIR_clean_linker_1, # of connection points: 3
#     Node 4, Type 0, BuildingBlock: CUQRIR_clean_linker_1, # of connection points: 3
#     Node 5, Type 0, BuildingBlock: CUQRIR_clean_linker_1, # of connection points: 3
#     Node 6, Type 0, BuildingBlock: CUQRIR_clean_linker_1, # of connection points: 3
#     Node 7, Type 0, BuildingBlock: CUQRIR_clean_linker_1, # of connection points: 3
#     Node 8, Type 1, BuildingBlock: VOLQOD_clean_sbu_1, # of connection points: 6
#     Node 9, Type 1, BuildingBlock: VOLQOD_clean_sbu_1, # of connection points: 6
#     Node 10, Type 1, BuildingBlock: VOLQOD_clean_sbu_1, # of connection points: 6
#     Node 11, Type 1, BuildingBlock: VOLQOD_clean_sbu_1, # of connection points: 6
#     Edge 12, Type (0, 1), BuildingBlock: EYOCIG_clean_linker_4, # of connection points: 2
#     Edge 13, Type (0, 1), BuildingBlock: EYOCIG_clean_linker_4, # of connection points: 2
#     Edge 14, Type (0, 1), BuildingBlock: EYOCIG_clean_linker_4, # of connection points: 2
#     Edge 15, Type (0, 1), BuildingBlock: EYOCIG_clean_linker_4, # of connection points: 2
#     Edge 16, Type (0, 1), BuildingBlock: EYOCIG_clean_linker_4, # of connection points: 2
#     Edge 17, Type (0, 1), BuildingBlock: EYOCIG_clean_linker_4, # of connection points: 2
#     Edge 18, Type (0, 1), BuildingBlock: EYOCIG_clean_linker_4, # of connection points: 2
#     Edge 19, Type (0, 1), BuildingBlock: EYOCIG_clean_linker_4, # of connection points: 2
#     Edge 20, Type (0, 1), BuildingBlock: EYOCIG_clean_linker_4, # of connection points: 2
#     Edge 21, Type (0, 1), BuildingBlock: EYOCIG_clean_linker_4, # of connection points: 2
#     Edge 22, Type (0, 1), BuildingBlock: EYOCIG_clean_linker_4, # of connection points: 2
#     Edge 23, Type (0, 1), BuildingBlock: EYOCIG_clean_linker_4, # of connection points: 2
#     Edge 24, Type (0, 1), BuildingBlock: EYOCIG_clean_linker_4, # of connection points: 2
#     Edge 25, Type (0, 1), BuildingBlock: EYOCIG_clean_linker_4, # of connection points: 2
#     Edge 26, Type (0, 1), BuildingBlock: EYOCIG_clean_linker_4, # of connection points: 2
#     Edge 27, Type (0, 1), BuildingBlock: EYOCIG_clean_linker_4, # of connection points: 2
#     Edge 28, Type (0, 1), BuildingBlock: EYOCIG_clean_linker_4, # of connection points: 2
#     Edge 29, Type (0, 1), BuildingBlock: EYOCIG_clean_linker_4, # of connection points: 2
#     Edge 30, Type (0, 1), BuildingBlock: EYOCIG_clean_linker_4, # of connection points: 2
#     Edge 31, Type (0, 1), BuildingBlock: EYOCIG_clean_linker_4, # of connection points: 2
#     Edge 32, Type (0, 1), BuildingBlock: EYOCIG_clean_linker_4, # of connection points: 2
#     Edge 33, Type (0, 1), BuildingBlock: EYOCIG_clean_linker_4, # of connection points: 2
#     Edge 34, Type (0, 1), BuildingBlock: EYOCIG_clean_linker_4, # of connection points: 2
#     Edge 35, Type (0, 1), BuildingBlock: EYOCIG_clean_linker_4, # of connection points: 2
# Relax obj value: 0.121
# Max RMSD: 0.210
# Mean RMSD: 0.164
data_MOF--net-pry--node1-VOLQOD_clean_sbu_1--node2-CUQRIR_clean_linker_1--edge1-EYOCIG_clean_linker_4
_symmetry_space_group_name_H-M    P1
_symmetry_Int_Tables_number       1
_symmetry_cell_setting            triclinic
loop_
_symmetry_equiv_pos_as_xyz
'x, y, z'
_cell_length_a     27.080345
_cell_length_b     26.831055
_cell_length_c     26.578286
_cell_angle_alpha  88.384336
_cell_angle_beta   91.943994
_cell_angle_gamma 93.748181
loop_
_atom_site_label
_atom_site_type_symbol
_atom_site_fract_x
_atom_site_fract_y
_atom_site_fract_z
_atom_type_partial_charge
C0 C 0.12347 0.201 0.17395 0.0
N1 N 0.15711 0.16644 0.18315 0.0
N2 N 0.13326 0.22683 0.13101 0.0
C3 C 0.08094 0.21061 0.20684 0.0
C4 C 0.17387 0.20718 0.11372 0.0
N5 N 0.18895 0.17028 0.14557 0.0
C6 C 0.19936 0.22551 0.06668 0.0
H7 H 0.04608 0.19436 0.18907 0.0
H8 H 0.0772 0.25142 0.2095 0.0
H9 H 0.08539 0.19416 0.24529 0.0
H10 H 0.22175 0.26065 0.07481 0.0
H11 H 0.17144 0.23413 0.03668 0.0
H12 H 0.22403 0.19775 0.053 0.0
C13 C 0.39334 0.85212 0.62879 0.0
N14 N 0.38148 0.88681 0.66148 0.0
N15 N 0.43238 0.82805 0.64677 0.0
C16 C 0.36476 0.83902 0.58075 0.0
C17 C 0.44514 0.84926 0.69092 0.0
N18 N 0.41418 0.88534 0.70055 0.0
C19 C 0.48669 0.83228 0.72502 0.0
H20 H 0.33283 0.81266 0.58983 0.0
H21 H 0.38832 0.82081 0.55424 0.0
H22 H 0.35036 0.87287 0.56207 0.0
H23 H 0.52194 0.83751 0.70478 0.0
H24 H 0.48055 0.79162 0.7335 0.0
H25 H 0.4904 0.85264 0.76075 0.0
C26 C 0.58687 0.38568 0.88163 0.0
N27 N 0.62259 0.37732 0.91681 0.0
N28 N 0.59951 0.42698 0.85408 0.0
C29 C 0.5439 0.34947 0.86843 0.0
C30 C 0.64328 0.44449 0.87365 0.0
N31 N 0.65771 0.414 0.91175 0.0
C32 C 0.67465 0.48693 0.84987 0.0
H33 H 0.55644 0.32157 0.84242 0.0
H34 H 0.51358 0.3693 0.84915 0.0
H35 H 0.52977 0.32946 0.90263 0.0
H36 H 0.65253 0.52027 0.84539 0.0
H37 H 0.68463 0.47653 0.81153 0.0
H38 H 0.70899 0.49703 0.87206 0.0
C39 C 0.87293 0.59475 0.37538 0.0
N40 N 0.90946 0.62978 0.36516 0.0
N41 N 0.84985 0.60636 0.41695 0.0
C42 C 0.85515 0.55278 0.34131 0.0
C43 C 0.87404 0.64866 0.43295 0.0
N44 N 0.91054 0.66335 0.40128 0.0
C45 C 0.85792 0.67785 0.4764 0.0
H46 H 0.82814 0.56687 0.31287 0.0
H47 H 0.83633 0.52168 0.36327 0.0
H48 H 0.88642 0.53847 0.32134 0.0
H49 H 0.85901 0.6539 0.51112 0.0
H50 H 0.81892 0.68734 0.46965 0.0
H51 H 0.88147 0.71263 0.48245 0.0
C52 C 0.90358 0.93702 0.96611 0.0
N53 N 0.9348 0.92387 0.93089 0.0
N54 N 0.88171 0.97896 0.95149 0.0
C55 C 0.88999 0.90592 0.01227 0.0
C56 C 0.9022 0.99229 0.907 0.0
N57 N 0.93435 0.95851 0.89392 0.0
C58 C 0.8873 0.03613 0.87484 0.0
H59 H 0.85997 0.87753 0.00201 0.0
H60 H 0.87651 0.92966 0.04181 0.0
H61 H 0.92229 0.88626 0.0275 0.0
H62 H 0.89369 0.07063 0.89686 0.0
H63 H 0.84708 0.03168 0.86528 0.0
H64 H 0.9083 0.04047 0.83973 0.0
C65 C 0.66357 0.1276 0.48072 0.0
N66 N 0.67514 0.09137 0.44922 0.0
N67 N 0.61901 0.145 0.46744 0.0
C68 C 0.69626 0.14769 0.52329 0.0
C69 C 0.60287 0.11726 0.4281 0.0
N70 N 0.63699 0.0852 0.41637 0.0
C71 C 0.55636 0.12646 0.39729 0.0
H72 H 0.68175 0.13166 0.55924 0.0
H73 H 0.6951 0.18888 0.52466 0.0
H74 H 0.73507 0.1376 0.52031 0.0
H75 H 0.56392 0.15872 0.371 0.0
H76 H 0.52656 0.1361 0.4223 0.0
H77 H 0.5433 0.09343 0.37519 0.0
C78 C 0.37511 0.5897 0.12397 0.0
N79 N 0.41136 0.62141 0.14271 0.0
N80 N 0.35794 0.60793 0.07952 0.0
C81 C 0.35033 0.5461 0.15275 0.0
C82 C 0.38423 0.65165 0.07204 0.0
N83 N 0.41672 0.66015 0.11079 0.0
C84 C 0.3707 0.69001 0.03231 0.0
H85 H 0.35951 0.51084 0.13551 0.0
H86 H 0.30946 0.54771 0.15014 0.0
H87 H 0.36219 0.54496 0.19308 0.0
H88 H 0.33936 0.7104 0.04547 0.0
H89 H 0.3583 0.67133 0.99689 0.0
H90 H 0.40231 0.71727 0.02482 0.0
C91 C 0.07688 0.39403 0.63664 0.0
N92 N 0.10834 0.38132 0.60147 0.0
N93 N 0.09035 0.43999 0.65385 0.0
C94 C 0.03451 0.36082 0.65623 0.0
C95 C 0.13027 0.45546 0.62726 0.0
N96 N 0.14131 0.41969 0.59548 0.0
C97 C 0.1617 0.50272 0.63726 0.0
H98 H 0.99953 0.37343 0.63869 0.0
H99 H 0.03221 0.36409 0.69759 0.0
H100 H 0.03764 0.32115 0.64694 0.0
H101 H 0.18391 0.49756 0.67267 0.0
H102 H 0.13761 0.53394 0.64265 0.0
H103 H 0.18711 0.5126 0.60613 0.0
O104 O 0.03369 0.12323 0.55916 0.0
Zn105 Zn 0.00103 0.05221 0.5584 0.0
O106 O 0.04388 0.00913 0.52241 0.0
Zn107 Zn 0.01088 0.99418 0.45644 0.0
Zn108 Zn 0.10944 0.04451 0.51203 0.0
Zn109 Zn 0.0546 0.94716 0.56236 0.0
O110 O 0.00513 0.91897 0.44793 0.0
O111 O 0.02351 0.8862 0.52398 0.0
O112 O 0.93077 0.05289 0.5244 0.0
O113 O 0.93866 0.01491 0.45211 0.0
O114 O 0.05044 0.0291 0.3989 0.0
O115 O 0.1195 0.0601 0.43772 0.0
O116 O 0.16707 0.0061 0.54229 0.0
O117 O 0.99438 0.02722 0.6321 0.0
O118 O 0.12898 0.93773 0.57575 0.0
O119 O 0.02635 0.95267 0.63288 0.0
C120 C 0.07857 0.14025 0.55499 0.0
C121 C 0.00832 0.88142 0.4781 0.0
C122 C 0.0928 0.0531 0.39784 0.0
C123 C 0.91228 0.03686 0.4825 0.0
C124 C 0.16856 0.96446 0.56652 0.0
C125 C 0.00557 0.98688 0.65526 0.0
O126 O 0.11246 0.11287 0.5423 0.0
O127 O 0.52488 0.13077 0.98724 0.0
Zn128 Zn 0.48391 0.06496 0.00375 0.0
O129 O 0.52301 0.02593 0.0524 0.0
Zn130 Zn 0.54689 0.96731 0.01994 0.0
Zn131 Zn 0.5806 0.06675 0.07792 0.0
Zn132 Zn 0.48266 0.00494 0.11022 0.0
O133 O 0.52627 0.90528 0.06043 0.0
O134 O 0.4682 0.92993 0.11027 0.0
O135 O 0.46937 0.02365 0.93888 0.0
O136 O 0.51487 0.95763 0.9494 0.0
O137 O 0.62206 0.97327 0.0136 0.0
O138 O 0.64369 0.04414 0.05225 0.0
O139 O 0.58837 0.06276 0.15353 0.0
O140 O 0.41816 0.08355 0.03611 0.0
O141 O 0.52073 0.01758 0.17644 0.0
O142 O 0.41903 0.04198 0.1099 0.0
C143 C 0.55927 0.15521 0.01218 0.0
C144 C 0.49222 0.89581 0.09184 0.0
C145 C 0.65473 0.0067 0.02789 0.0
C146 C 0.4845 0.98281 0.92302 0.0
C147 C 0.56212 0.0407 0.18721 0.0
C148 C 0.39861 0.07166 0.07846 0.0
O149 O 0.57978 0.13717 0.05175 0.0
O150 O 0.56709 0.49412 0.59059 0.0
Zn151 Zn 0.54544 0.53295 0.53215 0.0
O152 O 0.49555 0.49584 0.49351 0.0
Zn153 Zn 0.52435 0.47143 0.43475 0.0
Zn154 Zn 0.47155 0.44094 0.53468 0.0
Zn155 Zn 0.44311 0.53823 0.47703 0.0
O156 O 0.48854 0.49653 0.37263 0.0
O157 O 0.44524 0.55595 0.40417 0.0
O158 O 0.60394 0.5514 0.49452 0.0
O159 O 0.59282 0.50212 0.42874 0.0
O160 O 0.53286 0.39681 0.44111 0.0
O161 O 0.50061 0.37788 0.51572 0.0
O162 O 0.39781 0.43407 0.53349 0.0
O163 O 0.52209 0.59441 0.55857 0.0
O164 O 0.3775 0.50412 0.49316 0.0
O165 O 0.45033 0.60052 0.51647 0.0
C166 C 0.53809 0.46818 0.61859 0.0
C167 C 0.46261 0.53443 0.36727 0.0
C168 C 0.5237 0.36598 0.47752 0.0
C169 C 0.61851 0.53405 0.45438 0.0
C170 C 0.36573 0.46294 0.51585 0.0
C171 C 0.48336 0.61688 0.54791 0.0
O172 O 0.49523 0.45167 0.60421 0.0
O173 O 0.94074 0.54809 0.11252 0.0
Zn174 Zn 0.95532 0.51344 0.04839 0.0
O175 O 0.99841 0.55418 0.00483 0.0
Zn176 Zn 0.96719 0.57799 0.9425 0.0
Zn177 Zn 0.02419 0.61076 0.04335 0.0
Zn178 Zn 0.04962 0.51296 0.98527 0.0
O179 O 0.00339 0.55811 0.88109 0.0
O180 O 0.04942 0.49844 0.91248 0.0
O181 O 0.89425 0.49718 0.00833 0.0
O182 O 0.89878 0.54283 0.93658 0.0
O183 O 0.96472 0.65383 0.94174 0.0
O184 O 0.00109 0.67552 0.01496 0.0
O185 O 0.09723 0.61638 0.04093 0.0
O186 O 0.98438 0.44834 0.07057 0.0
O187 O 0.11246 0.54838 0.99923 0.0
O188 O 0.05109 0.44969 0.02421 0.0
C189 C 0.96771 0.58144 0.1355 0.0
C190 C 0.0321 0.52316 0.87537 0.0
C191 C 0.9793 0.68682 0.97352 0.0
C192 C 0.87645 0.51081 0.96572 0.0
C193 C 0.12648 0.58842 0.02073 0.0
C194 C 0.02316 0.42892 0.05687 0.0
O195 O 0.00422 0.605 0.115 0.0
C196 C 0.14687 0.11183 0.26529 0.0
C197 C 0.15658 0.13411 0.22606 0.0
C198 C 0.12838 0.09044 0.3113 0.0
C199 C 0.11148 0.07313 0.35033 0.0
C200 C 0.42967 0.93187 0.78571 0.0
C201 C 0.41785 0.91361 0.74508 0.0
C202 C 0.44908 0.94927 0.83365 0.0
C203 C 0.46559 0.96395 0.8744 0.0
C204 C 0.57216 0.44486 0.76248 0.0
C205 C 0.58394 0.43581 0.80482 0.0
C206 C 0.5624 0.45327 0.71202 0.0
C207 C 0.55243 0.46078 0.66897 0.0
C208 C 0.94483 0.6259 0.27651 0.0
C209 C 0.93253 0.63349 0.31862 0.0
C210 C 0.95137 0.60906 0.22747 0.0
C211 C 0.95665 0.59456 0.18559 0.0
C212 C 0.26996 0.1257 0.12715 0.0
C213 C 0.23203 0.14374 0.13948 0.0
C214 C 0.31455 0.10794 0.10811 0.0
C215 C 0.35263 0.09268 0.09255 0.0
C216 C 0.29933 0.92822 0.63719 0.0
C217 C 0.33796 0.91307 0.65464 0.0
C218 C 0.25426 0.94014 0.61095 0.0
C219 C 0.2152 0.95114 0.59075 0.0
C220 C 0.74675 0.43315 0.94428 0.0
C221 C 0.70508 0.41788 0.93427 0.0
C222 C 0.79208 0.46159 0.94666 0.0
C223 C 0.83024 0.48671 0.9506 0.0
C224 C 0.75955 0.5758 0.4333 0.0
C225 C 0.80119 0.59093 0.427 0.0
C226 C 0.70997 0.56014 0.43621 0.0
C227 C 0.66785 0.54646 0.44183 0.0
C228 C 0.08473 0.30328 0.10113 0.0
C229 C 0.10874 0.26837 0.11271 0.0
C230 C 0.05698 0.34499 0.09052 0.0
C231 C 0.03733 0.38255 0.07847 0.0
C232 C 0.61499 0.2926 0.96598 0.0
C233 C 0.62403 0.3331 0.94628 0.0
C234 C 0.59564 0.24474 0.98221 0.0
C235 C 0.57789 0.20386 0.99446 0.0
C236 C 0.96139 0.74738 0.41817 0.0
C237 C 0.94077 0.70797 0.40567 0.0
C238 C 0.97994 0.79302 0.44003 0.0
C239 C 0.9933 0.8324 0.45918 0.0
C240 C 0.46064 0.7456 0.61263 0.0
C241 C 0.44837 0.78359 0.62927 0.0
C242 C 0.47057 0.7005 0.59175 0.0
C243 C 0.47692 0.66218 0.57198 0.0
C244 C 0.97216 0.96249 0.80398 0.0
C245 C 0.95652 0.95735 0.84638 0.0
C246 C 0.98535 0.97185 0.75264 0.0
C247 C 0.99428 0.97933 0.70831 0.0
C248 C 0.62264 0.04587 0.32894 0.0
C249 C 0.63527 0.06059 0.37025 0.0
C250 C 0.60064 0.03982 0.28016 0.0
C251 C 0.58168 0.03929 0.2383 0.0
C252 C 0.4465 0.60343 0.23215 0.0
C253 C 0.43355 0.61658 0.19063 0.0
C254 C 0.45369 0.57938 0.27898 0.0
C255 C 0.45837 0.55798 0.31886 0.0
C256 C 0.06482 0.47781 0.73754 0.0
C257 C 0.0764 0.46011 0.69894 0.0
C258 C 0.05341 0.49598 0.78462 0.0
C259 C 0.04313 0.50912 0.82566 0.0
C260 C 0.7964 1.00079 0.98481 0.0
C261 C 0.8357 0.99221 0.96806 0.0
C262 C 0.7477 0.00367 0.00147 0.0
C263 C 0.70512 0.00452 0.01324 0.0
C264 C 0.76476 0.05823 0.45134 0.0
C265 C 0.72236 0.07125 0.44729 0.0
C266 C 0.81607 0.04866 0.4602 0.0
C267 C 0.8599 0.04292 0.46962 0.0
C268 C 0.27093 0.59434 0.03924 0.0
C269 C 0.31068 0.59817 0.0593 0.0
C270 C 0.22139 0.59862 0.02763 0.0
C271 C 0.17761 0.5983 0.0265 0.0
C272 C 0.22394 0.42589 0.54836 0.0
C273 C 0.18501 0.41983 0.56872 0.0
C274 C 0.27226 0.43788 0.53245 0.0
C275 C 0.31479 0.44997 0.52448 0.0
C276 C 0.96387 0.83329 0.93697 0.0
C277 C 0.95298 0.87593 0.92963 0.0
C278 C 0.97004 0.78242 0.95 0.0
C279 C 0.9743 0.73882 0.96081 0.0
C280 C 0.45789 0.74939 0.12156 0.0
C281 C 0.4409 0.70683 0.12071 0.0
C282 C 0.47094 0.80082 0.11509 0.0
C283 C 0.47967 0.84456 0.10535 0.0
C284 C 0.10925 0.28912 0.57305 0.0
C285 C 0.11183 0.33263 0.58398 0.0
C286 C 0.10084 0.23706 0.56613 0.0
C287 C 0.09092 0.19287 0.561 0.0
C288 C 0.58271 0.23077 0.48272 0.0
C289 C 0.60158 0.19174 0.47792 0.0
C290 C 0.56118 0.27741 0.48097 0.0
C291 C 0.54445 0.31804 0.47852 0.0
loop_
_geom_bond_atom_site_label_1
_geom_bond_atom_site_label_2
_geom_bond_distance
_geom_bond_site_symmetry_2
_ccdc_geom_bond_type
C0 N1 1.317 . S
C0 N2 1.348 . S
C0 C3 1.485 . S
N1 C0 1.317 . S
N1 N5 1.370 . S
N2 C0 1.348 . S
N2 C4 1.346 . S
C3 C0 1.485 . S
C3 H7 0.960 . S
C3 H8 0.961 . S
C3 H9 0.960 . S
C4 N2 1.346 . S
C4 N5 1.307 . S
C4 C6 1.486 . S
N5 N1 1.370 . S
N5 C4 1.307 . S
C6 C4 1.486 . S
C6 H10 0.960 . S
C6 H11 0.960 . S
C6 H12 0.959 . S
H7 C3 0.960 . S
H8 C3 0.961 . S
H9 C3 0.960 . S
H10 C6 0.960 . S
H11 C6 0.960 . S
H12 C6 0.959 . S
C13 N14 1.317 . S
C13 N15 1.348 . S
C13 C16 1.485 . S
N14 C13 1.317 . S
N14 N18 1.370 . S
N15 C13 1.348 . S
N15 C17 1.346 . S
C16 C13 1.485 . S
C16 H20 0.960 . S
C16 H21 0.961 . S
C16 H22 0.960 . S
C17 N15 1.346 . S
C17 N18 1.307 . S
C17 C19 1.486 . S
N18 N14 1.370 . S
N18 C17 1.307 . S
C19 C17 1.486 . S
C19 H23 0.960 . S
C19 H24 0.960 . S
C19 H25 0.959 . S
H20 C16 0.960 . S
H21 C16 0.961 . S
H22 C16 0.960 . S
H23 C19 0.960 . S
H24 C19 0.960 . S
H25 C19 0.959 . S
C26 N27 1.317 . S
C26 N28 1.348 . S
C26 C29 1.485 . S
N27 C26 1.317 . S
N27 N31 1.370 . S
N28 C26 1.348 . S
N28 C30 1.346 . S
C29 C26 1.485 . S
C29 H33 0.960 . S
C29 H34 0.961 . S
C29 H35 0.960 . S
C30 N28 1.346 . S
C30 N31 1.307 . S
C30 C32 1.486 . S
N31 N27 1.370 . S
N31 C30 1.307 . S
C32 C30 1.486 . S
C32 H36 0.960 . S
C32 H37 0.960 . S
C32 H38 0.959 . S
H33 C29 0.960 . S
H34 C29 0.961 . S
H35 C29 0.960 . S
H36 C32 0.960 . S
H37 C32 0.960 . S
H38 C32 0.959 . S
C39 N40 1.317 . S
C39 N41 1.348 . S
C39 C42 1.485 . S
N40 C39 1.317 . S
N40 N44 1.370 . S
N41 C39 1.348 . S
N41 C43 1.346 . S
C42 C39 1.485 . S
C42 H46 0.960 . S
C42 H47 0.961 . S
C42 H48 0.960 . S
C43 N41 1.346 . S
C43 N44 1.307 . S
C43 C45 1.486 . S
N44 N40 1.370 . S
N44 C43 1.307 . S
C45 C43 1.486 . S
C45 H49 0.960 . S
C45 H50 0.960 . S
C45 H51 0.959 . S
H46 C42 0.960 . S
H47 C42 0.961 . S
H48 C42 0.960 . S
H49 C45 0.960 . S
H50 C45 0.960 . S
H51 C45 0.959 . S
C52 N53 1.317 . S
C52 N54 1.348 . S
C52 C55 1.485 1_556 S
N53 C52 1.317 . S
N53 N57 1.370 . S
N54 C52 1.348 . S
N54 C56 1.346 . S
C55 C52 1.485 1_554 S
C55 H59 0.960 . S
C55 H60 0.961 . S
C55 H61 0.960 . S
C56 N54 1.346 . S
C56 N57 1.307 . S
C56 C58 1.486 1_565 S
N57 N53 1.370 . S
N57 C56 1.307 . S
C58 C56 1.486 1_545 S
C58 H62 0.960 . S
C58 H63 0.960 . S
C58 H64 0.959 . S
H59 C55 0.960 . S
H60 C55 0.961 . S
H61 C55 0.960 . S
H62 C58 0.960 . S
H63 C58 0.960 . S
H64 C58 0.959 . S
C65 N66 1.317 . S
C65 N67 1.348 . S
C65 C68 1.485 . S
N66 C65 1.317 . S
N66 N70 1.370 . S
N67 C65 1.348 . S
N67 C69 1.346 . S
C68 C65 1.485 . S
C68 H72 0.960 . S
C68 H73 0.961 . S
C68 H74 0.960 . S
C69 N67 1.346 . S
C69 N70 1.307 . S
C69 C71 1.486 . S
N70 N66 1.370 . S
N70 C69 1.307 . S
C71 C69 1.486 . S
C71 H75 0.960 . S
C71 H76 0.960 . S
C71 H77 0.959 . S
H72 C68 0.960 . S
H73 C68 0.961 . S
H74 C68 0.960 . S
H75 C71 0.960 . S
H76 C71 0.960 . S
H77 C71 0.959 . S
C78 N79 1.317 . S
C78 N80 1.348 . S
C78 C81 1.485 . S
N79 C78 1.317 . S
N79 N83 1.370 . S
N80 C78 1.348 . S
N80 C82 1.346 . S
C81 C78 1.485 . S
C81 H85 0.960 . S
C81 H86 0.961 . S
C81 H87 0.960 . S
C82 N80 1.346 . S
C82 N83 1.307 . S
C82 C84 1.486 . S
N83 N79 1.370 . S
N83 C82 1.307 . S
C84 C82 1.486 . S
C84 H88 0.960 . S
C84 H89 0.960 1_554 S
C84 H90 0.959 . S
H85 C81 0.960 . S
H86 C81 0.961 . S
H87 C81 0.960 . S
H88 C84 0.960 . S
H89 C84 0.960 1_556 S
H90 C84 0.959 . S
C91 N92 1.317 . S
C91 N93 1.348 . S
C91 C94 1.485 . S
N92 C91 1.317 . S
N92 N96 1.370 . S
N93 C91 1.348 . S
N93 C95 1.346 . S
C94 C91 1.485 . S
C94 H98 0.960 . S
C94 H99 0.961 . S
C94 H100 0.960 . S
C95 N93 1.346 . S
C95 N96 1.307 . S
C95 C97 1.486 . S
N96 N92 1.370 . S
N96 C95 1.307 . S
C97 C95 1.486 . S
C97 H101 0.960 . S
C97 H102 0.960 . S
C97 H103 0.959 . S
H98 C94 0.960 . S
H99 C94 0.961 . S
H100 C94 0.960 . S
H101 C97 0.960 . S
H102 C97 0.960 . S
H103 C97 0.959 . S
O104 Zn105 1.953 . S
O104 C120 1.225 . S
Zn105 O104 1.953 . S
Zn105 O106 1.949 . S
Zn105 O112 1.919 1_455 S
Zn105 O117 1.924 1_455 S
O106 Zn105 1.949 . S
O106 Zn107 1.923 1_545 S
O106 Zn108 1.950 . S
O106 Zn109 1.945 1_545 S
Zn107 O106 1.923 1_565 S
Zn107 O110 1.933 . S
Zn107 O113 1.941 1_465 S
Zn107 O114 1.965 1_565 S
Zn108 O106 1.950 . S
Zn108 O115 1.938 . S
Zn108 O116 1.905 1_545 S
Zn108 O126 1.953 . S
Zn109 O106 1.945 1_565 S
Zn109 O111 1.932 . S
Zn109 O118 1.977 . S
Zn109 O119 1.910 . S
O110 Zn107 1.933 . S
O110 C121 1.226 . S
O111 Zn109 1.932 . S
O111 C121 1.307 . S
O112 Zn105 1.919 1_655 S
O112 C123 1.253 . S
O113 Zn107 1.941 1_645 S
O113 C123 1.283 . S
O114 Zn107 1.965 1_545 S
O114 C122 1.303 . S
O115 Zn108 1.938 . S
O115 C122 1.247 . S
O116 Zn108 1.905 1_565 S
O116 C124 1.305 . S
O117 Zn105 1.924 1_655 S
O117 C125 1.311 1_645 S
O118 Zn109 1.977 . S
O118 C124 1.272 . S
O119 Zn109 1.910 . S
O119 C125 1.231 . S
C120 O104 1.225 . S
C120 O126 1.298 . S
C121 O110 1.226 . S
C121 O111 1.307 . S
C122 O114 1.303 . S
C122 O115 1.247 . S
C123 O112 1.253 . S
C123 O113 1.283 . S
C124 O116 1.305 . S
C124 O118 1.272 . S
C125 O117 1.311 1_465 S
C125 O119 1.231 . S
O126 Zn108 1.953 . S
O126 C120 1.298 . S
O127 Zn128 1.953 1_556 S
O127 C143 1.225 1_556 S
Zn128 O127 1.953 1_554 S
Zn128 O129 1.949 . S
Zn128 O135 1.919 1_554 S
Zn128 O140 1.924 . S
O129 Zn128 1.949 . S
O129 Zn130 1.923 1_545 S
O129 Zn131 1.950 . S
O129 Zn132 1.945 . S
Zn130 O129 1.923 1_565 S
Zn130 O133 1.933 . S
Zn130 O136 1.941 1_554 S
Zn130 O137 1.965 . S
Zn131 O129 1.950 . S
Zn131 O138 1.938 . S
Zn131 O139 1.906 . S
Zn131 O149 1.953 . S
Zn132 O129 1.945 . S
Zn132 O134 1.932 1_545 S
Zn132 O141 1.977 . S
Zn132 O142 1.910 . S
O133 Zn130 1.933 . S
O133 C144 1.226 . S
O134 Zn132 1.932 1_565 S
O134 C144 1.307 . S
O135 Zn128 1.919 1_556 S
O135 C146 1.253 1_545 S
O136 Zn130 1.941 1_556 S
O136 C146 1.283 . S
O137 Zn130 1.965 . S
O137 C145 1.303 1_565 S
O138 Zn131 1.938 . S
O138 C145 1.247 . S
O139 Zn131 1.906 . S
O139 C147 1.304 . S
O140 Zn128 1.924 . S
O140 C148 1.311 . S
O141 Zn132 1.977 . S
O141 C147 1.272 . S
O142 Zn132 1.910 . S
O142 C148 1.231 . S
C143 O127 1.225 1_554 S
C143 O149 1.298 . S
C144 O133 1.226 . S
C144 O134 1.307 . S
C145 O137 1.303 1_545 S
C145 O138 1.247 . S
C146 O135 1.253 1_565 S
C146 O136 1.283 . S
C147 O139 1.304 . S
C147 O141 1.272 . S
C148 O140 1.311 . S
C148 O142 1.231 . S
O149 Zn131 1.953 . S
O149 C143 1.298 . S
O150 Zn151 1.953 . S
O150 C166 1.225 . S
Zn151 O150 1.953 . S
Zn151 O152 1.949 . S
Zn151 O158 1.919 . S
Zn151 O163 1.924 . S
O152 Zn151 1.949 . S
O152 Zn153 1.923 . S
O152 Zn154 1.950 . S
O152 Zn155 1.945 . S
Zn153 O152 1.923 . S
Zn153 O156 1.933 . S
Zn153 O159 1.941 . S
Zn153 O160 1.965 . S
Zn154 O152 1.950 . S
Zn154 O161 1.938 . S
Zn154 O162 1.906 . S
Zn154 O172 1.953 . S
Zn155 O152 1.945 . S
Zn155 O157 1.932 . S
Zn155 O164 1.977 . S
Zn155 O165 1.910 . S
O156 Zn153 1.933 . S
O156 C167 1.226 . S
O157 Zn155 1.932 . S
O157 C167 1.307 . S
O158 Zn151 1.919 . S
O158 C169 1.253 . S
O159 Zn153 1.941 . S
O159 C169 1.283 . S
O160 Zn153 1.965 . S
O160 C168 1.303 . S
O161 Zn154 1.938 . S
O161 C168 1.247 . S
O162 Zn154 1.906 . S
O162 C170 1.304 . S
O163 Zn151 1.924 . S
O163 C171 1.311 . S
O164 Zn155 1.977 . S
O164 C170 1.272 . S
O165 Zn155 1.910 . S
O165 C171 1.231 . S
C166 O150 1.225 . S
C166 O172 1.298 . S
C167 O156 1.226 . S
C167 O157 1.307 . S
C168 O160 1.303 . S
C168 O161 1.247 . S
C169 O158 1.253 . S
C169 O159 1.283 . S
C170 O162 1.304 . S
C170 O164 1.272 . S
C171 O163 1.311 . S
C171 O165 1.231 . S
O172 Zn154 1.953 . S
O172 C166 1.298 . S
O173 Zn174 1.953 . S
O173 C189 1.225 . S
Zn174 O173 1.953 . S
Zn174 O175 1.949 1_655 S
Zn174 O181 1.919 . S
Zn174 O186 1.924 . S
O175 Zn174 1.949 1_455 S
O175 Zn176 1.923 1_454 S
O175 Zn177 1.950 . S
O175 Zn178 1.945 1_554 S
Zn176 O175 1.923 1_656 S
Zn176 O179 1.933 1_655 S
Zn176 O182 1.941 . S
Zn176 O183 1.965 . S
Zn177 O175 1.950 . S
Zn177 O184 1.938 . S
Zn177 O185 1.906 . S
Zn177 O195 1.953 . S
Zn178 O175 1.945 1_556 S
Zn178 O180 1.932 . S
Zn178 O187 1.977 1_556 S
Zn178 O188 1.910 1_556 S
O179 Zn176 1.933 1_455 S
O179 C190 1.226 . S
O180 Zn178 1.932 . S
O180 C190 1.307 . S
O181 Zn174 1.919 . S
O181 C192 1.253 1_554 S
O182 Zn176 1.941 . S
O182 C192 1.283 . S
O183 Zn176 1.965 . S
O183 C191 1.303 . S
O184 Zn177 1.938 . S
O184 C191 1.247 1_454 S
O185 Zn177 1.906 . S
O185 C193 1.304 . S
O186 Zn174 1.924 . S
O186 C194 1.311 1_655 S
O187 Zn178 1.977 1_554 S
O187 C193 1.272 . S
O188 Zn178 1.910 1_554 S
O188 C194 1.231 . S
C189 O173 1.225 . S
C189 O195 1.298 1_655 S
C190 O179 1.226 . S
C190 O180 1.307 . S
C191 O183 1.303 . S
C191 O184 1.247 1_656 S
C192 O181 1.253 1_556 S
C192 O182 1.283 . S
C193 O185 1.304 . S
C193 O187 1.272 . S
C194 O186 1.311 1_455 S
C194 O188 1.231 . S
O195 Zn177 1.953 . S
O195 C189 1.298 1_455 S
C196 C197 1.170 . S
C196 C198 1.380 . S
C197 C196 1.170 . S
C198 C196 1.380 . S
C198 C199 1.170 . S
C199 C198 1.170 . S
C200 C201 1.170 . S
C200 C202 1.380 . S
C201 C200 1.170 . S
C202 C200 1.380 . S
C202 C203 1.170 . S
C203 C202 1.170 . S
C204 C205 1.170 . S
C204 C206 1.380 . S
C205 C204 1.170 . S
C206 C204 1.380 . S
C206 C207 1.170 . S
C207 C206 1.170 . S
C208 C209 1.170 . S
C208 C210 1.380 . S
C209 C208 1.170 . S
C210 C208 1.380 . S
C210 C211 1.170 . S
C211 C210 1.170 . S
C212 C213 1.170 . S
C212 C214 1.380 . S
C213 C212 1.170 . S
C214 C212 1.380 . S
C214 C215 1.170 . S
C215 C214 1.170 . S
C216 C217 1.170 . S
C216 C218 1.380 . S
C217 C216 1.170 . S
C218 C216 1.380 . S
C218 C219 1.170 . S
C219 C218 1.170 . S
C220 C221 1.170 . S
C220 C222 1.380 . S
C221 C220 1.170 . S
C222 C220 1.380 . S
C222 C223 1.170 . S
C223 C222 1.170 . S
C224 C225 1.170 . S
C224 C226 1.380 . S
C225 C224 1.170 . S
C226 C224 1.380 . S
C226 C227 1.170 . S
C227 C226 1.170 . S
C228 C229 1.170 . S
C228 C230 1.380 . S
C229 C228 1.170 . S
C230 C228 1.380 . S
C230 C231 1.170 . S
C231 C230 1.170 . S
C232 C233 1.170 . S
C232 C234 1.380 . S
C233 C232 1.170 . S
C234 C232 1.380 . S
C234 C235 1.170 . S
C235 C234 1.170 . S
C236 C237 1.170 . S
C236 C238 1.380 . S
C237 C236 1.170 . S
C238 C236 1.380 . S
C238 C239 1.170 . S
C239 C238 1.170 . S
C240 C241 1.170 . S
C240 C242 1.380 . S
C241 C240 1.170 . S
C242 C240 1.380 . S
C242 C243 1.170 . S
C243 C242 1.170 . S
C244 C245 1.170 . S
C244 C246 1.380 . S
C245 C244 1.170 . S
C246 C244 1.380 . S
C246 C247 1.177 . S
C247 C246 1.177 . S
C248 C249 1.170 . S
C248 C250 1.380 . S
C249 C248 1.170 . S
C250 C248 1.380 . S
C250 C251 1.170 . S
C251 C250 1.170 . S
C252 C253 1.170 . S
C252 C254 1.380 . S
C253 C252 1.170 . S
C254 C252 1.380 . S
C254 C255 1.170 . S
C255 C254 1.170 . S
C256 C257 1.170 . S
C256 C258 1.380 . S
C257 C256 1.170 . S
C258 C256 1.380 . S
C258 C259 1.170 . S
C259 C258 1.170 . S
C260 C261 1.170 . S
C260 C262 1.380 1_565 S
C261 C260 1.170 . S
C262 C260 1.380 1_545 S
C262 C263 1.170 1_556 S
C263 C262 1.170 1_554 S
C264 C265 1.170 . S
C264 C266 1.380 . S
C265 C264 1.170 . S
C266 C264 1.380 . S
C266 C267 1.170 . S
C267 C266 1.170 . S
C268 C269 1.170 . S
C268 C270 1.380 . S
C269 C268 1.170 . S
C270 C268 1.380 . S
C270 C271 1.170 . S
C271 C270 1.170 . S
C272 C273 1.170 . S
C272 C274 1.380 . S
C273 C272 1.170 . S
C274 C272 1.380 . S
C274 C275 1.170 . S
C275 C274 1.170 . S
C276 C277 1.170 . S
C276 C278 1.380 . S
C277 C276 1.170 . S
C278 C276 1.380 . S
C278 C279 1.170 . S
C279 C278 1.170 . S
C280 C281 1.170 . S
C280 C282 1.380 . S
C281 C280 1.170 . S
C282 C280 1.380 . S
C282 C283 1.170 . S
C283 C282 1.170 . S
C284 C285 1.170 . S
C284 C286 1.380 . S
C285 C284 1.170 . S
C286 C284 1.380 . S
C286 C287 1.170 . S
C287 C286 1.170 . S
C288 C289 1.170 . S
C288 C290 1.380 . S
C289 C288 1.170 . S
C290 C288 1.380 . S
C290 C291 1.170 . S
C291 C290 1.170 . S
C197 N1 1.501 . S
C199 C122 1.526 . S
C201 N18 1.804 . S
C203 C146 1.800 . S
C207 C166 1.122 . S
C205 N28 1.108 . S
C209 N40 1.554 . S
C211 C189 1.596 . S
C215 C148 1.890 . S
C213 N5 1.871 . S
C219 C124 1.679 . S
C217 N14 1.659 . S
C223 C192 1.510 . S
C221 N31 1.540 . S
C227 C169 1.239 . S
C225 N41 1.325 . S
C229 N2 1.423 . S
C231 C194 1.393 . S
C235 C143 1.658 1_556 S
C233 N27 1.629 . S
C237 N44 1.641 . S
C239 C121 1.678 1_655 S
C241 N15 1.324 . S
C243 C171 1.298 . S
C247 C125 1.771 1_655 S
C245 N57 1.769 . S
C249 N70 1.359 . S
C251 C147 1.402 . S
C253 N79 1.525 . S
C255 C167 1.628 . S
C257 N93 1.504 . S
C259 C190 1.524 . S
C261 N54 1.456 . S
C263 C145 1.430 . S
C267 C123 1.879 . S
C265 N66 1.866 . S
C271 C193 1.109 . S
C269 N80 1.150 . S
C275 C170 1.510 . S
C273 N96 1.547 . S
C277 N53 1.710 . S
C279 C191 1.680 . S
C283 C144 1.502 . S
C281 N83 1.477 . S
C287 C120 1.664 . S
C285 N92 1.577 . S
C289 N67 1.602 . S
C291 C168 1.598 . S
