# Generated by pormake.
# Topology ssb, (4,4)-cn, num edge types: 1
# Building blocks:
#     Node 0, Type 0, BuildingBlock: NAWXER_clean_linker_0, # of connection points: 4
#     Node 1, Type 0, BuildingBlock: NAWXER_clean_linker_0, # of connection points: 4
#     Node 2, Type 0, BuildingBlock: NAWXER_clean_linker_0, # of connection points: 4
#     Node 3, Type 0, BuildingBlock: NAWXER_clean_linker_0, # of connection points: 4
#     Node 4, Type 0, BuildingBlock: NAWXER_clean_linker_0, # of connection points: 4
#     Node 5, Type 0, BuildingBlock: NAWXER_clean_linker_0, # of connection points: 4
#     Node 6, Type 0, BuildingBlock: NAWXER_clean_linker_0, # of connection points: 4
#     Node 7, Type 0, BuildingBlock: NAWXER_clean_linker_0, # of connection points: 4
#     Node 8, Type 1, BuildingBlock: KOZSID_clean_sbu_0, # of connection points: 4
#     Node 9, Type 1, BuildingBlock: KOZSID_clean_sbu_0, # of connection points: 4
#     Node 10, Type 1, BuildingBlock: KOZSID_clean_sbu_0, # of connection points: 4
#     Node 11, Type 1, BuildingBlock: KOZSID_clean_sbu_0, # of connection points: 4
#     Node 12, Type 1, BuildingBlock: KOZSID_clean_sbu_0, # of connection points: 4
#     Node 13, Type 1, BuildingBlock: KOZSID_clean_sbu_0, # of connection points: 4
#     Node 14, Type 1, BuildingBlock: KOZSID_clean_sbu_0, # of connection points: 4
#     Node 15, Type 1, BuildingBlock: KOZSID_clean_sbu_0, # of connection points: 4
#     Edge 16, Type (0, 1), BuildingBlock: EZIPEK_clean_linker_0, # of connection points: 2
#     Edge 17, Type (0, 1), BuildingBlock: EZIPEK_clean_linker_0, # of connection points: 2
#     Edge 18, Type (0, 1), BuildingBlock: EZIPEK_clean_linker_0, # of connection points: 2
#     Edge 19, Type (0, 1), BuildingBlock: EZIPEK_clean_linker_0, # of connection points: 2
#     Edge 20, Type (0, 1), BuildingBlock: EZIPEK_clean_linker_0, # of connection points: 2
#     Edge 21, Type (0, 1), BuildingBlock: EZIPEK_clean_linker_0, # of connection points: 2
#     Edge 22, Type (0, 1), BuildingBlock: EZIPEK_clean_linker_0, # of connection points: 2
#     Edge 23, Type (0, 1), BuildingBlock: EZIPEK_clean_linker_0, # of connection points: 2
#     Edge 24, Type (0, 1), BuildingBlock: EZIPEK_clean_linker_0, # of connection points: 2
#     Edge 25, Type (0, 1), BuildingBlock: EZIPEK_clean_linker_0, # of connection points: 2
#     Edge 26, Type (0, 1), BuildingBlock: EZIPEK_clean_linker_0, # of connection points: 2
#     Edge 27, Type (0, 1), BuildingBlock: EZIPEK_clean_linker_0, # of connection points: 2
#     Edge 28, Type (0, 1), BuildingBlock: EZIPEK_clean_linker_0, # of connection points: 2
#     Edge 29, Type (0, 1), BuildingBlock: EZIPEK_clean_linker_0, # of connection points: 2
#     Edge 30, Type (0, 1), BuildingBlock: EZIPEK_clean_linker_0, # of connection points: 2
#     Edge 31, Type (0, 1), BuildingBlock: EZIPEK_clean_linker_0, # of connection points: 2
#     Edge 32, Type (0, 1), BuildingBlock: EZIPEK_clean_linker_0, # of connection points: 2
#     Edge 33, Type (0, 1), BuildingBlock: EZIPEK_clean_linker_0, # of connection points: 2
#     Edge 34, Type (0, 1), BuildingBlock: EZIPEK_clean_linker_0, # of connection points: 2
#     Edge 35, Type (0, 1), BuildingBlock: EZIPEK_clean_linker_0, # of connection points: 2
#     Edge 36, Type (0, 1), BuildingBlock: EZIPEK_clean_linker_0, # of connection points: 2
#     Edge 37, Type (0, 1), BuildingBlock: EZIPEK_clean_linker_0, # of connection points: 2
#     Edge 38, Type (0, 1), BuildingBlock: EZIPEK_clean_linker_0, # of connection points: 2
#     Edge 39, Type (0, 1), BuildingBlock: EZIPEK_clean_linker_0, # of connection points: 2
#     Edge 40, Type (0, 1), BuildingBlock: EZIPEK_clean_linker_0, # of connection points: 2
#     Edge 41, Type (0, 1), BuildingBlock: EZIPEK_clean_linker_0, # of connection points: 2
#     Edge 42, Type (0, 1), BuildingBlock: EZIPEK_clean_linker_0, # of connection points: 2
#     Edge 43, Type (0, 1), BuildingBlock: EZIPEK_clean_linker_0, # of connection points: 2
#     Edge 44, Type (0, 1), BuildingBlock: EZIPEK_clean_linker_0, # of connection points: 2
#     Edge 45, Type (0, 1), BuildingBlock: EZIPEK_clean_linker_0, # of connection points: 2
#     Edge 46, Type (0, 1), BuildingBlock: EZIPEK_clean_linker_0, # of connection points: 2
#     Edge 47, Type (0, 1), BuildingBlock: EZIPEK_clean_linker_0, # of connection points: 2
# Relax obj value: 0.004
# Max RMSD: 0.038
# Mean RMSD: 0.023
data_MOF--net-ssb--node1-KOZSID_clean_sbu_0--node2-NAWXER_clean_linker_0--edge1-EZIPEK_clean_linker_0
_symmetry_space_group_name_H-M    P1
_symmetry_Int_Tables_number       1
_symmetry_cell_setting            triclinic
loop_
_symmetry_equiv_pos_as_xyz
'x, y, z'
_cell_length_a     50.191325
_cell_length_b     50.037846
_cell_length_c     36.982794
_cell_angle_alpha  92.637043
_cell_angle_beta   95.373349
_cell_angle_gamma 90.01125
loop_
_atom_site_label
_atom_site_type_symbol
_atom_site_fract_x
_atom_site_fract_y
_atom_site_fract_z
_atom_type_partial_charge
C0 C 0.31735 0.25109 0.18175 0.0
C1 C 0.34317 0.25602 0.19896 0.0
C2 C 0.29526 0.25034 0.20216 0.0
C3 C 0.29868 0.25397 0.2402 0.0
C4 C 0.34652 0.25972 0.23705 0.0
C5 C 0.3245 0.25829 0.25753 0.0
C6 C 0.27529 0.25361 0.26179 0.0
C7 C 0.27876 0.33432 0.21139 0.0
C8 C 0.25678 0.33981 0.18641 0.0
C9 C 0.27807 0.31277 0.23447 0.0
C10 C 0.25539 0.29594 0.23318 0.0
C11 C 0.23398 0.32329 0.18535 0.0
C12 C 0.23322 0.30179 0.20861 0.0
C13 C 0.25453 0.27269 0.25768 0.0
C14 C 0.18856 0.24556 0.38106 0.0
C15 C 0.16289 0.25096 0.36459 0.0
C16 C 0.21082 0.24593 0.36097 0.0
C17 C 0.20776 0.25052 0.32353 0.0
C18 C 0.15995 0.25688 0.32765 0.0
C19 C 0.18213 0.25654 0.3073 0.0
C20 C 0.23113 0.25005 0.3014 0.0
C21 C 0.22674 0.16837 0.34961 0.0
C22 C 0.2495 0.16098 0.37202 0.0
C23 C 0.22743 0.19055 0.32755 0.0
C24 C 0.25075 0.20639 0.32784 0.0
C25 C 0.27298 0.17632 0.37176 0.0
C26 C 0.27361 0.19865 0.34993 0.0
C27 C 0.25173 0.23048 0.30477 0.0
H28 H 0.3143 0.24806 0.15246 0.0
H29 H 0.2755 0.24684 0.18829 0.0
H30 H 0.36622 0.26357 0.2509 0.0
H31 H 0.32752 0.26116 0.28684 0.0
H32 H 0.29651 0.34681 0.21308 0.0
H33 H 0.29524 0.30949 0.25371 0.0
H34 H 0.21668 0.32711 0.16655 0.0
H35 H 0.21537 0.28947 0.20703 0.0
H36 H 0.19138 0.24129 0.40962 0.0
H37 H 0.23042 0.24253 0.3748 0.0
H38 H 0.14039 0.26143 0.31448 0.0
H39 H 0.1792 0.26067 0.27871 0.0
H40 H 0.2085 0.15671 0.34878 0.0
H41 H 0.20967 0.19523 0.31011 0.0
H42 H 0.29091 0.17095 0.38841 0.0
H43 H 0.292 0.21007 0.35061 0.0
N44 N 0.27312 0.2334 0.28501 0.0
N45 N 0.23326 0.27002 0.2777 0.0
C46 C 0.677 0.27374 0.19902 0.0
C47 C 0.66716 0.2529 0.17469 0.0
C48 C 0.70293 0.27255 0.21644 0.0
C49 C 0.71968 0.25077 0.20921 0.0
C50 C 0.68355 0.23081 0.16819 0.0
C51 C 0.70954 0.22972 0.18538 0.0
C52 C 0.74725 0.24904 0.22756 0.0
C53 C 0.74652 0.32116 0.16076 0.0
C54 C 0.75386 0.34514 0.18027 0.0
C55 C 0.75048 0.29679 0.17716 0.0
C56 C 0.76091 0.29616 0.21371 0.0
C57 C 0.76476 0.34457 0.21652 0.0
C58 C 0.76818 0.32022 0.23318 0.0
C59 C 0.76575 0.27054 0.23132 0.0
C60 C 0.86419 0.22004 0.30901 0.0
C61 C 0.8708 0.24041 0.33572 0.0
C62 C 0.84048 0.22147 0.28598 0.0
C63 C 0.82297 0.24321 0.28954 0.0
C64 C 0.85397 0.26265 0.33822 0.0
C65 C 0.83036 0.26414 0.31514 0.0
C66 C 0.79673 0.24425 0.26743 0.0
C67 C 0.78654 0.17513 0.33927 0.0
C68 C 0.77959 0.15084 0.3204 0.0
C69 C 0.78768 0.19851 0.32041 0.0
C70 C 0.78222 0.19771 0.28243 0.0
C71 C 0.77517 0.14974 0.28241 0.0
C72 C 0.77636 0.17313 0.26352 0.0
C73 C 0.77841 0.22265 0.26309 0.0
H74 H 0.66456 0.29085 0.20457 0.0
H75 H 0.70984 0.28862 0.23564 0.0
H76 H 0.67624 0.21449 0.14963 0.0
H77 H 0.72187 0.21253 0.17974 0.0
H78 H 0.73841 0.32133 0.13257 0.0
H79 H 0.74572 0.27849 0.16108 0.0
H80 H 0.77077 0.36295 0.23174 0.0
H81 H 0.77658 0.32016 0.26125 0.0
H82 H 0.87694 0.20269 0.30682 0.0
H83 H 0.83558 0.20537 0.26587 0.0
H84 H 0.85872 0.27848 0.35881 0.0
H85 H 0.81734 0.2812 0.31825 0.0
H86 H 0.78978 0.17618 0.36868 0.0
H87 H 0.79139 0.21734 0.33569 0.0
H88 H 0.76965 0.13105 0.26766 0.0
H89 H 0.77173 0.17222 0.23427 0.0
N90 N 0.75451 0.22588 0.24333 0.0
N91 N 0.78961 0.26737 0.25135 0.0
C92 C 0.67431 0.76415 0.1663 0.0
C93 C 0.65238 0.75024 0.17737 0.0
C94 C 0.6987 0.76508 0.1879 0.0
C95 C 0.70136 0.75259 0.2212 0.0
C96 C 0.65516 0.7376 0.21068 0.0
C97 C 0.67934 0.73925 0.2328 0.0
C98 C 0.72695 0.75451 0.24418 0.0
C99 C 0.72437 0.66957 0.19291 0.0
C100 C 0.74294 0.66502 0.1671 0.0
C101 C 0.72586 0.69283 0.21593 0.0
C102 C 0.74576 0.71237 0.21352 0.0
C103 C 0.76299 0.68438 0.16482 0.0
C104 C 0.76448 0.70765 0.18788 0.0
C105 C 0.74824 0.73671 0.2391 0.0
C106 C 0.83173 0.77239 0.3605 0.0
C107 C 0.85439 0.76459 0.34305 0.0
C108 C 0.80637 0.77204 0.34138 0.0
C109 C 0.80327 0.76541 0.30385 0.0
C110 C 0.85132 0.75736 0.30579 0.0
C111 C 0.82609 0.75811 0.28632 0.0
C112 C 0.77639 0.76327 0.28318 0.0
C113 C 0.77963 0.84691 0.33863 0.0
C114 C 0.7593 0.8524 0.36169 0.0
C115 C 0.77826 0.82412 0.31465 0.0
C116 C 0.75678 0.80582 0.31356 0.0
C117 C 0.73756 0.83449 0.36005 0.0
C118 C 0.73629 0.81161 0.33629 0.0
C119 C 0.75485 0.78119 0.28831 0.0
H120 H 0.67256 0.77415 0.14082 0.0
H121 H 0.71545 0.77574 0.1788 0.0
H122 H 0.63848 0.7268 0.21973 0.0
H123 H 0.68097 0.72988 0.25874 0.0
H124 H 0.70891 0.65489 0.19561 0.0
H125 H 0.71188 0.69506 0.23638 0.0
H126 H 0.77768 0.68134 0.14537 0.0
H127 H 0.7803 0.72204 0.18563 0.0
H128 H 0.83354 0.77756 0.3894 0.0
H129 H 0.78921 0.77623 0.35634 0.0
H130 H 0.8684 0.7508 0.2919 0.0
H131 H 0.82433 0.7524 0.25758 0.0
H132 H 0.79648 0.86047 0.33893 0.0
H133 H 0.79401 0.82087 0.29685 0.0
H134 H 0.72146 0.83826 0.37714 0.0
H135 H 0.7193 0.79823 0.33594 0.0
N136 N 0.73101 0.7759 0.26836 0.0
N137 N 0.77212 0.74201 0.25871 0.0
C138 C 0.3272 0.72634 0.18906 0.0
C139 C 0.33066 0.74557 0.16341 0.0
C140 C 0.3045 0.72684 0.20843 0.0
C141 C 0.2845 0.74619 0.20191 0.0
C142 C 0.31083 0.76502 0.15699 0.0
C143 C 0.28801 0.76535 0.1761 0.0
C144 C 0.26135 0.74838 0.22428 0.0
C145 C 0.23683 0.67213 0.1581 0.0
C146 C 0.25129 0.65117 0.17447 0.0
C147 C 0.23509 0.69677 0.17679 0.0
C148 C 0.24716 0.70045 0.21235 0.0
C149 C 0.26324 0.65487 0.21024 0.0
C150 C 0.26064 0.67926 0.22941 0.0
C151 C 0.24522 0.72652 0.23145 0.0
C152 C 0.15572 0.77962 0.307 0.0
C153 C 0.15338 0.76181 0.33478 0.0
C154 C 0.17705 0.77737 0.28518 0.0
C155 C 0.19652 0.75737 0.29092 0.0
C156 C 0.17248 0.74155 0.34017 0.0
C157 C 0.19375 0.73923 0.31826 0.0
C158 C 0.21949 0.75488 0.26827 0.0
C159 C 0.23496 0.83337 0.33144 0.0
C160 C 0.23643 0.85548 0.30981 0.0
C161 C 0.23347 0.80762 0.31544 0.0
C162 C 0.2331 0.80381 0.27756 0.0
C163 C 0.23534 0.85186 0.27195 0.0
C164 C 0.23382 0.82609 0.2559 0.0
C165 C 0.23554 0.77683 0.26084 0.0
H166 H 0.3424 0.71134 0.1947 0.0
H167 H 0.3032 0.71271 0.22943 0.0
H168 H 0.31317 0.78012 0.13743 0.0
H169 H 0.27318 0.78078 0.17095 0.0
H170 H 0.2274 0.66955 0.13058 0.0
H171 H 0.22435 0.71296 0.16355 0.0
H172 H 0.27447 0.63887 0.22321 0.0
H173 H 0.26977 0.68188 0.25708 0.0
H174 H 0.14108 0.79528 0.30232 0.0
H175 H 0.17827 0.79121 0.26372 0.0
H176 H 0.17094 0.72758 0.3614 0.0
H177 H 0.20833 0.72352 0.32309 0.0
H178 H 0.23595 0.83604 0.36078 0.0
H179 H 0.23377 0.79072 0.33274 0.0
H180 H 0.23655 0.86888 0.25508 0.0
H181 H 0.23388 0.82346 0.22666 0.0
N182 N 0.25571 0.77274 0.23917 0.0
N183 N 0.22495 0.73047 0.25308 0.0
C184 C 0.17067 0.79486 0.68261 0.0
C185 C 0.16181 0.77258 0.66025 0.0
C186 C 0.19489 0.79387 0.70455 0.0
C187 C 0.21078 0.77074 0.7039 0.0
C188 C 0.17749 0.7494 0.65988 0.0
C189 C 0.20173 0.74846 0.68163 0.0
C190 C 0.23612 0.76892 0.72755 0.0
C191 C 0.2463 0.83483 0.64909 0.0
C192 C 0.25534 0.8598 0.66471 0.0
C193 C 0.24692 0.81186 0.6698 0.0
C194 C 0.25578 0.81322 0.70723 0.0
C195 C 0.26492 0.86109 0.70179 0.0
C196 C 0.26509 0.83819 0.72269 0.0
C197 C 0.25658 0.78881 0.73005 0.0
C198 C 0.34621 0.7332 0.81596 0.0
C199 C 0.35543 0.75351 0.84141 0.0
C200 C 0.32231 0.73642 0.79411 0.0
C201 C 0.30724 0.75994 0.79757 0.0
C202 C 0.34073 0.77723 0.84446 0.0
C203 C 0.31685 0.78051 0.82245 0.0
C204 C 0.28175 0.76318 0.77479 0.0
C205 C 0.26323 0.70185 0.85706 0.0
C206 C 0.26456 0.67542 0.84238 0.0
C207 C 0.26246 0.72386 0.83454 0.0
C208 C 0.26225 0.72011 0.79655 0.0
C209 C 0.26474 0.67177 0.80433 0.0
C210 C 0.26313 0.69376 0.78172 0.0
C211 C 0.26127 0.74364 0.77255 0.0
H212 H 0.15864 0.81281 0.68342 0.0
H213 H 0.20107 0.81105 0.72223 0.0
H214 H 0.17083 0.73199 0.64294 0.0
H215 H 0.2135 0.73032 0.68099 0.0
H216 H 0.23918 0.83299 0.62052 0.0
H217 H 0.24073 0.79296 0.65622 0.0
H218 H 0.27236 0.87987 0.71461 0.0
H219 H 0.27247 0.84007 0.75117 0.0
H220 H 0.35744 0.71485 0.81323 0.0
H221 H 0.31564 0.72058 0.7744 0.0
H222 H 0.3477 0.79309 0.86399 0.0
H223 H 0.30566 0.79887 0.82527 0.0
H224 H 0.26294 0.70548 0.88612 0.0
H225 H 0.26172 0.74389 0.84682 0.0
H226 H 0.26584 0.65178 0.79204 0.0
H227 H 0.2631 0.6902 0.7526 0.0
N228 N 0.23935 0.74723 0.74875 0.0
N229 N 0.27857 0.785 0.75388 0.0
C230 C 0.3465 0.28395 0.8469 0.0
C231 C 0.3533 0.26356 0.87089 0.0
C232 C 0.32214 0.28297 0.82507 0.0
C233 C 0.30394 0.26187 0.82748 0.0
C234 C 0.33552 0.2421 0.87255 0.0
C235 C 0.3111 0.24122 0.85095 0.0
C236 C 0.27779 0.26065 0.80502 0.0
C237 C 0.27563 0.33411 0.87861 0.0
C238 C 0.26703 0.35769 0.86211 0.0
C239 C 0.27315 0.3096 0.85909 0.0
C240 C 0.26373 0.30845 0.82199 0.0
C241 C 0.25674 0.35653 0.82549 0.0
C242 C 0.25546 0.33219 0.80549 0.0
C243 C 0.26013 0.28264 0.8008 0.0
C244 C 0.16432 0.2352 0.70851 0.0
C245 C 0.15995 0.25521 0.68327 0.0
C246 C 0.18751 0.23553 0.73266 0.0
C247 C 0.20694 0.25566 0.73166 0.0
C248 C 0.17913 0.27553 0.68245 0.0
C249 C 0.20239 0.2758 0.70655 0.0
C250 C 0.23143 0.25656 0.7576 0.0
C251 C 0.24802 0.1831 0.68603 0.0
C252 C 0.23802 0.16053 0.70157 0.0
C253 C 0.25085 0.20736 0.706 0.0
C254 C 0.24419 0.20916 0.74192 0.0
C255 C 0.23076 0.16254 0.73734 0.0
C256 C 0.23438 0.18667 0.75771 0.0
C257 C 0.24838 0.23444 0.76318 0.0
H258 H 0.36007 0.30057 0.84508 0.0
H259 H 0.31748 0.29875 0.80644 0.0
H260 H 0.34051 0.22612 0.89077 0.0
H261 H 0.2976 0.22458 0.85298 0.0
H262 H 0.28333 0.33459 0.90701 0.0
H263 H 0.27815 0.29162 0.87336 0.0
H264 H 0.24973 0.37449 0.81241 0.0
H265 H 0.24766 0.3319 0.77715 0.0
H266 H 0.14955 0.21957 0.70986 0.0
H267 H 0.1899 0.22038 0.75264 0.0
H268 H 0.17596 0.29127 0.66337 0.0
H269 H 0.21691 0.29171 0.70551 0.0
H270 H 0.25365 0.18186 0.65842 0.0
H271 H 0.2586 0.22461 0.69366 0.0
H272 H 0.22284 0.14534 0.74958 0.0
H273 H 0.22925 0.18791 0.78555 0.0
N274 N 0.27096 0.23728 0.78629 0.0
N275 N 0.23791 0.27978 0.7768 0.0
C276 C 0.84071 0.22602 0.72702 0.0
C277 C 0.84604 0.24546 0.70239 0.0
C278 C 0.81733 0.22738 0.74492 0.0
C279 C 0.79912 0.24838 0.73875 0.0
C280 C 0.82798 0.26662 0.69663 0.0
C281 C 0.80488 0.26824 0.715 0.0
C282 C 0.77435 0.25013 0.75749 0.0
C283 C 0.76512 0.18119 0.67339 0.0
C284 C 0.75632 0.15647 0.68472 0.0
C285 C 0.76443 0.20461 0.69584 0.0
C286 C 0.75605 0.20404 0.73121 0.0
C287 C 0.74709 0.15591 0.71952 0.0
C288 C 0.74709 0.17926 0.74243 0.0
C289 C 0.7551 0.2291 0.75573 0.0
C290 C 0.66655 0.27812 0.83593 0.0
C291 C 0.6639 0.25966 0.8628 0.0
C292 C 0.68819 0.27646 0.81469 0.0
C293 C 0.70757 0.25642 0.82013 0.0
C294 C 0.683 0.23937 0.86793 0.0
C295 C 0.7046 0.23766 0.84657 0.0
C296 C 0.7308 0.25488 0.79822 0.0
C297 C 0.75805 0.32605 0.88048 0.0
C298 C 0.74551 0.34916 0.86668 0.0
C299 C 0.75898 0.30229 0.85867 0.0
C300 C 0.74779 0.30111 0.82232 0.0
C301 C 0.73409 0.3478 0.83033 0.0
C302 C 0.73556 0.32422 0.80832 0.0
C303 C 0.74949 0.27605 0.79883 0.0
H304 H 0.85449 0.20966 0.73202 0.0
H305 H 0.81347 0.2121 0.76361 0.0
H306 H 0.83177 0.28185 0.67785 0.0
H307 H 0.7912 0.2847 0.71011 0.0
H308 H 0.77194 0.18251 0.64659 0.0
H309 H 0.76997 0.22326 0.68488 0.0
H310 H 0.73981 0.13734 0.72898 0.0
H311 H 0.74001 0.17791 0.76906 0.0
H312 H 0.65186 0.29377 0.83144 0.0
H313 H 0.68965 0.2907 0.79379 0.0
H314 H 0.68116 0.22489 0.88847 0.0
H315 H 0.71922 0.22193 0.85103 0.0
H316 H 0.76713 0.32641 0.90825 0.0
H317 H 0.76868 0.28485 0.87013 0.0
H318 H 0.7243 0.36517 0.81883 0.0
H319 H 0.72694 0.32396 0.78033 0.0
N320 N 0.77063 0.27272 0.77859 0.0
N321 N 0.73427 0.23233 0.77684 0.0
C322 C 0.82319 0.77393 0.67645 0.0
C323 C 0.84894 0.76932 0.69321 0.0
C324 C 0.80098 0.77384 0.69671 0.0
C325 C 0.80421 0.76911 0.73405 0.0
C326 C 0.85223 0.76481 0.73053 0.0
C327 C 0.83 0.76443 0.75069 0.0
C328 C 0.78072 0.76728 0.7554 0.0
C329 C 0.78739 0.85199 0.72472 0.0
C330 C 0.76601 0.85928 0.70007 0.0
C331 C 0.78569 0.82875 0.74387 0.0
C332 C 0.76262 0.81261 0.73837 0.0
C333 C 0.74266 0.84368 0.69544 0.0
C334 C 0.74089 0.82055 0.71471 0.0
C335 C 0.76099 0.7873 0.75681 0.0
C336 C 0.69366 0.74718 0.87148 0.0
C337 C 0.66836 0.75575 0.85715 0.0
C338 C 0.71587 0.74909 0.85147 0.0
C339 C 0.71309 0.75875 0.81613 0.0
C340 C 0.66569 0.76625 0.82241 0.0
C341 C 0.68781 0.7677 0.80211 0.0
C342 C 0.73644 0.76056 0.79416 0.0
C343 C 0.7283 0.67419 0.81754 0.0
C344 C 0.75013 0.66469 0.83965 0.0
C345 C 0.73019 0.69867 0.80134 0.0
C346 C 0.75377 0.71399 0.8077 0.0
C347 C 0.77404 0.6794 0.84474 0.0
C348 C 0.77589 0.70388 0.82869 0.0
C349 C 0.75593 0.74025 0.79187 0.0
H350 H 0.82029 0.77736 0.64764 0.0
H351 H 0.78125 0.77692 0.68305 0.0
H352 H 0.87195 0.76114 0.74385 0.0
H353 H 0.83293 0.76049 0.77935 0.0
H354 H 0.8055 0.86397 0.72853 0.0
H355 H 0.80244 0.82322 0.76263 0.0
H356 H 0.72602 0.84919 0.67646 0.0
H357 H 0.72288 0.80843 0.71035 0.0
H358 H 0.69625 0.73927 0.89836 0.0
H359 H 0.73523 0.7431 0.8638 0.0
H360 H 0.6464 0.77316 0.81094 0.0
H361 H 0.68509 0.7756 0.77524 0.0
H362 H 0.70975 0.66292 0.81345 0.0
H363 H 0.71317 0.70578 0.7843 0.0
H364 H 0.791 0.6722 0.86183 0.0
H365 H 0.79435 0.71526 0.83345 0.0
N366 N 0.77741 0.74455 0.77307 0.0
N367 N 0.73962 0.78321 0.77602 0.0
C368 C 0.04439 0.27518 0.58079 0.0
C369 C 0.05053 0.30067 0.59557 0.0
C370 C 0.02999 0.31694 0.58324 0.0
C371 C 0.01259 0.30055 0.56156 0.0
N372 N 0.02095 0.27503 0.55938 0.0
Co373 Co 1.00231 0.24505 0.5303 0.0
N374 N 0.9796 0.27003 0.50043 0.0
C375 C 0.97567 0.2961 0.50912 0.0
C376 C 0.95803 0.3082 0.48448 0.0
C377 C 0.94999 0.28847 0.4589 0.0
C378 C 0.96326 0.26532 0.46937 0.0
N379 N 0.9837 0.2149 0.50125 0.0
C380 C 0.96777 0.21481 0.46948 0.0
C381 C 0.95944 0.18902 0.45836 0.0
C382 C 0.96981 0.17255 0.48464 0.0
C383 C 0.98407 0.18906 0.51007 0.0
N384 N 0.02485 0.22014 0.56028 0.0
C385 C 0.01999 0.19396 0.56361 0.0
C386 C 0.03901 0.18194 0.5865 0.0
C387 C 0.05691 0.20184 0.59843 0.0
C388 C 0.04775 0.22491 0.582 0.0
N389 N 0.97521 0.24445 0.56535 0.0
C390 C 0.93602 0.24359 0.61455 0.0
C391 C 0.96324 0.2437 0.627 0.0
C392 C 0.98251 0.24447 0.60197 0.0
C393 C 0.92884 0.24401 0.57718 0.0
C394 C 0.94866 0.24427 0.55321 0.0
N395 N 0.02956 0.2458 0.49566 0.0
C396 C 0.06406 0.22357 0.46465 0.0
C397 C 0.0715 0.24777 0.45078 0.0
C398 C 0.05701 0.27081 0.45899 0.0
C399 C 0.03644 0.26948 0.48187 0.0
C400 C 0.04278 0.22294 0.48647 0.0
H401 H 0.02646 0.28777 0.4889 0.0
H402 H 0.03742 0.20399 0.4965 0.0
H403 H 0.00329 0.24513 0.61231 0.0
H404 H 0.94244 0.2446 0.52484 0.0
C405 C 0.991 0.30905 0.53831 0.0
C406 C 0.06021 0.25128 0.58957 0.0
C407 C 0.95721 0.23879 0.45172 0.0
C408 C 1.00046 0.18065 0.54004 0.0
H409 H 0.06794 0.30684 0.6135 0.0
H410 H 0.0285 0.33834 0.58831 0.0
H411 H 0.95194 0.32896 0.48483 0.0
H412 H 0.93541 0.29072 0.43578 0.0
H413 H 0.94648 0.18287 0.43438 0.0
H414 H 0.96756 0.15104 0.48485 0.0
H415 H 0.04034 0.16101 0.59262 0.0
H416 H 0.0746 0.19966 0.61714 0.0
H417 H 0.96952 0.24346 0.65582 0.0
H418 H 0.90797 0.24403 0.56655 0.0
H419 H 0.0747 0.20529 0.45871 0.0
H420 H 0.06209 0.28987 0.4486 0.0
C421 C 0.73179 0.04943 0.56487 0.0
C422 C 0.70653 0.05785 0.57273 0.0
C423 C 0.68851 0.04489 0.54792 0.0
C424 C 0.70359 0.02902 0.52658 0.0
N425 N 0.73007 0.03076 0.53662 0.0
Co426 Co 0.75842 0.00986 0.51325 0.0
N427 N 0.73173 0.98524 0.48508 0.0
C428 C 0.70516 0.98944 0.48029 0.0
C429 C 0.69154 0.96973 0.45909 0.0
C430 C 0.71071 0.95202 0.44946 0.0
C431 C 0.73505 0.96193 0.4654 0.0
N432 N 0.78674 0.9889 0.48988 0.0
C433 C 0.78549 0.96509 0.47022 0.0
C434 C 0.81025 0.95835 0.45877 0.0
C435 C 0.82747 0.97872 0.47108 0.0
C436 C 0.81237 0.9967 0.48942 0.0
N437 N 0.78511 0.03466 0.54114 0.0
C438 C 0.81085 0.03726 0.53426 0.0
C439 C 0.82444 0.05682 0.55573 0.0
C440 C 0.8061 0.06762 0.57727 0.0
C441 C 0.7822 0.05394 0.56785 0.0
N442 N 0.76113 0.98576 0.55328 0.0
C443 C 0.76558 0.94772 0.60599 0.0
C444 C 0.78842 0.96018 0.59583 0.0
C445 C 0.78575 0.97913 0.56931 0.0
C446 C 0.74043 0.95529 0.59055 0.0
C447 C 0.73862 0.97448 0.56431 0.0
N448 N 0.75605 0.03391 0.47299 0.0
C449 C 0.75858 0.04063 0.40945 0.0
C450 C 0.76008 0.06819 0.41673 0.0
C451 C 0.75816 0.07849 0.45205 0.0
C452 C 0.7561 0.06096 0.47977 0.0
C453 C 0.75637 0.02384 0.43805 0.0
H454 H 0.75559 0.06928 0.50681 0.0
H455 H 0.75575 1.00274 0.43207 0.0
H456 H 0.8037 0.98787 0.56118 0.0
H457 H 0.71906 0.97967 0.55237 0.0
C458 C 0.69349 0.0102 0.49972 0.0
C459 C 0.75673 0.06201 0.58214 0.0
C460 C 0.76089 0.94975 0.45845 0.0
C461 C 0.82205 0.01954 0.50961 0.0
H462 H 0.70164 0.07238 0.59363 0.0
H463 H 0.66692 0.0465 0.54608 0.0
H464 H 0.67016 0.96812 0.45208 0.0
H465 H 0.70722 0.93405 0.43223 0.0
H466 H 0.81517 0.94086 0.44244 0.0
H467 H 0.84858 0.98005 0.46752 0.0
H468 H 0.84526 0.06251 0.55582 0.0
H469 H 0.80974 0.0842 0.59693 0.0
H470 H 0.80816 0.95469 0.6075 0.0
H471 H 0.7224 0.94597 0.59811 0.0
H472 H 0.75978 0.03219 0.38215 0.0
H473 H 0.75909 0.09986 0.4583 0.0
C474 C 0.04466 0.7945 0.56477 0.0
C475 C 0.05168 0.81957 0.58036 0.0
C476 C 0.03157 0.83661 0.56895 0.0
C477 C 0.01355 0.82103 0.54707 0.0
N478 N 0.02106 0.79529 0.5439 0.0
Co479 Co 1.00119 0.76614 0.51456 0.0
N480 N 0.97866 0.79219 0.48616 0.0
C481 C 0.97579 0.81828 0.49577 0.0
C482 C 0.95728 0.83109 0.4732 0.0
C483 C 0.94741 0.81183 0.44808 0.0
C484 C 0.96066 0.7882 0.45657 0.0
N485 N 0.98146 0.7368 0.48517 0.0
C486 C 0.96536 0.73758 0.45366 0.0
C487 C 0.95778 0.71197 0.44055 0.0
C488 C 0.96834 0.69471 0.46566 0.0
C489 C 0.98217 0.7106 0.49225 0.0
N490 N 0.02348 0.74019 0.54317 0.0
C491 C 0.01828 0.71397 0.54554 0.0
C492 C 0.03732 0.70119 0.5675 0.0
C493 C 0.05563 0.72059 0.57983 0.0
C494 C 0.04665 0.74415 0.56457 0.0
N495 N 0.97468 0.76585 0.55058 0.0
C496 C 0.93651 0.76676 0.60131 0.0
C497 C 0.96385 0.76602 0.61286 0.0
C498 C 0.98262 0.76576 0.58705 0.0
C499 C 0.92864 0.76702 0.56416 0.0
C500 C 0.94796 0.76652 0.53942 0.0
N501 N 0.02783 0.76661 0.47889 0.0
C502 C 0.05937 0.74333 0.44356 0.0
C503 C 0.06763 0.76746 0.43042 0.0
C504 C 0.05529 0.79115 0.44153 0.0
C505 C 0.0356 0.79031 0.46594 0.0
C506 C 0.03939 0.74332 0.46752 0.0
H507 H 0.02688 0.80891 0.47461 0.0
H508 H 0.03355 0.72441 0.47711 0.0
H509 H 0.00354 0.7657 0.59665 0.0
H510 H 0.94118 0.76714 0.51128 0.0
C511 C 0.99195 0.83043 0.52474 0.0
C512 C 0.05981 0.77011 0.57246 0.0
C513 C 0.95291 0.76191 0.43911 0.0
C514 C 0.99863 0.70132 0.52154 0.0
H515 H 0.06935 0.8249 0.59829 0.0
H516 H 0.03071 0.85796 0.57483 0.0
H517 H 0.95146 0.8519 0.47495 0.0
H518 H 0.93148 0.8148 0.4269 0.0
H519 H 0.94485 0.70645 0.41628 0.0
H520 H 0.96648 0.67313 0.46438 0.0
H521 H 0.03846 0.68007 0.57257 0.0
H522 H 0.07357 0.71772 0.59785 0.0
H523 H 0.9706 0.76588 0.64154 0.0
H524 H 0.90763 0.76766 0.55433 0.0
H525 H 0.06839 0.72461 0.4354 0.0
H526 H 0.06112 0.81018 0.4318 0.0
C527 C 0.27988 0.96677 0.56412 0.0
C528 C 0.30502 0.95936 0.57914 0.0
C529 C 0.32331 0.97308 0.56189 0.0
C530 C 0.30846 0.98835 0.53764 0.0
N531 N 0.28186 0.98551 0.53875 0.0
Co532 Co 0.25367 0.00526 0.50869 0.0
N533 N 0.28022 0.0308 0.4919 0.0
C534 C 0.30699 0.02769 0.49545 0.0
C535 C 0.32055 0.04812 0.48165 0.0
C536 C 0.30118 0.06515 0.46808 0.0
C537 C 0.27676 0.05407 0.47423 0.0
N538 N 0.22548 0.02529 0.47905 0.0
C539 C 0.22659 0.04894 0.46215 0.0
C540 C 0.20214 0.05464 0.44347 0.0
C541 C 0.18529 0.03384 0.44834 0.0
C542 C 0.20028 0.01661 0.46968 0.0
N543 N 0.22722 0.97932 0.52484 0.0
C544 C 0.20199 0.97575 0.50941 0.0
C545 C 0.18855 0.95557 0.52393 0.0
C546 C 0.20647 0.94541 0.5499 0.0
C547 C 0.22996 0.96006 0.54993 0.0
N548 N 0.24861 0.02918 0.55044 0.0
C549 C 0.24057 0.0675 0.60521 0.0
C550 C 0.21902 0.05257 0.58831 0.0
C551 C 0.22342 0.03379 0.56053 0.0
C552 C 0.26635 0.06196 0.5957 0.0
C553 C 0.26998 0.04241 0.56862 0.0
N554 N 0.25831 0.98134 0.46662 0.0
C555 C 0.25524 0.97384 0.40169 0.0
C556 C 0.2558 0.94632 0.40598 0.0
C557 C 0.25928 0.93656 0.44078 0.0
C558 C 0.26047 0.95446 0.47073 0.0
C559 C 0.25677 0.99103 0.43254 0.0
H560 H 0.26168 0.94647 0.49708 0.0
H561 H 0.25531 0.01202 0.42877 0.0
H562 H 0.20631 0.0236 0.54663 0.0
H563 H 0.29002 0.0386 0.56181 0.0
C564 C 0.31869 0.0075 0.51633 0.0
C565 C 0.25501 0.95314 0.57166 0.0
C566 C 0.25091 0.06508 0.45975 0.0
C567 C 0.19094 0.99328 0.48375 0.0
H568 H 0.30969 0.94496 0.59972 0.0
H569 H 0.34489 0.97233 0.56687 0.0
H570 H 0.34199 0.05072 0.48225 0.0
H571 H 0.30461 0.08342 0.45462 0.0
H572 H 0.19723 0.07172 0.42724 0.0
H573 H 0.16453 0.03164 0.43774 0.0
H574 H 0.16808 0.94912 0.5167 0.0
H575 H 0.20283 0.92867 0.56632 0.0
H576 H 0.19885 0.05626 0.59542 0.0
H577 H 0.2835 0.07299 0.60869 0.0
H578 H 0.25258 0.98187 0.37489 0.0
H579 H 0.25974 0.91524 0.44476 0.0
C580 C 0.54086 0.7739 0.07226 0.0
C581 C 0.55052 0.79874 0.0858 0.0
C582 C 0.53579 0.81743 0.06721 0.0
C583 C 0.51821 0.80302 0.04328 0.0
N584 N 0.52042 0.77621 0.04588 0.0
Co585 Co 0.50116 0.74788 0.01319 0.0
N586 N 0.48113 0.77542 0.98376 0.0
C587 C 0.48233 0.80229 0.98977 0.0
C588 C 0.46493 0.81601 0.96671 0.0
C589 C 0.45145 0.79676 0.94497 0.0
C590 C 0.46161 0.77231 0.95597 0.0
N591 N 0.48288 0.71955 0.97956 0.0
C592 C 0.46429 0.72183 0.95085 0.0
C593 C 0.45717 0.69709 0.93427 0.0
C594 C 0.47149 0.67844 0.95357 0.0
C595 C 0.48655 0.69281 0.98059 0.0
N596 N 0.5203 0.72035 0.04353 0.0
C597 C 0.51719 0.69349 0.03967 0.0
C598 C 0.53295 0.67977 0.06477 0.0
C599 C 0.54723 0.69901 0.08563 0.0
C600 C 0.53942 0.7234 0.0718 0.0
N601 N 0.47112 0.74735 0.04492 0.0
C602 C 0.42641 0.74696 0.08592 0.0
C603 C 0.43597 0.72329 0.07058 0.0
C604 C 0.4582 0.72391 0.05043 0.0
C605 C 0.43983 0.77077 0.08114 0.0
C606 C 0.46202 0.77051 0.0608 0.0
N607 N 0.53113 0.74842 0.98147 0.0
C608 C 0.56734 0.72591 0.95362 0.0
C609 C 0.57545 0.74981 0.93989 0.0
C610 C 0.5608 0.77289 0.94671 0.0
C611 C 0.53897 0.7718 0.96753 0.0
C612 C 0.54515 0.72561 0.97388 0.0
H613 H 0.52895 0.79021 0.97228 0.0
H614 H 0.53991 0.70673 0.98347 0.0
H615 H 0.46433 0.70518 0.03921 0.0
H616 H 0.47126 0.78936 0.05795 0.0
C617 C 0.50007 0.81402 0.01724 0.0
C618 C 0.55229 0.74868 0.08446 0.0
C619 C 0.45151 0.7467 0.93987 0.0
C620 C 0.50202 0.68174 0.00949 0.0
H621 H 0.56686 0.80297 0.10647 0.0
H622 H 0.5381 0.83895 0.0701 0.0
H623 H 0.46212 0.83744 0.9661 0.0
H624 H 0.43569 0.80032 0.92375 0.0
H625 H 0.44254 0.69296 0.91128 0.0
H626 H 0.47031 0.65691 0.94924 0.0
H627 H 0.53476 0.65831 0.06662 0.0
H628 H 0.56241 0.69547 0.10764 0.0
H629 H 0.42609 0.7044 0.07378 0.0
H630 H 0.43301 0.78955 0.09271 0.0
H631 H 0.57818 0.70756 0.94881 0.0
H632 H 0.56643 0.7918 0.93641 0.0
C633 C 0.235 0.54107 0.06948 0.0
C634 C 0.20949 0.54807 0.07805 0.0
C635 C 0.19193 0.53466 0.05326 0.0
C636 C 0.20763 0.52035 0.03105 0.0
N637 N 0.23419 0.52366 0.04031 0.0
Co638 Co 0.26414 0.50704 0.01499 0.0
N639 N 0.23835 0.48925 0.97694 0.0
C640 C 0.21158 0.49267 0.97237 0.0
C641 C 0.19933 0.47822 0.94303 0.0
C642 C 0.21951 0.46452 0.92825 0.0
C643 C 0.24289 0.47137 0.94971 0.0
N644 N 0.29401 0.48919 0.99077 0.0
C645 C 0.29299 0.46961 0.96419 0.0
C646 C 0.31836 0.46064 0.95766 0.0
C647 C 0.33608 0.47512 0.98098 0.0
C648 C 0.32056 0.49177 1.00056 0.0
N649 N 0.29005 0.52566 0.05223 0.0
C650 C 0.31705 0.52508 0.05385 0.0
C651 C 0.32948 0.54045 0.08213 0.0
C652 C 0.30917 0.55195 0.09924 0.0
C653 C 0.28549 0.54289 0.08022 0.0
N654 N 0.26269 0.47539 0.04639 0.0
C655 C 0.26056 0.43075 0.09122 0.0
C656 C 0.28468 0.44403 0.08784 0.0
C657 C 0.28531 0.46607 0.06555 0.0
C658 C 0.23754 0.44016 0.07155 0.0
C659 C 0.23902 0.46223 0.04948 0.0
N660 N 0.26544 0.53891 0.98339 0.0
C661 C 0.28938 0.56803 0.94608 0.0
C662 C 0.26658 0.5836 0.93789 0.0
C663 C 0.24334 0.57644 0.95329 0.0
C664 C 0.24308 0.5542 0.97518 0.0
C665 C 0.2885 0.5463 0.96899 0.0
H666 H 0.22434 0.54984 0.98496 0.0
H667 H 0.30682 0.5358 0.97453 0.0
H668 H 0.30435 0.47532 0.06422 0.0
H669 H 0.22078 0.46827 0.03493 0.0
C670 C 0.19826 0.50665 0.99865 0.0
C671 C 0.25934 0.55292 0.088 0.0
C672 C 0.26845 0.45849 0.94531 0.0
C673 C 0.33016 0.50911 0.02936 0.0
H674 H 0.20406 0.5621 0.09922 0.0
H675 H 0.17032 0.53617 0.05069 0.0
H676 H 0.17814 0.47683 0.93444 0.0
H677 H 0.21719 0.4503 0.90521 0.0
H678 H 0.32357 0.44496 0.93851 0.0
H679 H 0.35764 0.47317 0.98405 0.0
H680 H 0.35075 0.54307 0.08933 0.0
H681 H 0.31146 0.5659 0.12259 0.0
H682 H 0.30302 0.43747 0.10252 0.0
H683 H 0.21842 0.43047 0.07319 0.0
H684 H 0.30795 0.57269 0.93494 0.0
H685 H 0.22513 0.58781 0.94795 0.0
C686 C 0.46463 0.28847 0.98149 0.0
C687 C 0.45498 0.3136 0.97286 0.0
C688 C 0.46963 0.33168 0.99525 0.0
C689 C 0.4873 0.31661 0.01618 0.0
N690 N 0.48516 0.29002 0.0081 0.0
Co691 Co 0.50558 0.26085 0.03372 0.0
N692 N 0.52718 0.28744 0.06665 0.0
C693 C 0.52546 0.3144 0.06658 0.0
C694 C 0.54427 0.32742 0.09035 0.0
C695 C 0.55934 0.30758 0.10597 0.0
C696 C 0.54872 0.28357 0.09081 0.0
N697 N 0.52517 0.2317 0.06042 0.0
C698 C 0.54614 0.23318 0.08637 0.0
C699 C 0.55401 0.20806 0.0975 0.0
C700 C 0.53769 0.19 0.07739 0.0
C701 C 0.52083 0.20508 0.05528 0.0
N702 N 0.48505 0.23425 0.99959 0.0
C703 C 0.4878 0.20734 0.99866 0.0
C704 C 0.47088 0.19429 0.97239 0.0
C705 C 0.4563 0.21401 0.9557 0.0
C706 C 0.46519 0.23805 0.97289 0.0
N707 N 0.53374 0.26185 0.99937 0.0
C708 C 0.57546 0.26336 0.95352 0.0
C709 C 0.56696 0.23916 0.96588 0.0
C710 C 0.54611 0.23882 0.9884 0.0
C711 C 0.56248 0.28677 0.96382 0.0
C712 C 0.5419 0.2856 0.98678 0.0
N713 N 0.47719 0.25986 0.06808 0.0
C714 C 0.44091 0.23647 0.09219 0.0
C715 C 0.43431 0.25932 0.11241 0.0
C716 C 0.44985 0.2823 0.11082 0.0
C717 C 0.47089 0.28221 0.08845 0.0
C718 C 0.46245 0.23705 0.07084 0.0
H719 H 0.48152 0.30057 0.08788 0.0
H720 H 0.46654 0.21878 0.05659 0.0
H721 H 0.54053 0.21972 0.99694 0.0
H722 H 0.53303 0.30417 0.99422 0.0
C723 C 0.50639 0.32683 0.04314 0.0
C724 C 0.45297 0.26375 0.96451 0.0
C725 C 0.56043 0.25767 0.09915 0.0
C726 C 0.50392 0.19486 0.02574 0.0
H727 H 0.43877 0.31831 0.95279 0.0
H728 H 0.46751 0.35322 0.99636 0.0
H729 H 0.5471 0.34878 0.09508 0.0
H730 H 0.57653 0.31042 0.12575 0.0
H731 H 0.5705 0.20327 0.1171 0.0
H732 H 0.53898 0.1684 0.07743 0.0
H733 H 0.4686 0.17292 0.96708 0.0
H734 H 0.44034 0.21097 0.93412 0.0
H735 H 0.57645 0.22057 0.95822 0.0
H736 H 0.56843 0.30591 0.95452 0.0
H737 H 0.42949 0.21816 0.09294 0.0
H738 H 0.44548 0.3004 0.12635 0.0
C739 C 0.71535 0.55286 0.05922 0.0
C740 C 0.69041 0.56171 0.06772 0.0
C741 C 0.67194 0.54495 0.04905 0.0
C742 C 0.68655 0.52674 0.03041 0.0
N743 N 0.71327 0.53085 0.03597 0.0
Co744 Co 0.74156 0.50808 0.01492 0.0
N745 N 0.71431 0.48465 0.98518 0.0
C746 C 0.68748 0.48807 0.98256 0.0
C747 C 0.67372 0.46955 0.9595 0.0
C748 C 0.69287 0.45326 0.94663 0.0
C749 C 0.71734 0.46263 0.96288 0.0
N750 N 0.76986 0.4844 0.99551 0.0
C751 C 0.76774 0.4613 0.97436 0.0
C752 C 0.79265 0.45008 0.97045 0.0
C753 C 0.81111 0.46657 0.98954 0.0
C754 C 0.79655 0.48677 0.00429 0.0
N755 N 0.76886 0.53241 0.04301 0.0
C756 C 0.79573 0.53055 0.04284 0.0
C757 C 0.80954 0.55075 0.0627 0.0
C758 C 0.79037 0.56668 0.07617 0.0
C759 C 0.76584 0.55515 0.06392 0.0
N760 N 0.74112 0.48452 0.05631 0.0
C761 C 0.74334 0.44349 0.10513 0.0
C762 C 0.7655 0.45987 0.10307 0.0
C763 C 0.76398 0.4802 0.07853 0.0
C764 C 0.71935 0.44939 0.08517 0.0
C765 C 0.71857 0.47027 0.0615 0.0
N766 N 0.74208 0.53155 0.97349 0.0
C767 C 0.76702 0.55697 0.93406 0.0
C768 C 0.7439 0.57054 0.92211 0.0
C769 C 0.71961 0.56325 0.93412 0.0
C770 C 0.71912 0.54362 0.95951 0.0
C771 C 0.76564 0.53746 0.95954 0.0
H772 H 0.70008 0.53922 0.96826 0.0
H773 H 0.784 0.5281 0.96838 0.0
H774 H 0.78188 0.49135 0.07705 0.0
H775 H 0.69976 0.47378 0.04671 0.0
C776 C 0.6758 0.5072 0.00487 0.0
C777 C 0.74032 0.56653 0.07326 0.0
C778 C 0.74274 0.44922 0.95726 0.0
C779 C 0.80734 0.50871 0.02544 0.0
H780 H 0.68602 0.5788 0.08515 0.0
H781 H 0.65038 0.5463 0.04842 0.0
H782 H 0.65226 0.46766 0.95354 0.0
H783 H 0.6892 0.43605 0.92802 0.0
H784 H 0.79704 0.43182 0.95537 0.0
H785 H 0.83262 0.46411 0.99237 0.0
H786 H 0.83102 0.55346 0.06712 0.0
H787 H 0.79404 0.58471 0.09322 0.0
H788 H 0.78432 0.45599 0.11878 0.0
H789 H 0.70164 0.43728 0.08677 0.0
H790 H 0.78617 0.56219 0.92494 0.0
H791 H 0.7013 0.57341 0.92504 0.0
C792 C 0.118 0.23194 0.37651 0.0
C793 C 0.13914 0.25056 0.38616 0.0
C794 C 0.11726 0.26538 0.4402 0.0
C795 C 0.09468 0.24904 0.42823 0.0
N796 N 0.07128 0.22141 0.38015 0.0
N797 N 0.1556 0.28933 0.42281 0.0
C798 C 0.09438 0.23365 0.39494 0.0
C799 C 0.13782 0.26856 0.41676 0.0
N800 N 0.12083 0.21191 0.35079 0.0
N801 N 0.11972 0.27704 0.4745 0.0
H802 H 0.17043 0.29291 0.40565 0.0
H803 H 0.15385 0.30455 0.44264 0.0
H804 H 0.10554 0.27472 0.49299 0.0
H805 H 0.13709 0.28677 0.48583 0.0
H806 H 0.10712 0.19626 0.34541 0.0
H807 H 0.13813 0.20936 0.33747 0.0
H808 H 0.06932 0.21215 0.35422 0.0
H809 H 0.05331 0.22292 0.39213 0.0
C810 C 0.7477 0.12139 0.34815 0.0
C811 C 0.77435 0.12718 0.34102 0.0
C812 C 0.79158 0.09253 0.38128 0.0
C813 C 0.76489 0.08649 0.38793 0.0
N814 N 0.71742 0.09067 0.3727 0.0
N815 N 0.82103 0.11555 0.3444 0.0
C816 C 0.74287 0.09947 0.36964 0.0
C817 C 0.79613 0.11181 0.35556 0.0
N818 N 0.7272 0.13761 0.3358 0.0
N819 N 0.81251 0.08057 0.4006 0.0
H820 H 0.82497 0.12977 0.3258 0.0
H821 H 0.83728 0.10324 0.35119 0.0
H822 H 0.80995 0.06572 0.41888 0.0
H823 H 0.83239 0.08639 0.40023 0.0
H824 H 0.70789 0.13637 0.34372 0.0
H825 H 0.72979 0.15365 0.31942 0.0
H826 H 0.70064 0.09746 0.35713 0.0
H827 H 0.71325 0.07484 0.38873 0.0
C828 C 0.90368 0.77619 0.35722 0.0
C829 C 0.88069 0.76166 0.36485 0.0
C830 C 0.90463 0.74706 0.42103 0.0
C831 C 0.92841 0.75986 0.41223 0.0
N832 N 0.95199 0.78045 0.3668 0.0
N833 N 0.86301 0.72591 0.39728 0.0
C834 C 0.92841 0.77228 0.37846 0.0
C835 C 0.88235 0.74477 0.39463 0.0
N836 N 0.90171 0.79477 0.33119 0.0
N837 N 0.90258 0.7379 0.45486 0.0
H838 H 0.84693 0.72273 0.37753 0.0
H839 H 0.86467 0.71144 0.41676 0.0
H840 H 0.91813 0.73854 0.47539 0.0
H841 H 0.88452 0.73148 0.46339 0.0
H842 H 0.91729 0.80774 0.32716 0.0
H843 H 0.88378 0.79902 0.31601 0.0
H844 H 0.9534 0.78749 0.34096 0.0
H845 H 0.97043 0.77777 0.38169 0.0
C846 C 0.26739 0.89203 0.33562 0.0
C847 C 0.24084 0.88227 0.32754 0.0
C848 C 0.22352 0.91813 0.36556 0.0
C849 C 0.25016 0.92732 0.37464 0.0
N850 N 0.29641 0.92789 0.36254 0.0
N851 N 0.19331 0.88877 0.32698 0.0
C852 C 0.27178 0.91591 0.35753 0.0
C853 C 0.21874 0.89635 0.33988 0.0
N854 N 0.28841 0.87769 0.32395 0.0
N855 N 0.20306 0.92947 0.38279 0.0
H856 H 0.18933 0.87268 0.30829 0.0
H857 H 0.1763 0.89959 0.33232 0.0
H858 H 0.20567 0.94624 0.40063 0.0
H859 H 0.18375 0.92163 0.38086 0.0
H860 H 0.30836 0.88197 0.33249 0.0
H861 H 0.28593 0.86044 0.30703 0.0
H862 H 0.31251 0.92205 0.34826 0.0
H863 H 0.30015 0.94527 0.37894 0.0
C864 C 0.11158 0.77099 0.65497 0.0
C865 C 0.13564 0.77306 0.63794 0.0
C866 C 0.11008 0.77144 0.57802 0.0
C867 C 0.086 0.77165 0.59518 0.0
N868 N 0.06327 0.77508 0.64985 0.0
N869 N 0.15793 0.77969 0.58404 0.0
C870 C 0.08659 0.77254 0.63367 0.0
C871 C 0.13494 0.77454 0.59963 0.0
N872 N 0.11262 0.76636 0.69124 0.0
N873 N 0.10922 0.76748 0.54112 0.0
H874 H 0.1765 0.78215 0.59905 0.0
H875 H 0.15829 0.78379 0.55673 0.0
H876 H 0.09133 0.76564 0.52438 0.0
H877 H 0.12616 0.76389 0.52743 0.0
H878 H 0.09591 0.76161 0.7044 0.0
H879 H 0.13053 0.76506 0.70781 0.0
H880 H 0.06256 0.77898 0.67764 0.0
H881 H 0.0445 0.77528 0.6352 0.0
C882 C 0.25127 0.11259 0.69005 0.0
C883 C 0.23532 0.13493 0.67984 0.0
C884 C 0.2217 0.11267 0.6209 0.0
C885 C 0.23636 0.08969 0.63193 0.0
N886 N 0.25864 0.0651 0.68049 0.0
N887 N 0.19939 0.15293 0.6404 0.0
C888 C 0.249 0.08876 0.66775 0.0
C889 C 0.21849 0.13383 0.64684 0.0
N890 N 0.26975 0.11453 0.71966 0.0
N891 N 0.21228 0.11516 0.58531 0.0
H892 H 0.19618 0.16847 0.65929 0.0
H893 H 0.18501 0.15171 0.61814 0.0
H894 H 0.215 0.10066 0.56489 0.0
H895 H 0.20401 0.1328 0.57545 0.0
H896 H 0.28377 0.09967 0.72582 0.0
H897 H 0.27282 0.13189 0.7362 0.0
H898 H 0.26588 0.06286 0.70751 0.0
H899 H 0.25682 0.04713 0.66495 0.0
C900 C 0.87324 0.22248 0.65612 0.0
C901 C 0.87042 0.24374 0.68225 0.0
C902 C 0.91082 0.26518 0.6642 0.0
C903 C 0.91473 0.24293 0.64006 0.0
N904 N 0.90329 0.19751 0.61979 0.0
N905 N 0.89 0.28191 0.71722 0.0
C906 C 0.89705 0.22064 0.63817 0.0
C907 C 0.89032 0.26405 0.68818 0.0
N908 N 0.85269 0.20477 0.64705 0.0
N909 N 0.92573 0.28794 0.66307 0.0
H910 H 0.87558 0.2814 0.73574 0.0
H911 H 0.90547 0.29547 0.72495 0.0
H912 H 0.94062 0.28986 0.64549 0.0
H913 H 0.9217 0.30574 0.67723 0.0
H914 H 0.8526 0.19066 0.62542 0.0
H915 H 0.83461 0.20572 0.65881 0.0
H916 H 0.89248 0.17979 0.62046 0.0
H917 H 0.92084 0.19526 0.60691 0.0
C918 C 0.75968 0.90809 0.68996 0.0
C919 C 0.76837 0.88261 0.67757 0.0
C920 C 0.7758 0.8999 0.61855 0.0
C921 C 0.76798 0.92565 0.63132 0.0
N922 N 0.75732 0.95576 0.68058 0.0
N923 N 0.78937 0.85491 0.63338 0.0
C924 C 0.76136 0.93021 0.66752 0.0
C925 C 0.77796 0.87874 0.64287 0.0
N926 N 0.74917 0.91093 0.72272 0.0
N927 N 0.78002 0.89541 0.58277 0.0
H928 H 0.79071 0.83868 0.65018 0.0
H929 H 0.79942 0.85184 0.61018 0.0
H930 H 0.77914 0.91048 0.56418 0.0
H931 H 0.78252 0.87646 0.57077 0.0
H932 H 0.73962 0.92817 0.73148 0.0
H933 H 0.74853 0.89534 0.74041 0.0
H934 H 0.75506 0.96078 0.70774 0.0
H935 H 0.75837 0.97239 0.66475 0.0
C936 C 0.88473 0.79288 0.66323 0.0
C937 C 0.87244 0.76858 0.67138 0.0
C938 C 0.90306 0.74295 0.635 0.0
C939 C 0.9158 0.76719 0.62764 0.0
N940 N 0.92162 0.81479 0.63806 0.0
N941 N 0.87145 0.72035 0.6692 0.0
C942 C 0.90748 0.79205 0.64284 0.0
C943 C 0.88215 0.74355 0.65855 0.0
N944 N 0.87417 0.81676 0.6743 0.0
N945 N 0.91052 0.71944 0.61851 0.0
H946 H 0.85524 0.71993 0.68486 0.0
H947 H 0.8795 0.70149 0.66445 0.0
H948 H 0.92659 0.71802 0.60258 0.0
H949 H 0.90006 0.70151 0.6189 0.0
H950 H 0.87999 0.83524 0.66583 0.0
H951 H 0.85832 0.81815 0.69062 0.0
H952 H 0.91855 0.83314 0.65139 0.0
H953 H 0.93787 0.81503 0.62245 0.0
C954 C 0.24028 0.90726 0.64924 0.0
C955 C 0.25582 0.88417 0.64177 0.0
C956 C 0.26893 0.90509 0.58687 0.0
C957 C 0.25574 0.92932 0.5963 0.0
N958 N 0.23264 0.95465 0.64061 0.0
N959 N 0.29014 0.86439 0.60785 0.0
C960 C 0.24257 0.93072 0.6288 0.0
C961 C 0.27161 0.88406 0.61181 0.0
N962 N 0.22237 0.90647 0.67482 0.0
N963 N 0.27826 0.90158 0.5535 0.0
H964 H 0.2934 0.84912 0.626 0.0
H965 H 0.30419 0.86483 0.58886 0.0
H966 H 0.27693 0.91621 0.53443 0.0
H967 H 0.28516 0.88328 0.54358 0.0
H968 H 0.20849 0.92153 0.67884 0.0
H969 H 0.21965 0.88964 0.68969 0.0
H970 H 0.22533 0.95771 0.66591 0.0
H971 H 0.23389 0.97211 0.62647 0.0
C972 C 0.11039 0.26267 0.67332 0.0
C973 C 0.13466 0.25538 0.65875 0.0
C974 C 0.11055 0.24875 0.59803 0.0
C975 C 0.08603 0.25359 0.61335 0.0
N976 N 0.06198 0.26038 0.66655 0.0
N977 N 0.15774 0.23798 0.60846 0.0
C978 C 0.08576 0.25923 0.6513 0.0
C979 C 0.13475 0.24755 0.62135 0.0
N980 N 0.11093 0.2736 0.70796 0.0
N981 N 0.11068 0.24562 0.56113 0.0
H982 H 0.17582 0.23689 0.62471 0.0
H983 H 0.15851 0.22923 0.5825 0.0
H984 H 0.09325 0.24581 0.54339 0.0
H985 H 0.12809 0.24483 0.54788 0.0
H986 H 0.09423 0.282 0.71872 0.0
H987 H 0.12858 0.27651 0.72495 0.0
H988 H 0.06063 0.26135 0.6945 0.0
H989 H 0.04348 0.25812 0.65139 0.0
C990 C 0.77049 0.10835 0.66884 0.0
C991 C 0.75565 0.13169 0.65933 0.0
C992 C 0.74364 0.11053 0.59837 0.0
C993 C 0.75593 0.08607 0.60908 0.0
N994 N 0.77691 0.06062 0.65757 0.0
N995 N 0.72233 0.15151 0.6176 0.0
C996 C 0.76806 0.08469 0.64531 0.0
C997 C 0.74057 0.13173 0.62481 0.0
N998 N 0.78796 0.10907 0.6995 0.0
N999 N 0.73556 0.11407 0.56265 0.0
H1000 H 0.71857 0.16677 0.6366 0.0
H1001 H 0.70887 0.15107 0.59435 0.0
H1002 H 0.73738 0.09936 0.5423 0.0
H1003 H 0.72932 0.13247 0.55286 0.0
H1004 H 0.80133 0.09369 0.70587 0.0
H1005 H 0.79097 0.12608 0.71676 0.0
H1006 H 0.78341 0.05773 0.68469 0.0
H1007 H 0.77548 0.043 0.64128 0.0
C1008 C 0.88892 0.22657 0.39727 0.0
C1009 C 0.89374 0.23733 0.36373 0.0
C1010 C 0.94117 0.2439 0.38556 0.0
C1011 C 0.9356 0.23628 0.42062 0.0
N1012 N 0.9032 0.22295 0.46095 0.0
N1013 N 0.92362 0.25796 0.32593 0.0
C1014 C 0.90924 0.22815 0.42672 0.0
C1015 C 0.91971 0.24635 0.35776 0.0
N1016 N 0.86497 0.21435 0.4008 0.0
N1017 N 0.96708 0.2484 0.37882 0.0
H1018 H 0.90852 0.25931 0.3047 0.0
H1019 H 0.94124 0.2677 0.32135 0.0
H1020 H 0.98316 0.24686 0.39863 0.0
H1021 H 0.97291 0.25151 0.35306 0.0
H1022 H 0.86137 0.20327 0.42301 0.0
H1023 H 0.84931 0.21323 0.38013 0.0
H1024 H 0.88373 0.22085 0.46798 0.0
H1025 H 0.91748 0.22221 0.48303 0.0
C1026 C 0.76366 0.87538 0.42513 0.0
C1027 C 0.76029 0.87731 0.38666 0.0
C1028 C 0.76103 0.92656 0.39526 0.0
C1029 C 0.76162 0.92463 0.43363 0.0
N1030 N 0.75984 0.89689 0.48479 0.0
N1031 N 0.75065 0.905 0.33546 0.0
C1032 C 0.76186 0.8989 0.44843 0.0
C1033 C 0.75764 0.90301 0.37186 0.0
N1034 N 0.76954 0.85116 0.43947 0.0
N1035 N 0.76429 0.95089 0.381 0.0
H1036 H 0.74758 0.88838 0.31748 0.0
H1037 H 0.74541 0.92297 0.32361 0.0
H1038 H 0.76689 0.96848 0.397 0.0
H1039 H 0.76704 0.95331 0.35378 0.0
H1040 H 0.77499 0.84877 0.46699 0.0
H1041 H 0.7713 0.83367 0.42341 0.0
H1042 H 0.75694 0.87884 0.49682 0.0
H1043 H 0.75901 0.9136 0.50258 0.0
C1044 C 0.10568 0.75279 0.34695 0.0
C1045 C 0.131 0.76446 0.35855 0.0
C1046 C 0.11496 0.77822 0.41735 0.0
C1047 C 0.08918 0.76771 0.40509 0.0
N1048 N 0.05848 0.7499 0.35586 0.0
N1049 N 0.15864 0.79225 0.40188 0.0
C1050 C 0.08412 0.75638 0.36916 0.0
C1051 C 0.13529 0.77838 0.39292 0.0
N1052 N 0.10246 0.73764 0.31512 0.0
N1053 N 0.12034 0.78712 0.45278 0.0
H1054 H 0.17415 0.79243 0.38497 0.0
H1055 H 0.16187 0.80527 0.42465 0.0
H1056 H 0.1059 0.788 0.47127 0.0
H1057 H 0.13948 0.79189 0.46464 0.0
H1058 H 0.08552 0.72603 0.30714 0.0
H1059 H 0.11758 0.73506 0.29776 0.0
H1060 H 0.05298 0.74417 0.32877 0.0
H1061 H 0.04216 0.75256 0.37116 0.0
C1062 C 0.24407 0.1387 0.43167 0.0
C1063 C 0.24918 0.13643 0.39442 0.0
C1064 C 0.25645 0.08789 0.40009 0.0
C1065 C 0.25001 0.0898 0.43689 0.0
N1066 N 0.23481 0.11655 0.48658 0.0
N1067 N 0.25651 0.10836 0.3417 0.0
C1068 C 0.24296 0.11513 0.45229 0.0
C1069 C 0.25425 0.11084 0.37828 0.0
N1070 N 0.24078 0.16355 0.44753 0.0
N1071 N 0.26557 0.06424 0.38613 0.0
H1072 H 0.25626 0.12468 0.32512 0.0
H1073 H 0.2567 0.09007 0.32715 0.0
H1074 H 0.26689 0.04691 0.40053 0.0
H1075 H 0.27386 0.06217 0.3614 0.0
H1076 H 0.23992 0.16722 0.47531 0.0
H1077 H 0.24045 0.18097 0.43304 0.0
H1078 H 0.22659 0.13356 0.49831 0.0
H1079 H 0.23471 0.10003 0.50277 0.0
C1080 C 0.64377 0.76949 0.91157 0.0
C1081 C 0.64467 0.75391 0.87861 0.0
C1082 C 0.59921 0.73737 0.88423 0.0
C1083 C 0.59944 0.75082 0.91893 0.0
N1084 N 0.62442 0.77497 0.96904 0.0
N1085 N 0.62546 0.71866 0.83755 0.0
C1086 C 0.62246 0.76553 0.93361 0.0
C1087 C 0.623 0.73657 0.86606 0.0
N1088 N 0.66267 0.78883 0.92119 0.0
N1089 N 0.57603 0.72616 0.86798 0.0
H1090 H 0.64275 0.71705 0.82399 0.0
H1091 H 0.61142 0.70367 0.82965 0.0
H1092 H 0.55808 0.72666 0.8801 0.0
H1093 H 0.57399 0.71859 0.84115 0.0
H1094 H 0.66139 0.80263 0.94293 0.0
H1095 H 0.67826 0.79281 0.90544 0.0
H1096 H 0.64189 0.78339 0.98226 0.0
H1097 H 0.60952 0.77201 0.98633 0.0
C1098 C 0.28595 0.64953 0.89577 0.0
C1099 C 0.26543 0.65168 0.86669 0.0
C1100 C 0.24856 0.60734 0.88101 0.0
C1101 C 0.2667 0.60693 0.91298 0.0
N1102 N 0.299 0.6313 0.95446 0.0
N1103 N 0.22331 0.63467 0.83767 0.0
C1104 C 0.28441 0.62906 0.92137 0.0
C1105 C 0.24565 0.63112 0.861 0.0
N1106 N 0.30757 0.66633 0.89831 0.0
N1107 N 0.23471 0.58469 0.86877 0.0
H1108 H 0.21967 0.65216 0.82379 0.0
H1109 H 0.20709 0.6215 0.83522 0.0
H1110 H 0.23701 0.56659 0.88159 0.0
H1111 H 0.22323 0.58313 0.84377 0.0
H1112 H 0.32428 0.66404 0.91684 0.0
H1113 H 0.31009 0.68076 0.87944 0.0
H1114 H 0.31014 0.64831 0.9634 0.0
H1115 H 0.29777 0.61744 0.97445 0.0
C1116 C 0.40356 0.25988 0.87932 0.0
C1117 C 0.37899 0.26466 0.89462 0.0
C1118 C 0.40272 0.26743 0.95582 0.0
C1119 C 0.42742 0.26459 0.94027 0.0
N1120 N 0.45204 0.26276 0.88737 0.0
N1121 N 0.35553 0.2781 0.94646 0.0
C1122 C 0.42804 0.26226 0.902 0.0
C1123 C 0.37867 0.2699 0.93265 0.0
N1124 N 0.40346 0.25198 0.84342 0.0
N1125 N 0.40221 0.26708 0.99271 0.0
H1126 H 0.33757 0.28038 0.93029 0.0
H1127 H 0.35463 0.28492 0.97334 0.0
H1128 H 0.41945 0.26567 0.0106 0.0
H1129 H 0.38461 0.26609 0.00545 0.0
H1130 H 0.42045 0.24537 0.83161 0.0
H1131 H 0.38595 0.24988 0.82595 0.0
H1132 H 0.45377 0.26404 0.85966 0.0
H1133 H 0.47036 0.26408 0.90323 0.0
C1134 C 0.75701 0.39858 0.87956 0.0
C1135 C 0.7447 0.37482 0.88998 0.0
C1136 C 0.73361 0.39911 0.94634 0.0
C1137 C 0.74322 0.42345 0.93386 0.0
N1138 N 0.75943 0.44709 0.88496 0.0
N1139 N 0.71635 0.35439 0.93028 0.0
C1140 C 0.75349 0.42338 0.89933 0.0
C1141 C 0.73165 0.37562 0.92262 0.0
N1142 N 0.77318 0.39734 0.8518 0.0
N1143 N 0.72693 0.39821 0.98125 0.0
H1144 H 0.71364 0.33727 0.91317 0.0
H1145 H 0.70422 0.35486 0.95167 0.0
H1146 H 0.72811 0.41488 0.99935 0.0
H1147 H 0.72254 0.38047 0.99317 0.0
H1148 H 0.78484 0.41339 0.84545 0.0
H1149 H 0.77714 0.37955 0.83753 0.0
H1150 H 0.76431 0.44853 0.85835 0.0
H1151 H 0.75712 0.46557 0.89851 0.0
C1152 C 0.63654 0.25854 0.11774 0.0
C1153 C 0.63973 0.2543 0.15559 0.0
C1154 C 0.59089 0.25434 0.1571 0.0
C1155 C 0.58781 0.25627 0.11879 0.0
N1156 N 0.60736 0.25569 0.06169 0.0
N1157 N 0.62022 0.24386 0.21046 0.0
C1158 C 0.61056 0.25704 0.09883 0.0
C1159 C 0.61695 0.25107 0.17511 0.0
N1160 N 0.65823 0.26509 0.10011 0.0
N1161 N 0.5689 0.25604 0.17627 0.0
H1162 H 0.63897 0.24114 0.22448 0.0
H1163 H 0.60444 0.23842 0.225 0.0
H1164 H 0.54948 0.25771 0.16382 0.0
H1165 H 0.57001 0.25777 0.20453 0.0
H1166 H 0.65674 0.27126 0.07348 0.0
H1167 H 0.67758 0.26669 0.11306 0.0
H1168 H 0.62319 0.25249 0.04574 0.0
H1169 H 0.58865 0.25549 0.04682 0.0
C1170 C 0.75006 0.61494 0.15775 0.0
C1171 C 0.74173 0.63972 0.14308 0.0
C1172 C 0.73325 0.61683 0.08241 0.0
C1173 C 0.73993 0.59182 0.09758 0.0
N1174 N 0.75016 0.56637 0.15075 0.0
N1175 N 0.72121 0.66348 0.09264 0.0
C1176 C 0.74699 0.59072 0.13561 0.0
C1177 C 0.73217 0.64042 0.10568 0.0
N1178 N 0.76186 0.61467 0.19258 0.0
N1179 N 0.72857 0.61816 0.04554 0.0
H1180 H 0.72015 0.68106 0.10873 0.0
H1181 H 0.71122 0.66469 0.0668 0.0
H1182 H 0.72843 0.6013 0.02786 0.0
H1183 H 0.72664 0.63604 0.03225 0.0
H1184 H 0.77109 0.5979 0.20366 0.0
H1185 H 0.76443 0.63186 0.20961 0.0
H1186 H 0.75243 0.56393 0.17867 0.0
H1187 H 0.74826 0.54832 0.13542 0.0
C1188 C 0.35357 0.73916 0.10585 0.0
C1189 C 0.35532 0.74573 0.14374 0.0
C1190 C 0.4041 0.75089 0.14438 0.0
C1191 C 0.40192 0.74686 0.10598 0.0
N1192 N 0.37393 0.74258 0.0494 0.0
N1193 N 0.38153 0.76257 0.19806 0.0
C1194 C 0.37644 0.7425 0.08649 0.0
C1195 C 0.38042 0.75289 0.16278 0.0
N1196 N 0.33028 0.72892 0.08852 0.0
N1197 N 0.4288 0.75203 0.16341 0.0
H1198 H 0.36465 0.76463 0.21236 0.0
H1199 H 0.39878 0.77079 0.21212 0.0
H1200 H 0.44656 0.75072 0.1509 0.0
H1201 H 0.43168 0.752 0.19167 0.0
H1202 H 0.32867 0.72113 0.0618 0.0
H1203 H 0.31318 0.72589 0.10184 0.0
H1204 H 0.35555 0.74223 0.03377 0.0
H1205 H 0.39017 0.74569 0.03446 0.0
C1206 C 0.26953 0.36009 0.12844 0.0
C1207 C 0.25755 0.36308 0.16179 0.0
C1208 C 0.24916 0.41079 0.15002 0.0
C1209 C 0.2594 0.40732 0.1155 0.0
N1210 N 0.27589 0.37773 0.06956 0.0
N1211 N 0.23315 0.39045 0.20251 0.0
C1212 C 0.2687 0.38169 0.10416 0.0
C1213 C 0.24651 0.38821 0.17196 0.0
N1214 N 0.28214 0.33668 0.12023 0.0
N1215 N 0.24289 0.43594 0.16249 0.0
H1216 H 0.23177 0.37484 0.22001 0.0
H1217 H 0.22187 0.40707 0.20931 0.0
H1218 H 0.24438 0.45283 0.14726 0.0
H1219 H 0.23822 0.44052 0.18889 0.0
H1220 H 0.29402 0.33415 0.09872 0.0
H1221 H 0.28228 0.32017 0.13647 0.0
H1222 H 0.28001 0.35901 0.05798 0.0
H1223 H 0.27573 0.39298 0.05124 0.0
C1224 C 0.38785 0.23847 0.18233 0.0
C1225 C 0.36672 0.25719 0.17709 0.0
C1226 C 0.38866 0.27564 0.12701 0.0
C1227 C 0.4112 0.25904 0.13514 0.0
N1228 N 0.4345 0.22882 0.1761 0.0
N1229 N 0.35 0.29746 0.14947 0.0
C1230 C 0.41146 0.24166 0.16446 0.0
C1231 C 0.36798 0.27693 0.15086 0.0
N1232 N 0.38501 0.21695 0.20312 0.0
N1233 N 0.3864 0.28937 0.09577 0.0
H1234 H 0.33505 0.29962 0.16716 0.0
H1235 H 0.35161 0.31377 0.13326 0.0
H1236 H 0.40072 0.28844 0.07705 0.0
H1237 H 0.36911 0.29953 0.08669 0.0
H1238 H 0.39869 0.2013 0.2048 0.0
H1239 H 0.3677 0.21331 0.2157 0.0
H1240 H 0.43649 0.21804 0.19963 0.0
H1241 H 0.45242 0.23117 0.16441 0.0
C1242 C 0.76735 0.37516 0.13304 0.0
C1243 C 0.75145 0.37075 0.16193 0.0
C1244 C 0.73247 0.41557 0.1565 0.0
C1245 C 0.74605 0.41858 0.12501 0.0
N1246 N 0.77147 0.39872 0.07833 0.0
N1247 N 0.71538 0.38465 0.1973 0.0
C1248 C 0.76211 0.39766 0.11181 0.0
C1249 C 0.73301 0.39039 0.1727 0.0
N1250 N 0.78803 0.35835 0.12659 0.0
N1251 N 0.71967 0.4369 0.17141 0.0
H1252 H 0.71489 0.36624 0.20935 0.0
H1253 H 0.69971 0.39724 0.20331 0.0
H1254 H 0.71901 0.4557 0.1603 0.0
H1255 H 0.71176 0.43657 0.19644 0.0
H1256 H 0.80186 0.36227 0.10816 0.0
H1257 H 0.79303 0.34192 0.1422 0.0
H1258 H 0.7809 0.38266 0.06597 0.0
H1259 H 0.76747 0.41453 0.06124 0.0
C1260 C 0.62541 0.73726 0.11825 0.0
C1261 C 0.62649 0.74911 0.15402 0.0
C1262 C 0.57814 0.75706 0.14579 0.0
C1263 C 0.57789 0.74859 0.10866 0.0
N1264 N 0.60226 0.735 0.05771 0.0
N1265 N 0.60468 0.77532 0.19915 0.0
C1266 C 0.60184 0.73996 0.09431 0.0
C1267 C 0.60304 0.76035 0.16716 0.0
N1268 N 0.64647 0.72254 0.10757 0.0
N1269 N 0.55459 0.76167 0.16074 0.0
H1270 H 0.62268 0.77917 0.215 0.0
H1271 H 0.58863 0.78616 0.20808 0.0
H1272 H 0.53595 0.75955 0.1458 0.0
H1273 H 0.5535 0.76527 0.18853 0.0
H1274 H 0.64569 0.71135 0.08302 0.0
H1275 H 0.66373 0.71924 0.12475 0.0
H1276 H 0.61983 0.73136 0.04539 0.0
H1277 H 0.58543 0.73693 0.03925 0.0
C1278 C 0.26702 0.62573 0.12071 0.0
C1279 C 0.25442 0.62563 0.15348 0.0
C1280 C 0.24876 0.57711 0.14594 0.0
C1281 C 0.2577 0.57798 0.11082 0.0
N1282 N 0.27075 0.60389 0.06176 0.0
N1283 N 0.2286 0.60188 0.19389 0.0
C1284 C 0.26548 0.60254 0.09725 0.0
C1285 C 0.24405 0.60147 0.16534 0.0
N1286 N 0.28128 0.64761 0.11262 0.0
N1287 N 0.24499 0.55306 0.16083 0.0
H1288 H 0.22379 0.61945 0.20805 0.0
H1289 H 0.2184 0.58512 0.20121 0.0
H1290 H 0.24808 0.53478 0.14715 0.0
H1291 H 0.24102 0.55134 0.18778 0.0
H1292 H 0.2929 0.64769 0.0907 0.0
H1293 H 0.28383 0.66467 0.12991 0.0
H1294 H 0.27389 0.62188 0.04966 0.0
H1295 H 0.26952 0.58734 0.04346 0.0
C1296 C 0.40535 0.75708 0.85391 0.0
C1297 C 0.38031 0.74975 0.86549 0.0
C1298 C 0.40194 0.73929 0.92529 0.0
C1299 C 0.42708 0.74602 0.91344 0.0
N1300 N 0.45379 0.7558 0.86486 0.0
N1301 N 0.35497 0.72893 0.90885 0.0
C1302 C 0.42911 0.75318 0.87715 0.0
C1303 C 0.37869 0.73924 0.90018 0.0
N1304 N 0.4063 0.76846 0.82114 0.0
N1305 N 0.40017 0.73388 0.96088 0.0
H1306 H 0.33738 0.7292 0.89145 0.0
H1307 H 0.35307 0.71821 0.93194 0.0
H1308 H 0.41675 0.73356 0.98009 0.0
H1309 H 0.38211 0.73139 0.972 0.0
H1310 H 0.42349 0.77706 0.81289 0.0
H1311 H 0.38938 0.77092 0.80298 0.0
H1312 H 0.45675 0.75836 0.83775 0.0
H1313 H 0.47155 0.75319 0.88133 0.0
C1314 C 0.25387 0.38613 0.91522 0.0
C1315 C 0.26781 0.3835 0.88358 0.0
C1316 C 0.27967 0.43098 0.89013 0.0
C1317 C 0.26891 0.43251 0.92422 0.0
N1318 N 0.25098 0.40997 0.97302 0.0
N1319 N 0.29925 0.40211 0.84571 0.0
C1320 C 0.25765 0.40956 0.93801 0.0
C1321 C 0.28224 0.40557 0.8723 0.0
N1322 N 0.23601 0.36697 0.92263 0.0
N1323 N 0.28699 0.45375 0.87453 0.0
H1324 H 0.30266 0.38352 0.83309 0.0
H1325 H 0.31202 0.41713 0.83896 0.0
H1326 H 0.28534 0.47277 0.88688 0.0
H1327 H 0.29251 0.45386 0.84806 0.0
H1328 H 0.22359 0.36931 0.94361 0.0
H1329 H 0.23142 0.35013 0.90553 0.0
H1330 H 0.24503 0.39292 0.98535 0.0
H1331 H 0.25398 0.4267 0.99081 0.0
C1332 C 0.61604 0.24969 0.87249 0.0
C1333 C 0.64098 0.26154 0.88557 0.0
C1334 C 0.62318 0.27459 0.94342 0.0
C1335 C 0.59778 0.26396 0.9296 0.0
N1336 N 0.56848 0.24633 0.87872 0.0
N1337 N 0.66733 0.28919 0.93056 0.0
C1338 C 0.59377 0.2529 0.89344 0.0
C1339 C 0.64426 0.27518 0.9202 0.0
N1340 N 0.61382 0.23478 0.84041 0.0
N1341 N 0.62748 0.2832 0.97911 0.0
H1342 H 0.68338 0.28963 0.91459 0.0
H1343 H 0.66983 0.30204 0.95359 0.0
H1344 H 0.61246 0.28372 0.99676 0.0
H1345 H 0.6463 0.28807 0.992 0.0
H1346 H 0.59715 0.22307 0.83142 0.0
H1347 H 0.6295 0.23248 0.82391 0.0
H1348 H 0.56378 0.24081 0.85138 0.0
H1349 H 0.55165 0.24871 0.89309 0.0
C1350 C 0.74398 0.64302 0.89749 0.0
C1351 C 0.74747 0.6403 0.85993 0.0
C1352 C 0.74641 0.59152 0.86226 0.0
C1353 C 0.7455 0.59438 0.90042 0.0
N1354 N 0.74832 0.62241 0.95557 0.0
N1355 N 0.75526 0.61267 0.80685 0.0
C1356 C 0.74564 0.62003 0.91842 0.0
C1357 C 0.74953 0.61471 0.84228 0.0
N1358 N 0.73838 0.66751 0.91293 0.0
N1359 N 0.74375 0.56672 0.84517 0.0
H1360 H 0.75728 0.62929 0.79128 0.0
H1361 H 0.75988 0.59469 0.79359 0.0
H1362 H 0.74194 0.54928 0.85919 0.0
H1363 H 0.74141 0.56355 0.81703 0.0
H1364 H 0.73276 0.67021 0.93925 0.0
H1365 H 0.73695 0.68494 0.89842 0.0
H1366 H 0.75149 0.64061 0.97017 0.0
H1367 H 0.74985 0.60597 0.97196 0.0
loop_
_geom_bond_atom_site_label_1
_geom_bond_atom_site_label_2
_geom_bond_distance
_geom_bond_site_symmetry_2
_ccdc_geom_bond_type
C0 C1 1.384 . S
C0 C2 1.384 . S
C0 H28 0.931 . S
C1 C0 1.384 . S
C1 C4 1.382 . S
C2 C0 1.384 . S
C2 C3 1.381 . S
C2 H29 0.930 . S
C3 C2 1.381 . S
C3 C5 1.381 . S
C3 C6 1.487 . S
C4 C1 1.382 . S
C4 C5 1.387 . S
C4 H30 0.930 . S
C5 C3 1.381 . S
C5 C4 1.387 . S
C5 H31 0.931 . S
C6 C3 1.487 . S
C6 C13 1.399 . S
C6 N44 1.343 . S
C7 C8 1.384 . S
C7 C9 1.384 . S
C7 H32 0.931 . S
C8 C7 1.384 . S
C8 C11 1.382 . S
C9 C7 1.384 . S
C9 C10 1.381 . S
C9 H33 0.930 . S
C10 C9 1.381 . S
C10 C12 1.381 . S
C10 C13 1.487 . S
C11 C8 1.382 . S
C11 C12 1.387 . S
C11 H34 0.930 . S
C12 C10 1.381 . S
C12 C11 1.387 . S
C12 H35 0.931 . S
C13 C6 1.399 . S
C13 C10 1.487 . S
C13 N45 1.343 . S
C14 C15 1.384 . S
C14 C16 1.384 . S
C14 H36 0.931 . S
C15 C14 1.384 . S
C15 C18 1.382 . S
C16 C14 1.384 . S
C16 C17 1.381 . S
C16 H37 0.930 . S
C17 C16 1.381 . S
C17 C19 1.381 . S
C17 C20 1.487 . S
C18 C15 1.382 . S
C18 C19 1.387 . S
C18 H38 0.930 . S
C19 C17 1.381 . S
C19 C18 1.387 . S
C19 H39 0.931 . S
C20 C17 1.487 . S
C20 C27 1.399 . S
C20 N45 1.343 . S
C21 C22 1.384 . S
C21 C23 1.384 . S
C21 H40 0.931 . S
C22 C21 1.384 . S
C22 C25 1.382 . S
C23 C21 1.384 . S
C23 C24 1.381 . S
C23 H41 0.930 . S
C24 C23 1.381 . S
C24 C26 1.381 . S
C24 C27 1.487 . S
C25 C22 1.382 . S
C25 C26 1.387 . S
C25 H42 0.930 . S
C26 C24 1.381 . S
C26 C25 1.387 . S
C26 H43 0.931 . S
C27 C20 1.399 . S
C27 C24 1.487 . S
C27 N44 1.343 . S
H28 C0 0.931 . S
H29 C2 0.930 . S
H30 C4 0.930 . S
H31 C5 0.931 . S
H32 C7 0.931 . S
H33 C9 0.930 . S
H34 C11 0.930 . S
H35 C12 0.931 . S
H36 C14 0.931 . S
H37 C16 0.930 . S
H38 C18 0.930 . S
H39 C19 0.931 . S
H40 C21 0.931 . S
H41 C23 0.930 . S
H42 C25 0.930 . S
H43 C26 0.931 . S
N44 C6 1.343 . S
N44 C27 1.343 . S
N45 C13 1.343 . S
N45 C20 1.343 . S
C46 C47 1.384 . S
C46 C48 1.384 . S
C46 H74 0.931 . S
C47 C46 1.384 . S
C47 C50 1.382 . S
C48 C46 1.384 . S
C48 C49 1.381 . S
C48 H75 0.930 . S
C49 C48 1.381 . S
C49 C51 1.381 . S
C49 C52 1.487 . S
C50 C47 1.382 . S
C50 C51 1.387 . S
C50 H76 0.930 . S
C51 C49 1.381 . S
C51 C50 1.387 . S
C51 H77 0.931 . S
C52 C49 1.487 . S
C52 C59 1.399 . S
C52 N90 1.343 . S
C53 C54 1.384 . S
C53 C55 1.384 . S
C53 H78 0.931 . S
C54 C53 1.384 . S
C54 C57 1.382 . S
C55 C53 1.384 . S
C55 C56 1.381 . S
C55 H79 0.930 . S
C56 C55 1.381 . S
C56 C58 1.381 . S
C56 C59 1.487 . S
C57 C54 1.382 . S
C57 C58 1.387 . S
C57 H80 0.930 . S
C58 C56 1.381 . S
C58 C57 1.387 . S
C58 H81 0.931 . S
C59 C52 1.399 . S
C59 C56 1.487 . S
C59 N91 1.343 . S
C60 C61 1.384 . S
C60 C62 1.384 . S
C60 H82 0.931 . S
C61 C60 1.384 . S
C61 C64 1.382 . S
C62 C60 1.384 . S
C62 C63 1.381 . S
C62 H83 0.930 . S
C63 C62 1.381 . S
C63 C65 1.381 . S
C63 C66 1.487 . S
C64 C61 1.382 . S
C64 C65 1.387 . S
C64 H84 0.930 . S
C65 C63 1.381 . S
C65 C64 1.387 . S
C65 H85 0.931 . S
C66 C63 1.487 . S
C66 C73 1.399 . S
C66 N91 1.343 . S
C67 C68 1.384 . S
C67 C69 1.384 . S
C67 H86 0.931 . S
C68 C67 1.384 . S
C68 C71 1.382 . S
C69 C67 1.384 . S
C69 C70 1.381 . S
C69 H87 0.930 . S
C70 C69 1.381 . S
C70 C72 1.381 . S
C70 C73 1.487 . S
C71 C68 1.382 . S
C71 C72 1.387 . S
C71 H88 0.930 . S
C72 C70 1.381 . S
C72 C71 1.387 . S
C72 H89 0.931 . S
C73 C66 1.399 . S
C73 C70 1.487 . S
C73 N90 1.343 . S
H74 C46 0.931 . S
H75 C48 0.930 . S
H76 C50 0.930 . S
H77 C51 0.931 . S
H78 C53 0.931 . S
H79 C55 0.930 . S
H80 C57 0.930 . S
H81 C58 0.931 . S
H82 C60 0.931 . S
H83 C62 0.930 . S
H84 C64 0.930 . S
H85 C65 0.931 . S
H86 C67 0.931 . S
H87 C69 0.930 . S
H88 C71 0.930 . S
H89 C72 0.931 . S
N90 C52 1.343 . S
N90 C73 1.343 . S
N91 C59 1.343 . S
N91 C66 1.343 . S
C92 C93 1.384 . S
C92 C94 1.384 . S
C92 H120 0.931 . S
C93 C92 1.384 . S
C93 C96 1.382 . S
C94 C92 1.384 . S
C94 C95 1.381 . S
C94 H121 0.930 . S
C95 C94 1.381 . S
C95 C97 1.381 . S
C95 C98 1.487 . S
C96 C93 1.382 . S
C96 C97 1.387 . S
C96 H122 0.930 . S
C97 C95 1.381 . S
C97 C96 1.387 . S
C97 H123 0.931 . S
C98 C95 1.487 . S
C98 C105 1.399 . S
C98 N136 1.343 . S
C99 C100 1.384 . S
C99 C101 1.384 . S
C99 H124 0.931 . S
C100 C99 1.384 . S
C100 C103 1.382 . S
C101 C99 1.384 . S
C101 C102 1.381 . S
C101 H125 0.930 . S
C102 C101 1.381 . S
C102 C104 1.381 . S
C102 C105 1.487 . S
C103 C100 1.382 . S
C103 C104 1.387 . S
C103 H126 0.930 . S
C104 C102 1.381 . S
C104 C103 1.387 . S
C104 H127 0.931 . S
C105 C98 1.399 . S
C105 C102 1.487 . S
C105 N137 1.343 . S
C106 C107 1.384 . S
C106 C108 1.384 . S
C106 H128 0.931 . S
C107 C106 1.384 . S
C107 C110 1.382 . S
C108 C106 1.384 . S
C108 C109 1.381 . S
C108 H129 0.930 . S
C109 C108 1.381 . S
C109 C111 1.381 . S
C109 C112 1.487 . S
C110 C107 1.382 . S
C110 C111 1.387 . S
C110 H130 0.930 . S
C111 C109 1.381 . S
C111 C110 1.387 . S
C111 H131 0.931 . S
C112 C109 1.487 . S
C112 C119 1.399 . S
C112 N137 1.343 . S
C113 C114 1.384 . S
C113 C115 1.384 . S
C113 H132 0.931 . S
C114 C113 1.384 . S
C114 C117 1.382 . S
C115 C113 1.384 . S
C115 C116 1.381 . S
C115 H133 0.930 . S
C116 C115 1.381 . S
C116 C118 1.381 . S
C116 C119 1.487 . S
C117 C114 1.382 . S
C117 C118 1.387 . S
C117 H134 0.930 . S
C118 C116 1.381 . S
C118 C117 1.387 . S
C118 H135 0.931 . S
C119 C112 1.399 . S
C119 C116 1.487 . S
C119 N136 1.343 . S
H120 C92 0.931 . S
H121 C94 0.930 . S
H122 C96 0.930 . S
H123 C97 0.931 . S
H124 C99 0.931 . S
H125 C101 0.930 . S
H126 C103 0.930 . S
H127 C104 0.931 . S
H128 C106 0.931 . S
H129 C108 0.930 . S
H130 C110 0.930 . S
H131 C111 0.931 . S
H132 C113 0.931 . S
H133 C115 0.930 . S
H134 C117 0.930 . S
H135 C118 0.931 . S
N136 C98 1.343 . S
N136 C119 1.343 . S
N137 C105 1.343 . S
N137 C112 1.343 . S
C138 C139 1.384 . S
C138 C140 1.384 . S
C138 H166 0.931 . S
C139 C138 1.384 . S
C139 C142 1.382 . S
C140 C138 1.384 . S
C140 C141 1.381 . S
C140 H167 0.930 . S
C141 C140 1.381 . S
C141 C143 1.381 . S
C141 C144 1.487 . S
C142 C139 1.382 . S
C142 C143 1.387 . S
C142 H168 0.930 . S
C143 C141 1.381 . S
C143 C142 1.387 . S
C143 H169 0.931 . S
C144 C141 1.487 . S
C144 C151 1.399 . S
C144 N182 1.343 . S
C145 C146 1.384 . S
C145 C147 1.384 . S
C145 H170 0.931 . S
C146 C145 1.384 . S
C146 C149 1.382 . S
C147 C145 1.384 . S
C147 C148 1.381 . S
C147 H171 0.930 . S
C148 C147 1.381 . S
C148 C150 1.381 . S
C148 C151 1.487 . S
C149 C146 1.382 . S
C149 C150 1.387 . S
C149 H172 0.930 . S
C150 C148 1.381 . S
C150 C149 1.387 . S
C150 H173 0.931 . S
C151 C144 1.399 . S
C151 C148 1.487 . S
C151 N183 1.343 . S
C152 C153 1.384 . S
C152 C154 1.384 . S
C152 H174 0.931 . S
C153 C152 1.384 . S
C153 C156 1.382 . S
C154 C152 1.384 . S
C154 C155 1.381 . S
C154 H175 0.930 . S
C155 C154 1.381 . S
C155 C157 1.381 . S
C155 C158 1.487 . S
C156 C153 1.382 . S
C156 C157 1.387 . S
C156 H176 0.930 . S
C157 C155 1.381 . S
C157 C156 1.387 . S
C157 H177 0.931 . S
C158 C155 1.487 . S
C158 C165 1.399 . S
C158 N183 1.343 . S
C159 C160 1.384 . S
C159 C161 1.384 . S
C159 H178 0.931 . S
C160 C159 1.384 . S
C160 C163 1.382 . S
C161 C159 1.384 . S
C161 C162 1.381 . S
C161 H179 0.930 . S
C162 C161 1.381 . S
C162 C164 1.381 . S
C162 C165 1.487 . S
C163 C160 1.382 . S
C163 C164 1.387 . S
C163 H180 0.930 . S
C164 C162 1.381 . S
C164 C163 1.387 . S
C164 H181 0.931 . S
C165 C158 1.399 . S
C165 C162 1.487 . S
C165 N182 1.343 . S
H166 C138 0.931 . S
H167 C140 0.930 . S
H168 C142 0.930 . S
H169 C143 0.931 . S
H170 C145 0.931 . S
H171 C147 0.930 . S
H172 C149 0.930 . S
H173 C150 0.931 . S
H174 C152 0.931 . S
H175 C154 0.930 . S
H176 C156 0.930 . S
H177 C157 0.931 . S
H178 C159 0.931 . S
H179 C161 0.930 . S
H180 C163 0.930 . S
H181 C164 0.931 . S
N182 C144 1.343 . S
N182 C165 1.343 . S
N183 C151 1.343 . S
N183 C158 1.343 . S
C184 C185 1.384 . S
C184 C186 1.384 . S
C184 H212 0.931 . S
C185 C184 1.384 . S
C185 C188 1.382 . S
C186 C184 1.384 . S
C186 C187 1.381 . S
C186 H213 0.930 . S
C187 C186 1.381 . S
C187 C189 1.381 . S
C187 C190 1.487 . S
C188 C185 1.382 . S
C188 C189 1.387 . S
C188 H214 0.930 . S
C189 C187 1.381 . S
C189 C188 1.387 . S
C189 H215 0.931 . S
C190 C187 1.487 . S
C190 C197 1.399 . S
C190 N228 1.343 . S
C191 C192 1.384 . S
C191 C193 1.384 . S
C191 H216 0.931 . S
C192 C191 1.384 . S
C192 C195 1.382 . S
C193 C191 1.384 . S
C193 C194 1.381 . S
C193 H217 0.930 . S
C194 C193 1.381 . S
C194 C196 1.381 . S
C194 C197 1.487 . S
C195 C192 1.382 . S
C195 C196 1.387 . S
C195 H218 0.930 . S
C196 C194 1.381 . S
C196 C195 1.387 . S
C196 H219 0.931 . S
C197 C190 1.399 . S
C197 C194 1.487 . S
C197 N229 1.343 . S
C198 C199 1.384 . S
C198 C200 1.384 . S
C198 H220 0.931 . S
C199 C198 1.384 . S
C199 C202 1.382 . S
C200 C198 1.384 . S
C200 C201 1.381 . S
C200 H221 0.930 . S
C201 C200 1.381 . S
C201 C203 1.381 . S
C201 C204 1.487 . S
C202 C199 1.382 . S
C202 C203 1.387 . S
C202 H222 0.930 . S
C203 C201 1.381 . S
C203 C202 1.387 . S
C203 H223 0.931 . S
C204 C201 1.487 . S
C204 C211 1.399 . S
C204 N229 1.343 . S
C205 C206 1.384 . S
C205 C207 1.384 . S
C205 H224 0.931 . S
C206 C205 1.384 . S
C206 C209 1.382 . S
C207 C205 1.384 . S
C207 C208 1.381 . S
C207 H225 0.930 . S
C208 C207 1.381 . S
C208 C210 1.381 . S
C208 C211 1.487 . S
C209 C206 1.382 . S
C209 C210 1.387 . S
C209 H226 0.930 . S
C210 C208 1.381 . S
C210 C209 1.387 . S
C210 H227 0.931 . S
C211 C204 1.399 . S
C211 C208 1.487 . S
C211 N228 1.343 . S
H212 C184 0.931 . S
H213 C186 0.930 . S
H214 C188 0.930 . S
H215 C189 0.931 . S
H216 C191 0.931 . S
H217 C193 0.930 . S
H218 C195 0.930 . S
H219 C196 0.931 . S
H220 C198 0.931 . S
H221 C200 0.930 . S
H222 C202 0.930 . S
H223 C203 0.931 . S
H224 C205 0.931 . S
H225 C207 0.930 . S
H226 C209 0.930 . S
H227 C210 0.931 . S
N228 C190 1.343 . S
N228 C211 1.343 . S
N229 C197 1.343 . S
N229 C204 1.343 . S
C230 C231 1.384 . S
C230 C232 1.384 . S
C230 H258 0.931 . S
C231 C230 1.384 . S
C231 C234 1.382 . S
C232 C230 1.384 . S
C232 C233 1.381 . S
C232 H259 0.930 . S
C233 C232 1.381 . S
C233 C235 1.381 . S
C233 C236 1.487 . S
C234 C231 1.382 . S
C234 C235 1.387 . S
C234 H260 0.930 . S
C235 C233 1.381 . S
C235 C234 1.387 . S
C235 H261 0.931 . S
C236 C233 1.487 . S
C236 C243 1.399 . S
C236 N274 1.343 . S
C237 C238 1.384 . S
C237 C239 1.384 . S
C237 H262 0.931 . S
C238 C237 1.384 . S
C238 C241 1.382 . S
C239 C237 1.384 . S
C239 C240 1.381 . S
C239 H263 0.930 . S
C240 C239 1.381 . S
C240 C242 1.381 . S
C240 C243 1.487 . S
C241 C238 1.382 . S
C241 C242 1.387 . S
C241 H264 0.930 . S
C242 C240 1.381 . S
C242 C241 1.387 . S
C242 H265 0.931 . S
C243 C236 1.399 . S
C243 C240 1.487 . S
C243 N275 1.343 . S
C244 C245 1.384 . S
C244 C246 1.384 . S
C244 H266 0.931 . S
C245 C244 1.384 . S
C245 C248 1.382 . S
C246 C244 1.384 . S
C246 C247 1.381 . S
C246 H267 0.930 . S
C247 C246 1.381 . S
C247 C249 1.381 . S
C247 C250 1.487 . S
C248 C245 1.382 . S
C248 C249 1.387 . S
C248 H268 0.930 . S
C249 C247 1.381 . S
C249 C248 1.387 . S
C249 H269 0.931 . S
C250 C247 1.487 . S
C250 C257 1.399 . S
C250 N275 1.343 . S
C251 C252 1.384 . S
C251 C253 1.384 . S
C251 H270 0.931 . S
C252 C251 1.384 . S
C252 C255 1.382 . S
C253 C251 1.384 . S
C253 C254 1.381 . S
C253 H271 0.930 . S
C254 C253 1.381 . S
C254 C256 1.381 . S
C254 C257 1.487 . S
C255 C252 1.382 . S
C255 C256 1.387 . S
C255 H272 0.930 . S
C256 C254 1.381 . S
C256 C255 1.387 . S
C256 H273 0.931 . S
C257 C250 1.399 . S
C257 C254 1.487 . S
C257 N274 1.343 . S
H258 C230 0.931 . S
H259 C232 0.930 . S
H260 C234 0.930 . S
H261 C235 0.931 . S
H262 C237 0.931 . S
H263 C239 0.930 . S
H264 C241 0.930 . S
H265 C242 0.931 . S
H266 C244 0.931 . S
H267 C246 0.930 . S
H268 C248 0.930 . S
H269 C249 0.931 . S
H270 C251 0.931 . S
H271 C253 0.930 . S
H272 C255 0.930 . S
H273 C256 0.931 . S
N274 C236 1.343 . S
N274 C257 1.343 . S
N275 C243 1.343 . S
N275 C250 1.343 . S
C276 C277 1.384 . S
C276 C278 1.384 . S
C276 H304 0.931 . S
C277 C276 1.384 . S
C277 C280 1.382 . S
C278 C276 1.384 . S
C278 C279 1.381 . S
C278 H305 0.930 . S
C279 C278 1.381 . S
C279 C281 1.381 . S
C279 C282 1.487 . S
C280 C277 1.382 . S
C280 C281 1.387 . S
C280 H306 0.930 . S
C281 C279 1.381 . S
C281 C280 1.387 . S
C281 H307 0.931 . S
C282 C279 1.487 . S
C282 C289 1.399 . S
C282 N320 1.343 . S
C283 C284 1.384 . S
C283 C285 1.384 . S
C283 H308 0.931 . S
C284 C283 1.384 . S
C284 C287 1.382 . S
C285 C283 1.384 . S
C285 C286 1.381 . S
C285 H309 0.930 . S
C286 C285 1.381 . S
C286 C288 1.381 . S
C286 C289 1.487 . S
C287 C284 1.382 . S
C287 C288 1.387 . S
C287 H310 0.930 . S
C288 C286 1.381 . S
C288 C287 1.387 . S
C288 H311 0.931 . S
C289 C282 1.399 . S
C289 C286 1.487 . S
C289 N321 1.343 . S
C290 C291 1.384 . S
C290 C292 1.384 . S
C290 H312 0.931 . S
C291 C290 1.384 . S
C291 C294 1.382 . S
C292 C290 1.384 . S
C292 C293 1.381 . S
C292 H313 0.930 . S
C293 C292 1.381 . S
C293 C295 1.381 . S
C293 C296 1.487 . S
C294 C291 1.382 . S
C294 C295 1.387 . S
C294 H314 0.930 . S
C295 C293 1.381 . S
C295 C294 1.387 . S
C295 H315 0.931 . S
C296 C293 1.487 . S
C296 C303 1.399 . S
C296 N321 1.343 . S
C297 C298 1.384 . S
C297 C299 1.384 . S
C297 H316 0.931 . S
C298 C297 1.384 . S
C298 C301 1.382 . S
C299 C297 1.384 . S
C299 C300 1.381 . S
C299 H317 0.930 . S
C300 C299 1.381 . S
C300 C302 1.381 . S
C300 C303 1.487 . S
C301 C298 1.382 . S
C301 C302 1.387 . S
C301 H318 0.930 . S
C302 C300 1.381 . S
C302 C301 1.387 . S
C302 H319 0.931 . S
C303 C296 1.399 . S
C303 C300 1.487 . S
C303 N320 1.343 . S
H304 C276 0.931 . S
H305 C278 0.930 . S
H306 C280 0.930 . S
H307 C281 0.931 . S
H308 C283 0.931 . S
H309 C285 0.930 . S
H310 C287 0.930 . S
H311 C288 0.931 . S
H312 C290 0.931 . S
H313 C292 0.930 . S
H314 C294 0.930 . S
H315 C295 0.931 . S
H316 C297 0.931 . S
H317 C299 0.930 . S
H318 C301 0.930 . S
H319 C302 0.931 . S
N320 C282 1.343 . S
N320 C303 1.343 . S
N321 C289 1.343 . S
N321 C296 1.343 . S
C322 C323 1.384 . S
C322 C324 1.384 . S
C322 H350 0.931 . S
C323 C322 1.384 . S
C323 C326 1.382 . S
C324 C322 1.384 . S
C324 C325 1.381 . S
C324 H351 0.930 . S
C325 C324 1.381 . S
C325 C327 1.381 . S
C325 C328 1.487 . S
C326 C323 1.382 . S
C326 C327 1.387 . S
C326 H352 0.930 . S
C327 C325 1.381 . S
C327 C326 1.387 . S
C327 H353 0.931 . S
C328 C325 1.487 . S
C328 C335 1.399 . S
C328 N366 1.343 . S
C329 C330 1.384 . S
C329 C331 1.384 . S
C329 H354 0.931 . S
C330 C329 1.384 . S
C330 C333 1.382 . S
C331 C329 1.384 . S
C331 C332 1.381 . S
C331 H355 0.930 . S
C332 C331 1.381 . S
C332 C334 1.381 . S
C332 C335 1.487 . S
C333 C330 1.382 . S
C333 C334 1.387 . S
C333 H356 0.930 . S
C334 C332 1.381 . S
C334 C333 1.387 . S
C334 H357 0.931 . S
C335 C328 1.399 . S
C335 C332 1.487 . S
C335 N367 1.343 . S
C336 C337 1.384 . S
C336 C338 1.384 . S
C336 H358 0.931 . S
C337 C336 1.384 . S
C337 C340 1.382 . S
C338 C336 1.384 . S
C338 C339 1.381 . S
C338 H359 0.930 . S
C339 C338 1.381 . S
C339 C341 1.381 . S
C339 C342 1.487 . S
C340 C337 1.382 . S
C340 C341 1.387 . S
C340 H360 0.930 . S
C341 C339 1.381 . S
C341 C340 1.387 . S
C341 H361 0.931 . S
C342 C339 1.487 . S
C342 C349 1.399 . S
C342 N367 1.343 . S
C343 C344 1.384 . S
C343 C345 1.384 . S
C343 H362 0.931 . S
C344 C343 1.384 . S
C344 C347 1.382 . S
C345 C343 1.384 . S
C345 C346 1.381 . S
C345 H363 0.930 . S
C346 C345 1.381 . S
C346 C348 1.381 . S
C346 C349 1.487 . S
C347 C344 1.382 . S
C347 C348 1.387 . S
C347 H364 0.930 . S
C348 C346 1.381 . S
C348 C347 1.387 . S
C348 H365 0.931 . S
C349 C342 1.399 . S
C349 C346 1.487 . S
C349 N366 1.343 . S
H350 C322 0.931 . S
H351 C324 0.930 . S
H352 C326 0.930 . S
H353 C327 0.931 . S
H354 C329 0.931 . S
H355 C331 0.930 . S
H356 C333 0.930 . S
H357 C334 0.931 . S
H358 C336 0.931 . S
H359 C338 0.930 . S
H360 C340 0.930 . S
H361 C341 0.931 . S
H362 C343 0.931 . S
H363 C345 0.930 . S
H364 C347 0.930 . S
H365 C348 0.931 . S
N366 C328 1.343 . S
N366 C349 1.343 . S
N367 C335 1.343 . S
N367 C342 1.343 . S
C368 C369 1.443 . S
C368 N372 1.376 . S
C368 C406 1.389 . S
C369 C368 1.443 . S
C369 C370 1.340 . S
C369 H409 0.951 . S
C370 C369 1.340 . S
C370 C371 1.439 . S
C370 H410 0.950 . S
C371 C370 1.439 . S
C371 N372 1.374 . S
C371 C405 1.395 . S
N372 C368 1.376 . S
N372 C371 1.374 . S
N372 Co373 2.008 . S
Co373 N372 2.008 . S
Co373 N374 1.995 1_455 S
Co373 N379 2.008 1_455 S
Co373 N384 1.995 . S
Co373 N389 2.282 1_455 S
Co373 N395 2.282 . S
N374 Co373 1.995 1_655 S
N374 C375 1.376 . S
N374 C378 1.383 . S
C375 N374 1.376 . S
C375 C376 1.446 . S
C375 C405 1.391 1_655 S
C376 C375 1.446 . S
C376 C377 1.339 . S
C376 H411 0.949 . S
C377 C376 1.339 . S
C377 C378 1.439 . S
C377 H412 0.950 . S
C378 N374 1.383 . S
C378 C377 1.439 . S
C378 C407 1.392 . S
N379 Co373 2.008 1_655 S
N379 C380 1.376 . S
N379 C383 1.374 . S
C380 N379 1.376 . S
C380 C381 1.443 . S
C380 C407 1.389 . S
C381 C380 1.443 . S
C381 C382 1.340 . S
C381 H413 0.951 . S
C382 C381 1.340 . S
C382 C383 1.439 . S
C382 H414 0.950 . S
C383 N379 1.374 . S
C383 C382 1.439 . S
C383 C408 1.419 . S
N384 Co373 1.995 . S
N384 C385 1.376 . S
N384 C388 1.383 . S
C385 N384 1.376 . S
C385 C386 1.446 . S
C385 C408 1.366 1_455 S
C386 C385 1.446 . S
C386 C387 1.339 . S
C386 H415 0.949 . S
C387 C386 1.339 . S
C387 C388 1.439 . S
C387 H416 0.950 . S
C388 N384 1.383 . S
C388 C387 1.439 . S
C388 C406 1.392 . S
N389 Co373 2.282 1_655 S
N389 C392 1.332 . S
N389 C394 1.332 . S
C390 C391 1.386 . S
C390 C393 1.388 . S
C391 C390 1.386 . S
C391 C392 1.382 . S
C391 H417 0.950 . S
C392 N389 1.332 . S
C392 C391 1.382 . S
C392 H403 0.952 . S
C393 C390 1.388 . S
C393 C394 1.382 . S
C393 H418 0.950 . S
C394 N389 1.332 . S
C394 C393 1.382 . S
C394 H404 0.948 . S
N395 Co373 2.282 . S
N395 C399 1.332 . S
N395 C400 1.332 . S
C396 C397 1.388 . S
C396 C400 1.382 . S
C396 H419 0.950 . S
C397 C396 1.388 . S
C397 C398 1.386 . S
C398 C397 1.386 . S
C398 C399 1.382 . S
C398 H420 0.950 . S
C399 N395 1.332 . S
C399 C398 1.382 . S
C399 H401 0.952 . S
C400 N395 1.332 . S
C400 C396 1.382 . S
C400 H402 0.948 . S
H401 C399 0.952 . S
H402 C400 0.948 . S
H403 C392 0.952 . S
H404 C394 0.948 . S
C405 C371 1.395 . S
C405 C375 1.391 1_455 S
C406 C368 1.389 . S
C406 C388 1.392 . S
C407 C378 1.392 . S
C407 C380 1.389 . S
C408 C383 1.419 . S
C408 C385 1.366 1_655 S
H409 C369 0.951 . S
H410 C370 0.950 . S
H411 C376 0.949 . S
H412 C377 0.950 . S
H413 C381 0.951 . S
H414 C382 0.950 . S
H415 C386 0.949 . S
H416 C387 0.950 . S
H417 C391 0.950 . S
H418 C393 0.950 . S
H419 C396 0.950 . S
H420 C398 0.950 . S
C421 C422 1.443 . S
C421 N425 1.376 . S
C421 C459 1.389 . S
C422 C421 1.443 . S
C422 C423 1.340 . S
C422 H462 0.951 . S
C423 C422 1.340 . S
C423 C424 1.439 . S
C423 H463 0.950 . S
C424 C423 1.439 . S
C424 N425 1.374 . S
C424 C458 1.395 . S
N425 C421 1.376 . S
N425 C424 1.374 . S
N425 Co426 2.008 . S
Co426 N425 2.008 . S
Co426 N427 1.995 1_545 S
Co426 N432 2.008 1_545 S
Co426 N437 1.995 . S
Co426 N442 2.282 1_545 S
Co426 N448 2.282 . S
N427 Co426 1.995 1_565 S
N427 C428 1.376 . S
N427 C431 1.383 . S
C428 N427 1.376 . S
C428 C429 1.446 . S
C428 C458 1.391 1_565 S
C429 C428 1.446 . S
C429 C430 1.339 . S
C429 H464 0.949 . S
C430 C429 1.339 . S
C430 C431 1.439 . S
C430 H465 0.950 . S
C431 N427 1.383 . S
C431 C430 1.439 . S
C431 C460 1.392 . S
N432 Co426 2.008 1_565 S
N432 C433 1.376 . S
N432 C436 1.374 . S
C433 N432 1.376 . S
C433 C434 1.443 . S
C433 C460 1.389 . S
C434 C433 1.443 . S
C434 C435 1.340 . S
C434 H466 0.951 . S
C435 C434 1.340 . S
C435 C436 1.439 . S
C435 H467 0.950 . S
C436 N432 1.374 . S
C436 C435 1.439 . S
C436 C461 1.420 . S
N437 Co426 1.995 . S
N437 C438 1.376 . S
N437 C441 1.383 . S
C438 N437 1.376 . S
C438 C439 1.446 . S
C438 C461 1.365 1_545 S
C439 C438 1.446 . S
C439 C440 1.339 . S
C439 H468 0.949 . S
C440 C439 1.339 . S
C440 C441 1.439 . S
C440 H469 0.950 . S
C441 N437 1.383 . S
C441 C440 1.439 . S
C441 C459 1.392 . S
N442 Co426 2.282 1_565 S
N442 C445 1.332 . S
N442 C447 1.332 . S
C443 C444 1.386 . S
C443 C446 1.388 . S
C444 C443 1.386 . S
C444 C445 1.382 . S
C444 H470 0.950 . S
C445 N442 1.332 . S
C445 C444 1.382 . S
C445 H456 0.952 . S
C446 C443 1.388 . S
C446 C447 1.382 . S
C446 H471 0.950 . S
C447 N442 1.332 . S
C447 C446 1.382 . S
C447 H457 0.948 . S
N448 Co426 2.282 . S
N448 C452 1.332 . S
N448 C453 1.332 . S
C449 C450 1.388 . S
C449 C453 1.382 . S
C449 H472 0.950 . S
C450 C449 1.388 . S
C450 C451 1.386 . S
C451 C450 1.386 . S
C451 C452 1.382 . S
C451 H473 0.950 . S
C452 N448 1.332 . S
C452 C451 1.382 . S
C452 H454 0.952 . S
C453 N448 1.332 . S
C453 C449 1.382 . S
C453 H455 0.948 . S
H454 C452 0.952 . S
H455 C453 0.948 . S
H456 C445 0.952 . S
H457 C447 0.948 . S
C458 C424 1.395 . S
C458 C428 1.391 1_545 S
C459 C421 1.389 . S
C459 C441 1.392 . S
C460 C431 1.392 . S
C460 C433 1.389 . S
C461 C436 1.420 . S
C461 C438 1.365 1_565 S
H462 C422 0.951 . S
H463 C423 0.950 . S
H464 C429 0.949 . S
H465 C430 0.950 . S
H466 C434 0.951 . S
H467 C435 0.950 . S
H468 C439 0.949 . S
H469 C440 0.950 . S
H470 C444 0.950 . S
H471 C446 0.950 . S
H472 C449 0.950 . S
H473 C451 0.950 . S
C474 C475 1.443 . S
C474 N478 1.376 . S
C474 C512 1.389 . S
C475 C474 1.443 . S
C475 C476 1.340 . S
C475 H515 0.951 . S
C476 C475 1.340 . S
C476 C477 1.439 . S
C476 H516 0.950 . S
C477 C476 1.439 . S
C477 N478 1.374 . S
C477 C511 1.395 . S
N478 C474 1.376 . S
N478 C477 1.374 . S
N478 Co479 2.008 . S
Co479 N478 2.008 . S
Co479 N480 1.995 1_455 S
Co479 N485 2.008 1_455 S
Co479 N490 1.995 . S
Co479 N495 2.282 1_455 S
Co479 N501 2.282 . S
N480 Co479 1.995 1_655 S
N480 C481 1.376 . S
N480 C484 1.383 . S
C481 N480 1.376 . S
C481 C482 1.446 . S
C481 C511 1.391 1_655 S
C482 C481 1.446 . S
C482 C483 1.339 . S
C482 H517 0.949 . S
C483 C482 1.339 . S
C483 C484 1.439 . S
C483 H518 0.950 . S
C484 N480 1.383 . S
C484 C483 1.439 . S
C484 C513 1.392 . S
N485 Co479 2.008 1_655 S
N485 C486 1.376 . S
N485 C489 1.374 . S
C486 N485 1.376 . S
C486 C487 1.443 . S
C486 C513 1.389 . S
C487 C486 1.443 . S
C487 C488 1.340 . S
C487 H519 0.951 . S
C488 C487 1.340 . S
C488 C489 1.439 . S
C488 H520 0.950 . S
C489 N485 1.374 . S
C489 C488 1.439 . S
C489 C514 1.395 . S
N490 Co479 1.995 . S
N490 C491 1.376 . S
N490 C494 1.383 . S
C491 N490 1.376 . S
C491 C492 1.446 . S
C491 C514 1.391 1_455 S
C492 C491 1.446 . S
C492 C493 1.339 . S
C492 H521 0.949 . S
C493 C492 1.339 . S
C493 C494 1.439 . S
C493 H522 0.950 . S
C494 N490 1.383 . S
C494 C493 1.439 . S
C494 C512 1.392 . S
N495 Co479 2.282 1_655 S
N495 C498 1.332 . S
N495 C500 1.332 . S
C496 C497 1.386 . S
C496 C499 1.388 . S
C497 C496 1.386 . S
C497 C498 1.382 . S
C497 H523 0.950 . S
C498 N495 1.332 . S
C498 C497 1.382 . S
C498 H509 0.952 . S
C499 C496 1.388 . S
C499 C500 1.382 . S
C499 H524 0.950 . S
C500 N495 1.332 . S
C500 C499 1.382 . S
C500 H510 0.948 . S
N501 Co479 2.282 . S
N501 C505 1.332 . S
N501 C506 1.332 . S
C502 C503 1.388 . S
C502 C506 1.382 . S
C502 H525 0.950 . S
C503 C502 1.388 . S
C503 C504 1.386 . S
C504 C503 1.386 . S
C504 C505 1.382 . S
C504 H526 0.950 . S
C505 N501 1.332 . S
C505 C504 1.382 . S
C505 H507 0.952 . S
C506 N501 1.332 . S
C506 C502 1.382 . S
C506 H508 0.948 . S
H507 C505 0.952 . S
H508 C506 0.948 . S
H509 C498 0.952 . S
H510 C500 0.948 . S
C511 C477 1.395 . S
C511 C481 1.391 1_455 S
C512 C474 1.389 . S
C512 C494 1.392 . S
C513 C484 1.392 . S
C513 C486 1.389 . S
C514 C489 1.395 . S
C514 C491 1.391 1_655 S
H515 C475 0.951 . S
H516 C476 0.950 . S
H517 C482 0.949 . S
H518 C483 0.950 . S
H519 C487 0.951 . S
H520 C488 0.950 . S
H521 C492 0.949 . S
H522 C493 0.950 . S
H523 C497 0.950 . S
H524 C499 0.950 . S
H525 C502 0.950 . S
H526 C504 0.950 . S
C527 C528 1.443 . S
C527 N531 1.376 . S
C527 C565 1.389 . S
C528 C527 1.443 . S
C528 C529 1.340 . S
C528 H568 0.951 . S
C529 C528 1.340 . S
C529 C530 1.439 . S
C529 H569 0.950 . S
C530 C529 1.439 . S
C530 N531 1.374 . S
C530 C564 1.424 . S
N531 C527 1.376 . S
N531 C530 1.374 . S
N531 Co532 2.008 1_565 S
Co532 N531 2.008 1_545 S
Co532 N533 1.995 . S
Co532 N538 2.008 . S
Co532 N543 1.995 1_545 S
Co532 N548 2.282 . S
Co532 N554 2.282 1_545 S
N533 Co532 1.995 . S
N533 C534 1.376 . S
N533 C537 1.383 . S
C534 N533 1.376 . S
C534 C535 1.446 . S
C534 C564 1.361 1_545 S
C535 C534 1.446 . S
C535 C536 1.339 . S
C535 H570 0.949 . S
C536 C535 1.339 . S
C536 C537 1.439 . S
C536 H571 0.950 . S
C537 N533 1.383 . S
C537 C536 1.439 . S
C537 C566 1.392 . S
N538 Co532 2.008 . S
N538 C539 1.376 . S
N538 C542 1.374 . S
C539 N538 1.376 . S
C539 C540 1.443 . S
C539 C566 1.389 . S
C540 C539 1.443 . S
C540 C541 1.340 . S
C540 H572 0.951 . S
C541 C540 1.340 . S
C541 C542 1.439 . S
C541 H573 0.950 . S
C542 N538 1.374 . S
C542 C541 1.439 . S
C542 C567 1.395 . S
N543 Co532 1.995 1_565 S
N543 C544 1.376 . S
N543 C547 1.383 . S
C544 N543 1.376 . S
C544 C545 1.446 . S
C544 C567 1.391 1_565 S
C545 C544 1.446 . S
C545 C546 1.339 . S
C545 H574 0.949 . S
C546 C545 1.339 . S
C546 C547 1.439 . S
C546 H575 0.950 . S
C547 N543 1.383 . S
C547 C546 1.439 . S
C547 C565 1.392 . S
N548 Co532 2.282 . S
N548 C551 1.332 . S
N548 C553 1.332 . S
C549 C550 1.386 . S
C549 C552 1.388 . S
C550 C549 1.386 . S
C550 C551 1.382 . S
C550 H576 0.950 . S
C551 N548 1.332 . S
C551 C550 1.382 . S
C551 H562 0.952 . S
C552 C549 1.388 . S
C552 C553 1.382 . S
C552 H577 0.950 . S
C553 N548 1.332 . S
C553 C552 1.382 . S
C553 H563 0.948 . S
N554 Co532 2.282 1_565 S
N554 C558 1.332 . S
N554 C559 1.332 . S
C555 C556 1.388 . S
C555 C559 1.382 . S
C555 H578 0.950 . S
C556 C555 1.388 . S
C556 C557 1.386 . S
C557 C556 1.386 . S
C557 C558 1.382 . S
C557 H579 0.950 . S
C558 N554 1.332 . S
C558 C557 1.382 . S
C558 H560 0.952 . S
C559 N554 1.332 . S
C559 C555 1.382 . S
C559 H561 0.948 . S
H560 C558 0.952 . S
H561 C559 0.948 . S
H562 C551 0.952 . S
H563 C553 0.948 . S
C564 C530 1.424 . S
C564 C534 1.361 1_565 S
C565 C527 1.389 . S
C565 C547 1.392 . S
C566 C537 1.392 . S
C566 C539 1.389 . S
C567 C542 1.395 . S
C567 C544 1.391 1_545 S
H568 C528 0.951 . S
H569 C529 0.950 . S
H570 C535 0.949 . S
H571 C536 0.950 . S
H572 C540 0.951 . S
H573 C541 0.950 . S
H574 C545 0.949 . S
H575 C546 0.950 . S
H576 C550 0.950 . S
H577 C552 0.950 . S
H578 C555 0.950 . S
H579 C557 0.950 . S
C580 C581 1.443 . S
C580 N584 1.376 . S
C580 C618 1.389 . S
C581 C580 1.443 . S
C581 C582 1.340 . S
C581 H621 0.951 . S
C582 C581 1.340 . S
C582 C583 1.439 . S
C582 H622 0.950 . S
C583 C582 1.439 . S
C583 N584 1.374 . S
C583 C617 1.383 1_554 S
N584 C580 1.376 . S
N584 C583 1.374 . S
N584 Co585 2.008 . S
Co585 N584 2.008 . S
Co585 N586 1.995 1_554 S
Co585 N591 2.008 1_554 S
Co585 N596 1.995 . S
Co585 N601 2.282 . S
Co585 N607 2.282 1_554 S
N586 Co585 1.995 1_556 S
N586 C587 1.376 . S
N586 C590 1.383 . S
C587 N586 1.376 . S
C587 C588 1.446 . S
C587 C617 1.402 . S
C588 C587 1.446 . S
C588 C589 1.339 . S
C588 H623 0.949 . S
C589 C588 1.339 . S
C589 C590 1.439 . S
C589 H624 0.950 . S
C590 N586 1.383 . S
C590 C589 1.439 . S
C590 C619 1.392 . S
N591 Co585 2.008 1_556 S
N591 C592 1.376 . S
N591 C595 1.374 . S
C592 N591 1.376 . S
C592 C593 1.443 . S
C592 C619 1.389 . S
C593 C592 1.443 . S
C593 C594 1.340 . S
C593 H625 0.951 . S
C594 C593 1.340 . S
C594 C595 1.439 . S
C594 H626 0.950 . S
C595 N591 1.374 . S
C595 C594 1.439 . S
C595 C620 1.380 1_556 S
N596 Co585 1.995 . S
N596 C597 1.376 . S
N596 C600 1.383 . S
C597 N596 1.376 . S
C597 C598 1.446 . S
C597 C620 1.405 . S
C598 C597 1.446 . S
C598 C599 1.339 . S
C598 H627 0.949 . S
C599 C598 1.339 . S
C599 C600 1.439 . S
C599 H628 0.950 . S
C600 N596 1.383 . S
C600 C599 1.439 . S
C600 C618 1.392 . S
N601 Co585 2.282 . S
N601 C604 1.332 . S
N601 C606 1.332 . S
C602 C603 1.386 . S
C602 C605 1.388 . S
C603 C602 1.386 . S
C603 C604 1.382 . S
C603 H629 0.950 . S
C604 N601 1.332 . S
C604 C603 1.382 . S
C604 H615 0.952 . S
C605 C602 1.388 . S
C605 C606 1.382 . S
C605 H630 0.950 . S
C606 N601 1.332 . S
C606 C605 1.382 . S
C606 H616 0.948 . S
N607 Co585 2.282 1_556 S
N607 C611 1.332 . S
N607 C612 1.332 . S
C608 C609 1.388 . S
C608 C612 1.382 . S
C608 H631 0.950 . S
C609 C608 1.388 . S
C609 C610 1.386 . S
C610 C609 1.386 . S
C610 C611 1.382 . S
C610 H632 0.950 . S
C611 N607 1.332 . S
C611 C610 1.382 . S
C611 H613 0.952 . S
C612 N607 1.332 . S
C612 C608 1.382 . S
C612 H614 0.948 . S
H613 C611 0.952 . S
H614 C612 0.948 . S
H615 C604 0.952 . S
H616 C606 0.948 . S
C617 C583 1.383 1_556 S
C617 C587 1.402 . S
C618 C580 1.389 . S
C618 C600 1.392 . S
C619 C590 1.392 . S
C619 C592 1.389 . S
C620 C595 1.380 1_554 S
C620 C597 1.405 . S
H621 C581 0.951 . S
H622 C582 0.950 . S
H623 C588 0.949 . S
H624 C589 0.950 . S
H625 C593 0.951 . S
H626 C594 0.950 . S
H627 C598 0.949 . S
H628 C599 0.950 . S
H629 C603 0.950 . S
H630 C605 0.950 . S
H631 C608 0.950 . S
H632 C610 0.950 . S
C633 C634 1.443 . S
C633 N637 1.376 . S
C633 C671 1.389 . S
C634 C633 1.443 . S
C634 C635 1.340 . S
C634 H674 0.951 . S
C635 C634 1.340 . S
C635 C636 1.439 . S
C635 H675 0.950 . S
C636 C635 1.439 . S
C636 N637 1.374 . S
C636 C670 1.380 1_554 S
N637 C633 1.376 . S
N637 C636 1.374 . S
N637 Co638 2.008 . S
Co638 N637 2.008 . S
Co638 N639 1.995 1_554 S
Co638 N644 2.008 1_554 S
Co638 N649 1.995 . S
Co638 N654 2.282 . S
Co638 N660 2.282 1_554 S
N639 Co638 1.995 1_556 S
N639 C640 1.376 . S
N639 C643 1.383 . S
C640 N639 1.376 . S
C640 C641 1.446 . S
C640 C670 1.405 . S
C641 C640 1.446 . S
C641 C642 1.339 . S
C641 H676 0.949 . S
C642 C641 1.339 . S
C642 C643 1.439 . S
C642 H677 0.950 . S
C643 N639 1.383 . S
C643 C642 1.439 . S
C643 C672 1.392 . S
N644 Co638 2.008 1_556 S
N644 C645 1.376 . S
N644 C648 1.374 1_556 S
C645 N644 1.376 . S
C645 C646 1.443 . S
C645 C672 1.389 . S
C646 C645 1.443 . S
C646 C647 1.340 . S
C646 H678 0.951 . S
C647 C646 1.340 . S
C647 C648 1.439 1_556 S
C647 H679 0.950 . S
C648 N644 1.374 1_554 S
C648 C647 1.439 1_554 S
C648 C673 1.395 . S
N649 Co638 1.995 . S
N649 C650 1.376 . S
N649 C653 1.383 . S
C650 N649 1.376 . S
C650 C651 1.446 . S
C650 C673 1.391 . S
C651 C650 1.446 . S
C651 C652 1.339 . S
C651 H680 0.949 . S
C652 C651 1.339 . S
C652 C653 1.439 . S
C652 H681 0.950 . S
C653 N649 1.383 . S
C653 C652 1.439 . S
C653 C671 1.392 . S
N654 Co638 2.282 . S
N654 C657 1.332 . S
N654 C659 1.332 . S
C655 C656 1.386 . S
C655 C658 1.388 . S
C656 C655 1.386 . S
C656 C657 1.382 . S
C656 H682 0.950 . S
C657 N654 1.332 . S
C657 C656 1.382 . S
C657 H668 0.952 . S
C658 C655 1.388 . S
C658 C659 1.382 . S
C658 H683 0.950 . S
C659 N654 1.332 . S
C659 C658 1.382 . S
C659 H669 0.948 . S
N660 Co638 2.282 1_556 S
N660 C664 1.332 . S
N660 C665 1.332 . S
C661 C662 1.388 . S
C661 C665 1.382 . S
C661 H684 0.950 . S
C662 C661 1.388 . S
C662 C663 1.386 . S
C663 C662 1.386 . S
C663 C664 1.382 . S
C663 H685 0.950 . S
C664 N660 1.332 . S
C664 C663 1.382 . S
C664 H666 0.952 . S
C665 N660 1.332 . S
C665 C661 1.382 . S
C665 H667 0.948 . S
H666 C664 0.952 . S
H667 C665 0.948 . S
H668 C657 0.952 . S
H669 C659 0.948 . S
C670 C636 1.380 1_556 S
C670 C640 1.405 . S
C671 C633 1.389 . S
C671 C653 1.392 . S
C672 C643 1.392 . S
C672 C645 1.389 . S
C673 C648 1.395 . S
C673 C650 1.391 . S
H674 C634 0.951 . S
H675 C635 0.950 . S
H676 C641 0.949 . S
H677 C642 0.950 . S
H678 C646 0.951 . S
H679 C647 0.950 . S
H680 C651 0.949 . S
H681 C652 0.950 . S
H682 C656 0.950 . S
H683 C658 0.950 . S
H684 C661 0.950 . S
H685 C663 0.950 . S
C686 C687 1.443 . S
C686 N690 1.376 1_556 S
C686 C724 1.389 . S
C687 C686 1.443 . S
C687 C688 1.352 . S
C687 H727 0.951 . S
C688 C687 1.352 . S
C688 C689 1.429 1_556 S
C688 H728 0.949 1_556 S
C689 C688 1.429 1_554 S
C689 N690 1.374 . S
C689 C723 1.395 . S
N690 C686 1.376 1_554 S
N690 C689 1.374 . S
N690 Co691 2.008 . S
Co691 N690 2.008 . S
Co691 N692 1.995 . S
Co691 N697 2.008 . S
Co691 N702 1.995 1_554 S
Co691 N707 2.282 1_554 S
Co691 N713 2.282 . S
N692 Co691 1.995 . S
N692 C693 1.376 . S
N692 C696 1.383 . S
C693 N692 1.376 . S
C693 C694 1.446 . S
C693 C723 1.391 . S
C694 C693 1.446 . S
C694 C695 1.339 . S
C694 H729 0.949 . S
C695 C694 1.339 . S
C695 C696 1.439 . S
C695 H730 0.950 . S
C696 N692 1.383 . S
C696 C695 1.439 . S
C696 C725 1.392 . S
N697 Co691 2.008 . S
N697 C698 1.376 . S
N697 C701 1.374 . S
C698 N697 1.376 . S
C698 C699 1.443 . S
C698 C725 1.389 . S
C699 C698 1.443 . S
C699 C700 1.340 . S
C699 H731 0.951 . S
C700 C699 1.340 . S
C700 C701 1.439 . S
C700 H732 0.950 . S
C701 N697 1.374 . S
C701 C700 1.439 . S
C701 C726 1.395 . S
N702 Co691 1.995 1_556 S
N702 C703 1.376 . S
N702 C706 1.383 . S
C703 N702 1.376 . S
C703 C704 1.446 . S
C703 C726 1.391 1_556 S
C704 C703 1.446 . S
C704 C705 1.339 . S
C704 H733 0.949 . S
C705 C704 1.339 . S
C705 C706 1.439 . S
C705 H734 0.950 . S
C706 N702 1.383 . S
C706 C705 1.439 . S
C706 C724 1.392 . S
N707 Co691 2.282 1_556 S
N707 C710 1.332 . S
N707 C712 1.332 . S
C708 C709 1.386 . S
C708 C711 1.388 . S
C709 C708 1.386 . S
C709 C710 1.382 . S
C709 H735 0.950 . S
C710 N707 1.332 . S
C710 C709 1.382 . S
C710 H721 0.952 . S
C711 C708 1.388 . S
C711 C712 1.382 . S
C711 H736 0.950 . S
C712 N707 1.332 . S
C712 C711 1.382 . S
C712 H722 0.948 1_556 S
N713 Co691 2.282 . S
N713 C717 1.332 . S
N713 C718 1.332 . S
C714 C715 1.388 . S
C714 C718 1.382 . S
C714 H737 0.950 . S
C715 C714 1.388 . S
C715 C716 1.386 . S
C716 C715 1.386 . S
C716 C717 1.382 . S
C716 H738 0.950 . S
C717 N713 1.332 . S
C717 C716 1.382 . S
C717 H719 0.952 . S
C718 N713 1.332 . S
C718 C714 1.382 . S
C718 H720 0.948 . S
H719 C717 0.952 . S
H720 C718 0.948 . S
H721 C710 0.952 . S
H722 C712 0.948 1_554 S
C723 C689 1.395 . S
C723 C693 1.391 . S
C724 C686 1.389 . S
C724 C706 1.392 . S
C725 C696 1.392 . S
C725 C698 1.389 . S
C726 C701 1.395 . S
C726 C703 1.391 1_554 S
H727 C687 0.951 . S
H728 C688 0.949 1_554 S
H729 C694 0.949 . S
H730 C695 0.950 . S
H731 C699 0.951 . S
H732 C700 0.950 . S
H733 C704 0.949 . S
H734 C705 0.950 . S
H735 C709 0.950 . S
H736 C711 0.950 . S
H737 C714 0.950 . S
H738 C716 0.950 . S
C739 C740 1.443 . S
C739 N743 1.376 . S
C739 C777 1.389 . S
C740 C739 1.443 . S
C740 C741 1.340 . S
C740 H780 0.951 . S
C741 C740 1.340 . S
C741 C742 1.439 . S
C741 H781 0.950 . S
C742 C741 1.439 . S
C742 N743 1.374 . S
C742 C776 1.395 1_554 S
N743 C739 1.376 . S
N743 C742 1.374 . S
N743 Co744 2.008 . S
Co744 N743 2.008 . S
Co744 N745 1.995 1_554 S
Co744 N750 2.008 1_554 S
Co744 N755 1.995 . S
Co744 N760 2.282 . S
Co744 N766 2.282 1_554 S
N745 Co744 1.995 1_556 S
N745 C746 1.376 . S
N745 C749 1.383 . S
C746 N745 1.376 . S
C746 C747 1.446 . S
C746 C776 1.391 . S
C747 C746 1.446 . S
C747 C748 1.339 . S
C747 H782 0.949 . S
C748 C747 1.339 . S
C748 C749 1.439 . S
C748 H783 0.950 . S
C749 N745 1.383 . S
C749 C748 1.439 . S
C749 C778 1.392 . S
N750 Co744 2.008 1_556 S
N750 C751 1.376 . S
N750 C754 1.374 1_556 S
C751 N750 1.376 . S
C751 C752 1.443 . S
C751 C778 1.389 . S
C752 C751 1.443 . S
C752 C753 1.340 . S
C752 H784 0.951 . S
C753 C752 1.340 . S
C753 C754 1.439 1_556 S
C753 H785 0.950 . S
C754 N750 1.374 1_554 S
C754 C753 1.439 1_554 S
C754 C779 1.395 . S
N755 Co744 1.995 . S
N755 C756 1.376 . S
N755 C759 1.383 . S
C756 N755 1.376 . S
C756 C757 1.446 . S
C756 C779 1.391 . S
C757 C756 1.446 . S
C757 C758 1.339 . S
C757 H786 0.949 . S
C758 C757 1.339 . S
C758 C759 1.439 . S
C758 H787 0.950 . S
C759 N755 1.383 . S
C759 C758 1.439 . S
C759 C777 1.392 . S
N760 Co744 2.282 . S
N760 C763 1.332 . S
N760 C765 1.332 . S
C761 C762 1.386 . S
C761 C764 1.388 . S
C762 C761 1.386 . S
C762 C763 1.382 . S
C762 H788 0.950 . S
C763 N760 1.332 . S
C763 C762 1.382 . S
C763 H774 0.952 . S
C764 C761 1.388 . S
C764 C765 1.382 . S
C764 H789 0.950 . S
C765 N760 1.332 . S
C765 C764 1.382 . S
C765 H775 0.948 . S
N766 Co744 2.282 1_556 S
N766 C770 1.332 . S
N766 C771 1.332 . S
C767 C768 1.388 . S
C767 C771 1.382 . S
C767 H790 0.950 . S
C768 C767 1.388 . S
C768 C769 1.386 . S
C769 C768 1.386 . S
C769 C770 1.382 . S
C769 H791 0.950 . S
C770 N766 1.332 . S
C770 C769 1.382 . S
C770 H772 0.952 . S
C771 N766 1.332 . S
C771 C767 1.382 . S
C771 H773 0.948 . S
H772 C770 0.952 . S
H773 C771 0.948 . S
H774 C763 0.952 . S
H775 C765 0.948 . S
C776 C742 1.395 1_556 S
C776 C746 1.391 . S
C777 C739 1.389 . S
C777 C759 1.392 . S
C778 C749 1.392 . S
C778 C751 1.389 . S
C779 C754 1.395 . S
C779 C756 1.391 . S
H780 C740 0.951 . S
H781 C741 0.950 . S
H782 C747 0.949 . S
H783 C748 0.950 . S
H784 C752 0.951 . S
H785 C753 0.950 . S
H786 C757 0.949 . S
H787 C758 0.950 . S
H788 C762 0.950 . S
H789 C764 0.950 . S
H790 C767 0.950 . S
H791 C769 0.950 . S
C792 C793 1.363 . S
C792 C798 1.379 . S
C792 N800 1.356 . S
C793 C792 1.363 . S
C793 C799 1.363 . S
C794 C795 1.363 . S
C794 C799 1.379 . S
C794 N801 1.356 . S
C795 C794 1.363 . S
C795 C798 1.363 . S
N796 C798 1.356 . S
N796 H808 0.984 . S
N796 H809 0.985 . S
N797 C799 1.356 . S
N797 H802 0.984 . S
N797 H803 0.985 . S
C798 C792 1.379 . S
C798 C795 1.363 . S
C798 N796 1.356 . S
C799 C793 1.363 . S
C799 C794 1.379 . S
C799 N797 1.356 . S
N800 C792 1.356 . S
N800 H806 0.984 . S
N800 H807 0.984 . S
N801 C794 1.356 . S
N801 H804 0.984 . S
N801 H805 0.985 . S
H802 N797 0.984 . S
H803 N797 0.985 . S
H804 N801 0.984 . S
H805 N801 0.985 . S
H806 N800 0.984 . S
H807 N800 0.984 . S
H808 N796 0.984 . S
H809 N796 0.985 . S
C810 C811 1.363 . S
C810 C816 1.379 . S
C810 N818 1.356 . S
C811 C810 1.363 . S
C811 C817 1.363 . S
C812 C813 1.363 . S
C812 C817 1.379 . S
C812 N819 1.356 . S
C813 C812 1.363 . S
C813 C816 1.363 . S
N814 C816 1.356 . S
N814 H826 0.984 . S
N814 H827 0.985 . S
N815 C817 1.356 . S
N815 H820 0.984 . S
N815 H821 0.985 . S
C816 C810 1.379 . S
C816 C813 1.363 . S
C816 N814 1.356 . S
C817 C811 1.363 . S
C817 C812 1.379 . S
C817 N815 1.356 . S
N818 C810 1.356 . S
N818 H824 0.984 . S
N818 H825 0.984 . S
N819 C812 1.356 . S
N819 H822 0.984 . S
N819 H823 0.985 . S
H820 N815 0.984 . S
H821 N815 0.985 . S
H822 N819 0.984 . S
H823 N819 0.985 . S
H824 N818 0.984 . S
H825 N818 0.984 . S
H826 N814 0.984 . S
H827 N814 0.985 . S
C828 C829 1.363 . S
C828 C834 1.379 . S
C828 N836 1.356 . S
C829 C828 1.363 . S
C829 C835 1.363 . S
C830 C831 1.363 . S
C830 C835 1.379 . S
C830 N837 1.356 . S
C831 C830 1.363 . S
C831 C834 1.363 . S
N832 C834 1.356 . S
N832 H844 0.984 . S
N832 H845 0.985 . S
N833 C835 1.356 . S
N833 H838 0.984 . S
N833 H839 0.985 . S
C834 C828 1.379 . S
C834 C831 1.363 . S
C834 N832 1.356 . S
C835 C829 1.363 . S
C835 C830 1.379 . S
C835 N833 1.356 . S
N836 C828 1.356 . S
N836 H842 0.984 . S
N836 H843 0.984 . S
N837 C830 1.356 . S
N837 H840 0.984 . S
N837 H841 0.985 . S
H838 N833 0.984 . S
H839 N833 0.985 . S
H840 N837 0.984 . S
H841 N837 0.985 . S
H842 N836 0.984 . S
H843 N836 0.984 . S
H844 N832 0.984 . S
H845 N832 0.985 . S
C846 C847 1.363 . S
C846 C852 1.379 . S
C846 N854 1.356 . S
C847 C846 1.363 . S
C847 C853 1.363 . S
C848 C849 1.363 . S
C848 C853 1.379 . S
C848 N855 1.356 . S
C849 C848 1.363 . S
C849 C852 1.363 . S
N850 C852 1.356 . S
N850 H862 0.984 . S
N850 H863 0.985 . S
N851 C853 1.356 . S
N851 H856 0.984 . S
N851 H857 0.985 . S
C852 C846 1.379 . S
C852 C849 1.363 . S
C852 N850 1.356 . S
C853 C847 1.363 . S
C853 C848 1.379 . S
C853 N851 1.356 . S
N854 C846 1.356 . S
N854 H860 0.984 . S
N854 H861 0.984 . S
N855 C848 1.356 . S
N855 H858 0.984 . S
N855 H859 0.985 . S
H856 N851 0.984 . S
H857 N851 0.985 . S
H858 N855 0.984 . S
H859 N855 0.985 . S
H860 N854 0.984 . S
H861 N854 0.984 . S
H862 N850 0.984 . S
H863 N850 0.985 . S
C864 C865 1.363 . S
C864 C870 1.379 . S
C864 N872 1.356 . S
C865 C864 1.363 . S
C865 C871 1.363 . S
C866 C867 1.363 . S
C866 C871 1.379 . S
C866 N873 1.356 . S
C867 C866 1.363 . S
C867 C870 1.363 . S
N868 C870 1.356 . S
N868 H880 0.984 . S
N868 H881 0.985 . S
N869 C871 1.356 . S
N869 H874 0.984 . S
N869 H875 0.985 . S
C870 C864 1.379 . S
C870 C867 1.363 . S
C870 N868 1.356 . S
C871 C865 1.363 . S
C871 C866 1.379 . S
C871 N869 1.356 . S
N872 C864 1.356 . S
N872 H878 0.984 . S
N872 H879 0.984 . S
N873 C866 1.356 . S
N873 H876 0.984 . S
N873 H877 0.985 . S
H874 N869 0.984 . S
H875 N869 0.985 . S
H876 N873 0.984 . S
H877 N873 0.985 . S
H878 N872 0.984 . S
H879 N872 0.984 . S
H880 N868 0.984 . S
H881 N868 0.985 . S
C882 C883 1.363 . S
C882 C888 1.379 . S
C882 N890 1.356 . S
C883 C882 1.363 . S
C883 C889 1.363 . S
C884 C885 1.363 . S
C884 C889 1.379 . S
C884 N891 1.356 . S
C885 C884 1.363 . S
C885 C888 1.363 . S
N886 C888 1.356 . S
N886 H898 0.984 . S
N886 H899 0.985 . S
N887 C889 1.356 . S
N887 H892 0.984 . S
N887 H893 0.985 . S
C888 C882 1.379 . S
C888 C885 1.363 . S
C888 N886 1.356 . S
C889 C883 1.363 . S
C889 C884 1.379 . S
C889 N887 1.356 . S
N890 C882 1.356 . S
N890 H896 0.984 . S
N890 H897 0.984 . S
N891 C884 1.356 . S
N891 H894 0.984 . S
N891 H895 0.985 . S
H892 N887 0.984 . S
H893 N887 0.985 . S
H894 N891 0.984 . S
H895 N891 0.985 . S
H896 N890 0.984 . S
H897 N890 0.984 . S
H898 N886 0.984 . S
H899 N886 0.985 . S
C900 C901 1.363 . S
C900 C906 1.379 . S
C900 N908 1.356 . S
C901 C900 1.363 . S
C901 C907 1.363 . S
C902 C903 1.363 . S
C902 C907 1.379 . S
C902 N909 1.356 . S
C903 C902 1.363 . S
C903 C906 1.363 . S
N904 C906 1.356 . S
N904 H916 0.984 . S
N904 H917 0.985 . S
N905 C907 1.356 . S
N905 H910 0.984 . S
N905 H911 0.985 . S
C906 C900 1.379 . S
C906 C903 1.363 . S
C906 N904 1.356 . S
C907 C901 1.363 . S
C907 C902 1.379 . S
C907 N905 1.356 . S
N908 C900 1.356 . S
N908 H914 0.984 . S
N908 H915 0.984 . S
N909 C902 1.356 . S
N909 H912 0.984 . S
N909 H913 0.985 . S
H910 N905 0.984 . S
H911 N905 0.985 . S
H912 N909 0.984 . S
H913 N909 0.985 . S
H914 N908 0.984 . S
H915 N908 0.984 . S
H916 N904 0.984 . S
H917 N904 0.985 . S
C918 C919 1.363 . S
C918 C924 1.379 . S
C918 N926 1.356 . S
C919 C918 1.363 . S
C919 C925 1.363 . S
C920 C921 1.363 . S
C920 C925 1.379 . S
C920 N927 1.356 . S
C921 C920 1.363 . S
C921 C924 1.363 . S
N922 C924 1.356 . S
N922 H934 0.984 . S
N922 H935 0.985 . S
N923 C925 1.356 . S
N923 H928 0.984 . S
N923 H929 0.985 . S
C924 C918 1.379 . S
C924 C921 1.363 . S
C924 N922 1.356 . S
C925 C919 1.363 . S
C925 C920 1.379 . S
C925 N923 1.356 . S
N926 C918 1.356 . S
N926 H932 0.984 . S
N926 H933 0.984 . S
N927 C920 1.356 . S
N927 H930 0.984 . S
N927 H931 0.985 . S
H928 N923 0.984 . S
H929 N923 0.985 . S
H930 N927 0.984 . S
H931 N927 0.985 . S
H932 N926 0.984 . S
H933 N926 0.984 . S
H934 N922 0.984 . S
H935 N922 0.985 . S
C936 C937 1.363 . S
C936 C942 1.379 . S
C936 N944 1.356 . S
C937 C936 1.363 . S
C937 C943 1.363 . S
C938 C939 1.363 . S
C938 C943 1.379 . S
C938 N945 1.356 . S
C939 C938 1.363 . S
C939 C942 1.363 . S
N940 C942 1.356 . S
N940 H952 0.984 . S
N940 H953 0.985 . S
N941 C943 1.356 . S
N941 H946 0.984 . S
N941 H947 0.985 . S
C942 C936 1.379 . S
C942 C939 1.363 . S
C942 N940 1.356 . S
C943 C937 1.363 . S
C943 C938 1.379 . S
C943 N941 1.356 . S
N944 C936 1.356 . S
N944 H950 0.984 . S
N944 H951 0.984 . S
N945 C938 1.356 . S
N945 H948 0.984 . S
N945 H949 0.985 . S
H946 N941 0.984 . S
H947 N941 0.985 . S
H948 N945 0.984 . S
H949 N945 0.985 . S
H950 N944 0.984 . S
H951 N944 0.984 . S
H952 N940 0.984 . S
H953 N940 0.985 . S
C954 C955 1.363 . S
C954 C960 1.379 . S
C954 N962 1.356 . S
C955 C954 1.363 . S
C955 C961 1.363 . S
C956 C957 1.363 . S
C956 C961 1.379 . S
C956 N963 1.356 . S
C957 C956 1.363 . S
C957 C960 1.363 . S
N958 C960 1.356 . S
N958 H970 0.984 . S
N958 H971 0.985 . S
N959 C961 1.356 . S
N959 H964 0.984 . S
N959 H965 0.985 . S
C960 C954 1.379 . S
C960 C957 1.363 . S
C960 N958 1.356 . S
C961 C955 1.363 . S
C961 C956 1.379 . S
C961 N959 1.356 . S
N962 C954 1.356 . S
N962 H968 0.984 . S
N962 H969 0.984 . S
N963 C956 1.356 . S
N963 H966 0.984 . S
N963 H967 0.985 . S
H964 N959 0.984 . S
H965 N959 0.985 . S
H966 N963 0.984 . S
H967 N963 0.985 . S
H968 N962 0.984 . S
H969 N962 0.984 . S
H970 N958 0.984 . S
H971 N958 0.985 . S
C972 C973 1.363 . S
C972 C978 1.379 . S
C972 N980 1.356 . S
C973 C972 1.363 . S
C973 C979 1.363 . S
C974 C975 1.363 . S
C974 C979 1.379 . S
C974 N981 1.356 . S
C975 C974 1.363 . S
C975 C978 1.363 . S
N976 C978 1.356 . S
N976 H988 0.984 . S
N976 H989 0.985 . S
N977 C979 1.356 . S
N977 H982 0.984 . S
N977 H983 0.985 . S
C978 C972 1.379 . S
C978 C975 1.363 . S
C978 N976 1.356 . S
C979 C973 1.363 . S
C979 C974 1.379 . S
C979 N977 1.356 . S
N980 C972 1.356 . S
N980 H986 0.984 . S
N980 H987 0.984 . S
N981 C974 1.356 . S
N981 H984 0.984 . S
N981 H985 0.985 . S
H982 N977 0.984 . S
H983 N977 0.985 . S
H984 N981 0.984 . S
H985 N981 0.985 . S
H986 N980 0.984 . S
H987 N980 0.984 . S
H988 N976 0.984 . S
H989 N976 0.985 . S
C990 C991 1.363 . S
C990 C996 1.379 . S
C990 N998 1.356 . S
C991 C990 1.363 . S
C991 C997 1.363 . S
C992 C993 1.363 . S
C992 C997 1.379 . S
C992 N999 1.356 . S
C993 C992 1.363 . S
C993 C996 1.363 . S
N994 C996 1.356 . S
N994 H1006 0.984 . S
N994 H1007 0.985 . S
N995 C997 1.356 . S
N995 H1000 0.984 . S
N995 H1001 0.985 . S
C996 C990 1.379 . S
C996 C993 1.363 . S
C996 N994 1.356 . S
C997 C991 1.363 . S
C997 C992 1.379 . S
C997 N995 1.356 . S
N998 C990 1.356 . S
N998 H1004 0.984 . S
N998 H1005 0.984 . S
N999 C992 1.356 . S
N999 H1002 0.984 . S
N999 H1003 0.985 . S
H1000 N995 0.984 . S
H1001 N995 0.985 . S
H1002 N999 0.984 . S
H1003 N999 0.985 . S
H1004 N998 0.984 . S
H1005 N998 0.984 . S
H1006 N994 0.984 . S
H1007 N994 0.985 . S
C1008 C1009 1.363 . S
C1008 C1014 1.379 . S
C1008 N1016 1.356 . S
C1009 C1008 1.363 . S
C1009 C1015 1.363 . S
C1010 C1011 1.363 . S
C1010 C1015 1.379 . S
C1010 N1017 1.356 . S
C1011 C1010 1.363 . S
C1011 C1014 1.363 . S
N1012 C1014 1.356 . S
N1012 H1024 0.984 . S
N1012 H1025 0.985 . S
N1013 C1015 1.356 . S
N1013 H1018 0.984 . S
N1013 H1019 0.985 . S
C1014 C1008 1.379 . S
C1014 C1011 1.363 . S
C1014 N1012 1.356 . S
C1015 C1009 1.363 . S
C1015 C1010 1.379 . S
C1015 N1013 1.356 . S
N1016 C1008 1.356 . S
N1016 H1022 0.984 . S
N1016 H1023 0.984 . S
N1017 C1010 1.356 . S
N1017 H1020 0.984 . S
N1017 H1021 0.985 . S
H1018 N1013 0.984 . S
H1019 N1013 0.985 . S
H1020 N1017 0.984 . S
H1021 N1017 0.985 . S
H1022 N1016 0.984 . S
H1023 N1016 0.984 . S
H1024 N1012 0.984 . S
H1025 N1012 0.985 . S
C1026 C1027 1.363 . S
C1026 C1032 1.379 . S
C1026 N1034 1.356 . S
C1027 C1026 1.363 . S
C1027 C1033 1.363 . S
C1028 C1029 1.363 . S
C1028 C1033 1.379 . S
C1028 N1035 1.356 . S
C1029 C1028 1.363 . S
C1029 C1032 1.363 . S
N1030 C1032 1.356 . S
N1030 H1042 0.984 . S
N1030 H1043 0.985 . S
N1031 C1033 1.356 . S
N1031 H1036 0.984 . S
N1031 H1037 0.985 . S
C1032 C1026 1.379 . S
C1032 C1029 1.363 . S
C1032 N1030 1.356 . S
C1033 C1027 1.363 . S
C1033 C1028 1.379 . S
C1033 N1031 1.356 . S
N1034 C1026 1.356 . S
N1034 H1040 0.984 . S
N1034 H1041 0.984 . S
N1035 C1028 1.356 . S
N1035 H1038 0.984 . S
N1035 H1039 0.985 . S
H1036 N1031 0.984 . S
H1037 N1031 0.985 . S
H1038 N1035 0.984 . S
H1039 N1035 0.985 . S
H1040 N1034 0.984 . S
H1041 N1034 0.984 . S
H1042 N1030 0.984 . S
H1043 N1030 0.985 . S
C1044 C1045 1.363 . S
C1044 C1050 1.379 . S
C1044 N1052 1.356 . S
C1045 C1044 1.363 . S
C1045 C1051 1.363 . S
C1046 C1047 1.363 . S
C1046 C1051 1.379 . S
C1046 N1053 1.356 . S
C1047 C1046 1.363 . S
C1047 C1050 1.363 . S
N1048 C1050 1.356 . S
N1048 H1060 0.984 . S
N1048 H1061 0.985 . S
N1049 C1051 1.356 . S
N1049 H1054 0.984 . S
N1049 H1055 0.985 . S
C1050 C1044 1.379 . S
C1050 C1047 1.363 . S
C1050 N1048 1.356 . S
C1051 C1045 1.363 . S
C1051 C1046 1.379 . S
C1051 N1049 1.356 . S
N1052 C1044 1.356 . S
N1052 H1058 0.984 . S
N1052 H1059 0.984 . S
N1053 C1046 1.356 . S
N1053 H1056 0.984 . S
N1053 H1057 0.985 . S
H1054 N1049 0.984 . S
H1055 N1049 0.985 . S
H1056 N1053 0.984 . S
H1057 N1053 0.985 . S
H1058 N1052 0.984 . S
H1059 N1052 0.984 . S
H1060 N1048 0.984 . S
H1061 N1048 0.985 . S
C1062 C1063 1.363 . S
C1062 C1068 1.379 . S
C1062 N1070 1.356 . S
C1063 C1062 1.363 . S
C1063 C1069 1.363 . S
C1064 C1065 1.363 . S
C1064 C1069 1.379 . S
C1064 N1071 1.356 . S
C1065 C1064 1.363 . S
C1065 C1068 1.363 . S
N1066 C1068 1.356 . S
N1066 H1078 0.984 . S
N1066 H1079 0.985 . S
N1067 C1069 1.356 . S
N1067 H1072 0.984 . S
N1067 H1073 0.985 . S
C1068 C1062 1.379 . S
C1068 C1065 1.363 . S
C1068 N1066 1.356 . S
C1069 C1063 1.363 . S
C1069 C1064 1.379 . S
C1069 N1067 1.356 . S
N1070 C1062 1.356 . S
N1070 H1076 0.984 . S
N1070 H1077 0.984 . S
N1071 C1064 1.356 . S
N1071 H1074 0.984 . S
N1071 H1075 0.985 . S
H1072 N1067 0.984 . S
H1073 N1067 0.985 . S
H1074 N1071 0.984 . S
H1075 N1071 0.985 . S
H1076 N1070 0.984 . S
H1077 N1070 0.984 . S
H1078 N1066 0.984 . S
H1079 N1066 0.985 . S
C1080 C1081 1.363 . S
C1080 C1086 1.379 . S
C1080 N1088 1.356 . S
C1081 C1080 1.363 . S
C1081 C1087 1.363 . S
C1082 C1083 1.363 . S
C1082 C1087 1.379 . S
C1082 N1089 1.356 . S
C1083 C1082 1.363 . S
C1083 C1086 1.363 . S
N1084 C1086 1.356 . S
N1084 H1096 0.984 . S
N1084 H1097 0.985 . S
N1085 C1087 1.356 . S
N1085 H1090 0.984 . S
N1085 H1091 0.985 . S
C1086 C1080 1.379 . S
C1086 C1083 1.363 . S
C1086 N1084 1.356 . S
C1087 C1081 1.363 . S
C1087 C1082 1.379 . S
C1087 N1085 1.356 . S
N1088 C1080 1.356 . S
N1088 H1094 0.984 . S
N1088 H1095 0.984 . S
N1089 C1082 1.356 . S
N1089 H1092 0.984 . S
N1089 H1093 0.985 . S
H1090 N1085 0.984 . S
H1091 N1085 0.985 . S
H1092 N1089 0.984 . S
H1093 N1089 0.985 . S
H1094 N1088 0.984 . S
H1095 N1088 0.984 . S
H1096 N1084 0.984 . S
H1097 N1084 0.985 . S
C1098 C1099 1.363 . S
C1098 C1104 1.379 . S
C1098 N1106 1.356 . S
C1099 C1098 1.363 . S
C1099 C1105 1.363 . S
C1100 C1101 1.363 . S
C1100 C1105 1.379 . S
C1100 N1107 1.356 . S
C1101 C1100 1.363 . S
C1101 C1104 1.363 . S
N1102 C1104 1.356 . S
N1102 H1114 0.984 . S
N1102 H1115 0.985 . S
N1103 C1105 1.356 . S
N1103 H1108 0.984 . S
N1103 H1109 0.985 . S
C1104 C1098 1.379 . S
C1104 C1101 1.363 . S
C1104 N1102 1.356 . S
C1105 C1099 1.363 . S
C1105 C1100 1.379 . S
C1105 N1103 1.356 . S
N1106 C1098 1.356 . S
N1106 H1112 0.984 . S
N1106 H1113 0.984 . S
N1107 C1100 1.356 . S
N1107 H1110 0.984 . S
N1107 H1111 0.985 . S
H1108 N1103 0.984 . S
H1109 N1103 0.985 . S
H1110 N1107 0.984 . S
H1111 N1107 0.985 . S
H1112 N1106 0.984 . S
H1113 N1106 0.984 . S
H1114 N1102 0.984 . S
H1115 N1102 0.985 . S
C1116 C1117 1.363 . S
C1116 C1122 1.379 . S
C1116 N1124 1.356 . S
C1117 C1116 1.363 . S
C1117 C1123 1.363 . S
C1118 C1119 1.363 . S
C1118 C1123 1.379 . S
C1118 N1125 1.356 . S
C1119 C1118 1.363 . S
C1119 C1122 1.363 . S
N1120 C1122 1.356 . S
N1120 H1132 0.984 . S
N1120 H1133 0.985 . S
N1121 C1123 1.356 . S
N1121 H1126 0.984 . S
N1121 H1127 0.985 . S
C1122 C1116 1.379 . S
C1122 C1119 1.363 . S
C1122 N1120 1.356 . S
C1123 C1117 1.363 . S
C1123 C1118 1.379 . S
C1123 N1121 1.356 . S
N1124 C1116 1.356 . S
N1124 H1130 0.984 . S
N1124 H1131 0.984 . S
N1125 C1118 1.356 . S
N1125 H1128 0.984 . S
N1125 H1129 0.985 . S
H1126 N1121 0.984 . S
H1127 N1121 0.985 . S
H1128 N1125 0.984 . S
H1129 N1125 0.985 . S
H1130 N1124 0.984 . S
H1131 N1124 0.984 . S
H1132 N1120 0.984 . S
H1133 N1120 0.985 . S
C1134 C1135 1.363 . S
C1134 C1140 1.379 . S
C1134 N1142 1.356 . S
C1135 C1134 1.363 . S
C1135 C1141 1.363 . S
C1136 C1137 1.363 . S
C1136 C1141 1.379 . S
C1136 N1143 1.356 . S
C1137 C1136 1.363 . S
C1137 C1140 1.363 . S
N1138 C1140 1.356 . S
N1138 H1150 0.984 . S
N1138 H1151 0.985 . S
N1139 C1141 1.356 . S
N1139 H1144 0.984 . S
N1139 H1145 0.985 . S
C1140 C1134 1.379 . S
C1140 C1137 1.363 . S
C1140 N1138 1.356 . S
C1141 C1135 1.363 . S
C1141 C1136 1.379 . S
C1141 N1139 1.356 . S
N1142 C1134 1.356 . S
N1142 H1148 0.984 . S
N1142 H1149 0.984 . S
N1143 C1136 1.356 . S
N1143 H1146 0.984 . S
N1143 H1147 0.985 . S
H1144 N1139 0.984 . S
H1145 N1139 0.985 . S
H1146 N1143 0.984 . S
H1147 N1143 0.985 . S
H1148 N1142 0.984 . S
H1149 N1142 0.984 . S
H1150 N1138 0.984 . S
H1151 N1138 0.985 . S
C1152 C1153 1.363 . S
C1152 C1158 1.379 . S
C1152 N1160 1.356 . S
C1153 C1152 1.363 . S
C1153 C1159 1.363 . S
C1154 C1155 1.363 . S
C1154 C1159 1.379 . S
C1154 N1161 1.356 . S
C1155 C1154 1.363 . S
C1155 C1158 1.363 . S
N1156 C1158 1.356 . S
N1156 H1168 0.984 . S
N1156 H1169 0.985 . S
N1157 C1159 1.356 . S
N1157 H1162 0.984 . S
N1157 H1163 0.985 . S
C1158 C1152 1.379 . S
C1158 C1155 1.363 . S
C1158 N1156 1.356 . S
C1159 C1153 1.363 . S
C1159 C1154 1.379 . S
C1159 N1157 1.356 . S
N1160 C1152 1.356 . S
N1160 H1166 0.984 . S
N1160 H1167 0.984 . S
N1161 C1154 1.356 . S
N1161 H1164 0.984 . S
N1161 H1165 0.985 . S
H1162 N1157 0.984 . S
H1163 N1157 0.985 . S
H1164 N1161 0.984 . S
H1165 N1161 0.985 . S
H1166 N1160 0.984 . S
H1167 N1160 0.984 . S
H1168 N1156 0.984 . S
H1169 N1156 0.985 . S
C1170 C1171 1.363 . S
C1170 C1176 1.379 . S
C1170 N1178 1.356 . S
C1171 C1170 1.363 . S
C1171 C1177 1.363 . S
C1172 C1173 1.363 . S
C1172 C1177 1.379 . S
C1172 N1179 1.356 . S
C1173 C1172 1.363 . S
C1173 C1176 1.363 . S
N1174 C1176 1.356 . S
N1174 H1186 0.984 . S
N1174 H1187 0.985 . S
N1175 C1177 1.356 . S
N1175 H1180 0.984 . S
N1175 H1181 0.985 . S
C1176 C1170 1.379 . S
C1176 C1173 1.363 . S
C1176 N1174 1.356 . S
C1177 C1171 1.363 . S
C1177 C1172 1.379 . S
C1177 N1175 1.356 . S
N1178 C1170 1.356 . S
N1178 H1184 0.984 . S
N1178 H1185 0.984 . S
N1179 C1172 1.356 . S
N1179 H1182 0.984 . S
N1179 H1183 0.985 . S
H1180 N1175 0.984 . S
H1181 N1175 0.985 . S
H1182 N1179 0.984 . S
H1183 N1179 0.985 . S
H1184 N1178 0.984 . S
H1185 N1178 0.984 . S
H1186 N1174 0.984 . S
H1187 N1174 0.985 . S
C1188 C1189 1.363 . S
C1188 C1194 1.379 . S
C1188 N1196 1.356 . S
C1189 C1188 1.363 . S
C1189 C1195 1.363 . S
C1190 C1191 1.363 . S
C1190 C1195 1.379 . S
C1190 N1197 1.356 . S
C1191 C1190 1.363 . S
C1191 C1194 1.363 . S
N1192 C1194 1.356 . S
N1192 H1204 0.984 . S
N1192 H1205 0.985 . S
N1193 C1195 1.356 . S
N1193 H1198 0.984 . S
N1193 H1199 0.985 . S
C1194 C1188 1.379 . S
C1194 C1191 1.363 . S
C1194 N1192 1.356 . S
C1195 C1189 1.363 . S
C1195 C1190 1.379 . S
C1195 N1193 1.356 . S
N1196 C1188 1.356 . S
N1196 H1202 0.984 . S
N1196 H1203 0.984 . S
N1197 C1190 1.356 . S
N1197 H1200 0.984 . S
N1197 H1201 0.985 . S
H1198 N1193 0.984 . S
H1199 N1193 0.985 . S
H1200 N1197 0.984 . S
H1201 N1197 0.985 . S
H1202 N1196 0.984 . S
H1203 N1196 0.984 . S
H1204 N1192 0.984 . S
H1205 N1192 0.985 . S
C1206 C1207 1.363 . S
C1206 C1212 1.379 . S
C1206 N1214 1.356 . S
C1207 C1206 1.363 . S
C1207 C1213 1.363 . S
C1208 C1209 1.363 . S
C1208 C1213 1.379 . S
C1208 N1215 1.356 . S
C1209 C1208 1.363 . S
C1209 C1212 1.363 . S
N1210 C1212 1.356 . S
N1210 H1222 0.984 . S
N1210 H1223 0.985 . S
N1211 C1213 1.356 . S
N1211 H1216 0.984 . S
N1211 H1217 0.985 . S
C1212 C1206 1.379 . S
C1212 C1209 1.363 . S
C1212 N1210 1.356 . S
C1213 C1207 1.363 . S
C1213 C1208 1.379 . S
C1213 N1211 1.356 . S
N1214 C1206 1.356 . S
N1214 H1220 0.984 . S
N1214 H1221 0.984 . S
N1215 C1208 1.356 . S
N1215 H1218 0.984 . S
N1215 H1219 0.985 . S
H1216 N1211 0.984 . S
H1217 N1211 0.985 . S
H1218 N1215 0.984 . S
H1219 N1215 0.985 . S
H1220 N1214 0.984 . S
H1221 N1214 0.984 . S
H1222 N1210 0.984 . S
H1223 N1210 0.985 . S
C1224 C1225 1.363 . S
C1224 C1230 1.379 . S
C1224 N1232 1.356 . S
C1225 C1224 1.363 . S
C1225 C1231 1.363 . S
C1226 C1227 1.363 . S
C1226 C1231 1.379 . S
C1226 N1233 1.356 . S
C1227 C1226 1.363 . S
C1227 C1230 1.363 . S
N1228 C1230 1.356 . S
N1228 H1240 0.984 . S
N1228 H1241 0.985 . S
N1229 C1231 1.356 . S
N1229 H1234 0.984 . S
N1229 H1235 0.985 . S
C1230 C1224 1.379 . S
C1230 C1227 1.363 . S
C1230 N1228 1.356 . S
C1231 C1225 1.363 . S
C1231 C1226 1.379 . S
C1231 N1229 1.356 . S
N1232 C1224 1.356 . S
N1232 H1238 0.984 . S
N1232 H1239 0.984 . S
N1233 C1226 1.356 . S
N1233 H1236 0.984 . S
N1233 H1237 0.985 . S
H1234 N1229 0.984 . S
H1235 N1229 0.985 . S
H1236 N1233 0.984 . S
H1237 N1233 0.985 . S
H1238 N1232 0.984 . S
H1239 N1232 0.984 . S
H1240 N1228 0.984 . S
H1241 N1228 0.985 . S
C1242 C1243 1.363 . S
C1242 C1248 1.379 . S
C1242 N1250 1.356 . S
C1243 C1242 1.363 . S
C1243 C1249 1.363 . S
C1244 C1245 1.363 . S
C1244 C1249 1.379 . S
C1244 N1251 1.356 . S
C1245 C1244 1.363 . S
C1245 C1248 1.363 . S
N1246 C1248 1.356 . S
N1246 H1258 0.984 . S
N1246 H1259 0.985 . S
N1247 C1249 1.356 . S
N1247 H1252 0.984 . S
N1247 H1253 0.985 . S
C1248 C1242 1.379 . S
C1248 C1245 1.363 . S
C1248 N1246 1.356 . S
C1249 C1243 1.363 . S
C1249 C1244 1.379 . S
C1249 N1247 1.356 . S
N1250 C1242 1.356 . S
N1250 H1256 0.984 . S
N1250 H1257 0.984 . S
N1251 C1244 1.356 . S
N1251 H1254 0.984 . S
N1251 H1255 0.985 . S
H1252 N1247 0.984 . S
H1253 N1247 0.985 . S
H1254 N1251 0.984 . S
H1255 N1251 0.985 . S
H1256 N1250 0.984 . S
H1257 N1250 0.984 . S
H1258 N1246 0.984 . S
H1259 N1246 0.985 . S
C1260 C1261 1.363 . S
C1260 C1266 1.379 . S
C1260 N1268 1.356 . S
C1261 C1260 1.363 . S
C1261 C1267 1.363 . S
C1262 C1263 1.363 . S
C1262 C1267 1.379 . S
C1262 N1269 1.356 . S
C1263 C1262 1.363 . S
C1263 C1266 1.363 . S
N1264 C1266 1.356 . S
N1264 H1276 0.984 . S
N1264 H1277 0.985 . S
N1265 C1267 1.356 . S
N1265 H1270 0.984 . S
N1265 H1271 0.985 . S
C1266 C1260 1.379 . S
C1266 C1263 1.363 . S
C1266 N1264 1.356 . S
C1267 C1261 1.363 . S
C1267 C1262 1.379 . S
C1267 N1265 1.356 . S
N1268 C1260 1.356 . S
N1268 H1274 0.984 . S
N1268 H1275 0.984 . S
N1269 C1262 1.356 . S
N1269 H1272 0.984 . S
N1269 H1273 0.985 . S
H1270 N1265 0.984 . S
H1271 N1265 0.985 . S
H1272 N1269 0.984 . S
H1273 N1269 0.985 . S
H1274 N1268 0.984 . S
H1275 N1268 0.984 . S
H1276 N1264 0.984 . S
H1277 N1264 0.985 . S
C1278 C1279 1.363 . S
C1278 C1284 1.379 . S
C1278 N1286 1.356 . S
C1279 C1278 1.363 . S
C1279 C1285 1.363 . S
C1280 C1281 1.363 . S
C1280 C1285 1.379 . S
C1280 N1287 1.356 . S
C1281 C1280 1.363 . S
C1281 C1284 1.363 . S
N1282 C1284 1.356 . S
N1282 H1294 0.984 . S
N1282 H1295 0.985 . S
N1283 C1285 1.356 . S
N1283 H1288 0.984 . S
N1283 H1289 0.985 . S
C1284 C1278 1.379 . S
C1284 C1281 1.363 . S
C1284 N1282 1.356 . S
C1285 C1279 1.363 . S
C1285 C1280 1.379 . S
C1285 N1283 1.356 . S
N1286 C1278 1.356 . S
N1286 H1292 0.984 . S
N1286 H1293 0.984 . S
N1287 C1280 1.356 . S
N1287 H1290 0.984 . S
N1287 H1291 0.985 . S
H1288 N1283 0.984 . S
H1289 N1283 0.985 . S
H1290 N1287 0.984 . S
H1291 N1287 0.985 . S
H1292 N1286 0.984 . S
H1293 N1286 0.984 . S
H1294 N1282 0.984 . S
H1295 N1282 0.985 . S
C1296 C1297 1.363 . S
C1296 C1302 1.379 . S
C1296 N1304 1.356 . S
C1297 C1296 1.363 . S
C1297 C1303 1.363 . S
C1298 C1299 1.363 . S
C1298 C1303 1.379 . S
C1298 N1305 1.356 . S
C1299 C1298 1.363 . S
C1299 C1302 1.363 . S
N1300 C1302 1.356 . S
N1300 H1312 0.984 . S
N1300 H1313 0.985 . S
N1301 C1303 1.356 . S
N1301 H1306 0.984 . S
N1301 H1307 0.985 . S
C1302 C1296 1.379 . S
C1302 C1299 1.363 . S
C1302 N1300 1.356 . S
C1303 C1297 1.363 . S
C1303 C1298 1.379 . S
C1303 N1301 1.356 . S
N1304 C1296 1.356 . S
N1304 H1310 0.984 . S
N1304 H1311 0.984 . S
N1305 C1298 1.356 . S
N1305 H1308 0.984 . S
N1305 H1309 0.985 . S
H1306 N1301 0.984 . S
H1307 N1301 0.985 . S
H1308 N1305 0.984 . S
H1309 N1305 0.985 . S
H1310 N1304 0.984 . S
H1311 N1304 0.984 . S
H1312 N1300 0.984 . S
H1313 N1300 0.985 . S
C1314 C1315 1.363 . S
C1314 C1320 1.379 . S
C1314 N1322 1.356 . S
C1315 C1314 1.363 . S
C1315 C1321 1.363 . S
C1316 C1317 1.363 . S
C1316 C1321 1.379 . S
C1316 N1323 1.356 . S
C1317 C1316 1.363 . S
C1317 C1320 1.363 . S
N1318 C1320 1.356 . S
N1318 H1330 0.984 . S
N1318 H1331 0.985 . S
N1319 C1321 1.356 . S
N1319 H1324 0.984 . S
N1319 H1325 0.985 . S
C1320 C1314 1.379 . S
C1320 C1317 1.363 . S
C1320 N1318 1.356 . S
C1321 C1315 1.363 . S
C1321 C1316 1.379 . S
C1321 N1319 1.356 . S
N1322 C1314 1.356 . S
N1322 H1328 0.984 . S
N1322 H1329 0.984 . S
N1323 C1316 1.356 . S
N1323 H1326 0.984 . S
N1323 H1327 0.985 . S
H1324 N1319 0.984 . S
H1325 N1319 0.985 . S
H1326 N1323 0.984 . S
H1327 N1323 0.985 . S
H1328 N1322 0.984 . S
H1329 N1322 0.984 . S
H1330 N1318 0.984 . S
H1331 N1318 0.985 . S
C1332 C1333 1.363 . S
C1332 C1338 1.379 . S
C1332 N1340 1.356 . S
C1333 C1332 1.363 . S
C1333 C1339 1.363 . S
C1334 C1335 1.363 . S
C1334 C1339 1.379 . S
C1334 N1341 1.356 . S
C1335 C1334 1.363 . S
C1335 C1338 1.363 . S
N1336 C1338 1.356 . S
N1336 H1348 0.984 . S
N1336 H1349 0.985 . S
N1337 C1339 1.356 . S
N1337 H1342 0.984 . S
N1337 H1343 0.985 . S
C1338 C1332 1.379 . S
C1338 C1335 1.363 . S
C1338 N1336 1.356 . S
C1339 C1333 1.363 . S
C1339 C1334 1.379 . S
C1339 N1337 1.356 . S
N1340 C1332 1.356 . S
N1340 H1346 0.984 . S
N1340 H1347 0.984 . S
N1341 C1334 1.356 . S
N1341 H1344 0.984 . S
N1341 H1345 0.985 . S
H1342 N1337 0.984 . S
H1343 N1337 0.985 . S
H1344 N1341 0.984 . S
H1345 N1341 0.985 . S
H1346 N1340 0.984 . S
H1347 N1340 0.984 . S
H1348 N1336 0.984 . S
H1349 N1336 0.985 . S
C1350 C1351 1.363 . S
C1350 C1356 1.379 . S
C1350 N1358 1.356 . S
C1351 C1350 1.363 . S
C1351 C1357 1.363 . S
C1352 C1353 1.363 . S
C1352 C1357 1.379 . S
C1352 N1359 1.356 . S
C1353 C1352 1.363 . S
C1353 C1356 1.363 . S
N1354 C1356 1.356 . S
N1354 H1366 0.984 . S
N1354 H1367 0.985 . S
N1355 C1357 1.356 . S
N1355 H1360 0.984 . S
N1355 H1361 0.985 . S
C1356 C1350 1.379 . S
C1356 C1353 1.363 . S
C1356 N1354 1.356 . S
C1357 C1351 1.363 . S
C1357 C1352 1.379 . S
C1357 N1355 1.356 . S
N1358 C1350 1.356 . S
N1358 H1364 0.984 . S
N1358 H1365 0.984 . S
N1359 C1352 1.356 . S
N1359 H1362 0.984 . S
N1359 H1363 0.985 . S
H1360 N1355 0.984 . S
H1361 N1355 0.985 . S
H1362 N1359 0.984 . S
H1363 N1359 0.985 . S
H1364 N1358 0.984 . S
H1365 N1358 0.984 . S
H1366 N1354 0.984 . S
H1367 N1354 0.985 . S
C795 C397 1.472 . S
C793 C15 1.478 . S
C813 C450 1.312 . S
C811 C68 1.309 . S
C831 C513 1.547 . S
C829 C107 1.550 . S
C849 C556 1.251 . S
C847 C160 1.250 . S
C865 C185 1.551 . S
C867 C512 1.548 . S
C885 C549 1.323 . S
C883 C252 1.323 . S
C903 C390 1.470 . S
C901 C277 1.470 . S
C921 C443 1.244 . S
C919 C330 1.243 . S
C939 C496 1.484 . S
C937 C323 1.476 . S
C957 C565 1.803 . S
C955 C192 1.806 . S
C975 C406 1.561 . S
C973 C245 1.561 . S
C993 C459 1.739 . S
C991 C284 1.741 . S
C1011 C407 1.548 . S
C1009 C61 1.546 . S
C1029 C460 1.812 . S
C1027 C114 1.814 . S
C1047 C503 1.496 . S
C1045 C153 1.493 . S
C1065 C566 1.723 . S
C1063 C22 1.723 . S
C1083 C609 1.441 . S
C1081 C337 1.447 . S
C1099 C206 1.668 . S
C1101 C662 1.667 . S
C1117 C231 1.597 . S
C1119 C724 1.594 . S
C1135 C298 1.683 . S
C1137 C778 1.688 . S
C1153 C47 1.514 . S
C1155 C725 1.514 . S
C1171 C100 1.765 . S
C1173 C777 1.764 . S
C1189 C139 1.512 . S
C1191 C602 1.512 . S
C1209 C655 1.602 . S
C1207 C8 1.601 . S
C1227 C715 1.468 . S
C1225 C1 1.460 . S
C1243 C54 1.375 . S
C1245 C761 1.369 . S
C1261 C93 1.588 . S
C1263 C618 1.590 . S
C1279 C146 1.319 . S
C1281 C671 1.316 . S
C1299 C619 1.530 . S
C1297 C199 1.527 . S
C1317 C672 1.401 . S
C1315 C238 1.408 . S
C1333 C291 1.514 . S
C1335 C708 1.517 . S
C1353 C768 1.303 . S
C1351 C344 1.298 . S
