# Generated by pormake.
# Topology pyr, (3,6)-cn, num edge types: 1
# Building blocks:
#     Node 0, Type 0, BuildingBlock: ESEHIV_clean_linker_0, # of connection points: 3
#     Node 1, Type 0, BuildingBlock: ESEHIV_clean_linker_0, # of connection points: 3
#     Node 2, Type 0, BuildingBlock: ESEHIV_clean_linker_0, # of connection points: 3
#     Node 3, Type 0, BuildingBlock: ESEHIV_clean_linker_0, # of connection points: 3
#     Node 4, Type 0, BuildingBlock: ESEHIV_clean_linker_0, # of connection points: 3
#     Node 5, Type 0, BuildingBlock: ESEHIV_clean_linker_0, # of connection points: 3
#     Node 6, Type 0, BuildingBlock: ESEHIV_clean_linker_0, # of connection points: 3
#     Node 7, Type 0, BuildingBlock: ESEHIV_clean_linker_0, # of connection points: 3
#     Node 8, Type 1, BuildingBlock: BETDEL_clean_sbu_0, # of connection points: 6
#     Node 9, Type 1, BuildingBlock: BETDEL_clean_sbu_0, # of connection points: 6
#     Node 10, Type 1, BuildingBlock: BETDEL_clean_sbu_0, # of connection points: 6
#     Node 11, Type 1, BuildingBlock: BETDEL_clean_sbu_0, # of connection points: 6
#     Edge 12, Type (0, 1), BuildingBlock: MIFKUJ_clean_linker_0, # of connection points: 2
#     Edge 13, Type (0, 1), BuildingBlock: MIFKUJ_clean_linker_0, # of connection points: 2
#     Edge 14, Type (0, 1), BuildingBlock: MIFKUJ_clean_linker_0, # of connection points: 2
#     Edge 15, Type (0, 1), BuildingBlock: MIFKUJ_clean_linker_0, # of connection points: 2
#     Edge 16, Type (0, 1), BuildingBlock: MIFKUJ_clean_linker_0, # of connection points: 2
#     Edge 17, Type (0, 1), BuildingBlock: MIFKUJ_clean_linker_0, # of connection points: 2
#     Edge 18, Type (0, 1), BuildingBlock: MIFKUJ_clean_linker_0, # of connection points: 2
#     Edge 19, Type (0, 1), BuildingBlock: MIFKUJ_clean_linker_0, # of connection points: 2
#     Edge 20, Type (0, 1), BuildingBlock: MIFKUJ_clean_linker_0, # of connection points: 2
#     Edge 21, Type (0, 1), BuildingBlock: MIFKUJ_clean_linker_0, # of connection points: 2
#     Edge 22, Type (0, 1), BuildingBlock: MIFKUJ_clean_linker_0, # of connection points: 2
#     Edge 23, Type (0, 1), BuildingBlock: MIFKUJ_clean_linker_0, # of connection points: 2
#     Edge 24, Type (0, 1), BuildingBlock: MIFKUJ_clean_linker_0, # of connection points: 2
#     Edge 25, Type (0, 1), BuildingBlock: MIFKUJ_clean_linker_0, # of connection points: 2
#     Edge 26, Type (0, 1), BuildingBlock: MIFKUJ_clean_linker_0, # of connection points: 2
#     Edge 27, Type (0, 1), BuildingBlock: MIFKUJ_clean_linker_0, # of connection points: 2
#     Edge 28, Type (0, 1), BuildingBlock: MIFKUJ_clean_linker_0, # of connection points: 2
#     Edge 29, Type (0, 1), BuildingBlock: MIFKUJ_clean_linker_0, # of connection points: 2
#     Edge 30, Type (0, 1), BuildingBlock: MIFKUJ_clean_linker_0, # of connection points: 2
#     Edge 31, Type (0, 1), BuildingBlock: MIFKUJ_clean_linker_0, # of connection points: 2
#     Edge 32, Type (0, 1), BuildingBlock: MIFKUJ_clean_linker_0, # of connection points: 2
#     Edge 33, Type (0, 1), BuildingBlock: MIFKUJ_clean_linker_0, # of connection points: 2
#     Edge 34, Type (0, 1), BuildingBlock: MIFKUJ_clean_linker_0, # of connection points: 2
#     Edge 35, Type (0, 1), BuildingBlock: MIFKUJ_clean_linker_0, # of connection points: 2
# Relax obj value: 0.027
# Max RMSD: 0.089
# Mean RMSD: 0.038
data_MOF--net-pyr--node1-BETDEL_clean_sbu_0--node2-ESEHIV_clean_linker_0--edge1-MIFKUJ_clean_linker_0
_symmetry_space_group_name_H-M    P1
_symmetry_Int_Tables_number       1
_symmetry_cell_setting            triclinic
loop_
_symmetry_equiv_pos_as_xyz
'x, y, z'
_cell_length_a     45.750954
_cell_length_b     47.439406
_cell_length_c     43.882365
_cell_angle_alpha  91.315235
_cell_angle_beta   89.219627
_cell_angle_gamma 94.810468
loop_
_atom_site_label
_atom_site_type_symbol
_atom_site_fract_x
_atom_site_fract_y
_atom_site_fract_z
_atom_type_partial_charge
H0 H 0.16888 0.2281 0.19361 0.0
H1 H 0.23253 0.16841 0.20812 0.0
H2 H 0.24263 0.22413 0.13213 0.0
C3 C 0.18921 0.2193 0.18709 0.0
C4 C 0.20463 0.22903 0.16095 0.0
C5 C 0.19889 0.19724 0.20396 0.0
C6 C 0.22493 0.18554 0.19521 0.0
C7 C 0.24104 0.19551 0.16965 0.0
C8 C 0.23093 0.21739 0.1527 0.0
H9 H 0.25995 0.86433 0.68282 0.0
H10 H 0.32985 0.80923 0.68625 0.0
H11 H 0.27553 0.80846 0.60698 0.0
C12 C 0.27243 0.84812 0.67245 0.0
C13 C 0.26519 0.83764 0.64314 0.0
C14 C 0.29594 0.83822 0.68813 0.0
C15 C 0.31169 0.81708 0.67436 0.0
C16 C 0.3043 0.806 0.64527 0.0
C17 C 0.28115 0.81658 0.62964 0.0
H18 H 0.68057 0.31484 0.884 0.0
H19 H 0.68275 0.38072 0.81825 0.0
H20 H 0.61264 0.31432 0.81701 0.0
C21 C 0.67096 0.32428 0.86467 0.0
C22 C 0.64497 0.31131 0.85193 0.0
C23 C 0.68479 0.34929 0.85265 0.0
C24 C 0.67216 0.36149 0.82763 0.0
C25 C 0.646 0.3492 0.81464 0.0
C26 C 0.63267 0.32403 0.82693 0.0
H27 H 0.81777 0.68705 0.38315 0.0
H28 H 0.88124 0.69129 0.31001 0.0
H29 H 0.81965 0.61787 0.31857 0.0
C30 C 0.82759 0.67734 0.36335 0.0
C31 C 0.81556 0.65088 0.35234 0.0
C32 C 0.85145 0.69195 0.34839 0.0
C33 C 0.86318 0.67982 0.3218 0.0
C34 C 0.85186 0.65306 0.31053 0.0
C35 C 0.82813 0.63879 0.32623 0.0
H36 H 0.77999 0.84312 0.80524 0.0
H37 H 0.83056 0.77209 0.81844 0.0
H38 H 0.75422 0.78297 0.87434 0.0
C39 C 0.78335 0.82368 0.81671 0.0
C40 C 0.76396 0.8145 0.84019 0.0
C41 C 0.80741 0.80845 0.80858 0.0
C42 C 0.81179 0.78373 0.82423 0.0
C43 C 0.79282 0.77447 0.84807 0.0
C44 C 0.76873 0.78979 0.85571 0.0
H45 H 0.68208 0.21214 0.31369 0.0
H46 H 0.73836 0.14611 0.33062 0.0
H47 H 0.73945 0.21913 0.39064 0.0
C48 C 0.69834 0.20325 0.32749 0.0
C49 C 0.70915 0.21842 0.35333 0.0
C50 C 0.70868 0.17713 0.31904 0.0
C51 C 0.73036 0.16637 0.33672 0.0
C52 C 0.74183 0.18158 0.36231 0.0
C53 C 0.73123 0.20767 0.37044 0.0
H54 H 0.32834 0.70662 0.12906 0.0
H55 H 0.33058 0.63474 0.18689 0.0
H56 H 0.39664 0.70426 0.19511 0.0
C57 C 0.33853 0.69575 0.14699 0.0
C58 C 0.36425 0.70852 0.16047 0.0
C59 C 0.32594 0.66915 0.15631 0.0
C60 C 0.33966 0.65534 0.17962 0.0
C61 C 0.36497 0.66794 0.19395 0.0
C62 C 0.3771 0.69452 0.1842 0.0
H63 H 0.12688 0.32361 0.69918 0.0
H64 H 0.19147 0.32523 0.62703 0.0
H65 H 0.19135 0.39467 0.69185 0.0
C66 C 0.14568 0.33418 0.68766 0.0
C67 C 0.15785 0.36056 0.69893 0.0
C68 C 0.15748 0.32138 0.66154 0.0
C69 C 0.18184 0.33531 0.6467 0.0
C70 C 0.19447 0.36166 0.65757 0.0
C71 C 0.1823 0.37405 0.68376 0.0
Dy72 Dy 0.00931 0.01754 0.47533 0.0
C73 C 0.97155 0.96875 0.58859 0.0
C74 C 0.02114 0.04865 0.42466 0.0
Dy75 Dy 0.98872 0.99804 0.53788 0.0
O76 O 0.02803 0.02294 0.42809 0.0
O77 O 0.00735 0.05722 0.44871 0.0
O78 O 0.04064 0.98375 0.47174 0.0
O79 O 0.03099 1.00156 0.51455 0.0
C80 C 0.04371 0.9823 0.50098 0.0
C81 C 0.95609 0.03465 0.51187 0.0
O82 O 0.01839 0.03508 0.5539 0.0
O83 O 0.02539 0.05448 0.50592 0.0
O84 O 0.95488 0.98305 0.5723 0.0
O85 O 0.99813 0.97072 0.57752 0.0
O86 O 0.96075 0.03459 0.54098 0.0
O87 O 0.9673 0.01429 0.4986 0.0
O88 O 0.97683 0.982 0.46117 0.0
O89 O 0.97781 0.9597 0.5074 0.0
C90 C 0.02817 0.05613 0.53605 0.0
C91 C 0.97129 0.95929 0.478 0.0
Dy92 Dy 0.52851 0.01796 0.02183 0.0
C93 C 0.43588 0.97023 0.94791 0.0
C94 C 0.56989 0.04753 0.05668 0.0
Dy95 Dy 0.47847 0.9992 0.98179 0.0
O96 O 0.56984 0.02091 0.0493 0.0
O97 O 0.54752 0.05804 0.04481 0.0
O98 O 0.52944 0.97413 0.03983 0.0
O99 O 0.4892 0.98839 0.02806 0.0
C100 C 0.50169 0.96721 0.03637 0.0
C101 C 0.50493 0.05033 0.96818 0.0
O102 O 0.45342 0.01658 0.02079 0.0
O103 O 0.49321 0.04421 0.03991 0.0
O104 O 0.44083 0.99752 0.94939 0.0
O105 O 0.45422 0.95861 0.96499 0.0
O106 O 0.4771 0.04349 0.96502 0.0
O107 O 0.51753 0.02902 0.97584 0.0
O108 O 0.55346 1.00253 0.9818 0.0
O109 O 0.51436 0.97404 0.96254 0.0
C110 C 0.46458 0.0377 0.03837 0.0
C111 C 0.54289 0.9814 0.9639 0.0
Dy112 Dy 0.51345 0.4828 0.48477 0.0
C113 C 0.46347 0.57096 0.55284 0.0
C114 C 0.54794 0.44564 0.45673 0.0
Dy115 Dy 0.49529 0.532 0.5242 0.0
O116 O 0.52455 0.43856 0.47283 0.0
O117 O 0.55196 0.47296 0.45517 0.0
O118 O 0.46649 0.46586 0.47976 0.0
O119 O 0.48033 0.4873 0.52035 0.0
C120 C 0.45835 0.47614 0.50605 0.0
C121 C 0.55024 0.53857 0.50182 0.0
O122 O 0.509 0.50521 0.56171 0.0
O123 O 0.53469 0.47596 0.52997 0.0
O124 O 0.49191 0.57239 0.55126 0.0
O125 O 0.45241 0.54809 0.53907 0.0
O126 O 0.54259 0.549 0.5281 0.0
O127 O 0.52789 0.52746 0.48836 0.0
O128 O 0.4953 0.50693 0.44718 0.0
O129 O 0.47613 0.54122 0.47859 0.0
C130 C 0.52728 0.48524 0.55756 0.0
C131 C 0.47999 0.5293 0.45125 0.0
Dy132 Dy 0.01404 0.48073 0.016 0.0
C133 C 0.96784 0.58094 0.97704 0.0
C134 C 0.04536 0.43548 0.02495 0.0
Dy135 Dy 0.99739 0.53572 0.99154 0.0
O136 O 0.01992 0.43895 0.03742 0.0
O137 O 0.05345 0.45655 0.00761 0.0
O138 O 0.9799 0.48196 0.05323 0.0
O139 O 1.00112 0.51986 0.03738 0.0
C140 C 0.98087 0.50944 0.05451 0.0
C141 C 0.03112 0.50673 0.95381 0.0
O142 O 0.0384 0.55379 0.01422 0.0
O143 O 0.05389 0.51031 0.02749 0.0
O144 O 0.97206 0.57295 0.00462 0.0
O145 O 0.98038 0.56469 0.95761 0.0
O146 O 0.0328 0.53421 0.95569 0.0
O147 O 0.01032 0.49648 0.97038 0.0
O148 O 0.9756 0.46408 0.98813 0.0
O149 O 0.95552 0.50709 0.98756 0.0
C150 C 0.05821 0.53828 0.02568 0.0
C151 C 0.95319 0.47925 0.98322 0.0
H152 H 0.17092 0.22476 0.2499 0.0
H153 H 0.13607 0.20368 0.28758 0.0
H154 H 0.14949 0.12048 0.25106 0.0
H155 H 0.18385 0.14137 0.21312 0.0
H156 H 0.09089 0.12955 0.25809 0.0
H157 H 0.18025 0.14257 0.31668 0.0
H158 H 0.22301 0.17036 0.33896 0.0
H159 H 0.16574 0.22304 0.38801 0.0
H160 H 0.12262 0.19576 0.36568 0.0
H161 H 0.04442 0.03217 0.37063 0.0
H162 H 0.06896 0.06264 0.33227 0.0
H163 H 0.04779 0.13654 0.38455 0.0
H164 H 0.02335 0.10599 0.42317 0.0
H165 H 0.10517 0.13867 0.36986 0.0
H166 H 0.01566 0.12254 0.3166 0.0
H167 H 0.97251 0.0949 0.29498 0.0
H168 H 0.02859 0.04915 0.23627 0.0
H169 H 0.07214 0.07624 0.25782 0.0
C170 C 0.16651 0.20197 0.25007 0.0
C171 C 0.18014 0.18467 0.2287 0.0
C172 C 0.14671 0.18999 0.2716 0.0
C173 C 0.14027 0.16056 0.27201 0.0
C174 C 0.15417 0.14325 0.251 0.0
C175 C 0.17402 0.15518 0.2296 0.0
C176 C 0.11868 0.14761 0.29397 0.0
C177 C 0.09405 0.13135 0.28254 0.0
C178 C 0.12233 0.15097 0.32581 0.0
C179 C 0.14824 0.16736 0.33921 0.0
C180 C 0.17679 0.16025 0.33199 0.0
C181 C 0.20108 0.17587 0.34468 0.0
C182 C 0.1971 0.19851 0.36481 0.0
C183 C 0.1688 0.20553 0.37236 0.0
C184 C 0.14443 0.18999 0.35971 0.0
C185 C 0.04451 0.05491 0.37358 0.0
C186 C 0.03194 0.06683 0.39964 0.0
C187 C 0.05841 0.0723 0.35165 0.0
C188 C 0.05997 0.10185 0.35548 0.0
C189 C 0.04671 0.11379 0.38115 0.0
C190 C 0.03261 0.09637 0.40302 0.0
C191 C 0.07773 0.11992 0.33398 0.0
C192 C 0.10166 0.13721 0.34545 0.0
C193 C 0.07333 0.11764 0.30217 0.0
C194 C 0.0472 0.10132 0.289 0.0
C195 C 0.01882 0.10643 0.29926 0.0
C196 C 0.99428 0.09089 0.28698 0.0
C197 C 0.99781 0.07024 0.26432 0.0
C198 C 0.02589 0.06514 0.25383 0.0
C199 C 0.05052 0.08063 0.26603 0.0
H200 H 0.97877 0.05823 0.25485 0.0
H201 H 0.21594 0.21058 0.37462 0.0
H202 H 0.31455 0.81094 0.7379 0.0
H203 H 0.33338 0.83229 0.78561 0.0
H204 H 0.31491 0.9147 0.75503 0.0
H205 H 0.29782 0.8938 0.70656 0.0
H206 H 0.36769 0.91688 0.77612 0.0
H207 H 0.27346 0.87853 0.81211 0.0
H208 H 0.2333 0.84134 0.82012 0.0
H209 H 0.29079 0.79357 0.87104 0.0
H210 H 0.33143 0.83031 0.86298 0.0
H211 H 0.39704 0.99296 0.91155 0.0
H212 H 0.36723 0.96866 0.87159 0.0
H213 H 0.3981 0.889 0.89668 0.0
H214 H 0.42785 0.91326 0.93706 0.0
H215 H 0.33813 0.88493 0.87981 0.0
H216 H 0.43245 0.9225 0.84158 0.0
H217 H 0.47243 0.95995 0.83386 0.0
H218 H 0.41362 0.00943 0.78685 0.0
H219 H 0.37316 0.97243 0.7947 0.0
C220 C 0.31459 0.83363 0.74127 0.0
C221 C 0.3048 0.85067 0.71831 0.0
C222 C 0.32497 0.84575 0.76876 0.0
C223 C 0.32526 0.87507 0.77403 0.0
C224 C 0.3148 0.89201 0.75148 0.0
C225 C 0.30476 0.87997 0.72387 0.0
C226 C 0.33836 0.8884 0.80208 0.0
C227 C 0.3608 0.91018 0.79877 0.0
C228 C 0.33002 0.8791 0.83164 0.0
C229 C 0.30556 0.85707 0.8367 0.0
C230 C 0.2776 0.86 0.82483 0.0
C231 C 0.25474 0.83902 0.82941 0.0
C232 C 0.25951 0.81507 0.84601 0.0
C233 C 0.28714 0.81211 0.85815 0.0
C234 C 0.31008 0.83303 0.85362 0.0
C235 C 0.39707 0.9702 0.9089 0.0
C236 C 0.41495 0.95496 0.92703 0.0
C237 C 0.38005 0.95637 0.88611 0.0
C238 C 0.38086 0.92715 0.88098 0.0
C239 C 0.39727 0.91159 0.90033 0.0
C240 C 0.41429 0.92544 0.92324 0.0
C241 C 0.36697 0.91353 0.85361 0.0
C242 C 0.34468 0.89165 0.85707 0.0
C243 C 0.37533 0.92272 0.82409 0.0
C244 C 0.39973 0.94482 0.81898 0.0
C245 C 0.428 0.94145 0.82978 0.0
C246 C 0.45075 0.96259 0.82536 0.0
C247 C 0.44555 0.98709 0.80994 0.0
C248 C 0.4176 0.99046 0.79882 0.0
C249 C 0.39476 0.96941 0.80323 0.0
H250 H 0.46318 1.00343 0.80654 0.0
H251 H 0.24179 0.79885 0.84953 0.0
H252 H 0.64186 0.40581 0.80563 0.0
H253 H 0.62123 0.42813 0.76221 0.0
H254 H 0.59823 0.34601 0.72096 0.0
H255 H 0.62009 0.32352 0.76376 0.0
H256 H 0.62029 0.38099 0.67902 0.0
H257 H 0.54632 0.38517 0.75668 0.0
H258 H 0.52622 0.39609 0.80761 0.0
H259 H 0.55109 0.48448 0.79562 0.0
H260 H 0.57171 0.47404 0.74476 0.0
H261 H 0.53069 0.42902 0.56478 0.0
H262 H 0.54756 0.40525 0.60927 0.0
H263 H 0.56676 0.48623 0.65477 0.0
H264 H 0.54736 0.50983 0.61107 0.0
H265 H 0.54625 0.45081 0.69452 0.0
H266 H 0.62164 0.44461 0.61555 0.0
H267 H 0.63444 0.43257 0.56224 0.0
H268 H 0.60305 0.34592 0.57614 0.0
H269 H 0.58981 0.35748 0.6294 0.0
C270 C 0.6327 0.39243 0.78722 0.0
C271 C 0.63269 0.36279 0.78833 0.0
C272 C 0.62057 0.40526 0.76249 0.0
C273 C 0.60776 0.3888 0.73839 0.0
C274 C 0.60786 0.35921 0.73929 0.0
C275 C 0.62013 0.34635 0.76397 0.0
C276 C 0.59446 0.40248 0.71222 0.0
C277 C 0.60392 0.39607 0.68245 0.0
C278 C 0.57329 0.42243 0.71649 0.0
C279 C 0.56082 0.42879 0.74703 0.0
C280 C 0.5477 0.40692 0.765 0.0
C281 C 0.53618 0.41302 0.79384 0.0
C282 C 0.53745 0.44095 0.80488 0.0
C283 C 0.55016 0.46285 0.78706 0.0
C284 C 0.56175 0.45686 0.75821 0.0
C285 C 0.53854 0.4417 0.58432 0.0
C286 C 0.53815 0.47125 0.5844 0.0
C287 C 0.54838 0.42813 0.60972 0.0
C288 C 0.5595 0.4439 0.63519 0.0
C289 C 0.55858 0.4735 0.63542 0.0
C290 C 0.54766 0.48701 0.61041 0.0
C291 C 0.57234 0.42964 0.66134 0.0
C292 C 0.5628 0.43591 0.69111 0.0
C293 C 0.59334 0.40946 0.65708 0.0
C294 C 0.60453 0.40196 0.62634 0.0
C295 C 0.61773 0.42295 0.60729 0.0
C296 C 0.62493 0.41623 0.57707 0.0
C297 C 0.61925 0.38857 0.56579 0.0
C298 C 0.60726 0.36736 0.58491 0.0
C299 C 0.6 0.37396 0.61513 0.0
H300 H 0.62386 0.38358 0.54216 0.0
H301 H 0.52851 0.44564 0.82722 0.0
H302 H 0.90968 0.65697 0.29077 0.0
H303 H 0.93047 0.63472 0.24555 0.0
H304 H 0.84516 0.59532 0.22261 0.0
H305 H 0.82362 0.61887 0.26645 0.0
H306 H 0.89835 0.55865 0.22621 0.0
H307 H 0.86266 0.64183 0.18089 0.0
H308 H 0.8593 0.69325 0.17726 0.0
H309 H 0.95267 0.70587 0.16449 0.0
H310 H 0.95662 0.65453 0.16854 0.0
H311 H 0.92998 0.49404 0.08487 0.0
H312 H 0.90695 0.51984 0.12637 0.0
H313 H 0.97731 0.5863 0.12161 0.0
H314 H 0.99913 0.56138 0.07868 0.0
H315 H 0.93191 0.61014 0.13328 0.0
H316 H 0.97098 0.53112 0.17848 0.0
H317 H 0.97933 0.48104 0.18572 0.0
H318 H 0.8874 0.46163 0.2035 0.0
H319 H 0.87844 0.51155 0.19598 0.0
C320 C 0.89508 0.64411 0.27587 0.0
C321 C 0.86482 0.63981 0.28263 0.0
C322 C 0.90714 0.63118 0.25013 0.0
C323 C 0.88935 0.61333 0.23084 0.0
C324 C 0.85927 0.60891 0.23736 0.0
C325 C 0.84707 0.62226 0.26268 0.0
C326 C 0.90221 0.5988 0.20417 0.0
C327 C 0.90538 0.56974 0.20568 0.0
C328 C 0.91237 0.61357 0.17798 0.0
C329 C 0.90996 0.64439 0.17538 0.0
C330 C 0.88251 0.6556 0.17763 0.0
C331 C 0.88049 0.68472 0.17542 0.0
C332 C 0.90577 0.70283 0.17074 0.0
C333 C 0.93311 0.69183 0.16817 0.0
C334 C 0.93525 0.66272 0.1704 0.0
C335 C 0.94036 0.51425 0.09262 0.0
C336 C 0.96641 0.52562 0.07876 0.0
C337 C 0.92735 0.52892 0.11656 0.0
C338 C 0.94073 0.55478 0.12796 0.0
C339 C 0.96648 0.56641 0.11351 0.0
C340 C 0.97903 0.55211 0.08899 0.0
C341 C 0.92805 0.56957 0.15494 0.0
C342 C 0.92496 0.59879 0.15366 0.0
C343 C 0.91871 0.55506 0.18178 0.0
C344 C 0.924 0.52502 0.18636 0.0
C345 C 0.95252 0.51613 0.18373 0.0
C346 C 0.95736 0.48778 0.18791 0.0
C347 C 0.9339 0.46815 0.19498 0.0
C348 C 0.90555 0.47685 0.19797 0.0
C349 C 0.90057 0.50517 0.19378 0.0
H350 H 0.9377 0.44621 0.19821 0.0
H351 H 0.90416 0.72537 0.16903 0.0
H352 H 0.24477 0.13922 0.16047 0.0
H353 H 0.28705 0.11534 0.14231 0.0
H354 H 0.33834 0.19582 0.13747 0.0
H355 H 0.29544 0.21994 0.15475 0.0
H356 H 0.34861 0.16577 0.08926 0.0
H357 H 0.3486 0.14784 0.19492 0.0
H358 H 0.32838 0.13366 0.24516 0.0
H359 H 0.30679 0.04922 0.2105 0.0
H360 H 0.32648 0.06298 0.1599 0.0
H361 H 0.47689 0.09056 0.0631 0.0
H362 H 0.44285 0.12012 0.08969 0.0
H363 H 0.37362 0.05305 0.08058 0.0
H364 H 0.40735 0.02345 0.05366 0.0
H365 H 0.37843 0.0805 0.14013 0.0
H366 H 0.37703 0.10261 0.03236 0.0
H367 H 0.4003 0.11865 0.98408 0.0
H368 H 0.42835 0.19873 0.0263 0.0
H369 H 0.40601 0.18284 0.0751 0.0
C370 C 0.26516 0.15177 0.15579 0.0
C371 C 0.26704 0.18134 0.15926 0.0
C372 C 0.28935 0.13812 0.14553 0.0
C373 C 0.31611 0.15372 0.13919 0.0
C374 C 0.31797 0.18335 0.14241 0.0
C375 C 0.29355 0.19709 0.15226 0.0
C376 C 0.34164 0.13893 0.12815 0.0
C377 C 0.35552 0.14749 0.10076 0.0
C378 C 0.35064 0.11499 0.14307 0.0
C379 C 0.33887 0.10652 0.17353 0.0
C380 C 0.33937 0.12629 0.19794 0.0
C381 C 0.32802 0.11832 0.2265 0.0
C382 C 0.31627 0.09057 0.23101 0.0
C383 C 0.31589 0.07071 0.20697 0.0
C384 C 0.32719 0.07858 0.17835 0.0
C385 C 0.45449 0.082 0.06703 0.0
C386 C 0.4447 0.05473 0.05623 0.0
C387 C 0.43511 0.09894 0.08212 0.0
C388 C 0.40581 0.08873 0.08689 0.0
C389 C 0.39623 0.06121 0.07706 0.0
C390 C 0.41545 0.04441 0.06159 0.0
C391 C 0.38465 0.107 0.10107 0.0
C392 C 0.37171 0.09907 0.12903 0.0
C393 C 0.37697 0.13181 0.087 0.0
C394 C 0.39021 0.14136 0.05753 0.0
C395 C 0.38848 0.1235 0.03147 0.0
C396 C 0.40151 0.13257 0.00399 0.0
C397 C 0.41597 0.15963 1.00217 0.0
C398 C 0.41731 0.17771 0.02778 0.0
C399 C 0.40452 0.16866 0.05537 0.0
H400 H 0.42604 0.16662 0.98088 0.0
H401 H 0.30749 0.08444 0.25313 0.0
H402 H 0.20912 0.8428 0.6626 0.0
H403 H 0.17049 0.8648 0.63577 0.0
H404 H 0.22956 0.8817 0.55969 0.0
H405 H 0.26815 0.85937 0.58627 0.0
H406 H 0.19981 0.92937 0.58247 0.0
H407 H 0.18027 0.83271 0.54863 0.0
H408 H 0.17097 0.78128 0.5554 0.0
H409 H 0.09311 0.79453 0.6077 0.0
H410 H 0.1022 0.84612 0.60163 0.0
H411 H 0.0701 0.93834 0.47521 0.0
H412 H 0.10695 0.91102 0.49812 0.0
H413 H 0.10078 0.95962 0.58192 0.0
H414 H 0.06368 0.98684 0.55924 0.0
H415 H 0.10532 0.87817 0.55173 0.0
H416 H 0.17294 0.97432 0.60522 0.0
H417 H 0.18318 0.02549 0.59692 0.0
H418 H 0.16666 0.01245 0.50134 0.0
H419 H 0.15678 0.96118 0.50899 0.0
C420 C 0.21371 0.85107 0.64007 0.0
C421 C 0.24145 0.84943 0.62638 0.0
C422 C 0.19171 0.86352 0.6248 0.0
C423 C 0.1973 0.87477 0.59583 0.0
C424 C 0.22494 0.87307 0.58206 0.0
C425 C 0.24681 0.86022 0.59712 0.0
C426 C 0.17444 0.88903 0.5803 0.0
C427 C 0.17916 0.91821 0.5757 0.0
C428 C 0.14769 0.8743 0.57136 0.0
C429 C 0.14208 0.84329 0.57492 0.0
C430 C 0.16131 0.82468 0.56181 0.0
C431 C 0.15605 0.79549 0.56547 0.0
C432 C 0.1315 0.78465 0.58204 0.0
C433 C 0.11213 0.80297 0.59491 0.0
C434 C 0.11731 0.83218 0.59133 0.0
C435 C 0.07647 0.94301 0.49859 0.0
C436 C 0.06433 0.96476 0.51544 0.0
C437 C 0.09736 0.92735 0.51164 0.0
C438 C 0.10665 0.93353 0.54154 0.0
C439 C 0.09396 0.95475 0.55871 0.0
C440 C 0.07282 0.97021 0.54578 0.0
C441 C 0.13052 0.91858 0.55434 0.0
C442 C 0.12597 0.88932 0.5585 0.0
C443 C 0.15753 0.93319 0.5627 0.0
C444 C 0.16383 0.96396 0.55776 0.0
C445 C 0.17159 0.98237 0.58242 0.0
C446 C 0.17731 0.0114 0.57784 0.0
C447 C 0.17547 0.02223 0.54864 0.0
C448 C 0.16797 1.00405 0.52396 0.0
C449 C 0.16227 0.97501 0.52842 0.0
H450 H 0.17996 0.04468 0.54512 0.0
H451 H 0.12746 0.76204 0.58485 0.0
H452 H 0.7341 0.37174 0.82278 0.0
H453 H 0.7796 0.39335 0.84497 0.0
H454 H 0.74375 0.37887 0.93522 0.0
H455 H 0.6982 0.35722 0.91316 0.0
H456 H 0.79228 0.43856 0.8801 0.0
H457 H 0.79821 0.36533 0.98332 0.0
H458 H 0.78283 0.31616 0.99725 0.0
H459 H 0.78458 0.29028 0.90288 0.0
H460 H 0.80037 0.33918 0.88843 0.0
H461 H 0.89952 0.5006 0.9814 0.0
H462 H 0.85415 0.47813 0.95997 0.0
H463 H 0.8986 0.40406 0.93531 0.0
H464 H 0.94381 0.42605 0.95773 0.0
H465 H 0.84692 0.38778 0.95554 0.0
H466 H 0.88349 0.45611 0.88242 0.0
H467 H 0.90161 0.50348 0.86484 0.0
H468 H 0.81991 0.53576 0.89148 0.0
H469 H 0.80144 0.48863 0.90961 0.0
C470 C 0.73581 0.37333 0.84736 0.0
C471 C 0.7125 0.36263 0.86618 0.0
C472 C 0.76188 0.38566 0.86003 0.0
C473 C 0.76531 0.38752 0.89179 0.0
C474 C 0.74191 0.37723 0.91065 0.0
C475 C 0.71587 0.36481 0.898 0.0
C476 C 0.79336 0.40015 0.90514 0.0
C477 C 0.8042 0.42745 0.89662 0.0
C478 C 0.80929 0.38555 0.92632 0.0
C479 C 0.80018 0.35598 0.9348 0.0
C480 C 0.79542 0.34912 0.96556 0.0
C481 C 0.78662 0.3213 0.97354 0.0
C482 C 0.78263 0.30013 0.95096 0.0
C483 C 0.78756 0.30671 0.92034 0.0
C484 C 0.79641 0.33448 0.91225 0.0
C485 C 0.89964 0.47949 0.9715 0.0
C486 C 0.92537 0.46519 0.97116 0.0
C487 C 0.87367 0.46669 0.95909 0.0
C488 C 0.87296 0.43955 0.94543 0.0
C489 C 0.8985 0.42502 0.94563 0.0
C490 C 0.92439 0.43765 0.95843 0.0
C491 C 0.84572 0.42636 0.93079 0.0
C492 C 0.835 0.39894 0.93908 0.0
C493 C 0.83026 0.44062 0.90886 0.0
C494 C 0.84118 0.46889 0.89762 0.0
C495 C 0.86945 0.47334 0.88469 0.0
C496 C 0.87978 0.50015 0.87461 0.0
C497 C 0.86195 0.52263 0.87712 0.0
C498 C 0.83371 0.51833 0.8896 0.0
C499 C 0.82329 0.49157 0.89974 0.0
H500 H 0.87 0.54337 0.86933 0.0
H501 H 0.77579 0.27861 0.95718 0.0
H502 H 0.76726 0.62309 0.32565 0.0
H503 H 0.72346 0.60079 0.35065 0.0
H504 H 0.76028 0.62374 0.43861 0.0
H505 H 0.80457 0.64549 0.41374 0.0
H506 H 0.73307 0.56995 0.438 0.0
H507 H 0.70997 0.66253 0.40862 0.0
H508 H 0.7056 0.70137 0.373 0.0
H509 H 0.64558 0.64777 0.31857 0.0
H510 H 0.64992 0.60846 0.35365 0.0
H511 H 0.60086 0.56186 0.52747 0.0
H512 H 0.64687 0.57765 0.5013 0.0
H513 H 0.60928 0.54945 0.41514 0.0
H514 H 0.56337 0.53341 0.4412 0.0
H515 H 0.63671 0.60437 0.4139 0.0
H516 H 0.65737 0.51265 0.44434 0.0
H517 H 0.65985 0.47424 0.48069 0.0
H518 H 0.72394 0.5254 0.53281 0.0
H519 H 0.72112 0.56456 0.49719 0.0
C520 C 0.76626 0.62306 0.35032 0.0
C521 C 0.78942 0.63622 0.36767 0.0
C522 C 0.74108 0.61049 0.36459 0.0
C523 C 0.7384 0.61087 0.39653 0.0
C524 C 0.7618 0.62325 0.41395 0.0
C525 C 0.78699 0.6359 0.39968 0.0
C526 C 0.71081 0.59922 0.41167 0.0
C527 C 0.71206 0.5777 0.43299 0.0
C528 C 0.68324 0.60884 0.40465 0.0
C529 C 0.68051 0.63247 0.38359 0.0
C530 C 0.69602 0.65896 0.38892 0.0
C531 C 0.69352 0.68107 0.36885 0.0
C532 C 0.67538 0.67702 0.34349 0.0
C533 C 0.65965 0.65086 0.3382 0.0
C534 C 0.66211 0.62867 0.35817 0.0
C535 C 0.60253 0.55883 0.50298 0.0
C536 C 0.57859 0.54641 0.48637 0.0
C537 C 0.6288 0.56782 0.48807 0.0
C538 C 0.6315 0.56471 0.45626 0.0
C539 C 0.60765 0.5521 0.43967 0.0
C540 C 0.58151 0.54282 0.45461 0.0
C541 C 0.659 0.57522 0.44027 0.0
C542 C 0.65772 0.59655 0.41882 0.0
C543 C 0.68647 0.56538 0.44714 0.0
C544 C 0.6888 0.54168 0.46825 0.0
C545 C 0.67182 0.51583 0.46369 0.0
C546 C 0.6733 0.4939 0.48416 0.0
C547 C 0.69206 0.49735 0.50908 0.0
C548 C 0.70939 0.52276 0.51351 0.0
C549 C 0.70783 0.54487 0.4932 0.0
H550 H 0.69318 0.48033 0.52493 0.0
H551 H 0.67347 0.69416 0.32798 0.0
H552 H 0.23299 0.2738 0.1308 0.0
H553 H 0.2109 0.30788 0.09897 0.0
H554 H 0.1253 0.26514 0.11553 0.0
H555 H 0.14727 0.23024 0.14551 0.0
H556 H 0.12902 0.2798 0.05921 0.0
H557 H 0.15243 0.32636 0.15625 0.0
H558 H 0.18509 0.34437 0.19786 0.0
H559 H 0.23617 0.39687 0.13499 0.0
H560 H 0.204 0.37888 0.09291 0.0
H561 H 0.02942 0.38697 0.0551 0.0
H562 H 0.06141 0.35058 0.06941 0.0
H563 H 0.13478 0.39652 0.02499 0.0
H564 H 0.10281 0.43268 0.0101 0.0
H565 H 0.14353 0.3818 0.08759 0.0
H566 H 0.11246 0.33929 0.99225 0.0
H567 H 0.07651 0.32195 0.95338 0.0
H568 H 0.03615 0.26219 0.0164 0.0
H569 H 0.07161 0.27945 0.05582 0.0
C570 C 0.20952 0.2715 0.12729 0.0
C571 C 0.19183 0.24962 0.14116 0.0
C572 C 0.19691 0.29109 0.10931 0.0
C573 C 0.16638 0.28932 0.10528 0.0
C574 C 0.14888 0.26702 0.11839 0.0
C575 C 0.16145 0.24731 0.13595 0.0
C576 C 0.15214 0.31106 0.08846 0.0
C577 C 0.13215 0.3021 0.06548 0.0
C578 C 0.15671 0.34023 0.09615 0.0
C579 C 0.17607 0.35101 0.12139 0.0
C580 C 0.17078 0.34157 0.15127 0.0
C581 C 0.18917 0.3518 0.17494 0.0
C582 C 0.21275 0.37167 0.16905 0.0
C583 C 0.21794 0.38142 0.1395 0.0
C584 C 0.19964 0.37122 0.11574 0.0
C585 C 0.05228 0.38905 0.04807 0.0
C586 C 0.06375 0.41252 0.03159 0.0
C587 C 0.07046 0.3683 0.05615 0.0
C588 C 0.10034 0.37096 0.04812 0.0
C589 C 0.11173 0.39418 0.03127 0.0
C590 C 0.09347 0.4147 0.02278 0.0
C591 C 0.11993 0.35035 0.05912 0.0
C592 C 0.14089 0.35956 0.08095 0.0
C593 C 0.11587 0.32139 0.05078 0.0
C594 C 0.09459 0.31082 0.02707 0.0
C595 C 0.09578 0.3226 0.99791 0.0
C596 C 0.07551 0.31276 0.97576 0.0
C597 C 0.05402 0.29101 0.98243 0.0
C598 C 0.0528 0.27903 0.01126 0.0
C599 C 0.07301 0.28882 0.03351 0.0
H600 H 0.03835 0.28342 0.96525 0.0
H601 H 0.22696 0.37958 0.18741 0.0
H602 H 0.67172 0.26575 0.8726 0.0
H603 H 0.64875 0.22224 0.8941 0.0
H604 H 0.56326 0.25161 0.88074 0.0
H605 H 0.58614 0.29586 0.86051 0.0
H606 H 0.56496 0.22769 0.93465 0.0
H607 H 0.59208 0.20138 0.83235 0.0
H608 H 0.62564 0.19701 0.78836 0.0
H609 H 0.67925 0.14658 0.84086 0.0
H610 H 0.64621 0.15097 0.88531 0.0
H611 H 0.48003 0.09627 0.94752 0.0
H612 H 0.50475 0.14052 0.9293 0.0
H613 H 0.58876 0.11 0.94794 0.0
H614 H 0.56402 0.06542 0.96596 0.0
H615 H 0.58875 0.13427 0.89252 0.0
H616 H 0.56125 0.15966 0.9944 0.0
H617 H 0.52712 0.1629 0.03807 0.0
H618 H 0.47389 0.21424 0.98624 0.0
H619 H 0.50753 0.211 0.94208 0.0
C620 C 0.64803 0.26318 0.87452 0.0
C621 C 0.63084 0.28445 0.8647 0.0
C622 C 0.63488 0.23806 0.88654 0.0
C623 C 0.60419 0.23335 0.8887 0.0
C624 C 0.58696 0.25463 0.87923 0.0
C625 C 0.6001 0.27985 0.86734 0.0
C626 C 0.59009 0.20627 0.90078 0.0
C627 C 0.56991 0.2073 0.92515 0.0
C628 C 0.597 0.17951 0.88899 0.0
C629 C 0.61683 0.17675 0.86225 0.0
C630 C 0.61114 0.18954 0.83458 0.0
C631 C 0.63005 0.18702 0.80955 0.0
C632 C 0.6546 0.17159 0.81184 0.0
C633 C 0.66025 0.15856 0.83913 0.0
C634 C 0.64143 0.16104 0.86425 0.0
C635 C 0.50377 0.09901 0.94781 0.0
C636 C 0.52011 0.07738 0.95811 0.0
C637 C 0.51789 0.12437 0.9375 0.0
C638 C 0.54865 0.12875 0.93745 0.0
C639 C 0.56502 0.10713 0.94774 0.0
C640 C 0.55088 0.08171 0.95812 0.0
C641 C 0.56361 0.15575 0.92625 0.0
C642 C 0.5839 0.15469 0.90206 0.0
C643 C 0.5568 0.18245 0.93818 0.0
C644 C 0.53681 0.18493 0.96486 0.0
C645 C 0.54219 0.17152 0.99225 0.0
C646 C 0.52294 0.17337 0.0171 0.0
C647 C 0.49835 0.18874 0.01492 0.0
C648 C 0.49297 0.20235 0.98789 0.0
C649 C 0.51214 0.20055 0.96296 0.0
H650 H 0.48352 0.19016 0.03421 0.0
H651 H 0.66922 0.16966 0.79243 0.0
H652 H 0.86731 0.74041 0.31702 0.0
H653 H 0.88699 0.78639 0.33773 0.0
H654 H 0.8838 0.75257 0.42826 0.0
H655 H 0.86377 0.70674 0.40772 0.0
H656 H 0.86401 0.8026 0.4302 0.0
H657 H 0.94924 0.76443 0.3863 0.0
H658 H 0.97891 0.74353 0.34568 0.0
H659 H 0.97294 0.81693 0.29138 0.0
H660 H 0.94288 0.83812 0.33153 0.0
H661 H 0.9562 0.9089 0.50567 0.0
H662 H 0.93529 0.8647 0.48233 0.0
H663 H 0.93486 0.90452 0.395 0.0
H664 H 0.95619 0.9489 0.41813 0.0
H665 H 0.95554 0.8527 0.39005 0.0
H666 H 0.87135 0.89127 0.43611 0.0
H667 H 0.84285 0.91169 0.47799 0.0
H668 H 0.84827 0.83663 0.52975 0.0
H669 H 0.87715 0.81589 0.48832 0.0
C670 C 0.87105 0.74272 0.3413 0.0
C671 C 0.864 0.71988 0.36071 0.0
C672 C 0.88232 0.76904 0.35314 0.0
C673 C 0.88724 0.77298 0.38458 0.0
C674 C 0.88017 0.75018 0.40396 0.0
C675 C 0.86869 0.72396 0.39218 0.0
C676 C 0.89938 0.80088 0.39745 0.0
C677 C 0.88422 0.81335 0.42162 0.0
C678 C 0.92541 0.81537 0.38591 0.0
C679 C 0.94355 0.80272 0.36178 0.0
C680 C 0.95407 0.77602 0.3656 0.0
C681 C 0.97098 0.76413 0.34268 0.0
C682 C 0.97773 0.77886 0.31593 0.0
C683 C 0.96765 0.80553 0.31209 0.0
C684 C 0.95069 0.8175 0.33493 0.0
C685 C 0.95159 0.9084 0.48149 0.0
C686 C 0.95781 0.9326 0.46382 0.0
C687 C 0.93951 0.88305 0.4682 0.0
C688 C 0.93316 0.8813 0.43695 0.0
C689 C 0.9395 0.90534 0.41918 0.0
C690 C 0.9516 0.93077 0.43246 0.0
C691 C 0.92027 0.85424 0.42288 0.0
C692 C 0.93527 0.84196 0.39851 0.0
C693 C 0.89422 0.83981 0.43437 0.0
C694 C 0.87662 0.85213 0.4592 0.0
C695 C 0.86663 0.8792 0.4565 0.0
C696 C 0.85038 0.89081 0.48014 0.0
C697 C 0.84381 0.87549 0.50654 0.0
C698 C 0.8534 0.84848 0.5093 0.0
C699 C 0.86968 0.83677 0.48573 0.0
H700 H 0.83124 0.88453 0.52482 0.0
H701 H 0.99083 0.76962 0.29821 0.0
H702 H 0.36355 0.80213 0.64362 0.0
H703 H 0.38963 0.76185 0.62579 0.0
H704 H 0.30766 0.71764 0.59818 0.0
H705 H 0.28134 0.7576 0.61672 0.0
H706 H 0.33948 0.68529 0.63251 0.0
H707 H 0.35666 0.7434 0.54529 0.0
H708 H 0.37221 0.78687 0.51761 0.0
H709 H 0.45983 0.78469 0.55079 0.0
H710 H 0.44472 0.74141 0.57904 0.0
H711 H 0.40423 0.57253 0.55261 0.0
H712 H 0.37611 0.61214 0.56857 0.0
H713 H 0.45612 0.65994 0.59636 0.0
H714 H 0.48428 0.62043 0.58024 0.0
H715 H 0.42406 0.69017 0.5604 0.0
H716 H 0.40711 0.63362 0.64888 0.0
H717 H 0.39143 0.5922 0.67983 0.0
H718 H 0.30385 0.59228 0.64595 0.0
H719 H 0.31909 0.63346 0.61442 0.0
C720 C 0.35112 0.78386 0.63364 0.0
C721 C 0.32041 0.7829 0.6317 0.0
C722 C 0.36606 0.76099 0.62321 0.0
C723 C 0.35057 0.73686 0.61052 0.0
C724 C 0.31999 0.73613 0.60786 0.0
C725 C 0.30503 0.75901 0.61825 0.0
C726 C 0.3661 0.7117 0.60189 0.0
C727 C 0.35763 0.68616 0.61628 0.0
C728 C 0.39032 0.71322 0.58146 0.0
C729 C 0.39947 0.73928 0.56451 0.0
C730 C 0.37919 0.75232 0.5469 0.0
C731 C 0.38793 0.7769 0.53107 0.0
C732 C 0.41697 0.78857 0.5325 0.0
C733 C 0.43733 0.77564 0.54972 0.0
C734 C 0.4287 0.75107 0.56563 0.0
C735 C 0.41569 0.59134 0.56258 0.0
C736 C 0.44633 0.59351 0.56526 0.0
C737 C 0.39964 0.61391 0.57171 0.0
C738 C 0.41405 0.63892 0.58373 0.0
C739 C 0.44462 0.64082 0.58708 0.0
C740 C 0.46064 0.61825 0.57799 0.0
C741 C 0.39751 0.66373 0.59113 0.0
C742 C 0.40579 0.68921 0.57647 0.0
C743 C 0.37315 0.66218 0.61138 0.0
C744 C 0.36432 0.63649 0.62907 0.0
C745 C 0.3846 0.62458 0.64769 0.0
C746 C 0.37576 0.60124 0.66547 0.0
C747 C 0.34663 0.58973 0.66498 0.0
C748 C 0.32637 0.60131 0.64642 0.0
C749 C 0.33511 0.62463 0.62857 0.0
H750 H 0.33977 0.57179 0.67892 0.0
H751 H 0.4237 0.8076 0.52021 0.0
H752 H 0.79573 0.83278 0.75465 0.0
H753 H 0.83079 0.85373 0.71772 0.0
H754 H 0.90238 0.82833 0.77092 0.0
H755 H 0.86741 0.80892 0.80909 0.0
H756 H 0.91443 0.87983 0.75468 0.0
H757 H 0.88351 0.79546 0.70087 0.0
H758 H 0.84931 0.75747 0.67937 0.0
H759 H 0.81183 0.81729 0.62271 0.0
H760 H 0.84547 0.85575 0.64419 0.0
H761 H 1.00249 0.93564 0.62478 0.0
H762 H 0.98193 0.90217 0.6632 0.0
H763 H 0.89519 0.92672 0.64549 0.0
H764 H 0.91538 0.96009 0.60779 0.0
H765 H 0.90094 0.86689 0.64313 0.0
H766 H 0.92758 0.9516 0.70646 0.0
H767 H 0.96332 0.98832 0.72794 0.0
H768 H 0.01191 0.92411 0.76576 0.0
H769 H 0.97662 0.887 0.74414 0.0
C770 C 0.81892 0.83172 0.75859 0.0
C771 C 0.82871 0.81918 0.78487 0.0
C772 C 0.83898 0.84333 0.73719 0.0
C773 C 0.86926 0.84214 0.74123 0.0
C774 C 0.87913 0.82929 0.76721 0.0
C775 C 0.85906 0.81796 0.78885 0.0
C776 C 0.89039 0.85604 0.71923 0.0
C777 C 0.91193 0.87646 0.73029 0.0
C778 C 0.88729 0.85163 0.68738 0.0
C779 C 0.86697 0.82855 0.67428 0.0
C780 C 0.86784 0.80057 0.68397 0.0
C781 C 0.84856 0.77893 0.67177 0.0
C782 C 0.82838 0.78497 0.64971 0.0
C783 C 0.82747 0.81265 0.63979 0.0
C784 C 0.84668 0.83437 0.65194 0.0
C785 C 0.97911 0.93401 0.62944 0.0
C786 C 0.96047 0.95035 0.61341 0.0
C787 C 0.96744 0.91493 0.65122 0.0
C788 C 0.93706 0.91194 0.65687 0.0
C789 C 0.91865 0.92862 0.64121 0.0
C790 C 0.93025 0.94776 0.61982 0.0
C791 C 0.92375 0.89131 0.67872 0.0
C792 C 0.90383 0.86958 0.66756 0.0
C793 C 0.92862 0.89423 0.71037 0.0
C794 C 0.94972 0.91655 0.72335 0.0
C795 C 0.94605 0.94532 0.7191 0.0
C796 C 0.96618 0.9662 0.73136 0.0
C797 C 0.98994 0.95855 0.7481 0.0
C798 C 0.99355 0.93 0.75272 0.0
C799 C 0.97348 0.90905 0.74048 0.0
H800 H 0.0055 0.97474 0.75758 0.0
H801 H 0.81348 0.76818 0.64029 0.0
H802 H 0.65185 0.17164 0.29973 0.0
H803 H 0.63261 0.14793 0.25364 0.0
H804 H 0.71837 0.12109 0.23151 0.0
H805 H 0.73833 0.14664 0.27659 0.0
H806 H 0.69585 0.13847 0.18272 0.0
H807 H 0.66108 0.07433 0.25892 0.0
H808 H 0.63739 0.05822 0.30697 0.0
H809 H 0.55543 0.08561 0.27763 0.0
H810 H 0.57871 0.10227 0.22956 0.0
H811 H 0.62065 0.03032 0.07878 0.0
H812 H 0.64935 0.05193 0.12148 0.0
H813 H 0.59074 0.11839 0.12899 0.0
H814 H 0.56251 0.09747 0.08587 0.0
H815 H 0.60315 0.0762 0.1843 0.0
H816 H 0.64352 0.14477 0.10919 0.0
H817 H 0.66916 0.15689 0.06084 0.0
H818 H 0.74336 0.1146 0.08898 0.0
H819 H 0.71791 0.10186 0.13733 0.0
C820 C 0.66675 0.16097 0.28494 0.0
C821 C 0.69669 0.16118 0.29184 0.0
C822 C 0.6556 0.14701 0.25879 0.0
C823 C 0.67393 0.13229 0.23936 0.0
C824 C 0.70378 0.1322 0.24627 0.0
C825 C 0.71508 0.14656 0.27223 0.0
C826 C 0.66198 0.11799 0.21127 0.0
C827 C 0.67583 0.1245 0.18322 0.0
C828 C 0.63586 0.09971 0.21177 0.0
C829 C 0.62172 0.08976 0.2407 0.0
C830 C 0.63805 0.07712 0.2628 0.0
C831 C 0.62469 0.06785 0.29003 0.0
C832 C 0.59494 0.07094 0.29537 0.0
C833 C 0.57848 0.08325 0.27346 0.0
C834 C 0.59174 0.09258 0.2462 0.0
C835 C 0.61434 0.04988 0.08916 0.0
C836 C 0.58944 0.06228 0.07921 0.0
C837 C 0.63068 0.06212 0.11343 0.0
C838 C 0.62201 0.08664 0.12815 0.0
C839 C 0.5977 0.09951 0.11766 0.0
C840 C 0.5817 0.0876 0.09307 0.0
C841 C 0.63659 0.09745 0.15622 0.0
C842 C 0.62328 0.09004 0.18414 0.0
C843 C 0.66343 0.11435 0.15564 0.0
C844 C 0.67866 0.12202 0.12663 0.0
C845 C 0.66515 0.13775 0.10489 0.0
C846 C 0.67968 0.14482 0.07754 0.0
C847 C 0.70783 0.13643 0.07179 0.0
C848 C 0.72153 0.12103 0.09343 0.0
C849 C 0.70707 0.1139 0.12081 0.0
H850 H 0.71905 0.14193 0.05061 0.0
H851 H 0.58463 0.06374 0.31647 0.0
H852 H 0.38306 0.69055 0.24916 0.0
H853 H 0.40332 0.66635 0.29167 0.0
H854 H 0.39779 0.58831 0.23878 0.0
H855 H 0.37682 0.61235 0.19649 0.0
H856 H 0.37995 0.5772 0.29352 0.0
H857 H 0.46467 0.62935 0.25272 0.0
H858 H 0.49477 0.67127 0.23442 0.0
H859 H 0.48919 0.71122 0.32286 0.0
H860 H 0.45868 0.66968 0.3416 0.0
H861 H 0.47288 0.50703 0.39317 0.0
H862 H 0.45393 0.52975 0.34873 0.0
H863 H 0.44157 0.60451 0.40349 0.0
H864 H 0.46011 0.58196 0.44801 0.0
H865 H 0.46992 0.61598 0.34688 0.0
H866 H 0.38396 0.56234 0.38634 0.0
H867 H 0.35545 0.51905 0.40347 0.0
H868 H 0.36607 0.48008 0.31517 0.0
H869 H 0.39504 0.52302 0.29764 0.0
C870 C 0.38644 0.66829 0.24649 0.0
C871 C 0.37842 0.65341 0.2194 0.0
C872 C 0.39809 0.65444 0.27082 0.0
C873 C 0.40257 0.62548 0.26844 0.0
C874 C 0.39458 0.61061 0.24133 0.0
C875 C 0.3826 0.62438 0.21712 0.0
C876 C 0.41494 0.61061 0.2944 0.0
C877 C 0.39989 0.58552 0.3048 0.0
C878 C 0.44076 0.6215 0.30963 0.0
C879 C 0.45915 0.6465 0.29848 0.0
C880 C 0.46967 0.64716 0.26821 0.0
C881 C 0.48684 0.67084 0.25777 0.0
C882 C 0.49382 0.69392 0.27744 0.0
C883 C 0.48372 0.69334 0.30764 0.0
C884 C 0.46651 0.66972 0.31819 0.0
C885 C 0.46606 0.52828 0.3958 0.0
C886 C 0.46796 0.5426 0.42425 0.0
C887 C 0.45518 0.54121 0.37037 0.0
C888 C 0.44627 0.56882 0.37279 0.0
C889 C 0.44834 0.58322 0.40107 0.0
C890 C 0.45882 0.57019 0.42656 0.0
C891 C 0.43483 0.58282 0.34589 0.0
C892 C 0.45007 0.60771 0.33538 0.0
C893 C 0.40945 0.57155 0.33032 0.0
C894 C 0.39194 0.54578 0.34079 0.0
C895 C 0.38044 0.54445 0.37066 0.0
C896 C 0.36416 0.51999 0.38043 0.0
C897 C 0.35902 0.49679 0.36045 0.0
C898 C 0.37011 0.49804 0.33064 0.0
C899 C 0.38644 0.52244 0.32077 0.0
H900 H 0.3464 0.47788 0.36805 0.0
H901 H 0.50712 0.71223 0.26932 0.0
H902 H 0.18638 0.38795 0.74714 0.0
H903 H 0.16476 0.41103 0.79148 0.0
H904 H 0.07814 0.38694 0.75721 0.0
H905 H 0.09961 0.36437 0.7125 0.0
H906 H 0.08238 0.44093 0.77679 0.0
H907 H 0.10498 0.35221 0.81605 0.0
H908 H 0.1362 0.31388 0.82718 0.0
H909 H 0.19259 0.37161 0.88108 0.0
H910 H 0.16193 0.41041 0.86991 0.0
H911 H 0.02733 0.44937 0.9445 0.0
H912 H 0.04907 0.42285 0.90251 0.0
H913 H 0.08975 0.5008 0.86697 0.0
H914 H 0.06815 0.52736 0.90886 0.0
H915 H 0.10575 0.41727 0.88283 0.0
H916 H 0.08481 0.49682 0.78912 0.0
H917 H 0.05012 0.53236 0.77837 0.0
H918 H 0.98421 0.48759 0.8336 0.0
H919 H 0.01835 0.45158 0.8443 0.0
C920 C 0.16273 0.38769 0.74896 0.0
C921 C 0.14474 0.37424 0.72625 0.0
C922 C 0.15038 0.40069 0.77447 0.0
C923 C 0.11979 0.40053 0.77787 0.0
C924 C 0.10179 0.38729 0.75516 0.0
C925 C 0.11411 0.37419 0.72971 0.0
C926 C 0.10654 0.41456 0.80483 0.0
C927 C 0.08756 0.43576 0.79995 0.0
C928 C 0.11283 0.40755 0.83513 0.0
C929 C 0.13132 0.38427 0.84189 0.0
C930 C 0.12418 0.35679 0.83006 0.0
C931 C 0.14175 0.33497 0.83642 0.0
C932 C 0.1664 0.34032 0.85476 0.0
C933 C 0.1735 0.3675 0.86684 0.0
C934 C 0.15603 0.38941 0.86052 0.0
C935 C 0.0411 0.4608 0.92785 0.0
C936 C 0.04588 0.49045 0.92982 0.0
C937 C 0.05357 0.44562 0.90392 0.0
C938 C 0.07077 0.45985 0.88138 0.0
C939 C 0.07626 0.4894 0.88387 0.0
C940 C 0.06397 0.50454 0.90787 0.0
C941 C 0.08216 0.444 0.8547 0.0
C942 C 0.10072 0.42248 0.85964 0.0
C943 C 0.07511 0.45037 0.82443 0.0
C944 C 0.05426 0.47168 0.81775 0.0
C945 C 0.06288 0.49451 0.79887 0.0
C946 C 0.04332 0.51474 0.7928 0.0
C947 C 0.01502 0.51228 0.80538 0.0
C948 C 0.00618 0.48953 0.82396 0.0
C949 C 0.02563 0.46922 0.83007 0.0
H950 H 0.99992 0.52798 0.80068 0.0
H951 H 0.17997 0.3234 0.85967 0.0
H952 H 0.70648 0.79647 0.85071 0.0
H953 H 0.667 0.8252 0.86805 0.0
H954 H 0.7278 0.89981 0.8687 0.0
H955 H 0.76726 0.87127 0.85159 0.0
H956 H 0.69481 0.89298 0.92224 0.0
H957 H 0.67988 0.89109 0.81365 0.0
H958 H 0.67164 0.8681 0.76319 0.0
H959 H 0.59121 0.82542 0.79588 0.0
H960 H 0.59919 0.84786 0.8467 0.0
H961 H 0.59943 0.99829 0.9486 0.0
H962 H 0.63518 0.97009 0.92326 0.0
H963 H 0.56916 0.90006 0.91366 0.0
H964 H 0.53293 0.92856 0.93817 0.0
H965 H 0.60388 0.90313 0.86449 0.0
H966 H 0.61789 0.90336 0.97241 0.0
H967 H 0.62532 0.92482 0.02373 0.0
H968 H 0.7066 0.96794 0.9939 0.0
H969 H 0.69943 0.94705 0.94225 0.0
C970 C 0.71132 0.81901 0.85453 0.0
C971 C 0.73982 0.83172 0.84973 0.0
C972 C 0.68879 0.83537 0.86422 0.0
C973 C 0.69454 0.8646 0.86942 0.0
C974 C 0.72298 0.87729 0.86467 0.0
C975 C 0.7454 0.86102 0.85475 0.0
C976 C 0.67123 0.8819 0.88097 0.0
C977 C 0.67508 0.89553 0.90947 0.0
C978 C 0.64517 0.88436 0.86464 0.0
C979 C 0.6403 0.87092 0.83407 0.0
C980 C 0.66057 0.87661 0.81016 0.0
C981 C 0.65592 0.86371 0.78148 0.0
C982 C 0.63096 0.84525 0.77635 0.0
C983 C 0.61056 0.83969 0.79989 0.0
C984 C 0.61512 0.85251 0.82864 0.0
C985 C 0.59243 0.977 0.9408 0.0
C986 C 0.5635 0.96548 0.94567 0.0
C987 C 0.6129 0.96088 0.9264 0.0
C988 C 0.60499 0.93276 0.91725 0.0
C989 C 0.57574 0.92167 0.9207 0.0
C990 C 0.5551 0.93796 0.93473 0.0
C991 C 0.62761 0.91455 0.90565 0.0
C992 C 0.6236 0.90062 0.87727 0.0
C993 C 0.65345 0.91149 0.92225 0.0
C994 C 0.65799 0.92384 0.95339 0.0
C995 C 0.63726 0.91756 0.97674 0.0
C996 C 0.64143 0.92961 0.0059 0.0
C997 C 0.66638 0.94778 0.01205 0.0
C998 C 0.68726 0.95388 0.98909 0.0
C999 C 0.68317 0.94193 0.95988 0.0
H1000 H 0.66956 0.9571 0.03463 0.0
H1001 H 0.62739 0.83529 0.75413 0.0
H1002 H 0.74229 0.12795 0.38318 0.0
H1003 H 0.7812 0.10808 0.4114 0.0
H1004 H 0.83179 0.18903 0.41106 0.0
H1005 H 0.79298 0.20899 0.3825 0.0
H1006 H 0.8642 0.14478 0.39341 0.0
H1007 H 0.7999 0.16817 0.47521 0.0
H1008 H 0.75264 0.16894 0.50277 0.0
H1009 H 0.74607 0.0783 0.50718 0.0
H1010 H 0.7931 0.07695 0.47923 0.0
H1011 H 0.93209 0.08009 0.53754 0.0
H1012 H 0.89927 0.11097 0.51361 0.0
H1013 H 0.90529 0.0634 0.42902 0.0
H1014 H 0.93871 0.03295 0.45268 0.0
H1015 H 0.84688 0.09725 0.49234 0.0
H1016 H 0.89372 0.10387 0.36938 0.0
H1017 H 0.94129 0.10609 0.34207 0.0
H1018 H 0.98447 0.14157 0.42211 0.0
H1019 H 0.93714 0.13961 0.4499 0.0
C1020 C 0.76172 0.14149 0.38913 0.0
C1021 C 0.76473 0.16996 0.38062 0.0
C1022 C 0.78379 0.13019 0.40541 0.0
C1023 C 0.80923 0.14717 0.41341 0.0
C1024 C 0.81225 0.17565 0.4051 0.0
C1025 C 0.79006 0.18703 0.389 0.0
C1026 C 0.83304 0.13479 0.42957 0.0
C1027 C 0.86054 0.1345 0.41513 0.0
C1028 C 0.82821 0.12174 0.45803 0.0
C1029 C 0.79993 0.12246 0.47491 0.0
C1030 C 0.78827 0.14838 0.48184 0.0
C1031 C 0.76154 0.14893 0.49757 0.0
C1032 C 0.74634 0.12368 0.50667 0.0
C1033 C 0.75786 0.09784 0.5001 0.0
C1034 C 0.78457 0.09718 0.48434 0.0
C1035 C 0.92662 0.07645 0.51375 0.0
C1036 C 0.93772 0.05411 0.49695 0.0
C1037 C 0.90789 0.09407 0.50013 0.0
C1038 C 0.89997 0.08962 0.46949 0.0
C1039 C 0.9115 0.06756 0.45253 0.0
C1040 C 0.9304 0.05005 0.4661 0.0
C1041 C 0.87806 0.10676 0.45595 0.0
C1042 C 0.85077 0.10779 0.47079 0.0
C1043 C 0.88319 0.1207 0.42798 0.0
C1044 C 0.91189 0.12143 0.41176 0.0
C1045 C 0.91337 0.11214 0.38115 0.0
C1046 C 0.94029 0.1133 0.36561 0.0
C1047 C 0.96589 0.1239 0.38036 0.0
C1048 C 0.96464 0.13322 0.41076 0.0
C1049 C 0.93778 0.13201 0.42646 0.0
H1050 H 0.98662 0.12501 0.36815 0.0
H1051 H 0.72565 0.12415 0.51886 0.0
H1052 H 0.28056 0.6362 0.18313 0.0
H1053 H 0.23612 0.61424 0.15931 0.0
H1054 H 0.26281 0.65149 0.07371 0.0
H1055 H 0.30837 0.672 0.09654 0.0
H1056 H 0.19817 0.65699 0.10221 0.0
H1057 H 0.27089 0.59272 0.06848 0.0
H1058 H 0.3105 0.56194 0.07798 0.0
H1059 H 0.25361 0.51192 0.13814 0.0
H1060 H 0.21379 0.54272 0.12936 0.0
H1061 H 0.08728 0.58831 0.00847 0.0
H1062 H 0.13308 0.61099 0.02903 0.0
H1063 H 0.13569 0.54373 0.09336 0.0
H1064 H 0.09105 0.52023 0.07153 0.0
H1065 H 0.18689 0.55456 0.07524 0.0
H1066 H 0.11468 0.61461 0.11176 0.0
H1067 H 0.07371 0.64501 0.10858 0.0
H1068 H 0.12626 0.70243 0.05189 0.0
H1069 H 0.16744 0.67217 0.05441 0.0
C1070 C 0.27745 0.63938 0.15909 0.0
C1071 C 0.29842 0.65596 0.14189 0.0
C1072 C 0.25178 0.62702 0.14562 0.0
C1073 C 0.24621 0.63135 0.11483 0.0
C1074 C 0.26668 0.64809 0.0976 0.0
C1075 C 0.29267 0.65997 0.11085 0.0
C1076 C 0.21909 0.61806 0.1006 0.0
C1077 C 0.19571 0.63469 0.09585 0.0
C1078 C 0.21566 0.58882 0.09345 0.0
C1079 C 0.23951 0.57021 0.09855 0.0
C1080 C 0.26693 0.57534 0.08399 0.0
C1081 C 0.2894 0.55785 0.08918 0.0
C1082 C 0.28461 0.53504 0.10873 0.0
C1083 C 0.25731 0.52962 0.12305 0.0
C1084 C 0.23479 0.54708 0.11796 0.0
C1085 C 0.09767 0.57843 0.02702 0.0
C1086 C 0.08557 0.55252 0.0384 0.0
C1087 C 0.12379 0.59151 0.03895 0.0
C1088 C 0.1378 0.57946 0.06326 0.0
C1089 C 0.12555 0.55355 0.07461 0.0
C1090 C 0.09992 0.54013 0.06216 0.0
C1091 C 0.1654 0.59341 0.0766 0.0
C1092 C 0.18904 0.57691 0.08136 0.0
C1093 C 0.16872 0.62269 0.08454 0.0
C1094 C 0.14403 0.64096 0.08301 0.0
C1095 C 0.11743 0.63362 0.09843 0.0
C1096 C 0.09418 0.65083 0.09678 0.0
C1097 C 0.09735 0.67559 0.07997 0.0
C1098 C 0.12382 0.68322 0.06486 0.0
C1099 C 0.14713 0.66605 0.06641 0.0
H1100 H 0.07933 0.68889 0.07872 0.0
H1101 H 0.30202 0.52152 0.11272 0.0
H1102 H 0.20431 0.36596 0.59597 0.0
H1103 H 0.24754 0.38797 0.56975 0.0
H1104 H 0.28642 0.41248 0.65636 0.0
H1105 H 0.24329 0.39031 0.68281 0.0
H1106 H 0.29491 0.45497 0.61571 0.0
H1107 H 0.30774 0.35541 0.61663 0.0
H1108 H 0.29335 0.30469 0.60744 0.0
H1109 H 0.28716 0.3189 0.51154 0.0
H1110 H 0.30111 0.3698 0.52022 0.0
H1111 H 0.44279 0.48274 0.56591 0.0
H1112 H 0.39667 0.46583 0.59068 0.0
H1113 H 0.36236 0.43542 0.50374 0.0
H1114 H 0.409 0.4514 0.47907 0.0
H1115 H 0.3506 0.39668 0.54394 0.0
H1116 H 0.33653 0.49635 0.54274 0.0
H1117 H 0.35158 0.54702 0.55165 0.0
H1118 H 0.36145 0.53236 0.64703 0.0
H1119 H 0.34605 0.48176 0.63873 0.0
C1120 C 0.22211 0.37587 0.60949 0.0
C1121 C 0.22036 0.37611 0.64155 0.0
C1122 C 0.2468 0.38854 0.59444 0.0
C1123 C 0.27045 0.4016 0.61106 0.0
C1124 C 0.26847 0.40256 0.64303 0.0
C1125 C 0.24375 0.3899 0.65812 0.0
C1126 C 0.2975 0.41358 0.59511 0.0
C1127 C 0.30723 0.44215 0.60023 0.0
C1128 C 0.31334 0.39709 0.57442 0.0
C1129 C 0.30519 0.36645 0.56912 0.0
C1130 C 0.3031 0.34775 0.59361 0.0
C1131 C 0.29506 0.31897 0.58849 0.0
C1132 C 0.28927 0.30859 0.55894 0.0
C1133 C 0.2916 0.32697 0.53443 0.0
C1134 C 0.2996 0.35578 0.53943 0.0
C1135 C 0.4253 0.47269 0.55204 0.0
C1136 C 0.4295 0.46832 0.52056 0.0
C1137 C 0.39882 0.46316 0.56621 0.0
C1138 C 0.37573 0.4496 0.5491 0.0
C1139 C 0.37977 0.44578 0.51749 0.0
C1140 C 0.40639 0.45501 0.50338 0.0
C1141 C 0.34799 0.43817 0.56433 0.0
C1142 C 0.33817 0.40962 0.55919 0.0
C1143 C 0.33203 0.45471 0.58489 0.0
C1144 C 0.34027 0.48529 0.5901 0.0
C1145 C 0.34185 0.50399 0.56561 0.0
C1146 C 0.35037 0.53271 0.57057 0.0
C1147 C 0.35745 0.54293 0.59989 0.0
C1148 C 0.35579 0.5245 0.62436 0.0
C1149 C 0.34702 0.49582 0.61958 0.0
H1150 H 0.36425 0.56512 0.60363 0.0
H1151 H 0.28304 0.2863 0.55502 0.0
H1152 H 0.81033 0.72363 0.82789 0.0
H1153 H 0.83151 0.6882 0.8582 0.0
H1154 H 0.81291 0.7353 0.94052 0.0
H1155 H 0.79263 0.77142 0.91012 0.0
H1156 H 0.86828 0.72532 0.93822 0.0
H1157 H 0.77904 0.66875 0.9264 0.0
H1158 H 0.73599 0.64498 0.9005 0.0
H1159 H 0.79218 0.59549 0.84597 0.0
H1160 H 0.83564 0.6193 0.87112 0.0
H1161 H 0.93893 0.61597 0.01494 0.0
H1162 H 0.90187 0.64766 1.00041 0.0
H1163 H 0.91415 0.62401 0.90586 0.0
H1164 H 0.95115 0.59267 0.92012 0.0
H1165 H 0.855 0.62094 0.92503 0.0
H1166 H 0.94349 0.68535 0.93059 0.0
H1167 H 0.98641 0.70918 0.95677 0.0
H1168 H 0.92976 0.74336 0.02445 0.0
H1169 H 0.8865 0.7194 0.99885 0.0
C1170 C 0.81032 0.72618 0.85248 0.0
C1171 C 0.8001 0.75039 0.86662 0.0
C1172 C 0.82214 0.70577 0.86983 0.0
C1173 C 0.82366 0.70904 0.90167 0.0
C1174 C 0.81187 0.73236 0.91599 0.0
C1175 C 0.8001 0.75285 0.89861 0.0
C1176 C 0.84097 0.69012 0.91921 0.0
C1177 C 0.86485 0.70245 0.93601 0.0
C1178 C 0.83676 0.66031 0.91601 0.0
C1179 C 0.81067 0.64599 0.90058 0.0
C1180 C 0.78227 0.65299 0.9087 0.0
C1181 C 0.75777 0.63947 0.89416 0.0
C1182 C 0.76135 0.61878 0.87156 0.0
C1183 C 0.78944 0.61154 0.86347 0.0
C1184 C 0.81402 0.62503 0.87789 0.0
C1185 C 0.9339 0.61787 0.99106 0.0
C1186 C 0.94786 0.60204 0.9686 0.0
C1187 C 0.91274 0.63582 0.98284 0.0
C1188 C 0.90526 0.63795 0.95211 0.0
C1189 C 0.91953 0.62244 0.9297 0.0
C1190 C 0.94079 0.60475 0.93785 0.0
C1191 C 0.88258 0.65629 0.94289 0.0
C1192 C 0.8578 0.64379 0.92777 0.0
C1193 C 0.88584 0.6859 0.94771 0.0
C1194 C 0.91182 0.70029 0.96306 0.0
C1195 C 0.94022 0.69773 0.95122 0.0
C1196 C 0.96459 0.7113 0.96591 0.0
C1197 C 0.96082 0.72769 0.99232 0.0
C1198 C 0.93265 0.7306 0.00403 0.0
C1199 C 0.9082 0.71704 0.98944 0.0
H1200 H 0.97972 0.73819 0.00366 0.0
H1201 H 0.74235 0.60832 0.86036 0.0
H1202 H 0.33666 0.75498 0.14348 0.0
H1203 H 0.35887 0.79908 0.12238 0.0
H1204 H 0.4448 0.76941 0.13133 0.0
H1205 H 0.42276 0.72497 0.15191 0.0
H1206 H 0.44374 0.82452 0.15044 0.0
H1207 H 0.4121 0.76799 0.06269 0.0
H1208 H 0.37647 0.73909 0.03092 0.0
H1209 H 0.32364 0.80938 0.02505 0.0
H1210 H 0.35876 0.83859 0.05719 0.0
H1211 H 0.52655 0.92155 0.05759 0.0
H1212 H 0.50198 0.87846 0.07864 0.0
H1213 H 0.41781 0.9098 0.06265 0.0
H1214 H 0.44245 0.95289 0.04089 0.0
H1215 H 0.4163 0.85482 0.04795 0.0
H1216 H 0.4476 0.91178 0.13456 0.0
H1217 H 0.48249 0.94107 0.16681 0.0
H1218 H 0.53482 0.87075 0.1757 0.0
H1219 H 0.50044 0.84113 0.14314 0.0
C1220 C 0.36028 0.75767 0.14076 0.0
C1221 C 0.37786 0.7362 0.14925 0.0
C1222 C 0.37296 0.78299 0.12875 0.0
C1223 C 0.40351 0.78748 0.1249 0.0
C1224 C 0.42118 0.76646 0.13407 0.0
C1225 C 0.40852 0.74107 0.14599 0.0
C1226 C 0.41705 0.81398 0.11114 0.0
C1227 C 0.438 0.83096 0.12788 0.0
C1228 C 0.40898 0.82288 0.08204 0.0
C1229 C 0.3879 0.80538 0.06262 0.0
C1230 C 0.39276 0.77721 0.05484 0.0
C1231 C 0.37268 0.76078 0.03673 0.0
C1232 C 0.34776 0.77236 0.02605 0.0
C1233 C 0.34292 0.80042 0.03339 0.0
C1234 C 0.36292 0.81693 0.05153 0.0
C1235 C 0.5028 0.91925 0.05849 0.0
C1236 C 0.48642 0.94071 0.04787 0.0
C1237 C 0.48876 0.89464 0.07068 0.0
C1238 C 0.458 0.89102 0.07285 0.0
C1239 C 0.44155 0.91212 0.06142 0.0
C1240 C 0.45563 0.93676 0.04906 0.0
C1241 C 0.4432 0.86529 0.08716 0.0
C1242 C 0.42199 0.84846 0.07056 0.0
C1243 C 0.45091 0.8566 0.11648 0.0
C1244 C 0.47158 0.87431 0.13618 0.0
C1245 C 0.46666 0.90262 0.1432 0.0
C1246 C 0.48633 0.91927 0.16157 0.0
C1247 C 0.51089 0.9078 0.17323 0.0
C1248 C 0.5158 0.87962 0.16662 0.0
C1249 C 0.49622 0.86288 0.14823 0.0
H1250 H 0.52609 0.92073 0.18745 0.0
H1251 H 0.33225 0.75961 0.01202 0.0
H1252 H 0.14581 0.30567 0.60223 0.0
H1253 H 0.12421 0.26004 0.58256 0.0
H1254 H 0.11743 0.22847 0.67398 0.0
H1255 H 0.13949 0.27401 0.69379 0.0
H1256 H 0.13845 0.18963 0.63335 0.0
H1257 H 0.05754 0.2474 0.64006 0.0
H1258 H 0.03104 0.28958 0.63127 0.0
H1259 H 0.03711 0.27499 0.53454 0.0
H1260 H 0.06405 0.23293 0.54274 0.0
H1261 H 0.04148 0.06755 0.59627 0.0
H1262 H 0.06377 0.11182 0.61874 0.0
H1263 H 0.06961 0.14889 0.52982 0.0
H1264 H 0.04718 0.10497 0.50724 0.0
H1265 H 0.04834 0.18462 0.57114 0.0
H1266 H 0.13 0.12763 0.56403 0.0
H1267 H 0.15666 0.08548 0.57237 0.0
H1268 H 0.14948 0.09853 0.66923 0.0
H1269 H 0.12236 0.14056 0.66147 0.0
C1270 C 0.13992 0.28896 0.61815 0.0
C1271 C 0.14432 0.29353 0.64961 0.0
C1272 C 0.12738 0.26294 0.60689 0.0
C1273 C 0.11894 0.24087 0.62681 0.0
C1274 C 0.12369 0.2452 0.65818 0.0
C1275 C 0.13608 0.27131 0.66949 0.0
C1276 C 0.10501 0.2134 0.61482 0.0
C1277 C 0.1185 0.18846 0.62013 0.0
C1278 C 0.07931 0.21191 0.59704 0.0
C1279 C 0.06307 0.23717 0.59202 0.0
C1280 C 0.05345 0.25332 0.6169 0.0
C1281 C 0.0383 0.27718 0.61203 0.0
C1282 C 0.03246 0.28501 0.58236 0.0
C1283 C 0.04169 0.26893 0.55751 0.0
C1284 C 0.05688 0.24506 0.56226 0.0
C1285 C 0.04759 0.08507 0.58146 0.0
C1286 C 0.04254 0.08258 0.5499 0.0
C1287 C 0.06045 0.11036 0.59434 0.0
C1288 C 0.06857 0.13368 0.57596 0.0
C1289 C 0.06352 0.13124 0.5445 0.0
C1290 C 0.05078 0.10599 0.5316 0.0
C1291 C 0.08188 0.16083 0.58943 0.0
C1292 C 0.06824 0.18574 0.58443 0.0
C1293 C 0.10746 0.16227 0.60742 0.0
C1294 C 0.12386 0.13707 0.61217 0.0
C1295 C 0.13388 0.12138 0.58711 0.0
C1296 C 0.14912 0.09752 0.59173 0.0
C1297 C 0.15469 0.08927 0.62131 0.0
C1298 C 0.1451 0.10491 0.64633 0.0
C1299 C 0.12981 0.12877 0.64184 0.0
H1300 H 0.1665 0.07081 0.62484 0.0
H1301 H 0.02072 0.30348 0.57864 0.0
H1302 H 0.65142 0.22773 0.35756 0.0
H1303 H 0.63012 0.27149 0.37255 0.0
H1304 H 0.71685 0.31291 0.3854 0.0
H1305 H 0.73835 0.26883 0.37074 0.0
H1306 H 0.68205 0.32551 0.43099 0.0
H1307 H 0.67615 0.3267 0.32297 0.0
H1308 H 0.66453 0.30742 0.27149 0.0
H1309 H 0.57299 0.29758 0.29544 0.0
H1310 H 0.58409 0.31641 0.34722 0.0
H1311 H 0.5906 0.4554 0.41347 0.0
H1312 H 0.6255 0.42227 0.39441 0.0
H1313 H 0.58791 0.35906 0.45584 0.0
H1314 H 0.55238 0.39165 0.47418 0.0
H1315 H 0.60636 0.3651 0.36852 0.0
H1316 H 0.65571 0.32964 0.48242 0.0
H1317 H 0.67431 0.34996 0.53132 0.0
H1318 H 0.6855 0.43235 0.49242 0.0
H1319 H 0.66738 0.41258 0.44312 0.0
C1320 C 0.66596 0.24624 0.36333 0.0
C1321 C 0.69653 0.24501 0.36277 0.0
C1322 C 0.65377 0.27124 0.37181 0.0
C1323 C 0.67192 0.29561 0.37949 0.0
C1324 C 0.70248 0.29437 0.37937 0.0
C1325 C 0.71471 0.26922 0.3711 0.0
C1326 C 0.65871 0.32201 0.38864 0.0
C1327 C 0.66559 0.33427 0.4173 0.0
C1328 C 0.63784 0.33385 0.37033 0.0
C1329 C 0.631 0.32285 0.33905 0.0
C1330 C 0.65356 0.32029 0.31732 0.0
C1331 C 0.64706 0.30944 0.28808 0.0
C1332 C 0.61804 0.30125 0.28021 0.0
C1333 C 0.59545 0.30394 0.30156 0.0
C1334 C 0.60184 0.31474 0.33085 0.0
C1335 C 0.58978 0.43439 0.42277 0.0
C1336 C 0.56866 0.42585 0.44495 0.0
C1337 C 0.60976 0.41563 0.41203 0.0
C1338 C 0.60939 0.38845 0.42403 0.0
C1339 C 0.58866 0.3801 0.4466 0.0
C1340 C 0.56826 0.39858 0.4568 0.0
C1341 C 0.62889 0.36778 0.41136 0.0
C1342 C 0.62306 0.35652 0.38206 0.0
C1343 C 0.651 0.35713 0.42893 0.0
C1344 C 0.65978 0.36963 0.45911 0.0
C1345 C 0.66199 0.35214 0.4843 0.0
C1346 C 0.67261 0.36355 0.51205 0.0
C1347 C 0.68099 0.39247 0.51497 0.0
C1348 C 0.67869 0.41004 0.49017 0.0
C1349 C 0.66818 0.39874 0.46232 0.0
H1350 H 0.6892 0.40128 0.53648 0.0
H1351 H 0.61306 0.29284 0.25756 0.0
loop_
_geom_bond_atom_site_label_1
_geom_bond_atom_site_label_2
_geom_bond_distance
_geom_bond_site_symmetry_2
_ccdc_geom_bond_type
H0 C3 0.931 . S
H1 C6 0.928 . S
H2 C8 0.930 . S
C3 H0 0.931 . S
C3 C4 1.413 . S
C3 C5 1.360 . S
C4 C3 1.413 . S
C4 C8 1.429 . S
C5 C3 1.360 . S
C5 C6 1.372 . S
C6 H1 0.928 . S
C6 C5 1.372 . S
C6 C7 1.404 . S
C7 C6 1.404 . S
C7 C8 1.391 . S
C8 H2 0.930 . S
C8 C4 1.429 . S
C8 C7 1.391 . S
H9 C12 0.931 . S
H10 C15 0.928 . S
H11 C17 0.930 . S
C12 H9 0.931 . S
C12 C13 1.413 . S
C12 C14 1.360 . S
C13 C12 1.413 . S
C13 C17 1.429 . S
C14 C12 1.360 . S
C14 C15 1.372 . S
C15 H10 0.928 . S
C15 C14 1.372 . S
C15 C16 1.404 . S
C16 C15 1.404 . S
C16 C17 1.391 . S
C17 H11 0.930 . S
C17 C13 1.429 . S
C17 C16 1.391 . S
H18 C21 0.931 . S
H19 C24 0.928 . S
H20 C26 0.930 . S
C21 H18 0.931 . S
C21 C22 1.413 . S
C21 C23 1.360 . S
C22 C21 1.413 . S
C22 C26 1.429 . S
C23 C21 1.360 . S
C23 C24 1.372 . S
C24 H19 0.928 . S
C24 C23 1.372 . S
C24 C25 1.404 . S
C25 C24 1.404 . S
C25 C26 1.391 . S
C26 H20 0.930 . S
C26 C22 1.429 . S
C26 C25 1.391 . S
H27 C30 0.931 . S
H28 C33 0.928 . S
H29 C35 0.930 . S
C30 H27 0.931 . S
C30 C31 1.413 . S
C30 C32 1.360 . S
C31 C30 1.413 . S
C31 C35 1.429 . S
C32 C30 1.360 . S
C32 C33 1.372 . S
C33 H28 0.928 . S
C33 C32 1.372 . S
C33 C34 1.404 . S
C34 C33 1.404 . S
C34 C35 1.391 . S
C35 H29 0.930 . S
C35 C31 1.429 . S
C35 C34 1.391 . S
H36 C39 0.931 . S
H37 C42 0.928 . S
H38 C44 0.930 . S
C39 H36 0.931 . S
C39 C40 1.413 . S
C39 C41 1.360 . S
C40 C39 1.413 . S
C40 C44 1.429 . S
C41 C39 1.360 . S
C41 C42 1.372 . S
C42 H37 0.928 . S
C42 C41 1.372 . S
C42 C43 1.404 . S
C43 C42 1.404 . S
C43 C44 1.391 . S
C44 H38 0.930 . S
C44 C40 1.429 . S
C44 C43 1.391 . S
H45 C48 0.931 . S
H46 C51 0.928 . S
H47 C53 0.930 . S
C48 H45 0.931 . S
C48 C49 1.413 . S
C48 C50 1.360 . S
C49 C48 1.413 . S
C49 C53 1.429 . S
C50 C48 1.360 . S
C50 C51 1.372 . S
C51 H46 0.928 . S
C51 C50 1.372 . S
C51 C52 1.404 . S
C52 C51 1.404 . S
C52 C53 1.391 . S
C53 H47 0.930 . S
C53 C49 1.429 . S
C53 C52 1.391 . S
H54 C57 0.931 . S
H55 C60 0.928 . S
H56 C62 0.930 . S
C57 H54 0.931 . S
C57 C58 1.413 . S
C57 C59 1.360 . S
C58 C57 1.413 . S
C58 C62 1.429 . S
C59 C57 1.360 . S
C59 C60 1.372 . S
C60 H55 0.928 . S
C60 C59 1.372 . S
C60 C61 1.404 . S
C61 C60 1.404 . S
C61 C62 1.391 . S
C62 H56 0.930 . S
C62 C58 1.429 . S
C62 C61 1.391 . S
H63 C66 0.931 . S
H64 C69 0.928 . S
H65 C71 0.930 . S
C66 H63 0.931 . S
C66 C67 1.413 . S
C66 C68 1.360 . S
C67 C66 1.413 . S
C67 C71 1.429 . S
C68 C66 1.360 . S
C68 C69 1.372 . S
C69 H64 0.928 . S
C69 C68 1.372 . S
C69 C70 1.404 . S
C70 C69 1.404 . S
C70 C71 1.391 . S
C71 H65 0.930 . S
C71 C67 1.429 . S
C71 C70 1.391 . S
Dy72 O76 2.398 . S
Dy72 O77 2.491 . S
Dy72 O78 2.403 1_545 S
Dy72 O79 2.664 1_545 S
Dy72 O83 2.326 . S
Dy72 O87 2.310 1_455 S
Dy72 O88 2.351 1_445 S
C73 O84 1.185 . S
C73 O85 1.355 . S
C74 O76 1.185 . S
C74 O77 1.355 . S
Dy75 O79 2.310 1_655 S
Dy75 O82 2.351 1_665 S
Dy75 O84 2.398 . S
Dy75 O85 2.491 . S
Dy75 O86 2.403 1_565 S
Dy75 O87 2.664 1_565 S
Dy75 O89 2.326 . S
O76 Dy72 2.398 . S
O76 C74 1.185 . S
O77 Dy72 2.491 . S
O77 C74 1.355 . S
O78 Dy72 2.403 1_565 S
O78 C80 1.254 . S
O79 Dy72 2.664 1_565 S
O79 Dy75 2.310 1_455 S
O79 C80 1.268 . S
C80 O78 1.254 . S
C80 O79 1.268 . S
C81 O86 1.254 . S
C81 O87 1.268 . S
O82 Dy75 2.351 1_445 S
O82 C90 1.249 . S
O83 Dy72 2.326 . S
O83 C90 1.267 . S
O84 C73 1.185 . S
O84 Dy75 2.398 . S
O85 C73 1.355 . S
O85 Dy75 2.491 . S
O86 Dy75 2.403 1_545 S
O86 C81 1.254 . S
O87 Dy72 2.310 1_655 S
O87 Dy75 2.664 1_545 S
O87 C81 1.268 . S
O88 Dy72 2.351 1_665 S
O88 C91 1.249 . S
O89 Dy75 2.326 . S
O89 C91 1.267 . S
C90 O82 1.249 . S
C90 O83 1.267 . S
C91 O88 1.249 . S
C91 O89 1.267 . S
Dy92 O96 2.398 . S
Dy92 O97 2.491 . S
Dy92 O98 2.403 1_545 S
Dy92 O99 2.664 1_545 S
Dy92 O103 2.326 . S
Dy92 O107 2.310 1_554 S
Dy92 O108 2.351 1_544 S
C93 O104 1.185 . S
C93 O105 1.355 . S
C94 O96 1.185 . S
C94 O97 1.355 . S
Dy95 O99 2.310 1_546 S
Dy95 O102 2.351 1_556 S
Dy95 O104 2.398 1_545 S
Dy95 O105 2.491 1_545 S
Dy95 O106 2.403 . S
Dy95 O107 2.664 . S
Dy95 O109 2.326 1_545 S
O96 Dy92 2.398 . S
O96 C94 1.185 . S
O97 Dy92 2.491 . S
O97 C94 1.355 . S
O98 Dy92 2.403 1_565 S
O98 C100 1.254 . S
O99 Dy92 2.664 1_565 S
O99 Dy95 2.310 1_564 S
O99 C100 1.268 . S
C100 O98 1.254 . S
C100 O99 1.268 . S
C101 O106 1.254 . S
C101 O107 1.268 . S
O102 Dy95 2.351 1_554 S
O102 C110 1.249 . S
O103 Dy92 2.326 . S
O103 C110 1.267 . S
O104 C93 1.185 . S
O104 Dy95 2.398 1_565 S
O105 C93 1.355 . S
O105 Dy95 2.491 1_565 S
O106 Dy95 2.403 . S
O106 C101 1.254 . S
O107 Dy92 2.310 1_556 S
O107 Dy95 2.664 . S
O107 C101 1.268 . S
O108 Dy92 2.351 1_566 S
O108 C111 1.249 . S
O109 Dy95 2.326 1_565 S
O109 C111 1.267 . S
C110 O102 1.249 . S
C110 O103 1.267 . S
C111 O108 1.249 . S
C111 O109 1.267 . S
Dy112 O116 2.398 . S
Dy112 O117 2.491 . S
Dy112 O118 2.403 . S
Dy112 O119 2.664 . S
Dy112 O123 2.326 . S
Dy112 O127 2.310 . S
Dy112 O128 2.351 . S
C113 O124 1.185 . S
C113 O125 1.355 . S
C114 O116 1.185 . S
C114 O117 1.355 . S
Dy115 O119 2.310 . S
Dy115 O122 2.351 . S
Dy115 O124 2.398 . S
Dy115 O125 2.491 . S
Dy115 O126 2.403 . S
Dy115 O127 2.664 . S
Dy115 O129 2.326 . S
O116 Dy112 2.398 . S
O116 C114 1.185 . S
O117 Dy112 2.491 . S
O117 C114 1.355 . S
O118 Dy112 2.403 . S
O118 C120 1.254 . S
O119 Dy112 2.664 . S
O119 Dy115 2.310 . S
O119 C120 1.268 . S
C120 O118 1.254 . S
C120 O119 1.268 . S
C121 O126 1.254 . S
C121 O127 1.268 . S
O122 Dy115 2.351 . S
O122 C130 1.249 . S
O123 Dy112 2.326 . S
O123 C130 1.267 . S
O124 C113 1.185 . S
O124 Dy115 2.398 . S
O125 C113 1.355 . S
O125 Dy115 2.491 . S
O126 Dy115 2.403 . S
O126 C121 1.254 . S
O127 Dy112 2.310 . S
O127 Dy115 2.664 . S
O127 C121 1.268 . S
O128 Dy112 2.351 . S
O128 C131 1.249 . S
O129 Dy115 2.326 . S
O129 C131 1.267 . S
C130 O122 1.249 . S
C130 O123 1.267 . S
C131 O128 1.249 . S
C131 O129 1.267 . S
Dy132 O136 2.398 . S
Dy132 O137 2.491 . S
Dy132 O138 2.403 1_455 S
Dy132 O139 2.664 1_455 S
Dy132 O143 2.326 . S
Dy132 O147 2.310 1_554 S
Dy132 O148 2.351 1_454 S
C133 O144 1.185 . S
C133 O145 1.355 . S
C134 O136 1.185 . S
C134 O137 1.355 . S
Dy135 O139 2.310 1_556 S
Dy135 O142 2.351 1_656 S
Dy135 O144 2.398 . S
Dy135 O145 2.491 . S
Dy135 O146 2.403 1_655 S
Dy135 O147 2.664 1_655 S
Dy135 O149 2.326 . S
O136 Dy132 2.398 . S
O136 C134 1.185 . S
O137 Dy132 2.491 . S
O137 C134 1.355 . S
O138 Dy132 2.403 1_655 S
O138 C140 1.254 . S
O139 Dy132 2.664 1_655 S
O139 Dy135 2.310 1_554 S
O139 C140 1.268 . S
C140 O138 1.254 . S
C140 O139 1.268 . S
C141 O146 1.254 . S
C141 O147 1.268 . S
O142 Dy135 2.351 1_454 S
O142 C150 1.249 . S
O143 Dy132 2.326 . S
O143 C150 1.267 . S
O144 C133 1.185 . S
O144 Dy135 2.398 . S
O145 C133 1.355 . S
O145 Dy135 2.491 . S
O146 Dy135 2.403 1_455 S
O146 C141 1.254 . S
O147 Dy132 2.310 1_556 S
O147 Dy135 2.664 1_455 S
O147 C141 1.268 . S
O148 Dy132 2.351 1_656 S
O148 C151 1.249 . S
O149 Dy135 2.326 . S
O149 C151 1.267 . S
C150 O142 1.249 . S
C150 O143 1.267 . S
C151 O148 1.249 . S
C151 O149 1.267 . S
H152 C170 0.951 . S
H153 C172 0.951 . S
H154 C174 0.950 . S
H155 C175 0.950 . S
H156 C177 0.950 . S
H157 C180 0.950 . S
H158 C181 0.950 . S
H159 C183 0.950 . S
H160 C184 0.950 . S
H161 C185 0.951 . S
H162 C187 0.951 . S
H163 C189 0.950 . S
H164 C190 0.950 . S
H165 C192 0.950 . S
H166 C195 0.950 . S
H167 C196 0.950 . S
H168 C198 0.950 . S
H169 C199 0.950 . S
C170 H152 0.951 . S
C170 C171 1.366 . S
C170 C172 1.388 . S
C171 C170 1.366 . S
C171 C175 1.385 . S
C172 H153 0.951 . S
C172 C170 1.388 . S
C172 C173 1.366 . S
C173 C172 1.366 . S
C173 C174 1.414 . S
C173 C176 1.499 . S
C174 H154 0.950 . S
C174 C173 1.414 . S
C174 C175 1.374 . S
C175 H155 0.950 . S
C175 C171 1.385 . S
C175 C174 1.374 . S
C176 C173 1.499 . S
C176 C177 1.373 . S
C176 C178 1.389 . S
C177 H156 0.950 . S
C177 C176 1.373 . S
C177 C193 1.377 . S
C178 C176 1.389 . S
C178 C179 1.524 . S
C178 C192 1.377 . S
C179 C178 1.524 . S
C179 C180 1.397 . S
C179 C184 1.363 . S
C180 H157 0.950 . S
C180 C179 1.397 . S
C180 C181 1.334 . S
C181 H158 0.950 . S
C181 C180 1.334 . S
C181 C182 1.287 . S
C182 C181 1.287 . S
C182 C183 1.524 . S
C182 H201 0.913 . S
C183 H159 0.950 . S
C183 C182 1.524 . S
C183 C184 1.415 . S
C184 H160 0.950 . S
C184 C179 1.363 . S
C184 C183 1.415 . S
C185 H161 0.951 . S
C185 C186 1.366 . S
C185 C187 1.388 . S
C186 C185 1.366 . S
C186 C190 1.385 . S
C187 H162 0.951 . S
C187 C185 1.388 . S
C187 C188 1.366 . S
C188 C187 1.366 . S
C188 C189 1.414 . S
C188 C191 1.499 . S
C189 H163 0.950 . S
C189 C188 1.414 . S
C189 C190 1.374 . S
C190 H164 0.950 . S
C190 C186 1.385 . S
C190 C189 1.374 . S
C191 C188 1.499 . S
C191 C192 1.373 . S
C191 C193 1.389 . S
C192 H165 0.950 . S
C192 C178 1.377 . S
C192 C191 1.373 . S
C193 C177 1.377 . S
C193 C191 1.389 . S
C193 C194 1.524 . S
C194 C193 1.524 . S
C194 C195 1.397 . S
C194 C199 1.363 . S
C195 H166 0.950 . S
C195 C194 1.397 . S
C195 C196 1.334 . S
C196 H167 0.950 . S
C196 C195 1.334 . S
C196 C197 1.287 . S
C197 C196 1.287 . S
C197 C198 1.524 . S
C197 H200 0.999 . S
C198 H168 0.950 . S
C198 C197 1.524 . S
C198 C199 1.415 . S
C199 H169 0.950 . S
C199 C194 1.363 . S
C199 C198 1.415 . S
H200 C197 0.999 . S
H201 C182 0.913 . S
H202 C220 0.951 . S
H203 C222 0.951 . S
H204 C224 0.950 . S
H205 C225 0.950 . S
H206 C227 0.950 . S
H207 C230 0.950 . S
H208 C231 0.950 . S
H209 C233 0.950 . S
H210 C234 0.950 . S
H211 C235 0.951 . S
H212 C237 0.951 . S
H213 C239 0.950 . S
H214 C240 0.950 . S
H215 C242 0.950 . S
H216 C245 0.950 . S
H217 C246 0.950 . S
H218 C248 0.950 . S
H219 C249 0.950 . S
C220 H202 0.951 . S
C220 C221 1.366 . S
C220 C222 1.388 . S
C221 C220 1.366 . S
C221 C225 1.385 . S
C222 H203 0.951 . S
C222 C220 1.388 . S
C222 C223 1.366 . S
C223 C222 1.366 . S
C223 C224 1.414 . S
C223 C226 1.499 . S
C224 H204 0.950 . S
C224 C223 1.414 . S
C224 C225 1.374 . S
C225 H205 0.950 . S
C225 C221 1.385 . S
C225 C224 1.374 . S
C226 C223 1.499 . S
C226 C227 1.373 . S
C226 C228 1.389 . S
C227 H206 0.950 . S
C227 C226 1.373 . S
C227 C243 1.377 . S
C228 C226 1.389 . S
C228 C229 1.524 . S
C228 C242 1.377 . S
C229 C228 1.524 . S
C229 C230 1.397 . S
C229 C234 1.363 . S
C230 H207 0.950 . S
C230 C229 1.397 . S
C230 C231 1.334 . S
C231 H208 0.950 . S
C231 C230 1.334 . S
C231 C232 1.287 . S
C232 C231 1.287 . S
C232 C233 1.524 . S
C232 H251 0.913 . S
C233 H209 0.950 . S
C233 C232 1.524 . S
C233 C234 1.415 . S
C234 H210 0.950 . S
C234 C229 1.363 . S
C234 C233 1.415 . S
C235 H211 0.951 . S
C235 C236 1.366 . S
C235 C237 1.388 . S
C236 C235 1.366 . S
C236 C240 1.385 . S
C237 H212 0.951 . S
C237 C235 1.388 . S
C237 C238 1.366 . S
C238 C237 1.366 . S
C238 C239 1.414 . S
C238 C241 1.499 . S
C239 H213 0.950 . S
C239 C238 1.414 . S
C239 C240 1.374 . S
C240 H214 0.950 . S
C240 C236 1.385 . S
C240 C239 1.374 . S
C241 C238 1.499 . S
C241 C242 1.373 . S
C241 C243 1.389 . S
C242 H215 0.950 . S
C242 C228 1.377 . S
C242 C241 1.373 . S
C243 C227 1.377 . S
C243 C241 1.389 . S
C243 C244 1.524 . S
C244 C243 1.524 . S
C244 C245 1.397 . S
C244 C249 1.363 . S
C245 H216 0.950 . S
C245 C244 1.397 . S
C245 C246 1.334 . S
C246 H217 0.950 . S
C246 C245 1.334 . S
C246 C247 1.287 1_565 S
C247 C246 1.287 1_545 S
C247 C248 1.524 . S
C247 H250 0.999 . S
C248 H218 0.950 . S
C248 C247 1.524 . S
C248 C249 1.415 1_545 S
C249 H219 0.950 . S
C249 C244 1.363 . S
C249 C248 1.415 1_565 S
H250 C247 0.999 . S
H251 C232 0.913 . S
H252 C270 0.951 . S
H253 C272 0.951 . S
H254 C274 0.950 . S
H255 C275 0.950 . S
H256 C277 0.950 . S
H257 C280 0.950 . S
H258 C281 0.950 . S
H259 C283 0.950 . S
H260 C284 0.950 . S
H261 C285 0.951 . S
H262 C287 0.951 . S
H263 C289 0.950 . S
H264 C290 0.950 . S
H265 C292 0.950 . S
H266 C295 0.950 . S
H267 C296 0.950 . S
H268 C298 0.950 . S
H269 C299 0.950 . S
C270 H252 0.951 . S
C270 C271 1.366 . S
C270 C272 1.388 . S
C271 C270 1.366 . S
C271 C275 1.385 . S
C272 H253 0.951 . S
C272 C270 1.388 . S
C272 C273 1.366 . S
C273 C272 1.366 . S
C273 C274 1.414 . S
C273 C276 1.499 . S
C274 H254 0.950 . S
C274 C273 1.414 . S
C274 C275 1.374 . S
C275 H255 0.950 . S
C275 C271 1.385 . S
C275 C274 1.374 . S
C276 C273 1.499 . S
C276 C277 1.373 . S
C276 C278 1.389 . S
C277 H256 0.950 . S
C277 C276 1.373 . S
C277 C293 1.377 . S
C278 C276 1.389 . S
C278 C279 1.524 . S
C278 C292 1.377 . S
C279 C278 1.524 . S
C279 C280 1.397 . S
C279 C284 1.363 . S
C280 H257 0.950 . S
C280 C279 1.397 . S
C280 C281 1.334 . S
C281 H258 0.950 . S
C281 C280 1.334 . S
C281 C282 1.287 . S
C282 C281 1.287 . S
C282 C283 1.524 . S
C282 H301 0.913 . S
C283 H259 0.950 . S
C283 C282 1.524 . S
C283 C284 1.415 . S
C284 H260 0.950 . S
C284 C279 1.363 . S
C284 C283 1.415 . S
C285 H261 0.951 . S
C285 C286 1.366 . S
C285 C287 1.388 . S
C286 C285 1.366 . S
C286 C290 1.385 . S
C287 H262 0.951 . S
C287 C285 1.388 . S
C287 C288 1.366 . S
C288 C287 1.366 . S
C288 C289 1.414 . S
C288 C291 1.499 . S
C289 H263 0.950 . S
C289 C288 1.414 . S
C289 C290 1.374 . S
C290 H264 0.950 . S
C290 C286 1.385 . S
C290 C289 1.374 . S
C291 C288 1.499 . S
C291 C292 1.373 . S
C291 C293 1.389 . S
C292 H265 0.950 . S
C292 C278 1.377 . S
C292 C291 1.373 . S
C293 C277 1.377 . S
C293 C291 1.389 . S
C293 C294 1.524 . S
C294 C293 1.524 . S
C294 C295 1.397 . S
C294 C299 1.363 . S
C295 H266 0.950 . S
C295 C294 1.397 . S
C295 C296 1.334 . S
C296 H267 0.950 . S
C296 C295 1.334 . S
C296 C297 1.287 . S
C297 C296 1.287 . S
C297 C298 1.524 . S
C297 H300 0.999 . S
C298 H268 0.950 . S
C298 C297 1.524 . S
C298 C299 1.415 . S
C299 H269 0.950 . S
C299 C294 1.363 . S
C299 C298 1.415 . S
H300 C297 0.999 . S
H301 C282 0.913 . S
H302 C320 0.951 . S
H303 C322 0.951 . S
H304 C324 0.950 . S
H305 C325 0.950 . S
H306 C327 0.950 . S
H307 C330 0.950 . S
H308 C331 0.950 . S
H309 C333 0.950 1_455 S
H310 C334 0.950 . S
H311 C335 0.951 . S
H312 C337 0.951 . S
H313 C339 0.950 . S
H314 C340 0.950 1_455 S
H315 C342 0.950 . S
H316 C345 0.950 . S
H317 C346 0.950 . S
H318 C348 0.950 . S
H319 C349 0.950 . S
C320 H302 0.951 . S
C320 C321 1.366 . S
C320 C322 1.388 . S
C321 C320 1.366 . S
C321 C325 1.385 . S
C322 H303 0.951 . S
C322 C320 1.388 . S
C322 C323 1.366 . S
C323 C322 1.366 . S
C323 C324 1.414 . S
C323 C326 1.499 . S
C324 H304 0.950 . S
C324 C323 1.414 . S
C324 C325 1.374 . S
C325 H305 0.950 . S
C325 C321 1.385 . S
C325 C324 1.374 . S
C326 C323 1.499 . S
C326 C327 1.373 . S
C326 C328 1.389 . S
C327 H306 0.950 . S
C327 C326 1.373 . S
C327 C343 1.377 . S
C328 C326 1.389 . S
C328 C329 1.524 . S
C328 C342 1.377 . S
C329 C328 1.524 . S
C329 C330 1.397 . S
C329 C334 1.363 . S
C330 H307 0.950 . S
C330 C329 1.397 . S
C330 C331 1.334 . S
C331 H308 0.950 . S
C331 C330 1.334 . S
C331 C332 1.287 . S
C332 C331 1.287 . S
C332 C333 1.524 . S
C332 H351 0.913 . S
C333 H309 0.950 1_655 S
C333 C332 1.524 . S
C333 C334 1.415 . S
C334 H310 0.950 . S
C334 C329 1.363 . S
C334 C333 1.415 . S
C335 H311 0.951 . S
C335 C336 1.366 . S
C335 C337 1.388 . S
C336 C335 1.366 . S
C336 C340 1.385 . S
C337 H312 0.951 . S
C337 C335 1.388 . S
C337 C338 1.366 . S
C338 C337 1.366 . S
C338 C339 1.414 . S
C338 C341 1.499 . S
C339 H313 0.950 . S
C339 C338 1.414 . S
C339 C340 1.374 . S
C340 H314 0.950 1_655 S
C340 C336 1.385 . S
C340 C339 1.374 . S
C341 C338 1.499 . S
C341 C342 1.373 . S
C341 C343 1.389 . S
C342 H315 0.950 . S
C342 C328 1.377 . S
C342 C341 1.373 . S
C343 C327 1.377 . S
C343 C341 1.389 . S
C343 C344 1.524 . S
C344 C343 1.524 . S
C344 C345 1.397 . S
C344 C349 1.363 . S
C345 H316 0.950 . S
C345 C344 1.397 . S
C345 C346 1.334 . S
C346 H317 0.950 . S
C346 C345 1.334 . S
C346 C347 1.287 . S
C347 C346 1.287 . S
C347 C348 1.524 . S
C347 H350 0.999 . S
C348 H318 0.950 . S
C348 C347 1.524 . S
C348 C349 1.415 . S
C349 H319 0.950 . S
C349 C344 1.363 . S
C349 C348 1.415 . S
H350 C347 0.999 . S
H351 C332 0.913 . S
H352 C370 0.951 . S
H353 C372 0.951 . S
H354 C374 0.950 . S
H355 C375 0.950 . S
H356 C377 0.950 . S
H357 C380 0.950 . S
H358 C381 0.950 . S
H359 C383 0.950 . S
H360 C384 0.950 . S
H361 C385 0.951 . S
H362 C387 0.951 . S
H363 C389 0.950 . S
H364 C390 0.950 . S
H365 C392 0.950 . S
H366 C395 0.950 . S
H367 C396 0.950 1_556 S
H368 C398 0.950 . S
H369 C399 0.950 . S
C370 H352 0.951 . S
C370 C371 1.366 . S
C370 C372 1.388 . S
C371 C370 1.366 . S
C371 C375 1.385 . S
C372 H353 0.951 . S
C372 C370 1.388 . S
C372 C373 1.366 . S
C373 C372 1.366 . S
C373 C374 1.414 . S
C373 C376 1.499 . S
C374 H354 0.950 . S
C374 C373 1.414 . S
C374 C375 1.374 . S
C375 H355 0.950 . S
C375 C371 1.385 . S
C375 C374 1.374 . S
C376 C373 1.499 . S
C376 C377 1.373 . S
C376 C378 1.389 . S
C377 H356 0.950 . S
C377 C376 1.373 . S
C377 C393 1.377 . S
C378 C376 1.389 . S
C378 C379 1.524 . S
C378 C392 1.377 . S
C379 C378 1.524 . S
C379 C380 1.397 . S
C379 C384 1.363 . S
C380 H357 0.950 . S
C380 C379 1.397 . S
C380 C381 1.334 . S
C381 H358 0.950 . S
C381 C380 1.334 . S
C381 C382 1.287 . S
C382 C381 1.287 . S
C382 C383 1.524 . S
C382 H401 0.913 . S
C383 H359 0.950 . S
C383 C382 1.524 . S
C383 C384 1.415 . S
C384 H360 0.950 . S
C384 C379 1.363 . S
C384 C383 1.415 . S
C385 H361 0.951 . S
C385 C386 1.366 . S
C385 C387 1.388 . S
C386 C385 1.366 . S
C386 C390 1.385 . S
C387 H362 0.951 . S
C387 C385 1.388 . S
C387 C388 1.366 . S
C388 C387 1.366 . S
C388 C389 1.414 . S
C388 C391 1.499 . S
C389 H363 0.950 . S
C389 C388 1.414 . S
C389 C390 1.374 . S
C390 H364 0.950 . S
C390 C386 1.385 . S
C390 C389 1.374 . S
C391 C388 1.499 . S
C391 C392 1.373 . S
C391 C393 1.389 . S
C392 H365 0.950 . S
C392 C378 1.377 . S
C392 C391 1.373 . S
C393 C377 1.377 . S
C393 C391 1.389 . S
C393 C394 1.524 . S
C394 C393 1.524 . S
C394 C395 1.397 . S
C394 C399 1.363 . S
C395 H366 0.950 . S
C395 C394 1.397 . S
C395 C396 1.334 . S
C396 H367 0.950 1_554 S
C396 C395 1.334 . S
C396 C397 1.287 . S
C397 C396 1.287 . S
C397 C398 1.524 . S
C397 H400 0.999 1_554 S
C398 H368 0.950 . S
C398 C397 1.524 . S
C398 C399 1.415 . S
C399 H369 0.950 . S
C399 C394 1.363 . S
C399 C398 1.415 . S
H400 C397 0.999 1_556 S
H401 C382 0.913 . S
H402 C420 0.951 . S
H403 C422 0.951 . S
H404 C424 0.950 . S
H405 C425 0.950 . S
H406 C427 0.950 . S
H407 C430 0.950 . S
H408 C431 0.950 . S
H409 C433 0.950 . S
H410 C434 0.950 . S
H411 C435 0.951 . S
H412 C437 0.951 . S
H413 C439 0.950 . S
H414 C440 0.950 . S
H415 C442 0.950 . S
H416 C445 0.950 . S
H417 C446 0.950 . S
H418 C448 0.950 . S
H419 C449 0.940 1_565 S
C420 H402 0.951 . S
C420 C421 1.366 . S
C420 C422 1.388 . S
C421 C420 1.366 . S
C421 C425 1.385 . S
C422 H403 0.951 . S
C422 C420 1.388 . S
C422 C423 1.366 . S
C423 C422 1.366 . S
C423 C424 1.414 . S
C423 C426 1.499 . S
C424 H404 0.950 . S
C424 C423 1.414 . S
C424 C425 1.374 . S
C425 H405 0.950 . S
C425 C421 1.385 . S
C425 C424 1.374 . S
C426 C423 1.499 . S
C426 C427 1.373 . S
C426 C428 1.389 . S
C427 H406 0.950 . S
C427 C426 1.373 . S
C427 C443 1.377 . S
C428 C426 1.389 . S
C428 C429 1.524 . S
C428 C442 1.377 . S
C429 C428 1.524 . S
C429 C430 1.397 . S
C429 C434 1.363 . S
C430 H407 0.950 . S
C430 C429 1.397 . S
C430 C431 1.334 . S
C431 H408 0.950 . S
C431 C430 1.334 . S
C431 C432 1.287 . S
C432 C431 1.287 . S
C432 C433 1.524 . S
C432 H451 0.913 . S
C433 H409 0.950 . S
C433 C432 1.524 . S
C433 C434 1.415 . S
C434 H410 0.950 . S
C434 C429 1.363 . S
C434 C433 1.415 . S
C435 H411 0.951 . S
C435 C436 1.366 . S
C435 C437 1.388 . S
C436 C435 1.366 . S
C436 C440 1.385 . S
C437 H412 0.951 . S
C437 C435 1.388 . S
C437 C438 1.366 . S
C438 C437 1.366 . S
C438 C439 1.414 . S
C438 C441 1.499 . S
C439 H413 0.950 . S
C439 C438 1.414 . S
C439 C440 1.374 . S
C440 H414 0.950 . S
C440 C436 1.385 . S
C440 C439 1.374 . S
C441 C438 1.499 . S
C441 C442 1.373 . S
C441 C443 1.389 . S
C442 H415 0.950 . S
C442 C428 1.377 . S
C442 C441 1.373 . S
C443 C427 1.377 . S
C443 C441 1.389 . S
C443 C444 1.524 . S
C444 C443 1.524 . S
C444 C445 1.397 . S
C444 C449 1.351 1_565 S
C445 H416 0.950 . S
C445 C444 1.397 . S
C445 C446 1.334 1_565 S
C446 H417 0.950 . S
C446 C445 1.334 1_545 S
C446 C447 1.287 . S
C447 C446 1.287 . S
C447 C448 1.524 . S
C447 H450 0.999 . S
C448 H418 0.950 . S
C448 C447 1.524 . S
C448 C449 1.437 . S
C449 H419 0.940 1_545 S
C449 C444 1.351 1_545 S
C449 C448 1.437 . S
H450 C447 0.999 . S
H451 C432 0.913 . S
H452 C470 0.951 . S
H453 C472 0.951 . S
H454 C474 0.950 . S
H455 C475 0.950 . S
H456 C477 0.950 . S
H457 C480 0.950 . S
H458 C481 0.950 . S
H459 C483 0.950 . S
H460 C484 0.950 . S
H461 C485 0.951 1_554 S
H462 C487 0.951 . S
H463 C489 0.950 . S
H464 C490 0.950 . S
H465 C492 0.950 . S
H466 C495 0.950 . S
H467 C496 0.950 . S
H468 C498 0.950 . S
H469 C499 0.950 . S
C470 H452 0.951 . S
C470 C471 1.366 . S
C470 C472 1.388 . S
C471 C470 1.366 . S
C471 C475 1.385 . S
C472 H453 0.951 . S
C472 C470 1.388 . S
C472 C473 1.366 . S
C473 C472 1.366 . S
C473 C474 1.414 . S
C473 C476 1.499 . S
C474 H454 0.950 . S
C474 C473 1.414 . S
C474 C475 1.374 . S
C475 H455 0.950 . S
C475 C471 1.385 . S
C475 C474 1.374 . S
C476 C473 1.499 . S
C476 C477 1.373 . S
C476 C478 1.389 . S
C477 H456 0.950 . S
C477 C476 1.373 . S
C477 C493 1.377 . S
C478 C476 1.389 . S
C478 C479 1.524 . S
C478 C492 1.377 . S
C479 C478 1.524 . S
C479 C480 1.397 . S
C479 C484 1.363 . S
C480 H457 0.950 . S
C480 C479 1.397 . S
C480 C481 1.334 . S
C481 H458 0.950 . S
C481 C480 1.334 . S
C481 C482 1.287 . S
C482 C481 1.287 . S
C482 C483 1.524 . S
C482 H501 0.913 . S
C483 H459 0.950 . S
C483 C482 1.524 . S
C483 C484 1.415 . S
C484 H460 0.950 . S
C484 C479 1.363 . S
C484 C483 1.415 . S
C485 H461 0.951 1_556 S
C485 C486 1.366 . S
C485 C487 1.388 . S
C486 C485 1.366 . S
C486 C490 1.385 . S
C487 H462 0.951 . S
C487 C485 1.388 . S
C487 C488 1.366 . S
C488 C487 1.366 . S
C488 C489 1.414 . S
C488 C491 1.499 . S
C489 H463 0.950 . S
C489 C488 1.414 . S
C489 C490 1.374 . S
C490 H464 0.950 . S
C490 C486 1.385 . S
C490 C489 1.374 . S
C491 C488 1.499 . S
C491 C492 1.373 . S
C491 C493 1.389 . S
C492 H465 0.950 . S
C492 C478 1.377 . S
C492 C491 1.373 . S
C493 C477 1.377 . S
C493 C491 1.389 . S
C493 C494 1.524 . S
C494 C493 1.524 . S
C494 C495 1.397 . S
C494 C499 1.363 . S
C495 H466 0.950 . S
C495 C494 1.397 . S
C495 C496 1.334 . S
C496 H467 0.950 . S
C496 C495 1.334 . S
C496 C497 1.287 . S
C497 C496 1.287 . S
C497 C498 1.524 . S
C497 H500 0.999 . S
C498 H468 0.950 . S
C498 C497 1.524 . S
C498 C499 1.415 . S
C499 H469 0.950 . S
C499 C494 1.363 . S
C499 C498 1.415 . S
H500 C497 0.999 . S
H501 C482 0.913 . S
H502 C520 0.951 . S
H503 C522 0.951 . S
H504 C524 0.950 . S
H505 C525 0.950 . S
H506 C527 0.950 . S
H507 C530 0.950 . S
H508 C531 0.950 . S
H509 C533 0.950 . S
H510 C534 0.950 . S
H511 C535 0.951 . S
H512 C537 0.951 . S
H513 C539 0.950 . S
H514 C540 0.950 . S
H515 C542 0.950 . S
H516 C545 0.950 . S
H517 C546 0.950 . S
H518 C548 0.950 . S
H519 C549 0.950 . S
C520 H502 0.951 . S
C520 C521 1.366 . S
C520 C522 1.388 . S
C521 C520 1.366 . S
C521 C525 1.385 . S
C522 H503 0.951 . S
C522 C520 1.388 . S
C522 C523 1.366 . S
C523 C522 1.366 . S
C523 C524 1.414 . S
C523 C526 1.499 . S
C524 H504 0.950 . S
C524 C523 1.414 . S
C524 C525 1.374 . S
C525 H505 0.950 . S
C525 C521 1.385 . S
C525 C524 1.374 . S
C526 C523 1.499 . S
C526 C527 1.373 . S
C526 C528 1.389 . S
C527 H506 0.950 . S
C527 C526 1.373 . S
C527 C543 1.377 . S
C528 C526 1.389 . S
C528 C529 1.524 . S
C528 C542 1.377 . S
C529 C528 1.524 . S
C529 C530 1.397 . S
C529 C534 1.363 . S
C530 H507 0.950 . S
C530 C529 1.397 . S
C530 C531 1.334 . S
C531 H508 0.950 . S
C531 C530 1.334 . S
C531 C532 1.287 . S
C532 C531 1.287 . S
C532 C533 1.524 . S
C532 H551 0.913 . S
C533 H509 0.950 . S
C533 C532 1.524 . S
C533 C534 1.415 . S
C534 H510 0.950 . S
C534 C529 1.363 . S
C534 C533 1.415 . S
C535 H511 0.951 . S
C535 C536 1.366 . S
C535 C537 1.388 . S
C536 C535 1.366 . S
C536 C540 1.385 . S
C537 H512 0.951 . S
C537 C535 1.388 . S
C537 C538 1.366 . S
C538 C537 1.366 . S
C538 C539 1.414 . S
C538 C541 1.499 . S
C539 H513 0.950 . S
C539 C538 1.414 . S
C539 C540 1.374 . S
C540 H514 0.950 . S
C540 C536 1.385 . S
C540 C539 1.374 . S
C541 C538 1.499 . S
C541 C542 1.373 . S
C541 C543 1.389 . S
C542 H515 0.950 . S
C542 C528 1.377 . S
C542 C541 1.373 . S
C543 C527 1.377 . S
C543 C541 1.389 . S
C543 C544 1.524 . S
C544 C543 1.524 . S
C544 C545 1.397 . S
C544 C549 1.363 . S
C545 H516 0.950 . S
C545 C544 1.397 . S
C545 C546 1.334 . S
C546 H517 0.950 . S
C546 C545 1.334 . S
C546 C547 1.287 . S
C547 C546 1.287 . S
C547 C548 1.524 . S
C547 H550 0.999 . S
C548 H518 0.950 . S
C548 C547 1.524 . S
C548 C549 1.415 . S
C549 H519 0.950 . S
C549 C544 1.363 . S
C549 C548 1.415 . S
H550 C547 0.999 . S
H551 C532 0.913 . S
H552 C570 0.951 . S
H553 C572 0.951 . S
H554 C574 0.950 . S
H555 C575 0.950 . S
H556 C577 0.950 . S
H557 C580 0.950 . S
H558 C581 0.950 . S
H559 C583 0.950 . S
H560 C584 0.950 . S
H561 C585 0.951 . S
H562 C587 0.951 . S
H563 C589 0.950 . S
H564 C590 0.950 . S
H565 C592 0.950 . S
H566 C595 0.950 . S
H567 C596 0.950 . S
H568 C598 0.950 . S
H569 C599 0.950 . S
C570 H552 0.951 . S
C570 C571 1.366 . S
C570 C572 1.388 . S
C571 C570 1.366 . S
C571 C575 1.385 . S
C572 H553 0.951 . S
C572 C570 1.388 . S
C572 C573 1.366 . S
C573 C572 1.366 . S
C573 C574 1.414 . S
C573 C576 1.499 . S
C574 H554 0.950 . S
C574 C573 1.414 . S
C574 C575 1.374 . S
C575 H555 0.950 . S
C575 C571 1.385 . S
C575 C574 1.374 . S
C576 C573 1.499 . S
C576 C577 1.373 . S
C576 C578 1.389 . S
C577 H556 0.950 . S
C577 C576 1.373 . S
C577 C593 1.377 . S
C578 C576 1.389 . S
C578 C579 1.524 . S
C578 C592 1.377 . S
C579 C578 1.524 . S
C579 C580 1.397 . S
C579 C584 1.363 . S
C580 H557 0.950 . S
C580 C579 1.397 . S
C580 C581 1.334 . S
C581 H558 0.950 . S
C581 C580 1.334 . S
C581 C582 1.287 . S
C582 C581 1.287 . S
C582 C583 1.524 . S
C582 H601 0.913 . S
C583 H559 0.950 . S
C583 C582 1.524 . S
C583 C584 1.415 . S
C584 H560 0.950 . S
C584 C579 1.363 . S
C584 C583 1.415 . S
C585 H561 0.951 . S
C585 C586 1.366 . S
C585 C587 1.388 . S
C586 C585 1.366 . S
C586 C590 1.385 . S
C587 H562 0.951 . S
C587 C585 1.388 . S
C587 C588 1.366 . S
C588 C587 1.366 . S
C588 C589 1.414 . S
C588 C591 1.499 . S
C589 H563 0.950 . S
C589 C588 1.414 . S
C589 C590 1.374 . S
C590 H564 0.950 . S
C590 C586 1.385 . S
C590 C589 1.374 . S
C591 C588 1.499 . S
C591 C592 1.373 . S
C591 C593 1.389 . S
C592 H565 0.950 . S
C592 C578 1.377 . S
C592 C591 1.373 . S
C593 C577 1.377 . S
C593 C591 1.389 . S
C593 C594 1.524 . S
C594 C593 1.524 . S
C594 C595 1.397 . S
C594 C599 1.363 . S
C595 H566 0.950 . S
C595 C594 1.397 . S
C595 C596 1.334 . S
C596 H567 0.950 . S
C596 C595 1.334 . S
C596 C597 1.287 . S
C597 C596 1.287 . S
C597 C598 1.524 . S
C597 H600 0.999 . S
C598 H568 0.950 . S
C598 C597 1.524 . S
C598 C599 1.415 . S
C599 H569 0.950 . S
C599 C594 1.363 . S
C599 C598 1.415 . S
H600 C597 0.999 . S
H601 C582 0.913 . S
H602 C620 0.951 . S
H603 C622 0.951 . S
H604 C624 0.950 . S
H605 C625 0.950 . S
H606 C627 0.950 . S
H607 C630 0.950 . S
H608 C631 0.950 . S
H609 C633 0.950 . S
H610 C634 0.950 . S
H611 C635 0.951 . S
H612 C637 0.951 . S
H613 C639 0.950 . S
H614 C640 0.950 . S
H615 C642 0.950 . S
H616 C645 0.950 . S
H617 C646 0.950 1_554 S
H618 C648 0.950 . S
H619 C649 0.950 . S
C620 H602 0.951 . S
C620 C621 1.366 . S
C620 C622 1.388 . S
C621 C620 1.366 . S
C621 C625 1.385 . S
C622 H603 0.951 . S
C622 C620 1.388 . S
C622 C623 1.366 . S
C623 C622 1.366 . S
C623 C624 1.414 . S
C623 C626 1.499 . S
C624 H604 0.950 . S
C624 C623 1.414 . S
C624 C625 1.374 . S
C625 H605 0.950 . S
C625 C621 1.385 . S
C625 C624 1.374 . S
C626 C623 1.499 . S
C626 C627 1.373 . S
C626 C628 1.389 . S
C627 H606 0.950 . S
C627 C626 1.373 . S
C627 C643 1.377 . S
C628 C626 1.389 . S
C628 C629 1.524 . S
C628 C642 1.377 . S
C629 C628 1.524 . S
C629 C630 1.397 . S
C629 C634 1.363 . S
C630 H607 0.950 . S
C630 C629 1.397 . S
C630 C631 1.334 . S
C631 H608 0.950 . S
C631 C630 1.334 . S
C631 C632 1.287 . S
C632 C631 1.287 . S
C632 C633 1.524 . S
C632 H651 0.913 . S
C633 H609 0.950 . S
C633 C632 1.524 . S
C633 C634 1.415 . S
C634 H610 0.950 . S
C634 C629 1.363 . S
C634 C633 1.415 . S
C635 H611 0.951 . S
C635 C636 1.366 . S
C635 C637 1.388 . S
C636 C635 1.366 . S
C636 C640 1.385 . S
C637 H612 0.951 . S
C637 C635 1.388 . S
C637 C638 1.366 . S
C638 C637 1.366 . S
C638 C639 1.414 . S
C638 C641 1.499 . S
C639 H613 0.950 . S
C639 C638 1.414 . S
C639 C640 1.374 . S
C640 H614 0.950 . S
C640 C636 1.385 . S
C640 C639 1.374 . S
C641 C638 1.499 . S
C641 C642 1.373 . S
C641 C643 1.389 . S
C642 H615 0.950 . S
C642 C628 1.377 . S
C642 C641 1.373 . S
C643 C627 1.377 . S
C643 C641 1.389 . S
C643 C644 1.524 . S
C644 C643 1.524 . S
C644 C645 1.397 . S
C644 C649 1.363 . S
C645 H616 0.950 . S
C645 C644 1.397 . S
C645 C646 1.334 . S
C646 H617 0.950 1_556 S
C646 C645 1.334 . S
C646 C647 1.287 . S
C647 C646 1.287 . S
C647 C648 1.524 . S
C647 H650 0.989 1_556 S
C648 H618 0.950 . S
C648 C647 1.524 . S
C648 C649 1.415 . S
C649 H619 0.950 . S
C649 C644 1.363 . S
C649 C648 1.415 . S
H650 C647 0.989 1_554 S
H651 C632 0.913 . S
H652 C670 0.951 . S
H653 C672 0.951 . S
H654 C674 0.950 . S
H655 C675 0.950 . S
H656 C677 0.950 . S
H657 C680 0.950 . S
H658 C681 0.950 . S
H659 C683 0.950 . S
H660 C684 0.950 . S
H661 C685 0.951 . S
H662 C687 0.951 . S
H663 C689 0.950 . S
H664 C690 0.950 . S
H665 C692 0.950 . S
H666 C695 0.950 . S
H667 C696 0.950 . S
H668 C698 0.950 . S
H669 C699 0.950 . S
C670 H652 0.951 . S
C670 C671 1.366 . S
C670 C672 1.388 . S
C671 C670 1.366 . S
C671 C675 1.385 . S
C672 H653 0.951 . S
C672 C670 1.388 . S
C672 C673 1.366 . S
C673 C672 1.366 . S
C673 C674 1.414 . S
C673 C676 1.499 . S
C674 H654 0.950 . S
C674 C673 1.414 . S
C674 C675 1.374 . S
C675 H655 0.950 . S
C675 C671 1.385 . S
C675 C674 1.374 . S
C676 C673 1.499 . S
C676 C677 1.373 . S
C676 C678 1.389 . S
C677 H656 0.950 . S
C677 C676 1.373 . S
C677 C693 1.377 . S
C678 C676 1.389 . S
C678 C679 1.524 . S
C678 C692 1.377 . S
C679 C678 1.524 . S
C679 C680 1.397 . S
C679 C684 1.363 . S
C680 H657 0.950 . S
C680 C679 1.397 . S
C680 C681 1.334 . S
C681 H658 0.950 . S
C681 C680 1.334 . S
C681 C682 1.287 . S
C682 C681 1.287 . S
C682 C683 1.524 . S
C682 H701 0.913 1_655 S
C683 H659 0.950 . S
C683 C682 1.524 . S
C683 C684 1.415 . S
C684 H660 0.950 . S
C684 C679 1.363 . S
C684 C683 1.415 . S
C685 H661 0.951 . S
C685 C686 1.366 . S
C685 C687 1.388 . S
C686 C685 1.366 . S
C686 C690 1.385 . S
C687 H662 0.951 . S
C687 C685 1.388 . S
C687 C688 1.366 . S
C688 C687 1.366 . S
C688 C689 1.414 . S
C688 C691 1.499 . S
C689 H663 0.950 . S
C689 C688 1.414 . S
C689 C690 1.374 . S
C690 H664 0.950 . S
C690 C686 1.385 . S
C690 C689 1.374 . S
C691 C688 1.499 . S
C691 C692 1.373 . S
C691 C693 1.389 . S
C692 H665 0.950 . S
C692 C678 1.377 . S
C692 C691 1.373 . S
C693 C677 1.377 . S
C693 C691 1.389 . S
C693 C694 1.524 . S
C694 C693 1.524 . S
C694 C695 1.397 . S
C694 C699 1.363 . S
C695 H666 0.950 . S
C695 C694 1.397 . S
C695 C696 1.334 . S
C696 H667 0.950 . S
C696 C695 1.334 . S
C696 C697 1.287 . S
C697 C696 1.287 . S
C697 C698 1.524 . S
C697 H700 0.999 . S
C698 H668 0.950 . S
C698 C697 1.524 . S
C698 C699 1.415 . S
C699 H669 0.950 . S
C699 C694 1.363 . S
C699 C698 1.415 . S
H700 C697 0.999 . S
H701 C682 0.913 1_455 S
H702 C720 0.951 . S
H703 C722 0.951 . S
H704 C724 0.950 . S
H705 C725 0.950 . S
H706 C727 0.950 . S
H707 C730 0.950 . S
H708 C731 0.950 . S
H709 C733 0.950 . S
H710 C734 0.950 . S
H711 C735 0.951 . S
H712 C737 0.951 . S
H713 C739 0.950 . S
H714 C740 0.950 . S
H715 C742 0.950 . S
H716 C745 0.950 . S
H717 C746 0.950 . S
H718 C748 0.950 . S
H719 C749 0.950 . S
C720 H702 0.951 . S
C720 C721 1.366 . S
C720 C722 1.388 . S
C721 C720 1.366 . S
C721 C725 1.385 . S
C722 H703 0.951 . S
C722 C720 1.388 . S
C722 C723 1.366 . S
C723 C722 1.366 . S
C723 C724 1.414 . S
C723 C726 1.499 . S
C724 H704 0.950 . S
C724 C723 1.414 . S
C724 C725 1.374 . S
C725 H705 0.950 . S
C725 C721 1.385 . S
C725 C724 1.374 . S
C726 C723 1.499 . S
C726 C727 1.373 . S
C726 C728 1.389 . S
C727 H706 0.950 . S
C727 C726 1.373 . S
C727 C743 1.377 . S
C728 C726 1.389 . S
C728 C729 1.524 . S
C728 C742 1.377 . S
C729 C728 1.524 . S
C729 C730 1.397 . S
C729 C734 1.363 . S
C730 H707 0.950 . S
C730 C729 1.397 . S
C730 C731 1.334 . S
C731 H708 0.950 . S
C731 C730 1.334 . S
C731 C732 1.287 . S
C732 C731 1.287 . S
C732 C733 1.524 . S
C732 H751 0.913 . S
C733 H709 0.950 . S
C733 C732 1.524 . S
C733 C734 1.415 . S
C734 H710 0.950 . S
C734 C729 1.363 . S
C734 C733 1.415 . S
C735 H711 0.951 . S
C735 C736 1.366 . S
C735 C737 1.388 . S
C736 C735 1.366 . S
C736 C740 1.385 . S
C737 H712 0.951 . S
C737 C735 1.388 . S
C737 C738 1.366 . S
C738 C737 1.366 . S
C738 C739 1.414 . S
C738 C741 1.499 . S
C739 H713 0.950 . S
C739 C738 1.414 . S
C739 C740 1.374 . S
C740 H714 0.950 . S
C740 C736 1.385 . S
C740 C739 1.374 . S
C741 C738 1.499 . S
C741 C742 1.373 . S
C741 C743 1.389 . S
C742 H715 0.950 . S
C742 C728 1.377 . S
C742 C741 1.373 . S
C743 C727 1.377 . S
C743 C741 1.389 . S
C743 C744 1.524 . S
C744 C743 1.524 . S
C744 C745 1.397 . S
C744 C749 1.363 . S
C745 H716 0.950 . S
C745 C744 1.397 . S
C745 C746 1.334 . S
C746 H717 0.950 . S
C746 C745 1.334 . S
C746 C747 1.287 . S
C747 C746 1.287 . S
C747 C748 1.524 . S
C747 H750 0.999 . S
C748 H718 0.950 . S
C748 C747 1.524 . S
C748 C749 1.415 . S
C749 H719 0.950 . S
C749 C744 1.363 . S
C749 C748 1.415 . S
H750 C747 0.999 . S
H751 C732 0.913 . S
H752 C770 0.951 . S
H753 C772 0.951 . S
H754 C774 0.950 . S
H755 C775 0.950 . S
H756 C777 0.950 . S
H757 C780 0.950 . S
H758 C781 0.950 . S
H759 C783 0.950 . S
H760 C784 0.950 . S
H761 C785 0.951 . S
H762 C787 0.951 . S
H763 C789 0.950 . S
H764 C790 0.950 . S
H765 C792 0.950 . S
H766 C795 0.950 . S
H767 C796 0.950 . S
H768 C798 0.950 . S
H769 C799 0.950 . S
C770 H752 0.951 . S
C770 C771 1.366 . S
C770 C772 1.388 . S
C771 C770 1.366 . S
C771 C775 1.385 . S
C772 H753 0.951 . S
C772 C770 1.388 . S
C772 C773 1.366 . S
C773 C772 1.366 . S
C773 C774 1.414 . S
C773 C776 1.499 . S
C774 H754 0.950 . S
C774 C773 1.414 . S
C774 C775 1.374 . S
C775 H755 0.950 . S
C775 C771 1.385 . S
C775 C774 1.374 . S
C776 C773 1.499 . S
C776 C777 1.373 . S
C776 C778 1.389 . S
C777 H756 0.950 . S
C777 C776 1.373 . S
C777 C793 1.377 . S
C778 C776 1.389 . S
C778 C779 1.524 . S
C778 C792 1.377 . S
C779 C778 1.524 . S
C779 C780 1.397 . S
C779 C784 1.363 . S
C780 H757 0.950 . S
C780 C779 1.397 . S
C780 C781 1.334 . S
C781 H758 0.950 . S
C781 C780 1.334 . S
C781 C782 1.287 . S
C782 C781 1.287 . S
C782 C783 1.524 . S
C782 H801 0.913 . S
C783 H759 0.950 . S
C783 C782 1.524 . S
C783 C784 1.415 . S
C784 H760 0.950 . S
C784 C779 1.363 . S
C784 C783 1.415 . S
C785 H761 0.951 . S
C785 C786 1.366 . S
C785 C787 1.388 . S
C786 C785 1.366 . S
C786 C790 1.385 . S
C787 H762 0.951 . S
C787 C785 1.388 . S
C787 C788 1.366 . S
C788 C787 1.366 . S
C788 C789 1.414 . S
C788 C791 1.499 . S
C789 H763 0.950 . S
C789 C788 1.414 . S
C789 C790 1.374 . S
C790 H764 0.950 . S
C790 C786 1.385 . S
C790 C789 1.374 . S
C791 C788 1.499 . S
C791 C792 1.373 . S
C791 C793 1.389 . S
C792 H765 0.950 . S
C792 C778 1.377 . S
C792 C791 1.373 . S
C793 C777 1.377 . S
C793 C791 1.389 . S
C793 C794 1.524 . S
C794 C793 1.524 . S
C794 C795 1.397 . S
C794 C799 1.363 . S
C795 H766 0.950 . S
C795 C794 1.397 . S
C795 C796 1.334 . S
C796 H767 0.950 . S
C796 C795 1.334 . S
C796 C797 1.287 . S
C797 C796 1.287 . S
C797 C798 1.524 . S
C797 H800 0.999 . S
C798 H768 0.950 . S
C798 C797 1.524 . S
C798 C799 1.415 . S
C799 H769 0.950 . S
C799 C794 1.363 . S
C799 C798 1.415 . S
H800 C797 0.999 . S
H801 C782 0.913 . S
H802 C820 0.951 . S
H803 C822 0.951 . S
H804 C824 0.950 . S
H805 C825 0.950 . S
H806 C827 0.950 . S
H807 C830 0.950 . S
H808 C831 0.950 . S
H809 C833 0.950 . S
H810 C834 0.950 . S
H811 C835 0.951 . S
H812 C837 0.951 . S
H813 C839 0.950 . S
H814 C840 0.950 . S
H815 C842 0.950 . S
H816 C845 0.950 . S
H817 C846 0.950 . S
H818 C848 0.950 . S
H819 C849 0.950 . S
C820 H802 0.951 . S
C820 C821 1.366 . S
C820 C822 1.388 . S
C821 C820 1.366 . S
C821 C825 1.385 . S
C822 H803 0.951 . S
C822 C820 1.388 . S
C822 C823 1.366 . S
C823 C822 1.366 . S
C823 C824 1.414 . S
C823 C826 1.499 . S
C824 H804 0.950 . S
C824 C823 1.414 . S
C824 C825 1.374 . S
C825 H805 0.950 . S
C825 C821 1.385 . S
C825 C824 1.374 . S
C826 C823 1.499 . S
C826 C827 1.373 . S
C826 C828 1.389 . S
C827 H806 0.950 . S
C827 C826 1.373 . S
C827 C843 1.377 . S
C828 C826 1.389 . S
C828 C829 1.524 . S
C828 C842 1.377 . S
C829 C828 1.524 . S
C829 C830 1.397 . S
C829 C834 1.363 . S
C830 H807 0.950 . S
C830 C829 1.397 . S
C830 C831 1.334 . S
C831 H808 0.950 . S
C831 C830 1.334 . S
C831 C832 1.287 . S
C832 C831 1.287 . S
C832 C833 1.524 . S
C832 H851 0.913 . S
C833 H809 0.950 . S
C833 C832 1.524 . S
C833 C834 1.415 . S
C834 H810 0.950 . S
C834 C829 1.363 . S
C834 C833 1.415 . S
C835 H811 0.951 . S
C835 C836 1.366 . S
C835 C837 1.388 . S
C836 C835 1.366 . S
C836 C840 1.385 . S
C837 H812 0.951 . S
C837 C835 1.388 . S
C837 C838 1.366 . S
C838 C837 1.366 . S
C838 C839 1.414 . S
C838 C841 1.499 . S
C839 H813 0.950 . S
C839 C838 1.414 . S
C839 C840 1.374 . S
C840 H814 0.950 . S
C840 C836 1.385 . S
C840 C839 1.374 . S
C841 C838 1.499 . S
C841 C842 1.373 . S
C841 C843 1.389 . S
C842 H815 0.950 . S
C842 C828 1.377 . S
C842 C841 1.373 . S
C843 C827 1.377 . S
C843 C841 1.389 . S
C843 C844 1.524 . S
C844 C843 1.524 . S
C844 C845 1.397 . S
C844 C849 1.363 . S
C845 H816 0.950 . S
C845 C844 1.397 . S
C845 C846 1.334 . S
C846 H817 0.950 . S
C846 C845 1.334 . S
C846 C847 1.287 . S
C847 C846 1.287 . S
C847 C848 1.524 . S
C847 H850 0.999 . S
C848 H818 0.950 . S
C848 C847 1.524 . S
C848 C849 1.415 . S
C849 H819 0.950 . S
C849 C844 1.363 . S
C849 C848 1.415 . S
H850 C847 0.999 . S
H851 C832 0.913 . S
H852 C870 0.951 . S
H853 C872 0.951 . S
H854 C874 0.950 . S
H855 C875 0.950 . S
H856 C877 0.950 . S
H857 C880 0.950 . S
H858 C881 0.950 . S
H859 C883 0.950 . S
H860 C884 0.950 . S
H861 C885 0.951 . S
H862 C887 0.951 . S
H863 C889 0.950 . S
H864 C890 0.950 . S
H865 C892 0.950 . S
H866 C895 0.950 . S
H867 C896 0.950 . S
H868 C898 0.950 . S
H869 C899 0.950 . S
C870 H852 0.951 . S
C870 C871 1.366 . S
C870 C872 1.388 . S
C871 C870 1.366 . S
C871 C875 1.385 . S
C872 H853 0.951 . S
C872 C870 1.388 . S
C872 C873 1.366 . S
C873 C872 1.366 . S
C873 C874 1.414 . S
C873 C876 1.499 . S
C874 H854 0.950 . S
C874 C873 1.414 . S
C874 C875 1.374 . S
C875 H855 0.950 . S
C875 C871 1.385 . S
C875 C874 1.374 . S
C876 C873 1.499 . S
C876 C877 1.373 . S
C876 C878 1.389 . S
C877 H856 0.950 . S
C877 C876 1.373 . S
C877 C893 1.377 . S
C878 C876 1.389 . S
C878 C879 1.524 . S
C878 C892 1.377 . S
C879 C878 1.524 . S
C879 C880 1.397 . S
C879 C884 1.363 . S
C880 H857 0.950 . S
C880 C879 1.397 . S
C880 C881 1.334 . S
C881 H858 0.950 . S
C881 C880 1.334 . S
C881 C882 1.287 . S
C882 C881 1.287 . S
C882 C883 1.524 . S
C882 H901 0.913 . S
C883 H859 0.950 . S
C883 C882 1.524 . S
C883 C884 1.415 . S
C884 H860 0.950 . S
C884 C879 1.363 . S
C884 C883 1.415 . S
C885 H861 0.951 . S
C885 C886 1.366 . S
C885 C887 1.388 . S
C886 C885 1.366 . S
C886 C890 1.385 . S
C887 H862 0.951 . S
C887 C885 1.388 . S
C887 C888 1.366 . S
C888 C887 1.366 . S
C888 C889 1.414 . S
C888 C891 1.499 . S
C889 H863 0.950 . S
C889 C888 1.414 . S
C889 C890 1.374 . S
C890 H864 0.950 . S
C890 C886 1.385 . S
C890 C889 1.374 . S
C891 C888 1.499 . S
C891 C892 1.373 . S
C891 C893 1.389 . S
C892 H865 0.950 . S
C892 C878 1.377 . S
C892 C891 1.373 . S
C893 C877 1.377 . S
C893 C891 1.389 . S
C893 C894 1.524 . S
C894 C893 1.524 . S
C894 C895 1.397 . S
C894 C899 1.363 . S
C895 H866 0.950 . S
C895 C894 1.397 . S
C895 C896 1.334 . S
C896 H867 0.950 . S
C896 C895 1.334 . S
C896 C897 1.287 . S
C897 C896 1.287 . S
C897 C898 1.524 . S
C897 H900 0.999 . S
C898 H868 0.950 . S
C898 C897 1.524 . S
C898 C899 1.415 . S
C899 H869 0.950 . S
C899 C894 1.363 . S
C899 C898 1.415 . S
H900 C897 0.999 . S
H901 C882 0.913 . S
H902 C920 0.951 . S
H903 C922 0.951 . S
H904 C924 0.950 . S
H905 C925 0.950 . S
H906 C927 0.950 . S
H907 C930 0.950 . S
H908 C931 0.950 . S
H909 C933 0.950 . S
H910 C934 0.950 . S
H911 C935 0.951 . S
H912 C937 0.951 . S
H913 C939 0.950 . S
H914 C940 0.950 . S
H915 C942 0.950 . S
H916 C945 0.950 . S
H917 C946 0.950 . S
H918 C948 0.950 1_655 S
H919 C949 0.950 . S
C920 H902 0.951 . S
C920 C921 1.366 . S
C920 C922 1.388 . S
C921 C920 1.366 . S
C921 C925 1.385 . S
C922 H903 0.951 . S
C922 C920 1.388 . S
C922 C923 1.366 . S
C923 C922 1.366 . S
C923 C924 1.414 . S
C923 C926 1.499 . S
C924 H904 0.950 . S
C924 C923 1.414 . S
C924 C925 1.374 . S
C925 H905 0.950 . S
C925 C921 1.385 . S
C925 C924 1.374 . S
C926 C923 1.499 . S
C926 C927 1.373 . S
C926 C928 1.389 . S
C927 H906 0.950 . S
C927 C926 1.373 . S
C927 C943 1.377 . S
C928 C926 1.389 . S
C928 C929 1.524 . S
C928 C942 1.377 . S
C929 C928 1.524 . S
C929 C930 1.397 . S
C929 C934 1.363 . S
C930 H907 0.950 . S
C930 C929 1.397 . S
C930 C931 1.334 . S
C931 H908 0.950 . S
C931 C930 1.334 . S
C931 C932 1.287 . S
C932 C931 1.287 . S
C932 C933 1.524 . S
C932 H951 0.913 . S
C933 H909 0.950 . S
C933 C932 1.524 . S
C933 C934 1.415 . S
C934 H910 0.950 . S
C934 C929 1.363 . S
C934 C933 1.415 . S
C935 H911 0.951 . S
C935 C936 1.366 . S
C935 C937 1.388 . S
C936 C935 1.366 . S
C936 C940 1.385 . S
C937 H912 0.951 . S
C937 C935 1.388 . S
C937 C938 1.366 . S
C938 C937 1.366 . S
C938 C939 1.414 . S
C938 C941 1.499 . S
C939 H913 0.950 . S
C939 C938 1.414 . S
C939 C940 1.374 . S
C940 H914 0.950 . S
C940 C936 1.385 . S
C940 C939 1.374 . S
C941 C938 1.499 . S
C941 C942 1.373 . S
C941 C943 1.389 . S
C942 H915 0.950 . S
C942 C928 1.377 . S
C942 C941 1.373 . S
C943 C927 1.377 . S
C943 C941 1.389 . S
C943 C944 1.524 . S
C944 C943 1.524 . S
C944 C945 1.397 . S
C944 C949 1.363 . S
C945 H916 0.950 . S
C945 C944 1.397 . S
C945 C946 1.334 . S
C946 H917 0.950 . S
C946 C945 1.334 . S
C946 C947 1.287 . S
C947 C946 1.287 . S
C947 C948 1.524 . S
C947 H950 0.999 . S
C948 H918 0.950 1_455 S
C948 C947 1.524 . S
C948 C949 1.415 . S
C949 H919 0.950 . S
C949 C944 1.363 . S
C949 C948 1.415 . S
H950 C947 0.999 . S
H951 C932 0.913 . S
H952 C970 0.951 . S
H953 C972 0.951 . S
H954 C974 0.950 . S
H955 C975 0.950 . S
H956 C977 0.950 . S
H957 C980 0.950 . S
H958 C981 0.950 . S
H959 C983 0.950 . S
H960 C984 0.950 . S
H961 C985 0.951 . S
H962 C987 0.951 . S
H963 C989 0.950 . S
H964 C990 0.950 . S
H965 C992 0.950 . S
H966 C995 0.950 . S
H967 C996 0.950 . S
H968 C998 0.950 . S
H969 C999 0.950 . S
C970 H952 0.951 . S
C970 C971 1.366 . S
C970 C972 1.388 . S
C971 C970 1.366 . S
C971 C975 1.385 . S
C972 H953 0.951 . S
C972 C970 1.388 . S
C972 C973 1.366 . S
C973 C972 1.366 . S
C973 C974 1.414 . S
C973 C976 1.499 . S
C974 H954 0.950 . S
C974 C973 1.414 . S
C974 C975 1.374 . S
C975 H955 0.950 . S
C975 C971 1.385 . S
C975 C974 1.374 . S
C976 C973 1.499 . S
C976 C977 1.373 . S
C976 C978 1.389 . S
C977 H956 0.950 . S
C977 C976 1.373 . S
C977 C993 1.377 . S
C978 C976 1.389 . S
C978 C979 1.524 . S
C978 C992 1.377 . S
C979 C978 1.524 . S
C979 C980 1.397 . S
C979 C984 1.363 . S
C980 H957 0.950 . S
C980 C979 1.397 . S
C980 C981 1.334 . S
C981 H958 0.950 . S
C981 C980 1.334 . S
C981 C982 1.287 . S
C982 C981 1.287 . S
C982 C983 1.524 . S
C982 H1001 0.913 . S
C983 H959 0.950 . S
C983 C982 1.524 . S
C983 C984 1.415 . S
C984 H960 0.950 . S
C984 C979 1.363 . S
C984 C983 1.415 . S
C985 H961 0.951 . S
C985 C986 1.366 . S
C985 C987 1.388 . S
C986 C985 1.366 . S
C986 C990 1.385 . S
C987 H962 0.951 . S
C987 C985 1.388 . S
C987 C988 1.366 . S
C988 C987 1.366 . S
C988 C989 1.414 . S
C988 C991 1.499 . S
C989 H963 0.950 . S
C989 C988 1.414 . S
C989 C990 1.374 . S
C990 H964 0.950 . S
C990 C986 1.385 . S
C990 C989 1.374 . S
C991 C988 1.499 . S
C991 C992 1.373 . S
C991 C993 1.389 . S
C992 H965 0.950 . S
C992 C978 1.377 . S
C992 C991 1.373 . S
C993 C977 1.377 . S
C993 C991 1.389 . S
C993 C994 1.524 . S
C994 C993 1.524 . S
C994 C995 1.397 . S
C994 C999 1.363 . S
C995 H966 0.950 . S
C995 C994 1.397 . S
C995 C996 1.334 . S
C996 H967 0.950 . S
C996 C995 1.334 . S
C996 C997 1.287 . S
C997 C996 1.287 . S
C997 C998 1.524 . S
C997 H1000 0.999 . S
C998 H968 0.950 . S
C998 C997 1.524 . S
C998 C999 1.415 . S
C999 H969 0.950 . S
C999 C994 1.363 . S
C999 C998 1.415 . S
H1000 C997 0.999 . S
H1001 C982 0.913 . S
H1002 C1020 0.951 . S
H1003 C1022 0.951 . S
H1004 C1024 0.950 . S
H1005 C1025 0.950 . S
H1006 C1027 0.950 . S
H1007 C1030 0.950 . S
H1008 C1031 0.950 . S
H1009 C1033 0.950 . S
H1010 C1034 0.950 . S
H1011 C1035 0.951 . S
H1012 C1037 0.951 . S
H1013 C1039 0.950 . S
H1014 C1040 0.950 . S
H1015 C1042 0.950 . S
H1016 C1045 0.950 . S
H1017 C1046 0.950 . S
H1018 C1048 0.950 . S
H1019 C1049 0.950 . S
C1020 H1002 0.951 . S
C1020 C1021 1.366 . S
C1020 C1022 1.388 . S
C1021 C1020 1.366 . S
C1021 C1025 1.385 . S
C1022 H1003 0.951 . S
C1022 C1020 1.388 . S
C1022 C1023 1.366 . S
C1023 C1022 1.366 . S
C1023 C1024 1.414 . S
C1023 C1026 1.499 . S
C1024 H1004 0.950 . S
C1024 C1023 1.414 . S
C1024 C1025 1.374 . S
C1025 H1005 0.950 . S
C1025 C1021 1.385 . S
C1025 C1024 1.374 . S
C1026 C1023 1.499 . S
C1026 C1027 1.373 . S
C1026 C1028 1.389 . S
C1027 H1006 0.950 . S
C1027 C1026 1.373 . S
C1027 C1043 1.377 . S
C1028 C1026 1.389 . S
C1028 C1029 1.524 . S
C1028 C1042 1.377 . S
C1029 C1028 1.524 . S
C1029 C1030 1.397 . S
C1029 C1034 1.363 . S
C1030 H1007 0.950 . S
C1030 C1029 1.397 . S
C1030 C1031 1.334 . S
C1031 H1008 0.950 . S
C1031 C1030 1.334 . S
C1031 C1032 1.287 . S
C1032 C1031 1.287 . S
C1032 C1033 1.524 . S
C1032 H1051 0.913 . S
C1033 H1009 0.950 . S
C1033 C1032 1.524 . S
C1033 C1034 1.415 . S
C1034 H1010 0.950 . S
C1034 C1029 1.363 . S
C1034 C1033 1.415 . S
C1035 H1011 0.951 . S
C1035 C1036 1.366 . S
C1035 C1037 1.388 . S
C1036 C1035 1.366 . S
C1036 C1040 1.385 . S
C1037 H1012 0.951 . S
C1037 C1035 1.388 . S
C1037 C1038 1.366 . S
C1038 C1037 1.366 . S
C1038 C1039 1.414 . S
C1038 C1041 1.499 . S
C1039 H1013 0.950 . S
C1039 C1038 1.414 . S
C1039 C1040 1.374 . S
C1040 H1014 0.950 . S
C1040 C1036 1.385 . S
C1040 C1039 1.374 . S
C1041 C1038 1.499 . S
C1041 C1042 1.373 . S
C1041 C1043 1.389 . S
C1042 H1015 0.950 . S
C1042 C1028 1.377 . S
C1042 C1041 1.373 . S
C1043 C1027 1.377 . S
C1043 C1041 1.389 . S
C1043 C1044 1.524 . S
C1044 C1043 1.524 . S
C1044 C1045 1.397 . S
C1044 C1049 1.363 . S
C1045 H1016 0.950 . S
C1045 C1044 1.397 . S
C1045 C1046 1.334 . S
C1046 H1017 0.950 . S
C1046 C1045 1.334 . S
C1046 C1047 1.287 . S
C1047 C1046 1.287 . S
C1047 C1048 1.524 . S
C1047 H1050 0.999 . S
C1048 H1018 0.950 . S
C1048 C1047 1.524 . S
C1048 C1049 1.415 . S
C1049 H1019 0.950 . S
C1049 C1044 1.363 . S
C1049 C1048 1.415 . S
H1050 C1047 0.999 . S
H1051 C1032 0.913 . S
H1052 C1070 0.951 . S
H1053 C1072 0.951 . S
H1054 C1074 0.950 . S
H1055 C1075 0.950 . S
H1056 C1077 0.950 . S
H1057 C1080 0.950 . S
H1058 C1081 0.950 . S
H1059 C1083 0.950 . S
H1060 C1084 0.950 . S
H1061 C1085 0.921 1_556 S
H1062 C1087 0.951 . S
H1063 C1089 0.950 . S
H1064 C1090 0.950 . S
H1065 C1092 0.950 . S
H1066 C1095 0.950 . S
H1067 C1096 0.950 . S
H1068 C1098 0.950 . S
H1069 C1099 0.950 . S
C1070 H1052 0.951 . S
C1070 C1071 1.366 . S
C1070 C1072 1.388 . S
C1071 C1070 1.366 . S
C1071 C1075 1.385 . S
C1072 H1053 0.951 . S
C1072 C1070 1.388 . S
C1072 C1073 1.366 . S
C1073 C1072 1.366 . S
C1073 C1074 1.414 . S
C1073 C1076 1.499 . S
C1074 H1054 0.950 . S
C1074 C1073 1.414 . S
C1074 C1075 1.374 . S
C1075 H1055 0.950 . S
C1075 C1071 1.385 . S
C1075 C1074 1.374 . S
C1076 C1073 1.499 . S
C1076 C1077 1.373 . S
C1076 C1078 1.389 . S
C1077 H1056 0.950 . S
C1077 C1076 1.373 . S
C1077 C1093 1.377 . S
C1078 C1076 1.389 . S
C1078 C1079 1.524 . S
C1078 C1092 1.377 . S
C1079 C1078 1.524 . S
C1079 C1080 1.397 . S
C1079 C1084 1.363 . S
C1080 H1057 0.950 . S
C1080 C1079 1.397 . S
C1080 C1081 1.334 . S
C1081 H1058 0.950 . S
C1081 C1080 1.334 . S
C1081 C1082 1.287 . S
C1082 C1081 1.287 . S
C1082 C1083 1.524 . S
C1082 H1101 0.913 . S
C1083 H1059 0.950 . S
C1083 C1082 1.524 . S
C1083 C1084 1.415 . S
C1084 H1060 0.950 . S
C1084 C1079 1.363 . S
C1084 C1083 1.415 . S
C1085 H1061 0.921 1_554 S
C1085 C1086 1.366 . S
C1085 C1087 1.388 . S
C1086 C1085 1.366 . S
C1086 C1090 1.385 . S
C1087 H1062 0.951 . S
C1087 C1085 1.388 . S
C1087 C1088 1.366 . S
C1088 C1087 1.366 . S
C1088 C1089 1.414 . S
C1088 C1091 1.499 . S
C1089 H1063 0.950 . S
C1089 C1088 1.414 . S
C1089 C1090 1.374 . S
C1090 H1064 0.950 . S
C1090 C1086 1.385 . S
C1090 C1089 1.374 . S
C1091 C1088 1.499 . S
C1091 C1092 1.373 . S
C1091 C1093 1.389 . S
C1092 H1065 0.950 . S
C1092 C1078 1.377 . S
C1092 C1091 1.373 . S
C1093 C1077 1.377 . S
C1093 C1091 1.389 . S
C1093 C1094 1.524 . S
C1094 C1093 1.524 . S
C1094 C1095 1.397 . S
C1094 C1099 1.363 . S
C1095 H1066 0.950 . S
C1095 C1094 1.397 . S
C1095 C1096 1.334 . S
C1096 H1067 0.950 . S
C1096 C1095 1.334 . S
C1096 C1097 1.287 . S
C1097 C1096 1.287 . S
C1097 C1098 1.524 . S
C1097 H1100 0.999 . S
C1098 H1068 0.950 . S
C1098 C1097 1.524 . S
C1098 C1099 1.415 . S
C1099 H1069 0.950 . S
C1099 C1094 1.363 . S
C1099 C1098 1.415 . S
H1100 C1097 0.999 . S
H1101 C1082 0.913 . S
H1102 C1120 0.951 . S
H1103 C1122 0.951 . S
H1104 C1124 0.950 . S
H1105 C1125 0.950 . S
H1106 C1127 0.950 . S
H1107 C1130 0.950 . S
H1108 C1131 0.950 . S
H1109 C1133 0.950 . S
H1110 C1134 0.950 . S
H1111 C1135 0.951 . S
H1112 C1137 0.951 . S
H1113 C1139 0.950 . S
H1114 C1140 0.950 . S
H1115 C1142 0.950 . S
H1116 C1145 0.950 . S
H1117 C1146 0.950 . S
H1118 C1148 0.950 . S
H1119 C1149 0.950 . S
C1120 H1102 0.951 . S
C1120 C1121 1.366 . S
C1120 C1122 1.388 . S
C1121 C1120 1.366 . S
C1121 C1125 1.385 . S
C1122 H1103 0.951 . S
C1122 C1120 1.388 . S
C1122 C1123 1.366 . S
C1123 C1122 1.366 . S
C1123 C1124 1.414 . S
C1123 C1126 1.499 . S
C1124 H1104 0.950 . S
C1124 C1123 1.414 . S
C1124 C1125 1.374 . S
C1125 H1105 0.950 . S
C1125 C1121 1.385 . S
C1125 C1124 1.374 . S
C1126 C1123 1.499 . S
C1126 C1127 1.373 . S
C1126 C1128 1.389 . S
C1127 H1106 0.950 . S
C1127 C1126 1.373 . S
C1127 C1143 1.377 . S
C1128 C1126 1.389 . S
C1128 C1129 1.524 . S
C1128 C1142 1.377 . S
C1129 C1128 1.524 . S
C1129 C1130 1.397 . S
C1129 C1134 1.363 . S
C1130 H1107 0.950 . S
C1130 C1129 1.397 . S
C1130 C1131 1.334 . S
C1131 H1108 0.950 . S
C1131 C1130 1.334 . S
C1131 C1132 1.287 . S
C1132 C1131 1.287 . S
C1132 C1133 1.524 . S
C1132 H1151 0.913 . S
C1133 H1109 0.950 . S
C1133 C1132 1.524 . S
C1133 C1134 1.415 . S
C1134 H1110 0.950 . S
C1134 C1129 1.363 . S
C1134 C1133 1.415 . S
C1135 H1111 0.951 . S
C1135 C1136 1.366 . S
C1135 C1137 1.388 . S
C1136 C1135 1.366 . S
C1136 C1140 1.385 . S
C1137 H1112 0.951 . S
C1137 C1135 1.388 . S
C1137 C1138 1.366 . S
C1138 C1137 1.366 . S
C1138 C1139 1.414 . S
C1138 C1141 1.499 . S
C1139 H1113 0.950 . S
C1139 C1138 1.414 . S
C1139 C1140 1.374 . S
C1140 H1114 0.950 . S
C1140 C1136 1.385 . S
C1140 C1139 1.374 . S
C1141 C1138 1.499 . S
C1141 C1142 1.373 . S
C1141 C1143 1.389 . S
C1142 H1115 0.950 . S
C1142 C1128 1.377 . S
C1142 C1141 1.373 . S
C1143 C1127 1.377 . S
C1143 C1141 1.389 . S
C1143 C1144 1.524 . S
C1144 C1143 1.524 . S
C1144 C1145 1.397 . S
C1144 C1149 1.363 . S
C1145 H1116 0.950 . S
C1145 C1144 1.397 . S
C1145 C1146 1.334 . S
C1146 H1117 0.950 . S
C1146 C1145 1.334 . S
C1146 C1147 1.287 . S
C1147 C1146 1.287 . S
C1147 C1148 1.524 . S
C1147 H1150 0.999 . S
C1148 H1118 0.950 . S
C1148 C1147 1.524 . S
C1148 C1149 1.415 . S
C1149 H1119 0.950 . S
C1149 C1144 1.363 . S
C1149 C1148 1.415 . S
H1150 C1147 0.999 . S
H1151 C1132 0.913 . S
H1152 C1170 0.951 . S
H1153 C1172 0.951 . S
H1154 C1174 0.950 . S
H1155 C1175 0.950 . S
H1156 C1177 0.950 . S
H1157 C1180 0.950 . S
H1158 C1181 0.950 . S
H1159 C1183 0.950 . S
H1160 C1184 0.950 . S
H1161 C1185 0.951 . S
H1162 C1187 0.951 . S
H1163 C1189 0.950 . S
H1164 C1190 0.950 . S
H1165 C1192 0.950 . S
H1166 C1195 0.950 . S
H1167 C1196 0.950 . S
H1168 C1198 0.950 . S
H1169 C1199 0.950 . S
C1170 H1152 0.951 . S
C1170 C1171 1.366 . S
C1170 C1172 1.388 . S
C1171 C1170 1.366 . S
C1171 C1175 1.385 . S
C1172 H1153 0.951 . S
C1172 C1170 1.388 . S
C1172 C1173 1.366 . S
C1173 C1172 1.366 . S
C1173 C1174 1.414 . S
C1173 C1176 1.499 . S
C1174 H1154 0.950 . S
C1174 C1173 1.414 . S
C1174 C1175 1.374 . S
C1175 H1155 0.950 . S
C1175 C1171 1.385 . S
C1175 C1174 1.374 . S
C1176 C1173 1.499 . S
C1176 C1177 1.373 . S
C1176 C1178 1.389 . S
C1177 H1156 0.950 . S
C1177 C1176 1.373 . S
C1177 C1193 1.377 . S
C1178 C1176 1.389 . S
C1178 C1179 1.524 . S
C1178 C1192 1.377 . S
C1179 C1178 1.524 . S
C1179 C1180 1.397 . S
C1179 C1184 1.363 . S
C1180 H1157 0.950 . S
C1180 C1179 1.397 . S
C1180 C1181 1.334 . S
C1181 H1158 0.950 . S
C1181 C1180 1.334 . S
C1181 C1182 1.287 . S
C1182 C1181 1.287 . S
C1182 C1183 1.524 . S
C1182 H1201 0.913 . S
C1183 H1159 0.950 . S
C1183 C1182 1.524 . S
C1183 C1184 1.415 . S
C1184 H1160 0.950 . S
C1184 C1179 1.363 . S
C1184 C1183 1.415 . S
C1185 H1161 0.951 . S
C1185 C1186 1.366 . S
C1185 C1187 1.388 . S
C1186 C1185 1.366 . S
C1186 C1190 1.385 . S
C1187 H1162 0.951 . S
C1187 C1185 1.388 . S
C1187 C1188 1.366 . S
C1188 C1187 1.366 . S
C1188 C1189 1.414 . S
C1188 C1191 1.499 . S
C1189 H1163 0.950 . S
C1189 C1188 1.414 . S
C1189 C1190 1.374 . S
C1190 H1164 0.950 . S
C1190 C1186 1.385 . S
C1190 C1189 1.374 . S
C1191 C1188 1.499 . S
C1191 C1192 1.373 . S
C1191 C1193 1.389 . S
C1192 H1165 0.950 . S
C1192 C1178 1.377 . S
C1192 C1191 1.373 . S
C1193 C1177 1.377 . S
C1193 C1191 1.389 . S
C1193 C1194 1.524 . S
C1194 C1193 1.524 . S
C1194 C1195 1.397 . S
C1194 C1199 1.363 . S
C1195 H1166 0.950 . S
C1195 C1194 1.397 . S
C1195 C1196 1.334 . S
C1196 H1167 0.950 . S
C1196 C1195 1.334 . S
C1196 C1197 1.287 . S
C1197 C1196 1.287 . S
C1197 C1198 1.524 . S
C1197 H1200 0.999 . S
C1198 H1168 0.950 . S
C1198 C1197 1.524 . S
C1198 C1199 1.415 . S
C1199 H1169 0.950 . S
C1199 C1194 1.363 . S
C1199 C1198 1.415 . S
H1200 C1197 0.999 . S
H1201 C1182 0.913 . S
H1202 C1220 0.951 . S
H1203 C1222 0.951 . S
H1204 C1224 0.950 . S
H1205 C1225 0.950 . S
H1206 C1227 0.950 . S
H1207 C1230 0.950 . S
H1208 C1231 0.950 . S
H1209 C1233 0.950 . S
H1210 C1234 0.950 . S
H1211 C1235 0.951 . S
H1212 C1237 0.951 . S
H1213 C1239 0.950 . S
H1214 C1240 0.950 . S
H1215 C1242 0.950 . S
H1216 C1245 0.950 . S
H1217 C1246 0.950 . S
H1218 C1248 0.950 . S
H1219 C1249 0.950 . S
C1220 H1202 0.951 . S
C1220 C1221 1.366 . S
C1220 C1222 1.388 . S
C1221 C1220 1.366 . S
C1221 C1225 1.385 . S
C1222 H1203 0.951 . S
C1222 C1220 1.388 . S
C1222 C1223 1.366 . S
C1223 C1222 1.366 . S
C1223 C1224 1.414 . S
C1223 C1226 1.499 . S
C1224 H1204 0.950 . S
C1224 C1223 1.414 . S
C1224 C1225 1.374 . S
C1225 H1205 0.950 . S
C1225 C1221 1.385 . S
C1225 C1224 1.374 . S
C1226 C1223 1.499 . S
C1226 C1227 1.373 . S
C1226 C1228 1.389 . S
C1227 H1206 0.950 . S
C1227 C1226 1.373 . S
C1227 C1243 1.377 . S
C1228 C1226 1.389 . S
C1228 C1229 1.524 . S
C1228 C1242 1.377 . S
C1229 C1228 1.524 . S
C1229 C1230 1.397 . S
C1229 C1234 1.363 . S
C1230 H1207 0.950 . S
C1230 C1229 1.397 . S
C1230 C1231 1.334 . S
C1231 H1208 0.950 . S
C1231 C1230 1.334 . S
C1231 C1232 1.287 . S
C1232 C1231 1.287 . S
C1232 C1233 1.524 . S
C1232 H1251 0.913 . S
C1233 H1209 0.950 . S
C1233 C1232 1.524 . S
C1233 C1234 1.415 . S
C1234 H1210 0.950 . S
C1234 C1229 1.363 . S
C1234 C1233 1.415 . S
C1235 H1211 0.951 . S
C1235 C1236 1.366 . S
C1235 C1237 1.388 . S
C1236 C1235 1.366 . S
C1236 C1240 1.385 . S
C1237 H1212 0.951 . S
C1237 C1235 1.388 . S
C1237 C1238 1.366 . S
C1238 C1237 1.366 . S
C1238 C1239 1.414 . S
C1238 C1241 1.499 . S
C1239 H1213 0.950 . S
C1239 C1238 1.414 . S
C1239 C1240 1.374 . S
C1240 H1214 0.950 . S
C1240 C1236 1.385 . S
C1240 C1239 1.374 . S
C1241 C1238 1.499 . S
C1241 C1242 1.373 . S
C1241 C1243 1.389 . S
C1242 H1215 0.950 . S
C1242 C1228 1.377 . S
C1242 C1241 1.373 . S
C1243 C1227 1.377 . S
C1243 C1241 1.389 . S
C1243 C1244 1.524 . S
C1244 C1243 1.524 . S
C1244 C1245 1.397 . S
C1244 C1249 1.363 . S
C1245 H1216 0.950 . S
C1245 C1244 1.397 . S
C1245 C1246 1.334 . S
C1246 H1217 0.950 . S
C1246 C1245 1.334 . S
C1246 C1247 1.287 . S
C1247 C1246 1.287 . S
C1247 C1248 1.524 . S
C1247 H1250 0.999 . S
C1248 H1218 0.950 . S
C1248 C1247 1.524 . S
C1248 C1249 1.415 . S
C1249 H1219 0.950 . S
C1249 C1244 1.363 . S
C1249 C1248 1.415 . S
H1250 C1247 0.999 . S
H1251 C1232 0.913 . S
H1252 C1270 0.951 . S
H1253 C1272 0.951 . S
H1254 C1274 0.950 . S
H1255 C1275 0.950 . S
H1256 C1277 0.950 . S
H1257 C1280 0.950 . S
H1258 C1281 0.950 . S
H1259 C1283 0.950 . S
H1260 C1284 0.950 . S
H1261 C1285 0.951 . S
H1262 C1287 0.951 . S
H1263 C1289 0.950 . S
H1264 C1290 0.950 . S
H1265 C1292 0.950 . S
H1266 C1295 0.950 . S
H1267 C1296 0.950 . S
H1268 C1298 0.950 . S
H1269 C1299 0.950 . S
C1270 H1252 0.951 . S
C1270 C1271 1.366 . S
C1270 C1272 1.388 . S
C1271 C1270 1.366 . S
C1271 C1275 1.385 . S
C1272 H1253 0.951 . S
C1272 C1270 1.388 . S
C1272 C1273 1.366 . S
C1273 C1272 1.366 . S
C1273 C1274 1.414 . S
C1273 C1276 1.499 . S
C1274 H1254 0.950 . S
C1274 C1273 1.414 . S
C1274 C1275 1.374 . S
C1275 H1255 0.950 . S
C1275 C1271 1.385 . S
C1275 C1274 1.374 . S
C1276 C1273 1.499 . S
C1276 C1277 1.373 . S
C1276 C1278 1.389 . S
C1277 H1256 0.950 . S
C1277 C1276 1.373 . S
C1277 C1293 1.377 . S
C1278 C1276 1.389 . S
C1278 C1279 1.524 . S
C1278 C1292 1.377 . S
C1279 C1278 1.524 . S
C1279 C1280 1.397 . S
C1279 C1284 1.363 . S
C1280 H1257 0.950 . S
C1280 C1279 1.397 . S
C1280 C1281 1.334 . S
C1281 H1258 0.950 . S
C1281 C1280 1.334 . S
C1281 C1282 1.287 1_455 S
C1282 C1281 1.287 1_655 S
C1282 C1283 1.524 . S
C1282 H1301 0.913 . S
C1283 H1259 0.950 . S
C1283 C1282 1.524 . S
C1283 C1284 1.415 1_655 S
C1284 H1260 0.950 . S
C1284 C1279 1.363 . S
C1284 C1283 1.415 1_455 S
C1285 H1261 0.951 . S
C1285 C1286 1.366 . S
C1285 C1287 1.388 . S
C1286 C1285 1.366 . S
C1286 C1290 1.385 . S
C1287 H1262 0.951 . S
C1287 C1285 1.388 . S
C1287 C1288 1.366 . S
C1288 C1287 1.366 . S
C1288 C1289 1.414 . S
C1288 C1291 1.499 . S
C1289 H1263 0.950 . S
C1289 C1288 1.414 . S
C1289 C1290 1.374 . S
C1290 H1264 0.950 . S
C1290 C1286 1.385 . S
C1290 C1289 1.374 . S
C1291 C1288 1.499 . S
C1291 C1292 1.373 . S
C1291 C1293 1.389 . S
C1292 H1265 0.950 . S
C1292 C1278 1.377 . S
C1292 C1291 1.373 . S
C1293 C1277 1.377 . S
C1293 C1291 1.389 . S
C1293 C1294 1.524 . S
C1294 C1293 1.524 . S
C1294 C1295 1.397 . S
C1294 C1299 1.363 . S
C1295 H1266 0.950 . S
C1295 C1294 1.397 . S
C1295 C1296 1.334 . S
C1296 H1267 0.950 . S
C1296 C1295 1.334 . S
C1296 C1297 1.287 . S
C1297 C1296 1.287 . S
C1297 C1298 1.524 . S
C1297 H1300 0.999 . S
C1298 H1268 0.950 . S
C1298 C1297 1.524 . S
C1298 C1299 1.415 . S
C1299 H1269 0.950 . S
C1299 C1294 1.363 . S
C1299 C1298 1.415 . S
H1300 C1297 0.999 . S
H1301 C1282 0.913 . S
H1302 C1320 0.951 . S
H1303 C1322 0.951 . S
H1304 C1324 0.950 . S
H1305 C1325 0.950 . S
H1306 C1327 0.950 . S
H1307 C1330 0.950 . S
H1308 C1331 0.950 . S
H1309 C1333 0.950 . S
H1310 C1334 0.950 . S
H1311 C1335 0.951 . S
H1312 C1337 0.951 . S
H1313 C1339 0.950 . S
H1314 C1340 0.950 . S
H1315 C1342 0.950 . S
H1316 C1345 0.950 . S
H1317 C1346 0.950 . S
H1318 C1348 0.950 . S
H1319 C1349 0.950 . S
C1320 H1302 0.951 . S
C1320 C1321 1.366 . S
C1320 C1322 1.388 . S
C1321 C1320 1.366 . S
C1321 C1325 1.385 . S
C1322 H1303 0.951 . S
C1322 C1320 1.388 . S
C1322 C1323 1.366 . S
C1323 C1322 1.366 . S
C1323 C1324 1.414 . S
C1323 C1326 1.499 . S
C1324 H1304 0.950 . S
C1324 C1323 1.414 . S
C1324 C1325 1.374 . S
C1325 H1305 0.950 . S
C1325 C1321 1.385 . S
C1325 C1324 1.374 . S
C1326 C1323 1.499 . S
C1326 C1327 1.373 . S
C1326 C1328 1.389 . S
C1327 H1306 0.950 . S
C1327 C1326 1.373 . S
C1327 C1343 1.377 . S
C1328 C1326 1.389 . S
C1328 C1329 1.524 . S
C1328 C1342 1.377 . S
C1329 C1328 1.524 . S
C1329 C1330 1.397 . S
C1329 C1334 1.363 . S
C1330 H1307 0.950 . S
C1330 C1329 1.397 . S
C1330 C1331 1.334 . S
C1331 H1308 0.950 . S
C1331 C1330 1.334 . S
C1331 C1332 1.287 . S
C1332 C1331 1.287 . S
C1332 C1333 1.524 . S
C1332 H1351 0.913 . S
C1333 H1309 0.950 . S
C1333 C1332 1.524 . S
C1333 C1334 1.415 . S
C1334 H1310 0.950 . S
C1334 C1329 1.363 . S
C1334 C1333 1.415 . S
C1335 H1311 0.951 . S
C1335 C1336 1.366 . S
C1335 C1337 1.388 . S
C1336 C1335 1.366 . S
C1336 C1340 1.385 . S
C1337 H1312 0.951 . S
C1337 C1335 1.388 . S
C1337 C1338 1.366 . S
C1338 C1337 1.366 . S
C1338 C1339 1.414 . S
C1338 C1341 1.499 . S
C1339 H1313 0.950 . S
C1339 C1338 1.414 . S
C1339 C1340 1.374 . S
C1340 H1314 0.950 . S
C1340 C1336 1.385 . S
C1340 C1339 1.374 . S
C1341 C1338 1.499 . S
C1341 C1342 1.373 . S
C1341 C1343 1.389 . S
C1342 H1315 0.950 . S
C1342 C1328 1.377 . S
C1342 C1341 1.373 . S
C1343 C1327 1.377 . S
C1343 C1341 1.389 . S
C1343 C1344 1.524 . S
C1344 C1343 1.524 . S
C1344 C1345 1.397 . S
C1344 C1349 1.363 . S
C1345 H1316 0.950 . S
C1345 C1344 1.397 . S
C1345 C1346 1.334 . S
C1346 H1317 0.950 . S
C1346 C1345 1.334 . S
C1346 C1347 1.287 . S
C1347 C1346 1.287 . S
C1347 C1348 1.524 . S
C1347 H1350 0.999 . S
C1348 H1318 0.950 . S
C1348 C1347 1.524 . S
C1348 C1349 1.415 . S
C1349 H1319 0.950 . S
C1349 C1344 1.363 . S
C1349 C1348 1.415 . S
H1350 C1347 0.999 . S
H1351 C1332 0.913 . S
C171 C5 1.422 . S
C186 C74 1.416 . S
C221 C14 1.342 . S
C236 C93 1.316 . S
C286 C130 1.735 . S
C271 C25 1.760 . S
C321 C34 1.683 . S
C336 C140 1.639 . S
C386 C110 1.845 . S
C371 C7 1.833 . S
C436 C80 1.406 . S
C421 C13 1.461 . S
C486 C151 1.496 . S
C471 C23 1.521 . S
C536 C121 1.375 . S
C521 C31 1.403 . S
C571 C4 1.649 . S
C586 C134 1.643 . S
C636 C101 1.697 . S
C621 C22 1.749 . S
C671 C32 1.733 . S
C686 C91 1.727 . S
C721 C16 1.191 . S
C736 C113 1.179 . S
C786 C73 1.403 . S
C771 C41 1.409 . S
C821 C50 1.350 . S
C836 C94 1.324 . S
C871 C61 1.754 . S
C886 C131 1.730 . S
C921 C67 1.695 . S
C936 C141 1.650 . S
C971 C40 1.853 . S
C986 C111 1.865 . S
C1036 C81 1.384 . S
C1021 C52 1.436 . S
C1086 C150 1.506 . S
C1071 C59 1.530 . S
C1136 C120 1.371 . S
C1121 C70 1.399 . S
C1171 C43 1.646 . S
C1186 C133 1.641 . S
C1236 C100 1.707 . S
C1221 C58 1.758 . S
C1286 C90 1.708 . S
C1271 C68 1.715 . S
C1321 C49 1.200 . S
C1336 C114 1.185 . S
