# Generated by pormake.
# Topology rtl, (3,6)-cn, num edge types: 1
# Building blocks:
#     Node 0, Type 0, BuildingBlock: MIDCAF_clean_linker_0, # of connection points: 3
#     Node 1, Type 0, BuildingBlock: MIDCAF_clean_linker_0, # of connection points: 3
#     Node 2, Type 0, BuildingBlock: MIDCAF_clean_linker_0, # of connection points: 3
#     Node 3, Type 0, BuildingBlock: MIDCAF_clean_linker_0, # of connection points: 3
#     Node 4, Type 1, BuildingBlock: FUNLAD_clean_sbu_0, # of connection points: 6
#     Node 5, Type 1, BuildingBlock: FUNLAD_clean_sbu_0, # of connection points: 6
#     Edge 6, Type (0, 1), BuildingBlock: KIFKEQ_clean_linker_1, # of connection points: 2
#     Edge 7, Type (0, 1), BuildingBlock: KIFKEQ_clean_linker_1, # of connection points: 2
#     Edge 8, Type (0, 1), BuildingBlock: KIFKEQ_clean_linker_1, # of connection points: 2
#     Edge 9, Type (0, 1), BuildingBlock: KIFKEQ_clean_linker_1, # of connection points: 2
#     Edge 10, Type (0, 1), BuildingBlock: KIFKEQ_clean_linker_1, # of connection points: 2
#     Edge 11, Type (0, 1), BuildingBlock: KIFKEQ_clean_linker_1, # of connection points: 2
#     Edge 12, Type (0, 1), BuildingBlock: KIFKEQ_clean_linker_1, # of connection points: 2
#     Edge 13, Type (0, 1), BuildingBlock: KIFKEQ_clean_linker_1, # of connection points: 2
#     Edge 14, Type (0, 1), BuildingBlock: KIFKEQ_clean_linker_1, # of connection points: 2
#     Edge 15, Type (0, 1), BuildingBlock: KIFKEQ_clean_linker_1, # of connection points: 2
#     Edge 16, Type (0, 1), BuildingBlock: KIFKEQ_clean_linker_1, # of connection points: 2
#     Edge 17, Type (0, 1), BuildingBlock: KIFKEQ_clean_linker_1, # of connection points: 2
# Relax obj value: 0.028
# Max RMSD: 0.094
# Mean RMSD: 0.080
data_MOF--net-rtl--node1-FUNLAD_clean_sbu_0--node2-MIDCAF_clean_linker_0--edge1-KIFKEQ_clean_linker_1
_symmetry_space_group_name_H-M    P1
_symmetry_Int_Tables_number       1
_symmetry_cell_setting            triclinic
loop_
_symmetry_equiv_pos_as_xyz
'x, y, z'
_cell_length_a     49.442088
_cell_length_b     40.044423
_cell_length_c     28.742714
_cell_angle_alpha  89.769743
_cell_angle_beta   90.76302
_cell_angle_gamma 90.486256
loop_
_atom_site_label
_atom_site_type_symbol
_atom_site_fract_x
_atom_site_fract_y
_atom_site_fract_z
_atom_type_partial_charge
C0 C 0.05724 0.80601 0.14441 0.0
C1 C 0.07432 0.8124 0.183 0.0
C2 C 0.10146 0.80212 0.18111 0.0
C3 C 0.11138 0.78676 0.14129 0.0
H4 H 0.17475 0.72862 0.09048 0.0
H5 H 0.21647 0.69679 0.0894 0.0
H6 H 0.20068 0.67069 0.94573 0.0
H7 H 0.15957 0.70349 0.94631 0.0
H8 H 0.13247 0.77534 0.89396 0.0
H9 H 0.11697 0.8036 0.82318 0.0
H10 H 0.03984 0.822 0.88628 0.0
H11 H 0.05534 0.79417 0.95757 0.0
H12 H 0.05377 0.78747 0.07482 0.0
H13 H 0.03607 0.81268 0.14487 0.0
H14 H 0.1154 0.80699 0.20967 0.0
H15 H 0.13254 0.78002 0.14051 0.0
N16 N 0.12821 0.74986 0.05865 0.0
N17 N 0.12802 0.74967 0.97703 0.0
N18 N 0.09459 0.7787 0.01687 0.0
C19 C 0.13925 0.73962 0.0181 0.0
C20 C 0.10572 0.76921 0.97613 0.0
C21 C 0.10573 0.76917 0.05823 0.0
C22 C 0.16389 0.71883 0.0184 0.0
C23 C 0.18012 0.71598 0.05872 0.0
C24 C 0.20401 0.69754 0.05816 0.0
C25 C 0.21208 0.68124 0.0174 0.0
C26 C 0.19545 0.68347 0.97745 0.0
C27 C 0.17175 0.70217 0.97786 0.0
C28 C 0.09518 0.7827 0.93151 0.0
C29 C 0.11206 0.78497 0.89261 0.0
C30 C 0.10329 0.80127 0.85218 0.0
C31 C 0.07731 0.81505 0.84953 0.0
C32 C 0.05994 0.81144 0.88749 0.0
C33 C 0.06887 0.79566 0.92829 0.0
C34 C 0.09456 0.78191 0.10211 0.0
C35 C 0.06731 0.79129 0.1043 0.0
C36 C 0.55641 0.70065 0.38422 0.0
C37 C 0.57421 0.6949 0.34734 0.0
C38 C 0.60077 0.70772 0.35068 0.0
C39 C 0.60953 0.72476 0.39054 0.0
H40 H 0.65516 0.81159 0.443 0.0
H41 H 0.69637 0.84517 0.44291 0.0
H42 H 0.71093 0.81956 0.5873 0.0
H43 H 0.66917 0.78706 0.58787 0.0
H44 H 0.61793 0.75724 0.64435 0.0
H45 H 0.60194 0.73128 0.71588 0.0
H46 H 0.54498 0.67159 0.636 0.0
H47 H 0.56028 0.69799 0.56496 0.0
H48 H 0.55134 0.72024 0.45268 0.0
H49 H 0.53561 0.69204 0.38247 0.0
H50 H 0.61519 0.7035 0.32337 0.0
H51 H 0.63035 0.73336 0.39264 0.0
N52 N 0.62405 0.76374 0.47354 0.0
N53 N 0.62339 0.76407 0.55519 0.0
N54 N 0.5912 0.73272 0.51326 0.0
C55 C 0.63457 0.7747 0.51472 0.0
C56 C 0.6016 0.74313 0.55472 0.0
C57 C 0.60229 0.74286 0.47261 0.0
C58 C 0.65892 0.79648 0.51538 0.0
C59 C 0.66706 0.81328 0.47483 0.0
C60 C 0.69081 0.83241 0.4747 0.0
C61 C 0.70716 0.8349 0.51498 0.0
C62 C 0.69869 0.81862 0.5558 0.0
C63 C 0.67478 0.79979 0.55607 0.0
C64 C 0.59055 0.72961 0.59873 0.0
C65 C 0.60178 0.73885 0.64206 0.0
C66 C 0.59273 0.72383 0.68309 0.0
C67 C 0.57227 0.69923 0.6817 0.0
C68 C 0.56052 0.69076 0.63851 0.0
C69 C 0.56947 0.7058 0.5976 0.0
C70 C 0.5921 0.72883 0.42823 0.0
C71 C 0.56534 0.71708 0.42438 0.0
C72 C 0.94336 0.19899 0.87571 0.0
C73 C 0.93082 0.20702 0.83302 0.0
C74 C 0.9091 0.22953 0.83278 0.0
C75 C 0.89959 0.24274 0.8745 0.0
H76 H 0.84548 0.31263 0.93639 0.0
H77 H 0.80294 0.34336 0.93769 0.0
H78 H 0.78857 0.30786 0.07722 0.0
H79 H 0.83099 0.27739 0.07637 0.0
H80 H 0.88577 0.25265 0.13468 0.0
H81 H 0.90136 0.2233 0.20478 0.0
H82 H 0.95233 0.16125 0.1211 0.0
H83 H 0.93704 0.19025 0.05132 0.0
H84 H 0.94386 0.20464 0.94934 0.0
H85 H 0.95984 0.18136 0.87746 0.0
H86 H 0.89921 0.2366 0.80043 0.0
H87 H 0.88242 0.25935 0.8732 0.0
N88 N 0.87809 0.26459 0.96353 0.0
N89 N 0.87729 0.25949 0.045 0.0
N90 N 0.91043 0.23211 0.00258 0.0
C91 C 0.86662 0.27227 0.00491 0.0
C92 C 0.8993 0.23948 0.04409 0.0
C93 C 0.90011 0.24451 0.96218 0.0
C94 C 0.84164 0.29244 0.00621 0.0
C95 C 0.83333 0.31151 0.96745 0.0
C96 C 0.80907 0.32923 0.96822 0.0
C97 C 0.79246 0.32779 0.00746 0.0
C98 C 0.8009 0.30912 0.04637 0.0
C99 C 0.82529 0.29184 0.0459 0.0
C100 C 0.90997 0.2237 0.08724 0.0
C101 C 0.90045 0.23292 0.13125 0.0
C102 C 0.90944 0.21626 0.1714 0.0
C103 C 0.92785 0.18987 0.16819 0.0
C104 C 0.93786 0.18124 0.12445 0.0
C105 C 0.92915 0.19804 0.08449 0.0
C106 C 0.9116 0.23368 0.9173 0.0
C107 C 0.93397 0.2122 0.91719 0.0
C108 C 0.44227 0.31842 0.63235 0.0
C109 C 0.43067 0.31026 0.67522 0.0
C110 C 0.41216 0.28353 0.6776 0.0
C111 C 0.40445 0.26625 0.63722 0.0
H112 H 0.33924 0.21453 0.58094 0.0
H113 H 0.29701 0.18328 0.57927 0.0
H114 H 0.31104 0.15599 0.43628 0.0
H115 H 0.35291 0.18848 0.43738 0.0
H116 H 0.39015 0.24295 0.37817 0.0
H117 H 0.40405 0.27196 0.30703 0.0
H118 H 0.46027 0.33219 0.38717 0.0
H119 H 0.44688 0.30351 0.45777 0.0
H120 H 0.44385 0.30862 0.55969 0.0
H121 H 0.45691 0.33862 0.62974 0.0
H122 H 0.40293 0.2768 0.71033 0.0
H123 H 0.38951 0.24642 0.63985 0.0
N124 N 0.38418 0.238 0.54997 0.0
N125 N 0.38513 0.2357 0.46829 0.0
N126 N 0.41639 0.26903 0.5091 0.0
C127 C 0.37396 0.22579 0.5092 0.0
C128 C 0.40647 0.25732 0.46806 0.0
C129 C 0.40554 0.25953 0.55016 0.0
C130 C 0.34944 0.20423 0.50919 0.0
C131 C 0.33349 0.20167 0.54919 0.0
C132 C 0.30925 0.18352 0.54832 0.0
C133 C 0.30047 0.16712 0.50759 0.0
C134 C 0.31687 0.16882 0.468 0.0
C135 C 0.341 0.1873 0.46871 0.0
C136 C 0.41707 0.27117 0.42391 0.0
C137 C 0.40576 0.26202 0.38054 0.0
C138 C 0.41373 0.27851 0.33981 0.0
C139 C 0.43291 0.30456 0.34193 0.0
C140 C 0.44513 0.31252 0.38479 0.0
C141 C 0.43743 0.29594 0.42523 0.0
C142 C 0.41536 0.27524 0.59391 0.0
C143 C 0.43482 0.30105 0.59224 0.0
C144 C 0.01655 0.9591 0.44695 0.0
N145 N 0.06079 0.03685 0.50978 0.0
C146 C 0.08226 0.01591 0.50786 0.0
C147 C 0.10859 0.02867 0.50651 0.0
C148 C 0.11299 0.06339 0.50768 0.0
C149 C 0.09039 0.0844 0.50994 0.0
C150 C 0.06438 0.07056 0.51072 0.0
Zn151 Zn 0.02261 0.01695 0.51128 0.0
C152 C 0.98581 0.0483 0.44161 0.0
N153 N 0.94327 0.97435 0.51452 0.0
C154 C 0.9404 0.94071 0.51917 0.0
C155 C 0.92135 0.9945 0.51035 0.0
C156 C 0.89526 0.98086 0.51025 0.0
C157 C 0.89166 0.94615 0.51487 0.0
C158 C 0.91471 0.92606 0.51968 0.0
Zn159 Zn 0.98126 0.99461 0.51315 0.0
O160 O 0.03342 0.98108 0.46097 0.0
C161 C 0.01802 0.96319 0.58282 0.0
O162 O 0.99279 0.95874 0.46325 0.0
H163 H 0.92408 0.0212 0.50671 0.0
H164 H 0.07899 0.98918 0.50724 0.0
H165 H 0.9581 0.92514 0.52243 0.0
O166 O 0.03476 0.98365 0.56503 0.0
O167 O 0.99371 0.96257 0.56798 0.0
H168 H 0.04704 0.08678 0.51224 0.0
O169 O 0.97012 0.03076 0.56257 0.0
O170 O 0.01098 0.05259 0.56161 0.0
O171 O 0.96948 0.02697 0.45856 0.0
O172 O 0.00993 0.04994 0.45739 0.0
C173 C 0.98699 0.05263 0.57698 0.0
H174 H 0.12526 0.01145 0.50402 0.0
H175 H 0.09272 0.11127 0.51167 0.0
H176 H 0.87815 0.99732 0.50582 0.0
H177 H 0.91299 0.89927 0.52414 0.0
C178 C 0.48461 0.45886 0.94277 0.0
N179 N 0.55948 0.46956 0.01157 0.0
C180 C 0.56161 0.43578 0.0151 0.0
C181 C 0.58698 0.42074 0.01531 0.0
C182 C 0.61035 0.4406 0.01114 0.0
C183 C 0.6076 0.47534 0.00712 0.0
C184 C 0.58185 0.4894 0.00777 0.0
Zn185 Zn 0.52193 0.49071 0.01181 0.0
C186 C 0.51766 0.54778 0.94567 0.0
N187 N 0.44357 0.53474 0.01226 0.0
C188 C 0.42093 0.51534 0.00842 0.0
C189 C 0.44188 0.56848 0.01635 0.0
C190 C 0.41673 0.58398 0.01686 0.0
C191 C 0.39296 0.56466 0.01264 0.0
C192 C 0.39533 0.52984 0.00838 0.0
Zn193 Zn 0.48096 0.51339 0.01202 0.0
O194 O 0.50845 0.45703 0.95967 0.0
C195 C 0.48487 0.45644 0.07799 0.0
O196 O 0.46867 0.48097 0.95777 0.0
H197 H 0.46011 0.58348 0.01936 0.0
H198 H 0.5436 0.42042 0.01768 0.0
H199 H 0.42272 0.48855 0.0052 0.0
O200 O 0.50911 0.45644 0.06379 0.0
O201 O 0.46838 0.47781 0.06171 0.0
H202 H 0.57974 0.51621 0.0053 0.0
O203 O 0.49385 0.54518 0.06636 0.0
O204 O 0.53489 0.52482 0.06418 0.0
O205 O 0.49402 0.54888 0.96231 0.0
O206 O 0.53382 0.52524 0.95968 0.0
C207 C 0.51812 0.54508 0.0814 0.0
H208 H 0.5883 0.39381 0.01803 0.0
H209 H 0.6252 0.49148 0.00421 0.0
H210 H 0.41597 0.61081 0.02102 0.0
H211 H 0.37762 0.51396 0.00442 0.0
H212 H 0.26373 0.16447 0.43533 0.0
H213 H 0.27664 0.12991 0.5765 0.0
H214 H 0.21954 0.13748 0.43377 0.0
H215 H 0.23166 0.105 0.57608 0.0
H216 H 0.15898 0.03839 0.549 0.0
H217 H 0.20468 0.06101 0.54624 0.0
H218 H 0.17582 0.14437 0.46405 0.0
H219 H 0.1305 0.1205 0.46395 0.0
C220 C 0.25725 0.15097 0.46599 0.0
C221 C 0.27384 0.14946 0.50607 0.0
C222 C 0.23165 0.13593 0.46535 0.0
C223 C 0.22183 0.11926 0.50493 0.0
C224 C 0.23859 0.1173 0.54477 0.0
C225 C 0.2643 0.13205 0.54524 0.0
C226 C 0.16241 0.06125 0.52964 0.0
C227 C 0.14094 0.07753 0.50663 0.0
C228 C 0.18863 0.07451 0.52864 0.0
C229 C 0.19404 0.10461 0.50502 0.0
C230 C 0.17256 0.12091 0.48205 0.0
C231 C 0.1464 0.10747 0.48264 0.0
H232 H 0.2481 0.67833 0.94597 0.0
H233 H 0.2351 0.64234 0.08595 0.0
H234 H 0.29058 0.64848 0.94365 0.0
H235 H 0.27855 0.61423 0.08473 0.0
H236 H 0.34609 0.54181 0.05246 0.0
H237 H 0.30197 0.56837 0.05195 0.0
H238 H 0.33504 0.65172 0.97473 0.0
H239 H 0.37857 0.62423 0.97262 0.0
C240 C 0.25422 0.66396 0.97625 0.0
C241 C 0.23806 0.66275 0.01613 0.0
C242 C 0.27886 0.64722 0.97517 0.0
C243 C 0.28816 0.62908 0.01411 0.0
C244 C 0.27193 0.62766 0.05391 0.0
C245 C 0.24715 0.6442 0.05486 0.0
C246 C 0.34385 0.56556 0.03474 0.0
C247 C 0.36596 0.58083 0.01258 0.0
C248 C 0.31861 0.58103 0.03502 0.0
C249 C 0.31488 0.61226 0.01339 0.0
C250 C 0.337 0.62748 0.99122 0.0
C251 C 0.36215 0.61191 0.99062 0.0
H252 H 0.73034 0.87383 0.58343 0.0
H253 H 0.74369 0.83753 0.44423 0.0
H254 H 0.77463 0.90081 0.58327 0.0
H255 H 0.78705 0.86636 0.4429 0.0
H256 H 0.87553 0.88715 0.47496 0.0
H257 H 0.83095 0.86134 0.47564 0.0
H258 H 0.80017 0.94576 0.55114 0.0
H259 H 0.84528 0.97058 0.55318 0.0
C260 C 0.74263 0.87172 0.55269 0.0
C261 C 0.73342 0.85332 0.51394 0.0
C262 C 0.7679 0.88761 0.55235 0.0
C263 C 0.78451 0.88571 0.51312 0.0
C264 C 0.77503 0.86792 0.47401 0.0
C265 C 0.7499 0.8518 0.47451 0.0
C266 C 0.85938 0.90004 0.49232 0.0
C267 C 0.86411 0.9309 0.51423 0.0
C268 C 0.83364 0.88545 0.49205 0.0
C269 C 0.81186 0.9015 0.51327 0.0
C270 C 0.81652 0.9325 0.53491 0.0
C271 C 0.84235 0.94697 0.53551 0.0
H272 H 0.78159 0.39243 0.98324 0.0
H273 H 0.74372 0.30149 0.0316 0.0
H274 H 0.73803 0.42069 0.98521 0.0
H275 H 0.70002 0.32901 0.03181 0.0
H276 H 0.63036 0.39447 0.07206 0.0
H277 H 0.67468 0.36838 0.07189 0.0
H278 H 0.69534 0.42475 0.94848 0.0
H279 H 0.65132 0.45179 0.95014 0.0
C280 C 0.76384 0.37845 0.99383 0.0
C281 C 0.766 0.34488 0.00753 0.0
C282 C 0.73884 0.39455 0.99479 0.0
C283 C 0.71539 0.37724 0.00885 0.0
C284 C 0.71765 0.34344 0.02186 0.0
C285 C 0.74267 0.32756 0.02153 0.0
C286 C 0.64444 0.40121 0.04495 0.0
C287 C 0.63744 0.42506 0.01107 0.0
C288 C 0.66981 0.38615 0.04464 0.0
C289 C 0.68867 0.3942 0.00996 0.0
C290 C 0.6816 0.41825 0.97616 0.0
C291 C 0.65633 0.43367 0.97692 0.0
H292 H 0.08857 0.80467 0.27547 0.0
H293 H 0.03741 0.86326 0.18368 0.0
H294 H 0.07431 0.83841 0.34121 0.0
H295 H 0.02229 0.89545 0.24987 0.0
H296 H 0.98316 0.92228 0.39036 0.0
H297 H 0.9962 0.88437 0.32811 0.0
H298 H 0.08044 0.90277 0.36083 0.0
H299 H 0.06753 0.94115 0.42255 0.0
C300 C 0.07429 0.82458 0.26914 0.0
C301 C 0.06426 0.83116 0.22395 0.0
C302 C 0.06604 0.84372 0.30691 0.0
C303 C 0.04719 0.86938 0.30048 0.0
C304 C 0.0366 0.87548 0.25578 0.0
C305 C 0.0452 0.85682 0.2179 0.0
C306 C 0.00446 0.91806 0.38446 0.0
C307 C 0.02434 0.93477 0.41114 0.0
C308 C 0.01187 0.89649 0.34881 0.0
C309 C 0.03928 0.89072 0.33984 0.0
C310 C 0.05916 0.90665 0.36734 0.0
C311 C 0.05177 0.92872 0.40241 0.0
H312 H 0.52128 0.67972 0.707 0.0
H313 H 0.60478 0.67727 0.75317 0.0
H314 H 0.50859 0.64468 0.77263 0.0
H315 H 0.59186 0.64373 0.82027 0.0
H316 H 0.5643 0.54827 0.8957 0.0
H317 H 0.57744 0.5874 0.83486 0.0
H318 H 0.50379 0.64257 0.85528 0.0
H319 H 0.49026 0.6028 0.91513 0.0
C320 C 0.5369 0.67197 0.7314 0.0
C321 C 0.56408 0.68109 0.72455 0.0
C322 C 0.52957 0.65219 0.7694 0.0
C323 C 0.54923 0.6412 0.80164 0.0
C324 C 0.57627 0.65131 0.7957 0.0
C325 C 0.58362 0.67097 0.75756 0.0
C326 C 0.55095 0.56881 0.8873 0.0
C327 C 0.52616 0.5723 0.91003 0.0
C328 C 0.55857 0.59141 0.85264 0.0
C329 C 0.54167 0.61817 0.84013 0.0
C330 C 0.5171 0.62197 0.86353 0.0
C331 C 0.5094 0.59925 0.89799 0.0
H332 H 0.92814 0.12235 0.17718 0.0
H333 H 0.94542 0.21313 0.25291 0.0
H334 H 0.94186 0.08936 0.24488 0.0
H335 H 0.95916 0.17995 0.32109 0.0
H336 H 0.01215 0.10301 0.40617 0.0
H337 H 0.99742 0.13871 0.34149 0.0
H338 H 0.92443 0.07958 0.3264 0.0
H339 H 0.93895 0.04402 0.39088 0.0
C340 C 0.93495 0.13521 0.20834 0.0
C341 C 0.93583 0.17025 0.20984 0.0
C342 C 0.94259 0.11636 0.24716 0.0
C343 C 0.95152 0.13214 0.28817 0.0
C344 C 0.95248 0.16721 0.28975 0.0
C345 C 0.94447 0.18614 0.25099 0.0
C346 C 0.99293 0.09772 0.38912 0.0
C347 C 0.97678 0.07059 0.40346 0.0
C348 C 0.98445 0.11826 0.35235 0.0
C349 C 0.95985 0.11178 0.32893 0.0
C350 C 0.9436 0.08492 0.3436 0.0
C351 C 0.9519 0.06465 0.38062 0.0
H352 H 0.43016 0.37786 0.68097 0.0
H353 H 0.44552 0.28907 0.76251 0.0
H354 H 0.44217 0.41254 0.74779 0.0
H355 H 0.45752 0.32395 0.82985 0.0
H356 H 0.51023 0.40299 0.91216 0.0
H357 H 0.49566 0.36555 0.84956 0.0
H358 H 0.42395 0.42465 0.82761 0.0
H359 H 0.43837 0.46208 0.89011 0.0
C360 C 0.43612 0.3658 0.71329 0.0
C361 C 0.43708 0.33083 0.71661 0.0
C362 C 0.44276 0.38562 0.75158 0.0
C363 C 0.45074 0.3709 0.79393 0.0
C364 C 0.45157 0.33589 0.79746 0.0
C365 C 0.44456 0.31599 0.75917 0.0
C366 C 0.49131 0.40793 0.89408 0.0
C367 C 0.47553 0.43562 0.90585 0.0
C368 C 0.4829 0.38636 0.85852 0.0
C369 C 0.45873 0.39228 0.83377 0.0
C370 C 0.44279 0.41969 0.84592 0.0
C371 C 0.45103 0.44105 0.88176 0.0
H372 H 0.54032 0.64036 0.34713 0.0
H373 H 0.58865 0.70186 0.25547 0.0
H374 H 0.52652 0.60585 0.28143 0.0
H375 H 0.57572 0.66594 0.1902 0.0
H376 H 0.56953 0.56386 0.1069 0.0
H377 H 0.583 0.60178 0.16994 0.0
H378 H 0.49909 0.61582 0.20382 0.0
H379 H 0.48552 0.57847 0.14061 0.0
C380 C 0.5478 0.64686 0.31302 0.0
C381 C 0.5655 0.6742 0.30677 0.0
C382 C 0.54001 0.62685 0.27547 0.0
C383 C 0.5501 0.6333 0.23094 0.0
C384 C 0.56788 0.66035 0.2244 0.0
C385 C 0.57533 0.68079 0.26186 0.0
C386 C 0.55399 0.57513 0.12775 0.0
C387 C 0.52649 0.56815 0.11895 0.0
C388 C 0.56169 0.59692 0.16354 0.0
C389 C 0.54205 0.61158 0.19159 0.0
C390 C 0.51459 0.60465 0.18276 0.0
C391 C 0.50687 0.58338 0.14654 0.0
H392 H 0.89869 0.1834 0.76181 0.0
H393 H 0.98229 0.19165 0.80642 0.0
H394 H 0.91217 0.14982 0.69581 0.0
H395 H 0.99556 0.15631 0.74226 0.0
H396 H 0.01462 0.10885 0.60433 0.0
H397 H 0.00076 0.15037 0.66088 0.0
H398 H 0.92702 0.09435 0.68442 0.0
H399 H 0.94041 0.05369 0.62675 0.0
C400 C 0.91999 0.17844 0.75726 0.0
C401 C 0.93936 0.19001 0.78975 0.0
C402 C 0.92768 0.1587 0.71977 0.0
C403 C 0.95491 0.14984 0.71403 0.0
C404 C 0.97442 0.16271 0.74532 0.0
C405 C 0.96676 0.18267 0.78255 0.0
C406 C 0.99541 0.10551 0.62151 0.0
C407 C 0.97866 0.07792 0.61118 0.0
C408 C 0.98749 0.12925 0.65406 0.0
C409 C 0.96275 0.12579 0.6773 0.0
C410 C 0.94596 0.09825 0.66662 0.0
C411 C 0.95376 0.07471 0.63381 0.0
H412 H 0.44777 0.28363 0.25534 0.0
H413 H 0.43159 0.37197 0.33558 0.0
H414 H 0.45935 0.31893 0.18816 0.0
H415 H 0.44298 0.407 0.26894 0.0
H416 H 0.43789 0.45679 0.12659 0.0
H417 H 0.42389 0.41813 0.18765 0.0
H418 H 0.4974 0.3623 0.17076 0.0
H419 H 0.5116 0.40108 0.10961 0.0
C420 C 0.44654 0.31053 0.25839 0.0
C421 C 0.43898 0.32517 0.30053 0.0
C422 C 0.45327 0.33065 0.22023 0.0
C423 C 0.452 0.36563 0.22348 0.0
C424 C 0.44391 0.38011 0.26539 0.0
C425 C 0.4376 0.36011 0.30356 0.0
C426 C 0.45102 0.43619 0.13566 0.0
C427 C 0.47596 0.43214 0.11355 0.0
C428 C 0.44302 0.41413 0.17066 0.0
C429 C 0.45961 0.38734 0.18391 0.0
C430 C 0.48416 0.38264 0.16092 0.0
C431 C 0.49235 0.40497 0.12623 0.0
H432 H 0.10446 0.867 0.81058 0.0
H433 H 0.03129 0.80829 0.79671 0.0
H434 H 0.09006 0.9022 0.74584 0.0
H435 H 0.01727 0.8423 0.73006 0.0
H436 H 0.98632 0.9311 0.64608 0.0
H437 H 0.00075 0.89471 0.70954 0.0
H438 H 0.08379 0.90562 0.66588 0.0
H439 H 0.06935 0.94353 0.6042 0.0
C440 C 0.08547 0.86132 0.79296 0.0
C441 C 0.06898 0.83498 0.80844 0.0
C442 C 0.07723 0.88138 0.75565 0.0
C443 C 0.05247 0.87519 0.73237 0.0
C444 C 0.0362 0.84831 0.74755 0.0
C445 C 0.04426 0.82863 0.78549 0.0
C446 C 0.00765 0.92569 0.65016 0.0
C447 C 0.02673 0.94031 0.62042 0.0
C448 C 0.01596 0.90458 0.68635 0.0
C449 C 0.04351 0.89709 0.69311 0.0
C450 C 0.06249 0.9113 0.66258 0.0
C451 C 0.05422 0.93291 0.62697 0.0
loop_
_geom_bond_atom_site_label_1
_geom_bond_atom_site_label_2
_geom_bond_distance
_geom_bond_site_symmetry_2
_ccdc_geom_bond_type
C0 C1 1.384 . S
C0 H13 0.947 . S
C0 C35 1.382 . S
C1 C0 1.384 . S
C1 C2 1.378 . S
C2 C1 1.378 . S
C2 C3 1.378 . S
C2 H14 0.952 . S
C3 C2 1.378 . S
C3 H15 0.950 . S
C3 C34 1.383 . S
H4 C23 0.947 . S
H5 C24 0.946 . S
H6 C26 0.953 . S
H7 C27 0.945 . S
H8 C29 0.952 . S
H9 C30 0.949 . S
H10 C32 0.950 . S
H11 C33 0.948 . S
H12 C35 0.951 . S
H13 C0 0.947 . S
H14 C2 0.952 . S
H15 C3 0.950 . S
N16 C19 1.382 . S
N16 C21 1.363 . S
N17 C19 1.371 1_556 S
N17 C20 1.372 . S
N18 C20 1.361 1_554 S
N18 C21 1.377 . S
C19 N16 1.382 . S
C19 N17 1.371 1_554 S
C19 C22 1.480 . S
C20 N17 1.372 . S
C20 N18 1.361 1_556 S
C20 C28 1.457 . S
C21 N16 1.363 . S
C21 N18 1.377 . S
C21 C34 1.479 . S
C22 C19 1.480 . S
C22 C23 1.383 . S
C22 C27 1.385 1_554 S
C23 H4 0.947 . S
C23 C22 1.383 . S
C23 C24 1.388 . S
C24 H5 0.946 . S
C24 C23 1.388 . S
C24 C25 1.384 . S
C25 C24 1.384 . S
C25 C26 1.377 1_554 S
C26 H6 0.953 . S
C26 C25 1.377 1_556 S
C26 C27 1.369 . S
C27 H7 0.945 . S
C27 C22 1.385 1_556 S
C27 C26 1.369 . S
C28 C20 1.457 . S
C28 C29 1.372 . S
C28 C33 1.364 . S
C29 H8 0.952 . S
C29 C28 1.372 . S
C29 C30 1.389 . S
C30 H9 0.949 . S
C30 C29 1.389 . S
C30 C31 1.387 . S
C31 C30 1.387 . S
C31 C32 1.372 . S
C32 H10 0.950 . S
C32 C31 1.372 . S
C32 C33 1.379 . S
C33 H11 0.948 . S
C33 C28 1.364 . S
C33 C32 1.379 . S
C34 C3 1.383 . S
C34 C21 1.479 . S
C34 C35 1.398 . S
C35 C0 1.382 . S
C35 H12 0.951 . S
C35 C34 1.398 . S
C36 C37 1.384 . S
C36 H49 0.947 . S
C36 C71 1.382 . S
C37 C36 1.384 . S
C37 C38 1.378 . S
C38 C37 1.378 . S
C38 C39 1.378 . S
C38 H50 0.952 . S
C39 C38 1.378 . S
C39 H51 0.950 . S
C39 C70 1.383 . S
H40 C59 0.947 . S
H41 C60 0.946 . S
H42 C62 0.953 . S
H43 C63 0.945 . S
H44 C65 0.952 . S
H45 C66 0.949 . S
H46 C68 0.950 . S
H47 C69 0.948 . S
H48 C71 0.951 . S
H49 C36 0.947 . S
H50 C38 0.952 . S
H51 C39 0.950 . S
N52 C55 1.382 . S
N52 C57 1.363 . S
N53 C55 1.371 . S
N53 C56 1.372 . S
N54 C56 1.361 . S
N54 C57 1.377 . S
C55 N52 1.382 . S
C55 N53 1.371 . S
C55 C58 1.480 . S
C56 N53 1.372 . S
C56 N54 1.361 . S
C56 C64 1.457 . S
C57 N52 1.363 . S
C57 N54 1.377 . S
C57 C70 1.479 . S
C58 C55 1.480 . S
C58 C59 1.383 . S
C58 C63 1.385 . S
C59 H40 0.947 . S
C59 C58 1.383 . S
C59 C60 1.388 . S
C60 H41 0.946 . S
C60 C59 1.388 . S
C60 C61 1.384 . S
C61 C60 1.384 . S
C61 C62 1.377 . S
C62 H42 0.953 . S
C62 C61 1.377 . S
C62 C63 1.369 . S
C63 H43 0.945 . S
C63 C58 1.385 . S
C63 C62 1.369 . S
C64 C56 1.457 . S
C64 C65 1.372 . S
C64 C69 1.364 . S
C65 H44 0.952 . S
C65 C64 1.372 . S
C65 C66 1.389 . S
C66 H45 0.949 . S
C66 C65 1.389 . S
C66 C67 1.387 . S
C67 C66 1.387 . S
C67 C68 1.372 . S
C68 H46 0.950 . S
C68 C67 1.372 . S
C68 C69 1.379 . S
C69 H47 0.948 . S
C69 C64 1.364 . S
C69 C68 1.379 . S
C70 C39 1.383 . S
C70 C57 1.479 . S
C70 C71 1.398 . S
C71 C36 1.382 . S
C71 H48 0.951 . S
C71 C70 1.398 . S
C72 C73 1.384 . S
C72 H85 0.947 . S
C72 C107 1.382 . S
C73 C72 1.384 . S
C73 C74 1.378 . S
C74 C73 1.378 . S
C74 C75 1.378 . S
C74 H86 0.952 . S
C75 C74 1.378 . S
C75 H87 0.950 . S
C75 C106 1.383 . S
H76 C95 0.947 . S
H77 C96 0.946 . S
H78 C98 0.953 . S
H79 C99 0.945 . S
H80 C101 0.952 . S
H81 C102 0.949 . S
H82 C104 0.950 . S
H83 C105 0.948 . S
H84 C107 0.951 . S
H85 C72 0.947 . S
H86 C74 0.952 . S
H87 C75 0.950 . S
N88 C91 1.382 1_556 S
N88 C93 1.363 . S
N89 C91 1.371 . S
N89 C92 1.372 . S
N90 C92 1.361 . S
N90 C93 1.377 1_554 S
C91 N88 1.382 1_554 S
C91 N89 1.371 . S
C91 C94 1.480 . S
C92 N89 1.372 . S
C92 N90 1.361 . S
C92 C100 1.457 . S
C93 N88 1.363 . S
C93 N90 1.377 1_556 S
C93 C106 1.479 . S
C94 C91 1.480 . S
C94 C95 1.383 1_554 S
C94 C99 1.385 . S
C95 H76 0.947 . S
C95 C94 1.383 1_556 S
C95 C96 1.388 . S
C96 H77 0.946 . S
C96 C95 1.388 . S
C96 C97 1.384 1_556 S
C97 C96 1.384 1_554 S
C97 C98 1.377 . S
C98 H78 0.953 . S
C98 C97 1.377 . S
C98 C99 1.369 . S
C99 H79 0.945 . S
C99 C94 1.385 . S
C99 C98 1.369 . S
C100 C92 1.457 . S
C100 C101 1.372 . S
C100 C105 1.364 . S
C101 H80 0.952 . S
C101 C100 1.372 . S
C101 C102 1.389 . S
C102 H81 0.949 . S
C102 C101 1.389 . S
C102 C103 1.387 . S
C103 C102 1.387 . S
C103 C104 1.372 . S
C104 H82 0.950 . S
C104 C103 1.372 . S
C104 C105 1.379 . S
C105 H83 0.948 . S
C105 C100 1.364 . S
C105 C104 1.379 . S
C106 C75 1.383 . S
C106 C93 1.479 . S
C106 C107 1.398 . S
C107 C72 1.382 . S
C107 H84 0.951 . S
C107 C106 1.398 . S
C108 C109 1.384 . S
C108 H121 0.947 . S
C108 C143 1.382 . S
C109 C108 1.384 . S
C109 C110 1.378 . S
C110 C109 1.378 . S
C110 C111 1.378 . S
C110 H122 0.952 . S
C111 C110 1.378 . S
C111 H123 0.950 . S
C111 C142 1.383 . S
H112 C131 0.947 . S
H113 C132 0.946 . S
H114 C134 0.953 . S
H115 C135 0.945 . S
H116 C137 0.952 . S
H117 C138 0.949 . S
H118 C140 0.950 . S
H119 C141 0.948 . S
H120 C143 0.951 . S
H121 C108 0.947 . S
H122 C110 0.952 . S
H123 C111 0.950 . S
N124 C127 1.382 . S
N124 C129 1.363 . S
N125 C127 1.371 . S
N125 C128 1.372 . S
N126 C128 1.361 . S
N126 C129 1.377 . S
C127 N124 1.382 . S
C127 N125 1.371 . S
C127 C130 1.480 . S
C128 N125 1.372 . S
C128 N126 1.361 . S
C128 C136 1.457 . S
C129 N124 1.363 . S
C129 N126 1.377 . S
C129 C142 1.479 . S
C130 C127 1.480 . S
C130 C131 1.383 . S
C130 C135 1.385 . S
C131 H112 0.947 . S
C131 C130 1.383 . S
C131 C132 1.388 . S
C132 H113 0.946 . S
C132 C131 1.388 . S
C132 C133 1.384 . S
C133 C132 1.384 . S
C133 C134 1.377 . S
C134 H114 0.953 . S
C134 C133 1.377 . S
C134 C135 1.369 . S
C135 H115 0.945 . S
C135 C130 1.385 . S
C135 C134 1.369 . S
C136 C128 1.457 . S
C136 C137 1.372 . S
C136 C141 1.364 . S
C137 H116 0.952 . S
C137 C136 1.372 . S
C137 C138 1.389 . S
C138 H117 0.949 . S
C138 C137 1.389 . S
C138 C139 1.387 . S
C139 C138 1.387 . S
C139 C140 1.372 . S
C140 H118 0.950 . S
C140 C139 1.372 . S
C140 C141 1.379 . S
C141 H119 0.948 . S
C141 C136 1.364 . S
C141 C140 1.379 . S
C142 C111 1.383 . S
C142 C129 1.479 . S
C142 C143 1.398 . S
C143 C108 1.382 . S
C143 H120 0.951 . S
C143 C142 1.398 . S
C144 O160 1.251 . S
C144 O162 1.254 1_455 S
N145 C146 1.333 . S
N145 C150 1.307 . S
N145 Zn151 2.020 . S
C146 N145 1.333 . S
C146 C147 1.379 . S
C146 H164 0.952 . S
C147 C146 1.379 . S
C147 C148 1.390 . S
C147 H174 0.949 . S
C148 C147 1.390 . S
C148 C149 1.357 . S
C149 C148 1.357 . S
C149 C150 1.370 . S
C149 H175 0.950 . S
C150 N145 1.307 . S
C150 C149 1.370 . S
C150 H168 0.948 . S
Zn151 N145 2.020 . S
Zn151 O160 2.039 1_545 S
Zn151 O166 2.034 1_545 S
Zn151 O170 2.025 . S
Zn151 O172 2.024 . S
C152 O171 1.246 . S
C152 O172 1.249 1_655 S
N153 C154 1.307 . S
N153 C155 1.333 . S
N153 Zn159 2.020 . S
C154 N153 1.307 . S
C154 C158 1.370 . S
C154 H165 0.948 . S
C155 N153 1.333 . S
C155 C156 1.379 . S
C155 H163 0.972 . S
C156 C155 1.379 . S
C156 C157 1.390 . S
C156 H176 0.949 . S
C157 C156 1.390 . S
C157 C158 1.357 . S
C158 C154 1.370 . S
C158 C157 1.357 . S
C158 H177 0.950 . S
Zn159 N153 2.020 . S
Zn159 O162 2.025 . S
Zn159 O167 2.024 . S
Zn159 O169 2.039 1_565 S
Zn159 O171 2.034 1_565 S
O160 C144 1.251 . S
O160 Zn151 2.039 1_565 S
C161 O166 1.246 . S
C161 O167 1.249 1_455 S
O162 C144 1.254 1_655 S
O162 Zn159 2.025 . S
H163 C155 0.972 . S
H164 C146 0.952 . S
H165 C154 0.948 . S
O166 Zn151 2.034 1_565 S
O166 C161 1.246 . S
O167 Zn159 2.024 . S
O167 C161 1.249 1_655 S
H168 C150 0.948 . S
O169 Zn159 2.039 1_545 S
O169 C173 1.251 . S
O170 Zn151 2.025 . S
O170 C173 1.254 1_455 S
O171 C152 1.246 . S
O171 Zn159 2.034 1_545 S
O172 Zn151 2.024 . S
O172 C152 1.249 1_455 S
C173 O169 1.251 . S
C173 O170 1.254 1_655 S
H174 C147 0.949 . S
H175 C149 0.950 . S
H176 C156 0.949 . S
H177 C158 0.950 . S
C178 O194 1.251 . S
C178 O196 1.254 . S
N179 C180 1.333 . S
N179 C184 1.307 . S
N179 Zn185 2.020 . S
C180 N179 1.333 . S
C180 C181 1.379 1_554 S
C180 H198 0.952 1_554 S
C181 C180 1.379 1_556 S
C181 C182 1.389 1_556 S
C181 H208 0.950 . S
C182 C181 1.389 1_554 S
C182 C183 1.357 . S
C183 C182 1.357 . S
C183 C184 1.370 . S
C183 H209 0.950 . S
C184 N179 1.307 . S
C184 C183 1.370 . S
C184 H202 0.948 . S
Zn185 N179 2.020 . S
Zn185 O194 2.039 1_554 S
Zn185 O200 2.034 . S
Zn185 O204 2.025 . S
Zn185 O206 2.024 1_554 S
C186 O205 1.246 . S
C186 O206 1.249 . S
N187 C188 1.307 . S
N187 C189 1.333 . S
N187 Zn193 2.020 . S
C188 N187 1.307 . S
C188 C192 1.370 . S
C188 H199 0.948 1_554 S
C189 N187 1.333 . S
C189 C190 1.379 . S
C189 H197 0.952 . S
C190 C189 1.379 . S
C190 C191 1.390 . S
C190 H210 0.949 . S
C191 C190 1.390 . S
C191 C192 1.357 . S
C192 C188 1.370 . S
C192 C191 1.357 . S
C192 H211 0.950 1_554 S
Zn193 N187 2.020 . S
Zn193 O196 2.025 1_554 S
Zn193 O201 2.024 . S
Zn193 O203 2.039 . S
Zn193 O205 2.034 1_554 S
O194 C178 1.251 . S
O194 Zn185 2.039 1_556 S
C195 O200 1.246 . S
C195 O201 1.249 . S
O196 C178 1.254 . S
O196 Zn193 2.025 1_556 S
H197 C189 0.952 . S
H198 C180 0.952 1_556 S
H199 C188 0.948 1_556 S
O200 Zn185 2.034 . S
O200 C195 1.246 . S
O201 Zn193 2.024 . S
O201 C195 1.249 . S
H202 C184 0.948 . S
O203 Zn193 2.039 . S
O203 C207 1.251 . S
O204 Zn185 2.025 . S
O204 C207 1.254 . S
O205 C186 1.246 . S
O205 Zn193 2.034 1_556 S
O206 Zn185 2.024 1_556 S
O206 C186 1.249 . S
C207 O203 1.251 . S
C207 O204 1.254 . S
H208 C181 0.950 . S
H209 C183 0.950 . S
H210 C190 0.949 . S
H211 C192 0.950 1_556 S
H212 C220 0.950 . S
H213 C225 0.950 . S
H214 C222 0.950 . S
H215 C224 0.950 . S
H216 C226 0.950 . S
H217 C228 0.950 . S
H218 C230 0.950 . S
H219 C231 0.950 . S
C220 H212 0.950 . S
C220 C221 1.386 . S
C220 C222 1.391 . S
C221 C220 1.386 . S
C221 C225 1.393 . S
C222 H214 0.950 . S
C222 C220 1.391 . S
C222 C223 1.400 . S
C223 C222 1.400 . S
C223 C224 1.398 . S
C223 C229 1.491 . S
C224 H215 0.950 . S
C224 C223 1.398 . S
C224 C225 1.391 . S
C225 H213 0.950 . S
C225 C221 1.393 . S
C225 C224 1.391 . S
C226 H216 0.950 . S
C226 C227 1.386 . S
C226 C228 1.391 . S
C227 C226 1.386 . S
C227 C231 1.393 . S
C228 H217 0.950 . S
C228 C226 1.391 . S
C228 C229 1.400 . S
C229 C223 1.491 . S
C229 C228 1.400 . S
C229 C230 1.398 . S
C230 H218 0.950 . S
C230 C229 1.398 . S
C230 C231 1.391 . S
C231 H219 0.950 . S
C231 C227 1.393 . S
C231 C230 1.391 . S
H232 C240 0.950 . S
H233 C245 0.950 . S
H234 C242 0.950 . S
H235 C244 0.950 . S
H236 C246 0.950 . S
H237 C248 0.950 . S
H238 C250 0.950 . S
H239 C251 0.950 . S
C240 H232 0.950 . S
C240 C241 1.386 1_556 S
C240 C242 1.391 . S
C241 C240 1.386 1_554 S
C241 C245 1.393 . S
C242 H234 0.950 . S
C242 C240 1.391 . S
C242 C243 1.400 1_556 S
C243 C242 1.400 1_554 S
C243 C244 1.398 . S
C243 C249 1.491 . S
C244 H235 0.950 . S
C244 C243 1.398 . S
C244 C245 1.391 . S
C245 H233 0.950 . S
C245 C241 1.393 . S
C245 C244 1.391 . S
C246 H236 0.950 . S
C246 C247 1.386 . S
C246 C248 1.391 . S
C247 C246 1.386 . S
C247 C251 1.393 1_554 S
C248 H237 0.950 . S
C248 C246 1.391 . S
C248 C249 1.400 . S
C249 C243 1.491 . S
C249 C248 1.400 . S
C249 C250 1.398 1_554 S
C250 H238 0.950 . S
C250 C249 1.398 1_556 S
C250 C251 1.391 . S
C251 H239 0.950 . S
C251 C247 1.393 1_556 S
C251 C250 1.391 . S
H252 C260 0.950 . S
H253 C265 0.950 . S
H254 C262 0.950 . S
H255 C264 0.950 . S
H256 C266 0.950 . S
H257 C268 0.950 . S
H258 C270 0.950 . S
H259 C271 0.950 . S
C260 H252 0.950 . S
C260 C261 1.386 . S
C260 C262 1.391 . S
C261 C260 1.386 . S
C261 C265 1.393 . S
C262 H254 0.950 . S
C262 C260 1.391 . S
C262 C263 1.400 . S
C263 C262 1.400 . S
C263 C264 1.398 . S
C263 C269 1.491 . S
C264 H255 0.950 . S
C264 C263 1.398 . S
C264 C265 1.391 . S
C265 H253 0.950 . S
C265 C261 1.393 . S
C265 C264 1.391 . S
C266 H256 0.950 . S
C266 C267 1.386 . S
C266 C268 1.391 . S
C267 C266 1.386 . S
C267 C271 1.393 . S
C268 H257 0.950 . S
C268 C266 1.391 . S
C268 C269 1.400 . S
C269 C263 1.491 . S
C269 C268 1.400 . S
C269 C270 1.398 . S
C270 H258 0.950 . S
C270 C269 1.398 . S
C270 C271 1.391 . S
C271 H259 0.950 . S
C271 C267 1.393 . S
C271 C270 1.391 . S
H272 C280 0.950 . S
H273 C285 0.950 . S
H274 C282 0.950 . S
H275 C284 0.950 . S
H276 C286 0.950 . S
H277 C288 0.950 . S
H278 C290 0.950 . S
H279 C291 0.950 . S
C280 H272 0.950 . S
C280 C281 1.386 1_556 S
C280 C282 1.391 . S
C281 C280 1.386 1_554 S
C281 C285 1.393 . S
C282 H274 0.950 . S
C282 C280 1.391 . S
C282 C283 1.400 1_556 S
C283 C282 1.400 1_554 S
C283 C284 1.398 . S
C283 C289 1.491 . S
C284 H275 0.950 . S
C284 C283 1.398 . S
C284 C285 1.391 . S
C285 H273 0.950 . S
C285 C281 1.393 . S
C285 C284 1.391 . S
C286 H276 0.950 . S
C286 C287 1.386 . S
C286 C288 1.391 . S
C287 C286 1.386 . S
C287 C291 1.393 1_554 S
C288 H277 0.950 . S
C288 C286 1.391 . S
C288 C289 1.400 . S
C289 C283 1.491 . S
C289 C288 1.400 . S
C289 C290 1.398 1_554 S
C290 H278 0.950 . S
C290 C289 1.398 1_556 S
C290 C291 1.391 . S
C291 H279 0.950 . S
C291 C287 1.393 1_556 S
C291 C290 1.391 . S
H292 C300 0.950 . S
H293 C305 0.950 . S
H294 C302 0.950 . S
H295 C304 0.950 . S
H296 C306 0.950 . S
H297 C308 0.950 . S
H298 C310 0.950 . S
H299 C311 0.950 . S
C300 H292 0.950 . S
C300 C301 1.386 . S
C300 C302 1.391 . S
C301 C300 1.386 . S
C301 C305 1.393 . S
C302 H294 0.950 . S
C302 C300 1.391 . S
C302 C303 1.400 . S
C303 C302 1.400 . S
C303 C304 1.398 . S
C303 C309 1.491 . S
C304 H295 0.950 . S
C304 C303 1.398 . S
C304 C305 1.391 . S
C305 H293 0.950 . S
C305 C301 1.393 . S
C305 C304 1.391 . S
C306 H296 0.950 . S
C306 C307 1.386 . S
C306 C308 1.391 . S
C307 C306 1.386 . S
C307 C311 1.393 . S
C308 H297 0.950 . S
C308 C306 1.391 . S
C308 C309 1.400 . S
C309 C303 1.491 . S
C309 C308 1.400 . S
C309 C310 1.398 . S
C310 H298 0.950 . S
C310 C309 1.398 . S
C310 C311 1.391 . S
C311 H299 0.950 . S
C311 C307 1.393 . S
C311 C310 1.391 . S
H312 C320 0.950 . S
H313 C325 0.950 . S
H314 C322 0.950 . S
H315 C324 0.950 . S
H316 C326 0.950 . S
H317 C328 0.950 . S
H318 C330 0.950 . S
H319 C331 0.950 . S
C320 H312 0.950 . S
C320 C321 1.386 . S
C320 C322 1.391 . S
C321 C320 1.386 . S
C321 C325 1.393 . S
C322 H314 0.950 . S
C322 C320 1.391 . S
C322 C323 1.400 . S
C323 C322 1.400 . S
C323 C324 1.398 . S
C323 C329 1.491 . S
C324 H315 0.950 . S
C324 C323 1.398 . S
C324 C325 1.391 . S
C325 H313 0.950 . S
C325 C321 1.393 . S
C325 C324 1.391 . S
C326 H316 0.950 . S
C326 C327 1.386 . S
C326 C328 1.391 . S
C327 C326 1.386 . S
C327 C331 1.393 . S
C328 H317 0.950 . S
C328 C326 1.391 . S
C328 C329 1.400 . S
C329 C323 1.491 . S
C329 C328 1.400 . S
C329 C330 1.398 . S
C330 H318 0.950 . S
C330 C329 1.398 . S
C330 C331 1.391 . S
C331 H319 0.950 . S
C331 C327 1.393 . S
C331 C330 1.391 . S
H332 C340 0.950 . S
H333 C345 0.950 . S
H334 C342 0.950 . S
H335 C344 0.950 . S
H336 C346 0.950 . S
H337 C348 0.950 . S
H338 C350 0.950 . S
H339 C351 0.950 . S
C340 H332 0.950 . S
C340 C341 1.386 . S
C340 C342 1.391 . S
C341 C340 1.386 . S
C341 C345 1.393 . S
C342 H334 0.950 . S
C342 C340 1.391 . S
C342 C343 1.400 . S
C343 C342 1.400 . S
C343 C344 1.398 . S
C343 C349 1.491 . S
C344 H335 0.950 . S
C344 C343 1.398 . S
C344 C345 1.391 . S
C345 H333 0.950 . S
C345 C341 1.393 . S
C345 C344 1.391 . S
C346 H336 0.950 . S
C346 C347 1.386 . S
C346 C348 1.391 . S
C347 C346 1.386 . S
C347 C351 1.393 . S
C348 H337 0.950 . S
C348 C346 1.391 . S
C348 C349 1.400 . S
C349 C343 1.491 . S
C349 C348 1.400 . S
C349 C350 1.398 . S
C350 H338 0.950 . S
C350 C349 1.398 . S
C350 C351 1.391 . S
C351 H339 0.950 . S
C351 C347 1.393 . S
C351 C350 1.391 . S
H352 C360 0.950 . S
H353 C365 0.950 . S
H354 C362 0.950 . S
H355 C364 0.950 . S
H356 C366 0.950 . S
H357 C368 0.950 . S
H358 C370 0.950 . S
H359 C371 0.950 . S
C360 H352 0.950 . S
C360 C361 1.386 . S
C360 C362 1.391 . S
C361 C360 1.386 . S
C361 C365 1.393 . S
C362 H354 0.950 . S
C362 C360 1.391 . S
C362 C363 1.400 . S
C363 C362 1.400 . S
C363 C364 1.398 . S
C363 C369 1.491 . S
C364 H355 0.950 . S
C364 C363 1.398 . S
C364 C365 1.391 . S
C365 H353 0.950 . S
C365 C361 1.393 . S
C365 C364 1.391 . S
C366 H356 0.950 . S
C366 C367 1.386 . S
C366 C368 1.391 . S
C367 C366 1.386 . S
C367 C371 1.393 . S
C368 H357 0.950 . S
C368 C366 1.391 . S
C368 C369 1.400 . S
C369 C363 1.491 . S
C369 C368 1.400 . S
C369 C370 1.398 . S
C370 H358 0.950 . S
C370 C369 1.398 . S
C370 C371 1.391 . S
C371 H359 0.950 . S
C371 C367 1.393 . S
C371 C370 1.391 . S
H372 C380 0.950 . S
H373 C385 0.950 . S
H374 C382 0.950 . S
H375 C384 0.950 . S
H376 C386 0.950 . S
H377 C388 0.950 . S
H378 C390 0.950 . S
H379 C391 0.950 . S
C380 H372 0.950 . S
C380 C381 1.386 . S
C380 C382 1.391 . S
C381 C380 1.386 . S
C381 C385 1.393 . S
C382 H374 0.950 . S
C382 C380 1.391 . S
C382 C383 1.400 . S
C383 C382 1.400 . S
C383 C384 1.398 . S
C383 C389 1.491 . S
C384 H375 0.950 . S
C384 C383 1.398 . S
C384 C385 1.391 . S
C385 H373 0.950 . S
C385 C381 1.393 . S
C385 C384 1.391 . S
C386 H376 0.950 . S
C386 C387 1.386 . S
C386 C388 1.391 . S
C387 C386 1.386 . S
C387 C391 1.393 . S
C388 H377 0.950 . S
C388 C386 1.391 . S
C388 C389 1.400 . S
C389 C383 1.491 . S
C389 C388 1.400 . S
C389 C390 1.398 . S
C390 H378 0.950 . S
C390 C389 1.398 . S
C390 C391 1.391 . S
C391 H379 0.950 . S
C391 C387 1.393 . S
C391 C390 1.391 . S
H392 C400 0.950 . S
H393 C405 0.950 . S
H394 C402 0.950 . S
H395 C404 0.950 . S
H396 C406 0.950 1_455 S
H397 C408 0.950 1_455 S
H398 C410 0.950 . S
H399 C411 0.950 . S
C400 H392 0.950 . S
C400 C401 1.386 . S
C400 C402 1.391 . S
C401 C400 1.386 . S
C401 C405 1.393 . S
C402 H394 0.950 . S
C402 C400 1.391 . S
C402 C403 1.400 . S
C403 C402 1.400 . S
C403 C404 1.398 . S
C403 C409 1.491 . S
C404 H395 0.950 . S
C404 C403 1.398 . S
C404 C405 1.391 . S
C405 H393 0.950 . S
C405 C401 1.393 . S
C405 C404 1.391 . S
C406 H396 0.950 1_655 S
C406 C407 1.386 . S
C406 C408 1.391 . S
C407 C406 1.386 . S
C407 C411 1.393 . S
C408 H397 0.950 1_655 S
C408 C406 1.391 . S
C408 C409 1.400 . S
C409 C403 1.491 . S
C409 C408 1.400 . S
C409 C410 1.398 . S
C410 H398 0.950 . S
C410 C409 1.398 . S
C410 C411 1.391 . S
C411 H399 0.950 . S
C411 C407 1.393 . S
C411 C410 1.391 . S
H412 C420 0.950 . S
H413 C425 0.950 . S
H414 C422 0.950 . S
H415 C424 0.950 . S
H416 C426 0.950 . S
H417 C428 0.950 . S
H418 C430 0.950 . S
H419 C431 0.950 . S
C420 H412 0.950 . S
C420 C421 1.386 . S
C420 C422 1.391 . S
C421 C420 1.386 . S
C421 C425 1.393 . S
C422 H414 0.950 . S
C422 C420 1.391 . S
C422 C423 1.400 . S
C423 C422 1.400 . S
C423 C424 1.398 . S
C423 C429 1.491 . S
C424 H415 0.950 . S
C424 C423 1.398 . S
C424 C425 1.391 . S
C425 H413 0.950 . S
C425 C421 1.393 . S
C425 C424 1.391 . S
C426 H416 0.950 . S
C426 C427 1.386 . S
C426 C428 1.391 . S
C427 C426 1.386 . S
C427 C431 1.393 . S
C428 H417 0.950 . S
C428 C426 1.391 . S
C428 C429 1.400 . S
C429 C423 1.491 . S
C429 C428 1.400 . S
C429 C430 1.398 . S
C430 H418 0.950 . S
C430 C429 1.398 . S
C430 C431 1.391 . S
C431 H419 0.950 . S
C431 C427 1.393 . S
C431 C430 1.391 . S
H432 C440 0.950 . S
H433 C445 0.950 . S
H434 C442 0.950 . S
H435 C444 0.950 . S
H436 C446 0.950 . S
H437 C448 0.950 . S
H438 C450 0.950 . S
H439 C451 0.950 . S
C440 H432 0.950 . S
C440 C441 1.386 . S
C440 C442 1.391 . S
C441 C440 1.386 . S
C441 C445 1.393 . S
C442 H434 0.950 . S
C442 C440 1.391 . S
C442 C443 1.400 . S
C443 C442 1.400 . S
C443 C444 1.398 . S
C443 C449 1.491 . S
C444 H435 0.950 . S
C444 C443 1.398 . S
C444 C445 1.391 . S
C445 H433 0.950 . S
C445 C441 1.393 . S
C445 C444 1.391 . S
C446 H436 0.950 . S
C446 C447 1.386 . S
C446 C448 1.391 . S
C447 C446 1.386 . S
C447 C451 1.393 . S
C448 H437 0.950 . S
C448 C446 1.391 . S
C448 C449 1.400 . S
C449 C443 1.491 . S
C449 C448 1.400 . S
C449 C450 1.398 . S
C450 H438 0.950 . S
C450 C449 1.398 . S
C450 C451 1.391 . S
C451 H439 0.950 . S
C451 C447 1.393 . S
C451 C450 1.391 . S
C227 C148 1.648 . S
C221 C133 1.641 . S
C241 C25 1.530 . S
C247 C191 1.566 . S
C261 C61 1.583 . S
C267 C157 1.646 . S
C281 C97 1.568 . S
C287 C182 1.565 . S
C307 C144 1.631 . S
C301 C1 1.580 . S
C327 C186 1.724 . S
C321 C67 1.641 . S
C341 C103 1.614 . S
C347 C152 1.625 . S
C361 C109 1.698 . S
C367 C178 1.721 . S
C387 C207 1.726 . S
C381 C37 1.673 . S
C407 C173 1.636 . S
C401 C73 1.627 . S
C427 C195 1.730 . S
C421 C139 1.709 . S
C441 C31 1.583 . S
C447 C161 1.628 . S
