# Generated by pormake.
# Topology ctn, (3,4)-cn, num edge types: 1
# Building blocks:
#     Node 0, Type 0, BuildingBlock: BETDAH_clean_linker_0, # of connection points: 3
#     Node 1, Type 0, BuildingBlock: BETDAH_clean_linker_0, # of connection points: 3
#     Node 2, Type 0, BuildingBlock: BETDAH_clean_linker_0, # of connection points: 3
#     Node 3, Type 0, BuildingBlock: BETDAH_clean_linker_0, # of connection points: 3
#     Node 4, Type 0, BuildingBlock: BETDAH_clean_linker_0, # of connection points: 3
#     Node 5, Type 0, BuildingBlock: BETDAH_clean_linker_0, # of connection points: 3
#     Node 6, Type 0, BuildingBlock: BETDAH_clean_linker_0, # of connection points: 3
#     Node 7, Type 0, BuildingBlock: BETDAH_clean_linker_0, # of connection points: 3
#     Node 8, Type 0, BuildingBlock: BETDAH_clean_linker_0, # of connection points: 3
#     Node 9, Type 0, BuildingBlock: BETDAH_clean_linker_0, # of connection points: 3
#     Node 10, Type 0, BuildingBlock: BETDAH_clean_linker_0, # of connection points: 3
#     Node 11, Type 0, BuildingBlock: BETDAH_clean_linker_0, # of connection points: 3
#     Node 12, Type 0, BuildingBlock: BETDAH_clean_linker_0, # of connection points: 3
#     Node 13, Type 0, BuildingBlock: BETDAH_clean_linker_0, # of connection points: 3
#     Node 14, Type 0, BuildingBlock: BETDAH_clean_linker_0, # of connection points: 3
#     Node 15, Type 0, BuildingBlock: BETDAH_clean_linker_0, # of connection points: 3
#     Node 16, Type 1, BuildingBlock: NAHDIM_clean_sbu_0, # of connection points: 4
#     Node 17, Type 1, BuildingBlock: NAHDIM_clean_sbu_0, # of connection points: 4
#     Node 18, Type 1, BuildingBlock: NAHDIM_clean_sbu_0, # of connection points: 4
#     Node 19, Type 1, BuildingBlock: NAHDIM_clean_sbu_0, # of connection points: 4
#     Node 20, Type 1, BuildingBlock: NAHDIM_clean_sbu_0, # of connection points: 4
#     Node 21, Type 1, BuildingBlock: NAHDIM_clean_sbu_0, # of connection points: 4
#     Node 22, Type 1, BuildingBlock: NAHDIM_clean_sbu_0, # of connection points: 4
#     Node 23, Type 1, BuildingBlock: NAHDIM_clean_sbu_0, # of connection points: 4
#     Node 24, Type 1, BuildingBlock: NAHDIM_clean_sbu_0, # of connection points: 4
#     Node 25, Type 1, BuildingBlock: NAHDIM_clean_sbu_0, # of connection points: 4
#     Node 26, Type 1, BuildingBlock: NAHDIM_clean_sbu_0, # of connection points: 4
#     Node 27, Type 1, BuildingBlock: NAHDIM_clean_sbu_0, # of connection points: 4
#     Edge 28, Type (0, 1), BuildingBlock: ZUJKAS_clean_linker_0, # of connection points: 2
#     Edge 29, Type (0, 1), BuildingBlock: ZUJKAS_clean_linker_0, # of connection points: 2
#     Edge 30, Type (0, 1), BuildingBlock: ZUJKAS_clean_linker_0, # of connection points: 2
#     Edge 31, Type (0, 1), BuildingBlock: ZUJKAS_clean_linker_0, # of connection points: 2
#     Edge 32, Type (0, 1), BuildingBlock: ZUJKAS_clean_linker_0, # of connection points: 2
#     Edge 33, Type (0, 1), BuildingBlock: ZUJKAS_clean_linker_0, # of connection points: 2
#     Edge 34, Type (0, 1), BuildingBlock: ZUJKAS_clean_linker_0, # of connection points: 2
#     Edge 35, Type (0, 1), BuildingBlock: ZUJKAS_clean_linker_0, # of connection points: 2
#     Edge 36, Type (0, 1), BuildingBlock: ZUJKAS_clean_linker_0, # of connection points: 2
#     Edge 37, Type (0, 1), BuildingBlock: ZUJKAS_clean_linker_0, # of connection points: 2
#     Edge 38, Type (0, 1), BuildingBlock: ZUJKAS_clean_linker_0, # of connection points: 2
#     Edge 39, Type (0, 1), BuildingBlock: ZUJKAS_clean_linker_0, # of connection points: 2
#     Edge 40, Type (0, 1), BuildingBlock: ZUJKAS_clean_linker_0, # of connection points: 2
#     Edge 41, Type (0, 1), BuildingBlock: ZUJKAS_clean_linker_0, # of connection points: 2
#     Edge 42, Type (0, 1), BuildingBlock: ZUJKAS_clean_linker_0, # of connection points: 2
#     Edge 43, Type (0, 1), BuildingBlock: ZUJKAS_clean_linker_0, # of connection points: 2
#     Edge 44, Type (0, 1), BuildingBlock: ZUJKAS_clean_linker_0, # of connection points: 2
#     Edge 45, Type (0, 1), BuildingBlock: ZUJKAS_clean_linker_0, # of connection points: 2
#     Edge 46, Type (0, 1), BuildingBlock: ZUJKAS_clean_linker_0, # of connection points: 2
#     Edge 47, Type (0, 1), BuildingBlock: ZUJKAS_clean_linker_0, # of connection points: 2
#     Edge 48, Type (0, 1), BuildingBlock: ZUJKAS_clean_linker_0, # of connection points: 2
#     Edge 49, Type (0, 1), BuildingBlock: ZUJKAS_clean_linker_0, # of connection points: 2
#     Edge 50, Type (0, 1), BuildingBlock: ZUJKAS_clean_linker_0, # of connection points: 2
#     Edge 51, Type (0, 1), BuildingBlock: ZUJKAS_clean_linker_0, # of connection points: 2
#     Edge 52, Type (0, 1), BuildingBlock: ZUJKAS_clean_linker_0, # of connection points: 2
#     Edge 53, Type (0, 1), BuildingBlock: ZUJKAS_clean_linker_0, # of connection points: 2
#     Edge 54, Type (0, 1), BuildingBlock: ZUJKAS_clean_linker_0, # of connection points: 2
#     Edge 55, Type (0, 1), BuildingBlock: ZUJKAS_clean_linker_0, # of connection points: 2
#     Edge 56, Type (0, 1), BuildingBlock: ZUJKAS_clean_linker_0, # of connection points: 2
#     Edge 57, Type (0, 1), BuildingBlock: ZUJKAS_clean_linker_0, # of connection points: 2
#     Edge 58, Type (0, 1), BuildingBlock: ZUJKAS_clean_linker_0, # of connection points: 2
#     Edge 59, Type (0, 1), BuildingBlock: ZUJKAS_clean_linker_0, # of connection points: 2
#     Edge 60, Type (0, 1), BuildingBlock: ZUJKAS_clean_linker_0, # of connection points: 2
#     Edge 61, Type (0, 1), BuildingBlock: ZUJKAS_clean_linker_0, # of connection points: 2
#     Edge 62, Type (0, 1), BuildingBlock: ZUJKAS_clean_linker_0, # of connection points: 2
#     Edge 63, Type (0, 1), BuildingBlock: ZUJKAS_clean_linker_0, # of connection points: 2
#     Edge 64, Type (0, 1), BuildingBlock: ZUJKAS_clean_linker_0, # of connection points: 2
#     Edge 65, Type (0, 1), BuildingBlock: ZUJKAS_clean_linker_0, # of connection points: 2
#     Edge 66, Type (0, 1), BuildingBlock: ZUJKAS_clean_linker_0, # of connection points: 2
#     Edge 67, Type (0, 1), BuildingBlock: ZUJKAS_clean_linker_0, # of connection points: 2
#     Edge 68, Type (0, 1), BuildingBlock: ZUJKAS_clean_linker_0, # of connection points: 2
#     Edge 69, Type (0, 1), BuildingBlock: ZUJKAS_clean_linker_0, # of connection points: 2
#     Edge 70, Type (0, 1), BuildingBlock: ZUJKAS_clean_linker_0, # of connection points: 2
#     Edge 71, Type (0, 1), BuildingBlock: ZUJKAS_clean_linker_0, # of connection points: 2
#     Edge 72, Type (0, 1), BuildingBlock: ZUJKAS_clean_linker_0, # of connection points: 2
#     Edge 73, Type (0, 1), BuildingBlock: ZUJKAS_clean_linker_0, # of connection points: 2
#     Edge 74, Type (0, 1), BuildingBlock: ZUJKAS_clean_linker_0, # of connection points: 2
#     Edge 75, Type (0, 1), BuildingBlock: ZUJKAS_clean_linker_0, # of connection points: 2
# Relax obj value: 0.048
# Max RMSD: 0.161
# Mean RMSD: 0.102
data_MOF--net-ctn--node1-NAHDIM_clean_sbu_0--node2-BETDAH_clean_linker_0--edge1-ZUJKAS_clean_linker_0
_symmetry_space_group_name_H-M    P1
_symmetry_Int_Tables_number       1
_symmetry_cell_setting            triclinic
loop_
_symmetry_equiv_pos_as_xyz
'x, y, z'
_cell_length_a     70.315227
_cell_length_b     70.591741
_cell_length_c     70.868955
_cell_angle_alpha  99.515653
_cell_angle_beta   90.378931
_cell_angle_gamma 96.602848
loop_
_atom_site_label
_atom_site_type_symbol
_atom_site_fract_x
_atom_site_fract_y
_atom_site_fract_z
_atom_type_partial_charge
H0 H 0.07037 0.03412 0.08583 0.0
H1 H 0.06808 0.04721 0.02855 0.0
H2 H 0.02169 0.05789 0.06633 0.0
C3 C 0.06328 0.03998 0.07485 0.0
C4 C 0.0453 0.04646 0.07848 0.0
C5 C 0.0716 0.03993 0.05681 0.0
C6 C 0.06192 0.04713 0.04252 0.0
C7 C 0.04388 0.05356 0.04604 0.0
C8 C 0.03562 0.05292 0.06384 0.0
N9 N 0.03309 0.05963 0.03166 0.0
C10 C 0.04082 0.0711 0.01882 0.0
H11 H 0.31523 0.69607 0.24341 0.0
H12 H 0.33779 0.73691 0.20779 0.0
H13 H 0.2933 0.69166 0.18592 0.0
C14 C 0.31489 0.70181 0.23016 0.0
C15 C 0.30225 0.69229 0.21528 0.0
C16 C 0.32793 0.71784 0.22766 0.0
C17 C 0.32779 0.72468 0.21007 0.0
C18 C 0.31526 0.71515 0.19508 0.0
C19 C 0.30279 0.69893 0.19768 0.0
N20 N 0.31612 0.72045 0.17668 0.0
C21 C 0.31448 0.73903 0.17332 0.0
H22 H 0.02338 0.4478 0.04311 0.0
H23 H 0.99625 0.5002 0.04986 0.0
H24 H 0.98986 0.46037 0.99681 0.0
C25 C 0.01453 0.45723 0.03742 0.0
C26 C 0.00711 0.45193 0.01862 0.0
C27 C 0.01091 0.47471 0.04882 0.0
C28 C 0.99904 0.48664 0.04134 0.0
C29 C 0.99153 0.4814 0.02249 0.0
C30 C 0.9958 0.46426 0.01128 0.0
N31 N 0.98013 0.49316 0.01393 0.0
C32 C 0.97051 0.50778 0.02367 0.0
H33 H 0.76709 0.82222 0.20488 0.0
H34 H 0.72817 0.78492 0.23313 0.0
H35 H 0.75548 0.8385 0.26446 0.0
C36 C 0.75935 0.8194 0.21749 0.0
C37 C 0.76253 0.83267 0.2346 0.0
C38 C 0.74712 0.80204 0.2168 0.0
C39 C 0.73759 0.79825 0.23345 0.0
C40 C 0.74069 0.8115 0.25063 0.0
C41 C 0.75326 0.82842 0.25112 0.0
N42 N 0.73214 0.80801 0.26797 0.0
C43 C 0.71448 0.79732 0.26925 0.0
H44 H 0.06652 0.00913 0.46416 0.0
H45 H 0.07282 0.9695 0.5033 0.0
H46 H 0.02412 0.96022 0.46446 0.0
C47 C 0.06118 0.99633 0.46998 0.0
C48 C 0.04399 0.9855 0.46261 0.0
C49 C 0.07168 0.99069 0.48464 0.0
C50 C 0.06476 0.97396 0.49205 0.0
C51 C 0.0474 0.9631 0.48484 0.0
C52 C 0.03725 0.96891 0.47016 0.0
N53 N 0.03972 0.94604 0.49158 0.0
C54 C 0.04611 0.93956 0.50771 0.0
H55 H 0.26239 0.71834 0.84206 0.0
H56 H 0.2075 0.72981 0.82193 0.0
H57 H 0.23387 0.68153 0.79328 0.0
C58 C 0.25026 0.71473 0.8321 0.0
C59 C 0.24994 0.69852 0.8176 0.0
C60 C 0.23493 0.72609 0.83396 0.0
C61 C 0.21948 0.72137 0.82058 0.0
C62 C 0.21919 0.70527 0.80589 0.0
C63 C 0.23425 0.69389 0.80468 0.0
N64 N 0.20388 0.69977 0.79223 0.0
C65 C 0.18995 0.71136 0.78892 0.0
H66 H 0.95919 0.55943 0.51609 0.0
H67 H 0.01409 0.56164 0.48917 0.0
H68 H 0.97795 0.50774 0.48474 0.0
C69 C 0.96974 0.55237 0.5073 0.0
C70 C 0.96615 0.53245 0.50038 0.0
C71 C 0.98702 0.56312 0.5035 0.0
C72 C 1.00063 0.55369 0.49213 0.0
C73 C 0.9972 0.53371 0.4853 0.0
C74 C 0.98015 0.52324 0.48963 0.0
N75 N 0.0113 0.52337 0.47553 0.0
C76 C 0.02159 0.52918 0.46041 0.0
H77 H 0.8339 0.75046 0.81713 0.0
H78 H 0.80086 0.7853 0.78798 0.0
H79 H 0.77651 0.7592 0.83412 0.0
C80 C 0.82087 0.75691 0.81543 0.0
C81 C 0.80565 0.75392 0.82779 0.0
C82 C 0.81928 0.76809 0.80084 0.0
C83 C 0.80227 0.77651 0.79896 0.0
C84 C 0.7869 0.77325 0.81103 0.0
C85 C 0.78862 0.76183 0.82511 0.0
N86 N 0.76922 0.78069 0.8091 0.0
C87 C 0.76725 0.79775 0.80233 0.0
H88 H 0.32637 0.26239 0.30883 0.0
H89 H 0.30201 0.30793 0.28675 0.0
H90 H 0.27489 0.2829 0.3324 0.0
C91 C 0.31535 0.27195 0.30901 0.0
C92 C 0.30048 0.27085 0.32207 0.0
C93 C 0.31605 0.28525 0.29614 0.0
C94 C 0.30171 0.29775 0.29666 0.0
C95 C 0.2868 0.29675 0.30973 0.0
C96 C 0.28633 0.28334 0.32224 0.0
N97 N 0.27186 0.3088 0.31089 0.0
C98 C 0.26992 0.32318 0.30003 0.0
H99 H 0.51738 0.95666 0.55663 0.0
H100 H 0.51488 0.01739 0.57577 0.0
H101 H 0.48743 0.98958 0.52255 0.0
C102 C 0.5125 0.9702 0.55456 0.0
C103 C 0.50203 0.97105 0.53777 0.0
C104 C 0.51702 0.98674 0.56855 0.0
C105 C 0.51108 0.00431 0.56545 0.0
C106 C 0.50018 0.00533 0.54917 0.0
C107 C 0.49559 0.98869 0.53533 0.0
N108 N 0.4948 0.02356 0.54681 0.0
C109 C 0.47769 0.02606 0.53817 0.0
H110 H 0.28722 0.32334 0.69321 0.0
H111 H 0.23412 0.29727 0.71276 0.0
H112 H 0.26066 0.35185 0.74275 0.0
C113 C 0.27573 0.32363 0.70333 0.0
C114 C 0.27598 0.33934 0.71837 0.0
C115 C 0.26068 0.30838 0.70112 0.0
C116 C 0.24573 0.30895 0.71429 0.0
C117 C 0.24591 0.32465 0.72942 0.0
C118 C 0.26093 0.33967 0.73125 0.0
N119 N 0.23123 0.32618 0.74304 0.0
C120 C 0.21611 0.31206 0.74456 0.0
H121 H 0.82065 0.18613 0.74537 0.0
H122 H 0.82337 0.23951 0.72286 0.0
H123 H 0.77236 0.19898 0.71443 0.0
C124 C 0.81416 0.19567 0.7374 0.0
C125 C 0.79547 0.19023 0.72989 0.0
C126 C 0.82442 0.21341 0.73496 0.0
C127 C 0.81568 0.22578 0.72476 0.0
C128 C 0.79686 0.22044 0.71729 0.0
C129 C 0.78695 0.20279 0.71997 0.0
N130 N 0.78699 0.23252 0.70755 0.0
C131 C 0.79531 0.24813 0.69966 0.0
H132 H 0.57871 0.54205 0.58492 0.0
H133 H 0.58922 0.54419 0.52559 0.0
H134 H 0.54525 0.5748 0.55386 0.0
C135 C 0.57549 0.54728 0.57185 0.0
C136 C 0.56066 0.55904 0.57145 0.0
C137 C 0.58606 0.54199 0.55547 0.0
C138 C 0.58152 0.54848 0.53851 0.0
C139 C 0.56706 0.56042 0.53785 0.0
C140 C 0.55661 0.56574 0.55436 0.0
N141 N 0.56313 0.56617 0.5201 0.0
C142 C 0.55393 0.58208 0.51785 0.0
H143 H 0.56802 0.51266 0.95849 0.0
H144 H 0.57356 0.47097 0.99564 0.0
H145 H 0.52738 0.46163 0.95392 0.0
C146 C 0.56283 0.49925 0.9633 0.0
C147 C 0.54634 0.48809 0.95453 0.0
C148 C 0.57281 0.49319 0.97808 0.0
C149 C 0.56598 0.47575 0.98427 0.0
C150 C 0.54942 0.46448 0.9756 0.0
C151 C 0.53989 0.47064 0.96073 0.0
N152 N 0.54205 0.44663 0.98099 0.0
C153 C 0.54661 0.44043 0.9979 0.0
H154 H 0.7559 0.21536 0.344 0.0
H155 H 0.70894 0.23515 0.31643 0.0
H156 H 0.73725 0.1885 0.28696 0.0
C157 C 0.74615 0.2141 0.33183 0.0
C158 C 0.74828 0.20033 0.31551 0.0
C159 C 0.73203 0.22678 0.33231 0.0
C160 C 0.71991 0.22552 0.31614 0.0
C161 C 0.72184 0.21165 0.29976 0.0
C162 C 0.73599 0.19923 0.29959 0.0
N163 N 0.7099 0.20962 0.28315 0.0
C164 C 0.69526 0.22077 0.28088 0.0
H165 H 0.45987 0.06028 0.02035 0.0
H166 H 0.51801 0.06275 1.00129 0.0
H167 H 0.48183 0.00875 0.99219 0.0
C168 C 0.47142 0.05312 0.01341 0.0
C169 C 0.46839 0.03321 0.00621 0.0
C170 C 0.48933 0.06391 0.01208 0.0
C171 C 0.50401 0.05481 0.00219 0.0
C172 C 0.50109 0.03494 0.99482 0.0
C173 C 0.4835 0.02423 0.99716 0.0
N174 N 0.51633 0.02497 0.98705 0.0
C175 C 0.526 0.02918 0.97096 0.0
C176 C 0.22997 0.92702 0.0289 0.0
O177 O 0.2408 0.92736 0.01389 0.0
O178 O 0.24832 0.8814 0.00915 0.0
Zn179 Zn 0.25467 0.8992 0.03459 0.0
O180 O 0.27897 0.9171 0.03267 0.0
C181 C 0.26243 0.86626 0.05174 0.0
O182 O 0.26377 0.85852 0.0337 0.0
O183 O 0.23309 0.91569 0.0405 0.0
C184 C 0.29546 0.91234 0.03582 0.0
O185 O 0.29684 0.8953 0.0405 0.0
C186 C 0.26103 0.87716 0.99698 0.0
O187 O 0.27889 0.8846 1.00082 0.0
O188 O 0.25827 0.88353 0.05576 0.0
C189 C 0.1738 0.48041 0.26455 0.0
O190 O 0.17939 0.49737 0.27494 0.0
O191 O 0.12837 0.50532 0.27866 0.0
Zn192 Zn 0.14354 0.50121 0.2544 0.0
O193 O 0.16215 0.52482 0.25297 0.0
C194 C 0.11084 0.50496 0.23055 0.0
O195 O 0.10614 0.51632 0.24599 0.0
O196 O 0.15848 0.47833 0.25438 0.0
C197 C 0.17202 0.52533 0.23807 0.0
O198 O 0.16987 0.51038 0.22415 0.0
C199 C 0.12689 0.52211 0.28793 0.0
O200 O 0.13536 0.53731 0.28157 0.0
O201 O 0.12593 0.49665 0.23097 0.0
C202 C 0.82572 0.63225 0.02616 0.0
O203 O 0.82871 0.65072 0.02492 0.0
O204 O 0.78983 0.65164 0.9977 0.0
Zn205 Zn 0.78577 0.63746 0.02025 0.0
O206 O 0.76254 0.61748 0.0152 0.0
C207 C 0.77573 0.67263 0.04354 0.0
O208 O 0.77314 0.67773 0.02679 0.0
O209 O 0.80869 0.62376 0.02455 0.0
C210 C 0.74583 0.62257 0.01443 0.0
O211 O 0.74387 0.64108 0.01642 0.0
C212 C 0.7977 0.64457 0.98244 0.0
O213 O 0.80352 0.62738 0.9811 0.0
O214 O 0.78134 0.65625 0.04423 0.0
C215 C 0.88826 0.06562 0.29875 0.0
O216 O 0.88894 0.05348 0.31087 0.0
O217 O 0.9308 0.04042 0.30189 0.0
Zn218 Zn 0.91428 0.04142 0.27882 0.0
O219 O 0.89666 0.01653 0.27351 0.0
C220 C 0.94763 0.05126 0.25645 0.0
O221 O 0.95566 0.05883 0.27321 0.0
O222 O 0.89832 0.06358 0.28387 0.0
C223 C 0.88605 0.01223 0.25848 0.0
O224 O 0.88652 0.02441 0.24629 0.0
C225 C 0.94112 0.02667 0.30098 0.0
O226 O 0.94106 0.01427 0.28495 0.0
O227 O 0.93036 0.04346 0.25561 0.0
C228 C 0.31364 0.11406 0.49339 0.0
O229 O 0.30634 0.11281 0.47605 0.0
O230 O 0.28718 0.1515 0.48078 0.0
Zn231 Zn 0.28305 0.13772 0.50368 0.0
O232 O 0.25963 0.11774 0.50026 0.0
C233 C 0.27416 0.17328 0.52755 0.0
O234 O 0.26952 0.17798 0.51109 0.0
O235 O 0.30609 0.124 0.50736 0.0
C236 C 0.24316 0.12223 0.50524 0.0
O237 O 0.24119 0.14038 0.51188 0.0
C238 C 0.27421 0.15209 0.46836 0.0
O239 O 0.25698 0.14324 0.47007 0.0
O240 O 0.28034 0.15707 0.52774 0.0
C241 C 0.39155 0.56689 0.78274 0.0
O242 O 0.3854 0.54876 0.78353 0.0
O243 O 0.44267 0.5467 0.78947 0.0
Zn244 Zn 0.42475 0.54958 0.76798 0.0
O245 O 0.40762 0.52446 0.76075 0.0
C246 C 0.45703 0.5611 0.74488 0.0
O247 O 0.46673 0.56437 0.76123 0.0
O248 O 0.40828 0.571 0.7767 0.0
C249 C 0.41331 0.50941 0.75116 0.0
O250 O 0.43107 0.5101 0.74543 0.0
C251 C 0.43555 0.53958 0.80357 0.0
O252 O 0.41694 0.53477 0.80373 0.0
O253 O 0.43927 0.55506 0.74458 0.0
C254 C 0.73917 0.42256 0.53792 0.0
O255 O 0.75317 0.42783 0.52702 0.0
O256 O 0.75374 0.36974 0.51595 0.0
Zn257 Zn 0.76117 0.39057 0.53877 0.0
O258 O 0.78493 0.40701 0.53258 0.0
C259 C 0.7819 0.36889 0.56063 0.0
O260 O 0.79249 0.36818 0.54538 0.0
O261 O 0.73949 0.40703 0.54478 0.0
C262 C 0.79376 0.41975 0.54541 0.0
O263 O 0.78717 0.42215 0.56284 0.0
C264 C 0.75155 0.37403 0.4994 0.0
O265 O 0.7539 0.39231 0.49735 0.0
O266 O 0.76721 0.37793 0.56131 0.0
C267 C 0.68571 0.96504 0.76767 0.0
O268 O 0.69528 0.98051 0.76279 0.0
O269 O 0.63764 0.99364 0.79281 0.0
Zn270 Zn 0.65364 0.98805 0.76923 0.0
O271 O 0.67231 0.01153 0.7669 0.0
C272 C 0.62339 0.993 0.74382 0.0
O273 O 0.62134 0.0075 0.75759 0.0
O274 O 0.66796 0.96501 0.77107 0.0
C275 C 0.67713 0.01547 0.7506 0.0
O276 O 0.67006 0.00388 0.73509 0.0
C277 C 0.63887 0.01025 0.80326 0.0
O278 O 0.65103 0.02431 0.79883 0.0
O279 O 0.63621 0.9821 0.74573 0.0
C280 C 0.03178 0.21754 0.90464 0.0
O281 O 0.03069 0.2348 0.91456 0.0
O282 O 0.00456 0.23299 0.85542 0.0
Zn283 Zn 0.02858 0.23791 0.87249 0.0
O284 O 0.02721 0.26237 0.89168 0.0
C285 C 0.05186 0.25189 0.84315 0.0
O286 O 0.03689 0.26091 0.84089 0.0
O287 O 0.03091 0.21527 0.88644 0.0
C288 C 0.04102 0.2757 0.89616 0.0
O289 O 0.05769 0.27382 0.88824 0.0
C290 C 0.99481 0.24682 0.85392 0.0
O291 O 1.00029 0.26404 0.86382 0.0
O292 O 0.05167 0.24119 0.85595 0.0
C293 C 0.50125 0.72621 0.41476 0.0
O294 O 0.48357 0.72908 0.41105 0.0
O295 O 0.48936 0.74923 0.37316 0.0
Zn296 Zn 0.51238 0.75636 0.39137 0.0
O297 O 0.51017 0.78177 0.4087 0.0
C298 C 0.53627 0.76233 0.35891 0.0
O299 O 0.52002 0.76485 0.35097 0.0
O300 O 0.51504 0.73589 0.40778 0.0
C301 C 0.5109 0.79762 0.40227 0.0
O302 O 0.51331 0.7975 0.38389 0.0
C303 C 0.47399 0.75708 0.37594 0.0
O304 O 0.47243 0.76943 0.39173 0.0
O305 O 0.5364 0.75878 0.37593 0.0
C306 C 0.03273 0.80299 0.63451 0.0
O307 O 0.04303 0.78846 0.63097 0.0
O308 O 0.99117 0.77916 0.67517 0.0
Zn309 Zn 0.01449 0.77814 0.65854 0.0
O310 O 0.01153 0.75472 0.63749 0.0
C311 C 0.03533 0.7652 0.68777 0.0
O312 O 0.01855 0.75536 0.68932 0.0
O313 O 0.01928 0.80213 0.64636 0.0
C314 C 1.0011 0.73904 0.6387 0.0
O315 O 0.99129 0.73774 0.65424 0.0
C316 C 0.97401 0.77821 0.669 0.0
O317 O 0.97064 0.7767 0.65052 0.0
O318 O 0.03729 0.77629 0.67532 0.0
C319 C 0.51095 0.31043 0.12961 0.0
O320 O 0.49513 0.2986 0.1252 0.0
O321 O 0.49005 0.28892 0.17171 0.0
Zn322 Zn 0.51454 0.28535 0.15713 0.0
O323 O 0.51096 0.261 0.137 0.0
C324 C 0.53418 0.27707 0.19083 0.0
O325 O 0.51681 0.2709 0.19557 0.0
O326 O 0.52161 0.30792 0.14332 0.0
C327 C 0.51807 0.24564 0.13898 0.0
O328 O 0.52777 0.24522 0.15477 0.0
C329 C 0.47795 0.27454 0.1736 0.0
O330 O 0.48138 0.25709 0.1658 0.0
O331 O 0.53648 0.28393 0.17538 0.0
H332 H 0.24697 0.72763 0.87107 0.0
H333 H 0.24801 0.75473 0.89739 0.0
H334 H 0.22299 0.78854 0.86048 0.0
H335 H 0.22288 0.76176 0.83365 0.0
H336 H 0.25242 0.8093 0.88094 0.0
H337 H 0.2052 0.77346 0.92975 0.0
H338 H 0.22469 0.75985 0.92253 0.0
H339 H 0.2073 0.76311 0.90491 0.0
C340 C 0.24183 0.74086 0.86844 0.0
C341 C 0.23491 0.7425 0.85016 0.0
C342 C 0.24213 0.75626 0.88363 0.0
C343 C 0.23519 0.77354 0.88105 0.0
C344 C 0.22824 0.77526 0.86286 0.0
H345 H 0.22529 0.86175 0.98245 0.0
H346 H 0.21743 0.83817 0.9532 0.0
C347 C 0.22807 0.75989 0.84757 0.0
C348 C 0.23616 0.79007 0.89713 0.0
H349 H 0.22565 0.80198 0.94426 0.0
C350 C 0.24634 0.80778 0.89471 0.0
C351 C 0.2279 0.78826 0.915 0.0
C352 C 0.21548 0.7702 0.91814 0.0
C353 C 0.24926 0.8234 0.90992 0.0
C354 C 0.24227 0.82107 0.92818 0.0
C355 C 0.23129 0.80369 0.93035 0.0
C356 C 0.24692 0.83608 0.9454 0.0
C357 C 0.25982 0.84222 0.90621 0.0
C358 C 0.26609 0.84263 0.95084 0.0
C359 C 0.27061 0.85619 0.96741 0.0
C360 C 0.25605 0.86327 0.9791 0.0
C361 C 0.23684 0.85661 0.97374 0.0
C362 C 0.23232 0.84313 0.95703 0.0
H363 H 0.25824 0.84384 0.89096 0.0
H364 H 0.25458 0.85483 0.91532 0.0
H365 H 0.27531 0.84241 0.90942 0.0
H366 H 0.27763 0.83698 0.94245 0.0
H367 H 0.28555 0.86085 0.97121 0.0
H368 H 0.03002 0.50006 0.43409 0.0
H369 H 0.04768 0.50211 0.40469 0.0
H370 H 0.05406 0.56443 0.41852 0.0
H371 H 0.03643 0.5623 0.44824 0.0
H372 H 0.0383 0.52052 0.37412 0.0
H373 H 0.10924 0.55159 0.40782 0.0
H374 H 0.09029 0.54065 0.42098 0.0
H375 H 0.08923 0.56443 0.41545 0.0
C376 C 0.03527 0.51418 0.43084 0.0
C377 C 0.03205 0.53103 0.44327 0.0
C378 C 0.0453 0.51534 0.41407 0.0
C379 C 0.05234 0.5334 0.40951 0.0
C380 C 0.04901 0.55034 0.42193 0.0
H381 H 0.12094 0.55591 0.31104 0.0
H382 H 0.10218 0.55989 0.3401 0.0
C383 C 0.03891 0.54915 0.43879 0.0
C384 C 0.06288 0.53419 0.39154 0.0
H385 H 0.10717 0.54556 0.37413 0.0
C386 C 0.05333 0.5261 0.3741 0.0
C387 C 0.08246 0.54154 0.39156 0.0
C388 C 0.09353 0.54993 0.40993 0.0
C389 C 0.0629 0.52491 0.3567 0.0
C390 C 0.08263 0.53167 0.35678 0.0
C391 C 0.09206 0.54031 0.37413 0.0
C392 C 0.09389 0.52926 0.33908 0.0
C393 C 0.05176 0.51645 0.33839 0.0
C394 C 0.09567 0.5107 0.32901 0.0
C395 C 0.10636 0.50836 0.3124 0.0
C396 C 0.11559 0.52456 0.30558 0.0
C397 C 0.11396 0.54313 0.31584 0.0
C398 C 0.10326 0.54544 0.33247 0.0
H399 H 0.03615 0.51718 0.34007 0.0
H400 H 0.05668 0.52411 0.32649 0.0
H401 H 0.05398 0.50101 0.33436 0.0
H402 H 0.08889 0.49798 0.33409 0.0
H403 H 0.1074 0.49385 0.30493 0.0
H404 H 0.82068 0.71947 0.82678 0.0
H405 H 0.8209 0.69999 0.85246 0.0
H406 H 0.79449 0.74338 0.89 0.0
H407 H 0.79432 0.76289 0.86459 0.0
H408 H 0.83694 0.70912 0.89074 0.0
H409 H 0.75777 0.69347 0.88996 0.0
H410 H 0.7705 0.70281 0.87078 0.0
H411 H 0.76627 0.71876 0.89249 0.0
C412 C 0.81513 0.72494 0.84058 0.0
C413 C 0.80725 0.7426 0.84357 0.0
C414 C 0.81519 0.71377 0.8552 0.0
C415 C 0.80734 0.72006 0.87299 0.0
C416 C 0.80019 0.73803 0.87623 0.0
H417 H 0.78651 0.68005 0.98027 0.0
H418 H 0.78988 0.69779 0.9534 0.0
C419 C 0.8001 0.74915 0.86168 0.0
C420 C 0.80629 0.70786 0.88818 0.0
H421 H 0.77467 0.6854 0.91613 0.0
C422 C 0.82335 0.70376 0.8962 0.0
C423 C 0.78852 0.70087 0.89524 0.0
C424 C 0.7697 0.70402 0.88658 0.0
C425 C 0.82311 0.69343 0.91157 0.0
C426 C 0.80533 0.6868 0.91887 0.0
C427 C 0.78829 0.6906 0.91059 0.0
C428 C 0.804 0.67616 0.93531 0.0
C429 C 0.84188 0.69024 0.92027 0.0
C430 C 0.81071 0.65803 0.93402 0.0
C431 C 0.8088 0.64782 0.94937 0.0
C432 C 0.80004 0.65551 0.96627 0.0
C433 C 0.79334 0.67369 0.9675 0.0
C434 C 0.79525 0.68386 0.95214 0.0
H435 H 0.85405 0.70002 0.91605 0.0
H436 H 0.84133 0.69254 0.93614 0.0
H437 H 0.84471 0.67511 0.91527 0.0
H438 H 0.81717 0.65163 0.92103 0.0
H439 H 0.81405 0.63383 0.9479 0.0
H440 H 0.05835 0.99743 0.43019 0.0
H441 H 0.04059 0.00625 0.4038 0.0
H442 H 0.98765 0.99538 0.4327 0.0
H443 H 0.00534 0.98647 0.45915 0.0
H444 H 0.98555 0.97835 0.39516 0.0
H445 H 0.01591 0.05524 0.40172 0.0
H446 H 0.03383 0.0389 0.39984 0.0
H447 H 0.01879 0.04108 0.42034 0.0
C448 C 0.04296 0.99718 0.43106 0.0
C449 C 0.03325 0.99132 0.44679 0.0
C450 C 0.03283 0.00227 0.41598 0.0
C451 C 0.01283 0.00179 0.41644 0.0
C452 C 0.00309 0.99593 0.43211 0.0
H453 H 0.94194 0.0476 0.33724 0.0
H454 H 0.95904 0.04178 0.36556 0.0
C455 C 0.0132 0.99077 0.44716 0.0
C456 C 0.00198 0.00647 0.40013 0.0
H457 H 0.9979 0.04163 0.37302 0.0
C458 C 0.98816 0.99223 0.39039 0.0
C459 C 0.00523 0.02468 0.39409 0.0
C460 C 0.01911 0.04093 0.40465 0.0
C461 C 0.97782 0.99551 0.37448 0.0
C462 C 0.98168 0.0134 0.36792 0.0
C463 C 0.99514 0.02784 0.37795 0.0
C464 C 0.9719 0.01734 0.35063 0.0
C465 C 0.9627 0.97986 0.36499 0.0
C466 C 0.97381 0.0058 0.33279 0.0
C467 C 0.96403 0.00903 0.31661 0.0
C468 C 0.95227 0.024 0.31794 0.0
C469 C 0.95084 0.03592 0.33574 0.0
C470 C 0.9606 0.03263 0.35193 0.0
H471 H 0.95785 0.96954 0.37472 0.0
H472 H 0.95006 0.98613 0.36026 0.0
H473 H 0.96876 0.97158 0.3522 0.0
H474 H 0.98281 0.99421 0.33138 0.0
H475 H 0.96559 0.99969 0.3031 0.0
H476 H 0.29061 0.28887 0.68793 0.0
H477 H 0.29137 0.26489 0.65888 0.0
H478 H 0.23138 0.26736 0.64803 0.0
H479 H 0.23051 0.2915 0.6771 0.0
H480 H 0.24265 0.22916 0.64151 0.0
H481 H 0.28937 0.28006 0.6051 0.0
H482 H 0.29853 0.27704 0.628 0.0
H483 H 0.27679 0.28792 0.62658 0.0
C484 C 0.27757 0.28431 0.67938 0.0
C485 C 0.26055 0.29227 0.68468 0.0
C486 C 0.27803 0.27061 0.66279 0.0
C487 C 0.26153 0.26466 0.65112 0.0
C488 C 0.24429 0.27187 0.65681 0.0
H489 H 0.2608 0.20861 0.53218 0.0
H490 H 0.25658 0.23028 0.56216 0.0
C491 C 0.2438 0.28558 0.67345 0.0
C492 C 0.26249 0.2514 0.6327 0.0
H493 H 0.28421 0.24739 0.58951 0.0
C494 C 0.25167 0.23314 0.6301 0.0
C495 C 0.27405 0.25677 0.61774 0.0
C496 C 0.28522 0.27657 0.61935 0.0
C497 C 0.25247 0.21989 0.61305 0.0
C498 C 0.2646 0.225 0.59838 0.0
C499 C 0.27507 0.24344 0.60084 0.0
C500 C 0.26666 0.2115 0.5803 0.0
C501 C 0.24017 0.20065 0.61081 0.0
C502 C 0.27392 0.19383 0.58054 0.0
C503 C 0.27636 0.1814 0.56342 0.0
C504 C 0.27169 0.18647 0.54572 0.0
C505 C 0.26452 0.20424 0.54554 0.0
C506 C 0.26209 0.21665 0.56267 0.0
H507 H 0.22814 0.20099 0.62091 0.0
H508 H 0.23419 0.1963 0.59598 0.0
H509 H 0.24904 0.18943 0.61385 0.0
H510 H 0.27794 0.18975 0.59396 0.0
H511 H 0.28198 0.16786 0.56408 0.0
H512 H 0.57335 0.56994 0.60867 0.0
H513 H 0.55405 0.5731 0.63738 0.0
H514 H 0.50245 0.56159 0.60215 0.0
H515 H 0.52166 0.55791 0.57333 0.0
H516 H 0.5252 0.59729 0.65005 0.0
H517 H 0.49706 0.5192 0.63619 0.0
H518 H 0.5173 0.52898 0.62383 0.0
H519 H 0.49341 0.53228 0.61702 0.0
C520 C 0.55789 0.56813 0.60703 0.0
C521 C 0.54903 0.56344 0.58872 0.0
C522 C 0.54689 0.57005 0.62344 0.0
C523 C 0.52684 0.56725 0.62188 0.0
C524 C 0.51792 0.5635 0.60365 0.0
H525 H 0.44106 0.55595 0.70879 0.0
H526 H 0.45737 0.5591 0.67891 0.0
C527 C 0.52892 0.5616 0.5872 0.0
C528 C 0.51537 0.56739 0.63938 0.0
H529 H 0.48569 0.53826 0.66325 0.0
C530 C 0.51649 0.58442 0.65294 0.0
C531 C 0.50408 0.55056 0.6431 0.0
C532 C 0.50294 0.53164 0.62938 0.0
C533 C 0.50652 0.58509 0.67011 0.0
C534 C 0.49546 0.56817 0.67396 0.0
C535 C 0.49415 0.55122 0.66026 0.0
C536 C 0.4855 0.56748 0.69227 0.0
C537 C 0.50776 0.60396 0.68388 0.0
C538 C 0.49591 0.57107 0.70972 0.0
C539 C 0.48664 0.56931 0.72685 0.0
C540 C 0.46677 0.56376 0.72684 0.0
C541 C 0.45637 0.56027 0.70934 0.0
C542 C 0.46566 0.56207 0.69223 0.0
H543 H 0.512 0.61651 0.67659 0.0
H544 H 0.49387 0.6059 0.69088 0.0
H545 H 0.51876 0.60397 0.69519 0.0
H546 H 0.5113 0.57481 0.71006 0.0
H547 H 0.4951 0.572 0.74005 0.0
H548 H 0.77688 0.27941 0.70115 0.0
H549 H 0.77985 0.30257 0.6788 0.0
H550 H 0.8266 0.27485 0.65175 0.0
H551 H 0.82327 0.25135 0.67394 0.0
H552 H 0.8087 0.3289 0.6684 0.0
H553 H 0.78719 0.26887 0.60815 0.0
H554 H 0.78557 0.26571 0.63284 0.0
H555 H 0.80833 0.26631 0.62141 0.0
C556 C 0.78806 0.2786 0.6907 0.0
C557 C 0.7999 0.26379 0.68916 0.0
C558 C 0.78974 0.29178 0.67793 0.0
C559 C 0.8032 0.29021 0.66338 0.0
C560 C 0.81587 0.27608 0.66264 0.0
H561 H 0.81104 0.34671 0.56246 0.0
H562 H 0.81828 0.32898 0.58798 0.0
C563 C 0.81411 0.26282 0.67538 0.0
C564 C 0.80283 0.30242 0.64825 0.0
H565 H 0.79311 0.30015 0.60058 0.0
C566 C 0.80542 0.32263 0.65355 0.0
C567 C 0.79843 0.29419 0.62888 0.0
C568 C 0.79454 0.2726 0.62243 0.0
C569 C 0.80365 0.33484 0.64001 0.0
C570 C 0.79892 0.32659 0.62075 0.0
C571 C 0.79677 0.30641 0.61537 0.0
C572 C 0.79535 0.33852 0.60601 0.0
C573 C 0.80685 0.35645 0.64641 0.0
C574 C 0.77999 0.3497 0.60765 0.0
C575 C 0.77575 0.3598 0.59304 0.0
C576 C 0.78676 0.35884 0.57649 0.0
C577 C 0.80227 0.34779 0.57501 0.0
C578 C 0.80646 0.33765 0.58959 0.0
H579 H 0.81528 0.3604 0.6601 0.0
H580 H 0.81442 0.36373 0.63538 0.0
H581 H 0.79278 0.36205 0.64868 0.0
H582 H 0.77099 0.35025 0.62002 0.0
H583 H 0.76368 0.36814 0.59462 0.0
H584 H 0.511 0.0044 0.60503 0.0
H585 H 0.52944 0.00362 0.63416 0.0
H586 H 0.56554 0.96532 0.60187 0.0
H587 H 0.54774 0.96674 0.57248 0.0
H588 H 0.53516 0.9731 0.65187 0.0
H589 H 0.60462 0.00754 0.62975 0.0
H590 H 0.58241 0.00754 0.61686 0.0
H591 H 0.59476 0.98635 0.61353 0.0
C592 C 0.52304 0.99603 0.60405 0.0
C593 C 0.52798 0.98578 0.58635 0.0
C594 C 0.53346 0.99547 0.62075 0.0
C595 C 0.54905 0.98466 0.62015 0.0
C596 C 0.55381 0.97408 0.60261 0.0
H597 H 0.62749 0.96805 0.71052 0.0
H598 H 0.60899 0.96463 0.68049 0.0
C599 C 0.54345 0.97471 0.58585 0.0
C600 C 0.56012 0.98437 0.63798 0.0
H601 H 0.6047 0.99569 0.65911 0.0
C602 C 0.55037 0.97804 0.65345 0.0
C603 C 0.57996 0.99081 0.64001 0.0
C604 C 0.59105 0.99862 0.62424 0.0
C605 C 0.55992 0.97797 0.67089 0.0
C606 C 0.5797 0.98455 0.67294 0.0
C607 C 0.58953 0.99059 0.65742 0.0
C608 C 0.59031 0.986 0.69134 0.0
C609 C 0.54884 0.97077 0.68696 0.0
C610 C 0.58595 0.9992 0.70732 0.0
C611 C 0.59652 0.00126 0.72446 0.0
C612 C 0.61166 0.99013 0.72592 0.0
C613 C 0.61587 0.97677 0.7099 0.0
C614 C 0.60535 0.97481 0.69273 0.0
H615 H 0.5351 0.96202 0.68173 0.0
H616 H 0.55741 0.96189 0.69448 0.0
H617 H 0.54551 0.98334 0.69751 0.0
H618 H 0.57458 0.00817 0.70644 0.0
H619 H 0.59294 0.01171 0.73649 0.0
H620 H 0.85351 0.19088 0.73524 0.0
H621 H 0.88342 0.19847 0.75414 0.0
H622 H 0.86954 0.2563 0.77362 0.0
H623 H 0.8392 0.24859 0.75523 0.0
H624 H 0.91482 0.2264 0.75503 0.0
H625 H 0.87623 0.23562 0.82354 0.0
H626 H 0.86432 0.22521 0.80095 0.0
H627 H 0.87019 0.25097 0.80712 0.0
C628 C 0.85684 0.20524 0.74351 0.0
C629 C 0.84384 0.21905 0.74398 0.0
C630 C 0.87399 0.20958 0.75422 0.0
C631 C 0.8785 0.2278 0.76561 0.0
C632 C 0.86612 0.24201 0.76523 0.0
H633 H 0.97051 0.27316 0.84888 0.0
H634 H 0.94289 0.26878 0.82686 0.0
C635 C 0.84891 0.23766 0.75454 0.0
C636 C 0.89573 0.23149 0.77848 0.0
H637 H 0.90997 0.2416 0.82561 0.0
C638 C 0.91378 0.22975 0.77046 0.0
C639 C 0.89431 0.23573 0.79862 0.0
C640 C 0.87523 0.23684 0.80814 0.0
C641 C 0.93048 0.23234 0.78205 0.0
C642 C 0.92903 0.23651 0.80216 0.0
C643 C 0.91101 0.23841 0.81017 0.0
C644 C 0.94602 0.23903 0.81523 0.0
C645 C 0.94958 0.23086 0.77267 0.0
C646 C 0.9568 0.22364 0.81616 0.0
C647 C 0.97261 0.22606 0.8288 0.0
C648 C 0.97787 0.24391 0.84075 0.0
C649 C 0.96691 0.25922 0.83986 0.0
C650 C 0.9511 0.25677 0.82728 0.0
H651 H 0.94876 0.23219 0.75729 0.0
H652 H 0.96065 0.24222 0.78001 0.0
H653 H 0.95424 0.21656 0.77367 0.0
H654 H 0.95288 0.20971 0.80724 0.0
H655 H 0.98071 0.21396 0.82918 0.0
H656 H 0.50567 0.96954 0.49914 0.0
H657 H 0.50394 0.94069 0.47442 0.0
H658 H 0.49071 0.90459 0.5172 0.0
H659 H 0.49173 0.93334 0.54185 0.0
H660 H 0.52738 0.91216 0.47326 0.0
H661 H 0.45168 0.88064 0.47512 0.0
H662 H 0.45993 0.90525 0.48589 0.0
H663 H 0.46342 0.88556 0.49826 0.0
C664 C 0.50188 0.95549 0.50321 0.0
C665 C 0.49886 0.95374 0.52248 0.0
C666 C 0.50103 0.93901 0.48908 0.0
C667 C 0.49701 0.92049 0.49392 0.0
C668 C 0.49348 0.91873 0.51306 0.0
H669 H 0.504 0.80262 0.44064 0.0
H670 H 0.50038 0.83289 0.46204 0.0
C671 C 0.49429 0.93518 0.52718 0.0
C672 C 0.4981 0.90299 0.47931 0.0
H673 H 0.47329 0.85983 0.4592 0.0
C674 C 0.51548 0.90082 0.47001 0.0
C675 C 0.48259 0.88818 0.47515 0.0
C676 C 0.46329 0.89007 0.48399 0.0
C677 C 0.51796 0.88399 0.45709 0.0
C678 C 0.50256 0.86904 0.4532 0.0
C679 C 0.48509 0.8713 0.46228 0.0
C680 C 0.50447 0.85076 0.44004 0.0
C681 C 0.53723 0.88206 0.44819 0.0
C682 C 0.50776 0.85078 0.42054 0.0
C683 C 0.50986 0.83352 0.40826 0.0
C684 C 0.50864 0.8159 0.41527 0.0
C685 C 0.50511 0.81593 0.43479 0.0
C686 C 0.50298 0.8332 0.44704 0.0
H687 H 0.54865 0.89285 0.45582 0.0
H688 H 0.54137 0.86734 0.44819 0.0
H689 H 0.53643 0.88439 0.43311 0.0
H690 H 0.50866 0.86415 0.41481 0.0
H691 H 0.51245 0.834 0.39329 0.0
H692 H 0.21609 0.2828 0.76459 0.0
H693 H 0.188 0.2666 0.77837 0.0
H694 H 0.15127 0.29919 0.75062 0.0
H695 H 0.17931 0.3151 0.73667 0.0
H696 H 0.16513 0.28655 0.80324 0.0
H697 H 0.12103 0.24581 0.7415 0.0
H698 H 0.14603 0.25442 0.73954 0.0
H699 H 0.12803 0.27054 0.73912 0.0
C700 C 0.20192 0.28595 0.76097 0.0
C701 C 0.19965 0.2999 0.74945 0.0
C702 C 0.18593 0.27679 0.76888 0.0
C703 C 0.1675 0.2815 0.76534 0.0
C704 C 0.16526 0.29495 0.75317 0.0
H705 H 0.05679 0.27397 0.81493 0.0
H706 H 0.08521 0.27924 0.79594 0.0
C707 C 0.18125 0.30407 0.74525 0.0
C708 C 0.15099 0.2743 0.7762 0.0
H709 H 0.10489 0.25247 0.77123 0.0
C710 C 0.15206 0.27881 0.79626 0.0
C711 C 0.13392 0.26432 0.76706 0.0
C712 C 0.13221 0.25832 0.74562 0.0
C713 C 0.13629 0.27431 0.8074 0.0
C714 C 0.11906 0.26476 0.79824 0.0
C715 C 0.11811 0.25982 0.77821 0.0
C716 C 0.10162 0.26065 0.8092 0.0
C717 C 0.13793 0.28057 0.82883 0.0
C718 C 0.10134 0.24821 0.82276 0.0
C719 C 0.08513 0.24522 0.83371 0.0
C720 C 0.06887 0.25454 0.83121 0.0
C721 C 0.06908 0.26663 0.81729 0.0
C722 C 0.08528 0.26961 0.80637 0.0
H723 H 0.15063 0.29135 0.83318 0.0
H724 H 0.12491 0.28693 0.83436 0.0
H725 H 0.13936 0.26778 0.83574 0.0
H726 H 0.1137 0.24091 0.82495 0.0
H727 H 0.0854 0.23571 0.84422 0.0
H728 H 0.51747 0.58413 0.5067 0.0
H729 H 0.50629 0.60993 0.49147 0.0
H730 H 0.56257 0.64198 0.49995 0.0
H731 H 0.5737 0.61627 0.51518 0.0
H732 H 0.51013 0.65473 0.50494 0.0
H733 H 0.54925 0.6281 0.43967 0.0
H734 H 0.54237 0.61315 0.45744 0.0
H735 H 0.56233 0.63168 0.46214 0.0
C736 C 0.52724 0.59695 0.50572 0.0
C737 C 0.54634 0.59845 0.51213 0.0
C738 C 0.52088 0.6116 0.49702 0.0
C739 C 0.53366 0.62775 0.49451 0.0
C740 C 0.55253 0.62959 0.50174 0.0
H741 H 0.53608 0.71939 0.42776 0.0
H742 H 0.54278 0.69588 0.44785 0.0
C743 C 0.55884 0.615 0.51047 0.0
C744 C 0.52786 0.64188 0.48295 0.0
H745 H 0.53516 0.65686 0.43992 0.0
C746 C 0.51548 0.6552 0.49068 0.0
C747 C 0.5349 0.64237 0.46438 0.0
C748 C 0.54785 0.62801 0.45527 0.0
C749 C 0.51037 0.66943 0.48048 0.0
C750 C 0.51754 0.67001 0.46192 0.0
C751 C 0.52971 0.65645 0.45415 0.0
C752 C 0.51308 0.68479 0.45039 0.0
C753 C 0.49788 0.68408 0.48991 0.0
C754 C 0.49413 0.68634 0.44501 0.0
C755 C 0.49022 0.69988 0.43355 0.0
C756 C 0.50522 0.71197 0.42708 0.0
C757 C 0.52417 0.71031 0.43245 0.0
C758 C 0.52804 0.69687 0.44396 0.0
H759 H 0.49781 0.68482 0.50569 0.0
H760 H 0.50274 0.69871 0.4867 0.0
H761 H 0.48294 0.67987 0.48434 0.0
H762 H 0.48237 0.67687 0.4494 0.0
H763 H 0.47547 0.7007 0.42959 0.0
H764 H 0.85795 0.77472 0.80893 0.0
H765 H 0.88397 0.77748 0.78641 0.0
H766 H 0.84272 0.76975 0.73969 0.0
H767 H 0.81663 0.76677 0.76204 0.0
H768 H 0.89184 0.74985 0.75509 0.0
H769 H 0.87764 0.81826 0.73162 0.0
H770 H 0.86735 0.81059 0.75279 0.0
H771 H 0.85734 0.80004 0.72951 0.0
C772 C 0.8544 0.77357 0.79386 0.0
C773 C 0.83517 0.77057 0.78732 0.0
C774 C 0.86929 0.77525 0.78103 0.0
C775 C 0.86529 0.77409 0.76141 0.0
C776 C 0.84614 0.77113 0.75482 0.0
H777 H 0.93549 0.77484 0.66074 0.0
H778 H 0.90917 0.77369 0.68314 0.0
C779 C 0.83124 0.76944 0.76763 0.0
C780 C 0.88116 0.77515 0.74777 0.0
H781 H 0.90084 0.80091 0.71445 0.0
C782 C 0.89388 0.76107 0.74627 0.0
C783 C 0.88372 0.78974 0.7362 0.0
C784 C 0.87091 0.80563 0.73767 0.0
C785 C 0.90893 0.761 0.73333 0.0
C786 C 0.91156 0.77564 0.72183 0.0
C787 C 0.8988 0.7897 0.72327 0.0
C788 C 0.92756 0.77668 0.70832 0.0
C789 C 0.92161 0.74498 0.73179 0.0
C790 C 0.94664 0.77908 0.71506 0.0
C791 C 0.9617 0.7797 0.70231 0.0
C792 C 0.95799 0.77808 0.68253 0.0
C793 C 0.93886 0.77607 0.67585 0.0
C794 C 0.92379 0.77543 0.68864 0.0
H795 H 0.91466 0.73226 0.73755 0.0
H796 H 0.92535 0.7402 0.71669 0.0
H797 H 0.93508 0.75035 0.74019 0.0
H798 H 0.9499 0.78051 0.73022 0.0
H799 H 0.97625 0.78139 0.70798 0.0
H800 H 0.06731 0.91025 0.50853 0.0
H801 H 0.06762 0.89029 0.53384 0.0
H802 H 0.03175 0.92745 0.56803 0.0
H803 H 0.03136 0.94731 0.54266 0.0
H804 H 0.07715 0.89893 0.57506 0.0
H805 H 1.00024 0.87288 0.55804 0.0
H806 H 0.01521 0.88533 0.54226 0.0
H807 H 0.00626 0.89867 0.56347 0.0
C808 C 0.05993 0.91437 0.52169 0.0
C809 C 0.0494 0.93025 0.52386 0.0
C810 C 0.06007 0.90298 0.53607 0.0
C811 C 0.0495 0.90727 0.55267 0.0
C812 C 0.03982 0.9238 0.55523 0.0
H813 H 0.01499 0.83602 0.6391 0.0
H814 H 0.0202 0.86283 0.62106 0.0
C815 C 0.03971 0.93519 0.54085 0.0
C816 C 0.04734 0.89357 0.56648 0.0
H817 H 0.01468 0.8609 0.58292 0.0
C818 C 0.0635 0.89066 0.57688 0.0
C819 C 0.0295 0.88282 0.56878 0.0
C820 C 0.0118 0.88489 0.55747 0.0
C821 C 0.06225 0.87728 0.58961 0.0
C822 C 0.04447 0.86624 0.59163 0.0
C823 C 0.02828 0.8694 0.58142 0.0
C824 C 0.04239 0.85072 0.60356 0.0
C825 C 0.07995 0.87525 0.60091 0.0
C826 C 0.05306 0.83496 0.59968 0.0
C827 C 0.05016 0.81967 0.60999 0.0
C828 C 0.03635 0.81969 0.62426 0.0
C829 C 0.02574 0.83555 0.62821 0.0
C830 C 0.02872 0.85089 0.61793 0.0
H831 H 0.09037 0.88853 0.60239 0.0
H832 H 0.07631 0.87221 0.61542 0.0
H833 H 0.08708 0.86307 0.59331 0.0
H834 H 0.06332 0.83424 0.58832 0.0
H835 H 0.05851 0.80765 0.60649 0.0
H836 H 0.15207 0.70187 0.7915 0.0
H837 H 0.12658 0.71581 0.77652 0.0
H838 H 0.16888 0.75712 0.75716 0.0
H839 H 0.1944 0.743 0.77199 0.0
H840 H 0.11582 0.75416 0.78004 0.0
H841 H 0.14154 0.72729 0.70752 0.0
H842 H 0.14959 0.71916 0.72873 0.0
H843 H 0.15897 0.74248 0.72363 0.0
C844 C 0.1558 0.71417 0.78435 0.0
C845 C 0.175 0.72149 0.78282 0.0
C846 C 0.1413 0.72209 0.77579 0.0
C847 C 0.14589 0.7373 0.7655 0.0
C848 C 0.16509 0.74521 0.7648 0.0
H849 H 0.07218 0.7829 0.68809 0.0
H850 H 0.09934 0.77844 0.70807 0.0
C851 C 0.17959 0.73727 0.77335 0.0
C852 C 0.13065 0.74397 0.75457 0.0
H853 H 0.11461 0.74431 0.70906 0.0
C854 C 0.11558 0.75213 0.76453 0.0
C855 C 0.13042 0.74128 0.73432 0.0
C856 C 0.14588 0.73194 0.72284 0.0
C857 C 0.10019 0.75759 0.75476 0.0
C858 C 0.09972 0.75446 0.73451 0.0
C859 C 0.11503 0.74673 0.72458 0.0
C860 C 0.08306 0.7581 0.72326 0.0
C861 C 0.08461 0.76672 0.76622 0.0
C862 C 0.06494 0.74802 0.72507 0.0
C863 C 0.04942 0.75053 0.7137 0.0
C864 C 0.05174 0.76305 0.70016 0.0
C865 C 0.0699 0.77318 0.6984 0.0
C866 C 0.08543 0.77066 0.70981 0.0
H867 H 0.08981 0.77343 0.78092 0.0
H868 H 0.07904 0.77794 0.75913 0.0
H869 H 0.07259 0.7554 0.76749 0.0
H870 H 0.06288 0.73789 0.73501 0.0
H871 H 0.03567 0.74243 0.71537 0.0
H872 H 0.02064 0.5815 0.5209 0.0
H873 H 0.0257 0.61345 0.54099 0.0
H874 H 0.9677 0.62273 0.52858 0.0
H875 H 0.96279 0.59121 0.50781 0.0
H876 H 0.9927 0.65594 0.53052 0.0
H877 H 0.00255 0.62056 0.59376 0.0
H878 H 0.01928 0.61536 0.57513 0.0
H879 H 0.99424 0.60709 0.57076 0.0
C880 C 0.00913 0.59055 0.52201 0.0
C881 C 0.99121 0.58367 0.51296 0.0
C882 C 0.01196 0.60871 0.53371 0.0
C883 C 0.9969 0.62024 0.53671 0.0
C884 C 0.97946 0.61399 0.52666 0.0
H885 H 0.97798 0.70469 0.63525 0.0
H886 H 0.97737 0.67673 0.60971 0.0
C887 C 0.97664 0.59591 0.51488 0.0
C888 C 0.99876 0.63817 0.55122 0.0
H889 H 0.00568 0.65464 0.59915 0.0
C890 C 0.99563 0.65571 0.54552 0.0
C891 C 0.00224 0.63775 0.57085 0.0
C892 C 0.0046 0.61918 0.57808 0.0
C893 C 0.99584 0.67283 0.5589 0.0
C894 C 0.99965 0.67245 0.57847 0.0
C895 C 0.00287 0.65493 0.58414 0.0
C896 C 0.9997 0.68986 0.59349 0.0
C897 C 0.99137 0.69099 0.55204 0.0
C898 C 0.01249 0.70654 0.59292 0.0
C899 C 0.01277 0.72263 0.60745 0.0
C900 C 1.00043 0.72225 0.62298 0.0
C901 C 0.98768 0.70549 0.62352 0.0
C902 C 0.98733 0.68948 0.60894 0.0
H903 H 0.98388 0.68773 0.53781 0.0
H904 H 0.98231 0.69929 0.56235 0.0
H905 H 0.00494 0.70031 0.55066 0.0
H906 H 0.02248 0.70703 0.5814 0.0
H907 H 0.02288 0.73525 0.60666 0.0
H908 H 0.78943 0.84891 0.2624 0.0
H909 H 0.8103 0.87939 0.26429 0.0
H910 H 0.78697 0.88762 0.2102 0.0
H911 H 0.76561 0.85737 0.20845 0.0
H912 H 0.83814 0.89033 0.23834 0.0
H913 H 0.78034 0.93843 0.24621 0.0
H914 H 0.77639 0.9135 0.24958 0.0
H915 H 0.77776 0.91932 0.22586 0.0
C916 C 0.78859 0.8573 0.25099 0.0
C917 C 0.77573 0.85082 0.23536 0.0
C918 C 0.80062 0.87463 0.25203 0.0
C919 C 0.79997 0.88587 0.23752 0.0
C920 C 0.78745 0.8793 0.2217 0.0
H921 H 0.86156 0.99845 0.22782 0.0
H922 H 0.84112 0.96746 0.22158 0.0
C923 C 0.7754 0.86193 0.22063 0.0
C924 C 0.81252 0.90443 0.23903 0.0
H925 H 0.81193 0.95331 0.24424 0.0
C926 C 0.83243 0.90411 0.2396 0.0
C927 C 0.80499 0.92235 0.2406 0.0
C928 C 0.7837 0.92355 0.24069 0.0
C929 C 0.84506 0.92127 0.24172 0.0
C930 C 0.83753 0.93921 0.24367 0.0
C931 C 0.81763 0.93952 0.24274 0.0
C932 C 0.85005 0.95786 0.24734 0.0
C933 C 0.86634 0.92004 0.2417 0.0
C934 C 0.86162 0.96282 0.26403 0.0
C935 C 0.8733 0.98048 0.26765 0.0
C936 C 0.87354 0.99359 0.25468 0.0
C937 C 0.86176 0.98867 0.23807 0.0
C938 C 0.85006 0.97097 0.23447 0.0
H939 H 0.86969 0.90553 0.2348 0.0
H940 H 0.87396 0.93112 0.23413 0.0
H941 H 0.87195 0.92264 0.25669 0.0
H942 H 0.86151 0.95308 0.27435 0.0
H943 H 0.88211 0.98385 0.28063 0.0
H944 H 0.77234 0.19032 0.28631 0.0
H945 H 0.79676 0.16811 0.28517 0.0
H946 H 0.78329 0.15886 0.34245 0.0
H947 H 0.75854 0.18076 0.34358 0.0
H948 H 0.82934 0.17048 0.3107 0.0
H949 H 0.77886 0.10369 0.31035 0.0
H950 H 0.77123 0.12576 0.30482 0.0
H951 H 0.77596 0.12347 0.32922 0.0
C952 C 0.77445 0.18342 0.29861 0.0
C953 C 0.76341 0.18718 0.31499 0.0
C954 C 0.78849 0.17085 0.29797 0.0
C955 C 0.79166 0.1617 0.31364 0.0
C956 C 0.78088 0.1656 0.33012 0.0
H957 H 0.86574 0.07455 0.32952 0.0
H958 H 0.84328 0.09883 0.3341 0.0
C959 C 0.76687 0.17823 0.3308 0.0
C960 C 0.80629 0.14808 0.31266 0.0
H961 H 0.81186 0.10053 0.31169 0.0
C962 C 0.82556 0.15518 0.31092 0.0
C963 C 0.80127 0.12817 0.31303 0.0
C964 C 0.7807 0.1197 0.3143 0.0
C965 C 0.84001 0.14288 0.30965 0.0
C966 C 0.83496 0.1229 0.30971 0.0
C967 C 0.8157 0.11586 0.31166 0.0
C968 C 0.84934 0.10892 0.30731 0.0
C969 C 0.86056 0.15147 0.30857 0.0
C970 C 0.86017 0.10648 0.2907 0.0
C971 C 0.87308 0.09268 0.28807 0.0
C972 C 0.87526 0.08088 0.30192 0.0
C973 C 0.86444 0.0834 0.31858 0.0
C974 C 0.85158 0.09726 0.32122 0.0
H975 H 0.86252 0.16722 0.31431 0.0
H976 H 0.87032 0.14421 0.31664 0.0
H977 H 0.86481 0.14953 0.29339 0.0
H978 H 0.85836 0.115 0.27957 0.0
H979 H 0.88109 0.09103 0.27501 0.0
H980 H 0.44917 0.00294 0.98137 0.0
H981 H 0.41945 0.98322 0.98671 0.0
H982 H 0.41539 0.01796 0.04231 0.0
H983 H 0.44566 0.03698 0.03762 0.0
H984 H 0.40838 0.98077 0.04434 0.0
H985 H 0.36542 0.99586 0.98394 0.0
H986 H 0.38708 0.98614 0.97625 0.0
H987 H 0.38832 0.00939 0.99144 0.0
C988 C 0.44203 0.00634 0.99479 0.0
C989 C 0.44982 0.02166 0.00901 0.0
C990 C 0.42487 0.99521 0.9977 0.0
C991 C 0.41496 0.99935 0.01475 0.0
C992 C 0.42268 0.0146 0.02896 0.0
H993 H 0.29799 0.95037 0.03155 0.0
H994 H 0.32695 0.97188 0.02735 0.0
C995 C 0.43993 0.0256 0.02616 0.0
C996 C 0.39699 0.98729 0.01817 0.0
H997 H 0.35231 0.96991 0.99943 0.0
C998 C 0.39607 0.9785 0.03458 0.0
C999 C 0.38081 0.98457 0.0056 0.0
C1000 C 0.38034 0.99465 0.98844 0.0
C1001 C 0.37959 0.9668 0.03859 0.0
C1002 C 0.36376 0.96331 0.02554 0.0
C1003 C 0.36452 0.9724 0.00932 0.0
C1004 C 0.34627 0.9503 0.02842 0.0
C1005 C 0.37921 0.95861 0.05698 0.0
C1006 C 0.34747 0.93097 0.03024 0.0
C1007 C 0.33099 0.91872 0.03289 0.0
C1008 C 0.31292 0.92546 0.03339 0.0
C1009 C 0.3117 0.94474 0.03126 0.0
C1010 C 0.32823 0.95705 0.02883 0.0
H1011 H 0.38956 0.96733 0.06786 0.0
H1012 H 0.36471 0.958 0.06311 0.0
H1013 H 0.38333 0.94371 0.05406 0.0
H1014 H 0.36115 0.92527 0.02943 0.0
H1015 H 0.3324 0.90388 0.03425 0.0
H1016 H 0.27963 0.36126 0.31208 0.0
H1017 H 0.26492 0.38765 0.30125 0.0
H1018 H 0.23231 0.34638 0.25785 0.0
H1019 H 0.24689 0.31997 0.26887 0.0
H1020 H 0.26148 0.40056 0.26506 0.0
H1021 H 0.19141 0.37186 0.29145 0.0
H1022 H 0.21369 0.36372 0.29761 0.0
H1023 H 0.2026 0.35514 0.27439 0.0
C1024 C 0.26969 0.35796 0.29992 0.0
C1025 C 0.26439 0.33876 0.29117 0.0
C1026 C 0.26127 0.37298 0.29378 0.0
C1027 C 0.24731 0.36893 0.27895 0.0
C1028 C 0.24285 0.34978 0.26949 0.0
H1029 H 0.16664 0.44341 0.24466 0.0
H1030 H 0.18512 0.41627 0.246 0.0
C1031 C 0.25127 0.33476 0.27565 0.0
C1032 C 0.23644 0.38452 0.27446 0.0
H1033 H 0.19203 0.39983 0.27738 0.0
C1034 C 0.24628 0.40038 0.26765 0.0
C1035 C 0.2166 0.38425 0.27787 0.0
C1036 C 0.20542 0.36794 0.28588 0.0
C1037 C 0.2368 0.41599 0.26416 0.0
C1038 C 0.21705 0.4159 0.26798 0.0
C1039 C 0.20715 0.39986 0.27442 0.0
C1040 C 0.2065 0.43264 0.26628 0.0
C1041 C 0.24799 0.43237 0.25631 0.0
C1042 C 0.21227 0.45082 0.27734 0.0
C1043 C 0.20175 0.46634 0.27661 0.0
C1044 C 0.18512 0.46398 0.26491 0.0
C1045 C 0.17937 0.44575 0.25381 0.0
C1046 C 0.18993 0.43022 0.25454 0.0
H1047 H 0.26088 0.42765 0.24875 0.0
H1048 H 0.23904 0.4383 0.24625 0.0
H1049 H 0.2529 0.44415 0.26831 0.0
H1050 H 0.22471 0.45293 0.28688 0.0
H1051 H 0.20656 0.48014 0.28542 0.0
H1052 H 0.07861 0.02972 0.49552 0.0
H1053 H 0.10974 0.04926 0.50199 0.0
H1054 H 0.13764 0.99735 0.49539 0.0
H1055 H 0.10641 0.97765 0.48875 0.0
H1056 H 0.14074 0.04841 0.5302 0.0
H1057 H 0.16076 0.0294 0.45403 0.0
H1058 H 0.1363 0.02588 0.46154 0.0
H1059 H 0.15295 0.00982 0.46657 0.0
C1060 C 0.09137 0.02247 0.49567 0.0
C1061 C 0.09015 0.00219 0.49148 0.0
C1062 C 0.10911 0.03363 0.49942 0.0
C1063 C 0.12596 0.02474 0.4989 0.0
C1064 C 0.12477 0.00446 0.49565 0.0
H1065 H 0.24276 0.0829 0.49581 0.0
H1066 H 0.21531 0.05811 0.49557 0.0
C1067 C 0.10695 0.99324 0.49202 0.0
C1068 C 0.14472 0.03688 0.50063 0.0
H1069 H 0.18223 0.05184 0.47421 0.0
C1070 C 0.14993 0.04905 0.51804 0.0
C1071 C 0.15665 0.03762 0.48472 0.0
C1072 C 0.15144 0.0251 0.46558 0.0
C1073 C 0.1667 0.06218 0.5199 0.0
C1074 C 0.17825 0.0635 0.50377 0.0
C1075 C 0.17333 0.05087 0.48653 0.0
C1076 C 0.19497 0.07848 0.50419 0.0
C1077 C 0.17187 0.07448 0.53915 0.0
C1078 C 0.19257 0.09817 0.50874 0.0
C1079 C 0.20821 0.11235 0.50894 0.0
C1080 C 0.22654 0.10714 0.50437 0.0
C1081 C 0.22884 0.08741 0.49943 0.0
C1082 C 0.21318 0.07322 0.49931 0.0
H1083 H 0.16541 0.06758 0.55097 0.0
H1084 H 0.18763 0.07717 0.54162 0.0
H1085 H 0.16626 0.08863 0.53974 0.0
H1086 H 0.17856 0.10261 0.512 0.0
H1087 H 0.20588 0.1274 0.51266 0.0
H1088 H 0.77421 0.1638 0.70319 0.0
H1089 H 0.7554 0.1336 0.70795 0.0
H1090 H 0.77366 0.14427 0.76734 0.0
H1091 H 0.79233 0.17464 0.76277 0.0
H1092 H 0.76918 0.10093 0.72316 0.0
H1093 H 0.71347 0.13605 0.76702 0.0
H1094 H 0.72903 0.14871 0.75183 0.0
H1095 H 0.73803 0.14422 0.77423 0.0
C1096 C 0.77414 0.15974 0.71728 0.0
C1097 C 0.78465 0.17161 0.73263 0.0
C1098 C 0.7635 0.14247 0.71994 0.0
C1099 C 0.76304 0.13686 0.73803 0.0
C1100 C 0.77372 0.14849 0.75333 0.0
H1101 H 0.69617 0.04119 0.77965 0.0
H1102 H 0.71814 0.07007 0.77694 0.0
C1103 C 0.78447 0.16573 0.75065 0.0
C1104 C 0.75124 0.11887 0.74084 0.0
H1105 H 0.71086 0.10201 0.76218 0.0
C1106 C 0.75644 0.1011 0.73171 0.0
C1107 C 0.73471 0.11925 0.75207 0.0
C1108 C 0.72831 0.13805 0.76178 0.0
C1109 C 0.74554 0.0836 0.73357 0.0
C1110 C 0.72876 0.08397 0.74449 0.0
C1111 C 0.72372 0.10176 0.75382 0.0
C1112 C 0.71594 0.06613 0.74603 0.0
C1113 C 0.75225 0.06487 0.72407 0.0
C1114 C 0.70726 0.05446 0.72957 0.0
C1115 C 0.69478 0.03792 0.73106 0.0
C1116 C 0.69056 0.03285 0.74907 0.0
C1117 C 0.69915 0.04466 0.76556 0.0
C1118 C 0.7117 0.06117 0.76405 0.0
H1119 H 0.76784 0.06669 0.72133 0.0
H1120 H 0.74928 0.05337 0.73297 0.0
H1121 H 0.74456 0.05999 0.71008 0.0
H1122 H 0.70994 0.05829 0.71557 0.0
H1123 H 0.6883 0.02923 0.71808 0.0
H1124 H 0.45018 0.03962 0.56051 0.0
H1125 H 0.42164 0.05272 0.55041 0.0
H1126 H 0.4372 0.03868 0.49139 0.0
H1127 H 0.46587 0.02552 0.50156 0.0
H1128 H 0.42428 0.08417 0.52812 0.0
H1129 H 0.37867 0.01795 0.49266 0.0
H1130 H 0.39748 0.01709 0.50989 0.0
H1131 H 0.4034 0.02091 0.48613 0.0
C1132 C 0.44726 0.03904 0.54537 0.0
C1133 C 0.45995 0.03152 0.53174 0.0
C1134 C 0.43105 0.04654 0.53963 0.0
C1135 C 0.42726 0.04653 0.52017 0.0
C1136 C 0.43974 0.03855 0.50646 0.0
H1137 H 0.3347 0.09359 0.4666 0.0
H1138 H 0.36275 0.07744 0.47218 0.0
C1139 C 0.45606 0.03109 0.51224 0.0
C1140 C 0.41103 0.0562 0.51453 0.0
H1141 H 0.36677 0.04785 0.4926 0.0
C1142 C 0.41171 0.07626 0.52031 0.0
C1143 C 0.39479 0.04583 0.50418 0.0
C1144 C 0.39334 0.02423 0.49789 0.0
C1145 C 0.3965 0.08626 0.51617 0.0
C1146 C 0.37993 0.07582 0.5064 0.0
C1147 C 0.37944 0.0558 0.50019 0.0
C1148 C 0.3628 0.08538 0.503 0.0
C1149 C 0.39841 0.10794 0.52215 0.0
C1150 C 0.35334 0.09494 0.51849 0.0
C1151 C 0.33741 0.10426 0.51536 0.0
C1152 C 0.33046 0.10403 0.49667 0.0
C1153 C 0.33973 0.09411 0.48118 0.0
C1154 C 0.35573 0.08484 0.48433 0.0
H1155 H 0.41367 0.11421 0.52408 0.0
H1156 H 0.39148 0.11495 0.51144 0.0
H1157 H 0.39136 0.11149 0.53604 0.0
H1158 H 0.35827 0.09515 0.53305 0.0
H1159 H 0.33052 0.1116 0.52763 0.0
H1160 H 0.58625 0.50957 0.57214 0.0
H1161 H 0.6121 0.48908 0.57239 0.0
H1162 H 0.64684 0.52555 0.53962 0.0
H1163 H 0.62135 0.54636 0.53975 0.0
H1164 H 0.62874 0.46861 0.54077 0.0
H1165 H 0.68302 0.52168 0.58388 0.0
H1166 H 0.658 0.52514 0.583 0.0
H1167 H 0.67339 0.53052 0.56393 0.0
C1168 C 0.59951 0.51339 0.56524 0.0
C1169 C 0.60177 0.52964 0.55597 0.0
C1170 C 0.61421 0.50161 0.5653 0.0
C1171 C 0.63149 0.50596 0.55627 0.0
C1172 C 0.63377 0.52214 0.54699 0.0
H1173 H 0.73476 0.45648 0.52562 0.0
H1174 H 0.70811 0.47584 0.53136 0.0
C1175 C 0.6191 0.53389 0.54689 0.0
C1176 C 0.64688 0.4932 0.55577 0.0
H1177 H 0.69428 0.49329 0.56659 0.0
C1178 C 0.64302 0.4739 0.54662 0.0
C1179 C 0.66547 0.50016 0.56345 0.0
C1180 C 0.67021 0.52045 0.57429 0.0
C1181 C 0.65748 0.4616 0.54421 0.0
C1182 C 0.6762 0.46873 0.55143 0.0
C1183 C 0.67993 0.48788 0.56102 0.0
C1184 C 0.69235 0.45689 0.54835 0.0
C1185 C 0.6528 0.44131 0.53332 0.0
C1186 C 0.69244 0.4399 0.55621 0.0
C1187 C 0.70768 0.42874 0.55294 0.0
C1188 C 0.72313 0.43444 0.54181 0.0
C1189 C 0.72308 0.45162 0.53421 0.0
C1190 C 0.70787 0.46274 0.53749 0.0
H1191 H 0.63889 0.43942 0.52531 0.0
H1192 H 0.66419 0.43758 0.52306 0.0
H1193 H 0.65189 0.43094 0.54354 0.0
H1194 H 0.68074 0.43531 0.56491 0.0
H1195 H 0.70732 0.41564 0.55909 0.0
H1196 H 0.73301 0.22183 0.36971 0.0
H1197 H 0.7334 0.24665 0.39826 0.0
H1198 H 0.72828 0.28992 0.36267 0.0
H1199 H 0.72783 0.26512 0.33402 0.0
H1200 H 0.76055 0.27819 0.407 0.0
H1201 H 0.6883 0.30192 0.40294 0.0
H1202 H 0.69449 0.27972 0.38911 0.0
H1203 H 0.7017 0.30249 0.38152 0.0
C1204 C 0.73183 0.23662 0.36797 0.0
C1205 C 0.73045 0.24154 0.34961 0.0
C1206 C 0.73198 0.25076 0.38429 0.0
C1207 C 0.73068 0.2701 0.38262 0.0
C1208 C 0.72888 0.27502 0.36433 0.0
H1209 H 0.74594 0.37835 0.46218 0.0
H1210 H 0.74031 0.35289 0.43412 0.0
C1211 C 0.72865 0.26084 0.34797 0.0
C1212 C 0.73267 0.28526 0.39994 0.0
H1213 H 0.71046 0.32125 0.42585 0.0
C1214 C 0.74954 0.28751 0.4112 0.0
C1215 C 0.71832 0.29746 0.40533 0.0
C1216 C 0.6996 0.29521 0.39421 0.0
C1217 C 0.7526 0.30183 0.42753 0.0
C1218 C 0.73827 0.31404 0.43292 0.0
C1219 C 0.7214 0.31183 0.42168 0.0
C1220 C 0.74072 0.32934 0.45008 0.0
C1221 C 0.77135 0.30408 0.43863 0.0
C1222 C 0.74246 0.3245 0.46839 0.0
C1223 C 0.7457 0.339 0.48447 0.0
C1224 C 0.74721 0.35863 0.48252 0.0
C1225 C 0.74495 0.3634 0.46419 0.0
C1226 C 0.74169 0.34887 0.44813 0.0
H1227 H 0.78247 0.29676 0.43017 0.0
H1228 H 0.77679 0.31959 0.44308 0.0
H1229 H 0.7691 0.2975 0.45174 0.0
H1230 H 0.74144 0.30949 0.47023 0.0
H1231 H 0.74725 0.33482 0.49838 0.0
H1232 H 0.52389 0.00144 0.94018 0.0
H1233 H 0.5428 0.00119 0.91123 0.0
H1234 H 0.56971 0.05873 0.9334 0.0
H1235 H 0.55093 0.05878 0.96264 0.0
H1236 H 0.5454 0.0251 0.88393 0.0
H1237 H 0.61544 0.02834 0.92192 0.0
H1238 H 0.59288 0.02337 0.93317 0.0
H1239 H 0.60159 0.04771 0.93048 0.0
C1240 C 0.53377 0.01406 0.93875 0.0
C1241 C 0.5361 0.03011 0.95345 0.0
C1242 C 0.54454 0.01392 0.92225 0.0
C1243 C 0.55788 0.02982 0.92027 0.0
C1244 C 0.55977 0.04616 0.9348 0.0
H1245 H 0.63965 0.04331 0.82969 0.0
H1246 H 0.61956 0.04918 0.85763 0.0
C1247 C 0.54899 0.04626 0.95138 0.0
C1248 C 0.56994 0.02892 0.9031 0.0
H1249 H 0.61615 0.0282 0.88863 0.0
C1250 C 0.56088 0.02585 0.88496 0.0
C1251 C 0.59014 0.02987 0.90447 0.0
C1252 C 0.60064 0.03234 0.92352 0.0
C1253 C 0.57144 0.02363 0.86815 0.0
C1254 C 0.59158 0.02424 0.86953 0.0
C1255 C 0.6007 0.02773 0.88765 0.0
C1256 C 0.60342 0.02075 0.85234 0.0
C1257 C 0.56099 0.02072 0.84904 0.0
C1258 C 0.60114 0.00274 0.84023 0.0
C1259 C 0.61264 0.99929 0.82428 0.0
C1260 C 0.62667 0.01381 0.82017 0.0
C1261 C 0.62895 0.03183 0.8324 0.0
C1262 C 0.6175 0.03522 0.84838 0.0
H1263 H 0.54649 0.02554 0.85044 0.0
H1264 H 0.56918 0.02872 0.83889 0.0
H1265 H 0.55928 0.00511 0.84282 0.0
H1266 H 0.5906 0.99125 0.84324 0.0
H1267 H 0.61054 0.98525 0.8152 0.0
H1268 H 0.26915 0.24784 0.33133 0.0
H1269 H 0.26715 0.22661 0.35541 0.0
H1270 H 0.32779 0.2405 0.36746 0.0
H1271 H 0.32985 0.26218 0.34364 0.0
H1272 H 0.28682 0.19408 0.35837 0.0
H1273 H 0.30336 0.25362 0.42022 0.0
H1274 H 0.29659 0.25796 0.39683 0.0
H1275 H 0.3204 0.25266 0.40139 0.0
C1276 C 0.28206 0.24645 0.33915 0.0
C1277 C 0.29963 0.25686 0.33571 0.0
C1278 C 0.28091 0.23422 0.35282 0.0
C1279 C 0.29725 0.2322 0.36341 0.0
C1280 C 0.31494 0.2421 0.35964 0.0
H1281 H 0.30839 0.17156 0.46026 0.0
H1282 H 0.31496 0.18999 0.43417 0.0
C1283 C 0.31613 0.25432 0.3459 0.0
C1284 C 0.29558 0.21996 0.37858 0.0
H1285 H 0.29878 0.22186 0.42699 0.0
C1286 C 0.28949 0.20012 0.37338 0.0
C1287 C 0.29911 0.22788 0.39813 0.0
C1288 C 0.30509 0.24921 0.40459 0.0
C1289 C 0.28682 0.18797 0.38721 0.0
C1290 C 0.28995 0.19597 0.4068 0.0
C1291 C 0.29638 0.21575 0.41197 0.0
C1292 C 0.28607 0.18423 0.42223 0.0
C1293 C 0.28088 0.16665 0.38068 0.0
C1294 C 0.2676 0.17501 0.42431 0.0
C1295 C 0.2638 0.16443 0.43917 0.0
C1296 C 0.27837 0.163 0.45238 0.0
C1297 C 0.29684 0.17233 0.45032 0.0
C1298 C 0.30063 0.18288 0.43542 0.0
H1299 H 0.2846 0.16201 0.36554 0.0
H1300 H 0.28776 0.15784 0.38976 0.0
H1301 H 0.26512 0.1636 0.38173 0.0
H1302 H 0.25603 0.17623 0.41458 0.0
H1303 H 0.24939 0.15755 0.44039 0.0
H1304 H 0.5076 0.48672 0.94923 0.0
H1305 H 0.4904 0.49685 0.92321 0.0
H1306 H 0.54413 0.51493 0.89882 0.0
H1307 H 0.56146 0.50424 0.92445 0.0
H1308 H 0.49226 0.5336 0.91285 0.0
H1309 H 0.515 0.47967 0.85357 0.0
H1310 H 0.51787 0.4775 0.87842 0.0
H1311 H 0.53422 0.49408 0.86798 0.0
C1312 C 0.51577 0.49262 0.9382 0.0
C1313 C 0.53591 0.49455 0.93886 0.0
C1314 C 0.50592 0.49854 0.92342 0.0
C1315 C 0.51598 0.5064 0.90895 0.0
C1316 C 0.53608 0.50859 0.90967 0.0
H1317 H 0.47477 0.5457 0.80693 0.0
H1318 H 0.49502 0.5391 0.83282 0.0
C1319 C 0.54596 0.50267 0.92445 0.0
C1320 C 0.50537 0.51251 0.89329 0.0
H1321 H 0.49672 0.50315 0.84496 0.0
C1322 C 0.49324 0.52696 0.898 0.0
C1323 C 0.50674 0.50387 0.87393 0.0
C1324 C 0.51902 0.48781 0.86811 0.0
C1325 C 0.48242 0.533 0.88386 0.0
C1326 C 0.48355 0.52414 0.86455 0.0
C1327 C 0.49593 0.50994 0.85978 0.0
C1328 C 0.47133 0.52875 0.8492 0.0
C1329 C 0.46998 0.54892 0.8897 0.0
C1330 C 0.45134 0.52496 0.84977 0.0
C1331 C 0.43976 0.52867 0.83504 0.0
C1332 C 0.44795 0.53618 0.81937 0.0
C1333 C 0.46801 0.53998 0.81882 0.0
C1334 C 0.4796 0.53621 0.83358 0.0
H1335 H 0.47473 0.55777 0.90375 0.0
H1336 H 0.47007 0.5586 0.87883 0.0
H1337 H 0.45502 0.54241 0.89103 0.0
H1338 H 0.44469 0.51883 0.86149 0.0
H1339 H 0.42438 0.52549 0.83588 0.0
H1340 H 0.74203 0.80823 0.18014 0.0
H1341 H 0.74402 0.78521 0.15054 0.0
H1342 H 0.75142 0.74027 0.18349 0.0
H1343 H 0.7493 0.76319 0.21314 0.0
H1344 H 0.77544 0.76697 0.14032 0.0
H1345 H 0.7124 0.71254 0.14277 0.0
H1346 H 0.71489 0.73603 0.1578 0.0
H1347 H 0.72737 0.71698 0.16402 0.0
C1348 C 0.7438 0.79336 0.18106 0.0
C1349 C 0.74553 0.78751 0.19896 0.0
C1350 C 0.7449 0.78023 0.16415 0.0
C1351 C 0.74772 0.76098 0.16478 0.0
C1352 C 0.74882 0.75493 0.18263 0.0
H1353 H 0.77748 0.66572 0.08041 0.0
H1354 H 0.77054 0.68723 0.10972 0.0
C1355 C 0.74762 0.76805 0.19957 0.0
C1356 C 0.75121 0.74779 0.14687 0.0
H1357 H 0.73568 0.70412 0.11951 0.0
C1358 C 0.76664 0.7533 0.1357 0.0
C1359 C 0.7398 0.7299 0.14092 0.0
C1360 C 0.72258 0.72355 0.1519 0.0
C1361 C 0.77117 0.74131 0.1189 0.0
C1362 C 0.7598 0.72341 0.11298 0.0
C1363 C 0.74438 0.71785 0.12413 0.0
C1364 C 0.76372 0.71033 0.09519 0.0
C1365 C 0.78833 0.74769 0.10784 0.0
C1366 C 0.76199 0.71614 0.07732 0.0
C1367 C 0.76594 0.70391 0.06056 0.0
C1368 C 0.77166 0.6856 0.06135 0.0
C1369 C 0.7732 0.67976 0.07929 0.0
C1370 C 0.76919 0.692 0.09605 0.0
H1371 H 0.79808 0.75944 0.11657 0.0
H1372 H 0.79654 0.73537 0.10277 0.0
H1373 H 0.78338 0.75322 0.09511 0.0
H1374 H 0.75751 0.73013 0.07633 0.0
H1375 H 0.76451 0.70884 0.04699 0.0
H1376 H 0.0624 0.05803 0.11398 0.0
H1377 H 0.04745 0.05826 0.14518 0.0
H1378 H 0.99326 0.03501 0.11694 0.0
H1379 H 0.00813 0.03438 0.08578 0.0
H1380 H 0.01569 0.07819 0.15866 0.0
H1381 H 1.00024 0.99891 0.1561 0.0
H1382 H 0.01718 0.00946 0.14062 0.0
H1383 H 0.99192 0.00739 0.13534 0.0
C1384 C 0.04736 0.05273 0.11444 0.0
C1385 C 0.03644 0.04617 0.09743 0.0
C1386 C 0.03883 0.05297 0.13225 0.0
C1387 C 0.01932 0.04645 0.13334 0.0
C1388 C 0.00841 0.03984 0.1164 0.0
H1389 H 0.93485 0.03788 0.21963 0.0
H1390 H 0.95315 0.03742 0.19041 0.0
C1391 C 0.01688 0.03967 0.09862 0.0
C1392 C 0.01011 0.04716 0.15214 0.0
H1393 H 0.98529 0.01892 0.18056 0.0
C1394 C 0.00919 0.06524 0.16358 0.0
C1395 C 0.00166 0.03023 0.15845 0.0
C1396 C 0.00291 0.01037 0.14709 0.0
C1397 C 0.99942 0.06691 0.18089 0.0
C1398 C 0.99069 0.04999 0.18706 0.0
C1399 C 0.99194 0.03188 0.17577 0.0
C1400 C 0.97972 0.05073 0.2049 0.0
C1401 C 0.99796 0.08681 0.19208 0.0
C1402 C 0.98862 0.05828 0.22278 0.0
C1403 C 0.97818 0.05864 0.23954 0.0
C1404 C 0.95866 0.05131 0.23873 0.0
C1405 C 0.94984 0.04368 0.22078 0.0
C1406 C 0.96028 0.04337 0.20406 0.0
H1407 H 0.0013 0.09828 0.1832 0.0
H1408 H 0.9834 0.08785 0.19782 0.0
H1409 H 0.00836 0.08966 0.20436 0.0
H1410 H 0.00371 0.06368 0.22379 0.0
H1411 H 0.98544 0.06449 0.25313 0.0
H1412 H 0.28529 0.7601 0.18281 0.0
H1413 H 0.27586 0.78597 0.16663 0.0
H1414 H 0.32555 0.78195 0.13143 0.0
H1415 H 0.33507 0.75633 0.1478 0.0
H1416 H 0.31702 0.82045 0.14322 0.0
H1417 H 0.25343 0.77075 0.11172 0.0
H1418 H 0.25531 0.77523 0.13741 0.0
H1419 H 0.27278 0.76251 0.12381 0.0
C1420 C 0.29439 0.76516 0.17196 0.0
C1421 C 0.3109 0.75646 0.16651 0.0
C1422 C 0.28895 0.77978 0.16264 0.0
C1423 C 0.29985 0.78565 0.14763 0.0
C1424 C 0.31693 0.77763 0.14296 0.0
H1425 H 0.27116 0.82918 0.04738 0.0
H1426 H 0.27955 0.81123 0.07221 0.0
C1427 C 0.32238 0.76306 0.15231 0.0
C1428 C 0.29278 0.7989 0.13567 0.0
H1429 H 0.25774 0.80159 0.10292 0.0
C1430 C 0.30396 0.81646 0.13455 0.0
C1431 C 0.27585 0.7935 0.12418 0.0
C1432 C 0.26368 0.77442 0.12414 0.0
C1433 C 0.29881 0.82865 0.12202 0.0
C1434 C 0.28194 0.82318 0.11049 0.0
C1435 C 0.27059 0.80579 0.11188 0.0
C1436 C 0.27659 0.83441 0.09572 0.0
C1437 C 0.31186 0.84687 0.12065 0.0
C1438 C 0.27189 0.85336 0.10071 0.0
C1439 C 0.26705 0.86373 0.08649 0.0
C1440 C 0.26679 0.85527 0.06704 0.0
C1441 C 0.27124 0.83618 0.06218 0.0
C1442 C 0.27604 0.82586 0.07637 0.0
H1443 H 0.32602 0.84714 0.12779 0.0
H1444 H 0.31413 0.84837 0.10545 0.0
H1445 H 0.30511 0.85958 0.12765 0.0
H1446 H 0.27192 0.86012 0.11559 0.0
H1447 H 0.26365 0.87839 0.09071 0.0
H1448 H 0.04763 0.47148 0.05939 0.0
H1449 H 0.06231 0.47869 0.09139 0.0
H1450 H 0.01034 0.4993 0.11417 0.0
H1451 H 0.99517 0.4913 0.08212 0.0
H1452 H 0.06941 0.51258 0.11625 0.0
H1453 H 0.0198 0.46008 0.14819 0.0
H1454 H 0.02058 0.45998 0.12273 0.0
H1455 H 0.0085 0.47762 0.1378 0.0
C1456 C 0.03919 0.47733 0.07122 0.0
C1457 C 0.02009 0.48048 0.06823 0.0
C1458 C 0.04768 0.4816 0.0895 0.0
C1459 C 0.03733 0.48919 0.10525 0.0
C1460 C 0.01846 0.49304 0.10229 0.0
H1461 H 0.0761 0.51768 0.2256 0.0
H1462 H 0.05756 0.51488 0.19565 0.0
C1463 C 0.00989 0.48867 0.08393 0.0
C1464 C 0.04652 0.49294 0.12465 0.0
H1465 H 0.04398 0.47896 0.1686 0.0
C1466 C 0.06379 0.50529 0.12772 0.0
C1467 C 0.03917 0.48342 0.13962 0.0
C1468 C 0.02109 0.4694 0.13696 0.0
C1469 C 0.07404 0.50817 0.14521 0.0
C1470 C 0.06691 0.49833 0.15998 0.0
C1471 C 0.04938 0.48644 0.15719 0.0
C1472 C 0.07789 0.49965 0.17815 0.0
C1473 C 0.09249 0.52164 0.14777 0.0
C1474 C 0.09528 0.4917 0.17823 0.0
C1475 C 0.10584 0.49315 0.19529 0.0
C1476 C 0.09923 0.50264 0.21261 0.0
C1477 C 0.08164 0.51035 0.21251 0.0
C1478 C 0.07101 0.50876 0.19543 0.0
H1479 H 0.0938 0.53132 0.13686 0.0
H1480 H 0.09353 0.53065 0.16223 0.0
H1481 H 0.10477 0.51297 0.14634 0.0
H1482 H 0.10069 0.4844 0.16505 0.0
H1483 H 0.11931 0.48704 0.19485 0.0
H1484 H 0.36621 0.72849 0.22358 0.0
H1485 H 0.39101 0.73724 0.24896 0.0
H1486 H 0.34788 0.73383 0.29159 0.0
H1487 H 0.32295 0.72543 0.26637 0.0
H1488 H 0.39528 0.76804 0.28339 0.0
H1489 H 0.38531 0.69302 0.29931 0.0
H1490 H 0.37671 0.69913 0.27727 0.0
H1491 H 0.36394 0.70474 0.29895 0.0
C1492 C 0.36194 0.73008 0.23835 0.0
C1493 C 0.3426 0.72608 0.24294 0.0
C1494 C 0.37614 0.73496 0.25283 0.0
C1495 C 0.37127 0.73584 0.27209 0.0
C1496 C 0.35193 0.73291 0.27677 0.0
H1497 H 0.44119 0.77445 0.37574 0.0
H1498 H 0.41652 0.76954 0.35034 0.0
C1499 C 0.33773 0.7281 0.26234 0.0
C1500 C 0.38643 0.73875 0.28723 0.0
H1501 H 0.4067 0.71583 0.31971 0.0
C1502 C 0.39781 0.75666 0.29136 0.0
C1503 C 0.38981 0.72375 0.29738 0.0
C1504 C 0.37844 0.704 0.29298 0.0
C1505 C 0.41231 0.76009 0.30567 0.0
C1506 C 0.41537 0.74523 0.31613 0.0
C1507 C 0.4042 0.72722 0.31175 0.0
C1508 C 0.43021 0.74805 0.3316 0.0
C1509 C 0.42442 0.77947 0.30935 0.0
C1510 C 0.44582 0.73722 0.32966 0.0
C1511 C 0.45995 0.73996 0.34416 0.0
C1512 C 0.4586 0.75345 0.36095 0.0
C1513 C 0.4427 0.76397 0.36299 0.0
C1514 C 0.42864 0.76129 0.34844 0.0
H1515 H 0.42307 0.78772 0.29744 0.0
H1516 H 0.41972 0.78815 0.32264 0.0
H1517 H 0.43974 0.77766 0.3114 0.0
H1518 H 0.4472 0.72684 0.31681 0.0
H1519 H 0.47199 0.7316 0.34214 0.0
H1520 H 0.01719 0.44625 0.98108 0.0
H1521 H 0.02319 0.41592 0.96108 0.0
H1522 H 0.01248 0.38587 0.00891 0.0
H1523 H 0.00644 0.41619 0.02903 0.0
H1524 H 0.04477 0.376 0.98891 0.0
H1525 H 0.9823 0.37159 0.93951 0.0
H1526 H 0.99782 0.39392 0.94157 0.0
H1527 H 0.98497 0.38795 0.96205 0.0
C1528 C 0.01596 0.43316 0.9873 0.0
C1529 C 0.0112 0.43359 0.0066 0.0
C1530 C 0.01938 0.41584 0.97585 0.0
C1531 C 0.01796 0.3986 0.98342 0.0
C1532 C 0.01358 0.39902 0.00277 0.0
H1533 H 0.00891 0.28321 0.91624 0.0
H1534 H 0.00383 0.31259 0.93825 0.0
C1535 C 0.01021 0.41635 0.01426 0.0
C1536 C 0.02113 0.38013 0.97117 0.0
H1537 H 0.00485 0.34932 0.93051 0.0
C1538 C 0.03602 0.37011 0.97618 0.0
C1539 C 0.0095 0.37235 0.95472 0.0
C1540 C 0.99263 0.38189 0.9492 0.0
C1541 C 0.03982 0.35268 0.96496 0.0
C1542 C 0.02863 0.34527 0.94812 0.0
C1543 C 0.01353 0.35512 0.94332 0.0
C1544 C 0.03217 0.32722 0.93534 0.0
C1545 C 0.05558 0.3422 0.9714 0.0
C1546 C 0.04978 0.32571 0.92632 0.0
C1547 C 0.05277 0.30888 0.91377 0.0
C1548 C 0.03813 0.29332 0.90987 0.0
C1549 C 0.0205 0.29491 0.91893 0.0
C1550 C 0.01756 0.3117 0.93151 0.0
H1551 H 0.05914 0.34681 0.9869 0.0
H1552 H 0.0515 0.3263 0.9686 0.0
H1553 H 0.06869 0.34552 0.96335 0.0
H1554 H 0.06111 0.33767 0.92874 0.0
H1555 H 0.06646 0.30819 0.90694 0.0
H1556 H 0.68002 0.80299 0.25568 0.0
H1557 H 0.64875 0.79347 0.26888 0.0
H1558 H 0.67643 0.76375 0.30785 0.0
H1559 H 0.70764 0.77328 0.29469 0.0
H1560 H 0.62892 0.75473 0.27552 0.0
H1561 H 0.64991 0.80812 0.34137 0.0
H1562 H 0.66202 0.80874 0.31905 0.0
H1563 H 0.66659 0.79111 0.33357 0.0
C1564 C 0.67927 0.79398 0.2667 0.0
C1565 C 0.69601 0.7887 0.27417 0.0
C1566 C 0.66148 0.78861 0.27424 0.0
C1567 C 0.66036 0.77808 0.28944 0.0
C1568 C 0.67705 0.77197 0.2962 0.0
H1569 H 0.57166 0.75473 0.36978 0.0
H1570 H 0.60133 0.75714 0.3521 0.0
C1571 C 0.6948 0.7773 0.28863 0.0
C1572 C 0.64209 0.77496 0.29935 0.0
H1573 H 0.62014 0.78907 0.34129 0.0
C1574 C 0.62693 0.7622 0.28989 0.0
C1575 C 0.63963 0.78477 0.31808 0.0
C1576 C 0.65531 0.79908 0.32864 0.0
C1577 C 0.60938 0.75875 0.29886 0.0
C1578 C 0.60687 0.76868 0.31758 0.0
C1579 C 0.62209 0.78143 0.32698 0.0
C1580 C 0.58856 0.76628 0.32773 0.0
C1581 C 0.59388 0.7442 0.28836 0.0
C1582 C 0.57153 0.77076 0.31999 0.0
C1583 C 0.55451 0.76932 0.33004 0.0
C1584 C 0.55425 0.7636 0.34815 0.0
C1585 C 0.57135 0.7592 0.35589 0.0
C1586 C 0.58833 0.76054 0.34579 0.0
H1587 H 0.59983 0.73397 0.27692 0.0
H1588 H 0.58591 0.73577 0.29832 0.0
H1589 H 0.58359 0.75193 0.28152 0.0
H1590 H 0.57145 0.77571 0.30633 0.0
H1591 H 0.54163 0.77293 0.32371 0.0
H1592 H 0.04414 0.06294 0.98045 0.0
H1593 H 0.047 0.08649 0.9583 0.0
H1594 H 0.04926 0.13314 0.00634 0.0
H1595 H 0.04681 0.10967 0.02834 0.0
H1596 H 0.02107 0.11129 0.95453 0.0
H1597 H 0.09164 0.15346 0.97431 0.0
H1598 H 0.08472 0.13033 0.98153 0.0
H1599 H 0.07696 0.15202 0.99473 0.0
C1600 C 0.04583 0.07827 0.98618 0.0
C1601 C 0.04557 0.08466 0.00597 0.0
C1602 C 0.04735 0.09168 0.97358 0.0
C1603 C 0.04864 0.11162 0.98065 0.0
C1604 C 0.04883 0.11791 1.00054 0.0
H1605 H 0.03377 0.21793 0.94318 0.0
H1606 H 0.03852 0.19118 0.95989 0.0
C1607 C 0.04737 0.10452 0.0131 0.0
C1608 C 0.04782 0.12576 0.96738 0.0
H1609 H 0.06957 0.16862 0.95731 0.0
C1610 C 0.03184 0.12366 0.95489 0.0
C1611 C 0.06186 0.14191 0.96788 0.0
C1612 C 0.07985 0.14448 0.9802 0.0
C1613 C 0.02906 0.13772 0.94356 0.0
C1614 C 0.04276 0.1542 0.94458 0.0
C1615 C 0.05903 0.15601 0.95662 0.0
C1616 C 0.03995 0.17025 0.9341 0.0
C1617 C 0.01106 0.13526 0.93124 0.0
C1618 C 0.03927 0.16738 0.91401 0.0
C1619 C 0.03649 0.18267 0.90436 0.0
C1620 C 0.03444 0.20113 0.91465 0.0
C1621 C 0.03526 0.20392 0.93478 0.0
C1622 C 0.03802 0.18866 0.94438 0.0
H1623 H 1.00022 0.12384 0.93499 0.0
H1624 H 0.00459 0.14904 0.93267 0.0
H1625 H 0.01469 0.1311 0.91602 0.0
H1626 H 0.04103 0.15335 0.9058 0.0
H1627 H 0.03606 0.18005 0.88886 0.0
H1628 H 0.33043 0.25469 0.27438 0.0
H1629 H 0.35729 0.25552 0.25268 0.0
H1630 H 0.36379 0.31786 0.26405 0.0
H1631 H 0.33713 0.31717 0.28618 0.0
H1632 H 0.36195 0.27334 0.21942 0.0
H1633 H 0.4177 0.30381 0.27578 0.0
H1634 H 0.39416 0.29337 0.28131 0.0
H1635 H 0.39747 0.31713 0.27504 0.0
C1636 C 0.33765 0.26859 0.27239 0.0
C1637 C 0.33176 0.28587 0.28217 0.0
C1638 C 0.35292 0.26903 0.25988 0.0
C1639 C 0.36271 0.28673 0.25696 0.0
C1640 C 0.35662 0.30404 0.26633 0.0
H1641 H 0.46626 0.30852 0.19185 0.0
H1642 H 0.43771 0.31259 0.21107 0.0
C1643 C 0.34127 0.30362 0.27882 0.0
C1644 C 0.37933 0.28691 0.24416 0.0
H1645 H 0.42791 0.29811 0.24397 0.0
C1646 C 0.37637 0.27882 0.22475 0.0
C1647 C 0.39811 0.29414 0.25114 0.0
C1648 C 0.40219 0.30249 0.27198 0.0
C1649 C 0.39169 0.27768 0.21215 0.0
C1650 C 0.41055 0.28443 0.21924 0.0
C1651 C 0.41345 0.29293 0.23855 0.0
C1652 C 0.42754 0.28205 0.20707 0.0
C1653 C 0.38751 0.26938 0.19132 0.0
C1654 C 0.43142 0.26352 0.1986 0.0
C1655 C 0.44766 0.26115 0.18759 0.0
C1656 C 0.46051 0.27725 0.18495 0.0
C1657 C 0.45665 0.29581 0.19354 0.0
C1658 C 0.44035 0.29817 0.20454 0.0
H1659 H 0.37247 0.27048 0.18714 0.0
H1660 H 0.39724 0.27687 0.18191 0.0
H1661 H 0.38961 0.25383 0.18883 0.0
H1662 H 0.42201 0.25083 0.20072 0.0
H1663 H 0.45024 0.24663 0.18132 0.0
H1664 H 0.52306 0.44269 0.02755 0.0
H1665 H 0.52168 0.4229 0.05294 0.0
H1666 H 0.57169 0.39756 0.03073 0.0
H1667 H 0.57278 0.41718 0.00505 0.0
H1668 H 0.54267 0.37049 0.03477 0.0
H1669 H 0.55175 0.4236 0.10183 0.0
H1670 H 0.53334 0.42872 0.08643 0.0
H1671 H 0.55776 0.43004 0.07879 0.0
C1672 C 0.53405 0.43329 0.02849 0.0
C1673 C 0.54814 0.4315 0.01464 0.0
C1674 C 0.53332 0.42205 0.04302 0.0
C1675 C 0.54675 0.40893 0.04395 0.0
C1676 C 0.56128 0.40769 0.0304 0.0
H1677 H 0.5438 0.33597 0.13334 0.0
H1678 H 0.55395 0.35993 0.11293 0.0
C1679 C 0.56197 0.41892 0.01582 0.0
C1680 C 0.54421 0.39499 0.05758 0.0
H1681 H 0.53689 0.39167 0.1046 0.0
C1682 C 0.54169 0.37514 0.05007 0.0
C1683 C 0.5431 0.40099 0.07757 0.0
C1684 C 0.54683 0.422 0.08665 0.0
C1685 C 0.53731 0.36121 0.06188 0.0
C1686 C 0.535 0.36728 0.08169 0.0
C1687 C 0.53836 0.38705 0.08936 0.0
C1688 C 0.52859 0.35329 0.09451 0.0
C1689 C 0.53512 0.34009 0.05299 0.0
C1690 C 0.51078 0.34194 0.09119 0.0
C1691 C 0.50495 0.32824 0.10277 0.0
C1692 C 0.51676 0.32571 0.11803 0.0
C1693 C 0.53438 0.3375 0.12168 0.0
C1694 C 0.54021 0.35121 0.11004 0.0
H1695 H 0.54268 0.3377 0.03923 0.0
H1696 H 0.54076 0.33117 0.06278 0.0
H1697 H 0.51971 0.33499 0.05001 0.0
H1698 H 0.50139 0.34361 0.07954 0.0
H1699 H 0.49124 0.31952 0.09964 0.0
H1700 H 0.65819 0.21382 0.28975 0.0
H1701 H 0.63104 0.22714 0.27676 0.0
H1702 H 0.67028 0.26274 0.24699 0.0
H1703 H 0.69738 0.24932 0.25989 0.0
H1704 H 0.62212 0.26678 0.27734 0.0
H1705 H 0.63496 0.22798 0.20448 0.0
H1706 H 0.6455 0.22221 0.22581 0.0
H1707 H 0.65524 0.24324 0.21633 0.0
C1708 C 0.66094 0.22478 0.28074 0.0
C1709 C 0.67968 0.23067 0.27577 0.0
C1710 C 0.64549 0.23234 0.27332 0.0
C1711 C 0.64867 0.24573 0.26073 0.0
C1712 C 0.66754 0.25226 0.25651 0.0
H1713 H 0.57193 0.28906 0.18565 0.0
H1714 H 0.59975 0.2833 0.20384 0.0
C1715 C 0.68296 0.24471 0.26394 0.0
C1716 C 0.63225 0.25187 0.25105 0.0
H1717 H 0.61036 0.24819 0.20725 0.0
C1718 C 0.61952 0.26277 0.26202 0.0
C1719 C 0.62893 0.24655 0.23107 0.0
C1720 C 0.64175 0.23422 0.21869 0.0
C1721 C 0.60362 0.26873 0.25346 0.0
C1722 C 0.60021 0.26327 0.23348 0.0
C1723 C 0.61304 0.25244 0.22254 0.0
C1724 C 0.58321 0.26814 0.22357 0.0
C1725 C 0.59083 0.28107 0.26584 0.0
C1726 C 0.56463 0.26156 0.22862 0.0
C1727 C 0.54868 0.26489 0.21829 0.0
C1728 C 0.551 0.27469 0.20256 0.0
C1729 C 0.56962 0.28147 0.19768 0.0
C1730 C 0.58555 0.27819 0.20806 0.0
H1731 H 0.59836 0.28864 0.2793 0.0
H1732 H 0.58561 0.29202 0.25813 0.0
H1733 H 0.57823 0.2717 0.26979 0.0
H1734 H 0.56248 0.25335 0.24022 0.0
H1735 H 0.53456 0.25937 0.22237 0.0
H1736 H 0.50842 0.09597 1.00005 0.0
H1737 H 0.51404 0.12908 0.0181 0.0
H1738 H 0.48439 0.11015 0.06599 0.0
H1739 H 0.47874 0.07735 0.0482 0.0
H1740 H 0.47274 0.14375 0.05714 0.0
H1741 H 0.55218 0.14871 0.063 0.0
H1742 H 0.54191 0.14281 0.03916 0.0
H1743 H 0.53733 0.12605 0.05555 0.0
C1744 C 0.5032 0.09891 0.01446 0.0
C1745 C 0.49299 0.08408 0.02262 0.0
C1746 C 0.50644 0.11779 0.02476 0.0
C1747 C 0.49972 0.12205 0.04344 0.0
C1748 C 0.4896 0.10724 0.05157 0.0
H1749 H 0.52964 0.21018 0.13986 0.0
H1750 H 0.52523 0.18157 0.11496 0.0
C1751 C 0.48631 0.08849 0.04132 0.0
C1752 C 0.50299 0.14183 0.0548 0.0
H1753 H 0.53779 0.17569 0.07775 0.0
C1754 C 0.48697 0.15085 0.0615 0.0
C1755 C 0.52156 0.15096 0.06059 0.0
C1756 C 0.53927 0.14164 0.05437 0.0
C1757 C 0.48897 0.16847 0.07427 0.0
C1758 C 0.50754 0.17752 0.08021 0.0
C1759 C 0.52358 0.16876 0.0731 0.0
C1760 C 0.51058 0.19527 0.0949 0.0
C1761 C 0.47117 0.17675 0.08198 0.0
C1762 C 0.50396 0.21258 0.09184 0.0
C1763 C 0.50634 0.22897 0.10614 0.0
C1764 C 0.51554 0.2284 0.1237 0.0
C1765 C 0.52244 0.21113 0.12655 0.0
C1766 C 0.51999 0.19476 0.11229 0.0
H1767 H 0.45824 0.16594 0.07931 0.0
H1768 H 0.47279 0.18209 0.09761 0.0
H1769 H 0.46874 0.18914 0.07483 0.0
H1770 H 0.49697 0.2134 0.07839 0.0
H1771 H 0.501 0.24209 0.10342 0.0
H1772 H 0.29436 0.35838 0.75142 0.0
H1773 H 0.31868 0.3865 0.75525 0.0
H1774 H 0.31814 0.38478 0.69414 0.0
H1775 H 0.29324 0.35709 0.69022 0.0
H1776 H 0.355 0.39141 0.74091 0.0
H1777 H 0.30811 0.44016 0.71454 0.0
H1778 H 0.2989 0.41704 0.72055 0.0
H1779 H 0.31036 0.4183 0.69812 0.0
C1780 C 0.29929 0.36408 0.73879 0.0
C1781 C 0.2917 0.35561 0.72053 0.0
C1782 C 0.3133 0.38005 0.741 0.0
C1783 C 0.31998 0.38791 0.72502 0.0
C1784 C 0.31291 0.37915 0.7067 0.0
H1785 H 0.41987 0.47515 0.72917 0.0
H1786 H 0.39778 0.4453 0.72205 0.0
C1787 C 0.29884 0.36319 0.70447 0.0
C1788 C 0.33415 0.40545 0.72767 0.0
H1789 H 0.34046 0.45272 0.72159 0.0
C1790 C 0.35187 0.40481 0.73664 0.0
C1791 C 0.3299 0.42296 0.72231 0.0
C1792 C 0.31073 0.4248 0.7135 0.0
C1793 C 0.36547 0.42125 0.74043 0.0
C1794 C 0.36134 0.43868 0.73477 0.0
C1795 C 0.34364 0.43929 0.72576 0.0
C1796 C 0.3748 0.45672 0.73884 0.0
C1797 C 0.38387 0.41997 0.75098 0.0
C1798 C 0.36904 0.47317 0.75024 0.0
C1799 C 0.38154 0.49028 0.75419 0.0
C1800 C 0.40007 0.49128 0.74677 0.0
C1801 C 0.40575 0.47482 0.7352 0.0
C1802 C 0.39319 0.45771 0.7312 0.0
H1803 H 0.3828 0.40719 0.75836 0.0
H1804 H 0.39559 0.41861 0.74061 0.0
H1805 H 0.38784 0.4332 0.76175 0.0
H1806 H 0.35489 0.47273 0.75623 0.0
H1807 H 0.37668 0.50268 0.76313 0.0
H1808 H 0.28854 0.71025 0.81907 0.0
H1809 H 0.31458 0.68973 0.8139 0.0
H1810 H 0.27326 0.63882 0.80725 0.0
H1811 H 0.24727 0.65916 0.81223 0.0
H1812 H 0.32567 0.66112 0.83286 0.0
H1813 H 0.3028 0.63046 0.75802 0.0
H1814 H 0.29344 0.65135 0.7712 0.0
H1815 H 0.28403 0.62738 0.77465 0.0
C1816 C 0.28506 0.69467 0.81666 0.0
C1817 C 0.26587 0.68629 0.81581 0.0
C1818 C 0.29992 0.68299 0.81365 0.0
C1819 C 0.29581 0.66277 0.80976 0.0
C1820 C 0.27672 0.65439 0.80969 0.0
H1821 H 0.35406 0.56192 0.79239 0.0
H1822 H 0.3323 0.58658 0.79953 0.0
C1823 C 0.26189 0.66602 0.81257 0.0
C1824 C 0.31138 0.65031 0.80558 0.0
H1825 H 0.3257 0.6143 0.77235 0.0
C1826 C 0.32583 0.65104 0.81955 0.0
C1827 C 0.31164 0.63728 0.78812 0.0
C1828 C 0.29726 0.63668 0.77206 0.0
C1829 C 0.34008 0.63848 0.81681 0.0
C1830 C 0.33983 0.62498 0.79969 0.0
C1831 C 0.32572 0.62461 0.78553 0.0
C1832 C 0.35355 0.61047 0.79644 0.0
C1833 C 0.35494 0.63922 0.83243 0.0
C1834 C 0.37272 0.61582 0.79236 0.0
C1835 C 0.38523 0.60171 0.78813 0.0
C1836 C 0.37873 0.58207 0.78797 0.0
C1837 C 0.35956 0.57689 0.79239 0.0
C1838 C 0.34708 0.59095 0.79648 0.0
H1839 H 0.35196 0.64912 0.84569 0.0
H1840 H 0.35558 0.62452 0.8359 0.0
H1841 H 0.36924 0.64427 0.82736 0.0
H1842 H 0.37789 0.63083 0.79209 0.0
H1843 H 0.39991 0.60617 0.78479 0.0
H1844 H 0.94804 0.53472 0.53467 0.0
H1845 H 0.91853 0.51568 0.54205 0.0
H1846 H 0.91397 0.48556 0.48379 0.0
H1847 H 0.94342 0.50459 0.47626 0.0
H1848 H 0.88171 0.51252 0.52545 0.0
H1849 H 0.91035 0.44153 0.51519 0.0
H1850 H 0.92564 0.46419 0.5175 0.0
H1851 H 0.91335 0.45408 0.49515 0.0
C1852 C 0.94068 0.52415 0.52338 0.0
C1853 C 0.9481 0.52112 0.50488 0.0
C1854 C 0.92388 0.51323 0.52765 0.0
C1855 C 0.91425 0.49902 0.51354 0.0
C1856 C 0.92143 0.49615 0.49499 0.0
H1857 H 0.81114 0.41829 0.51086 0.0
H1858 H 0.84003 0.43807 0.5032 0.0
C1859 C 0.93824 0.50704 0.49071 0.0
C1860 C 0.89653 0.48737 0.51819 0.0
H1861 H 0.87694 0.44112 0.51981 0.0
C1862 C 0.88067 0.49692 0.5243 0.0
C1863 C 0.89525 0.46702 0.51666 0.0
C1864 C 0.91209 0.45607 0.51094 0.0
C1865 C 0.8634 0.48662 0.52862 0.0
C1866 C 0.86212 0.46627 0.52706 0.0
C1867 C 0.87798 0.45672 0.52095 0.0
C1868 C 0.84445 0.45459 0.53175 0.0
C1869 C 0.84656 0.49754 0.53441 0.0
C1870 C 0.83749 0.45721 0.5504 0.0
C1871 C 0.82099 0.44593 0.55484 0.0
C1872 C 0.8112 0.43175 0.54071 0.0
C1873 C 0.8183 0.4291 0.52207 0.0
C1874 C 0.83481 0.44038 0.51766 0.0
H1875 H 0.84832 0.51214 0.53027 0.0
H1876 H 0.83302 0.48946 0.52778 0.0
H1877 H 0.84527 0.49939 0.55019 0.0
H1878 H 0.84494 0.46785 0.56158 0.0
H1879 H 0.81596 0.44828 0.56936 0.0
H1880 H 0.7718 0.81038 0.76831 0.0
H1881 H 0.7613 0.84022 0.7601 0.0
H1882 H 0.74084 0.8546 0.81739 0.0
H1883 H 0.75158 0.82511 0.82557 0.0
H1884 H 0.72463 0.85018 0.76063 0.0
H1885 H 0.77141 0.9051 0.81022 0.0
H1886 H 0.77593 0.88014 0.8047 0.0
H1887 H 0.75865 0.88733 0.8223 0.0
C1888 C 0.76534 0.82016 0.77914 0.0
C1889 C 0.7626 0.81577 0.79757 0.0
C1890 C 0.75932 0.83711 0.77447 0.0
C1891 C 0.75058 0.84981 0.78824 0.0
C1892 C 0.74798 0.84531 0.80669 0.0
H1893 H 0.67025 0.93036 0.77677 0.0
H1894 H 0.68686 0.90244 0.78009 0.0
C1895 C 0.75402 0.82845 0.81133 0.0
C1896 C 0.74302 0.86715 0.78316 0.0
H1897 H 0.74346 0.9158 0.79763 0.0
C1898 C 0.72892 0.86457 0.76855 0.0
C1899 C 0.74879 0.88596 0.79333 0.0
C1900 C 0.76467 0.88985 0.80838 0.0
C1901 C 0.71984 0.88017 0.7644 0.0
C1902 C 0.72479 0.89876 0.77537 0.0
C1903 C 0.73948 0.90149 0.78941 0.0
C1904 C 0.71464 0.9155 0.77283 0.0
C1905 C 0.70503 0.87661 0.74833 0.0
C1906 C 0.72481 0.93227 0.76806 0.0
C1907 C 0.71538 0.94829 0.76626 0.0
C1908 C 0.6956 0.94792 0.76935 0.0
C1909 C 0.68547 0.93111 0.77421 0.0
C1910 C 0.69492 0.91508 0.77598 0.0
H1911 H 0.70687 0.86332 0.73799 0.0
H1912 H 0.69055 0.87465 0.75436 0.0
H1913 H 0.70575 0.88904 0.74049 0.0
H1914 H 0.74007 0.93294 0.7657 0.0
H1915 H 0.72365 0.96101 0.76255 0.0
H1916 H 0.60729 0.48071 0.98482 0.0
H1917 H 0.63775 0.50073 0.99461 0.0
H1918 H 0.60929 0.55217 0.99886 0.0
H1919 H 0.57886 0.53231 0.98951 0.0
H1920 H 0.65516 0.52824 0.97414 0.0
H1921 H 0.64176 0.56238 0.04823 0.0
H1922 H 0.62714 0.5411 0.03606 0.0
H1923 H 0.6233 0.56469 0.03143 0.0
C1924 C 0.60747 0.49626 0.98833 0.0
C1925 C 0.59071 0.50496 0.98636 0.0
C1926 C 0.62488 0.50767 0.9938 0.0
C1927 C 0.62575 0.52792 0.99764 0.0
C1928 C 0.6089 0.53657 0.99631 0.0
H1929 H 0.70826 0.62878 0.01253 0.0
H1930 H 0.68002 0.60468 0.00882 0.0
C1931 C 0.59156 0.52521 0.99078 0.0
C1932 C 0.64442 0.54018 1.00138 0.0
H1933 H 0.66808 0.57755 0.03269 0.0
C1934 C 0.65814 0.53883 0.98707 0.0
C1935 C 0.64821 0.55402 0.01822 0.0
C1936 C 0.6344 0.55555 0.03445 0.0
C1937 C 0.67521 0.55152 0.98877 0.0
C1938 C 0.67876 0.56571 0.00538 0.0
C1939 C 0.66527 0.56672 0.01993 0.0
C1940 C 0.69605 0.58014 0.00764 0.0
C1941 C 0.68891 0.55017 0.97242 0.0
C1942 C 0.71444 0.57434 0.00833 0.0
C1943 C 0.73065 0.58809 0.01039 0.0
C1944 C 0.72873 0.60791 0.01191 0.0
C1945 C 0.71026 0.61365 0.01134 0.0
C1946 C 0.69409 0.5999 0.00927 0.0
H1947 H 0.68211 0.54148 0.95907 0.0
H1948 H 0.69434 0.56478 0.96952 0.0
H1949 H 0.70135 0.54311 0.9763 0.0
H1950 H 0.71626 0.55919 0.00742 0.0
H1951 H 0.74465 0.58318 0.01089 0.0
H1952 H 0.28056 0.68733 0.24639 0.0
H1953 H 0.25894 0.65878 0.25096 0.0
H1954 H 0.27175 0.63008 0.19473 0.0
H1955 H 0.29378 0.65832 0.19025 0.0
H1956 H 0.22637 0.64119 0.22851 0.0
H1957 H 0.28115 0.5906 0.22936 0.0
H1958 H 0.28724 0.6165 0.23237 0.0
H1959 H 0.28184 0.60266 0.20892 0.0
C1960 C 0.27893 0.67485 0.23509 0.0
C1961 C 0.28893 0.67507 0.21798 0.0
C1962 C 0.2665 0.65861 0.23768 0.0
C1963 C 0.26396 0.64224 0.2233 0.0
C1964 C 0.27376 0.64245 0.20614 0.0
H1965 H 0.19474 0.53111 0.20792 0.0
H1966 H 0.21674 0.5598 0.20477 0.0
C1967 C 0.28617 0.65869 0.20352 0.0
C1968 C 0.2507 0.6251 0.22605 0.0
H1969 H 0.24861 0.57691 0.22801 0.0
C1970 C 0.23121 0.62715 0.22853 0.0
C1971 C 0.25711 0.60682 0.22603 0.0
C1972 C 0.278 0.60397 0.2242 0.0
C1973 C 0.21786 0.61128 0.23055 0.0
C1974 C 0.22425 0.59298 0.23043 0.0
C1975 C 0.24376 0.59096 0.22806 0.0
C1976 C 0.2109 0.57567 0.23252 0.0
C1977 C 0.19696 0.61413 0.2323 0.0
C1978 C 0.20052 0.575 0.24929 0.0
C1979 C 0.1879 0.55864 0.25113 0.0
C1980 C 0.18554 0.54259 0.23628 0.0
C1981 C 0.19617 0.54323 0.21961 0.0
C1982 C 0.20877 0.5596 0.21778 0.0
H1983 H 0.19387 0.62765 0.22741 0.0
H1984 H 0.18777 0.60174 0.22384 0.0
H1985 H 0.19297 0.6151 0.24752 0.0
H1986 H 0.20225 0.58711 0.26099 0.0
H1987 H 0.18001 0.55857 0.2642 0.0
H1988 H 0.93338 0.50181 0.03192 0.0
H1989 H 0.91091 0.52621 0.03674 0.0
H1990 H 0.95756 0.57105 0.03417 0.0
H1991 H 0.98 0.5465 0.02899 0.0
H1992 H 0.9081 0.55994 0.06331 0.0
H1993 H 0.92171 0.57624 0.99009 0.0
H1994 H 0.92995 0.55563 0.99824 0.0
H1995 H 0.94249 0.57939 0.00566 0.0
C1996 C 0.93883 0.51694 0.03284 0.0
C1997 C 0.95828 0.52244 0.0302 0.0
C1998 C 0.92602 0.53084 0.03553 0.0
C1999 C 0.93251 0.55041 0.03547 0.0
C2000 C 0.95221 0.556 0.03392 0.0
H2001 H 0.86405 0.64527 0.02808 0.0
H2002 H 0.89081 0.62686 0.03228 0.0
C2003 C 0.96501 0.54205 0.03116 0.0
C2004 C 0.91843 0.56457 0.03571 0.0
H2005 H 0.89945 0.59351 0.00816 0.0
C2006 C 0.90629 0.56739 0.05132 0.0
C2007 C 0.91605 0.57424 0.02001 0.0
C2008 C 0.92811 0.57116 0.00246 0.0
C2009 C 0.89174 0.57951 0.05159 0.0
C2010 C 0.8891 0.5888 0.0357 0.0
C2011 C 0.90155 0.58639 0.02033 0.0
C2012 C 0.87289 0.60024 0.03422 0.0
C2013 C 0.87931 0.58226 0.06887 0.0
C2014 C 0.85395 0.59133 0.03373 0.0
C2015 C 0.83865 0.60177 0.03127 0.0
C2016 C 0.84197 0.62133 0.02916 0.0
C2017 C 0.86097 0.63025 0.02971 0.0
C2018 C 0.87629 0.61976 0.03212 0.0
H2019 H 0.88645 0.57886 0.08173 0.0
H2020 H 0.87563 0.59732 0.07206 0.0
H2021 H 0.86579 0.57236 0.06598 0.0
H2022 H 0.85101 0.57617 0.03489 0.0
H2023 H 0.82422 0.59442 0.03085 0.0
H2024 H 0.08004 0.01542 0.02462 0.0
H2025 H 0.10803 0.99773 0.0195 0.0
H2026 H 0.13144 0.02567 0.07484 0.0
H2027 H 0.10377 0.04385 0.07985 0.0
H2028 H 0.15887 0.02275 0.04615 0.0
H2029 H 0.1151 0.95234 0.04752 0.0
H2030 H 0.10707 0.96574 0.03016 0.0
H2031 H 0.10613 0.97524 0.05524 0.0
C2032 C 0.09132 0.01811 0.03554 0.0
C2033 C 0.08959 0.03095 0.05271 0.0
C2034 C 0.10719 0.00781 0.03269 0.0
C2035 C 0.1216 0.01008 0.04697 0.0
C2036 C 0.12039 0.02356 0.06372 0.0
H2037 H 0.20482 0.9301 0.05839 0.0
H2038 H 0.17909 0.95091 0.06329 0.0
C2039 C 0.10453 0.03387 0.06659 0.0
C2040 C 0.13763 0.998 0.04473 0.0
H2041 H 0.14767 0.95123 0.03951 0.0
C2042 C 0.15645 0.00712 0.0447 0.0
C2043 C 0.13444 0.97763 0.04321 0.0
C2044 C 0.11463 0.96712 0.0442 0.0
C2045 C 0.17216 0.99636 0.04281 0.0
C2046 C 0.16891 0.97594 0.04064 0.0
C2047 C 0.15012 0.96687 0.04102 0.0
C2048 C 0.1848 0.96368 0.03787 0.0
C2049 C 0.19211 0.00698 0.04347 0.0
C2050 C 0.1964 0.9638 0.02185 0.0
C2051 C 0.2111 0.95195 0.01902 0.0
C2052 C 0.21442 0.93963 0.03209 0.0
C2053 C 0.20268 0.93944 0.04807 0.0
C2054 C 0.18797 0.95132 0.05089 0.0
H2055 H 0.19244 0.02236 0.05032 0.0
H2056 H 0.20223 1.0 0.05142 0.0
H2057 H 0.1972 0.00668 0.02865 0.0
H2058 H 0.19395 0.97291 0.0114 0.0
H2059 H 0.21978 0.9524 0.0065 0.0
loop_
_geom_bond_atom_site_label_1
_geom_bond_atom_site_label_2
_geom_bond_distance
_geom_bond_site_symmetry_2
_ccdc_geom_bond_type
H0 C3 0.929 . S
H1 C6 0.929 . S
H2 C8 0.930 . S
C3 H0 0.929 . S
C3 C4 1.398 . S
C3 C5 1.396 . S
C4 C3 1.398 . S
C4 C8 1.407 . S
C5 C3 1.396 . S
C5 C6 1.394 . S
C6 H1 0.929 . S
C6 C5 1.394 . S
C6 C7 1.382 . S
C7 C6 1.382 . S
C7 C8 1.392 . S
C7 N9 1.420 . S
C8 H2 0.930 . S
C8 C4 1.407 . S
C8 C7 1.392 . S
N9 C7 1.420 . S
N9 C10 1.244 . S
C10 N9 1.244 . S
H11 C14 0.929 . S
H12 C17 0.929 . S
H13 C19 0.930 . S
C14 H11 0.929 . S
C14 C15 1.398 . S
C14 C16 1.396 . S
C15 C14 1.398 . S
C15 C19 1.407 . S
C16 C14 1.396 . S
C16 C17 1.394 . S
C17 H12 0.929 . S
C17 C16 1.394 . S
C17 C18 1.382 . S
C18 C17 1.382 . S
C18 C19 1.392 . S
C18 N20 1.420 . S
C19 H13 0.930 . S
C19 C15 1.407 . S
C19 C18 1.392 . S
N20 C18 1.420 . S
N20 C21 1.244 . S
C21 N20 1.244 . S
H22 C25 0.929 . S
H23 C28 0.929 . S
H24 C30 0.930 . S
C25 H22 0.929 . S
C25 C26 1.398 1_455 S
C25 C27 1.396 . S
C26 C25 1.398 1_655 S
C26 C30 1.407 . S
C27 C25 1.396 . S
C27 C28 1.394 1_455 S
C28 H23 0.929 . S
C28 C27 1.394 1_655 S
C28 C29 1.382 . S
C29 C28 1.382 . S
C29 C30 1.392 . S
C29 N31 1.420 . S
C30 H24 0.930 . S
C30 C26 1.407 . S
C30 C29 1.392 . S
N31 C29 1.420 . S
N31 C32 1.244 . S
C32 N31 1.244 . S
H33 C36 0.929 . S
H34 C39 0.929 . S
H35 C41 0.930 . S
C36 H33 0.929 . S
C36 C37 1.398 . S
C36 C38 1.396 . S
C37 C36 1.398 . S
C37 C41 1.407 . S
C38 C36 1.396 . S
C38 C39 1.394 . S
C39 H34 0.929 . S
C39 C38 1.394 . S
C39 C40 1.382 . S
C40 C39 1.382 . S
C40 C41 1.392 . S
C40 N42 1.420 . S
C41 H35 0.930 . S
C41 C37 1.407 . S
C41 C40 1.392 . S
N42 C40 1.420 . S
N42 C43 1.244 . S
C43 N42 1.244 . S
H44 C47 0.929 1_545 S
H45 C50 0.929 . S
H46 C52 0.930 . S
C47 H44 0.929 1_565 S
C47 C48 1.398 . S
C47 C49 1.396 . S
C48 C47 1.398 . S
C48 C52 1.407 . S
C49 C47 1.396 . S
C49 C50 1.394 . S
C50 H45 0.929 . S
C50 C49 1.394 . S
C50 C51 1.382 . S
C51 C50 1.382 . S
C51 C52 1.392 . S
C51 N53 1.420 . S
C52 H46 0.930 . S
C52 C48 1.407 . S
C52 C51 1.392 . S
N53 C51 1.420 . S
N53 C54 1.244 . S
C54 N53 1.244 . S
H55 C58 0.929 . S
H56 C61 0.929 . S
H57 C63 0.930 . S
C58 H55 0.929 . S
C58 C59 1.398 . S
C58 C60 1.396 . S
C59 C58 1.398 . S
C59 C63 1.407 . S
C60 C58 1.396 . S
C60 C61 1.394 . S
C61 H56 0.929 . S
C61 C60 1.394 . S
C61 C62 1.382 . S
C62 C61 1.382 . S
C62 C63 1.392 . S
C62 N64 1.420 . S
C63 H57 0.930 . S
C63 C59 1.407 . S
C63 C62 1.392 . S
N64 C62 1.420 . S
N64 C65 1.244 . S
C65 N64 1.244 . S
H66 C69 0.929 . S
H67 C72 0.929 1_455 S
H68 C74 0.930 . S
C69 H66 0.929 . S
C69 C70 1.398 . S
C69 C71 1.396 . S
C70 C69 1.398 . S
C70 C74 1.407 . S
C71 C69 1.396 . S
C71 C72 1.394 . S
C72 H67 0.929 1_655 S
C72 C71 1.394 . S
C72 C73 1.382 . S
C73 C72 1.382 . S
C73 C74 1.392 . S
C73 N75 1.420 1_655 S
C74 H68 0.930 . S
C74 C70 1.407 . S
C74 C73 1.392 . S
N75 C73 1.420 1_455 S
N75 C76 1.244 . S
C76 N75 1.244 . S
H77 C80 0.929 . S
H78 C83 0.929 . S
H79 C85 0.930 . S
C80 H77 0.929 . S
C80 C81 1.398 . S
C80 C82 1.396 . S
C81 C80 1.398 . S
C81 C85 1.407 . S
C82 C80 1.396 . S
C82 C83 1.394 . S
C83 H78 0.929 . S
C83 C82 1.394 . S
C83 C84 1.382 . S
C84 C83 1.382 . S
C84 C85 1.392 . S
C84 N86 1.420 . S
C85 H79 0.930 . S
C85 C81 1.407 . S
C85 C84 1.392 . S
N86 C84 1.420 . S
N86 C87 1.244 . S
C87 N86 1.244 . S
H88 C91 0.929 . S
H89 C94 0.929 . S
H90 C96 0.930 . S
C91 H88 0.929 . S
C91 C92 1.398 . S
C91 C93 1.396 . S
C92 C91 1.398 . S
C92 C96 1.407 . S
C93 C91 1.396 . S
C93 C94 1.394 . S
C94 H89 0.929 . S
C94 C93 1.394 . S
C94 C95 1.382 . S
C95 C94 1.382 . S
C95 C96 1.392 . S
C95 N97 1.420 . S
C96 H90 0.930 . S
C96 C92 1.407 . S
C96 C95 1.392 . S
N97 C95 1.420 . S
N97 C98 1.244 . S
C98 N97 1.244 . S
H99 C102 0.929 . S
H100 C105 0.929 1_545 S
H101 C107 0.930 . S
C102 H99 0.929 . S
C102 C103 1.398 . S
C102 C104 1.396 . S
C103 C102 1.398 . S
C103 C107 1.407 . S
C104 C102 1.396 . S
C104 C105 1.394 . S
C105 H100 0.929 1_565 S
C105 C104 1.394 . S
C105 C106 1.382 . S
C106 C105 1.382 . S
C106 C107 1.392 . S
C106 N108 1.420 1_565 S
C107 H101 0.930 . S
C107 C103 1.407 . S
C107 C106 1.392 . S
N108 C106 1.420 1_545 S
N108 C109 1.244 . S
C109 N108 1.244 . S
H110 C113 0.929 . S
H111 C116 0.929 . S
H112 C118 0.930 . S
C113 H110 0.929 . S
C113 C114 1.398 . S
C113 C115 1.396 . S
C114 C113 1.398 . S
C114 C118 1.407 . S
C115 C113 1.396 . S
C115 C116 1.394 . S
C116 H111 0.929 . S
C116 C115 1.394 . S
C116 C117 1.382 . S
C117 C116 1.382 . S
C117 C118 1.392 . S
C117 N119 1.420 . S
C118 H112 0.930 . S
C118 C114 1.407 . S
C118 C117 1.392 . S
N119 C117 1.420 . S
N119 C120 1.244 . S
C120 N119 1.244 . S
H121 C124 0.929 . S
H122 C127 0.929 . S
H123 C129 0.930 . S
C124 H121 0.929 . S
C124 C125 1.398 . S
C124 C126 1.396 . S
C125 C124 1.398 . S
C125 C129 1.407 . S
C126 C124 1.396 . S
C126 C127 1.394 . S
C127 H122 0.929 . S
C127 C126 1.394 . S
C127 C128 1.382 . S
C128 C127 1.382 . S
C128 C129 1.392 . S
C128 N130 1.420 . S
C129 H123 0.930 . S
C129 C125 1.407 . S
C129 C128 1.392 . S
N130 C128 1.420 . S
N130 C131 1.244 . S
C131 N130 1.244 . S
H132 C135 0.929 . S
H133 C138 0.929 . S
H134 C140 0.930 . S
C135 H132 0.929 . S
C135 C136 1.398 . S
C135 C137 1.396 . S
C136 C135 1.398 . S
C136 C140 1.407 . S
C137 C135 1.396 . S
C137 C138 1.394 . S
C138 H133 0.929 . S
C138 C137 1.394 . S
C138 C139 1.382 . S
C139 C138 1.382 . S
C139 C140 1.392 . S
C139 N141 1.420 . S
C140 H134 0.930 . S
C140 C136 1.407 . S
C140 C139 1.392 . S
N141 C139 1.420 . S
N141 C142 1.244 . S
C142 N141 1.244 . S
H143 C146 0.929 . S
H144 C149 0.929 1_554 S
H145 C151 0.930 . S
C146 H143 0.929 . S
C146 C147 1.398 . S
C146 C148 1.396 . S
C147 C146 1.398 . S
C147 C151 1.407 . S
C148 C146 1.396 . S
C148 C149 1.394 . S
C149 H144 0.929 1_556 S
C149 C148 1.394 . S
C149 C150 1.382 . S
C150 C149 1.382 . S
C150 C151 1.392 . S
C150 N152 1.420 1_556 S
C151 H145 0.930 . S
C151 C147 1.407 . S
C151 C150 1.392 . S
N152 C150 1.420 1_554 S
N152 C153 1.244 . S
C153 N152 1.244 . S
H154 C157 0.929 . S
H155 C160 0.929 . S
H156 C162 0.930 . S
C157 H154 0.929 . S
C157 C158 1.398 . S
C157 C159 1.396 . S
C158 C157 1.398 . S
C158 C162 1.407 . S
C159 C157 1.396 . S
C159 C160 1.394 . S
C160 H155 0.929 . S
C160 C159 1.394 . S
C160 C161 1.382 . S
C161 C160 1.382 . S
C161 C162 1.392 . S
C161 N163 1.420 . S
C162 H156 0.930 . S
C162 C158 1.407 . S
C162 C161 1.392 . S
N163 C161 1.420 . S
N163 C164 1.244 . S
C164 N163 1.244 . S
H165 C168 0.929 . S
H166 C171 0.929 . S
H167 C173 0.930 . S
C168 H165 0.929 . S
C168 C169 1.398 . S
C168 C170 1.396 . S
C169 C168 1.398 . S
C169 C173 1.407 . S
C170 C168 1.396 . S
C170 C171 1.394 . S
C171 H166 0.929 . S
C171 C170 1.394 . S
C171 C172 1.382 . S
C172 C171 1.382 . S
C172 C173 1.392 . S
C172 N174 1.420 . S
C173 H167 0.930 . S
C173 C169 1.407 . S
C173 C172 1.392 . S
N174 C172 1.420 . S
N174 C175 1.244 . S
C175 N174 1.244 . S
C176 O177 1.160 . S
C176 O183 1.185 . S
O177 C176 1.160 . S
O178 Zn179 1.899 . S
O178 C186 1.284 . S
Zn179 O178 1.899 . S
Zn179 O180 2.032 . S
Zn179 O183 2.086 . S
Zn179 O188 1.977 . S
O180 Zn179 2.032 . S
O180 C184 1.278 . S
C181 O182 1.203 . S
C181 O188 1.267 . S
O182 C181 1.203 . S
O183 C176 1.185 . S
O183 Zn179 2.086 . S
C184 O180 1.278 . S
C184 O185 1.211 . S
O185 C184 1.211 . S
C186 O178 1.284 . S
C186 O187 1.273 . S
O187 C186 1.273 . S
O188 Zn179 1.977 . S
O188 C181 1.267 . S
C189 O190 1.160 . S
C189 O196 1.185 . S
O190 C189 1.160 . S
O191 Zn192 1.899 . S
O191 C199 1.284 . S
Zn192 O191 1.899 . S
Zn192 O193 2.032 . S
Zn192 O196 2.086 . S
Zn192 O201 1.977 . S
O193 Zn192 2.032 . S
O193 C197 1.278 . S
C194 O195 1.203 . S
C194 O201 1.267 . S
O195 C194 1.203 . S
O196 C189 1.185 . S
O196 Zn192 2.086 . S
C197 O193 1.278 . S
C197 O198 1.211 . S
O198 C197 1.211 . S
C199 O191 1.284 . S
C199 O200 1.273 . S
O200 C199 1.273 . S
O201 Zn192 1.977 . S
O201 C194 1.267 . S
C202 O203 1.153 . S
C202 O209 1.190 1_556 S
O203 C202 1.153 . S
O204 Zn205 1.899 1_556 S
O204 C212 1.284 . S
Zn205 O204 1.899 1_554 S
Zn205 O206 2.032 1_554 S
Zn205 O209 2.086 . S
Zn205 O214 1.977 . S
O206 Zn205 2.032 1_556 S
O206 C210 1.286 . S
C207 O208 1.203 . S
C207 O214 1.267 . S
O208 C207 1.203 . S
O209 C202 1.190 1_554 S
O209 Zn205 2.086 . S
C210 O206 1.286 . S
C210 O211 1.200 1_556 S
O211 C210 1.200 1_554 S
C212 O204 1.284 . S
C212 O213 1.273 . S
O213 C212 1.273 . S
O214 Zn205 1.977 . S
O214 C207 1.267 . S
C215 O216 1.160 . S
C215 O222 1.185 . S
O216 C215 1.160 . S
O217 Zn218 1.899 . S
O217 C225 1.284 . S
Zn218 O217 1.899 . S
Zn218 O219 2.032 . S
Zn218 O222 2.086 . S
Zn218 O227 1.977 . S
O219 Zn218 2.032 . S
O219 C223 1.278 . S
C220 O221 1.203 . S
C220 O227 1.267 . S
O221 C220 1.203 . S
O222 C215 1.185 . S
O222 Zn218 2.086 . S
C223 O219 1.278 . S
C223 O224 1.211 1_545 S
O224 C223 1.211 1_565 S
C225 O217 1.284 . S
C225 O226 1.273 . S
O226 C225 1.273 . S
O227 Zn218 1.977 . S
O227 C220 1.267 . S
C228 O229 1.160 . S
C228 O235 1.185 . S
O229 C228 1.160 . S
O230 Zn231 1.899 . S
O230 C238 1.284 . S
Zn231 O230 1.899 . S
Zn231 O232 2.032 . S
Zn231 O235 2.086 . S
Zn231 O240 1.977 . S
O232 Zn231 2.032 . S
O232 C236 1.278 . S
C233 O234 1.203 . S
C233 O240 1.267 . S
O234 C233 1.203 . S
O235 C228 1.185 . S
O235 Zn231 2.086 . S
C236 O232 1.278 . S
C236 O237 1.211 . S
O237 C236 1.211 . S
C238 O230 1.284 . S
C238 O239 1.273 . S
O239 C238 1.273 . S
O240 Zn231 1.977 . S
O240 C233 1.267 . S
C241 O242 1.160 . S
C241 O248 1.185 . S
O242 C241 1.160 . S
O243 Zn244 1.899 . S
O243 C251 1.284 . S
Zn244 O243 1.899 . S
Zn244 O245 2.032 . S
Zn244 O248 2.086 . S
Zn244 O253 1.977 . S
O245 Zn244 2.032 . S
O245 C249 1.278 . S
C246 O247 1.203 . S
C246 O253 1.267 . S
O247 C246 1.203 . S
O248 C241 1.185 . S
O248 Zn244 2.086 . S
C249 O245 1.278 . S
C249 O250 1.211 . S
O250 C249 1.211 . S
C251 O243 1.284 . S
C251 O252 1.273 . S
O252 C251 1.273 . S
O253 Zn244 1.977 . S
O253 C246 1.267 . S
C254 O255 1.160 . S
C254 O261 1.185 . S
O255 C254 1.160 . S
O256 Zn257 1.899 . S
O256 C264 1.284 . S
Zn257 O256 1.899 . S
Zn257 O258 2.032 . S
Zn257 O261 2.086 . S
Zn257 O266 1.977 . S
O258 Zn257 2.032 . S
O258 C262 1.278 . S
C259 O260 1.203 . S
C259 O266 1.267 . S
O260 C259 1.203 . S
O261 C254 1.185 . S
O261 Zn257 2.086 . S
C262 O258 1.278 . S
C262 O263 1.211 . S
O263 C262 1.211 . S
C264 O256 1.284 . S
C264 O265 1.273 . S
O265 C264 1.273 . S
O266 Zn257 1.977 . S
O266 C259 1.267 . S
C267 O268 1.160 . S
C267 O274 1.185 . S
O268 C267 1.160 . S
O269 Zn270 1.899 . S
O269 C277 1.284 1_565 S
Zn270 O269 1.899 . S
Zn270 O271 2.032 1_565 S
Zn270 O274 2.086 . S
Zn270 O279 1.977 . S
O271 Zn270 2.032 1_545 S
O271 C275 1.278 . S
C272 O273 1.203 1_565 S
C272 O279 1.267 . S
O273 C272 1.203 1_545 S
O274 C267 1.185 . S
O274 Zn270 2.086 . S
C275 O271 1.278 . S
C275 O276 1.211 . S
O276 C275 1.211 . S
C277 O269 1.284 1_545 S
C277 O278 1.273 . S
O278 C277 1.273 . S
O279 Zn270 1.977 . S
O279 C272 1.267 . S
C280 O281 1.160 . S
C280 O287 1.185 . S
O281 C280 1.160 . S
O282 Zn283 1.899 . S
O282 C290 1.284 1_455 S
Zn283 O282 1.899 . S
Zn283 O284 2.032 . S
Zn283 O287 2.086 . S
Zn283 O292 1.977 . S
O284 Zn283 2.032 . S
O284 C288 1.278 . S
C285 O286 1.203 . S
C285 O292 1.267 . S
O286 C285 1.203 . S
O287 C280 1.185 . S
O287 Zn283 2.086 . S
C288 O284 1.278 . S
C288 O289 1.211 . S
O289 C288 1.211 . S
C290 O282 1.284 1_655 S
C290 O291 1.273 . S
O291 C290 1.273 . S
O292 Zn283 1.977 . S
O292 C285 1.267 . S
C293 O294 1.160 . S
C293 O300 1.185 . S
O294 C293 1.160 . S
O295 Zn296 1.899 . S
O295 C303 1.284 . S
Zn296 O295 1.899 . S
Zn296 O297 2.032 . S
Zn296 O300 2.086 . S
Zn296 O305 1.977 . S
O297 Zn296 2.032 . S
O297 C301 1.278 . S
C298 O299 1.203 . S
C298 O305 1.267 . S
O299 C298 1.203 . S
O300 C293 1.185 . S
O300 Zn296 2.086 . S
C301 O297 1.278 . S
C301 O302 1.211 . S
O302 C301 1.211 . S
C303 O295 1.284 . S
C303 O304 1.273 . S
O304 C303 1.273 . S
O305 Zn296 1.977 . S
O305 C298 1.267 . S
C306 O307 1.129 1_455 S
C306 O313 1.185 . S
O307 C306 1.129 1_655 S
O308 Zn309 1.899 1_655 S
O308 C316 1.284 . S
Zn309 O308 1.899 1_455 S
Zn309 O310 2.032 . S
Zn309 O313 2.086 . S
Zn309 O318 1.977 . S
O310 Zn309 2.032 . S
O310 C314 1.278 . S
C311 O312 1.203 . S
C311 O318 1.267 . S
O312 C311 1.203 . S
O313 C306 1.185 . S
O313 Zn309 2.086 . S
C314 O310 1.278 . S
C314 O315 1.211 . S
O315 C314 1.211 . S
C316 O308 1.284 . S
C316 O317 1.273 . S
O317 C316 1.273 . S
O318 Zn309 1.977 . S
O318 C311 1.267 . S
C319 O320 1.160 . S
C319 O326 1.185 . S
O320 C319 1.160 . S
O321 Zn322 1.899 . S
O321 C329 1.284 . S
Zn322 O321 1.899 . S
Zn322 O323 2.032 . S
Zn322 O326 2.086 . S
Zn322 O331 1.977 . S
O323 Zn322 2.032 . S
O323 C327 1.278 . S
C324 O325 1.203 . S
C324 O331 1.267 . S
O325 C324 1.203 . S
O326 C319 1.185 . S
O326 Zn322 2.086 . S
C327 O323 1.278 . S
C327 O328 1.211 . S
O328 C327 1.211 . S
C329 O321 1.284 . S
C329 O330 1.273 . S
O330 C329 1.273 . S
O331 Zn322 1.977 . S
O331 C324 1.267 . S
H332 C340 0.929 . S
H333 C342 0.930 . S
H334 C344 0.930 . S
H335 C347 0.929 . S
H336 C350 0.930 . S
H337 C352 0.960 . S
H338 C352 0.960 . S
H339 C352 0.960 . S
C340 H332 0.929 . S
C340 C341 1.377 . S
C340 C342 1.384 . S
C341 C340 1.377 . S
C341 C347 1.390 . S
C342 H333 0.930 . S
C342 C340 1.384 . S
C342 C343 1.372 . S
C343 C342 1.372 . S
C343 C344 1.400 . S
C343 C348 1.490 . S
C344 H334 0.930 . S
C344 C343 1.400 . S
C344 C347 1.386 . S
H345 C361 0.930 . S
H346 C362 0.931 . S
C347 H335 0.929 . S
C347 C341 1.390 . S
C347 C344 1.386 . S
C348 C343 1.490 . S
C348 C350 1.395 . S
C348 C351 1.403 . S
H349 C355 0.930 . S
C350 H336 0.930 . S
C350 C348 1.395 . S
C350 C353 1.403 . S
C351 C348 1.403 . S
C351 C352 1.524 . S
C351 C355 1.400 . S
C352 H337 0.960 . S
C352 H338 0.960 . S
C352 H339 0.960 . S
C352 C351 1.524 . S
C353 C350 1.403 . S
C353 C354 1.392 . S
C353 C357 1.495 . S
C354 C353 1.392 . S
C354 C355 1.385 . S
C354 C356 1.478 . S
C355 H349 0.930 . S
C355 C351 1.400 . S
C355 C354 1.385 . S
C356 C354 1.478 . S
C356 C358 1.381 . S
C356 C362 1.383 . S
C357 C353 1.495 . S
C357 H363 0.959 . S
C357 H364 0.961 . S
C357 H365 0.960 . S
C358 C356 1.381 . S
C358 C359 1.394 . S
C358 H366 0.930 . S
C359 C358 1.394 . S
C359 C360 1.383 . S
C359 H367 0.929 1_556 S
C360 C359 1.383 . S
C360 C361 1.377 . S
C361 H345 0.930 . S
C361 C360 1.377 . S
C361 C362 1.379 . S
C362 H346 0.931 . S
C362 C356 1.383 . S
C362 C361 1.379 . S
H363 C357 0.959 . S
H364 C357 0.961 . S
H365 C357 0.960 . S
H366 C358 0.930 . S
H367 C359 0.929 1_554 S
H368 C376 0.929 . S
H369 C378 0.930 . S
H370 C380 0.930 . S
H371 C383 0.929 . S
H372 C386 0.930 . S
H373 C388 0.960 . S
H374 C388 0.960 . S
H375 C388 0.960 . S
C376 H368 0.929 . S
C376 C377 1.377 . S
C376 C378 1.384 . S
C377 C376 1.377 . S
C377 C383 1.390 . S
C378 H369 0.930 . S
C378 C376 1.384 . S
C378 C379 1.372 . S
C379 C378 1.372 . S
C379 C380 1.400 . S
C379 C384 1.490 . S
C380 H370 0.930 . S
C380 C379 1.400 . S
C380 C383 1.386 . S
H381 C397 0.930 . S
H382 C398 0.931 . S
C383 H371 0.929 . S
C383 C377 1.390 . S
C383 C380 1.386 . S
C384 C379 1.490 . S
C384 C386 1.395 . S
C384 C387 1.403 . S
H385 C391 0.930 . S
C386 H372 0.930 . S
C386 C384 1.395 . S
C386 C389 1.403 . S
C387 C384 1.403 . S
C387 C388 1.524 . S
C387 C391 1.400 . S
C388 H373 0.960 . S
C388 H374 0.960 . S
C388 H375 0.960 . S
C388 C387 1.524 . S
C389 C386 1.403 . S
C389 C390 1.392 . S
C389 C393 1.495 . S
C390 C389 1.392 . S
C390 C391 1.385 . S
C390 C392 1.478 . S
C391 H385 0.930 . S
C391 C387 1.400 . S
C391 C390 1.385 . S
C392 C390 1.478 . S
C392 C394 1.381 . S
C392 C398 1.383 . S
C393 C389 1.495 . S
C393 H399 0.959 . S
C393 H400 0.961 . S
C393 H401 0.960 . S
C394 C392 1.381 . S
C394 C395 1.394 . S
C394 H402 0.930 . S
C395 C394 1.394 . S
C395 C396 1.383 . S
C395 H403 0.929 . S
C396 C395 1.383 . S
C396 C397 1.377 . S
C397 H381 0.930 . S
C397 C396 1.377 . S
C397 C398 1.379 . S
C398 H382 0.931 . S
C398 C392 1.383 . S
C398 C397 1.379 . S
H399 C393 0.959 . S
H400 C393 0.961 . S
H401 C393 0.960 . S
H402 C394 0.930 . S
H403 C395 0.929 . S
H404 C412 0.929 . S
H405 C414 0.930 . S
H406 C416 0.930 . S
H407 C419 0.929 . S
H408 C422 0.930 . S
H409 C424 0.960 . S
H410 C424 0.960 . S
H411 C424 0.960 . S
C412 H404 0.929 . S
C412 C413 1.377 . S
C412 C414 1.384 . S
C413 C412 1.377 . S
C413 C419 1.390 . S
C414 H405 0.930 . S
C414 C412 1.384 . S
C414 C415 1.372 . S
C415 C414 1.372 . S
C415 C416 1.400 . S
C415 C420 1.490 . S
C416 H406 0.930 . S
C416 C415 1.400 . S
C416 C419 1.386 . S
H417 C433 0.930 . S
H418 C434 0.931 . S
C419 H407 0.929 . S
C419 C413 1.390 . S
C419 C416 1.386 . S
C420 C415 1.490 . S
C420 C422 1.395 . S
C420 C423 1.403 . S
H421 C427 0.930 . S
C422 H408 0.930 . S
C422 C420 1.395 . S
C422 C425 1.403 . S
C423 C420 1.403 . S
C423 C424 1.524 . S
C423 C427 1.400 . S
C424 H409 0.960 . S
C424 H410 0.960 . S
C424 H411 0.960 . S
C424 C423 1.524 . S
C425 C422 1.403 . S
C425 C426 1.392 . S
C425 C429 1.495 . S
C426 C425 1.392 . S
C426 C427 1.385 . S
C426 C428 1.478 . S
C427 H421 0.930 . S
C427 C423 1.400 . S
C427 C426 1.385 . S
C428 C426 1.478 . S
C428 C430 1.381 . S
C428 C434 1.383 . S
C429 C425 1.495 . S
C429 H435 0.959 . S
C429 H436 0.961 . S
C429 H437 0.960 . S
C430 C428 1.381 . S
C430 C431 1.394 . S
C430 H438 0.930 . S
C431 C430 1.394 . S
C431 C432 1.383 . S
C431 H439 0.929 . S
C432 C431 1.383 . S
C432 C433 1.377 . S
C433 H417 0.930 . S
C433 C432 1.377 . S
C433 C434 1.379 . S
C434 H418 0.931 . S
C434 C428 1.383 . S
C434 C433 1.379 . S
H435 C429 0.959 . S
H436 C429 0.961 . S
H437 C429 0.960 . S
H438 C430 0.930 . S
H439 C431 0.929 . S
H440 C448 0.929 . S
H441 C450 0.930 . S
H442 C452 0.930 . S
H443 C455 0.921 1_545 S
H444 C458 0.929 . S
H445 C460 0.960 . S
H446 C460 0.960 . S
H447 C460 0.960 . S
C448 H440 0.929 . S
C448 C449 1.377 . S
C448 C450 1.384 . S
C449 C448 1.377 . S
C449 C455 1.422 . S
C450 H441 0.930 . S
C450 C448 1.384 . S
C450 C451 1.372 . S
C451 C450 1.372 . S
C451 C452 1.400 1_565 S
C451 C456 1.490 1_565 S
C452 H442 0.930 . S
C452 C451 1.400 1_545 S
C452 C455 1.365 1_545 S
H453 C469 0.930 . S
H454 C470 0.931 . S
C455 H443 0.921 1_565 S
C455 C449 1.422 . S
C455 C452 1.365 1_565 S
C456 C451 1.490 1_545 S
C456 C458 1.395 1_445 S
C456 C459 1.403 . S
H457 C463 0.930 . S
C458 H444 0.929 . S
C458 C456 1.395 1_665 S
C458 C461 1.403 . S
C459 C456 1.403 . S
C459 C460 1.524 . S
C459 C463 1.400 1_455 S
C460 H445 0.960 . S
C460 H446 0.960 . S
C460 H447 0.960 . S
C460 C459 1.524 . S
C461 C458 1.403 . S
C461 C462 1.392 1_565 S
C461 C465 1.495 . S
C462 C461 1.392 1_545 S
C462 C463 1.385 . S
C462 C464 1.478 . S
C463 H457 0.930 . S
C463 C459 1.400 1_655 S
C463 C462 1.385 . S
C464 C462 1.478 . S
C464 C466 1.381 . S
C464 C470 1.383 . S
C465 C461 1.495 . S
C465 H471 0.959 . S
C465 H472 0.961 . S
C465 H473 0.960 . S
C466 C464 1.381 . S
C466 C467 1.394 . S
C466 H474 0.930 . S
C467 C466 1.394 . S
C467 C468 1.383 . S
C467 H475 0.929 . S
C468 C467 1.383 . S
C468 C469 1.377 . S
C469 H453 0.930 . S
C469 C468 1.377 . S
C469 C470 1.379 . S
C470 H454 0.931 . S
C470 C464 1.383 . S
C470 C469 1.379 . S
H471 C465 0.959 . S
H472 C465 0.961 . S
H473 C465 0.960 . S
H474 C466 0.930 . S
H475 C467 0.929 . S
H476 C484 0.929 . S
H477 C486 0.930 . S
H478 C488 0.930 . S
H479 C491 0.929 . S
H480 C494 0.930 . S
H481 C496 0.960 . S
H482 C496 0.960 . S
H483 C496 0.960 . S
C484 H476 0.929 . S
C484 C485 1.377 . S
C484 C486 1.384 . S
C485 C484 1.377 . S
C485 C491 1.390 . S
C486 H477 0.930 . S
C486 C484 1.384 . S
C486 C487 1.372 . S
C487 C486 1.372 . S
C487 C488 1.400 . S
C487 C492 1.490 . S
C488 H478 0.930 . S
C488 C487 1.400 . S
C488 C491 1.386 . S
H489 C505 0.930 . S
H490 C506 0.931 . S
C491 H479 0.929 . S
C491 C485 1.390 . S
C491 C488 1.386 . S
C492 C487 1.490 . S
C492 C494 1.395 . S
C492 C495 1.403 . S
H493 C499 0.930 . S
C494 H480 0.930 . S
C494 C492 1.395 . S
C494 C497 1.403 . S
C495 C492 1.403 . S
C495 C496 1.524 . S
C495 C499 1.400 . S
C496 H481 0.960 . S
C496 H482 0.960 . S
C496 H483 0.960 . S
C496 C495 1.524 . S
C497 C494 1.403 . S
C497 C498 1.392 . S
C497 C501 1.495 . S
C498 C497 1.392 . S
C498 C499 1.385 . S
C498 C500 1.478 . S
C499 H493 0.930 . S
C499 C495 1.400 . S
C499 C498 1.385 . S
C500 C498 1.478 . S
C500 C502 1.381 . S
C500 C506 1.383 . S
C501 C497 1.495 . S
C501 H507 0.959 . S
C501 H508 0.961 . S
C501 H509 0.960 . S
C502 C500 1.381 . S
C502 C503 1.394 . S
C502 H510 0.930 . S
C503 C502 1.394 . S
C503 C504 1.383 . S
C503 H511 0.929 . S
C504 C503 1.383 . S
C504 C505 1.377 . S
C505 H489 0.930 . S
C505 C504 1.377 . S
C505 C506 1.379 . S
C506 H490 0.931 . S
C506 C500 1.383 . S
C506 C505 1.379 . S
H507 C501 0.959 . S
H508 C501 0.961 . S
H509 C501 0.960 . S
H510 C502 0.930 . S
H511 C503 0.929 . S
H512 C520 0.929 . S
H513 C522 0.930 . S
H514 C524 0.930 . S
H515 C527 0.929 . S
H516 C530 0.930 . S
H517 C532 0.960 . S
H518 C532 0.960 . S
H519 C532 0.960 . S
C520 H512 0.929 . S
C520 C521 1.377 . S
C520 C522 1.384 . S
C521 C520 1.377 . S
C521 C527 1.390 . S
C522 H513 0.930 . S
C522 C520 1.384 . S
C522 C523 1.372 . S
C523 C522 1.372 . S
C523 C524 1.400 . S
C523 C528 1.490 . S
C524 H514 0.930 . S
C524 C523 1.400 . S
C524 C527 1.386 . S
H525 C541 0.930 . S
H526 C542 0.931 . S
C527 H515 0.929 . S
C527 C521 1.390 . S
C527 C524 1.386 . S
C528 C523 1.490 . S
C528 C530 1.395 . S
C528 C531 1.403 . S
H529 C535 0.930 . S
C530 H516 0.930 . S
C530 C528 1.395 . S
C530 C533 1.403 . S
C531 C528 1.403 . S
C531 C532 1.524 . S
C531 C535 1.400 . S
C532 H517 0.960 . S
C532 H518 0.960 . S
C532 H519 0.960 . S
C532 C531 1.524 . S
C533 C530 1.403 . S
C533 C534 1.392 . S
C533 C537 1.495 . S
C534 C533 1.392 . S
C534 C535 1.385 . S
C534 C536 1.478 . S
C535 H529 0.930 . S
C535 C531 1.400 . S
C535 C534 1.385 . S
C536 C534 1.478 . S
C536 C538 1.381 . S
C536 C542 1.383 . S
C537 C533 1.495 . S
C537 H543 0.959 . S
C537 H544 0.961 . S
C537 H545 0.960 . S
C538 C536 1.381 . S
C538 C539 1.394 . S
C538 H546 0.930 . S
C539 C538 1.394 . S
C539 C540 1.383 . S
C539 H547 0.929 . S
C540 C539 1.383 . S
C540 C541 1.377 . S
C541 H525 0.930 . S
C541 C540 1.377 . S
C541 C542 1.379 . S
C542 H526 0.931 . S
C542 C536 1.383 . S
C542 C541 1.379 . S
H543 C537 0.959 . S
H544 C537 0.961 . S
H545 C537 0.960 . S
H546 C538 0.930 . S
H547 C539 0.929 . S
H548 C556 0.929 . S
H549 C558 0.930 . S
H550 C560 0.930 . S
H551 C563 0.929 . S
H552 C566 0.930 . S
H553 C568 0.960 . S
H554 C568 0.960 . S
H555 C568 0.960 . S
C556 H548 0.929 . S
C556 C557 1.377 . S
C556 C558 1.384 . S
C557 C556 1.377 . S
C557 C563 1.390 . S
C558 H549 0.930 . S
C558 C556 1.384 . S
C558 C559 1.372 . S
C559 C558 1.372 . S
C559 C560 1.400 . S
C559 C564 1.490 . S
C560 H550 0.930 . S
C560 C559 1.400 . S
C560 C563 1.386 . S
H561 C577 0.930 . S
H562 C578 0.931 . S
C563 H551 0.929 . S
C563 C557 1.390 . S
C563 C560 1.386 . S
C564 C559 1.490 . S
C564 C566 1.395 . S
C564 C567 1.403 . S
H565 C571 0.930 . S
C566 H552 0.930 . S
C566 C564 1.395 . S
C566 C569 1.403 . S
C567 C564 1.403 . S
C567 C568 1.524 . S
C567 C571 1.400 . S
C568 H553 0.960 . S
C568 H554 0.960 . S
C568 H555 0.960 . S
C568 C567 1.524 . S
C569 C566 1.403 . S
C569 C570 1.392 . S
C569 C573 1.495 . S
C570 C569 1.392 . S
C570 C571 1.385 . S
C570 C572 1.478 . S
C571 H565 0.930 . S
C571 C567 1.400 . S
C571 C570 1.385 . S
C572 C570 1.478 . S
C572 C574 1.381 . S
C572 C578 1.383 . S
C573 C569 1.495 . S
C573 H579 0.959 . S
C573 H580 0.961 . S
C573 H581 0.960 . S
C574 C572 1.381 . S
C574 C575 1.394 . S
C574 H582 0.930 . S
C575 C574 1.394 . S
C575 C576 1.383 . S
C575 H583 0.929 . S
C576 C575 1.383 . S
C576 C577 1.377 . S
C577 H561 0.930 . S
C577 C576 1.377 . S
C577 C578 1.379 . S
C578 H562 0.931 . S
C578 C572 1.383 . S
C578 C577 1.379 . S
H579 C573 0.959 . S
H580 C573 0.961 . S
H581 C573 0.960 . S
H582 C574 0.930 . S
H583 C575 0.929 . S
H584 C592 0.929 . S
H585 C594 0.930 . S
H586 C596 0.930 . S
H587 C599 0.929 . S
H588 C602 0.930 . S
H589 C604 0.960 . S
H590 C604 0.960 . S
H591 C604 0.960 . S
C592 H584 0.929 . S
C592 C593 1.377 . S
C592 C594 1.384 . S
C593 C592 1.377 . S
C593 C599 1.390 . S
C594 H585 0.930 . S
C594 C592 1.384 . S
C594 C595 1.372 . S
C595 C594 1.372 . S
C595 C596 1.400 . S
C595 C600 1.490 . S
C596 H586 0.930 . S
C596 C595 1.400 . S
C596 C599 1.386 . S
H597 C613 0.930 . S
H598 C614 0.931 . S
C599 H587 0.929 . S
C599 C593 1.390 . S
C599 C596 1.386 . S
C600 C595 1.490 . S
C600 C602 1.395 . S
C600 C603 1.403 1_565 S
H601 C607 0.930 . S
C602 H588 0.930 . S
C602 C600 1.395 . S
C602 C605 1.403 . S
C603 C600 1.403 1_545 S
C603 C604 1.524 . S
C603 C607 1.400 . S
C604 H589 0.960 . S
C604 H590 0.960 . S
C604 H591 0.960 . S
C604 C603 1.524 . S
C605 C602 1.403 . S
C605 C606 1.392 . S
C605 C609 1.495 . S
C606 C605 1.392 . S
C606 C607 1.385 1_565 S
C606 C608 1.478 . S
C607 H601 0.930 . S
C607 C603 1.400 . S
C607 C606 1.385 1_545 S
C608 C606 1.478 . S
C608 C610 1.381 . S
C608 C614 1.383 . S
C609 C605 1.495 . S
C609 H615 0.959 . S
C609 H616 0.961 . S
C609 H617 0.960 . S
C610 C608 1.381 . S
C610 C611 1.394 . S
C610 H618 0.930 . S
C611 C610 1.394 . S
C611 C612 1.383 . S
C611 H619 0.929 . S
C612 C611 1.383 . S
C612 C613 1.377 . S
C613 H597 0.930 . S
C613 C612 1.377 . S
C613 C614 1.379 . S
C614 H598 0.931 . S
C614 C608 1.383 . S
C614 C613 1.379 . S
H615 C609 0.959 . S
H616 C609 0.961 . S
H617 C609 0.960 . S
H618 C610 0.930 . S
H619 C611 0.929 . S
H620 C628 0.929 . S
H621 C630 0.930 . S
H622 C632 0.930 . S
H623 C635 0.929 . S
H624 C638 0.930 . S
H625 C640 0.960 . S
H626 C640 0.960 . S
H627 C640 0.960 . S
C628 H620 0.929 . S
C628 C629 1.377 . S
C628 C630 1.384 . S
C629 C628 1.377 . S
C629 C635 1.390 . S
C630 H621 0.930 . S
C630 C628 1.384 . S
C630 C631 1.372 . S
C631 C630 1.372 . S
C631 C632 1.400 . S
C631 C636 1.490 . S
C632 H622 0.930 . S
C632 C631 1.400 . S
C632 C635 1.386 . S
H633 C649 0.930 . S
H634 C650 0.931 . S
C635 H623 0.929 . S
C635 C629 1.390 . S
C635 C632 1.386 . S
C636 C631 1.490 . S
C636 C638 1.395 . S
C636 C639 1.403 . S
H637 C643 0.930 . S
C638 H624 0.930 . S
C638 C636 1.395 . S
C638 C641 1.403 . S
C639 C636 1.403 . S
C639 C640 1.524 . S
C639 C643 1.400 . S
C640 H625 0.960 . S
C640 H626 0.960 . S
C640 H627 0.960 . S
C640 C639 1.524 . S
C641 C638 1.403 . S
C641 C642 1.392 . S
C641 C645 1.495 . S
C642 C641 1.392 . S
C642 C643 1.385 . S
C642 C644 1.478 . S
C643 H637 0.930 . S
C643 C639 1.400 . S
C643 C642 1.385 . S
C644 C642 1.478 . S
C644 C646 1.381 . S
C644 C650 1.383 . S
C645 C641 1.495 . S
C645 H651 0.959 . S
C645 H652 0.961 . S
C645 H653 0.960 . S
C646 C644 1.381 . S
C646 C647 1.394 . S
C646 H654 0.930 . S
C647 C646 1.394 . S
C647 C648 1.383 . S
C647 H655 0.929 . S
C648 C647 1.383 . S
C648 C649 1.377 . S
C649 H633 0.930 . S
C649 C648 1.377 . S
C649 C650 1.379 . S
C650 H634 0.931 . S
C650 C644 1.383 . S
C650 C649 1.379 . S
H651 C645 0.959 . S
H652 C645 0.961 . S
H653 C645 0.960 . S
H654 C646 0.930 . S
H655 C647 0.929 . S
H656 C664 0.929 . S
H657 C666 0.930 . S
H658 C668 0.930 . S
H659 C671 0.929 . S
H660 C674 0.930 . S
H661 C676 0.960 . S
H662 C676 0.960 . S
H663 C676 0.960 . S
C664 H656 0.929 . S
C664 C665 1.377 . S
C664 C666 1.384 . S
C665 C664 1.377 . S
C665 C671 1.390 . S
C666 H657 0.930 . S
C666 C664 1.384 . S
C666 C667 1.372 . S
C667 C666 1.372 . S
C667 C668 1.400 . S
C667 C672 1.490 . S
C668 H658 0.930 . S
C668 C667 1.400 . S
C668 C671 1.386 . S
H669 C685 0.930 . S
H670 C686 0.931 . S
C671 H659 0.929 . S
C671 C665 1.390 . S
C671 C668 1.386 . S
C672 C667 1.490 . S
C672 C674 1.395 . S
C672 C675 1.403 . S
H673 C679 0.930 . S
C674 H660 0.930 . S
C674 C672 1.395 . S
C674 C677 1.403 . S
C675 C672 1.403 . S
C675 C676 1.524 . S
C675 C679 1.400 . S
C676 H661 0.960 . S
C676 H662 0.960 . S
C676 H663 0.960 . S
C676 C675 1.524 . S
C677 C674 1.403 . S
C677 C678 1.392 . S
C677 C681 1.495 . S
C678 C677 1.392 . S
C678 C679 1.385 . S
C678 C680 1.478 . S
C679 H673 0.930 . S
C679 C675 1.400 . S
C679 C678 1.385 . S
C680 C678 1.478 . S
C680 C682 1.381 . S
C680 C686 1.383 . S
C681 C677 1.495 . S
C681 H687 0.959 . S
C681 H688 0.961 . S
C681 H689 0.960 . S
C682 C680 1.381 . S
C682 C683 1.394 . S
C682 H690 0.930 . S
C683 C682 1.394 . S
C683 C684 1.383 . S
C683 H691 0.929 . S
C684 C683 1.383 . S
C684 C685 1.377 . S
C685 H669 0.930 . S
C685 C684 1.377 . S
C685 C686 1.379 . S
C686 H670 0.931 . S
C686 C680 1.383 . S
C686 C685 1.379 . S
H687 C681 0.959 . S
H688 C681 0.961 . S
H689 C681 0.960 . S
H690 C682 0.930 . S
H691 C683 0.929 . S
H692 C700 0.929 . S
H693 C702 0.930 . S
H694 C704 0.930 . S
H695 C707 0.929 . S
H696 C710 0.930 . S
H697 C712 0.960 . S
H698 C712 0.960 . S
H699 C712 0.960 . S
C700 H692 0.929 . S
C700 C701 1.377 . S
C700 C702 1.384 . S
C701 C700 1.377 . S
C701 C707 1.390 . S
C702 H693 0.930 . S
C702 C700 1.384 . S
C702 C703 1.372 . S
C703 C702 1.372 . S
C703 C704 1.400 . S
C703 C708 1.490 . S
C704 H694 0.930 . S
C704 C703 1.400 . S
C704 C707 1.386 . S
H705 C721 0.930 . S
H706 C722 0.931 . S
C707 H695 0.929 . S
C707 C701 1.390 . S
C707 C704 1.386 . S
C708 C703 1.490 . S
C708 C710 1.395 . S
C708 C711 1.403 . S
H709 C715 0.930 . S
C710 H696 0.930 . S
C710 C708 1.395 . S
C710 C713 1.403 . S
C711 C708 1.403 . S
C711 C712 1.524 . S
C711 C715 1.400 . S
C712 H697 0.960 . S
C712 H698 0.960 . S
C712 H699 0.960 . S
C712 C711 1.524 . S
C713 C710 1.403 . S
C713 C714 1.392 . S
C713 C717 1.495 . S
C714 C713 1.392 . S
C714 C715 1.385 . S
C714 C716 1.478 . S
C715 H709 0.930 . S
C715 C711 1.400 . S
C715 C714 1.385 . S
C716 C714 1.478 . S
C716 C718 1.381 . S
C716 C722 1.383 . S
C717 C713 1.495 . S
C717 H723 0.959 . S
C717 H724 0.961 . S
C717 H725 0.960 . S
C718 C716 1.381 . S
C718 C719 1.394 . S
C718 H726 0.930 . S
C719 C718 1.394 . S
C719 C720 1.383 . S
C719 H727 0.929 . S
C720 C719 1.383 . S
C720 C721 1.377 . S
C721 H705 0.930 . S
C721 C720 1.377 . S
C721 C722 1.379 . S
C722 H706 0.931 . S
C722 C716 1.383 . S
C722 C721 1.379 . S
H723 C717 0.959 . S
H724 C717 0.961 . S
H725 C717 0.960 . S
H726 C718 0.930 . S
H727 C719 0.929 . S
H728 C736 0.929 . S
H729 C738 0.930 . S
H730 C740 0.930 . S
H731 C743 0.929 . S
H732 C746 0.930 . S
H733 C748 0.960 . S
H734 C748 0.960 . S
H735 C748 0.960 . S
C736 H728 0.929 . S
C736 C737 1.377 . S
C736 C738 1.384 . S
C737 C736 1.377 . S
C737 C743 1.390 . S
C738 H729 0.930 . S
C738 C736 1.384 . S
C738 C739 1.372 . S
C739 C738 1.372 . S
C739 C740 1.400 . S
C739 C744 1.490 . S
C740 H730 0.930 . S
C740 C739 1.400 . S
C740 C743 1.386 . S
H741 C757 0.930 . S
H742 C758 0.931 . S
C743 H731 0.929 . S
C743 C737 1.390 . S
C743 C740 1.386 . S
C744 C739 1.490 . S
C744 C746 1.395 . S
C744 C747 1.403 . S
H745 C751 0.930 . S
C746 H732 0.930 . S
C746 C744 1.395 . S
C746 C749 1.403 . S
C747 C744 1.403 . S
C747 C748 1.524 . S
C747 C751 1.400 . S
C748 H733 0.960 . S
C748 H734 0.960 . S
C748 H735 0.960 . S
C748 C747 1.524 . S
C749 C746 1.403 . S
C749 C750 1.392 . S
C749 C753 1.495 . S
C750 C749 1.392 . S
C750 C751 1.385 . S
C750 C752 1.478 . S
C751 H745 0.930 . S
C751 C747 1.400 . S
C751 C750 1.385 . S
C752 C750 1.478 . S
C752 C754 1.381 . S
C752 C758 1.383 . S
C753 C749 1.495 . S
C753 H759 0.959 . S
C753 H760 0.961 . S
C753 H761 0.960 . S
C754 C752 1.381 . S
C754 C755 1.394 . S
C754 H762 0.930 . S
C755 C754 1.394 . S
C755 C756 1.383 . S
C755 H763 0.929 . S
C756 C755 1.383 . S
C756 C757 1.377 . S
C757 H741 0.930 . S
C757 C756 1.377 . S
C757 C758 1.379 . S
C758 H742 0.931 . S
C758 C752 1.383 . S
C758 C757 1.379 . S
H759 C753 0.959 . S
H760 C753 0.961 . S
H761 C753 0.960 . S
H762 C754 0.930 . S
H763 C755 0.929 . S
H764 C772 0.929 . S
H765 C774 0.930 . S
H766 C776 0.930 . S
H767 C779 0.929 . S
H768 C782 0.930 . S
H769 C784 0.960 . S
H770 C784 0.960 . S
H771 C784 0.960 . S
C772 H764 0.929 . S
C772 C773 1.377 . S
C772 C774 1.384 . S
C773 C772 1.377 . S
C773 C779 1.390 . S
C774 H765 0.930 . S
C774 C772 1.384 . S
C774 C775 1.372 . S
C775 C774 1.372 . S
C775 C776 1.400 . S
C775 C780 1.490 . S
C776 H766 0.930 . S
C776 C775 1.400 . S
C776 C779 1.386 . S
H777 C793 0.930 . S
H778 C794 0.931 . S
C779 H767 0.929 . S
C779 C773 1.390 . S
C779 C776 1.386 . S
C780 C775 1.490 . S
C780 C782 1.395 . S
C780 C783 1.403 . S
H781 C787 0.930 . S
C782 H768 0.930 . S
C782 C780 1.395 . S
C782 C785 1.403 . S
C783 C780 1.403 . S
C783 C784 1.524 . S
C783 C787 1.400 . S
C784 H769 0.960 . S
C784 H770 0.960 . S
C784 H771 0.960 . S
C784 C783 1.524 . S
C785 C782 1.403 . S
C785 C786 1.392 . S
C785 C789 1.495 . S
C786 C785 1.392 . S
C786 C787 1.385 . S
C786 C788 1.478 . S
C787 H781 0.930 . S
C787 C783 1.400 . S
C787 C786 1.385 . S
C788 C786 1.478 . S
C788 C790 1.381 . S
C788 C794 1.383 . S
C789 C785 1.495 . S
C789 H795 0.959 . S
C789 H796 0.961 . S
C789 H797 0.960 . S
C790 C788 1.381 . S
C790 C791 1.394 . S
C790 H798 0.930 . S
C791 C790 1.394 . S
C791 C792 1.383 . S
C791 H799 0.929 . S
C792 C791 1.383 . S
C792 C793 1.377 . S
C793 H777 0.930 . S
C793 C792 1.377 . S
C793 C794 1.379 . S
C794 H778 0.931 . S
C794 C788 1.383 . S
C794 C793 1.379 . S
H795 C789 0.959 . S
H796 C789 0.961 . S
H797 C789 0.960 . S
H798 C790 0.930 . S
H799 C791 0.929 . S
H800 C808 0.929 . S
H801 C810 0.930 . S
H802 C812 0.930 . S
H803 C815 0.929 . S
H804 C818 0.930 . S
H805 C820 0.960 1_655 S
H806 C820 0.960 . S
H807 C820 0.960 . S
C808 H800 0.929 . S
C808 C809 1.377 . S
C808 C810 1.384 . S
C809 C808 1.377 . S
C809 C815 1.390 . S
C810 H801 0.930 . S
C810 C808 1.384 . S
C810 C811 1.372 . S
C811 C810 1.372 . S
C811 C812 1.400 . S
C811 C816 1.490 . S
C812 H802 0.930 . S
C812 C811 1.400 . S
C812 C815 1.386 . S
H813 C829 0.930 . S
H814 C830 0.931 . S
C815 H803 0.929 . S
C815 C809 1.390 . S
C815 C812 1.386 . S
C816 C811 1.490 . S
C816 C818 1.395 . S
C816 C819 1.403 . S
H817 C823 0.930 . S
C818 H804 0.930 . S
C818 C816 1.395 . S
C818 C821 1.403 . S
C819 C816 1.403 . S
C819 C820 1.524 . S
C819 C823 1.400 . S
C820 H805 0.960 1_455 S
C820 H806 0.960 . S
C820 H807 0.960 . S
C820 C819 1.524 . S
C821 C818 1.403 . S
C821 C822 1.392 . S
C821 C825 1.495 . S
C822 C821 1.392 . S
C822 C823 1.385 . S
C822 C824 1.478 . S
C823 H817 0.930 . S
C823 C819 1.400 . S
C823 C822 1.385 . S
C824 C822 1.478 . S
C824 C826 1.381 . S
C824 C830 1.383 . S
C825 C821 1.495 . S
C825 H831 0.959 . S
C825 H832 0.961 . S
C825 H833 0.960 . S
C826 C824 1.381 . S
C826 C827 1.394 . S
C826 H834 0.930 . S
C827 C826 1.394 . S
C827 C828 1.383 . S
C827 H835 0.929 . S
C828 C827 1.383 . S
C828 C829 1.377 . S
C829 H813 0.930 . S
C829 C828 1.377 . S
C829 C830 1.379 . S
C830 H814 0.931 . S
C830 C824 1.383 . S
C830 C829 1.379 . S
H831 C825 0.959 . S
H832 C825 0.961 . S
H833 C825 0.960 . S
H834 C826 0.930 . S
H835 C827 0.929 . S
H836 C844 0.929 . S
H837 C846 0.930 . S
H838 C848 0.930 . S
H839 C851 0.929 . S
H840 C854 0.930 . S
H841 C856 0.960 . S
H842 C856 0.960 . S
H843 C856 0.960 . S
C844 H836 0.929 . S
C844 C845 1.377 . S
C844 C846 1.384 . S
C845 C844 1.377 . S
C845 C851 1.390 . S
C846 H837 0.930 . S
C846 C844 1.384 . S
C846 C847 1.372 . S
C847 C846 1.372 . S
C847 C848 1.400 . S
C847 C852 1.490 . S
C848 H838 0.930 . S
C848 C847 1.400 . S
C848 C851 1.386 . S
H849 C865 0.930 . S
H850 C866 0.931 . S
C851 H839 0.929 . S
C851 C845 1.390 . S
C851 C848 1.386 . S
C852 C847 1.490 . S
C852 C854 1.395 . S
C852 C855 1.403 . S
H853 C859 0.930 . S
C854 H840 0.930 . S
C854 C852 1.395 . S
C854 C857 1.403 . S
C855 C852 1.403 . S
C855 C856 1.524 . S
C855 C859 1.400 . S
C856 H841 0.960 . S
C856 H842 0.960 . S
C856 H843 0.960 . S
C856 C855 1.524 . S
C857 C854 1.403 . S
C857 C858 1.392 . S
C857 C861 1.495 . S
C858 C857 1.392 . S
C858 C859 1.385 . S
C858 C860 1.478 . S
C859 H853 0.930 . S
C859 C855 1.400 . S
C859 C858 1.385 . S
C860 C858 1.478 . S
C860 C862 1.381 . S
C860 C866 1.383 . S
C861 C857 1.495 . S
C861 H867 0.959 . S
C861 H868 0.961 . S
C861 H869 0.960 . S
C862 C860 1.381 . S
C862 C863 1.394 . S
C862 H870 0.930 . S
C863 C862 1.394 . S
C863 C864 1.383 . S
C863 H871 0.929 . S
C864 C863 1.383 . S
C864 C865 1.377 . S
C865 H849 0.930 . S
C865 C864 1.377 . S
C865 C866 1.379 . S
C866 H850 0.931 . S
C866 C860 1.383 . S
C866 C865 1.379 . S
H867 C861 0.959 . S
H868 C861 0.961 . S
H869 C861 0.960 . S
H870 C862 0.930 . S
H871 C863 0.929 . S
H872 C880 0.929 . S
H873 C882 0.930 . S
H874 C884 0.930 . S
H875 C887 0.929 . S
H876 C890 0.932 . S
H877 C892 0.960 . S
H878 C892 0.960 1_455 S
H879 C892 0.960 . S
C880 H872 0.929 . S
C880 C881 1.377 1_455 S
C880 C882 1.384 . S
C881 C880 1.377 1_655 S
C881 C887 1.390 . S
C882 H873 0.930 . S
C882 C880 1.384 . S
C882 C883 1.372 1_455 S
C883 C882 1.372 1_655 S
C883 C884 1.400 . S
C883 C888 1.490 . S
C884 H874 0.930 . S
C884 C883 1.400 . S
C884 C887 1.386 . S
H885 C901 0.930 . S
H886 C902 0.931 . S
C887 H875 0.929 . S
C887 C881 1.390 . S
C887 C884 1.386 . S
C888 C883 1.490 . S
C888 C890 1.395 . S
C888 C891 1.403 . S
H889 C895 0.930 . S
C890 H876 0.932 . S
C890 C888 1.395 . S
C890 C893 1.404 1_655 S
C891 C888 1.403 . S
C891 C892 1.524 . S
C891 C895 1.400 . S
C892 H877 0.960 . S
C892 H878 0.960 1_655 S
C892 H879 0.960 . S
C892 C891 1.524 . S
C893 C890 1.404 1_455 S
C893 C894 1.391 1_455 S
C893 C897 1.496 . S
C894 C893 1.391 1_655 S
C894 C895 1.385 . S
C894 C896 1.478 1_655 S
C895 H889 0.930 . S
C895 C891 1.400 . S
C895 C894 1.385 . S
C896 C894 1.478 1_455 S
C896 C898 1.394 . S
C896 C902 1.370 1_455 S
C897 C893 1.496 . S
C897 H903 0.959 . S
C897 H904 0.961 1_455 S
C897 H905 0.960 . S
C898 C896 1.394 . S
C898 C899 1.394 . S
C898 H906 0.930 . S
C899 C898 1.394 . S
C899 C900 1.383 . S
C899 H907 0.929 . S
C900 C899 1.383 . S
C900 C901 1.377 1_455 S
C901 H885 0.930 . S
C901 C900 1.377 1_655 S
C901 C902 1.379 . S
C902 H886 0.931 . S
C902 C896 1.370 1_655 S
C902 C901 1.379 . S
H903 C897 0.959 . S
H904 C897 0.961 1_655 S
H905 C897 0.960 . S
H906 C898 0.930 . S
H907 C899 0.929 . S
H908 C916 0.929 . S
H909 C918 0.930 . S
H910 C920 0.930 . S
H911 C923 0.929 . S
H912 C926 0.930 . S
H913 C928 0.960 . S
H914 C928 0.960 . S
H915 C928 0.960 . S
C916 H908 0.929 . S
C916 C917 1.377 . S
C916 C918 1.384 . S
C917 C916 1.377 . S
C917 C923 1.390 . S
C918 H909 0.930 . S
C918 C916 1.384 . S
C918 C919 1.372 . S
C919 C918 1.372 . S
C919 C920 1.400 . S
C919 C924 1.490 . S
C920 H910 0.930 . S
C920 C919 1.400 . S
C920 C923 1.386 . S
H921 C937 0.930 . S
H922 C938 0.931 . S
C923 H911 0.929 . S
C923 C917 1.390 . S
C923 C920 1.386 . S
C924 C919 1.490 . S
C924 C926 1.395 . S
C924 C927 1.403 . S
H925 C931 0.930 . S
C926 H912 0.930 . S
C926 C924 1.395 . S
C926 C929 1.403 . S
C927 C924 1.403 . S
C927 C928 1.524 . S
C927 C931 1.400 . S
C928 H913 0.960 . S
C928 H914 0.960 . S
C928 H915 0.960 . S
C928 C927 1.524 . S
C929 C926 1.403 . S
C929 C930 1.392 . S
C929 C933 1.495 . S
C930 C929 1.392 . S
C930 C931 1.385 . S
C930 C932 1.478 . S
C931 H925 0.930 . S
C931 C927 1.400 . S
C931 C930 1.385 . S
C932 C930 1.478 . S
C932 C934 1.381 . S
C932 C938 1.383 . S
C933 C929 1.495 . S
C933 H939 0.959 . S
C933 H940 0.961 . S
C933 H941 0.960 . S
C934 C932 1.381 . S
C934 C935 1.394 . S
C934 H942 0.930 . S
C935 C934 1.394 . S
C935 C936 1.383 . S
C935 H943 0.929 . S
C936 C935 1.383 . S
C936 C937 1.377 . S
C937 H921 0.930 . S
C937 C936 1.377 . S
C937 C938 1.379 . S
C938 H922 0.931 . S
C938 C932 1.383 . S
C938 C937 1.379 . S
H939 C933 0.959 . S
H940 C933 0.961 . S
H941 C933 0.960 . S
H942 C934 0.930 . S
H943 C935 0.929 . S
H944 C952 0.929 . S
H945 C954 0.930 . S
H946 C956 0.930 . S
H947 C959 0.929 . S
H948 C962 0.930 . S
H949 C964 0.960 . S
H950 C964 0.960 . S
H951 C964 0.960 . S
C952 H944 0.929 . S
C952 C953 1.377 . S
C952 C954 1.384 . S
C953 C952 1.377 . S
C953 C959 1.390 . S
C954 H945 0.930 . S
C954 C952 1.384 . S
C954 C955 1.372 . S
C955 C954 1.372 . S
C955 C956 1.400 . S
C955 C960 1.490 . S
C956 H946 0.930 . S
C956 C955 1.400 . S
C956 C959 1.386 . S
H957 C973 0.930 . S
H958 C974 0.931 . S
C959 H947 0.929 . S
C959 C953 1.390 . S
C959 C956 1.386 . S
C960 C955 1.490 . S
C960 C962 1.395 . S
C960 C963 1.403 . S
H961 C967 0.930 . S
C962 H948 0.930 . S
C962 C960 1.395 . S
C962 C965 1.403 . S
C963 C960 1.403 . S
C963 C964 1.524 . S
C963 C967 1.400 . S
C964 H949 0.960 . S
C964 H950 0.960 . S
C964 H951 0.960 . S
C964 C963 1.524 . S
C965 C962 1.403 . S
C965 C966 1.392 . S
C965 C969 1.495 . S
C966 C965 1.392 . S
C966 C967 1.385 . S
C966 C968 1.478 . S
C967 H961 0.930 . S
C967 C963 1.400 . S
C967 C966 1.385 . S
C968 C966 1.478 . S
C968 C970 1.381 . S
C968 C974 1.383 . S
C969 C965 1.495 . S
C969 H975 0.959 . S
C969 H976 0.961 . S
C969 H977 0.960 . S
C970 C968 1.381 . S
C970 C971 1.394 . S
C970 H978 0.930 . S
C971 C970 1.394 . S
C971 C972 1.383 . S
C971 H979 0.929 . S
C972 C971 1.383 . S
C972 C973 1.377 . S
C973 H957 0.930 . S
C973 C972 1.377 . S
C973 C974 1.379 . S
C974 H958 0.931 . S
C974 C968 1.383 . S
C974 C973 1.379 . S
H975 C969 0.959 . S
H976 C969 0.961 . S
H977 C969 0.960 . S
H978 C970 0.930 . S
H979 C971 0.929 . S
H980 C988 0.929 . S
H981 C990 0.930 . S
H982 C992 0.930 . S
H983 C995 0.929 1_554 S
H984 C998 0.930 . S
H985 C1000 0.960 . S
H986 C1000 0.960 . S
H987 C1000 0.960 1_554 S
C988 H980 0.929 . S
C988 C989 1.377 1_565 S
C988 C990 1.384 . S
C989 C988 1.377 1_545 S
C989 C995 1.390 . S
C990 H981 0.930 . S
C990 C988 1.384 . S
C990 C991 1.372 . S
C991 C990 1.372 . S
C991 C992 1.400 1_566 S
C991 C996 1.471 1_556 S
C992 H982 0.930 . S
C992 C991 1.400 1_544 S
C992 C995 1.386 1_554 S
H993 C1009 0.930 . S
H994 C1010 0.931 . S
C995 H983 0.929 1_556 S
C995 C989 1.390 . S
C995 C992 1.386 1_556 S
C996 C991 1.471 1_554 S
C996 C998 1.415 . S
C996 C999 1.403 . S
H997 C1003 0.930 . S
C998 H984 0.930 . S
C998 C996 1.415 . S
C998 C1001 1.403 . S
C999 C996 1.403 . S
C999 C1000 1.524 1_564 S
C999 C1003 1.400 . S
C1000 H985 0.960 . S
C1000 H986 0.960 . S
C1000 H987 0.960 1_556 S
C1000 C999 1.524 1_546 S
C1001 C998 1.403 . S
C1001 C1002 1.392 . S
C1001 C1005 1.495 . S
C1002 C1001 1.392 . S
C1002 C1003 1.385 . S
C1002 C1004 1.478 . S
C1003 H997 0.930 . S
C1003 C999 1.400 . S
C1003 C1002 1.385 . S
C1004 C1002 1.478 . S
C1004 C1006 1.381 . S
C1004 C1010 1.383 . S
C1005 C1001 1.495 . S
C1005 H1011 0.959 . S
C1005 H1012 0.961 . S
C1005 H1013 0.960 . S
C1006 C1004 1.381 . S
C1006 C1007 1.394 . S
C1006 H1014 0.937 . S
C1007 C1006 1.394 . S
C1007 C1008 1.383 . S
C1007 H1015 0.929 . S
C1008 C1007 1.383 . S
C1008 C1009 1.377 . S
C1009 H993 0.930 . S
C1009 C1008 1.377 . S
C1009 C1010 1.379 . S
C1010 H994 0.931 . S
C1010 C1004 1.383 . S
C1010 C1009 1.379 . S
H1011 C1005 0.959 . S
H1012 C1005 0.961 . S
H1013 C1005 0.960 . S
H1014 C1006 0.937 . S
H1015 C1007 0.929 . S
H1016 C1024 0.929 . S
H1017 C1026 0.930 . S
H1018 C1028 0.930 . S
H1019 C1031 0.929 . S
H1020 C1034 0.930 . S
H1021 C1036 0.960 . S
H1022 C1036 0.960 . S
H1023 C1036 0.960 . S
C1024 H1016 0.929 . S
C1024 C1025 1.377 . S
C1024 C1026 1.384 . S
C1025 C1024 1.377 . S
C1025 C1031 1.390 . S
C1026 H1017 0.930 . S
C1026 C1024 1.384 . S
C1026 C1027 1.372 . S
C1027 C1026 1.372 . S
C1027 C1028 1.400 . S
C1027 C1032 1.490 . S
C1028 H1018 0.930 . S
C1028 C1027 1.400 . S
C1028 C1031 1.386 . S
H1029 C1045 0.930 . S
H1030 C1046 0.931 . S
C1031 H1019 0.929 . S
C1031 C1025 1.390 . S
C1031 C1028 1.386 . S
C1032 C1027 1.490 . S
C1032 C1034 1.395 . S
C1032 C1035 1.403 . S
H1033 C1039 0.930 . S
C1034 H1020 0.930 . S
C1034 C1032 1.395 . S
C1034 C1037 1.403 . S
C1035 C1032 1.403 . S
C1035 C1036 1.524 . S
C1035 C1039 1.400 . S
C1036 H1021 0.960 . S
C1036 H1022 0.960 . S
C1036 H1023 0.960 . S
C1036 C1035 1.524 . S
C1037 C1034 1.403 . S
C1037 C1038 1.392 . S
C1037 C1041 1.495 . S
C1038 C1037 1.392 . S
C1038 C1039 1.385 . S
C1038 C1040 1.478 . S
C1039 H1033 0.930 . S
C1039 C1035 1.400 . S
C1039 C1038 1.385 . S
C1040 C1038 1.478 . S
C1040 C1042 1.381 . S
C1040 C1046 1.383 . S
C1041 C1037 1.495 . S
C1041 H1047 0.959 . S
C1041 H1048 0.961 . S
C1041 H1049 0.960 . S
C1042 C1040 1.381 . S
C1042 C1043 1.394 . S
C1042 H1050 0.930 . S
C1043 C1042 1.394 . S
C1043 C1044 1.383 . S
C1043 H1051 0.929 . S
C1044 C1043 1.383 . S
C1044 C1045 1.377 . S
C1045 H1029 0.930 . S
C1045 C1044 1.377 . S
C1045 C1046 1.379 . S
C1046 H1030 0.931 . S
C1046 C1040 1.383 . S
C1046 C1045 1.379 . S
H1047 C1041 0.959 . S
H1048 C1041 0.961 . S
H1049 C1041 0.960 . S
H1050 C1042 0.930 . S
H1051 C1043 0.929 . S
H1052 C1060 0.929 . S
H1053 C1062 0.930 . S
H1054 C1064 0.930 . S
H1055 C1067 0.961 . S
H1056 C1070 0.930 . S
H1057 C1072 0.960 . S
H1058 C1072 0.960 . S
H1059 C1072 0.960 . S
C1060 H1052 0.929 . S
C1060 C1061 1.377 . S
C1060 C1062 1.384 . S
C1061 C1060 1.377 . S
C1061 C1067 1.390 . S
C1062 H1053 0.930 . S
C1062 C1060 1.384 . S
C1062 C1063 1.372 . S
C1063 C1062 1.372 . S
C1063 C1064 1.400 . S
C1063 C1068 1.490 . S
C1064 H1054 0.930 . S
C1064 C1063 1.400 . S
C1064 C1067 1.386 . S
H1065 C1081 0.930 . S
H1066 C1082 0.931 . S
C1067 H1055 0.961 . S
C1067 C1061 1.390 . S
C1067 C1064 1.386 . S
C1068 C1063 1.490 . S
C1068 C1070 1.395 . S
C1068 C1071 1.403 . S
H1069 C1075 0.930 . S
C1070 H1056 0.930 . S
C1070 C1068 1.395 . S
C1070 C1073 1.403 . S
C1071 C1068 1.403 . S
C1071 C1072 1.524 . S
C1071 C1075 1.400 . S
C1072 H1057 0.960 . S
C1072 H1058 0.960 . S
C1072 H1059 0.960 . S
C1072 C1071 1.524 . S
C1073 C1070 1.403 . S
C1073 C1074 1.392 . S
C1073 C1077 1.495 . S
C1074 C1073 1.392 . S
C1074 C1075 1.385 . S
C1074 C1076 1.478 . S
C1075 H1069 0.930 . S
C1075 C1071 1.400 . S
C1075 C1074 1.385 . S
C1076 C1074 1.478 . S
C1076 C1078 1.381 . S
C1076 C1082 1.383 . S
C1077 C1073 1.495 . S
C1077 H1083 0.959 . S
C1077 H1084 0.961 . S
C1077 H1085 0.960 . S
C1078 C1076 1.381 . S
C1078 C1079 1.394 . S
C1078 H1086 0.930 . S
C1079 C1078 1.394 . S
C1079 C1080 1.383 . S
C1079 H1087 0.929 . S
C1080 C1079 1.383 . S
C1080 C1081 1.377 . S
C1081 H1065 0.930 . S
C1081 C1080 1.377 . S
C1081 C1082 1.379 . S
C1082 H1066 0.931 . S
C1082 C1076 1.383 . S
C1082 C1081 1.379 . S
H1083 C1077 0.959 . S
H1084 C1077 0.961 . S
H1085 C1077 0.960 . S
H1086 C1078 0.930 . S
H1087 C1079 0.929 . S
H1088 C1096 0.929 . S
H1089 C1098 0.930 . S
H1090 C1100 0.930 . S
H1091 C1103 0.929 . S
H1092 C1106 0.930 . S
H1093 C1108 0.960 . S
H1094 C1108 0.960 . S
H1095 C1108 0.960 . S
C1096 H1088 0.929 . S
C1096 C1097 1.377 . S
C1096 C1098 1.384 . S
C1097 C1096 1.377 . S
C1097 C1103 1.390 . S
C1098 H1089 0.930 . S
C1098 C1096 1.384 . S
C1098 C1099 1.372 . S
C1099 C1098 1.372 . S
C1099 C1100 1.400 . S
C1099 C1104 1.490 . S
C1100 H1090 0.930 . S
C1100 C1099 1.400 . S
C1100 C1103 1.386 . S
H1101 C1117 0.930 . S
H1102 C1118 0.931 . S
C1103 H1091 0.929 . S
C1103 C1097 1.390 . S
C1103 C1100 1.386 . S
C1104 C1099 1.490 . S
C1104 C1106 1.395 . S
C1104 C1107 1.403 . S
H1105 C1111 0.930 . S
C1106 H1092 0.930 . S
C1106 C1104 1.395 . S
C1106 C1109 1.403 . S
C1107 C1104 1.403 . S
C1107 C1108 1.524 . S
C1107 C1111 1.400 . S
C1108 H1093 0.960 . S
C1108 H1094 0.960 . S
C1108 H1095 0.960 . S
C1108 C1107 1.524 . S
C1109 C1106 1.403 . S
C1109 C1110 1.392 . S
C1109 C1113 1.495 . S
C1110 C1109 1.392 . S
C1110 C1111 1.385 . S
C1110 C1112 1.478 . S
C1111 H1105 0.930 . S
C1111 C1107 1.400 . S
C1111 C1110 1.385 . S
C1112 C1110 1.478 . S
C1112 C1114 1.381 . S
C1112 C1118 1.383 . S
C1113 C1109 1.495 . S
C1113 H1119 0.959 . S
C1113 H1120 0.961 . S
C1113 H1121 0.960 . S
C1114 C1112 1.381 . S
C1114 C1115 1.394 . S
C1114 H1122 0.930 . S
C1115 C1114 1.394 . S
C1115 C1116 1.383 . S
C1115 H1123 0.929 . S
C1116 C1115 1.383 . S
C1116 C1117 1.377 . S
C1117 H1101 0.930 . S
C1117 C1116 1.377 . S
C1117 C1118 1.379 . S
C1118 H1102 0.931 . S
C1118 C1112 1.383 . S
C1118 C1117 1.379 . S
H1119 C1113 0.959 . S
H1120 C1113 0.961 . S
H1121 C1113 0.960 . S
H1122 C1114 0.930 . S
H1123 C1115 0.929 . S
H1124 C1132 0.929 . S
H1125 C1134 0.930 . S
H1126 C1136 0.930 . S
H1127 C1139 0.929 . S
H1128 C1142 0.930 . S
H1129 C1144 0.960 . S
H1130 C1144 0.960 . S
H1131 C1144 0.960 . S
C1132 H1124 0.929 . S
C1132 C1133 1.377 . S
C1132 C1134 1.384 . S
C1133 C1132 1.377 . S
C1133 C1139 1.390 . S
C1134 H1125 0.930 . S
C1134 C1132 1.384 . S
C1134 C1135 1.372 . S
C1135 C1134 1.372 . S
C1135 C1136 1.400 . S
C1135 C1140 1.490 . S
C1136 H1126 0.930 . S
C1136 C1135 1.400 . S
C1136 C1139 1.386 . S
H1137 C1153 0.930 . S
H1138 C1154 0.931 . S
C1139 H1127 0.929 . S
C1139 C1133 1.390 . S
C1139 C1136 1.386 . S
C1140 C1135 1.490 . S
C1140 C1142 1.395 . S
C1140 C1143 1.403 . S
H1141 C1147 0.930 . S
C1142 H1128 0.930 . S
C1142 C1140 1.395 . S
C1142 C1145 1.403 . S
C1143 C1140 1.403 . S
C1143 C1144 1.524 . S
C1143 C1147 1.400 . S
C1144 H1129 0.960 . S
C1144 H1130 0.960 . S
C1144 H1131 0.960 . S
C1144 C1143 1.524 . S
C1145 C1142 1.403 . S
C1145 C1146 1.392 . S
C1145 C1149 1.495 . S
C1146 C1145 1.392 . S
C1146 C1147 1.385 . S
C1146 C1148 1.478 . S
C1147 H1141 0.930 . S
C1147 C1143 1.400 . S
C1147 C1146 1.385 . S
C1148 C1146 1.478 . S
C1148 C1150 1.381 . S
C1148 C1154 1.383 . S
C1149 C1145 1.495 . S
C1149 H1155 0.959 . S
C1149 H1156 0.961 . S
C1149 H1157 0.960 . S
C1150 C1148 1.381 . S
C1150 C1151 1.394 . S
C1150 H1158 0.930 . S
C1151 C1150 1.394 . S
C1151 C1152 1.383 . S
C1151 H1159 0.929 . S
C1152 C1151 1.383 . S
C1152 C1153 1.377 . S
C1153 H1137 0.930 . S
C1153 C1152 1.377 . S
C1153 C1154 1.379 . S
C1154 H1138 0.931 . S
C1154 C1148 1.383 . S
C1154 C1153 1.379 . S
H1155 C1149 0.959 . S
H1156 C1149 0.961 . S
H1157 C1149 0.960 . S
H1158 C1150 0.930 . S
H1159 C1151 0.929 . S
H1160 C1168 0.929 . S
H1161 C1170 0.930 . S
H1162 C1172 0.930 . S
H1163 C1175 0.929 . S
H1164 C1178 0.930 . S
H1165 C1180 0.960 . S
H1166 C1180 0.960 . S
H1167 C1180 0.960 . S
C1168 H1160 0.929 . S
C1168 C1169 1.377 . S
C1168 C1170 1.384 . S
C1169 C1168 1.377 . S
C1169 C1175 1.390 . S
C1170 H1161 0.930 . S
C1170 C1168 1.384 . S
C1170 C1171 1.372 . S
C1171 C1170 1.372 . S
C1171 C1172 1.400 . S
C1171 C1176 1.490 . S
C1172 H1162 0.930 . S
C1172 C1171 1.400 . S
C1172 C1175 1.386 . S
H1173 C1189 0.930 . S
H1174 C1190 0.931 . S
C1175 H1163 0.929 . S
C1175 C1169 1.390 . S
C1175 C1172 1.386 . S
C1176 C1171 1.490 . S
C1176 C1178 1.395 . S
C1176 C1179 1.403 . S
H1177 C1183 0.930 . S
C1178 H1164 0.930 . S
C1178 C1176 1.395 . S
C1178 C1181 1.403 . S
C1179 C1176 1.403 . S
C1179 C1180 1.524 . S
C1179 C1183 1.400 . S
C1180 H1165 0.960 . S
C1180 H1166 0.960 . S
C1180 H1167 0.960 . S
C1180 C1179 1.524 . S
C1181 C1178 1.403 . S
C1181 C1182 1.392 . S
C1181 C1185 1.495 . S
C1182 C1181 1.392 . S
C1182 C1183 1.385 . S
C1182 C1184 1.478 . S
C1183 H1177 0.930 . S
C1183 C1179 1.400 . S
C1183 C1182 1.385 . S
C1184 C1182 1.478 . S
C1184 C1186 1.381 . S
C1184 C1190 1.383 . S
C1185 C1181 1.495 . S
C1185 H1191 0.959 . S
C1185 H1192 0.961 . S
C1185 H1193 0.960 . S
C1186 C1184 1.381 . S
C1186 C1187 1.394 . S
C1186 H1194 0.930 . S
C1187 C1186 1.394 . S
C1187 C1188 1.383 . S
C1187 H1195 0.929 . S
C1188 C1187 1.383 . S
C1188 C1189 1.377 . S
C1189 H1173 0.930 . S
C1189 C1188 1.377 . S
C1189 C1190 1.379 . S
C1190 H1174 0.931 . S
C1190 C1184 1.383 . S
C1190 C1189 1.379 . S
H1191 C1185 0.959 . S
H1192 C1185 0.961 . S
H1193 C1185 0.960 . S
H1194 C1186 0.930 . S
H1195 C1187 0.929 . S
H1196 C1204 0.929 . S
H1197 C1206 0.930 . S
H1198 C1208 0.930 . S
H1199 C1211 0.929 . S
H1200 C1214 0.930 . S
H1201 C1216 0.960 . S
H1202 C1216 0.960 . S
H1203 C1216 0.960 . S
C1204 H1196 0.929 . S
C1204 C1205 1.377 . S
C1204 C1206 1.384 . S
C1205 C1204 1.377 . S
C1205 C1211 1.390 . S
C1206 H1197 0.930 . S
C1206 C1204 1.384 . S
C1206 C1207 1.372 . S
C1207 C1206 1.372 . S
C1207 C1208 1.400 . S
C1207 C1212 1.490 . S
C1208 H1198 0.930 . S
C1208 C1207 1.400 . S
C1208 C1211 1.386 . S
H1209 C1225 0.930 . S
H1210 C1226 0.931 . S
C1211 H1199 0.929 . S
C1211 C1205 1.390 . S
C1211 C1208 1.386 . S
C1212 C1207 1.490 . S
C1212 C1214 1.395 . S
C1212 C1215 1.403 . S
H1213 C1219 0.930 . S
C1214 H1200 0.930 . S
C1214 C1212 1.395 . S
C1214 C1217 1.403 . S
C1215 C1212 1.403 . S
C1215 C1216 1.524 . S
C1215 C1219 1.400 . S
C1216 H1201 0.960 . S
C1216 H1202 0.960 . S
C1216 H1203 0.960 . S
C1216 C1215 1.524 . S
C1217 C1214 1.403 . S
C1217 C1218 1.392 . S
C1217 C1221 1.495 . S
C1218 C1217 1.392 . S
C1218 C1219 1.385 . S
C1218 C1220 1.478 . S
C1219 H1213 0.930 . S
C1219 C1215 1.400 . S
C1219 C1218 1.385 . S
C1220 C1218 1.478 . S
C1220 C1222 1.381 . S
C1220 C1226 1.383 . S
C1221 C1217 1.495 . S
C1221 H1227 0.959 . S
C1221 H1228 0.961 . S
C1221 H1229 0.960 . S
C1222 C1220 1.381 . S
C1222 C1223 1.394 . S
C1222 H1230 0.930 . S
C1223 C1222 1.394 . S
C1223 C1224 1.383 . S
C1223 H1231 0.929 . S
C1224 C1223 1.383 . S
C1224 C1225 1.377 . S
C1225 H1209 0.930 . S
C1225 C1224 1.377 . S
C1225 C1226 1.379 . S
C1226 H1210 0.931 . S
C1226 C1220 1.383 . S
C1226 C1225 1.379 . S
H1227 C1221 0.959 . S
H1228 C1221 0.961 . S
H1229 C1221 0.960 . S
H1230 C1222 0.930 . S
H1231 C1223 0.929 . S
H1232 C1240 0.929 . S
H1233 C1242 0.958 . S
H1234 C1244 0.930 . S
H1235 C1247 0.929 . S
H1236 C1250 0.930 . S
H1237 C1252 0.960 . S
H1238 C1252 0.960 . S
H1239 C1252 0.960 . S
C1240 H1232 0.929 . S
C1240 C1241 1.377 . S
C1240 C1242 1.384 . S
C1241 C1240 1.377 . S
C1241 C1247 1.390 . S
C1242 H1233 0.958 . S
C1242 C1240 1.384 . S
C1242 C1243 1.372 . S
C1243 C1242 1.372 . S
C1243 C1244 1.400 . S
C1243 C1248 1.490 . S
C1244 H1234 0.930 . S
C1244 C1243 1.400 . S
C1244 C1247 1.386 . S
H1245 C1261 0.930 . S
H1246 C1262 0.931 . S
C1247 H1235 0.929 . S
C1247 C1241 1.390 . S
C1247 C1244 1.386 . S
C1248 C1243 1.490 . S
C1248 C1250 1.395 . S
C1248 C1251 1.403 . S
H1249 C1255 0.930 . S
C1250 H1236 0.930 . S
C1250 C1248 1.395 . S
C1250 C1253 1.403 . S
C1251 C1248 1.403 . S
C1251 C1252 1.524 . S
C1251 C1255 1.400 . S
C1252 H1237 0.960 . S
C1252 H1238 0.960 . S
C1252 H1239 0.960 . S
C1252 C1251 1.524 . S
C1253 C1250 1.403 . S
C1253 C1254 1.392 . S
C1253 C1257 1.495 . S
C1254 C1253 1.392 . S
C1254 C1255 1.385 . S
C1254 C1256 1.478 . S
C1255 H1249 0.930 . S
C1255 C1251 1.400 . S
C1255 C1254 1.385 . S
C1256 C1254 1.478 . S
C1256 C1258 1.381 1_545 S
C1256 C1262 1.383 . S
C1257 C1253 1.495 . S
C1257 H1263 0.959 . S
C1257 H1264 0.961 . S
C1257 H1265 0.960 . S
C1258 C1256 1.381 1_565 S
C1258 C1259 1.394 . S
C1258 H1266 0.930 . S
C1259 C1258 1.394 . S
C1259 C1260 1.383 1_565 S
C1259 H1267 0.929 . S
C1260 C1259 1.383 1_545 S
C1260 C1261 1.377 . S
C1261 H1245 0.930 . S
C1261 C1260 1.377 . S
C1261 C1262 1.379 . S
C1262 H1246 0.931 . S
C1262 C1256 1.383 . S
C1262 C1261 1.379 . S
H1263 C1257 0.959 . S
H1264 C1257 0.961 . S
H1265 C1257 0.960 . S
H1266 C1258 0.930 . S
H1267 C1259 0.929 . S
H1268 C1276 0.929 . S
H1269 C1278 0.930 . S
H1270 C1280 0.930 . S
H1271 C1283 0.929 . S
H1272 C1286 0.930 . S
H1273 C1288 0.960 . S
H1274 C1288 0.960 . S
H1275 C1288 0.960 . S
C1276 H1268 0.929 . S
C1276 C1277 1.377 . S
C1276 C1278 1.384 . S
C1277 C1276 1.377 . S
C1277 C1283 1.390 . S
C1278 H1269 0.930 . S
C1278 C1276 1.384 . S
C1278 C1279 1.372 . S
C1279 C1278 1.372 . S
C1279 C1280 1.400 . S
C1279 C1284 1.490 . S
C1280 H1270 0.930 . S
C1280 C1279 1.400 . S
C1280 C1283 1.386 . S
H1281 C1297 0.930 . S
H1282 C1298 0.931 . S
C1283 H1271 0.929 . S
C1283 C1277 1.390 . S
C1283 C1280 1.386 . S
C1284 C1279 1.490 . S
C1284 C1286 1.395 . S
C1284 C1287 1.403 . S
H1285 C1291 0.930 . S
C1286 H1272 0.930 . S
C1286 C1284 1.395 . S
C1286 C1289 1.403 . S
C1287 C1284 1.403 . S
C1287 C1288 1.524 . S
C1287 C1291 1.400 . S
C1288 H1273 0.960 . S
C1288 H1274 0.960 . S
C1288 H1275 0.960 . S
C1288 C1287 1.524 . S
C1289 C1286 1.403 . S
C1289 C1290 1.392 . S
C1289 C1293 1.495 . S
C1290 C1289 1.392 . S
C1290 C1291 1.385 . S
C1290 C1292 1.478 . S
C1291 H1285 0.930 . S
C1291 C1287 1.400 . S
C1291 C1290 1.385 . S
C1292 C1290 1.478 . S
C1292 C1294 1.381 . S
C1292 C1298 1.383 . S
C1293 C1289 1.495 . S
C1293 H1299 0.959 . S
C1293 H1300 0.961 . S
C1293 H1301 0.960 . S
C1294 C1292 1.381 . S
C1294 C1295 1.394 . S
C1294 H1302 0.930 . S
C1295 C1294 1.394 . S
C1295 C1296 1.383 . S
C1295 H1303 0.929 . S
C1296 C1295 1.383 . S
C1296 C1297 1.377 . S
C1297 H1281 0.930 . S
C1297 C1296 1.377 . S
C1297 C1298 1.379 . S
C1298 H1282 0.931 . S
C1298 C1292 1.383 . S
C1298 C1297 1.379 . S
H1299 C1293 0.959 . S
H1300 C1293 0.961 . S
H1301 C1293 0.960 . S
H1302 C1294 0.930 . S
H1303 C1295 0.929 . S
H1304 C1312 0.929 . S
H1305 C1314 0.930 . S
H1306 C1316 0.930 . S
H1307 C1319 0.929 . S
H1308 C1322 0.930 . S
H1309 C1324 0.960 . S
H1310 C1324 0.960 . S
H1311 C1324 0.960 . S
C1312 H1304 0.929 . S
C1312 C1313 1.377 . S
C1312 C1314 1.384 . S
C1313 C1312 1.377 . S
C1313 C1319 1.390 . S
C1314 H1305 0.930 . S
C1314 C1312 1.384 . S
C1314 C1315 1.372 . S
C1315 C1314 1.372 . S
C1315 C1316 1.400 . S
C1315 C1320 1.490 . S
C1316 H1306 0.930 . S
C1316 C1315 1.400 . S
C1316 C1319 1.386 . S
H1317 C1333 0.930 . S
H1318 C1334 0.931 . S
C1319 H1307 0.929 . S
C1319 C1313 1.390 . S
C1319 C1316 1.386 . S
C1320 C1315 1.490 . S
C1320 C1322 1.395 . S
C1320 C1323 1.403 . S
H1321 C1327 0.930 . S
C1322 H1308 0.930 . S
C1322 C1320 1.395 . S
C1322 C1325 1.403 . S
C1323 C1320 1.403 . S
C1323 C1324 1.524 . S
C1323 C1327 1.400 . S
C1324 H1309 0.960 . S
C1324 H1310 0.960 . S
C1324 H1311 0.960 . S
C1324 C1323 1.524 . S
C1325 C1322 1.403 . S
C1325 C1326 1.392 . S
C1325 C1329 1.495 . S
C1326 C1325 1.392 . S
C1326 C1327 1.385 . S
C1326 C1328 1.478 . S
C1327 H1321 0.930 . S
C1327 C1323 1.400 . S
C1327 C1326 1.385 . S
C1328 C1326 1.478 . S
C1328 C1330 1.381 . S
C1328 C1334 1.383 . S
C1329 C1325 1.495 . S
C1329 H1335 0.959 . S
C1329 H1336 0.961 . S
C1329 H1337 0.960 . S
C1330 C1328 1.381 . S
C1330 C1331 1.394 . S
C1330 H1338 0.930 . S
C1331 C1330 1.394 . S
C1331 C1332 1.383 . S
C1331 H1339 0.929 . S
C1332 C1331 1.383 . S
C1332 C1333 1.377 . S
C1333 H1317 0.930 . S
C1333 C1332 1.377 . S
C1333 C1334 1.379 . S
C1334 H1318 0.931 . S
C1334 C1328 1.383 . S
C1334 C1333 1.379 . S
H1335 C1329 0.959 . S
H1336 C1329 0.961 . S
H1337 C1329 0.960 . S
H1338 C1330 0.930 . S
H1339 C1331 0.929 . S
H1340 C1348 0.929 . S
H1341 C1350 0.930 . S
H1342 C1352 0.930 . S
H1343 C1355 0.929 . S
H1344 C1358 0.930 . S
H1345 C1360 0.960 . S
H1346 C1360 0.960 . S
H1347 C1360 0.960 . S
C1348 H1340 0.929 . S
C1348 C1349 1.377 . S
C1348 C1350 1.384 . S
C1349 C1348 1.377 . S
C1349 C1355 1.390 . S
C1350 H1341 0.930 . S
C1350 C1348 1.384 . S
C1350 C1351 1.372 . S
C1351 C1350 1.372 . S
C1351 C1352 1.400 . S
C1351 C1356 1.490 . S
C1352 H1342 0.930 . S
C1352 C1351 1.400 . S
C1352 C1355 1.386 . S
H1353 C1369 0.930 . S
H1354 C1370 0.931 . S
C1355 H1343 0.929 . S
C1355 C1349 1.390 . S
C1355 C1352 1.386 . S
C1356 C1351 1.490 . S
C1356 C1358 1.395 . S
C1356 C1359 1.403 . S
H1357 C1363 0.930 . S
C1358 H1344 0.930 . S
C1358 C1356 1.395 . S
C1358 C1361 1.403 . S
C1359 C1356 1.403 . S
C1359 C1360 1.524 . S
C1359 C1363 1.400 . S
C1360 H1345 0.960 . S
C1360 H1346 0.960 . S
C1360 H1347 0.960 . S
C1360 C1359 1.524 . S
C1361 C1358 1.403 . S
C1361 C1362 1.392 . S
C1361 C1365 1.495 . S
C1362 C1361 1.392 . S
C1362 C1363 1.385 . S
C1362 C1364 1.478 . S
C1363 H1357 0.930 . S
C1363 C1359 1.400 . S
C1363 C1362 1.385 . S
C1364 C1362 1.478 . S
C1364 C1366 1.381 . S
C1364 C1370 1.383 . S
C1365 C1361 1.495 . S
C1365 H1371 0.959 . S
C1365 H1372 0.961 . S
C1365 H1373 0.960 . S
C1366 C1364 1.381 . S
C1366 C1367 1.394 . S
C1366 H1374 0.930 . S
C1367 C1366 1.394 . S
C1367 C1368 1.383 . S
C1367 H1375 0.929 . S
C1368 C1367 1.383 . S
C1368 C1369 1.377 . S
C1369 H1353 0.930 . S
C1369 C1368 1.377 . S
C1369 C1370 1.379 . S
C1370 H1354 0.931 . S
C1370 C1364 1.383 . S
C1370 C1369 1.379 . S
H1371 C1365 0.959 . S
H1372 C1365 0.961 . S
H1373 C1365 0.960 . S
H1374 C1366 0.930 . S
H1375 C1367 0.929 . S
H1376 C1384 0.929 . S
H1377 C1386 0.930 . S
H1378 C1388 0.948 . S
H1379 C1391 0.929 . S
H1380 C1394 0.930 . S
H1381 C1396 0.960 . S
H1382 C1396 0.960 . S
H1383 C1396 0.960 . S
C1384 H1376 0.929 . S
C1384 C1385 1.377 . S
C1384 C1386 1.384 . S
C1385 C1384 1.377 . S
C1385 C1391 1.390 . S
C1386 H1377 0.930 . S
C1386 C1384 1.384 . S
C1386 C1387 1.372 . S
C1387 C1386 1.372 . S
C1387 C1388 1.400 . S
C1387 C1392 1.490 . S
C1388 H1378 0.948 . S
C1388 C1387 1.400 . S
C1388 C1391 1.386 . S
H1389 C1405 0.930 . S
H1390 C1406 0.931 . S
C1391 H1379 0.929 . S
C1391 C1385 1.390 . S
C1391 C1388 1.386 . S
C1392 C1387 1.490 . S
C1392 C1394 1.395 . S
C1392 C1395 1.403 1_455 S
H1393 C1399 0.930 . S
C1394 H1380 0.930 . S
C1394 C1392 1.395 . S
C1394 C1397 1.403 . S
C1395 C1392 1.403 1_655 S
C1395 C1396 1.524 . S
C1395 C1399 1.400 . S
C1396 H1381 0.960 . S
C1396 H1382 0.960 . S
C1396 H1383 0.960 . S
C1396 C1395 1.524 . S
C1397 C1394 1.403 . S
C1397 C1398 1.392 1_455 S
C1397 C1401 1.495 . S
C1398 C1397 1.392 1_655 S
C1398 C1399 1.385 . S
C1398 C1400 1.478 . S
C1399 H1393 0.930 . S
C1399 C1395 1.400 . S
C1399 C1398 1.385 . S
C1400 C1398 1.478 . S
C1400 C1402 1.381 . S
C1400 C1406 1.383 . S
C1401 C1397 1.495 . S
C1401 H1407 0.959 . S
C1401 H1408 0.961 . S
C1401 H1409 0.960 . S
C1402 C1400 1.381 . S
C1402 C1403 1.394 . S
C1402 H1410 0.910 1_655 S
C1403 C1402 1.394 . S
C1403 C1404 1.383 . S
C1403 H1411 0.929 . S
C1404 C1403 1.383 . S
C1404 C1405 1.377 . S
C1405 H1389 0.930 . S
C1405 C1404 1.377 . S
C1405 C1406 1.379 . S
C1406 H1390 0.931 . S
C1406 C1400 1.383 . S
C1406 C1405 1.379 . S
H1407 C1401 0.959 . S
H1408 C1401 0.961 . S
H1409 C1401 0.960 . S
H1410 C1402 0.910 1_455 S
H1411 C1403 0.929 . S
H1412 C1420 0.929 . S
H1413 C1422 0.930 . S
H1414 C1424 0.930 . S
H1415 C1427 0.929 . S
H1416 C1430 0.930 . S
H1417 C1432 0.960 . S
H1418 C1432 0.960 . S
H1419 C1432 0.960 . S
C1420 H1412 0.929 . S
C1420 C1421 1.377 . S
C1420 C1422 1.384 . S
C1421 C1420 1.377 . S
C1421 C1427 1.390 . S
C1422 H1413 0.930 . S
C1422 C1420 1.384 . S
C1422 C1423 1.372 . S
C1423 C1422 1.372 . S
C1423 C1424 1.400 . S
C1423 C1428 1.490 . S
C1424 H1414 0.930 . S
C1424 C1423 1.400 . S
C1424 C1427 1.386 . S
H1425 C1441 0.930 . S
H1426 C1442 0.931 . S
C1427 H1415 0.929 . S
C1427 C1421 1.390 . S
C1427 C1424 1.386 . S
C1428 C1423 1.490 . S
C1428 C1430 1.395 . S
C1428 C1431 1.403 . S
H1429 C1435 0.930 . S
C1430 H1416 0.930 . S
C1430 C1428 1.395 . S
C1430 C1433 1.403 . S
C1431 C1428 1.403 . S
C1431 C1432 1.524 . S
C1431 C1435 1.400 . S
C1432 H1417 0.960 . S
C1432 H1418 0.960 . S
C1432 H1419 0.960 . S
C1432 C1431 1.524 . S
C1433 C1430 1.403 . S
C1433 C1434 1.392 . S
C1433 C1437 1.495 . S
C1434 C1433 1.392 . S
C1434 C1435 1.385 . S
C1434 C1436 1.478 . S
C1435 H1429 0.930 . S
C1435 C1431 1.400 . S
C1435 C1434 1.385 . S
C1436 C1434 1.478 . S
C1436 C1438 1.381 . S
C1436 C1442 1.383 . S
C1437 C1433 1.495 . S
C1437 H1443 0.959 . S
C1437 H1444 0.961 . S
C1437 H1445 0.960 . S
C1438 C1436 1.381 . S
C1438 C1439 1.394 . S
C1438 H1446 0.930 . S
C1439 C1438 1.394 . S
C1439 C1440 1.383 . S
C1439 H1447 0.929 . S
C1440 C1439 1.383 . S
C1440 C1441 1.377 . S
C1441 H1425 0.930 . S
C1441 C1440 1.377 . S
C1441 C1442 1.379 . S
C1442 H1426 0.931 . S
C1442 C1436 1.383 . S
C1442 C1441 1.379 . S
H1443 C1437 0.959 . S
H1444 C1437 0.961 . S
H1445 C1437 0.960 . S
H1446 C1438 0.930 . S
H1447 C1439 0.929 . S
H1448 C1456 0.929 . S
H1449 C1458 0.930 . S
H1450 C1460 0.930 . S
H1451 C1463 0.929 1_655 S
H1452 C1466 0.930 . S
H1453 C1468 0.960 . S
H1454 C1468 0.960 . S
H1455 C1468 0.960 . S
C1456 H1448 0.929 . S
C1456 C1457 1.377 . S
C1456 C1458 1.384 . S
C1457 C1456 1.377 . S
C1457 C1463 1.390 . S
C1458 H1449 0.930 . S
C1458 C1456 1.384 . S
C1458 C1459 1.372 . S
C1459 C1458 1.372 . S
C1459 C1460 1.400 . S
C1459 C1464 1.490 . S
C1460 H1450 0.930 . S
C1460 C1459 1.400 . S
C1460 C1463 1.386 . S
H1461 C1477 0.930 . S
H1462 C1478 0.931 . S
C1463 H1451 0.929 1_455 S
C1463 C1457 1.390 . S
C1463 C1460 1.386 . S
C1464 C1459 1.490 . S
C1464 C1466 1.395 . S
C1464 C1467 1.403 . S
H1465 C1471 0.930 . S
C1466 H1452 0.930 . S
C1466 C1464 1.395 . S
C1466 C1469 1.403 . S
C1467 C1464 1.403 . S
C1467 C1468 1.524 . S
C1467 C1471 1.400 . S
C1468 H1453 0.960 . S
C1468 H1454 0.960 . S
C1468 H1455 0.960 . S
C1468 C1467 1.524 . S
C1469 C1466 1.403 . S
C1469 C1470 1.392 . S
C1469 C1473 1.495 . S
C1470 C1469 1.392 . S
C1470 C1471 1.385 . S
C1470 C1472 1.478 . S
C1471 H1465 0.930 . S
C1471 C1467 1.400 . S
C1471 C1470 1.385 . S
C1472 C1470 1.478 . S
C1472 C1474 1.381 . S
C1472 C1478 1.383 . S
C1473 C1469 1.495 . S
C1473 H1479 0.959 . S
C1473 H1480 0.961 . S
C1473 H1481 0.960 . S
C1474 C1472 1.381 . S
C1474 C1475 1.394 . S
C1474 H1482 0.930 . S
C1475 C1474 1.394 . S
C1475 C1476 1.383 . S
C1475 H1483 0.929 . S
C1476 C1475 1.383 . S
C1476 C1477 1.377 . S
C1477 H1461 0.930 . S
C1477 C1476 1.377 . S
C1477 C1478 1.379 . S
C1478 H1462 0.931 . S
C1478 C1472 1.383 . S
C1478 C1477 1.379 . S
H1479 C1473 0.959 . S
H1480 C1473 0.961 . S
H1481 C1473 0.960 . S
H1482 C1474 0.930 . S
H1483 C1475 0.929 . S
H1484 C1492 0.929 . S
H1485 C1494 0.930 . S
H1486 C1496 0.930 . S
H1487 C1499 0.929 . S
H1488 C1502 0.930 . S
H1489 C1504 0.960 . S
H1490 C1504 0.960 . S
H1491 C1504 0.960 . S
C1492 H1484 0.929 . S
C1492 C1493 1.377 . S
C1492 C1494 1.384 . S
C1493 C1492 1.377 . S
C1493 C1499 1.390 . S
C1494 H1485 0.930 . S
C1494 C1492 1.384 . S
C1494 C1495 1.372 . S
C1495 C1494 1.372 . S
C1495 C1496 1.400 . S
C1495 C1500 1.490 . S
C1496 H1486 0.930 . S
C1496 C1495 1.400 . S
C1496 C1499 1.386 . S
H1497 C1513 0.930 . S
H1498 C1514 0.931 . S
C1499 H1487 0.929 . S
C1499 C1493 1.390 . S
C1499 C1496 1.386 . S
C1500 C1495 1.490 . S
C1500 C1502 1.395 . S
C1500 C1503 1.403 . S
H1501 C1507 0.930 . S
C1502 H1488 0.930 . S
C1502 C1500 1.395 . S
C1502 C1505 1.403 . S
C1503 C1500 1.403 . S
C1503 C1504 1.524 . S
C1503 C1507 1.400 . S
C1504 H1489 0.960 . S
C1504 H1490 0.960 . S
C1504 H1491 0.960 . S
C1504 C1503 1.524 . S
C1505 C1502 1.403 . S
C1505 C1506 1.392 . S
C1505 C1509 1.495 . S
C1506 C1505 1.392 . S
C1506 C1507 1.385 . S
C1506 C1508 1.478 . S
C1507 H1501 0.930 . S
C1507 C1503 1.400 . S
C1507 C1506 1.385 . S
C1508 C1506 1.478 . S
C1508 C1510 1.381 . S
C1508 C1514 1.383 . S
C1509 C1505 1.495 . S
C1509 H1515 0.959 . S
C1509 H1516 0.961 . S
C1509 H1517 0.960 . S
C1510 C1508 1.381 . S
C1510 C1511 1.394 . S
C1510 H1518 0.930 . S
C1511 C1510 1.394 . S
C1511 C1512 1.383 . S
C1511 H1519 0.929 . S
C1512 C1511 1.383 . S
C1512 C1513 1.377 . S
C1513 H1497 0.930 . S
C1513 C1512 1.377 . S
C1513 C1514 1.379 . S
C1514 H1498 0.931 . S
C1514 C1508 1.383 . S
C1514 C1513 1.379 . S
H1515 C1509 0.959 . S
H1516 C1509 0.961 . S
H1517 C1509 0.960 . S
H1518 C1510 0.930 . S
H1519 C1511 0.929 . S
H1520 C1528 0.929 . S
H1521 C1530 0.930 . S
H1522 C1532 0.930 . S
H1523 C1535 0.929 . S
H1524 C1538 0.930 . S
H1525 C1540 0.960 . S
H1526 C1540 0.960 . S
H1527 C1540 0.960 . S
C1528 H1520 0.929 . S
C1528 C1529 1.377 1_456 S
C1528 C1530 1.384 . S
C1529 C1528 1.377 1_654 S
C1529 C1535 1.390 . S
C1530 H1521 0.930 . S
C1530 C1528 1.384 . S
C1530 C1531 1.375 . S
C1531 C1530 1.375 . S
C1531 C1532 1.392 1_456 S
C1531 C1536 1.496 . S
C1532 H1522 0.930 . S
C1532 C1531 1.392 1_654 S
C1532 C1535 1.386 . S
H1533 C1549 0.930 . S
H1534 C1550 0.931 . S
C1535 H1523 0.929 . S
C1535 C1529 1.390 . S
C1535 C1532 1.386 . S
C1536 C1531 1.496 . S
C1536 C1538 1.395 . S
C1536 C1539 1.403 1_455 S
H1537 C1543 0.930 . S
C1538 H1524 0.930 . S
C1538 C1536 1.395 . S
C1538 C1541 1.403 . S
C1539 C1536 1.403 1_655 S
C1539 C1540 1.524 . S
C1539 C1543 1.400 . S
C1540 H1525 0.960 . S
C1540 H1526 0.960 . S
C1540 H1527 0.960 . S
C1540 C1539 1.524 . S
C1541 C1538 1.403 . S
C1541 C1542 1.392 . S
C1541 C1545 1.495 . S
C1542 C1541 1.392 . S
C1542 C1543 1.385 1_455 S
C1542 C1544 1.478 . S
C1543 H1537 0.930 . S
C1543 C1539 1.400 . S
C1543 C1542 1.385 1_655 S
C1544 C1542 1.478 . S
C1544 C1546 1.381 . S
C1544 C1550 1.383 . S
C1545 C1541 1.495 . S
C1545 H1551 0.959 . S
C1545 H1552 0.961 . S
C1545 H1553 0.960 . S
C1546 C1544 1.381 . S
C1546 C1547 1.394 . S
C1546 H1554 0.930 . S
C1547 C1546 1.394 . S
C1547 C1548 1.383 . S
C1547 H1555 0.929 . S
C1548 C1547 1.383 . S
C1548 C1549 1.377 . S
C1549 H1533 0.930 . S
C1549 C1548 1.377 . S
C1549 C1550 1.379 . S
C1550 H1534 0.931 . S
C1550 C1544 1.383 . S
C1550 C1549 1.379 . S
H1551 C1545 0.959 . S
H1552 C1545 0.961 . S
H1553 C1545 0.960 . S
H1554 C1546 0.930 . S
H1555 C1547 0.929 . S
H1556 C1564 0.929 . S
H1557 C1566 0.930 . S
H1558 C1568 0.930 . S
H1559 C1571 0.929 . S
H1560 C1574 0.930 . S
H1561 C1576 0.960 . S
H1562 C1576 0.960 . S
H1563 C1576 0.960 . S
C1564 H1556 0.929 . S
C1564 C1565 1.377 . S
C1564 C1566 1.384 . S
C1565 C1564 1.377 . S
C1565 C1571 1.390 . S
C1566 H1557 0.930 . S
C1566 C1564 1.384 . S
C1566 C1567 1.372 . S
C1567 C1566 1.372 . S
C1567 C1568 1.400 . S
C1567 C1572 1.490 . S
C1568 H1558 0.930 . S
C1568 C1567 1.400 . S
C1568 C1571 1.386 . S
H1569 C1585 0.930 . S
H1570 C1586 0.931 . S
C1571 H1559 0.929 . S
C1571 C1565 1.390 . S
C1571 C1568 1.386 . S
C1572 C1567 1.490 . S
C1572 C1574 1.395 . S
C1572 C1575 1.403 . S
H1573 C1579 0.930 . S
C1574 H1560 0.930 . S
C1574 C1572 1.395 . S
C1574 C1577 1.403 . S
C1575 C1572 1.403 . S
C1575 C1576 1.524 . S
C1575 C1579 1.400 . S
C1576 H1561 0.960 . S
C1576 H1562 0.960 . S
C1576 H1563 0.960 . S
C1576 C1575 1.524 . S
C1577 C1574 1.403 . S
C1577 C1578 1.392 . S
C1577 C1581 1.495 . S
C1578 C1577 1.392 . S
C1578 C1579 1.385 . S
C1578 C1580 1.478 . S
C1579 H1573 0.930 . S
C1579 C1575 1.400 . S
C1579 C1578 1.385 . S
C1580 C1578 1.478 . S
C1580 C1582 1.381 . S
C1580 C1586 1.383 . S
C1581 C1577 1.495 . S
C1581 H1587 0.959 . S
C1581 H1588 0.961 . S
C1581 H1589 0.960 . S
C1582 C1580 1.381 . S
C1582 C1583 1.394 . S
C1582 H1590 0.930 . S
C1583 C1582 1.394 . S
C1583 C1584 1.383 . S
C1583 H1591 0.929 . S
C1584 C1583 1.383 . S
C1584 C1585 1.377 . S
C1585 H1569 0.930 . S
C1585 C1584 1.377 . S
C1585 C1586 1.379 . S
C1586 H1570 0.931 . S
C1586 C1580 1.383 . S
C1586 C1585 1.379 . S
H1587 C1581 0.959 . S
H1588 C1581 0.961 . S
H1589 C1581 0.960 . S
H1590 C1582 0.930 . S
H1591 C1583 0.929 . S
H1592 C1600 0.929 . S
H1593 C1602 0.930 . S
H1594 C1604 0.930 . S
H1595 C1607 0.929 . S
H1596 C1610 0.930 . S
H1597 C1612 0.960 . S
H1598 C1612 0.960 . S
H1599 C1612 0.960 . S
C1600 H1592 0.929 . S
C1600 C1601 1.377 . S
C1600 C1602 1.384 1_554 S
C1601 C1600 1.377 . S
C1601 C1607 1.390 . S
C1602 H1593 0.930 . S
C1602 C1600 1.384 1_556 S
C1602 C1603 1.372 . S
C1603 C1602 1.372 . S
C1603 C1604 1.400 1_556 S
C1603 C1608 1.490 . S
C1604 H1594 0.930 . S
C1604 C1603 1.400 1_554 S
C1604 C1607 1.386 . S
H1605 C1621 0.930 . S
H1606 C1622 0.931 . S
C1607 H1595 0.929 . S
C1607 C1601 1.390 . S
C1607 C1604 1.386 . S
C1608 C1603 1.490 . S
C1608 C1610 1.395 . S
C1608 C1611 1.403 . S
H1609 C1615 0.930 . S
C1610 H1596 0.930 . S
C1610 C1608 1.395 . S
C1610 C1613 1.403 . S
C1611 C1608 1.403 . S
C1611 C1612 1.524 1_556 S
C1611 C1615 1.400 . S
C1612 H1597 0.960 . S
C1612 H1598 0.960 . S
C1612 H1599 0.960 . S
C1612 C1611 1.524 1_554 S
C1613 C1610 1.403 . S
C1613 C1614 1.392 . S
C1613 C1617 1.495 . S
C1614 C1613 1.392 . S
C1614 C1615 1.385 . S
C1614 C1616 1.478 . S
C1615 H1609 0.930 . S
C1615 C1611 1.400 . S
C1615 C1614 1.385 . S
C1616 C1614 1.478 . S
C1616 C1618 1.381 . S
C1616 C1622 1.383 . S
C1617 C1613 1.495 . S
C1617 H1623 0.959 . S
C1617 H1624 0.961 . S
C1617 H1625 0.960 . S
C1618 C1616 1.381 . S
C1618 C1619 1.394 . S
C1618 H1626 0.930 . S
C1619 C1618 1.394 . S
C1619 C1620 1.383 . S
C1619 H1627 0.929 . S
C1620 C1619 1.383 . S
C1620 C1621 1.377 . S
C1621 H1605 0.930 . S
C1621 C1620 1.377 . S
C1621 C1622 1.379 . S
C1622 H1606 0.931 . S
C1622 C1616 1.383 . S
C1622 C1621 1.379 . S
H1623 C1617 0.959 . S
H1624 C1617 0.961 . S
H1625 C1617 0.960 . S
H1626 C1618 0.930 . S
H1627 C1619 0.929 . S
H1628 C1636 0.929 . S
H1629 C1638 0.930 . S
H1630 C1640 0.930 . S
H1631 C1643 0.929 . S
H1632 C1646 0.930 . S
H1633 C1648 0.960 . S
H1634 C1648 0.960 . S
H1635 C1648 0.960 . S
C1636 H1628 0.929 . S
C1636 C1637 1.377 . S
C1636 C1638 1.384 . S
C1637 C1636 1.377 . S
C1637 C1643 1.390 . S
C1638 H1629 0.930 . S
C1638 C1636 1.384 . S
C1638 C1639 1.372 . S
C1639 C1638 1.372 . S
C1639 C1640 1.400 . S
C1639 C1644 1.490 . S
C1640 H1630 0.930 . S
C1640 C1639 1.400 . S
C1640 C1643 1.386 . S
H1641 C1657 0.930 . S
H1642 C1658 0.931 . S
C1643 H1631 0.929 . S
C1643 C1637 1.390 . S
C1643 C1640 1.386 . S
C1644 C1639 1.490 . S
C1644 C1646 1.395 . S
C1644 C1647 1.403 . S
H1645 C1651 0.930 . S
C1646 H1632 0.930 . S
C1646 C1644 1.395 . S
C1646 C1649 1.403 . S
C1647 C1644 1.403 . S
C1647 C1648 1.524 . S
C1647 C1651 1.400 . S
C1648 H1633 0.960 . S
C1648 H1634 0.960 . S
C1648 H1635 0.960 . S
C1648 C1647 1.524 . S
C1649 C1646 1.403 . S
C1649 C1650 1.392 . S
C1649 C1653 1.495 . S
C1650 C1649 1.392 . S
C1650 C1651 1.385 . S
C1650 C1652 1.478 . S
C1651 H1645 0.930 . S
C1651 C1647 1.400 . S
C1651 C1650 1.385 . S
C1652 C1650 1.478 . S
C1652 C1654 1.381 . S
C1652 C1658 1.383 . S
C1653 C1649 1.495 . S
C1653 H1659 0.959 . S
C1653 H1660 0.961 . S
C1653 H1661 0.960 . S
C1654 C1652 1.381 . S
C1654 C1655 1.394 . S
C1654 H1662 0.930 . S
C1655 C1654 1.394 . S
C1655 C1656 1.383 . S
C1655 H1663 0.929 . S
C1656 C1655 1.383 . S
C1656 C1657 1.377 . S
C1657 H1641 0.930 . S
C1657 C1656 1.377 . S
C1657 C1658 1.379 . S
C1658 H1642 0.931 . S
C1658 C1652 1.383 . S
C1658 C1657 1.379 . S
H1659 C1653 0.959 . S
H1660 C1653 0.961 . S
H1661 C1653 0.960 . S
H1662 C1654 0.930 . S
H1663 C1655 0.929 . S
H1664 C1672 0.929 . S
H1665 C1674 0.930 . S
H1666 C1676 0.930 . S
H1667 C1679 0.929 . S
H1668 C1682 0.930 . S
H1669 C1684 0.960 . S
H1670 C1684 0.960 . S
H1671 C1684 0.960 . S
C1672 H1664 0.929 . S
C1672 C1673 1.377 . S
C1672 C1674 1.384 . S
C1673 C1672 1.377 . S
C1673 C1679 1.390 . S
C1674 H1665 0.930 . S
C1674 C1672 1.384 . S
C1674 C1675 1.372 . S
C1675 C1674 1.372 . S
C1675 C1676 1.400 . S
C1675 C1680 1.490 . S
C1676 H1666 0.930 . S
C1676 C1675 1.400 . S
C1676 C1679 1.386 . S
H1677 C1693 0.930 . S
H1678 C1694 0.931 . S
C1679 H1667 0.929 . S
C1679 C1673 1.390 . S
C1679 C1676 1.386 . S
C1680 C1675 1.490 . S
C1680 C1682 1.395 . S
C1680 C1683 1.403 . S
H1681 C1687 0.930 . S
C1682 H1668 0.930 . S
C1682 C1680 1.395 . S
C1682 C1685 1.403 . S
C1683 C1680 1.403 . S
C1683 C1684 1.524 . S
C1683 C1687 1.400 . S
C1684 H1669 0.960 . S
C1684 H1670 0.960 . S
C1684 H1671 0.960 . S
C1684 C1683 1.524 . S
C1685 C1682 1.403 . S
C1685 C1686 1.392 . S
C1685 C1689 1.495 . S
C1686 C1685 1.392 . S
C1686 C1687 1.385 . S
C1686 C1688 1.478 . S
C1687 H1681 0.930 . S
C1687 C1683 1.400 . S
C1687 C1686 1.385 . S
C1688 C1686 1.478 . S
C1688 C1690 1.381 . S
C1688 C1694 1.383 . S
C1689 C1685 1.495 . S
C1689 H1695 0.959 . S
C1689 H1696 0.961 . S
C1689 H1697 0.960 . S
C1690 C1688 1.381 . S
C1690 C1691 1.394 . S
C1690 H1698 0.930 . S
C1691 C1690 1.394 . S
C1691 C1692 1.383 . S
C1691 H1699 0.929 . S
C1692 C1691 1.383 . S
C1692 C1693 1.377 . S
C1693 H1677 0.930 . S
C1693 C1692 1.377 . S
C1693 C1694 1.379 . S
C1694 H1678 0.931 . S
C1694 C1688 1.383 . S
C1694 C1693 1.379 . S
H1695 C1689 0.959 . S
H1696 C1689 0.961 . S
H1697 C1689 0.960 . S
H1698 C1690 0.930 . S
H1699 C1691 0.929 . S
H1700 C1708 0.929 . S
H1701 C1710 0.930 . S
H1702 C1712 0.930 . S
H1703 C1715 0.929 . S
H1704 C1718 0.930 . S
H1705 C1720 0.960 . S
H1706 C1720 0.960 . S
H1707 C1720 0.960 . S
C1708 H1700 0.929 . S
C1708 C1709 1.377 . S
C1708 C1710 1.384 . S
C1709 C1708 1.377 . S
C1709 C1715 1.390 . S
C1710 H1701 0.930 . S
C1710 C1708 1.384 . S
C1710 C1711 1.372 . S
C1711 C1710 1.372 . S
C1711 C1712 1.400 . S
C1711 C1716 1.490 . S
C1712 H1702 0.930 . S
C1712 C1711 1.400 . S
C1712 C1715 1.386 . S
H1713 C1729 0.930 . S
H1714 C1730 0.931 . S
C1715 H1703 0.929 . S
C1715 C1709 1.390 . S
C1715 C1712 1.386 . S
C1716 C1711 1.490 . S
C1716 C1718 1.395 . S
C1716 C1719 1.403 . S
H1717 C1723 0.930 . S
C1718 H1704 0.930 . S
C1718 C1716 1.395 . S
C1718 C1721 1.403 . S
C1719 C1716 1.403 . S
C1719 C1720 1.524 . S
C1719 C1723 1.400 . S
C1720 H1705 0.960 . S
C1720 H1706 0.960 . S
C1720 H1707 0.960 . S
C1720 C1719 1.524 . S
C1721 C1718 1.403 . S
C1721 C1722 1.392 . S
C1721 C1725 1.495 . S
C1722 C1721 1.392 . S
C1722 C1723 1.385 . S
C1722 C1724 1.478 . S
C1723 H1717 0.930 . S
C1723 C1719 1.400 . S
C1723 C1722 1.385 . S
C1724 C1722 1.478 . S
C1724 C1726 1.381 . S
C1724 C1730 1.383 . S
C1725 C1721 1.495 . S
C1725 H1731 0.959 . S
C1725 H1732 0.961 . S
C1725 H1733 0.960 . S
C1726 C1724 1.381 . S
C1726 C1727 1.394 . S
C1726 H1734 0.930 . S
C1727 C1726 1.394 . S
C1727 C1728 1.383 . S
C1727 H1735 0.929 . S
C1728 C1727 1.383 . S
C1728 C1729 1.377 . S
C1729 H1713 0.930 . S
C1729 C1728 1.377 . S
C1729 C1730 1.379 . S
C1730 H1714 0.931 . S
C1730 C1724 1.383 . S
C1730 C1729 1.379 . S
H1731 C1725 0.959 . S
H1732 C1725 0.961 . S
H1733 C1725 0.960 . S
H1734 C1726 0.930 . S
H1735 C1727 0.929 . S
H1736 C1744 0.929 . S
H1737 C1746 0.930 . S
H1738 C1748 0.930 . S
H1739 C1751 0.929 . S
H1740 C1754 0.930 . S
H1741 C1756 0.960 . S
H1742 C1756 0.960 . S
H1743 C1756 0.960 . S
C1744 H1736 0.929 . S
C1744 C1745 1.377 . S
C1744 C1746 1.384 1_556 S
C1745 C1744 1.377 . S
C1745 C1751 1.390 1_556 S
C1746 H1737 0.930 . S
C1746 C1744 1.384 1_554 S
C1746 C1747 1.372 . S
C1747 C1746 1.372 . S
C1747 C1748 1.400 . S
C1747 C1752 1.490 . S
C1748 H1738 0.930 . S
C1748 C1747 1.400 . S
C1748 C1751 1.386 . S
H1749 C1765 0.930 . S
H1750 C1766 0.931 . S
C1751 H1739 0.929 . S
C1751 C1745 1.390 1_554 S
C1751 C1748 1.386 . S
C1752 C1747 1.490 . S
C1752 C1754 1.395 . S
C1752 C1755 1.403 . S
H1753 C1759 0.930 . S
C1754 H1740 0.930 . S
C1754 C1752 1.395 . S
C1754 C1757 1.403 . S
C1755 C1752 1.403 . S
C1755 C1756 1.524 . S
C1755 C1759 1.400 . S
C1756 H1741 0.960 . S
C1756 H1742 0.960 . S
C1756 H1743 0.960 . S
C1756 C1755 1.524 . S
C1757 C1754 1.403 . S
C1757 C1758 1.392 . S
C1757 C1761 1.495 . S
C1758 C1757 1.392 . S
C1758 C1759 1.385 . S
C1758 C1760 1.478 . S
C1759 H1753 0.930 . S
C1759 C1755 1.400 . S
C1759 C1758 1.385 . S
C1760 C1758 1.478 . S
C1760 C1762 1.381 . S
C1760 C1766 1.383 . S
C1761 C1757 1.495 . S
C1761 H1767 0.959 . S
C1761 H1768 0.961 . S
C1761 H1769 0.960 . S
C1762 C1760 1.381 . S
C1762 C1763 1.394 . S
C1762 H1770 0.930 . S
C1763 C1762 1.394 . S
C1763 C1764 1.383 . S
C1763 H1771 0.929 . S
C1764 C1763 1.383 . S
C1764 C1765 1.377 . S
C1765 H1749 0.930 . S
C1765 C1764 1.377 . S
C1765 C1766 1.379 . S
C1766 H1750 0.931 . S
C1766 C1760 1.383 . S
C1766 C1765 1.379 . S
H1767 C1761 0.959 . S
H1768 C1761 0.961 . S
H1769 C1761 0.960 . S
H1770 C1762 0.930 . S
H1771 C1763 0.929 . S
H1772 C1780 0.929 . S
H1773 C1782 0.930 . S
H1774 C1784 0.930 . S
H1775 C1787 0.929 . S
H1776 C1790 0.930 . S
H1777 C1792 0.960 . S
H1778 C1792 0.960 . S
H1779 C1792 0.960 . S
C1780 H1772 0.929 . S
C1780 C1781 1.377 . S
C1780 C1782 1.384 . S
C1781 C1780 1.377 . S
C1781 C1787 1.390 . S
C1782 H1773 0.930 . S
C1782 C1780 1.384 . S
C1782 C1783 1.372 . S
C1783 C1782 1.372 . S
C1783 C1784 1.400 . S
C1783 C1788 1.490 . S
C1784 H1774 0.930 . S
C1784 C1783 1.400 . S
C1784 C1787 1.386 . S
H1785 C1801 0.930 . S
H1786 C1802 0.931 . S
C1787 H1775 0.929 . S
C1787 C1781 1.390 . S
C1787 C1784 1.386 . S
C1788 C1783 1.490 . S
C1788 C1790 1.395 . S
C1788 C1791 1.403 . S
H1789 C1795 0.930 . S
C1790 H1776 0.930 . S
C1790 C1788 1.395 . S
C1790 C1793 1.403 . S
C1791 C1788 1.403 . S
C1791 C1792 1.524 . S
C1791 C1795 1.400 . S
C1792 H1777 0.960 . S
C1792 H1778 0.960 . S
C1792 H1779 0.960 . S
C1792 C1791 1.524 . S
C1793 C1790 1.403 . S
C1793 C1794 1.392 . S
C1793 C1797 1.495 . S
C1794 C1793 1.392 . S
C1794 C1795 1.385 . S
C1794 C1796 1.478 . S
C1795 H1789 0.930 . S
C1795 C1791 1.400 . S
C1795 C1794 1.385 . S
C1796 C1794 1.478 . S
C1796 C1798 1.381 . S
C1796 C1802 1.383 . S
C1797 C1793 1.495 . S
C1797 H1803 0.959 . S
C1797 H1804 0.961 . S
C1797 H1805 0.960 . S
C1798 C1796 1.381 . S
C1798 C1799 1.394 . S
C1798 H1806 0.930 . S
C1799 C1798 1.394 . S
C1799 C1800 1.383 . S
C1799 H1807 0.929 . S
C1800 C1799 1.383 . S
C1800 C1801 1.377 . S
C1801 H1785 0.930 . S
C1801 C1800 1.377 . S
C1801 C1802 1.379 . S
C1802 H1786 0.931 . S
C1802 C1796 1.383 . S
C1802 C1801 1.379 . S
H1803 C1797 0.959 . S
H1804 C1797 0.961 . S
H1805 C1797 0.960 . S
H1806 C1798 0.930 . S
H1807 C1799 0.929 . S
H1808 C1816 0.929 . S
H1809 C1818 0.930 . S
H1810 C1820 0.930 . S
H1811 C1823 0.929 . S
H1812 C1826 0.930 . S
H1813 C1828 0.960 . S
H1814 C1828 0.960 . S
H1815 C1828 0.960 . S
C1816 H1808 0.929 . S
C1816 C1817 1.377 . S
C1816 C1818 1.384 . S
C1817 C1816 1.377 . S
C1817 C1823 1.390 . S
C1818 H1809 0.930 . S
C1818 C1816 1.384 . S
C1818 C1819 1.372 . S
C1819 C1818 1.372 . S
C1819 C1820 1.400 . S
C1819 C1824 1.490 . S
C1820 H1810 0.930 . S
C1820 C1819 1.400 . S
C1820 C1823 1.386 . S
H1821 C1837 0.930 . S
H1822 C1838 0.931 . S
C1823 H1811 0.929 . S
C1823 C1817 1.390 . S
C1823 C1820 1.386 . S
C1824 C1819 1.490 . S
C1824 C1826 1.395 . S
C1824 C1827 1.403 . S
H1825 C1831 0.930 . S
C1826 H1812 0.930 . S
C1826 C1824 1.395 . S
C1826 C1829 1.403 . S
C1827 C1824 1.403 . S
C1827 C1828 1.524 . S
C1827 C1831 1.400 . S
C1828 H1813 0.960 . S
C1828 H1814 0.960 . S
C1828 H1815 0.960 . S
C1828 C1827 1.524 . S
C1829 C1826 1.403 . S
C1829 C1830 1.392 . S
C1829 C1833 1.495 . S
C1830 C1829 1.392 . S
C1830 C1831 1.385 . S
C1830 C1832 1.478 . S
C1831 H1825 0.930 . S
C1831 C1827 1.400 . S
C1831 C1830 1.385 . S
C1832 C1830 1.478 . S
C1832 C1834 1.381 . S
C1832 C1838 1.383 . S
C1833 C1829 1.495 . S
C1833 H1839 0.959 . S
C1833 H1840 0.961 . S
C1833 H1841 0.960 . S
C1834 C1832 1.381 . S
C1834 C1835 1.394 . S
C1834 H1842 0.930 . S
C1835 C1834 1.394 . S
C1835 C1836 1.383 . S
C1835 H1843 0.929 . S
C1836 C1835 1.383 . S
C1836 C1837 1.377 . S
C1837 H1821 0.930 . S
C1837 C1836 1.377 . S
C1837 C1838 1.379 . S
C1838 H1822 0.931 . S
C1838 C1832 1.383 . S
C1838 C1837 1.379 . S
H1839 C1833 0.959 . S
H1840 C1833 0.961 . S
H1841 C1833 0.960 . S
H1842 C1834 0.930 . S
H1843 C1835 0.929 . S
H1844 C1852 0.929 . S
H1845 C1854 0.930 . S
H1846 C1856 0.930 . S
H1847 C1859 0.929 . S
H1848 C1862 0.930 . S
H1849 C1864 0.960 . S
H1850 C1864 0.960 . S
H1851 C1864 0.960 . S
C1852 H1844 0.929 . S
C1852 C1853 1.377 . S
C1852 C1854 1.384 . S
C1853 C1852 1.377 . S
C1853 C1859 1.390 . S
C1854 H1845 0.930 . S
C1854 C1852 1.384 . S
C1854 C1855 1.372 . S
C1855 C1854 1.372 . S
C1855 C1856 1.400 . S
C1855 C1860 1.490 . S
C1856 H1846 0.930 . S
C1856 C1855 1.400 . S
C1856 C1859 1.386 . S
H1857 C1873 0.930 . S
H1858 C1874 0.931 . S
C1859 H1847 0.929 . S
C1859 C1853 1.390 . S
C1859 C1856 1.386 . S
C1860 C1855 1.490 . S
C1860 C1862 1.395 . S
C1860 C1863 1.403 . S
H1861 C1867 0.930 . S
C1862 H1848 0.930 . S
C1862 C1860 1.395 . S
C1862 C1865 1.403 . S
C1863 C1860 1.403 . S
C1863 C1864 1.524 . S
C1863 C1867 1.400 . S
C1864 H1849 0.960 . S
C1864 H1850 0.960 . S
C1864 H1851 0.960 . S
C1864 C1863 1.524 . S
C1865 C1862 1.403 . S
C1865 C1866 1.392 . S
C1865 C1869 1.495 . S
C1866 C1865 1.392 . S
C1866 C1867 1.385 . S
C1866 C1868 1.478 . S
C1867 H1861 0.930 . S
C1867 C1863 1.400 . S
C1867 C1866 1.385 . S
C1868 C1866 1.478 . S
C1868 C1870 1.381 . S
C1868 C1874 1.383 . S
C1869 C1865 1.495 . S
C1869 H1875 0.959 . S
C1869 H1876 0.961 . S
C1869 H1877 0.960 . S
C1870 C1868 1.381 . S
C1870 C1871 1.394 . S
C1870 H1878 0.930 . S
C1871 C1870 1.394 . S
C1871 C1872 1.383 . S
C1871 H1879 0.929 . S
C1872 C1871 1.383 . S
C1872 C1873 1.377 . S
C1873 H1857 0.930 . S
C1873 C1872 1.377 . S
C1873 C1874 1.379 . S
C1874 H1858 0.931 . S
C1874 C1868 1.383 . S
C1874 C1873 1.379 . S
H1875 C1869 0.959 . S
H1876 C1869 0.961 . S
H1877 C1869 0.960 . S
H1878 C1870 0.930 . S
H1879 C1871 0.929 . S
H1880 C1888 0.929 . S
H1881 C1890 0.930 . S
H1882 C1892 0.930 . S
H1883 C1895 0.929 . S
H1884 C1898 0.930 . S
H1885 C1900 0.960 . S
H1886 C1900 0.960 . S
H1887 C1900 0.960 . S
C1888 H1880 0.929 . S
C1888 C1889 1.377 . S
C1888 C1890 1.384 . S
C1889 C1888 1.377 . S
C1889 C1895 1.390 . S
C1890 H1881 0.930 . S
C1890 C1888 1.384 . S
C1890 C1891 1.372 . S
C1891 C1890 1.372 . S
C1891 C1892 1.400 . S
C1891 C1896 1.490 . S
C1892 H1882 0.930 . S
C1892 C1891 1.400 . S
C1892 C1895 1.386 . S
H1893 C1909 0.930 . S
H1894 C1910 0.931 . S
C1895 H1883 0.929 . S
C1895 C1889 1.390 . S
C1895 C1892 1.386 . S
C1896 C1891 1.490 . S
C1896 C1898 1.395 . S
C1896 C1899 1.403 . S
H1897 C1903 0.930 . S
C1898 H1884 0.930 . S
C1898 C1896 1.395 . S
C1898 C1901 1.403 . S
C1899 C1896 1.403 . S
C1899 C1900 1.524 . S
C1899 C1903 1.400 . S
C1900 H1885 0.960 . S
C1900 H1886 0.960 . S
C1900 H1887 0.960 . S
C1900 C1899 1.524 . S
C1901 C1898 1.403 . S
C1901 C1902 1.392 . S
C1901 C1905 1.495 . S
C1902 C1901 1.392 . S
C1902 C1903 1.385 . S
C1902 C1904 1.478 . S
C1903 H1897 0.930 . S
C1903 C1899 1.400 . S
C1903 C1902 1.385 . S
C1904 C1902 1.478 . S
C1904 C1906 1.381 . S
C1904 C1910 1.383 . S
C1905 C1901 1.495 . S
C1905 H1911 0.959 . S
C1905 H1912 0.961 . S
C1905 H1913 0.960 . S
C1906 C1904 1.381 . S
C1906 C1907 1.394 . S
C1906 H1914 0.930 . S
C1907 C1906 1.394 . S
C1907 C1908 1.383 . S
C1907 H1915 0.929 . S
C1908 C1907 1.383 . S
C1908 C1909 1.377 . S
C1909 H1893 0.930 . S
C1909 C1908 1.377 . S
C1909 C1910 1.379 . S
C1910 H1894 0.931 . S
C1910 C1904 1.383 . S
C1910 C1909 1.379 . S
H1911 C1905 0.959 . S
H1912 C1905 0.961 . S
H1913 C1905 0.960 . S
H1914 C1906 0.930 . S
H1915 C1907 0.929 . S
H1916 C1924 0.929 . S
H1917 C1926 0.930 . S
H1918 C1928 0.932 . S
H1919 C1931 0.923 1_554 S
H1920 C1934 0.930 . S
H1921 C1936 0.960 . S
H1922 C1936 0.960 . S
H1923 C1936 0.960 . S
C1924 H1916 0.929 . S
C1924 C1925 1.377 . S
C1924 C1926 1.384 . S
C1925 C1924 1.377 . S
C1925 C1931 1.394 . S
C1926 H1917 0.930 . S
C1926 C1924 1.384 . S
C1926 C1927 1.372 . S
C1927 C1926 1.372 . S
C1927 C1928 1.397 1_556 S
C1927 C1932 1.490 . S
C1928 H1918 0.932 . S
C1928 C1927 1.397 1_554 S
C1928 C1931 1.387 1_554 S
H1929 C1945 0.932 . S
H1930 C1946 0.931 1_554 S
C1931 H1919 0.923 1_556 S
C1931 C1925 1.394 . S
C1931 C1928 1.387 1_556 S
C1932 C1927 1.490 . S
C1932 C1934 1.395 . S
C1932 C1935 1.403 1_556 S
H1933 C1939 0.930 . S
C1934 H1920 0.930 . S
C1934 C1932 1.395 . S
C1934 C1937 1.403 . S
C1935 C1932 1.403 1_554 S
C1935 C1936 1.524 . S
C1935 C1939 1.400 . S
C1936 H1921 0.960 . S
C1936 H1922 0.960 . S
C1936 H1923 0.960 . S
C1936 C1935 1.524 . S
C1937 C1934 1.403 . S
C1937 C1938 1.392 . S
C1937 C1941 1.495 . S
C1938 C1937 1.392 . S
C1938 C1939 1.385 1_556 S
C1938 C1940 1.478 . S
C1939 H1933 0.930 . S
C1939 C1935 1.400 . S
C1939 C1938 1.385 1_554 S
C1940 C1938 1.478 . S
C1940 C1942 1.381 . S
C1940 C1946 1.383 . S
C1941 C1937 1.495 . S
C1941 H1947 0.959 . S
C1941 H1948 0.961 . S
C1941 H1949 0.960 . S
C1942 C1940 1.381 . S
C1942 C1943 1.394 . S
C1942 H1950 0.930 . S
C1943 C1942 1.394 . S
C1943 C1944 1.383 . S
C1943 H1951 0.929 . S
C1944 C1943 1.383 . S
C1944 C1945 1.374 1_556 S
C1945 H1929 0.932 . S
C1945 C1944 1.374 1_554 S
C1945 C1946 1.380 1_554 S
C1946 H1930 0.931 1_556 S
C1946 C1940 1.383 . S
C1946 C1945 1.380 1_556 S
H1947 C1941 0.959 . S
H1948 C1941 0.961 . S
H1949 C1941 0.960 . S
H1950 C1942 0.930 . S
H1951 C1943 0.929 . S
H1952 C1960 0.929 . S
H1953 C1962 0.930 . S
H1954 C1964 0.930 . S
H1955 C1967 0.929 . S
H1956 C1970 0.930 . S
H1957 C1972 0.960 . S
H1958 C1972 0.960 . S
H1959 C1972 0.960 . S
C1960 H1952 0.929 . S
C1960 C1961 1.377 . S
C1960 C1962 1.384 . S
C1961 C1960 1.377 . S
C1961 C1967 1.390 . S
C1962 H1953 0.930 . S
C1962 C1960 1.384 . S
C1962 C1963 1.372 . S
C1963 C1962 1.372 . S
C1963 C1964 1.400 . S
C1963 C1968 1.490 . S
C1964 H1954 0.930 . S
C1964 C1963 1.400 . S
C1964 C1967 1.386 . S
H1965 C1981 0.930 . S
H1966 C1982 0.931 . S
C1967 H1955 0.929 . S
C1967 C1961 1.390 . S
C1967 C1964 1.386 . S
C1968 C1963 1.490 . S
C1968 C1970 1.395 . S
C1968 C1971 1.403 . S
H1969 C1975 0.930 . S
C1970 H1956 0.930 . S
C1970 C1968 1.395 . S
C1970 C1973 1.403 . S
C1971 C1968 1.403 . S
C1971 C1972 1.524 . S
C1971 C1975 1.400 . S
C1972 H1957 0.960 . S
C1972 H1958 0.960 . S
C1972 H1959 0.960 . S
C1972 C1971 1.524 . S
C1973 C1970 1.403 . S
C1973 C1974 1.392 . S
C1973 C1977 1.495 . S
C1974 C1973 1.392 . S
C1974 C1975 1.385 . S
C1974 C1976 1.478 . S
C1975 H1969 0.930 . S
C1975 C1971 1.400 . S
C1975 C1974 1.385 . S
C1976 C1974 1.478 . S
C1976 C1978 1.381 . S
C1976 C1982 1.383 . S
C1977 C1973 1.495 . S
C1977 H1983 0.959 . S
C1977 H1984 0.961 . S
C1977 H1985 0.960 . S
C1978 C1976 1.381 . S
C1978 C1979 1.394 . S
C1978 H1986 0.930 . S
C1979 C1978 1.394 . S
C1979 C1980 1.383 . S
C1979 H1987 0.929 . S
C1980 C1979 1.383 . S
C1980 C1981 1.377 . S
C1981 H1965 0.930 . S
C1981 C1980 1.377 . S
C1981 C1982 1.379 . S
C1982 H1966 0.931 . S
C1982 C1976 1.383 . S
C1982 C1981 1.379 . S
H1983 C1977 0.959 . S
H1984 C1977 0.961 . S
H1985 C1977 0.960 . S
H1986 C1978 0.930 . S
H1987 C1979 0.929 . S
H1988 C1996 0.929 . S
H1989 C1998 0.930 . S
H1990 C2000 0.930 . S
H1991 C2003 0.929 . S
H1992 C2006 0.930 . S
H1993 C2008 0.960 . S
H1994 C2008 0.960 . S
H1995 C2008 0.960 . S
C1996 H1988 0.929 . S
C1996 C1997 1.377 . S
C1996 C1998 1.384 . S
C1997 C1996 1.377 . S
C1997 C2003 1.390 . S
C1998 H1989 0.930 . S
C1998 C1996 1.384 . S
C1998 C1999 1.372 . S
C1999 C1998 1.372 . S
C1999 C2000 1.400 . S
C1999 C2004 1.490 . S
C2000 H1990 0.930 . S
C2000 C1999 1.400 . S
C2000 C2003 1.386 . S
H2001 C2017 0.930 . S
H2002 C2018 0.931 . S
C2003 H1991 0.929 . S
C2003 C1997 1.390 . S
C2003 C2000 1.386 . S
C2004 C1999 1.490 . S
C2004 C2006 1.395 . S
C2004 C2007 1.403 . S
H2005 C2011 0.930 1_556 S
C2006 H1992 0.930 . S
C2006 C2004 1.395 . S
C2006 C2009 1.403 . S
C2007 C2004 1.403 . S
C2007 C2008 1.524 1_554 S
C2007 C2011 1.400 . S
C2008 H1993 0.960 . S
C2008 H1994 0.960 . S
C2008 H1995 0.960 . S
C2008 C2007 1.524 1_556 S
C2009 C2006 1.403 . S
C2009 C2010 1.392 . S
C2009 C2013 1.495 . S
C2010 C2009 1.392 . S
C2010 C2011 1.385 . S
C2010 C2012 1.478 . S
C2011 H2005 0.930 1_554 S
C2011 C2007 1.400 . S
C2011 C2010 1.385 . S
C2012 C2010 1.478 . S
C2012 C2014 1.381 . S
C2012 C2018 1.383 . S
C2013 C2009 1.495 . S
C2013 H2019 0.959 . S
C2013 H2020 0.961 . S
C2013 H2021 0.960 . S
C2014 C2012 1.381 . S
C2014 C2015 1.394 . S
C2014 H2022 0.930 . S
C2015 C2014 1.394 . S
C2015 C2016 1.383 . S
C2015 H2023 0.929 . S
C2016 C2015 1.383 . S
C2016 C2017 1.377 . S
C2017 H2001 0.930 . S
C2017 C2016 1.377 . S
C2017 C2018 1.379 . S
C2018 H2002 0.931 . S
C2018 C2012 1.383 . S
C2018 C2017 1.379 . S
H2019 C2013 0.959 . S
H2020 C2013 0.961 . S
H2021 C2013 0.960 . S
H2022 C2014 0.930 . S
H2023 C2015 0.929 . S
H2024 C2032 0.929 . S
H2025 C2034 0.930 . S
H2026 C2036 0.930 . S
H2027 C2039 0.929 . S
H2028 C2042 0.930 . S
H2029 C2044 0.960 . S
H2030 C2044 0.960 . S
H2031 C2044 0.960 . S
C2032 H2024 0.929 . S
C2032 C2033 1.377 . S
C2032 C2034 1.384 . S
C2033 C2032 1.377 . S
C2033 C2039 1.390 . S
C2034 H2025 0.930 . S
C2034 C2032 1.384 . S
C2034 C2035 1.372 . S
C2035 C2034 1.372 . S
C2035 C2036 1.400 . S
C2035 C2040 1.474 1_545 S
C2036 H2026 0.930 . S
C2036 C2035 1.400 . S
C2036 C2039 1.386 . S
H2037 C2053 0.930 . S
H2038 C2054 0.931 . S
C2039 H2027 0.929 . S
C2039 C2033 1.390 . S
C2039 C2036 1.386 . S
C2040 C2035 1.474 1_565 S
C2040 C2042 1.386 1_565 S
C2040 C2043 1.427 . S
H2041 C2047 0.930 . S
C2042 H2028 0.930 . S
C2042 C2040 1.386 1_545 S
C2042 C2045 1.403 1_545 S
C2043 C2040 1.427 . S
C2043 C2044 1.524 . S
C2043 C2047 1.400 . S
C2044 H2029 0.960 . S
C2044 H2030 0.960 . S
C2044 H2031 0.960 . S
C2044 C2043 1.524 . S
C2045 C2042 1.403 1_565 S
C2045 C2046 1.392 . S
C2045 C2049 1.495 1_565 S
C2046 C2045 1.392 . S
C2046 C2047 1.385 . S
C2046 C2048 1.478 . S
C2047 H2041 0.930 . S
C2047 C2043 1.400 . S
C2047 C2046 1.385 . S
C2048 C2046 1.478 . S
C2048 C2050 1.381 . S
C2048 C2054 1.383 . S
C2049 C2045 1.495 1_545 S
C2049 H2055 0.959 . S
C2049 H2056 0.961 . S
C2049 H2057 0.960 . S
C2050 C2048 1.381 . S
C2050 C2051 1.394 . S
C2050 H2058 0.930 . S
C2051 C2050 1.394 . S
C2051 C2052 1.383 . S
C2051 H2059 0.929 . S
C2052 C2051 1.383 . S
C2052 C2053 1.377 . S
C2053 H2037 0.930 . S
C2053 C2052 1.377 . S
C2053 C2054 1.379 . S
C2054 H2038 0.931 . S
C2054 C2048 1.383 . S
C2054 C2053 1.379 . S
H2055 C2049 0.959 . S
H2056 C2049 0.961 . S
H2057 C2049 0.960 . S
H2058 C2050 0.930 . S
H2059 C2051 0.929 . S
C360 C186 1.489 1_556 S
C341 C60 1.521 . S
C396 C199 1.385 . S
C377 C76 1.382 . S
C413 C81 1.632 . S
C432 C212 1.618 . S
C468 C225 1.587 . S
C449 C48 1.642 . S
C504 C233 1.473 . S
C485 C115 1.475 . S
C540 C246 1.554 . S
C521 C136 1.560 . S
C557 C131 1.350 . S
C576 C259 1.331 . S
C612 C272 1.492 . S
C593 C104 1.508 . S
C629 C126 1.425 . S
C648 C290 1.404 . S
C684 C301 1.392 . S
C665 C103 1.443 . S
C701 C120 1.358 . S
C720 C285 1.354 . S
C756 C293 1.395 . S
C737 C142 1.409 . S
C773 C82 1.451 . S
C792 C316 1.439 . S
C809 C54 1.851 . S
C828 C306 1.832 . S
C845 C65 1.441 . S
C864 C311 1.412 . S
C881 C71 1.291 . S
C900 C314 1.289 . S
C917 C37 1.525 . S
C936 C223 1.498 1_565 S
C953 C158 1.968 . S
C972 C215 1.958 . S
C1008 C184 1.419 . S
C989 C169 1.455 . S
C1044 C189 1.184 . S
C1025 C98 1.197 . S
C1061 C49 1.784 1_545 S
C1080 C236 1.736 . S
C1116 C275 1.438 . S
C1097 C125 1.463 . S
C1152 C228 1.350 . S
C1133 C109 1.360 . S
C1188 C254 1.733 . S
C1169 C137 1.801 . S
C1224 C264 1.499 . S
C1205 C159 1.523 . S
C1241 C175 1.383 . S
C1260 C277 1.380 . S
C1277 C92 1.631 . S
C1296 C238 1.592 . S
C1332 C251 1.609 . S
C1313 C147 1.643 . S
C1349 C38 1.479 . S
C1368 C207 1.460 . S
C1404 C220 1.544 . S
C1385 C4 1.560 . S
C1440 C181 1.327 . S
C1421 C21 1.349 . S
C1476 C194 1.482 . S
C1457 C27 1.503 . S
C1493 C16 1.426 . S
C1512 C303 1.381 . S
C1529 C26 1.443 . S
C1548 C288 1.387 . S
C1565 C43 1.361 . S
C1584 C298 1.318 . S
C1601 C10 1.408 . S
C1620 C280 1.381 . S
C1656 C329 1.428 . S
C1637 C93 1.449 . S
C1692 C319 1.821 . S
C1673 C153 1.851 . S
C1728 C324 1.404 . S
C1709 C164 1.441 . S
C1745 C170 1.293 . S
C1764 C327 1.296 . S
C1781 C114 1.525 . S
C1800 C249 1.504 . S
C1836 C241 1.950 . S
C1817 C59 1.966 . S
C1872 C262 1.450 . S
C1853 C70 1.452 . S
C1908 C267 1.193 . S
C1889 C87 1.193 . S
C1925 C148 1.787 . S
C1944 C210 1.768 . S
C1980 C197 1.409 . S
C1961 C15 1.463 . S
C1997 C32 1.361 . S
C2016 C202 1.365 1_554 S
C2052 C176 1.764 . S
C2033 C5 1.803 . S
