# Generated by pormake.
# Topology eea, (3,6)-cn, num edge types: 1
# Building blocks:
#     Node 0, Type 0, BuildingBlock: BETDIP_clean_linker_0, # of connection points: 3
#     Node 1, Type 0, BuildingBlock: BETDIP_clean_linker_0, # of connection points: 3
#     Node 2, Type 0, BuildingBlock: BETDIP_clean_linker_0, # of connection points: 3
#     Node 3, Type 0, BuildingBlock: BETDIP_clean_linker_0, # of connection points: 3
#     Node 4, Type 0, BuildingBlock: BETDIP_clean_linker_0, # of connection points: 3
#     Node 5, Type 0, BuildingBlock: BETDIP_clean_linker_0, # of connection points: 3
#     Node 6, Type 0, BuildingBlock: BETDIP_clean_linker_0, # of connection points: 3
#     Node 7, Type 0, BuildingBlock: BETDIP_clean_linker_0, # of connection points: 3
#     Node 8, Type 0, BuildingBlock: BETDIP_clean_linker_0, # of connection points: 3
#     Node 9, Type 0, BuildingBlock: BETDIP_clean_linker_0, # of connection points: 3
#     Node 10, Type 0, BuildingBlock: BETDIP_clean_linker_0, # of connection points: 3
#     Node 11, Type 0, BuildingBlock: BETDIP_clean_linker_0, # of connection points: 3
#     Node 12, Type 0, BuildingBlock: BETDIP_clean_linker_0, # of connection points: 3
#     Node 13, Type 0, BuildingBlock: BETDIP_clean_linker_0, # of connection points: 3
#     Node 14, Type 0, BuildingBlock: BETDIP_clean_linker_0, # of connection points: 3
#     Node 15, Type 0, BuildingBlock: BETDIP_clean_linker_0, # of connection points: 3
#     Node 16, Type 0, BuildingBlock: BETDIP_clean_linker_0, # of connection points: 3
#     Node 17, Type 0, BuildingBlock: BETDIP_clean_linker_0, # of connection points: 3
#     Node 18, Type 1, BuildingBlock: KUMBUR_clean_sbu_0, # of connection points: 6
#     Node 19, Type 1, BuildingBlock: KUMBUR_clean_sbu_0, # of connection points: 6
#     Node 20, Type 1, BuildingBlock: KUMBUR_clean_sbu_0, # of connection points: 6
#     Node 21, Type 1, BuildingBlock: KUMBUR_clean_sbu_0, # of connection points: 6
#     Node 22, Type 1, BuildingBlock: KUMBUR_clean_sbu_0, # of connection points: 6
#     Node 23, Type 1, BuildingBlock: KUMBUR_clean_sbu_0, # of connection points: 6
#     Node 24, Type 1, BuildingBlock: KUMBUR_clean_sbu_0, # of connection points: 6
#     Node 25, Type 1, BuildingBlock: KUMBUR_clean_sbu_0, # of connection points: 6
#     Node 26, Type 1, BuildingBlock: KUMBUR_clean_sbu_0, # of connection points: 6
#     Edge 27, Type (0, 1), BuildingBlock: EZIPEK_clean_linker_0, # of connection points: 2
#     Edge 28, Type (0, 1), BuildingBlock: EZIPEK_clean_linker_0, # of connection points: 2
#     Edge 29, Type (0, 1), BuildingBlock: EZIPEK_clean_linker_0, # of connection points: 2
#     Edge 30, Type (0, 1), BuildingBlock: EZIPEK_clean_linker_0, # of connection points: 2
#     Edge 31, Type (0, 1), BuildingBlock: EZIPEK_clean_linker_0, # of connection points: 2
#     Edge 32, Type (0, 1), BuildingBlock: EZIPEK_clean_linker_0, # of connection points: 2
#     Edge 33, Type (0, 1), BuildingBlock: EZIPEK_clean_linker_0, # of connection points: 2
#     Edge 34, Type (0, 1), BuildingBlock: EZIPEK_clean_linker_0, # of connection points: 2
#     Edge 35, Type (0, 1), BuildingBlock: EZIPEK_clean_linker_0, # of connection points: 2
#     Edge 36, Type (0, 1), BuildingBlock: EZIPEK_clean_linker_0, # of connection points: 2
#     Edge 37, Type (0, 1), BuildingBlock: EZIPEK_clean_linker_0, # of connection points: 2
#     Edge 38, Type (0, 1), BuildingBlock: EZIPEK_clean_linker_0, # of connection points: 2
#     Edge 39, Type (0, 1), BuildingBlock: EZIPEK_clean_linker_0, # of connection points: 2
#     Edge 40, Type (0, 1), BuildingBlock: EZIPEK_clean_linker_0, # of connection points: 2
#     Edge 41, Type (0, 1), BuildingBlock: EZIPEK_clean_linker_0, # of connection points: 2
#     Edge 42, Type (0, 1), BuildingBlock: EZIPEK_clean_linker_0, # of connection points: 2
#     Edge 43, Type (0, 1), BuildingBlock: EZIPEK_clean_linker_0, # of connection points: 2
#     Edge 44, Type (0, 1), BuildingBlock: EZIPEK_clean_linker_0, # of connection points: 2
#     Edge 45, Type (0, 1), BuildingBlock: EZIPEK_clean_linker_0, # of connection points: 2
#     Edge 46, Type (0, 1), BuildingBlock: EZIPEK_clean_linker_0, # of connection points: 2
#     Edge 47, Type (0, 1), BuildingBlock: EZIPEK_clean_linker_0, # of connection points: 2
#     Edge 48, Type (0, 1), BuildingBlock: EZIPEK_clean_linker_0, # of connection points: 2
#     Edge 49, Type (0, 1), BuildingBlock: EZIPEK_clean_linker_0, # of connection points: 2
#     Edge 50, Type (0, 1), BuildingBlock: EZIPEK_clean_linker_0, # of connection points: 2
#     Edge 51, Type (0, 1), BuildingBlock: EZIPEK_clean_linker_0, # of connection points: 2
#     Edge 52, Type (0, 1), BuildingBlock: EZIPEK_clean_linker_0, # of connection points: 2
#     Edge 53, Type (0, 1), BuildingBlock: EZIPEK_clean_linker_0, # of connection points: 2
#     Edge 54, Type (0, 1), BuildingBlock: EZIPEK_clean_linker_0, # of connection points: 2
#     Edge 55, Type (0, 1), BuildingBlock: EZIPEK_clean_linker_0, # of connection points: 2
#     Edge 56, Type (0, 1), BuildingBlock: EZIPEK_clean_linker_0, # of connection points: 2
#     Edge 57, Type (0, 1), BuildingBlock: EZIPEK_clean_linker_0, # of connection points: 2
#     Edge 58, Type (0, 1), BuildingBlock: EZIPEK_clean_linker_0, # of connection points: 2
#     Edge 59, Type (0, 1), BuildingBlock: EZIPEK_clean_linker_0, # of connection points: 2
#     Edge 60, Type (0, 1), BuildingBlock: EZIPEK_clean_linker_0, # of connection points: 2
#     Edge 61, Type (0, 1), BuildingBlock: EZIPEK_clean_linker_0, # of connection points: 2
#     Edge 62, Type (0, 1), BuildingBlock: EZIPEK_clean_linker_0, # of connection points: 2
#     Edge 63, Type (0, 1), BuildingBlock: EZIPEK_clean_linker_0, # of connection points: 2
#     Edge 64, Type (0, 1), BuildingBlock: EZIPEK_clean_linker_0, # of connection points: 2
#     Edge 65, Type (0, 1), BuildingBlock: EZIPEK_clean_linker_0, # of connection points: 2
#     Edge 66, Type (0, 1), BuildingBlock: EZIPEK_clean_linker_0, # of connection points: 2
#     Edge 67, Type (0, 1), BuildingBlock: EZIPEK_clean_linker_0, # of connection points: 2
#     Edge 68, Type (0, 1), BuildingBlock: EZIPEK_clean_linker_0, # of connection points: 2
#     Edge 69, Type (0, 1), BuildingBlock: EZIPEK_clean_linker_0, # of connection points: 2
#     Edge 70, Type (0, 1), BuildingBlock: EZIPEK_clean_linker_0, # of connection points: 2
#     Edge 71, Type (0, 1), BuildingBlock: EZIPEK_clean_linker_0, # of connection points: 2
#     Edge 72, Type (0, 1), BuildingBlock: EZIPEK_clean_linker_0, # of connection points: 2
#     Edge 73, Type (0, 1), BuildingBlock: EZIPEK_clean_linker_0, # of connection points: 2
#     Edge 74, Type (0, 1), BuildingBlock: EZIPEK_clean_linker_0, # of connection points: 2
#     Edge 75, Type (0, 1), BuildingBlock: EZIPEK_clean_linker_0, # of connection points: 2
#     Edge 76, Type (0, 1), BuildingBlock: EZIPEK_clean_linker_0, # of connection points: 2
#     Edge 77, Type (0, 1), BuildingBlock: EZIPEK_clean_linker_0, # of connection points: 2
#     Edge 78, Type (0, 1), BuildingBlock: EZIPEK_clean_linker_0, # of connection points: 2
#     Edge 79, Type (0, 1), BuildingBlock: EZIPEK_clean_linker_0, # of connection points: 2
#     Edge 80, Type (0, 1), BuildingBlock: EZIPEK_clean_linker_0, # of connection points: 2
# Relax obj value: 0.026
# Max RMSD: 0.187
# Mean RMSD: 0.132
data_MOF--net-eea--node1-KUMBUR_clean_sbu_0--node2-BETDIP_clean_linker_0--edge1-EZIPEK_clean_linker_0
_symmetry_space_group_name_H-M    P1
_symmetry_Int_Tables_number       1
_symmetry_cell_setting            triclinic
loop_
_symmetry_equiv_pos_as_xyz
'x, y, z'
_cell_length_a     39.230289
_cell_length_b     40.434634
_cell_length_c     52.185774
_cell_angle_alpha  89.79628
_cell_angle_beta   90.047969
_cell_angle_gamma 119.94895
loop_
_atom_site_label
_atom_site_type_symbol
_atom_site_fract_x
_atom_site_fract_y
_atom_site_fract_z
_atom_type_partial_charge
H0 H 0.22483 0.0917 0.36934 0.0
H1 H 0.27616 0.16763 0.43339 0.0
H2 H 0.28035 0.06351 0.43 0.0
H3 H 0.29204 0.21227 0.39553 0.0
C4 C 0.26107 0.19838 0.39047 0.0
C5 C 0.24086 0.09892 0.38728 0.0
C6 C 0.25202 0.07391 0.39809 0.0
C7 C 0.25057 0.13334 0.39947 0.0
C8 C 0.27005 0.14191 0.42326 0.0
C9 C 0.28072 0.11671 0.43439 0.0
C10 C 0.27225 0.08312 0.42146 0.0
N11 N 0.23879 0.15806 0.38819 0.0
H12 H 0.94358 0.13364 0.37188 0.0
H13 H 0.86367 0.10073 0.43584 0.0
H14 H 0.96598 0.21227 0.43378 0.0
H15 H 0.85105 0.04148 0.42522 0.0
C16 C 0.84955 0.04275 0.4045 0.0
C17 C 0.93525 0.14026 0.39012 0.0
C18 C 0.95961 0.17612 0.40157 0.0
C19 C 0.90108 0.11235 0.40263 0.0
C20 C 0.8905 0.12126 0.42629 0.0
C21 C 0.9133 0.15738 0.43741 0.0
C22 C 0.94795 0.18456 0.42504 0.0
N23 N 0.87723 0.07606 0.39084 0.0
H24 H 0.88384 0.80783 0.36796 0.0
H25 H 0.91965 0.7663 0.43317 0.0
H26 H 0.80524 0.75536 0.43171 0.0
H27 H 0.97987 0.80441 0.41894 0.0
C28 C 0.97816 0.80534 0.39823 0.0
C29 C 0.87794 0.79455 0.38673 0.0
C30 C 0.84138 0.78282 0.39865 0.0
C31 C 0.90695 0.78932 0.39905 0.0
C32 C 0.89856 0.77171 0.42346 0.0
C33 C 0.86185 0.75923 0.43525 0.0
C34 C 0.83359 0.76496 0.4227 0.0
N35 N 0.94334 0.80056 0.38609 0.0
H36 H 0.08633 0.19772 0.66227 0.0
H37 H 0.16453 0.24934 0.598 0.0
H38 H 0.05241 0.24399 0.59929 0.0
H39 H 0.17826 0.2001 0.60728 0.0
C40 C 0.18233 0.20463 0.62782 0.0
C41 C 0.0925 0.2113 0.6436 0.0
C42 C 0.06533 0.22018 0.63234 0.0
C43 C 0.12758 0.21989 0.63072 0.0
C44 C 0.13642 0.23995 0.60721 0.0
C45 C 0.10948 0.24882 0.59568 0.0
C46 C 0.07344 0.23741 0.60802 0.0
N47 N 0.15424 0.20966 0.64216 0.0
H48 H 0.79898 0.87738 0.65646 0.0
H49 H 0.75 0.90693 0.59249 0.0
H50 H 0.73534 0.79448 0.59782 0.0
H51 H 0.73915 0.9403 0.62522 0.0
C52 C 0.7685 0.95382 0.63344 0.0
C53 C 0.78234 0.86956 0.63875 0.0
C54 C 0.76841 0.83301 0.62841 0.0
C55 C 0.77456 0.89593 0.62642 0.0
C56 C 0.75452 0.88618 0.60286 0.0
C57 C 0.73987 0.84953 0.59253 0.0
C58 C 0.74644 0.82283 0.60566 0.0
N59 N 0.78745 0.93216 0.63782 0.0
H60 H 0.12582 0.92106 0.6591 0.0
H61 H 0.09956 0.84768 0.59343 0.0
H62 H 0.20883 0.95343 0.59719 0.0
H63 H 0.04013 0.81641 0.60866 0.0
C64 C 0.03917 0.82313 0.62862 0.0
C65 C 0.13385 0.91504 0.64054 0.0
C66 C 0.17006 0.94137 0.62943 0.0
C67 C 0.10774 0.88117 0.62782 0.0
C68 C 0.11854 0.87372 0.60362 0.0
C69 C 0.15513 0.89956 0.59258 0.0
C70 C 0.18065 0.93334 0.60561 0.0
N71 N 0.07164 0.85521 0.64027 0.0
H72 H 0.88595 0.41861 0.70461 0.0
H73 H 0.92613 0.49123 0.77112 0.0
H74 H 0.92554 0.38515 0.77175 0.0
H75 H 0.89194 0.51523 0.75593 0.0
C76 C 0.89158 0.51328 0.7352 0.0
C77 C 0.89748 0.4244 0.72396 0.0
C78 C 0.90524 0.39809 0.73665 0.0
C79 C 0.90377 0.45774 0.73632 0.0
C80 C 0.91931 0.46514 0.76133 0.0
C81 C 0.92686 0.43896 0.7741 0.0
C82 C 0.91974 0.40542 0.7618 0.0
N83 N 0.89419 0.48304 0.7232 0.0
H84 H 0.60547 0.46691 0.70442 0.0
H85 H 0.52796 0.43039 0.76978 0.0
H86 H 0.62038 0.54698 0.76364 0.0
H87 H 0.48523 0.38769 0.74247 0.0
C88 C 0.5026 0.37972 0.73054 0.0
C89 C 0.59623 0.47322 0.72244 0.0
C90 C 0.61745 0.51018 0.73282 0.0
C91 C 0.56325 0.44432 0.73523 0.0
C92 C 0.55222 0.4525 0.75899 0.0
C93 C 0.5721 0.48961 0.76905 0.0
C94 C 0.60466 0.51836 0.75583 0.0
N95 N 0.54191 0.40748 0.72384 0.0
H96 H 0.55289 0.14566 0.70447 0.0
H97 H 0.59102 0.10587 0.7694 0.0
H98 H 0.4754 0.09243 0.76862 0.0
H99 H 0.65205 0.15267 0.75501 0.0
C100 C 0.64845 0.14581 0.73473 0.0
C101 C 0.5475 0.13265 0.72331 0.0
C102 C 0.511 0.1204 0.73545 0.0
C103 C 0.57704 0.1281 0.73546 0.0
C104 C 0.56929 0.11063 0.75992 0.0
C105 C 0.53255 0.09742 0.77187 0.0
C106 C 0.50378 0.10261 0.75952 0.0
N107 N 0.61323 0.13935 0.72227 0.0
H108 H 0.76276 0.54928 0.99834 0.0
H109 H 0.84227 0.59106 0.93394 0.0
H110 H 0.73233 0.58999 0.93049 0.0
H111 H 0.84924 0.53793 0.94786 0.0
C112 C 0.85599 0.54743 0.96762 0.0
C113 C 0.76988 0.56118 0.97916 0.0
C114 C 0.74325 0.56894 0.96585 0.0
C115 C 0.80516 0.56778 0.96744 0.0
C116 C 0.8145 0.58422 0.94275 0.0
C117 C 0.78852 0.59249 0.92933 0.0
C118 C 0.75267 0.58405 0.94085 0.0
N119 N 0.83117 0.55835 0.98071 0.0
H120 H 0.47827 0.21659 0.98605 0.0
H121 H 0.42069 0.24104 0.92545 0.0
H122 H 0.41623 0.13271 0.92871 0.0
H123 H 0.46592 0.30101 0.93261 0.0
C124 C 0.4674 0.3015 0.95338 0.0
C125 C 0.46032 0.20772 0.96889 0.0
C126 C 0.4471 0.17127 0.95877 0.0
C127 C 0.45167 0.23326 0.9565 0.0
C128 C 0.42666 0.22086 0.93505 0.0
C129 C 0.40864 0.18271 0.92624 0.0
C130 C 0.42304 0.15972 0.93682 0.0
N131 N 0.46662 0.27051 0.96687 0.0
H132 H 0.80543 0.25073 0.9968 0.0
H133 H 0.76903 0.17599 0.93136 0.0
H134 H 0.87947 0.28073 0.92988 0.0
H135 H 0.7079 0.16681 0.94536 0.0
C136 C 0.71072 0.16123 0.96541 0.0
C137 C 0.81109 0.24412 0.97771 0.0
C138 C 0.84586 0.27023 0.96472 0.0
C139 C 0.78241 0.21073 0.96553 0.0
C140 C 0.79006 0.20219 0.94073 0.0
C141 C 0.82557 0.22683 0.92814 0.0
C142 C 0.85278 0.26103 0.94003 0.0
N143 N 0.74634 0.18612 0.97852 0.0
H144 H 0.55579 0.75367 0.03763 0.0
H145 H 0.61435 0.83352 0.0988 0.0
H146 H 0.60376 0.72272 0.1015 0.0
H147 H 0.57238 0.85335 0.08886 0.0
C148 C 0.5699 0.85139 0.06814 0.0
C149 C 0.57094 0.76071 0.0559 0.0
C150 C 0.57912 0.73438 0.06806 0.0
C151 C 0.5819 0.79595 0.06734 0.0
C152 C 0.60335 0.80558 0.09041 0.0
C153 C 0.61089 0.77915 0.10301 0.0
C154 C 0.59794 0.74326 0.09195 0.0
N155 N 0.57115 0.82105 0.05525 0.0
H156 H 0.26753 0.80664 0.03564 0.0
H157 H 0.18632 0.77698 0.09865 0.0
H158 H 0.29496 0.88309 0.09962 0.0
H159 H 0.17306 0.71844 0.09012 0.0
C160 C 0.17251 0.71735 0.06934 0.0
C161 C 0.25968 0.81334 0.05403 0.0
C162 C 0.28506 0.84856 0.06586 0.0
C163 C 0.22473 0.78637 0.06626 0.0
C164 C 0.21416 0.79616 0.08959 0.0
C165 C 0.23947 0.83061 0.10187 0.0
C166 C 0.27515 0.85651 0.09009 0.0
N167 N 0.20084 0.74964 0.05507 0.0
H168 H 0.2206 0.46908 0.03705 0.0
H169 H 0.25616 0.42411 0.10023 0.0
H170 H 0.14667 0.42398 0.10372 0.0
H171 H 0.31827 0.47377 0.08708 0.0
C172 C 0.31525 0.46746 0.06671 0.0
C173 C 0.21526 0.45632 0.05598 0.0
C174 C 0.18005 0.44706 0.06899 0.0
C175 C 0.24382 0.4496 0.06748 0.0
C176 C 0.23567 0.43151 0.0917 0.0
C177 C 0.20068 0.42215 0.10494 0.0
C178 C 0.1736 0.43093 0.09363 0.0
N179 N 0.27974 0.46004 0.05413 0.0
H180 H 0.42211 0.87991 0.33019 0.0
H181 H 0.50428 0.92422 0.26736 0.0
H182 H 0.39524 0.9248 0.26292 0.0
H183 H 0.51363 0.87379 0.28038 0.0
C184 C 0.51731 0.88021 0.30072 0.0
C185 C 0.43007 0.89265 0.31127 0.0
C186 C 0.40437 0.90161 0.29794 0.0
C187 C 0.46566 0.89947 0.30005 0.0
C188 C 0.47621 0.91714 0.27578 0.0
C189 C 0.45107 0.92637 0.26224 0.0
C190 C 0.41488 0.91793 0.27329 0.0
N191 N 0.49078 0.88913 0.31352 0.0
H192 H 0.12522 0.54247 0.32935 0.0
H193 H 0.07215 0.56979 0.26659 0.0
H194 H 0.07594 0.46563 0.26549 0.0
H195 H 0.11544 0.62921 0.27671 0.0
C196 C 0.1171 0.62956 0.29747 0.0
C197 C 0.11028 0.53531 0.31102 0.0
C198 C 0.10079 0.5006 0.29913 0.0
C199 C 0.10147 0.56126 0.29906 0.0
C200 C 0.08107 0.55118 0.27561 0.0
C201 C 0.07215 0.51702 0.26326 0.0
C202 C 0.08247 0.49195 0.275 0.0
N203 N 0.11377 0.59727 0.31082 0.0
H204 H 0.46337 0.59332 0.31948 0.0
H205 H 0.43184 0.51515 0.25609 0.0
H206 H 0.5477 0.61301 0.26029 0.0
H207 H 0.38494 0.47381 0.28197 0.0
C208 C 0.37769 0.48947 0.29566 0.0
C209 C 0.47109 0.58449 0.30187 0.0
C210 C 0.5088 0.60718 0.29124 0.0
C211 C 0.44322 0.55048 0.28987 0.0
C212 C 0.45317 0.54009 0.26643 0.0
C213 C 0.49096 0.5624 0.25582 0.0
C214 C 0.51864 0.59558 0.26851 0.0
N215 N 0.40537 0.52832 0.30146 0.0
Tb216 Tb 0.48528 0.98531 0.98382 0.0
C217 C 0.55425 0.11307 0.06327 0.0
C218 C 0.62455 0.13891 0.0618 0.0
C219 C 0.59812 0.1803 0.07216 0.0
C220 C 0.58592 0.10822 0.05858 0.0
C221 C 0.55977 0.14893 0.07056 0.0
C222 C 0.63051 0.17527 0.06783 0.0
C223 C 0.48945 0.11927 0.0762 0.0
N224 N 0.51784 0.08196 0.06159 0.0
C225 C 0.48555 0.08424 0.06903 0.0
C226 C 0.52668 0.15189 0.07665 0.0
Tb227 Tb 0.51414 0.02623 0.04776 0.0
N228 N 0.57872 0.07254 0.05318 0.0
C229 C 0.60883 0.0648 0.05397 0.0
C230 C 0.65579 0.13166 0.06021 0.0
C231 C 0.64777 0.0942 0.05703 0.0
H232 H 0.45657 0.05938 0.06852 0.0
H233 H 0.67154 0.08791 0.05693 0.0
H234 H 0.65998 0.19934 0.07005 0.0
H235 H 0.46371 0.12108 0.08136 0.0
H236 H 0.60311 0.03594 0.05224 0.0
H237 H 0.32782 0.92859 0.98275 0.0
H238 H 0.68593 0.15437 0.06263 0.0
H239 H 0.53456 0.95037 0.95344 0.0
H240 H 0.39744 0.97869 0.98343 0.0
H241 H 0.52394 0.88749 0.94005 0.0
H242 H 0.60304 0.20822 0.07749 0.0
H243 H 0.30996 0.86095 0.97777 0.0
H244 H 0.33235 0.81353 0.96839 0.0
H245 H 0.52963 0.17896 0.08231 0.0
H246 H 0.38647 0.80222 0.95643 0.0
N247 N 0.41941 0.94039 0.98098 0.0
C248 C 0.39032 0.94956 0.98188 0.0
C249 C 0.34066 0.88298 0.97839 0.0
C250 C 0.37053 0.87415 0.97483 0.0
C251 C 0.35063 0.92108 0.98115 0.0
C252 C 0.40995 0.90402 0.97586 0.0
H253 H 0.45828 0.82994 0.94517 0.0
N254 N 0.47646 0.92848 0.96793 0.0
C255 C 0.50005 0.88984 0.94849 0.0
C256 C 0.43988 0.89775 0.96911 0.0
C257 C 0.50602 0.92544 0.95626 0.0
C258 C 0.46301 0.85742 0.95147 0.0
C259 C 0.43199 0.86132 0.96121 0.0
O260 O 0.5145 0.00314 0.94816 0.0
O261 O 0.53005 0.02943 0.00769 0.0
O262 O 0.50627 0.06688 0.02439 0.0
O263 O 0.46618 0.02751 0.99178 0.0
O264 O 0.54869 0.01 0.97808 0.0
O265 O 0.46315 0.00726 0.95586 0.0
O266 O 0.48457 0.0099 0.08335 0.0
O267 O 0.46924 0.98092 0.02413 0.0
O268 O 0.50305 0.94908 1.00453 0.0
O269 O 0.53653 0.98683 0.04024 0.0
O270 O 0.45103 0.99889 0.05452 0.0
O271 O 0.53698 0.00669 0.07684 0.0
C272 C 0.56098 0.03376 0.99674 0.0
C273 C 0.47464 0.99799 0.91276 0.0
C274 C 0.47803 0.01001 0.86658 0.0
C275 C 0.49308 0.02189 0.89148 0.0
C276 C 0.44477 0.97372 0.86326 0.0
C277 C 0.44173 0.96173 0.90895 0.0
C278 C 0.42696 0.94972 0.8843 0.0
C279 C 0.48255 0.06021 1.00468 0.0
C280 C 0.48927 0.01177 0.9388 0.0
C281 C 0.39317 0.8306 0.96207 0.0
C282 C 0.36238 0.83703 0.96889 0.0
C283 C 0.43826 0.975 0.03602 0.0
C284 C 0.52387 0.01685 0.1196 0.0
C285 C 0.50252 0.99478 0.14098 0.0
C286 C 0.51643 0.00697 0.16609 0.0
C287 C 0.55153 0.04181 0.16946 0.0
C288 C 0.55857 0.05173 0.12351 0.0
C289 C 0.57221 0.06409 0.14832 0.0
C290 C 0.52486 0.95633 0.02548 0.0
C291 C 0.51028 0.00241 0.09347 0.0
H292 H 0.51863 0.04989 0.89429 0.0
H293 H 0.43264 0.96398 0.84431 0.0
H294 H 0.42724 0.9429 0.92504 0.0
H295 H 0.40143 0.92178 0.8815 0.0
H296 H 0.47558 0.96788 0.13813 0.0
H297 H 0.56288 0.05178 0.18853 0.0
H298 H 0.57535 0.06921 0.10743 0.0
H299 H 0.59913 0.09093 0.15117 0.0
Tb300 Tb 0.03922 0.50245 0.98649 0.0
C301 C 0.90055 0.4279 0.06114 0.0
C302 C 0.86811 0.46533 0.05957 0.0
C303 C 0.83024 0.39751 0.06924 0.0
C304 C 0.90216 0.46222 0.05682 0.0
C305 C 0.86469 0.3951 0.06762 0.0
C306 C 0.83195 0.4326 0.06522 0.0
C307 C 0.89982 0.36041 0.07093 0.0
N308 N 0.93442 0.4268 0.05898 0.0
C309 C 0.93469 0.39375 0.06452 0.0
C310 C 0.8646 0.36099 0.07232 0.0
Tb311 Tb 0.99006 0.48305 0.04788 0.0
N312 N 0.93773 0.49312 0.05171 0.0
C313 C 0.94196 0.52871 0.05239 0.0
C314 C 0.87182 0.50149 0.05768 0.0
C315 C 0.90911 0.53345 0.0547 0.0
H316 H 0.96148 0.39256 0.06328 0.0
H317 H 0.91268 0.56177 0.05444 0.0
H318 H 0.80539 0.43433 0.06717 0.0
H319 H 0.90014 0.33424 0.07474 0.0
H320 H 0.97074 0.5536 0.05133 0.0
H321 H 0.09539 0.4037 0.98415 0.0
H322 H 0.84643 0.50518 0.05966 0.0
H323 H 0.0828 0.59018 0.96079 0.0
H324 H 0.04436 0.42113 0.98494 0.0
H325 H 0.15049 0.6433 0.9543 0.0
H326 H 0.80231 0.37258 0.07398 0.0
H327 H 0.16547 0.45368 0.98536 0.0
H328 H 0.21605 0.52323 0.98356 0.0
H329 H 0.83764 0.33511 0.07726 0.0
H330 H 0.23128 0.58927 0.97589 0.0
N331 N 0.08393 0.48125 0.9861 0.0
C332 C 0.07426 0.44375 0.98471 0.0
C333 C 0.14296 0.46175 0.98523 0.0
C334 C 0.15291 0.50006 0.98459 0.0
C335 C 0.10347 0.4335 0.98441 0.0
C336 C 0.12238 0.50898 0.98435 0.0
H337 H 0.20698 0.63429 0.96431 0.0
N338 N 0.1006 0.55267 0.97673 0.0
C339 C 0.14551 0.61629 0.96188 0.0
C340 C 0.13102 0.54608 0.97987 0.0
C341 C 0.10716 0.58621 0.96572 0.0
C342 C 0.17729 0.61112 0.96762 0.0
C343 C 0.17026 0.57526 0.9758 0.0
O344 O 0.99661 0.47377 0.95784 0.0
O345 O 0.99079 0.49998 0.00814 0.0
O346 O 0.95208 0.43745 0.02147 0.0
O347 O 0.99906 0.44047 0.99363 0.0
O348 O 0.0139 0.53979 0.9799 0.0
O349 O 0.057 0.50683 0.94786 0.0
O350 O 1.00349 0.47006 0.08436 0.0
O351 O 0.04068 0.48917 0.02648 0.0
O352 O 0.07063 0.55529 0.00866 0.0
O353 O 0.0293 0.54544 0.04377 0.0
O354 O 0.02122 0.45168 0.05594 0.0
O355 O 1.00303 0.52252 0.07756 0.0
C356 C 0.98685 0.52609 0.99721 0.0
C357 C 0.01117 0.50371 0.91739 0.0
C358 C 0.98669 0.49787 0.87381 0.0
C359 C 0.99568 0.4821 0.89501 0.0
C360 C 0.9927 0.53503 0.87516 0.0
C361 C 0.01722 0.54099 0.91837 0.0
C362 C 1.00784 0.55643 0.89741 0.0
C363 C 0.96214 0.42295 1.00219 0.0
C364 C 0.0215 0.48719 0.93917 0.0
C365 C 0.20092 0.5671 0.97848 0.0
C366 C 0.19224 0.5295 0.98282 0.0
C367 C 0.0478 0.46603 0.03861 0.0
C368 C 0.98763 0.4966 0.11953 0.0
C369 C 1.00769 0.49707 0.14196 0.0
C370 C 0.99182 0.49664 0.16622 0.0
C371 C 0.95498 0.49441 0.16777 0.0
C372 C 0.95071 0.49406 0.12146 0.0
C373 C 0.93442 0.49273 0.14549 0.0
C374 C 0.06117 0.56701 0.02973 0.0
C375 C 1.00685 0.50089 0.09456 0.0
H376 H 0.99106 0.45338 0.89393 0.0
H377 H 0.98582 0.54745 0.85894 0.0
H378 H 0.02945 0.55844 0.9351 0.0
H379 H 0.0126 0.58517 0.89835 0.0
H380 H 0.03626 0.4991 0.14061 0.0
H381 H 0.94228 0.4942 0.18624 0.0
H382 H 0.93474 0.49374 0.10452 0.0
H383 H 0.90605 0.49102 0.14684 0.0
Tb384 Tb 0.5395 0.50759 0.04373 0.0
C385 C 0.47758 0.58077 0.96857 0.0
C386 C 0.4068 0.54292 0.97138 0.0
C387 C 0.43791 0.61085 0.96215 0.0
C388 C 0.44427 0.54631 0.97327 0.0
C389 C 0.47494 0.61337 0.96244 0.0
C390 C 0.40383 0.57562 0.96659 0.0
C391 C 0.54509 0.64726 0.95506 0.0
N392 N 0.5127 0.58177 0.969 0.0
C393 C 0.54614 0.61405 0.96113 0.0
C394 C 0.50944 0.6471 0.95608 0.0
Tb395 Tb 0.51166 0.52625 0.98095 0.0
N396 N 0.44855 0.51547 0.97745 0.0
C397 C 0.41633 0.47974 0.9768 0.0
C398 C 0.37357 0.50655 0.97304 0.0
C399 C 0.37841 0.47472 0.97502 0.0
H400 H 0.57393 0.61473 0.96032 0.0
H401 H 0.353 0.44628 0.97516 0.0
H402 H 0.37533 0.57371 0.96539 0.0
H403 H 0.5718 0.67297 0.94958 0.0
H404 H 0.41977 0.45494 0.97764 0.0
H405 H 0.69679 0.60338 0.04802 0.0
H406 H 0.34422 0.50262 0.97162 0.0
H407 H 0.48937 0.42125 0.0697 0.0
H408 H 0.62714 0.58594 0.0474 0.0
H409 H 0.49986 0.36735 0.07978 0.0
H410 H 0.43521 0.63565 0.95774 0.0
H411 H 0.71471 0.55275 0.04983 0.0
H412 H 0.69227 0.48277 0.0554 0.0
H413 H 0.5087 0.67283 0.95127 0.0
H414 H 0.63794 0.41767 0.06435 0.0
N415 N 0.6053 0.52629 0.04658 0.0
C416 C 0.63432 0.56367 0.0474 0.0
C417 C 0.68402 0.54504 0.0492 0.0
C418 C 0.65413 0.50692 0.05097 0.0
C419 C 0.67401 0.57364 0.04819 0.0
C420 C 0.6147 0.49862 0.05001 0.0
H421 H 0.56582 0.37436 0.07412 0.0
N422 N 0.54797 0.4576 0.0566 0.0
C423 C 0.52397 0.39388 0.07258 0.0
C424 C 0.58465 0.4626 0.05514 0.0
C425 C 0.51808 0.42447 0.06672 0.0
C426 C 0.56118 0.3979 0.06929 0.0
C427 C 0.59242 0.43301 0.06118 0.0
O428 O 0.51046 0.49288 0.0795 0.0
O429 O 0.49494 0.51088 0.0209 0.0
O430 O 0.52228 0.57416 1.00494 0.0
O431 O 0.55866 0.56916 0.03855 0.0
O432 O 0.47603 0.47067 0.04899 0.0
O433 O 0.5609 0.54823 0.07327 0.0
O434 O 0.54213 0.53527 0.94618 0.0
O435 O 0.55596 0.522 1.00387 0.0
O436 O 0.52256 0.45682 0.02038 0.0
O437 O 0.48726 0.46443 0.98667 0.0
O438 O 0.57503 0.55752 0.97337 0.0
O439 O 0.48226 0.48993 0.94973 0.0
C440 C 0.46381 0.4845 0.03141 0.0
C441 C 0.55021 0.52369 0.11538 0.0
C442 C 0.5479 0.53001 0.16177 0.0
C443 C 0.53242 0.52878 0.13722 0.0
C444 C 0.58088 0.52526 0.16421 0.0
C445 C 0.58286 0.51859 0.11819 0.0
C446 C 0.598 0.51928 0.14254 0.0
C447 C 0.54415 0.58783 0.02559 0.0
C448 C 0.53517 0.52527 0.08987 0.0
C449 C 0.63131 0.44013 0.06014 0.0
C450 C 0.66223 0.47716 0.05504 0.0
C451 C 0.58732 0.54514 0.99179 0.0
C452 C 0.50406 0.51908 0.90889 0.0
C453 C 0.51788 0.50955 0.88688 0.0
C454 C 0.51506 0.52345 0.86266 0.0
C455 C 0.49788 0.54666 0.86073 0.0
C456 C 0.48597 0.54133 0.90644 0.0
C457 C 0.48298 0.55508 0.88248 0.0
C458 C 0.50006 0.44446 0.99964 0.0
C459 C 0.51194 0.50844 0.93427 0.0
H460 H 0.50714 0.53267 0.13513 0.0
H461 H 0.59335 0.52623 0.18292 0.0
H462 H 0.59687 0.51453 0.1016 0.0
H463 H 0.62335 0.51557 0.14461 0.0
H464 H 0.53168 0.49215 0.88863 0.0
H465 H 0.49565 0.55788 0.84231 0.0
H466 H 0.47465 0.5485 0.92301 0.0
H467 H 0.46939 0.57262 0.88079 0.0
Tb468 Tb 0.159 0.32585 0.32144 0.0
C469 C 0.23985 0.43904 0.4137 0.0
C470 C 0.3004 0.43797 0.41991 0.0
C471 C 0.2932 0.48881 0.43875 0.0
C472 C 0.26167 0.42125 0.41007 0.0
C473 C 0.2562 0.47402 0.42714 0.0
C474 C 0.3152 0.47066 0.43527 0.0
C475 C 0.19941 0.47871 0.41552 0.0
N476 N 0.2045 0.4243 0.40165 0.0
C477 C 0.18385 0.4436 0.40304 0.0
C478 C 0.23554 0.49382 0.42785 0.0
Tb479 Tb 0.17959 0.3627 0.38609 0.0
N480 N 0.24733 0.39136 0.39356 0.0
C481 C 0.27281 0.38024 0.38407 0.0
C482 C 0.32434 0.42333 0.41238 0.0
C483 C 0.31087 0.39517 0.39374 0.0
H484 H 0.15412 0.43152 0.39606 0.0
H485 H 0.33002 0.38525 0.38646 0.0
H486 H 0.34456 0.48342 0.44327 0.0
H487 H 0.18274 0.49341 0.41641 0.0
H488 H 0.26473 0.35998 0.36884 0.0
H489 H 1.00046 0.25654 0.31933 0.0
H490 H 0.35418 0.43541 0.41944 0.0
H491 H 0.21725 0.2968 0.29631 0.0
H492 H 0.06807 0.3109 0.32194 0.0
H493 H 0.21313 0.23583 0.28425 0.0
H494 H 0.30576 0.51512 0.44958 0.0
H495 H 0.98929 0.19119 0.31316 0.0
H496 H 0.01807 0.1487 0.30489 0.0
H497 H 0.24723 0.52079 0.43782 0.0
H498 H 0.07648 0.1429 0.29571 0.0
N499 N 0.09517 0.27698 0.31847 0.0
C500 C 0.06369 0.28269 0.31951 0.0
C501 C 0.01906 0.21504 0.3144 0.0
C502 C 0.05144 0.20971 0.31158 0.0
C503 C 0.02525 0.25186 0.31784 0.0
C504 C 0.08952 0.24175 0.31347 0.0
H505 H 0.14958 0.17542 0.28767 0.0
N506 N 0.15772 0.27069 0.30892 0.0
C507 C 0.18736 0.23603 0.29145 0.0
C508 C 0.12208 0.23841 0.3086 0.0
C509 C 0.18969 0.27045 0.29848 0.0
C510 C 0.15146 0.202 0.29343 0.0
C511 C 0.11794 0.20306 0.30131 0.0
O512 O 0.19132 0.34566 0.28717 0.0
O513 O 0.19673 0.37529 0.34572 0.0
O514 O 0.15396 0.3926 0.36475 0.0
O515 O 0.13551 0.36494 0.32415 0.0
O516 O 0.22303 0.35855 0.31976 0.0
O517 O 0.1317 0.33303 0.28847 0.0
O518 O 0.14092 0.36476 0.41378 0.0
O519 O 0.13419 0.32378 0.35893 0.0
O520 O 0.17852 0.29167 0.3435 0.0
O521 O 0.20111 0.32224 0.38311 0.0
O522 O 0.13548 0.30417 0.39452 0.0
O523 O 0.17795 0.34097 0.42281 0.0
C524 C 0.23015 0.38536 0.33578 0.0
C525 C 0.15685 0.32784 0.24806 0.0
C526 C 0.16482 0.33753 0.20152 0.0
C527 C 0.16591 0.3518 0.22638 0.0
C528 C 0.15446 0.29903 0.1988 0.0
C529 C 0.14507 0.28924 0.24459 0.0
C530 C 0.14413 0.27503 0.22013 0.0
C531 C 0.13805 0.38952 0.34176 0.0
C532 C 0.16249 0.34412 0.27406 0.0
C533 C 0.0803 0.17047 0.30092 0.0
C534 C 0.04705 0.17379 0.30608 0.0
C535 C 0.11708 0.29444 0.37337 0.0
C536 C 0.15626 0.36117 0.45837 0.0
C537 C 0.14335 0.33384 0.47836 0.0
C538 C 0.15286 0.34537 0.50418 0.0
C539 C 0.17559 0.38457 0.50956 0.0
C540 C 0.17644 0.39994 0.46473 0.0
C541 C 0.18649 0.41157 0.49004 0.0
C542 C 0.19614 0.29614 0.36596 0.0
C543 C 0.1512 0.34825 0.43134 0.0
H544 H 0.17441 0.38155 0.22884 0.0
H545 H 0.1537 0.28738 0.18 0.0
H546 H 0.13699 0.2701 0.26071 0.0
H547 H 0.13553 0.24529 0.21772 0.0
H548 H 0.12657 0.3037 0.47382 0.0
H549 H 0.18391 0.39434 0.52908 0.0
H550 H 0.18478 0.42138 0.45032 0.0
H551 H 0.20289 0.44169 0.49454 0.0
Tb552 Tb 0.70189 0.83589 0.31627 0.0
C553 C 0.55972 0.76603 0.38664 0.0
C554 C 0.53376 0.80887 0.38387 0.0
C555 C 0.48932 0.74107 0.39063 0.0
C556 C 0.56565 0.80204 0.38269 0.0
C557 C 0.52174 0.73525 0.39173 0.0
C558 C 0.49535 0.77795 0.38676 0.0
C559 C 0.5517 0.69784 0.40362 0.0
N560 N 0.59204 0.76225 0.38854 0.0
C561 C 0.58875 0.7296 0.39886 0.0
C562 C 0.51791 0.70037 0.3994 0.0
Tb563 Tb 0.65169 0.81473 0.37834 0.0
N564 N 0.60327 0.83096 0.38048 0.0
C565 C 0.6112 0.86782 0.38225 0.0
C566 C 0.5417 0.84664 0.38348 0.0
C567 C 0.58071 0.87629 0.38329 0.0
H568 H 0.6147 0.72776 0.40299 0.0
H569 H 0.58737 0.90567 0.38394 0.0
H570 H 0.47037 0.78249 0.3872 0.0
H571 H 0.54926 0.67162 0.41083 0.0
H572 H 0.641 0.89077 0.3827 0.0
H573 H 0.78012 0.75772 0.31043 0.0
H574 H 0.51811 0.8532 0.38434 0.0
H575 H 0.73024 0.92432 0.29602 0.0
H576 H 0.7217 0.76551 0.31259 0.0
H577 H 0.7923 0.98339 0.2865 0.0
H578 H 0.45979 0.71769 0.39408 0.0
H579 H 0.84669 0.81462 0.30868 0.0
H580 H 0.8883 0.88602 0.30394 0.0
H581 H 0.48927 0.67597 0.4035 0.0
H582 H 0.89156 0.94779 0.2967 0.0
N583 N 0.75462 0.82605 0.31357 0.0
C584 C 0.75054 0.79054 0.31233 0.0
C585 C 0.82112 0.81816 0.30982 0.0
C586 C 0.82493 0.8544 0.30871 0.0
C587 C 0.78362 0.78602 0.31078 0.0
C588 C 0.7906 0.85727 0.31015 0.0
H589 H 0.8557 0.98427 0.28956 0.0
N590 N 0.75804 0.89203 0.30539 0.0
C591 C 0.79277 0.9578 0.29204 0.0
C592 C 0.79242 0.89161 0.30565 0.0
C593 C 0.75758 0.92415 0.29739 0.0
C594 C 0.82852 0.95823 0.29385 0.0
C595 C 0.8286 0.92463 0.30021 0.0
O596 O 0.6834 0.84575 0.2807 0.0
O597 O 0.65405 0.83275 0.33907 0.0
O598 O 0.61658 0.7656 0.35345 0.0
O599 O 0.66188 0.77355 0.32123 0.0
O600 O 0.66929 0.86543 0.30707 0.0
O601 O 0.6938 0.79868 0.28567 0.0
O602 O 0.66958 0.80119 0.41294 0.0
O603 O 0.7009 0.81976 0.35616 0.0
O604 O 0.7385 0.88409 0.34085 0.0
O605 O 0.69686 0.8768 0.37512 0.0
O606 O 0.67811 0.77851 0.38358 0.0
O607 O 0.66092 0.84941 0.41071 0.0
C608 C 0.6453 0.85417 0.32601 0.0
C609 C 0.70513 0.82731 0.24453 0.0
C610 C 0.69995 0.82564 0.19795 0.0
C611 C 0.68258 0.81291 0.22221 0.0
C612 C 0.7404 0.85216 0.1963 0.0
C613 C 0.74563 0.85294 0.2425 0.0
C614 C 0.76316 0.86522 0.21848 0.0
C615 C 0.62752 0.75333 0.33319 0.0
C616 C 0.6852 0.81799 0.2695 0.0
C617 C 0.86335 0.92265 0.30054 0.0
C618 C 0.86151 0.88752 0.30475 0.0
C619 C 0.70524 0.79353 0.36647 0.0
C620 C 0.64844 0.81701 0.45051 0.0
C621 C 0.6706 0.82653 0.47319 0.0
C622 C 0.65199 0.81213 0.49696 0.0
C623 C 0.61092 0.78825 0.49773 0.0
C624 C 0.60735 0.79446 0.45183 0.0
C625 C 0.58875 0.78002 0.47531 0.0
C626 C 0.73046 0.89667 0.362 0.0
C627 C 0.66884 0.82834 0.42565 0.0
H628 H 0.65126 0.79292 0.22369 0.0
H629 H 0.75432 0.86259 0.17783 0.0
H630 H 0.76357 0.86399 0.25936 0.0
H631 H 0.79436 0.8854 0.21707 0.0
H632 H 0.70234 0.84441 0.47233 0.0
H633 H 0.59602 0.77654 0.51577 0.0
H634 H 0.58966 0.78761 0.43477 0.0
H635 H 0.55707 0.76216 0.47611 0.0
Tb636 Tb 0.20388 0.84656 0.3799 0.0
C637 C 0.13378 0.90563 0.30036 0.0
C638 C 0.06393 0.86281 0.30445 0.0
C639 C 0.08844 0.92904 0.29252 0.0
C640 C 0.103 0.87027 0.3064 0.0
C641 C 0.12698 0.93515 0.29233 0.0
C642 C 0.05686 0.8928 0.29857 0.0
C643 C 0.19543 0.97156 0.28026 0.0
N644 N 0.17016 0.90974 0.29978 0.0
C645 C 0.20033 0.94106 0.2881 0.0
C646 C 0.15875 0.96898 0.28297 0.0
Tb647 Tb 0.17691 0.86012 0.31548 0.0
N648 N 0.11135 0.84218 0.31144 0.0
C649 C 0.08155 0.80496 0.31144 0.0
C650 C 0.0333 0.82514 0.30699 0.0
C651 C 0.04222 0.79596 0.30976 0.0
H652 H 0.22853 0.94295 0.28546 0.0
H653 H 0.01883 0.76651 0.31067 0.0
H654 H 0.02708 0.88784 0.29746 0.0
H655 H 0.21984 0.99688 0.27196 0.0
H656 H 0.08758 0.78184 0.31319 0.0
H657 H 0.36212 0.93942 0.38396 0.0
H658 H 1.00285 0.81812 0.30562 0.0
H659 H 0.15292 0.76457 0.4111 0.0
H660 H 0.29342 0.92445 0.38189 0.0
H661 H 0.16146 0.71045 0.42437 0.0
H662 H 0.08258 0.95152 0.28682 0.0
H663 H 0.37781 0.88748 0.38795 0.0
H664 H 0.35331 0.81762 0.3958 0.0
H665 H 0.15484 0.9924 0.27659 0.0
H666 H 0.29781 0.75424 0.40708 0.0
N667 N 0.26941 0.86407 0.38336 0.0
C668 C 0.29933 0.90123 0.38343 0.0
C669 C 0.34739 0.88064 0.38693 0.0
C670 C 0.31666 0.84302 0.38947 0.0
C671 C 0.33863 0.91 0.38479 0.0
C672 C 0.27764 0.83583 0.38804 0.0
H673 H 0.22588 0.71409 0.41853 0.0
N674 N 0.21073 0.79702 0.39576 0.0
C675 C 0.18568 0.73547 0.41565 0.0
C676 C 0.24689 0.80069 0.39449 0.0
C677 C 0.18087 0.76609 0.40795 0.0
C678 C 0.22202 0.73758 0.41225 0.0
C679 C 0.25363 0.77107 0.40236 0.0
O680 O 0.17525 0.83626 0.41576 0.0
O681 O 0.16077 0.85078 0.3557 0.0
O682 O 0.1934 0.91301 0.33606 0.0
O683 O 0.22757 0.90772 0.37125 0.0
O684 O 0.14002 0.81442 0.38614 0.0
O685 O 0.22787 0.88931 0.40799 0.0
O686 O 0.20732 0.87118 0.28031 0.0
O687 O 0.21986 0.85535 0.33955 0.0
O688 O 0.18566 0.79282 0.35984 0.0
O689 O 0.15327 0.79892 0.32387 0.0
O690 O 0.24076 0.89308 0.30982 0.0
O691 O 0.15326 0.81868 0.28651 0.0
C692 C 0.12918 0.82783 0.36749 0.0
C693 C 0.21719 0.86748 0.4508 0.0
C694 C 0.21469 0.87361 0.49723 0.0
C695 C 0.1988 0.87164 0.4727 0.0
C696 C 0.24877 0.87066 0.49959 0.0
C697 C 0.25087 0.86405 0.45362 0.0
C698 C 0.26648 0.86557 0.47792 0.0
C699 C 0.21568 0.92702 0.35672 0.0
C700 C 0.20195 0.86856 0.42522 0.0
C701 C 0.29201 0.77681 0.40152 0.0
C702 C 0.32359 0.81287 0.39508 0.0
C703 C 0.25153 0.87904 0.32813 0.0
C704 C 0.16654 0.84359 0.24436 0.0
C705 C 0.18819 0.84469 0.22261 0.0
C706 C 0.17416 0.84525 0.19786 0.0
C707 C 0.13887 0.84593 0.19517 0.0
C708 C 0.1316 0.84477 0.24128 0.0
C709 C 0.118 0.84609 0.21679 0.0
C710 C 0.16374 0.77905 0.339 0.0
C711 C 0.18018 0.83993 0.26994 0.0
H712 H 0.17267 0.87417 0.47066 0.0
H713 H 0.26156 0.8722 0.51827 0.0
H714 H 0.26542 0.86072 0.43707 0.0
H715 H 0.29262 0.86317 0.47994 0.0
H716 H 0.21528 0.84395 0.22486 0.0
H717 H 0.12746 0.84622 0.17631 0.0
H718 H 0.11455 0.84415 0.25772 0.0
H719 H 0.0909 0.84673 0.21454 0.0
Tb720 Tb 0.8144 0.65114 0.64808 0.0
C721 C 0.88326 0.77636 0.72834 0.0
C722 C 0.95308 0.8007 0.72483 0.0
C723 C 0.92888 0.84352 0.73627 0.0
C724 C 0.91393 0.77055 0.72266 0.0
C725 C 0.89021 0.81251 0.73621 0.0
C726 C 0.96037 0.8376 0.73058 0.0
C727 C 0.82145 0.78309 0.74739 0.0
N728 N 0.84672 0.74542 0.72865 0.0
C729 C 0.81637 0.74778 0.73972 0.0
C730 C 0.8584 0.81583 0.74507 0.0
Tb731 Tb 0.83978 0.68926 0.71304 0.0
N732 N 0.90534 0.73433 0.71774 0.0
C733 C 0.93486 0.7256 0.71817 0.0
C734 C 0.9835 0.79238 0.72262 0.0
C735 C 0.97428 0.75447 0.72004 0.0
H736 H 0.78788 0.72251 0.74195 0.0
H737 H 0.99748 0.7474 0.71944 0.0
H738 H 0.99021 0.86131 0.73187 0.0
H739 H 0.79695 0.78497 0.75523 0.0
H740 H 0.92855 0.69655 0.71662 0.0
H741 H 0.6564 0.5917 0.64309 0.0
H742 H 0.014 0.81466 0.72416 0.0
H743 H 0.86653 0.61922 0.61803 0.0
H744 H 0.72515 0.64284 0.6462 0.0
H745 H 0.85791 0.55742 0.60359 0.0
H746 H 0.93488 0.87171 0.74185 0.0
H747 H 0.64043 0.52479 0.63725 0.0
H748 H 0.66473 0.47888 0.62815 0.0
H749 H 0.86243 0.84308 0.7513 0.0
H750 H 0.72033 0.46941 0.61708 0.0
N751 N 0.74889 0.60559 0.64371 0.0
C752 C 0.71912 0.61396 0.64396 0.0
C753 C 0.67087 0.5472 0.6388 0.0
C754 C 0.70151 0.5393 0.63597 0.0
C755 C 0.67979 0.58492 0.64199 0.0
C756 C 0.74056 0.56963 0.63813 0.0
H757 H 0.79273 0.49887 0.60721 0.0
N758 N 0.80775 0.5955 0.63165 0.0
C759 C 0.83335 0.55882 0.61181 0.0
C760 C 0.77138 0.56435 0.63185 0.0
C761 C 0.83817 0.59376 0.62014 0.0
C762 C 0.79657 0.52583 0.61395 0.0
C763 C 0.76467 0.52855 0.62334 0.0
O764 O 0.84444 0.67005 0.61272 0.0
O765 O 0.85699 0.69615 0.67296 0.0
O766 O 0.82408 0.72682 0.6921 0.0
O767 O 0.79094 0.68948 0.65642 0.0
O768 O 0.87814 0.67978 0.6428 0.0
O769 O 0.79168 0.672 0.61983 0.0
O770 O 0.80927 0.67146 0.74836 0.0
O771 O 0.79754 0.64372 0.68831 0.0
O772 O 0.83212 0.61457 0.66827 0.0
O773 O 0.863 0.65065 0.70496 0.0
O774 O 0.77585 0.66094 0.71758 0.0
O775 O 0.86144 0.66826 0.74193 0.0
C776 C 0.88867 0.70319 0.66162 0.0
C777 C 0.80417 0.66275 0.57698 0.0
C778 C 0.80756 0.67385 0.5307 0.0
C779 C 0.82251 0.68631 0.55555 0.0
C780 C 0.77451 0.63737 0.52758 0.0
C781 C 0.77148 0.62628 0.57335 0.0
C782 C 0.75683 0.6137 0.54876 0.0
C783 C 0.80261 0.71998 0.67108 0.0
C784 C 0.81833 0.6772 0.60299 0.0
C785 C 0.72613 0.49733 0.62319 0.0
C786 C 0.6945 0.50271 0.62951 0.0
C787 C 0.76563 0.63693 0.69912 0.0
C788 C 0.84909 0.67911 0.78452 0.0
C789 C 0.82984 0.65692 0.80638 0.0
C790 C 0.84501 0.67015 0.83114 0.0
C791 C 0.8792 0.70598 0.83367 0.0
C792 C 0.88285 0.71499 0.78767 0.0
C793 C 0.89773 0.72828 0.8121 0.0
C794 C 0.85269 0.62097 0.68967 0.0
C795 C 0.83485 0.66396 0.75857 0.0
H796 H 0.84785 0.71449 0.5582 0.0
H797 H 0.76247 0.62721 0.50867 0.0
H798 H 0.75696 0.60773 0.58951 0.0
H799 H 0.73146 0.58562 0.54613 0.0
H800 H 0.80362 0.62925 0.80414 0.0
H801 H 0.89147 0.71674 0.85244 0.0
H802 H 0.89807 0.73254 0.77125 0.0
H803 H 0.92394 0.75589 0.81433 0.0
Tb804 Tb 0.36511 0.16222 0.65001 0.0
C805 C 0.23158 0.1117 0.72463 0.0
C806 C 0.2113 0.15893 0.72206 0.0
C807 C 0.16265 0.09245 0.72997 0.0
C808 C 0.24067 0.14867 0.72003 0.0
C809 C 0.19276 0.08324 0.73037 0.0
C810 C 0.17195 0.13036 0.72589 0.0
C811 C 0.21749 0.04056 0.73997 0.0
N812 N 0.2618 0.10443 0.72535 0.0
C813 C 0.25561 0.06999 0.73442 0.0
C814 C 0.18579 0.04697 0.73745 0.0
Tb815 Tb 0.3228 0.15323 0.71286 0.0
N816 N 0.27919 0.17529 0.71714 0.0
C817 C 0.29071 0.21303 0.71984 0.0
C818 C 0.22279 0.19767 0.72219 0.0
C819 C 0.26278 0.22481 0.72207 0.0
H820 H 0.27988 0.06475 0.73647 0.0
H821 H 0.27218 0.25487 0.72351 0.0
H822 H 0.14884 0.13756 0.72702 0.0
H823 H 0.21261 0.01298 0.74624 0.0
H824 H 0.32149 0.23437 0.7202 0.0
H825 H 0.40935 0.05545 0.64256 0.0
H826 H 0.20125 0.20686 0.72388 0.0
H827 H 0.41098 0.24906 0.62396 0.0
H828 H 0.36238 0.0787 0.64584 0.0
H829 H 0.47917 0.29861 0.61379 0.0
H830 H 0.13247 0.07091 0.73398 0.0
H831 H 0.48087 0.10122 0.64145 0.0
H832 H 0.53544 0.16952 0.63765 0.0
H833 H 0.15635 0.02423 0.74199 0.0
H834 H 0.55467 0.23664 0.6293 0.0
N835 N 0.40655 0.13746 0.64718 0.0
C836 C 0.3934 0.09924 0.64546 0.0
C837 C 0.46035 0.1117 0.64286 0.0
C838 C 0.47349 0.1508 0.64241 0.0
C839 C 0.42001 0.08581 0.64338 0.0
C840 C 0.44539 0.16276 0.64397 0.0
H841 H 0.53361 0.28496 0.61953 0.0
N842 N 0.42686 0.20856 0.63693 0.0
C843 C 0.47313 0.27105 0.62095 0.0
C844 C 0.456 0.19991 0.63854 0.0
C845 C 0.43452 0.24291 0.62674 0.0
C846 C 0.50379 0.2633 0.62432 0.0
C847 C 0.49526 0.22695 0.63248 0.0
O848 O 0.35537 0.17809 0.61337 0.0
O849 O 0.31987 0.16443 0.67258 0.0
O850 O 0.27892 0.10659 0.68968 0.0
O851 O 0.31868 0.10202 0.65855 0.0
O852 O 0.34254 0.20165 0.64331 0.0
O853 O 0.34089 0.12031 0.62133 0.0
O854 O 0.33674 0.13742 0.74814 0.0
O855 O 0.36903 0.15258 0.69036 0.0
O856 O 0.40797 0.21091 0.67227 0.0
O857 O 0.36781 0.21402 0.70405 0.0
O858 O 0.34535 0.11356 0.71853 0.0
O859 O 0.34257 0.1927 0.74332 0.0
C860 C 0.31683 0.1907 0.66131 0.0
C861 C 0.36154 0.14325 0.57929 0.0
C862 C 0.35754 0.13776 0.53273 0.0
C863 C 0.34196 0.14097 0.55626 0.0
C864 C 0.39323 0.13757 0.53242 0.0
C865 C 0.39736 0.14338 0.57859 0.0
C866 C 0.41312 0.14063 0.55526 0.0
C867 C 0.28464 0.08791 0.67112 0.0
C868 C 0.34366 0.14447 0.60378 0.0
C869 C 0.5242 0.21619 0.63353 0.0
C870 C 0.51327 0.17802 0.63838 0.0
C871 C 0.37225 0.1262 0.70125 0.0
C872 C 0.32394 0.16372 0.78431 0.0
C873 C 0.34414 0.1672 0.80736 0.0
C874 C 0.32415 0.1594 0.83098 0.0
C875 C 0.28399 0.14813 0.83127 0.0
C876 C 0.28408 0.15333 0.78518 0.0
C877 C 0.26422 0.14544 0.8085 0.0
C878 C 0.40119 0.22945 0.69048 0.0
C879 C 0.34385 0.16877 0.75949 0.0
H880 H 0.3143 0.14093 0.55663 0.0
H881 H 0.4056 0.13501 0.51449 0.0
H882 H 0.41301 0.14522 0.59599 0.0
H883 H 0.44067 0.14055 0.5549 0.0
H884 H 0.37502 0.17548 0.80696 0.0
H885 H 0.2681 0.14193 0.84924 0.0
H886 H 0.26818 0.15105 0.76788 0.0
H887 H 0.23338 0.13715 0.80891 0.0
Tb888 Tb 0.86679 0.17214 0.7132 0.0
C889 C 0.81226 0.24768 0.63466 0.0
C890 C 0.74129 0.2124 0.63668 0.0
C891 C 0.77532 0.28016 0.62654 0.0
C892 C 0.7779 0.21411 0.63937 0.0
C893 C 0.81151 0.28098 0.62764 0.0
C894 C 0.7402 0.24587 0.63104 0.0
C895 C 0.88174 0.3121 0.62103 0.0
N896 N 0.84654 0.24707 0.63595 0.0
C897 C 0.88095 0.27827 0.62799 0.0
C898 C 0.84698 0.31366 0.62124 0.0
Tb899 Tb 0.84227 0.19058 0.64929 0.0
N900 N 0.78036 0.18244 0.64441 0.0
C901 C 0.74715 0.14741 0.64381 0.0
C902 C 0.707 0.17682 0.63845 0.0
C903 C 0.71002 0.14405 0.64127 0.0
H904 H 0.90812 0.2777 0.62779 0.0
H905 H 0.6838 0.11616 0.64144 0.0
H906 H 0.71238 0.24525 0.62921 0.0
H907 H 0.90919 0.33695 0.61549 0.0
H908 H 0.74921 0.12188 0.64508 0.0
H909 H 0.02459 0.26474 0.71821 0.0
H910 H 0.67825 0.17417 0.63642 0.0
H911 H 0.81532 0.08716 0.74106 0.0
H912 H 0.95548 0.24909 0.71715 0.0
H913 H 0.82387 0.03219 0.75156 0.0
H914 H 0.77408 0.30555 0.62145 0.0
H915 H 0.04065 0.21283 0.71992 0.0
H916 H 0.01633 0.14245 0.72537 0.0
H917 H 0.84769 0.33987 0.61574 0.0
H918 H 0.96081 0.07815 0.73472 0.0
N919 N 0.93214 0.1892 0.71628 0.0
C920 C 0.96186 0.22628 0.71723 0.0
C921 C 0.01019 0.2059 0.71916 0.0
C922 C 0.97957 0.16809 0.72078 0.0
C923 C 1.00123 0.23523 0.71824 0.0
C924 C 0.94051 0.16084 0.71974 0.0
H925 H 0.88866 0.03678 0.74525 0.0
N926 N 0.87365 0.12151 0.72691 0.0
C927 C 0.84827 0.05808 0.74385 0.0
C928 C 0.9098 0.12529 0.72517 0.0
C929 C 0.84347 0.08924 0.73774 0.0
C930 C 0.88482 0.06073 0.74018 0.0
C931 C 0.91654 0.09512 0.73151 0.0
O932 O 0.83854 0.15843 0.74928 0.0
O933 O 0.8243 0.17724 0.6893 0.0
O934 O 0.85462 0.24005 0.67218 0.0
O935 O 0.88794 0.23406 0.70732 0.0
O936 O 0.80303 0.13853 0.71834 0.0
O937 O 0.88831 0.21381 0.74209 0.0
O938 O 0.87473 0.19628 0.61581 0.0
O939 O 0.88391 0.18336 0.67321 0.0
O940 O 0.84596 0.11933 0.6913 0.0
O941 O 0.81423 0.1285 0.65601 0.0
O942 O 0.90588 0.22073 0.64365 0.0
O943 O 0.81308 0.15585 0.61732 0.0
C944 C 0.79233 0.15258 0.7 0.0
C945 C 0.87933 0.19077 0.78456 0.0
C946 C 0.87829 0.19779 0.83103 0.0
C947 C 0.86157 0.19526 0.80669 0.0
C948 C 0.91252 0.19502 0.83293 0.0
C949 C 0.91317 0.18753 0.78694 0.0
C950 C 0.92959 0.1896 0.81103 0.0
C951 C 0.87522 0.25342 0.69336 0.0
C952 C 0.86326 0.19124 0.75914 0.0
C953 C 0.955 0.10108 0.73031 0.0
C954 C 0.98659 0.13765 0.72497 0.0
C955 C 0.91611 0.20647 0.66207 0.0
C956 C 0.84054 0.18483 0.5771 0.0
C957 C 0.85555 0.17533 0.55557 0.0
C958 C 0.85643 0.19138 0.53134 0.0
C959 C 0.84221 0.21702 0.52903 0.0
C960 C 0.82508 0.20925 0.57401 0.0
C961 C 0.82616 0.22542 0.55016 0.0
C962 C 0.82365 0.10713 0.67046 0.0
C963 C 0.8443 0.17186 0.60288 0.0
H964 H 0.8353 0.1976 0.80498 0.0
H965 H 0.92596 0.19696 0.85142 0.0
H966 H 0.92717 0.1839 0.77019 0.0
H967 H 0.95586 0.18734 0.81273 0.0
H968 H 0.8671 0.15608 0.55771 0.0
H969 H 0.84288 0.22998 0.51069 0.0
H970 H 0.81257 0.2162 0.59002 0.0
H971 H 0.81465 0.24467 0.54808 0.0
C972 C 0.32648 0.9136 0.04674 0.0
C973 C 0.3223 0.87788 0.0533 0.0
C974 C 0.39108 0.90209 0.04072 0.0
C975 C 0.39741 0.94009 0.03833 0.0
N976 N 0.36983 0.98133 0.04684 0.0
N977 N 0.35259 0.83946 0.06013 0.0
C978 C 0.3647 0.94564 0.04341 0.0
C979 C 0.35501 0.87232 0.05103 0.0
N980 N 0.29382 0.91714 0.04392 0.0
N981 N 0.4193 0.89398 0.03354 0.0
H982 H 0.32692 0.817 0.06785 0.0
H983 H 0.37693 0.83579 0.06212 0.0
H984 H 0.44589 0.91463 0.02653 0.0
H985 H 0.41469 0.86636 0.03195 0.0
H986 H 0.29505 0.9418 0.0367 0.0
H987 H 0.26533 0.8941 0.0461 0.0
H988 H 0.34735 0.98598 0.05312 0.0
H989 H 0.39692 0.00623 0.04636 0.0
C990 C 0.1532 0.49023 0.05643 0.0
C991 C 0.14887 0.45329 0.05706 0.0
C992 C 0.08008 0.42577 0.04296 0.0
C993 C 0.0846 0.46298 0.04108 0.0
N994 N 0.12858 0.53119 0.0422 0.0
N995 N 0.11141 0.38702 0.04557 0.0
C996 C 0.12217 0.49536 0.04654 0.0
C997 C 0.11321 0.42141 0.04873 0.0
N998 N 0.18629 0.52031 0.06657 0.0
N999 N 0.04389 0.39431 0.03911 0.0
H1000 H 0.13522 0.383 0.04933 0.0
H1001 H 0.08785 0.36354 0.03696 0.0
H1002 H 0.01974 0.39586 0.03226 0.0
H1003 H 0.03735 0.36666 0.04364 0.0
H1004 H 0.18925 0.54698 0.06995 0.0
H1005 H 0.20992 0.51794 0.0735 0.0
H1006 H 0.15619 0.55569 0.04273 0.0
H1007 H 0.10685 0.53607 0.03535 0.0
C1008 C 0.60081 0.69295 0.04617 0.0
C1009 C 0.56975 0.69797 0.05533 0.0
C1010 C 0.52186 0.63433 0.03972 0.0
C1011 C 0.55299 0.62659 0.03454 0.0
N1012 N 0.62283 0.64965 0.03304 0.0
N1013 N 0.50075 0.6717 0.0642 0.0
C1014 C 0.59266 0.65622 0.038 0.0
C1015 C 0.53029 0.66829 0.0529 0.0
N1016 N 0.63792 0.72378 0.04418 0.0
N1017 N 0.48425 0.61001 0.03186 0.0
H1018 H 0.50563 0.69607 0.07406 0.0
H1019 H 0.47198 0.64908 0.06577 0.0
H1020 H 0.47516 0.58388 0.02322 0.0
H1021 H 0.46221 0.61725 0.03216 0.0
H1022 H 0.6447 0.75133 0.04925 0.0
H1023 H 0.66114 0.72294 0.03516 0.0
H1024 H 0.6518 0.66783 0.03866 0.0
H1025 H 0.61841 0.62504 0.0241 0.0
C1026 C 0.86188 0.33481 0.98254 0.0
C1027 C 0.8743 0.30851 0.97586 0.0
C1028 C 0.94229 0.36074 0.97797 0.0
C1029 C 0.93101 0.38497 0.99073 0.0
N1030 N 0.875 0.39138 1.00514 0.0
N1031 N 0.92811 0.29574 0.97365 0.0
C1032 C 0.88938 0.37077 0.99341 0.0
C1033 C 0.91505 0.32115 0.97606 0.0
N1034 N 0.82465 0.32716 0.97665 0.0
N1035 N 0.97665 0.37533 0.96464 0.0
H1036 H 0.90897 0.26631 0.97289 0.0
H1037 H 0.95785 0.30403 0.97517 0.0
H1038 H 0.99209 0.40376 0.95891 0.0
H1039 H 0.98488 0.3581 0.95464 0.0
H1040 H 0.81559 0.34729 0.97839 0.0
H1041 H 0.80417 0.30256 0.96717 0.0
H1042 H 0.84577 0.37907 0.01108 0.0
H1043 H 0.89114 0.42019 0.00915 0.0
C1044 C 0.70009 0.59299 0.98365 0.0
C1045 C 0.70511 0.56166 0.97757 0.0
C1046 C 0.63505 0.51834 0.98741 0.0
C1047 C 0.6285 0.55001 0.99027 0.0
N1048 N 0.65621 0.61836 0.98386 0.0
N1049 N 0.67636 0.4942 0.97082 0.0
C1050 C 0.66148 0.58757 0.98645 0.0
C1051 C 0.67241 0.52422 0.97901 0.0
N1052 N 0.73245 0.62827 0.98678 0.0
N1053 N 0.60549 0.4823 0.99207 0.0
H1054 H 0.70315 0.49713 0.965 0.0
H1055 H 0.65271 0.46683 0.96792 0.0
H1056 H 0.57757 0.47667 0.99615 0.0
H1057 H 0.60937 0.45873 0.99393 0.0
H1058 H 0.73088 0.65152 0.99392 0.0
H1059 H 0.76109 0.63317 0.98487 0.0
H1060 H 0.67861 0.64523 0.97817 0.0
H1061 H 0.62902 0.61679 0.98476 0.0
C1062 C 0.42564 0.10994 0.9828 0.0
C1063 C 0.45646 0.14407 0.97216 0.0
C1064 C 0.50449 0.12841 0.99019 0.0
C1065 C 0.47363 0.09077 0.99627 0.0
N1066 N 0.40374 0.04621 0.99804 0.0
N1067 N 0.52542 0.18299 0.96217 0.0
C1068 C 0.43391 0.08171 0.99233 0.0
C1069 C 0.49596 0.15265 0.97499 0.0
N1070 N 0.3887 0.10517 0.98497 0.0
N1071 N 0.54185 0.14188 0.99907 0.0
H1072 H 0.5204 0.20086 0.95024 0.0
H1073 H 0.55416 0.18796 0.96133 0.0
H1074 H 0.55084 0.12597 0.00978 0.0
H1075 H 0.56354 0.17052 0.99761 0.0
H1076 H 0.36596 0.08271 0.99504 0.0
H1077 H 0.38169 0.12573 0.97907 0.0
H1078 H 0.37481 0.03608 0.99218 0.0
H1079 H 0.40818 0.02637 0.00776 0.0
C1080 C 0.63941 0.13411 0.97565 0.0
C1081 C 0.67421 0.13221 0.97882 0.0
C1082 C 0.63522 0.06802 0.99766 0.0
C1083 C 0.59999 0.0696 0.99392 0.0
N1084 N 0.56934 0.09863 0.96957 0.0
N1085 N 0.70669 0.09983 0.99595 0.0
C1086 C 0.60222 0.10139 0.98061 0.0
C1087 C 0.67256 0.09996 0.99089 0.0
N1088 N 0.64187 0.16762 0.96806 0.0
N1089 N 0.63263 0.03481 1.00612 0.0
H1090 H 0.73422 0.12147 0.98999 0.0
H1091 H 0.70831 0.07962 1.00749 0.0
H1092 H 0.6064 0.01182 0.01261 0.0
H1093 H 0.6558 0.02924 1.00593 0.0
H1094 H 0.61772 0.1718 0.96785 0.0
H1095 H 0.66868 0.19238 0.96455 0.0
H1096 H 0.57026 0.11863 0.95652 0.0
H1097 H 0.54152 0.07478 0.97142 0.0
C1098 C 0.92241 0.57259 0.9891 0.0
C1099 C 0.88626 0.54126 0.98086 0.0
C1100 C 0.91507 0.49976 0.98384 0.0
C1101 C 0.95041 0.52982 0.99449 0.0
N1102 N 0.98541 0.59465 0.00987 0.0
N1103 N 0.84535 0.47334 0.97655 0.0
C1104 C 0.95335 0.56625 0.9978 0.0
C1105 C 0.88174 0.50437 0.98042 0.0
N1106 N 0.92789 0.60867 0.98752 0.0
N1107 N 0.91413 0.46809 0.9743 0.0
H1108 H 0.82022 0.47567 0.97405 0.0
H1109 H 0.83974 0.44538 0.9785 0.0
H1110 H 0.93732 0.46303 0.97625 0.0
H1111 H 0.89119 0.44809 0.96299 0.0
H1112 H 0.95503 0.63327 0.99005 0.0
H1113 H 0.90563 0.61416 0.98201 0.0
H1114 H 0.98811 0.62069 0.01501 0.0
H1115 H 1.00723 0.59024 0.01757 0.0
C1116 C 0.50711 0.37256 0.95638 0.0
C1117 C 0.477 0.3376 0.96659 0.0
C1118 C 0.46495 0.37245 1.00051 0.0
C1119 C 0.49193 0.40747 0.98854 0.0
N1120 N 0.53474 0.44075 0.9527 0.0
N1121 N 0.42207 0.30429 0.99553 0.0
C1122 C 0.51173 0.40747 0.96572 0.0
C1123 C 0.45468 0.33743 0.98806 0.0
N1124 N 0.53261 0.37252 0.93852 0.0
N1125 N 0.44879 0.37253 0.02364 0.0
H1126 H 0.41249 0.27829 0.98633 0.0
H1127 H 0.40225 0.30318 0.00924 0.0
H1128 H 0.45372 0.39751 0.03253 0.0
H1129 H 0.43278 0.3481 0.03477 0.0
H1130 H 0.55783 0.39717 0.93248 0.0
H1131 H 0.53095 0.34757 0.93165 0.0
H1132 H 0.54558 0.44172 0.93433 0.0
H1133 H 0.54096 0.46737 0.95942 0.0
C1134 C 0.14246 0.64629 0.06938 0.0
C1135 C 0.14621 0.67951 0.0574 0.0
C1136 C 0.09751 0.63924 0.02526 0.0
C1137 C 0.08985 0.60596 0.03929 0.0
N1138 N 0.10225 0.57853 0.07702 0.0
N1139 N 0.12122 0.70712 0.02684 0.0
C1140 C 0.11133 0.60974 0.06212 0.0
C1141 C 0.12237 0.67597 0.03597 0.0
N1142 N 0.16989 0.64949 0.08691 0.0
N1143 N 0.08103 0.63608 1.00173 0.0
H1144 H 0.1375 0.73426 0.03473 0.0
H1145 H 0.10107 0.70535 0.01312 0.0
H1146 H 0.06093 0.61001 0.99378 0.0
H1147 H 0.08949 0.65919 0.98937 0.0
H1148 H 0.17114 0.62613 0.09425 0.0
H1149 H 0.1941 0.6756 0.09203 0.0
H1150 H 0.11343 0.58047 0.09542 0.0
H1151 H 0.08164 0.55076 0.07188 0.0
C1152 C 0.35233 0.44412 0.03911 0.0
C1153 C 0.35159 0.47408 0.05272 0.0
C1154 C 0.42384 0.51175 0.05072 0.0
C1155 C 0.42512 0.48303 0.03575 0.0
N1156 N 0.39085 0.41776 0.02126 0.0
N1157 N 0.38569 0.53971 0.06605 0.0
C1158 C 0.38927 0.44809 0.0314 0.0
C1159 C 0.38707 0.50886 0.05674 0.0
N1160 N 0.31769 0.41186 0.03342 0.0
N1161 N 0.45728 0.53944 0.06211 0.0
H1162 H 0.3593 0.53887 0.0704 0.0
H1163 H 0.4103 0.56697 0.06688 0.0
H1164 H 0.48483 0.54229 0.05926 0.0
H1165 H 0.45718 0.55769 0.07613 0.0
H1166 H 0.31536 0.39085 0.02092 0.0
H1167 H 0.29047 0.40702 0.03989 0.0
H1168 H 0.36722 0.39 0.02076 0.0
H1169 H 0.41669 0.4201 0.01406 0.0
C1170 C 0.57563 0.89719 0.0331 0.0
C1171 C 0.55585 0.87504 0.05503 0.0
C1172 C 0.51598 0.90611 0.05738 0.0
C1173 C 0.5343 0.92698 0.03466 0.0
N1174 N 0.57648 0.93739 0.99832 0.0
N1175 N 0.50078 0.85131 0.08405 0.0
C1176 C 0.56226 0.92066 0.02158 0.0
C1177 C 0.52416 0.87747 0.06601 0.0
N1178 N 0.60879 0.89788 0.02428 0.0
N1179 N 0.49113 0.91393 0.07106 0.0
H1180 H 0.50516 0.8292 0.09038 0.0
H1181 H 0.47468 0.84899 0.09077 0.0
H1182 H 0.48237 0.93307 0.06492 0.0
H1183 H 0.48118 0.90331 0.08941 0.0
H1184 H 0.62707 0.9168 0.01026 0.0
H1185 H 0.62013 0.88186 0.03247 0.0
H1186 H 0.5931 0.93024 0.98641 0.0
H1187 H 0.56946 0.9567 0.99014 0.0
C1188 C 0.02926 0.19661 0.38716 0.0
C1189 C 0.99819 0.20482 0.38976 0.0
C1190 C 0.04463 0.27208 0.37971 0.0
C1191 C 0.07477 0.26333 0.37427 0.0
N1192 N 0.09319 0.215 0.36938 0.0
N1193 N 0.97461 0.24869 0.38177 0.0
C1194 C 0.06605 0.22478 0.37672 0.0
C1195 C 1.00535 0.242 0.38374 0.0
N1196 N 0.02489 0.16303 0.39643 0.0
N1197 N 0.0537 0.30902 0.38298 0.0
H1198 H 0.9454 0.22717 0.38409 0.0
H1199 H 0.97801 0.27456 0.3752 0.0
H1200 H 0.08212 0.332 0.38094 0.0
H1201 H 0.03352 0.31653 0.38981 0.0
H1202 H 0.04803 0.15744 0.39779 0.0
H1203 H 0.99924 0.14214 0.4052 0.0
H1204 H 0.08705 0.18686 0.36791 0.0
H1205 H 0.12061 0.23485 0.36224 0.0
C1206 C 0.80824 0.82168 0.39167 0.0
C1207 C 0.81005 0.78828 0.38639 0.0
C1208 C 0.74462 0.75951 0.36632 0.0
C1209 C 0.74298 0.7934 0.37117 0.0
N1210 N 0.76642 0.84872 0.3984 0.0
N1211 N 0.78302 0.72728 0.36582 0.0
C1212 C 0.77315 0.82261 0.38631 0.0
C1213 C 0.77895 0.75763 0.37299 0.0
N1214 N 0.8402 0.85275 0.4019 0.0
N1215 N 0.71257 0.72846 0.35616 0.0
H1216 H 0.80771 0.72512 0.37045 0.0
H1217 H 0.76372 0.70577 0.3536 0.0
H1218 H 0.68848 0.7297 0.34902 0.0
H1219 H 0.70914 0.70125 0.35545 0.0
H1220 H 0.8422 0.87934 0.40354 0.0
H1221 H 0.86612 0.85288 0.4066 0.0
H1222 H 0.78491 0.86721 0.41247 0.0
H1223 H 0.74083 0.85001 0.396 0.0
C1224 C 0.26165 0.03511 0.36422 0.0
C1225 C 0.24075 0.03673 0.38587 0.0
C1226 C 0.2048 0.96697 0.38885 0.0
C1227 C 0.224 0.96501 0.36623 0.0
N1228 N 0.26616 0.99708 0.33011 0.0
N1229 N 0.18661 0.00482 0.41534 0.0
C1230 C 0.25087 0.99907 0.35313 0.0
C1231 C 0.21062 0.0028 0.39718 0.0
N1232 N 0.29296 0.06789 0.35495 0.0
N1233 N 0.18128 0.93469 0.40268 0.0
H1234 H 0.1897 0.03061 0.42171 0.0
H1235 H 0.16134 0.98107 0.4223 0.0
H1236 H 0.17367 0.90741 0.39658 0.0
H1237 H 0.17111 0.93508 0.42105 0.0
H1238 H 0.31233 0.06826 0.34117 0.0
H1239 H 0.30146 0.09481 0.36239 0.0
H1240 H 0.28206 0.0205 0.31813 0.0
H1241 H 0.26057 0.97137 0.32213 0.0
C1242 C 0.54583 0.67885 0.29089 0.0
C1243 C 0.53803 0.64432 0.30299 0.0
C1244 C 0.58839 0.68093 0.33544 0.0
C1245 C 0.5982 0.71542 0.32223 0.0
N1246 N 0.59087 0.74621 0.28451 0.0
N1247 N 0.55516 0.61158 0.33459 0.0
C1248 C 0.57835 0.71404 0.29907 0.0
C1249 C 0.56012 0.6451 0.32476 0.0
N1250 N 0.52116 0.67817 0.2721 0.0
N1251 N 0.60623 0.68235 0.35817 0.0
H1252 H 0.53439 0.58491 0.32751 0.0
H1253 H 0.57332 0.61004 0.34852 0.0
H1254 H 0.62886 0.70764 0.36559 0.0
H1255 H 0.59719 0.65906 0.37042 0.0
H1256 H 0.5225 0.70265 0.26452 0.0
H1257 H 0.49683 0.65302 0.26573 0.0
H1258 H 0.58097 0.74601 0.26596 0.0
H1259 H 0.61331 0.77291 0.29015 0.0
C1260 C 0.33367 0.85736 0.31136 0.0
C1261 C 0.36654 0.89477 0.3098 0.0
C1262 C 0.32538 0.92062 0.32535 0.0
C1263 C 0.29216 0.88307 0.32731 0.0
N1264 N 0.26913 0.81553 0.32872 0.0
N1265 N 0.39621 0.96108 0.32097 0.0
C1266 C 0.29771 0.8514 0.32239 0.0
C1267 C 0.36309 0.92613 0.31849 0.0
N1268 N 0.3361 0.82752 0.30112 0.0
N1269 N 0.32086 0.95128 0.33044 0.0
H1270 H 0.42423 0.96599 0.31634 0.0
H1271 H 0.39658 0.98436 0.3297 0.0
H1272 H 0.29575 0.94825 0.33935 0.0
H1273 H 0.34158 0.9793 0.32572 0.0
H1274 H 0.31183 0.80039 0.29863 0.0
H1275 H 0.36187 0.83054 0.29314 0.0
H1276 H 0.2728 0.79175 0.32829 0.0
H1277 H 0.24342 0.81048 0.33741 0.0
C1278 C 0.15 0.48119 0.31252 0.0
C1279 C 0.1105 0.47325 0.31179 0.0
C1280 C 0.08853 0.41057 0.33157 0.0
C1281 C 0.12826 0.41923 0.33354 0.0
N1282 N 0.19735 0.46566 0.33018 0.0
N1283 N 0.04297 0.43397 0.32489 0.0
C1284 C 0.15914 0.45555 0.32545 0.0
C1285 C 0.07997 0.43894 0.32258 0.0
N1286 N 0.17858 0.51233 0.29977 0.0
N1287 N 0.05886 0.375 0.33787 0.0
H1288 H 0.03567 0.45415 0.31856 0.0
H1289 H 0.02034 0.4115 0.33499 0.0
H1290 H 0.06422 0.3545 0.34582 0.0
H1291 H 0.02933 0.36512 0.33386 0.0
H1292 H 0.20702 0.51726 0.29697 0.0
H1293 H 0.17311 0.5318 0.29006 0.0
H1294 H 0.22098 0.49313 0.32749 0.0
H1295 H 0.2052 0.4472 0.33873 0.0
C1296 C 0.33067 0.46875 0.33339 0.0
C1297 C 0.33702 0.47017 0.30652 0.0
C1298 C 0.26532 0.43329 0.30053 0.0
C1299 C 0.26046 0.42535 0.32707 0.0
N1300 N 0.28315 0.46521 0.36347 0.0
N1301 N 0.30923 0.45659 0.26387 0.0
C1302 C 0.29159 0.45054 0.34284 0.0
C1303 C 0.30392 0.45357 0.28981 0.0
N1304 N 0.36136 0.48384 0.35019 0.0
N1305 N 0.23287 0.4249 0.28637 0.0
H1306 H 0.33675 0.47303 0.25533 0.0
H1307 H 0.28651 0.44147 0.25088 0.0
H1308 H 0.2055 0.41432 0.29524 0.0
H1309 H 0.23374 0.43243 0.26718 0.0
H1310 H 0.35694 0.48104 0.36998 0.0
H1311 H 0.39066 0.49624 0.34447 0.0
H1312 H 0.30473 0.4876 0.37424 0.0
H1313 H 0.25431 0.45885 0.36652 0.0
C1314 C 0.58544 0.90537 0.31822 0.0
C1315 C 0.54718 0.87419 0.31446 0.0
C1316 C 0.57103 0.82952 0.32318 0.0
C1317 C 0.6104 0.86058 0.32586 0.0
N1318 N 0.65531 0.92854 0.32113 0.0
N1319 N 0.50106 0.80769 0.31992 0.0
C1320 C 0.61754 0.89871 0.32241 0.0
C1321 C 0.5393 0.83663 0.31905 0.0
N1322 N 0.59092 0.94151 0.31803 0.0
N1323 N 0.56424 0.79314 0.32205 0.0
H1324 H 0.47744 0.81232 0.317 0.0
H1325 H 0.49253 0.7801 0.32606 0.0
H1326 H 0.58665 0.78711 0.32396 0.0
H1327 H 0.53745 0.76953 0.31706 0.0
H1328 H 0.617 0.96561 0.32347 0.0
H1329 H 0.56794 0.94699 0.31476 0.0
H1330 H 0.66275 0.95602 0.31544 0.0
H1331 H 0.67992 0.92559 0.32385 0.0
C1332 C 0.11185 0.67045 0.33208 0.0
C1333 C 0.13149 0.667 0.31031 0.0
C1334 C 0.17168 0.73669 0.30734 0.0
C1335 C 0.15373 0.74027 0.33005 0.0
N1336 N 0.11214 0.7101 0.36675 0.0
N1337 N 0.18667 0.6961 0.28133 0.0
C1338 C 0.12578 0.70698 0.34339 0.0
C1339 C 0.1633 0.69994 0.29913 0.0
N1340 N 0.07826 0.63943 0.34093 0.0
N1341 N 0.19646 0.76829 0.2933 0.0
H1342 H 0.18226 0.66965 0.27537 0.0
H1343 H 0.21283 0.71895 0.2745 0.0
H1344 H 0.20559 0.79605 0.29917 0.0
H1345 H 0.20606 0.76692 0.27494 0.0
H1346 H 0.06018 0.64115 0.35483 0.0
H1347 H 0.06629 0.61241 0.33279 0.0
H1348 H 0.09554 0.68688 0.37877 0.0
H1349 H 0.1198 0.73629 0.37489 0.0
C1350 C 0.78293 1.00142 0.38513 0.0
C1351 C 0.82075 0.0073 0.39102 0.0
C1352 C 0.80167 0.9435 0.3747 0.0
C1353 C 0.76188 0.93532 0.37155 0.0
N1354 N 0.71526 0.95769 0.37382 0.0
N1355 N 0.86543 0.98312 0.39443 0.0
C1356 C 0.75277 0.96468 0.37688 0.0
C1357 C 0.82994 0.97821 0.38651 0.0
N1358 N 0.77614 0.03141 0.38687 0.0
N1359 N 0.81321 0.91866 0.36621 0.0
H1360 H 0.8876 0.00869 0.40208 0.0
H1361 H 0.87192 0.9611 0.39516 0.0
H1362 H 0.79419 0.89142 0.35956 0.0
H1363 H 0.84259 0.92601 0.36427 0.0
H1364 H 0.75074 0.03068 0.38027 0.0
H1365 H 0.7974 0.05841 0.39318 0.0
H1366 H 0.70499 0.97518 0.38081 0.0
H1367 H 0.69389 0.93346 0.36477 0.0
C1368 C 0.04133 0.84606 0.37423 0.0
C1369 C 0.01279 0.80972 0.38346 0.0
C1370 C 0.05616 0.78474 0.37156 0.0
C1371 C 0.08794 0.82243 0.36723 0.0
N1372 N 0.10974 0.88983 0.36557 0.0
N1373 N 0.99274 0.74389 0.39147 0.0
C1374 C 0.08007 0.8533 0.36848 0.0
C1375 C 0.02005 0.77884 0.38212 0.0
N1376 N 0.03154 0.87386 0.37117 0.0
N1377 N 0.06015 0.7544 0.36454 0.0
H1378 H 0.96513 0.738 0.39802 0.0
H1379 H 0.99828 0.72144 0.39403 0.0
H1380 H 0.085 0.75821 0.35484 0.0
H1381 H 0.03733 0.72618 0.36514 0.0
H1382 H 0.04955 0.89968 0.36187 0.0
H1383 H 1.00373 0.86958 0.37572 0.0
H1384 H 0.10732 0.91374 0.36977 0.0
H1385 H 0.13739 0.89599 0.35994 0.0
C1386 C 0.21616 0.22381 0.40078 0.0
C1387 C 0.24337 0.22216 0.3838 0.0
C1388 C 0.24257 0.27135 0.35671 0.0
C1389 C 0.2123 0.27048 0.37222 0.0
N1390 N 0.16672 0.24174 0.40751 0.0
N1391 N 0.27806 0.23941 0.34359 0.0
C1392 C 0.19818 0.24562 0.39389 0.0
C1393 C 0.25526 0.24448 0.36117 0.0
N1394 N 0.20856 0.20565 0.424 0.0
N1395 N 0.26099 0.29929 0.33867 0.0
H1396 H 0.28836 0.22036 0.3464 0.0
H1397 H 0.28383 0.25155 0.32534 0.0
H1398 H 0.25335 0.32005 0.33509 0.0
H1399 H 0.28616 0.30404 0.32887 0.0
H1400 H 0.19292 0.20965 0.4386 0.0
H1401 H 0.2206 0.18884 0.42957 0.0
H1402 H 0.15192 0.22059 0.42127 0.0
H1403 H 0.15315 0.25753 0.40362 0.0
C1404 C 0.65502 0.57364 0.71005 0.0
C1405 C 0.65381 0.54042 0.72001 0.0
C1406 C 0.72155 0.56477 0.70544 0.0
C1407 C 0.72567 0.60113 0.70009 0.0
N1408 N 0.69481 0.63977 0.69725 0.0
N1409 N 0.68861 0.5071 0.73079 0.0
C1410 C 0.69181 0.60532 0.70245 0.0
C1411 C 0.68771 0.53659 0.71853 0.0
N1412 N 0.62085 0.57451 0.70719 0.0
N1413 N 0.7491 0.55628 0.69736 0.0
H1414 H 0.66494 0.4862 0.74122 0.0
H1415 H 0.71425 0.50557 0.73273 0.0
H1416 H 0.77267 0.57533 0.68653 0.0
H1417 H 0.7457 0.52904 0.69842 0.0
H1418 H 0.61921 0.59637 0.6977 0.0
H1419 H 0.59342 0.55155 0.71218 0.0
H1420 H 0.6732 0.64649 0.70198 0.0
H1421 H 0.7196 0.66186 0.6885 0.0
C1422 C 0.47569 0.15734 0.72817 0.0
C1423 C 0.47888 0.12459 0.72319 0.0
C1424 C 0.41308 0.09331 0.70383 0.0
C1425 C 0.41036 0.12691 0.70723 0.0
N1426 N 0.43302 0.1841 0.73239 0.0
N1427 N 0.45365 0.06359 0.70289 0.0
C1428 C 0.44029 0.1574 0.72181 0.0
C1429 C 0.44839 0.09323 0.71008 0.0
N1430 N 0.50675 0.18865 0.73897 0.0
N1431 N 0.38084 0.06039 0.69615 0.0
H1432 H 0.47901 0.06247 0.70726 0.0
H1433 H 0.43461 0.0419 0.69064 0.0
H1434 H 0.35579 0.05997 0.6895 0.0
H1435 H 0.37853 0.03361 0.69715 0.0
H1436 H 0.50804 0.21487 0.74089 0.0
H1437 H 0.53275 0.18934 0.74424 0.0
H1438 H 0.45059 0.2032 0.74649 0.0
H1439 H 0.40778 0.18545 0.72867 0.0
C1440 C 0.92981 0.35744 0.7168 0.0
C1441 C 0.89777 0.36233 0.72381 0.0
C1442 C 0.85178 0.29967 0.70585 0.0
C1443 C 0.88333 0.29198 0.70236 0.0
N1444 N 0.95303 0.31469 0.70442 0.0
N1445 N 0.8279 0.33592 0.72888 0.0
C1446 C 0.92251 0.32121 0.70797 0.0
C1447 C 0.8587 0.33301 0.71921 0.0
N1448 N 0.96724 0.38798 0.71758 0.0
N1449 N 0.81506 0.27574 0.69638 0.0
H1450 H 0.83151 0.3596 0.73907 0.0
H1451 H 0.79898 0.31338 0.7289 0.0
H1452 H 0.80634 0.24926 0.68842 0.0
H1453 H 0.79337 0.28337 0.69504 0.0
H1454 H 0.99166 0.38761 0.71015 0.0
H1455 H 0.9736 0.41503 0.72364 0.0
H1456 H 0.98122 0.33213 0.71162 0.0
H1457 H 0.94958 0.29088 0.69485 0.0
C1458 C 0.18936 0.00853 0.64199 0.0
C1459 C 0.19706 0.97777 0.64271 0.0
C1460 C 0.25617 0.01669 0.66835 0.0
C1461 C 0.25158 0.04888 0.66449 0.0
N1462 N 0.20368 0.06937 0.65948 0.0
N1463 N 0.23807 0.95216 0.65628 0.0
C1464 C 0.21518 0.0432 0.65481 0.0
C1465 C 0.23051 0.98169 0.6559 0.0
N1466 N 0.15852 0.00544 0.62788 0.0
N1467 N 0.28179 0.01837 0.68659 0.0
H1468 H 0.21885 0.92535 0.64866 0.0
H1469 H 0.26447 0.95495 0.66282 0.0
H1470 H 0.29571 0.04181 0.69873 0.0
H1471 H 0.2847 0.99517 0.69221 0.0
H1472 H 0.15445 0.02852 0.62393 0.0
H1473 H 0.1387 0.98053 0.61834 0.0
H1474 H 0.17534 0.06425 0.65587 0.0
H1475 H 0.22065 0.09438 0.66966 0.0
C1476 C 0.99489 0.17805 0.64725 0.0
C1477 C 0.02923 0.21439 0.64612 0.0
C1478 C 0.99033 0.24442 0.6573 0.0
C1479 C 0.95558 0.20795 0.66034 0.0
N1480 N 0.92789 0.13935 0.66141 0.0
N1481 N 0.06159 0.28046 0.658 0.0
C1482 C 0.95895 0.17458 0.65658 0.0
C1483 C 0.02749 0.24689 0.65393 0.0
N1484 N 0.99597 0.14699 0.63802 0.0
N1485 N 0.98811 0.27706 0.65619 0.0
H1486 H 0.08925 0.28298 0.65589 0.0
H1487 H 0.06227 0.30428 0.66616 0.0
H1488 H 0.96196 0.27753 0.65747 0.0
H1489 H 0.01197 0.30354 0.65127 0.0
H1490 H 0.97095 0.12057 0.63494 0.0
H1491 H 0.02183 0.14828 0.63172 0.0
H1492 H 0.92979 0.11459 0.66227 0.0
H1493 H 0.901 0.13545 0.66685 0.0
C1494 C 0.80876 0.80085 0.62972 0.0
C1495 C 0.77851 0.80573 0.6406 0.0
C1496 C 0.76746 0.75807 0.67372 0.0
C1497 C 0.79491 0.7503 0.66127 0.0
N1498 N 0.83906 0.76177 0.62569 0.0
N1499 N 0.72604 0.78689 0.67117 0.0
C1500 C 0.81476 0.77096 0.63876 0.0
C1501 C 0.75718 0.78394 0.66224 0.0
N1502 N 0.83272 0.82571 0.61126 0.0
N1503 N 0.75118 0.74072 0.6965 0.0
H1504 H 0.71808 0.80592 0.66347 0.0
H1505 H 0.70636 0.76876 0.68496 0.0
H1506 H 0.75639 0.72019 0.70465 0.0
H1507 H 0.73469 0.74835 0.70812 0.0
H1508 H 0.85819 0.82658 0.60466 0.0
H1509 H 0.8292 0.84792 0.60407 0.0
H1510 H 0.84977 0.77185 0.60737 0.0
H1511 H 0.8469 0.74226 0.63244 0.0
C1512 C 0.99685 0.75726 0.64647 0.0
C1513 C 1.00446 0.7952 0.64385 0.0
C1514 C 0.93835 0.77565 0.6601 0.0
C1515 C 0.92997 0.73709 0.66213 0.0
N1516 N 0.95645 0.69498 0.66564 0.0
N1517 N 0.98703 0.84268 0.65474 0.0
C1518 C 0.96103 0.72923 0.65792 0.0
C1519 C 0.97684 0.80513 0.65308 0.0
N1520 N 0.02359 0.74776 0.63755 0.0
N1521 N 0.90925 0.78414 0.66339 0.0
H1522 H 0.01413 0.86492 0.64861 0.0
H1523 H 0.96998 0.85198 0.6642 0.0
H1524 H 0.88204 0.76428 0.67026 0.0
H1525 H 0.91165 0.81022 0.6585 0.0
H1526 H 0.01763 0.71972 0.63585 0.0
H1527 H 0.05122 0.76795 0.63055 0.0
H1528 H 0.97885 0.68827 0.66522 0.0
H1529 H 0.93146 0.67515 0.67549 0.0
C1530 C 0.2152 0.16547 0.63437 0.0
C1531 C 0.21358 0.1989 0.64011 0.0
C1532 C 0.27798 0.22568 0.66139 0.0
C1533 C 0.27935 0.1917 0.65638 0.0
N1534 N 0.2555 0.13634 0.62918 0.0
N1535 N 0.24142 0.25959 0.66145 0.0
C1536 C 0.24945 0.16331 0.64061 0.0
C1537 C 0.24432 0.22856 0.65438 0.0
N1538 N 0.1833 0.13505 0.62347 0.0
N1539 N 0.31032 0.25654 0.67127 0.0
H1540 H 0.21891 0.26425 0.65529 0.0
H1541 H 0.25993 0.27963 0.67478 0.0
H1542 H 0.3335 0.25433 0.67889 0.0
H1543 H 0.31457 0.28409 0.67152 0.0
H1544 H 0.18099 0.10847 0.621 0.0
H1545 H 0.15745 0.13524 0.61905 0.0
H1546 H 0.23796 0.11878 0.61444 0.0
H1547 H 0.27963 0.13311 0.63309 0.0
C1548 C 0.81601 0.02406 0.63144 0.0
C1549 C 0.78467 0.99265 0.64419 0.0
C1550 C 0.78142 0.03573 0.67581 0.0
C1551 C 0.81025 0.06756 0.66167 0.0
N1552 N 0.85218 0.0924 0.62435 0.0
N1553 N 0.73468 0.96772 0.67692 0.0
C1554 C 0.82679 0.06182 0.63901 0.0
C1555 C 0.76662 0.99825 0.66597 0.0
N1556 N 0.83571 0.01778 0.61217 0.0
N1557 N 0.76824 0.04124 0.6987 0.0
H1558 H 0.72426 0.93962 0.67109 0.0
H1559 H 0.71701 0.97023 0.69075 0.0
H1560 H 0.7763 0.06818 0.70569 0.0
H1561 H 0.75122 0.01935 0.71153 0.0
H1562 H 0.86173 0.03913 0.60409 0.0
H1563 H 0.82772 0.99058 0.60549 0.0
H1564 H 0.86132 0.08998 0.60608 0.0
H1565 H 0.86239 0.12061 0.62962 0.0
C1566 C 0.44862 0.33631 0.70079 0.0
C1567 C 0.48121 0.3432 0.7163 0.0
C1568 C 0.46891 0.27868 0.70692 0.0
C1569 C 0.43239 0.26983 0.6957 0.0
N1570 N 0.40273 0.29607 0.66845 0.0
N1571 N 0.52275 0.32099 0.73457 0.0
C1572 C 0.42623 0.30026 0.68882 0.0
C1573 C 0.492 0.31468 0.71907 0.0
N1574 N 0.43862 0.36397 0.6977 0.0
N1575 N 0.48315 0.25427 0.70411 0.0
H1576 H 0.5405 0.34696 0.7437 0.0
H1577 H 0.52884 0.29959 0.73984 0.0
H1578 H 0.4684 0.22905 0.69374 0.0
H1579 H 0.51165 0.2613 0.70918 0.0
H1580 H 0.41224 0.35874 0.68936 0.0
H1581 H 0.45575 0.3917 0.70459 0.0
H1582 H 0.40013 0.31835 0.66046 0.0
H1583 H 0.38937 0.27103 0.65778 0.0
C1584 C 0.72046 0.18352 0.72473 0.0
C1585 C 0.68376 0.15011 0.72064 0.0
C1586 C 0.71802 0.12059 0.69931 0.0
C1587 C 0.75512 0.15411 0.70379 0.0
N1588 N 0.79012 0.20996 0.73043 0.0
N1589 N 0.64652 0.08825 0.7011 0.0
C1590 C 0.756 0.18383 0.71884 0.0
C1591 C 0.68221 0.11914 0.70692 0.0
N1592 N 0.72145 0.21554 0.73403 0.0
N1593 N 0.71721 0.08896 0.6894 0.0
H1594 H 0.61994 0.08488 0.70771 0.0
H1595 H 0.64281 0.06697 0.68837 0.0
H1596 H 0.74222 0.08939 0.68237 0.0
H1597 H 0.69236 0.06192 0.689 0.0
H1598 H 0.74719 0.24194 0.735 0.0
H1599 H 0.69601 0.21662 0.73823 0.0
H1600 H 0.79131 0.22878 0.74446 0.0
H1601 H 0.8168 0.21091 0.72768 0.0
C1602 C 0.90031 0.55922 0.69936 0.0
C1603 C 0.87887 0.53711 0.7209 0.0
C1604 C 0.8405 0.56975 0.72168 0.0
C1605 C 0.86052 0.5907 0.69932 0.0
N1606 N 0.90386 0.59965 0.66394 0.0
N1607 N 0.82169 0.51384 0.748 0.0
C1608 C 0.88839 0.58335 0.68709 0.0
C1609 C 0.84694 0.5402 0.73071 0.0
N1610 N 0.93361 0.55925 0.69163 0.0
N1611 N 0.81563 0.57828 0.73467 0.0
H1612 H 0.82471 0.491 0.75449 0.0
H1613 H 0.79544 0.51213 0.75376 0.0
H1614 H 0.80768 0.59779 0.72807 0.0
H1615 H 0.80462 0.5676 0.75285 0.0
H1616 H 0.95295 0.5781 0.67796 0.0
H1617 H 0.94393 0.54276 0.7004 0.0
H1618 H 0.92068 0.59192 0.65269 0.0
H1619 H 0.89744 0.61895 0.65511 0.0
C1620 C 0.46976 0.98275 0.23253 0.0
C1621 C 0.46335 0.94526 0.23646 0.0
C1622 C 0.49101 0.94744 0.19378 0.0
C1623 C 0.49483 0.98382 0.18919 0.0
N1624 N 0.47765 0.03101 0.20168 0.0
N1625 N 0.4583 0.88835 0.21802 0.0
C1626 C 0.48089 0.99981 0.2078 0.0
C1627 C 0.47095 0.92647 0.21616 0.0
N1628 N 0.46742 0.00306 0.25267 0.0
N1629 N 0.50829 0.93365 0.17757 0.0
H1630 H 0.44268 0.87189 0.23383 0.0
H1631 H 0.45968 0.87239 0.20285 0.0
H1632 H 0.5241 0.94833 0.16132 0.0
H1633 H 0.51002 0.90926 0.18154 0.0
H1634 H 0.47588 0.03187 0.25135 0.0
H1635 H 0.46077 0.99237 0.2713 0.0
H1636 H 0.46416 0.04169 0.21363 0.0
H1637 H 0.48465 0.0437 0.18356 0.0
C1638 C 0.07265 0.53478 0.21705 0.0
C1639 C 0.0532 0.50881 0.23748 0.0
C1640 C 0.99765 0.47045 0.20891 0.0
C1641 C 0.01418 0.49986 0.19013 0.0
N1642 N 0.06484 0.5638 0.17863 0.0
N1643 N 0.99408 0.45454 0.25394 0.0
C1644 C 0.05114 0.53303 0.19473 0.0
C1645 C 0.0149 0.47714 0.2337 0.0
N1646 N 0.11189 0.56077 0.2188 0.0
N1647 N 0.966 0.43583 0.20291 0.0
H1648 H 1.0051 0.45895 0.27256 0.0
H1649 H 0.96453 0.43359 0.25268 0.0
H1650 H 0.95323 0.42958 0.18474 0.0
H1651 H 0.9551 0.41224 0.21509 0.0
H1652 H 0.12827 0.578 0.20349 0.0
H1653 H 0.1289 0.56219 0.23459 0.0
H1654 H 0.08967 0.59 0.18266 0.0
H1655 H 0.04937 0.5646 0.16262 0.0
C1656 C 0.51227 0.57748 0.20975 0.0
C1657 C 0.50179 0.55202 0.23089 0.0
C1658 C 0.51387 0.50872 0.20459 0.0
C1659 C 0.53018 0.53693 0.18501 0.0
N1660 N 0.55111 0.60137 0.17109 0.0
N1661 N 0.49863 0.49588 0.24972 0.0
C1662 C 0.53093 0.57218 0.18809 0.0
C1663 C 0.50402 0.51815 0.22865 0.0
N1664 N 0.50358 0.60627 0.2101 0.0
N1665 N 0.50689 0.47261 0.19999 0.0
H1666 H 0.49225 0.50213 0.26785 0.0
H1667 H 0.50409 0.47317 0.2497 0.0
H1668 H 0.51288 0.4644 0.1824 0.0
H1669 H 0.49152 0.44996 0.21267 0.0
H1670 H 0.50718 0.62343 0.19423 0.0
H1671 H 0.48892 0.6104 0.22534 0.0
H1672 H 0.556 0.62889 0.17398 0.0
H1673 H 0.56629 0.59926 0.15537 0.0
C1674 C 0.91566 0.43763 0.82135 0.0
C1675 C 0.94236 0.44733 0.80062 0.0
C1676 C 0.99813 0.48095 0.82986 0.0
C1677 C 0.97136 0.47606 0.84973 0.0
N1678 N 0.905 0.45033 0.86519 0.0
N1679 N 0.00864 0.47807 0.78427 0.0
C1680 C 0.93015 0.45408 0.84581 0.0
C1681 C 0.98358 0.46851 0.80469 0.0
N1682 N 0.87652 0.4126 0.81754 0.0
N1683 N 0.0374 0.49744 0.83518 0.0
H1684 H 0.99903 0.46818 0.76574 0.0
H1685 H 0.03871 0.49728 0.78529 0.0
H1686 H 0.04896 0.50732 0.85338 0.0
H1687 H 0.05818 0.49866 0.82225 0.0
H1688 H 0.85587 0.40144 0.83225 0.0
H1689 H 0.86504 0.40049 0.79974 0.0
H1690 H 0.87481 0.43866 0.86283 0.0
H1691 H 0.91464 0.4607 0.88363 0.0
C1692 C 0.51887 0.4919 0.79461 0.0
C1693 C 0.55788 0.49835 0.79323 0.0
C1694 C 0.57023 0.52473 0.8367 0.0
C1695 C 0.52986 0.51378 0.83913 0.0
N1696 N 0.46387 0.47794 0.82224 0.0
N1697 N 0.61789 0.51295 0.81537 0.0
C1698 C 0.50358 0.49465 0.81862 0.0
C1699 C 0.58282 0.51247 0.81499 0.0
N1700 N 0.49683 0.48467 0.77287 0.0
N1701 N 0.59692 0.54814 0.85446 0.0
H1702 H 0.62761 0.50302 0.80022 0.0
H1703 H 0.63533 0.51951 0.83172 0.0
H1704 H 0.58925 0.55895 0.87016 0.0
H1705 H 0.62718 0.5599 0.85218 0.0
H1706 H 0.46961 0.48335 0.77264 0.0
H1707 H 0.50747 0.48415 0.75466 0.0
H1708 H 0.44343 0.46059 0.80855 0.0
H1709 H 0.45133 0.47794 0.83986 0.0
C1710 C 0.52122 0.04123 0.79962 0.0
C1711 C 0.52323 0.07718 0.79719 0.0
C1712 C 0.49601 0.06971 0.84063 0.0
C1713 C 0.49665 0.03508 0.84368 0.0
N1714 N 0.51974 0.99346 0.82848 0.0
N1715 N 0.52191 0.12983 0.8178 0.0
C1716 C 0.51246 0.02266 0.82391 0.0
C1717 C 0.5136 0.09275 0.81851 0.0
N1718 N 0.52545 0.02366 0.77853 0.0
N1719 N 0.47682 0.07971 0.85808 0.0
H1720 H 0.53551 0.14777 0.80214 0.0
H1721 H 0.51901 0.14382 0.83366 0.0
H1722 H 0.46275 0.06334 0.87424 0.0
H1723 H 0.47177 0.10244 0.8553 0.0
H1724 H 0.52005 0.99568 0.7788 0.0
H1725 H 0.53063 0.03551 0.76019 0.0
H1726 H 0.53474 0.98563 0.8156 0.0
H1727 H 0.51446 0.97972 0.8462 0.0
C1728 C 0.11597 0.30548 0.5707 0.0
C1729 C 0.1197 0.27228 0.57152 0.0
C1730 C 0.14719 0.28732 0.52787 0.0
C1731 C 0.1385 0.31747 0.52611 0.0
N1732 N 0.10232 0.34604 0.54374 0.0
N1733 N 0.12947 0.22652 0.54763 0.0
C1734 C 0.11887 0.32354 0.54685 0.0
C1735 C 0.13248 0.26159 0.54911 0.0
N1736 N 0.11188 0.32127 0.59275 0.0
N1737 N 0.17098 0.28414 0.51016 0.0
H1738 H 0.11714 0.20618 0.56219 0.0
H1739 H 0.13524 0.21626 0.53085 0.0
H1740 H 0.18397 0.30332 0.49504 0.0
H1741 H 0.181 0.26475 0.51208 0.0
H1742 H 0.1122 0.34721 0.593 0.0
H1743 H 0.11317 0.31114 0.61091 0.0
H1744 H 0.08508 0.34878 0.55784 0.0
H1745 H 0.10198 0.35821 0.52614 0.0
C1746 C 0.73003 0.82666 0.54659 0.0
C1747 C 0.71728 0.83926 0.56802 0.0
C1748 C 0.66612 0.83982 0.54144 0.0
C1749 C 0.67521 0.8221 0.52121 0.0
N1750 N 0.71057 0.79063 0.50716 0.0
N1751 N 0.66644 0.8483 0.58722 0.0
C1752 C 0.7057 0.81318 0.5245 0.0
C1753 C 0.68331 0.84305 0.56587 0.0
N1754 N 0.76597 0.82893 0.54679 0.0
N1755 N 0.64226 0.8549 0.53717 0.0
H1756 H 0.67687 0.84889 0.6057 0.0
H1757 H 0.63961 0.84777 0.58677 0.0
H1758 H 0.63054 0.85485 0.51921 0.0
H1759 H 0.63775 0.87116 0.55077 0.0
H1760 H 0.77799 0.82336 0.5307 0.0
H1761 H 0.78553 0.84024 0.56209 0.0
H1762 H 0.73001 0.78045 0.51005 0.0
H1763 H 0.69236 0.77879 0.49127 0.0
C1764 C 0.17557 0.91663 0.54638 0.0
C1765 C 0.16732 0.89126 0.56738 0.0
C1766 C 0.18195 0.85054 0.54018 0.0
C1767 C 0.19608 0.87887 0.52066 0.0
N1768 N 0.21255 0.94241 0.50719 0.0
N1769 N 0.17002 0.83751 0.58553 0.0
C1770 C 0.19445 0.91288 0.52423 0.0
C1771 C 0.17235 0.85901 0.56463 0.0
N1772 N 0.16453 0.94375 0.54733 0.0
N1773 N 0.17685 0.81519 0.53522 0.0
H1774 H 0.16455 0.84346 0.60401 0.0
H1775 H 0.17744 0.81612 0.58494 0.0
H1776 H 0.18257 0.80758 0.51733 0.0
H1777 H 0.1631 0.79236 0.54799 0.0
H1778 H 0.16647 0.9606 0.53163 0.0
H1779 H 0.1497 0.94672 0.56295 0.0
H1780 H 0.2157 0.96923 0.51034 0.0
H1781 H 0.22774 0.94143 0.4911 0.0
C1782 C 0.61858 0.80116 0.14886 0.0
C1783 C 0.63278 0.78943 0.12776 0.0
C1784 C 0.68628 0.79431 0.15463 0.0
C1785 C 0.67581 0.81195 0.17417 0.0
N1786 N 0.63647 0.83992 0.18699 0.0
N1787 N 0.68598 0.78355 0.10916 0.0
C1788 C 0.64313 0.81753 0.17054 0.0
C1789 C 0.66827 0.78835 0.13022 0.0
N1790 N 0.58129 0.79571 0.14861 0.0
N1791 N 0.71257 0.78227 0.15951 0.0
H1792 H 0.67511 0.78136 0.09064 0.0
H1793 H 0.71374 0.78606 0.10979 0.0
H1794 H 0.72521 0.78467 0.1775 0.0
H1795 H 0.71838 0.76619 0.14651 0.0
H1796 H 0.56851 0.80071 0.16454 0.0
H1797 H 0.56171 0.78231 0.13355 0.0
H1798 H 0.61512 0.84759 0.18366 0.0
H1799 H 0.65487 0.85421 0.20239 0.0
C1800 C 0.22093 0.86867 0.13151 0.0
C1801 C 0.22842 0.83812 0.12766 0.0
C1802 C 0.20057 0.81213 0.16994 0.0
C1803 C 0.19556 0.84405 0.17455 0.0
N1804 N 0.21115 0.90773 0.16241 0.0
N1805 N 0.23609 0.78751 0.14628 0.0
C1806 C 0.20903 0.87398 0.15617 0.0
C1807 C 0.22176 0.81207 0.14793 0.0
N1808 N 0.22305 0.8914 0.11142 0.0
N1809 N 0.1832 0.78082 0.18561 0.0
H1810 H 0.25268 0.78738 0.1307 0.0
H1811 H 0.23513 0.77031 0.1615 0.0
H1812 H 0.16585 0.7787 0.20133 0.0
H1813 H 0.1827 0.75539 0.18147 0.0
H1814 H 0.21378 0.91141 0.11268 0.0
H1815 H 0.23065 0.88799 0.09289 0.0
H1816 H 0.22416 0.93173 0.15057 0.0
H1817 H 0.20364 0.91296 0.18053 0.0
C1818 C 0.1561 0.36611 0.13333 0.0
C1819 C 0.19141 0.40164 0.13026 0.0
C1820 C 0.21071 0.39511 0.17408 0.0
C1821 C 0.17342 0.36184 0.17794 0.0
N1822 N 0.10666 0.32274 0.16309 0.0
N1823 N 0.24774 0.4543 0.15042 0.0
C1824 C 0.14486 0.3496 0.15813 0.0
C1825 C 0.2174 0.41749 0.15147 0.0
N1826 N 0.13413 0.34695 0.11245 0.0
N1827 N 0.24043 0.40453 0.19126 0.0
H1828 H 0.25278 0.47206 0.13464 0.0
H1829 H 0.26524 0.46833 0.16622 0.0
H1830 H 0.23738 0.38834 0.20758 0.0
H1831 H 0.26921 0.42632 0.18799 0.0
H1832 H 0.11011 0.31935 0.11358 0.0
H1833 H 0.14244 0.35666 0.09372 0.0
H1834 H 0.08409 0.31536 0.14986 0.0
H1835 H 0.09687 0.31112 0.1813 0.0
C1836 C 0.80375 0.64728 0.89896 0.0
C1837 C 0.79941 0.61063 0.90325 0.0
C1838 C 0.82422 0.61207 0.85972 0.0
C1839 C 0.82564 0.64735 0.85484 0.0
N1840 N 0.80633 0.69288 0.86769 0.0
N1841 N 0.79596 0.55414 0.88525 0.0
C1842 C 0.81201 0.6631 0.87381 0.0
C1843 C 0.80668 0.59176 0.88283 0.0
N1844 N 0.8022 0.66807 0.91906 0.0
N1845 N 0.84134 0.59876 0.843 0.0
H1846 H 0.78213 0.53808 0.90159 0.0
H1847 H 0.79709 0.53798 0.87011 0.0
H1848 H 0.85522 0.61298 0.82614 0.0
H1849 H 0.84489 0.57539 0.84703 0.0
H1850 H 0.80919 0.69645 0.9173 0.0
H1851 H 0.79794 0.65846 0.93798 0.0
H1852 H 0.79293 0.70315 0.88005 0.0
H1853 H 0.81114 0.70457 0.84929 0.0
C1854 C 0.36601 0.13636 0.89004 0.0
C1855 C 0.37758 0.16953 0.90506 0.0
C1856 C 0.34807 0.19224 0.87317 0.0
C1857 C 0.34457 0.16375 0.85586 0.0
N1858 N 0.3498 0.10756 0.84798 0.0
N1859 N 0.3494 0.20792 0.9178 0.0
C1860 C 0.35374 0.13562 0.86425 0.0
C1861 C 0.35978 0.19161 0.89874 0.0
N1862 N 0.358 0.10305 0.90172 0.0
N1863 N 0.34132 0.22065 0.86512 0.0
H1864 H 0.35292 0.20344 0.93711 0.0
H1865 H 0.333 0.22138 0.91455 0.0
H1866 H 0.33364 0.22281 0.8463 0.0
H1867 H 0.34709 0.24394 0.87659 0.0
H1868 H 0.34676 0.07716 0.89208 0.0
H1869 H 0.35523 0.10007 0.92161 0.0
H1870 H 0.36004 0.08891 0.85252 0.0
H1871 H 0.3388 0.10458 0.82942 0.0
C1872 C 0.84152 0.24179 0.88119 0.0
C1873 C 0.83483 0.21711 0.90238 0.0
C1874 C 0.84735 0.1755 0.87456 0.0
C1875 C 0.86043 0.20338 0.85477 0.0
N1876 N 0.87579 0.2665 0.84099 0.0
N1877 N 0.83818 0.1635 0.92015 0.0
C1878 C 0.85889 0.23742 0.85846 0.0
C1879 C 0.83934 0.1846 0.89931 0.0
N1880 N 0.83056 0.26894 0.88258 0.0
N1881 N 0.84184 0.14 0.8696 0.0
H1882 H 0.83382 0.1698 0.9388 0.0
H1883 H 0.84542 0.142 0.91924 0.0
H1884 H 0.84644 0.13198 0.85152 0.0
H1885 H 0.82879 0.11745 0.88263 0.0
H1886 H 0.83135 0.28531 0.86689 0.0
H1887 H 0.81686 0.27232 0.89869 0.0
H1888 H 0.87912 0.29338 0.84414 0.0
H1889 H 0.88988 0.26509 0.82445 0.0
C1890 C 0.27891 0.0985 0.48063 0.0
C1891 C 0.29919 0.12423 0.46023 0.0
C1892 C 0.35402 0.16276 0.48919 0.0
C1893 C 0.33635 0.13395 0.50828 0.0
N1894 N 0.28467 0.07089 0.52043 0.0
N1895 N 0.3589 0.17792 0.44396 0.0
C1896 C 0.29941 0.10087 0.50359 0.0
C1897 C 0.3375 0.15573 0.4642 0.0
N1898 N 0.23977 0.0724 0.47833 0.0
N1899 N 0.38605 0.19718 0.49512 0.0
H1900 H 0.34824 0.17334 0.42524 0.0
H1901 H 0.3885 0.19869 0.44535 0.0
H1902 H 0.39849 0.20362 0.51338 0.0
H1903 H 0.39777 0.22052 0.48269 0.0
H1904 H 0.22269 0.05537 0.49349 0.0
H1905 H 0.22344 0.07057 0.46207 0.0
H1906 H 0.25994 0.04457 0.51655 0.0
H1907 H 0.29914 0.07094 0.53721 0.0
C1908 C 0.92313 0.17716 0.48421 0.0
C1909 C 0.89963 0.16673 0.46169 0.0
C1910 C 0.84593 0.16541 0.48649 0.0
C1911 C 0.8712 0.18109 0.50797 0.0
N1912 N 0.93703 0.20919 0.52521 0.0
N1913 N 0.84196 0.16042 0.44037 0.0
C1914 C 0.91075 0.18901 0.50631 0.0
C1915 C 0.86195 0.1636 0.46253 0.0
N1916 N 0.95647 0.17447 0.48492 0.0
N1917 N 0.80634 0.15106 0.4891 0.0
H1918 H 0.85344 0.16093 0.42226 0.0
H1919 H 0.81602 0.16159 0.4399 0.0
H1920 H 0.79313 0.15024 0.50661 0.0
H1921 H 0.78632 0.13618 0.47454 0.0
H1922 H 0.9725 0.17819 0.50165 0.0
H1923 H 0.9659 0.16477 0.46948 0.0
H1924 H 0.96706 0.21894 0.52365 0.0
H1925 H 0.92959 0.21947 0.5413 0.0
C1926 C 0.85022 0.70352 0.46358 0.0
C1927 C 0.8522 0.7394 0.46072 0.0
C1928 C 0.82521 0.73292 0.50412 0.0
C1929 C 0.82605 0.69846 0.50763 0.0
N1930 N 0.84933 0.65668 0.49305 0.0
N1931 N 0.85099 0.79253 0.4807 0.0
C1932 C 0.84179 0.68562 0.48808 0.0
C1933 C 0.84266 0.75546 0.4818 0.0
N1934 N 0.85417 0.68536 0.44271 0.0
N1935 N 0.80601 0.74325 0.52136 0.0
H1936 H 0.86461 0.81017 0.46492 0.0
H1937 H 0.8481 0.80682 0.49639 0.0
H1938 H 0.79206 0.72724 0.53767 0.0
H1939 H 0.80084 0.76584 0.51825 0.0
H1940 H 0.84883 0.65742 0.44335 0.0
H1941 H 0.85893 0.69664 0.42422 0.0
H1942 H 0.86427 0.64861 0.4803 0.0
H1943 H 0.84434 0.64347 0.51095 0.0
loop_
_geom_bond_atom_site_label_1
_geom_bond_atom_site_label_2
_geom_bond_distance
_geom_bond_site_symmetry_2
_ccdc_geom_bond_type
H0 C5 0.930 . S
H1 C8 0.930 . S
H2 C10 0.930 . S
H3 C4 1.016 . S
C4 H3 1.016 . S
C4 N11 1.286 . S
C5 H0 0.930 . S
C5 C6 1.397 . S
C5 C7 1.361 . S
C6 C5 1.397 . S
C6 C10 1.390 . S
C7 C5 1.361 . S
C7 C8 1.393 . S
C7 N11 1.413 . S
C8 H1 0.930 . S
C8 C7 1.393 . S
C8 C9 1.399 . S
C9 C8 1.399 . S
C9 C10 1.381 . S
C10 H2 0.930 . S
C10 C6 1.390 . S
C10 C9 1.381 . S
N11 C4 1.286 . S
N11 C7 1.413 . S
H12 C17 0.930 . S
H13 C20 0.930 . S
H14 C22 0.930 . S
H15 C16 1.016 . S
C16 H15 1.016 . S
C16 N23 1.286 . S
C17 H12 0.930 . S
C17 C18 1.397 . S
C17 C19 1.361 . S
C18 C17 1.397 . S
C18 C22 1.390 . S
C19 C17 1.361 . S
C19 C20 1.393 . S
C19 N23 1.413 . S
C20 H13 0.930 . S
C20 C19 1.393 . S
C20 C21 1.399 . S
C21 C20 1.399 . S
C21 C22 1.381 . S
C22 H14 0.930 . S
C22 C18 1.390 . S
C22 C21 1.381 . S
N23 C16 1.286 . S
N23 C19 1.413 . S
H24 C29 0.930 . S
H25 C32 0.930 . S
H26 C34 0.930 . S
H27 C28 1.016 . S
C28 H27 1.016 . S
C28 N35 1.286 . S
C29 H24 0.930 . S
C29 C30 1.397 . S
C29 C31 1.361 . S
C30 C29 1.397 . S
C30 C34 1.390 . S
C31 C29 1.361 . S
C31 C32 1.393 . S
C31 N35 1.413 . S
C32 H25 0.930 . S
C32 C31 1.393 . S
C32 C33 1.399 . S
C33 C32 1.399 . S
C33 C34 1.381 . S
C34 H26 0.930 . S
C34 C30 1.390 . S
C34 C33 1.381 . S
N35 C28 1.286 . S
N35 C31 1.413 . S
H36 C41 0.930 . S
H37 C44 0.930 . S
H38 C46 0.930 . S
H39 C40 1.016 . S
C40 H39 1.016 . S
C40 N47 1.286 . S
C41 H36 0.930 . S
C41 C42 1.397 . S
C41 C43 1.361 . S
C42 C41 1.397 . S
C42 C46 1.390 . S
C43 C41 1.361 . S
C43 C44 1.393 . S
C43 N47 1.413 . S
C44 H37 0.930 . S
C44 C43 1.393 . S
C44 C45 1.399 . S
C45 C44 1.399 . S
C45 C46 1.381 . S
C46 H38 0.930 . S
C46 C42 1.390 . S
C46 C45 1.381 . S
N47 C40 1.286 . S
N47 C43 1.413 . S
H48 C53 0.930 . S
H49 C56 0.930 . S
H50 C58 0.930 . S
H51 C52 1.016 . S
C52 H51 1.016 . S
C52 N59 1.286 . S
C53 H48 0.930 . S
C53 C54 1.397 . S
C53 C55 1.361 . S
C54 C53 1.397 . S
C54 C58 1.390 . S
C55 C53 1.361 . S
C55 C56 1.393 . S
C55 N59 1.413 . S
C56 H49 0.930 . S
C56 C55 1.393 . S
C56 C57 1.399 . S
C57 C56 1.399 . S
C57 C58 1.381 . S
C58 H50 0.930 . S
C58 C54 1.390 . S
C58 C57 1.381 . S
N59 C52 1.286 . S
N59 C55 1.413 . S
H60 C65 0.930 . S
H61 C68 0.930 . S
H62 C70 0.930 . S
H63 C64 1.016 . S
C64 H63 1.016 . S
C64 N71 1.286 . S
C65 H60 0.930 . S
C65 C66 1.397 . S
C65 C67 1.361 . S
C66 C65 1.397 . S
C66 C70 1.390 . S
C67 C65 1.361 . S
C67 C68 1.393 . S
C67 N71 1.413 . S
C68 H61 0.930 . S
C68 C67 1.393 . S
C68 C69 1.399 . S
C69 C68 1.399 . S
C69 C70 1.381 . S
C70 H62 0.930 . S
C70 C66 1.390 . S
C70 C69 1.381 . S
N71 C64 1.286 . S
N71 C67 1.413 . S
H72 C77 0.930 . S
H73 C80 0.930 . S
H74 C82 0.930 . S
H75 C76 1.016 . S
C76 H75 1.016 . S
C76 N83 1.286 . S
C77 H72 0.930 . S
C77 C78 1.397 . S
C77 C79 1.361 . S
C78 C77 1.397 . S
C78 C82 1.390 . S
C79 C77 1.361 . S
C79 C80 1.393 . S
C79 N83 1.413 . S
C80 H73 0.930 . S
C80 C79 1.393 . S
C80 C81 1.399 . S
C81 C80 1.399 . S
C81 C82 1.381 . S
C82 H74 0.930 . S
C82 C78 1.390 . S
C82 C81 1.381 . S
N83 C76 1.286 . S
N83 C79 1.413 . S
H84 C89 0.930 . S
H85 C92 0.930 . S
H86 C94 0.930 . S
H87 C88 1.016 . S
C88 H87 1.016 . S
C88 N95 1.286 . S
C89 H84 0.930 . S
C89 C90 1.397 . S
C89 C91 1.361 . S
C90 C89 1.397 . S
C90 C94 1.390 . S
C91 C89 1.361 . S
C91 C92 1.393 . S
C91 N95 1.413 . S
C92 H85 0.930 . S
C92 C91 1.393 . S
C92 C93 1.399 . S
C93 C92 1.399 . S
C93 C94 1.381 . S
C94 H86 0.930 . S
C94 C90 1.390 . S
C94 C93 1.381 . S
N95 C88 1.286 . S
N95 C91 1.413 . S
H96 C101 0.930 . S
H97 C104 0.930 . S
H98 C106 0.930 . S
H99 C100 1.016 . S
C100 H99 1.016 . S
C100 N107 1.286 . S
C101 H96 0.930 . S
C101 C102 1.397 . S
C101 C103 1.361 . S
C102 C101 1.397 . S
C102 C106 1.390 . S
C103 C101 1.361 . S
C103 C104 1.393 . S
C103 N107 1.413 . S
C104 H97 0.930 . S
C104 C103 1.393 . S
C104 C105 1.399 . S
C105 C104 1.399 . S
C105 C106 1.381 . S
C106 H98 0.930 . S
C106 C102 1.390 . S
C106 C105 1.381 . S
N107 C100 1.286 . S
N107 C103 1.413 . S
H108 C113 0.930 . S
H109 C116 0.930 . S
H110 C118 0.930 . S
H111 C112 1.016 . S
C112 H111 1.016 . S
C112 N119 1.286 . S
C113 H108 0.930 . S
C113 C114 1.397 . S
C113 C115 1.361 . S
C114 C113 1.397 . S
C114 C118 1.390 . S
C115 C113 1.361 . S
C115 C116 1.393 . S
C115 N119 1.413 . S
C116 H109 0.930 . S
C116 C115 1.393 . S
C116 C117 1.399 . S
C117 C116 1.399 . S
C117 C118 1.381 . S
C118 H110 0.930 . S
C118 C114 1.390 . S
C118 C117 1.381 . S
N119 C112 1.286 . S
N119 C115 1.413 . S
H120 C125 0.930 . S
H121 C128 0.930 . S
H122 C130 0.930 . S
H123 C124 1.016 . S
C124 H123 1.016 . S
C124 N131 1.286 . S
C125 H120 0.930 . S
C125 C126 1.397 . S
C125 C127 1.361 . S
C126 C125 1.397 . S
C126 C130 1.390 . S
C127 C125 1.361 . S
C127 C128 1.393 . S
C127 N131 1.413 . S
C128 H121 0.930 . S
C128 C127 1.393 . S
C128 C129 1.399 . S
C129 C128 1.399 . S
C129 C130 1.381 . S
C130 H122 0.930 . S
C130 C126 1.390 . S
C130 C129 1.381 . S
N131 C124 1.286 . S
N131 C127 1.413 . S
H132 C137 0.930 . S
H133 C140 0.930 . S
H134 C142 0.930 . S
H135 C136 1.016 . S
C136 H135 1.016 . S
C136 N143 1.286 . S
C137 H132 0.930 . S
C137 C138 1.397 . S
C137 C139 1.361 . S
C138 C137 1.397 . S
C138 C142 1.390 . S
C139 C137 1.361 . S
C139 C140 1.393 . S
C139 N143 1.413 . S
C140 H133 0.930 . S
C140 C139 1.393 . S
C140 C141 1.399 . S
C141 C140 1.399 . S
C141 C142 1.381 . S
C142 H134 0.930 . S
C142 C138 1.390 . S
C142 C141 1.381 . S
N143 C136 1.286 . S
N143 C139 1.413 . S
H144 C149 0.930 . S
H145 C152 0.930 . S
H146 C154 0.930 . S
H147 C148 1.016 . S
C148 H147 1.016 . S
C148 N155 1.286 . S
C149 H144 0.930 . S
C149 C150 1.397 . S
C149 C151 1.361 . S
C150 C149 1.397 . S
C150 C154 1.390 . S
C151 C149 1.361 . S
C151 C152 1.393 . S
C151 N155 1.413 . S
C152 H145 0.930 . S
C152 C151 1.393 . S
C152 C153 1.399 . S
C153 C152 1.399 . S
C153 C154 1.381 . S
C154 H146 0.930 . S
C154 C150 1.390 . S
C154 C153 1.381 . S
N155 C148 1.286 . S
N155 C151 1.413 . S
H156 C161 0.930 . S
H157 C164 0.930 . S
H158 C166 0.930 . S
H159 C160 1.016 . S
C160 H159 1.016 . S
C160 N167 1.286 . S
C161 H156 0.930 . S
C161 C162 1.397 . S
C161 C163 1.361 . S
C162 C161 1.397 . S
C162 C166 1.390 . S
C163 C161 1.361 . S
C163 C164 1.393 . S
C163 N167 1.413 . S
C164 H157 0.930 . S
C164 C163 1.393 . S
C164 C165 1.399 . S
C165 C164 1.399 . S
C165 C166 1.381 . S
C166 H158 0.930 . S
C166 C162 1.390 . S
C166 C165 1.381 . S
N167 C160 1.286 . S
N167 C163 1.413 . S
H168 C173 0.930 . S
H169 C176 0.930 . S
H170 C178 0.930 . S
H171 C172 1.016 . S
C172 H171 1.016 . S
C172 N179 1.286 . S
C173 H168 0.930 . S
C173 C174 1.397 . S
C173 C175 1.361 . S
C174 C173 1.397 . S
C174 C178 1.390 . S
C175 C173 1.361 . S
C175 C176 1.393 . S
C175 N179 1.413 . S
C176 H169 0.930 . S
C176 C175 1.393 . S
C176 C177 1.399 . S
C177 C176 1.399 . S
C177 C178 1.381 . S
C178 H170 0.930 . S
C178 C174 1.390 . S
C178 C177 1.381 . S
N179 C172 1.286 . S
N179 C175 1.413 . S
H180 C185 0.930 . S
H181 C188 0.930 . S
H182 C190 0.930 . S
H183 C184 1.016 . S
C184 H183 1.016 . S
C184 N191 1.286 . S
C185 H180 0.930 . S
C185 C186 1.397 . S
C185 C187 1.361 . S
C186 C185 1.397 . S
C186 C190 1.390 . S
C187 C185 1.361 . S
C187 C188 1.393 . S
C187 N191 1.413 . S
C188 H181 0.930 . S
C188 C187 1.393 . S
C188 C189 1.399 . S
C189 C188 1.399 . S
C189 C190 1.381 . S
C190 H182 0.930 . S
C190 C186 1.390 . S
C190 C189 1.381 . S
N191 C184 1.286 . S
N191 C187 1.413 . S
H192 C197 0.930 . S
H193 C200 0.930 . S
H194 C202 0.930 . S
H195 C196 1.016 . S
C196 H195 1.016 . S
C196 N203 1.286 . S
C197 H192 0.930 . S
C197 C198 1.397 . S
C197 C199 1.361 . S
C198 C197 1.397 . S
C198 C202 1.390 . S
C199 C197 1.361 . S
C199 C200 1.393 . S
C199 N203 1.413 . S
C200 H193 0.930 . S
C200 C199 1.393 . S
C200 C201 1.399 . S
C201 C200 1.399 . S
C201 C202 1.381 . S
C202 H194 0.930 . S
C202 C198 1.390 . S
C202 C201 1.381 . S
N203 C196 1.286 . S
N203 C199 1.413 . S
H204 C209 0.930 . S
H205 C212 0.930 . S
H206 C214 0.930 . S
H207 C208 1.016 . S
C208 H207 1.016 . S
C208 N215 1.286 . S
C209 H204 0.930 . S
C209 C210 1.397 . S
C209 C211 1.361 . S
C210 C209 1.397 . S
C210 C214 1.390 . S
C211 C209 1.361 . S
C211 C212 1.393 . S
C211 N215 1.413 . S
C212 H205 0.930 . S
C212 C211 1.393 . S
C212 C213 1.399 . S
C213 C212 1.399 . S
C213 C214 1.381 . S
C214 H206 0.930 . S
C214 C210 1.390 . S
C214 C213 1.381 . S
N215 C208 1.286 . S
N215 C211 1.413 . S
Tb216 N247 2.660 . S
Tb216 N254 2.600 . S
Tb216 O260 2.546 . S
Tb216 O261 2.610 1_566 S
Tb216 O263 2.320 1_565 S
Tb216 O264 2.552 1_565 S
Tb216 O265 2.413 1_565 S
Tb216 O267 2.362 1_556 S
Tb216 O268 2.421 . S
Tb216 C280 2.833 . S
C217 C220 1.432 . S
C217 C221 1.414 . S
C217 N224 1.359 . S
C218 C220 1.417 . S
C218 C222 1.432 . S
C218 C230 1.410 . S
C219 C221 1.444 . S
C219 C222 1.317 . S
C219 H242 0.929 . S
C220 C217 1.432 . S
C220 C218 1.417 . S
C220 N228 1.360 . S
C221 C217 1.414 . S
C221 C219 1.444 . S
C221 C226 1.385 . S
C222 C218 1.432 . S
C222 C219 1.317 . S
C222 H234 0.930 . S
C223 C225 1.392 . S
C223 C226 1.370 . S
C223 H235 0.931 . S
N224 C217 1.359 . S
N224 C225 1.327 . S
N224 Tb227 2.600 . S
C225 C223 1.392 . S
C225 N224 1.327 . S
C225 H232 0.930 . S
C226 C221 1.385 . S
C226 C223 1.370 . S
C226 H245 0.930 . S
Tb227 N224 2.600 . S
Tb227 N228 2.660 . S
Tb227 O261 2.362 . S
Tb227 O262 2.421 . S
Tb227 O266 2.546 . S
Tb227 O267 2.610 1_545 S
Tb227 O269 2.320 1_545 S
Tb227 O270 2.552 1_545 S
Tb227 O271 2.413 1_545 S
Tb227 C291 2.833 . S
N228 C220 1.360 . S
N228 Tb227 2.660 . S
N228 C229 1.305 . S
C229 N228 1.305 . S
C229 C231 1.407 . S
C229 H236 0.930 . S
C230 C218 1.410 . S
C230 C231 1.345 . S
C230 H238 0.930 . S
C231 C229 1.407 . S
C231 C230 1.345 . S
C231 H233 0.930 . S
H232 C225 0.930 . S
H233 C231 0.930 . S
H234 C222 0.930 . S
H235 C223 0.931 . S
H236 C229 0.930 . S
H237 C251 0.930 . S
H238 C230 0.930 . S
H239 C257 0.930 . S
H240 C248 0.930 . S
H241 C255 0.931 . S
H242 C219 0.929 . S
H243 C249 0.930 . S
H244 C282 0.930 . S
H245 C226 0.930 . S
H246 C281 0.929 . S
N247 Tb216 2.660 . S
N247 C248 1.305 . S
N247 C252 1.360 . S
C248 H240 0.930 . S
C248 N247 1.305 . S
C248 C251 1.407 . S
C249 H243 0.930 . S
C249 C250 1.410 . S
C249 C251 1.345 . S
C250 C249 1.410 . S
C250 C252 1.417 . S
C250 C282 1.432 . S
C251 H237 0.930 . S
C251 C248 1.407 . S
C251 C249 1.345 . S
C252 N247 1.360 . S
C252 C250 1.417 . S
C252 C256 1.432 . S
H253 C258 0.930 . S
N254 Tb216 2.600 . S
N254 C256 1.359 . S
N254 C257 1.327 . S
C255 H241 0.931 . S
C255 C257 1.392 . S
C255 C258 1.370 . S
C256 C252 1.432 . S
C256 N254 1.359 . S
C256 C259 1.414 . S
C257 H239 0.930 . S
C257 N254 1.327 . S
C257 C255 1.392 . S
C258 H253 0.930 . S
C258 C255 1.370 . S
C258 C259 1.385 . S
C259 C256 1.414 . S
C259 C258 1.385 . S
C259 C281 1.444 . S
O260 Tb216 2.546 . S
O260 C280 1.251 . S
O261 Tb216 2.610 1_544 S
O261 Tb227 2.362 . S
O261 C272 1.283 1_554 S
O262 Tb227 2.421 . S
O262 C279 1.262 1_554 S
O263 Tb216 2.320 1_545 S
O263 C279 1.260 . S
O264 Tb216 2.552 1_545 S
O264 C272 1.243 . S
O265 Tb216 2.413 1_545 S
O265 C280 1.256 1_545 S
O266 Tb227 2.546 . S
O266 C291 1.251 . S
O267 Tb216 2.362 1_554 S
O267 Tb227 2.610 1_565 S
O267 C283 1.283 . S
O268 Tb216 2.421 . S
O268 C290 1.262 1_556 S
O269 Tb227 2.320 1_565 S
O269 C290 1.260 . S
O270 Tb227 2.552 1_565 S
O270 C283 1.243 . S
O271 Tb227 2.413 1_565 S
O271 C291 1.256 1_565 S
C272 O261 1.283 1_556 S
C272 O264 1.243 . S
C273 C275 1.382 . S
C273 C277 1.393 1_545 S
C273 C280 1.500 1_545 S
C274 C275 1.400 . S
C274 C276 1.384 . S
C275 C273 1.382 . S
C275 C274 1.400 . S
C275 H292 0.930 . S
C276 C274 1.384 . S
C276 C278 1.392 1_545 S
C276 H293 0.931 . S
C277 C273 1.393 1_565 S
C277 C278 1.401 . S
C277 H294 0.930 . S
C278 C276 1.392 1_565 S
C278 C277 1.401 . S
C278 H295 0.930 . S
C279 O262 1.262 1_556 S
C279 O263 1.260 . S
C280 Tb216 2.833 . S
C280 O260 1.251 . S
C280 O265 1.256 1_565 S
C280 C273 1.500 1_565 S
C281 H246 0.929 . S
C281 C259 1.444 . S
C281 C282 1.317 . S
C282 H244 0.930 . S
C282 C250 1.432 . S
C282 C281 1.317 . S
C283 O267 1.283 . S
C283 O270 1.243 . S
C284 C285 1.382 1_545 S
C284 C288 1.393 . S
C284 C291 1.500 . S
C285 C284 1.382 1_565 S
C285 C286 1.400 . S
C285 H296 0.930 . S
C286 C285 1.400 . S
C286 C287 1.384 . S
C287 C286 1.384 . S
C287 C289 1.392 1_565 S
C287 H297 0.931 . S
C288 C284 1.393 . S
C288 C289 1.401 . S
C288 H298 0.930 . S
C289 C287 1.392 1_545 S
C289 C288 1.401 . S
C289 H299 0.930 . S
C290 O268 1.262 1_554 S
C290 O269 1.260 . S
C291 Tb227 2.833 . S
C291 O266 1.251 . S
C291 O271 1.256 1_545 S
C291 C284 1.500 . S
H292 C275 0.930 . S
H293 C276 0.931 . S
H294 C277 0.930 . S
H295 C278 0.930 . S
H296 C285 0.930 . S
H297 C287 0.931 . S
H298 C288 0.930 . S
H299 C289 0.930 . S
Tb300 N331 2.660 . S
Tb300 N338 2.600 . S
Tb300 O344 2.546 . S
Tb300 O345 2.610 1_456 S
Tb300 O347 2.320 1_455 S
Tb300 O348 2.552 1_455 S
Tb300 O349 2.410 1_455 S
Tb300 O351 2.362 1_556 S
Tb300 O352 2.421 . S
Tb300 C364 2.833 . S
C301 C304 1.432 . S
C301 C305 1.414 . S
C301 N308 1.359 . S
C302 C304 1.417 . S
C302 C306 1.432 . S
C302 C314 1.410 . S
C303 C305 1.444 . S
C303 C306 1.317 . S
C303 H326 0.929 . S
C304 C301 1.432 . S
C304 C302 1.417 . S
C304 N312 1.360 . S
C305 C301 1.414 . S
C305 C303 1.444 . S
C305 C310 1.385 . S
C306 C302 1.432 . S
C306 C303 1.317 . S
C306 H318 0.930 . S
C307 C309 1.392 . S
C307 C310 1.370 . S
C307 H319 0.931 . S
N308 C301 1.359 . S
N308 C309 1.327 . S
N308 Tb311 2.600 . S
C309 C307 1.392 . S
C309 N308 1.327 . S
C309 H316 0.930 . S
C310 C305 1.385 . S
C310 C307 1.370 . S
C310 H329 0.930 . S
Tb311 N308 2.600 . S
Tb311 N312 2.660 . S
Tb311 O345 2.362 . S
Tb311 O346 2.421 . S
Tb311 O350 2.546 . S
Tb311 O351 2.610 1_655 S
Tb311 O353 2.320 1_655 S
Tb311 O354 2.552 1_655 S
Tb311 O355 2.413 1_655 S
Tb311 C375 2.833 . S
N312 C304 1.360 . S
N312 Tb311 2.660 . S
N312 C313 1.305 . S
C313 N312 1.305 . S
C313 C315 1.407 . S
C313 H320 0.930 . S
C314 C302 1.410 . S
C314 C315 1.345 . S
C314 H322 0.930 . S
C315 C313 1.407 . S
C315 C314 1.345 . S
C315 H317 0.930 . S
H316 C309 0.930 . S
H317 C315 0.930 . S
H318 C306 0.930 . S
H319 C307 0.931 . S
H320 C313 0.930 . S
H321 C335 0.930 . S
H322 C314 0.930 . S
H323 C341 0.930 . S
H324 C332 0.930 . S
H325 C339 0.931 . S
H326 C303 0.929 . S
H327 C333 0.930 . S
H328 C366 0.930 . S
H329 C310 0.930 . S
H330 C365 0.929 . S
N331 Tb300 2.660 . S
N331 C332 1.305 . S
N331 C336 1.360 . S
C332 H324 0.930 . S
C332 N331 1.305 . S
C332 C335 1.407 . S
C333 H327 0.930 . S
C333 C334 1.410 . S
C333 C335 1.345 . S
C334 C333 1.410 . S
C334 C336 1.417 . S
C334 C366 1.432 . S
C335 H321 0.930 . S
C335 C332 1.407 . S
C335 C333 1.345 . S
C336 N331 1.360 . S
C336 C334 1.417 . S
C336 C340 1.432 . S
H337 C342 0.930 . S
N338 Tb300 2.600 . S
N338 C340 1.359 . S
N338 C341 1.327 . S
C339 H325 0.931 . S
C339 C341 1.392 . S
C339 C342 1.370 . S
C340 C336 1.432 . S
C340 N338 1.359 . S
C340 C343 1.414 . S
C341 H323 0.930 . S
C341 N338 1.327 . S
C341 C339 1.392 . S
C342 H337 0.930 . S
C342 C339 1.370 . S
C342 C343 1.385 . S
C343 C340 1.414 . S
C343 C342 1.385 . S
C343 C365 1.444 . S
O344 Tb300 2.546 . S
O344 C364 1.251 . S
O345 Tb300 2.610 1_654 S
O345 Tb311 2.362 . S
O345 C356 1.283 1_554 S
O346 Tb311 2.421 . S
O346 C363 1.262 1_554 S
O347 Tb300 2.320 1_655 S
O347 C363 1.260 . S
O348 Tb300 2.552 1_655 S
O348 C356 1.243 . S
O349 Tb300 2.410 1_655 S
O349 C364 1.258 1_655 S
O350 Tb311 2.546 . S
O350 C375 1.251 . S
O351 Tb300 2.362 1_554 S
O351 Tb311 2.610 1_455 S
O351 C367 1.283 . S
O352 Tb300 2.421 . S
O352 C374 1.262 1_556 S
O353 Tb311 2.320 1_455 S
O353 C374 1.260 . S
O354 Tb311 2.552 1_455 S
O354 C367 1.243 . S
O355 Tb311 2.413 1_455 S
O355 C375 1.256 1_455 S
C356 O345 1.283 1_556 S
C356 O348 1.243 . S
C357 C359 1.382 1_455 S
C357 C361 1.393 . S
C357 C364 1.500 . S
C358 C359 1.400 . S
C358 C360 1.384 . S
C359 C357 1.382 1_655 S
C359 C358 1.400 . S
C359 H376 0.930 . S
C360 C358 1.384 . S
C360 C362 1.392 1_655 S
C360 H377 0.931 . S
C361 C357 1.393 . S
C361 C362 1.401 . S
C361 H378 0.930 . S
C362 C360 1.392 1_455 S
C362 C361 1.401 . S
C362 H379 0.930 . S
C363 O346 1.262 1_556 S
C363 O347 1.260 . S
C364 Tb300 2.833 . S
C364 O344 1.251 . S
C364 O349 1.258 1_455 S
C364 C357 1.500 . S
C365 H330 0.929 . S
C365 C343 1.444 . S
C365 C366 1.317 . S
C366 H328 0.930 . S
C366 C334 1.432 . S
C366 C365 1.317 . S
C367 O351 1.283 . S
C367 O354 1.243 . S
C368 C369 1.382 . S
C368 C372 1.393 1_455 S
C368 C375 1.500 1_455 S
C369 C368 1.382 . S
C369 C370 1.400 . S
C369 H380 0.930 . S
C370 C369 1.400 . S
C370 C371 1.384 . S
C371 C370 1.384 . S
C371 C373 1.392 1_455 S
C371 H381 0.931 . S
C372 C368 1.393 1_655 S
C372 C373 1.401 . S
C372 H382 0.930 . S
C373 C371 1.392 1_655 S
C373 C372 1.401 . S
C373 H383 0.930 . S
C374 O352 1.262 1_554 S
C374 O353 1.260 . S
C375 Tb311 2.833 . S
C375 O350 1.251 . S
C375 O355 1.256 1_655 S
C375 C368 1.500 1_655 S
H376 C359 0.930 . S
H377 C360 0.931 . S
H378 C361 0.930 . S
H379 C362 0.930 . S
H380 C369 0.930 . S
H381 C371 0.931 . S
H382 C372 0.930 . S
H383 C373 0.930 . S
Tb384 N415 2.660 . S
Tb384 N422 2.600 . S
Tb384 O428 2.546 . S
Tb384 O429 2.610 . S
Tb384 O431 2.320 . S
Tb384 O432 2.552 . S
Tb384 O433 2.413 . S
Tb384 O435 2.362 . S
Tb384 O436 2.421 . S
Tb384 C448 2.833 . S
C385 C388 1.432 . S
C385 C389 1.414 . S
C385 N392 1.359 . S
C386 C388 1.417 . S
C386 C390 1.432 . S
C386 C398 1.410 . S
C387 C389 1.444 . S
C387 C390 1.317 . S
C387 H410 0.929 . S
C388 C385 1.432 . S
C388 C386 1.417 . S
C388 N396 1.360 . S
C389 C385 1.414 . S
C389 C387 1.444 . S
C389 C394 1.385 . S
C390 C386 1.432 . S
C390 C387 1.317 . S
C390 H402 0.930 . S
C391 C393 1.392 . S
C391 C394 1.370 . S
C391 H403 0.931 . S
N392 C385 1.359 . S
N392 C393 1.327 . S
N392 Tb395 2.600 . S
C393 C391 1.392 . S
C393 N392 1.327 . S
C393 H400 0.930 . S
C394 C389 1.385 . S
C394 C391 1.370 . S
C394 H413 0.930 . S
Tb395 N392 2.600 . S
Tb395 N396 2.660 . S
Tb395 O429 2.362 1_556 S
Tb395 O430 2.421 . S
Tb395 O434 2.546 . S
Tb395 O435 2.610 1_556 S
Tb395 O437 2.320 . S
Tb395 O438 2.552 . S
Tb395 O439 2.413 . S
Tb395 C459 2.833 . S
N396 C388 1.360 . S
N396 Tb395 2.660 . S
N396 C397 1.305 . S
C397 N396 1.305 . S
C397 C399 1.407 . S
C397 H404 0.930 . S
C398 C386 1.410 . S
C398 C399 1.345 . S
C398 H406 0.930 . S
C399 C397 1.407 . S
C399 C398 1.345 . S
C399 H401 0.930 . S
H400 C393 0.930 . S
H401 C399 0.930 . S
H402 C390 0.930 . S
H403 C391 0.931 . S
H404 C397 0.930 . S
H405 C419 0.930 . S
H406 C398 0.930 . S
H407 C425 0.930 . S
H408 C416 0.930 . S
H409 C423 0.931 . S
H410 C387 0.929 . S
H411 C417 0.930 . S
H412 C450 0.930 . S
H413 C394 0.930 . S
H414 C449 0.929 . S
N415 Tb384 2.660 . S
N415 C416 1.305 . S
N415 C420 1.360 . S
C416 H408 0.930 . S
C416 N415 1.305 . S
C416 C419 1.407 . S
C417 H411 0.930 . S
C417 C418 1.410 . S
C417 C419 1.345 . S
C418 C417 1.410 . S
C418 C420 1.417 . S
C418 C450 1.432 . S
C419 H405 0.930 . S
C419 C416 1.407 . S
C419 C417 1.345 . S
C420 N415 1.360 . S
C420 C418 1.417 . S
C420 C424 1.432 . S
H421 C426 0.930 . S
N422 Tb384 2.600 . S
N422 C424 1.359 . S
N422 C425 1.327 . S
C423 H409 0.931 . S
C423 C425 1.392 . S
C423 C426 1.370 . S
C424 C420 1.432 . S
C424 N422 1.359 . S
C424 C427 1.414 . S
C425 H407 0.930 . S
C425 N422 1.327 . S
C425 C423 1.392 . S
C426 H421 0.930 . S
C426 C423 1.370 . S
C426 C427 1.385 . S
C427 C424 1.414 . S
C427 C426 1.385 . S
C427 C449 1.444 . S
O428 Tb384 2.546 . S
O428 C448 1.251 . S
O429 Tb384 2.610 . S
O429 Tb395 2.362 1_554 S
O429 C440 1.283 . S
O430 Tb395 2.421 . S
O430 C447 1.262 1_556 S
O431 Tb384 2.320 . S
O431 C447 1.260 . S
O432 Tb384 2.552 . S
O432 C440 1.243 . S
O433 Tb384 2.413 . S
O433 C448 1.256 . S
O434 Tb395 2.546 . S
O434 C459 1.251 . S
O435 Tb384 2.362 . S
O435 Tb395 2.610 1_554 S
O435 C451 1.283 1_554 S
O436 Tb384 2.421 . S
O436 C458 1.262 1_554 S
O437 Tb395 2.320 . S
O437 C458 1.260 . S
O438 Tb395 2.552 . S
O438 C451 1.243 . S
O439 Tb395 2.413 . S
O439 C459 1.256 . S
C440 O429 1.283 . S
C440 O432 1.243 . S
C441 C443 1.382 . S
C441 C445 1.393 . S
C441 C448 1.500 . S
C442 C443 1.400 . S
C442 C444 1.384 . S
C443 C441 1.382 . S
C443 C442 1.400 . S
C443 H460 0.930 . S
C444 C442 1.384 . S
C444 C446 1.392 . S
C444 H461 0.931 . S
C445 C441 1.393 . S
C445 C446 1.401 . S
C445 H462 0.930 . S
C446 C444 1.392 . S
C446 C445 1.401 . S
C446 H463 0.930 . S
C447 O430 1.262 1_554 S
C447 O431 1.260 . S
C448 Tb384 2.833 . S
C448 O428 1.251 . S
C448 O433 1.256 . S
C448 C441 1.500 . S
C449 H414 0.929 . S
C449 C427 1.444 . S
C449 C450 1.317 . S
C450 H412 0.930 . S
C450 C418 1.432 . S
C450 C449 1.317 . S
C451 O435 1.283 1_556 S
C451 O438 1.243 . S
C452 C453 1.382 . S
C452 C456 1.393 . S
C452 C459 1.500 . S
C453 C452 1.382 . S
C453 C454 1.400 . S
C453 H464 0.930 . S
C454 C453 1.400 . S
C454 C455 1.384 . S
C455 C454 1.384 . S
C455 C457 1.392 . S
C455 H465 0.931 . S
C456 C452 1.393 . S
C456 C457 1.401 . S
C456 H466 0.930 . S
C457 C455 1.392 . S
C457 C456 1.401 . S
C457 H467 0.930 . S
C458 O436 1.262 1_556 S
C458 O437 1.260 . S
C459 Tb395 2.833 . S
C459 O434 1.251 . S
C459 O439 1.256 . S
C459 C452 1.500 . S
H460 C443 0.930 . S
H461 C444 0.931 . S
H462 C445 0.930 . S
H463 C446 0.930 . S
H464 C453 0.930 . S
H465 C455 0.931 . S
H466 C456 0.930 . S
H467 C457 0.930 . S
Tb468 N499 2.660 . S
Tb468 N506 2.600 . S
Tb468 O512 2.546 . S
Tb468 O513 2.610 . S
Tb468 O515 2.320 . S
Tb468 O516 2.552 . S
Tb468 O517 2.413 . S
Tb468 O519 2.362 . S
Tb468 O520 2.421 . S
Tb468 C532 2.833 . S
C469 C472 1.432 . S
C469 C473 1.414 . S
C469 N476 1.359 . S
C470 C472 1.417 . S
C470 C474 1.432 . S
C470 C482 1.410 . S
C471 C473 1.444 . S
C471 C474 1.317 . S
C471 H494 0.929 . S
C472 C469 1.432 . S
C472 C470 1.417 . S
C472 N480 1.360 . S
C473 C469 1.414 . S
C473 C471 1.444 . S
C473 C478 1.385 . S
C474 C470 1.432 . S
C474 C471 1.317 . S
C474 H486 0.930 . S
C475 C477 1.392 . S
C475 C478 1.370 . S
C475 H487 0.931 . S
N476 C469 1.359 . S
N476 C477 1.327 . S
N476 Tb479 2.600 . S
C477 C475 1.392 . S
C477 N476 1.327 . S
C477 H484 0.930 . S
C478 C473 1.385 . S
C478 C475 1.370 . S
C478 H497 0.930 . S
Tb479 N476 2.600 . S
Tb479 N480 2.660 . S
Tb479 O513 2.362 . S
Tb479 O514 2.421 . S
Tb479 O518 2.546 . S
Tb479 O519 2.610 . S
Tb479 O521 2.320 . S
Tb479 O522 2.552 . S
Tb479 O523 2.413 . S
Tb479 C543 2.833 . S
N480 C472 1.360 . S
N480 Tb479 2.660 . S
N480 C481 1.305 . S
C481 N480 1.305 . S
C481 C483 1.407 . S
C481 H488 0.930 . S
C482 C470 1.410 . S
C482 C483 1.345 . S
C482 H490 0.930 . S
C483 C481 1.407 . S
C483 C482 1.345 . S
C483 H485 0.930 . S
H484 C477 0.930 . S
H485 C483 0.930 . S
H486 C474 0.930 . S
H487 C475 0.931 . S
H488 C481 0.930 . S
H489 C503 0.930 . S
H490 C482 0.930 . S
H491 C509 0.930 . S
H492 C500 0.930 . S
H493 C507 0.931 . S
H494 C471 0.929 . S
H495 C501 0.930 . S
H496 C534 0.930 . S
H497 C478 0.930 . S
H498 C533 0.929 . S
N499 Tb468 2.660 . S
N499 C500 1.305 . S
N499 C504 1.360 . S
C500 H492 0.930 . S
C500 N499 1.305 . S
C500 C503 1.407 1_455 S
C501 H495 0.930 . S
C501 C502 1.410 . S
C501 C503 1.345 . S
C502 C501 1.410 . S
C502 C504 1.417 1_655 S
C502 C534 1.432 . S
C503 H489 0.930 . S
C503 C500 1.407 1_655 S
C503 C501 1.345 . S
C504 N499 1.360 . S
C504 C502 1.417 1_455 S
C504 C508 1.432 . S
H505 C510 0.930 . S
N506 Tb468 2.600 . S
N506 C508 1.359 . S
N506 C509 1.327 . S
C507 H493 0.931 . S
C507 C509 1.392 . S
C507 C510 1.370 . S
C508 C504 1.432 . S
C508 N506 1.359 . S
C508 C511 1.414 . S
C509 H491 0.930 . S
C509 N506 1.327 . S
C509 C507 1.392 . S
C510 H505 0.930 . S
C510 C507 1.370 . S
C510 C511 1.385 . S
C511 C508 1.414 . S
C511 C510 1.385 . S
C511 C533 1.444 1_455 S
O512 Tb468 2.546 . S
O512 C532 1.251 . S
O513 Tb468 2.610 . S
O513 Tb479 2.362 . S
O513 C524 1.283 . S
O514 Tb479 2.421 . S
O514 C531 1.262 . S
O515 Tb468 2.320 . S
O515 C531 1.260 . S
O516 Tb468 2.552 . S
O516 C524 1.243 . S
O517 Tb468 2.413 . S
O517 C532 1.256 . S
O518 Tb479 2.546 . S
O518 C543 1.251 . S
O519 Tb468 2.362 . S
O519 Tb479 2.610 . S
O519 C535 1.283 . S
O520 Tb468 2.421 . S
O520 C542 1.262 . S
O521 Tb479 2.320 . S
O521 C542 1.260 . S
O522 Tb479 2.552 . S
O522 C535 1.243 . S
O523 Tb479 2.413 . S
O523 C543 1.256 . S
C524 O513 1.283 . S
C524 O516 1.243 . S
C525 C527 1.382 . S
C525 C529 1.393 . S
C525 C532 1.500 . S
C526 C527 1.400 . S
C526 C528 1.384 . S
C527 C525 1.382 . S
C527 C526 1.400 . S
C527 H544 0.930 . S
C528 C526 1.384 . S
C528 C530 1.392 . S
C528 H545 0.931 . S
C529 C525 1.393 . S
C529 C530 1.401 . S
C529 H546 0.930 . S
C530 C528 1.392 . S
C530 C529 1.401 . S
C530 H547 0.930 . S
C531 O514 1.262 . S
C531 O515 1.260 . S
C532 Tb468 2.833 . S
C532 O512 1.251 . S
C532 O517 1.256 . S
C532 C525 1.500 . S
C533 H498 0.929 . S
C533 C511 1.444 1_655 S
C533 C534 1.317 . S
C534 H496 0.930 . S
C534 C502 1.432 . S
C534 C533 1.317 . S
C535 O519 1.283 . S
C535 O522 1.243 . S
C536 C537 1.382 . S
C536 C540 1.393 . S
C536 C543 1.500 . S
C537 C536 1.382 . S
C537 C538 1.400 . S
C537 H548 0.930 . S
C538 C537 1.400 . S
C538 C539 1.384 . S
C539 C538 1.384 . S
C539 C541 1.392 . S
C539 H549 0.931 . S
C540 C536 1.393 . S
C540 C541 1.401 . S
C540 H550 0.930 . S
C541 C539 1.392 . S
C541 C540 1.401 . S
C541 H551 0.930 . S
C542 O520 1.262 . S
C542 O521 1.260 . S
C543 Tb479 2.833 . S
C543 O518 1.251 . S
C543 O523 1.256 . S
C543 C536 1.500 . S
H544 C527 0.930 . S
H545 C528 0.931 . S
H546 C529 0.930 . S
H547 C530 0.930 . S
H548 C537 0.930 . S
H549 C539 0.931 . S
H550 C540 0.930 . S
H551 C541 0.930 . S
Tb552 N583 2.660 . S
Tb552 N590 2.600 . S
Tb552 O596 2.546 . S
Tb552 O597 2.610 . S
Tb552 O599 2.320 . S
Tb552 O600 2.552 . S
Tb552 O601 2.413 . S
Tb552 O603 2.362 . S
Tb552 O604 2.421 . S
Tb552 C616 2.833 . S
C553 C556 1.432 . S
C553 C557 1.414 . S
C553 N560 1.359 . S
C554 C556 1.417 . S
C554 C558 1.432 . S
C554 C566 1.410 . S
C555 C557 1.444 . S
C555 C558 1.317 . S
C555 H578 0.929 . S
C556 C553 1.432 . S
C556 C554 1.417 . S
C556 N564 1.360 . S
C557 C553 1.414 . S
C557 C555 1.444 . S
C557 C562 1.385 . S
C558 C554 1.432 . S
C558 C555 1.317 . S
C558 H570 0.930 . S
C559 C561 1.392 . S
C559 C562 1.370 . S
C559 H571 0.931 . S
N560 C553 1.359 . S
N560 C561 1.327 . S
N560 Tb563 2.600 . S
C561 C559 1.392 . S
C561 N560 1.327 . S
C561 H568 0.930 . S
C562 C557 1.385 . S
C562 C559 1.370 . S
C562 H581 0.930 . S
Tb563 N560 2.600 . S
Tb563 N564 2.660 . S
Tb563 O597 2.362 . S
Tb563 O598 2.421 . S
Tb563 O602 2.546 . S
Tb563 O603 2.610 . S
Tb563 O605 2.320 . S
Tb563 O606 2.552 . S
Tb563 O607 2.413 . S
Tb563 C627 2.833 . S
N564 C556 1.360 . S
N564 Tb563 2.660 . S
N564 C565 1.305 . S
C565 N564 1.305 . S
C565 C567 1.407 . S
C565 H572 0.930 . S
C566 C554 1.410 . S
C566 C567 1.345 . S
C566 H574 0.930 . S
C567 C565 1.407 . S
C567 C566 1.345 . S
C567 H569 0.930 . S
H568 C561 0.930 . S
H569 C567 0.930 . S
H570 C558 0.930 . S
H571 C559 0.931 . S
H572 C565 0.930 . S
H573 C587 0.930 . S
H574 C566 0.930 . S
H575 C593 0.930 . S
H576 C584 0.930 . S
H577 C591 0.931 . S
H578 C555 0.929 . S
H579 C585 0.930 . S
H580 C618 0.930 . S
H581 C562 0.930 . S
H582 C617 0.929 . S
N583 Tb552 2.660 . S
N583 C584 1.305 . S
N583 C588 1.360 . S
C584 H576 0.930 . S
C584 N583 1.305 . S
C584 C587 1.407 . S
C585 H579 0.930 . S
C585 C586 1.410 . S
C585 C587 1.345 . S
C586 C585 1.410 . S
C586 C588 1.417 . S
C586 C618 1.432 . S
C587 H573 0.930 . S
C587 C584 1.407 . S
C587 C585 1.345 . S
C588 N583 1.360 . S
C588 C586 1.417 . S
C588 C592 1.432 . S
H589 C594 0.930 . S
N590 Tb552 2.600 . S
N590 C592 1.359 . S
N590 C593 1.327 . S
C591 H577 0.931 . S
C591 C593 1.392 . S
C591 C594 1.370 . S
C592 C588 1.432 . S
C592 N590 1.359 . S
C592 C595 1.414 . S
C593 H575 0.930 . S
C593 N590 1.327 . S
C593 C591 1.392 . S
C594 H589 0.930 . S
C594 C591 1.370 . S
C594 C595 1.385 . S
C595 C592 1.414 . S
C595 C594 1.385 . S
C595 C617 1.444 . S
O596 Tb552 2.546 . S
O596 C616 1.251 . S
O597 Tb552 2.610 . S
O597 Tb563 2.362 . S
O597 C608 1.283 . S
O598 Tb563 2.421 . S
O598 C615 1.262 . S
O599 Tb552 2.320 . S
O599 C615 1.260 . S
O600 Tb552 2.552 . S
O600 C608 1.243 . S
O601 Tb552 2.413 . S
O601 C616 1.256 . S
O602 Tb563 2.546 . S
O602 C627 1.251 . S
O603 Tb552 2.362 . S
O603 Tb563 2.610 . S
O603 C619 1.283 . S
O604 Tb552 2.421 . S
O604 C626 1.262 . S
O605 Tb563 2.320 . S
O605 C626 1.260 . S
O606 Tb563 2.552 . S
O606 C619 1.243 . S
O607 Tb563 2.413 . S
O607 C627 1.256 . S
C608 O597 1.283 . S
C608 O600 1.243 . S
C609 C611 1.382 . S
C609 C613 1.393 . S
C609 C616 1.500 . S
C610 C611 1.400 . S
C610 C612 1.384 . S
C611 C609 1.382 . S
C611 C610 1.400 . S
C611 H628 0.930 . S
C612 C610 1.384 . S
C612 C614 1.392 . S
C612 H629 0.931 . S
C613 C609 1.393 . S
C613 C614 1.401 . S
C613 H630 0.930 . S
C614 C612 1.392 . S
C614 C613 1.401 . S
C614 H631 0.930 . S
C615 O598 1.262 . S
C615 O599 1.260 . S
C616 Tb552 2.833 . S
C616 O596 1.251 . S
C616 O601 1.256 . S
C616 C609 1.500 . S
C617 H582 0.929 . S
C617 C595 1.444 . S
C617 C618 1.317 . S
C618 H580 0.930 . S
C618 C586 1.432 . S
C618 C617 1.317 . S
C619 O603 1.283 . S
C619 O606 1.243 . S
C620 C621 1.382 . S
C620 C624 1.393 . S
C620 C627 1.500 . S
C621 C620 1.382 . S
C621 C622 1.400 . S
C621 H632 0.930 . S
C622 C621 1.400 . S
C622 C623 1.384 . S
C623 C622 1.384 . S
C623 C625 1.392 . S
C623 H633 0.931 . S
C624 C620 1.393 . S
C624 C625 1.401 . S
C624 H634 0.930 . S
C625 C623 1.392 . S
C625 C624 1.401 . S
C625 H635 0.930 . S
C626 O604 1.262 . S
C626 O605 1.260 . S
C627 Tb563 2.833 . S
C627 O602 1.251 . S
C627 O607 1.256 . S
C627 C620 1.500 . S
H628 C611 0.930 . S
H629 C612 0.931 . S
H630 C613 0.930 . S
H631 C614 0.930 . S
H632 C621 0.930 . S
H633 C623 0.931 . S
H634 C624 0.930 . S
H635 C625 0.930 . S
Tb636 N667 2.660 . S
Tb636 N674 2.600 . S
Tb636 O680 2.546 . S
Tb636 O681 2.610 . S
Tb636 O683 2.320 . S
Tb636 O684 2.552 . S
Tb636 O685 2.413 . S
Tb636 O687 2.362 . S
Tb636 O688 2.421 . S
Tb636 C700 2.833 . S
C637 C640 1.432 . S
C637 C641 1.414 . S
C637 N644 1.359 . S
C638 C640 1.417 . S
C638 C642 1.432 . S
C638 C650 1.410 . S
C639 C641 1.444 . S
C639 C642 1.317 . S
C639 H662 0.929 . S
C640 C637 1.432 . S
C640 C638 1.417 . S
C640 N648 1.360 . S
C641 C637 1.414 . S
C641 C639 1.444 . S
C641 C646 1.385 . S
C642 C638 1.432 . S
C642 C639 1.317 . S
C642 H654 0.930 . S
C643 C645 1.392 . S
C643 C646 1.370 . S
C643 H655 0.918 1_565 S
N644 C637 1.359 . S
N644 C645 1.327 . S
N644 Tb647 2.600 . S
C645 C643 1.392 . S
C645 N644 1.327 . S
C645 H652 0.930 . S
C646 C641 1.385 . S
C646 C643 1.370 . S
C646 H665 0.930 . S
Tb647 N644 2.600 . S
Tb647 N648 2.660 . S
Tb647 O681 2.362 . S
Tb647 O682 2.421 . S
Tb647 O686 2.546 . S
Tb647 O687 2.610 . S
Tb647 O689 2.320 . S
Tb647 O690 2.552 . S
Tb647 O691 2.413 . S
Tb647 C711 2.833 . S
N648 C640 1.360 . S
N648 Tb647 2.660 . S
N648 C649 1.305 . S
C649 N648 1.305 . S
C649 C651 1.407 . S
C649 H656 0.930 . S
C650 C638 1.410 . S
C650 C651 1.345 . S
C650 H658 0.930 . S
C651 C649 1.407 . S
C651 C650 1.345 . S
C651 H653 0.930 . S
H652 C645 0.930 . S
H653 C651 0.930 . S
H654 C642 0.930 . S
H655 C643 0.918 1_545 S
H656 C649 0.930 . S
H657 C671 0.930 . S
H658 C650 0.930 . S
H659 C677 0.930 . S
H660 C668 0.930 . S
H661 C675 0.931 . S
H662 C639 0.929 . S
H663 C669 0.930 . S
H664 C702 0.930 . S
H665 C646 0.930 . S
H666 C701 0.929 . S
N667 Tb636 2.660 . S
N667 C668 1.305 . S
N667 C672 1.360 . S
C668 H660 0.930 . S
C668 N667 1.305 . S
C668 C671 1.407 . S
C669 H663 0.930 . S
C669 C670 1.410 . S
C669 C671 1.345 . S
C670 C669 1.410 . S
C670 C672 1.417 . S
C670 C702 1.432 . S
C671 H657 0.930 . S
C671 C668 1.407 . S
C671 C669 1.345 . S
C672 N667 1.360 . S
C672 C670 1.417 . S
C672 C676 1.432 . S
H673 C678 0.930 . S
N674 Tb636 2.600 . S
N674 C676 1.359 . S
N674 C677 1.327 . S
C675 H661 0.931 . S
C675 C677 1.392 . S
C675 C678 1.370 . S
C676 C672 1.432 . S
C676 N674 1.359 . S
C676 C679 1.414 . S
C677 H659 0.930 . S
C677 N674 1.327 . S
C677 C675 1.392 . S
C678 H673 0.930 . S
C678 C675 1.370 . S
C678 C679 1.385 . S
C679 C676 1.414 . S
C679 C678 1.385 . S
C679 C701 1.444 . S
O680 Tb636 2.546 . S
O680 C700 1.251 . S
O681 Tb636 2.610 . S
O681 Tb647 2.362 . S
O681 C692 1.283 . S
O682 Tb647 2.421 . S
O682 C699 1.262 . S
O683 Tb636 2.320 . S
O683 C699 1.260 . S
O684 Tb636 2.552 . S
O684 C692 1.243 . S
O685 Tb636 2.413 . S
O685 C700 1.256 . S
O686 Tb647 2.546 . S
O686 C711 1.251 . S
O687 Tb636 2.362 . S
O687 Tb647 2.610 . S
O687 C703 1.283 . S
O688 Tb636 2.421 . S
O688 C710 1.262 . S
O689 Tb647 2.320 . S
O689 C710 1.260 . S
O690 Tb647 2.552 . S
O690 C703 1.243 . S
O691 Tb647 2.413 . S
O691 C711 1.256 . S
C692 O681 1.283 . S
C692 O684 1.243 . S
C693 C695 1.382 . S
C693 C697 1.393 . S
C693 C700 1.500 . S
C694 C695 1.400 . S
C694 C696 1.384 . S
C695 C693 1.382 . S
C695 C694 1.400 . S
C695 H712 0.930 . S
C696 C694 1.384 . S
C696 C698 1.392 . S
C696 H713 0.931 . S
C697 C693 1.393 . S
C697 C698 1.401 . S
C697 H714 0.930 . S
C698 C696 1.392 . S
C698 C697 1.401 . S
C698 H715 0.930 . S
C699 O682 1.262 . S
C699 O683 1.260 . S
C700 Tb636 2.833 . S
C700 O680 1.251 . S
C700 O685 1.256 . S
C700 C693 1.500 . S
C701 H666 0.929 . S
C701 C679 1.444 . S
C701 C702 1.317 . S
C702 H664 0.930 . S
C702 C670 1.432 . S
C702 C701 1.317 . S
C703 O687 1.283 . S
C703 O690 1.243 . S
C704 C705 1.382 . S
C704 C708 1.393 . S
C704 C711 1.500 . S
C705 C704 1.382 . S
C705 C706 1.400 . S
C705 H716 0.930 . S
C706 C705 1.400 . S
C706 C707 1.384 . S
C707 C706 1.384 . S
C707 C709 1.392 . S
C707 H717 0.931 . S
C708 C704 1.393 . S
C708 C709 1.401 . S
C708 H718 0.930 . S
C709 C707 1.392 . S
C709 C708 1.401 . S
C709 H719 0.930 . S
C710 O688 1.262 . S
C710 O689 1.260 . S
C711 Tb647 2.833 . S
C711 O686 1.251 . S
C711 O691 1.256 . S
C711 C704 1.500 . S
H712 C695 0.930 . S
H713 C696 0.931 . S
H714 C697 0.930 . S
H715 C698 0.930 . S
H716 C705 0.930 . S
H717 C707 0.931 . S
H718 C708 0.930 . S
H719 C709 0.930 . S
Tb720 N751 2.660 . S
Tb720 N758 2.600 . S
Tb720 O764 2.546 . S
Tb720 O765 2.610 . S
Tb720 O767 2.320 . S
Tb720 O768 2.552 . S
Tb720 O769 2.413 . S
Tb720 O771 2.362 . S
Tb720 O772 2.421 . S
Tb720 C784 2.833 . S
C721 C724 1.432 . S
C721 C725 1.414 . S
C721 N728 1.359 . S
C722 C724 1.417 . S
C722 C726 1.432 . S
C722 C734 1.410 . S
C723 C725 1.444 . S
C723 C726 1.317 . S
C723 H746 0.929 . S
C724 C721 1.432 . S
C724 C722 1.417 . S
C724 N732 1.360 . S
C725 C721 1.414 . S
C725 C723 1.444 . S
C725 C730 1.385 . S
C726 C722 1.432 . S
C726 C723 1.317 . S
C726 H738 0.930 . S
C727 C729 1.392 . S
C727 C730 1.370 . S
C727 H739 0.931 . S
N728 C721 1.359 . S
N728 C729 1.327 . S
N728 Tb731 2.600 . S
C729 C727 1.392 . S
C729 N728 1.327 . S
C729 H736 0.930 . S
C730 C725 1.385 . S
C730 C727 1.370 . S
C730 H749 0.930 . S
Tb731 N728 2.600 . S
Tb731 N732 2.660 . S
Tb731 O765 2.362 . S
Tb731 O766 2.421 . S
Tb731 O770 2.546 . S
Tb731 O771 2.610 . S
Tb731 O773 2.320 . S
Tb731 O774 2.552 . S
Tb731 O775 2.413 . S
Tb731 C795 2.833 . S
N732 C724 1.360 . S
N732 Tb731 2.660 . S
N732 C733 1.305 . S
C733 N732 1.305 . S
C733 C735 1.407 . S
C733 H740 0.930 . S
C734 C722 1.410 . S
C734 C735 1.345 . S
C734 H742 0.930 . S
C735 C733 1.407 . S
C735 C734 1.345 . S
C735 H737 0.930 . S
H736 C729 0.930 . S
H737 C735 0.930 . S
H738 C726 0.930 . S
H739 C727 0.931 . S
H740 C733 0.930 . S
H741 C755 0.930 . S
H742 C734 0.930 . S
H743 C761 0.930 . S
H744 C752 0.930 . S
H745 C759 0.931 . S
H746 C723 0.929 . S
H747 C753 0.930 . S
H748 C786 0.930 . S
H749 C730 0.930 . S
H750 C785 0.929 . S
N751 Tb720 2.660 . S
N751 C752 1.305 . S
N751 C756 1.360 . S
C752 H744 0.930 . S
C752 N751 1.305 . S
C752 C755 1.407 . S
C753 H747 0.930 . S
C753 C754 1.410 . S
C753 C755 1.345 . S
C754 C753 1.410 . S
C754 C756 1.417 . S
C754 C786 1.432 . S
C755 H741 0.930 . S
C755 C752 1.407 . S
C755 C753 1.345 . S
C756 N751 1.360 . S
C756 C754 1.417 . S
C756 C760 1.432 . S
H757 C762 0.930 . S
N758 Tb720 2.600 . S
N758 C760 1.359 . S
N758 C761 1.327 . S
C759 H745 0.931 . S
C759 C761 1.392 . S
C759 C762 1.370 . S
C760 C756 1.432 . S
C760 N758 1.359 . S
C760 C763 1.414 . S
C761 H743 0.930 . S
C761 N758 1.327 . S
C761 C759 1.392 . S
C762 H757 0.930 . S
C762 C759 1.370 . S
C762 C763 1.385 . S
C763 C760 1.414 . S
C763 C762 1.385 . S
C763 C785 1.444 . S
O764 Tb720 2.546 . S
O764 C784 1.251 . S
O765 Tb720 2.610 . S
O765 Tb731 2.362 . S
O765 C776 1.283 . S
O766 Tb731 2.421 . S
O766 C783 1.262 . S
O767 Tb720 2.320 . S
O767 C783 1.260 . S
O768 Tb720 2.552 . S
O768 C776 1.243 . S
O769 Tb720 2.413 . S
O769 C784 1.256 . S
O770 Tb731 2.546 . S
O770 C795 1.251 . S
O771 Tb720 2.362 . S
O771 Tb731 2.610 . S
O771 C787 1.283 . S
O772 Tb720 2.421 . S
O772 C794 1.262 . S
O773 Tb731 2.320 . S
O773 C794 1.260 . S
O774 Tb731 2.552 . S
O774 C787 1.243 . S
O775 Tb731 2.413 . S
O775 C795 1.256 . S
C776 O765 1.283 . S
C776 O768 1.243 . S
C777 C779 1.382 . S
C777 C781 1.393 . S
C777 C784 1.500 . S
C778 C779 1.400 . S
C778 C780 1.384 . S
C779 C777 1.382 . S
C779 C778 1.400 . S
C779 H796 0.930 . S
C780 C778 1.384 . S
C780 C782 1.392 . S
C780 H797 0.931 . S
C781 C777 1.393 . S
C781 C782 1.401 . S
C781 H798 0.930 . S
C782 C780 1.392 . S
C782 C781 1.401 . S
C782 H799 0.930 . S
C783 O766 1.262 . S
C783 O767 1.260 . S
C784 Tb720 2.833 . S
C784 O764 1.251 . S
C784 O769 1.256 . S
C784 C777 1.500 . S
C785 H750 0.929 . S
C785 C763 1.444 . S
C785 C786 1.317 . S
C786 H748 0.930 . S
C786 C754 1.432 . S
C786 C785 1.317 . S
C787 O771 1.283 . S
C787 O774 1.243 . S
C788 C789 1.382 . S
C788 C792 1.393 . S
C788 C795 1.500 . S
C789 C788 1.382 . S
C789 C790 1.400 . S
C789 H800 0.930 . S
C790 C789 1.400 . S
C790 C791 1.384 . S
C791 C790 1.384 . S
C791 C793 1.392 . S
C791 H801 0.931 . S
C792 C788 1.393 . S
C792 C793 1.401 . S
C792 H802 0.930 . S
C793 C791 1.392 . S
C793 C792 1.401 . S
C793 H803 0.930 . S
C794 O772 1.262 . S
C794 O773 1.260 . S
C795 Tb731 2.833 . S
C795 O770 1.251 . S
C795 O775 1.256 . S
C795 C788 1.500 . S
H796 C779 0.930 . S
H797 C780 0.931 . S
H798 C781 0.930 . S
H799 C782 0.930 . S
H800 C789 0.930 . S
H801 C791 0.931 . S
H802 C792 0.930 . S
H803 C793 0.930 . S
Tb804 N835 2.660 . S
Tb804 N842 2.600 . S
Tb804 O848 2.546 . S
Tb804 O849 2.610 . S
Tb804 O851 2.320 . S
Tb804 O852 2.552 . S
Tb804 O853 2.413 . S
Tb804 O855 2.362 . S
Tb804 O856 2.421 . S
Tb804 C868 2.833 . S
C805 C808 1.432 . S
C805 C809 1.414 . S
C805 N812 1.359 . S
C806 C808 1.417 . S
C806 C810 1.432 . S
C806 C818 1.410 . S
C807 C809 1.444 . S
C807 C810 1.317 . S
C807 H830 0.929 . S
C808 C805 1.432 . S
C808 C806 1.417 . S
C808 N816 1.360 . S
C809 C805 1.414 . S
C809 C807 1.444 . S
C809 C814 1.385 . S
C810 C806 1.432 . S
C810 C807 1.317 . S
C810 H822 0.930 . S
C811 C813 1.392 . S
C811 C814 1.370 . S
C811 H823 0.931 . S
N812 C805 1.359 . S
N812 C813 1.327 . S
N812 Tb815 2.600 . S
C813 C811 1.392 . S
C813 N812 1.327 . S
C813 H820 0.930 . S
C814 C809 1.385 . S
C814 C811 1.370 . S
C814 H833 0.930 . S
Tb815 N812 2.600 . S
Tb815 N816 2.660 . S
Tb815 O849 2.362 . S
Tb815 O850 2.421 . S
Tb815 O854 2.546 . S
Tb815 O855 2.610 . S
Tb815 O857 2.320 . S
Tb815 O858 2.552 . S
Tb815 O859 2.413 . S
Tb815 C879 2.833 . S
N816 C808 1.360 . S
N816 Tb815 2.660 . S
N816 C817 1.305 . S
C817 N816 1.305 . S
C817 C819 1.407 . S
C817 H824 0.930 . S
C818 C806 1.410 . S
C818 C819 1.345 . S
C818 H826 0.930 . S
C819 C817 1.407 . S
C819 C818 1.345 . S
C819 H821 0.930 . S
H820 C813 0.930 . S
H821 C819 0.930 . S
H822 C810 0.930 . S
H823 C811 0.931 . S
H824 C817 0.930 . S
H825 C839 0.930 . S
H826 C818 0.930 . S
H827 C845 0.930 . S
H828 C836 0.930 . S
H829 C843 0.931 . S
H830 C807 0.929 . S
H831 C837 0.930 . S
H832 C870 0.930 . S
H833 C814 0.930 . S
H834 C869 0.929 . S
N835 Tb804 2.660 . S
N835 C836 1.305 . S
N835 C840 1.360 . S
C836 H828 0.930 . S
C836 N835 1.305 . S
C836 C839 1.407 . S
C837 H831 0.930 . S
C837 C838 1.410 . S
C837 C839 1.345 . S
C838 C837 1.410 . S
C838 C840 1.417 . S
C838 C870 1.432 . S
C839 H825 0.930 . S
C839 C836 1.407 . S
C839 C837 1.345 . S
C840 N835 1.360 . S
C840 C838 1.417 . S
C840 C844 1.432 . S
H841 C846 0.930 . S
N842 Tb804 2.600 . S
N842 C844 1.359 . S
N842 C845 1.327 . S
C843 H829 0.931 . S
C843 C845 1.392 . S
C843 C846 1.370 . S
C844 C840 1.432 . S
C844 N842 1.359 . S
C844 C847 1.414 . S
C845 H827 0.930 . S
C845 N842 1.327 . S
C845 C843 1.392 . S
C846 H841 0.930 . S
C846 C843 1.370 . S
C846 C847 1.385 . S
C847 C844 1.414 . S
C847 C846 1.385 . S
C847 C869 1.444 . S
O848 Tb804 2.546 . S
O848 C868 1.251 . S
O849 Tb804 2.610 . S
O849 Tb815 2.362 . S
O849 C860 1.283 . S
O850 Tb815 2.421 . S
O850 C867 1.262 . S
O851 Tb804 2.320 . S
O851 C867 1.260 . S
O852 Tb804 2.552 . S
O852 C860 1.243 . S
O853 Tb804 2.413 . S
O853 C868 1.256 . S
O854 Tb815 2.546 . S
O854 C879 1.251 . S
O855 Tb804 2.362 . S
O855 Tb815 2.610 . S
O855 C871 1.283 . S
O856 Tb804 2.421 . S
O856 C878 1.262 . S
O857 Tb815 2.320 . S
O857 C878 1.260 . S
O858 Tb815 2.552 . S
O858 C871 1.243 . S
O859 Tb815 2.413 . S
O859 C879 1.256 . S
C860 O849 1.283 . S
C860 O852 1.243 . S
C861 C863 1.382 . S
C861 C865 1.393 . S
C861 C868 1.500 . S
C862 C863 1.400 . S
C862 C864 1.384 . S
C863 C861 1.382 . S
C863 C862 1.400 . S
C863 H880 0.930 . S
C864 C862 1.384 . S
C864 C866 1.392 . S
C864 H881 0.931 . S
C865 C861 1.393 . S
C865 C866 1.401 . S
C865 H882 0.930 . S
C866 C864 1.392 . S
C866 C865 1.401 . S
C866 H883 0.930 . S
C867 O850 1.262 . S
C867 O851 1.260 . S
C868 Tb804 2.833 . S
C868 O848 1.251 . S
C868 O853 1.256 . S
C868 C861 1.500 . S
C869 H834 0.929 . S
C869 C847 1.444 . S
C869 C870 1.317 . S
C870 H832 0.930 . S
C870 C838 1.432 . S
C870 C869 1.317 . S
C871 O855 1.283 . S
C871 O858 1.243 . S
C872 C873 1.382 . S
C872 C876 1.393 . S
C872 C879 1.500 . S
C873 C872 1.382 . S
C873 C874 1.400 . S
C873 H884 0.930 . S
C874 C873 1.400 . S
C874 C875 1.384 . S
C875 C874 1.384 . S
C875 C877 1.392 . S
C875 H885 0.931 . S
C876 C872 1.393 . S
C876 C877 1.401 . S
C876 H886 0.930 . S
C877 C875 1.392 . S
C877 C876 1.401 . S
C877 H887 0.930 . S
C878 O856 1.262 . S
C878 O857 1.260 . S
C879 Tb815 2.833 . S
C879 O854 1.251 . S
C879 O859 1.256 . S
C879 C872 1.500 . S
H880 C863 0.930 . S
H881 C864 0.931 . S
H882 C865 0.930 . S
H883 C866 0.930 . S
H884 C873 0.930 . S
H885 C875 0.931 . S
H886 C876 0.930 . S
H887 C877 0.930 . S
Tb888 N919 2.660 . S
Tb888 N926 2.600 . S
Tb888 O932 2.546 . S
Tb888 O933 2.610 . S
Tb888 O935 2.320 . S
Tb888 O936 2.552 . S
Tb888 O937 2.413 . S
Tb888 O939 2.362 . S
Tb888 O940 2.421 . S
Tb888 C952 2.833 . S
C889 C892 1.432 . S
C889 C893 1.414 . S
C889 N896 1.359 . S
C890 C892 1.417 . S
C890 C894 1.432 . S
C890 C902 1.410 . S
C891 C893 1.444 . S
C891 C894 1.317 . S
C891 H914 0.929 . S
C892 C889 1.432 . S
C892 C890 1.417 . S
C892 N900 1.360 . S
C893 C889 1.414 . S
C893 C891 1.444 . S
C893 C898 1.385 . S
C894 C890 1.432 . S
C894 C891 1.317 . S
C894 H906 0.930 . S
C895 C897 1.392 . S
C895 C898 1.370 . S
C895 H907 0.931 . S
N896 C889 1.359 . S
N896 C897 1.327 . S
N896 Tb899 2.600 . S
C897 C895 1.392 . S
C897 N896 1.327 . S
C897 H904 0.930 . S
C898 C893 1.385 . S
C898 C895 1.370 . S
C898 H917 0.930 . S
Tb899 N896 2.600 . S
Tb899 N900 2.660 . S
Tb899 O933 2.362 . S
Tb899 O934 2.421 . S
Tb899 O938 2.546 . S
Tb899 O939 2.610 . S
Tb899 O941 2.320 . S
Tb899 O942 2.552 . S
Tb899 O943 2.413 . S
Tb899 C963 2.833 . S
N900 C892 1.360 . S
N900 Tb899 2.660 . S
N900 C901 1.305 . S
C901 N900 1.305 . S
C901 C903 1.407 . S
C901 H908 0.930 . S
C902 C890 1.410 . S
C902 C903 1.345 . S
C902 H910 0.930 . S
C903 C901 1.407 . S
C903 C902 1.345 . S
C903 H905 0.930 . S
H904 C897 0.930 . S
H905 C903 0.930 . S
H906 C894 0.930 . S
H907 C895 0.931 . S
H908 C901 0.930 . S
H909 C923 0.930 . S
H910 C902 0.930 . S
H911 C929 0.930 . S
H912 C920 0.930 . S
H913 C927 0.931 . S
H914 C891 0.929 . S
H915 C921 0.930 . S
H916 C954 0.930 . S
H917 C898 0.930 . S
H918 C953 0.929 . S
N919 Tb888 2.660 . S
N919 C920 1.305 . S
N919 C924 1.360 . S
C920 H912 0.930 . S
C920 N919 1.305 . S
C920 C923 1.407 1_655 S
C921 H915 0.930 . S
C921 C922 1.410 . S
C921 C923 1.345 . S
C922 C921 1.410 . S
C922 C924 1.417 1_455 S
C922 C954 1.432 . S
C923 H909 0.930 . S
C923 C920 1.407 1_455 S
C923 C921 1.345 . S
C924 N919 1.360 . S
C924 C922 1.417 1_655 S
C924 C928 1.432 . S
H925 C930 0.930 . S
N926 Tb888 2.600 . S
N926 C928 1.359 . S
N926 C929 1.327 . S
C927 H913 0.931 . S
C927 C929 1.392 . S
C927 C930 1.370 . S
C928 C924 1.432 . S
C928 N926 1.359 . S
C928 C931 1.414 . S
C929 H911 0.930 . S
C929 N926 1.327 . S
C929 C927 1.392 . S
C930 H925 0.930 . S
C930 C927 1.370 . S
C930 C931 1.385 . S
C931 C928 1.414 . S
C931 C930 1.385 . S
C931 C953 1.444 1_655 S
O932 Tb888 2.546 . S
O932 C952 1.251 . S
O933 Tb888 2.610 . S
O933 Tb899 2.362 . S
O933 C944 1.283 . S
O934 Tb899 2.421 . S
O934 C951 1.262 . S
O935 Tb888 2.320 . S
O935 C951 1.260 . S
O936 Tb888 2.552 . S
O936 C944 1.243 . S
O937 Tb888 2.413 . S
O937 C952 1.256 . S
O938 Tb899 2.546 . S
O938 C963 1.251 . S
O939 Tb888 2.362 . S
O939 Tb899 2.610 . S
O939 C955 1.283 . S
O940 Tb888 2.421 . S
O940 C962 1.262 . S
O941 Tb899 2.320 . S
O941 C962 1.260 . S
O942 Tb899 2.552 . S
O942 C955 1.243 . S
O943 Tb899 2.413 . S
O943 C963 1.256 . S
C944 O933 1.283 . S
C944 O936 1.243 . S
C945 C947 1.382 . S
C945 C949 1.393 . S
C945 C952 1.500 . S
C946 C947 1.400 . S
C946 C948 1.384 . S
C947 C945 1.382 . S
C947 C946 1.400 . S
C947 H964 0.930 . S
C948 C946 1.384 . S
C948 C950 1.392 . S
C948 H965 0.931 . S
C949 C945 1.393 . S
C949 C950 1.401 . S
C949 H966 0.930 . S
C950 C948 1.392 . S
C950 C949 1.401 . S
C950 H967 0.930 . S
C951 O934 1.262 . S
C951 O935 1.260 . S
C952 Tb888 2.833 . S
C952 O932 1.251 . S
C952 O937 1.256 . S
C952 C945 1.500 . S
C953 H918 0.929 . S
C953 C931 1.444 1_455 S
C953 C954 1.317 . S
C954 H916 0.930 . S
C954 C922 1.432 . S
C954 C953 1.317 . S
C955 O939 1.283 . S
C955 O942 1.243 . S
C956 C957 1.382 . S
C956 C960 1.393 . S
C956 C963 1.500 . S
C957 C956 1.382 . S
C957 C958 1.400 . S
C957 H968 0.930 . S
C958 C957 1.400 . S
C958 C959 1.384 . S
C959 C958 1.384 . S
C959 C961 1.392 . S
C959 H969 0.931 . S
C960 C956 1.393 . S
C960 C961 1.401 . S
C960 H970 0.930 . S
C961 C959 1.392 . S
C961 C960 1.401 . S
C961 H971 0.930 . S
C962 O940 1.262 . S
C962 O941 1.260 . S
C963 Tb899 2.833 . S
C963 O938 1.251 . S
C963 O943 1.256 . S
C963 C956 1.500 . S
H964 C947 0.930 . S
H965 C948 0.931 . S
H966 C949 0.930 . S
H967 C950 0.930 . S
H968 C957 0.930 . S
H969 C959 0.931 . S
H970 C960 0.930 . S
H971 C961 0.930 . S
C972 C973 1.363 . S
C972 C978 1.379 . S
C972 N980 1.356 . S
C973 C972 1.363 . S
C973 C979 1.363 . S
C974 C975 1.363 . S
C974 C979 1.379 . S
C974 N981 1.356 . S
C975 C974 1.363 . S
C975 C978 1.363 . S
N976 C978 1.356 . S
N976 H988 0.984 . S
N976 H989 0.985 . S
N977 C979 1.356 . S
N977 H982 0.984 . S
N977 H983 0.985 . S
C978 C972 1.379 . S
C978 C975 1.363 . S
C978 N976 1.356 . S
C979 C973 1.363 . S
C979 C974 1.379 . S
C979 N977 1.356 . S
N980 C972 1.356 . S
N980 H986 0.984 . S
N980 H987 0.984 . S
N981 C974 1.356 . S
N981 H984 0.984 . S
N981 H985 0.985 . S
H982 N977 0.984 . S
H983 N977 0.985 . S
H984 N981 0.984 . S
H985 N981 0.985 . S
H986 N980 0.984 . S
H987 N980 0.984 . S
H988 N976 0.984 . S
H989 N976 0.985 . S
C990 C991 1.363 . S
C990 C996 1.379 . S
C990 N998 1.356 . S
C991 C990 1.363 . S
C991 C997 1.363 . S
C992 C993 1.363 . S
C992 C997 1.379 . S
C992 N999 1.356 . S
C993 C992 1.363 . S
C993 C996 1.363 . S
N994 C996 1.356 . S
N994 H1006 0.984 . S
N994 H1007 0.985 . S
N995 C997 1.356 . S
N995 H1000 0.984 . S
N995 H1001 0.985 . S
C996 C990 1.379 . S
C996 C993 1.363 . S
C996 N994 1.356 . S
C997 C991 1.363 . S
C997 C992 1.379 . S
C997 N995 1.356 . S
N998 C990 1.356 . S
N998 H1004 0.984 . S
N998 H1005 0.984 . S
N999 C992 1.356 . S
N999 H1002 0.984 . S
N999 H1003 0.985 . S
H1000 N995 0.984 . S
H1001 N995 0.985 . S
H1002 N999 0.984 . S
H1003 N999 0.985 . S
H1004 N998 0.984 . S
H1005 N998 0.984 . S
H1006 N994 0.984 . S
H1007 N994 0.985 . S
C1008 C1009 1.363 . S
C1008 C1014 1.379 . S
C1008 N1016 1.356 . S
C1009 C1008 1.363 . S
C1009 C1015 1.363 . S
C1010 C1011 1.363 . S
C1010 C1015 1.379 . S
C1010 N1017 1.356 1_554 S
C1011 C1010 1.363 . S
C1011 C1014 1.363 . S
N1012 C1014 1.356 . S
N1012 H1024 0.984 . S
N1012 H1025 0.985 . S
N1013 C1015 1.356 . S
N1013 H1018 0.984 . S
N1013 H1019 0.985 1_554 S
C1014 C1008 1.379 . S
C1014 C1011 1.363 . S
C1014 N1012 1.356 . S
C1015 C1009 1.363 . S
C1015 C1010 1.379 . S
C1015 N1013 1.356 . S
N1016 C1008 1.356 . S
N1016 H1022 0.984 . S
N1016 H1023 0.984 . S
N1017 C1010 1.356 1_556 S
N1017 H1020 0.984 . S
N1017 H1021 0.985 . S
H1018 N1013 0.984 . S
H1019 N1013 0.985 1_556 S
H1020 N1017 0.984 . S
H1021 N1017 0.985 . S
H1022 N1016 0.984 . S
H1023 N1016 0.984 . S
H1024 N1012 0.984 . S
H1025 N1012 0.985 . S
C1026 C1027 1.363 . S
C1026 C1032 1.379 . S
C1026 N1034 1.356 . S
C1027 C1026 1.363 . S
C1027 C1033 1.363 . S
C1028 C1029 1.363 . S
C1028 C1033 1.379 . S
C1028 N1035 1.356 . S
C1029 C1028 1.363 . S
C1029 C1032 1.363 . S
N1030 C1032 1.356 1_554 S
N1030 H1042 0.984 . S
N1030 H1043 0.985 . S
N1031 C1033 1.356 . S
N1031 H1036 0.984 . S
N1031 H1037 0.985 . S
C1032 C1026 1.379 . S
C1032 C1029 1.363 . S
C1032 N1030 1.356 1_556 S
C1033 C1027 1.363 . S
C1033 C1028 1.379 . S
C1033 N1031 1.356 . S
N1034 C1026 1.356 . S
N1034 H1040 0.984 1_556 S
N1034 H1041 0.984 . S
N1035 C1028 1.356 . S
N1035 H1038 0.984 . S
N1035 H1039 0.985 . S
H1036 N1031 0.984 . S
H1037 N1031 0.985 . S
H1038 N1035 0.984 . S
H1039 N1035 0.985 . S
H1040 N1034 0.984 1_554 S
H1041 N1034 0.984 . S
H1042 N1030 0.984 . S
H1043 N1030 0.985 . S
C1044 C1045 1.363 . S
C1044 C1050 1.379 . S
C1044 N1052 1.356 . S
C1045 C1044 1.363 . S
C1045 C1051 1.363 . S
C1046 C1047 1.363 . S
C1046 C1051 1.379 . S
C1046 N1053 1.356 . S
C1047 C1046 1.363 . S
C1047 C1050 1.363 . S
N1048 C1050 1.356 . S
N1048 H1060 0.984 . S
N1048 H1061 0.985 . S
N1049 C1051 1.356 . S
N1049 H1054 0.984 . S
N1049 H1055 0.985 . S
C1050 C1044 1.379 . S
C1050 C1047 1.363 . S
C1050 N1048 1.356 . S
C1051 C1045 1.363 . S
C1051 C1046 1.379 . S
C1051 N1049 1.356 . S
N1052 C1044 1.356 . S
N1052 H1058 0.984 . S
N1052 H1059 0.984 . S
N1053 C1046 1.356 . S
N1053 H1056 0.984 . S
N1053 H1057 0.985 . S
H1054 N1049 0.984 . S
H1055 N1049 0.985 . S
H1056 N1053 0.984 . S
H1057 N1053 0.985 . S
H1058 N1052 0.984 . S
H1059 N1052 0.984 . S
H1060 N1048 0.984 . S
H1061 N1048 0.985 . S
C1062 C1063 1.363 . S
C1062 C1068 1.379 . S
C1062 N1070 1.356 . S
C1063 C1062 1.363 . S
C1063 C1069 1.363 . S
C1064 C1065 1.363 1_554 S
C1064 C1069 1.379 1_554 S
C1064 N1071 1.356 . S
C1065 C1064 1.363 1_556 S
C1065 C1068 1.363 . S
N1066 C1068 1.356 . S
N1066 H1078 0.984 . S
N1066 H1079 0.985 . S
N1067 C1069 1.356 1_554 S
N1067 H1072 0.984 1_554 S
N1067 H1073 0.985 . S
C1068 C1062 1.379 . S
C1068 C1065 1.363 . S
C1068 N1066 1.356 . S
C1069 C1063 1.363 . S
C1069 C1064 1.379 1_556 S
C1069 N1067 1.356 1_556 S
N1070 C1062 1.356 . S
N1070 H1076 0.984 . S
N1070 H1077 0.984 . S
N1071 C1064 1.356 . S
N1071 H1074 0.984 . S
N1071 H1075 0.985 . S
H1072 N1067 0.984 1_556 S
H1073 N1067 0.985 . S
H1074 N1071 0.984 . S
H1075 N1071 0.985 . S
H1076 N1070 0.984 . S
H1077 N1070 0.984 . S
H1078 N1066 0.984 . S
H1079 N1066 0.985 . S
C1080 C1081 1.363 . S
C1080 C1086 1.379 . S
C1080 N1088 1.356 . S
C1081 C1080 1.363 . S
C1081 C1087 1.363 . S
C1082 C1083 1.357 1_554 S
C1082 C1087 1.376 1_554 S
C1082 N1089 1.364 . S
C1083 C1082 1.357 1_556 S
C1083 C1086 1.363 . S
N1084 C1086 1.356 . S
N1084 H1096 0.984 . S
N1084 H1097 0.985 . S
N1085 C1087 1.356 1_554 S
N1085 H1090 0.984 1_554 S
N1085 H1091 0.985 . S
C1086 C1080 1.379 . S
C1086 C1083 1.363 . S
C1086 N1084 1.356 . S
C1087 C1081 1.363 . S
C1087 C1082 1.376 1_556 S
C1087 N1085 1.356 1_556 S
N1088 C1080 1.356 . S
N1088 H1094 0.984 . S
N1088 H1095 0.984 . S
N1089 C1082 1.364 . S
N1089 H1092 0.984 . S
N1089 H1093 0.985 . S
H1090 N1085 0.984 1_556 S
H1091 N1085 0.985 . S
H1092 N1089 0.984 . S
H1093 N1089 0.985 . S
H1094 N1088 0.984 . S
H1095 N1088 0.984 . S
H1096 N1084 0.984 . S
H1097 N1084 0.985 . S
C1098 C1099 1.363 . S
C1098 C1104 1.379 . S
C1098 N1106 1.356 . S
C1099 C1098 1.363 . S
C1099 C1105 1.363 . S
C1100 C1101 1.363 . S
C1100 C1105 1.379 . S
C1100 N1107 1.356 . S
C1101 C1100 1.363 . S
C1101 C1104 1.363 . S
N1102 C1104 1.356 . S
N1102 H1114 0.984 1_556 S
N1102 H1115 0.985 . S
N1103 C1105 1.356 . S
N1103 H1108 0.984 . S
N1103 H1109 0.985 . S
C1104 C1098 1.379 . S
C1104 C1101 1.363 . S
C1104 N1102 1.356 . S
C1105 C1099 1.363 . S
C1105 C1100 1.379 . S
C1105 N1103 1.356 . S
N1106 C1098 1.356 . S
N1106 H1112 0.984 . S
N1106 H1113 0.984 . S
N1107 C1100 1.356 . S
N1107 H1110 0.984 . S
N1107 H1111 0.985 . S
H1108 N1103 0.984 . S
H1109 N1103 0.985 . S
H1110 N1107 0.984 . S
H1111 N1107 0.985 . S
H1112 N1106 0.984 . S
H1113 N1106 0.984 . S
H1114 N1102 0.984 1_554 S
H1115 N1102 0.985 . S
C1116 C1117 1.363 . S
C1116 C1122 1.379 . S
C1116 N1124 1.356 . S
C1117 C1116 1.363 . S
C1117 C1123 1.392 . S
C1118 C1119 1.363 1_554 S
C1118 C1123 1.373 1_554 S
C1118 N1125 1.356 . S
C1119 C1118 1.363 1_556 S
C1119 C1122 1.363 . S
N1120 C1122 1.356 . S
N1120 H1132 0.984 . S
N1120 H1133 0.985 . S
N1121 C1123 1.341 1_554 S
N1121 H1126 0.984 . S
N1121 H1127 0.985 . S
C1122 C1116 1.379 . S
C1122 C1119 1.363 . S
C1122 N1120 1.356 . S
C1123 C1117 1.392 . S
C1123 C1118 1.373 1_556 S
C1123 N1121 1.341 1_556 S
N1124 C1116 1.356 . S
N1124 H1130 0.984 . S
N1124 H1131 0.984 . S
N1125 C1118 1.356 . S
N1125 H1128 0.984 . S
N1125 H1129 0.985 . S
H1126 N1121 0.984 . S
H1127 N1121 0.985 . S
H1128 N1125 0.984 . S
H1129 N1125 0.985 . S
H1130 N1124 0.984 . S
H1131 N1124 0.984 . S
H1132 N1120 0.984 . S
H1133 N1120 0.985 . S
C1134 C1135 1.363 . S
C1134 C1140 1.379 . S
C1134 N1142 1.356 . S
C1135 C1134 1.363 . S
C1135 C1141 1.363 . S
C1136 C1137 1.363 . S
C1136 C1141 1.379 . S
C1136 N1143 1.356 1_554 S
C1137 C1136 1.363 . S
C1137 C1140 1.363 . S
N1138 C1140 1.356 . S
N1138 H1150 0.984 . S
N1138 H1151 0.985 . S
N1139 C1141 1.356 . S
N1139 H1144 0.984 . S
N1139 H1145 0.985 1_554 S
C1140 C1134 1.379 . S
C1140 C1137 1.363 . S
C1140 N1138 1.356 . S
C1141 C1135 1.363 . S
C1141 C1136 1.379 . S
C1141 N1139 1.356 . S
N1142 C1134 1.356 . S
N1142 H1148 0.984 . S
N1142 H1149 0.984 . S
N1143 C1136 1.356 1_556 S
N1143 H1146 0.984 . S
N1143 H1147 0.985 . S
H1144 N1139 0.984 . S
H1145 N1139 0.985 1_556 S
H1146 N1143 0.984 . S
H1147 N1143 0.985 . S
H1148 N1142 0.984 . S
H1149 N1142 0.984 . S
H1150 N1138 0.984 . S
H1151 N1138 0.985 . S
C1152 C1153 1.363 . S
C1152 C1158 1.379 . S
C1152 N1160 1.356 . S
C1153 C1152 1.363 . S
C1153 C1159 1.363 . S
C1154 C1155 1.363 . S
C1154 C1159 1.379 . S
C1154 N1161 1.356 . S
C1155 C1154 1.363 . S
C1155 C1158 1.363 . S
N1156 C1158 1.356 . S
N1156 H1168 0.984 1_554 S
N1156 H1169 0.985 . S
N1157 C1159 1.356 . S
N1157 H1162 0.984 . S
N1157 H1163 0.985 . S
C1158 C1152 1.379 . S
C1158 C1155 1.363 . S
C1158 N1156 1.356 . S
C1159 C1153 1.363 . S
C1159 C1154 1.379 . S
C1159 N1157 1.356 . S
N1160 C1152 1.356 . S
N1160 H1166 0.984 . S
N1160 H1167 0.984 . S
N1161 C1154 1.356 . S
N1161 H1164 0.984 . S
N1161 H1165 0.985 . S
H1162 N1157 0.984 . S
H1163 N1157 0.985 . S
H1164 N1161 0.984 . S
H1165 N1161 0.985 . S
H1166 N1160 0.984 . S
H1167 N1160 0.984 . S
H1168 N1156 0.984 1_556 S
H1169 N1156 0.985 . S
C1170 C1171 1.363 . S
C1170 C1176 1.379 . S
C1170 N1178 1.356 . S
C1171 C1170 1.363 . S
C1171 C1177 1.363 . S
C1172 C1173 1.363 . S
C1172 C1177 1.379 . S
C1172 N1179 1.356 . S
C1173 C1172 1.363 . S
C1173 C1176 1.363 . S
N1174 C1176 1.356 . S
N1174 H1186 0.984 1_554 S
N1174 H1187 0.985 . S
N1175 C1177 1.356 . S
N1175 H1180 0.984 . S
N1175 H1181 0.985 . S
C1176 C1170 1.379 . S
C1176 C1173 1.363 . S
C1176 N1174 1.356 . S
C1177 C1171 1.363 . S
C1177 C1172 1.379 . S
C1177 N1175 1.356 . S
N1178 C1170 1.356 . S
N1178 H1184 0.984 . S
N1178 H1185 0.984 . S
N1179 C1172 1.356 . S
N1179 H1182 0.984 . S
N1179 H1183 0.985 . S
H1180 N1175 0.984 . S
H1181 N1175 0.985 . S
H1182 N1179 0.984 . S
H1183 N1179 0.985 . S
H1184 N1178 0.984 . S
H1185 N1178 0.984 . S
H1186 N1174 0.984 1_556 S
H1187 N1174 0.985 . S
C1188 C1189 1.363 . S
C1188 C1194 1.379 1_655 S
C1188 N1196 1.356 . S
C1189 C1188 1.363 . S
C1189 C1195 1.363 . S
C1190 C1191 1.363 . S
C1190 C1195 1.379 1_455 S
C1190 N1197 1.356 . S
C1191 C1190 1.363 . S
C1191 C1194 1.363 . S
N1192 C1194 1.356 . S
N1192 H1204 0.984 . S
N1192 H1205 0.985 . S
N1193 C1195 1.356 . S
N1193 H1198 0.984 . S
N1193 H1199 0.985 . S
C1194 C1188 1.379 1_455 S
C1194 C1191 1.363 . S
C1194 N1192 1.356 . S
C1195 C1189 1.363 . S
C1195 C1190 1.379 1_655 S
C1195 N1193 1.356 . S
N1196 C1188 1.356 . S
N1196 H1202 0.984 . S
N1196 H1203 0.984 . S
N1197 C1190 1.356 . S
N1197 H1200 0.984 . S
N1197 H1201 0.985 . S
H1198 N1193 0.984 . S
H1199 N1193 0.985 . S
H1200 N1197 0.984 . S
H1201 N1197 0.985 . S
H1202 N1196 0.984 . S
H1203 N1196 0.984 . S
H1204 N1192 0.984 . S
H1205 N1192 0.985 . S
C1206 C1207 1.363 . S
C1206 C1212 1.379 . S
C1206 N1214 1.356 . S
C1207 C1206 1.363 . S
C1207 C1213 1.363 . S
C1208 C1209 1.363 . S
C1208 C1213 1.379 . S
C1208 N1215 1.356 . S
C1209 C1208 1.363 . S
C1209 C1212 1.363 . S
N1210 C1212 1.356 . S
N1210 H1222 0.984 . S
N1210 H1223 0.985 . S
N1211 C1213 1.356 . S
N1211 H1216 0.984 . S
N1211 H1217 0.985 . S
C1212 C1206 1.379 . S
C1212 C1209 1.363 . S
C1212 N1210 1.356 . S
C1213 C1207 1.363 . S
C1213 C1208 1.379 . S
C1213 N1211 1.356 . S
N1214 C1206 1.356 . S
N1214 H1220 0.984 . S
N1214 H1221 0.984 . S
N1215 C1208 1.356 . S
N1215 H1218 0.984 . S
N1215 H1219 0.985 . S
H1216 N1211 0.984 . S
H1217 N1211 0.985 . S
H1218 N1215 0.984 . S
H1219 N1215 0.985 . S
H1220 N1214 0.984 . S
H1221 N1214 0.984 . S
H1222 N1210 0.984 . S
H1223 N1210 0.985 . S
C1224 C1225 1.363 . S
C1224 C1230 1.379 . S
C1224 N1232 1.356 . S
C1225 C1224 1.363 . S
C1225 C1231 1.363 . S
C1226 C1227 1.363 . S
C1226 C1231 1.379 1_565 S
C1226 N1233 1.356 . S
C1227 C1226 1.363 . S
C1227 C1230 1.363 1_565 S
N1228 C1230 1.356 1_565 S
N1228 H1240 0.984 1_565 S
N1228 H1241 0.985 . S
N1229 C1231 1.356 . S
N1229 H1234 0.984 . S
N1229 H1235 0.985 . S
C1230 C1224 1.379 . S
C1230 C1227 1.363 1_545 S
C1230 N1228 1.356 1_545 S
C1231 C1225 1.363 . S
C1231 C1226 1.379 1_545 S
C1231 N1229 1.356 . S
N1232 C1224 1.356 . S
N1232 H1238 0.984 . S
N1232 H1239 0.984 . S
N1233 C1226 1.356 . S
N1233 H1236 0.984 . S
N1233 H1237 0.985 . S
H1234 N1229 0.984 . S
H1235 N1229 0.985 . S
H1236 N1233 0.984 . S
H1237 N1233 0.985 . S
H1238 N1232 0.984 . S
H1239 N1232 0.984 . S
H1240 N1228 0.984 1_545 S
H1241 N1228 0.985 . S
C1242 C1243 1.363 . S
C1242 C1248 1.379 . S
C1242 N1250 1.356 . S
C1243 C1242 1.363 . S
C1243 C1249 1.363 . S
C1244 C1245 1.363 . S
C1244 C1249 1.379 . S
C1244 N1251 1.356 . S
C1245 C1244 1.363 . S
C1245 C1248 1.363 . S
N1246 C1248 1.356 . S
N1246 H1258 0.984 . S
N1246 H1259 0.985 . S
N1247 C1249 1.356 . S
N1247 H1252 0.984 . S
N1247 H1253 0.985 . S
C1248 C1242 1.379 . S
C1248 C1245 1.363 . S
C1248 N1246 1.356 . S
C1249 C1243 1.363 . S
C1249 C1244 1.379 . S
C1249 N1247 1.356 . S
N1250 C1242 1.356 . S
N1250 H1256 0.984 . S
N1250 H1257 0.984 . S
N1251 C1244 1.356 . S
N1251 H1254 0.984 . S
N1251 H1255 0.985 . S
H1252 N1247 0.984 . S
H1253 N1247 0.985 . S
H1254 N1251 0.984 . S
H1255 N1251 0.985 . S
H1256 N1250 0.984 . S
H1257 N1250 0.984 . S
H1258 N1246 0.984 . S
H1259 N1246 0.985 . S
C1260 C1261 1.363 . S
C1260 C1266 1.379 . S
C1260 N1268 1.356 . S
C1261 C1260 1.363 . S
C1261 C1267 1.363 . S
C1262 C1263 1.363 . S
C1262 C1267 1.379 . S
C1262 N1269 1.356 . S
C1263 C1262 1.363 . S
C1263 C1266 1.363 . S
N1264 C1266 1.356 . S
N1264 H1276 0.984 . S
N1264 H1277 0.985 . S
N1265 C1267 1.356 . S
N1265 H1270 0.984 . S
N1265 H1271 0.985 . S
C1266 C1260 1.379 . S
C1266 C1263 1.363 . S
C1266 N1264 1.356 . S
C1267 C1261 1.363 . S
C1267 C1262 1.379 . S
C1267 N1265 1.356 . S
N1268 C1260 1.356 . S
N1268 H1274 0.984 . S
N1268 H1275 0.984 . S
N1269 C1262 1.356 . S
N1269 H1272 0.984 . S
N1269 H1273 0.985 . S
H1270 N1265 0.984 . S
H1271 N1265 0.985 . S
H1272 N1269 0.984 . S
H1273 N1269 0.985 . S
H1274 N1268 0.984 . S
H1275 N1268 0.984 . S
H1276 N1264 0.984 . S
H1277 N1264 0.985 . S
C1278 C1279 1.363 . S
C1278 C1284 1.379 . S
C1278 N1286 1.356 . S
C1279 C1278 1.363 . S
C1279 C1285 1.363 . S
C1280 C1281 1.363 . S
C1280 C1285 1.379 . S
C1280 N1287 1.356 . S
C1281 C1280 1.363 . S
C1281 C1284 1.363 . S
N1282 C1284 1.356 . S
N1282 H1294 0.984 . S
N1282 H1295 0.985 . S
N1283 C1285 1.356 . S
N1283 H1288 0.984 . S
N1283 H1289 0.985 . S
C1284 C1278 1.379 . S
C1284 C1281 1.363 . S
C1284 N1282 1.356 . S
C1285 C1279 1.363 . S
C1285 C1280 1.379 . S
C1285 N1283 1.356 . S
N1286 C1278 1.356 . S
N1286 H1292 0.984 . S
N1286 H1293 0.984 . S
N1287 C1280 1.356 . S
N1287 H1290 0.984 . S
N1287 H1291 0.985 . S
H1288 N1283 0.984 . S
H1289 N1283 0.985 . S
H1290 N1287 0.984 . S
H1291 N1287 0.985 . S
H1292 N1286 0.984 . S
H1293 N1286 0.984 . S
H1294 N1282 0.984 . S
H1295 N1282 0.985 . S
C1296 C1297 1.363 . S
C1296 C1302 1.379 . S
C1296 N1304 1.356 . S
C1297 C1296 1.363 . S
C1297 C1303 1.363 . S
C1298 C1299 1.363 . S
C1298 C1303 1.379 . S
C1298 N1305 1.356 . S
C1299 C1298 1.363 . S
C1299 C1302 1.363 . S
N1300 C1302 1.356 . S
N1300 H1312 0.984 . S
N1300 H1313 0.985 . S
N1301 C1303 1.356 . S
N1301 H1306 0.984 . S
N1301 H1307 0.985 . S
C1302 C1296 1.379 . S
C1302 C1299 1.363 . S
C1302 N1300 1.356 . S
C1303 C1297 1.363 . S
C1303 C1298 1.379 . S
C1303 N1301 1.356 . S
N1304 C1296 1.356 . S
N1304 H1310 0.984 . S
N1304 H1311 0.984 . S
N1305 C1298 1.356 . S
N1305 H1308 0.984 . S
N1305 H1309 0.985 . S
H1306 N1301 0.984 . S
H1307 N1301 0.985 . S
H1308 N1305 0.984 . S
H1309 N1305 0.985 . S
H1310 N1304 0.984 . S
H1311 N1304 0.984 . S
H1312 N1300 0.984 . S
H1313 N1300 0.985 . S
C1314 C1315 1.363 . S
C1314 C1320 1.379 . S
C1314 N1322 1.356 . S
C1315 C1314 1.363 . S
C1315 C1321 1.363 . S
C1316 C1317 1.363 . S
C1316 C1321 1.379 . S
C1316 N1323 1.356 . S
C1317 C1316 1.363 . S
C1317 C1320 1.363 . S
N1318 C1320 1.356 . S
N1318 H1330 0.984 . S
N1318 H1331 0.985 . S
N1319 C1321 1.356 . S
N1319 H1324 0.984 . S
N1319 H1325 0.985 . S
C1320 C1314 1.379 . S
C1320 C1317 1.363 . S
C1320 N1318 1.356 . S
C1321 C1315 1.363 . S
C1321 C1316 1.379 . S
C1321 N1319 1.356 . S
N1322 C1314 1.356 . S
N1322 H1328 0.984 . S
N1322 H1329 0.984 . S
N1323 C1316 1.356 . S
N1323 H1326 0.984 . S
N1323 H1327 0.985 . S
H1324 N1319 0.984 . S
H1325 N1319 0.985 . S
H1326 N1323 0.984 . S
H1327 N1323 0.985 . S
H1328 N1322 0.984 . S
H1329 N1322 0.984 . S
H1330 N1318 0.984 . S
H1331 N1318 0.985 . S
C1332 C1333 1.363 . S
C1332 C1338 1.379 . S
C1332 N1340 1.356 . S
C1333 C1332 1.363 . S
C1333 C1339 1.363 . S
C1334 C1335 1.363 . S
C1334 C1339 1.379 . S
C1334 N1341 1.356 . S
C1335 C1334 1.363 . S
C1335 C1338 1.363 . S
N1336 C1338 1.356 . S
N1336 H1348 0.984 . S
N1336 H1349 0.985 . S
N1337 C1339 1.356 . S
N1337 H1342 0.984 . S
N1337 H1343 0.985 . S
C1338 C1332 1.379 . S
C1338 C1335 1.363 . S
C1338 N1336 1.356 . S
C1339 C1333 1.363 . S
C1339 C1334 1.379 . S
C1339 N1337 1.356 . S
N1340 C1332 1.356 . S
N1340 H1346 0.984 . S
N1340 H1347 0.984 . S
N1341 C1334 1.356 . S
N1341 H1344 0.984 . S
N1341 H1345 0.985 . S
H1342 N1337 0.984 . S
H1343 N1337 0.985 . S
H1344 N1341 0.984 . S
H1345 N1341 0.985 . S
H1346 N1340 0.984 . S
H1347 N1340 0.984 . S
H1348 N1336 0.984 . S
H1349 N1336 0.985 . S
C1350 C1351 1.363 . S
C1350 C1356 1.379 . S
C1350 N1358 1.356 1_565 S
C1351 C1350 1.363 . S
C1351 C1357 1.363 . S
C1352 C1353 1.363 . S
C1352 C1357 1.379 . S
C1352 N1359 1.356 . S
C1353 C1352 1.363 . S
C1353 C1356 1.363 . S
N1354 C1356 1.356 . S
N1354 H1366 0.984 . S
N1354 H1367 0.985 . S
N1355 C1357 1.356 . S
N1355 H1360 0.984 1_565 S
N1355 H1361 0.985 . S
C1356 C1350 1.379 . S
C1356 C1353 1.363 . S
C1356 N1354 1.356 . S
C1357 C1351 1.363 . S
C1357 C1352 1.379 . S
C1357 N1355 1.356 . S
N1358 C1350 1.356 1_545 S
N1358 H1364 0.984 . S
N1358 H1365 0.984 . S
N1359 C1352 1.356 . S
N1359 H1362 0.984 . S
N1359 H1363 0.985 . S
H1360 N1355 0.984 1_545 S
H1361 N1355 0.985 . S
H1362 N1359 0.984 . S
H1363 N1359 0.985 . S
H1364 N1358 0.984 . S
H1365 N1358 0.984 . S
H1366 N1354 0.984 . S
H1367 N1354 0.985 . S
C1368 C1369 1.363 . S
C1368 C1374 1.379 . S
C1368 N1376 1.356 . S
C1369 C1368 1.363 . S
C1369 C1375 1.363 . S
C1370 C1371 1.363 . S
C1370 C1375 1.379 . S
C1370 N1377 1.356 . S
C1371 C1370 1.363 . S
C1371 C1374 1.363 . S
N1372 C1374 1.356 . S
N1372 H1384 0.984 . S
N1372 H1385 0.985 . S
N1373 C1375 1.356 . S
N1373 H1378 0.984 1_455 S
N1373 H1379 0.985 . S
C1374 C1368 1.379 . S
C1374 C1371 1.363 . S
C1374 N1372 1.356 . S
C1375 C1369 1.363 . S
C1375 C1370 1.379 . S
C1375 N1373 1.356 . S
N1376 C1368 1.356 . S
N1376 H1382 0.984 . S
N1376 H1383 0.984 1_455 S
N1377 C1370 1.356 . S
N1377 H1380 0.984 . S
N1377 H1381 0.985 . S
H1378 N1373 0.984 1_655 S
H1379 N1373 0.985 . S
H1380 N1377 0.984 . S
H1381 N1377 0.985 . S
H1382 N1376 0.984 . S
H1383 N1376 0.984 1_655 S
H1384 N1372 0.984 . S
H1385 N1372 0.985 . S
C1386 C1387 1.363 . S
C1386 C1392 1.379 . S
C1386 N1394 1.356 . S
C1387 C1386 1.363 . S
C1387 C1393 1.363 . S
C1388 C1389 1.363 . S
C1388 C1393 1.379 . S
C1388 N1395 1.356 . S
C1389 C1388 1.363 . S
C1389 C1392 1.363 . S
N1390 C1392 1.356 . S
N1390 H1402 0.984 . S
N1390 H1403 0.985 . S
N1391 C1393 1.356 . S
N1391 H1396 0.984 . S
N1391 H1397 0.985 . S
C1392 C1386 1.379 . S
C1392 C1389 1.363 . S
C1392 N1390 1.356 . S
C1393 C1387 1.363 . S
C1393 C1388 1.379 . S
C1393 N1391 1.356 . S
N1394 C1386 1.356 . S
N1394 H1400 0.984 . S
N1394 H1401 0.984 . S
N1395 C1388 1.356 . S
N1395 H1398 0.984 . S
N1395 H1399 0.985 . S
H1396 N1391 0.984 . S
H1397 N1391 0.985 . S
H1398 N1395 0.984 . S
H1399 N1395 0.985 . S
H1400 N1394 0.984 . S
H1401 N1394 0.984 . S
H1402 N1390 0.984 . S
H1403 N1390 0.985 . S
C1404 C1405 1.363 . S
C1404 C1410 1.379 . S
C1404 N1412 1.356 . S
C1405 C1404 1.363 . S
C1405 C1411 1.363 . S
C1406 C1407 1.363 . S
C1406 C1411 1.379 . S
C1406 N1413 1.356 . S
C1407 C1406 1.363 . S
C1407 C1410 1.363 . S
N1408 C1410 1.356 . S
N1408 H1420 0.984 . S
N1408 H1421 0.985 . S
N1409 C1411 1.356 . S
N1409 H1414 0.984 . S
N1409 H1415 0.985 . S
C1410 C1404 1.379 . S
C1410 C1407 1.363 . S
C1410 N1408 1.356 . S
C1411 C1405 1.363 . S
C1411 C1406 1.379 . S
C1411 N1409 1.356 . S
N1412 C1404 1.356 . S
N1412 H1418 0.984 . S
N1412 H1419 0.984 . S
N1413 C1406 1.356 . S
N1413 H1416 0.984 . S
N1413 H1417 0.985 . S
H1414 N1409 0.984 . S
H1415 N1409 0.985 . S
H1416 N1413 0.984 . S
H1417 N1413 0.985 . S
H1418 N1412 0.984 . S
H1419 N1412 0.984 . S
H1420 N1408 0.984 . S
H1421 N1408 0.985 . S
C1422 C1423 1.363 . S
C1422 C1428 1.379 . S
C1422 N1430 1.356 . S
C1423 C1422 1.363 . S
C1423 C1429 1.363 . S
C1424 C1425 1.363 . S
C1424 C1429 1.379 . S
C1424 N1431 1.356 . S
C1425 C1424 1.363 . S
C1425 C1428 1.363 . S
N1426 C1428 1.356 . S
N1426 H1438 0.984 . S
N1426 H1439 0.985 . S
N1427 C1429 1.356 . S
N1427 H1432 0.984 . S
N1427 H1433 0.985 . S
C1428 C1422 1.379 . S
C1428 C1425 1.363 . S
C1428 N1426 1.356 . S
C1429 C1423 1.363 . S
C1429 C1424 1.379 . S
C1429 N1427 1.356 . S
N1430 C1422 1.356 . S
N1430 H1436 0.984 . S
N1430 H1437 0.984 . S
N1431 C1424 1.356 . S
N1431 H1434 0.984 . S
N1431 H1435 0.985 . S
H1432 N1427 0.984 . S
H1433 N1427 0.985 . S
H1434 N1431 0.984 . S
H1435 N1431 0.985 . S
H1436 N1430 0.984 . S
H1437 N1430 0.984 . S
H1438 N1426 0.984 . S
H1439 N1426 0.985 . S
C1440 C1441 1.363 . S
C1440 C1446 1.379 . S
C1440 N1448 1.356 . S
C1441 C1440 1.363 . S
C1441 C1447 1.363 . S
C1442 C1443 1.363 . S
C1442 C1447 1.379 . S
C1442 N1449 1.356 . S
C1443 C1442 1.363 . S
C1443 C1446 1.363 . S
N1444 C1446 1.356 . S
N1444 H1456 0.984 . S
N1444 H1457 0.985 . S
N1445 C1447 1.356 . S
N1445 H1450 0.984 . S
N1445 H1451 0.985 . S
C1446 C1440 1.379 . S
C1446 C1443 1.363 . S
C1446 N1444 1.356 . S
C1447 C1441 1.363 . S
C1447 C1442 1.379 . S
C1447 N1445 1.356 . S
N1448 C1440 1.356 . S
N1448 H1454 0.984 . S
N1448 H1455 0.984 . S
N1449 C1442 1.356 . S
N1449 H1452 0.984 . S
N1449 H1453 0.985 . S
H1450 N1445 0.984 . S
H1451 N1445 0.985 . S
H1452 N1449 0.984 . S
H1453 N1449 0.985 . S
H1454 N1448 0.984 . S
H1455 N1448 0.984 . S
H1456 N1444 0.984 . S
H1457 N1444 0.985 . S
C1458 C1459 1.363 . S
C1458 C1464 1.379 1_565 S
C1458 N1466 1.356 . S
C1459 C1458 1.363 . S
C1459 C1465 1.363 . S
C1460 C1461 1.365 1_565 S
C1460 C1465 1.378 . S
C1460 N1467 1.356 1_565 S
C1461 C1460 1.365 1_545 S
C1461 C1464 1.363 . S
N1462 C1464 1.356 . S
N1462 H1474 0.984 . S
N1462 H1475 0.985 . S
N1463 C1465 1.356 . S
N1463 H1468 0.984 . S
N1463 H1469 0.985 . S
C1464 C1458 1.379 1_545 S
C1464 C1461 1.363 . S
C1464 N1462 1.356 . S
C1465 C1459 1.363 . S
C1465 C1460 1.378 . S
C1465 N1463 1.356 . S
N1466 C1458 1.356 . S
N1466 H1472 0.982 . S
N1466 H1473 0.984 . S
N1467 C1460 1.356 1_545 S
N1467 H1470 0.984 . S
N1467 H1471 0.985 1_545 S
H1468 N1463 0.984 . S
H1469 N1463 0.985 . S
H1470 N1467 0.984 . S
H1471 N1467 0.985 1_565 S
H1472 N1466 0.982 . S
H1473 N1466 0.984 . S
H1474 N1462 0.984 . S
H1475 N1462 0.985 . S
C1476 C1477 1.363 1_655 S
C1476 C1482 1.379 . S
C1476 N1484 1.350 1_655 S
C1477 C1476 1.363 1_455 S
C1477 C1483 1.363 . S
C1478 C1479 1.363 1_455 S
C1478 C1483 1.379 . S
C1478 N1485 1.356 . S
C1479 C1478 1.363 1_655 S
C1479 C1482 1.363 . S
N1480 C1482 1.356 . S
N1480 H1492 0.984 . S
N1480 H1493 0.985 . S
N1481 C1483 1.356 . S
N1481 H1486 0.984 . S
N1481 H1487 0.985 . S
C1482 C1476 1.379 . S
C1482 C1479 1.363 . S
C1482 N1480 1.356 . S
C1483 C1477 1.363 . S
C1483 C1478 1.379 . S
C1483 N1481 1.356 . S
N1484 C1476 1.350 1_455 S
N1484 H1490 0.979 1_455 S
N1484 H1491 0.996 . S
N1485 C1478 1.356 . S
N1485 H1488 0.984 1_455 S
N1485 H1489 0.985 . S
H1486 N1481 0.984 . S
H1487 N1481 0.985 . S
H1488 N1485 0.984 1_655 S
H1489 N1485 0.985 . S
H1490 N1484 0.979 1_655 S
H1491 N1484 0.996 . S
H1492 N1480 0.984 . S
H1493 N1480 0.985 . S
C1494 C1495 1.363 . S
C1494 C1500 1.379 . S
C1494 N1502 1.356 . S
C1495 C1494 1.363 . S
C1495 C1501 1.363 . S
C1496 C1497 1.363 . S
C1496 C1501 1.379 . S
C1496 N1503 1.356 . S
C1497 C1496 1.363 . S
C1497 C1500 1.363 . S
N1498 C1500 1.356 . S
N1498 H1510 0.984 . S
N1498 H1511 0.985 . S
N1499 C1501 1.356 . S
N1499 H1504 0.984 . S
N1499 H1505 0.985 . S
C1500 C1494 1.379 . S
C1500 C1497 1.363 . S
C1500 N1498 1.356 . S
C1501 C1495 1.363 . S
C1501 C1496 1.379 . S
C1501 N1499 1.356 . S
N1502 C1494 1.356 . S
N1502 H1508 0.984 . S
N1502 H1509 0.984 . S
N1503 C1496 1.356 . S
N1503 H1506 0.984 . S
N1503 H1507 0.985 . S
H1504 N1499 0.984 . S
H1505 N1499 0.985 . S
H1506 N1503 0.984 . S
H1507 N1503 0.985 . S
H1508 N1502 0.984 . S
H1509 N1502 0.984 . S
H1510 N1498 0.984 . S
H1511 N1498 0.985 . S
C1512 C1513 1.363 . S
C1512 C1518 1.379 . S
C1512 N1520 1.356 . S
C1513 C1512 1.363 . S
C1513 C1519 1.363 . S
C1514 C1515 1.363 . S
C1514 C1519 1.379 . S
C1514 N1521 1.356 . S
C1515 C1514 1.363 . S
C1515 C1518 1.363 . S
N1516 C1518 1.356 . S
N1516 H1528 0.984 . S
N1516 H1529 0.985 . S
N1517 C1519 1.356 . S
N1517 H1522 0.984 1_655 S
N1517 H1523 0.985 . S
C1518 C1512 1.379 . S
C1518 C1515 1.363 . S
C1518 N1516 1.356 . S
C1519 C1513 1.363 . S
C1519 C1514 1.379 . S
C1519 N1517 1.356 . S
N1520 C1512 1.356 . S
N1520 H1526 0.984 . S
N1520 H1527 0.984 1_655 S
N1521 C1514 1.356 . S
N1521 H1524 0.984 . S
N1521 H1525 0.985 . S
H1522 N1517 0.984 1_455 S
H1523 N1517 0.985 . S
H1524 N1521 0.984 . S
H1525 N1521 0.985 . S
H1526 N1520 0.984 . S
H1527 N1520 0.984 1_455 S
H1528 N1516 0.984 . S
H1529 N1516 0.985 . S
C1530 C1531 1.363 . S
C1530 C1536 1.379 . S
C1530 N1538 1.356 . S
C1531 C1530 1.363 . S
C1531 C1537 1.363 . S
C1532 C1533 1.363 . S
C1532 C1537 1.379 . S
C1532 N1539 1.356 . S
C1533 C1532 1.363 . S
C1533 C1536 1.363 . S
N1534 C1536 1.356 . S
N1534 H1546 0.984 . S
N1534 H1547 0.985 . S
N1535 C1537 1.356 . S
N1535 H1540 0.984 . S
N1535 H1541 0.985 . S
C1536 C1530 1.379 . S
C1536 C1533 1.363 . S
C1536 N1534 1.356 . S
C1537 C1531 1.363 . S
C1537 C1532 1.379 . S
C1537 N1535 1.356 . S
N1538 C1530 1.356 . S
N1538 H1544 0.984 . S
N1538 H1545 0.984 . S
N1539 C1532 1.356 . S
N1539 H1542 0.984 . S
N1539 H1543 0.985 . S
H1540 N1535 0.984 . S
H1541 N1535 0.985 . S
H1542 N1539 0.984 . S
H1543 N1539 0.985 . S
H1544 N1538 0.984 . S
H1545 N1538 0.984 . S
H1546 N1534 0.984 . S
H1547 N1534 0.985 . S
C1548 C1549 1.363 . S
C1548 C1554 1.379 . S
C1548 N1556 1.356 . S
C1549 C1548 1.363 . S
C1549 C1555 1.363 . S
C1550 C1551 1.363 . S
C1550 C1555 1.379 . S
C1550 N1557 1.356 . S
C1551 C1550 1.363 . S
C1551 C1554 1.363 . S
N1552 C1554 1.356 . S
N1552 H1564 0.984 . S
N1552 H1565 0.985 . S
N1553 C1555 1.354 1_565 S
N1553 H1558 0.988 . S
N1553 H1559 0.984 1_565 S
C1554 C1548 1.379 . S
C1554 C1551 1.363 . S
C1554 N1552 1.356 . S
C1555 C1549 1.363 . S
C1555 C1550 1.379 . S
C1555 N1553 1.354 1_545 S
N1556 C1548 1.356 . S
N1556 H1562 0.984 . S
N1556 H1563 0.984 1_545 S
N1557 C1550 1.356 . S
N1557 H1560 0.984 . S
N1557 H1561 0.985 . S
H1558 N1553 0.988 . S
H1559 N1553 0.984 1_545 S
H1560 N1557 0.984 . S
H1561 N1557 0.985 . S
H1562 N1556 0.984 . S
H1563 N1556 0.984 1_565 S
H1564 N1552 0.984 . S
H1565 N1552 0.985 . S
C1566 C1567 1.363 . S
C1566 C1572 1.379 . S
C1566 N1574 1.356 . S
C1567 C1566 1.363 . S
C1567 C1573 1.363 . S
C1568 C1569 1.363 . S
C1568 C1573 1.379 . S
C1568 N1575 1.356 . S
C1569 C1568 1.363 . S
C1569 C1572 1.363 . S
N1570 C1572 1.356 . S
N1570 H1582 0.984 . S
N1570 H1583 0.985 . S
N1571 C1573 1.356 . S
N1571 H1576 0.984 . S
N1571 H1577 0.985 . S
C1572 C1566 1.379 . S
C1572 C1569 1.363 . S
C1572 N1570 1.356 . S
C1573 C1567 1.363 . S
C1573 C1568 1.379 . S
C1573 N1571 1.356 . S
N1574 C1566 1.356 . S
N1574 H1580 0.984 . S
N1574 H1581 0.984 . S
N1575 C1568 1.356 . S
N1575 H1578 0.984 . S
N1575 H1579 0.985 . S
H1576 N1571 0.984 . S
H1577 N1571 0.985 . S
H1578 N1575 0.984 . S
H1579 N1575 0.985 . S
H1580 N1574 0.984 . S
H1581 N1574 0.984 . S
H1582 N1570 0.984 . S
H1583 N1570 0.985 . S
C1584 C1585 1.363 . S
C1584 C1590 1.379 . S
C1584 N1592 1.356 . S
C1585 C1584 1.363 . S
C1585 C1591 1.363 . S
C1586 C1587 1.363 . S
C1586 C1591 1.379 . S
C1586 N1593 1.356 . S
C1587 C1586 1.363 . S
C1587 C1590 1.363 . S
N1588 C1590 1.356 . S
N1588 H1600 0.984 . S
N1588 H1601 0.985 . S
N1589 C1591 1.356 . S
N1589 H1594 0.984 . S
N1589 H1595 0.985 . S
C1590 C1584 1.379 . S
C1590 C1587 1.363 . S
C1590 N1588 1.356 . S
C1591 C1585 1.363 . S
C1591 C1586 1.379 . S
C1591 N1589 1.356 . S
N1592 C1584 1.356 . S
N1592 H1598 0.984 . S
N1592 H1599 0.984 . S
N1593 C1586 1.356 . S
N1593 H1596 0.984 . S
N1593 H1597 0.985 . S
H1594 N1589 0.984 . S
H1595 N1589 0.985 . S
H1596 N1593 0.984 . S
H1597 N1593 0.985 . S
H1598 N1592 0.984 . S
H1599 N1592 0.984 . S
H1600 N1588 0.984 . S
H1601 N1588 0.985 . S
C1602 C1603 1.363 . S
C1602 C1608 1.379 . S
C1602 N1610 1.356 . S
C1603 C1602 1.363 . S
C1603 C1609 1.363 . S
C1604 C1605 1.363 . S
C1604 C1609 1.379 . S
C1604 N1611 1.356 . S
C1605 C1604 1.363 . S
C1605 C1608 1.363 . S
N1606 C1608 1.356 . S
N1606 H1618 0.984 . S
N1606 H1619 0.985 . S
N1607 C1609 1.356 . S
N1607 H1612 0.984 . S
N1607 H1613 0.985 . S
C1608 C1602 1.379 . S
C1608 C1605 1.363 . S
C1608 N1606 1.356 . S
C1609 C1603 1.363 . S
C1609 C1604 1.379 . S
C1609 N1607 1.356 . S
N1610 C1602 1.356 . S
N1610 H1616 0.984 . S
N1610 H1617 0.984 . S
N1611 C1604 1.356 . S
N1611 H1614 0.984 . S
N1611 H1615 0.985 . S
H1612 N1607 0.984 . S
H1613 N1607 0.985 . S
H1614 N1611 0.984 . S
H1615 N1611 0.985 . S
H1616 N1610 0.984 . S
H1617 N1610 0.984 . S
H1618 N1606 0.984 . S
H1619 N1606 0.985 . S
C1620 C1621 1.363 . S
C1620 C1626 1.379 . S
C1620 N1628 1.356 . S
C1621 C1620 1.363 . S
C1621 C1627 1.363 . S
C1622 C1623 1.363 . S
C1622 C1627 1.379 . S
C1622 N1629 1.356 . S
C1623 C1622 1.363 . S
C1623 C1626 1.363 . S
N1624 C1626 1.356 . S
N1624 H1636 0.984 . S
N1624 H1637 0.985 . S
N1625 C1627 1.356 . S
N1625 H1630 0.984 . S
N1625 H1631 0.985 . S
C1626 C1620 1.379 . S
C1626 C1623 1.363 . S
C1626 N1624 1.356 . S
C1627 C1621 1.363 . S
C1627 C1622 1.379 . S
C1627 N1625 1.356 . S
N1628 C1620 1.356 . S
N1628 H1634 0.984 . S
N1628 H1635 0.984 . S
N1629 C1622 1.356 . S
N1629 H1632 0.984 . S
N1629 H1633 0.985 . S
H1630 N1625 0.984 . S
H1631 N1625 0.985 . S
H1632 N1629 0.984 . S
H1633 N1629 0.985 . S
H1634 N1628 0.984 . S
H1635 N1628 0.984 . S
H1636 N1624 0.984 . S
H1637 N1624 0.985 . S
C1638 C1639 1.363 . S
C1638 C1644 1.379 . S
C1638 N1646 1.356 . S
C1639 C1638 1.363 . S
C1639 C1645 1.363 . S
C1640 C1641 1.363 . S
C1640 C1645 1.379 . S
C1640 N1647 1.356 . S
C1641 C1640 1.363 . S
C1641 C1644 1.363 . S
N1642 C1644 1.356 . S
N1642 H1654 0.984 . S
N1642 H1655 0.985 . S
N1643 C1645 1.356 . S
N1643 H1648 0.984 . S
N1643 H1649 0.985 . S
C1644 C1638 1.379 . S
C1644 C1641 1.363 . S
C1644 N1642 1.356 . S
C1645 C1639 1.363 . S
C1645 C1640 1.379 . S
C1645 N1643 1.356 . S
N1646 C1638 1.356 . S
N1646 H1652 0.984 . S
N1646 H1653 0.984 . S
N1647 C1640 1.356 . S
N1647 H1650 0.984 . S
N1647 H1651 0.985 . S
H1648 N1643 0.984 . S
H1649 N1643 0.985 . S
H1650 N1647 0.984 . S
H1651 N1647 0.985 . S
H1652 N1646 0.984 . S
H1653 N1646 0.984 . S
H1654 N1642 0.984 . S
H1655 N1642 0.985 . S
C1656 C1657 1.363 . S
C1656 C1662 1.379 . S
C1656 N1664 1.356 . S
C1657 C1656 1.363 . S
C1657 C1663 1.363 . S
C1658 C1659 1.363 . S
C1658 C1663 1.379 . S
C1658 N1665 1.356 . S
C1659 C1658 1.363 . S
C1659 C1662 1.363 . S
N1660 C1662 1.356 . S
N1660 H1672 0.984 . S
N1660 H1673 0.985 . S
N1661 C1663 1.356 . S
N1661 H1666 0.984 . S
N1661 H1667 0.985 . S
C1662 C1656 1.379 . S
C1662 C1659 1.363 . S
C1662 N1660 1.356 . S
C1663 C1657 1.363 . S
C1663 C1658 1.379 . S
C1663 N1661 1.356 . S
N1664 C1656 1.356 . S
N1664 H1670 0.984 . S
N1664 H1671 0.984 . S
N1665 C1658 1.356 . S
N1665 H1668 0.984 . S
N1665 H1669 0.985 . S
H1666 N1661 0.984 . S
H1667 N1661 0.985 . S
H1668 N1665 0.984 . S
H1669 N1665 0.985 . S
H1670 N1664 0.984 . S
H1671 N1664 0.984 . S
H1672 N1660 0.984 . S
H1673 N1660 0.985 . S
C1674 C1675 1.363 . S
C1674 C1680 1.379 . S
C1674 N1682 1.356 . S
C1675 C1674 1.363 . S
C1675 C1681 1.363 . S
C1676 C1677 1.363 . S
C1676 C1681 1.379 . S
C1676 N1683 1.356 . S
C1677 C1676 1.363 . S
C1677 C1680 1.363 . S
N1678 C1680 1.356 . S
N1678 H1690 0.984 . S
N1678 H1691 0.985 . S
N1679 C1681 1.356 . S
N1679 H1684 0.984 . S
N1679 H1685 0.985 . S
C1680 C1674 1.379 . S
C1680 C1677 1.363 . S
C1680 N1678 1.356 . S
C1681 C1675 1.363 . S
C1681 C1676 1.379 . S
C1681 N1679 1.356 . S
N1682 C1674 1.356 . S
N1682 H1688 0.984 . S
N1682 H1689 0.984 . S
N1683 C1676 1.356 . S
N1683 H1686 0.984 . S
N1683 H1687 0.985 1_655 S
H1684 N1679 0.984 . S
H1685 N1679 0.985 . S
H1686 N1683 0.984 . S
H1687 N1683 0.985 1_455 S
H1688 N1682 0.984 . S
H1689 N1682 0.984 . S
H1690 N1678 0.984 . S
H1691 N1678 0.985 . S
C1692 C1693 1.363 . S
C1692 C1698 1.379 . S
C1692 N1700 1.356 . S
C1693 C1692 1.363 . S
C1693 C1699 1.363 . S
C1694 C1695 1.363 . S
C1694 C1699 1.379 . S
C1694 N1701 1.356 . S
C1695 C1694 1.363 . S
C1695 C1698 1.363 . S
N1696 C1698 1.356 . S
N1696 H1708 0.984 . S
N1696 H1709 0.985 . S
N1697 C1699 1.356 . S
N1697 H1702 0.984 . S
N1697 H1703 0.985 . S
C1698 C1692 1.379 . S
C1698 C1695 1.363 . S
C1698 N1696 1.356 . S
C1699 C1693 1.363 . S
C1699 C1694 1.379 . S
C1699 N1697 1.356 . S
N1700 C1692 1.356 . S
N1700 H1706 0.984 . S
N1700 H1707 0.984 . S
N1701 C1694 1.356 . S
N1701 H1704 0.984 . S
N1701 H1705 0.985 . S
H1702 N1697 0.984 . S
H1703 N1697 0.985 . S
H1704 N1701 0.984 . S
H1705 N1701 0.985 . S
H1706 N1700 0.984 . S
H1707 N1700 0.984 . S
H1708 N1696 0.984 . S
H1709 N1696 0.985 . S
C1710 C1711 1.363 . S
C1710 C1716 1.379 . S
C1710 N1718 1.356 . S
C1711 C1710 1.363 . S
C1711 C1717 1.363 . S
C1712 C1713 1.363 . S
C1712 C1717 1.379 . S
C1712 N1719 1.356 . S
C1713 C1712 1.363 . S
C1713 C1716 1.363 . S
N1714 C1716 1.356 . S
N1714 H1726 0.984 . S
N1714 H1727 0.985 . S
N1715 C1717 1.356 . S
N1715 H1720 0.984 . S
N1715 H1721 0.985 . S
C1716 C1710 1.379 . S
C1716 C1713 1.363 . S
C1716 N1714 1.356 . S
C1717 C1711 1.363 . S
C1717 C1712 1.379 . S
C1717 N1715 1.356 . S
N1718 C1710 1.356 . S
N1718 H1724 0.984 . S
N1718 H1725 0.984 . S
N1719 C1712 1.356 . S
N1719 H1722 0.984 . S
N1719 H1723 0.985 . S
H1720 N1715 0.984 . S
H1721 N1715 0.985 . S
H1722 N1719 0.984 . S
H1723 N1719 0.985 . S
H1724 N1718 0.984 . S
H1725 N1718 0.984 . S
H1726 N1714 0.984 . S
H1727 N1714 0.985 . S
C1728 C1729 1.363 . S
C1728 C1734 1.379 . S
C1728 N1736 1.356 . S
C1729 C1728 1.363 . S
C1729 C1735 1.363 . S
C1730 C1731 1.363 . S
C1730 C1735 1.379 . S
C1730 N1737 1.356 . S
C1731 C1730 1.363 . S
C1731 C1734 1.363 . S
N1732 C1734 1.356 . S
N1732 H1744 0.984 . S
N1732 H1745 0.985 . S
N1733 C1735 1.356 . S
N1733 H1738 0.984 . S
N1733 H1739 0.985 . S
C1734 C1728 1.379 . S
C1734 C1731 1.363 . S
C1734 N1732 1.356 . S
C1735 C1729 1.363 . S
C1735 C1730 1.379 . S
C1735 N1733 1.356 . S
N1736 C1728 1.356 . S
N1736 H1742 0.984 . S
N1736 H1743 0.984 . S
N1737 C1730 1.356 . S
N1737 H1740 0.984 . S
N1737 H1741 0.985 . S
H1738 N1733 0.984 . S
H1739 N1733 0.985 . S
H1740 N1737 0.984 . S
H1741 N1737 0.985 . S
H1742 N1736 0.984 . S
H1743 N1736 0.984 . S
H1744 N1732 0.984 . S
H1745 N1732 0.985 . S
C1746 C1747 1.363 . S
C1746 C1752 1.379 . S
C1746 N1754 1.356 . S
C1747 C1746 1.363 . S
C1747 C1753 1.363 . S
C1748 C1749 1.363 . S
C1748 C1753 1.379 . S
C1748 N1755 1.356 . S
C1749 C1748 1.363 . S
C1749 C1752 1.363 . S
N1750 C1752 1.356 . S
N1750 H1762 0.984 . S
N1750 H1763 0.985 . S
N1751 C1753 1.356 . S
N1751 H1756 0.984 . S
N1751 H1757 0.985 . S
C1752 C1746 1.379 . S
C1752 C1749 1.363 . S
C1752 N1750 1.356 . S
C1753 C1747 1.363 . S
C1753 C1748 1.379 . S
C1753 N1751 1.356 . S
N1754 C1746 1.356 . S
N1754 H1760 0.984 . S
N1754 H1761 0.984 . S
N1755 C1748 1.356 . S
N1755 H1758 0.984 . S
N1755 H1759 0.985 . S
H1756 N1751 0.984 . S
H1757 N1751 0.985 . S
H1758 N1755 0.984 . S
H1759 N1755 0.985 . S
H1760 N1754 0.984 . S
H1761 N1754 0.984 . S
H1762 N1750 0.984 . S
H1763 N1750 0.985 . S
C1764 C1765 1.363 . S
C1764 C1770 1.379 . S
C1764 N1772 1.356 . S
C1765 C1764 1.363 . S
C1765 C1771 1.363 . S
C1766 C1767 1.363 . S
C1766 C1771 1.379 . S
C1766 N1773 1.356 . S
C1767 C1766 1.363 . S
C1767 C1770 1.363 . S
N1768 C1770 1.356 . S
N1768 H1780 0.984 . S
N1768 H1781 0.985 . S
N1769 C1771 1.356 . S
N1769 H1774 0.984 . S
N1769 H1775 0.985 . S
C1770 C1764 1.379 . S
C1770 C1767 1.363 . S
C1770 N1768 1.356 . S
C1771 C1765 1.363 . S
C1771 C1766 1.379 . S
C1771 N1769 1.356 . S
N1772 C1764 1.356 . S
N1772 H1778 0.984 . S
N1772 H1779 0.984 . S
N1773 C1766 1.356 . S
N1773 H1776 0.984 . S
N1773 H1777 0.985 . S
H1774 N1769 0.984 . S
H1775 N1769 0.985 . S
H1776 N1773 0.984 . S
H1777 N1773 0.985 . S
H1778 N1772 0.984 . S
H1779 N1772 0.984 . S
H1780 N1768 0.984 . S
H1781 N1768 0.985 . S
C1782 C1783 1.363 . S
C1782 C1788 1.379 . S
C1782 N1790 1.356 . S
C1783 C1782 1.363 . S
C1783 C1789 1.363 . S
C1784 C1785 1.363 . S
C1784 C1789 1.379 . S
C1784 N1791 1.356 . S
C1785 C1784 1.363 . S
C1785 C1788 1.363 . S
N1786 C1788 1.356 . S
N1786 H1798 0.984 . S
N1786 H1799 0.985 . S
N1787 C1789 1.356 . S
N1787 H1792 0.984 . S
N1787 H1793 0.985 . S
C1788 C1782 1.379 . S
C1788 C1785 1.363 . S
C1788 N1786 1.356 . S
C1789 C1783 1.363 . S
C1789 C1784 1.379 . S
C1789 N1787 1.356 . S
N1790 C1782 1.356 . S
N1790 H1796 0.984 . S
N1790 H1797 0.984 . S
N1791 C1784 1.356 . S
N1791 H1794 0.984 . S
N1791 H1795 0.985 . S
H1792 N1787 0.984 . S
H1793 N1787 0.985 . S
H1794 N1791 0.984 . S
H1795 N1791 0.985 . S
H1796 N1790 0.984 . S
H1797 N1790 0.984 . S
H1798 N1786 0.984 . S
H1799 N1786 0.985 . S
C1800 C1801 1.363 . S
C1800 C1806 1.379 . S
C1800 N1808 1.356 . S
C1801 C1800 1.363 . S
C1801 C1807 1.363 . S
C1802 C1803 1.363 . S
C1802 C1807 1.379 . S
C1802 N1809 1.356 . S
C1803 C1802 1.363 . S
C1803 C1806 1.363 . S
N1804 C1806 1.356 . S
N1804 H1816 0.984 . S
N1804 H1817 0.985 . S
N1805 C1807 1.356 . S
N1805 H1810 0.984 . S
N1805 H1811 0.985 . S
C1806 C1800 1.379 . S
C1806 C1803 1.363 . S
C1806 N1804 1.356 . S
C1807 C1801 1.363 . S
C1807 C1802 1.379 . S
C1807 N1805 1.356 . S
N1808 C1800 1.356 . S
N1808 H1814 0.984 . S
N1808 H1815 0.984 . S
N1809 C1802 1.356 . S
N1809 H1812 0.984 . S
N1809 H1813 0.985 . S
H1810 N1805 0.984 . S
H1811 N1805 0.985 . S
H1812 N1809 0.984 . S
H1813 N1809 0.985 . S
H1814 N1808 0.984 . S
H1815 N1808 0.984 . S
H1816 N1804 0.984 . S
H1817 N1804 0.985 . S
C1818 C1819 1.363 . S
C1818 C1824 1.379 . S
C1818 N1826 1.356 . S
C1819 C1818 1.363 . S
C1819 C1825 1.363 . S
C1820 C1821 1.363 . S
C1820 C1825 1.379 . S
C1820 N1827 1.356 . S
C1821 C1820 1.363 . S
C1821 C1824 1.363 . S
N1822 C1824 1.356 . S
N1822 H1834 0.984 . S
N1822 H1835 0.985 . S
N1823 C1825 1.356 . S
N1823 H1828 0.984 . S
N1823 H1829 0.985 . S
C1824 C1818 1.379 . S
C1824 C1821 1.363 . S
C1824 N1822 1.356 . S
C1825 C1819 1.363 . S
C1825 C1820 1.379 . S
C1825 N1823 1.356 . S
N1826 C1818 1.356 . S
N1826 H1832 0.984 . S
N1826 H1833 0.984 . S
N1827 C1820 1.356 . S
N1827 H1830 0.984 . S
N1827 H1831 0.985 . S
H1828 N1823 0.984 . S
H1829 N1823 0.985 . S
H1830 N1827 0.984 . S
H1831 N1827 0.985 . S
H1832 N1826 0.984 . S
H1833 N1826 0.984 . S
H1834 N1822 0.984 . S
H1835 N1822 0.985 . S
C1836 C1837 1.363 . S
C1836 C1842 1.379 . S
C1836 N1844 1.356 . S
C1837 C1836 1.363 . S
C1837 C1843 1.363 . S
C1838 C1839 1.363 . S
C1838 C1843 1.379 . S
C1838 N1845 1.356 . S
C1839 C1838 1.363 . S
C1839 C1842 1.363 . S
N1840 C1842 1.356 . S
N1840 H1852 0.984 . S
N1840 H1853 0.985 . S
N1841 C1843 1.356 . S
N1841 H1846 0.984 . S
N1841 H1847 0.985 . S
C1842 C1836 1.379 . S
C1842 C1839 1.363 . S
C1842 N1840 1.356 . S
C1843 C1837 1.363 . S
C1843 C1838 1.379 . S
C1843 N1841 1.356 . S
N1844 C1836 1.356 . S
N1844 H1850 0.984 . S
N1844 H1851 0.984 . S
N1845 C1838 1.356 . S
N1845 H1848 0.984 . S
N1845 H1849 0.985 . S
H1846 N1841 0.984 . S
H1847 N1841 0.985 . S
H1848 N1845 0.984 . S
H1849 N1845 0.985 . S
H1850 N1844 0.984 . S
H1851 N1844 0.984 . S
H1852 N1840 0.984 . S
H1853 N1840 0.985 . S
C1854 C1855 1.363 . S
C1854 C1860 1.379 . S
C1854 N1862 1.356 . S
C1855 C1854 1.363 . S
C1855 C1861 1.363 . S
C1856 C1857 1.363 . S
C1856 C1861 1.379 . S
C1856 N1863 1.356 . S
C1857 C1856 1.363 . S
C1857 C1860 1.363 . S
N1858 C1860 1.356 . S
N1858 H1870 0.984 . S
N1858 H1871 0.985 . S
N1859 C1861 1.356 . S
N1859 H1864 0.984 . S
N1859 H1865 0.985 . S
C1860 C1854 1.379 . S
C1860 C1857 1.363 . S
C1860 N1858 1.356 . S
C1861 C1855 1.363 . S
C1861 C1856 1.379 . S
C1861 N1859 1.356 . S
N1862 C1854 1.356 . S
N1862 H1868 0.984 . S
N1862 H1869 0.984 . S
N1863 C1856 1.356 . S
N1863 H1866 0.984 . S
N1863 H1867 0.985 . S
H1864 N1859 0.984 . S
H1865 N1859 0.985 . S
H1866 N1863 0.984 . S
H1867 N1863 0.985 . S
H1868 N1862 0.984 . S
H1869 N1862 0.984 . S
H1870 N1858 0.984 . S
H1871 N1858 0.985 . S
C1872 C1873 1.363 . S
C1872 C1878 1.379 . S
C1872 N1880 1.356 . S
C1873 C1872 1.363 . S
C1873 C1879 1.363 . S
C1874 C1875 1.363 . S
C1874 C1879 1.379 . S
C1874 N1881 1.356 . S
C1875 C1874 1.363 . S
C1875 C1878 1.363 . S
N1876 C1878 1.356 . S
N1876 H1888 0.984 . S
N1876 H1889 0.985 . S
N1877 C1879 1.356 . S
N1877 H1882 0.984 . S
N1877 H1883 0.985 . S
C1878 C1872 1.379 . S
C1878 C1875 1.363 . S
C1878 N1876 1.356 . S
C1879 C1873 1.363 . S
C1879 C1874 1.379 . S
C1879 N1877 1.356 . S
N1880 C1872 1.356 . S
N1880 H1886 0.984 . S
N1880 H1887 0.984 . S
N1881 C1874 1.356 . S
N1881 H1884 0.984 . S
N1881 H1885 0.985 . S
H1882 N1877 0.984 . S
H1883 N1877 0.985 . S
H1884 N1881 0.984 . S
H1885 N1881 0.985 . S
H1886 N1880 0.984 . S
H1887 N1880 0.984 . S
H1888 N1876 0.984 . S
H1889 N1876 0.985 . S
C1890 C1891 1.363 . S
C1890 C1896 1.379 . S
C1890 N1898 1.356 . S
C1891 C1890 1.363 . S
C1891 C1897 1.363 . S
C1892 C1893 1.363 . S
C1892 C1897 1.379 . S
C1892 N1899 1.356 . S
C1893 C1892 1.363 . S
C1893 C1896 1.363 . S
N1894 C1896 1.356 . S
N1894 H1906 0.984 . S
N1894 H1907 0.985 . S
N1895 C1897 1.356 . S
N1895 H1900 0.984 . S
N1895 H1901 0.985 . S
C1896 C1890 1.379 . S
C1896 C1893 1.363 . S
C1896 N1894 1.356 . S
C1897 C1891 1.363 . S
C1897 C1892 1.379 . S
C1897 N1895 1.356 . S
N1898 C1890 1.356 . S
N1898 H1904 0.984 . S
N1898 H1905 0.984 . S
N1899 C1892 1.356 . S
N1899 H1902 0.984 . S
N1899 H1903 0.985 . S
H1900 N1895 0.984 . S
H1901 N1895 0.985 . S
H1902 N1899 0.984 . S
H1903 N1899 0.985 . S
H1904 N1898 0.984 . S
H1905 N1898 0.984 . S
H1906 N1894 0.984 . S
H1907 N1894 0.985 . S
C1908 C1909 1.363 . S
C1908 C1914 1.379 . S
C1908 N1916 1.356 . S
C1909 C1908 1.363 . S
C1909 C1915 1.363 . S
C1910 C1911 1.363 . S
C1910 C1915 1.379 . S
C1910 N1917 1.356 . S
C1911 C1910 1.363 . S
C1911 C1914 1.363 . S
N1912 C1914 1.356 . S
N1912 H1924 0.984 . S
N1912 H1925 0.985 . S
N1913 C1915 1.356 . S
N1913 H1918 0.984 . S
N1913 H1919 0.985 . S
C1914 C1908 1.379 . S
C1914 C1911 1.363 . S
C1914 N1912 1.356 . S
C1915 C1909 1.363 . S
C1915 C1910 1.379 . S
C1915 N1913 1.356 . S
N1916 C1908 1.356 . S
N1916 H1922 0.984 . S
N1916 H1923 0.984 . S
N1917 C1910 1.356 . S
N1917 H1920 0.984 . S
N1917 H1921 0.985 . S
H1918 N1913 0.984 . S
H1919 N1913 0.985 . S
H1920 N1917 0.984 . S
H1921 N1917 0.985 . S
H1922 N1916 0.984 . S
H1923 N1916 0.984 . S
H1924 N1912 0.984 . S
H1925 N1912 0.985 . S
C1926 C1927 1.363 . S
C1926 C1932 1.379 . S
C1926 N1934 1.356 . S
C1927 C1926 1.363 . S
C1927 C1933 1.363 . S
C1928 C1929 1.363 . S
C1928 C1933 1.379 . S
C1928 N1935 1.356 . S
C1929 C1928 1.363 . S
C1929 C1932 1.363 . S
N1930 C1932 1.356 . S
N1930 H1942 0.984 . S
N1930 H1943 0.985 . S
N1931 C1933 1.356 . S
N1931 H1936 0.984 . S
N1931 H1937 0.985 . S
C1932 C1926 1.379 . S
C1932 C1929 1.363 . S
C1932 N1930 1.356 . S
C1933 C1927 1.363 . S
C1933 C1928 1.379 . S
C1933 N1931 1.356 . S
N1934 C1926 1.356 . S
N1934 H1940 0.984 . S
N1934 H1941 0.984 . S
N1935 C1928 1.356 . S
N1935 H1938 0.984 . S
N1935 H1939 0.985 . S
H1936 N1931 0.984 . S
H1937 N1931 0.985 . S
H1938 N1935 0.984 . S
H1939 N1935 0.985 . S
H1940 N1934 0.984 . S
H1941 N1934 0.984 . S
H1942 N1930 0.984 . S
H1943 N1930 0.985 . S
C973 C162 1.474 . S
C975 C283 1.416 . S
C991 C174 1.499 . S
C993 C367 1.447 . S
C1009 C150 1.470 . S
C1011 C447 1.470 . S
C1027 C138 1.459 . S
C1029 C363 1.464 . S
C1047 C451 1.407 . S
C1045 C114 1.466 . S
C1063 C126 1.438 . S
C1065 C279 1.437 . S
C1083 C272 1.461 . S
C1081 C136 1.508 . S
C1101 C356 1.484 . S
C1099 C112 1.529 . S
C1117 C124 1.521 . S
C1119 C458 1.483 . S
C1135 C160 1.499 . S
C1137 C374 1.461 . S
C1153 C172 1.488 . S
C1155 C440 1.437 . S
C1173 C290 1.442 . S
C1171 C148 1.481 . S
C1191 C535 1.416 . S
C1189 C18 1.474 . S
C1207 C30 1.499 . S
C1209 C619 1.447 . S
C1225 C6 1.470 . S
C1227 C699 1.470 . S
C1243 C210 1.459 . S
C1245 C615 1.463 . S
C1261 C186 1.466 . S
C1263 C703 1.407 . S
C1279 C198 1.437 . S
C1281 C531 1.437 . S
C1297 C208 1.508 . S
C1299 C524 1.460 . S
C1315 C184 1.529 . S
C1317 C608 1.484 . S
C1335 C710 1.483 . S
C1333 C196 1.521 . S
C1351 C16 1.499 1_565 S
C1353 C626 1.461 . S
C1371 C692 1.437 . S
C1369 C28 1.488 1_455 S
C1387 C4 1.481 . S
C1389 C542 1.442 . S
C1407 C787 1.416 . S
C1405 C90 1.474 . S
C1423 C102 1.499 . S
C1425 C871 1.447 . S
C1443 C951 1.470 . S
C1441 C78 1.470 . S
C1461 C867 1.463 . S
C1459 C66 1.459 . S
C1479 C955 1.407 . S
C1477 C42 1.466 . S
C1495 C54 1.437 . S
C1497 C783 1.437 . S
C1513 C64 1.508 1_655 S
C1515 C776 1.460 . S
C1531 C40 1.529 . S
C1533 C860 1.484 . S
C1551 C962 1.483 . S
C1549 C52 1.521 1_545 S
C1567 C88 1.499 . S
C1569 C878 1.461 . S
C1585 C100 1.488 . S
C1587 C944 1.437 . S
C1603 C76 1.481 . S
C1605 C794 1.442 . S
C1621 C189 1.583 . S
C1623 C286 1.477 . S
C1641 C370 1.485 . S
C1639 C201 1.626 . S
C1657 C213 1.579 . S
C1659 C442 1.387 . S
C1675 C81 1.591 . S
C1677 C358 1.381 . S
C1693 C93 1.590 . S
C1695 C454 1.461 . S
C1713 C274 1.378 . S
C1711 C105 1.548 . S
C1729 C45 1.583 . S
C1731 C538 1.478 . S
C1747 C57 1.626 . S
C1749 C622 1.485 . S
C1765 C69 1.579 . S
C1767 C694 1.387 . S
C1783 C153 1.591 . S
C1785 C610 1.381 . S
C1803 C706 1.461 . S
C1801 C165 1.590 . S
C1819 C177 1.548 . S
C1821 C526 1.378 . S
C1837 C117 1.583 . S
C1839 C790 1.478 . S
C1855 C129 1.626 . S
C1857 C874 1.485 . S
C1875 C946 1.387 . S
C1873 C141 1.579 . S
C1891 C9 1.591 . S
C1893 C862 1.381 . S
C1909 C21 1.590 . S
C1911 C958 1.461 . S
C1927 C33 1.548 . S
C1929 C778 1.378 . S
