# Generated by pormake.
# Topology csq, (4,8)-cn, num edge types: 1
# Building blocks:
#     Node 0, Type 0, BuildingBlock: GIZVER_clean_linker_0, # of connection points: 4
#     Node 1, Type 0, BuildingBlock: GIZVER_clean_linker_0, # of connection points: 4
#     Node 2, Type 0, BuildingBlock: GIZVER_clean_linker_0, # of connection points: 4
#     Node 3, Type 0, BuildingBlock: GIZVER_clean_linker_0, # of connection points: 4
#     Node 4, Type 0, BuildingBlock: GIZVER_clean_linker_0, # of connection points: 4
#     Node 5, Type 0, BuildingBlock: GIZVER_clean_linker_0, # of connection points: 4
#     Node 6, Type 1, BuildingBlock: TAGTUT_clean_sbu_1, # of connection points: 8
#     Node 7, Type 1, BuildingBlock: TAGTUT_clean_sbu_1, # of connection points: 8
#     Node 8, Type 1, BuildingBlock: TAGTUT_clean_sbu_1, # of connection points: 8
#     Edge 9, Type (0, 1), BuildingBlock: CIFDUS_clean_linker_0, # of connection points: 2
#     Edge 10, Type (0, 1), BuildingBlock: CIFDUS_clean_linker_0, # of connection points: 2
#     Edge 11, Type (0, 1), BuildingBlock: CIFDUS_clean_linker_0, # of connection points: 2
#     Edge 12, Type (0, 1), BuildingBlock: CIFDUS_clean_linker_0, # of connection points: 2
#     Edge 13, Type (0, 1), BuildingBlock: CIFDUS_clean_linker_0, # of connection points: 2
#     Edge 14, Type (0, 1), BuildingBlock: CIFDUS_clean_linker_0, # of connection points: 2
#     Edge 15, Type (0, 1), BuildingBlock: CIFDUS_clean_linker_0, # of connection points: 2
#     Edge 16, Type (0, 1), BuildingBlock: CIFDUS_clean_linker_0, # of connection points: 2
#     Edge 17, Type (0, 1), BuildingBlock: CIFDUS_clean_linker_0, # of connection points: 2
#     Edge 18, Type (0, 1), BuildingBlock: CIFDUS_clean_linker_0, # of connection points: 2
#     Edge 19, Type (0, 1), BuildingBlock: CIFDUS_clean_linker_0, # of connection points: 2
#     Edge 20, Type (0, 1), BuildingBlock: CIFDUS_clean_linker_0, # of connection points: 2
#     Edge 21, Type (0, 1), BuildingBlock: CIFDUS_clean_linker_0, # of connection points: 2
#     Edge 22, Type (0, 1), BuildingBlock: CIFDUS_clean_linker_0, # of connection points: 2
#     Edge 23, Type (0, 1), BuildingBlock: CIFDUS_clean_linker_0, # of connection points: 2
#     Edge 24, Type (0, 1), BuildingBlock: CIFDUS_clean_linker_0, # of connection points: 2
#     Edge 25, Type (0, 1), BuildingBlock: CIFDUS_clean_linker_0, # of connection points: 2
#     Edge 26, Type (0, 1), BuildingBlock: CIFDUS_clean_linker_0, # of connection points: 2
#     Edge 27, Type (0, 1), BuildingBlock: CIFDUS_clean_linker_0, # of connection points: 2
#     Edge 28, Type (0, 1), BuildingBlock: CIFDUS_clean_linker_0, # of connection points: 2
#     Edge 29, Type (0, 1), BuildingBlock: CIFDUS_clean_linker_0, # of connection points: 2
#     Edge 30, Type (0, 1), BuildingBlock: CIFDUS_clean_linker_0, # of connection points: 2
#     Edge 31, Type (0, 1), BuildingBlock: CIFDUS_clean_linker_0, # of connection points: 2
#     Edge 32, Type (0, 1), BuildingBlock: CIFDUS_clean_linker_0, # of connection points: 2
# Relax obj value: 0.046
# Max RMSD: 0.133
# Mean RMSD: 0.096
data_MOF--net-csq--node1-TAGTUT_clean_sbu_1--node2-GIZVER_clean_linker_0--edge1-CIFDUS_clean_linker_0
_symmetry_space_group_name_H-M    P1
_symmetry_Int_Tables_number       1
_symmetry_cell_setting            triclinic
loop_
_symmetry_equiv_pos_as_xyz
'x, y, z'
_cell_length_a     47.998251
_cell_length_b     47.885806
_cell_length_c     16.669629
_cell_angle_alpha  93.699503
_cell_angle_beta   91.798066
_cell_angle_gamma 119.79408
loop_
_atom_site_label
_atom_site_type_symbol
_atom_site_fract_x
_atom_site_fract_y
_atom_site_fract_z
_atom_type_partial_charge
H0 H 0.25816 0.56142 0.06733 0.0
H1 H 0.26161 0.56382 0.32653 0.0
H2 H 0.1705 0.52021 0.18728 0.0
H3 H 0.30767 0.59913 0.14965 0.0
H4 H 0.31009 0.59855 0.25657 0.0
H5 H 0.32357 0.567 0.0643 0.0
H6 H 0.3586 0.51129 0.17823 0.0
H7 H 0.3119 0.55292 0.3165 0.0
C8 C 0.24597 0.55461 0.12246 0.0
C9 C 0.21237 0.53897 0.11918 0.0
C10 C 0.26397 0.56319 0.19686 0.0
C11 C 0.24783 0.55607 0.26869 0.0
C12 C 0.21392 0.53993 0.26581 0.0
C13 C 0.19649 0.53104 0.19039 0.0
C14 C 0.30026 0.5828 0.19896 0.0
C15 C 0.31488 0.56127 0.19066 0.0
C16 C 0.326 0.55598 0.11688 0.0
C17 C 0.34138 0.53747 0.11192 0.0
C18 C 0.34534 0.52419 0.18097 0.0
C19 C 0.33506 0.52995 0.2551 0.0
C20 C 0.31943 0.54804 0.25914 0.0
H21 H 0.81509 0.2509 0.00816 0.0
H22 H 0.83295 0.2648 0.26602 0.0
H23 H 0.85572 0.34585 0.13243 0.0
H24 H 0.81122 0.2074 0.08719 0.0
H25 H 0.8168 0.21301 0.19472 0.0
H26 H 0.75922 0.1905 0.01866 0.0
H27 H 0.67713 0.15532 0.16083 0.0
H28 H 0.77257 0.20879 0.27728 0.0
C29 C 0.82231 0.2667 0.06355 0.0
C30 C 0.83665 0.30033 0.06037 0.0
C31 C 0.81929 0.25363 0.13838 0.0
C32 C 0.83232 0.27455 0.20954 0.0
C33 C 0.84668 0.30805 0.20642 0.0
C34 C 0.84532 0.32 0.13309 0.0
C35 C 0.80564 0.21783 0.14177 0.0
C36 C 0.76973 0.20125 0.1473 0.0
C37 C 0.74907 0.18818 0.07669 0.0
C38 C 0.71554 0.17171 0.08077 0.0
C39 C 0.70295 0.16924 0.15666 0.0
C40 C 0.72318 0.18268 0.22791 0.0
C41 C 0.75667 0.19865 0.22278 0.0
H42 H 0.52396 0.7967 0.92324 0.0
H43 H 0.55368 0.80259 0.17297 0.0
H44 H 0.51258 0.85909 0.09859 0.0
H45 H 0.56193 0.77921 0.9675 0.0
H46 H 0.57203 0.77979 0.07105 0.0
H47 H 0.52124 0.73149 0.89509 0.0
H48 H 0.4845 0.64403 0.00901 0.0
H49 H 0.53477 0.73548 0.15269 0.0
C50 C 0.52394 0.80444 0.98577 0.0
C51 C 0.51544 0.8282 0.00437 0.0
C52 C 0.53616 0.79366 0.04757 0.0
C53 C 0.54084 0.8078 0.12704 0.0
C54 C 0.53325 0.83207 0.14451 0.0
C55 C 0.51758 0.83958 0.08483 0.0
C56 C 0.55142 0.77341 0.02689 0.0
C57 C 0.52803 0.7376 0.02503 0.0
C58 C 0.5156 0.71945 0.95013 0.0
C59 C 0.49979 0.68572 0.94513 0.0
C60 C 0.49443 0.66999 0.01549 0.0
C61 C 0.50774 0.6873 0.09091 0.0
C62 C 0.5236 0.72142 0.09559 0.0
H63 H 0.75817 0.56248 0.92279 0.0
H64 H 0.75927 0.55761 0.17986 0.0
H65 H 0.66965 0.52297 0.03895 0.0
H66 H 0.80778 0.59491 0.00652 0.0
H67 H 0.80841 0.59483 0.11346 0.0
H68 H 0.81658 0.55608 0.92277 0.0
H69 H 0.85557 0.50578 0.04629 0.0
H70 H 0.81338 0.55325 0.18046 0.0
C71 C 0.74539 0.55476 0.9768 0.0
C72 C 0.71188 0.54088 0.9723 0.0
C73 C 0.76264 0.5604 0.05133 0.0
C74 C 0.7459 0.55214 0.12193 0.0
C75 C 0.71215 0.53823 0.11824 0.0
C76 C 0.69539 0.5321 0.0426 0.0
C77 C 0.79898 0.57881 0.05617 0.0
C78 C 0.81262 0.55638 0.05194 0.0
C79 C 0.82095 0.54759 0.97789 0.0
C80 C 0.83581 0.52862 0.97552 0.0
C81 C 0.84232 0.51869 0.04769 0.0
C82 C 0.8347 0.52764 0.12208 0.0
C83 C 0.8192 0.54596 0.12341 0.0
H84 H 0.2916 0.77509 0.95254 0.0
H85 H 0.33141 0.79111 0.19815 0.0
H86 H 0.36969 0.86816 0.04283 0.0
H87 H 0.28718 0.72912 0.03754 0.0
H88 H 0.29344 0.73739 0.14448 0.0
H89 H 0.24095 0.72732 0.96276 0.0
H90 H 0.16125 0.71177 0.09911 0.0
H91 H 0.25135 0.73625 0.22211 0.0
C92 C 0.30801 0.79106 0.00233 0.0
C93 C 0.32983 0.8232 -0.00961 0.0
C94 C 0.30794 0.77941 0.07786 0.0
C95 C 0.33051 0.8002 0.14082 0.0
C96 C 0.35325 0.8321 0.12805 0.0
C97 C 0.35221 0.84352 0.05324 0.0
C98 C 0.28576 0.74425 0.08899 0.0
C99 C 0.25138 0.73681 0.09224 0.0
C100 C 0.23173 0.72897 0.02032 0.0
C101 C 0.19926 0.72001 0.02329 0.0
C102 C 0.18691 0.72066 0.09742 0.0
C103 C 0.20496 0.72478 0.16896 0.0
C104 C 0.23757 0.73395 0.16683 0.0
H105 H 0.52962 0.29584 0.05156 0.0
H106 H 0.51628 0.27948 0.30265 0.0
H107 H 0.47577 0.32971 0.18499 0.0
H108 H 0.55799 0.27384 0.11891 0.0
H109 H 0.56337 0.28118 0.22614 0.0
H110 H 0.50357 0.22259 0.0605 0.0
H111 H 0.48889 0.14055 0.18413 0.0
H112 H 0.54507 0.23569 0.30286 0.0
C113 C 0.51859 0.29698 0.10648 0.0
C114 C 0.50176 0.31396 0.11081 0.0
C115 C 0.52318 0.28361 0.17538 0.0
C116 C 0.51089 0.28763 0.24818 0.0
C117 C 0.49346 0.30401 0.2517 0.0
C118 C 0.48806 0.31584 0.18197 0.0
C119 C 0.54482 0.26915 0.17471 0.0
C120 C 0.52624 0.23314 0.18081 0.0
C121 C 0.50673 0.21231 0.11367 0.0
C122 C 0.49254 0.17858 0.11422 0.0
C123 C 0.49809 0.16626 0.1832 0.0
C124 C 0.51648 0.18644 0.25111 0.0
C125 C 0.53029 0.21997 0.25061 0.0
C126 C 0.97139 0.43784 0.84096 0.0
C127 C 0.07354 0.49021 0.78554 0.0
C128 C 0.05522 0.58751 0.72667 0.0
Mg129 Mg 1.00908 0.45089 0.68824 0.0
O130 O 1.00177 0.48594 0.698 0.0
Mg131 Mg 0.01884 0.51547 0.79898 0.0
Mg132 Mg 0.01742 0.51765 0.61666 0.0
O133 O 0.033 0.54927 0.53561 0.0
Mg134 Mg 0.02718 0.58524 0.54855 0.0
Mg135 Mg 0.01311 0.5189 0.43603 0.0
C136 C 0.98186 0.44809 0.50941 0.0
C137 C 0.06975 0.50839 0.51301 0.0
O138 O 0.98498 0.46851 0.86101 0.0
O139 O 0.97788 0.42605 0.77802 0.0
O140 O 0.06191 0.50733 0.81412 0.0
O141 O 0.05811 0.46709 0.73047 0.0
O142 O 0.98929 0.43484 0.56443 0.0
O143 O 0.98742 0.47733 0.51884 0.0
C144 C 0.96378 0.52652 0.71508 0.0
O145 O 0.97429 0.52565 0.64563 0.0
O146 O 0.97679 0.52337 0.77917 0.0
O147 O 0.04488 0.56467 0.37003 0.0
O148 O 0.05661 0.60863 0.45349 0.0
O149 O 0.9701 0.5279 0.42789 0.0
C150 C 0.06013 0.5955 0.38811 0.0
O151 O 0.97761 0.56936 0.51311 0.0
O152 O 0.04875 0.60161 0.67193 0.0
C153 C 0.9602 0.54614 0.45965 0.0
O154 O 0.04688 0.55744 0.71651 0.0
O155 O 0.06093 0.51021 0.58443 0.0
O156 O 0.0551 0.5105 0.45041 0.0
C157 C 0.44748 0.02957 0.81792 0.0
C158 C 0.42301 0.93739 0.6896 0.0
C159 C 0.54757 0.97388 0.74786 0.0
Mg160 Mg 0.45217 0.00723 0.64375 0.0
O161 O 0.49217 0.01641 0.69233 0.0
Mg162 Mg 0.49299 0.99426 0.78858 0.0
Mg163 Mg 0.52206 0.00897 0.62762 0.0
O164 O 0.55223 1.00218 0.56237 0.0
Mg165 Mg 0.59278 0.01237 0.60876 0.0
Mg166 Mg 0.5511 0.0244 0.46596 0.0
C167 C 0.49973 0.04881 0.51281 0.0
C168 C 0.48068 0.96021 0.46868 0.0
O169 O 0.46364 0.01686 0.84509 0.0
O170 O 0.44106 0.0293 0.74275 0.0
O171 O 0.44662 0.94859 0.74265 0.0
O172 O 0.41974 0.95521 0.64054 0.0
O173 O 0.47207 0.03703 0.54258 0.0
O174 O 0.52128 0.0423 0.53769 0.0
C175 C 0.56314 0.05812 0.78554 0.0
O176 O 0.56314 0.05142 0.70976 0.0
O177 O 0.53961 0.04042 0.82658 0.0
O178 O 0.57891 1.00085 0.40889 0.0
O179 O 0.60101 0.9873 0.51011 0.0
O180 O 0.59879 0.06995 0.50541 0.0
C181 C 0.594 0.98692 0.43514 0.0
O182 O 0.62666 0.06377 0.60519 0.0
O183 O 0.57511 0.98704 0.71722 0.0
C184 C 0.6237 0.08119 0.55435 0.0
O185 O 0.5237 0.97624 0.71904 0.0
O186 O 0.48068 0.96597 0.54503 0.0
O187 O 0.50419 0.97898 0.42917 0.0
C188 C 0.52239 0.55781 0.33856 0.0
C189 C 0.57802 0.51304 0.41585 0.0
C190 C 0.46247 0.42244 0.5214 0.0
Mg191 Mg 0.55556 0.55647 0.50025 0.0
O192 O 0.51365 0.52139 0.50274 0.0
Mg193 Mg 0.49693 0.48546 0.41551 0.0
Mg194 Mg 0.50171 0.497 0.59849 0.0
O195 O 0.48952 0.47296 0.69523 0.0
Mg196 Mg 0.44696 0.43943 0.69873 0.0
Mg197 Mg 0.50693 0.50965 0.78163 0.0
C198 C 0.53886 0.57239 0.67488 0.0
C199 C 0.56765 0.5114 0.69654 0.0
O200 O 0.50525 0.52662 0.33133 0.0
O201 O 0.54326 0.57357 0.39781 0.0
O202 O 0.54813 0.49358 0.3954 0.0
O203 O 0.58714 0.53854 0.46347 0.0
O204 O 0.55753 0.58171 0.61668 0.0
O205 O 0.51641 0.543 0.67712 0.0
C206 C 0.4351 0.48056 0.50054 0.0
O207 O 0.45038 0.48877 0.57021 0.0
O208 O 0.4479 0.47784 0.43679 0.0
O209 O 0.4971 0.4693 0.86792 0.0
O210 O 0.45957 0.42217 0.8009 0.0
O211 O 0.45724 0.50465 0.80203 0.0
C212 C 0.48017 0.43815 0.86063 0.0
O213 O 0.41708 0.45965 0.73737 0.0
O214 O 0.44394 0.41451 0.58013 0.0
C215 C 0.42721 0.48593 0.78275 0.0
O216 O 0.48704 0.45084 0.51925 0.0
O217 O 0.55279 0.50468 0.62667 0.0
O218 O 0.55519 0.51455 0.76052 0.0
H219 H 0.16255 0.48539 0.30993 0.0
H220 H 0.22465 0.58654 0.38534 0.0
H221 H 0.18748 0.58399 0.48564 0.0
H222 H 0.13234 0.55539 0.53193 0.0
H223 H 0.06962 0.45493 0.45162 0.0
H224 H 0.11205 0.45439 0.37525 0.0
C225 C 0.16835 0.50661 0.35007 0.0
C226 C 0.19617 0.53617 0.33979 0.0
C227 C 0.14656 0.50505 0.40667 0.0
C228 C 0.2035 0.56348 0.39227 0.0
C229 C 0.18206 0.56208 0.44921 0.0
C230 C 0.12865 0.53304 0.50103 0.0
C231 C 0.09814 0.50506 0.49842 0.0
C232 C 0.15285 0.53333 0.45455 0.0
C233 C 0.09317 0.4765 0.45587 0.0
C234 C 0.11727 0.47636 0.41113 0.0
H235 H 0.73912 0.16117 0.36005 0.0
H236 H 0.67382 0.19154 0.27215 0.0
H237 H 0.64037 0.16933 0.38429 0.0
H238 H 0.6238 0.13116 0.48744 0.0
H239 H 0.68713 0.09781 0.57112 0.0
H240 H 0.72792 0.13259 0.48391 0.0
C241 C 0.7182 0.16391 0.36712 0.0
C242 C 0.70851 0.17727 0.30683 0.0
C243 C 0.69861 0.15039 0.43104 0.0
C244 C 0.68135 0.18071 0.31684 0.0
C245 C 0.66223 0.16803 0.38099 0.0
C246 C 0.64707 0.13251 0.48903 0.0
C247 C 0.65212 0.11139 0.53428 0.0
C248 C 0.66969 0.15129 0.43576 0.0
C249 C 0.68251 0.1137 0.53667 0.0
C250 C 0.70568 0.13321 0.4856 0.0
H251 H 0.46578 0.62555 0.12813 0.0
H252 H 0.55953 0.70809 0.20098 0.0
H253 H 0.57218 0.67493 0.28201 0.0
H254 H 0.55931 0.62175 0.32121 0.0
H255 H 0.4681 0.53787 0.23809 0.0
H256 H 0.45298 0.572 0.16655 0.0
C257 C 0.48908 0.63643 0.16152 0.0
C258 C 0.51174 0.66946 0.15686 0.0
C259 C 0.49729 0.61667 0.20333 0.0
C260 C 0.54125 0.68306 0.2034 0.0
C261 C 0.54888 0.66387 0.24861 0.0
C262 C 0.53618 0.61077 0.28693 0.0
C263 C 0.51501 0.57715 0.28459 0.0
C264 C 0.52756 0.63051 0.24669 0.0
C265 C 0.48513 0.56351 0.2399 0.0
C266 C 0.47628 0.58311 0.19998 0.0
H267 H 0.86385 0.56937 0.25653 0.0
H268 H 0.8345 0.47247 0.15709 0.0
H269 H 0.86759 0.46767 0.26346 0.0
H270 H 0.91179 0.49452 0.36906 0.0
H271 H 0.94142 0.59157 0.46786 0.0
H272 H 0.90036 0.59228 0.37927 0.0
C273 C 0.86374 0.54677 0.25964 0.0
C274 C 0.84729 0.52159 0.19776 0.0
C275 C 0.88314 0.54431 0.32046 0.0
C276 C 0.84756 0.49251 0.20286 0.0
C277 C 0.86648 0.48974 0.26367 0.0
C278 C 0.90878 0.51557 0.37257 0.0
C279 C 0.93017 0.54323 0.42359 0.0
C280 C 0.88555 0.51606 0.32036 0.0
C281 C 0.92551 0.57004 0.42864 0.0
C282 C 0.90216 0.57057 0.37748 0.0
H283 H 0.35076 0.84829 0.28782 0.0
H284 H 0.41645 0.86228 0.10333 0.0
H285 H 0.46169 0.90096 0.19534 0.0
H286 H 0.48209 0.93369 0.32286 0.0
H287 H 0.41806 0.92201 0.50977 0.0
H288 H 0.37272 0.87916 0.42296 0.0
C289 C 0.37507 0.8596 0.26851 0.0
C290 C 0.38028 0.85291 0.18859 0.0
C291 C 0.40115 0.8823 0.32182 0.0
C292 C 0.41183 0.86755 0.16408 0.0
C293 C 0.43771 0.88959 0.21665 0.0
C294 C 0.45826 0.92182 0.34514 0.0
C295 C 0.4534 0.93161 0.42232 0.0
C296 C 0.43254 0.89769 0.2948 0.0
C297 C 0.42246 0.91525 0.45049 0.0
C298 C 0.39651 0.89079 0.40063 0.0
H299 H 0.4383 0.30204 0.29261 0.0
H300 H 0.53649 0.33627 0.3798 0.0
H301 H 0.5352 0.37698 0.47286 0.0
H302 H 0.50949 0.40858 0.51135 0.0
H303 H 0.41169 0.37563 0.42414 0.0
H304 H 0.40976 0.32931 0.34577 0.0
C305 C 0.45894 0.31767 0.3343 0.0
C306 C 0.48758 0.31655 0.32872 0.0
C307 C 0.45864 0.34223 0.38401 0.0
C308 C 0.51414 0.33659 0.38324 0.0
C309 C 0.51367 0.36039 0.43503 0.0
C310 C 0.48789 0.39133 0.47444 0.0
C311 C 0.46119 0.39585 0.47013 0.0
C312 C 0.48674 0.36454 0.43228 0.0
C313 C 0.43277 0.37285 0.42567 0.0
C314 C 0.43159 0.34631 0.382 0.0
H315 H 0.56325 0.88717 -0.01137 0.0
H316 H 0.46755 0.81782 0.88936 0.0
H317 H 0.46729 0.85855 0.80622 0.0
H318 H 0.49533 0.91448 0.76243 0.0
H319 H 0.59059 0.98287 0.86873 0.0
H320 H 0.58948 0.94233 0.95183 0.0
C321 C 0.54242 0.88093 0.94821 0.0
C322 C 0.51566 0.8496 0.94387 0.0
C323 C 0.54211 0.90458 0.90391 0.0
C324 C 0.48864 0.84167 0.89214 0.0
C325 C 0.48839 0.86508 0.84572 0.0
C326 C 0.51542 0.92063 0.80541 0.0
C327 C 0.54296 0.9517 0.81009 0.0
C328 C 0.51496 0.89677 0.85171 0.0
C329 C 0.56912 0.95922 0.86463 0.0
C330 C 0.56865 0.93597 0.9114 0.0
H331 H 0.6672 0.48895 0.87498 0.0
H332 H 0.71687 0.59295 0.90636 0.0
H333 H 0.67918 0.59363 0.80533 0.0
H334 H 0.62606 0.56399 0.73007 0.0
H335 H 0.57638 0.46009 0.69782 0.0
H336 H 0.62049 0.45976 0.77469 0.0
C337 C 0.67024 0.51167 0.85743 0.0
C338 C 0.69439 0.54084 0.8979 0.0
C339 C 0.64845 0.51182 0.79934 0.0
C340 C 0.69836 0.57027 0.87543 0.0
C341 C 0.67675 0.57064 0.8181 0.0
C342 C 0.62582 0.54146 0.73648 0.0
C343 C 0.59838 0.51214 0.70819 0.0
C344 C 0.65089 0.54152 0.78238 0.0
C345 C 0.59768 0.48293 0.71804 0.0
C346 C 0.62263 0.48274 0.76316 0.0
H347 H 0.16386 0.65602 0.00877 0.0
H348 H 0.18108 0.74025 0.89189 0.0
H349 H 0.13538 0.70628 0.79303 0.0
H350 H 0.09066 0.65297 0.74264 0.0
H351 H 0.07372 0.56866 0.86049 0.0
H352 H 0.11897 0.60264 0.95858 0.0
C353 C 0.15778 0.66672 0.9606 0.0
C354 C 0.17577 0.70025 0.95586 0.0
C355 C 0.1313 0.64726 0.90608 0.0
C356 C 0.16773 0.71433 0.89494 0.0
C357 C 0.14148 0.695 0.83948 0.0
C358 C 0.09644 0.64195 0.79042 0.0
C359 C 0.07865 0.6082 0.79426 0.0
C360 C 0.12293 0.6615 0.84519 0.0
C361 C 0.08684 0.59448 0.85625 0.0
C362 C 0.11288 0.61387 0.91193 0.0
H363 H 0.44277 0.11618 0.107 0.0
H364 H 0.50401 0.18925 0.95496 0.0
H365 H 0.48813 0.14806 0.84285 0.0
H366 H 0.46764 0.09116 0.79806 0.0
H367 H 0.41895 0.0182 0.96114 0.0
H368 H 0.42032 0.05915 0.06048 0.0
C369 C 0.45287 0.12323 0.04952 0.0
C370 C 0.47566 0.15581 0.04099 0.0
C371 C 0.44656 0.09912 -0.01202 0.0
C372 C 0.48668 0.16454 0.96434 0.0
C373 C 0.47802 0.14084 0.90024 0.0
C374 C 0.45663 0.08419 0.8547 0.0
C375 C 0.44304 0.05195 0.87282 0.0
C376 C 0.45964 0.10805 0.91298 0.0
C377 C 0.42944 0.043 0.94654 0.0
C378 C 0.43029 0.06637 0.00297 0.0
H379 H 0.32233 0.4854 0.0026 0.0
H380 H 0.39729 0.58416 0.06147 0.0
H381 H 0.42958 0.57815 0.95804 0.0
H382 H 0.43884 0.54287 0.86178 0.0
H383 H 0.36339 0.44419 0.80053 0.0
H384 H 0.32873 0.45224 0.89215 0.0
C385 C 0.34537 0.50576 -0.00896 0.0
C386 C 0.35739 0.53525 0.03893 0.0
C387 C 0.36378 0.50205 0.93135 0.0
C388 C 0.38743 0.5614 0.02446 0.0
C389 C 0.40596 0.55787 0.96575 0.0
C390 C 0.41456 0.52329 0.86704 0.0
C391 C 0.40395 0.49284 0.82454 0.0
C392 C 0.39474 0.52805 0.92025 0.0
C393 C 0.3723 0.46787 0.83214 0.0
C394 C 0.35249 0.47238 0.88515 0.0
H395 H 0.84358 0.35682 0.01098 0.0
H396 H 0.86499 0.28109 0.94589 0.0
H397 H 0.90882 0.31764 0.86931 0.0
H398 H 0.94731 0.37333 0.84286 0.0
H399 H 0.93147 0.451 0.92848 0.0
H400 H 0.88111 0.41214 0.98175 0.0
C401 C 0.85767 0.34817 0.97948 0.0
C402 C 0.8516 0.31649 -0.01278 0.0
C403 C 0.88519 0.37026 0.94364 0.0
C404 C 0.86898 0.30528 0.94212 0.0
C405 C 0.89475 0.32648 0.89995 0.0
C406 C 0.93297 0.38181 0.87375 0.0
C407 C 0.94347 0.41509 0.88309 0.0
C408 C 0.90423 0.35941 0.90469 0.0
C409 C 0.92443 0.42563 0.92247 0.0
C410 C 0.89533 0.40337 0.95159 0.0
H411 H 0.87681 0.57137 0.87619 0.0
H412 H 0.82352 0.4699 0.91041 0.0
H413 H 0.85526 0.45909 0.81477 0.0
H414 H 0.90508 0.48013 0.74513 0.0
H415 H 0.9606 0.58168 0.71566 0.0
H416 H 0.92087 0.59093 0.78356 0.0
C417 C 0.87138 0.54678 0.86011 0.0
C418 C 0.84807 0.52147 0.90072 0.0
C419 C 0.89045 0.54088 0.80654 0.0
C420 C 0.84147 0.48974 0.88016 0.0
C421 C 0.85973 0.48358 0.82584 0.0
C422 C 0.90758 0.504 0.75034 0.0
C423 C 0.93536 0.53016 0.7249 0.0
C424 C 0.88529 0.50916 0.79189 0.0
C425 C 0.93901 0.56116 0.73354 0.0
C426 C 0.91652 0.56646 0.77343 0.0
H427 H 0.36116 0.81654 0.86633 0.0
H428 H 0.30504 0.85975 0.94137 0.0
H429 H 0.32262 0.89429 0.83003 0.0
H430 H 0.3642 0.92084 0.73522 0.0
H431 H 0.4255 0.88214 0.67345 0.0
H432 H 0.39505 0.83641 0.75228 0.0
C433 C 0.35181 0.8326 0.85581 0.0
C434 C 0.33187 0.83575 0.91107 0.0
C435 C 0.36326 0.85334 0.79406 0.0
C436 C 0.32026 0.85695 0.89874 0.0
C437 C 0.33051 0.87681 0.83553 0.0
C438 C 0.36958 0.90135 0.7354 0.0
C439 C 0.39678 0.90456 0.69847 0.0
C440 C 0.35341 0.87647 0.78572 0.0
C441 C 0.40431 0.87978 0.70067 0.0
C442 C 0.38726 0.85397 0.747 0.0
H443 H 0.52491 0.37796 0.12659 0.0
H444 H 0.47638 0.29409 0.95466 0.0
H445 H 0.46511 0.32564 0.86166 0.0
H446 H 0.46535 0.3756 0.83546 0.0
H447 H 0.51304 0.45921 0.00958 0.0
H448 H 0.52776 0.42881 0.09727 0.0
C449 C 0.51233 0.36681 0.06802 0.0
C450 C 0.50133 0.33383 0.04707 0.0
C451 C 0.50509 0.38472 0.01681 0.0
C452 C 0.48523 0.31949 0.97136 0.0
C453 C 0.47844 0.33741 0.919 0.0
C454 C 0.47871 0.38719 0.89293 0.0
C455 C 0.48756 0.41954 0.91665 0.0
C456 C 0.48745 0.36974 0.94226 0.0
C457 C 0.50557 0.43429 -0.00962 0.0
C458 C 0.51416 0.41699 0.04021 0.0
H459 H 0.17554 0.48506 0.01733 0.0
H460 H 0.20751 0.58666 0.05592 0.0
H461 H 0.1698 0.58148 0.94594 0.0
H462 H 0.12314 0.54668 0.8519 0.0
H463 H 0.09091 0.44499 0.81105 0.0
H464 H 0.13395 0.45156 0.90685 0.0
C465 C 0.17463 0.50605 -6e-05 0.0
C466 C 0.19392 0.53614 0.044 0.0
C467 C 0.1529 0.50283 0.93659 0.0
C468 C 0.19278 0.56335 0.02202 0.0
C469 C 0.17121 0.56036 0.95956 0.0
C470 C 0.12606 0.52612 0.8626 0.0
C471 C 0.10377 0.49536 0.8255 0.0
C472 C 0.15049 0.53004 0.9182 0.0
C473 C 0.10789 0.46893 0.83892 0.0
C474 C 0.13227 0.47263 0.8943 0.0
H475 H 0.65826 0.1681 0.04308 0.0
H476 H 0.72288 0.13719 0.95327 0.0
H477 H 0.68286 0.10303 0.84381 0.0
H478 H 0.62649 0.07597 0.7853 0.0
H479 H 0.56076 0.10311 0.88577 0.0
H480 H 0.60394 0.14451 0.9791 0.0
C481 C 0.66367 0.15399 -0.00058 0.0
C482 C 0.69338 0.15492 0.00728 0.0
C483 C 0.64013 0.13346 0.93863 0.0
C484 C 0.70028 0.13712 0.94874 0.0
C485 C 0.67727 0.1173 0.8864 0.0
C486 C 0.62202 0.09161 0.8263 0.0
C487 C 0.59071 0.08673 0.82896 0.0
C488 C 0.64671 0.11447 0.88226 0.0
C489 C 0.58481 0.10659 0.88304 0.0
C490 C 0.60941 0.13012 0.93654 0.0
H491 H 0.55124 0.69508 0.86904 0.0
H492 H 0.44839 0.63305 0.86408 0.0
H493 H 0.45204 0.59104 0.78109 0.0
H494 H 0.4853 0.57 0.72568 0.0
H495 H 0.58843 0.6316 0.7329 0.0
H496 H 0.58413 0.67572 0.80312 0.0
C497 C 0.52952 0.67288 0.84671 0.0
C498 C 0.49954 0.66714 0.8712 0.0
C499 C 0.53212 0.64835 0.80364 0.0
C500 C 0.47157 0.63804 0.84417 0.0
C501 C 0.4738 0.61384 0.79864 0.0
C502 C 0.5069 0.59293 0.74383 0.0
C503 C 0.53728 0.59743 0.72661 0.0
C504 C 0.50409 0.61827 0.78138 0.0
C505 C 0.56494 0.62753 0.74749 0.0
C506 C 0.56241 0.65278 0.78646 0.0
H507 H 0.54627 0.15141 0.2568 0.0
H508 H 0.49273 0.18451 0.39734 0.0
H509 H 0.48281 0.14408 0.49227 0.0
H510 H 0.48369 0.0952 0.52452 0.0
H511 H 0.53775 0.06217 0.38542 0.0
H512 H 0.55294 0.10651 0.29936 0.0
C513 C 0.53341 0.1504 0.30994 0.0
C514 C 0.52032 0.17084 0.32079 0.0
C515 C 0.52702 0.12648 0.36241 0.0
C516 C 0.50339 0.1693 0.38887 0.0
C517 C 0.49726 0.14583 0.44211 0.0
C518 C 0.49863 0.0976 0.47497 0.0
C519 C 0.50879 0.07494 0.45943 0.0
C520 C 0.50782 0.12349 0.42743 0.0
C521 C 0.52916 0.07899 0.39728 0.0
C522 C 0.53797 0.10441 0.34855 0.0
H523 H 0.3262 0.4713 0.28622 0.0
H524 H 0.36758 0.56972 0.38976 0.0
H525 H 0.39674 0.55966 0.49623 0.0
H526 H 0.42006 0.52676 0.53801 0.0
H527 H 0.38123 0.42968 0.42787 0.0
H528 H 0.34053 0.43461 0.34856 0.0
C529 C 0.34087 0.49017 0.33362 0.0
C530 C 0.34526 0.52127 0.32965 0.0
C531 C 0.35807 0.48439 0.39357 0.0
C532 C 0.36396 0.54557 0.39163 0.0
C533 C 0.3808 0.53989 0.45224 0.0
C534 C 0.40152 0.50619 0.49995 0.0
C535 C 0.40354 0.478 0.48808 0.0
C536 C 0.37938 0.50991 0.45117 0.0
C537 C 0.37986 0.45155 0.43781 0.0
C538 C 0.35697 0.45457 0.39148 0.0
H539 H 0.90419 0.36213 0.19569 0.0
H540 H 0.83871 0.30582 0.36948 0.0
H541 H 0.87575 0.34461 0.47874 0.0
H542 H 0.92631 0.39456 0.52336 0.0
H543 H 0.98819 0.45341 0.34814 0.0
H544 H 0.95167 0.41386 0.23867 0.0
C545 C 0.89724 0.35863 0.25712 0.0
C546 C 0.8682 0.33132 0.27416 0.0
C547 C 0.91782 0.38151 0.31859 0.0
C548 C 0.86079 0.32656 0.35467 0.0
C549 C 0.88184 0.34881 0.41693 0.0
C550 C 0.93162 0.39862 0.46095 0.0
C551 C 0.95979 0.42631 0.44272 0.0
C552 C 0.91032 0.37631 0.39932 0.0
C553 C 0.96656 0.43205 0.36255 0.0
C554 C 0.94582 0.40948 0.30056 0.0
H555 H 0.57534 0.89431 0.13593 0.0
H556 H 0.52896 0.82404 0.30662 0.0
H557 H 0.55108 0.86758 0.41733 0.0
H558 H 0.57563 0.92569 0.45993 0.0
H559 H 0.61429 0.99507 0.28357 0.0
H560 H 0.60357 0.95177 0.1795 0.0
C561 C 0.57029 0.88856 0.19759 0.0
C562 C 0.54995 0.85638 0.21367 0.0
C563 C 0.58172 0.91355 0.25913 0.0
C564 C 0.54423 0.84882 0.29341 0.0
C565 C 0.55677 0.87366 0.3562 0.0
C566 C 0.5827 0.93134 0.39923 0.0
C567 C 0.59596 0.96334 0.37885 0.0
C568 C 0.57447 0.90615 0.33916 0.0
C569 C 0.60431 0.97055 0.30004 0.0
C570 C 0.59794 0.94583 0.24077 0.0
H571 H 0.65467 0.48703 0.15078 0.0
H572 H 0.72958 0.581 0.25226 0.0
H573 H 0.69628 0.57944 0.36163 0.0
H574 H 0.64301 0.55488 0.41706 0.0
H575 H 0.56765 0.46137 0.31296 0.0
H576 H 0.60397 0.4592 0.2172 0.0
C577 C 0.66389 0.50694 0.19759 0.0
C578 C 0.69451 0.53421 0.19273 0.0
C579 C 0.64434 0.50614 0.25966 0.0
C580 C 0.70624 0.55961 0.25454 0.0
C581 C 0.68705 0.55887 0.31685 0.0
C582 C 0.63469 0.53366 0.37479 0.0
C583 C 0.60233 0.50859 0.3718 0.0
C584 C 0.65563 0.53275 0.31851 0.0
C585 C 0.59222 0.48124 0.31649 0.0
C586 C 0.61299 0.48 0.26121 0.0
H587 H 0.17919 0.66229 0.17986 0.0
H588 H 0.1856 0.74827 0.29685 0.0
H589 H 0.13987 0.71505 0.37566 0.0
H590 H 0.09523 0.66137 0.40037 0.0
H591 H 0.0861 0.57599 0.26911 0.0
H592 H 0.13503 0.60928 0.20353 0.0
C593 C 0.17119 0.67364 0.22492 0.0
C594 C 0.18607 0.70746 0.23496 0.0
C595 C 0.14362 0.65452 0.26431 0.0
C596 C 0.17499 0.72224 0.29055 0.0
C597 C 0.1485 0.70323 0.33398 0.0
C598 C 0.10377 0.65004 0.35693 0.0
C599 C 0.08681 0.61617 0.33948 0.0
C600 C 0.13201 0.66935 0.31925 0.0
C601 C 0.09831 0.60196 0.28303 0.0
C602 C 0.12657 0.62093 0.24627 0.0
loop_
_geom_bond_atom_site_label_1
_geom_bond_atom_site_label_2
_geom_bond_distance
_geom_bond_site_symmetry_2
_ccdc_geom_bond_type
H0 C8 0.930 . S
H1 C11 0.930 . S
H2 C13 0.930 . S
H3 C14 0.970 . S
H4 C14 0.970 . S
H5 C16 0.930 . S
H6 C18 0.930 . S
H7 C20 0.930 . S
C8 H0 0.930 . S
C8 C9 1.382 . S
C8 C10 1.426 . S
C9 C8 1.382 . S
C9 C13 1.389 . S
C10 C8 1.426 . S
C10 C11 1.375 . S
C10 C14 1.532 . S
C11 H1 0.930 . S
C11 C10 1.375 . S
C11 C12 1.416 . S
C12 C11 1.416 . S
C12 C13 1.371 . S
C13 H2 0.930 . S
C13 C9 1.389 . S
C13 C12 1.371 . S
C14 H3 0.970 . S
C14 H4 0.970 . S
C14 C10 1.532 . S
C14 C15 1.499 . S
C15 C14 1.499 . S
C15 C16 1.370 . S
C15 C20 1.415 . S
C16 H5 0.930 . S
C16 C15 1.370 . S
C16 C17 1.407 . S
C17 C16 1.407 . S
C17 C18 1.365 . S
C18 H6 0.930 . S
C18 C17 1.365 . S
C18 C19 1.393 . S
C19 C18 1.393 . S
C19 C20 1.387 . S
C20 H7 0.930 . S
C20 C15 1.415 . S
C20 C19 1.387 . S
H21 C29 0.930 . S
H22 C32 0.930 . S
H23 C34 0.930 . S
H24 C35 0.970 . S
H25 C35 0.970 . S
H26 C37 0.930 . S
H27 C39 0.930 . S
H28 C41 0.930 . S
C29 H21 0.930 . S
C29 C30 1.382 . S
C29 C31 1.426 . S
C30 C29 1.382 . S
C30 C34 1.389 . S
C31 C29 1.426 . S
C31 C32 1.375 . S
C31 C35 1.532 . S
C32 H22 0.930 . S
C32 C31 1.375 . S
C32 C33 1.416 . S
C33 C32 1.416 . S
C33 C34 1.371 . S
C34 H23 0.930 . S
C34 C30 1.389 . S
C34 C33 1.371 . S
C35 H24 0.970 . S
C35 H25 0.970 . S
C35 C31 1.532 . S
C35 C36 1.499 . S
C36 C35 1.499 . S
C36 C37 1.370 . S
C36 C41 1.415 . S
C37 H26 0.930 . S
C37 C36 1.370 . S
C37 C38 1.407 . S
C38 C37 1.407 . S
C38 C39 1.365 . S
C39 H27 0.930 . S
C39 C38 1.365 . S
C39 C40 1.393 . S
C40 C39 1.393 . S
C40 C41 1.387 . S
C41 H28 0.930 . S
C41 C36 1.415 . S
C41 C40 1.387 . S
H42 C50 0.930 . S
H43 C53 0.930 . S
H44 C55 0.930 . S
H45 C56 0.970 1_556 S
H46 C56 0.970 . S
H47 C58 0.930 . S
H48 C60 0.930 . S
H49 C62 0.930 . S
C50 H42 0.930 . S
C50 C51 1.382 . S
C50 C52 1.426 1_556 S
C51 C50 1.382 . S
C51 C55 1.389 1_556 S
C52 C50 1.426 1_554 S
C52 C53 1.375 . S
C52 C56 1.532 . S
C53 H43 0.930 . S
C53 C52 1.375 . S
C53 C54 1.416 . S
C54 C53 1.416 . S
C54 C55 1.371 . S
C55 H44 0.930 . S
C55 C51 1.389 1_554 S
C55 C54 1.371 . S
C56 H45 0.970 1_554 S
C56 H46 0.970 . S
C56 C52 1.532 . S
C56 C57 1.499 . S
C57 C56 1.499 . S
C57 C58 1.370 1_554 S
C57 C62 1.415 . S
C58 H47 0.930 . S
C58 C57 1.370 1_556 S
C58 C59 1.407 . S
C59 C58 1.407 . S
C59 C60 1.365 1_556 S
C60 H48 0.930 . S
C60 C59 1.365 1_554 S
C60 C61 1.393 . S
C61 C60 1.393 . S
C61 C62 1.387 . S
C62 H49 0.930 . S
C62 C57 1.415 . S
C62 C61 1.387 . S
H63 C71 0.930 . S
H64 C74 0.930 . S
H65 C76 0.930 . S
H66 C77 0.970 . S
H67 C77 0.970 . S
H68 C79 0.930 1_556 S
H69 C81 0.930 . S
H70 C83 0.930 . S
C71 H63 0.930 . S
C71 C72 1.382 . S
C71 C73 1.426 1_556 S
C72 C71 1.382 . S
C72 C76 1.389 1_556 S
C73 C71 1.426 1_554 S
C73 C74 1.375 . S
C73 C77 1.532 . S
C74 H64 0.930 . S
C74 C73 1.375 . S
C74 C75 1.416 . S
C75 C74 1.416 . S
C75 C76 1.371 . S
C76 H65 0.930 . S
C76 C72 1.389 1_554 S
C76 C75 1.371 . S
C77 H66 0.970 . S
C77 H67 0.970 . S
C77 C73 1.532 . S
C77 C78 1.499 . S
C78 C77 1.499 . S
C78 C79 1.370 . S
C78 C83 1.415 . S
C79 H68 0.930 1_554 S
C79 C78 1.370 . S
C79 C80 1.407 1_554 S
C80 C79 1.407 1_556 S
C80 C81 1.360 1_556 S
C81 H69 0.930 . S
C81 C80 1.360 1_554 S
C81 C82 1.393 . S
C82 C81 1.393 . S
C82 C83 1.387 . S
C83 H70 0.930 . S
C83 C78 1.415 . S
C83 C82 1.387 . S
H84 C92 0.930 1_556 S
H85 C95 0.930 . S
H86 C97 0.930 . S
H87 C98 0.970 . S
H88 C98 0.970 . S
H89 C100 0.930 1_556 S
H90 C102 0.930 . S
H91 C104 0.930 . S
C92 H84 0.930 1_554 S
C92 C93 1.382 . S
C92 C94 1.426 . S
C93 C92 1.382 . S
C93 C97 1.389 . S
C94 C92 1.426 . S
C94 C95 1.375 . S
C94 C98 1.532 . S
C95 H85 0.930 . S
C95 C94 1.375 . S
C95 C96 1.416 . S
C96 C95 1.416 . S
C96 C97 1.371 . S
C97 H86 0.930 . S
C97 C93 1.389 . S
C97 C96 1.371 . S
C98 H87 0.970 . S
C98 H88 0.970 . S
C98 C94 1.532 . S
C98 C99 1.499 . S
C99 C98 1.499 . S
C99 C100 1.370 . S
C99 C104 1.415 . S
C100 H89 0.930 1_554 S
C100 C99 1.370 . S
C100 C101 1.407 . S
C101 C100 1.407 . S
C101 C102 1.365 . S
C102 H90 0.930 . S
C102 C101 1.365 . S
C102 C103 1.393 . S
C103 C102 1.393 . S
C103 C104 1.387 . S
C104 H91 0.930 . S
C104 C99 1.415 . S
C104 C103 1.387 . S
H105 C113 0.930 . S
H106 C116 0.930 . S
H107 C118 0.930 . S
H108 C119 0.970 . S
H109 C119 0.970 . S
H110 C121 0.930 . S
H111 C123 0.930 . S
H112 C125 0.930 . S
C113 H105 0.930 . S
C113 C114 1.382 . S
C113 C115 1.426 . S
C114 C113 1.382 . S
C114 C118 1.389 . S
C115 C113 1.426 . S
C115 C116 1.375 . S
C115 C119 1.532 . S
C116 H106 0.930 . S
C116 C115 1.375 . S
C116 C117 1.416 . S
C117 C116 1.416 . S
C117 C118 1.371 . S
C118 H107 0.930 . S
C118 C114 1.389 . S
C118 C117 1.371 . S
C119 H108 0.970 . S
C119 H109 0.970 . S
C119 C115 1.532 . S
C119 C120 1.499 . S
C120 C119 1.499 . S
C120 C121 1.370 . S
C120 C125 1.415 . S
C121 H110 0.930 . S
C121 C120 1.370 . S
C121 C122 1.407 . S
C122 C121 1.407 . S
C122 C123 1.365 . S
C123 H111 0.930 . S
C123 C122 1.365 . S
C123 C124 1.393 . S
C124 C123 1.393 . S
C124 C125 1.387 . S
C125 H112 0.930 . S
C125 C120 1.415 . S
C125 C124 1.387 . S
C126 O138 1.241 . S
C126 O139 1.280 . S
C127 O140 1.277 . S
C127 O141 1.245 . S
C128 O152 1.247 . S
C128 O154 1.289 . S
Mg129 O130 1.926 . S
Mg129 O139 1.984 . S
Mg129 O141 1.988 1_655 S
Mg129 O142 2.061 . S
O130 Mg129 1.926 . S
O130 Mg131 1.986 1_655 S
O130 Mg132 1.917 1_655 S
Mg131 O130 1.986 1_455 S
Mg131 O138 2.042 1_455 S
Mg131 O140 2.041 . S
Mg131 O146 2.038 1_455 S
Mg131 O154 2.238 . S
Mg132 O130 1.917 1_455 S
Mg132 O133 1.917 . S
Mg132 O143 2.106 1_455 S
Mg132 O145 2.079 1_455 S
Mg132 O154 2.106 . S
Mg132 O155 2.079 . S
O133 Mg132 1.917 . S
O133 Mg134 1.926 . S
O133 Mg135 1.986 . S
Mg134 O133 1.926 . S
Mg134 O148 1.984 . S
Mg134 O151 1.988 1_455 S
Mg134 O152 2.061 . S
Mg135 O133 1.986 . S
Mg135 O143 2.238 1_455 S
Mg135 O147 2.042 . S
Mg135 O149 2.041 1_455 S
Mg135 O156 2.038 . S
C136 O142 1.247 . S
C136 O143 1.289 . S
C137 O155 1.245 . S
C137 O156 1.274 . S
O138 C126 1.241 . S
O138 Mg131 2.042 1_655 S
O139 C126 1.280 . S
O139 Mg129 1.984 . S
O140 C127 1.277 . S
O140 Mg131 2.041 . S
O141 C127 1.245 . S
O141 Mg129 1.988 1_455 S
O142 Mg129 2.061 . S
O142 C136 1.247 . S
O143 Mg132 2.106 1_655 S
O143 Mg135 2.238 1_655 S
O143 C136 1.289 . S
C144 O145 1.245 . S
C144 O146 1.274 . S
O145 Mg132 2.079 1_655 S
O145 C144 1.245 . S
O146 Mg131 2.038 1_655 S
O146 C144 1.274 . S
O147 Mg135 2.042 . S
O147 C150 1.241 . S
O148 Mg134 1.984 . S
O148 C150 1.280 . S
O149 Mg135 2.041 1_655 S
O149 C153 1.277 . S
C150 O147 1.241 . S
C150 O148 1.280 . S
O151 Mg134 1.988 1_655 S
O151 C153 1.245 . S
O152 C128 1.247 . S
O152 Mg134 2.061 . S
C153 O149 1.277 . S
C153 O151 1.245 . S
O154 C128 1.289 . S
O154 Mg131 2.238 . S
O154 Mg132 2.106 . S
O155 Mg132 2.079 . S
O155 C137 1.245 . S
O156 Mg135 2.038 . S
O156 C137 1.274 . S
C157 O169 1.241 . S
C157 O170 1.280 . S
C158 O171 1.277 . S
C158 O172 1.245 . S
C159 O183 1.247 . S
C159 O185 1.289 . S
Mg160 O161 1.926 . S
Mg160 O170 1.984 . S
Mg160 O172 1.988 1_545 S
Mg160 O173 2.061 . S
O161 Mg160 1.926 . S
O161 Mg162 1.986 . S
O161 Mg163 1.917 . S
Mg162 O161 1.986 . S
Mg162 O169 2.042 . S
Mg162 O171 2.041 1_545 S
Mg162 O177 2.038 . S
Mg162 O185 2.238 1_545 S
Mg163 O161 1.917 . S
Mg163 O164 1.917 1_545 S
Mg163 O174 2.106 . S
Mg163 O176 2.079 . S
Mg163 O185 2.106 1_545 S
Mg163 O186 2.079 1_545 S
O164 Mg163 1.917 1_565 S
O164 Mg165 1.926 . S
O164 Mg166 1.986 1_565 S
Mg165 O164 1.926 . S
Mg165 O179 1.984 . S
Mg165 O182 1.988 1_565 S
Mg165 O183 2.061 . S
Mg166 O164 1.986 1_545 S
Mg166 O174 2.238 . S
Mg166 O178 2.042 1_545 S
Mg166 O180 2.041 . S
Mg166 O187 2.038 1_545 S
C167 O173 1.247 . S
C167 O174 1.289 . S
C168 O186 1.245 . S
C168 O187 1.274 . S
O169 C157 1.241 . S
O169 Mg162 2.042 . S
O170 C157 1.280 . S
O170 Mg160 1.984 . S
O171 C158 1.277 . S
O171 Mg162 2.041 1_565 S
O172 C158 1.245 . S
O172 Mg160 1.988 1_565 S
O173 Mg160 2.061 . S
O173 C167 1.247 . S
O174 Mg163 2.106 . S
O174 Mg166 2.238 . S
O174 C167 1.289 . S
C175 O176 1.245 . S
C175 O177 1.274 . S
O176 Mg163 2.079 . S
O176 C175 1.245 . S
O177 Mg162 2.038 . S
O177 C175 1.274 . S
O178 Mg166 2.042 1_565 S
O178 C181 1.241 . S
O179 Mg165 1.984 . S
O179 C181 1.280 . S
O180 Mg166 2.041 . S
O180 C184 1.277 . S
C181 O178 1.241 . S
C181 O179 1.280 . S
O182 Mg165 1.988 1_545 S
O182 C184 1.245 . S
O183 C159 1.247 . S
O183 Mg165 2.061 . S
C184 O180 1.277 . S
C184 O182 1.245 . S
O185 C159 1.289 . S
O185 Mg162 2.238 1_565 S
O185 Mg163 2.106 1_565 S
O186 Mg163 2.079 1_565 S
O186 C168 1.245 . S
O187 Mg166 2.038 1_565 S
O187 C168 1.274 . S
C188 O200 1.241 . S
C188 O201 1.280 . S
C189 O202 1.277 . S
C189 O203 1.245 . S
C190 O214 1.247 . S
C190 O216 1.289 . S
Mg191 O192 1.926 . S
Mg191 O201 1.984 . S
Mg191 O203 1.988 . S
Mg191 O204 2.061 . S
O192 Mg191 1.926 . S
O192 Mg193 1.986 . S
O192 Mg194 1.917 . S
Mg193 O192 1.986 . S
Mg193 O200 2.042 . S
Mg193 O202 2.041 . S
Mg193 O208 2.038 . S
Mg193 O216 2.238 . S
Mg194 O192 1.917 . S
Mg194 O195 1.917 . S
Mg194 O205 2.106 . S
Mg194 O207 2.079 . S
Mg194 O216 2.106 . S
Mg194 O217 2.079 . S
O195 Mg194 1.917 . S
O195 Mg196 1.926 . S
O195 Mg197 1.986 . S
Mg196 O195 1.926 . S
Mg196 O210 1.984 . S
Mg196 O213 1.988 . S
Mg196 O214 2.061 . S
Mg197 O195 1.986 . S
Mg197 O205 2.238 . S
Mg197 O209 2.042 . S
Mg197 O211 2.041 . S
Mg197 O218 2.038 . S
C198 O204 1.247 . S
C198 O205 1.289 . S
C199 O217 1.245 . S
C199 O218 1.274 . S
O200 C188 1.241 . S
O200 Mg193 2.042 . S
O201 C188 1.280 . S
O201 Mg191 1.984 . S
O202 C189 1.277 . S
O202 Mg193 2.041 . S
O203 C189 1.245 . S
O203 Mg191 1.988 . S
O204 Mg191 2.061 . S
O204 C198 1.247 . S
O205 Mg194 2.106 . S
O205 Mg197 2.238 . S
O205 C198 1.289 . S
C206 O207 1.245 . S
C206 O208 1.274 . S
O207 Mg194 2.079 . S
O207 C206 1.245 . S
O208 Mg193 2.038 . S
O208 C206 1.274 . S
O209 Mg197 2.042 . S
O209 C212 1.241 . S
O210 Mg196 1.984 . S
O210 C212 1.280 . S
O211 Mg197 2.041 . S
O211 C215 1.277 . S
C212 O209 1.241 . S
C212 O210 1.280 . S
O213 Mg196 1.988 . S
O213 C215 1.245 . S
O214 C190 1.247 . S
O214 Mg196 2.061 . S
C215 O211 1.277 . S
C215 O213 1.245 . S
O216 C190 1.289 . S
O216 Mg193 2.238 . S
O216 Mg194 2.106 . S
O217 Mg194 2.079 . S
O217 C199 1.245 . S
O218 Mg197 2.038 . S
O218 C199 1.274 . S
H219 C225 0.930 . S
H220 C228 0.930 . S
H221 C229 0.930 . S
H222 C230 0.930 . S
H223 C233 0.930 . S
H224 C234 0.930 . S
C225 H219 0.930 . S
C225 C226 1.355 . S
C225 C227 1.415 . S
C226 C225 1.355 . S
C226 C228 1.419 . S
C227 C225 1.415 . S
C227 C232 1.425 . S
C227 C234 1.409 . S
C228 H220 0.930 . S
C228 C226 1.419 . S
C228 C229 1.362 . S
C229 H221 0.930 . S
C229 C228 1.362 . S
C229 C232 1.409 . S
C230 H222 0.930 . S
C230 C231 1.355 . S
C230 C232 1.415 . S
C231 C230 1.355 . S
C231 C233 1.419 . S
C232 C227 1.425 . S
C232 C229 1.409 . S
C232 C230 1.415 . S
C233 H223 0.930 . S
C233 C231 1.419 . S
C233 C234 1.362 . S
C234 H224 0.930 . S
C234 C227 1.409 . S
C234 C233 1.362 . S
H235 C241 0.930 . S
H236 C244 0.930 . S
H237 C245 0.930 . S
H238 C246 0.930 . S
H239 C249 0.930 . S
H240 C250 0.930 . S
C241 H235 0.930 . S
C241 C242 1.355 . S
C241 C243 1.415 . S
C242 C241 1.355 . S
C242 C244 1.419 . S
C243 C241 1.415 . S
C243 C248 1.425 . S
C243 C250 1.409 . S
C244 H236 0.930 . S
C244 C242 1.419 . S
C244 C245 1.362 . S
C245 H237 0.930 . S
C245 C244 1.362 . S
C245 C248 1.409 . S
C246 H238 0.930 . S
C246 C247 1.355 . S
C246 C248 1.415 . S
C247 C246 1.355 . S
C247 C249 1.419 . S
C248 C243 1.425 . S
C248 C245 1.409 . S
C248 C246 1.415 . S
C249 H239 0.930 . S
C249 C247 1.419 . S
C249 C250 1.362 . S
C250 H240 0.930 . S
C250 C243 1.409 . S
C250 C249 1.362 . S
H251 C257 0.930 . S
H252 C260 0.930 . S
H253 C261 0.930 . S
H254 C262 0.930 . S
H255 C265 0.930 . S
H256 C266 0.930 . S
C257 H251 0.930 . S
C257 C258 1.355 . S
C257 C259 1.415 . S
C258 C257 1.355 . S
C258 C260 1.419 . S
C259 C257 1.415 . S
C259 C264 1.425 . S
C259 C266 1.409 . S
C260 H252 0.930 . S
C260 C258 1.419 . S
C260 C261 1.362 . S
C261 H253 0.930 . S
C261 C260 1.362 . S
C261 C264 1.409 . S
C262 H254 0.930 . S
C262 C263 1.355 . S
C262 C264 1.415 . S
C263 C262 1.355 . S
C263 C265 1.419 . S
C264 C259 1.425 . S
C264 C261 1.409 . S
C264 C262 1.415 . S
C265 H255 0.930 . S
C265 C263 1.419 . S
C265 C266 1.362 . S
C266 H256 0.930 . S
C266 C259 1.409 . S
C266 C265 1.362 . S
H267 C273 0.930 . S
H268 C276 0.930 . S
H269 C277 0.930 . S
H270 C278 0.930 . S
H271 C281 0.930 . S
H272 C282 0.930 . S
C273 H267 0.930 . S
C273 C274 1.355 . S
C273 C275 1.415 . S
C274 C273 1.355 . S
C274 C276 1.419 . S
C275 C273 1.415 . S
C275 C280 1.425 . S
C275 C282 1.409 . S
C276 H268 0.930 . S
C276 C274 1.419 . S
C276 C277 1.362 . S
C277 H269 0.930 . S
C277 C276 1.362 . S
C277 C280 1.409 . S
C278 H270 0.930 . S
C278 C279 1.355 . S
C278 C280 1.415 . S
C279 C278 1.355 . S
C279 C281 1.419 . S
C280 C275 1.425 . S
C280 C277 1.409 . S
C280 C278 1.415 . S
C281 H271 0.930 . S
C281 C279 1.419 . S
C281 C282 1.362 . S
C282 H272 0.930 . S
C282 C275 1.409 . S
C282 C281 1.362 . S
H283 C289 0.930 . S
H284 C292 0.930 . S
H285 C293 0.930 . S
H286 C294 0.930 . S
H287 C297 0.930 . S
H288 C298 0.930 . S
C289 H283 0.930 . S
C289 C290 1.355 . S
C289 C291 1.415 . S
C290 C289 1.355 . S
C290 C292 1.419 . S
C291 C289 1.415 . S
C291 C296 1.425 . S
C291 C298 1.409 . S
C292 H284 0.930 . S
C292 C290 1.419 . S
C292 C293 1.362 . S
C293 H285 0.930 . S
C293 C292 1.362 . S
C293 C296 1.409 . S
C294 H286 0.930 . S
C294 C295 1.355 . S
C294 C296 1.415 . S
C295 C294 1.355 . S
C295 C297 1.419 . S
C296 C291 1.425 . S
C296 C293 1.409 . S
C296 C294 1.415 . S
C297 H287 0.930 . S
C297 C295 1.419 . S
C297 C298 1.362 . S
C298 H288 0.930 . S
C298 C291 1.409 . S
C298 C297 1.362 . S
H299 C305 0.930 . S
H300 C308 0.930 . S
H301 C309 0.930 . S
H302 C310 0.930 . S
H303 C313 0.930 . S
H304 C314 0.930 . S
C305 H299 0.930 . S
C305 C306 1.355 . S
C305 C307 1.415 . S
C306 C305 1.355 . S
C306 C308 1.419 . S
C307 C305 1.415 . S
C307 C312 1.425 . S
C307 C314 1.409 . S
C308 H300 0.930 . S
C308 C306 1.419 . S
C308 C309 1.362 . S
C309 H301 0.930 . S
C309 C308 1.362 . S
C309 C312 1.409 . S
C310 H302 0.930 . S
C310 C311 1.355 . S
C310 C312 1.415 . S
C311 C310 1.355 . S
C311 C313 1.419 . S
C312 C307 1.425 . S
C312 C309 1.409 . S
C312 C310 1.415 . S
C313 H303 0.930 . S
C313 C311 1.419 . S
C313 C314 1.362 . S
C314 H304 0.930 . S
C314 C307 1.409 . S
C314 C313 1.362 . S
H315 C321 0.930 . S
H316 C324 0.930 . S
H317 C325 0.930 . S
H318 C326 0.930 . S
H319 C329 0.930 . S
H320 C330 0.930 . S
C321 H315 0.930 . S
C321 C322 1.355 . S
C321 C323 1.415 . S
C322 C321 1.355 . S
C322 C324 1.419 . S
C323 C321 1.415 . S
C323 C328 1.425 . S
C323 C330 1.409 . S
C324 H316 0.930 . S
C324 C322 1.419 . S
C324 C325 1.362 . S
C325 H317 0.930 . S
C325 C324 1.362 . S
C325 C328 1.409 . S
C326 H318 0.930 . S
C326 C327 1.355 . S
C326 C328 1.415 . S
C327 C326 1.355 . S
C327 C329 1.419 . S
C328 C323 1.425 . S
C328 C325 1.409 . S
C328 C326 1.415 . S
C329 H319 0.930 . S
C329 C327 1.419 . S
C329 C330 1.362 . S
C330 H320 0.930 . S
C330 C323 1.409 . S
C330 C329 1.362 . S
H331 C337 0.930 . S
H332 C340 0.930 . S
H333 C341 0.930 . S
H334 C342 0.930 . S
H335 C345 0.930 . S
H336 C346 0.930 . S
C337 H331 0.930 . S
C337 C338 1.355 . S
C337 C339 1.415 . S
C338 C337 1.355 . S
C338 C340 1.419 . S
C339 C337 1.415 . S
C339 C344 1.425 . S
C339 C346 1.409 . S
C340 H332 0.930 . S
C340 C338 1.419 . S
C340 C341 1.362 . S
C341 H333 0.930 . S
C341 C340 1.362 . S
C341 C344 1.409 . S
C342 H334 0.930 . S
C342 C343 1.355 . S
C342 C344 1.415 . S
C343 C342 1.355 . S
C343 C345 1.419 . S
C344 C339 1.425 . S
C344 C341 1.409 . S
C344 C342 1.415 . S
C345 H335 0.930 . S
C345 C343 1.419 . S
C345 C346 1.362 . S
C346 H336 0.930 . S
C346 C339 1.409 . S
C346 C345 1.362 . S
H347 C353 0.930 . S
H348 C356 0.930 . S
H349 C357 0.930 1_554 S
H350 C358 0.930 . S
H351 C361 0.930 . S
H352 C362 0.930 . S
C353 H347 0.930 . S
C353 C354 1.355 . S
C353 C355 1.415 . S
C354 C353 1.355 . S
C354 C356 1.419 1_556 S
C355 C353 1.415 . S
C355 C360 1.425 . S
C355 C362 1.409 . S
C356 H348 0.930 . S
C356 C354 1.419 1_554 S
C356 C357 1.362 1_554 S
C357 H349 0.930 1_556 S
C357 C356 1.362 1_556 S
C357 C360 1.409 . S
C358 H350 0.930 . S
C358 C359 1.355 . S
C358 C360 1.415 . S
C359 C358 1.355 . S
C359 C361 1.419 . S
C360 C355 1.425 . S
C360 C357 1.409 . S
C360 C358 1.415 . S
C361 H351 0.930 . S
C361 C359 1.419 . S
C361 C362 1.362 . S
C362 H352 0.930 . S
C362 C355 1.409 . S
C362 C361 1.362 . S
H363 C369 0.930 1_556 S
H364 C372 0.930 . S
H365 C373 0.930 . S
H366 C374 0.930 1_554 S
H367 C377 0.930 . S
H368 C378 0.930 . S
C369 H363 0.930 1_554 S
C369 C370 1.355 . S
C369 C371 1.415 1_554 S
C370 C369 1.355 . S
C370 C372 1.419 . S
C371 C369 1.415 1_556 S
C371 C376 1.425 1_556 S
C371 C378 1.409 . S
C372 H364 0.930 . S
C372 C370 1.419 . S
C372 C373 1.362 . S
C373 H365 0.930 . S
C373 C372 1.362 . S
C373 C376 1.409 . S
C374 H366 0.930 1_556 S
C374 C375 1.355 . S
C374 C376 1.415 1_556 S
C375 C374 1.355 . S
C375 C377 1.419 . S
C376 C371 1.425 1_554 S
C376 C373 1.409 . S
C376 C374 1.415 1_554 S
C377 H367 0.930 . S
C377 C375 1.419 . S
C377 C378 1.362 . S
C378 H368 0.930 . S
C378 C371 1.409 . S
C378 C377 1.362 . S
H379 C385 0.930 . S
H380 C388 0.930 . S
H381 C389 0.930 . S
H382 C390 0.930 . S
H383 C393 0.930 . S
H384 C394 0.930 . S
C385 H379 0.930 . S
C385 C386 1.355 1_556 S
C385 C387 1.415 . S
C386 C385 1.355 1_554 S
C386 C388 1.419 . S
C387 C385 1.415 . S
C387 C392 1.425 . S
C387 C394 1.409 . S
C388 H380 0.930 . S
C388 C386 1.419 . S
C388 C389 1.362 . S
C389 H381 0.930 . S
C389 C388 1.362 . S
C389 C392 1.409 1_554 S
C390 H382 0.930 . S
C390 C391 1.355 . S
C390 C392 1.415 . S
C391 C390 1.355 . S
C391 C393 1.419 . S
C392 C387 1.425 . S
C392 C389 1.409 1_556 S
C392 C390 1.415 . S
C393 H383 0.930 . S
C393 C391 1.419 . S
C393 C394 1.362 . S
C394 H384 0.930 . S
C394 C387 1.409 . S
C394 C393 1.362 . S
H395 C401 0.930 . S
H396 C404 0.930 . S
H397 C405 0.930 . S
H398 C406 0.930 . S
H399 C409 0.930 . S
H400 C410 0.930 1_554 S
C401 H395 0.930 . S
C401 C402 1.355 . S
C401 C403 1.415 1_554 S
C402 C401 1.355 . S
C402 C404 1.419 1_554 S
C403 C401 1.415 1_556 S
C403 C408 1.425 . S
C403 C410 1.409 . S
C404 H396 0.930 . S
C404 C402 1.419 1_556 S
C404 C405 1.362 . S
C405 H397 0.930 . S
C405 C404 1.362 . S
C405 C408 1.409 . S
C406 H398 0.930 . S
C406 C407 1.355 . S
C406 C408 1.415 . S
C407 C406 1.355 . S
C407 C409 1.419 . S
C408 C403 1.425 . S
C408 C405 1.409 . S
C408 C406 1.415 . S
C409 H399 0.930 . S
C409 C407 1.419 . S
C409 C410 1.362 . S
C410 H400 0.930 1_556 S
C410 C403 1.409 . S
C410 C409 1.362 . S
H411 C417 0.930 . S
H412 C420 0.930 . S
H413 C421 0.930 . S
H414 C422 0.930 . S
H415 C425 0.930 . S
H416 C426 0.930 . S
C417 H411 0.930 . S
C417 C418 1.355 . S
C417 C419 1.415 . S
C418 C417 1.355 . S
C418 C420 1.419 . S
C419 C417 1.415 . S
C419 C424 1.425 . S
C419 C426 1.409 . S
C420 H412 0.930 . S
C420 C418 1.419 . S
C420 C421 1.362 . S
C421 H413 0.930 . S
C421 C420 1.362 . S
C421 C424 1.409 . S
C422 H414 0.930 . S
C422 C423 1.355 . S
C422 C424 1.415 . S
C423 C422 1.355 . S
C423 C425 1.419 . S
C424 C419 1.425 . S
C424 C421 1.409 . S
C424 C422 1.415 . S
C425 H415 0.930 . S
C425 C423 1.419 . S
C425 C426 1.362 . S
C426 H416 0.930 . S
C426 C419 1.409 . S
C426 C425 1.362 . S
H427 C433 0.930 1_554 S
H428 C436 0.930 . S
H429 C437 0.930 . S
H430 C438 0.930 . S
H431 C441 0.930 . S
H432 C442 0.930 1_554 S
C433 H427 0.930 1_556 S
C433 C434 1.355 . S
C433 C435 1.415 . S
C434 C433 1.355 . S
C434 C436 1.419 . S
C435 C433 1.415 . S
C435 C440 1.425 . S
C435 C442 1.409 . S
C436 H428 0.930 . S
C436 C434 1.419 . S
C436 C437 1.362 . S
C437 H429 0.930 . S
C437 C436 1.362 . S
C437 C440 1.409 . S
C438 H430 0.930 . S
C438 C439 1.355 . S
C438 C440 1.415 . S
C439 C438 1.355 . S
C439 C441 1.419 . S
C440 C435 1.425 . S
C440 C437 1.409 . S
C440 C438 1.415 . S
C441 H431 0.930 . S
C441 C439 1.419 . S
C441 C442 1.362 . S
C442 H432 0.930 1_556 S
C442 C435 1.409 . S
C442 C441 1.362 . S
H443 C449 0.930 . S
H444 C452 0.930 . S
H445 C453 0.930 . S
H446 C454 0.930 . S
H447 C457 0.930 . S
H448 C458 0.930 . S
C449 H443 0.930 . S
C449 C450 1.355 . S
C449 C451 1.415 . S
C450 C449 1.355 . S
C450 C452 1.419 . S
C451 C449 1.415 . S
C451 C456 1.425 1_554 S
C451 C458 1.409 1_554 S
C452 H444 0.930 . S
C452 C450 1.419 . S
C452 C453 1.362 . S
C453 H445 0.930 . S
C453 C452 1.362 . S
C453 C456 1.409 1_554 S
C454 H446 0.930 . S
C454 C455 1.355 . S
C454 C456 1.415 . S
C455 C454 1.355 . S
C455 C457 1.419 . S
C456 C451 1.425 1_556 S
C456 C453 1.409 1_556 S
C456 C454 1.415 . S
C457 H447 0.930 . S
C457 C455 1.419 . S
C457 C458 1.362 . S
C458 H448 0.930 . S
C458 C451 1.409 1_556 S
C458 C457 1.362 . S
H459 C465 0.930 . S
H460 C468 0.930 . S
H461 C469 0.930 . S
H462 C470 0.930 . S
H463 C473 0.930 . S
H464 C474 0.930 . S
C465 H459 0.930 . S
C465 C466 1.355 1_556 S
C465 C467 1.415 . S
C466 C465 1.355 1_554 S
C466 C468 1.419 . S
C467 C465 1.415 . S
C467 C472 1.425 . S
C467 C474 1.409 . S
C468 H460 0.930 . S
C468 C466 1.419 . S
C468 C469 1.362 . S
C469 H461 0.930 . S
C469 C468 1.362 . S
C469 C472 1.409 1_554 S
C470 H462 0.930 . S
C470 C471 1.355 . S
C470 C472 1.415 . S
C471 C470 1.355 . S
C471 C473 1.419 . S
C472 C467 1.425 . S
C472 C469 1.409 1_556 S
C472 C470 1.415 . S
C473 H463 0.930 . S
C473 C471 1.419 . S
C473 C474 1.362 . S
C474 H464 0.930 . S
C474 C467 1.409 . S
C474 C473 1.362 . S
H475 C481 0.930 1_554 S
H476 C484 0.930 . S
H477 C485 0.930 . S
H478 C486 0.930 . S
H479 C489 0.930 . S
H480 C490 0.930 . S
C481 H475 0.930 1_556 S
C481 C482 1.355 . S
C481 C483 1.415 . S
C482 C481 1.355 . S
C482 C484 1.419 . S
C483 C481 1.415 . S
C483 C488 1.425 . S
C483 C490 1.409 . S
C484 H476 0.930 . S
C484 C482 1.419 . S
C484 C485 1.362 . S
C485 H477 0.930 . S
C485 C484 1.362 . S
C485 C488 1.409 . S
C486 H478 0.930 . S
C486 C487 1.355 . S
C486 C488 1.415 . S
C487 C486 1.355 . S
C487 C489 1.419 . S
C488 C483 1.425 . S
C488 C485 1.409 . S
C488 C486 1.415 . S
C489 H479 0.930 . S
C489 C487 1.419 . S
C489 C490 1.362 . S
C490 H480 0.930 . S
C490 C483 1.409 . S
C490 C489 1.362 . S
H491 C497 0.930 . S
H492 C500 0.930 . S
H493 C501 0.930 . S
H494 C502 0.930 . S
H495 C505 0.930 . S
H496 C506 0.930 . S
C497 H491 0.930 . S
C497 C498 1.355 . S
C497 C499 1.415 . S
C498 C497 1.355 . S
C498 C500 1.419 . S
C499 C497 1.415 . S
C499 C504 1.425 . S
C499 C506 1.409 . S
C500 H492 0.930 . S
C500 C498 1.419 . S
C500 C501 1.362 . S
C501 H493 0.930 . S
C501 C500 1.362 . S
C501 C504 1.409 . S
C502 H494 0.930 . S
C502 C503 1.355 . S
C502 C504 1.415 . S
C503 C502 1.355 . S
C503 C505 1.419 . S
C504 C499 1.425 . S
C504 C501 1.409 . S
C504 C502 1.415 . S
C505 H495 0.930 . S
C505 C503 1.419 . S
C505 C506 1.362 . S
C506 H496 0.930 . S
C506 C499 1.409 . S
C506 C505 1.362 . S
H507 C513 0.930 . S
H508 C516 0.930 . S
H509 C517 0.930 . S
H510 C518 0.930 . S
H511 C521 0.930 . S
H512 C522 0.930 . S
C513 H507 0.930 . S
C513 C514 1.355 . S
C513 C515 1.415 . S
C514 C513 1.355 . S
C514 C516 1.419 . S
C515 C513 1.415 . S
C515 C520 1.425 . S
C515 C522 1.409 . S
C516 H508 0.930 . S
C516 C514 1.419 . S
C516 C517 1.362 . S
C517 H509 0.930 . S
C517 C516 1.362 . S
C517 C520 1.409 . S
C518 H510 0.930 . S
C518 C519 1.355 . S
C518 C520 1.415 . S
C519 C518 1.355 . S
C519 C521 1.419 . S
C520 C515 1.425 . S
C520 C517 1.409 . S
C520 C518 1.415 . S
C521 H511 0.930 . S
C521 C519 1.419 . S
C521 C522 1.362 . S
C522 H512 0.930 . S
C522 C515 1.409 . S
C522 C521 1.362 . S
H523 C529 0.930 . S
H524 C532 0.930 . S
H525 C533 0.930 . S
H526 C534 0.930 . S
H527 C537 0.930 . S
H528 C538 0.930 . S
C529 H523 0.930 . S
C529 C530 1.355 . S
C529 C531 1.415 . S
C530 C529 1.355 . S
C530 C532 1.419 . S
C531 C529 1.415 . S
C531 C536 1.425 . S
C531 C538 1.409 . S
C532 H524 0.930 . S
C532 C530 1.419 . S
C532 C533 1.362 . S
C533 H525 0.930 . S
C533 C532 1.362 . S
C533 C536 1.409 . S
C534 H526 0.930 . S
C534 C535 1.355 . S
C534 C536 1.415 . S
C535 C534 1.355 . S
C535 C537 1.419 . S
C536 C531 1.425 . S
C536 C533 1.409 . S
C536 C534 1.415 . S
C537 H527 0.930 . S
C537 C535 1.419 . S
C537 C538 1.362 . S
C538 H528 0.930 . S
C538 C531 1.409 . S
C538 C537 1.362 . S
H539 C545 0.930 . S
H540 C548 0.930 . S
H541 C549 0.930 . S
H542 C550 0.930 . S
H543 C553 0.930 . S
H544 C554 0.930 . S
C545 H539 0.930 . S
C545 C546 1.355 . S
C545 C547 1.415 . S
C546 C545 1.355 . S
C546 C548 1.419 . S
C547 C545 1.415 . S
C547 C552 1.425 . S
C547 C554 1.409 . S
C548 H540 0.930 . S
C548 C546 1.419 . S
C548 C549 1.362 . S
C549 H541 0.930 . S
C549 C548 1.362 . S
C549 C552 1.409 . S
C550 H542 0.930 . S
C550 C551 1.355 . S
C550 C552 1.415 . S
C551 C550 1.355 . S
C551 C553 1.419 . S
C552 C547 1.425 . S
C552 C549 1.409 . S
C552 C550 1.415 . S
C553 H543 0.930 . S
C553 C551 1.419 . S
C553 C554 1.362 . S
C554 H544 0.930 . S
C554 C547 1.409 . S
C554 C553 1.362 . S
H555 C561 0.930 . S
H556 C564 0.930 . S
H557 C565 0.930 . S
H558 C566 0.930 . S
H559 C569 0.930 . S
H560 C570 0.930 . S
C561 H555 0.930 . S
C561 C562 1.355 . S
C561 C563 1.415 . S
C562 C561 1.355 . S
C562 C564 1.419 . S
C563 C561 1.415 . S
C563 C568 1.425 . S
C563 C570 1.409 . S
C564 H556 0.930 . S
C564 C562 1.419 . S
C564 C565 1.362 . S
C565 H557 0.930 . S
C565 C564 1.362 . S
C565 C568 1.409 . S
C566 H558 0.930 . S
C566 C567 1.355 . S
C566 C568 1.415 . S
C567 C566 1.355 . S
C567 C569 1.419 . S
C568 C563 1.425 . S
C568 C565 1.409 . S
C568 C566 1.415 . S
C569 H559 0.930 . S
C569 C567 1.419 . S
C569 C570 1.362 . S
C570 H560 0.930 . S
C570 C563 1.409 . S
C570 C569 1.362 . S
H571 C577 0.930 . S
H572 C580 0.930 . S
H573 C581 0.930 . S
H574 C582 0.930 . S
H575 C585 0.930 . S
H576 C586 0.930 . S
C577 H571 0.930 . S
C577 C578 1.355 . S
C577 C579 1.415 . S
C578 C577 1.355 . S
C578 C580 1.419 . S
C579 C577 1.415 . S
C579 C584 1.425 . S
C579 C586 1.409 . S
C580 H572 0.930 . S
C580 C578 1.419 . S
C580 C581 1.362 . S
C581 H573 0.930 . S
C581 C580 1.362 . S
C581 C584 1.409 . S
C582 H574 0.930 . S
C582 C583 1.355 . S
C582 C584 1.415 . S
C583 C582 1.355 . S
C583 C585 1.419 . S
C584 C579 1.425 . S
C584 C581 1.409 . S
C584 C582 1.415 . S
C585 H575 0.930 . S
C585 C583 1.419 . S
C585 C586 1.362 . S
C586 H576 0.930 . S
C586 C579 1.409 . S
C586 C585 1.362 . S
H587 C593 0.930 . S
H588 C596 0.930 . S
H589 C597 0.930 . S
H590 C598 0.930 . S
H591 C601 0.930 . S
H592 C602 0.930 . S
C593 H587 0.930 . S
C593 C594 1.355 . S
C593 C595 1.415 . S
C594 C593 1.355 . S
C594 C596 1.419 . S
C595 C593 1.415 . S
C595 C600 1.425 . S
C595 C602 1.409 . S
C596 H588 0.930 . S
C596 C594 1.419 . S
C596 C597 1.362 . S
C597 H589 0.930 . S
C597 C596 1.362 . S
C597 C600 1.409 . S
C598 H590 0.930 . S
C598 C599 1.355 . S
C598 C600 1.415 . S
C599 C598 1.355 . S
C599 C601 1.419 . S
C600 C595 1.425 . S
C600 C597 1.409 . S
C600 C598 1.415 . S
C601 H591 0.930 . S
C601 C599 1.419 . S
C601 C602 1.362 . S
C602 H592 0.930 . S
C602 C595 1.409 . S
C602 C601 1.362 . S
C226 C12 1.691 . S
C231 C137 1.842 . S
C242 C40 1.535 . S
C247 C184 1.597 . S
C263 C188 1.754 . S
C258 C61 1.804 . S
C279 C153 1.495 . S
C274 C82 1.479 . S
C290 C96 1.644 . S
C295 C168 1.776 . S
C311 C190 1.135 . S
C306 C117 1.043 . S
C327 C159 1.537 . S
C322 C51 1.535 . S
C338 C72 1.489 . S
C343 C199 1.442 . S
C359 C128 1.446 . S
C354 C101 1.356 1_556 S
C370 C122 1.339 . S
C375 C157 1.423 . S
C386 C17 1.776 . S
C391 C215 1.868 . S
C407 C126 1.534 . S
C402 C30 1.525 . S
C423 C144 1.797 . S
C418 C80 1.862 . S
C439 C158 1.580 . S
C434 C93 1.555 1_556 S
C455 C212 1.775 . S
C450 C114 1.727 . S
C471 C127 1.502 . S
C466 C9 1.418 . S
C487 C175 1.742 . S
C482 C38 1.775 1_556 S
C498 C59 1.147 . S
C503 C198 1.124 . S
C519 C167 1.563 . S
C514 C124 1.484 . S
C535 C206 1.381 . S
C530 C19 1.377 . S
C551 C136 1.383 . S
C546 C33 1.464 . S
C567 C181 1.401 . S
C562 C54 1.440 . S
C578 C75 1.808 . S
C583 C189 1.855 . S
C594 C103 1.436 . S
C599 C150 1.512 . S
