# Generated by pormake.
# Topology the, (3,8)-cn, num edge types: 1
# Building blocks:
#     Node 0, Type 0, BuildingBlock: VETTIZ_charged_linker_0, # of connection points: 3
#     Node 1, Type 0, BuildingBlock: VETTIZ_charged_linker_0, # of connection points: 3
#     Node 2, Type 0, BuildingBlock: VETTIZ_charged_linker_0, # of connection points: 3
#     Node 3, Type 0, BuildingBlock: VETTIZ_charged_linker_0, # of connection points: 3
#     Node 4, Type 0, BuildingBlock: VETTIZ_charged_linker_0, # of connection points: 3
#     Node 5, Type 0, BuildingBlock: VETTIZ_charged_linker_0, # of connection points: 3
#     Node 6, Type 0, BuildingBlock: VETTIZ_charged_linker_0, # of connection points: 3
#     Node 7, Type 0, BuildingBlock: VETTIZ_charged_linker_0, # of connection points: 3
#     Node 8, Type 1, BuildingBlock: GIZVER_clean_sbu_0, # of connection points: 8
#     Node 9, Type 1, BuildingBlock: GIZVER_clean_sbu_0, # of connection points: 8
#     Node 10, Type 1, BuildingBlock: GIZVER_clean_sbu_0, # of connection points: 8
#     Edge 11, Type (0, 1), BuildingBlock: OJICUG_clean_linker_0, # of connection points: 2
#     Edge 12, Type (0, 1), BuildingBlock: OJICUG_clean_linker_0, # of connection points: 2
#     Edge 13, Type (0, 1), BuildingBlock: OJICUG_clean_linker_0, # of connection points: 2
#     Edge 14, Type (0, 1), BuildingBlock: OJICUG_clean_linker_0, # of connection points: 2
#     Edge 15, Type (0, 1), BuildingBlock: OJICUG_clean_linker_0, # of connection points: 2
#     Edge 16, Type (0, 1), BuildingBlock: OJICUG_clean_linker_0, # of connection points: 2
#     Edge 17, Type (0, 1), BuildingBlock: OJICUG_clean_linker_0, # of connection points: 2
#     Edge 18, Type (0, 1), BuildingBlock: OJICUG_clean_linker_0, # of connection points: 2
#     Edge 19, Type (0, 1), BuildingBlock: OJICUG_clean_linker_0, # of connection points: 2
#     Edge 20, Type (0, 1), BuildingBlock: OJICUG_clean_linker_0, # of connection points: 2
#     Edge 21, Type (0, 1), BuildingBlock: OJICUG_clean_linker_0, # of connection points: 2
#     Edge 22, Type (0, 1), BuildingBlock: OJICUG_clean_linker_0, # of connection points: 2
#     Edge 23, Type (0, 1), BuildingBlock: OJICUG_clean_linker_0, # of connection points: 2
#     Edge 24, Type (0, 1), BuildingBlock: OJICUG_clean_linker_0, # of connection points: 2
#     Edge 25, Type (0, 1), BuildingBlock: OJICUG_clean_linker_0, # of connection points: 2
#     Edge 26, Type (0, 1), BuildingBlock: OJICUG_clean_linker_0, # of connection points: 2
#     Edge 27, Type (0, 1), BuildingBlock: OJICUG_clean_linker_0, # of connection points: 2
#     Edge 28, Type (0, 1), BuildingBlock: OJICUG_clean_linker_0, # of connection points: 2
#     Edge 29, Type (0, 1), BuildingBlock: OJICUG_clean_linker_0, # of connection points: 2
#     Edge 30, Type (0, 1), BuildingBlock: OJICUG_clean_linker_0, # of connection points: 2
#     Edge 31, Type (0, 1), BuildingBlock: OJICUG_clean_linker_0, # of connection points: 2
#     Edge 32, Type (0, 1), BuildingBlock: OJICUG_clean_linker_0, # of connection points: 2
#     Edge 33, Type (0, 1), BuildingBlock: OJICUG_clean_linker_0, # of connection points: 2
#     Edge 34, Type (0, 1), BuildingBlock: OJICUG_clean_linker_0, # of connection points: 2
# Relax obj value: 0.049
# Max RMSD: 0.137
# Mean RMSD: 0.074
data_MOF--net-the--node1-GIZVER_clean_sbu_0--node2-VETTIZ_charged_linker_0--edge1-OJICUG_clean_linker_0
_symmetry_space_group_name_H-M    P1
_symmetry_Int_Tables_number       1
_symmetry_cell_setting            triclinic
loop_
_symmetry_equiv_pos_as_xyz
'x, y, z'
_cell_length_a     39.266136
_cell_length_b     37.247518
_cell_length_c     34.490683
_cell_angle_alpha  86.520417
_cell_angle_beta   95.684038
_cell_angle_gamma 104.10433
loop_
_atom_site_label
_atom_site_type_symbol
_atom_site_fract_x
_atom_site_fract_y
_atom_site_fract_z
_atom_type_partial_charge
C0 C 0.35621 0.24053 0.46397 0.0
C1 C 0.38809 0.2336 0.45496 0.0
C2 C 0.41051 0.25973 0.43188 0.0
C3 C 0.36791 0.29713 0.42363 0.0
C4 C 0.34688 0.27282 0.44838 0.0
C5 C 0.31417 0.28523 0.45474 0.0
H6 H 0.21179 0.40627 0.4061 0.0
C7 C 0.34953 0.3259 0.40922 0.0
C8 C 0.31824 0.31957 0.42775 0.0
H9 H 0.19574 0.318 0.49441 0.0
H10 H 0.24865 0.30084 0.47875 0.0
H11 H 0.23076 0.36147 0.34281 0.0
H12 H 0.2948 0.43599 0.426 0.0
H13 H 0.31311 0.44689 0.38092 0.0
H14 H 0.26858 0.45007 0.38494 0.0
H15 H 0.24143 0.41057 0.33326 0.0
H16 H 0.26913 0.38185 0.31996 0.0
C17 C 0.2816 0.25444 0.44138 0.0
C18 C 0.31608 0.29471 0.49817 0.0
C19 C 0.39374 0.41048 0.2947 0.0
C20 C 0.37864 0.43511 0.27038 0.0
C21 C 0.34797 0.44415 0.28039 0.0
C22 C 0.33183 0.42784 0.31367 0.0
C23 C 0.34615 0.40167 0.33664 0.0
C24 C 0.37685 0.39374 0.32729 0.0
C25 C 0.38692 0.36343 0.35332 0.0
C26 C 0.35686 0.35412 0.37956 0.0
C27 C 0.33327 0.37665 0.36966 0.0
C28 C 0.38682 0.33081 0.32735 0.0
C29 C 0.42286 0.37972 0.37628 0.0
C30 C 0.21975 0.38324 0.42207 0.0
C31 C 0.20016 0.36355 0.45162 0.0
C32 C 0.2107 0.33338 0.47146 0.0
C33 C 0.24143 0.32377 0.46252 0.0
C34 C 0.2613 0.34448 0.43332 0.0
C35 C 0.25007 0.37347 0.41356 0.0
C36 C 0.27388 0.39251 0.38337 0.0
C37 C 0.30228 0.37121 0.38918 0.0
C38 C 0.29476 0.34292 0.41816 0.0
C39 C 0.25291 0.38666 0.34269 0.0
C40 C 0.28833 0.43363 0.39396 0.0
H41 H 0.41846 0.30986 0.39823 0.0
H42 H 0.3389 0.22112 0.48227 0.0
H43 H 0.34384 0.30559 0.51013 0.0
H44 H 0.30275 0.3169 0.50251 0.0
H45 H 0.30467 0.26984 0.51633 0.0
H46 H 0.28541 0.24343 0.41326 0.0
H47 H 0.27721 0.23098 0.46323 0.0
H48 H 0.25722 0.26435 0.43603 0.0
H49 H 0.41698 0.40261 0.28713 0.0
H50 H 0.33606 0.46316 0.26189 0.0
H51 H 0.30825 0.43544 0.31952 0.0
H52 H 0.36386 0.32647 0.30502 0.0
H53 H 0.41112 0.33646 0.31176 0.0
H54 H 0.38426 0.30401 0.34351 0.0
H55 H 0.42719 0.41006 0.37965 0.0
H56 H 0.42443 0.368 0.4065 0.0
H57 H 0.44513 0.37529 0.36119 0.0
H58 H 0.43517 0.25485 0.42457 0.0
C59 C 0.40064 0.29148 0.4163 0.0
C60 C 0.65306 0.2035 0.36687 0.0
C61 C 0.61881 0.18365 0.3532 0.0
C62 C 0.60207 0.19792 0.31973 0.0
C63 C 0.65176 0.25079 0.31534 0.0
C64 C 0.66886 0.23709 0.34766 0.0
C65 C 0.70426 0.26293 0.35884 0.0
H66 H 0.81596 0.43297 0.33835 0.0
C67 C 0.67369 0.28724 0.30351 0.0
C68 C 0.70456 0.29489 0.3288 0.0
H69 H 0.8313 0.3417 0.41595 0.0
H70 H 0.7768 0.30289 0.38783 0.0
H71 H 0.73172 0.42066 0.34329 0.0
H72 H 0.78688 0.37954 0.25954 0.0
H73 H 0.75383 0.39974 0.23564 0.0
H74 H 0.79038 0.42819 0.26386 0.0
H75 H 0.75789 0.45125 0.30934 0.0
H76 H 0.71307 0.4272 0.29552 0.0
C77 C 0.70404 0.27521 0.40083 0.0
C78 C 0.73347 0.24263 0.35374 0.0
C79 C 0.62366 0.35869 0.1922 0.0
C80 C 0.63238 0.39541 0.17732 0.0
C81 C 0.66441 0.41892 0.19229 0.0
C82 C 0.68637 0.4062 0.22234 0.0
C83 C 0.6761 0.36967 0.23796 0.0
C84 C 0.64504 0.3469 0.22263 0.0
C85 C 0.63583 0.31025 0.24418 0.0
C86 C 0.66715 0.31372 0.27422 0.0
C87 C 0.69104 0.3484 0.2707 0.0
C88 C 0.60092 0.30772 0.26319 0.0
C89 C 0.63423 0.27953 0.21516 0.0
C90 C 0.80762 0.40452 0.34904 0.0
C91 C 0.82794 0.39043 0.3796 0.0
C92 C 0.81635 0.35315 0.39237 0.0
C93 C 0.78452 0.33076 0.37621 0.0
C94 C 0.76398 0.34555 0.34662 0.0
C95 C 0.77613 0.38157 0.33267 0.0
C96 C 0.75154 0.39195 0.29972 0.0
C97 C 0.72247 0.3565 0.29656 0.0
C98 C 0.72959 0.32956 0.32477 0.0
C99 C 0.73785 0.42465 0.31228 0.0
C100 C 0.77157 0.40057 0.2626 0.0
H101 H 0.60386 0.23958 0.27551 0.0
H102 H 0.66718 0.19346 0.39211 0.0
H103 H 0.72528 0.2226 0.32996 0.0
H104 H 0.75798 0.26171 0.3449 0.0
H105 H 0.73959 0.22691 0.38087 0.0
H106 H 0.67915 0.28349 0.40424 0.0
H107 H 0.70593 0.25225 0.42243 0.0
H108 H 0.72555 0.29944 0.40867 0.0
H109 H 0.59983 0.33933 0.18124 0.0
H110 H 0.67197 0.44747 0.18175 0.0
H111 H 0.71002 0.42552 0.23294 0.0
H112 H 0.59639 0.33559 0.26711 0.0
H113 H 0.57774 0.29208 0.24502 0.0
H114 H 0.60107 0.29499 0.29302 0.0
H115 H 0.6551 0.28853 0.1946 0.0
H116 H 0.63918 0.25377 0.22962 0.0
H117 H 0.6084 0.27291 0.19754 0.0
H118 H 0.57556 0.18449 0.30868 0.0
C119 C 0.61842 0.23076 0.30065 0.0
C120 C 0.8157 0.70496 0.3914 0.0
C121 C 0.83301 0.68003 0.37759 0.0
C122 C 0.82296 0.66646 0.33994 0.0
C123 C 0.77679 0.6999 0.33151 0.0
C124 C 0.78805 0.71498 0.36759 0.0
C125 C 0.76663 0.74124 0.37726 0.0
H126 H 0.62657 0.81687 0.33141 0.0
C127 C 0.74566 0.71343 0.31544 0.0
C128 C 0.73983 0.73812 0.34185 0.0
H129 H 0.70169 0.83549 0.43297 0.0
H130 H 0.73362 0.79495 0.40874 0.0
H131 H 0.61959 0.72865 0.33203 0.0
H132 H 0.68229 0.82 0.26814 0.0
H133 H 0.66615 0.78367 0.23595 0.0
H134 H 0.63553 0.80423 0.25716 0.0
H135 H 0.60068 0.75484 0.29408 0.0
H136 H 0.61744 0.71595 0.28349 0.0
C137 C 0.74911 0.72675 0.41535 0.0
C138 C 0.79137 0.78054 0.37958 0.0
C139 C 0.67264 0.65526 0.19494 0.0
C140 C 0.64105 0.66001 0.17459 0.0
C141 C 0.62652 0.68875 0.18512 0.0
C142 C 0.64214 0.71105 0.21661 0.0
C143 C 0.67266 0.70462 0.23797 0.0
C144 C 0.68795 0.6778 0.22628 0.0
C145 C 0.72076 0.67533 0.25181 0.0
C146 C 0.72189 0.70409 0.28167 0.0
C147 C 0.69347 0.72093 0.27369 0.0
C148 C 0.71488 0.63568 0.27056 0.0
C149 C 0.75262 0.68637 0.22667 0.0
C150 C 0.6499 0.81223 0.34848 0.0
C151 C 0.66157 0.82954 0.38422 0.0
C152 C 0.69234 0.82299 0.40515 0.0
C153 C 0.71077 0.79926 0.39109 0.0
C154 C 0.69843 0.7818 0.35562 0.0
C155 C 0.66855 0.78859 0.33486 0.0
C156 C 0.6588 0.76708 0.29817 0.0
C157 C 0.688 0.7466 0.29998 0.0
C158 C 0.71106 0.75517 0.33383 0.0
C159 C 0.62214 0.7403 0.30168 0.0
C160 C 0.66046 0.79496 0.26282 0.0
H161 H 0.78792 0.66415 0.28887 0.0
H162 H 0.82296 0.71563 0.42036 0.0
H163 H 0.81059 0.78514 0.35707 0.0
H164 H 0.77719 0.80276 0.37359 0.0
H165 H 0.80665 0.78453 0.40851 0.0
H166 H 0.74177 0.69594 0.41716 0.0
H167 H 0.76731 0.73639 0.44137 0.0
H168 H 0.72421 0.73505 0.41727 0.0
H169 H 0.68477 0.6338 0.18719 0.0
H170 H 0.60214 0.69292 0.17012 0.0
H171 H 0.62932 0.73185 0.22373 0.0
H172 H 0.68822 0.62682 0.28136 0.0
H173 H 0.71688 0.61545 0.24902 0.0
H174 H 0.73355 0.63336 0.29609 0.0
H175 H 0.74745 0.70467 0.20117 0.0
H176 H 0.77655 0.70273 0.24289 0.0
H177 H 0.7587 0.6616 0.21525 0.0
H178 H 0.83586 0.64695 0.32908 0.0
C179 C 0.79496 0.67623 0.31684 0.0
C180 C 0.38814 0.80813 0.36543 0.0
C181 C 0.37512 0.82994 0.38968 0.0
C182 C 0.33953 0.81772 0.39831 0.0
C183 C 0.33193 0.76242 0.36117 0.0
C184 C 0.36621 0.77504 0.35135 0.0
C185 C 0.37617 0.74941 0.32479 0.0
H186 H 0.33502 0.58906 0.22868 0.0
C187 C 0.3168 0.72618 0.34289 0.0
C188 C 0.3426 0.71879 0.32111 0.0
H189 H 0.43071 0.67617 0.2291 0.0
H190 H 0.40721 0.71146 0.27131 0.0
H191 H 0.32744 0.5887 0.31749 0.0
H192 H 0.28041 0.64446 0.22166 0.0
H193 H 0.24743 0.62463 0.25291 0.0
H194 H 0.26917 0.59512 0.23019 0.0
H195 H 0.28964 0.56501 0.28757 0.0
H196 H 0.28536 0.58903 0.33011 0.0
C197 C 0.40742 0.73525 0.34578 0.0
C198 C 0.38409 0.7706 0.28531 0.0
C199 C 0.19524 0.64835 0.37316 0.0
C200 C 0.17618 0.61225 0.36327 0.0
C201 C 0.19087 0.59262 0.3382 0.0
C202 C 0.22348 0.6082 0.32355 0.0
C203 C 0.24232 0.64381 0.33425 0.0
C204 C 0.22822 0.66336 0.35866 0.0
C205 C 0.25281 0.70041 0.36789 0.0
C206 C 0.284 0.6996 0.34525 0.0
C207 C 0.27748 0.66636 0.32542 0.0
C208 C 0.26279 0.7009 0.41243 0.0
C209 C 0.23445 0.73128 0.35187 0.0
C210 C 0.35067 0.61595 0.23749 0.0
C211 C 0.38487 0.6297 0.22558 0.0
C212 C 0.40451 0.66464 0.23822 0.0
C213 C 0.39073 0.68526 0.26262 0.0
C214 C 0.35682 0.67096 0.27481 0.0
C215 C 0.3373 0.63693 0.26213 0.0
C216 C 0.30199 0.62598 0.2787 0.0
C217 C 0.30332 0.65938 0.30267 0.0
C218 C 0.33559 0.68551 0.30042 0.0
C219 C 0.30066 0.59022 0.30464 0.0
C220 C 0.27301 0.62202 0.24427 0.0
H221 H 0.29143 0.77643 0.39233 0.0
H222 H 0.41521 0.81594 0.35816 0.0
H223 H 0.36871 0.79209 0.27934 0.0
H224 H 0.37623 0.75245 0.26012 0.0
H225 H 0.41244 0.7848 0.2851 0.0
H226 H 0.40366 0.72915 0.37727 0.0
H227 H 0.4327 0.75631 0.34366 0.0
H228 H 0.41001 0.70904 0.3345 0.0
H229 H 0.18495 0.66461 0.39201 0.0
H230 H 0.17772 0.56454 0.33065 0.0
H231 H 0.23305 0.59152 0.30493 0.0
H232 H 0.26848 0.67407 0.4234 0.0
H233 H 0.24088 0.7053 0.42818 0.0
H234 H 0.28682 0.72221 0.42089 0.0
H235 H 0.2181 0.72322 0.3241 0.0
H236 H 0.25335 0.75744 0.34451 0.0
H237 H 0.21682 0.73674 0.37292 0.0
H238 H 0.3281 0.83402 0.41591 0.0
C239 C 0.31805 0.7842 0.38437 0.0
C240 C 0.41046 0.65556 0.81998 0.0
C241 C 0.39637 0.62341 0.84228 0.0
C242 C 0.36095 0.60439 0.83219 0.0
C243 C 0.3552 0.64961 0.77927 0.0
C244 C 0.38953 0.66832 0.78964 0.0
C245 C 0.40078 0.70339 0.76572 0.0
H246 H 0.36659 0.82676 0.6256 0.0
C247 C 0.34101 0.67109 0.74625 0.0
C248 C 0.36764 0.70295 0.73905 0.0
H249 H 0.46279 0.82881 0.69977 0.0
H250 H 0.4356 0.77179 0.73095 0.0
H251 H 0.31095 0.79464 0.69093 0.0
H252 H 0.35295 0.73774 0.60854 0.0
H253 H 0.30732 0.7187 0.60845 0.0
H254 H 0.32308 0.76659 0.59351 0.0
H255 H 0.29899 0.7976 0.63941 0.0
H256 H 0.27651 0.75989 0.66983 0.0
C257 C 0.40968 0.73626 0.79365 0.0
C258 C 0.43172 0.69963 0.74273 0.0
C259 C 0.22103 0.61925 0.67291 0.0
C260 C 0.20181 0.63272 0.64087 0.0
C261 C 0.21516 0.669 0.62595 0.0
C262 C 0.24768 0.69075 0.64134 0.0
C263 C 0.26722 0.67633 0.67224 0.0
C264 C 0.25335 0.64148 0.68824 0.0
C265 C 0.27707 0.63136 0.72221 0.0
C266 C 0.30837 0.66481 0.72244 0.0
C267 C 0.30249 0.69119 0.69296 0.0
C268 C 0.25759 0.62808 0.7596 0.0
C269 C 0.2874 0.59549 0.71308 0.0
C270 C 0.38179 0.81495 0.6486 0.0
C271 C 0.41694 0.83339 0.66061 0.0
C272 C 0.43547 0.8165 0.6906 0.0
C273 C 0.41965 0.78278 0.70856 0.0
C274 C 0.38477 0.76489 0.69649 0.0
C275 C 0.36637 0.7807 0.66681 0.0
C276 C 0.32993 0.75633 0.65711 0.0
C277 C 0.32946 0.72394 0.68658 0.0
C278 C 0.36178 0.72942 0.70941 0.0
C279 C 0.30243 0.77812 0.66435 0.0
C280 C 0.32783 0.74422 0.61462 0.0
H281 H 0.31389 0.60138 0.79456 0.0
H282 H 0.43756 0.67081 0.82554 0.0
H283 H 0.42847 0.67051 0.7344 0.0
H284 H 0.43316 0.71582 0.71476 0.0
H285 H 0.45738 0.70793 0.76045 0.0
H286 H 0.39408 0.72976 0.81951 0.0
H287 H 0.438 0.74295 0.80457 0.0
H288 H 0.40284 0.76154 0.78011 0.0
H289 H 0.21127 0.59172 0.68544 0.0
H290 H 0.20109 0.68003 0.60128 0.0
H291 H 0.25665 0.71782 0.62814 0.0
H292 H 0.24109 0.6486 0.75849 0.0
H293 H 0.23995 0.60005 0.76322 0.0
H294 H 0.27583 0.63428 0.78614 0.0
H295 H 0.29573 0.59738 0.68297 0.0
H296 H 0.30976 0.59019 0.7326 0.0
H297 H 0.26476 0.57106 0.71525 0.0
H298 H 0.34876 0.57981 0.84875 0.0
C299 C 0.34047 0.61715 0.8008 0.0
C300 C 0.21316 0.31726 0.62798 0.0
C301 C 0.1946 0.34022 0.64329 0.0
C302 C 0.20331 0.35128 0.68201 0.0
C303 C 0.25071 0.3195 0.68866 0.0
C304 C 0.24071 0.30672 0.65143 0.0
C305 C 0.26293 0.28176 0.64045 0.0
H306 H 0.40264 0.20534 0.68464 0.0
C307 C 0.28185 0.30585 0.70437 0.0
C308 C 0.28864 0.28291 0.67669 0.0
H309 H 0.32818 0.18921 0.5824 0.0
H310 H 0.29598 0.22885 0.6078 0.0
H311 H 0.40884 0.29388 0.68744 0.0
H312 H 0.34642 0.19947 0.74753 0.0
H313 H 0.36199 0.23461 0.78123 0.0
H314 H 0.39308 0.21542 0.75913 0.0
H315 H 0.42783 0.26653 0.72415 0.0
H316 H 0.41048 0.30442 0.73663 0.0
C317 C 0.28181 0.29938 0.60409 0.0
C318 C 0.23874 0.24251 0.63441 0.0
C319 C 0.35327 0.36077 0.8271 0.0
C320 C 0.38503 0.35615 0.84712 0.0
C321 C 0.40004 0.32811 0.83572 0.0
C322 C 0.38481 0.30654 0.80357 0.0
C323 C 0.35418 0.313 0.78245 0.0
C324 C 0.33834 0.33897 0.79511 0.0
C325 C 0.30545 0.34153 0.76977 0.0
C326 C 0.30508 0.31409 0.73873 0.0
C327 C 0.33385 0.29768 0.74607 0.0
C328 C 0.31063 0.38169 0.75257 0.0
C329 C 0.27347 0.32884 0.79459 0.0
C330 C 0.37943 0.21039 0.66767 0.0
C331 C 0.36796 0.19399 0.63143 0.0
C332 C 0.33735 0.20102 0.61059 0.0
C333 C 0.31878 0.22424 0.62531 0.0
C334 C 0.33082 0.24069 0.66136 0.0
C335 C 0.36056 0.23347 0.682 0.0
C336 C 0.36969 0.25357 0.71963 0.0
C337 C 0.34012 0.27349 0.7186 0.0
C338 C 0.31761 0.2661 0.68418 0.0
C339 C 0.40618 0.28095 0.71728 0.0
C340 C 0.36803 0.22448 0.75387 0.0
H341 H 0.23726 0.35117 0.73371 0.0
H342 H 0.2068 0.30839 0.59824 0.0
H343 H 0.21598 0.23725 0.65254 0.0
H344 H 0.25232 0.22027 0.6437 0.0
H345 H 0.22796 0.23894 0.6035 0.0
H346 H 0.29221 0.32974 0.60714 0.0
H347 H 0.26338 0.29511 0.57725 0.0
H348 H 0.30484 0.28854 0.59971 0.0
H349 H 0.34084 0.38173 0.83553 0.0
H350 H 0.42455 0.32407 0.85051 0.0
H351 H 0.39801 0.28632 0.79574 0.0
H352 H 0.337 0.39126 0.74115 0.0
H353 H 0.30892 0.40102 0.7752 0.0
H354 H 0.29134 0.38463 0.72786 0.0
H355 H 0.27916 0.31073 0.82004 0.0
H356 H 0.25015 0.31173 0.77802 0.0
H357 H 0.26613 0.35289 0.80606 0.0
H358 H 0.18943 0.36925 0.69406 0.0
C359 C 0.23126 0.34106 0.70478 0.0
C360 C 0.643 0.21087 0.66153 0.0
C361 C 0.655 0.19041 0.63512 0.0
C362 C 0.69018 0.20227 0.62554 0.0
C363 C 0.69922 0.25645 0.66514 0.0
C364 C 0.6653 0.24348 0.67606 0.0
C365 C 0.65539 0.26918 0.70253 0.0
H366 H 0.69627 0.42984 0.79777 0.0
C367 C 0.71422 0.29302 0.68298 0.0
C368 C 0.68855 0.30029 0.70513 0.0
H369 H 0.59991 0.34335 0.79618 0.0
H370 H 0.62343 0.30813 0.75419 0.0
H371 H 0.70264 0.43059 0.70767 0.0
H372 H 0.75044 0.37574 0.80359 0.0
H373 H 0.78321 0.39512 0.77196 0.0
H374 H 0.76172 0.42501 0.79448 0.0
H375 H 0.74049 0.4546 0.73729 0.0
H376 H 0.74469 0.43049 0.69479 0.0
C377 C 0.62335 0.28242 0.6821 0.0
C378 C 0.64872 0.24843 0.74242 0.0
C379 C 0.83485 0.37217 0.65087 0.0
C380 C 0.85371 0.4084 0.66064 0.0
C381 C 0.83906 0.42776 0.68603 0.0
C382 C 0.80669 0.41185 0.70105 0.0
C383 C 0.78803 0.37615 0.69044 0.0
C384 C 0.80211 0.35679 0.66582 0.0
C385 C 0.77767 0.31958 0.6568 0.0
C386 C 0.74669 0.32002 0.67995 0.0
C387 C 0.75308 0.35334 0.69965 0.0
C388 C 0.76718 0.31901 0.61236 0.0
C389 C 0.79645 0.28896 0.67241 0.0
C390 C 0.68012 0.40342 0.78826 0.0
C391 C 0.64623 0.38936 0.80109 0.0
C392 C 0.62639 0.35466 0.78783 0.0
C393 C 0.64003 0.33421 0.76308 0.0
C394 C 0.67394 0.34846 0.75084 0.0
C395 C 0.69332 0.38261 0.76326 0.0
C396 C 0.72854 0.39367 0.74645 0.0
C397 C 0.72731 0.36021 0.7226 0.0
C398 C 0.69526 0.33386 0.72527 0.0
C399 C 0.72952 0.4293 0.72037 0.0
C400 C 0.75772 0.39793 0.7807 0.0
H401 H 0.73859 0.24334 0.63128 0.0
H402 H 0.61611 0.2024 0.6695 0.0
H403 H 0.66678 0.22964 0.74945 0.0
H404 H 0.65405 0.26722 0.76703 0.0
H405 H 0.62128 0.23126 0.7423 0.0
H406 H 0.625 0.28569 0.65001 0.0
H407 H 0.59818 0.26219 0.68739 0.0
H408 H 0.62204 0.30996 0.69111 0.0
H409 H 0.8451 0.35613 0.63175 0.0
H410 H 0.85203 0.4559 0.69352 0.0
H411 H 0.79716 0.42836 0.71988 0.0
H412 H 0.76184 0.34599 0.60137 0.0
H413 H 0.78867 0.31406 0.59629 0.0
H414 H 0.74277 0.29806 0.60431 0.0
H415 H 0.81173 0.29643 0.7009 0.0
H416 H 0.77785 0.26217 0.67816 0.0
H417 H 0.81513 0.28495 0.65182 0.0
H418 H 0.69994 0.18712 0.60503 0.0
C419 C 0.71237 0.23517 0.64043 0.0
C420 C 0.66177 0.60362 0.73252 0.0
C421 C 0.62995 0.60657 0.74563 0.0
C422 C 0.60912 0.62742 0.72314 0.0
C423 C 0.65379 0.64531 0.6774 0.0
C424 C 0.67303 0.62299 0.69835 0.0
C425 C 0.70672 0.62364 0.681 0.0
H426 H 0.82098 0.69118 0.54554 0.0
C427 C 0.67459 0.66438 0.64555 0.0
C428 C 0.7054 0.65154 0.64731 0.0
H429 H 0.82376 0.60436 0.63387 0.0
H430 H 0.77071 0.6125 0.65739 0.0
H431 H 0.79987 0.7462 0.59859 0.0
H432 H 0.73393 0.66609 0.52132 0.0
H433 H 0.72374 0.7098 0.51244 0.0
H434 H 0.76734 0.70519 0.50623 0.0
H435 H 0.79219 0.75714 0.54764 0.0
H436 H 0.76297 0.76359 0.58253 0.0
C437 C 0.73777 0.63797 0.712 0.0
C438 C 0.70444 0.58424 0.66686 0.0
C439 C 0.63659 0.76943 0.56779 0.0
C440 C 0.65374 0.79714 0.5422 0.0
C441 C 0.68574 0.7945 0.5288 0.0
C442 C 0.70098 0.76503 0.54185 0.0
C443 C 0.6843 0.73852 0.56911 0.0
C444 C 0.65245 0.74087 0.58128 0.0
C445 C 0.64001 0.71267 0.61298 0.0
C446 C 0.66975 0.69306 0.61816 0.0
C447 C 0.69549 0.70804 0.59219 0.0
C448 C 0.63756 0.73362 0.64979 0.0
C449 C 0.60485 0.68664 0.59739 0.0
C450 C 0.81007 0.67443 0.5702 0.0
C451 C 0.82612 0.64719 0.58815 0.0
C452 C 0.8115 0.62548 0.61988 0.0
C453 C 0.78061 0.63009 0.63328 0.0
C454 C 0.7641 0.65664 0.61464 0.0
C455 C 0.77879 0.67851 0.58382 0.0
C456 C 0.7569 0.70497 0.56773 0.0
C457 C 0.72623 0.69427 0.59322 0.0
C458 C 0.73092 0.66614 0.62063 0.0
C459 C 0.77898 0.74511 0.57411 0.0
C460 C 0.74481 0.69637 0.52453 0.0
H461 H 0.60437 0.66306 0.67363 0.0
H462 H 0.67792 0.58721 0.749 0.0
H463 H 0.67662 0.56848 0.66075 0.0
H464 H 0.71626 0.58487 0.63891 0.0
H465 H 0.71724 0.56778 0.68909 0.0
H466 H 0.7326 0.66059 0.72847 0.0
H467 H 0.74164 0.61548 0.73338 0.0
H468 H 0.76292 0.65025 0.69928 0.0
H469 H 0.61245 0.77136 0.57937 0.0
H470 H 0.69935 0.81574 0.5091 0.0
H471 H 0.72566 0.76466 0.53125 0.0
H472 H 0.6589 0.75946 0.65228 0.0
H473 H 0.61198 0.74154 0.64866 0.0
H474 H 0.64117 0.71779 0.67731 0.0
H475 H 0.60483 0.68201 0.56582 0.0
H476 H 0.60033 0.65866 0.61156 0.0
H477 H 0.58212 0.69863 0.60094 0.0
H478 H 0.58444 0.63 0.73287 0.0
C479 C 0.62086 0.6468 0.689 0.0
Co480 Co 0.07846 0.4646 0.53803 0.0
Co481 Co 0.04164 0.4537 0.46844 0.0
Co482 Co 0.01425 0.51122 0.51135 0.0
O483 O 0.0308 0.46445 0.51812 0.0
H484 H 1.01356 0.44398 0.5286 0.0
O485 O 0.99764 0.55801 0.50468 0.0
Co486 Co 0.94988 0.55758 0.4849 0.0
Co487 Co 0.98663 0.56848 0.5544 0.0
H488 H 0.01484 0.57852 0.49421 0.0
O489 O 0.05062 0.40773 0.45758 0.0
O490 O 0.08832 0.45642 0.48514 0.0
O491 O 0.0448 0.49261 0.42768 0.0
O492 O 0.04884 0.53461 0.47182 0.0
O493 O 0.97749 0.4869 0.4692 0.0
O494 O 0.9073 0.56157 0.46648 0.0
O495 O 0.95699 0.60705 0.47178 0.0
O496 O 0.93578 0.50606 0.49385 0.0
O497 O 0.97969 0.48774 0.55087 0.0
O498 O 0.9838 0.52954 0.59518 0.0
O499 O 0.93983 0.56533 0.53778 0.0
O500 O 0.97711 0.61405 0.56574 0.0
C501 C 0.10477 0.42586 0.56184 0.0
C502 C 0.08386 0.53708 0.55192 0.0
C503 C 0.05544 0.52569 0.43865 0.0
C504 C 0.08237 0.424 0.47071 0.0
C505 C 0.92326 0.59613 0.46121 0.0
C506 C 0.94472 0.4854 0.47076 0.0
C507 C 0.9732 0.49649 0.58414 0.0
C508 C 0.9454 0.59745 0.5528 0.0
O509 O 0.12092 0.46033 0.55641 0.0
O510 O 0.07101 0.41514 0.55135 0.0
O511 O 0.05108 0.53559 0.55341 0.0
O512 O 0.0929 0.5162 0.52912 0.0
Co513 Co 0.54869 0.94348 0.47764 0.0
Co514 Co 0.56892 0.96684 0.54952 0.0
Co515 Co 0.51543 0.01202 0.5088 0.0
O516 O 0.55595 0.99009 0.5025 0.0
H517 H 0.57602 1.0083 0.49376 0.0
O518 O 0.47416 0.03329 0.51436 0.0
Co519 Co 0.48059 0.07995 0.53753 0.0
Co520 Co 0.46123 0.05531 0.46614 0.0
H521 H 0.45429 0.01497 0.52337 0.0
O522 O 0.61214 0.95295 0.55846 0.0
O523 O 0.56185 0.9208 0.5281 0.0
O524 O 0.53688 0.96004 0.59006 0.0
O525 O 0.49381 0.97221 0.54826 0.0
O526 O 0.54571 0.04408 0.55117 0.0
O527 O 0.4827 0.12202 0.56025 0.0
O528 O 0.43599 0.07347 0.55161 0.0
O529 O 0.52761 0.09261 0.5265 0.0
O530 O 0.53725 0.0515 0.46957 0.0
O531 O 0.49466 0.06275 0.42656 0.0
O532 O 0.46803 0.1016 0.4866 0.0
O533 O 0.41804 0.06995 0.45571 0.0
C534 C 0.57928 0.91758 0.44929 0.0
C535 C 0.47937 0.94584 0.46806 0.0
C536 C 0.50439 0.95747 0.58027 0.0
C537 C 0.59425 0.92306 0.54172 0.0
C538 C 0.44985 0.10647 0.5649 0.0
C539 C 0.5494 0.07928 0.54883 0.0
C540 C 0.52709 0.06568 0.43717 0.0
C541 C 0.43608 0.09996 0.47206 0.0
O542 O 0.54638 0.902 0.4537 0.0
O543 O 0.59321 0.9503 0.46326 0.0
O544 O 0.48545 0.9811 0.46623 0.0
O545 O 0.50072 0.92991 0.48803 0.0
Co546 Co 0.48126 0.52996 0.09209 0.0
Co547 Co 0.46227 0.46092 0.07089 0.0
Co548 Co 0.51281 0.50848 0.01086 0.0
O549 O 0.4726 0.50588 0.04303 0.0
H550 H 0.45182 0.51 0.02778 0.0
O551 O 0.55312 0.51212 0.97884 0.0
Co552 Co 0.54666 0.48828 0.93022 0.0
Co553 Co 0.56217 0.55727 0.95081 0.0
H554 H 0.57411 0.50911 0.99446 0.0
O555 O 0.4194 0.44369 0.09301 0.0
O556 O 0.46873 0.48143 0.11949 0.0
O557 O 0.49652 0.4316 0.07316 0.0
O558 O 0.53778 0.4773 0.04931 0.0
O559 O 0.48457 0.4628 0.98342 0.0
O560 O 0.54494 0.46513 0.88602 0.0
O561 O 0.59195 0.48521 0.9291 0.0
O562 O 0.49829 0.48722 0.92553 0.0
O563 O 0.48762 0.53901 0.97231 0.0
O564 O 0.5275 0.58669 0.94964 0.0
O565 O 0.55589 0.53682 0.9021 0.0
O566 O 0.60436 0.57642 0.92794 0.0
C567 C 0.4527 0.55251 0.12678 0.0
C568 C 0.54827 0.55215 0.07525 0.0
C569 C 0.52869 0.44683 0.06923 0.0
C570 C 0.43677 0.46204 0.12246 0.0
C571 C 0.57798 0.4677 0.89754 0.0
C572 C 0.47833 0.46347 0.94633 0.0
C573 C 0.49566 0.57029 0.95379 0.0
C574 C 0.58664 0.55877 0.89822 0.0
O575 O 0.48556 0.5526 0.13656 0.0
O576 O 0.43713 0.5368 0.09467 0.0
O577 O 0.54112 0.55401 0.03835 0.0
O578 O 0.52868 0.52762 0.09565 0.0
C579 C 0.17518 0.41388 0.47061 0.0
C580 C 0.16997 0.37654 0.46211 0.0
H581 H 0.15158 0.45805 0.47956 0.0
C582 C 0.13569 0.35378 0.45873 0.0
H583 H 0.20148 0.43185 0.47342 0.0
C584 C 0.10678 0.36888 0.46199 0.0
C585 C 0.11208 0.40672 0.46898 0.0
H586 H 0.13125 0.32494 0.45181 0.0
H587 H 0.08042 0.3512 0.45838 0.0
C588 C 0.14657 0.42883 0.47396 0.0
C589 C 0.57278 0.12275 0.3543 0.0
C590 C 0.59906 0.14978 0.37445 0.0
H591 H 0.52895 0.07556 0.35825 0.0
C592 C 0.60369 0.14581 0.41537 0.0
H593 H 0.56907 0.12366 0.32279 0.0
C594 C 0.58153 0.117 0.43548 0.0
C595 C 0.55368 0.09201 0.41529 0.0
H596 H 0.62318 0.16594 0.43221 0.0
H597 H 0.5849 0.11564 0.46705 0.0
C598 C 0.54991 0.09476 0.37451 0.0
C599 C 0.84421 0.63504 0.43011 0.0
C600 C 0.85785 0.66374 0.40371 0.0
H601 H 0.85422 0.59089 0.4684 0.0
C602 C 0.89414 0.67272 0.39894 0.0
H603 H 0.81624 0.62741 0.43384 0.0
C604 C 0.91631 0.65237 0.41964 0.0
C605 C 0.90213 0.62209 0.44428 0.0
H606 H 0.90503 0.69457 0.37828 0.0
H607 H 0.94398 0.65888 0.41463 0.0
C608 C 0.866 0.61415 0.4498 0.0
C609 C 0.39467 0.87434 0.44484 0.0
C610 C 0.39902 0.86401 0.40732 0.0
H611 H 0.41564 0.90983 0.49244 0.0
C612 C 0.42788 0.88519 0.3881 0.0
H613 H 0.37321 0.85892 0.46104 0.0
C614 C 0.45288 0.91378 0.40696 0.0
C615 C 0.44922 0.92251 0.44506 0.0
H616 H 0.43186 0.87909 0.35884 0.0
H617 H 0.47591 0.92797 0.3924 0.0
C618 C 0.41933 0.90338 0.46328 0.0
C619 C 0.17163 0.57256 0.61054 0.0
C620 C 0.16995 0.60792 0.62077 0.0
H621 H 0.14654 0.52344 0.58075 0.0
C622 C 0.13866 0.6196 0.60958 0.0
H623 H 0.19536 0.5628 0.61816 0.0
C624 C 0.10984 0.5963 0.58854 0.0
C625 C 0.11221 0.56136 0.5773 0.0
H626 H 0.13655 0.64678 0.61697 0.0
H627 H 0.0863 0.6061 0.57996 0.0
C628 C 0.14348 0.54994 0.58882 0.0
C629 C 0.3717 0.13772 0.5962 0.0
C630 C 0.38857 0.17077 0.6149 0.0
H631 H 0.37775 0.09114 0.56606 0.0
C632 C 0.42554 0.18189 0.61738 0.0
H633 H 0.34324 0.12829 0.59395 0.0
C634 C 0.44518 0.1607 0.60154 0.0
C635 C 0.42843 0.12763 0.58295 0.0
H636 H 0.43937 0.20745 0.63099 0.0
H637 H 0.47361 0.17044 0.60375 0.0
C638 C 0.39145 0.11628 0.58052 0.0
C639 C 0.91342 0.45399 0.66339 0.0
C640 C 0.88726 0.42715 0.64297 0.0
H641 H 0.96097 0.49688 0.66105 0.0
C642 C 0.89234 0.42057 0.60442 0.0
H643 H 0.91124 0.45924 0.69346 0.0
C644 C 0.92158 0.44147 0.58628 0.0
C645 C 0.9463 0.46997 0.60592 0.0
H646 H 0.87285 0.40059 0.58738 0.0
H647 H 0.92363 0.43666 0.55602 0.0
C648 C 0.94228 0.47539 0.64498 0.0
C649 C 0.66171 0.86556 0.54325 0.0
C650 C 0.64003 0.83062 0.53425 0.0
H651 H 0.66411 0.92238 0.55321 0.0
C652 C 0.60388 0.82709 0.52434 0.0
H653 H 0.68964 0.86886 0.55136 0.0
C654 C 0.58924 0.85743 0.52588 0.0
C655 C 0.61049 0.8919 0.53733 0.0
H656 H 0.58669 0.80041 0.5172 0.0
H657 H 0.56104 0.85348 0.51939 0.0
C658 C 0.64702 0.89598 0.54492 0.0
C659 C 0.43181 0.19877 0.48283 0.0
C660 C 0.39755 0.19834 0.46668 0.0
H661 H 0.47085 0.16811 0.49686 0.0
C662 C 0.3745 0.16451 0.45619 0.0
H663 H 0.44994 0.22454 0.49135 0.0
C664 C 0.38647 0.13194 0.45917 0.0
C665 C 0.42157 0.13288 0.47286 0.0
H666 H 0.34798 0.16366 0.44343 0.0
H667 H 0.36871 0.10642 0.44939 0.0
C668 C 0.44372 0.1664 0.48585 0.0
C669 C 0.85574 0.44843 0.41496 0.0
C670 C 0.85922 0.41526 0.40051 0.0
H671 H 0.87917 0.49545 0.44879 0.0
C672 C 0.89182 0.40544 0.40827 0.0
H673 H 0.83094 0.45657 0.41003 0.0
C674 C 0.92028 0.42853 0.42997 0.0
C675 C 0.91628 0.46129 0.44532 0.0
H676 H 0.89525 0.37991 0.39759 0.0
H677 H 0.94495 0.42025 0.43566 0.0
C678 C 0.88358 0.47075 0.43739 0.0
C679 C 0.60389 0.84198 0.39744 0.0
C680 C 0.64089 0.85302 0.40023 0.0
H681 H 0.55572 0.85364 0.41037 0.0
C682 C 0.65765 0.88619 0.41876 0.0
H683 H 0.5901 0.81631 0.38403 0.0
C684 C 0.63779 0.9078 0.43398 0.0
C685 C 0.60079 0.89653 0.43123 0.0
H686 H 0.68611 0.89558 0.42128 0.0
H687 H 0.65143 0.93297 0.44842 0.0
C688 C 0.58415 0.86338 0.41276 0.0
C689 C 0.13699 0.60077 0.41895 0.0
C690 C 0.14234 0.59393 0.38057 0.0
H691 H 0.10517 0.58528 0.46695 0.0
C692 C 0.11614 0.56728 0.35998 0.0
H693 H 0.1565 0.62062 0.43612 0.0
C694 C 0.08692 0.54629 0.37811 0.0
C695 C 0.08262 0.55196 0.41704 0.0
H696 H 0.11854 0.56184 0.33003 0.0
H697 H 0.06819 0.52489 0.36196 0.0
C698 C 0.10742 0.5803 0.43679 0.0
C699 C 0.42919 0.87543 0.60069 0.0
C700 C 0.43554 0.86878 0.64103 0.0
H701 H 0.44613 0.90889 0.55033 0.0
C702 C 0.46232 0.89473 0.66188 0.0
H703 H 0.40931 0.85609 0.58335 0.0
C704 C 0.48387 0.9246 0.64253 0.0
C705 C 0.47843 0.93006 0.60204 0.0
H706 H 0.46747 0.89141 0.69314 0.0
H707 H 0.50533 0.94292 0.65909 0.0
C708 C 0.45027 0.90581 0.58159 0.0
C709 C 0.13359 0.34843 0.62292 0.0
C710 C 0.16983 0.35722 0.61789 0.0
H711 H 0.08387 0.36272 0.60784 0.0
C712 C 0.18354 0.38623 0.59185 0.0
H713 H 0.12266 0.32633 0.64329 0.0
C714 C 0.16189 0.40758 0.57284 0.0
C715 C 0.12579 0.39971 0.57847 0.0
H716 H 0.21148 0.39372 0.58794 0.0
H717 H 0.17376 0.4311 0.5546 0.0
C718 C 0.11152 0.36919 0.60274 0.0
C719 C 0.59881 0.16919 0.59434 0.0
C720 C 0.62909 0.16063 0.61356 0.0
H721 H 0.55102 0.15103 0.55913 0.0
C722 C 0.63366 0.12438 0.61163 0.0
H723 H 0.59472 0.19691 0.59479 0.0
C724 C 0.60775 0.0971 0.59133 0.0
C725 C 0.57739 0.10604 0.57202 0.0
H726 H 0.65692 0.11711 0.62618 0.0
H727 H 0.61164 0.06938 0.59034 0.0
C728 C 0.57363 0.14258 0.57377 0.0
C729 C 0.85179 0.60352 0.55712 0.0
C730 C 0.85634 0.63837 0.57261 0.0
H731 H 0.87642 0.56332 0.53885 0.0
C732 C 0.89023 0.66156 0.57849 0.0
H733 H 0.82574 0.58527 0.55262 0.0
C734 C 0.91959 0.64897 0.57079 0.0
C735 C 0.9151 0.61317 0.55713 0.0
H736 H 0.89403 0.68844 0.59087 0.0
H737 H 0.9457 0.66666 0.57677 0.0
C738 C 0.88087 0.59101 0.54945 0.0
C739 C 0.42877 0.46309 0.23046 0.0
C740 C 0.39266 0.44754 0.23251 0.0
H741 H 0.471 0.48047 0.19372 0.0
C742 C 0.3706 0.4397 0.19797 0.0
H743 H 0.4462 0.46936 0.25682 0.0
C744 C 0.38478 0.44533 0.16194 0.0
C745 C 0.42116 0.45937 0.15994 0.0
H746 H 0.34267 0.42739 0.19896 0.0
H747 H 0.3674 0.43784 0.13578 0.0
C748 C 0.44287 0.46933 0.19441 0.0
C749 C 0.41421 0.57189 0.88523 0.0
C750 C 0.41908 0.60991 0.87497 0.0
H751 H 0.43388 0.52983 0.91906 0.0
C752 C 0.44742 0.63493 0.89486 0.0
H753 H 0.39312 0.55147 0.87076 0.0
C754 C 0.47161 0.62223 0.92147 0.0
C755 C 0.46744 0.58426 0.93029 0.0
H756 H 0.45157 0.66452 0.88946 0.0
H757 H 0.49394 0.64216 0.93474 0.0
C758 C 0.43779 0.55933 0.9129 0.0
C759 C 0.4207 0.37187 0.91176 0.0
C760 C 0.40459 0.38325 0.87636 0.0
H761 H 0.45599 0.38868 0.96282 0.0
C762 C 0.40986 0.42133 0.86706 0.0
H763 H 0.41705 0.34269 0.91969 0.0
C764 C 0.43231 0.44731 0.89125 0.0
C765 C 0.44951 0.43603 0.92585 0.0
H766 H 0.39823 0.43103 0.83985 0.0
H767 H 0.43735 0.4763 0.882 0.0
C768 C 0.44268 0.39813 0.93659 0.0
C769 C 0.60952 0.39139 0.85649 0.0
C770 C 0.63121 0.41042 0.82793 0.0
H771 H 0.5758 0.39489 0.90068 0.0
C772 C 0.6372 0.44936 0.82455 0.0
H773 H 0.60485 0.3616 0.86072 0.0
C774 C 0.62102 0.46847 0.84826 0.0
C775 C 0.59855 0.44898 0.87565 0.0
H776 H 0.6534 0.465 0.80271 0.0
H777 H 0.62516 0.49825 0.84435 0.0
C778 C 0.59315 0.41042 0.87976 0.0
C779 C 0.64416 0.59848 0.81713 0.0
C780 C 0.61993 0.59058 0.78418 0.0
H781 H 0.65257 0.59461 0.87935 0.0
C782 C 0.58566 0.5695 0.78872 0.0
H783 H 0.67073 0.61487 0.81427 0.0
C784 C 0.57539 0.55756 0.82584 0.0
C785 C 0.59905 0.56715 0.85903 0.0
H786 H 0.56668 0.56286 0.76364 0.0
H787 H 0.54848 0.5421 0.82855 0.0
C788 C 0.63374 0.58706 0.85431 0.0
C789 C 0.61646 0.59466 0.15468 0.0
C790 C 0.62136 0.63274 0.14552 0.0
H791 H 0.58964 0.53951 0.1393 0.0
C792 C 0.60496 0.64404 0.11026 0.0
H793 H 0.62836 0.58498 0.18173 0.0
C794 C 0.58304 0.61774 0.08548 0.0
C795 C 0.57663 0.57982 0.09605 0.0
H796 H 0.6084 0.67321 0.10235 0.0
H797 H 0.56956 0.62714 0.05933 0.0
C798 C 0.59417 0.56859 0.13042 0.0
C799 C 0.43599 0.60564 0.21023 0.0
C800 C 0.40085 0.60768 0.20111 0.0
H801 H 0.47952 0.58666 0.19439 0.0
C802 C 0.38192 0.58956 0.16812 0.0
H803 H 0.45112 0.6186 0.23583 0.0
C804 C 0.39833 0.57101 0.14402 0.0
C805 C 0.43388 0.57006 0.15267 0.0
H806 H 0.35477 0.59064 0.16034 0.0
H807 H 0.38338 0.55797 0.11838 0.0
C808 C 0.45223 0.5871 0.18644 0.0
C809 C 0.61738 0.43526 0.11833 0.0
C810 C 0.60658 0.40886 0.14847 0.0
H811 H 0.60147 0.46779 0.06924 0.0
C812 C 0.57014 0.39474 0.15109 0.0
H813 H 0.64512 0.44671 0.11519 0.0
C814 C 0.54538 0.40587 0.12431 0.0
C815 C 0.55595 0.43234 0.09432 0.0
H816 H 0.56039 0.37542 0.17449 0.0
H817 H 0.51773 0.39445 0.12808 0.0
C818 C 0.59233 0.447 0.09167 0.0
loop_
_geom_bond_atom_site_label_1
_geom_bond_atom_site_label_2
_geom_bond_distance
_geom_bond_site_symmetry_2
_ccdc_geom_bond_type
C0 C1 1.391 . S
C0 C4 1.391 . S
C0 H42 0.948 . S
C1 C0 1.391 . S
C1 C2 1.391 . S
C2 C1 1.391 . S
C2 H58 0.947 . S
C2 C59 1.392 . S
C3 C4 1.391 . S
C3 C7 1.397 . S
C3 C59 1.419 . S
C4 C0 1.391 . S
C4 C3 1.391 . S
C4 C5 1.399 . S
C5 C4 1.399 . S
C5 C8 1.396 . S
C5 C17 1.453 . S
C5 C18 1.684 . S
H6 C30 0.948 . S
C7 C3 1.397 . S
C7 C8 1.394 . S
C7 C26 1.723 . S
C8 C5 1.396 . S
C8 C7 1.394 . S
C8 C38 1.723 . S
H9 C32 0.947 . S
H10 C33 0.948 . S
H11 C39 0.982 . S
H12 C40 0.979 . S
H13 C40 0.980 . S
H14 C40 0.983 . S
H15 C39 0.979 . S
H16 C39 0.977 . S
C17 C5 1.453 . S
C17 H46 0.982 . S
C17 H47 0.979 . S
C17 H48 0.977 . S
C18 C5 1.684 . S
C18 H43 0.979 . S
C18 H44 0.980 . S
C18 H45 0.983 . S
C19 C20 1.391 . S
C19 C24 1.391 . S
C19 H49 0.948 . S
C20 C19 1.391 . S
C20 C21 1.391 . S
C21 C20 1.391 . S
C21 C22 1.392 . S
C21 H50 0.947 . S
C22 C21 1.392 . S
C22 C23 1.419 . S
C22 H51 0.948 . S
C23 C22 1.419 . S
C23 C24 1.391 . S
C23 C27 1.397 . S
C24 C19 1.391 . S
C24 C23 1.391 . S
C24 C25 1.399 . S
C25 C24 1.399 . S
C25 C26 1.396 . S
C25 C28 1.453 . S
C25 C29 1.684 . S
C26 C7 1.723 . S
C26 C25 1.396 . S
C26 C27 1.394 . S
C27 C23 1.397 . S
C27 C26 1.394 . S
C27 C37 1.723 . S
C28 C25 1.453 . S
C28 H52 0.982 . S
C28 H53 0.979 . S
C28 H54 0.977 . S
C29 C25 1.684 . S
C29 H55 0.979 . S
C29 H56 0.980 . S
C29 H57 0.983 . S
C30 H6 0.948 . S
C30 C31 1.391 . S
C30 C35 1.391 . S
C31 C30 1.391 . S
C31 C32 1.391 . S
C32 H9 0.947 . S
C32 C31 1.391 . S
C32 C33 1.392 . S
C33 H10 0.948 . S
C33 C32 1.392 . S
C33 C34 1.419 . S
C34 C33 1.419 . S
C34 C35 1.391 . S
C34 C38 1.397 . S
C35 C30 1.391 . S
C35 C34 1.391 . S
C35 C36 1.399 . S
C36 C35 1.399 . S
C36 C37 1.396 . S
C36 C39 1.453 . S
C36 C40 1.684 . S
C37 C27 1.723 . S
C37 C36 1.396 . S
C37 C38 1.394 . S
C38 C8 1.723 . S
C38 C34 1.397 . S
C38 C37 1.394 . S
C39 H11 0.982 . S
C39 H15 0.979 . S
C39 H16 0.977 . S
C39 C36 1.453 . S
C40 H12 0.979 . S
C40 H13 0.980 . S
C40 H14 0.983 . S
C40 C36 1.684 . S
H41 C59 0.948 . S
H42 C0 0.948 . S
H43 C18 0.979 . S
H44 C18 0.980 . S
H45 C18 0.983 . S
H46 C17 0.982 . S
H47 C17 0.979 . S
H48 C17 0.977 . S
H49 C19 0.948 . S
H50 C21 0.947 . S
H51 C22 0.948 . S
H52 C28 0.982 . S
H53 C28 0.979 . S
H54 C28 0.977 . S
H55 C29 0.979 . S
H56 C29 0.980 . S
H57 C29 0.983 . S
H58 C2 0.947 . S
C59 C2 1.392 . S
C59 C3 1.419 . S
C59 H41 0.948 . S
C60 C61 1.391 . S
C60 C64 1.391 . S
C60 H102 0.948 . S
C61 C60 1.391 . S
C61 C62 1.391 . S
C62 C61 1.391 . S
C62 H118 0.947 . S
C62 C119 1.392 . S
C63 C64 1.391 . S
C63 C67 1.397 . S
C63 C119 1.419 . S
C64 C60 1.391 . S
C64 C63 1.391 . S
C64 C65 1.399 . S
C65 C64 1.399 . S
C65 C68 1.396 . S
C65 C77 1.453 . S
C65 C78 1.684 . S
H66 C90 0.948 . S
C67 C63 1.397 . S
C67 C68 1.394 . S
C67 C86 1.723 . S
C68 C65 1.396 . S
C68 C67 1.394 . S
C68 C98 1.723 . S
H69 C92 0.947 . S
H70 C93 0.948 . S
H71 C99 0.982 . S
H72 C100 0.979 . S
H73 C100 0.980 . S
H74 C100 0.983 . S
H75 C99 0.979 . S
H76 C99 0.977 . S
C77 C65 1.453 . S
C77 H106 0.982 . S
C77 H107 0.979 . S
C77 H108 0.977 . S
C78 C65 1.684 . S
C78 H103 0.979 . S
C78 H104 0.980 . S
C78 H105 0.983 . S
C79 C80 1.391 . S
C79 C84 1.391 . S
C79 H109 0.948 . S
C80 C79 1.391 . S
C80 C81 1.391 . S
C81 C80 1.391 . S
C81 C82 1.392 . S
C81 H110 0.947 . S
C82 C81 1.392 . S
C82 C83 1.419 . S
C82 H111 0.948 . S
C83 C82 1.419 . S
C83 C84 1.391 . S
C83 C87 1.397 . S
C84 C79 1.391 . S
C84 C83 1.391 . S
C84 C85 1.399 . S
C85 C84 1.399 . S
C85 C86 1.396 . S
C85 C88 1.453 . S
C85 C89 1.684 . S
C86 C67 1.723 . S
C86 C85 1.396 . S
C86 C87 1.394 . S
C87 C83 1.397 . S
C87 C86 1.394 . S
C87 C97 1.723 . S
C88 C85 1.453 . S
C88 H112 0.982 . S
C88 H113 0.979 . S
C88 H114 0.977 . S
C89 C85 1.684 . S
C89 H115 0.979 . S
C89 H116 0.980 . S
C89 H117 0.983 . S
C90 H66 0.948 . S
C90 C91 1.391 . S
C90 C95 1.391 . S
C91 C90 1.391 . S
C91 C92 1.391 . S
C92 H69 0.947 . S
C92 C91 1.391 . S
C92 C93 1.392 . S
C93 H70 0.948 . S
C93 C92 1.392 . S
C93 C94 1.419 . S
C94 C93 1.419 . S
C94 C95 1.391 . S
C94 C98 1.397 . S
C95 C90 1.391 . S
C95 C94 1.391 . S
C95 C96 1.399 . S
C96 C95 1.399 . S
C96 C97 1.396 . S
C96 C99 1.453 . S
C96 C100 1.684 . S
C97 C87 1.723 . S
C97 C96 1.396 . S
C97 C98 1.394 . S
C98 C68 1.723 . S
C98 C94 1.397 . S
C98 C97 1.394 . S
C99 H71 0.982 . S
C99 H75 0.979 . S
C99 H76 0.977 . S
C99 C96 1.453 . S
C100 H72 0.979 . S
C100 H73 0.980 . S
C100 H74 0.983 . S
C100 C96 1.684 . S
H101 C119 0.948 . S
H102 C60 0.948 . S
H103 C78 0.979 . S
H104 C78 0.980 . S
H105 C78 0.983 . S
H106 C77 0.982 . S
H107 C77 0.979 . S
H108 C77 0.977 . S
H109 C79 0.948 . S
H110 C81 0.947 . S
H111 C82 0.948 . S
H112 C88 0.982 . S
H113 C88 0.979 . S
H114 C88 0.977 . S
H115 C89 0.979 . S
H116 C89 0.980 . S
H117 C89 0.983 . S
H118 C62 0.947 . S
C119 C62 1.392 . S
C119 C63 1.419 . S
C119 H101 0.948 . S
C120 C121 1.391 . S
C120 C124 1.391 . S
C120 H162 0.948 . S
C121 C120 1.391 . S
C121 C122 1.391 . S
C122 C121 1.391 . S
C122 H178 0.947 . S
C122 C179 1.392 . S
C123 C124 1.391 . S
C123 C127 1.397 . S
C123 C179 1.419 . S
C124 C120 1.391 . S
C124 C123 1.391 . S
C124 C125 1.399 . S
C125 C124 1.399 . S
C125 C128 1.396 . S
C125 C137 1.453 . S
C125 C138 1.684 . S
H126 C150 0.948 . S
C127 C123 1.397 . S
C127 C128 1.394 . S
C127 C146 1.723 . S
C128 C125 1.396 . S
C128 C127 1.394 . S
C128 C158 1.723 . S
H129 C152 0.947 . S
H130 C153 0.948 . S
H131 C159 0.982 . S
H132 C160 0.979 . S
H133 C160 0.980 . S
H134 C160 0.983 . S
H135 C159 0.979 . S
H136 C159 0.977 . S
C137 C125 1.453 . S
C137 H166 0.982 . S
C137 H167 0.979 . S
C137 H168 0.977 . S
C138 C125 1.684 . S
C138 H163 0.979 . S
C138 H164 0.980 . S
C138 H165 0.983 . S
C139 C140 1.391 . S
C139 C144 1.391 . S
C139 H169 0.948 . S
C140 C139 1.391 . S
C140 C141 1.391 . S
C141 C140 1.391 . S
C141 C142 1.392 . S
C141 H170 0.947 . S
C142 C141 1.392 . S
C142 C143 1.419 . S
C142 H171 0.948 . S
C143 C142 1.419 . S
C143 C144 1.391 . S
C143 C147 1.397 . S
C144 C139 1.391 . S
C144 C143 1.391 . S
C144 C145 1.399 . S
C145 C144 1.399 . S
C145 C146 1.396 . S
C145 C148 1.453 . S
C145 C149 1.684 . S
C146 C127 1.723 . S
C146 C145 1.396 . S
C146 C147 1.394 . S
C147 C143 1.397 . S
C147 C146 1.394 . S
C147 C157 1.723 . S
C148 C145 1.453 . S
C148 H172 0.982 . S
C148 H173 0.979 . S
C148 H174 0.977 . S
C149 C145 1.684 . S
C149 H175 0.979 . S
C149 H176 0.980 . S
C149 H177 0.983 . S
C150 H126 0.948 . S
C150 C151 1.391 . S
C150 C155 1.391 . S
C151 C150 1.391 . S
C151 C152 1.391 . S
C152 H129 0.947 . S
C152 C151 1.391 . S
C152 C153 1.392 . S
C153 H130 0.948 . S
C153 C152 1.392 . S
C153 C154 1.419 . S
C154 C153 1.419 . S
C154 C155 1.391 . S
C154 C158 1.397 . S
C155 C150 1.391 . S
C155 C154 1.391 . S
C155 C156 1.399 . S
C156 C155 1.399 . S
C156 C157 1.396 . S
C156 C159 1.453 . S
C156 C160 1.684 . S
C157 C147 1.723 . S
C157 C156 1.396 . S
C157 C158 1.394 . S
C158 C128 1.723 . S
C158 C154 1.397 . S
C158 C157 1.394 . S
C159 H131 0.982 . S
C159 H135 0.979 . S
C159 H136 0.977 . S
C159 C156 1.453 . S
C160 H132 0.979 . S
C160 H133 0.980 . S
C160 H134 0.983 . S
C160 C156 1.684 . S
H161 C179 0.948 . S
H162 C120 0.948 . S
H163 C138 0.979 . S
H164 C138 0.980 . S
H165 C138 0.983 . S
H166 C137 0.982 . S
H167 C137 0.979 . S
H168 C137 0.977 . S
H169 C139 0.948 . S
H170 C141 0.947 . S
H171 C142 0.948 . S
H172 C148 0.982 . S
H173 C148 0.979 . S
H174 C148 0.977 . S
H175 C149 0.979 . S
H176 C149 0.980 . S
H177 C149 0.983 . S
H178 C122 0.947 . S
C179 C122 1.392 . S
C179 C123 1.419 . S
C179 H161 0.948 . S
C180 C181 1.391 . S
C180 C184 1.391 . S
C180 H222 0.948 . S
C181 C180 1.391 . S
C181 C182 1.391 . S
C182 C181 1.391 . S
C182 H238 0.947 . S
C182 C239 1.392 . S
C183 C184 1.391 . S
C183 C187 1.397 . S
C183 C239 1.419 . S
C184 C180 1.391 . S
C184 C183 1.391 . S
C184 C185 1.399 . S
C185 C184 1.399 . S
C185 C188 1.396 . S
C185 C197 1.453 . S
C185 C198 1.684 . S
H186 C210 0.948 . S
C187 C183 1.397 . S
C187 C188 1.394 . S
C187 C206 1.723 . S
C188 C185 1.396 . S
C188 C187 1.394 . S
C188 C218 1.723 . S
H189 C212 0.947 . S
H190 C213 0.948 . S
H191 C219 0.982 . S
H192 C220 0.979 . S
H193 C220 0.980 . S
H194 C220 0.983 . S
H195 C219 0.979 . S
H196 C219 0.977 . S
C197 C185 1.453 . S
C197 H226 0.982 . S
C197 H227 0.979 . S
C197 H228 0.977 . S
C198 C185 1.684 . S
C198 H223 0.979 . S
C198 H224 0.980 . S
C198 H225 0.983 . S
C199 C200 1.391 . S
C199 C204 1.391 . S
C199 H229 0.948 . S
C200 C199 1.391 . S
C200 C201 1.391 . S
C201 C200 1.391 . S
C201 C202 1.392 . S
C201 H230 0.947 . S
C202 C201 1.392 . S
C202 C203 1.419 . S
C202 H231 0.948 . S
C203 C202 1.419 . S
C203 C204 1.391 . S
C203 C207 1.397 . S
C204 C199 1.391 . S
C204 C203 1.391 . S
C204 C205 1.399 . S
C205 C204 1.399 . S
C205 C206 1.396 . S
C205 C208 1.453 . S
C205 C209 1.684 . S
C206 C187 1.723 . S
C206 C205 1.396 . S
C206 C207 1.394 . S
C207 C203 1.397 . S
C207 C206 1.394 . S
C207 C217 1.723 . S
C208 C205 1.453 . S
C208 H232 0.982 . S
C208 H233 0.979 . S
C208 H234 0.977 . S
C209 C205 1.684 . S
C209 H235 0.979 . S
C209 H236 0.980 . S
C209 H237 0.983 . S
C210 H186 0.948 . S
C210 C211 1.391 . S
C210 C215 1.391 . S
C211 C210 1.391 . S
C211 C212 1.391 . S
C212 H189 0.947 . S
C212 C211 1.391 . S
C212 C213 1.392 . S
C213 H190 0.948 . S
C213 C212 1.392 . S
C213 C214 1.419 . S
C214 C213 1.419 . S
C214 C215 1.391 . S
C214 C218 1.397 . S
C215 C210 1.391 . S
C215 C214 1.391 . S
C215 C216 1.399 . S
C216 C215 1.399 . S
C216 C217 1.396 . S
C216 C219 1.453 . S
C216 C220 1.684 . S
C217 C207 1.723 . S
C217 C216 1.396 . S
C217 C218 1.394 . S
C218 C188 1.723 . S
C218 C214 1.397 . S
C218 C217 1.394 . S
C219 H191 0.982 . S
C219 H195 0.979 . S
C219 H196 0.977 . S
C219 C216 1.453 . S
C220 H192 0.979 . S
C220 H193 0.980 . S
C220 H194 0.983 . S
C220 C216 1.684 . S
H221 C239 0.948 . S
H222 C180 0.948 . S
H223 C198 0.979 . S
H224 C198 0.980 . S
H225 C198 0.983 . S
H226 C197 0.982 . S
H227 C197 0.979 . S
H228 C197 0.977 . S
H229 C199 0.948 . S
H230 C201 0.947 . S
H231 C202 0.948 . S
H232 C208 0.982 . S
H233 C208 0.979 . S
H234 C208 0.977 . S
H235 C209 0.979 . S
H236 C209 0.980 . S
H237 C209 0.983 . S
H238 C182 0.947 . S
C239 C182 1.392 . S
C239 C183 1.419 . S
C239 H221 0.948 . S
C240 C241 1.391 . S
C240 C244 1.391 . S
C240 H282 0.948 . S
C241 C240 1.391 . S
C241 C242 1.391 . S
C242 C241 1.391 . S
C242 H298 0.947 . S
C242 C299 1.392 . S
C243 C244 1.391 . S
C243 C247 1.397 . S
C243 C299 1.419 . S
C244 C240 1.391 . S
C244 C243 1.391 . S
C244 C245 1.399 . S
C245 C244 1.399 . S
C245 C248 1.396 . S
C245 C257 1.453 . S
C245 C258 1.684 . S
H246 C270 0.948 . S
C247 C243 1.397 . S
C247 C248 1.394 . S
C247 C266 1.723 . S
C248 C245 1.396 . S
C248 C247 1.394 . S
C248 C278 1.723 . S
H249 C272 0.947 . S
H250 C273 0.948 . S
H251 C279 0.982 . S
H252 C280 0.979 . S
H253 C280 0.980 . S
H254 C280 0.983 . S
H255 C279 0.979 . S
H256 C279 0.977 . S
C257 C245 1.453 . S
C257 H286 0.982 . S
C257 H287 0.979 . S
C257 H288 0.977 . S
C258 C245 1.684 . S
C258 H283 0.979 . S
C258 H284 0.980 . S
C258 H285 0.983 . S
C259 C260 1.391 . S
C259 C264 1.391 . S
C259 H289 0.948 . S
C260 C259 1.391 . S
C260 C261 1.391 . S
C261 C260 1.391 . S
C261 C262 1.392 . S
C261 H290 0.947 . S
C262 C261 1.392 . S
C262 C263 1.419 . S
C262 H291 0.948 . S
C263 C262 1.419 . S
C263 C264 1.391 . S
C263 C267 1.397 . S
C264 C259 1.391 . S
C264 C263 1.391 . S
C264 C265 1.399 . S
C265 C264 1.399 . S
C265 C266 1.396 . S
C265 C268 1.453 . S
C265 C269 1.684 . S
C266 C247 1.723 . S
C266 C265 1.396 . S
C266 C267 1.394 . S
C267 C263 1.397 . S
C267 C266 1.394 . S
C267 C277 1.723 . S
C268 C265 1.453 . S
C268 H292 0.982 . S
C268 H293 0.979 . S
C268 H294 0.977 . S
C269 C265 1.684 . S
C269 H295 0.979 . S
C269 H296 0.980 . S
C269 H297 0.983 . S
C270 H246 0.948 . S
C270 C271 1.391 . S
C270 C275 1.391 . S
C271 C270 1.391 . S
C271 C272 1.391 . S
C272 H249 0.947 . S
C272 C271 1.391 . S
C272 C273 1.392 . S
C273 H250 0.948 . S
C273 C272 1.392 . S
C273 C274 1.419 . S
C274 C273 1.419 . S
C274 C275 1.391 . S
C274 C278 1.397 . S
C275 C270 1.391 . S
C275 C274 1.391 . S
C275 C276 1.399 . S
C276 C275 1.399 . S
C276 C277 1.396 . S
C276 C279 1.453 . S
C276 C280 1.684 . S
C277 C267 1.723 . S
C277 C276 1.396 . S
C277 C278 1.394 . S
C278 C248 1.723 . S
C278 C274 1.397 . S
C278 C277 1.394 . S
C279 H251 0.982 . S
C279 H255 0.979 . S
C279 H256 0.977 . S
C279 C276 1.453 . S
C280 H252 0.979 . S
C280 H253 0.980 . S
C280 H254 0.983 . S
C280 C276 1.684 . S
H281 C299 0.948 . S
H282 C240 0.948 . S
H283 C258 0.979 . S
H284 C258 0.980 . S
H285 C258 0.983 . S
H286 C257 0.982 . S
H287 C257 0.979 . S
H288 C257 0.977 . S
H289 C259 0.948 . S
H290 C261 0.947 . S
H291 C262 0.948 . S
H292 C268 0.982 . S
H293 C268 0.979 . S
H294 C268 0.977 . S
H295 C269 0.979 . S
H296 C269 0.980 . S
H297 C269 0.983 . S
H298 C242 0.947 . S
C299 C242 1.392 . S
C299 C243 1.419 . S
C299 H281 0.948 . S
C300 C301 1.391 . S
C300 C304 1.391 . S
C300 H342 0.948 . S
C301 C300 1.391 . S
C301 C302 1.391 . S
C302 C301 1.391 . S
C302 H358 0.947 . S
C302 C359 1.392 . S
C303 C304 1.391 . S
C303 C307 1.397 . S
C303 C359 1.419 . S
C304 C300 1.391 . S
C304 C303 1.391 . S
C304 C305 1.399 . S
C305 C304 1.399 . S
C305 C308 1.396 . S
C305 C317 1.453 . S
C305 C318 1.684 . S
H306 C330 0.948 . S
C307 C303 1.397 . S
C307 C308 1.394 . S
C307 C326 1.723 . S
C308 C305 1.396 . S
C308 C307 1.394 . S
C308 C338 1.723 . S
H309 C332 0.947 . S
H310 C333 0.948 . S
H311 C339 0.982 . S
H312 C340 0.979 . S
H313 C340 0.980 . S
H314 C340 0.983 . S
H315 C339 0.979 . S
H316 C339 0.977 . S
C317 C305 1.453 . S
C317 H346 0.982 . S
C317 H347 0.979 . S
C317 H348 0.977 . S
C318 C305 1.684 . S
C318 H343 0.979 . S
C318 H344 0.980 . S
C318 H345 0.983 . S
C319 C320 1.391 . S
C319 C324 1.391 . S
C319 H349 0.948 . S
C320 C319 1.391 . S
C320 C321 1.391 . S
C321 C320 1.391 . S
C321 C322 1.392 . S
C321 H350 0.947 . S
C322 C321 1.392 . S
C322 C323 1.419 . S
C322 H351 0.948 . S
C323 C322 1.419 . S
C323 C324 1.391 . S
C323 C327 1.397 . S
C324 C319 1.391 . S
C324 C323 1.391 . S
C324 C325 1.399 . S
C325 C324 1.399 . S
C325 C326 1.396 . S
C325 C328 1.453 . S
C325 C329 1.684 . S
C326 C307 1.723 . S
C326 C325 1.396 . S
C326 C327 1.394 . S
C327 C323 1.397 . S
C327 C326 1.394 . S
C327 C337 1.723 . S
C328 C325 1.453 . S
C328 H352 0.982 . S
C328 H353 0.979 . S
C328 H354 0.977 . S
C329 C325 1.684 . S
C329 H355 0.979 . S
C329 H356 0.980 . S
C329 H357 0.983 . S
C330 H306 0.948 . S
C330 C331 1.391 . S
C330 C335 1.391 . S
C331 C330 1.391 . S
C331 C332 1.391 . S
C332 H309 0.947 . S
C332 C331 1.391 . S
C332 C333 1.392 . S
C333 H310 0.948 . S
C333 C332 1.392 . S
C333 C334 1.419 . S
C334 C333 1.419 . S
C334 C335 1.391 . S
C334 C338 1.397 . S
C335 C330 1.391 . S
C335 C334 1.391 . S
C335 C336 1.399 . S
C336 C335 1.399 . S
C336 C337 1.396 . S
C336 C339 1.453 . S
C336 C340 1.684 . S
C337 C327 1.723 . S
C337 C336 1.396 . S
C337 C338 1.394 . S
C338 C308 1.723 . S
C338 C334 1.397 . S
C338 C337 1.394 . S
C339 H311 0.982 . S
C339 H315 0.979 . S
C339 H316 0.977 . S
C339 C336 1.453 . S
C340 H312 0.979 . S
C340 H313 0.980 . S
C340 H314 0.983 . S
C340 C336 1.684 . S
H341 C359 0.948 . S
H342 C300 0.948 . S
H343 C318 0.979 . S
H344 C318 0.980 . S
H345 C318 0.983 . S
H346 C317 0.982 . S
H347 C317 0.979 . S
H348 C317 0.977 . S
H349 C319 0.948 . S
H350 C321 0.947 . S
H351 C322 0.948 . S
H352 C328 0.982 . S
H353 C328 0.979 . S
H354 C328 0.977 . S
H355 C329 0.979 . S
H356 C329 0.980 . S
H357 C329 0.983 . S
H358 C302 0.947 . S
C359 C302 1.392 . S
C359 C303 1.419 . S
C359 H341 0.948 . S
C360 C361 1.391 . S
C360 C364 1.391 . S
C360 H402 0.948 . S
C361 C360 1.391 . S
C361 C362 1.391 . S
C362 C361 1.391 . S
C362 H418 0.947 . S
C362 C419 1.392 . S
C363 C364 1.391 . S
C363 C367 1.397 . S
C363 C419 1.419 . S
C364 C360 1.391 . S
C364 C363 1.391 . S
C364 C365 1.399 . S
C365 C364 1.399 . S
C365 C368 1.396 . S
C365 C377 1.453 . S
C365 C378 1.684 . S
H366 C390 0.948 . S
C367 C363 1.397 . S
C367 C368 1.394 . S
C367 C386 1.723 . S
C368 C365 1.396 . S
C368 C367 1.394 . S
C368 C398 1.723 . S
H369 C392 0.947 . S
H370 C393 0.948 . S
H371 C399 0.982 . S
H372 C400 0.979 . S
H373 C400 0.980 . S
H374 C400 0.983 . S
H375 C399 0.979 . S
H376 C399 0.977 . S
C377 C365 1.453 . S
C377 H406 0.982 . S
C377 H407 0.979 . S
C377 H408 0.977 . S
C378 C365 1.684 . S
C378 H403 0.979 . S
C378 H404 0.980 . S
C378 H405 0.983 . S
C379 C380 1.391 . S
C379 C384 1.391 . S
C379 H409 0.948 . S
C380 C379 1.391 . S
C380 C381 1.391 . S
C381 C380 1.391 . S
C381 C382 1.392 . S
C381 H410 0.947 . S
C382 C381 1.392 . S
C382 C383 1.419 . S
C382 H411 0.948 . S
C383 C382 1.419 . S
C383 C384 1.391 . S
C383 C387 1.397 . S
C384 C379 1.391 . S
C384 C383 1.391 . S
C384 C385 1.399 . S
C385 C384 1.399 . S
C385 C386 1.396 . S
C385 C388 1.453 . S
C385 C389 1.684 . S
C386 C367 1.723 . S
C386 C385 1.396 . S
C386 C387 1.394 . S
C387 C383 1.397 . S
C387 C386 1.394 . S
C387 C397 1.723 . S
C388 C385 1.453 . S
C388 H412 0.982 . S
C388 H413 0.979 . S
C388 H414 0.977 . S
C389 C385 1.684 . S
C389 H415 0.979 . S
C389 H416 0.980 . S
C389 H417 0.983 . S
C390 H366 0.948 . S
C390 C391 1.391 . S
C390 C395 1.391 . S
C391 C390 1.391 . S
C391 C392 1.391 . S
C392 H369 0.947 . S
C392 C391 1.391 . S
C392 C393 1.392 . S
C393 H370 0.948 . S
C393 C392 1.392 . S
C393 C394 1.419 . S
C394 C393 1.419 . S
C394 C395 1.391 . S
C394 C398 1.397 . S
C395 C390 1.391 . S
C395 C394 1.391 . S
C395 C396 1.399 . S
C396 C395 1.399 . S
C396 C397 1.396 . S
C396 C399 1.453 . S
C396 C400 1.684 . S
C397 C387 1.723 . S
C397 C396 1.396 . S
C397 C398 1.394 . S
C398 C368 1.723 . S
C398 C394 1.397 . S
C398 C397 1.394 . S
C399 H371 0.982 . S
C399 H375 0.979 . S
C399 H376 0.977 . S
C399 C396 1.453 . S
C400 H372 0.979 . S
C400 H373 0.980 . S
C400 H374 0.983 . S
C400 C396 1.684 . S
H401 C419 0.948 . S
H402 C360 0.948 . S
H403 C378 0.979 . S
H404 C378 0.980 . S
H405 C378 0.983 . S
H406 C377 0.982 . S
H407 C377 0.979 . S
H408 C377 0.977 . S
H409 C379 0.948 . S
H410 C381 0.947 . S
H411 C382 0.948 . S
H412 C388 0.982 . S
H413 C388 0.979 . S
H414 C388 0.977 . S
H415 C389 0.979 . S
H416 C389 0.980 . S
H417 C389 0.983 . S
H418 C362 0.947 . S
C419 C362 1.392 . S
C419 C363 1.419 . S
C419 H401 0.948 . S
C420 C421 1.391 . S
C420 C424 1.391 . S
C420 H462 0.948 . S
C421 C420 1.391 . S
C421 C422 1.391 . S
C422 C421 1.391 . S
C422 H478 0.947 . S
C422 C479 1.392 . S
C423 C424 1.391 . S
C423 C427 1.397 . S
C423 C479 1.419 . S
C424 C420 1.391 . S
C424 C423 1.391 . S
C424 C425 1.399 . S
C425 C424 1.399 . S
C425 C428 1.396 . S
C425 C437 1.453 . S
C425 C438 1.684 . S
H426 C450 0.948 . S
C427 C423 1.397 . S
C427 C428 1.394 . S
C427 C446 1.723 . S
C428 C425 1.396 . S
C428 C427 1.394 . S
C428 C458 1.723 . S
H429 C452 0.947 . S
H430 C453 0.948 . S
H431 C459 0.982 . S
H432 C460 0.979 . S
H433 C460 0.980 . S
H434 C460 0.983 . S
H435 C459 0.979 . S
H436 C459 0.977 . S
C437 C425 1.453 . S
C437 H466 0.982 . S
C437 H467 0.979 . S
C437 H468 0.977 . S
C438 C425 1.684 . S
C438 H463 0.979 . S
C438 H464 0.980 . S
C438 H465 0.983 . S
C439 C440 1.391 . S
C439 C444 1.391 . S
C439 H469 0.948 . S
C440 C439 1.391 . S
C440 C441 1.391 . S
C441 C440 1.391 . S
C441 C442 1.392 . S
C441 H470 0.947 . S
C442 C441 1.392 . S
C442 C443 1.419 . S
C442 H471 0.948 . S
C443 C442 1.419 . S
C443 C444 1.391 . S
C443 C447 1.397 . S
C444 C439 1.391 . S
C444 C443 1.391 . S
C444 C445 1.399 . S
C445 C444 1.399 . S
C445 C446 1.396 . S
C445 C448 1.453 . S
C445 C449 1.684 . S
C446 C427 1.723 . S
C446 C445 1.396 . S
C446 C447 1.394 . S
C447 C443 1.397 . S
C447 C446 1.394 . S
C447 C457 1.723 . S
C448 C445 1.453 . S
C448 H472 0.982 . S
C448 H473 0.979 . S
C448 H474 0.977 . S
C449 C445 1.684 . S
C449 H475 0.979 . S
C449 H476 0.980 . S
C449 H477 0.983 . S
C450 H426 0.948 . S
C450 C451 1.391 . S
C450 C455 1.391 . S
C451 C450 1.391 . S
C451 C452 1.391 . S
C452 H429 0.947 . S
C452 C451 1.391 . S
C452 C453 1.392 . S
C453 H430 0.948 . S
C453 C452 1.392 . S
C453 C454 1.419 . S
C454 C453 1.419 . S
C454 C455 1.391 . S
C454 C458 1.397 . S
C455 C450 1.391 . S
C455 C454 1.391 . S
C455 C456 1.399 . S
C456 C455 1.399 . S
C456 C457 1.396 . S
C456 C459 1.453 . S
C456 C460 1.684 . S
C457 C447 1.723 . S
C457 C456 1.396 . S
C457 C458 1.394 . S
C458 C428 1.723 . S
C458 C454 1.397 . S
C458 C457 1.394 . S
C459 H431 0.982 . S
C459 H435 0.979 . S
C459 H436 0.977 . S
C459 C456 1.453 . S
C460 H432 0.979 . S
C460 H433 0.980 . S
C460 H434 0.983 . S
C460 C456 1.684 . S
H461 C479 0.948 . S
H462 C420 0.948 . S
H463 C438 0.979 . S
H464 C438 0.980 . S
H465 C438 0.983 . S
H466 C437 0.982 . S
H467 C437 0.979 . S
H468 C437 0.977 . S
H469 C439 0.948 . S
H470 C441 0.947 . S
H471 C442 0.948 . S
H472 C448 0.982 . S
H473 C448 0.979 . S
H474 C448 0.977 . S
H475 C449 0.979 . S
H476 C449 0.980 . S
H477 C449 0.983 . S
H478 C422 0.947 . S
C479 C422 1.392 . S
C479 C423 1.419 . S
C479 H461 0.948 . S
Co480 O483 2.042 . S
Co480 O490 2.264 . S
Co480 O509 2.286 . S
Co480 O510 2.069 . S
Co480 O512 2.015 . S
Co481 O483 2.122 . S
Co481 O489 2.073 . S
Co481 O490 2.327 . S
Co481 O491 1.976 . S
Co482 O483 2.102 . S
Co482 O485 2.072 1_455 S
Co482 O492 2.119 . S
Co482 O493 2.133 1_455 S
Co482 O497 2.104 1_455 S
Co482 O511 2.154 . S
O483 Co480 2.042 . S
O483 Co481 2.122 . S
O483 Co482 2.102 . S
O483 H484 0.980 . S
H484 O483 0.980 . S
O485 Co482 2.072 1_655 S
O485 Co486 2.042 . S
O485 Co487 2.122 . S
O485 H488 0.980 . S
Co486 O485 2.042 . S
Co486 O494 2.286 . S
Co486 O495 2.069 . S
Co486 O496 2.015 . S
Co486 O499 2.264 . S
Co487 O485 2.122 . S
Co487 O498 1.976 . S
Co487 O499 2.327 . S
Co487 O500 2.073 . S
H488 O485 0.980 . S
O489 Co481 2.073 . S
O489 C504 1.245 . S
O490 Co480 2.264 . S
O490 Co481 2.327 . S
O490 C504 1.257 . S
O491 Co481 1.976 . S
O491 C503 1.251 . S
O492 Co482 2.119 . S
O492 C503 1.274 . S
O493 Co482 2.133 1_655 S
O493 C506 1.246 . S
O494 Co486 2.286 . S
O494 C505 1.259 . S
O495 Co486 2.069 . S
O495 C505 1.289 . S
O496 Co486 2.015 . S
O496 C506 1.257 . S
O497 Co482 2.104 1_655 S
O497 C507 1.274 . S
O498 Co487 1.976 . S
O498 C507 1.251 . S
O499 Co486 2.264 . S
O499 Co487 2.327 . S
O499 C508 1.257 . S
O500 Co487 2.073 . S
O500 C508 1.245 . S
C501 O509 1.259 . S
C501 O510 1.289 . S
C502 O511 1.246 . S
C502 O512 1.257 . S
C503 O491 1.251 . S
C503 O492 1.274 . S
C504 O489 1.245 . S
C504 O490 1.257 . S
C505 O494 1.259 . S
C505 O495 1.289 . S
C506 O493 1.246 . S
C506 O496 1.257 . S
C507 O497 1.274 . S
C507 O498 1.251 . S
C508 O499 1.257 . S
C508 O500 1.245 . S
O509 Co480 2.286 . S
O509 C501 1.259 . S
O510 Co480 2.069 . S
O510 C501 1.289 . S
O511 Co482 2.154 . S
O511 C502 1.246 . S
O512 Co480 2.015 . S
O512 C502 1.257 . S
Co513 O516 2.042 . S
Co513 O523 2.264 . S
Co513 O542 2.286 . S
Co513 O543 2.069 . S
Co513 O545 2.015 . S
Co514 O516 2.122 . S
Co514 O522 2.073 . S
Co514 O523 2.327 . S
Co514 O524 1.976 . S
Co515 O516 2.087 1_545 S
Co515 O518 2.087 . S
Co515 O525 2.111 1_545 S
Co515 O526 2.143 . S
Co515 O530 2.111 . S
Co515 O544 2.143 1_545 S
O516 Co513 2.042 . S
O516 Co514 2.122 . S
O516 Co515 2.087 1_565 S
O516 H517 0.980 . S
H517 O516 0.980 . S
O518 Co515 2.087 . S
O518 Co519 2.042 . S
O518 Co520 2.122 . S
O518 H521 0.980 . S
Co519 O518 2.042 . S
Co519 O527 2.286 . S
Co519 O528 2.069 . S
Co519 O529 2.015 . S
Co519 O532 2.264 . S
Co520 O518 2.122 . S
Co520 O531 1.976 . S
Co520 O532 2.327 . S
Co520 O533 2.073 . S
H521 O518 0.980 . S
O522 Co514 2.073 . S
O522 C537 1.245 . S
O523 Co513 2.264 . S
O523 Co514 2.327 . S
O523 C537 1.257 . S
O524 Co514 1.976 . S
O524 C536 1.251 . S
O525 Co515 2.111 1_565 S
O525 C536 1.274 . S
O526 Co515 2.143 . S
O526 C539 1.246 . S
O527 Co519 2.286 . S
O527 C538 1.259 . S
O528 Co519 2.069 . S
O528 C538 1.289 . S
O529 Co519 2.015 . S
O529 C539 1.257 . S
O530 Co515 2.111 . S
O530 C540 1.274 . S
O531 Co520 1.976 . S
O531 C540 1.251 . S
O532 Co519 2.264 . S
O532 Co520 2.327 . S
O532 C541 1.257 . S
O533 Co520 2.073 . S
O533 C541 1.245 . S
C534 O542 1.259 . S
C534 O543 1.289 . S
C535 O544 1.246 . S
C535 O545 1.257 . S
C536 O524 1.251 . S
C536 O525 1.274 . S
C537 O522 1.245 . S
C537 O523 1.257 . S
C538 O527 1.259 . S
C538 O528 1.289 . S
C539 O526 1.246 . S
C539 O529 1.257 . S
C540 O530 1.274 . S
C540 O531 1.251 . S
C541 O532 1.257 . S
C541 O533 1.245 . S
O542 Co513 2.286 . S
O542 C534 1.259 . S
O543 Co513 2.069 . S
O543 C534 1.289 . S
O544 Co515 2.143 1_565 S
O544 C535 1.246 . S
O545 Co513 2.015 . S
O545 C535 1.257 . S
Co546 O549 2.042 . S
Co546 O556 2.264 . S
Co546 O575 2.286 . S
Co546 O576 2.069 . S
Co546 O578 2.015 . S
Co547 O549 2.122 . S
Co547 O555 2.073 . S
Co547 O556 2.327 . S
Co547 O557 1.976 . S
Co548 O549 2.098 . S
Co548 O551 2.076 1_554 S
Co548 O558 2.116 . S
Co548 O559 2.135 1_554 S
Co548 O563 2.106 1_554 S
Co548 O577 2.152 . S
O549 Co546 2.042 . S
O549 Co547 2.122 . S
O549 Co548 2.098 . S
O549 H550 0.980 . S
H550 O549 0.980 . S
O551 Co548 2.076 1_556 S
O551 Co552 2.042 . S
O551 Co553 2.122 . S
O551 H554 0.980 . S
Co552 O551 2.042 . S
Co552 O560 2.286 . S
Co552 O561 2.069 . S
Co552 O562 2.015 . S
Co552 O565 2.264 . S
Co553 O551 2.122 . S
Co553 O564 1.976 . S
Co553 O565 2.327 . S
Co553 O566 2.073 . S
H554 O551 0.980 . S
O555 Co547 2.073 . S
O555 C570 1.245 . S
O556 Co546 2.264 . S
O556 Co547 2.327 . S
O556 C570 1.257 . S
O557 Co547 1.976 . S
O557 C569 1.251 . S
O558 Co548 2.116 . S
O558 C569 1.274 . S
O559 Co548 2.135 1_556 S
O559 C572 1.246 . S
O560 Co552 2.286 . S
O560 C571 1.259 . S
O561 Co552 2.069 . S
O561 C571 1.289 . S
O562 Co552 2.015 . S
O562 C572 1.257 . S
O563 Co548 2.106 1_556 S
O563 C573 1.274 . S
O564 Co553 1.976 . S
O564 C573 1.251 . S
O565 Co552 2.264 . S
O565 Co553 2.327 . S
O565 C574 1.257 . S
O566 Co553 2.073 . S
O566 C574 1.245 . S
C567 O575 1.259 . S
C567 O576 1.289 . S
C568 O577 1.246 . S
C568 O578 1.257 . S
C569 O557 1.251 . S
C569 O558 1.274 . S
C570 O555 1.245 . S
C570 O556 1.257 . S
C571 O560 1.259 . S
C571 O561 1.289 . S
C572 O559 1.246 . S
C572 O562 1.257 . S
C573 O563 1.274 . S
C573 O564 1.251 . S
C574 O565 1.257 . S
C574 O566 1.245 . S
O575 Co546 2.286 . S
O575 C567 1.259 . S
O576 Co546 2.069 . S
O576 C567 1.289 . S
O577 Co548 2.152 . S
O577 C568 1.246 . S
O578 Co546 2.015 . S
O578 C568 1.257 . S
C579 C580 1.387 . S
C579 H583 0.950 . S
C579 C588 1.390 . S
C580 C579 1.387 . S
C580 C582 1.387 . S
H581 C588 0.950 . S
C582 C580 1.387 . S
C582 C584 1.390 . S
C582 H586 0.950 . S
H583 C579 0.950 . S
C584 C582 1.390 . S
C584 C585 1.387 . S
C584 H587 0.950 . S
C585 C584 1.387 . S
C585 C588 1.387 . S
H586 C582 0.950 . S
H587 C584 0.950 . S
C588 C579 1.390 . S
C588 H581 0.950 . S
C588 C585 1.387 . S
C589 C590 1.387 . S
C589 H593 0.950 . S
C589 C598 1.390 . S
C590 C589 1.387 . S
C590 C592 1.387 . S
H591 C598 0.950 . S
C592 C590 1.387 . S
C592 C594 1.390 . S
C592 H596 0.950 . S
H593 C589 0.950 . S
C594 C592 1.390 . S
C594 C595 1.387 . S
C594 H597 0.950 . S
C595 C594 1.387 . S
C595 C598 1.387 . S
H596 C592 0.950 . S
H597 C594 0.950 . S
C598 C589 1.390 . S
C598 H591 0.950 . S
C598 C595 1.387 . S
C599 C600 1.387 . S
C599 H603 0.950 . S
C599 C608 1.390 . S
C600 C599 1.387 . S
C600 C602 1.387 . S
H601 C608 0.950 . S
C602 C600 1.387 . S
C602 C604 1.390 . S
C602 H606 0.950 . S
H603 C599 0.950 . S
C604 C602 1.390 . S
C604 C605 1.387 . S
C604 H607 0.950 . S
C605 C604 1.387 . S
C605 C608 1.387 . S
H606 C602 0.950 . S
H607 C604 0.950 . S
C608 C599 1.390 . S
C608 H601 0.950 . S
C608 C605 1.387 . S
C609 C610 1.387 . S
C609 H613 0.950 . S
C609 C618 1.390 . S
C610 C609 1.387 . S
C610 C612 1.387 . S
H611 C618 0.950 . S
C612 C610 1.387 . S
C612 C614 1.390 . S
C612 H616 0.950 . S
H613 C609 0.950 . S
C614 C612 1.390 . S
C614 C615 1.387 . S
C614 H617 0.950 . S
C615 C614 1.387 . S
C615 C618 1.387 . S
H616 C612 0.950 . S
H617 C614 0.950 . S
C618 C609 1.390 . S
C618 H611 0.950 . S
C618 C615 1.387 . S
C619 C620 1.387 . S
C619 H623 0.950 . S
C619 C628 1.390 . S
C620 C619 1.387 . S
C620 C622 1.387 . S
H621 C628 0.950 . S
C622 C620 1.387 . S
C622 C624 1.390 . S
C622 H626 0.950 . S
H623 C619 0.950 . S
C624 C622 1.390 . S
C624 C625 1.387 . S
C624 H627 0.950 . S
C625 C624 1.387 . S
C625 C628 1.387 . S
H626 C622 0.950 . S
H627 C624 0.950 . S
C628 C619 1.390 . S
C628 H621 0.950 . S
C628 C625 1.387 . S
C629 C630 1.387 . S
C629 H633 0.950 . S
C629 C638 1.390 . S
C630 C629 1.387 . S
C630 C632 1.387 . S
H631 C638 0.950 . S
C632 C630 1.387 . S
C632 C634 1.390 . S
C632 H636 0.950 . S
H633 C629 0.950 . S
C634 C632 1.390 . S
C634 C635 1.387 . S
C634 H637 0.950 . S
C635 C634 1.387 . S
C635 C638 1.387 . S
H636 C632 0.950 . S
H637 C634 0.950 . S
C638 C629 1.390 . S
C638 H631 0.950 . S
C638 C635 1.387 . S
C639 C640 1.387 . S
C639 H643 0.950 . S
C639 C648 1.390 . S
C640 C639 1.387 . S
C640 C642 1.387 . S
H641 C648 0.950 . S
C642 C640 1.387 . S
C642 C644 1.390 . S
C642 H646 0.950 . S
H643 C639 0.950 . S
C644 C642 1.390 . S
C644 C645 1.387 . S
C644 H647 0.950 . S
C645 C644 1.387 . S
C645 C648 1.387 . S
H646 C642 0.950 . S
H647 C644 0.950 . S
C648 C639 1.390 . S
C648 H641 0.950 . S
C648 C645 1.387 . S
C649 C650 1.387 . S
C649 H653 0.950 . S
C649 C658 1.390 . S
C650 C649 1.387 . S
C650 C652 1.387 . S
H651 C658 0.950 . S
C652 C650 1.387 . S
C652 C654 1.390 . S
C652 H656 0.950 . S
H653 C649 0.950 . S
C654 C652 1.390 . S
C654 C655 1.387 . S
C654 H657 0.950 . S
C655 C654 1.387 . S
C655 C658 1.387 . S
H656 C652 0.950 . S
H657 C654 0.950 . S
C658 C649 1.390 . S
C658 H651 0.950 . S
C658 C655 1.387 . S
C659 C660 1.387 . S
C659 H663 0.950 . S
C659 C668 1.390 . S
C660 C659 1.387 . S
C660 C662 1.387 . S
H661 C668 0.950 . S
C662 C660 1.387 . S
C662 C664 1.390 . S
C662 H666 0.950 . S
H663 C659 0.950 . S
C664 C662 1.390 . S
C664 C665 1.387 . S
C664 H667 0.950 . S
C665 C664 1.387 . S
C665 C668 1.387 . S
H666 C662 0.950 . S
H667 C664 0.950 . S
C668 C659 1.390 . S
C668 H661 0.950 . S
C668 C665 1.387 . S
C669 C670 1.387 . S
C669 H673 0.950 . S
C669 C678 1.390 . S
C670 C669 1.387 . S
C670 C672 1.387 . S
H671 C678 0.950 . S
C672 C670 1.387 . S
C672 C674 1.390 . S
C672 H676 0.950 . S
H673 C669 0.950 . S
C674 C672 1.390 . S
C674 C675 1.387 . S
C674 H677 0.950 . S
C675 C674 1.387 . S
C675 C678 1.387 . S
H676 C672 0.950 . S
H677 C674 0.950 . S
C678 C669 1.390 . S
C678 H671 0.950 . S
C678 C675 1.387 . S
C679 C680 1.387 . S
C679 H683 0.950 . S
C679 C688 1.390 . S
C680 C679 1.387 . S
C680 C682 1.387 . S
H681 C688 0.950 . S
C682 C680 1.387 . S
C682 C684 1.390 . S
C682 H686 0.950 . S
H683 C679 0.950 . S
C684 C682 1.390 . S
C684 C685 1.387 . S
C684 H687 0.950 . S
C685 C684 1.387 . S
C685 C688 1.387 . S
H686 C682 0.950 . S
H687 C684 0.950 . S
C688 C679 1.390 . S
C688 H681 0.950 . S
C688 C685 1.387 . S
C689 C690 1.387 . S
C689 H693 0.950 . S
C689 C698 1.390 . S
C690 C689 1.387 . S
C690 C692 1.387 . S
H691 C698 0.950 . S
C692 C690 1.387 . S
C692 C694 1.390 . S
C692 H696 0.950 . S
H693 C689 0.950 . S
C694 C692 1.390 . S
C694 C695 1.387 . S
C694 H697 0.950 . S
C695 C694 1.387 . S
C695 C698 1.387 . S
H696 C692 0.950 . S
H697 C694 0.950 . S
C698 C689 1.390 . S
C698 H691 0.950 . S
C698 C695 1.387 . S
C699 C700 1.387 . S
C699 H703 0.950 . S
C699 C708 1.390 . S
C700 C699 1.387 . S
C700 C702 1.387 . S
H701 C708 0.950 . S
C702 C700 1.387 . S
C702 C704 1.390 . S
C702 H706 0.950 . S
H703 C699 0.950 . S
C704 C702 1.390 . S
C704 C705 1.387 . S
C704 H707 0.950 . S
C705 C704 1.387 . S
C705 C708 1.387 . S
H706 C702 0.950 . S
H707 C704 0.950 . S
C708 C699 1.390 . S
C708 H701 0.950 . S
C708 C705 1.387 . S
C709 C710 1.387 . S
C709 H713 0.950 . S
C709 C718 1.390 . S
C710 C709 1.387 . S
C710 C712 1.387 . S
H711 C718 0.950 . S
C712 C710 1.387 . S
C712 C714 1.390 . S
C712 H716 0.950 . S
H713 C709 0.950 . S
C714 C712 1.390 . S
C714 C715 1.387 . S
C714 H717 0.950 . S
C715 C714 1.387 . S
C715 C718 1.387 . S
H716 C712 0.950 . S
H717 C714 0.950 . S
C718 C709 1.390 . S
C718 H711 0.950 . S
C718 C715 1.387 . S
C719 C720 1.387 . S
C719 H723 0.950 . S
C719 C728 1.390 . S
C720 C719 1.387 . S
C720 C722 1.387 . S
H721 C728 0.950 . S
C722 C720 1.387 . S
C722 C724 1.390 . S
C722 H726 0.950 . S
H723 C719 0.950 . S
C724 C722 1.390 . S
C724 C725 1.387 . S
C724 H727 0.950 . S
C725 C724 1.387 . S
C725 C728 1.387 . S
H726 C722 0.950 . S
H727 C724 0.950 . S
C728 C719 1.390 . S
C728 H721 0.950 . S
C728 C725 1.387 . S
C729 C730 1.387 . S
C729 H733 0.950 . S
C729 C738 1.390 . S
C730 C729 1.387 . S
C730 C732 1.387 . S
H731 C738 0.950 . S
C732 C730 1.387 . S
C732 C734 1.390 . S
C732 H736 0.950 . S
H733 C729 0.950 . S
C734 C732 1.390 . S
C734 C735 1.387 . S
C734 H737 0.950 . S
C735 C734 1.387 . S
C735 C738 1.387 . S
H736 C732 0.950 . S
H737 C734 0.950 . S
C738 C729 1.390 . S
C738 H731 0.950 . S
C738 C735 1.387 . S
C739 C740 1.387 . S
C739 H743 0.950 . S
C739 C748 1.390 . S
C740 C739 1.387 . S
C740 C742 1.387 . S
H741 C748 0.950 . S
C742 C740 1.387 . S
C742 C744 1.390 . S
C742 H746 0.950 . S
H743 C739 0.950 . S
C744 C742 1.390 . S
C744 C745 1.387 . S
C744 H747 0.950 . S
C745 C744 1.387 . S
C745 C748 1.387 . S
H746 C742 0.950 . S
H747 C744 0.950 . S
C748 C739 1.390 . S
C748 H741 0.950 . S
C748 C745 1.387 . S
C749 C750 1.387 . S
C749 H753 0.950 . S
C749 C758 1.390 . S
C750 C749 1.387 . S
C750 C752 1.387 . S
H751 C758 0.950 . S
C752 C750 1.387 . S
C752 C754 1.390 . S
C752 H756 0.950 . S
H753 C749 0.950 . S
C754 C752 1.390 . S
C754 C755 1.387 . S
C754 H757 0.950 . S
C755 C754 1.387 . S
C755 C758 1.387 . S
H756 C752 0.950 . S
H757 C754 0.950 . S
C758 C749 1.390 . S
C758 H751 0.950 . S
C758 C755 1.387 . S
C759 C760 1.387 . S
C759 H763 0.950 . S
C759 C768 1.390 . S
C760 C759 1.387 . S
C760 C762 1.387 . S
H761 C768 0.950 . S
C762 C760 1.387 . S
C762 C764 1.390 . S
C762 H766 0.950 . S
H763 C759 0.950 . S
C764 C762 1.390 . S
C764 C765 1.387 . S
C764 H767 0.950 . S
C765 C764 1.387 . S
C765 C768 1.387 . S
H766 C762 0.950 . S
H767 C764 0.950 . S
C768 C759 1.390 . S
C768 H761 0.950 . S
C768 C765 1.387 . S
C769 C770 1.387 . S
C769 H773 0.950 . S
C769 C778 1.390 . S
C770 C769 1.387 . S
C770 C772 1.387 . S
H771 C778 0.950 . S
C772 C770 1.387 . S
C772 C774 1.390 . S
C772 H776 0.950 . S
H773 C769 0.950 . S
C774 C772 1.390 . S
C774 C775 1.387 . S
C774 H777 0.950 . S
C775 C774 1.387 . S
C775 C778 1.387 . S
H776 C772 0.950 . S
H777 C774 0.950 . S
C778 C769 1.390 . S
C778 H771 0.950 . S
C778 C775 1.387 . S
C779 C780 1.387 . S
C779 H783 0.950 . S
C779 C788 1.390 . S
C780 C779 1.387 . S
C780 C782 1.387 . S
H781 C788 0.950 . S
C782 C780 1.387 . S
C782 C784 1.390 . S
C782 H786 0.950 . S
H783 C779 0.950 . S
C784 C782 1.390 . S
C784 C785 1.387 . S
C784 H787 0.950 . S
C785 C784 1.387 . S
C785 C788 1.387 . S
H786 C782 0.950 . S
H787 C784 0.950 . S
C788 C779 1.390 . S
C788 H781 0.950 . S
C788 C785 1.387 . S
C789 C790 1.387 . S
C789 H793 0.950 . S
C789 C798 1.390 . S
C790 C789 1.387 . S
C790 C792 1.387 . S
H791 C798 0.950 . S
C792 C790 1.387 . S
C792 C794 1.390 . S
C792 H796 0.950 . S
H793 C789 0.950 . S
C794 C792 1.390 . S
C794 C795 1.387 . S
C794 H797 0.950 . S
C795 C794 1.387 . S
C795 C798 1.387 . S
H796 C792 0.950 . S
H797 C794 0.950 . S
C798 C789 1.390 . S
C798 H791 0.950 . S
C798 C795 1.387 . S
C799 C800 1.387 . S
C799 H803 0.950 . S
C799 C808 1.390 . S
C800 C799 1.387 . S
C800 C802 1.387 . S
H801 C808 0.950 . S
C802 C800 1.387 . S
C802 C804 1.390 . S
C802 H806 0.950 . S
H803 C799 0.950 . S
C804 C802 1.390 . S
C804 C805 1.387 . S
C804 H807 0.950 . S
C805 C804 1.387 . S
C805 C808 1.387 . S
H806 C802 0.950 . S
H807 C804 0.950 . S
C808 C799 1.390 . S
C808 H801 0.950 . S
C808 C805 1.387 . S
C809 C810 1.387 . S
C809 H813 0.950 . S
C809 C818 1.390 . S
C810 C809 1.387 . S
C810 C812 1.387 . S
H811 C818 0.950 . S
C812 C810 1.387 . S
C812 C814 1.390 . S
C812 H816 0.950 . S
H813 C809 0.950 . S
C814 C812 1.390 . S
C814 C815 1.387 . S
C814 H817 0.950 . S
C815 C814 1.387 . S
C815 C818 1.387 . S
H816 C812 0.950 . S
H817 C814 0.950 . S
C818 C809 1.390 . S
C818 H811 0.950 . S
C818 C815 1.387 . S
C585 C504 1.183 . S
C580 C31 1.218 . S
C595 C540 1.683 . S
C590 C61 1.780 . S
C605 C505 1.453 . S
C600 C121 1.430 . S
C615 C535 1.578 . S
C610 C181 1.608 . S
C625 C502 1.545 . S
C620 C260 1.510 . S
C630 C331 1.716 . S
C635 C538 1.733 . S
C640 C380 1.321 . S
C645 C507 1.196 . S
C655 C537 1.536 . S
C650 C440 1.528 . S
C665 C541 1.536 . S
C660 C1 1.406 . S
C675 C506 1.548 . S
C670 C91 1.578 . S
C685 C534 1.733 . S
C680 C151 1.715 . S
C695 C503 1.195 . S
C690 C200 1.321 . S
C705 C536 1.683 . S
C700 C271 1.718 . S
C710 C301 1.429 . S
C715 C501 1.453 . S
C720 C361 1.608 . S
C725 C539 1.581 . S
C735 C508 1.184 . S
C730 C451 1.183 . S
C745 C570 1.584 . S
C740 C20 1.655 . S
C750 C241 1.963 . S
C755 C573 1.911 . S
C765 C572 1.730 . S
C760 C320 1.774 . S
C770 C391 2.020 . S
C775 C571 2.014 . S
C785 C574 1.585 . S
C780 C421 1.650 . S
C790 C140 1.774 . S
C795 C568 1.730 . S
C805 C567 2.014 . S
C800 C211 2.020 . S
C810 C80 2.030 . S
C815 C569 1.911 . S
