# Generated by pormake.
# Topology anh, (6,3)-cn, num edge types: 1
# Building blocks:
#     Node 0, Type 0, BuildingBlock: VOLQOD_clean_sbu_1, # of connection points: 6
#     Node 1, Type 0, BuildingBlock: VOLQOD_clean_sbu_1, # of connection points: 6
#     Node 2, Type 0, BuildingBlock: VOLQOD_clean_sbu_1, # of connection points: 6
#     Node 3, Type 1, BuildingBlock: MIDCAF_clean_linker_0, # of connection points: 3
#     Node 4, Type 1, BuildingBlock: MIDCAF_clean_linker_0, # of connection points: 3
#     Node 5, Type 1, BuildingBlock: MIDCAF_clean_linker_0, # of connection points: 3
#     Node 6, Type 1, BuildingBlock: MIDCAF_clean_linker_0, # of connection points: 3
#     Node 7, Type 1, BuildingBlock: MIDCAF_clean_linker_0, # of connection points: 3
#     Node 8, Type 1, BuildingBlock: MIDCAF_clean_linker_0, # of connection points: 3
#     Edge 9, Type (0, 1), BuildingBlock: EZIPEK_clean_linker_0, # of connection points: 2
#     Edge 10, Type (0, 1), BuildingBlock: EZIPEK_clean_linker_0, # of connection points: 2
#     Edge 11, Type (0, 1), BuildingBlock: EZIPEK_clean_linker_0, # of connection points: 2
#     Edge 12, Type (0, 1), BuildingBlock: EZIPEK_clean_linker_0, # of connection points: 2
#     Edge 13, Type (0, 1), BuildingBlock: EZIPEK_clean_linker_0, # of connection points: 2
#     Edge 14, Type (0, 1), BuildingBlock: EZIPEK_clean_linker_0, # of connection points: 2
#     Edge 15, Type (0, 1), BuildingBlock: EZIPEK_clean_linker_0, # of connection points: 2
#     Edge 16, Type (0, 1), BuildingBlock: EZIPEK_clean_linker_0, # of connection points: 2
#     Edge 17, Type (0, 1), BuildingBlock: EZIPEK_clean_linker_0, # of connection points: 2
#     Edge 18, Type (0, 1), BuildingBlock: EZIPEK_clean_linker_0, # of connection points: 2
#     Edge 19, Type (0, 1), BuildingBlock: EZIPEK_clean_linker_0, # of connection points: 2
#     Edge 20, Type (0, 1), BuildingBlock: EZIPEK_clean_linker_0, # of connection points: 2
#     Edge 21, Type (0, 1), BuildingBlock: EZIPEK_clean_linker_0, # of connection points: 2
#     Edge 22, Type (0, 1), BuildingBlock: EZIPEK_clean_linker_0, # of connection points: 2
#     Edge 23, Type (0, 1), BuildingBlock: EZIPEK_clean_linker_0, # of connection points: 2
#     Edge 24, Type (0, 1), BuildingBlock: EZIPEK_clean_linker_0, # of connection points: 2
#     Edge 25, Type (0, 1), BuildingBlock: EZIPEK_clean_linker_0, # of connection points: 2
#     Edge 26, Type (0, 1), BuildingBlock: EZIPEK_clean_linker_0, # of connection points: 2
# Relax obj value: 0.167
# Max RMSD: 0.230
# Mean RMSD: 0.115
data_MOF--net-anh--node1-VOLQOD_clean_sbu_1--node2-MIDCAF_clean_linker_0--edge1-EZIPEK_clean_linker_0
_symmetry_space_group_name_H-M    P1
_symmetry_Int_Tables_number       1
_symmetry_cell_setting            triclinic
loop_
_symmetry_equiv_pos_as_xyz
'x, y, z'
_cell_length_a     27.484145
_cell_length_b     27.323846
_cell_length_c     58.659148
_cell_angle_alpha  89.973487
_cell_angle_beta   89.530719
_cell_angle_gamma 120.50938
loop_
_atom_site_label
_atom_site_type_symbol
_atom_site_fract_x
_atom_site_fract_y
_atom_site_fract_z
_atom_type_partial_charge
O0 O -0.01173 0.54927 0.21213 0.0
Zn1 Zn -0.01463 0.56299 0.17875 0.0
O2 O -0.01011 0.50427 0.16129 0.0
Zn3 Zn 0.92353 0.46349 0.14244 0.0
Zn4 Zn -0.00513 0.44995 0.18162 0.0
Zn5 Zn 0.0557 0.54064 0.14146 0.0
O6 O 0.94124 0.47868 0.10905 0.0
O7 O 0.03461 0.53417 0.1086 0.0
O8 O 0.91173 0.56101 0.17349 0.0
O9 O 0.86844 0.48778 0.14986 0.0
O10 O 0.88382 0.37986 0.14815 0.0
O11 O 0.92807 0.37065 0.17755 0.0
O12 O 0.06439 0.44519 0.17451 0.0
O13 O 0.05104 0.64148 0.17152 0.0
O14 O 0.10324 0.50541 0.14535 0.0
O15 O 0.10281 0.62359 0.14787 0.0
C16 C -0.00713 0.51257 0.22381 0.0
C17 C -0.01233 0.50817 0.09833 0.0
C18 C 0.88924 0.34852 0.16269 0.0
C19 C 0.86911 0.52696 0.16173 0.0
C20 C 0.10219 0.46882 0.15905 0.0
C21 C 0.09485 0.65894 0.15895 0.0
O22 O -0.0037 0.47224 0.21454 0.0
O23 O 0.43993 0.99171 0.44688 0.0
Zn24 Zn 0.42878 0.99176 0.48087 0.0
O25 O 0.48994 0.98939 0.49702 0.0
Zn26 Zn 0.52944 0.05484 0.51692 0.0
Zn27 Zn 0.54374 0.98882 0.47515 0.0
Zn28 Zn 0.45793 0.92133 0.51565 0.0
O29 O 0.52146 0.03288 0.55007 0.0
O30 O 0.46912 0.93872 0.54895 0.0
O31 O 0.42637 0.06243 0.48863 0.0
O32 O 0.49714 0.10515 0.51318 0.0
O33 O 0.61152 0.10271 0.5085 0.0
O34 O 0.61901 0.06018 0.47746 0.0
O35 O 0.55495 0.92218 0.47996 0.0
O36 O 0.35295 0.92296 0.48828 0.0
O37 O 0.49345 0.87551 0.508 0.0
O38 O 0.37503 0.8728 0.51091 0.0
C39 C 0.47662 0.98858 0.43458 0.0
C40 C 0.49539 0.98479 0.56003 0.0
C41 C 0.64004 0.10065 0.49173 0.0
C42 C 0.45706 0.10341 0.50185 0.0
C43 C 0.5312 0.88075 0.49391 0.0
C44 C 0.33807 0.87907 0.50057 0.0
O45 O 0.51756 0.98594 0.44319 0.0
O46 O 0.45463 0.47933 0.77926 0.0
Zn47 Zn 0.43393 0.45976 0.81237 0.0
O48 O 0.49703 0.51178 0.83141 0.0
Zn49 Zn 0.4709 0.54117 0.85549 0.0
Zn50 Zn 0.55326 0.57546 0.81325 0.0
Zn51 Zn 0.52981 0.47076 0.84486 0.0
O52 O 0.47645 0.51294 0.88631 0.0
O53 O 0.51548 0.46052 0.87883 0.0
O54 O 0.36473 0.4651 0.81883 0.0
O55 O 0.39093 0.51862 0.85 0.0
O56 O 0.51142 0.62612 0.85524 0.0
O57 O 0.55403 0.64726 0.82154 0.0
O58 O 0.63106 0.5883 0.81851 0.0
O59 O 0.41647 0.37902 0.81618 0.0
O60 O 0.61331 0.51347 0.83983 0.0
O61 O 0.49707 0.39367 0.83089 0.0
C62 C 0.49676 0.52018 0.76906 0.0
C63 C 0.4944 0.48054 0.8928 0.0
C64 C 0.53917 0.66219 0.83966 0.0
C65 C 0.35462 0.49004 0.8349 0.0
C66 C 0.64764 0.55937 0.8295 0.0
C67 C 0.44975 0.36131 0.8215 0.0
O68 O 0.53739 0.56026 0.77988 0.0
C69 C 0.30002 0.83709 0.21226 0.0
C70 C 0.2928 0.85085 0.19001 0.0
C71 C 0.33447 0.90195 0.18003 0.0
C72 C 0.38338 0.93842 0.19208 0.0
H73 H 0.57349 0.02461 0.18717 0.0
H74 H 0.66253 0.09116 0.16784 0.0
H75 H 0.70883 0.20584 0.22469 0.0
H76 H 0.6209 0.1389 0.24446 0.0
H77 H 0.56877 0.06356 0.29329 0.0
H78 H 0.56304 0.05968 0.33494 0.0
H79 H 0.38767 0.92878 0.33185 0.0
H80 H 0.39256 0.93187 0.29022 0.0
H81 H 0.35263 0.86231 0.24165 0.0
H82 H 0.26815 0.7978 0.2202 0.0
H83 H 0.32929 0.91322 0.16288 0.0
H84 H 0.41506 0.97758 0.18402 0.0
N85 N 0.49033 0.00076 0.21678 0.0
N86 N 0.53334 0.03614 0.25212 0.0
N87 N 0.43872 0.96321 0.2507 0.0
C88 C 0.53663 0.03691 0.22899 0.0
C89 C 0.48451 -0.00074 0.26311 0.0
C90 C 0.44119 0.96388 0.22759 0.0
C91 C 0.59019 0.07673 0.21727 0.0
C92 C 0.60269 0.06397 0.19555 0.0
C93 C 0.6535 0.10171 0.18454 0.0
C94 C 0.69184 0.15338 0.19483 0.0
C95 C 0.6796 0.16614 0.21652 0.0
C96 C 0.62943 0.12789 0.22775 0.0
C97 C 0.48116 -0.00208 0.28834 0.0
C98 C 0.52888 0.03395 0.30139 0.0
C99 C 0.52578 0.0319 0.32517 0.0
C100 C 0.475 -0.00608 0.33628 0.0
C101 C 0.42717 0.95828 0.32344 0.0
C102 C 0.43019 0.96018 0.29967 0.0
C103 C 0.39054 0.92487 0.21446 0.0
C104 C 0.34824 0.87398 0.22446 0.0
C105 C 0.47263 0.30998 0.55313 0.0
C106 C 0.46148 0.30412 0.52972 0.0
C107 C 0.46042 0.34783 0.51765 0.0
C108 C 0.47279 0.39801 0.52876 0.0
H109 H 0.55201 0.57262 0.51591 0.0
H110 H 0.56449 0.65333 0.49299 0.0
H111 H 0.55003 0.73398 0.55373 0.0
H112 H 0.53833 0.65445 0.57682 0.0
H113 H 0.53698 0.60165 0.62446 0.0
H114 H 0.53266 0.60437 0.66606 0.0
H115 H 0.48361 0.42764 0.66967 0.0
H116 H 0.48774 0.42404 0.62809 0.0
H117 H 0.49376 0.36345 0.58233 0.0
H118 H 0.47344 0.27641 0.56265 0.0
H119 H 0.4516 0.34366 0.49957 0.0
H120 H 0.47276 0.4316 0.51897 0.0
N121 N 0.51559 0.50613 0.55136 0.0
N122 N 0.52895 0.5576 0.58497 0.0
N123 N 0.50056 0.46108 0.58689 0.0
C124 C 0.52987 0.55584 0.56184 0.0
C125 C 0.51446 0.51045 0.59763 0.0
C126 C 0.50089 0.45859 0.56376 0.0
C127 C 0.54334 0.60672 0.54818 0.0
C128 C 0.55212 0.60782 0.52444 0.0
C129 C 0.55953 0.65386 0.51131 0.0
C130 C 0.55745 0.6989 0.52174 0.0
C131 C 0.55144 0.69924 0.54546 0.0
C132 C 0.54466 0.65368 0.5586 0.0
C133 C 0.51269 0.51257 0.62286 0.0
C134 C 0.52532 0.56326 0.63402 0.0
C135 C 0.52284 0.565 0.65778 0.0
C136 C 0.50771 0.51619 0.67075 0.0
C137 C 0.49527 0.46563 0.6598 0.0
C138 C 0.49772 0.46378 0.63605 0.0
C139 C 0.48548 0.40471 0.55216 0.0
C140 C 0.48429 0.35975 0.56431 0.0
C141 C 0.8552 0.58887 0.87944 0.0
C142 C 0.86133 0.59803 0.85584 0.0
C143 C 0.90983 0.60512 0.8447 0.0
C144 C 0.95005 0.59923 0.85692 0.0
H145 H 0.06466 0.54501 0.84679 0.0
H146 H 0.13152 0.52527 0.82679 0.0
H147 H 0.1919 0.50261 0.89124 0.0
H148 H 0.12569 0.52185 0.91141 0.0
H149 H 0.0713 0.52665 0.95623 0.0
H150 H 0.06237 0.51494 -0.0024 0.0
H151 H 0.93123 0.55733 -0.00204 0.0
H152 H 0.93955 0.56934 0.95649 0.0
H153 H 0.88851 0.57474 0.90978 0.0
H154 H 0.81806 0.58368 0.88826 0.0
H155 H 0.91521 0.61268 0.82648 0.0
H156 H -0.01383 0.60277 0.84783 0.0
N157 N 0.01787 0.5636 0.88163 0.0
N158 N 0.0472 0.54445 0.9162 0.0
N159 N 0.97788 0.57001 0.91616 0.0
C160 C 0.05098 0.54851 0.89312 0.0
C161 C 0.01086 0.55518 0.92786 0.0
C162 C 0.98129 0.57454 0.89307 0.0
C163 C 0.09005 0.53543 0.88073 0.0
C164 C 0.09198 0.5356 0.85673 0.0
C165 C 0.12981 0.5241 0.84525 0.0
C166 C 0.16628 0.51261 0.85765 0.0
C167 C 0.1638 0.51133 0.88149 0.0
C168 C 0.12603 0.52258 0.89295 0.0
C169 C 0.00613 0.54899 0.95298 0.0
C170 C 0.04052 0.5336 0.96501 0.0
C171 C 0.03553 0.52679 0.98864 0.0
C172 C -0.00385 0.53523 0.00062 0.0
C173 C 0.9618 0.55065 0.98883 0.0
C174 C 0.96675 0.55755 0.96517 0.0
C175 C 0.94257 0.58713 0.88046 0.0
C176 C 0.89555 0.58372 0.89168 0.0
C177 C 0.17614 0.67125 0.44544 0.0
C178 C 0.15929 0.67568 0.4676 0.0
C179 C 0.10918 0.63089 0.47684 0.0
C180 C 0.07672 0.58171 0.46417 0.0
H181 H 0.97763 0.40349 0.47146 0.0
H182 H 0.89973 0.32153 0.49097 0.0
H183 H 0.81823 0.25632 0.42655 0.0
H184 H 0.89565 0.33742 0.40677 0.0
H185 H 0.94673 0.40662 0.36237 0.0
H186 H 0.93584 0.42003 0.32275 0.0
H187 H 0.08394 0.58774 0.32533 0.0
H188 H 0.09394 0.57441 0.36493 0.0
H189 H 0.15686 0.62032 0.41545 0.0
H190 H 0.21472 0.70565 0.43808 0.0
H191 H 0.09554 0.63393 0.49389 0.0
H192 H 0.03813 0.54771 0.47168 0.0
N193 N 0.02084 0.47647 0.43848 0.0
N194 N -0.01405 0.43493 0.40292 0.0
N195 N 0.05811 0.53023 0.40502 0.0
C196 C -0.01472 0.43035 0.426 0.0
C197 C 0.02242 0.48463 0.39228 0.0
C198 C 0.05749 0.52641 0.4281 0.0
C199 C 0.94255 0.37745 0.43755 0.0
C200 C 0.94363 0.3713 0.46136 0.0
C201 C 0.89943 0.32448 0.47256 0.0
C202 C 0.85355 0.28343 0.46011 0.0
C203 C 0.85358 0.28782 0.43633 0.0
C204 C 0.89784 0.33428 0.4251 0.0
C205 C 0.01908 0.49084 0.36734 0.0
C206 C 0.97578 0.44735 0.35463 0.0
C207 C 0.96841 0.45609 0.33178 0.0
C208 C 0.00222 0.50959 0.32105 0.0
C209 C 0.05054 0.54965 0.33315 0.0
C210 C 0.05785 0.54117 0.35606 0.0
C211 C 0.09325 0.57725 0.44186 0.0
C212 C 0.14313 0.62259 0.43258 0.0
C213 C 0.47135 0.16563 0.77458 0.0
C214 C 0.43655 0.15391 0.79386 0.0
C215 C 0.40961 0.0992 0.80353 0.0
C216 C 0.41868 0.05722 0.79429 0.0
H217 H 0.50181 0.95832 0.8136 0.0
H218 H 0.52432 0.89775 0.83665 0.0
H219 H 0.50674 0.79659 0.77754 0.0
H220 H 0.4848 0.85687 0.75426 0.0
H221 H 0.49944 0.91537 0.70541 0.0
H222 H 0.50549 0.91351 0.66376 0.0
H223 H 0.46511 0.04626 0.65872 0.0
H224 H 0.45891 0.04881 0.70016 0.0
H225 H 0.50581 0.13354 0.75 0.0
H226 H 0.49238 0.20756 0.76685 0.0
H227 H 0.38214 0.0893 0.81828 0.0
H228 H 0.39798 0.01534 0.80204 0.0
N229 N 0.46929 0.98872 0.77758 0.0
N230 N 0.48275 0.94793 0.74467 0.0
N231 N 0.46516 0.02289 0.74139 0.0
C232 C 0.48008 0.95008 0.76778 0.0
C233 C 0.47515 0.98411 0.73136 0.0
C234 C 0.46182 0.02517 0.7644 0.0
C235 C 0.4914 0.91239 0.78207 0.0
C236 C 0.50241 0.92302 0.8055 0.0
C237 C 0.51547 0.88871 0.81869 0.0
C238 C 0.51696 0.84288 0.80872 0.0
C239 C 0.50569 0.83188 0.78545 0.0
C240 C 0.49314 0.86637 0.77221 0.0
C241 C 0.47872 0.98228 0.7062 0.0
C242 C 0.49185 0.94423 0.69549 0.0
C243 C 0.49544 0.94309 0.67173 0.0
C244 C 0.48591 0.97989 0.65837 0.0
C245 C 0.47272 0.01774 0.66889 0.0
C246 C 0.4692 0.01901 0.69258 0.0
C247 C 0.45302 0.06902 0.77481 0.0
C248 C 0.47894 0.1234 0.76496 0.0
C249 C 0.65633 0.48059 0.11327 0.0
C250 C 0.65975 0.49688 0.13611 0.0
C251 C 0.61372 0.49682 0.14657 0.0
C252 C 0.56426 0.47969 0.13431 0.0
H253 H 0.39494 0.42268 0.14261 0.0
H254 H 0.31726 0.42604 0.1617 0.0
H255 H 0.24273 0.41959 0.0966 0.0
H256 H 0.31983 0.41592 0.07722 0.0
H257 H 0.38069 0.41178 0.0322 0.0
H258 H 0.38924 0.41949 0.99063 0.0
H259 H 0.55821 0.44803 0.99431 0.0
H260 H 0.55052 0.44045 0.03584 0.0
H261 H 0.6059 0.4514 0.08336 0.0
H262 H 0.69168 0.48048 0.10501 0.0
H263 H 0.61596 0.50945 0.16421 0.0
H264 H 0.52923 0.47991 0.14279 0.0
N265 N 0.46119 0.43791 0.10873 0.0
N266 N 0.41533 0.41979 0.07357 0.0
N267 N 0.50914 0.44071 0.07513 0.0
C268 C 0.41421 0.42454 0.09662 0.0
C269 C 0.46263 0.42755 0.0627 0.0
C270 C 0.50877 0.44598 0.09813 0.0
C271 C 0.36405 0.41977 0.10832 0.0
C272 C 0.36176 0.4213 0.1323 0.0
C273 C 0.31741 0.42303 0.14329 0.0
C274 C 0.27491 0.42356 0.13048 0.0
C275 C 0.27549 0.41936 0.10668 0.0
C276 C 0.31962 0.41732 0.09567 0.0
C277 C 0.46513 0.42608 0.03746 0.0
C278 C 0.41948 0.41897 0.02423 0.0
C279 C 0.42415 0.42325 0.00048 0.0
C280 C 0.47438 0.43451 0.98957 0.0
C281 C 0.51917 0.43933 0.00254 0.0
C282 C 0.51461 0.43511 0.02628 0.0
C283 C 0.56052 0.46303 0.11135 0.0
C284 C 0.60723 0.46391 0.10097 0.0
C285 C 0.13165 0.3981 0.14916 0.0
C286 C 0.14624 0.4535 0.15635 0.0
C287 C 0.24608 0.48814 0.14857 0.0
C288 C 0.2317 0.43264 0.14167 0.0
N289 N 0.16401 0.3324 0.14045 0.0
N290 N 0.21714 0.54673 0.16873 0.0
C291 C 0.17541 0.38674 0.14369 0.0
C292 C 0.20354 0.49707 0.15796 0.0
N293 N 0.07626 0.35742 0.14617 0.0
N294 N 0.29964 0.53285 0.14503 0.0
H295 H 0.18673 0.55412 0.17606 0.0
H296 H 0.25843 0.57807 0.17239 0.0
H297 H 0.3323 0.52829 0.13827 0.0
H298 H 0.31076 0.5751 0.1472 0.0
H299 H 0.06346 0.31855 0.13838 0.0
H300 H 0.04278 0.3638 0.14998 0.0
H301 H 0.12477 0.29664 0.14386 0.0
H302 H 0.19531 0.32292 0.13629 0.0
C303 C 0.70355 0.20347 0.48217 0.0
C304 C 0.69702 0.1495 0.48707 0.0
C305 C 0.79568 0.18481 0.47621 0.0
C306 C 0.8023 0.23891 0.47189 0.0
N307 N 0.76776 0.30392 0.47576 0.0
N308 N 0.7386 0.09149 0.49347 0.0
C309 C 0.75794 0.2496 0.47665 0.0
C310 C 0.74375 0.14099 0.48555 0.0
N311 N 0.65734 0.20983 0.48113 0.0
N312 N 0.83842 0.17499 0.47073 0.0
H313 H 0.7012 0.05895 0.50065 0.0
H314 H 0.77239 0.08457 0.49479 0.0
H315 H 0.87771 0.20687 0.46469 0.0
H316 H 0.83404 0.13485 0.47095 0.0
H317 H 0.6589 0.24635 0.47496 0.0
H318 H 0.61626 0.17704 0.48445 0.0
H319 H 0.73881 0.31514 0.48152 0.0
H320 H 0.80678 0.33879 0.47117 0.0
C321 C 0.59064 0.76459 0.82755 0.0
C322 C 0.54656 0.72019 0.84054 0.0
C323 C 0.48971 0.76523 0.8376 0.0
C324 C 0.53059 0.80597 0.82241 0.0
N325 N 0.62629 0.85544 0.80814 0.0
N326 N 0.4723 0.69866 0.86808 0.0
C327 C 0.58349 0.80944 0.81918 0.0
C328 C 0.50183 0.72697 0.84895 0.0
N329 N 0.63862 0.76288 0.82312 0.0
N330 N 0.4383 0.76102 0.84036 0.0
H331 H 0.48492 0.67636 0.87852 0.0
H332 H 0.4413 0.70484 0.87553 0.0
H333 H 0.42752 0.78824 0.83236 0.0
H334 H 0.4049 0.72774 0.84925 0.0
H335 H 0.6702 0.78988 0.81176 0.0
H336 H 0.64653 0.7335 0.83113 0.0
H337 H 0.66707 0.86264 0.80625 0.0
H338 H 0.62193 0.88896 0.80212 0.0
C339 C 0.76767 0.48369 0.17114 0.0
C340 C 0.81739 0.53044 0.16201 0.0
C341 C 0.76128 0.56559 0.14381 0.0
C342 C 0.71196 0.51288 0.14883 0.0
N343 N 0.66665 0.42132 0.16754 0.0
N344 N 0.86351 0.61788 0.1405 0.0
C345 C 0.71445 0.47224 0.16304 0.0
C346 C 0.81493 0.57285 0.14903 0.0
N347 N 0.77189 0.4501 0.18735 0.0
N348 N 0.75642 0.60811 0.13385 0.0
H349 H 0.9035 0.62516 0.1446 0.0
H350 H 0.86427 0.64656 0.12862 0.0
H351 H 0.71733 0.60346 0.12989 0.0
H352 H 0.79026 0.64919 0.13138 0.0
H353 H 0.73733 0.41797 0.19614 0.0
H354 H 0.81081 0.45823 0.19353 0.0
H355 H 0.66686 0.38731 0.17544 0.0
H356 H 0.62667 0.41173 0.16222 0.0
C357 C 0.26541 0.77796 0.51019 0.0
C358 C 0.27871 0.82998 0.49969 0.0
C359 C 0.19757 0.77947 0.47459 0.0
C360 C 0.19449 0.72776 0.48099 0.0
N361 N 0.2249 0.67694 0.50531 0.0
N362 N 0.23844 0.88041 0.482 0.0
C363 C 0.22724 0.72644 0.4993 0.0
C364 C 0.23885 0.83103 0.48487 0.0
N365 N 0.2872 0.77807 0.53103 0.0
N366 N 0.16231 0.77919 0.45822 0.0
H367 H 0.26389 0.9164 0.49171 0.0
H368 H 0.20877 0.88402 0.47239 0.0
H369 H 0.12936 0.74174 0.45149 0.0
H370 H 0.16658 0.81577 0.45078 0.0
H371 H 0.27569 0.74119 0.54033 0.0
H372 H 0.31056 0.81545 0.54028 0.0
H373 H 0.25286 0.67531 0.51673 0.0
H374 H 0.19792 0.63806 0.49765 0.0
C375 C 0.41668 0.28019 0.79368 0.0
C376 C 0.43494 0.30245 0.81591 0.0
C377 C 0.44886 0.22298 0.82502 0.0
C378 C 0.4282 0.19964 0.8032 0.0
N379 N 0.37486 0.19604 0.77019 0.0
N380 N 0.4501 0.28484 0.85481 0.0
C381 C 0.40586 0.22483 0.78875 0.0
C382 C 0.44496 0.27039 0.8323 0.0
N383 N 0.41407 0.31296 0.77665 0.0
N384 N 0.47528 0.20249 0.83827 0.0
H385 H 0.44525 0.31807 0.86082 0.0
H386 H 0.45273 0.25998 0.86767 0.0
H387 H 0.48053 0.16876 0.83344 0.0
H388 H 0.49638 0.22231 0.8532 0.0
H389 H 0.40652 0.2999 0.75972 0.0
H390 H 0.42539 0.35527 0.77868 0.0
H391 H 0.35355 0.21059 0.76019 0.0
H392 H 0.36556 0.15488 0.76635 0.0
C393 C 0.59786 0.84677 0.5034 0.0
C394 C 0.54611 0.83607 0.49391 0.0
C395 C 0.50656 0.73374 0.49747 0.0
C396 C 0.55721 0.74428 0.50808 0.0
N397 N 0.65587 0.80777 0.51526 0.0
N398 N 0.45938 0.77189 0.47512 0.0
C399 C 0.6047 0.8 0.50892 0.0
C400 C 0.5033 0.78016 0.48856 0.0
N401 N 0.63874 0.90111 0.50849 0.0
N402 N 0.46036 0.68012 0.49736 0.0
H403 H 0.45654 0.80568 0.46832 0.0
H404 H 0.42919 0.73233 0.4689 0.0
H405 H 0.46089 0.64465 0.50356 0.0
H406 H 0.42037 0.67117 0.49242 0.0
H407 H 0.6745 0.91114 0.51794 0.0
H408 H 0.63561 0.93643 0.50417 0.0
H409 H 0.69331 0.84682 0.51446 0.0
H410 H 0.66156 0.77383 0.51937 0.0
C411 C 0.74647 0.62894 0.84192 0.0
C412 C 0.70826 0.5783 0.83036 0.0
C413 C 0.7766 0.54632 0.83086 0.0
C414 C 0.81423 0.59608 0.84304 0.0
N415 N 0.84291 0.69163 0.85414 0.0
N416 N 0.69325 0.49909 0.8073 0.0
C417 C 0.80182 0.63993 0.8464 0.0
C418 C 0.72568 0.54052 0.82257 0.0
N419 N 0.72888 0.66437 0.85001 0.0
N420 N 0.78742 0.50293 0.82857 0.0
H421 H 0.65593 0.49451 0.80078 0.0
H422 H 0.70615 0.47336 0.7994 0.0
H423 H 0.82427 0.5052 0.83433 0.0
H424 H 0.75807 0.46304 0.82235 0.0
H425 H 0.75282 0.69817 0.8609 0.0
H426 H 0.68875 0.65805 0.84707 0.0
H427 H 0.83814 0.72702 0.8551 0.0
H428 H 0.88381 0.7004 0.85751 0.0
C429 C 0.19387 0.73651 0.14898 0.0
C430 C 0.14156 0.71983 0.15991 0.0
C431 C 0.18811 0.80379 0.18426 0.0
C432 C 0.24115 0.81116 0.17734 0.0
N433 N 0.29513 0.78433 0.15296 0.0
N434 N 0.08685 0.75544 0.17786 0.0
C435 C 0.2444 0.77833 0.1593 0.0
C436 C 0.13778 0.75892 0.17462 0.0
N437 N 0.19488 0.71488 0.12813 0.0
N438 N 0.18606 0.83863 0.20048 0.0
H439 H 0.05137 0.72766 0.16846 0.0
H440 H 0.08112 0.78426 0.18736 0.0
H441 H 0.22222 0.87414 0.20667 0.0
H442 H 0.14895 0.8315 0.20838 0.0
H443 H 0.23177 0.72871 0.11857 0.0
H444 H 0.158 0.68942 0.11903 0.0
H445 H 0.29862 0.75665 0.14177 0.0
H446 H 0.33341 0.81411 0.16017 0.0
C447 C 0.49249 0.20546 0.49518 0.0
C448 C 0.44892 0.15253 0.50356 0.0
C449 C 0.4043 0.19969 0.52243 0.0
C450 C 0.45366 0.2528 0.5179 0.0
N451 N 0.54691 0.30693 0.50097 0.0
N452 N 0.36249 0.09741 0.52496 0.0
C453 C 0.49803 0.25611 0.50418 0.0
C454 C 0.40386 0.1489 0.51679 0.0
N455 N 0.52845 0.20695 0.4786 0.0
N456 N 0.35813 0.19814 0.5321 0.0
H457 H 0.36018 0.05929 0.52059 0.0
H458 H 0.33222 0.09267 0.53694 0.0
H459 H 0.35747 0.23491 0.5363 0.0
H460 H 0.31915 0.16104 0.53406 0.0
H461 H 0.55809 0.2441 0.4703 0.0
H462 H 0.52449 0.17005 0.47153 0.0
H463 H 0.58304 0.31057 0.49341 0.0
H464 H 0.55311 0.34525 0.50736 0.0
C465 C 0.24989 0.44347 0.8408 0.0
C466 C 0.30221 0.49221 0.83494 0.0
C467 C 0.26174 0.55325 0.83953 0.0
C468 C 0.20981 0.50482 0.8461 0.0
N469 N 0.1493 0.40321 0.84752 0.0
N470 N 0.35434 0.5897 0.82226 0.0
C471 C 0.20217 0.44955 0.8448 0.0
C472 C 0.30679 0.54592 0.83211 0.0
N473 N 0.24671 0.39232 0.84385 0.0
N474 N 0.26901 0.60641 0.84164 0.0
H475 H 0.38789 0.58526 0.81645 0.0
H476 H 0.35845 0.62857 0.81789 0.0
H477 H 0.23666 0.6136 0.8466 0.0
H478 H 0.30792 0.64363 0.83982 0.0
H479 H 0.21154 0.35664 0.85071 0.0
H480 H 0.28068 0.38628 0.84064 0.0
H481 H 0.13984 0.36164 0.84486 0.0
H482 H 0.11376 0.40682 0.85052 0.0
C483 C 0.79268 0.26661 0.15298 0.0
C484 C 0.84416 0.28709 0.16475 0.0
C485 C 0.79777 0.20598 0.19103 0.0
C486 C 0.74462 0.19499 0.18279 0.0
N487 N 0.6911 0.21651 0.15619 0.0
N488 N 0.9001 0.25936 0.18641 0.0
C489 C 0.74186 0.225 0.16356 0.0
C490 C 0.84823 0.25161 0.18133 0.0
N491 N 0.79274 0.2841 0.13117 0.0
N492 N 0.79964 0.17371 0.20845 0.0
H493 H 0.93635 0.28797 0.1773 0.0
H494 H 0.90675 0.23367 0.1975 0.0
H495 H 0.76366 0.13775 0.21479 0.0
H496 H 0.83624 0.18311 0.2171 0.0
H497 H 0.75654 0.26731 0.12124 0.0
H498 H 0.83009 0.30855 0.12192 0.0
H499 H 0.68776 0.24219 0.1439 0.0
H500 H 0.65253 0.1872 0.16364 0.0
C501 C 0.96611 0.46606 0.05916 0.0
C502 C -0.01286 0.51451 0.07336 0.0
C503 C 0.01589 0.57675 0.03983 0.0
C504 C -0.00868 0.52812 0.02569 0.0
N505 N 0.93385 0.42652 0.02158 0.0
N506 N 0.0207 0.61459 0.07758 0.0
C507 C 0.96356 0.47269 0.03527 0.0
C508 C 0.00886 0.56955 0.06381 0.0
N509 N 0.95109 0.41419 0.06835 0.0
N510 N 0.04744 0.62972 0.03039 0.0
H511 H 0.01493 0.61089 0.09523 0.0
H512 H 0.03103 0.65447 0.07136 0.0
H513 H 0.05315 0.63684 0.01284 0.0
H514 H 0.07171 0.66617 0.03997 0.0
H515 H 0.94136 0.37863 0.05856 0.0
H516 H 0.95302 0.40764 0.08575 0.0
H517 H 0.90776 0.38551 0.02785 0.0
H518 H 0.93135 0.42981 0.00396 0.0
C519 C 0.46693 0.94149 0.39702 0.0
C520 C 0.47217 0.98836 0.4095 0.0
C521 C 0.47055 0.03461 0.37397 0.0
C522 C 0.47222 0.99105 0.3615 0.0
N523 N 0.47975 0.90682 0.3608 0.0
N524 N 0.48749 0.0836 0.41 0.0
C525 C 0.4724 0.94538 0.37292 0.0
C526 C 0.47593 0.03597 0.39805 0.0
N527 N 0.45486 0.89255 0.40817 0.0
N528 N 0.46275 0.07402 0.36283 0.0
H529 H 0.49257 0.08678 0.42764 0.0
H530 H 0.49695 0.12178 0.40226 0.0
H531 H 0.45897 0.07451 0.34516 0.0
H532 H 0.45509 0.1031 0.37119 0.0
H533 H 0.4448 0.85499 0.39982 0.0
H534 H 0.44955 0.88775 0.42583 0.0
H535 H 0.48665 0.87645 0.3684 0.0
H536 H 0.4836 0.90801 0.34307 0.0
C537 C 0.54415 0.51615 0.73309 0.0
C538 C 0.49973 0.51981 0.74391 0.0
C539 C 0.45808 0.51655 0.70677 0.0
C540 C 0.50516 0.51803 0.69595 0.0
N541 N 0.59768 0.52884 0.69835 0.0
N542 N 0.4196 0.53308 0.7413 0.0
C543 C 0.54963 0.52065 0.70898 0.0
C544 C 0.45798 0.52256 0.73082 0.0
N545 N 0.57958 0.50577 0.74575 0.0
N546 N 0.41282 0.50784 0.69412 0.0
H547 H 0.41855 0.53828 0.75888 0.0
H548 H 0.39202 0.54162 0.73245 0.0
H549 H 0.4116 0.50381 0.67642 0.0
H550 H 0.37471 0.50004 0.70127 0.0
H551 H 0.60876 0.49651 0.73859 0.0
H552 H 0.57646 0.50119 0.76344 0.0
H553 H 0.63402 0.53743 0.70707 0.0
H554 H 0.60307 0.53187 0.68068 0.0
C555 C 0.44025 0.95793 0.59663 0.0
C556 C 0.4933 0.98231 0.5852 0.0
C557 C 0.54194 0.00679 0.62187 0.0
C558 C 0.48877 0.97853 0.6332 0.0
N559 N 0.38757 0.918 0.63172 0.0
N560 N 0.59396 0.02043 0.58659 0.0
C561 C 0.43795 0.95121 0.62066 0.0
C562 C 0.54407 0.00418 0.59772 0.0
N563 N 0.39237 0.94381 0.58467 0.0
N564 N 0.59025 0.03746 0.63414 0.0
H565 H 0.59708 0.01844 0.56892 0.0
H566 H 0.63132 0.03105 0.59494 0.0
H567 H 0.59045 0.03956 0.65189 0.0
H568 H 0.62959 0.06427 0.62668 0.0
H569 H 0.35359 0.93163 0.59241 0.0
H570 H 0.39224 0.94932 0.56709 0.0
H571 H 0.34986 0.89205 0.62328 0.0
H572 H 0.38423 0.91243 0.64938 0.0
C573 C 0.52233 0.51287 0.93285 0.0
C574 C 0.49218 0.46761 0.9174 0.0
C575 C 0.45685 0.39953 0.94919 0.0
C576 C 0.48161 0.44553 0.96468 0.0
N577 N 0.53138 0.54652 0.97163 0.0
N578 N 0.42513 0.36856 0.91062 0.0
C579 C 0.51269 0.5024 0.95662 0.0
C580 C 0.45817 0.41096 0.92546 0.0
N581 N 0.5617 0.56549 0.92482 0.0
N582 N 0.43301 0.34504 0.95717 0.0
H583 H 0.42463 0.37527 0.89314 0.0
H584 H 0.39487 0.32768 0.91579 0.0
H585 H 0.43077 0.33524 0.97448 0.0
H586 H 0.41964 0.30995 0.94661 0.0
H587 H 0.58926 0.59861 0.93533 0.0
H588 H 0.57072 0.5746 0.9075 0.0
H589 H 0.54849 0.58868 0.96654 0.0
H590 H 0.52561 0.54077 0.98923 0.0
C591 C 0.94338 0.47403 0.26126 0.0
C592 C -0.00876 0.51577 0.24889 0.0
C593 C 0.0288 0.56907 0.28411 0.0
C594 C -0.00972 0.5202 0.29679 0.0
N595 N 0.89029 0.45405 0.2965 0.0
N596 N 0.08003 0.60501 0.24867 0.0
C597 C 0.94095 0.4799 0.28522 0.0
C598 C 0.03395 0.56419 0.2603 0.0
N599 N 0.90024 0.42902 0.25027 0.0
N600 N 0.05231 0.62143 0.29382 0.0
H601 H 0.0859 0.603 0.23117 0.0
H602 H 0.11438 0.63832 0.2569 0.0
H603 H 0.03948 0.62695 0.30995 0.0
H604 H 0.07695 0.65902 0.2847 0.0
H605 H 0.8677 0.39438 0.25893 0.0
H606 H 0.89854 0.42478 0.23258 0.0
H607 H 0.8518 0.42826 0.28853 0.0
H608 H 0.88661 0.46492 0.31323 0.0
loop_
_geom_bond_atom_site_label_1
_geom_bond_atom_site_label_2
_geom_bond_distance
_geom_bond_site_symmetry_2
_ccdc_geom_bond_type
O0 Zn1 1.953 . S
O0 C16 1.225 1_655 S
Zn1 O0 1.953 . S
Zn1 O2 1.949 1_655 S
Zn1 O8 1.919 . S
Zn1 O13 1.924 1_655 S
O2 Zn1 1.949 1_455 S
O2 Zn3 1.923 1_455 S
O2 Zn4 1.950 . S
O2 Zn5 1.945 . S
Zn3 O2 1.923 1_655 S
Zn3 O6 1.933 . S
Zn3 O9 1.941 . S
Zn3 O10 1.965 . S
Zn4 O2 1.950 . S
Zn4 O11 1.938 1_455 S
Zn4 O12 1.906 . S
Zn4 O22 1.953 . S
Zn5 O2 1.945 . S
Zn5 O7 1.932 . S
Zn5 O14 1.977 . S
Zn5 O15 1.910 . S
O6 Zn3 1.933 . S
O6 C17 1.226 1_655 S
O7 Zn5 1.932 . S
O7 C17 1.307 . S
O8 Zn1 1.919 . S
O8 C19 1.253 . S
O9 Zn3 1.941 . S
O9 C19 1.283 . S
O10 Zn3 1.965 . S
O10 C18 1.303 . S
O11 Zn4 1.938 1_655 S
O11 C18 1.247 . S
O12 Zn4 1.906 . S
O12 C20 1.304 . S
O13 Zn1 1.924 1_455 S
O13 C21 1.311 . S
O14 Zn5 1.977 . S
O14 C20 1.272 . S
O15 Zn5 1.910 . S
O15 C21 1.231 . S
C16 O0 1.225 1_455 S
C16 O22 1.298 . S
C17 O6 1.226 1_455 S
C17 O7 1.307 . S
C18 O10 1.303 . S
C18 O11 1.247 . S
C19 O8 1.253 . S
C19 O9 1.283 . S
C20 O12 1.304 . S
C20 O14 1.272 . S
C21 O13 1.311 . S
C21 O15 1.231 . S
O22 Zn4 1.953 . S
O22 C16 1.298 . S
O23 Zn24 1.953 . S
O23 C39 1.225 . S
Zn24 O23 1.953 . S
Zn24 O25 1.949 . S
Zn24 O31 1.919 . S
Zn24 O36 1.924 1_545 S
O25 Zn24 1.949 . S
O25 Zn26 1.923 . S
O25 Zn27 1.950 1_545 S
O25 Zn28 1.945 1_545 S
Zn26 O25 1.923 . S
Zn26 O29 1.933 . S
Zn26 O32 1.941 . S
Zn26 O33 1.965 . S
Zn27 O25 1.950 1_565 S
Zn27 O34 1.938 1_565 S
Zn27 O35 1.906 . S
Zn27 O45 1.953 . S
Zn28 O25 1.945 1_565 S
Zn28 O30 1.932 . S
Zn28 O37 1.977 . S
Zn28 O38 1.910 . S
O29 Zn26 1.933 . S
O29 C40 1.226 . S
O30 Zn28 1.932 . S
O30 C40 1.307 1_565 S
O31 Zn24 1.919 . S
O31 C42 1.253 . S
O32 Zn26 1.941 . S
O32 C42 1.283 . S
O33 Zn26 1.965 . S
O33 C41 1.303 . S
O34 Zn27 1.938 1_545 S
O34 C41 1.247 . S
O35 Zn27 1.906 . S
O35 C43 1.304 . S
O36 Zn24 1.924 1_565 S
O36 C44 1.311 . S
O37 Zn28 1.977 . S
O37 C43 1.272 . S
O38 Zn28 1.910 . S
O38 C44 1.231 . S
C39 O23 1.225 . S
C39 O45 1.298 1_545 S
C40 O29 1.226 . S
C40 O30 1.307 1_545 S
C41 O33 1.303 . S
C41 O34 1.247 . S
C42 O31 1.253 . S
C42 O32 1.283 . S
C43 O35 1.304 . S
C43 O37 1.272 . S
C44 O36 1.311 . S
C44 O38 1.231 . S
O45 Zn27 1.953 . S
O45 C39 1.298 1_565 S
O46 Zn47 1.953 . S
O46 C62 1.225 . S
Zn47 O46 1.953 . S
Zn47 O48 1.949 . S
Zn47 O54 1.919 . S
Zn47 O59 1.924 . S
O48 Zn47 1.949 . S
O48 Zn49 1.923 . S
O48 Zn50 1.950 . S
O48 Zn51 1.945 . S
Zn49 O48 1.923 . S
Zn49 O52 1.933 . S
Zn49 O55 1.941 . S
Zn49 O56 1.965 . S
Zn50 O48 1.950 . S
Zn50 O57 1.938 . S
Zn50 O58 1.906 . S
Zn50 O68 1.953 . S
Zn51 O48 1.945 . S
Zn51 O53 1.932 . S
Zn51 O60 1.977 . S
Zn51 O61 1.910 . S
O52 Zn49 1.933 . S
O52 C63 1.226 . S
O53 Zn51 1.932 . S
O53 C63 1.307 . S
O54 Zn47 1.919 . S
O54 C65 1.253 . S
O55 Zn49 1.941 . S
O55 C65 1.283 . S
O56 Zn49 1.965 . S
O56 C64 1.303 . S
O57 Zn50 1.938 . S
O57 C64 1.247 . S
O58 Zn50 1.906 . S
O58 C66 1.304 . S
O59 Zn47 1.924 . S
O59 C67 1.311 . S
O60 Zn51 1.977 . S
O60 C66 1.272 . S
O61 Zn51 1.910 . S
O61 C67 1.231 . S
C62 O46 1.225 . S
C62 O68 1.298 . S
C63 O52 1.226 . S
C63 O53 1.307 . S
C64 O56 1.303 . S
C64 O57 1.247 . S
C65 O54 1.253 . S
C65 O55 1.283 . S
C66 O58 1.304 . S
C66 O60 1.272 . S
C67 O59 1.311 . S
C67 O61 1.231 . S
O68 Zn50 1.953 . S
O68 C62 1.298 . S
C69 C70 1.384 . S
C69 H82 0.947 . S
C69 C104 1.382 . S
C70 C69 1.384 . S
C70 C71 1.378 . S
C71 C70 1.378 . S
C71 C72 1.378 . S
C71 H83 0.952 . S
C72 C71 1.378 . S
C72 H84 0.950 . S
C72 C103 1.383 . S
H73 C92 0.947 . S
H74 C93 0.946 . S
H75 C95 0.953 . S
H76 C96 0.945 . S
H77 C98 0.952 . S
H78 C99 0.949 . S
H79 C101 0.950 . S
H80 C102 0.948 . S
H81 C104 0.951 . S
H82 C69 0.947 . S
H83 C71 0.952 . S
H84 C72 0.950 . S
N85 C88 1.382 . S
N85 C90 1.363 1_545 S
N86 C88 1.371 . S
N86 C89 1.372 . S
N87 C89 1.361 1_565 S
N87 C90 1.377 . S
C88 N85 1.382 . S
C88 N86 1.371 . S
C88 C91 1.480 . S
C89 N86 1.372 . S
C89 N87 1.361 1_545 S
C89 C97 1.457 . S
C90 N85 1.363 1_565 S
C90 N87 1.377 . S
C90 C103 1.479 . S
C91 C88 1.480 . S
C91 C92 1.383 . S
C91 C96 1.385 . S
C92 H73 0.947 . S
C92 C91 1.383 . S
C92 C93 1.388 . S
C93 H74 0.946 . S
C93 C92 1.388 . S
C93 C94 1.384 . S
C94 C93 1.384 . S
C94 C95 1.377 . S
C95 H75 0.953 . S
C95 C94 1.377 . S
C95 C96 1.369 . S
C96 H76 0.945 . S
C96 C91 1.385 . S
C96 C95 1.369 . S
C97 C89 1.457 . S
C97 C98 1.372 . S
C97 C102 1.364 1_545 S
C98 H77 0.952 . S
C98 C97 1.372 . S
C98 C99 1.389 . S
C99 H78 0.949 . S
C99 C98 1.389 . S
C99 C100 1.387 . S
C100 C99 1.387 . S
C100 C101 1.372 1_545 S
C101 H79 0.950 . S
C101 C100 1.372 1_565 S
C101 C102 1.379 . S
C102 H80 0.948 . S
C102 C97 1.364 1_565 S
C102 C101 1.379 . S
C103 C72 1.383 . S
C103 C90 1.479 . S
C103 C104 1.398 . S
C104 C69 1.382 . S
C104 H81 0.951 . S
C104 C103 1.398 . S
C105 C106 1.384 . S
C105 H118 0.947 . S
C105 C140 1.382 . S
C106 C105 1.384 . S
C106 C107 1.378 . S
C107 C106 1.378 . S
C107 C108 1.378 . S
C107 H119 0.952 . S
C108 C107 1.378 . S
C108 H120 0.950 . S
C108 C139 1.383 . S
H109 C128 0.947 . S
H110 C129 0.946 . S
H111 C131 0.953 . S
H112 C132 0.945 . S
H113 C134 0.952 . S
H114 C135 0.949 . S
H115 C137 0.950 . S
H116 C138 0.948 . S
H117 C140 0.951 . S
H118 C105 0.947 . S
H119 C107 0.952 . S
H120 C108 0.950 . S
N121 C124 1.382 . S
N121 C126 1.363 . S
N122 C124 1.371 . S
N122 C125 1.372 . S
N123 C125 1.361 . S
N123 C126 1.377 . S
C124 N121 1.382 . S
C124 N122 1.371 . S
C124 C127 1.480 . S
C125 N122 1.372 . S
C125 N123 1.361 . S
C125 C133 1.457 . S
C126 N121 1.363 . S
C126 N123 1.377 . S
C126 C139 1.479 . S
C127 C124 1.480 . S
C127 C128 1.383 . S
C127 C132 1.385 . S
C128 H109 0.947 . S
C128 C127 1.383 . S
C128 C129 1.388 . S
C129 H110 0.946 . S
C129 C128 1.388 . S
C129 C130 1.384 . S
C130 C129 1.384 . S
C130 C131 1.377 . S
C131 H111 0.953 . S
C131 C130 1.377 . S
C131 C132 1.369 . S
C132 H112 0.945 . S
C132 C127 1.385 . S
C132 C131 1.369 . S
C133 C125 1.457 . S
C133 C134 1.372 . S
C133 C138 1.364 . S
C134 H113 0.952 . S
C134 C133 1.372 . S
C134 C135 1.389 . S
C135 H114 0.949 . S
C135 C134 1.389 . S
C135 C136 1.387 . S
C136 C135 1.387 . S
C136 C137 1.372 . S
C137 H115 0.950 . S
C137 C136 1.372 . S
C137 C138 1.379 . S
C138 H116 0.948 . S
C138 C133 1.364 . S
C138 C137 1.379 . S
C139 C108 1.383 . S
C139 C126 1.479 . S
C139 C140 1.398 . S
C140 C105 1.382 . S
C140 H117 0.951 . S
C140 C139 1.398 . S
C141 C142 1.384 . S
C141 H154 0.947 . S
C141 C176 1.382 . S
C142 C141 1.384 . S
C142 C143 1.378 . S
C143 C142 1.378 . S
C143 C144 1.378 . S
C143 H155 0.952 . S
C144 C143 1.378 . S
C144 H156 0.950 . S
C144 C175 1.383 . S
H145 C164 0.947 . S
H146 C165 0.946 . S
H147 C167 0.953 . S
H148 C168 0.945 . S
H149 C170 0.952 . S
H150 C171 0.949 1_554 S
H151 C173 0.950 1_554 S
H152 C174 0.948 . S
H153 C176 0.951 . S
H154 C141 0.947 . S
H155 C143 0.952 . S
H156 C144 0.950 . S
N157 C160 1.382 . S
N157 C162 1.363 1_455 S
N158 C160 1.371 . S
N158 C161 1.372 . S
N159 C161 1.361 1_655 S
N159 C162 1.377 . S
C160 N157 1.382 . S
C160 N158 1.371 . S
C160 C163 1.480 . S
C161 N158 1.372 . S
C161 N159 1.361 1_455 S
C161 C169 1.457 . S
C162 N157 1.363 1_655 S
C162 N159 1.377 . S
C162 C175 1.479 . S
C163 C160 1.480 . S
C163 C164 1.383 . S
C163 C168 1.385 . S
C164 H145 0.947 . S
C164 C163 1.383 . S
C164 C165 1.388 . S
C165 H146 0.946 . S
C165 C164 1.388 . S
C165 C166 1.384 . S
C166 C165 1.384 . S
C166 C167 1.377 . S
C167 H147 0.953 . S
C167 C166 1.377 . S
C167 C168 1.369 . S
C168 H148 0.945 . S
C168 C163 1.385 . S
C168 C167 1.369 . S
C169 C161 1.457 . S
C169 C170 1.372 . S
C169 C174 1.364 1_455 S
C170 H149 0.952 . S
C170 C169 1.372 . S
C170 C171 1.389 . S
C171 H150 0.949 1_556 S
C171 C170 1.389 . S
C171 C172 1.387 1_556 S
C172 C171 1.387 1_554 S
C172 C173 1.372 1_454 S
C173 H151 0.950 1_556 S
C173 C172 1.372 1_656 S
C173 C174 1.379 . S
C174 H152 0.948 . S
C174 C169 1.364 1_655 S
C174 C173 1.379 . S
C175 C144 1.383 . S
C175 C162 1.479 . S
C175 C176 1.398 . S
C176 C141 1.382 . S
C176 H153 0.951 . S
C176 C175 1.398 . S
C177 C178 1.384 . S
C177 H190 0.947 . S
C177 C212 1.382 . S
C178 C177 1.384 . S
C178 C179 1.378 . S
C179 C178 1.378 . S
C179 C180 1.378 . S
C179 H191 0.952 . S
C180 C179 1.378 . S
C180 H192 0.950 . S
C180 C211 1.383 . S
H181 C200 0.947 . S
H182 C201 0.946 . S
H183 C203 0.953 . S
H184 C204 0.945 . S
H185 C206 0.952 . S
H186 C207 0.949 . S
H187 C209 0.950 . S
H188 C210 0.948 . S
H189 C212 0.951 . S
H190 C177 0.947 . S
H191 C179 0.952 . S
H192 C180 0.950 . S
N193 C196 1.382 1_455 S
N193 C198 1.363 . S
N194 C196 1.371 . S
N194 C197 1.372 1_655 S
N195 C197 1.361 . S
N195 C198 1.377 . S
C196 N193 1.382 1_655 S
C196 N194 1.371 . S
C196 C199 1.480 . S
C197 N194 1.372 1_455 S
C197 N195 1.361 . S
C197 C205 1.457 . S
C198 N193 1.363 . S
C198 N195 1.377 . S
C198 C211 1.479 . S
C199 C196 1.480 . S
C199 C200 1.383 . S
C199 C204 1.385 . S
C200 H181 0.947 . S
C200 C199 1.383 . S
C200 C201 1.388 . S
C201 H182 0.946 . S
C201 C200 1.388 . S
C201 C202 1.384 . S
C202 C201 1.384 . S
C202 C203 1.377 . S
C203 H183 0.953 . S
C203 C202 1.377 . S
C203 C204 1.369 . S
C204 H184 0.945 . S
C204 C199 1.385 . S
C204 C203 1.369 . S
C205 C197 1.457 . S
C205 C206 1.372 1_455 S
C205 C210 1.364 . S
C206 H185 0.952 . S
C206 C205 1.372 1_655 S
C206 C207 1.389 . S
C207 H186 0.949 . S
C207 C206 1.389 . S
C207 C208 1.387 1_655 S
C208 C207 1.387 1_455 S
C208 C209 1.372 . S
C209 H187 0.950 . S
C209 C208 1.372 . S
C209 C210 1.379 . S
C210 H188 0.948 . S
C210 C205 1.364 . S
C210 C209 1.379 . S
C211 C180 1.383 . S
C211 C198 1.479 . S
C211 C212 1.398 . S
C212 C177 1.382 . S
C212 H189 0.951 . S
C212 C211 1.398 . S
C213 C214 1.384 . S
C213 H226 0.947 . S
C213 C248 1.382 . S
C214 C213 1.384 . S
C214 C215 1.378 . S
C215 C214 1.378 . S
C215 C216 1.378 . S
C215 H227 0.952 . S
C216 C215 1.378 . S
C216 H228 0.950 . S
C216 C247 1.383 . S
H217 C236 0.947 . S
H218 C237 0.946 . S
H219 C239 0.953 . S
H220 C240 0.945 . S
H221 C242 0.952 . S
H222 C243 0.949 . S
H223 C245 0.950 . S
H224 C246 0.948 . S
H225 C248 0.951 . S
H226 C213 0.947 . S
H227 C215 0.952 . S
H228 C216 0.950 . S
N229 C232 1.382 1_545 S
N229 C234 1.363 . S
N230 C232 1.371 . S
N230 C233 1.372 1_565 S
N231 C233 1.361 . S
N231 C234 1.377 . S
C232 N229 1.382 1_565 S
C232 N230 1.371 . S
C232 C235 1.480 . S
C233 N230 1.372 1_545 S
C233 N231 1.361 . S
C233 C241 1.457 . S
C234 N229 1.363 . S
C234 N231 1.377 . S
C234 C247 1.479 . S
C235 C232 1.480 . S
C235 C236 1.383 . S
C235 C240 1.385 . S
C236 H217 0.947 . S
C236 C235 1.383 . S
C236 C237 1.388 . S
C237 H218 0.946 . S
C237 C236 1.388 . S
C237 C238 1.384 . S
C238 C237 1.384 . S
C238 C239 1.377 . S
C239 H219 0.953 . S
C239 C238 1.377 . S
C239 C240 1.369 . S
C240 H220 0.945 . S
C240 C235 1.385 . S
C240 C239 1.369 . S
C241 C233 1.457 . S
C241 C242 1.372 1_545 S
C241 C246 1.364 . S
C242 H221 0.952 . S
C242 C241 1.372 1_565 S
C242 C243 1.389 . S
C243 H222 0.949 . S
C243 C242 1.389 . S
C243 C244 1.387 1_565 S
C244 C243 1.387 1_545 S
C244 C245 1.372 . S
C245 H223 0.950 . S
C245 C244 1.372 . S
C245 C246 1.379 . S
C246 H224 0.948 . S
C246 C241 1.364 . S
C246 C245 1.379 . S
C247 C216 1.383 . S
C247 C234 1.479 . S
C247 C248 1.398 . S
C248 C213 1.382 . S
C248 H225 0.951 . S
C248 C247 1.398 . S
C249 C250 1.384 . S
C249 H262 0.947 . S
C249 C284 1.382 . S
C250 C249 1.384 . S
C250 C251 1.378 . S
C251 C250 1.378 . S
C251 C252 1.378 . S
C251 H263 0.952 . S
C252 C251 1.378 . S
C252 H264 0.950 . S
C252 C283 1.383 . S
H253 C272 0.947 . S
H254 C273 0.946 . S
H255 C275 0.953 . S
H256 C276 0.945 . S
H257 C278 0.952 . S
H258 C279 0.949 1_556 S
H259 C281 0.950 1_556 S
H260 C282 0.948 . S
H261 C284 0.951 . S
H262 C249 0.947 . S
H263 C251 0.952 . S
H264 C252 0.950 . S
N265 C268 1.382 . S
N265 C270 1.363 . S
N266 C268 1.371 . S
N266 C269 1.372 . S
N267 C269 1.361 . S
N267 C270 1.377 . S
C268 N265 1.382 . S
C268 N266 1.371 . S
C268 C271 1.480 . S
C269 N266 1.372 . S
C269 N267 1.361 . S
C269 C277 1.457 . S
C270 N265 1.363 . S
C270 N267 1.377 . S
C270 C283 1.479 . S
C271 C268 1.480 . S
C271 C272 1.383 . S
C271 C276 1.385 . S
C272 H253 0.947 . S
C272 C271 1.383 . S
C272 C273 1.388 . S
C273 H254 0.946 . S
C273 C272 1.388 . S
C273 C274 1.384 . S
C274 C273 1.384 . S
C274 C275 1.377 . S
C275 H255 0.953 . S
C275 C274 1.377 . S
C275 C276 1.369 . S
C276 H256 0.945 . S
C276 C271 1.385 . S
C276 C275 1.369 . S
C277 C269 1.457 . S
C277 C278 1.372 . S
C277 C282 1.364 . S
C278 H257 0.952 . S
C278 C277 1.372 . S
C278 C279 1.389 . S
C279 H258 0.949 1_554 S
C279 C278 1.389 . S
C279 C280 1.387 1_554 S
C280 C279 1.387 1_556 S
C280 C281 1.372 1_556 S
C281 H259 0.950 1_554 S
C281 C280 1.372 1_554 S
C281 C282 1.379 . S
C282 H260 0.948 . S
C282 C277 1.364 . S
C282 C281 1.379 . S
C283 C252 1.383 . S
C283 C270 1.479 . S
C283 C284 1.398 . S
C284 C249 1.382 . S
C284 H261 0.951 . S
C284 C283 1.398 . S
C285 C286 1.363 . S
C285 C291 1.379 . S
C285 N293 1.356 . S
C286 C285 1.363 . S
C286 C292 1.363 . S
C287 C288 1.363 . S
C287 C292 1.379 . S
C287 N294 1.356 . S
C288 C287 1.363 . S
C288 C291 1.363 . S
N289 C291 1.356 . S
N289 H301 0.984 . S
N289 H302 0.985 . S
N290 C292 1.356 . S
N290 H295 0.984 . S
N290 H296 0.985 . S
C291 C285 1.379 . S
C291 C288 1.363 . S
C291 N289 1.356 . S
C292 C286 1.363 . S
C292 C287 1.379 . S
C292 N290 1.356 . S
N293 C285 1.356 . S
N293 H299 0.984 . S
N293 H300 0.984 . S
N294 C287 1.356 . S
N294 H297 0.984 . S
N294 H298 0.985 . S
H295 N290 0.984 . S
H296 N290 0.985 . S
H297 N294 0.984 . S
H298 N294 0.985 . S
H299 N293 0.984 . S
H300 N293 0.984 . S
H301 N289 0.984 . S
H302 N289 0.985 . S
C303 C304 1.363 . S
C303 C309 1.379 . S
C303 N311 1.356 . S
C304 C303 1.363 . S
C304 C310 1.363 . S
C305 C306 1.363 . S
C305 C310 1.379 . S
C305 N312 1.356 . S
C306 C305 1.363 . S
C306 C309 1.363 . S
N307 C309 1.356 . S
N307 H319 0.984 . S
N307 H320 0.985 . S
N308 C310 1.356 . S
N308 H313 0.984 . S
N308 H314 0.985 . S
C309 C303 1.379 . S
C309 C306 1.363 . S
C309 N307 1.356 . S
C310 C304 1.363 . S
C310 C305 1.379 . S
C310 N308 1.356 . S
N311 C303 1.356 . S
N311 H317 0.984 . S
N311 H318 0.984 . S
N312 C305 1.356 . S
N312 H315 0.984 . S
N312 H316 0.985 . S
H313 N308 0.984 . S
H314 N308 0.985 . S
H315 N312 0.984 . S
H316 N312 0.985 . S
H317 N311 0.984 . S
H318 N311 0.984 . S
H319 N307 0.984 . S
H320 N307 0.985 . S
C321 C322 1.363 . S
C321 C327 1.379 . S
C321 N329 1.356 . S
C322 C321 1.363 . S
C322 C328 1.363 . S
C323 C324 1.363 . S
C323 C328 1.379 . S
C323 N330 1.356 . S
C324 C323 1.363 . S
C324 C327 1.363 . S
N325 C327 1.356 . S
N325 H337 0.984 . S
N325 H338 0.985 . S
N326 C328 1.356 . S
N326 H331 0.984 . S
N326 H332 0.985 . S
C327 C321 1.379 . S
C327 C324 1.363 . S
C327 N325 1.356 . S
C328 C322 1.363 . S
C328 C323 1.379 . S
C328 N326 1.356 . S
N329 C321 1.356 . S
N329 H335 0.984 . S
N329 H336 0.984 . S
N330 C323 1.356 . S
N330 H333 0.984 . S
N330 H334 0.985 . S
H331 N326 0.984 . S
H332 N326 0.985 . S
H333 N330 0.984 . S
H334 N330 0.985 . S
H335 N329 0.984 . S
H336 N329 0.984 . S
H337 N325 0.984 . S
H338 N325 0.985 . S
C339 C340 1.363 . S
C339 C345 1.379 . S
C339 N347 1.356 . S
C340 C339 1.363 . S
C340 C346 1.363 . S
C341 C342 1.363 . S
C341 C346 1.379 . S
C341 N348 1.356 . S
C342 C341 1.363 . S
C342 C345 1.363 . S
N343 C345 1.356 . S
N343 H355 0.984 . S
N343 H356 0.985 . S
N344 C346 1.356 . S
N344 H349 0.984 . S
N344 H350 0.985 . S
C345 C339 1.379 . S
C345 C342 1.363 . S
C345 N343 1.356 . S
C346 C340 1.363 . S
C346 C341 1.379 . S
C346 N344 1.356 . S
N347 C339 1.356 . S
N347 H353 0.984 . S
N347 H354 0.984 . S
N348 C341 1.356 . S
N348 H351 0.984 . S
N348 H352 0.985 . S
H349 N344 0.984 . S
H350 N344 0.985 . S
H351 N348 0.984 . S
H352 N348 0.985 . S
H353 N347 0.984 . S
H354 N347 0.984 . S
H355 N343 0.984 . S
H356 N343 0.985 . S
C357 C358 1.363 . S
C357 C363 1.379 . S
C357 N365 1.356 . S
C358 C357 1.363 . S
C358 C364 1.363 . S
C359 C360 1.363 . S
C359 C364 1.379 . S
C359 N366 1.356 . S
C360 C359 1.363 . S
C360 C363 1.363 . S
N361 C363 1.356 . S
N361 H373 0.984 . S
N361 H374 0.985 . S
N362 C364 1.356 . S
N362 H367 0.984 . S
N362 H368 0.985 . S
C363 C357 1.379 . S
C363 C360 1.363 . S
C363 N361 1.356 . S
C364 C358 1.363 . S
C364 C359 1.379 . S
C364 N362 1.356 . S
N365 C357 1.356 . S
N365 H371 0.984 . S
N365 H372 0.984 . S
N366 C359 1.356 . S
N366 H369 0.984 . S
N366 H370 0.985 . S
H367 N362 0.984 . S
H368 N362 0.985 . S
H369 N366 0.984 . S
H370 N366 0.985 . S
H371 N365 0.984 . S
H372 N365 0.984 . S
H373 N361 0.984 . S
H374 N361 0.985 . S
C375 C376 1.363 . S
C375 C381 1.379 . S
C375 N383 1.356 . S
C376 C375 1.363 . S
C376 C382 1.363 . S
C377 C378 1.363 . S
C377 C382 1.379 . S
C377 N384 1.356 . S
C378 C377 1.363 . S
C378 C381 1.363 . S
N379 C381 1.356 . S
N379 H391 0.984 . S
N379 H392 0.985 . S
N380 C382 1.356 . S
N380 H385 0.984 . S
N380 H386 0.985 . S
C381 C375 1.379 . S
C381 C378 1.363 . S
C381 N379 1.356 . S
C382 C376 1.363 . S
C382 C377 1.379 . S
C382 N380 1.356 . S
N383 C375 1.356 . S
N383 H389 0.984 . S
N383 H390 0.984 . S
N384 C377 1.356 . S
N384 H387 0.984 . S
N384 H388 0.985 . S
H385 N380 0.984 . S
H386 N380 0.985 . S
H387 N384 0.984 . S
H388 N384 0.985 . S
H389 N383 0.984 . S
H390 N383 0.984 . S
H391 N379 0.984 . S
H392 N379 0.985 . S
C393 C394 1.363 . S
C393 C399 1.379 . S
C393 N401 1.356 . S
C394 C393 1.363 . S
C394 C400 1.363 . S
C395 C396 1.363 . S
C395 C400 1.379 . S
C395 N402 1.356 . S
C396 C395 1.363 . S
C396 C399 1.363 . S
N397 C399 1.356 . S
N397 H409 0.984 . S
N397 H410 0.985 . S
N398 C400 1.356 . S
N398 H403 0.984 . S
N398 H404 0.985 . S
C399 C393 1.379 . S
C399 C396 1.363 . S
C399 N397 1.356 . S
C400 C394 1.363 . S
C400 C395 1.379 . S
C400 N398 1.356 . S
N401 C393 1.356 . S
N401 H407 0.984 . S
N401 H408 0.984 . S
N402 C395 1.356 . S
N402 H405 0.984 . S
N402 H406 0.985 . S
H403 N398 0.984 . S
H404 N398 0.985 . S
H405 N402 0.984 . S
H406 N402 0.985 . S
H407 N401 0.984 . S
H408 N401 0.984 . S
H409 N397 0.984 . S
H410 N397 0.985 . S
C411 C412 1.363 . S
C411 C417 1.379 . S
C411 N419 1.356 . S
C412 C411 1.363 . S
C412 C418 1.363 . S
C413 C414 1.363 . S
C413 C418 1.379 . S
C413 N420 1.356 . S
C414 C413 1.363 . S
C414 C417 1.363 . S
N415 C417 1.356 . S
N415 H427 0.984 . S
N415 H428 0.985 . S
N416 C418 1.356 . S
N416 H421 0.984 . S
N416 H422 0.985 . S
C417 C411 1.379 . S
C417 C414 1.363 . S
C417 N415 1.356 . S
C418 C412 1.363 . S
C418 C413 1.379 . S
C418 N416 1.356 . S
N419 C411 1.356 . S
N419 H425 0.984 . S
N419 H426 0.984 . S
N420 C413 1.356 . S
N420 H423 0.984 . S
N420 H424 0.985 . S
H421 N416 0.984 . S
H422 N416 0.985 . S
H423 N420 0.984 . S
H424 N420 0.985 . S
H425 N419 0.984 . S
H426 N419 0.984 . S
H427 N415 0.984 . S
H428 N415 0.985 . S
C429 C430 1.363 . S
C429 C435 1.379 . S
C429 N437 1.356 . S
C430 C429 1.363 . S
C430 C436 1.363 . S
C431 C432 1.363 . S
C431 C436 1.379 . S
C431 N438 1.356 . S
C432 C431 1.363 . S
C432 C435 1.363 . S
N433 C435 1.356 . S
N433 H445 0.984 . S
N433 H446 0.985 . S
N434 C436 1.356 . S
N434 H439 0.984 . S
N434 H440 0.985 . S
C435 C429 1.379 . S
C435 C432 1.363 . S
C435 N433 1.356 . S
C436 C430 1.363 . S
C436 C431 1.379 . S
C436 N434 1.356 . S
N437 C429 1.356 . S
N437 H443 0.984 . S
N437 H444 0.984 . S
N438 C431 1.356 . S
N438 H441 0.984 . S
N438 H442 0.985 . S
H439 N434 0.984 . S
H440 N434 0.985 . S
H441 N438 0.984 . S
H442 N438 0.985 . S
H443 N437 0.984 . S
H444 N437 0.984 . S
H445 N433 0.984 . S
H446 N433 0.985 . S
C447 C448 1.363 . S
C447 C453 1.379 . S
C447 N455 1.356 . S
C448 C447 1.363 . S
C448 C454 1.363 . S
C449 C450 1.363 . S
C449 C454 1.379 . S
C449 N456 1.356 . S
C450 C449 1.363 . S
C450 C453 1.363 . S
N451 C453 1.356 . S
N451 H463 0.984 . S
N451 H464 0.985 . S
N452 C454 1.356 . S
N452 H457 0.984 . S
N452 H458 0.985 . S
C453 C447 1.379 . S
C453 C450 1.363 . S
C453 N451 1.356 . S
C454 C448 1.363 . S
C454 C449 1.379 . S
C454 N452 1.356 . S
N455 C447 1.356 . S
N455 H461 0.984 . S
N455 H462 0.984 . S
N456 C449 1.356 . S
N456 H459 0.984 . S
N456 H460 0.985 . S
H457 N452 0.984 . S
H458 N452 0.985 . S
H459 N456 0.984 . S
H460 N456 0.985 . S
H461 N455 0.984 . S
H462 N455 0.984 . S
H463 N451 0.984 . S
H464 N451 0.985 . S
C465 C466 1.363 . S
C465 C471 1.379 . S
C465 N473 1.356 . S
C466 C465 1.363 . S
C466 C472 1.363 . S
C467 C468 1.363 . S
C467 C472 1.379 . S
C467 N474 1.356 . S
C468 C467 1.363 . S
C468 C471 1.363 . S
N469 C471 1.356 . S
N469 H481 0.984 . S
N469 H482 0.985 . S
N470 C472 1.356 . S
N470 H475 0.984 . S
N470 H476 0.985 . S
C471 C465 1.379 . S
C471 C468 1.363 . S
C471 N469 1.356 . S
C472 C466 1.363 . S
C472 C467 1.379 . S
C472 N470 1.356 . S
N473 C465 1.356 . S
N473 H479 0.984 . S
N473 H480 0.984 . S
N474 C467 1.356 . S
N474 H477 0.984 . S
N474 H478 0.985 . S
H475 N470 0.984 . S
H476 N470 0.985 . S
H477 N474 0.984 . S
H478 N474 0.985 . S
H479 N473 0.984 . S
H480 N473 0.984 . S
H481 N469 0.984 . S
H482 N469 0.985 . S
C483 C484 1.363 . S
C483 C489 1.379 . S
C483 N491 1.356 . S
C484 C483 1.363 . S
C484 C490 1.363 . S
C485 C486 1.363 . S
C485 C490 1.379 . S
C485 N492 1.356 . S
C486 C485 1.363 . S
C486 C489 1.363 . S
N487 C489 1.356 . S
N487 H499 0.984 . S
N487 H500 0.985 . S
N488 C490 1.356 . S
N488 H493 0.984 . S
N488 H494 0.985 . S
C489 C483 1.379 . S
C489 C486 1.363 . S
C489 N487 1.356 . S
C490 C484 1.363 . S
C490 C485 1.379 . S
C490 N488 1.356 . S
N491 C483 1.356 . S
N491 H497 0.984 . S
N491 H498 0.984 . S
N492 C485 1.356 . S
N492 H495 0.984 . S
N492 H496 0.985 . S
H493 N488 0.984 . S
H494 N488 0.985 . S
H495 N492 0.984 . S
H496 N492 0.985 . S
H497 N491 0.984 . S
H498 N491 0.984 . S
H499 N487 0.984 . S
H500 N487 0.985 . S
C501 C502 1.363 . S
C501 C507 1.379 . S
C501 N509 1.356 . S
C502 C501 1.363 . S
C502 C508 1.363 . S
C503 C504 1.363 . S
C503 C508 1.379 . S
C503 N510 1.356 . S
C504 C503 1.363 . S
C504 C507 1.363 . S
N505 C507 1.356 . S
N505 H517 0.984 . S
N505 H518 0.985 . S
N506 C508 1.356 . S
N506 H511 0.984 . S
N506 H512 0.985 . S
C507 C501 1.379 . S
C507 C504 1.363 . S
C507 N505 1.356 . S
C508 C502 1.363 . S
C508 C503 1.379 . S
C508 N506 1.356 . S
N509 C501 1.356 . S
N509 H515 0.984 . S
N509 H516 0.984 . S
N510 C503 1.356 . S
N510 H513 0.984 . S
N510 H514 0.985 . S
H511 N506 0.984 . S
H512 N506 0.985 . S
H513 N510 0.984 . S
H514 N510 0.985 . S
H515 N509 0.984 . S
H516 N509 0.984 . S
H517 N505 0.984 . S
H518 N505 0.985 . S
C519 C520 1.363 1_565 S
C519 C525 1.379 . S
C519 N527 1.356 . S
C520 C519 1.363 1_545 S
C520 C526 1.363 . S
C521 C522 1.363 . S
C521 C526 1.379 . S
C521 N528 1.356 . S
C522 C521 1.363 . S
C522 C525 1.363 1_545 S
N523 C525 1.356 . S
N523 H535 0.984 . S
N523 H536 0.985 . S
N524 C526 1.356 . S
N524 H529 0.984 . S
N524 H530 0.985 . S
C525 C519 1.379 . S
C525 C522 1.363 1_565 S
C525 N523 1.356 . S
C526 C520 1.363 . S
C526 C521 1.379 . S
C526 N524 1.356 . S
N527 C519 1.356 . S
N527 H533 0.984 . S
N527 H534 0.984 . S
N528 C521 1.356 . S
N528 H531 0.984 . S
N528 H532 0.985 . S
H529 N524 0.984 . S
H530 N524 0.985 . S
H531 N528 0.984 . S
H532 N528 0.985 . S
H533 N527 0.984 . S
H534 N527 0.984 . S
H535 N523 0.984 . S
H536 N523 0.985 . S
C537 C538 1.363 . S
C537 C543 1.379 . S
C537 N545 1.356 . S
C538 C537 1.363 . S
C538 C544 1.363 . S
C539 C540 1.363 . S
C539 C544 1.379 . S
C539 N546 1.356 . S
C540 C539 1.363 . S
C540 C543 1.363 . S
N541 C543 1.356 . S
N541 H553 0.984 . S
N541 H554 0.985 . S
N542 C544 1.356 . S
N542 H547 0.984 . S
N542 H548 0.985 . S
C543 C537 1.379 . S
C543 C540 1.363 . S
C543 N541 1.356 . S
C544 C538 1.363 . S
C544 C539 1.379 . S
C544 N542 1.356 . S
N545 C537 1.356 . S
N545 H551 0.984 . S
N545 H552 0.984 . S
N546 C539 1.356 . S
N546 H549 0.984 . S
N546 H550 0.985 . S
H547 N542 0.984 . S
H548 N542 0.985 . S
H549 N546 0.984 . S
H550 N546 0.985 . S
H551 N545 0.984 . S
H552 N545 0.984 . S
H553 N541 0.984 . S
H554 N541 0.985 . S
C555 C556 1.363 1_565 S
C555 C561 1.379 . S
C555 N563 1.356 . S
C556 C555 1.363 1_545 S
C556 C562 1.363 . S
C557 C558 1.363 . S
C557 C562 1.379 . S
C557 N564 1.356 . S
C558 C557 1.363 . S
C558 C561 1.363 1_545 S
N559 C561 1.356 . S
N559 H571 0.984 . S
N559 H572 0.985 . S
N560 C562 1.356 . S
N560 H565 0.984 . S
N560 H566 0.985 . S
C561 C555 1.379 . S
C561 C558 1.363 1_565 S
C561 N559 1.356 . S
C562 C556 1.363 . S
C562 C557 1.379 . S
C562 N560 1.356 . S
N563 C555 1.356 . S
N563 H569 0.984 . S
N563 H570 0.984 . S
N564 C557 1.356 . S
N564 H567 0.984 . S
N564 H568 0.985 . S
H565 N560 0.984 . S
H566 N560 0.985 . S
H567 N564 0.984 . S
H568 N564 0.985 . S
H569 N563 0.984 . S
H570 N563 0.984 . S
H571 N559 0.984 . S
H572 N559 0.985 . S
C573 C574 1.363 . S
C573 C579 1.379 . S
C573 N581 1.356 . S
C574 C573 1.363 . S
C574 C580 1.363 . S
C575 C576 1.363 . S
C575 C580 1.379 . S
C575 N582 1.356 . S
C576 C575 1.363 . S
C576 C579 1.363 . S
N577 C579 1.356 . S
N577 H589 0.984 . S
N577 H590 0.985 . S
N578 C580 1.356 . S
N578 H583 0.984 . S
N578 H584 0.985 . S
C579 C573 1.379 . S
C579 C576 1.363 . S
C579 N577 1.356 . S
C580 C574 1.363 . S
C580 C575 1.379 . S
C580 N578 1.356 . S
N581 C573 1.356 . S
N581 H587 0.984 . S
N581 H588 0.984 . S
N582 C575 1.356 . S
N582 H585 0.984 . S
N582 H586 0.985 . S
H583 N578 0.984 . S
H584 N578 0.985 . S
H585 N582 0.984 . S
H586 N582 0.985 . S
H587 N581 0.984 . S
H588 N581 0.984 . S
H589 N577 0.984 . S
H590 N577 0.985 . S
C591 C592 1.363 1_655 S
C591 C597 1.379 . S
C591 N599 1.356 . S
C592 C591 1.363 1_455 S
C592 C598 1.363 . S
C593 C594 1.363 . S
C593 C598 1.379 . S
C593 N600 1.356 . S
C594 C593 1.363 . S
C594 C597 1.363 1_455 S
N595 C597 1.356 . S
N595 H607 0.984 . S
N595 H608 0.985 . S
N596 C598 1.356 . S
N596 H601 0.984 . S
N596 H602 0.985 . S
C597 C591 1.379 . S
C597 C594 1.363 1_655 S
C597 N595 1.356 . S
C598 C592 1.363 . S
C598 C593 1.379 . S
C598 N596 1.356 . S
N599 C591 1.356 . S
N599 H605 0.984 . S
N599 H606 0.984 . S
N600 C593 1.356 . S
N600 H603 0.984 . S
N600 H604 0.985 . S
H601 N596 0.984 . S
H602 N596 0.985 . S
H603 N600 0.984 . S
H604 N600 0.985 . S
H605 N599 0.984 . S
H606 N599 0.984 . S
H607 N595 0.984 . S
H608 N595 0.985 . S
C286 C20 1.273 . S
C288 C274 1.294 . S
C304 C41 1.368 . S
C306 C202 1.324 . S
C322 C64 1.401 . S
C324 C238 1.353 . S
C340 C19 1.323 . S
C342 C250 1.405 . S
C360 C178 1.361 . S
C358 C44 1.346 . S
C378 C214 1.342 . S
C376 C67 1.331 . S
C394 C43 1.272 . S
C396 C130 1.298 . S
C412 C66 1.272 . S
C414 C142 1.326 . S
C430 C21 1.345 . S
C432 C70 1.360 . S
C450 C106 1.383 . S
C448 C42 1.309 . S
C468 C166 1.358 . S
C466 C65 1.324 . S
C484 C18 1.370 . S
C486 C94 1.326 . S
C504 C172 1.463 . S
C502 C17 1.471 . S
C520 C39 1.466 . S
C522 C100 1.463 . S
C538 C62 1.483 . S
C540 C136 1.481 . S
C558 C244 1.449 . S
C556 C40 1.454 . S
C576 C280 1.471 . S
C574 C63 1.472 . S
C592 C16 1.466 . S
C594 C208 1.463 . S
