# Generated by pormake.
# Topology pyr, (3,6)-cn, num edge types: 1
# Building blocks:
#     Node 0, Type 0, BuildingBlock: VETTIZ_charged_linker_0, # of connection points: 3
#     Node 1, Type 0, BuildingBlock: VETTIZ_charged_linker_0, # of connection points: 3
#     Node 2, Type 0, BuildingBlock: VETTIZ_charged_linker_0, # of connection points: 3
#     Node 3, Type 0, BuildingBlock: VETTIZ_charged_linker_0, # of connection points: 3
#     Node 4, Type 0, BuildingBlock: VETTIZ_charged_linker_0, # of connection points: 3
#     Node 5, Type 0, BuildingBlock: VETTIZ_charged_linker_0, # of connection points: 3
#     Node 6, Type 0, BuildingBlock: VETTIZ_charged_linker_0, # of connection points: 3
#     Node 7, Type 0, BuildingBlock: VETTIZ_charged_linker_0, # of connection points: 3
#     Node 8, Type 1, BuildingBlock: JUFBIX_clean_sbu_0, # of connection points: 6
#     Node 9, Type 1, BuildingBlock: JUFBIX_clean_sbu_0, # of connection points: 6
#     Node 10, Type 1, BuildingBlock: JUFBIX_clean_sbu_0, # of connection points: 6
#     Node 11, Type 1, BuildingBlock: JUFBIX_clean_sbu_0, # of connection points: 6
#     Edge 12, Type (0, 1), BuildingBlock: EZIPEK_clean_linker_0, # of connection points: 2
#     Edge 13, Type (0, 1), BuildingBlock: EZIPEK_clean_linker_0, # of connection points: 2
#     Edge 14, Type (0, 1), BuildingBlock: EZIPEK_clean_linker_0, # of connection points: 2
#     Edge 15, Type (0, 1), BuildingBlock: EZIPEK_clean_linker_0, # of connection points: 2
#     Edge 16, Type (0, 1), BuildingBlock: EZIPEK_clean_linker_0, # of connection points: 2
#     Edge 17, Type (0, 1), BuildingBlock: EZIPEK_clean_linker_0, # of connection points: 2
#     Edge 18, Type (0, 1), BuildingBlock: EZIPEK_clean_linker_0, # of connection points: 2
#     Edge 19, Type (0, 1), BuildingBlock: EZIPEK_clean_linker_0, # of connection points: 2
#     Edge 20, Type (0, 1), BuildingBlock: EZIPEK_clean_linker_0, # of connection points: 2
#     Edge 21, Type (0, 1), BuildingBlock: EZIPEK_clean_linker_0, # of connection points: 2
#     Edge 22, Type (0, 1), BuildingBlock: EZIPEK_clean_linker_0, # of connection points: 2
#     Edge 23, Type (0, 1), BuildingBlock: EZIPEK_clean_linker_0, # of connection points: 2
#     Edge 24, Type (0, 1), BuildingBlock: EZIPEK_clean_linker_0, # of connection points: 2
#     Edge 25, Type (0, 1), BuildingBlock: EZIPEK_clean_linker_0, # of connection points: 2
#     Edge 26, Type (0, 1), BuildingBlock: EZIPEK_clean_linker_0, # of connection points: 2
#     Edge 27, Type (0, 1), BuildingBlock: EZIPEK_clean_linker_0, # of connection points: 2
#     Edge 28, Type (0, 1), BuildingBlock: EZIPEK_clean_linker_0, # of connection points: 2
#     Edge 29, Type (0, 1), BuildingBlock: EZIPEK_clean_linker_0, # of connection points: 2
#     Edge 30, Type (0, 1), BuildingBlock: EZIPEK_clean_linker_0, # of connection points: 2
#     Edge 31, Type (0, 1), BuildingBlock: EZIPEK_clean_linker_0, # of connection points: 2
#     Edge 32, Type (0, 1), BuildingBlock: EZIPEK_clean_linker_0, # of connection points: 2
#     Edge 33, Type (0, 1), BuildingBlock: EZIPEK_clean_linker_0, # of connection points: 2
#     Edge 34, Type (0, 1), BuildingBlock: EZIPEK_clean_linker_0, # of connection points: 2
#     Edge 35, Type (0, 1), BuildingBlock: EZIPEK_clean_linker_0, # of connection points: 2
# Relax obj value: 0.066
# Max RMSD: 0.101
# Mean RMSD: 0.035
data_MOF--net-pry--node1-JUFBIX_clean_sbu_0--node2-VETTIZ_charged_linker_0--edge1-EZIPEK_clean_linker_0
_symmetry_space_group_name_H-M    P1
_symmetry_Int_Tables_number       1
_symmetry_cell_setting            triclinic
loop_
_symmetry_equiv_pos_as_xyz
'x, y, z'
_cell_length_a     35.525202
_cell_length_b     33.830769
_cell_length_c     35.684632
_cell_angle_alpha  84.391943
_cell_angle_beta   90.238712
_cell_angle_gamma 91.327789
loop_
_atom_site_label
_atom_site_type_symbol
_atom_site_fract_x
_atom_site_fract_y
_atom_site_fract_z
_atom_type_partial_charge
C0 C 0.14924 0.08412 0.28641 0.0
C1 C 0.11803 0.09761 0.30583 0.0
C2 C 0.10056 0.13258 0.29076 0.0
C3 C 0.1447 0.14044 0.23833 0.0
C4 C 0.1622 0.10612 0.25282 0.0
C5 C 0.19497 0.09675 0.22815 0.0
H6 H 0.31566 0.15822 0.0829 0.0
C7 C 0.16519 0.15715 0.20378 0.0
C8 C 0.19532 0.13209 0.19782 0.0
H9 H 0.31393 0.04491 0.15007 0.0
H10 H 0.25958 0.06434 0.18426 0.0
H11 H 0.29341 0.21405 0.14519 0.0
H12 H 0.22164 0.15447 0.06941 0.0
H13 H 0.20973 0.20489 0.06785 0.0
H14 H 0.25593 0.19222 0.05354 0.0
H15 H 0.29017 0.23119 0.09608 0.0
H16 H 0.25714 0.24632 0.12999 0.0
C17 C 0.23126 0.09566 0.25213 0.0
C18 C 0.18561 0.05723 0.21137 0.0
C19 C 0.11575 0.28128 0.12734 0.0
C20 C 0.12844 0.30514 0.09457 0.0
C21 C 0.16634 0.29899 0.08395 0.0
C22 C 0.18694 0.26628 0.09952 0.0
C23 C 0.17115 0.23988 0.1282 0.0
C24 C 0.13694 0.24886 0.143 0.0
C25 C 0.12703 0.22101 0.17737 0.0
C26 C 0.15946 0.19208 0.17879 0.0
C27 C 0.18527 0.20309 0.14966 0.0
C28 C 0.12705 0.24541 0.21203 0.0
C29 C 0.08888 0.20016 0.16991 0.0
C30 C 0.30351 0.13744 0.1048 0.0
C31 C 0.31995 0.10003 0.11388 0.0
C32 C 0.3025 0.07403 0.14255 0.0
C33 C 0.27075 0.08532 0.16239 0.0
C34 C 0.25486 0.12276 0.15301 0.0
C35 C 0.27071 0.1476 0.12381 0.0
C36 C 0.24805 0.18458 0.11505 0.0
C37 C 0.21649 0.17834 0.14407 0.0
C38 C 0.22099 0.14241 0.16716 0.0
C39 C 0.27337 0.22115 0.12157 0.0
C40 C 0.23306 0.18445 0.07428 0.0
H41 H 0.09865 0.18006 0.24755 0.0
H42 H 0.16322 0.05727 0.29724 0.0
H43 H 0.15504 0.05473 0.20482 0.0
H44 H 0.2 0.05494 0.18434 0.0
H45 H 0.19285 0.03132 0.23145 0.0
H46 H 0.23371 0.12257 0.26765 0.0
H47 H 0.23104 0.06916 0.27314 0.0
H48 H 0.25698 0.09526 0.23501 0.0
H49 H 0.08994 0.28766 0.14125 0.0
H50 H 0.18158 0.31955 0.0644 0.0
H51 H 0.21485 0.26315 0.08896 0.0
H52 H 0.1447 0.27303 0.20715 0.0
H53 H 0.09817 0.25437 0.21879 0.0
H54 H 0.13953 0.22908 0.23731 0.0
H55 H 0.08838 0.18999 0.14118 0.0
H56 H 0.08335 0.17331 0.18941 0.0
H57 H 0.06521 0.22075 0.17185 0.0
H58 H 0.07661 0.1435 0.30502 0.0
C59 C 0.11355 0.15386 0.25736 0.0
C60 C 0.32122 0.91291 0.5386 0.0
C61 C 0.30264 0.94565 0.55063 0.0
C62 C 0.32251 0.97265 0.57129 0.0
C63 C 0.37566 0.92922 0.57581 0.0
C64 C 0.35793 0.90525 0.55159 0.0
C65 C 0.38128 0.87001 0.5448 0.0
H66 H 0.52834 0.75444 0.59649 0.0
C67 C 0.40953 0.90892 0.59094 0.0
C68 C 0.41356 0.87465 0.57234 0.0
H69 H 0.45328 0.74782 0.50115 0.0
H70 H 0.42056 0.80323 0.51876 0.0
H71 H 0.54044 0.85445 0.59232 0.0
H72 H 0.46725 0.76627 0.65084 0.0
H73 H 0.46815 0.80687 0.67809 0.0
H74 H 0.51101 0.78082 0.67109 0.0
H75 H 0.55509 0.81365 0.62481 0.0
H76 H 0.53983 0.85885 0.64159 0.0
C77 C 0.3947 0.87503 0.50325 0.0
C78 C 0.35764 0.83155 0.55554 0.0
C79 C 0.46668 0.95201 0.71084 0.0
C80 C 0.48515 0.93013 0.7406 0.0
C81 C 0.50119 0.89364 0.73416 0.0
C82 C 0.4972 0.87842 0.69906 0.0
C83 C 0.47553 0.89901 0.67077 0.0
C84 C 0.46026 0.93495 0.67722 0.0
C85 C 0.43071 0.94787 0.64868 0.0
C86 C 0.43226 0.91498 0.62278 0.0
C87 C 0.45911 0.88685 0.63541 0.0
C88 C 0.44296 0.98868 0.62844 0.0
C89 C 0.39258 0.94771 0.66994 0.0
C90 C 0.50719 0.76615 0.5771 0.0
C91 C 0.49842 0.74921 0.54315 0.0
C92 C 0.46507 0.76252 0.52417 0.0
C93 C 0.44501 0.79459 0.53496 0.0
C94 C 0.4568 0.81317 0.56638 0.0
C95 C 0.48699 0.79861 0.58735 0.0
C96 C 0.49374 0.82087 0.62151 0.0
C97 C 0.46499 0.85349 0.61504 0.0
C98 C 0.44273 0.84795 0.58332 0.0
C99 C 0.53451 0.83789 0.62022 0.0
C100 C 0.48484 0.79239 0.65733 0.0
H101 H 0.37264 0.98576 0.60031 0.0
H102 H 0.30651 0.89241 0.52186 0.0
H103 H 0.34319 0.83317 0.58293 0.0
H104 H 0.37482 0.80468 0.55913 0.0
H105 H 0.33576 0.82715 0.53393 0.0
H106 H 0.39369 0.9065 0.49092 0.0
H107 H 0.37686 0.85712 0.48531 0.0
H108 H 0.4245 0.86683 0.50044 0.0
H109 H 0.45344 0.97969 0.71534 0.0
H110 H 0.51537 0.87614 0.75679 0.0
H111 H 0.50941 0.85025 0.69587 0.0
H112 H 0.47416 0.99142 0.62614 0.0
H113 H 0.43326 0.01342 0.644 0.0
H114 H 0.43264 0.99295 0.59906 0.0
H115 H 0.39022 0.92162 0.69139 0.0
H116 H 0.36762 0.94474 0.65211 0.0
H117 H 0.38993 0.97494 0.6847 0.0
H118 H 0.30874 0.99853 0.57992 0.0
C119 C 0.35927 0.96491 0.58345 0.0
C120 C 0.64619 0.24449 0.91404 0.0
C121 C 0.60745 0.23462 0.9101 0.0
C122 C 0.58455 0.26286 0.88974 0.0
C123 C 0.63878 0.30636 0.87433 0.0
C124 C 0.66056 0.28141 0.89782 0.0
C125 C 0.69805 0.30098 0.9061 0.0
H126 H 0.81907 0.46051 0.87542 0.0
C127 C 0.66222 0.34141 0.86034 0.0
C128 C 0.69647 0.33954 0.88008 0.0
H129 H 0.82478 0.36265 0.96229 0.0
H130 H 0.76887 0.33222 0.93705 0.0
H131 H 0.72712 0.47344 0.87472 0.0
H132 H 0.79512 0.40158 0.80881 0.0
H133 H 0.75941 0.42325 0.78007 0.0
H134 H 0.79466 0.45469 0.79961 0.0
H135 H 0.76307 0.49411 0.84278 0.0
H136 H 0.71679 0.48248 0.82602 0.0
C137 C 0.69885 0.30863 0.94832 0.0
C138 C 0.73006 0.27444 0.8948 0.0
C139 C 0.62079 0.42309 0.74077 0.0
C140 C 0.63833 0.45325 0.7167 0.0
C141 C 0.67349 0.46893 0.72739 0.0
C142 C 0.69108 0.45433 0.76135 0.0
C143 C 0.67362 0.42329 0.78474 0.0
C144 C 0.63894 0.40832 0.77418 0.0
C145 C 0.62448 0.37508 0.80184 0.0
C146 C 0.65709 0.37094 0.82966 0.0
C147 C 0.68568 0.39967 0.82013 0.0
C148 C 0.58809 0.38868 0.82031 0.0
C149 C 0.61859 0.33756 0.78076 0.0
C150 C 0.80797 0.4327 0.88905 0.0
C151 C 0.82604 0.4142 0.92129 0.0
C152 C 0.81118 0.37762 0.93782 0.0
C153 C 0.77857 0.3602 0.92335 0.0
C154 C 0.76013 0.37952 0.89201 0.0
C155 C 0.77512 0.41488 0.87492 0.0
C156 C 0.7521 0.43005 0.84087 0.0
C157 C 0.71912 0.40017 0.84269 0.0
C158 C 0.72442 0.37022 0.87245 0.0
C159 C 0.73909 0.4724 0.84609 0.0
C160 C 0.77644 0.42765 0.80533 0.0
H161 H 0.58132 0.31758 0.85534 0.0
H162 H 0.66469 0.22457 0.9305 0.0
H163 H 0.72549 0.26606 0.86572 0.0
H164 H 0.75791 0.28964 0.89505 0.0
H165 H 0.73118 0.24668 0.91414 0.0
H166 H 0.67024 0.30659 0.96105 0.0
H167 H 0.71647 0.28673 0.96518 0.0
H168 H 0.70928 0.33902 0.95247 0.0
H169 H 0.59374 0.41069 0.73323 0.0
H170 H 0.68744 0.49226 0.70924 0.0
H171 H 0.71771 0.46756 0.76806 0.0
H172 H 0.58467 0.4214 0.81558 0.0
H173 H 0.56255 0.37456 0.80882 0.0
H174 H 0.58846 0.382 0.85136 0.0
H175 H 0.64483 0.33089 0.76592 0.0
H176 H 0.6109 0.31088 0.79959 0.0
H177 H 0.59579 0.34192 0.75946 0.0
H178 H 0.55448 0.25747 0.88762 0.0
C179 C 0.60008 0.29794 0.87115 0.0
C180 C 1.00747 0.74264 0.45115 0.0
C181 C 0.99436 0.76222 0.48131 0.0
C182 C 0.97225 0.74119 0.50953 0.0
C183 C 0.97251 0.68314 0.47506 0.0
C184 C 0.99619 0.70304 0.44862 0.0
C185 C 1.00483 0.67839 0.41699 0.0
H186 H 0.97189 0.51111 0.33178 0.0
C187 C 0.9634 0.64371 0.46289 0.0
C188 C 0.98325 0.64005 0.42957 0.0
H189 H 0.0258 0.62103 0.28657 0.0
H190 H 0.02423 0.6456 0.34776 0.0
H191 H 0.9995 0.50052 0.41843 0.0
H192 H 0.90751 0.56451 0.36366 0.0
H193 H 0.89002 0.5335 0.40195 0.0
H194 H 0.91211 0.51158 0.36473 0.0
H195 H 0.95722 0.47523 0.40522 0.0
H196 H 0.96124 0.49613 0.44985 0.0
C197 C 0.04777 0.67203 0.41644 0.0
C198 C 0.98882 0.69963 0.37988 0.0
C199 C 0.8454 0.57035 0.50931 0.0
C200 C 0.82742 0.53699 0.49622 0.0
C201 C 0.84886 0.50904 0.47955 0.0
C202 C 0.88668 0.51754 0.47053 0.0
C203 C 0.90201 0.55497 0.47671 0.0
C204 C 0.88292 0.57904 0.49897 0.0
C205 C 0.90465 0.61689 0.50396 0.0
C206 C 0.9371 0.61371 0.47673 0.0
C207 C 0.93467 0.57784 0.45999 0.0
C208 C 0.91828 0.61546 0.54544 0.0
C209 C 0.87933 0.65262 0.49166 0.0
C210 C 0.98413 0.5401 0.3355 0.0
C211 C 0.99887 0.56415 0.30445 0.0
C212 C 1.0142 0.60193 0.31004 0.0
C213 C 1.01267 0.61641 0.34546 0.0
C214 C 0.99365 0.59391 0.37504 0.0
C215 C 0.9797 0.55637 0.36978 0.0
C216 C 0.95311 0.5405 0.40065 0.0
C217 C 0.9555 0.57351 0.4267 0.0
C218 C 0.97933 0.60467 0.41142 0.0
C219 C 0.96821 0.50086 0.41952 0.0
C220 C 0.91361 0.53701 0.3822 0.0
H221 H 0.94415 0.68707 0.5286 0.0
H222 H 0.02468 0.75835 0.42927 0.0
H223 H 0.96718 0.72163 0.38532 0.0
H224 H 0.97399 0.67879 0.36249 0.0
H225 H 1.01137 0.71587 0.36279 0.0
H226 H 0.05844 0.66371 0.44543 0.0
H227 H 0.06299 0.69966 0.40507 0.0
H228 H 0.0556 0.64768 0.39973 0.0
H229 H 0.82924 0.59145 0.52311 0.0
H230 H 0.83545 0.48262 0.47021 0.0
H231 H 0.90137 0.49649 0.45574 0.0
H232 H 0.91568 0.58507 0.56038 0.0
H233 H 0.90168 0.63535 0.56169 0.0
H234 H 0.94857 0.62379 0.54738 0.0
H235 H 0.86615 0.649 0.46382 0.0
H236 H 0.89474 0.68134 0.4886 0.0
H237 H 0.85648 0.65511 0.51238 0.0
H238 H 0.96233 0.75591 0.53314 0.0
C239 C 0.96165 0.7015 0.50679 0.0
C240 C 0.88495 0.74628 0.93624 0.0
C241 C 0.9173 0.72738 0.92444 0.0
C242 C 0.93511 0.74281 0.89084 0.0
C243 C 0.88864 0.79461 0.88082 0.0
C244 C 0.87118 0.77984 0.91401 0.0
C245 C 0.83684 0.80349 0.92164 0.0
H246 H 0.72292 0.95857 0.87117 0.0
C247 C 0.86701 0.82908 0.86374 0.0
C248 C 0.83654 0.83463 0.88756 0.0
H249 H 0.71441 0.87315 0.96927 0.0
H250 H 0.7666 0.83887 0.94743 0.0
H251 H 0.74026 0.89224 0.81396 0.0
H252 H 0.8175 0.96934 0.86874 0.0
H253 H 0.82611 0.9718 0.81976 0.0
H254 H 0.78205 0.9885 0.83619 0.0
H255 H 0.74157 0.9451 0.802 0.0
H256 H 0.77436 0.91332 0.78178 0.0
C257 C 0.80181 0.77534 0.92228 0.0
C258 C 0.84373 0.82253 0.95882 0.0
C259 C 0.91242 0.90026 0.73896 0.0
C260 C 0.89839 0.93123 0.71391 0.0
C261 C 0.86485 0.94936 0.72391 0.0
C262 C 0.84598 0.9371 0.75809 0.0
C263 C 0.86038 0.90595 0.78279 0.0
C264 C 0.89295 0.88794 0.7726 0.0
C265 C 0.90344 0.85398 0.80077 0.0
C266 C 0.87231 0.85457 0.82984 0.0
C267 C 0.84704 0.88537 0.81972 0.0
C268 C 0.90183 0.81535 0.7806 0.0
C269 C 0.94252 0.86399 0.81737 0.0
C270 C 0.73354 0.93497 0.89035 0.0
C271 C 0.71709 0.92397 0.92654 0.0
C272 C 0.72875 0.88679 0.94447 0.0
C273 C 0.75906 0.86594 0.93123 0.0
C274 C 0.77795 0.88063 0.89813 0.0
C275 C 0.76435 0.91393 0.87753 0.0
C276 C 0.7863 0.92341 0.84119 0.0
C277 C 0.81627 0.89149 0.8444 0.0
C278 C 0.81103 0.86623 0.878 0.0
C279 C 0.75934 0.91859 0.80776 0.0
C280 C 0.8039 0.96558 0.84114 0.0
H281 H 0.93611 0.78606 0.84379 0.0
H282 H 0.87053 0.73488 0.96185 0.0
H283 H 0.87291 0.83511 0.95969 0.0
H284 H 0.82514 0.84756 0.96222 0.0
H285 H 0.84014 0.80012 0.98353 0.0
H286 H 0.8049 0.75282 0.90183 0.0
H287 H 0.79761 0.75914 0.95062 0.0
H288 H 0.77579 0.79102 0.91359 0.0
H289 H 0.93783 0.88541 0.73213 0.0
H290 H 0.85322 0.9731 0.70512 0.0
H291 H 0.82074 0.9522 0.76394 0.0
H292 H 0.87994 0.81693 0.75813 0.0
H293 H 0.92918 0.81015 0.76716 0.0
H294 H 0.89365 0.7888 0.79959 0.0
H295 H 0.94538 0.89627 0.82079 0.0
H296 H 0.94711 0.84902 0.84587 0.0
H297 H 0.96559 0.85636 0.79863 0.0
H298 H 0.95987 0.7287 0.8812 0.0
C299 C 0.92111 0.77613 0.86911 0.0
C300 C 0.70708 0.09208 0.49576 0.0
C301 C 0.72213 0.05734 0.48389 0.0
C302 C 0.6984 0.03013 0.4673 0.0
C303 C 0.64879 0.07785 0.46381 0.0
C304 C 0.67004 0.10177 0.48541 0.0
C305 C 0.65025 0.13957 0.49131 0.0
H306 H 0.5194 0.27324 0.43161 0.0
C307 C 0.61634 0.10057 0.44866 0.0
C308 C 0.61618 0.13627 0.46566 0.0
H309 H 0.5958 0.27682 0.52572 0.0
H310 H 0.61705 0.21096 0.51656 0.0
H311 H 0.49255 0.17561 0.44462 0.0
H312 H 0.5753 0.24654 0.38015 0.0
H313 H 0.57053 0.20338 0.35679 0.0
H314 H 0.53065 0.23506 0.36006 0.0
H315 H 0.48349 0.21398 0.40737 0.0
H316 H 0.49199 0.16397 0.39718 0.0
C317 C 0.63886 0.13813 0.53336 0.0
C318 C 0.67638 0.17537 0.47769 0.0
C319 C 0.55999 0.06378 0.32597 0.0
C320 C 0.54423 0.08804 0.29609 0.0
C321 C 0.52917 0.12471 0.30329 0.0
C322 C 0.53222 0.13811 0.33917 0.0
C323 C 0.55249 0.11576 0.36742 0.0
C324 C 0.56595 0.07914 0.36057 0.0
C325 C 0.59351 0.06337 0.39014 0.0
C326 C 0.59322 0.09588 0.41671 0.0
C327 C 0.5689 0.12629 0.40334 0.0
C328 C 0.57815 0.02311 0.40905 0.0
C329 C 0.63212 0.06101 0.37025 0.0
C330 C 0.54023 0.25935 0.45053 0.0
C331 C 0.55601 0.27982 0.47942 0.0
C332 C 0.58339 0.26135 0.50334 0.0
C333 C 0.5957 0.22331 0.49793 0.0
C334 C 0.5811 0.20398 0.46778 0.0
C335 C 0.55347 0.2217 0.44497 0.0
C336 C 0.54298 0.19765 0.41303 0.0
C337 C 0.56668 0.16114 0.42233 0.0
C338 C 0.58963 0.1656 0.45381 0.0
C339 C 0.50041 0.18725 0.4154 0.0
C340 C 0.55521 0.22174 0.37551 0.0
H341 H 0.64479 0.01907 0.44365 0.0
H342 H 0.72482 0.11269 0.50961 0.0
H343 H 0.68826 0.17142 0.44954 0.0
H344 H 0.66174 0.20387 0.47457 0.0
H345 H 0.70021 0.17833 0.49754 0.0
H346 H 0.6388 0.10733 0.54753 0.0
H347 H 0.65857 0.15627 0.54925 0.0
H348 H 0.60979 0.1484 0.53683 0.0
H349 H 0.5719 0.03559 0.32094 0.0
H350 H 0.51669 0.14383 0.2807 0.0
H351 H 0.52066 0.16643 0.34288 0.0
H352 H 0.54691 0.02097 0.40721 0.0
H353 H 0.58963 0.99782 0.39541 0.0
H354 H 0.58447 0.01918 0.43959 0.0
H355 H 0.63883 0.08942 0.35293 0.0
H356 H 0.65618 0.05603 0.38925 0.0
H357 H 0.63177 0.03678 0.35137 0.0
H358 H 0.70944 1.0027 0.45901 0.0
C359 C 0.66131 0.03993 0.45791 0.0
C360 C 0.42474 0.61333 0.28755 0.0
C361 C 0.41691 0.57454 0.30478 0.0
C362 C 0.38188 0.55713 0.29432 0.0
C363 C 0.37119 0.61088 0.24481 0.0
C364 C 0.40289 0.62987 0.25745 0.0
C365 C 0.41135 0.66873 0.23484 0.0
H366 H 0.37765 0.80251 0.08657 0.0
C367 C 0.35527 0.63673 0.21234 0.0
C368 C 0.37926 0.67052 0.20666 0.0
H369 H 0.46818 0.80233 0.16765 0.0
H370 H 0.44196 0.74305 0.20155 0.0
H371 H 0.3144 0.78446 0.14537 0.0
H372 H 0.37085 0.70298 0.08058 0.0
H373 H 0.32122 0.69744 0.07687 0.0
H374 H 0.34344 0.74422 0.0614 0.0
H375 H 0.29758 0.77459 0.09973 0.0
H376 H 0.28265 0.74437 0.14187 0.0
C377 C 0.40904 0.70223 0.26144 0.0
C378 C 0.45025 0.6656 0.21568 0.0
C379 C 0.23768 0.59559 0.13901 0.0
C380 C 0.21501 0.61641 0.11114 0.0
C381 C 0.22556 0.65612 0.09903 0.0
C382 C 0.25841 0.67394 0.11245 0.0
C383 C 0.28088 0.65267 0.13955 0.0
C384 C 0.26967 0.6147 0.15361 0.0
C385 C 0.29426 0.59932 0.1865 0.0
C386 C 0.32324 0.63326 0.18813 0.0
C387 C 0.31551 0.66413 0.15978 0.0
C388 C 0.26951 0.59397 0.22223 0.0
C389 C 0.31267 0.56066 0.17708 0.0
C390 C 0.39176 0.78926 0.1115 0.0
C391 C 0.42539 0.8066 0.12426 0.0
C392 C 0.44259 0.7892 0.15719 0.0
C393 C 0.42723 0.75473 0.17678 0.0
C394 C 0.39412 0.73713 0.16347 0.0
C395 C 0.37654 0.75465 0.13166 0.0
C396 C 0.34049 0.73255 0.12308 0.0
C397 C 0.34064 0.69772 0.15377 0.0
C398 C 0.37217 0.70077 0.17718 0.0
C399 C 0.30694 0.76029 0.12745 0.0
C400 C 0.3439 0.71854 0.08331 0.0
H401 H 0.33457 0.5587 0.257 0.0
H402 H 0.44763 0.63144 0.297 0.0
H403 H 0.45611 0.63441 0.21054 0.0
H404 H 0.45191 0.68215 0.18744 0.0
H405 H 0.47346 0.67598 0.23349 0.0
H406 H 0.38648 0.69545 0.2828 0.0
H407 H 0.43596 0.70585 0.27679 0.0
H408 H 0.40146 0.73116 0.24655 0.0
H409 H 0.23017 0.56541 0.14975 0.0
H410 H 0.20848 0.67335 0.0785 0.0
H411 H 0.265 0.70387 0.10136 0.0
H412 H 0.24949 0.61875 0.22251 0.0
H413 H 0.25273 0.56574 0.22346 0.0
H414 H 0.28606 0.59457 0.24839 0.0
H415 H 0.32565 0.56487 0.14862 0.0
H416 H 0.33535 0.55128 0.19696 0.0
H417 H 0.2914 0.53603 0.17726 0.0
H418 H 0.37017 0.53071 0.30959 0.0
C419 C 0.35982 0.57438 0.26411 0.0
C420 C 0.03227 0.25531 0.58603 0.0
C421 C 0.04503 0.23589 0.55557 0.0
C422 C 0.07647 0.25131 0.53478 0.0
C423 C 0.08783 0.29839 0.58037 0.0
C424 C 0.05452 0.28625 0.59846 0.0
C425 C 0.04927 0.30604 0.63416 0.0
H426 H 0.13475 0.39054 0.77647 0.0
C427 C 0.1096 0.32257 0.60514 0.0
C428 C 0.08752 0.32679 0.63699 0.0
H429 H 1.01557 0.38905 0.75227 0.0
H430 H 0.02707 0.35499 0.69638 0.0
H431 H 0.14461 0.4315 0.69617 0.0
H432 H 0.16546 0.31133 0.74132 0.0
H433 H 0.20247 0.32592 0.71002 0.0
H434 H 0.1958 0.35226 0.75107 0.0
H435 H 0.18349 0.41902 0.72706 0.0
H436 H 0.18687 0.41868 0.6768 0.0
C437 C 1.01681 0.33597 0.62813 0.0
C438 C 0.04229 0.2742 0.66769 0.0
C439 C 0.24293 0.37045 0.57164 0.0
C440 C 0.27087 0.38803 0.59292 0.0
C441 C 0.26654 0.38812 0.632 0.0
C442 C 0.23333 0.37363 0.64952 0.0
C443 C 0.20397 0.35981 0.62749 0.0
C444 C 0.20959 0.35635 0.58966 0.0
C445 C 0.17619 0.33711 0.57198 0.0
C446 C 0.14819 0.33449 0.60439 0.0
C447 C 0.16474 0.34812 0.63655 0.0
C448 C 0.16236 0.36509 0.53809 0.0
C449 C 0.18792 0.29558 0.56152 0.0
C450 C 0.11095 0.38148 0.75995 0.0
C451 C 0.07424 0.39149 0.76918 0.0
C452 C 0.04402 0.38087 0.74611 0.0
C453 C 0.05066 0.36155 0.71372 0.0
C454 C 0.08786 0.35424 0.70373 0.0
C455 C 0.11728 0.36549 0.72607 0.0
C456 C 0.15438 0.36704 0.7059 0.0
C457 C 0.14258 0.35265 0.66864 0.0
C458 C 0.10387 0.34378 0.66814 0.0
C459 C 0.16855 0.41108 0.70135 0.0
C460 C 0.18124 0.3379 0.72818 0.0
H461 H 0.12229 0.2926 0.5309 0.0
H462 H 1.00783 0.24383 0.60191 0.0
H463 H 0.06505 0.25206 0.66958 0.0
H464 H 0.04135 0.28733 0.69482 0.0
H465 H 1.01497 0.25823 0.66453 0.0
H466 H 1.00554 0.33809 0.59888 0.0
H467 H 0.99266 0.32726 0.64708 0.0
H468 H 0.0263 0.36657 0.633 0.0
H469 H 0.24648 0.36919 0.54166 0.0
H470 H 0.28839 0.40085 0.64871 0.0
H471 H 0.23133 0.37507 0.67933 0.0
H472 H 0.16024 0.39597 0.54597 0.0
H473 H 0.18219 0.36558 0.51405 0.0
H474 H 0.13408 0.35641 0.5283 0.0
H475 H 0.21599 0.28691 0.57312 0.0
H476 H 0.16823 0.27163 0.57323 0.0
H477 H 0.1896 0.29477 0.53052 0.0
H478 H 0.08616 0.23694 0.51087 0.0
C479 C 0.09781 0.28283 0.54691 0.0
Co480 Co 0.98484 0.00782 0.49534 0.0
C481 C 1.01163 0.93109 0.49453 0.0
Co482 Co 0.04 0.99873 0.52227 0.0
C483 C 0.90774 0.02877 0.48685 0.0
C484 C 0.92786 1.00281 0.43851 0.0
N485 N 0.93889 0.01452 0.47201 0.0
N486 N 0.87766 0.02572 0.46426 0.0
C487 C 0.89 0.00969 0.43367 0.0
H488 H 0.90674 0.03994 0.51424 0.0
H489 H 0.9459 0.98908 0.41942 0.0
C490 C 1.0135 0.07473 0.52437 0.0
N491 N 0.08589 0.99184 0.54581 0.0
C492 C 0.11732 0.97752 0.53152 0.0
C493 C 0.09601 1.00222 0.58007 0.0
N494 N 0.14663 0.97905 0.55535 0.0
C495 C 0.13351 0.99431 0.58603 0.0
C496 C 0.04662 0.02661 0.44585 0.0
O497 O 0.9854 0.06171 0.50673 0.0
O498 O 0.04021 0.05163 0.53396 0.0
O499 O 0.06539 0.01628 0.47551 0.0
O500 O 1.01074 0.02421 0.44765 0.0
O501 O 0.04022 0.94576 0.50997 0.0
H502 H 0.0775 0.01536 0.59914 0.0
H503 H 0.11893 0.96689 0.50393 0.0
O504 O 0.98418 0.95346 0.48518 0.0
O505 O 0.95939 0.992 0.54213 0.0
O506 O 1.01371 0.98139 0.56988 0.0
C507 C 0.9778 0.98123 0.57176 0.0
H508 H 0.87266 1.00272 0.41007 0.0
H509 H 0.15005 0.99972 0.61064 0.0
Co510 Co 0.50404 0.01053 0.99016 0.0
C511 C 0.49642 0.95019 0.04937 0.0
Co512 Co 0.53377 0.02394 0.04155 0.0
C513 C 0.49133 0.99898 0.91202 0.0
C514 C 0.44641 0.97536 0.94798 0.0
N515 N 0.47858 0.99734 0.94775 0.0
N516 N 0.46927 0.97727 0.89048 0.0
C517 C 0.44095 0.96251 0.91305 0.0
H518 H 0.51759 0.01346 0.90266 0.0
H519 H 0.42937 0.96689 0.97265 0.0
C520 C 0.54117 0.08444 0.98164 0.0
N521 N 0.55876 0.03658 0.08452 0.0
C522 C 0.54521 0.03298 0.12 0.0
C523 C 0.59119 0.05781 0.08636 0.0
N524 N 0.56691 0.05278 0.14334 0.0
C525 C 0.59599 0.06832 0.12229 0.0
C526 C 0.57994 0.98684 0.99148 0.0
O527 O 0.52087 0.06052 0.96436 0.0
O528 O 0.54865 0.07463 1.01618 0.0
O529 O 0.57934 1.00127 0.02322 0.0
O530 O 0.54932 0.98636 0.97271 0.0
O531 O 0.51791 0.97282 0.06691 0.0
H532 H 0.60947 0.06653 0.0629 0.0
H533 H 0.51885 0.01809 0.12819 0.0
O534 O 0.48791 0.96079 1.01546 0.0
O535 O 0.45834 0.03458 1.00855 0.0
O536 O 0.4889 0.04712 0.05932 0.0
C537 C 0.45818 0.04803 0.04086 0.0
H538 H 0.41859 0.94267 0.90509 0.0
H539 H 0.61854 0.08682 0.13207 0.0
Co540 Co 0.55997 0.52159 0.49536 0.0
C541 C 0.5001 0.53211 0.44388 0.0
Co542 Co 0.50442 0.51391 0.52197 0.0
C543 C 0.63947 0.53707 0.48858 0.0
C544 C 0.61638 0.51243 0.44015 0.0
N545 N 0.60666 0.5263 0.47291 0.0
N546 N 0.66912 0.52954 0.46732 0.0
C547 C 0.65494 0.51441 0.43664 0.0
H548 H 0.64188 0.54801 0.51602 0.0
H549 H 0.59691 0.49942 0.42119 0.0
C550 C 0.56401 0.50195 0.57329 0.0
N551 N 0.45821 0.50779 0.54456 0.0
C552 C 0.42969 0.48377 0.53509 0.0
C553 C 0.44685 0.52271 0.57625 0.0
N554 N 0.40139 0.48262 0.56 0.0
C555 C 0.4117 0.50712 0.58589 0.0
C556 C 0.53195 0.44433 0.49982 0.0
O557 O 0.58349 0.51166 0.54392 0.0
O558 O 0.52831 0.50086 0.57028 0.0
O559 O 0.50341 0.459 0.514 0.0
O560 O 0.56001 0.4667 0.4901 0.0
O561 O 0.48049 0.52653 0.47378 0.0
H562 H 0.46371 0.54229 0.59212 0.0
H563 H 0.43034 0.46592 0.51155 0.0
O564 O 0.53581 0.53086 0.44687 0.0
O565 O 0.5601 0.57698 0.50064 0.0
O566 O 0.50559 0.56883 0.52963 0.0
C567 C 0.53284 0.59135 0.5174 0.0
H568 H 0.67142 0.50396 0.41431 0.0
H569 H 0.3956 0.51201 0.61064 0.0
Co570 Co 0.032 0.51628 0.9915 0.0
C571 C 0.9588 0.48233 0.99238 0.0
Co572 Co 1.0031 0.51761 0.04547 0.0
C573 C 0.05728 0.4826 0.9259 0.0
C574 C 0.06259 0.54607 0.91986 0.0
N575 N 0.05457 0.51476 0.9452 0.0
N576 N 0.06495 0.49271 0.8892 0.0
C577 C 0.06826 0.53264 0.88532 0.0
H578 H 0.05088 0.45254 0.93781 0.0
H579 H 0.06182 0.5769 0.92539 0.0
C580 C 0.077 0.55095 0.04451 0.0
N581 N 0.97929 0.52047 0.09095 0.0
C582 C 0.99427 0.51487 0.12581 0.0
C583 C 0.94591 0.53754 0.0956 0.0
N584 N 0.97246 0.52972 0.15168 0.0
C585 C 0.94189 0.54375 0.13279 0.0
C586 C 0.04608 0.44939 0.04207 0.0
O587 O 0.07674 0.54059 1.01109 0.0
O588 O 0.04684 0.54553 0.06378 0.0
O589 O 0.02549 0.46735 0.06391 0.0
O590 O 0.05132 0.4652 1.00858 0.0
O591 O 0.95954 0.48975 0.02674 0.0
H592 H 0.92694 0.54747 0.07302 0.0
H593 H 1.02187 0.50295 0.13172 0.0
O594 O 0.98763 0.49153 0.97212 0.0
O595 O 1.01207 0.56759 0.97448 0.0
O596 O 0.981 0.56777 0.02691 0.0
C597 C 0.98886 0.58433 0.99434 0.0
H598 H 0.07315 0.55084 0.85903 0.0
H599 H 0.91913 0.55908 0.14481 0.0
C600 C 0.0772 0.04361 0.34153 0.0
C601 C 0.10304 0.07626 0.34214 0.0
C602 C 0.09067 0.07753 0.41017 0.0
C603 C 0.06657 0.04326 0.41012 0.0
N604 N 0.04358 0.98895 0.37698 0.0
N605 N 0.13979 0.11942 0.37849 0.0
C606 C 0.06168 0.02504 0.37606 0.0
C607 C 0.11144 0.09161 0.37699 0.0
N608 N 0.06659 0.03093 0.30777 0.0
N609 N 0.09224 0.09809 0.4413 0.0
H610 H 0.15532 0.13048 0.35485 0.0
H611 H 0.15019 0.12878 0.40356 0.0
H612 H 0.07702 0.08957 0.46577 0.0
H613 H 0.10583 0.12564 0.44175 0.0
H614 H 0.04457 0.01059 0.30488 0.0
H615 H 0.07811 0.04285 0.28216 0.0
H616 H 0.04215 0.97205 0.35412 0.0
H617 H 0.03333 0.97408 0.40188 0.0
C618 C 0.44645 0.95114 0.79378 0.0
C619 C 0.48236 0.94279 0.7794 0.0
C620 C 0.51016 0.95405 0.84049 0.0
C621 C 0.47521 0.96841 0.8522 0.0
N622 N 0.41343 0.99149 0.8343 0.0
N623 N 0.54998 0.94537 0.78715 0.0
C624 C 0.44443 0.9705 0.82694 0.0
C625 C 0.51483 0.94708 0.80212 0.0
N626 N 0.41416 0.9386 0.77724 0.0
N627 N 0.53799 0.94452 0.86605 0.0
H628 H 0.5545 0.9417 0.75886 0.0
H629 H 0.57438 0.95173 0.80198 0.0
H630 H 0.53459 0.94554 0.8949 0.0
H631 H 0.56271 0.931 0.85902 0.0
H632 H 0.38756 0.94183 0.78867 0.0
H633 H 0.41424 0.9205 0.75523 0.0
H634 H 0.39135 0.99604 0.81512 0.0
H635 H 0.41205 0.00814 0.85735 0.0
C636 C 0.59742 0.50084 0.6762 0.0
C637 C 0.62043 0.46686 0.67956 0.0
C638 C 0.6075 0.45673 0.61309 0.0
C639 C 0.58302 0.48971 0.61015 0.0
N640 N 0.55188 0.54119 0.63961 0.0
N641 N 0.64534 0.41033 0.6528 0.0
C642 C 0.57715 0.51114 0.64198 0.0
C643 C 0.62503 0.44437 0.64833 0.0
N644 N 0.59562 0.52376 0.70565 0.0
N645 N 0.61389 0.43697 0.58212 0.0
H646 H 0.6601 0.4014 0.67738 0.0
H647 H 0.6462 0.38963 0.63312 0.0
H648 H 0.59871 0.4418 0.55713 0.0
H649 H 0.63519 0.41664 0.58042 0.0
H650 H 0.58298 0.55129 0.70414 0.0
H651 H 0.60902 0.51642 0.73137 0.0
H652 H 0.54275 0.55503 0.6626 0.0
H653 H 0.53819 0.55124 0.61473 0.0
C654 C 0.957 0.54036 0.25341 0.0
C655 C 0.99339 0.55227 0.26555 0.0
C656 C 1.0159 0.55215 0.20091 0.0
C657 C 0.98119 0.53451 0.19051 0.0
N658 N 0.92309 0.50121 0.21081 0.0
N659 N 0.05996 0.559 0.25177 0.0
C660 C 0.95324 0.52496 0.21816 0.0
C661 C 0.02375 0.55471 0.23964 0.0
N662 N 0.92556 0.54647 0.27378 0.0
N663 N 0.04012 0.56928 0.17419 0.0
H664 H 0.0669 0.55927 0.28018 0.0
H665 H 0.08304 0.5579 0.23397 0.0
H666 H 0.03399 0.57178 0.14551 0.0
H667 H 0.06403 0.58558 0.18096 0.0
H668 H 0.89843 0.54067 0.26416 0.0
H669 H 0.92616 0.56219 0.29745 0.0
H670 H 0.90329 0.49127 0.2313 0.0
H671 H 0.92052 0.48791 0.18571 0.0
C672 C 0.38675 0.07323 0.11609 0.0
C673 C 0.35555 0.08802 0.09436 0.0
C674 C 0.39365 0.0822 0.03708 0.0
C675 C 0.42229 0.06164 0.05875 0.0
N676 N 0.43757 0.02705 0.11954 0.0
N677 N 0.32721 0.09715 0.03251 0.0
C678 C 0.41647 0.05422 0.09847 0.0
C679 C 0.3584 0.08986 0.05433 0.0
N680 N 0.38883 0.07816 0.15357 0.0
N681 N 0.40029 0.09612 1.00045 0.0
H682 H 0.30062 0.10069 0.04376 0.0
H683 H 0.32704 0.09517 1.00354 0.0
H684 H 0.42615 0.09365 0.98732 0.0
H685 H 0.38158 0.11426 0.9846 0.0
H686 H 0.41231 0.0703 0.17 0.0
H687 H 0.3692 0.09421 0.16715 0.0
H688 H 0.43225 0.01859 0.14794 0.0
H689 H 0.45658 0.00885 0.10783 0.0
C690 C 0.23688 0.92521 0.57063 0.0
C691 C 0.26135 0.9496 0.5463 0.0
C692 C 0.20886 0.99207 0.52558 0.0
C693 C 0.18453 0.96733 0.54941 0.0
N694 N 0.17241 0.90599 0.58738 0.0
N695 N 0.26986 1.00068 0.495 0.0
C696 C 0.1977 0.93236 0.56953 0.0
C697 C 0.24698 0.98124 0.52181 0.0
N698 N 0.25125 0.89684 0.59638 0.0
N699 N 0.19584 0.02686 0.50814 0.0
H700 H 0.29789 0.99312 0.49169 0.0
H701 H 0.26035 0.02175 0.47409 0.0
H702 H 0.16804 0.0355 0.51056 0.0
H703 H 0.21302 0.04837 0.49348 0.0
H704 H 0.23524 0.88147 0.61768 0.0
H705 H 0.27979 0.89049 0.5984 0.0
H706 H 0.17958 0.87795 0.59959 0.0
H707 H 0.1435 0.91089 0.58692 0.0
C708 C 0.89625 0.41599 0.935 0.0
C709 C 0.86024 0.43275 0.93845 0.0
C710 C 0.88906 0.48347 0.97563 0.0
C711 C 0.92438 0.46443 0.97519 0.0
N712 N 0.9598 0.40832 0.95968 0.0
N713 N 0.82127 0.4787 0.96719 0.0
C714 C 0.92748 0.42956 0.95618 0.0
C715 C 0.85638 0.46548 0.9602 0.0
N716 N 0.90084 0.38767 0.91069 0.0
N717 N 0.8869 0.51978 0.98917 0.0
H718 H 0.79677 0.4668 0.95611 0.0
H719 H 0.81614 0.49921 0.9864 0.0
H720 H 0.90989 0.53426 1.00042 0.0
H721 H 0.86314 0.53729 0.98613 0.0
H722 H 0.92697 0.37712 0.90382 0.0
H723 H 0.87876 0.37715 0.89476 0.0
H724 H 0.9626 0.38061 0.94976 0.0
H725 H 0.98281 0.41658 0.97566 0.0
C726 C 0.76289 0.50953 0.51407 0.0
C727 C 0.78606 0.5365 0.49111 0.0
C728 C 0.73067 0.56269 0.45689 0.0
C729 C 0.70819 0.533 0.47694 0.0
N730 N 0.70231 0.47496 0.52136 0.0
N731 N 0.79311 0.58436 0.43631 0.0
C732 C 0.72407 0.50562 0.5049 0.0
C733 C 0.77026 0.56209 0.46139 0.0
N734 N 0.77798 0.48814 0.54475 0.0
N735 N 0.71382 0.59185 0.43397 0.0
H736 H 0.8224 0.58451 0.43789 0.0
H737 H 0.78317 0.60011 0.41187 0.0
H738 H 0.68471 0.59277 0.43026 0.0
H739 H 0.72823 0.61686 0.42146 0.0
H740 H 0.76192 0.47077 0.56472 0.0
H741 H 0.80643 0.49021 0.5518 0.0
H742 H 0.71291 0.4517 0.53931 0.0
H743 H 0.67394 0.4711 0.51479 0.0
C744 C 0.06448 0.34063 0.08176 0.0
C745 C 0.10391 0.33826 0.07476 0.0
C746 C 0.10341 0.4064 0.04421 0.0
C747 C 0.06547 0.41119 0.05509 0.0
N748 N 1.00885 0.38102 0.08372 0.0
N749 N 0.14253 0.35823 0.02043 0.0
C750 C 0.04569 0.37779 0.07389 0.0
C751 C 0.11906 0.36811 0.04794 0.0
N752 N 0.04388 0.30623 0.08943 0.0
N753 N 0.12523 0.43827 0.03058 0.0
H754 H 0.14632 0.32861 1.01568 0.0
H755 H 0.1521 0.37886 0.99869 0.0
H756 H 0.11633 0.4675 0.02975 0.0
H757 H 0.15367 0.43548 0.0243 0.0
H758 H 1.01468 0.30491 0.09173 0.0
H759 H 0.0556 0.27844 0.08786 0.0
H760 H 0.99469 0.35995 0.10206 0.0
H761 H 0.99271 0.40551 0.07493 0.0
C762 C 0.60127 0.17957 0.96439 0.0
C763 C 0.59044 0.19571 0.92781 0.0
C764 C 0.54237 0.14187 0.92833 0.0
C765 C 0.5581 0.12228 0.96177 0.0
N766 N 0.61545 0.11724 0.99875 0.0
N767 N 0.55842 0.1813 0.87029 0.0
C768 C 0.59132 0.13956 0.97631 0.0
C769 C 0.56323 0.17368 0.90823 0.0
N770 N 0.61988 0.20208 0.98853 0.0
N771 N 0.50733 0.13182 0.91608 0.0
H772 H 0.57569 0.20125 0.85373 0.0
H773 H 0.54064 0.16392 0.85492 0.0
H774 H 0.48917 0.11189 0.93148 0.0
H775 H 0.49456 0.14749 0.89299 0.0
H776 H 0.62647 0.19089 1.01602 0.0
H777 H 0.62414 0.23267 0.98283 0.0
H778 H 0.64064 0.12899 1.00857 0.0
H779 H 0.61348 0.0863 1.00154 0.0
C780 C 0.02434 0.81878 0.51152 0.0
C781 C 1.00159 0.80537 0.48254 0.0
C782 C 0.99141 0.87419 0.45742 0.0
C783 C 1.00933 0.88777 0.48974 0.0
N784 N 0.03489 0.87034 0.5525 0.0
N785 N 0.95743 0.82024 0.43175 0.0
C786 C 0.02393 0.85943 0.51811 0.0
C787 C 0.98345 0.83302 0.45649 0.0
N788 N 0.0465 0.79271 0.53273 0.0
N789 N 0.98316 0.90013 0.42689 0.0
H790 H 0.95035 0.79035 0.43025 0.0
H791 H 0.94032 0.83953 0.41515 0.0
H792 H 0.98946 0.93036 0.42544 0.0
H793 H 0.97376 0.89096 0.40136 0.0
H794 H 0.06657 0.80174 0.55171 0.0
H795 H 0.0475 0.76264 0.52858 0.0
H796 H 0.04205 0.84983 0.57495 0.0
H797 H 0.03247 0.89885 0.56065 0.0
C798 C 0.54769 0.69378 0.55159 0.0
C799 C 0.52011 0.71498 0.52946 0.0
C800 C 0.51174 0.65877 0.49207 0.0
C801 C 0.5313 0.63457 0.52003 0.0
N802 N 0.57159 0.62944 0.57485 0.0
N803 N 0.50489 0.72592 0.4636 0.0
C804 C 0.55075 0.65222 0.5492 0.0
C805 C 0.51065 0.70014 0.49481 0.0
N806 N 0.57503 0.71413 0.56911 0.0
N807 N 0.49306 0.64238 0.46367 0.0
H808 H 0.50847 0.75658 0.4644 0.0
H809 H 0.50124 0.71675 0.43674 0.0
H810 H 0.49262 0.612 0.46098 0.0
H811 H 0.47561 0.65876 0.44472 0.0
H812 H 0.59772 0.7005 0.58325 0.0
H813 H 0.57799 0.74497 0.56405 0.0
H814 H 0.58279 0.64016 0.59904 0.0
H815 H 0.5759 0.59931 0.57285 0.0
C816 C 0.93331 0.98349 0.66967 0.0
C817 C 0.91845 0.94407 0.6771 0.0
C818 C 0.94436 0.92826 0.61607 0.0
C819 C 0.95705 0.96834 0.60788 0.0
N820 N 0.95241 0.03614 0.62207 0.0
N821 N 0.90318 0.88134 0.65322 0.0
C822 C 0.9483 0.99655 0.63332 0.0
C823 C 0.92231 0.91703 0.64917 0.0
N824 N 0.9344 0.00825 0.6977 0.0
N825 N 0.95307 0.90087 0.59197 0.0
H826 H 0.88581 0.8726 0.67616 0.0
H827 H 0.90159 0.86196 0.63231 0.0
H828 H 0.96632 0.9086 0.5662 0.0
H829 H 0.94902 0.87038 0.59835 0.0
H830 H 0.94834 0.03582 0.69497 0.0
H831 H 0.92468 0.99968 0.72489 0.0
H832 H 0.94339 0.05826 0.63809 0.0
H833 H 0.96061 0.04667 0.59483 0.0
C834 C 0.51791 0.07736 0.23163 0.0
C835 C 0.54899 0.07778 0.2567 0.0
C836 C 0.58888 0.05329 0.20879 0.0
C837 C 0.55966 0.05908 0.182 0.0
N838 N 0.49898 0.08733 0.1664 0.0
N839 N 0.61702 0.07834 0.26334 0.0
C840 C 0.52469 0.07394 0.19289 0.0
C841 C 0.58543 0.06913 0.24374 0.0
N842 N 0.482 0.0794 0.24465 0.0
N843 N 0.61972 0.0322 0.20112 0.0
H844 H 0.61626 0.09406 0.287 0.0
H845 H 0.64413 0.07502 0.25317 0.0
H846 H 0.62212 0.0183 0.17642 0.0
H847 H 0.64052 0.0248 0.22114 0.0
H848 H 0.45842 0.07591 0.22768 0.0
H849 H 0.47584 0.08039 0.27309 0.0
H850 H 0.47479 0.10197 0.17315 0.0
H851 H 0.50397 0.08842 0.13758 0.0
C852 C 0.47959 0.5731 0.34176 0.0
C853 C 0.44367 0.55559 0.33536 0.0
C854 C 0.45163 0.5134 0.39521 0.0
C855 C 0.48162 0.53897 0.40577 0.0
N856 N 0.52322 0.59545 0.38737 0.0
N857 N 0.41794 0.48903 0.34281 0.0
C858 C 0.49562 0.56918 0.37845 0.0
C859 C 0.43501 0.51996 0.35853 0.0
N860 N 0.50095 0.58834 0.31186 0.0
N861 N 0.43975 0.48184 0.41939 0.0
H862 H 0.41508 0.48933 0.31366 0.0
H863 H 0.41323 0.46104 0.35712 0.0
H864 H 0.45423 0.47203 0.44386 0.0
H865 H 0.4148 0.46597 0.41535 0.0
H866 H 0.5288 0.5981 0.31463 0.0
H867 H 0.49239 0.58584 0.28414 0.0
H868 H 0.53127 0.62007 0.36902 0.0
H869 H 0.53556 0.59512 0.4139 0.0
C870 C 0.09191 0.45338 0.79901 0.0
C871 C 0.06907 0.41833 0.79939 0.0
C872 C 0.03812 0.43696 0.85589 0.0
C873 C 0.06632 0.46692 0.85938 0.0
N874 N 0.12648 0.49531 0.83834 0.0
N875 N 0.02471 0.37295 0.83347 0.0
C876 C 0.0952 0.4727 0.83214 0.0
C877 C 0.04331 0.40886 0.82939 0.0
N878 N 0.10934 0.4692 0.76677 0.0
N879 N 1.0055 0.43657 0.87598 0.0
H880 H 0.02895 0.35088 0.81559 0.0
H881 H 1.00807 0.36385 0.85689 0.0
H882 H 0.99885 0.45899 0.89271 0.0
H883 H 0.98314 0.41689 0.87205 0.0
H884 H 0.12432 0.4962 0.76507 0.0
H885 H 0.10464 0.45807 0.74089 0.0
H886 H 0.14936 0.49785 0.81996 0.0
H887 H 0.13147 0.5072 0.86383 0.0
C888 C 0.66602 0.97933 0.926 0.0
C889 C 0.68634 0.94764 0.94526 0.0
C890 C 0.64121 0.94821 0.99812 0.0
C891 C 0.61668 0.97341 0.97552 0.0
N892 N 0.60766 0.01451 0.91676 0.0
N893 N 0.70561 0.9288 1.00917 0.0
C894 C 0.62941 0.98891 0.93891 0.0
C895 C 0.67749 0.93938 0.98425 0.0
N896 N 0.68468 1.00618 0.90138 0.0
N897 N 0.62976 0.93135 0.03263 0.0
H898 H 0.73373 0.9286 1.00082 0.0
H899 H 0.70198 0.92617 0.03828 0.0
H900 H 0.60386 0.93679 0.04437 0.0
H901 H 0.64483 0.90923 0.04812 0.0
H902 H 0.67234 0.0314 0.88794 0.0
H903 H 0.71403 0.00788 0.90104 0.0
H904 H 0.61332 0.02207 0.88827 0.0
H905 H 0.58345 0.02713 0.9262 0.0
C906 C 0.78468 0.07534 0.45407 0.0
C907 C 0.76339 0.05238 0.48242 0.0
C908 C 0.81812 0.0116 0.49897 0.0
C909 C 0.83965 0.03579 0.47196 0.0
N910 N 0.84668 0.09521 0.42989 0.0
N911 N 0.76095 1.00366 0.53629 0.0
C912 C 0.82386 0.06917 0.45146 0.0
C913 C 0.78054 0.02206 0.50638 0.0
N914 N 0.76721 0.10145 0.42831 0.0
N915 N 0.83316 0.97769 0.51616 0.0
H916 H 0.73334 0.01083 0.54227 0.0
H917 H 0.77295 0.98385 0.55687 0.0
H918 H 0.86048 0.96911 0.51087 0.0
H919 H 0.81778 0.95658 0.53334 0.0
H920 H 0.78068 0.11552 0.40462 0.0
H921 H 0.73845 0.10675 0.42863 0.0
H922 H 0.8377 0.12241 0.41717 0.0
H923 H 0.87558 0.09118 0.4276 0.0
C924 C 0.17484 0.60094 0.05451 0.0
C925 C 0.18028 0.5977 0.0943 0.0
C926 C 0.1216 0.55726 0.10037 0.0
C927 C 0.11266 0.56717 0.0616 0.0
N928 N 0.12901 0.60804 1.00419 0.0
N929 N 0.15198 0.58 0.1554 0.0
C930 C 0.13879 0.59174 0.0393 0.0
C931 C 0.15165 0.57798 0.11738 0.0
N932 N 0.20435 0.61132 0.03092 0.0
N933 N 0.10324 0.52644 0.12067 0.0
H934 H 0.17159 0.59718 0.16883 0.0
H935 H 0.1302 0.56825 0.17286 0.0
H936 H 0.08451 0.50732 0.10843 0.0
H937 H 0.11069 0.51656 0.14824 0.0
H938 H 0.20235 0.61089 1.0018 0.0
H939 H 0.23174 0.61551 0.04065 0.0
H940 H 0.14626 0.62863 0.98833 0.0
H941 H 0.1021 0.60507 0.99294 0.0
C942 C 0.33945 0.39164 0.5792 0.0
C943 C 0.30379 0.40931 0.57494 0.0
C944 C 0.33357 0.47268 0.55123 0.0
C945 C 0.36889 0.45673 0.56152 0.0
N946 N 0.40675 0.40215 0.58634 0.0
N947 N 0.26576 0.46647 0.55741 0.0
C948 C 0.37233 0.41626 0.57521 0.0
C949 C 0.30042 0.44967 0.56039 0.0
N950 N 0.34157 0.35143 0.5873 0.0
N951 N 0.33209 0.5099 0.53272 0.0
H952 H 0.24073 0.4503 0.56293 0.0
H953 H 0.26178 0.4968 0.5513 0.0
H954 H 0.3563 0.52722 0.52615 0.0
H955 H 0.30754 0.52226 0.52125 0.0
H956 H 0.36667 0.33611 0.58775 0.0
H957 H 0.31763 0.33292 0.59028 0.0
H958 H 0.41073 0.37402 0.60018 0.0
H959 H 0.43132 0.41965 0.58399 0.0
C960 C 0.92348 0.65286 0.93281 0.0
C961 C 0.93229 0.69039 0.94568 0.0
C962 C 0.97461 0.65772 0.99381 0.0
C963 C 0.96878 0.62086 0.9783 0.0
N964 N 0.9394 0.5837 0.93115 0.0
N965 N 0.96802 0.7296 0.98659 0.0
C966 C 0.94367 0.61859 0.94727 0.0
C967 C 0.95812 0.69303 0.97594 0.0
N968 N 0.89494 0.64986 0.90732 0.0
N969 N 0.99612 0.65904 0.02554 0.0
H970 H 0.95572 0.75572 0.97498 0.0
H971 H 0.98983 0.73452 1.00525 0.0
H972 H 1.01046 0.63459 0.038 0.0
H973 H 0.99811 0.68363 0.04089 0.0
H974 H 0.884 0.62298 0.89972 0.0
H975 H 0.87974 0.67428 0.89607 0.0
H976 H 0.92559 0.58124 0.90568 0.0
H977 H 0.95147 0.55727 0.94205 0.0
C978 C 0.47856 0.84109 0.08597 0.0
C979 C 0.44297 0.84315 0.10375 0.0
C980 C 0.44093 0.91423 0.08216 0.0
C981 C 0.47846 0.91331 0.06858 0.0
N982 N 0.53405 0.87628 0.05908 0.0
N983 N 0.39335 0.88331 0.1245 0.0
C984 C 0.49764 0.87682 0.07111 0.0
C985 C 0.42497 0.88018 0.10339 0.0
N986 N 0.49335 0.80481 0.08188 0.0
N987 N 0.41988 0.94718 0.07367 0.0
H988 H 0.38085 0.85924 0.1407 0.0
H989 H 0.38152 0.91042 0.12869 0.0
H990 H 0.43014 0.97238 0.05758 0.0
H991 H 0.3912 0.94809 0.07941 0.0
H992 H 0.51724 0.80091 0.06599 0.0
H993 H 0.47982 0.7781 0.09161 0.0
H994 H 0.55121 0.85178 0.06404 0.0
H995 H 0.54783 0.90136 0.04592 0.0
C996 C 1.01231 0.18818 0.5161 0.0
C997 C 0.03101 0.19534 0.54995 0.0
C998 C 0.02916 0.12418 0.57012 0.0
C999 C 1.01602 0.11644 0.53381 0.0
N1000 N 1.0018 0.14186 0.46952 0.0
N1001 N 0.06401 0.1693 0.60623 0.0
C1002 C 1.00887 0.14861 0.50608 0.0
C1003 C 0.04102 0.16318 0.57637 0.0
N1004 N 0.99815 0.21923 0.49346 0.0
N1005 N 0.03014 0.09445 0.59894 0.0
H1006 H 0.07457 0.19712 0.61176 0.0
H1007 H 0.07573 0.14616 0.62354 0.0
H1008 H 0.02227 0.06512 0.59594 0.0
H1009 H 0.03534 0.09967 0.62682 0.0
H1010 H 0.9811 0.21547 0.47019 0.0
H1011 H 1.0005 0.24855 0.50015 0.0
H1012 H 1.00036 0.16458 0.44769 0.0
H1013 H 1.00136 0.11372 0.46001 0.0
C1014 C 0.55494 0.35187 0.45428 0.0
C1015 C 0.54584 0.32155 0.4834 0.0
C1016 C 0.52635 0.37183 0.52389 0.0
C1017 C 0.53289 0.40175 0.49371 0.0
N1018 N 0.54261 0.4186 0.4271 0.0
N1019 N 0.51419 0.30186 0.54218 0.0
C1020 C 0.54378 0.39123 0.45789 0.0
C1021 C 0.52871 0.33128 0.51705 0.0
N1022 N 0.57599 0.34372 0.4241 0.0
N1023 N 0.52013 0.38188 0.55949 0.0
H1024 H 0.51494 0.27185 0.53774 0.0
H1025 H 0.49818 0.30748 0.5654 0.0
H1026 H 0.51929 0.41114 0.56617 0.0
H1027 H 0.51927 0.36114 0.58308 0.0
H1028 H 0.58657 0.36574 0.40421 0.0
H1029 H 0.58617 0.31561 0.42084 0.0
H1030 H 0.54701 0.4114 0.39975 0.0
H1031 H 0.53309 0.44738 0.42839 0.0
loop_
_geom_bond_atom_site_label_1
_geom_bond_atom_site_label_2
_geom_bond_distance
_geom_bond_site_symmetry_2
_ccdc_geom_bond_type
C0 C1 1.391 . S
C0 C4 1.391 . S
C0 H42 0.948 . S
C1 C0 1.391 . S
C1 C2 1.391 . S
C2 C1 1.391 . S
C2 H58 0.947 . S
C2 C59 1.392 . S
C3 C4 1.391 . S
C3 C7 1.397 . S
C3 C59 1.419 . S
C4 C0 1.391 . S
C4 C3 1.391 . S
C4 C5 1.399 . S
C5 C4 1.399 . S
C5 C8 1.396 . S
C5 C17 1.453 . S
C5 C18 1.684 . S
H6 C30 0.948 . S
C7 C3 1.397 . S
C7 C8 1.394 . S
C7 C26 1.723 . S
C8 C5 1.396 . S
C8 C7 1.394 . S
C8 C38 1.723 . S
H9 C32 0.947 . S
H10 C33 0.948 . S
H11 C39 0.982 . S
H12 C40 0.979 . S
H13 C40 0.980 . S
H14 C40 0.983 1_556 S
H15 C39 0.979 . S
H16 C39 0.977 . S
C17 C5 1.453 . S
C17 H46 0.982 . S
C17 H47 0.979 . S
C17 H48 0.977 . S
C18 C5 1.684 . S
C18 H43 0.979 1_545 S
C18 H44 0.980 . S
C18 H45 0.983 1_545 S
C19 C20 1.391 . S
C19 C24 1.391 . S
C19 H49 0.948 . S
C20 C19 1.391 . S
C20 C21 1.391 . S
C21 C20 1.391 . S
C21 C22 1.392 . S
C21 H50 0.947 . S
C22 C21 1.392 . S
C22 C23 1.419 . S
C22 H51 0.948 . S
C23 C22 1.419 . S
C23 C24 1.391 . S
C23 C27 1.397 . S
C24 C19 1.391 . S
C24 C23 1.391 . S
C24 C25 1.399 . S
C25 C24 1.399 . S
C25 C26 1.396 . S
C25 C28 1.453 . S
C25 C29 1.684 . S
C26 C7 1.723 . S
C26 C25 1.396 . S
C26 C27 1.394 . S
C27 C23 1.397 . S
C27 C26 1.394 . S
C27 C37 1.723 . S
C28 C25 1.453 . S
C28 H52 0.982 . S
C28 H53 0.979 . S
C28 H54 0.977 . S
C29 C25 1.684 . S
C29 H55 0.979 . S
C29 H56 0.980 . S
C29 H57 0.983 . S
C30 H6 0.948 . S
C30 C31 1.391 . S
C30 C35 1.391 . S
C31 C30 1.391 . S
C31 C32 1.391 . S
C32 H9 0.947 . S
C32 C31 1.391 . S
C32 C33 1.392 . S
C33 H10 0.948 . S
C33 C32 1.392 . S
C33 C34 1.419 . S
C34 C33 1.419 . S
C34 C35 1.391 . S
C34 C38 1.397 . S
C35 C30 1.391 . S
C35 C34 1.391 . S
C35 C36 1.399 . S
C36 C35 1.399 . S
C36 C37 1.396 . S
C36 C39 1.453 . S
C36 C40 1.684 . S
C37 C27 1.723 . S
C37 C36 1.396 . S
C37 C38 1.394 . S
C38 C8 1.723 . S
C38 C34 1.397 . S
C38 C37 1.394 . S
C39 H11 0.982 . S
C39 H15 0.979 . S
C39 H16 0.977 . S
C39 C36 1.453 . S
C40 H12 0.979 . S
C40 H13 0.980 . S
C40 H14 0.983 1_554 S
C40 C36 1.684 . S
H41 C59 0.948 . S
H42 C0 0.948 . S
H43 C18 0.979 1_565 S
H44 C18 0.980 . S
H45 C18 0.983 1_565 S
H46 C17 0.982 . S
H47 C17 0.979 . S
H48 C17 0.977 . S
H49 C19 0.948 . S
H50 C21 0.947 . S
H51 C22 0.948 . S
H52 C28 0.982 . S
H53 C28 0.979 . S
H54 C28 0.977 . S
H55 C29 0.979 . S
H56 C29 0.980 . S
H57 C29 0.983 . S
H58 C2 0.947 . S
C59 C2 1.392 . S
C59 C3 1.419 . S
C59 H41 0.948 . S
C60 C61 1.391 . S
C60 C64 1.391 . S
C60 H102 0.948 . S
C61 C60 1.391 . S
C61 C62 1.391 . S
C62 C61 1.391 . S
C62 H118 0.947 . S
C62 C119 1.392 . S
C63 C64 1.391 . S
C63 C67 1.397 . S
C63 C119 1.419 . S
C64 C60 1.391 . S
C64 C63 1.391 . S
C64 C65 1.399 . S
C65 C64 1.399 . S
C65 C68 1.396 . S
C65 C77 1.453 . S
C65 C78 1.684 . S
H66 C90 0.948 . S
C67 C63 1.397 . S
C67 C68 1.394 . S
C67 C86 1.723 . S
C68 C65 1.396 . S
C68 C67 1.394 . S
C68 C98 1.723 . S
H69 C92 0.947 . S
H70 C93 0.948 . S
H71 C99 0.982 . S
H72 C100 0.979 . S
H73 C100 0.980 . S
H74 C100 0.983 . S
H75 C99 0.979 . S
H76 C99 0.977 . S
C77 C65 1.453 . S
C77 H106 0.982 . S
C77 H107 0.979 . S
C77 H108 0.977 . S
C78 C65 1.684 . S
C78 H103 0.979 . S
C78 H104 0.980 . S
C78 H105 0.983 . S
C79 C80 1.391 . S
C79 C84 1.391 . S
C79 H109 0.948 . S
C80 C79 1.391 . S
C80 C81 1.391 . S
C81 C80 1.391 . S
C81 C82 1.392 . S
C81 H110 0.947 . S
C82 C81 1.392 . S
C82 C83 1.419 . S
C82 H111 0.948 . S
C83 C82 1.419 . S
C83 C84 1.391 . S
C83 C87 1.397 . S
C84 C79 1.391 . S
C84 C83 1.391 . S
C84 C85 1.399 . S
C85 C84 1.399 . S
C85 C86 1.396 . S
C85 C88 1.453 . S
C85 C89 1.684 . S
C86 C67 1.723 . S
C86 C85 1.396 . S
C86 C87 1.394 . S
C87 C83 1.397 . S
C87 C86 1.394 . S
C87 C97 1.723 . S
C88 C85 1.453 . S
C88 H112 0.982 . S
C88 H113 0.979 . S
C88 H114 0.977 . S
C89 C85 1.684 . S
C89 H115 0.979 . S
C89 H116 0.980 . S
C89 H117 0.983 . S
C90 H66 0.948 . S
C90 C91 1.391 . S
C90 C95 1.391 . S
C91 C90 1.391 . S
C91 C92 1.391 . S
C92 H69 0.947 . S
C92 C91 1.391 . S
C92 C93 1.392 . S
C93 H70 0.948 . S
C93 C92 1.392 . S
C93 C94 1.419 . S
C94 C93 1.419 . S
C94 C95 1.391 . S
C94 C98 1.397 . S
C95 C90 1.391 . S
C95 C94 1.391 . S
C95 C96 1.399 . S
C96 C95 1.399 . S
C96 C97 1.396 . S
C96 C99 1.453 . S
C96 C100 1.684 . S
C97 C87 1.723 . S
C97 C96 1.396 . S
C97 C98 1.394 . S
C98 C68 1.723 . S
C98 C94 1.397 . S
C98 C97 1.394 . S
C99 H71 0.982 . S
C99 H75 0.979 . S
C99 H76 0.977 . S
C99 C96 1.453 . S
C100 H72 0.979 . S
C100 H73 0.980 . S
C100 H74 0.983 . S
C100 C96 1.684 . S
H101 C119 0.948 . S
H102 C60 0.948 . S
H103 C78 0.979 . S
H104 C78 0.980 . S
H105 C78 0.983 . S
H106 C77 0.982 . S
H107 C77 0.979 . S
H108 C77 0.977 . S
H109 C79 0.948 . S
H110 C81 0.947 . S
H111 C82 0.948 . S
H112 C88 0.982 . S
H113 C88 0.979 . S
H114 C88 0.977 . S
H115 C89 0.979 . S
H116 C89 0.980 . S
H117 C89 0.983 . S
H118 C62 0.947 . S
C119 C62 1.392 . S
C119 C63 1.419 . S
C119 H101 0.948 . S
C120 C121 1.391 . S
C120 C124 1.391 . S
C120 H162 0.948 . S
C121 C120 1.391 . S
C121 C122 1.391 . S
C122 C121 1.391 . S
C122 H178 0.947 . S
C122 C179 1.392 . S
C123 C124 1.391 . S
C123 C127 1.397 . S
C123 C179 1.419 . S
C124 C120 1.391 . S
C124 C123 1.391 . S
C124 C125 1.399 . S
C125 C124 1.399 . S
C125 C128 1.396 . S
C125 C137 1.453 . S
C125 C138 1.684 . S
H126 C150 0.948 . S
C127 C123 1.397 . S
C127 C128 1.394 . S
C127 C146 1.723 . S
C128 C125 1.396 . S
C128 C127 1.394 . S
C128 C158 1.723 . S
H129 C152 0.947 . S
H130 C153 0.948 . S
H131 C159 0.982 . S
H132 C160 0.979 . S
H133 C160 0.980 . S
H134 C160 0.983 . S
H135 C159 0.979 . S
H136 C159 0.977 . S
C137 C125 1.453 . S
C137 H166 0.982 . S
C137 H167 0.979 . S
C137 H168 0.977 . S
C138 C125 1.684 . S
C138 H163 0.979 . S
C138 H164 0.980 . S
C138 H165 0.983 . S
C139 C140 1.391 . S
C139 C144 1.391 . S
C139 H169 0.948 . S
C140 C139 1.391 . S
C140 C141 1.391 . S
C141 C140 1.391 . S
C141 C142 1.392 . S
C141 H170 0.947 . S
C142 C141 1.392 . S
C142 C143 1.419 . S
C142 H171 0.948 . S
C143 C142 1.419 . S
C143 C144 1.391 . S
C143 C147 1.397 . S
C144 C139 1.391 . S
C144 C143 1.391 . S
C144 C145 1.399 . S
C145 C144 1.399 . S
C145 C146 1.396 . S
C145 C148 1.453 . S
C145 C149 1.684 . S
C146 C127 1.723 . S
C146 C145 1.396 . S
C146 C147 1.394 . S
C147 C143 1.397 . S
C147 C146 1.394 . S
C147 C157 1.723 . S
C148 C145 1.453 . S
C148 H172 0.982 . S
C148 H173 0.979 . S
C148 H174 0.977 . S
C149 C145 1.684 . S
C149 H175 0.979 . S
C149 H176 0.980 . S
C149 H177 0.983 . S
C150 H126 0.948 . S
C150 C151 1.391 . S
C150 C155 1.391 . S
C151 C150 1.391 . S
C151 C152 1.391 . S
C152 H129 0.947 . S
C152 C151 1.391 . S
C152 C153 1.392 . S
C153 H130 0.948 . S
C153 C152 1.392 . S
C153 C154 1.419 . S
C154 C153 1.419 . S
C154 C155 1.391 . S
C154 C158 1.397 . S
C155 C150 1.391 . S
C155 C154 1.391 . S
C155 C156 1.399 . S
C156 C155 1.399 . S
C156 C157 1.396 . S
C156 C159 1.453 . S
C156 C160 1.684 . S
C157 C147 1.723 . S
C157 C156 1.396 . S
C157 C158 1.394 . S
C158 C128 1.723 . S
C158 C154 1.397 . S
C158 C157 1.394 . S
C159 H131 0.982 . S
C159 H135 0.979 . S
C159 H136 0.977 . S
C159 C156 1.453 . S
C160 H132 0.979 . S
C160 H133 0.980 . S
C160 H134 0.983 . S
C160 C156 1.684 . S
H161 C179 0.948 . S
H162 C120 0.948 . S
H163 C138 0.979 . S
H164 C138 0.980 . S
H165 C138 0.983 . S
H166 C137 0.982 . S
H167 C137 0.979 . S
H168 C137 0.977 . S
H169 C139 0.948 . S
H170 C141 0.947 . S
H171 C142 0.948 . S
H172 C148 0.982 . S
H173 C148 0.979 . S
H174 C148 0.977 . S
H175 C149 0.979 . S
H176 C149 0.980 . S
H177 C149 0.983 . S
H178 C122 0.947 . S
C179 C122 1.392 . S
C179 C123 1.419 . S
C179 H161 0.948 . S
C180 C181 1.391 . S
C180 C184 1.391 . S
C180 H222 0.948 . S
C181 C180 1.391 . S
C181 C182 1.391 . S
C182 C181 1.391 . S
C182 H238 0.947 . S
C182 C239 1.392 . S
C183 C184 1.391 . S
C183 C187 1.397 . S
C183 C239 1.419 . S
C184 C180 1.391 . S
C184 C183 1.391 . S
C184 C185 1.399 . S
C185 C184 1.399 . S
C185 C188 1.396 . S
C185 C197 1.453 . S
C185 C198 1.684 . S
H186 C210 0.948 . S
C187 C183 1.397 . S
C187 C188 1.394 . S
C187 C206 1.723 . S
C188 C185 1.396 . S
C188 C187 1.394 . S
C188 C218 1.723 . S
H189 C212 0.947 1_455 S
H190 C213 0.948 . S
H191 C219 0.982 . S
H192 C220 0.979 . S
H193 C220 0.980 . S
H194 C220 0.983 . S
H195 C219 0.979 . S
H196 C219 0.977 . S
C197 C185 1.453 . S
C197 H226 0.981 1_655 S
C197 H227 0.979 1_655 S
C197 H228 0.979 . S
C198 C185 1.684 . S
C198 H223 0.979 . S
C198 H224 0.980 . S
C198 H225 0.983 . S
C199 C200 1.391 . S
C199 C204 1.391 . S
C199 H229 0.948 . S
C200 C199 1.391 . S
C200 C201 1.391 . S
C201 C200 1.391 . S
C201 C202 1.392 . S
C201 H230 0.947 . S
C202 C201 1.392 . S
C202 C203 1.419 . S
C202 H231 0.948 . S
C203 C202 1.419 . S
C203 C204 1.391 . S
C203 C207 1.397 . S
C204 C199 1.391 . S
C204 C203 1.391 . S
C204 C205 1.399 . S
C205 C204 1.399 . S
C205 C206 1.396 . S
C205 C208 1.453 . S
C205 C209 1.684 . S
C206 C187 1.723 . S
C206 C205 1.396 . S
C206 C207 1.394 . S
C207 C203 1.397 . S
C207 C206 1.394 . S
C207 C217 1.723 . S
C208 C205 1.453 . S
C208 H232 0.982 . S
C208 H233 0.979 . S
C208 H234 0.977 . S
C209 C205 1.684 . S
C209 H235 0.979 . S
C209 H236 0.980 . S
C209 H237 0.983 . S
C210 H186 0.948 . S
C210 C211 1.391 . S
C210 C215 1.391 . S
C211 C210 1.391 . S
C211 C212 1.391 . S
C212 H189 0.947 1_655 S
C212 C211 1.391 . S
C212 C213 1.392 . S
C213 H190 0.948 . S
C213 C212 1.392 . S
C213 C214 1.419 . S
C214 C213 1.419 . S
C214 C215 1.391 . S
C214 C218 1.397 . S
C215 C210 1.391 . S
C215 C214 1.391 . S
C215 C216 1.399 . S
C216 C215 1.399 . S
C216 C217 1.396 . S
C216 C219 1.453 . S
C216 C220 1.684 . S
C217 C207 1.723 . S
C217 C216 1.396 . S
C217 C218 1.394 . S
C218 C188 1.723 . S
C218 C214 1.397 . S
C218 C217 1.394 . S
C219 H191 0.982 . S
C219 H195 0.979 . S
C219 H196 0.977 . S
C219 C216 1.453 . S
C220 H192 0.979 . S
C220 H193 0.980 . S
C220 H194 0.983 . S
C220 C216 1.684 . S
H221 C239 0.948 . S
H222 C180 0.948 . S
H223 C198 0.979 . S
H224 C198 0.980 . S
H225 C198 0.983 . S
H226 C197 0.981 1_455 S
H227 C197 0.979 1_455 S
H228 C197 0.979 . S
H229 C199 0.948 . S
H230 C201 0.947 . S
H231 C202 0.948 . S
H232 C208 0.982 . S
H233 C208 0.979 . S
H234 C208 0.977 . S
H235 C209 0.979 . S
H236 C209 0.980 . S
H237 C209 0.983 . S
H238 C182 0.947 . S
C239 C182 1.392 . S
C239 C183 1.419 . S
C239 H221 0.948 . S
C240 C241 1.391 . S
C240 C244 1.391 . S
C240 H282 0.948 . S
C241 C240 1.391 . S
C241 C242 1.391 . S
C242 C241 1.391 . S
C242 H298 0.947 . S
C242 C299 1.392 . S
C243 C244 1.391 . S
C243 C247 1.397 . S
C243 C299 1.419 . S
C244 C240 1.391 . S
C244 C243 1.391 . S
C244 C245 1.399 . S
C245 C244 1.399 . S
C245 C248 1.396 . S
C245 C257 1.453 . S
C245 C258 1.684 . S
H246 C270 0.948 . S
C247 C243 1.397 . S
C247 C248 1.394 . S
C247 C266 1.723 . S
C248 C245 1.396 . S
C248 C247 1.394 . S
C248 C278 1.723 . S
H249 C272 0.947 . S
H250 C273 0.948 . S
H251 C279 0.982 . S
H252 C280 0.968 1_545 S
H253 C280 0.980 . S
H254 C280 0.983 1_545 S
H255 C279 0.979 . S
H256 C279 0.977 . S
C257 C245 1.453 . S
C257 H286 0.982 . S
C257 H287 0.979 . S
C257 H288 0.977 . S
C258 C245 1.684 . S
C258 H283 0.979 . S
C258 H284 0.980 . S
C258 H285 0.983 1_556 S
C259 C260 1.391 . S
C259 C264 1.391 . S
C259 H289 0.948 . S
C260 C259 1.391 . S
C260 C261 1.391 . S
C261 C260 1.391 . S
C261 C262 1.392 . S
C261 H290 0.947 . S
C262 C261 1.392 . S
C262 C263 1.419 . S
C262 H291 0.948 . S
C263 C262 1.419 . S
C263 C264 1.391 . S
C263 C267 1.397 . S
C264 C259 1.391 . S
C264 C263 1.391 . S
C264 C265 1.399 . S
C265 C264 1.399 . S
C265 C266 1.396 . S
C265 C268 1.453 . S
C265 C269 1.684 . S
C266 C247 1.723 . S
C266 C265 1.396 . S
C266 C267 1.394 . S
C267 C263 1.397 . S
C267 C266 1.394 . S
C267 C277 1.723 . S
C268 C265 1.453 . S
C268 H292 0.982 . S
C268 H293 0.979 . S
C268 H294 0.977 . S
C269 C265 1.684 . S
C269 H295 0.979 . S
C269 H296 0.980 . S
C269 H297 0.983 . S
C270 H246 0.948 . S
C270 C271 1.391 . S
C270 C275 1.391 . S
C271 C270 1.391 . S
C271 C272 1.391 . S
C272 H249 0.947 . S
C272 C271 1.391 . S
C272 C273 1.392 . S
C273 H250 0.948 . S
C273 C272 1.392 . S
C273 C274 1.419 . S
C274 C273 1.419 . S
C274 C275 1.391 . S
C274 C278 1.397 . S
C275 C270 1.391 . S
C275 C274 1.391 . S
C275 C276 1.399 . S
C276 C275 1.399 . S
C276 C277 1.396 . S
C276 C279 1.453 . S
C276 C280 1.684 . S
C277 C267 1.723 . S
C277 C276 1.396 . S
C277 C278 1.394 . S
C278 C248 1.723 . S
C278 C274 1.397 . S
C278 C277 1.394 . S
C279 H251 0.982 . S
C279 H255 0.979 . S
C279 H256 0.977 . S
C279 C276 1.453 . S
C280 H252 0.968 1_565 S
C280 H253 0.980 . S
C280 H254 0.983 1_565 S
C280 C276 1.684 . S
H281 C299 0.948 . S
H282 C240 0.948 . S
H283 C258 0.979 . S
H284 C258 0.980 . S
H285 C258 0.983 1_554 S
H286 C257 0.982 . S
H287 C257 0.979 . S
H288 C257 0.977 . S
H289 C259 0.948 . S
H290 C261 0.947 . S
H291 C262 0.948 . S
H292 C268 0.982 . S
H293 C268 0.979 . S
H294 C268 0.977 . S
H295 C269 0.979 . S
H296 C269 0.980 . S
H297 C269 0.983 . S
H298 C242 0.947 . S
C299 C242 1.392 . S
C299 C243 1.419 . S
C299 H281 0.948 . S
C300 C301 1.391 . S
C300 C304 1.391 . S
C300 H342 0.948 . S
C301 C300 1.391 . S
C301 C302 1.391 . S
C302 C301 1.391 . S
C302 H358 0.947 . S
C302 C359 1.392 . S
C303 C304 1.391 . S
C303 C307 1.397 . S
C303 C359 1.419 . S
C304 C300 1.391 . S
C304 C303 1.391 . S
C304 C305 1.399 . S
C305 C304 1.399 . S
C305 C308 1.396 . S
C305 C317 1.453 . S
C305 C318 1.684 . S
H306 C330 0.948 . S
C307 C303 1.397 . S
C307 C308 1.394 . S
C307 C326 1.723 . S
C308 C305 1.396 . S
C308 C307 1.394 . S
C308 C338 1.723 . S
H309 C332 0.947 . S
H310 C333 0.948 . S
H311 C339 0.982 . S
H312 C340 0.979 . S
H313 C340 0.980 . S
H314 C340 0.983 . S
H315 C339 0.979 . S
H316 C339 0.977 . S
C317 C305 1.453 . S
C317 H346 0.982 . S
C317 H347 0.979 . S
C317 H348 0.977 . S
C318 C305 1.684 . S
C318 H343 0.979 . S
C318 H344 0.980 . S
C318 H345 0.983 . S
C319 C320 1.391 . S
C319 C324 1.391 . S
C319 H349 0.948 . S
C320 C319 1.391 . S
C320 C321 1.391 . S
C321 C320 1.391 . S
C321 C322 1.392 . S
C321 H350 0.947 . S
C322 C321 1.392 . S
C322 C323 1.419 . S
C322 H351 0.948 . S
C323 C322 1.419 . S
C323 C324 1.391 . S
C323 C327 1.397 . S
C324 C319 1.391 . S
C324 C323 1.391 . S
C324 C325 1.399 . S
C325 C324 1.399 . S
C325 C326 1.396 . S
C325 C328 1.453 . S
C325 C329 1.684 . S
C326 C307 1.723 . S
C326 C325 1.396 . S
C326 C327 1.394 . S
C327 C323 1.397 . S
C327 C326 1.394 . S
C327 C337 1.723 . S
C328 C325 1.453 . S
C328 H352 0.982 . S
C328 H353 0.979 . S
C328 H354 0.977 . S
C329 C325 1.684 . S
C329 H355 0.979 . S
C329 H356 0.980 . S
C329 H357 0.983 . S
C330 H306 0.948 . S
C330 C331 1.391 . S
C330 C335 1.391 . S
C331 C330 1.391 . S
C331 C332 1.391 . S
C332 H309 0.947 . S
C332 C331 1.391 . S
C332 C333 1.392 . S
C333 H310 0.948 . S
C333 C332 1.392 . S
C333 C334 1.419 . S
C334 C333 1.419 . S
C334 C335 1.391 . S
C334 C338 1.397 . S
C335 C330 1.391 . S
C335 C334 1.391 . S
C335 C336 1.399 . S
C336 C335 1.399 . S
C336 C337 1.396 . S
C336 C339 1.453 . S
C336 C340 1.684 . S
C337 C327 1.723 . S
C337 C336 1.396 . S
C337 C338 1.394 . S
C338 C308 1.723 . S
C338 C334 1.397 . S
C338 C337 1.394 . S
C339 H311 0.982 . S
C339 H315 0.979 . S
C339 H316 0.977 . S
C339 C336 1.453 . S
C340 H312 0.979 . S
C340 H313 0.980 . S
C340 H314 0.983 . S
C340 C336 1.684 . S
H341 C359 0.948 . S
H342 C300 0.948 . S
H343 C318 0.979 . S
H344 C318 0.980 . S
H345 C318 0.983 . S
H346 C317 0.982 . S
H347 C317 0.979 . S
H348 C317 0.977 . S
H349 C319 0.948 . S
H350 C321 0.947 . S
H351 C322 0.948 . S
H352 C328 0.982 . S
H353 C328 0.979 . S
H354 C328 0.977 . S
H355 C329 0.979 . S
H356 C329 0.980 . S
H357 C329 0.983 . S
H358 C302 0.947 . S
C359 C302 1.392 . S
C359 C303 1.419 . S
C359 H341 0.948 . S
C360 C361 1.391 . S
C360 C364 1.391 . S
C360 H402 0.948 . S
C361 C360 1.391 . S
C361 C362 1.391 . S
C362 C361 1.391 . S
C362 H418 0.947 . S
C362 C419 1.392 . S
C363 C364 1.391 . S
C363 C367 1.397 . S
C363 C419 1.419 . S
C364 C360 1.391 . S
C364 C363 1.391 . S
C364 C365 1.399 . S
C365 C364 1.399 . S
C365 C368 1.396 . S
C365 C377 1.453 . S
C365 C378 1.684 . S
H366 C390 0.948 . S
C367 C363 1.397 . S
C367 C368 1.394 . S
C367 C386 1.723 . S
C368 C365 1.396 . S
C368 C367 1.394 . S
C368 C398 1.723 . S
H369 C392 0.947 . S
H370 C393 0.948 . S
H371 C399 0.982 . S
H372 C400 0.979 . S
H373 C400 0.980 . S
H374 C400 0.983 . S
H375 C399 0.979 . S
H376 C399 0.977 . S
C377 C365 1.453 . S
C377 H406 0.982 . S
C377 H407 0.979 . S
C377 H408 0.977 . S
C378 C365 1.684 . S
C378 H403 0.979 . S
C378 H404 0.980 . S
C378 H405 0.983 . S
C379 C380 1.391 . S
C379 C384 1.391 . S
C379 H409 0.948 . S
C380 C379 1.391 . S
C380 C381 1.391 . S
C381 C380 1.391 . S
C381 C382 1.392 . S
C381 H410 0.947 . S
C382 C381 1.392 . S
C382 C383 1.419 . S
C382 H411 0.948 . S
C383 C382 1.419 . S
C383 C384 1.391 . S
C383 C387 1.397 . S
C384 C379 1.391 . S
C384 C383 1.391 . S
C384 C385 1.399 . S
C385 C384 1.399 . S
C385 C386 1.396 . S
C385 C388 1.453 . S
C385 C389 1.684 . S
C386 C367 1.723 . S
C386 C385 1.396 . S
C386 C387 1.394 . S
C387 C383 1.397 . S
C387 C386 1.394 . S
C387 C397 1.723 . S
C388 C385 1.453 . S
C388 H412 0.982 . S
C388 H413 0.979 . S
C388 H414 0.977 . S
C389 C385 1.684 . S
C389 H415 0.979 . S
C389 H416 0.980 . S
C389 H417 0.983 . S
C390 H366 0.948 . S
C390 C391 1.391 . S
C390 C395 1.391 . S
C391 C390 1.391 . S
C391 C392 1.391 . S
C392 H369 0.947 . S
C392 C391 1.391 . S
C392 C393 1.392 . S
C393 H370 0.948 . S
C393 C392 1.392 . S
C393 C394 1.419 . S
C394 C393 1.419 . S
C394 C395 1.391 . S
C394 C398 1.397 . S
C395 C390 1.391 . S
C395 C394 1.391 . S
C395 C396 1.399 . S
C396 C395 1.399 . S
C396 C397 1.396 . S
C396 C399 1.453 . S
C396 C400 1.684 . S
C397 C387 1.723 . S
C397 C396 1.396 . S
C397 C398 1.394 . S
C398 C368 1.723 . S
C398 C394 1.397 . S
C398 C397 1.394 . S
C399 H371 0.982 . S
C399 H375 0.979 . S
C399 H376 0.977 . S
C399 C396 1.453 . S
C400 H372 0.979 . S
C400 H373 0.980 . S
C400 H374 0.983 . S
C400 C396 1.684 . S
H401 C419 0.948 . S
H402 C360 0.948 . S
H403 C378 0.979 . S
H404 C378 0.980 . S
H405 C378 0.983 . S
H406 C377 0.982 . S
H407 C377 0.979 . S
H408 C377 0.977 . S
H409 C379 0.948 . S
H410 C381 0.947 . S
H411 C382 0.948 . S
H412 C388 0.982 . S
H413 C388 0.979 . S
H414 C388 0.977 . S
H415 C389 0.979 . S
H416 C389 0.980 . S
H417 C389 0.983 . S
H418 C362 0.947 . S
C419 C362 1.392 . S
C419 C363 1.419 . S
C419 H401 0.948 . S
C420 C421 1.391 . S
C420 C424 1.391 . S
C420 H462 0.948 . S
C421 C420 1.391 . S
C421 C422 1.391 . S
C422 C421 1.391 . S
C422 H478 0.947 . S
C422 C479 1.392 . S
C423 C424 1.391 . S
C423 C427 1.397 . S
C423 C479 1.419 . S
C424 C420 1.391 . S
C424 C423 1.391 . S
C424 C425 1.399 . S
C425 C424 1.399 . S
C425 C428 1.396 . S
C425 C437 1.453 . S
C425 C438 1.684 . S
H426 C450 0.948 . S
C427 C423 1.397 . S
C427 C428 1.394 . S
C427 C446 1.723 . S
C428 C425 1.396 . S
C428 C427 1.394 . S
C428 C458 1.723 . S
H429 C452 0.947 1_655 S
H430 C453 0.948 . S
H431 C459 0.982 . S
H432 C460 0.979 . S
H433 C460 0.980 . S
H434 C460 0.983 . S
H435 C459 0.979 . S
H436 C459 0.977 . S
C437 C425 1.453 . S
C437 H466 0.982 1_455 S
C437 H467 0.979 1_455 S
C437 H468 0.980 . S
C438 C425 1.684 . S
C438 H463 0.979 . S
C438 H464 0.980 . S
C438 H465 0.983 . S
C439 C440 1.391 . S
C439 C444 1.391 . S
C439 H469 0.948 . S
C440 C439 1.391 . S
C440 C441 1.391 . S
C441 C440 1.391 . S
C441 C442 1.392 . S
C441 H470 0.947 . S
C442 C441 1.392 . S
C442 C443 1.419 . S
C442 H471 0.948 . S
C443 C442 1.419 . S
C443 C444 1.391 . S
C443 C447 1.397 . S
C444 C439 1.391 . S
C444 C443 1.391 . S
C444 C445 1.399 . S
C445 C444 1.399 . S
C445 C446 1.396 . S
C445 C448 1.453 . S
C445 C449 1.684 . S
C446 C427 1.723 . S
C446 C445 1.396 . S
C446 C447 1.394 . S
C447 C443 1.397 . S
C447 C446 1.394 . S
C447 C457 1.723 . S
C448 C445 1.453 . S
C448 H472 0.982 . S
C448 H473 0.979 . S
C448 H474 0.977 . S
C449 C445 1.684 . S
C449 H475 0.979 . S
C449 H476 0.980 . S
C449 H477 0.983 . S
C450 H426 0.948 . S
C450 C451 1.391 . S
C450 C455 1.391 . S
C451 C450 1.391 . S
C451 C452 1.391 . S
C452 H429 0.947 1_455 S
C452 C451 1.391 . S
C452 C453 1.392 . S
C453 H430 0.948 . S
C453 C452 1.392 . S
C453 C454 1.419 . S
C454 C453 1.419 . S
C454 C455 1.391 . S
C454 C458 1.397 . S
C455 C450 1.391 . S
C455 C454 1.391 . S
C455 C456 1.399 . S
C456 C455 1.399 . S
C456 C457 1.396 . S
C456 C459 1.453 . S
C456 C460 1.684 . S
C457 C447 1.723 . S
C457 C456 1.396 . S
C457 C458 1.394 . S
C458 C428 1.723 . S
C458 C454 1.397 . S
C458 C457 1.394 . S
C459 H431 0.982 . S
C459 H435 0.979 . S
C459 H436 0.977 . S
C459 C456 1.453 . S
C460 H432 0.979 . S
C460 H433 0.980 . S
C460 H434 0.983 . S
C460 C456 1.684 . S
H461 C479 0.948 . S
H462 C420 0.948 . S
H463 C438 0.979 . S
H464 C438 0.980 . S
H465 C438 0.983 . S
H466 C437 0.982 1_655 S
H467 C437 0.979 1_655 S
H468 C437 0.980 . S
H469 C439 0.948 . S
H470 C441 0.947 . S
H471 C442 0.948 . S
H472 C448 0.982 . S
H473 C448 0.979 . S
H474 C448 0.977 . S
H475 C449 0.979 . S
H476 C449 0.980 . S
H477 C449 0.983 . S
H478 C422 0.947 . S
C479 C422 1.392 . S
C479 C423 1.419 . S
C479 H461 0.948 . S
Co480 N485 2.057 . S
Co480 O497 2.021 . S
Co480 O500 2.062 . S
Co480 O504 2.117 1_545 S
Co480 O505 2.020 1_545 S
C481 O501 1.259 1_655 S
C481 O504 1.258 . S
Co482 N491 2.057 . S
Co482 O498 2.117 1_565 S
Co482 O499 2.020 1_565 S
Co482 O501 2.021 . S
Co482 O506 2.062 . S
C483 N485 1.316 . S
C483 N486 1.347 . S
C483 H488 0.931 . S
C484 N485 1.375 1_565 S
C484 C487 1.350 1_565 S
C484 H489 0.930 . S
N485 Co480 2.057 . S
N485 C483 1.316 . S
N485 C484 1.375 1_545 S
N486 C483 1.347 . S
N486 C487 1.373 . S
C487 C484 1.350 1_545 S
C487 N486 1.373 . S
C487 H508 0.931 1_545 S
H488 C483 0.931 . S
H489 C484 0.930 . S
C490 O497 1.259 1_455 S
C490 O498 1.258 . S
N491 Co482 2.057 . S
N491 C492 1.316 . S
N491 C493 1.375 1_565 S
C492 N491 1.316 . S
C492 N494 1.347 . S
C492 H503 0.931 . S
C493 N491 1.375 1_545 S
C493 C495 1.350 1_545 S
C493 H502 0.930 . S
N494 C492 1.347 . S
N494 C495 1.373 . S
C495 C493 1.350 1_565 S
C495 N494 1.373 . S
C495 H509 0.931 1_565 S
C496 O499 1.256 . S
C496 O500 1.255 1_455 S
O497 Co480 2.021 . S
O497 C490 1.259 1_655 S
O498 Co482 2.117 1_545 S
O498 C490 1.258 . S
O499 Co482 2.020 1_545 S
O499 C496 1.256 . S
O500 Co480 2.062 . S
O500 C496 1.255 1_655 S
O501 C481 1.259 1_455 S
O501 Co482 2.021 . S
H502 C493 0.930 . S
H503 C492 0.931 . S
O504 Co480 2.117 1_565 S
O504 C481 1.258 . S
O505 Co480 2.020 1_565 S
O505 C507 1.256 . S
O506 Co482 2.062 . S
O506 C507 1.255 1_455 S
C507 O505 1.256 . S
C507 O506 1.255 1_655 S
H508 C487 0.931 1_565 S
H509 C495 0.931 1_545 S
Co510 N515 2.057 . S
Co510 O527 2.021 1_565 S
Co510 O530 2.062 . S
Co510 O534 2.117 . S
Co510 O535 2.020 1_565 S
C511 O531 1.259 . S
C511 O534 1.258 1_554 S
Co512 N521 2.057 . S
Co512 O528 2.117 . S
Co512 O529 2.020 1_545 S
Co512 O531 2.021 1_545 S
Co512 O536 2.062 . S
C513 N515 1.316 . S
C513 N516 1.347 . S
C513 H518 0.931 1_565 S
C514 N515 1.375 . S
C514 C517 1.350 . S
C514 H519 0.930 . S
N515 Co510 2.057 . S
N515 C513 1.316 . S
N515 C514 1.375 . S
N516 C513 1.347 . S
N516 C517 1.373 . S
C517 C514 1.350 . S
C517 N516 1.373 . S
C517 H538 0.931 . S
H518 C513 0.931 1_545 S
H519 C514 0.930 . S
C520 O527 1.259 . S
C520 O528 1.258 1_556 S
N521 Co512 2.057 . S
N521 C522 1.316 . S
N521 C523 1.375 . S
C522 N521 1.316 . S
C522 N524 1.347 . S
C522 H533 0.931 1_545 S
C523 N521 1.375 . S
C523 C525 1.350 . S
C523 H532 0.930 . S
N524 C522 1.347 . S
N524 C525 1.373 . S
C525 C523 1.350 . S
C525 N524 1.373 . S
C525 H539 0.931 . S
C526 O529 1.256 1_556 S
C526 O530 1.255 . S
O527 Co510 2.021 1_545 S
O527 C520 1.259 . S
O528 Co512 2.117 . S
O528 C520 1.258 1_554 S
O529 Co512 2.020 1_565 S
O529 C526 1.256 1_554 S
O530 Co510 2.062 . S
O530 C526 1.255 . S
O531 C511 1.259 . S
O531 Co512 2.021 1_565 S
H532 C523 0.930 . S
H533 C522 0.931 1_565 S
O534 Co510 2.117 . S
O534 C511 1.258 1_556 S
O535 Co510 2.020 1_545 S
O535 C537 1.256 1_556 S
O536 Co512 2.062 . S
O536 C537 1.255 . S
C537 O535 1.256 1_554 S
C537 O536 1.255 . S
H538 C517 0.931 . S
H539 C525 0.931 . S
Co540 N545 2.057 . S
Co540 O557 2.021 . S
Co540 O560 2.062 . S
Co540 O564 2.117 . S
Co540 O565 2.020 . S
C541 O561 1.259 . S
C541 O564 1.258 . S
Co542 N551 2.057 . S
Co542 O558 2.117 . S
Co542 O559 2.020 . S
Co542 O561 2.021 . S
Co542 O566 2.062 . S
C543 N545 1.316 . S
C543 N546 1.347 . S
C543 H548 0.931 . S
C544 N545 1.375 . S
C544 C547 1.350 . S
C544 H549 0.930 . S
N545 Co540 2.057 . S
N545 C543 1.316 . S
N545 C544 1.375 . S
N546 C543 1.347 . S
N546 C547 1.373 . S
C547 C544 1.350 . S
C547 N546 1.373 . S
C547 H568 0.931 . S
H548 C543 0.931 . S
H549 C544 0.930 . S
C550 O557 1.259 . S
C550 O558 1.258 . S
N551 Co542 2.057 . S
N551 C552 1.316 . S
N551 C553 1.375 . S
C552 N551 1.316 . S
C552 N554 1.347 . S
C552 H563 0.931 . S
C553 N551 1.375 . S
C553 C555 1.350 . S
C553 H562 0.930 . S
N554 C552 1.347 . S
N554 C555 1.373 . S
C555 C553 1.350 . S
C555 N554 1.373 . S
C555 H569 0.931 . S
C556 O559 1.256 . S
C556 O560 1.255 . S
O557 Co540 2.021 . S
O557 C550 1.259 . S
O558 Co542 2.117 . S
O558 C550 1.258 . S
O559 Co542 2.020 . S
O559 C556 1.256 . S
O560 Co540 2.062 . S
O560 C556 1.255 . S
O561 C541 1.259 . S
O561 Co542 2.021 . S
H562 C553 0.930 . S
H563 C552 0.931 . S
O564 Co540 2.117 . S
O564 C541 1.258 . S
O565 Co540 2.020 . S
O565 C567 1.256 . S
O566 Co542 2.062 . S
O566 C567 1.255 . S
C567 O565 1.256 . S
C567 O566 1.255 . S
H568 C547 0.931 . S
H569 C555 0.931 . S
Co570 N575 2.057 . S
Co570 O587 2.021 . S
Co570 O590 2.062 . S
Co570 O594 2.117 1_455 S
Co570 O595 2.020 1_455 S
C571 O591 1.259 1_556 S
C571 O594 1.258 . S
Co572 N581 2.057 . S
Co572 O588 2.117 1_655 S
Co572 O589 2.020 1_655 S
Co572 O591 2.021 . S
Co572 O596 2.062 . S
C573 N575 1.316 . S
C573 N576 1.347 . S
C573 H578 0.931 . S
C574 N575 1.375 1_655 S
C574 C577 1.350 1_655 S
C574 H579 0.930 . S
N575 Co570 2.057 . S
N575 C573 1.316 . S
N575 C574 1.375 1_455 S
N576 C573 1.347 . S
N576 C577 1.373 . S
C577 C574 1.350 1_455 S
C577 N576 1.373 . S
C577 H598 0.931 1_455 S
H578 C573 0.931 . S
H579 C574 0.930 . S
C580 O587 1.259 1_554 S
C580 O588 1.258 . S
N581 Co572 2.057 . S
N581 C582 1.316 . S
N581 C583 1.375 1_655 S
C582 N581 1.316 . S
C582 N584 1.347 . S
C582 H593 0.931 . S
C583 N581 1.375 1_455 S
C583 C585 1.350 1_455 S
C583 H592 0.930 . S
N584 C582 1.347 . S
N584 C585 1.373 . S
C585 C583 1.350 1_655 S
C585 N584 1.373 . S
C585 H599 0.931 1_655 S
C586 O589 1.256 . S
C586 O590 1.255 1_554 S
O587 Co570 2.021 . S
O587 C580 1.259 1_556 S
O588 Co572 2.117 1_455 S
O588 C580 1.258 . S
O589 Co572 2.020 1_455 S
O589 C586 1.256 . S
O590 Co570 2.062 . S
O590 C586 1.255 1_556 S
O591 C571 1.259 1_554 S
O591 Co572 2.021 . S
H592 C583 0.930 . S
H593 C582 0.931 . S
O594 Co570 2.117 1_655 S
O594 C571 1.258 . S
O595 Co570 2.020 1_655 S
O595 C597 1.256 . S
O596 Co572 2.062 . S
O596 C597 1.255 1_554 S
C597 O595 1.256 . S
C597 O596 1.255 1_556 S
H598 C577 0.931 1_655 S
H599 C585 0.931 1_455 S
C600 C601 1.363 . S
C600 C606 1.379 . S
C600 N608 1.356 1_545 S
C601 C600 1.363 . S
C601 C607 1.363 . S
C602 C603 1.363 . S
C602 C607 1.379 . S
C602 N609 1.356 . S
C603 C602 1.363 . S
C603 C606 1.363 . S
N604 C606 1.356 1_665 S
N604 H616 0.984 . S
N604 H617 0.985 . S
N605 C607 1.356 . S
N605 H610 0.984 . S
N605 H611 0.985 . S
C606 C600 1.379 . S
C606 C603 1.363 . S
C606 N604 1.356 1_445 S
C607 C601 1.363 . S
C607 C602 1.379 . S
C607 N605 1.356 . S
N608 C600 1.356 1_565 S
N608 H614 0.984 . S
N608 H615 0.984 1_565 S
N609 C602 1.356 . S
N609 H612 0.984 . S
N609 H613 0.985 . S
H610 N605 0.984 . S
H611 N605 0.985 . S
H612 N609 0.984 . S
H613 N609 0.985 . S
H614 N608 0.984 . S
H615 N608 0.984 1_545 S
H616 N604 0.984 . S
H617 N604 0.985 . S
C618 C619 1.363 . S
C618 C624 1.379 . S
C618 N626 1.356 . S
C619 C618 1.363 . S
C619 C625 1.363 . S
C620 C621 1.363 . S
C620 C625 1.379 . S
C620 N627 1.356 . S
C621 C620 1.363 . S
C621 C624 1.363 . S
N622 C624 1.356 . S
N622 H634 0.984 . S
N622 H635 0.985 . S
N623 C625 1.356 . S
N623 H628 0.984 . S
N623 H629 0.985 . S
C624 C618 1.379 . S
C624 C621 1.363 . S
C624 N622 1.356 . S
C625 C619 1.363 . S
C625 C620 1.379 . S
C625 N623 1.356 . S
N626 C618 1.356 . S
N626 H632 0.984 . S
N626 H633 0.984 . S
N627 C620 1.356 . S
N627 H630 0.984 . S
N627 H631 0.985 1_565 S
H628 N623 0.984 . S
H629 N623 0.985 . S
H630 N627 0.984 . S
H631 N627 0.985 1_545 S
H632 N626 0.984 . S
H633 N626 0.984 . S
H634 N622 0.984 . S
H635 N622 0.985 . S
C636 C637 1.363 . S
C636 C642 1.379 . S
C636 N644 1.356 . S
C637 C636 1.363 . S
C637 C643 1.363 . S
C638 C639 1.363 . S
C638 C643 1.379 . S
C638 N645 1.356 . S
C639 C638 1.363 . S
C639 C642 1.363 . S
N640 C642 1.356 . S
N640 H652 0.984 . S
N640 H653 0.985 . S
N641 C643 1.356 . S
N641 H646 0.984 . S
N641 H647 0.985 . S
C642 C636 1.379 . S
C642 C639 1.363 . S
C642 N640 1.356 . S
C643 C637 1.363 . S
C643 C638 1.379 . S
C643 N641 1.356 . S
N644 C636 1.356 . S
N644 H650 0.984 . S
N644 H651 0.984 . S
N645 C638 1.356 . S
N645 H648 0.984 . S
N645 H649 0.985 . S
H646 N641 0.984 . S
H647 N641 0.985 . S
H648 N645 0.984 . S
H649 N645 0.985 . S
H650 N644 0.984 . S
H651 N644 0.984 . S
H652 N640 0.984 . S
H653 N640 0.985 . S
C654 C655 1.363 . S
C654 C660 1.379 . S
C654 N662 1.356 . S
C655 C654 1.363 . S
C655 C661 1.363 . S
C656 C657 1.363 . S
C656 C661 1.379 . S
C656 N663 1.356 . S
C657 C656 1.363 . S
C657 C660 1.363 . S
N658 C660 1.356 . S
N658 H670 0.984 . S
N658 H671 0.985 . S
N659 C661 1.356 . S
N659 H664 0.984 . S
N659 H665 0.985 1_655 S
C660 C654 1.379 . S
C660 C657 1.363 . S
C660 N658 1.356 . S
C661 C655 1.363 . S
C661 C656 1.379 . S
C661 N659 1.356 . S
N662 C654 1.356 . S
N662 H668 0.984 . S
N662 H669 0.984 . S
N663 C656 1.356 . S
N663 H666 0.984 . S
N663 H667 0.985 . S
H664 N659 0.984 . S
H665 N659 0.985 1_455 S
H666 N663 0.984 . S
H667 N663 0.985 . S
H668 N662 0.984 . S
H669 N662 0.984 . S
H670 N658 0.984 . S
H671 N658 0.985 . S
C672 C673 1.363 . S
C672 C678 1.379 . S
C672 N680 1.356 . S
C673 C672 1.363 . S
C673 C679 1.363 . S
C674 C675 1.363 . S
C674 C679 1.379 . S
C674 N681 1.356 1_554 S
C675 C674 1.363 . S
C675 C678 1.363 . S
N676 C678 1.356 1_565 S
N676 H688 0.984 . S
N676 H689 0.985 1_565 S
N677 C679 1.365 . S
N677 H682 0.995 . S
N677 H683 0.965 1_554 S
C678 C672 1.379 . S
C678 C675 1.363 . S
C678 N676 1.356 1_545 S
C679 C673 1.363 . S
C679 C674 1.379 . S
C679 N677 1.365 . S
N680 C672 1.356 . S
N680 H686 0.984 1_545 S
N680 H687 0.984 . S
N681 C674 1.356 1_556 S
N681 H684 0.984 . S
N681 H685 0.985 . S
H682 N677 0.995 . S
H683 N677 0.965 1_556 S
H684 N681 0.984 . S
H685 N681 0.985 . S
H686 N680 0.984 1_565 S
H687 N680 0.984 . S
H688 N676 0.984 . S
H689 N676 0.985 1_545 S
C690 C691 1.363 . S
C690 C696 1.379 . S
C690 N698 1.356 . S
C691 C690 1.363 . S
C691 C697 1.363 . S
C692 C693 1.363 . S
C692 C697 1.379 . S
C692 N699 1.356 . S
C693 C692 1.363 . S
C693 C696 1.363 . S
N694 C696 1.356 . S
N694 H706 0.984 . S
N694 H707 0.985 . S
N695 C697 1.356 . S
N695 H700 0.984 . S
N695 H701 0.985 1_565 S
C696 C690 1.379 . S
C696 C693 1.363 . S
C696 N694 1.356 . S
C697 C691 1.363 . S
C697 C692 1.379 . S
C697 N695 1.356 . S
N698 C690 1.356 . S
N698 H704 0.984 . S
N698 H705 0.984 . S
N699 C692 1.356 . S
N699 H702 0.984 . S
N699 H703 0.985 1_565 S
H700 N695 0.984 . S
H701 N695 0.985 1_545 S
H702 N699 0.984 . S
H703 N699 0.985 1_545 S
H704 N698 0.984 . S
H705 N698 0.984 . S
H706 N694 0.984 . S
H707 N694 0.985 . S
C708 C709 1.363 . S
C708 C714 1.379 . S
C708 N716 1.356 . S
C709 C708 1.363 . S
C709 C715 1.363 . S
C710 C711 1.363 . S
C710 C715 1.379 . S
C710 N717 1.356 . S
C711 C710 1.363 . S
C711 C714 1.363 . S
N712 C714 1.356 . S
N712 H724 0.984 . S
N712 H725 0.985 . S
N713 C715 1.356 . S
N713 H718 0.984 . S
N713 H719 0.985 . S
C714 C708 1.379 . S
C714 C711 1.363 . S
C714 N712 1.356 . S
C715 C709 1.363 . S
C715 C710 1.379 . S
C715 N713 1.356 . S
N716 C708 1.356 . S
N716 H722 0.984 . S
N716 H723 0.984 . S
N717 C710 1.356 . S
N717 H720 0.984 . S
N717 H721 0.985 . S
H718 N713 0.984 . S
H719 N713 0.985 . S
H720 N717 0.984 . S
H721 N717 0.985 . S
H722 N716 0.984 . S
H723 N716 0.984 . S
H724 N712 0.984 . S
H725 N712 0.985 . S
C726 C727 1.363 . S
C726 C732 1.379 . S
C726 N734 1.356 . S
C727 C726 1.363 . S
C727 C733 1.363 . S
C728 C729 1.363 . S
C728 C733 1.379 . S
C728 N735 1.356 . S
C729 C728 1.363 . S
C729 C732 1.363 . S
N730 C732 1.356 . S
N730 H742 0.984 . S
N730 H743 0.985 . S
N731 C733 1.356 . S
N731 H736 0.984 . S
N731 H737 0.985 . S
C732 C726 1.379 . S
C732 C729 1.363 . S
C732 N730 1.356 . S
C733 C727 1.363 . S
C733 C728 1.379 . S
C733 N731 1.356 . S
N734 C726 1.356 . S
N734 H740 0.984 . S
N734 H741 0.984 . S
N735 C728 1.356 . S
N735 H738 0.984 . S
N735 H739 0.985 . S
H736 N731 0.984 . S
H737 N731 0.985 . S
H738 N735 0.984 . S
H739 N735 0.985 . S
H740 N734 0.984 . S
H741 N734 0.984 . S
H742 N730 0.984 . S
H743 N730 0.985 . S
C744 C745 1.363 . S
C744 C750 1.379 . S
C744 N752 1.356 . S
C745 C744 1.363 . S
C745 C751 1.363 . S
C746 C747 1.363 . S
C746 C751 1.379 . S
C746 N753 1.356 1_554 S
C747 C746 1.363 . S
C747 C750 1.363 . S
N748 C750 1.356 1_655 S
N748 H760 0.984 . S
N748 H761 0.985 . S
N749 C751 1.356 1_556 S
N749 H754 0.984 1_556 S
N749 H755 0.985 . S
C750 C744 1.379 . S
C750 C747 1.363 . S
C750 N748 1.356 1_455 S
C751 C745 1.363 . S
C751 C746 1.379 . S
C751 N749 1.356 1_554 S
N752 C744 1.356 . S
N752 H758 0.984 . S
N752 H759 0.984 . S
N753 C746 1.356 1_556 S
N753 H756 0.984 . S
N753 H757 0.985 . S
H754 N749 0.984 1_554 S
H755 N749 0.985 . S
H756 N753 0.984 . S
H757 N753 0.985 . S
H758 N752 0.984 . S
H759 N752 0.984 . S
H760 N748 0.984 . S
H761 N748 0.985 . S
C762 C763 1.363 . S
C762 C768 1.379 . S
C762 N770 1.356 1_556 S
C763 C762 1.363 . S
C763 C769 1.363 . S
C764 C765 1.363 . S
C764 C769 1.379 . S
C764 N771 1.356 . S
C765 C764 1.363 . S
C765 C768 1.363 . S
N766 C768 1.356 1_554 S
N766 H778 0.984 . S
N766 H779 0.985 . S
N767 C769 1.356 . S
N767 H772 0.984 . S
N767 H773 0.985 . S
C768 C762 1.379 . S
C768 C765 1.363 . S
C768 N766 1.356 1_556 S
C769 C763 1.363 . S
C769 C764 1.379 . S
C769 N767 1.356 . S
N770 C762 1.356 1_554 S
N770 H776 0.984 . S
N770 H777 0.984 1_554 S
N771 C764 1.356 . S
N771 H774 0.984 . S
N771 H775 0.985 . S
H772 N767 0.984 . S
H773 N767 0.985 . S
H774 N771 0.984 . S
H775 N771 0.985 . S
H776 N770 0.984 . S
H777 N770 0.984 1_556 S
H778 N766 0.984 . S
H779 N766 0.985 . S
C780 C781 1.363 . S
C780 C786 1.379 . S
C780 N788 1.356 . S
C781 C780 1.363 . S
C781 C787 1.363 . S
C782 C783 1.363 . S
C782 C787 1.379 . S
C782 N789 1.356 1_655 S
C783 C782 1.363 . S
C783 C786 1.363 . S
N784 C786 1.356 . S
N784 H796 0.984 . S
N784 H797 0.985 . S
N785 C787 1.356 1_455 S
N785 H790 0.984 . S
N785 H791 0.985 . S
C786 C780 1.379 . S
C786 C783 1.363 . S
C786 N784 1.356 . S
C787 C781 1.363 . S
C787 C782 1.379 . S
C787 N785 1.356 1_655 S
N788 C780 1.356 . S
N788 H794 0.984 . S
N788 H795 0.984 . S
N789 C782 1.356 1_455 S
N789 H792 0.984 . S
N789 H793 0.985 . S
H790 N785 0.984 . S
H791 N785 0.985 . S
H792 N789 0.984 . S
H793 N789 0.985 . S
H794 N788 0.984 . S
H795 N788 0.984 . S
H796 N784 0.984 . S
H797 N784 0.985 . S
C798 C799 1.363 . S
C798 C804 1.379 . S
C798 N806 1.356 . S
C799 C798 1.363 . S
C799 C805 1.363 . S
C800 C801 1.363 . S
C800 C805 1.379 . S
C800 N807 1.356 . S
C801 C800 1.363 . S
C801 C804 1.363 . S
N802 C804 1.356 . S
N802 H814 0.984 . S
N802 H815 0.985 . S
N803 C805 1.356 . S
N803 H808 0.984 . S
N803 H809 0.985 . S
C804 C798 1.379 . S
C804 C801 1.363 . S
C804 N802 1.356 . S
C805 C799 1.363 . S
C805 C800 1.379 . S
C805 N803 1.356 . S
N806 C798 1.356 . S
N806 H812 0.984 . S
N806 H813 0.984 . S
N807 C800 1.356 . S
N807 H810 0.984 . S
N807 H811 0.985 . S
H808 N803 0.984 . S
H809 N803 0.985 . S
H810 N807 0.984 . S
H811 N807 0.985 . S
H812 N806 0.984 . S
H813 N806 0.984 . S
H814 N802 0.984 . S
H815 N802 0.985 . S
C816 C817 1.363 . S
C816 C822 1.379 . S
C816 N824 1.356 1_565 S
C817 C816 1.363 . S
C817 C823 1.363 . S
C818 C819 1.363 . S
C818 C823 1.379 . S
C818 N825 1.356 . S
C819 C818 1.363 . S
C819 C822 1.363 . S
N820 C822 1.356 1_545 S
N820 H832 0.984 . S
N820 H833 0.985 . S
N821 C823 1.356 . S
N821 H826 0.984 . S
N821 H827 0.985 . S
C822 C816 1.379 . S
C822 C819 1.363 . S
C822 N820 1.356 1_565 S
C823 C817 1.363 . S
C823 C818 1.379 . S
C823 N821 1.356 . S
N824 C816 1.356 1_545 S
N824 H830 0.984 . S
N824 H831 0.980 1_545 S
N825 C818 1.356 . S
N825 H828 0.982 1_655 S
N825 H829 0.985 1_655 S
H826 N821 0.984 . S
H827 N821 0.985 . S
H828 N825 0.982 1_455 S
H829 N825 0.985 1_455 S
H830 N824 0.984 . S
H831 N824 0.980 1_565 S
H832 N820 0.984 . S
H833 N820 0.985 . S
C834 C835 1.363 . S
C834 C840 1.379 . S
C834 N842 1.356 . S
C835 C834 1.363 . S
C835 C841 1.363 . S
C836 C837 1.363 . S
C836 C841 1.379 . S
C836 N843 1.356 . S
C837 C836 1.363 . S
C837 C840 1.363 . S
N838 C840 1.356 . S
N838 H850 0.984 1_545 S
N838 H851 0.986 . S
N839 C841 1.356 . S
N839 H844 0.984 . S
N839 H845 0.985 . S
C840 C834 1.379 . S
C840 C837 1.363 . S
C840 N838 1.356 . S
C841 C835 1.363 . S
C841 C836 1.379 . S
C841 N839 1.356 . S
N842 C834 1.356 . S
N842 H848 0.984 . S
N842 H849 0.984 . S
N843 C836 1.356 . S
N843 H846 0.984 . S
N843 H847 0.985 . S
H844 N839 0.984 . S
H845 N839 0.985 . S
H846 N843 0.984 . S
H847 N843 0.985 . S
H848 N842 0.984 . S
H849 N842 0.984 . S
H850 N838 0.984 1_565 S
H851 N838 0.986 . S
C852 C853 1.363 . S
C852 C858 1.379 . S
C852 N860 1.356 . S
C853 C852 1.363 . S
C853 C859 1.363 . S
C854 C855 1.363 . S
C854 C859 1.379 . S
C854 N861 1.356 . S
C855 C854 1.363 . S
C855 C858 1.363 . S
N856 C858 1.356 . S
N856 H868 0.984 . S
N856 H869 0.985 . S
N857 C859 1.356 . S
N857 H862 0.984 . S
N857 H863 0.985 . S
C858 C852 1.379 . S
C858 C855 1.363 . S
C858 N856 1.356 . S
C859 C853 1.363 . S
C859 C854 1.379 . S
C859 N857 1.356 . S
N860 C852 1.356 . S
N860 H866 0.984 . S
N860 H867 0.984 . S
N861 C854 1.356 . S
N861 H864 0.984 . S
N861 H865 0.985 . S
H862 N857 0.984 . S
H863 N857 0.985 . S
H864 N861 0.984 . S
H865 N861 0.985 . S
H866 N860 0.984 . S
H867 N860 0.984 . S
H868 N856 0.984 . S
H869 N856 0.985 . S
C870 C871 1.363 . S
C870 C876 1.379 . S
C870 N878 1.356 . S
C871 C870 1.363 . S
C871 C877 1.363 . S
C872 C873 1.363 . S
C872 C877 1.379 . S
C872 N879 1.356 . S
C873 C872 1.363 . S
C873 C876 1.363 . S
N874 C876 1.356 . S
N874 H886 0.984 . S
N874 H887 0.985 . S
N875 C877 1.356 . S
N875 H880 0.986 . S
N875 H881 0.985 1_455 S
C876 C870 1.379 . S
C876 C873 1.363 . S
C876 N874 1.356 . S
C877 C871 1.363 . S
C877 C872 1.379 . S
C877 N875 1.356 . S
N878 C870 1.356 . S
N878 H884 0.984 . S
N878 H885 0.984 . S
N879 C872 1.356 . S
N879 H882 0.984 . S
N879 H883 0.985 . S
H880 N875 0.986 . S
H881 N875 0.985 1_655 S
H882 N879 0.984 . S
H883 N879 0.985 . S
H884 N878 0.984 . S
H885 N878 0.984 . S
H886 N874 0.984 . S
H887 N874 0.985 . S
C888 C889 1.363 . S
C888 C894 1.379 . S
C888 N896 1.356 . S
C889 C888 1.363 . S
C889 C895 1.363 . S
C890 C891 1.363 . S
C890 C895 1.379 . S
C890 N897 1.356 1_556 S
C891 C890 1.363 . S
C891 C894 1.363 . S
N892 C894 1.356 1_545 S
N892 H904 0.984 . S
N892 H905 0.985 . S
N893 C895 1.356 . S
N893 H898 0.984 . S
N893 H899 0.985 1_556 S
C894 C888 1.379 . S
C894 C891 1.363 . S
C894 N892 1.356 1_565 S
C895 C889 1.363 . S
C895 C890 1.379 . S
C895 N893 1.356 . S
N896 C888 1.356 . S
N896 H902 0.984 1_565 S
N896 H903 0.984 . S
N897 C890 1.356 1_554 S
N897 H900 0.984 . S
N897 H901 0.985 . S
H898 N893 0.984 . S
H899 N893 0.985 1_554 S
H900 N897 0.984 . S
H901 N897 0.985 . S
H902 N896 0.984 1_545 S
H903 N896 0.984 . S
H904 N892 0.984 . S
H905 N892 0.985 . S
C906 C907 1.363 . S
C906 C912 1.379 . S
C906 N914 1.356 . S
C907 C906 1.363 . S
C907 C913 1.363 . S
C908 C909 1.363 . S
C908 C913 1.379 . S
C908 N915 1.356 . S
C909 C908 1.363 . S
C909 C912 1.363 . S
N910 C912 1.356 . S
N910 H922 0.984 . S
N910 H923 0.985 . S
N911 C913 1.356 . S
N911 H916 0.984 . S
N911 H917 0.985 . S
C912 C906 1.379 . S
C912 C909 1.363 . S
C912 N910 1.356 . S
C913 C907 1.363 . S
C913 C908 1.379 . S
C913 N911 1.356 . S
N914 C906 1.356 . S
N914 H920 0.984 . S
N914 H921 0.984 . S
N915 C908 1.356 . S
N915 H918 0.984 . S
N915 H919 0.985 . S
H916 N911 0.984 . S
H917 N911 0.985 . S
H918 N915 0.984 . S
H919 N915 0.985 . S
H920 N914 0.984 . S
H921 N914 0.984 . S
H922 N910 0.984 . S
H923 N910 0.985 . S
C924 C925 1.363 . S
C924 C930 1.379 . S
C924 N932 1.351 1_554 S
C925 C924 1.363 . S
C925 C931 1.363 . S
C926 C927 1.363 . S
C926 C931 1.379 . S
C926 N933 1.356 . S
C927 C926 1.363 . S
C927 C930 1.363 . S
N928 C930 1.356 1_556 S
N928 H940 0.984 . S
N928 H941 0.985 . S
N929 C931 1.356 . S
N929 H934 0.984 . S
N929 H935 0.985 . S
C930 C924 1.379 . S
C930 C927 1.363 . S
C930 N928 1.356 1_554 S
C931 C925 1.363 . S
C931 C926 1.379 . S
C931 N929 1.356 . S
N932 C924 1.351 1_556 S
N932 H938 0.996 . S
N932 H939 0.978 1_556 S
N933 C926 1.356 . S
N933 H936 0.984 . S
N933 H937 0.985 . S
H934 N929 0.984 . S
H935 N929 0.985 . S
H936 N933 0.984 . S
H937 N933 0.985 . S
H938 N932 0.996 . S
H939 N932 0.978 1_554 S
H940 N928 0.984 . S
H941 N928 0.985 . S
C942 C943 1.363 . S
C942 C948 1.379 . S
C942 N950 1.356 . S
C943 C942 1.363 . S
C943 C949 1.363 . S
C944 C945 1.363 . S
C944 C949 1.379 . S
C944 N951 1.356 . S
C945 C944 1.363 . S
C945 C948 1.363 . S
N946 C948 1.356 . S
N946 H958 0.984 . S
N946 H959 0.985 . S
N947 C949 1.356 . S
N947 H952 0.984 . S
N947 H953 0.985 . S
C948 C942 1.379 . S
C948 C945 1.363 . S
C948 N946 1.356 . S
C949 C943 1.363 . S
C949 C944 1.379 . S
C949 N947 1.356 . S
N950 C942 1.356 . S
N950 H956 0.984 . S
N950 H957 0.984 . S
N951 C944 1.356 . S
N951 H954 0.984 . S
N951 H955 0.985 . S
H952 N947 0.984 . S
H953 N947 0.985 . S
H954 N951 0.984 . S
H955 N951 0.985 . S
H956 N950 0.984 . S
H957 N950 0.984 . S
H958 N946 0.984 . S
H959 N946 0.985 . S
C960 C961 1.363 . S
C960 C966 1.379 . S
C960 N968 1.356 . S
C961 C960 1.363 . S
C961 C967 1.363 . S
C962 C963 1.363 . S
C962 C967 1.379 . S
C962 N969 1.356 1_656 S
C963 C962 1.363 . S
C963 C966 1.363 . S
N964 C966 1.356 . S
N964 H976 0.984 . S
N964 H977 0.985 . S
N965 C967 1.356 . S
N965 H970 0.984 . S
N965 H971 0.985 1_656 S
C966 C960 1.379 . S
C966 C963 1.363 . S
C966 N964 1.356 . S
C967 C961 1.363 . S
C967 C962 1.379 . S
C967 N965 1.356 . S
N968 C960 1.356 . S
N968 H974 0.984 . S
N968 H975 0.984 . S
N969 C962 1.356 1_454 S
N969 H972 0.984 . S
N969 H973 0.985 . S
H970 N965 0.984 . S
H971 N965 0.985 1_454 S
H972 N969 0.984 . S
H973 N969 0.985 . S
H974 N968 0.984 . S
H975 N968 0.984 . S
H976 N964 0.984 . S
H977 N964 0.985 . S
C978 C979 1.363 . S
C978 C984 1.379 . S
C978 N986 1.356 . S
C979 C978 1.363 . S
C979 C985 1.363 . S
C980 C981 1.363 . S
C980 C985 1.379 . S
C980 N987 1.356 . S
C981 C980 1.363 . S
C981 C984 1.363 . S
N982 C984 1.356 1_556 S
N982 H994 0.984 . S
N982 H995 0.985 . S
N983 C985 1.356 . S
N983 H988 0.984 . S
N983 H989 0.985 . S
C984 C978 1.379 . S
C984 C981 1.363 . S
C984 N982 1.356 1_554 S
C985 C979 1.363 . S
C985 C980 1.379 . S
C985 N983 1.356 . S
N986 C978 1.356 . S
N986 H992 0.984 1_554 S
N986 H993 0.984 . S
N987 C980 1.356 . S
N987 H990 0.984 . S
N987 H991 0.985 . S
H988 N983 0.984 . S
H989 N983 0.985 . S
H990 N987 0.984 . S
H991 N987 0.985 . S
H992 N986 0.984 1_556 S
H993 N986 0.984 . S
H994 N982 0.984 . S
H995 N982 0.985 . S
C996 C997 1.363 . S
C996 C1002 1.379 . S
C996 N1004 1.356 1_455 S
C997 C996 1.363 . S
C997 C1003 1.363 . S
C998 C999 1.363 . S
C998 C1003 1.379 . S
C998 N1005 1.356 . S
C999 C998 1.363 . S
C999 C1002 1.363 . S
N1000 C1002 1.356 1_655 S
N1000 H1012 0.984 . S
N1000 H1013 0.985 . S
N1001 C1003 1.356 . S
N1001 H1006 0.984 . S
N1001 H1007 0.985 . S
C1002 C996 1.379 . S
C1002 C999 1.363 . S
C1002 N1000 1.356 1_455 S
C1003 C997 1.363 . S
C1003 C998 1.379 . S
C1003 N1001 1.356 . S
N1004 C996 1.356 1_655 S
N1004 H1010 0.984 . S
N1004 H1011 0.984 . S
N1005 C998 1.356 . S
N1005 H1008 0.984 . S
N1005 H1009 0.985 . S
H1006 N1001 0.984 . S
H1007 N1001 0.985 . S
H1008 N1005 0.984 . S
H1009 N1005 0.985 . S
H1010 N1004 0.984 . S
H1011 N1004 0.984 . S
H1012 N1000 0.984 . S
H1013 N1000 0.985 . S
C1014 C1015 1.363 . S
C1014 C1020 1.379 . S
C1014 N1022 1.356 . S
C1015 C1014 1.363 . S
C1015 C1021 1.363 . S
C1016 C1017 1.363 . S
C1016 C1021 1.379 . S
C1016 N1023 1.356 . S
C1017 C1016 1.363 . S
C1017 C1020 1.363 . S
N1018 C1020 1.356 . S
N1018 H1030 0.984 . S
N1018 H1031 0.985 . S
N1019 C1021 1.356 . S
N1019 H1024 0.984 . S
N1019 H1025 0.985 . S
C1020 C1014 1.379 . S
C1020 C1017 1.363 . S
C1020 N1018 1.356 . S
C1021 C1015 1.363 . S
C1021 C1016 1.379 . S
C1021 N1019 1.356 . S
N1022 C1014 1.356 . S
N1022 H1028 0.984 . S
N1022 H1029 0.984 . S
N1023 C1016 1.356 . S
N1023 H1026 0.984 . S
N1023 H1027 0.985 . S
H1024 N1019 0.984 . S
H1025 N1019 0.985 . S
H1026 N1023 0.984 . S
H1027 N1023 0.985 . S
H1028 N1022 0.984 . S
H1029 N1022 0.984 . S
H1030 N1018 0.984 . S
H1031 N1018 0.985 . S
C601 C1 2.132 . S
C603 C496 2.176 . S
C619 C80 1.171 . S
C621 N516 1.193 . S
C639 C550 2.037 . S
C637 C140 1.971 . S
C655 C211 1.393 . S
C657 N584 1.321 . S
C675 C537 2.324 . S
C673 C31 2.310 . S
C693 N494 1.219 . S
C691 C61 1.194 . S
C711 C571 2.056 . S
C709 C151 1.960 . S
C729 N546 1.158 . S
C727 C200 1.065 . S
C745 C20 1.846 . S
C747 C586 1.857 . S
C765 C520 1.768 . S
C763 C121 1.668 . S
C781 C181 1.434 . S
C783 C481 1.546 . S
C799 C91 1.411 . S
C801 C567 1.501 . S
C819 C507 2.176 . S
C817 C260 2.172 . S
C835 C320 1.171 . S
C837 N524 1.193 . S
C853 C361 2.035 . S
C855 C541 2.037 . S
C871 C451 1.393 . S
C873 N576 1.321 . S
C889 C271 2.304 . S
C891 C526 2.325 . S
C909 N486 1.219 . S
C907 C301 1.193 . S
C927 C580 2.056 . S
C925 C380 2.018 . S
C945 N554 1.158 . S
C943 C440 1.065 . S
C961 C241 1.814 . S
C963 C597 1.857 . S
C981 C511 1.768 . S
C979 C391 1.737 . S
C999 C490 1.545 . S
C997 C421 1.432 . S
C1015 C331 1.411 . S
C1017 C556 1.501 . S
