# Generated by pormake.
# Topology ptr, (4,4)-cn, num edge types: 1
# Building blocks:
#     Node 0, Type 0, BuildingBlock: TATPOV_clean_sbu_0, # of connection points: 4
#     Node 1, Type 0, BuildingBlock: TATPOV_clean_sbu_0, # of connection points: 4
#     Node 2, Type 0, BuildingBlock: TATPOV_clean_sbu_0, # of connection points: 4
#     Node 3, Type 0, BuildingBlock: TATPOV_clean_sbu_0, # of connection points: 4
#     Node 4, Type 0, BuildingBlock: TATPOV_clean_sbu_0, # of connection points: 4
#     Node 5, Type 0, BuildingBlock: TATPOV_clean_sbu_0, # of connection points: 4
#     Node 6, Type 0, BuildingBlock: TATPOV_clean_sbu_0, # of connection points: 4
#     Node 7, Type 0, BuildingBlock: TATPOV_clean_sbu_0, # of connection points: 4
#     Node 8, Type 0, BuildingBlock: TATPOV_clean_sbu_0, # of connection points: 4
#     Node 9, Type 0, BuildingBlock: TATPOV_clean_sbu_0, # of connection points: 4
#     Node 10, Type 0, BuildingBlock: TATPOV_clean_sbu_0, # of connection points: 4
#     Node 11, Type 0, BuildingBlock: TATPOV_clean_sbu_0, # of connection points: 4
#     Node 12, Type 0, BuildingBlock: TATPOV_clean_sbu_0, # of connection points: 4
#     Node 13, Type 0, BuildingBlock: TATPOV_clean_sbu_0, # of connection points: 4
#     Node 14, Type 0, BuildingBlock: TATPOV_clean_sbu_0, # of connection points: 4
#     Node 15, Type 0, BuildingBlock: TATPOV_clean_sbu_0, # of connection points: 4
#     Node 16, Type 0, BuildingBlock: TATPOV_clean_sbu_0, # of connection points: 4
#     Node 17, Type 0, BuildingBlock: TATPOV_clean_sbu_0, # of connection points: 4
#     Node 18, Type 1, BuildingBlock: MIFKUJ_clean_linker_1, # of connection points: 4
#     Node 19, Type 1, BuildingBlock: MIFKUJ_clean_linker_1, # of connection points: 4
#     Node 20, Type 1, BuildingBlock: MIFKUJ_clean_linker_1, # of connection points: 4
#     Node 21, Type 1, BuildingBlock: MIFKUJ_clean_linker_1, # of connection points: 4
#     Node 22, Type 1, BuildingBlock: MIFKUJ_clean_linker_1, # of connection points: 4
#     Node 23, Type 1, BuildingBlock: MIFKUJ_clean_linker_1, # of connection points: 4
#     Node 24, Type 1, BuildingBlock: MIFKUJ_clean_linker_1, # of connection points: 4
#     Node 25, Type 1, BuildingBlock: MIFKUJ_clean_linker_1, # of connection points: 4
#     Node 26, Type 1, BuildingBlock: MIFKUJ_clean_linker_1, # of connection points: 4
#     Node 27, Type 1, BuildingBlock: MIFKUJ_clean_linker_1, # of connection points: 4
#     Node 28, Type 1, BuildingBlock: MIFKUJ_clean_linker_1, # of connection points: 4
#     Node 29, Type 1, BuildingBlock: MIFKUJ_clean_linker_1, # of connection points: 4
#     Node 30, Type 1, BuildingBlock: MIFKUJ_clean_linker_1, # of connection points: 4
#     Node 31, Type 1, BuildingBlock: MIFKUJ_clean_linker_1, # of connection points: 4
#     Node 32, Type 1, BuildingBlock: MIFKUJ_clean_linker_1, # of connection points: 4
#     Node 33, Type 1, BuildingBlock: MIFKUJ_clean_linker_1, # of connection points: 4
#     Node 34, Type 1, BuildingBlock: MIFKUJ_clean_linker_1, # of connection points: 4
#     Node 35, Type 1, BuildingBlock: MIFKUJ_clean_linker_1, # of connection points: 4
#     Edge 36, Type (0, 1), BuildingBlock: CIFDUS_clean_linker_0, # of connection points: 2
#     Edge 37, Type (0, 1), BuildingBlock: CIFDUS_clean_linker_0, # of connection points: 2
#     Edge 38, Type (0, 1), BuildingBlock: CIFDUS_clean_linker_0, # of connection points: 2
#     Edge 39, Type (0, 1), BuildingBlock: CIFDUS_clean_linker_0, # of connection points: 2
#     Edge 40, Type (0, 1), BuildingBlock: CIFDUS_clean_linker_0, # of connection points: 2
#     Edge 41, Type (0, 1), BuildingBlock: CIFDUS_clean_linker_0, # of connection points: 2
#     Edge 42, Type (0, 1), BuildingBlock: CIFDUS_clean_linker_0, # of connection points: 2
#     Edge 43, Type (0, 1), BuildingBlock: CIFDUS_clean_linker_0, # of connection points: 2
#     Edge 44, Type (0, 1), BuildingBlock: CIFDUS_clean_linker_0, # of connection points: 2
#     Edge 45, Type (0, 1), BuildingBlock: CIFDUS_clean_linker_0, # of connection points: 2
#     Edge 46, Type (0, 1), BuildingBlock: CIFDUS_clean_linker_0, # of connection points: 2
#     Edge 47, Type (0, 1), BuildingBlock: CIFDUS_clean_linker_0, # of connection points: 2
#     Edge 48, Type (0, 1), BuildingBlock: CIFDUS_clean_linker_0, # of connection points: 2
#     Edge 49, Type (0, 1), BuildingBlock: CIFDUS_clean_linker_0, # of connection points: 2
#     Edge 50, Type (0, 1), BuildingBlock: CIFDUS_clean_linker_0, # of connection points: 2
#     Edge 51, Type (0, 1), BuildingBlock: CIFDUS_clean_linker_0, # of connection points: 2
#     Edge 52, Type (0, 1), BuildingBlock: CIFDUS_clean_linker_0, # of connection points: 2
#     Edge 53, Type (0, 1), BuildingBlock: CIFDUS_clean_linker_0, # of connection points: 2
#     Edge 54, Type (0, 1), BuildingBlock: CIFDUS_clean_linker_0, # of connection points: 2
#     Edge 55, Type (0, 1), BuildingBlock: CIFDUS_clean_linker_0, # of connection points: 2
#     Edge 56, Type (0, 1), BuildingBlock: CIFDUS_clean_linker_0, # of connection points: 2
#     Edge 57, Type (0, 1), BuildingBlock: CIFDUS_clean_linker_0, # of connection points: 2
#     Edge 58, Type (0, 1), BuildingBlock: CIFDUS_clean_linker_0, # of connection points: 2
#     Edge 59, Type (0, 1), BuildingBlock: CIFDUS_clean_linker_0, # of connection points: 2
#     Edge 60, Type (0, 1), BuildingBlock: CIFDUS_clean_linker_0, # of connection points: 2
#     Edge 61, Type (0, 1), BuildingBlock: CIFDUS_clean_linker_0, # of connection points: 2
#     Edge 62, Type (0, 1), BuildingBlock: CIFDUS_clean_linker_0, # of connection points: 2
#     Edge 63, Type (0, 1), BuildingBlock: CIFDUS_clean_linker_0, # of connection points: 2
#     Edge 64, Type (0, 1), BuildingBlock: CIFDUS_clean_linker_0, # of connection points: 2
#     Edge 65, Type (0, 1), BuildingBlock: CIFDUS_clean_linker_0, # of connection points: 2
#     Edge 66, Type (0, 1), BuildingBlock: CIFDUS_clean_linker_0, # of connection points: 2
#     Edge 67, Type (0, 1), BuildingBlock: CIFDUS_clean_linker_0, # of connection points: 2
#     Edge 68, Type (0, 1), BuildingBlock: CIFDUS_clean_linker_0, # of connection points: 2
#     Edge 69, Type (0, 1), BuildingBlock: CIFDUS_clean_linker_0, # of connection points: 2
#     Edge 70, Type (0, 1), BuildingBlock: CIFDUS_clean_linker_0, # of connection points: 2
#     Edge 71, Type (0, 1), BuildingBlock: CIFDUS_clean_linker_0, # of connection points: 2
#     Edge 72, Type (0, 1), BuildingBlock: CIFDUS_clean_linker_0, # of connection points: 2
#     Edge 73, Type (0, 1), BuildingBlock: CIFDUS_clean_linker_0, # of connection points: 2
#     Edge 74, Type (0, 1), BuildingBlock: CIFDUS_clean_linker_0, # of connection points: 2
#     Edge 75, Type (0, 1), BuildingBlock: CIFDUS_clean_linker_0, # of connection points: 2
#     Edge 76, Type (0, 1), BuildingBlock: CIFDUS_clean_linker_0, # of connection points: 2
#     Edge 77, Type (0, 1), BuildingBlock: CIFDUS_clean_linker_0, # of connection points: 2
#     Edge 78, Type (0, 1), BuildingBlock: CIFDUS_clean_linker_0, # of connection points: 2
#     Edge 79, Type (0, 1), BuildingBlock: CIFDUS_clean_linker_0, # of connection points: 2
#     Edge 80, Type (0, 1), BuildingBlock: CIFDUS_clean_linker_0, # of connection points: 2
#     Edge 81, Type (0, 1), BuildingBlock: CIFDUS_clean_linker_0, # of connection points: 2
#     Edge 82, Type (0, 1), BuildingBlock: CIFDUS_clean_linker_0, # of connection points: 2
#     Edge 83, Type (0, 1), BuildingBlock: CIFDUS_clean_linker_0, # of connection points: 2
#     Edge 84, Type (0, 1), BuildingBlock: CIFDUS_clean_linker_0, # of connection points: 2
#     Edge 85, Type (0, 1), BuildingBlock: CIFDUS_clean_linker_0, # of connection points: 2
#     Edge 86, Type (0, 1), BuildingBlock: CIFDUS_clean_linker_0, # of connection points: 2
#     Edge 87, Type (0, 1), BuildingBlock: CIFDUS_clean_linker_0, # of connection points: 2
#     Edge 88, Type (0, 1), BuildingBlock: CIFDUS_clean_linker_0, # of connection points: 2
#     Edge 89, Type (0, 1), BuildingBlock: CIFDUS_clean_linker_0, # of connection points: 2
#     Edge 90, Type (0, 1), BuildingBlock: CIFDUS_clean_linker_0, # of connection points: 2
#     Edge 91, Type (0, 1), BuildingBlock: CIFDUS_clean_linker_0, # of connection points: 2
#     Edge 92, Type (0, 1), BuildingBlock: CIFDUS_clean_linker_0, # of connection points: 2
#     Edge 93, Type (0, 1), BuildingBlock: CIFDUS_clean_linker_0, # of connection points: 2
#     Edge 94, Type (0, 1), BuildingBlock: CIFDUS_clean_linker_0, # of connection points: 2
#     Edge 95, Type (0, 1), BuildingBlock: CIFDUS_clean_linker_0, # of connection points: 2
#     Edge 96, Type (0, 1), BuildingBlock: CIFDUS_clean_linker_0, # of connection points: 2
#     Edge 97, Type (0, 1), BuildingBlock: CIFDUS_clean_linker_0, # of connection points: 2
#     Edge 98, Type (0, 1), BuildingBlock: CIFDUS_clean_linker_0, # of connection points: 2
#     Edge 99, Type (0, 1), BuildingBlock: CIFDUS_clean_linker_0, # of connection points: 2
#     Edge 100, Type (0, 1), BuildingBlock: CIFDUS_clean_linker_0, # of connection points: 2
#     Edge 101, Type (0, 1), BuildingBlock: CIFDUS_clean_linker_0, # of connection points: 2
#     Edge 102, Type (0, 1), BuildingBlock: CIFDUS_clean_linker_0, # of connection points: 2
#     Edge 103, Type (0, 1), BuildingBlock: CIFDUS_clean_linker_0, # of connection points: 2
#     Edge 104, Type (0, 1), BuildingBlock: CIFDUS_clean_linker_0, # of connection points: 2
#     Edge 105, Type (0, 1), BuildingBlock: CIFDUS_clean_linker_0, # of connection points: 2
#     Edge 106, Type (0, 1), BuildingBlock: CIFDUS_clean_linker_0, # of connection points: 2
#     Edge 107, Type (0, 1), BuildingBlock: CIFDUS_clean_linker_0, # of connection points: 2
# Relax obj value: 0.067
# Max RMSD: 0.225
# Mean RMSD: 0.107
data_MOF--net-ptr--node1-TATPOV_clean_sbu_0--node2-MIFKUJ_clean_linker_1--edge1-CIFDUS_clean_linker_0
_symmetry_space_group_name_H-M    P1
_symmetry_Int_Tables_number       1
_symmetry_cell_setting            triclinic
loop_
_symmetry_equiv_pos_as_xyz
'x, y, z'
_cell_length_a     80.407807
_cell_length_b     81.521109
_cell_length_c     54.344318
_cell_angle_alpha  89.772087
_cell_angle_beta   90.806279
_cell_angle_gamma 121.42722
loop_
_atom_site_label
_atom_site_type_symbol
_atom_site_fract_x
_atom_site_fract_y
_atom_site_fract_z
_atom_type_partial_charge
Zn0 Zn 0.95488 0.34677 0.02289 0.0
Zn1 Zn 0.99138 0.35333 0.02335 0.0
O2 O 0.97269 0.32419 0.01722 0.0
O3 O 0.94275 0.31833 0.01715 0.0
O4 O 0.01754 0.3555 0.0283 0.0
O5 O 0.95858 0.35799 0.05709 0.0
O6 O 0.98903 0.36531 0.05558 0.0
C7 C 0.95441 0.3124 0.01492 0.0
C8 C 0.9805 0.37229 0.98372 0.0
O9 O 0.99346 0.36949 0.99309 0.0
O10 O 0.96373 0.36449 0.99321 0.0
C11 C 0.02077 0.34284 0.02002 0.0
O12 O 0.00771 0.32917 0.00559 0.0
C13 C 0.97549 0.36591 0.06668 0.0
Zn14 Zn 0.64441 0.60672 0.9858 0.0
Zn15 Zn 0.64804 0.63886 0.00249 0.0
O16 O 0.67646 0.647 0.99344 0.0
O17 O 0.67328 0.61928 0.98379 0.0
O18 O 0.65133 0.66294 0.01807 0.0
O19 O 0.63104 0.59237 0.01645 0.0
O20 O 0.63628 0.6197 0.03145 0.0
C21 C 0.68402 0.63723 0.9872 0.0
C22 C 0.62387 0.61964 0.95576 0.0
O23 O 0.62909 0.63233 0.97261 0.0
O24 O 0.62923 0.60756 0.95664 0.0
C25 C 0.6474 0.67479 0.0084 0.0
O26 O 0.64063 0.67195 0.98568 0.0
C27 C 0.63001 0.60185 0.03411 0.0
Zn28 Zn 0.36462 0.97816 0.04061 0.0
Zn29 Zn 0.36486 0.01053 0.02968 0.0
O30 O 0.337 0.99179 0.04227 0.0
O31 O 0.33666 0.96513 0.05026 0.0
O32 O 0.36317 0.03327 0.01878 0.0
O33 O 0.37191 0.97634 0.0057 0.0
O34 O 0.37259 0.00315 0.99757 0.0
C35 C 0.32805 0.97443 0.04972 0.0
C36 C 0.39228 0.01154 0.06954 0.0
O37 O 0.3864 0.02057 0.05643 0.0
O38 O 0.38516 0.99368 0.06651 0.0
C39 C 0.3691 0.04888 0.03047 0.0
O40 O 0.37757 0.0514 0.05213 0.0
C41 C 0.37471 0.98944 0.99068 0.0
Zn42 Zn 0.04644 0.65097 0.0075 0.0
Zn43 Zn 0.01344 0.65017 0.00591 0.0
O44 O 0.03472 0.67814 0.01627 0.0
O45 O 0.0623 0.67864 0.01696 0.0
O46 O 0.98973 0.65258 0.0009 0.0
O47 O 0.04429 0.64269 0.97242 0.0
O48 O 0.01514 0.63893 0.9722 0.0
C49 C 0.05309 0.68715 0.0201 0.0
C50 C 0.01803 0.62527 0.04347 0.0
O51 O 0.00727 0.63115 0.03458 0.0
O52 O 0.03474 0.6313 0.03459 0.0
C53 C 0.99242 0.66721 0.98894 0.0
O54 O 0.00991 0.67941 0.98064 0.0
C55 C 0.02826 0.63733 0.96149 0.0
Zn56 Zn 0.35473 0.39778 0.0247 0.0
Zn57 Zn 0.35583 0.36745 0.01518 0.0
O58 O 0.32656 0.35738 0.02289 0.0
O59 O 0.32603 0.38393 0.02735 0.0
O60 O 0.35516 0.34293 0.00599 0.0
O61 O 0.36649 0.41017 0.99312 0.0
O62 O 0.36643 0.38403 0.98316 0.0
C63 C 0.31715 0.36581 0.02647 0.0
C64 C 0.37907 0.39318 0.05919 0.0
O65 O 0.37488 0.37875 0.04554 0.0
O66 O 0.37163 0.40323 0.05439 0.0
C67 C 0.34341 0.32699 0.01625 0.0
O68 O 0.33231 0.32669 0.03397 0.0
C69 C 0.36989 0.40078 0.97766 0.0
Zn70 Zn 0.64469 0.03827 1.00045 0.0
Zn71 Zn 0.64528 0.00629 0.00675 0.0
O72 O 0.67354 0.02716 0.99697 0.0
O73 O 0.67285 0.05363 0.99272 0.0
O74 O 0.64826 0.98354 0.01342 0.0
O75 O 0.636 0.03737 0.0351 0.0
O76 O 0.63502 0.01003 0.03984 0.0
C77 C 0.68215 0.04505 0.99198 0.0
C78 C 0.61961 0.00772 0.96622 0.0
O79 O 0.62536 0.99793 0.97794 0.0
O80 O 0.62567 0.02492 0.97244 0.0
C81 C 0.63659 0.96938 0.02671 0.0
O82 O 0.62123 0.96886 0.03569 0.0
C83 C 0.63251 0.02314 0.04831 0.0
Zn84 Zn 0.61649 0.68318 0.34508 0.0
Zn85 Zn 0.65222 0.68805 0.34912 0.0
O86 O 0.63301 0.6592 0.34093 0.0
O87 O 0.60353 0.65466 0.33983 0.0
O88 O 0.678 0.68956 0.35547 0.0
O89 O 0.61869 0.69366 0.37921 0.0
O90 O 0.64856 0.6992 0.38165 0.0
C91 C 0.61465 0.64808 0.33801 0.0
C92 C 0.6446 0.70863 0.30806 0.0
O93 O 0.65652 0.70516 0.31914 0.0
O94 O 0.62728 0.70116 0.31567 0.0
C95 C 0.68094 0.67626 0.34915 0.0
O96 O 0.66738 0.66145 0.33661 0.0
C97 C 0.6346 0.70015 0.391 0.0
Zn98 Zn 0.31873 0.9451 0.33642 0.0
Zn99 Zn 0.31796 0.9773 0.34399 0.0
O100 O 0.34706 0.98676 0.33685 0.0
O101 O 0.34775 0.96011 0.3349 0.0
O102 O 0.31814 0.00171 0.3522 0.0
O103 O 0.3066 0.93474 0.36927 0.0
O104 O 0.30646 0.96134 0.37565 0.0
C105 C 0.35652 0.97825 0.3347 0.0
C106 C 0.29531 0.95111 0.30048 0.0
O107 O 0.29939 0.96557 0.31391 0.0
O108 O 0.3023 0.94071 0.30566 0.0
C109 C 0.3329 0.01597 0.3625 0.0
O110 O 0.34848 0.01506 0.36708 0.0
C111 C 0.3029 0.94494 0.38292 0.0
Zn112 Zn 0.01915 0.30162 0.36074 0.0
Zn113 Zn 0.02604 0.33728 0.35546 0.0
O114 O 0.9969 0.32039 0.36464 0.0
O115 O 0.99053 0.29065 0.36438 0.0
O116 O 0.02929 0.36306 0.34704 0.0
O117 O 0.02973 0.30189 0.32751 0.0
O118 O 0.03488 0.331 0.32302 0.0
C119 C 0.98487 0.3024 0.36671 0.0
C120 C 0.04659 0.32959 0.39691 0.0
O121 O 0.04452 0.34184 0.38475 0.0
O122 O 0.03716 0.31201 0.39059 0.0
C123 C 0.0173 0.36797 0.35334 0.0
O124 O 0.00286 0.35667 0.36788 0.0
C125 C 0.03565 0.31683 0.3146 0.0
Zn126 Zn 0.70535 0.96744 0.35485 0.0
Zn127 Zn 0.67588 0.97293 0.34526 0.0
O128 O 0.69801 0.99911 0.35854 0.0
O129 O 0.7226 0.995 0.36555 0.0
O130 O 0.65567 0.97921 0.33498 0.0
O131 O 0.70505 0.95904 0.32 0.0
O132 O 0.68007 0.96247 0.31273 0.0
C133 C 0.71549 0.00567 0.36592 0.0
C134 C 0.67084 0.94407 0.38425 0.0
O135 O 0.66361 0.95252 0.37252 0.0
O136 O 0.68791 0.94781 0.37993 0.0
C137 C 0.64341 0.97952 0.34919 0.0
O138 O 0.64297 0.9748 0.37242 0.0
C139 C 0.69198 0.9577 0.30542 0.0
Zn140 Zn 0.01334 0.72551 0.34735 0.0
Zn141 Zn 0.0158 0.69421 0.34079 0.0
O142 O 0.98706 0.68393 0.35059 0.0
O143 O 0.98492 0.70965 0.35494 0.0
O144 O 0.01601 0.67003 0.33269 0.0
O145 O 0.02138 0.73407 0.3127 0.0
O146 O 0.02571 0.70971 0.30833 0.0
C147 C 0.97711 0.6916 0.35529 0.0
C148 C 0.04119 0.72312 0.38023 0.0
O149 O 0.0355 0.70718 0.36935 0.0
O150 O 0.03399 0.7332 0.37412 0.0
C151 C 0.00383 0.65367 0.34163 0.0
O152 O 0.9912 0.65239 0.35776 0.0
C153 C 0.02668 0.72478 0.29978 0.0
Zn154 Zn 0.32547 0.37795 0.3321 0.0
Zn155 Zn 0.31873 0.34305 0.34426 0.0
O156 O 0.34809 0.35875 0.33633 0.0
O157 O 0.35417 0.38816 0.33054 0.0
O158 O 0.31513 0.31819 0.35722 0.0
O159 O 0.31441 0.38027 0.3639 0.0
O160 O 0.30994 0.35212 0.37406 0.0
C161 C 0.36004 0.37651 0.33221 0.0
C162 C 0.2982 0.34691 0.2992 0.0
O163 O 0.30041 0.33603 0.3141 0.0
O164 O 0.30767 0.36496 0.30255 0.0
C165 C 0.3235 0.30993 0.34845 0.0
O166 O 0.33412 0.31699 0.32865 0.0
C167 C 0.30883 0.36676 0.37926 0.0
Zn168 Zn 0.28674 0.02021 0.68499 0.0
Zn169 Zn 0.32246 0.02833 0.69479 0.0
O170 O 0.30631 0.99949 0.68575 0.0
O171 O 0.2758 0.99178 0.6825 0.0
O172 O 0.34769 0.03044 0.70504 0.0
O173 O 0.28568 0.03229 0.71647 0.0
O174 O 0.31517 0.03848 0.72547 0.0
C175 C 0.28839 0.98693 0.68203 0.0
C176 C 0.31597 0.04638 0.64995 0.0
O177 O 0.32814 0.04535 0.6642 0.0
O178 O 0.29793 0.03681 0.65471 0.0
C179 C 0.35573 0.0244 0.69069 0.0
O180 O 0.34851 0.01881 0.66834 0.0
C181 C 0.30024 0.03933 0.731 0.0
Zn182 Zn 0.98041 0.2728 0.66933 0.0
Zn183 Zn 0.98216 0.30476 0.68495 0.0
O184 O 0.0105 0.31437 0.674 0.0
O185 O 0.00918 0.28744 0.66468 0.0
O186 O 0.98434 0.32834 0.70027 0.0
O187 O 0.9698 0.25953 0.70166 0.0
O188 O 0.97196 0.28618 0.71439 0.0
C189 C 0.01889 0.30552 0.6672 0.0
C190 C 0.95642 0.28304 0.64066 0.0
O191 O 0.96196 0.29643 0.65655 0.0
O192 O 0.96266 0.27163 0.6417 0.0
C193 C 0.98036 0.34 0.69017 0.0
O194 O 0.97437 0.33729 0.66711 0.0
C195 C 0.96774 0.26902 0.71843 0.0
Zn196 Zn 0.68957 0.637 0.69174 0.0
Zn197 Zn 0.6946 0.67187 0.68919 0.0
O198 O 0.66564 0.65393 0.69848 0.0
O199 O 0.6617 0.62518 0.70088 0.0
O200 O 0.69636 0.69723 0.68304 0.0
O201 O 0.69708 0.63764 0.65655 0.0
O202 O 0.70275 0.66708 0.65525 0.0
C203 C 0.65489 0.63601 0.70282 0.0
C204 C 0.71759 0.66415 0.72756 0.0
O205 O 0.71373 0.67614 0.718 0.0
O206 O 0.70956 0.64719 0.71909 0.0
C207 C 0.68508 0.70167 0.69322 0.0
O208 O 0.67319 0.6904 0.71033 0.0
C209 C 0.70266 0.65305 0.64482 0.0
Zn210 Zn 0.3833 0.31269 0.69266 0.0
Zn211 Zn 0.35062 0.31268 0.68227 0.0
O212 O 0.37122 0.3409 0.69134 0.0
O213 O 0.3985 0.34126 0.69739 0.0
O214 O 0.327 0.31409 0.6727 0.0
O215 O 0.38195 0.30086 0.65966 0.0
O216 O 0.35506 0.30078 0.65122 0.0
C217 C 0.38936 0.35004 0.69675 0.0
C218 C 0.35193 0.2908 0.72691 0.0
O219 O 0.34213 0.2953 0.71286 0.0
O220 O 0.36952 0.29645 0.72234 0.0
C221 C 0.3292 0.32853 0.66077 0.0
O222 O 0.34685 0.34224 0.65478 0.0
C223 C 0.36799 0.29704 0.64501 0.0
Zn224 Zn 0.68723 0.05781 0.70624 0.0
Zn225 Zn 0.68817 0.02712 0.69145 0.0
O226 O 0.65881 0.01626 0.69926 0.0
O227 O 0.65834 0.04237 0.70812 0.0
O228 O 0.68891 0.00424 0.67812 0.0
O229 O 0.69901 0.07169 0.67479 0.0
O230 O 0.69931 0.04619 0.66217 0.0
C231 C 0.64942 0.02438 0.70489 0.0
C232 C 0.71031 0.04885 0.73823 0.0
O233 O 0.70636 0.03589 0.72219 0.0
O234 O 0.7035 0.05972 0.73596 0.0
C235 C 0.67585 0.98672 0.68172 0.0
O236 O 0.66091 0.98264 0.69554 0.0
C237 C 0.70264 0.06309 0.65836 0.0
Zn238 Zn 0.97072 0.69899 0.66755 0.0
Zn239 Zn 0.9735 0.66891 0.67904 0.0
O240 O 0.00019 0.68752 0.66387 0.0
O241 O 0.99698 0.71154 0.65181 0.0
O242 O 0.97692 0.64792 0.69273 0.0
O243 O 0.96829 0.70488 0.70261 0.0
O244 O 0.96681 0.67777 0.71103 0.0
C245 C 0.00703 0.7037 0.65322 0.0
C246 C 0.94178 0.66348 0.64343 0.0
O247 O 0.95124 0.65645 0.65309 0.0
O248 O 0.94661 0.68067 0.6479 0.0
C249 C 0.9731 0.63224 0.68274 0.0
O250 O 0.96589 0.62817 0.66023 0.0
C251 C 0.9659 0.69219 0.71801 0.0
H252 H 0.13997 0.33641 0.1891 0.0
H253 H 0.11532 0.33472 0.21637 0.0
H254 H 0.07137 0.28268 0.17974 0.0
H255 H 0.09634 0.28418 0.15285 0.0
H256 H 0.15214 0.31273 0.18709 0.0
H257 H 0.12443 0.33641 0.13352 0.0
H258 H 0.10042 0.33949 0.1098 0.0
H259 H 0.09035 0.29199 0.06352 0.0
H260 H 0.11315 0.28787 0.08894 0.0
H261 H 0.17049 0.28207 0.10968 0.0
H262 H 0.19885 0.28643 0.08698 0.0
H263 H 0.22625 0.348 0.09436 0.0
H264 H 0.19812 0.34352 0.11699 0.0
H265 H 0.14971 0.30863 0.09597 0.0
H266 H 0.18335 0.29012 0.16044 0.0
H267 H 0.21311 0.29852 0.18407 0.0
H268 H 0.21935 0.35264 0.20457 0.0
H269 H 0.19001 0.34433 0.18086 0.0
C270 C 0.12003 0.31035 0.16905 0.0
C271 C 0.125 0.3247 0.18681 0.0
C272 C 0.11084 0.32384 0.20221 0.0
C273 C 0.09137 0.30855 0.20024 0.0
C274 C 0.08628 0.29454 0.18184 0.0
C275 C 0.10049 0.29544 0.16638 0.0
C276 C 0.13554 0.31049 0.1544 0.0
C277 C 0.15143 0.31167 0.16716 0.0
C278 C 0.13494 0.30966 0.12832 0.0
C279 C 0.12026 0.31153 0.11357 0.0
C280 C 0.11669 0.32629 0.1187 0.0
C281 C 0.10319 0.32832 0.10467 0.0
C282 C 0.09334 0.31603 0.08456 0.0
C283 C 0.0973 0.30152 0.0791 0.0
C284 C 0.11052 0.29924 0.09351 0.0
C285 C 0.18231 0.31251 0.1148 0.0
C286 C 0.18263 0.29646 0.10624 0.0
C287 C 0.19879 0.29895 0.09344 0.0
C288 C 0.21461 0.31754 0.08874 0.0
C289 C 0.21412 0.33352 0.09738 0.0
C290 C 0.19814 0.33102 0.11035 0.0
C291 C 0.16567 0.31021 0.12884 0.0
C292 C 0.14978 0.3089 0.11593 0.0
C293 C 0.16675 0.31209 0.15467 0.0
C294 C 0.18456 0.31666 0.16883 0.0
C295 C 0.19125 0.30383 0.16992 0.0
C296 C 0.20815 0.30858 0.18351 0.0
C297 C 0.21864 0.3263 0.19599 0.0
C298 C 0.21179 0.33902 0.19483 0.0
C299 C 0.19493 0.33423 0.18146 0.0
H300 H 0.70685 0.88066 0.14813 0.0
H301 H 0.7151 0.90663 0.17733 0.0
H302 H 0.65395 0.88102 0.19354 0.0
H303 H 0.64588 0.8556 0.16338 0.0
H304 H 0.677 0.83665 0.17023 0.0
H305 H 0.68905 0.88481 0.10502 0.0
H306 H 0.68036 0.9073 0.08813 0.0
H307 H 0.62063 0.86063 0.07913 0.0
H308 H 0.62932 0.83837 0.09666 0.0
H309 H 0.63232 0.79212 0.08266 0.0
H310 H 0.62789 0.76494 0.0583 0.0
H311 H 0.68289 0.77465 0.08633 0.0
H312 H 0.68719 0.80171 0.11071 0.0
H313 H 0.65614 0.8281 0.08258 0.0
H314 H 0.63725 0.78077 0.13983 0.0
H315 H 0.6311 0.75605 0.16972 0.0
H316 H 0.68725 0.7941 0.204 0.0
H317 H 0.69392 0.81839 0.17288 0.0
C318 C 0.67579 0.86634 0.15362 0.0
C319 C 0.69524 0.88097 0.15756 0.0
C320 C 0.69991 0.89568 0.17443 0.0
C321 C 0.68522 0.8958 0.18811 0.0
C322 C 0.66563 0.88154 0.1832 0.0
C323 C 0.66097 0.86694 0.16606 0.0
C324 C 0.67132 0.84923 0.13901 0.0
C325 C 0.67296 0.83486 0.15085 0.0
C326 C 0.66442 0.84645 0.11447 0.0
C327 C 0.65978 0.85996 0.10239 0.0
C328 C 0.67409 0.87945 0.09945 0.0
C329 C 0.66913 0.89225 0.08958 0.0
C330 C 0.64977 0.88577 0.08243 0.0
C331 C 0.63561 0.86613 0.08479 0.0
C332 C 0.64058 0.85336 0.0946 0.0
C333 C 0.66003 0.79894 0.09869 0.0
C334 C 0.64347 0.78845 0.0835 0.0
C335 C 0.64097 0.77292 0.06953 0.0
C336 C 0.65502 0.76757 0.07037 0.0
C337 C 0.67162 0.77815 0.08554 0.0
C338 C 0.67411 0.79367 0.09949 0.0
C339 C 0.66286 0.81559 0.1134 0.0
C340 C 0.6607 0.82986 0.10175 0.0
C341 C 0.66814 0.81772 0.13871 0.0
C342 C 0.6661 0.80154 0.15393 0.0
C343 C 0.64862 0.78359 0.1531 0.0
C344 C 0.64495 0.76953 0.17056 0.0
C345 C 0.65849 0.7732 0.18965 0.0
C346 C 0.6765 0.79071 0.18956 0.0
C347 C 0.68028 0.8047 0.17184 0.0
H348 H 0.10069 0.84366 0.17813 0.0
H349 H 0.0755 0.81776 0.20255 0.0
H350 H 0.09133 0.77859 0.17306 0.0
H351 H 0.1175 0.80505 0.15005 0.0
H352 H 0.13916 0.85762 0.18395 0.0
H353 H 0.0905 0.82118 0.1183 0.0
H354 H 0.07126 0.79107 0.09528 0.0
H355 H 0.12446 0.79791 0.06671 0.0
H356 H 0.14337 0.82622 0.09177 0.0
H357 H 0.18353 0.86088 0.10418 0.0
H358 H 0.21669 0.88032 0.08943 0.0
H359 H 0.21988 0.93152 0.1171 0.0
H360 H 0.18609 0.9119 0.1311 0.0
H361 H 0.15071 0.85853 0.09453 0.0
H362 H 0.18873 0.86778 0.16962 0.0
H363 H 0.21468 0.88707 0.19926 0.0
H364 H 0.19188 0.92444 0.20812 0.0
H365 H 0.16524 0.90422 0.17919 0.0
C366 C 0.11081 0.82627 0.16197 0.0
C367 C 0.09863 0.82945 0.17679 0.0
C368 C 0.08405 0.81451 0.19057 0.0
C369 C 0.08119 0.79593 0.18973 0.0
C370 C 0.09318 0.7927 0.17441 0.0
C371 C 0.10801 0.80777 0.16094 0.0
C372 C 0.12745 0.84271 0.14941 0.0
C373 C 0.14138 0.85796 0.16426 0.0
C374 C 0.13085 0.84274 0.12383 0.0
C375 C 0.1185 0.82588 0.10743 0.0
C376 C 0.098 0.81602 0.10734 0.0
C377 C 0.08698 0.79891 0.09382 0.0
C378 C 0.09626 0.79167 0.07954 0.0
C379 C 0.11671 0.80248 0.07821 0.0
C380 C 0.12763 0.81905 0.09227 0.0
C381 C 0.18233 0.8849 0.1189 0.0
C382 C 0.19119 0.87632 0.10674 0.0
C383 C 0.21025 0.88744 0.09856 0.0
C384 C 0.22098 0.90741 0.10245 0.0
C385 C 0.21193 0.91615 0.11385 0.0
C386 C 0.19271 0.90496 0.12202 0.0
C387 C 0.16265 0.87238 0.1293 0.0
C388 C 0.14799 0.85825 0.11407 0.0
C389 C 0.15924 0.87229 0.15471 0.0
C390 C 0.17518 0.88466 0.17221 0.0
C391 C 0.18938 0.88016 0.17796 0.0
C392 C 0.20434 0.89138 0.19476 0.0
C393 C 0.20562 0.90755 0.20601 0.0
C394 C 0.19131 0.91203 0.20007 0.0
C395 C 0.17613 0.90057 0.18346 0.0
H396 H 0.29012 0.175 0.8657 0.0
H397 H 0.28865 0.19552 0.8338 0.0
H398 H 0.34956 0.23769 0.84731 0.0
H399 H 0.35073 0.21738 0.8793 0.0
H400 H 0.31384 0.1606 0.86146 0.0
H401 H 0.30377 0.19705 0.9231 0.0
H402 H 0.30996 0.22697 0.94209 0.0
H403 H 0.37021 0.24454 0.95434 0.0
H404 H 0.36393 0.21454 0.93536 0.0
H405 H 0.36406 0.16365 0.94045 0.0
H406 H 0.37059 0.14076 0.96125 0.0
H407 H 0.31081 0.09545 0.94821 0.0
H408 H 0.30437 0.11831 0.9277 0.0
H409 H 0.33902 0.17646 0.94739 0.0
H410 H 0.35253 0.14778 0.87674 0.0
H411 H 0.3502 0.12297 0.84935 0.0
H412 H 0.28726 0.09293 0.8529 0.0
H413 H 0.28991 0.11857 0.8789 0.0
C414 C 0.32049 0.19474 0.87502 0.0
C415 C 0.303 0.1889 0.86213 0.0
C416 C 0.30222 0.20058 0.8438 0.0
C417 C 0.31899 0.21824 0.83786 0.0
C418 C 0.33624 0.22438 0.85163 0.0
C419 C 0.33697 0.21275 0.86999 0.0
C420 C 0.32237 0.18105 0.89111 0.0
C421 C 0.31882 0.16385 0.88048 0.0
C422 C 0.32979 0.18573 0.91552 0.0
C423 C 0.33341 0.20359 0.92774 0.0
C424 C 0.3183 0.20733 0.92992 0.0
C425 C 0.32182 0.22437 0.94088 0.0
C426 C 0.34057 0.23809 0.94967 0.0
C427 C 0.35566 0.23428 0.94757 0.0
C428 C 0.35206 0.21712 0.93689 0.0
C429 C 0.33383 0.1426 0.93214 0.0
C430 C 0.35233 0.14883 0.94235 0.0
C431 C 0.35603 0.13576 0.95424 0.0
C432 C 0.34127 0.11627 0.95606 0.0
C433 C 0.32258 0.11028 0.94664 0.0
C434 C 0.31888 0.12333 0.93492 0.0
C435 C 0.33019 0.15592 0.91772 0.0
C436 C 0.33361 0.17307 0.92857 0.0
C437 C 0.32296 0.15145 0.89329 0.0
C438 C 0.32139 0.135 0.87968 0.0
C439 C 0.33826 0.13571 0.87175 0.0
C440 C 0.33686 0.12139 0.8562 0.0
C441 C 0.31852 0.10592 0.84854 0.0
C442 C 0.30165 0.10483 0.85774 0.0
C443 C 0.30308 0.11937 0.87283 0.0
H444 H 0.84197 0.09466 0.85468 0.0
H445 H 0.815 0.07357 0.82677 0.0
H446 H 0.78508 0.1027 0.8474 0.0
H447 H 0.8115 0.12279 0.87597 0.0
H448 H 0.86199 0.13679 0.84891 0.0
H449 H 0.82309 0.08706 0.90846 0.0
H450 H 0.79158 0.06698 0.92822 0.0
H451 H 0.79731 0.11768 0.96188 0.0
H452 H 0.82743 0.13764 0.94036 0.0
H453 H 0.87673 0.1907 0.8924 0.0
H454 H 0.89102 0.22075 0.91527 0.0
H455 H 0.91341 0.19834 0.96995 0.0
H456 H 0.89942 0.16819 0.94642 0.0
H457 H 0.86029 0.14529 0.93888 0.0
H458 H 0.86882 0.1731 0.843 0.0
H459 H 0.89194 0.19741 0.81467 0.0
H460 H 0.93935 0.19691 0.85224 0.0
H461 H 0.91603 0.17266 0.88104 0.0
C462 C 0.82857 0.11008 0.86759 0.0
C463 C 0.82933 0.0961 0.85352 0.0
C464 C 0.81397 0.0842 0.8374 0.0
C465 C 0.79776 0.08636 0.83464 0.0
C466 C 0.79698 0.10017 0.84929 0.0
C467 C 0.81217 0.11181 0.86563 0.0
C468 C 0.84579 0.12451 0.88201 0.0
C469 C 0.86179 0.13843 0.8687 0.0
C470 C 0.84526 0.1268 0.90777 0.0
C471 C 0.82757 0.11399 0.92238 0.0
C472 C 0.81746 0.09385 0.91993 0.0
C473 C 0.79955 0.08233 0.93155 0.0
C474 C 0.79167 0.09074 0.94625 0.0
C475 C 0.80258 0.11073 0.95008 0.0
C476 C 0.8201 0.1222 0.93804 0.0
C477 C 0.88733 0.17728 0.91738 0.0
C478 C 0.88531 0.19242 0.9088 0.0
C479 C 0.8932 0.20951 0.92215 0.0
C480 C 0.90312 0.2118 0.94456 0.0
C481 C 0.9059 0.19699 0.95268 0.0
C482 C 0.89793 0.17979 0.93927 0.0
C483 C 0.87568 0.1581 0.9055 0.0
C484 C 0.86082 0.14319 0.91928 0.0
C485 C 0.87634 0.1555 0.87993 0.0
C486 C 0.89074 0.17103 0.86397 0.0
C487 C 0.88421 0.17834 0.84528 0.0
C488 C 0.89742 0.19233 0.82927 0.0
C489 C 0.91739 0.19903 0.83137 0.0
C490 C 0.924 0.19193 0.8503 0.0
C491 C 0.91076 0.17815 0.8667 0.0
H492 H 0.83038 0.6843 0.84171 0.0
H493 H 0.80467 0.68018 0.81366 0.0
H494 H 0.80372 0.72691 0.84945 0.0
H495 H 0.83011 0.73132 0.87749 0.0
H496 H 0.86595 0.71322 0.84718 0.0
H497 H 0.81153 0.67622 0.89775 0.0
H498 H 0.78083 0.66727 0.91731 0.0
H499 H 0.80941 0.72096 0.95756 0.0
H500 H 0.84035 0.72999 0.93753 0.0
H501 H 0.90622 0.73358 0.93861 0.0
H502 H 0.9306 0.72834 0.95877 0.0
H503 H 0.90263 0.67145 0.92672 0.0
H504 H 0.87832 0.67674 0.907 0.0
H505 H 0.85977 0.70682 0.93792 0.0
H506 H 0.91811 0.73701 0.88144 0.0
H507 H 0.94245 0.73693 0.85464 0.0
H508 H 0.89767 0.68268 0.82342 0.0
H509 H 0.87367 0.68286 0.85013 0.0
C510 C 0.83219 0.70811 0.86172 0.0
C511 C 0.82474 0.69375 0.84355 0.0
C512 C 0.8099 0.6913 0.82763 0.0
C513 C 0.80204 0.70311 0.82949 0.0
C514 C 0.80955 0.71763 0.84758 0.0
C515 C 0.82449 0.72007 0.86368 0.0
C516 C 0.84822 0.71041 0.8781 0.0
C517 C 0.86467 0.71209 0.86706 0.0
C518 C 0.84655 0.70879 0.90402 0.0
C519 C 0.82813 0.7038 0.9161 0.0
C520 C 0.81119 0.68612 0.91069 0.0
C521 C 0.7937 0.68098 0.922 0.0
C522 C 0.79277 0.69337 0.93908 0.0
C523 C 0.80973 0.71119 0.94439 0.0
C524 C 0.82736 0.7163 0.93311 0.0
C525 C 0.89055 0.70555 0.92135 0.0
C526 C 0.90519 0.71988 0.93637 0.0
C527 C 0.91916 0.71691 0.94769 0.0
C528 C 0.91858 0.69949 0.94428 0.0
C529 C 0.90337 0.68492 0.92998 0.0
C530 C 0.88952 0.68794 0.91861 0.0
C531 C 0.87723 0.70933 0.90676 0.0
C532 C 0.8614 0.70884 0.91817 0.0
C533 C 0.87884 0.71102 0.88095 0.0
C534 C 0.89414 0.71001 0.86755 0.0
C535 C 0.91371 0.72496 0.86914 0.0
C536 C 0.92754 0.72492 0.85382 0.0
C537 C 0.92195 0.70981 0.83693 0.0
C538 C 0.90251 0.69439 0.83644 0.0
C539 C 0.88873 0.69454 0.85153 0.0
H540 H 0.80143 0.67481 0.51407 0.0
H541 H 0.7764 0.67341 0.54013 0.0
H542 H 0.7326 0.62251 0.50128 0.0
H543 H 0.75807 0.62379 0.47549 0.0
H544 H 0.80844 0.64564 0.51591 0.0
H545 H 0.79054 0.67712 0.45786 0.0
H546 H 0.76673 0.67983 0.43314 0.0
H547 H 0.75843 0.63281 0.38721 0.0
H548 H 0.78104 0.62908 0.41363 0.0
H549 H 0.83031 0.62609 0.42276 0.0
H550 H 0.85925 0.62897 0.4037 0.0
H551 H 0.89615 0.67386 0.45537 0.0
H552 H 0.86756 0.67188 0.47334 0.0
H553 H 0.81793 0.64971 0.4257 0.0
H554 H 0.8365 0.61896 0.49327 0.0
H555 H 0.85581 0.61725 0.5278 0.0
H556 H 0.86636 0.67162 0.55512 0.0
H557 H 0.84718 0.67314 0.52118 0.0
C558 C 0.78162 0.64932 0.49301 0.0
C559 C 0.78638 0.66357 0.51082 0.0
C560 C 0.77198 0.66283 0.52558 0.0
C561 C 0.75247 0.64778 0.5229 0.0
C562 C 0.74754 0.63416 0.50397 0.0
C563 C 0.76202 0.63493 0.48912 0.0
C564 C 0.79751 0.64843 0.48086 0.0
C565 C 0.81057 0.6466 0.49614 0.0
C566 C 0.80004 0.64948 0.45508 0.0
C567 C 0.78713 0.65246 0.43819 0.0
C568 C 0.78338 0.66718 0.44271 0.0
C569 C 0.76996 0.66896 0.42815 0.0
C570 C 0.76039 0.65644 0.40814 0.0
C571 C 0.76507 0.64241 0.4028 0.0
C572 C 0.7782 0.64038 0.41773 0.0
C573 C 0.84663 0.64841 0.44996 0.0
C574 C 0.84462 0.63654 0.43001 0.0
C575 C 0.8611 0.63811 0.4192 0.0
C576 C 0.87981 0.65138 0.42842 0.0
C577 C 0.88182 0.6632 0.44834 0.0
C578 C 0.86544 0.66196 0.45873 0.0
C579 C 0.8292 0.64726 0.46094 0.0
C580 C 0.81567 0.64847 0.44541 0.0
C581 C 0.82649 0.64631 0.4867 0.0
C582 C 0.8403 0.6461 0.50486 0.0
C583 C 0.84327 0.6306 0.50655 0.0
C584 C 0.85422 0.62962 0.52624 0.0
C585 C 0.86215 0.64408 0.54443 0.0
C586 C 0.85997 0.66 0.54177 0.0
C587 C 0.84913 0.66096 0.5223 0.0
H588 H 0.36626 0.22491 0.48032 0.0
H589 H 0.36795 0.24952 0.50776 0.0
H590 H 0.31352 0.20691 0.54029 0.0
H591 H 0.31177 0.1825 0.5126 0.0
H592 H 0.33781 0.17153 0.51414 0.0
H593 H 0.36787 0.21257 0.42347 0.0
H594 H 0.36566 0.23639 0.39847 0.0
H595 H 0.30767 0.21525 0.42587 0.0
H596 H 0.31045 0.19213 0.45152 0.0
H597 H 0.32126 0.1357 0.41712 0.0
H598 H 0.3235 0.11049 0.39619 0.0
H599 H 0.36934 0.11924 0.44698 0.0
H600 H 0.36787 0.14522 0.46672 0.0
H601 H 0.34374 0.17216 0.4234 0.0
H602 H 0.31453 0.11834 0.47755 0.0
H603 H 0.30885 0.09286 0.50619 0.0
H604 H 0.35519 0.13481 0.5535 0.0
H605 H 0.36153 0.16 0.52404 0.0
C606 C 0.33889 0.20186 0.49441 0.0
C607 C 0.35444 0.22099 0.49291 0.0
C608 C 0.35547 0.235 0.50875 0.0
C609 C 0.34094 0.23013 0.52632 0.0
C610 C 0.32486 0.21118 0.52684 0.0
C611 C 0.3239 0.19718 0.51112 0.0
C612 C 0.33938 0.1864 0.48071 0.0
C613 C 0.33917 0.17165 0.49429 0.0
C614 C 0.34079 0.18643 0.45483 0.0
C615 C 0.3394 0.20073 0.43947 0.0
C616 C 0.35473 0.21314 0.42406 0.0
C617 C 0.35335 0.22666 0.40966 0.0
C618 C 0.33648 0.22782 0.4101 0.0
C619 C 0.32105 0.21511 0.42538 0.0
C620 C 0.32255 0.20178 0.43998 0.0
C621 C 0.34423 0.14226 0.44373 0.0
C622 C 0.33197 0.13236 0.42354 0.0
C623 C 0.33311 0.11774 0.41176 0.0
C624 C 0.34649 0.11264 0.41995 0.0
C625 C 0.35899 0.12285 0.43991 0.0
C626 C 0.35799 0.1376 0.45148 0.0
C627 C 0.34237 0.1572 0.45691 0.0
C628 C 0.3425 0.17199 0.44326 0.0
C629 C 0.34043 0.15695 0.48283 0.0
C630 C 0.3385 0.14111 0.49857 0.0
C631 C 0.32385 0.12197 0.49371 0.0
C632 C 0.32046 0.10744 0.5103 0.0
C633 C 0.3314 0.11179 0.53235 0.0
C634 C 0.3466 0.13085 0.53664 0.0
C635 C 0.35012 0.14533 0.5199 0.0
H636 H 0.77849 0.16813 0.52597 0.0
H637 H 0.75917 0.14399 0.5565 0.0
H638 H 0.7733 0.10481 0.52286 0.0
H639 H 0.79403 0.12976 0.49367 0.0
H640 H 0.8164 0.18525 0.52137 0.0
H641 H 0.7607 0.14093 0.46668 0.0
H642 H 0.74007 0.10971 0.44631 0.0
H643 H 0.79103 0.11565 0.4117 0.0
H644 H 0.81145 0.14569 0.43332 0.0
H645 H 0.85281 0.18731 0.43478 0.0
H646 H 0.8804 0.20854 0.40937 0.0
H647 H 0.87324 0.25603 0.42804 0.0
H648 H 0.84582 0.23453 0.45447 0.0
H649 H 0.81515 0.17779 0.43083 0.0
H650 H 0.86572 0.20087 0.49041 0.0
H651 H 0.89402 0.22295 0.51513 0.0
H652 H 0.86421 0.25142 0.53909 0.0
H653 H 0.83538 0.22835 0.51492 0.0
C654 C 0.78747 0.15072 0.50719 0.0
C655 C 0.77733 0.1543 0.52507 0.0
C656 C 0.76607 0.14032 0.54242 0.0
C657 C 0.76443 0.12224 0.54216 0.0
C658 C 0.77432 0.11857 0.52388 0.0
C659 C 0.78594 0.13274 0.50682 0.0
C660 C 0.801 0.16647 0.49057 0.0
C661 C 0.8157 0.18376 0.50149 0.0
C662 C 0.80088 0.16417 0.46469 0.0
C663 C 0.78769 0.14564 0.45179 0.0
C664 C 0.76739 0.13535 0.45491 0.0
C665 C 0.75559 0.11761 0.44301 0.0
C666 C 0.76389 0.11 0.42755 0.0
C667 C 0.78413 0.12072 0.42393 0.0
C668 C 0.79585 0.13814 0.43607 0.0
C669 C 0.84721 0.20933 0.44634 0.0
C670 C 0.8571 0.20227 0.43329 0.0
C671 C 0.87281 0.21445 0.41858 0.0
C672 C 0.87888 0.23398 0.41623 0.0
C673 C 0.86899 0.24109 0.42947 0.0
C674 C 0.85331 0.22885 0.4445 0.0
C675 C 0.83056 0.19593 0.46178 0.0
C676 C 0.8152 0.17937 0.45066 0.0
C677 C 0.8309 0.19813 0.48753 0.0
C678 C 0.84857 0.21312 0.50067 0.0
C679 C 0.8654 0.21207 0.50069 0.0
C680 C 0.88167 0.22486 0.51479 0.0
C681 C 0.88161 0.23921 0.52909 0.0
C682 C 0.86478 0.24048 0.52857 0.0
C683 C 0.84833 0.22742 0.51463 0.0
H684 H 0.97012 0.51348 0.17747 0.0
H685 H 0.97599 0.53706 0.14544 0.0
H686 H 0.03276 0.57605 0.17751 0.0
H687 H 0.02724 0.55222 0.2086 0.0
H688 H 0.98871 0.49574 0.18227 0.0
H689 H 0.97511 0.53139 0.23919 0.0
H690 H 0.97969 0.56021 0.25966 0.0
H691 H 0.03682 0.57427 0.28488 0.0
H692 H 0.0321 0.54526 0.26454 0.0
H693 H 0.02773 0.49202 0.2688 0.0
H694 H 0.02941 0.46841 0.29498 0.0
H695 H 0.9696 0.42629 0.27576 0.0
H696 H 0.9679 0.4501 0.25005 0.0
H697 H 0.00439 0.50707 0.27145 0.0
H698 H 0.01408 0.46703 0.21424 0.0
H699 H 0.00718 0.43854 0.19079 0.0
H700 H 0.95331 0.43243 0.16403 0.0
H701 H 0.95979 0.46013 0.18847 0.0
C702 C 0.9982 0.53104 0.19555 0.0
C703 C 0.98372 0.52723 0.17779 0.0
C704 C 0.98703 0.54077 0.15959 0.0
C705 C 0.00492 0.55834 0.15878 0.0
C706 C 0.01893 0.56253 0.1774 0.0
C707 C 0.01567 0.54898 0.19545 0.0
C708 C 0.99614 0.51563 0.2123 0.0
C709 C 0.99166 0.49803 0.2019 0.0
C710 C 0.00041 0.51876 0.2378 0.0
C711 C 0.0033 0.53623 0.25028 0.0
C712 C 0.98863 0.54067 0.24912 0.0
C713 C 0.9912 0.55706 0.26092 0.0
C714 C 0.0086 0.56943 0.27386 0.0
C715 C 0.02332 0.56501 0.27493 0.0
C716 C 0.0206 0.54843 0.26344 0.0
C717 C 0.99775 0.47277 0.25731 0.0
C718 C 0.01496 0.47771 0.27033 0.0
C719 C 0.01594 0.46418 0.28513 0.0
C720 C 0.99966 0.44546 0.28739 0.0
C721 C 0.98235 0.44063 0.27458 0.0
C722 C 0.9814 0.45416 0.25971 0.0
C723 C 0.99698 0.48716 0.24134 0.0
C724 C 0.0011 0.50464 0.2519 0.0
C725 C 0.99191 0.48369 0.21602 0.0
C726 C 0.98736 0.46565 0.20334 0.0
C727 C 0.00056 0.45926 0.2038 0.0
C728 C 0.9967 0.44308 0.19011 0.0
C729 C 0.97967 0.43311 0.17545 0.0
C730 C 0.96639 0.43944 0.17541 0.0
C731 C 0.97017 0.45545 0.18921 0.0
H732 H 0.51188 0.43785 0.1683 0.0
H733 H 0.48434 0.4182 0.14047 0.0
H734 H 0.44793 0.43071 0.18459 0.0
H735 H 0.47571 0.45193 0.21017 0.0
H736 H 0.52963 0.47381 0.17259 0.0
H737 H 0.49812 0.42474 0.23559 0.0
H738 H 0.46916 0.40147 0.25842 0.0
H739 H 0.46236 0.44786 0.28383 0.0
H740 H 0.49131 0.47076 0.26184 0.0
H741 H 0.53141 0.51975 0.24223 0.0
H742 H 0.55031 0.55045 0.26355 0.0
H743 H 0.6006 0.54429 0.2643 0.0
H744 H 0.58154 0.51371 0.2418 0.0
H745 H 0.52744 0.48292 0.26233 0.0
H746 H 0.54449 0.5244 0.1875 0.0
H747 H 0.56453 0.54601 0.15464 0.0
H748 H 0.59576 0.5161 0.15069 0.0
H749 H 0.57513 0.49416 0.18291 0.0
C750 C 0.49601 0.44629 0.19173 0.0
C751 C 0.4979 0.43622 0.17207 0.0
C752 C 0.48205 0.4248 0.15626 0.0
C753 C 0.46389 0.42304 0.15996 0.0
C754 C 0.46176 0.43207 0.18067 0.0
C755 C 0.47767 0.44391 0.19587 0.0
C756 C 0.51346 0.46121 0.2058 0.0
C757 C 0.52938 0.47532 0.19239 0.0
C758 C 0.51326 0.4636 0.23164 0.0
C759 C 0.49691 0.4495 0.24706 0.0
C760 C 0.4905 0.42984 0.24644 0.0
C761 C 0.4739 0.41656 0.2594 0.0
C762 C 0.46343 0.42275 0.27312 0.0
C763 C 0.47027 0.44253 0.27408 0.0
C764 C 0.48685 0.45572 0.26138 0.0
C765 C 0.55508 0.5145 0.24058 0.0
C766 C 0.54655 0.52508 0.24688 0.0
C767 C 0.55735 0.54256 0.25931 0.0
C768 C 0.57692 0.54974 0.26614 0.0
C769 C 0.5856 0.53924 0.25929 0.0
C770 C 0.57475 0.52176 0.24652 0.0
C771 C 0.54278 0.49545 0.22884 0.0
C772 C 0.52802 0.48067 0.24277 0.0
C773 C 0.54384 0.4925 0.20355 0.0
C774 C 0.55841 0.50776 0.18755 0.0
C775 C 0.55598 0.52284 0.1799 0.0
C776 C 0.56749 0.5352 0.16116 0.0
C777 C 0.58161 0.53265 0.14979 0.0
C778 C 0.58475 0.51822 0.15868 0.0
C779 C 0.57313 0.50578 0.17724 0.0
H780 H 0.56919 0.06519 0.18752 0.0
H781 H 0.59163 0.06512 0.15815 0.0
H782 H 0.57765 0.00915 0.18415 0.0
H783 H 0.55402 0.00876 0.21229 0.0
H784 H 0.53127 0.04184 0.18706 0.0
H785 H 0.58327 0.05446 0.24599 0.0
H786 H 0.60568 0.04607 0.26493 0.0
H787 H 0.5566 0.99228 0.28966 0.0
H788 H 0.53432 0.00062 0.27054 0.0
H789 H 0.48748 0.00267 0.27134 0.0
H790 H 0.45781 0.99736 0.29038 0.0
H791 H 0.47334 0.05512 0.27093 0.0
H792 H 0.50278 0.06005 0.25121 0.0
H793 H 0.52684 0.02809 0.27654 0.0
H794 H 0.47889 0.0064 0.21429 0.0
H795 H 0.45181 0.00338 0.19005 0.0
H796 H 0.48687 0.06341 0.1701 0.0
H797 H 0.51434 0.06602 0.19388 0.0
C798 C 0.56003 0.0371 0.20234 0.0
C799 C 0.57102 0.05294 0.187 0.0
C800 C 0.58407 0.05295 0.17036 0.0
C801 C 0.58666 0.03718 0.16878 0.0
C802 C 0.57594 0.02147 0.18461 0.0
C803 C 0.56261 0.02135 0.20103 0.0
C804 C 0.54485 0.03661 0.21817 0.0
C805 C 0.53074 0.03943 0.20677 0.0
C806 C 0.54335 0.03227 0.24365 0.0
C807 C 0.55711 0.02807 0.25659 0.0
C808 C 0.57735 0.04087 0.25549 0.0
C809 C 0.59013 0.03605 0.2663 0.0
C810 C 0.58289 0.01848 0.27869 0.0
C811 C 0.56262 0.00601 0.28046 0.0
C812 C 0.54987 0.01075 0.26951 0.0
C813 C 0.49728 0.03171 0.25982 0.0
C814 C 0.48466 0.0143 0.27159 0.0
C815 C 0.4677 0.01133 0.28254 0.0
C816 C 0.46312 0.02582 0.28221 0.0
C817 C 0.47624 0.04355 0.27122 0.0
C818 C 0.49313 0.04645 0.2601 0.0
C819 C 0.51381 0.03383 0.24543 0.0
C820 C 0.52795 0.0312 0.257 0.0
C821 C 0.515 0.03753 0.21992 0.0
C822 C 0.49852 0.03646 0.20601 0.0
C823 C 0.48067 0.01896 0.20489 0.0
C824 C 0.46513 0.01732 0.19113 0.0
C825 C 0.467 0.03322 0.17826 0.0
C826 C 0.48493 0.05084 0.17959 0.0
C827 C 0.50061 0.0524 0.19323 0.0
H828 H 0.47145 0.00356 0.85821 0.0
H829 H 0.44827 0.0023 0.88786 0.0
H830 H 0.40165 0.95221 0.85088 0.0
H831 H 0.42503 0.95366 0.82093 0.0
H832 H 0.48015 0.97579 0.8514 0.0
H833 H 0.46219 0.01272 0.80748 0.0
H834 H 0.44095 0.02287 0.78987 0.0
H835 H 0.4162 0.97444 0.73984 0.0
H836 H 0.43773 0.96437 0.75762 0.0
H837 H 0.50076 0.95591 0.76645 0.0
H838 H 0.52966 0.96395 0.74213 0.0
H839 H 0.55445 0.02402 0.75996 0.0
H840 H 0.52559 0.01589 0.78362 0.0
H841 H 0.47895 0.98465 0.76116 0.0
H842 H 0.5097 0.9554 0.82093 0.0
H843 H 0.53895 0.96182 0.84459 0.0
H844 H 0.54857 0.01709 0.86632 0.0
H845 H 0.51971 0.01064 0.84293 0.0
C846 C 0.44994 0.97863 0.83752 0.0
C847 C 0.4562 0.99243 0.85633 0.0
C848 C 0.44293 0.99179 0.87311 0.0
C849 C 0.42318 0.97718 0.87161 0.0
C850 C 0.41682 0.96359 0.85243 0.0
C851 C 0.4301 0.96442 0.83535 0.0
C852 C 0.46445 0.97872 0.82097 0.0
C853 C 0.47956 0.97719 0.83158 0.0
C854 C 0.46428 0.98166 0.79533 0.0
C855 C 0.45122 0.98753 0.78424 0.0
C856 C 0.45203 0.00414 0.79291 0.0
C857 C 0.43989 0.00994 0.7828 0.0
C858 C 0.42674 0.99936 0.76361 0.0
C859 C 0.42625 0.98296 0.75452 0.0
C860 C 0.43845 0.97712 0.76472 0.0
C861 C 0.51109 0.98537 0.7765 0.0
C862 C 0.51242 0.97079 0.76485 0.0
C863 C 0.52894 0.97539 0.75115 0.0
C864 C 0.54424 0.99464 0.74889 0.0
C865 C 0.54276 0.0091 0.76084 0.0
C866 C 0.52634 0.00451 0.77445 0.0
C867 C 0.49412 0.98089 0.79158 0.0
C868 C 0.47871 0.98191 0.78074 0.0
C869 C 0.49477 0.97899 0.81732 0.0
C870 C 0.51265 0.98257 0.83027 0.0
C871 C 0.51827 0.96891 0.8307 0.0
C872 C 0.53486 0.97255 0.84424 0.0
C873 C 0.54609 0.99001 0.85713 0.0
C874 C 0.54042 0.00365 0.85627 0.0
C875 C 0.52387 0.99995 0.84305 0.0
H876 H 0.02156 0.53542 0.84505 0.0
H877 H 0.0247 0.5617 0.86994 0.0
H878 H 0.9686 0.54964 0.84281 0.0
H879 H 0.96526 0.52279 0.81851 0.0
H880 H 0.99458 0.49804 0.84962 0.0
H881 H 0.01353 0.54591 0.7852 0.0
H882 H 0.01037 0.5688 0.7593 0.0
H883 H 0.95329 0.52329 0.73508 0.0
H884 H 0.95654 0.50051 0.76096 0.0
H885 H 0.95694 0.45252 0.76155 0.0
H886 H 0.95463 0.42599 0.73787 0.0
H887 H 0.0094 0.43787 0.76972 0.0
H888 H 0.01155 0.46433 0.79351 0.0
H889 H 0.98218 0.4892 0.75966 0.0
H890 H 0.96071 0.44166 0.8204 0.0
H891 H 0.95724 0.41756 0.84996 0.0
H892 H 0.01206 0.45935 0.88429 0.0
H893 H 0.01595 0.48318 0.85378 0.0
C894 C 0.99325 0.52718 0.82978 0.0
C895 C 0.00998 0.5385 0.84431 0.0
C896 C 0.01183 0.55367 0.85837 0.0
C897 C 0.99695 0.5579 0.85828 0.0
C898 C 0.98028 0.54672 0.84341 0.0
C899 C 0.97844 0.53148 0.82933 0.0
C900 C 0.99097 0.51027 0.81631 0.0
C901 C 0.99227 0.49626 0.82985 0.0
C902 C 0.98694 0.5075 0.79074 0.0
C903 C 0.98518 0.52154 0.77523 0.0
C904 C 0.00028 0.54091 0.77446 0.0
C905 C 0.99846 0.55396 0.75964 0.0
C906 C 0.98157 0.54784 0.74514 0.0
C907 C 0.96657 0.5284 0.74577 0.0
C908 C 0.96838 0.51539 0.76063 0.0
C909 C 0.98436 0.46037 0.77943 0.0
C910 C 0.96844 0.4494 0.76346 0.0
C911 C 0.96718 0.43428 0.74985 0.0
C912 C 0.98186 0.42984 0.75183 0.0
C913 C 0.99771 0.44074 0.768 0.0
C914 C 0.99897 0.45588 0.78162 0.0
C915 C 0.98608 0.47703 0.79291 0.0
C916 C 0.98469 0.491 0.7794 0.0
C917 C 0.98956 0.47951 0.81863 0.0
C918 C 0.98866 0.46426 0.8347 0.0
C919 C 0.97229 0.44551 0.83378 0.0
C920 C 0.9702 0.43179 0.85095 0.0
C921 C 0.98426 0.43657 0.86971 0.0
C922 C 0.00103 0.45512 0.86999 0.0
C923 C 0.00319 0.46882 0.85267 0.0
H924 H 0.42202 0.50555 0.82563 0.0
H925 H 0.39984 0.48156 0.85501 0.0
H926 H 0.43833 0.45946 0.86141 0.0
H927 H 0.45971 0.48278 0.83083 0.0
H928 H 0.46936 0.5293 0.84432 0.0
H929 H 0.41957 0.48572 0.78264 0.0
H930 H 0.40205 0.45418 0.76265 0.0
H931 H 0.4567 0.46354 0.73569 0.0
H932 H 0.47407 0.4936 0.75785 0.0
H933 H 0.50988 0.52859 0.76154 0.0
H934 H 0.5424 0.54688 0.74503 0.0
H935 H 0.54828 0.59944 0.77211 0.0
H936 H 0.51482 0.58097 0.78762 0.0
H937 H 0.47759 0.52498 0.75491 0.0
H938 H 0.52226 0.54427 0.82223 0.0
H939 H 0.54819 0.56485 0.85118 0.0
H940 H 0.51652 0.59223 0.87134 0.0
H941 H 0.49028 0.57114 0.84237 0.0
C942 C 0.44236 0.4958 0.82609 0.0
C943 C 0.42532 0.49516 0.83291 0.0
C944 C 0.4128 0.48155 0.84988 0.0
C945 C 0.41745 0.46875 0.86098 0.0
C946 C 0.43413 0.4689 0.85313 0.0
C947 C 0.44645 0.48229 0.83576 0.0
C948 C 0.45719 0.51207 0.81157 0.0
C949 C 0.47098 0.52858 0.82462 0.0
C950 C 0.4597 0.51049 0.78617 0.0
C951 C 0.44826 0.49201 0.77236 0.0
C952 C 0.4278 0.48077 0.77291 0.0
C953 C 0.41773 0.46284 0.76102 0.0
C954 C 0.42793 0.45603 0.74784 0.0
C955 C 0.4483 0.46786 0.7463 0.0
C956 C 0.4583 0.48537 0.75869 0.0
C957 C 0.50983 0.55334 0.77598 0.0
C958 C 0.51786 0.5441 0.76346 0.0
C959 C 0.53662 0.55456 0.75431 0.0
C960 C 0.54804 0.57454 0.75774 0.0
C961 C 0.5398 0.58403 0.76925 0.0
C962 C 0.52077 0.57349 0.77826 0.0
C963 C 0.49068 0.54134 0.788 0.0
C964 C 0.4757 0.52595 0.77448 0.0
C965 C 0.48822 0.54272 0.8135 0.0
C966 C 0.50451 0.55642 0.82982 0.0
C967 C 0.52106 0.55495 0.83253 0.0
C968 C 0.53593 0.56682 0.84908 0.0
C969 C 0.5346 0.5804 0.86346 0.0
C970 C 0.518 0.5819 0.86063 0.0
C971 C 0.50304 0.56994 0.84403 0.0
H972 H 0.62679 0.83743 0.52218 0.0
H973 H 0.62376 0.8597 0.49481 0.0
H974 H 0.68051 0.9057 0.51931 0.0
H975 H 0.68337 0.88349 0.54659 0.0
H976 H 0.65305 0.82737 0.51878 0.0
H977 H 0.63373 0.85393 0.58155 0.0
H978 H 0.63366 0.87941 0.60495 0.0
H979 H 0.69333 0.90129 0.62775 0.0
H980 H 0.69344 0.87591 0.60382 0.0
H981 H 0.70191 0.82877 0.59613 0.0
H982 H 0.70949 0.80737 0.61896 0.0
H983 H 0.65032 0.76032 0.60746 0.0
H984 H 0.64288 0.78171 0.58441 0.0
H985 H 0.67262 0.83742 0.60695 0.0
H986 H 0.6894 0.80737 0.54338 0.0
H987 H 0.68793 0.78297 0.51593 0.0
H988 H 0.6296 0.76705 0.49321 0.0
H989 H 0.63074 0.79048 0.52176 0.0
C990 C 0.65526 0.8588 0.53653 0.0
C991 C 0.63843 0.85239 0.52189 0.0
C992 C 0.63673 0.86511 0.50624 0.0
C993 C 0.65189 0.88448 0.50484 0.0
C994 C 0.6684 0.89098 0.52023 0.0
C995 C 0.67008 0.87827 0.53584 0.0
C996 C 0.65818 0.84491 0.55081 0.0
C997 C 0.65689 0.82928 0.53822 0.0
C998 C 0.66369 0.84778 0.576 0.0
C999 C 0.66364 0.86309 0.59074 0.0
C1000 C 0.64684 0.86426 0.59148 0.0
C1001 C 0.64677 0.87875 0.60505 0.0
C1002 C 0.6635 0.89239 0.61824 0.0
C1003 C 0.68028 0.89113 0.61759 0.0
C1004 C 0.68031 0.87655 0.60409 0.0
C1005 C 0.67188 0.80677 0.5885 0.0
C1006 C 0.6906 0.81384 0.59853 0.0
C1007 C 0.69493 0.80162 0.61145 0.0
C1008 C 0.68047 0.78224 0.61498 0.0
C1009 C 0.66167 0.77524 0.60514 0.0
C1010 C 0.65744 0.78739 0.59188 0.0
C1011 C 0.66737 0.81978 0.57488 0.0
C1012 C 0.66851 0.83534 0.5876 0.0
C1013 C 0.66133 0.81659 0.54986 0.0
C1014 C 0.66009 0.80068 0.53493 0.0
C1015 C 0.67608 0.79823 0.53304 0.0
C1016 C 0.67533 0.78443 0.51699 0.0
C1017 C 0.65866 0.77296 0.5022 0.0
C1018 C 0.64257 0.77526 0.50455 0.0
C1019 C 0.64326 0.78886 0.52075 0.0
H1020 H 0.16692 0.78388 0.50089 0.0
H1021 H 0.1409 0.76803 0.46959 0.0
H1022 H 0.11094 0.79359 0.50225 0.0
H1023 H 0.13719 0.80998 0.53235 0.0
H1024 H 0.1909 0.82258 0.50765 0.0
H1025 H 0.14457 0.76975 0.55976 0.0
H1026 H 0.11142 0.7492 0.57554 0.0
H1027 H 0.11374 0.79932 0.60568 0.0
H1028 H 0.14638 0.81969 0.58957 0.0
H1029 H 0.18893 0.8622 0.58306 0.0
H1030 H 0.20598 0.88892 0.61161 0.0
H1031 H 0.2537 0.87889 0.61635 0.0
H1032 H 0.23647 0.85211 0.58672 0.0
H1033 H 0.17944 0.82379 0.59677 0.0
H1034 H 0.21701 0.87605 0.54032 0.0
H1035 H 0.24362 0.90016 0.51552 0.0
H1036 H 0.25385 0.8564 0.48832 0.0
H1037 H 0.22835 0.83284 0.51468 0.0
C1038 C 0.15387 0.79786 0.51925 0.0
C1039 C 0.15464 0.78589 0.50135 0.0
C1040 C 0.13971 0.77676 0.4836 0.0
C1041 C 0.12389 0.77963 0.48336 0.0
C1042 C 0.12302 0.79127 0.50168 0.0
C1043 C 0.13792 0.80044 0.51919 0.0
C1044 C 0.17031 0.80907 0.53683 0.0
C1045 C 0.18864 0.82248 0.5273 0.0
C1046 C 0.16723 0.80913 0.56239 0.0
C1047 C 0.14792 0.79624 0.57346 0.0
C1048 C 0.13792 0.77624 0.56989 0.0
C1049 C 0.11908 0.76454 0.57898 0.0
C1050 C 0.11001 0.77273 0.59161 0.0
C1051 C 0.12029 0.79267 0.5957 0.0
C1052 C 0.13903 0.80429 0.58674 0.0
C1053 C 0.21142 0.85517 0.58291 0.0
C1054 C 0.20313 0.86581 0.59011 0.0
C1055 C 0.21283 0.88096 0.60666 0.0
C1056 C 0.23099 0.88573 0.61679 0.0
C1057 C 0.23968 0.87548 0.60895 0.0
C1058 C 0.22991 0.86024 0.59206 0.0
C1059 C 0.1995 0.83801 0.56732 0.0
C1060 C 0.18208 0.82329 0.57733 0.0
C1061 C 0.20317 0.83733 0.5421 0.0
C1062 C 0.2209 0.85265 0.52981 0.0
C1063 C 0.22554 0.87182 0.52987 0.0
C1064 C 0.24055 0.88556 0.51521 0.0
C1065 C 0.2509 0.8803 0.49968 0.0
C1066 C 0.24655 0.86119 0.5003 0.0
C1067 C 0.23181 0.84758 0.51526 0.0
H1068 H 0.14953 0.32056 0.51282 0.0
H1069 H 0.12126 0.31452 0.48832 0.0
H1070 H 0.12513 0.36513 0.51936 0.0
H1071 H 0.15376 0.37122 0.54395 0.0
H1072 H 0.18604 0.35043 0.51133 0.0
H1073 H 0.1377 0.31715 0.56979 0.0
H1074 H 0.10899 0.30815 0.59419 0.0
H1075 H 0.13898 0.3642 0.62872 0.0
H1076 H 0.16792 0.37328 0.6038 0.0
H1077 H 0.23175 0.37988 0.60051 0.0
H1078 H 0.25841 0.37847 0.62098 0.0
H1079 H 0.23688 0.32228 0.58917 0.0
H1080 H 0.21025 0.32369 0.56919 0.0
H1081 H 0.18913 0.35283 0.6026 0.0
H1082 H 0.24178 0.379 0.54155 0.0
H1083 H 0.26575 0.37871 0.51437 0.0
H1084 H 0.22087 0.32387 0.48473 0.0
H1085 H 0.19715 0.32415 0.51202 0.0
C1086 C 0.15376 0.34634 0.53018 0.0
C1087 C 0.14432 0.33037 0.5144 0.0
C1088 C 0.12806 0.32685 0.50055 0.0
C1089 C 0.12093 0.3393 0.50204 0.0
C1090 C 0.13038 0.35535 0.51783 0.0
C1091 C 0.14662 0.35877 0.53194 0.0
C1092 C 0.17128 0.34993 0.5443 0.0
C1093 C 0.18676 0.35108 0.53129 0.0
C1094 C 0.1722 0.35073 0.5703 0.0
C1095 C 0.15483 0.34593 0.58485 0.0
C1096 C 0.13807 0.32759 0.58243 0.0
C1097 C 0.12175 0.32242 0.59653 0.0
C1098 C 0.12185 0.33544 0.61348 0.0
C1099 C 0.13855 0.35394 0.61572 0.0
C1100 C 0.15504 0.35909 0.60163 0.0
C1101 C 0.21919 0.35198 0.58319 0.0
C1102 C 0.23272 0.36721 0.5982 0.0
C1103 C 0.24797 0.36643 0.60973 0.0
C1104 C 0.24976 0.35028 0.60663 0.0
C1105 C 0.2358 0.33482 0.59213 0.0
C1106 C 0.22067 0.33567 0.58056 0.0
C1107 C 0.20379 0.35316 0.56954 0.0
C1108 C 0.18874 0.35294 0.58264 0.0
C1109 C 0.20277 0.35227 0.54356 0.0
C1110 C 0.2177 0.35164 0.52866 0.0
C1111 C 0.23722 0.36681 0.52944 0.0
C1112 C 0.25085 0.36666 0.51388 0.0
C1113 C 0.24516 0.35127 0.49744 0.0
C1114 C 0.22575 0.3358 0.49739 0.0
C1115 C 0.21214 0.33604 0.51278 0.0
H1116 H 0.94969 0.36474 0.09953 0.0
H1117 H 0.01122 0.39348 0.08473 0.0
H1118 H 0.01814 0.41599 0.11843 0.0
H1119 H 0.00639 0.42957 0.14908 0.0
H1120 H 0.94491 0.40006 0.16481 0.0
H1121 H 0.93836 0.37593 0.13363 0.0
C1122 C 0.96464 0.37578 0.10387 0.0
C1123 C 0.97988 0.37755 0.08941 0.0
C1124 C 0.96853 0.38872 0.12323 0.0
C1125 C 0.99919 0.39179 0.0955 0.0
C1126 C 0.00317 0.40475 0.11471 0.0
C1127 C 0.9916 0.41763 0.14617 0.0
C1128 C 0.97614 0.41692 0.15906 0.0
C1129 C 0.9879 0.40365 0.1283 0.0
C1130 C 0.95706 0.40134 0.15476 0.0
C1131 C 0.95329 0.38743 0.137 0.0
H1132 H 0.61761 0.56491 0.04568 0.0
H1133 H 0.62396 0.61681 0.07592 0.0
H1134 H 0.61021 0.60024 0.11479 0.0
H1135 H 0.596 0.57076 0.13998 0.0
H1136 H 0.58918 0.51898 0.10849 0.0
H1137 H 0.60388 0.53595 0.07053 0.0
C1138 C 0.61601 0.57267 0.06072 0.0
C1139 C 0.62175 0.59207 0.0578 0.0
C1140 C 0.60815 0.56311 0.08292 0.0
C1141 C 0.61962 0.60185 0.07761 0.0
C1142 C 0.61177 0.59239 0.09986 0.0
C1143 C 0.5977 0.56319 0.12479 0.0
C1144 C 0.59161 0.54363 0.12726 0.0
C1145 C 0.60592 0.57298 0.10269 0.0
C1146 C 0.5941 0.53411 0.10742 0.0
C1147 C 0.60233 0.54375 0.08554 0.0
H1148 H 0.3893 0.00281 0.11743 0.0
H1149 H 0.42921 0.04195 0.06365 0.0
H1150 H 0.4562 0.05372 0.09367 0.0
H1151 H 0.46872 0.04949 0.13339 0.0
H1152 H 0.428 0.01162 0.18787 0.0
H1153 H 0.40097 0.00274 0.15936 0.0
C1154 C 0.40387 0.01424 0.11256 0.0
C1155 C 0.40747 0.02149 0.08853 0.0
C1156 C 0.41913 0.0209 0.12986 0.0
C1157 C 0.42624 0.0363 0.0822 0.0
C1158 C 0.44163 0.04289 0.09928 0.0
C1159 C 0.45393 0.0397 0.13934 0.0
C1160 C 0.45053 0.03081 0.16256 0.0
C1161 C 0.43833 0.03484 0.12295 0.0
C1162 C 0.43117 0.01816 0.16982 0.0
C1163 C 0.41565 0.01315 0.15359 0.0
H1164 H 0.37287 0.95942 0.96647 0.0
H1165 H 0.39254 0.01957 0.95881 0.0
H1166 H 0.40787 0.02068 0.91986 0.0
H1167 H 0.41827 0.00527 0.89001 0.0
H1168 H 0.39846 0.94515 0.89759 0.0
H1169 H 0.3803 0.94321 0.93431 0.0
C1170 C 0.38035 0.97273 0.95616 0.0
C1171 C 0.3818 0.98945 0.9657 0.0
C1172 C 0.38912 0.97327 0.93378 0.0
C1173 C 0.39127 0.00651 0.95194 0.0
C1174 C 0.40011 0.00718 0.9297 0.0
C1175 C 0.40977 0.99172 0.89959 0.0
C1176 C 0.4098 0.97542 0.8913 0.0
C1177 C 0.39952 0.99076 0.92076 0.0
C1178 C 0.39855 0.95785 0.90359 0.0
C1179 C 0.38831 0.95678 0.92468 0.0
H1180 H 0.95505 0.37838 0.95826 0.0
H1181 H 0.01526 0.39398 0.95962 0.0
H1182 H 0.02172 0.41484 0.92393 0.0
H1183 H 0.0102 0.42909 0.89278 0.0
H1184 H 0.94995 0.41347 0.89291 0.0
H1185 H 0.94358 0.39196 0.92736 0.0
C1186 C 0.96963 0.3863 0.95083 0.0
C1187 C 0.98466 0.38465 0.96174 0.0
C1188 C 0.97321 0.39821 0.93043 0.0
C1189 C 0.00341 0.39499 0.95164 0.0
C1190 C 0.00711 0.40693 0.93123 0.0
C1191 C 0.9957 0.421 0.90039 0.0
C1192 C 0.98057 0.42285 0.89006 0.0
C1193 C 0.99213 0.40874 0.92056 0.0
C1194 C 0.96181 0.4121 0.90006 0.0
C1195 C 0.95816 0.39989 0.91995 0.0
H1196 H 0.58821 0.61565 0.95813 0.0
H1197 H 0.63072 0.61924 0.90749 0.0
H1198 H 0.60734 0.60996 0.87339 0.0
H1199 H 0.57382 0.59695 0.85905 0.0
H1200 H 0.53005 0.58985 0.91031 0.0
H1201 H 0.55484 0.60477 0.94283 0.0
C1202 C 0.59241 0.6149 0.93948 0.0
C1203 C 0.61111 0.61821 0.93515 0.0
C1204 C 0.57857 0.60869 0.92013 0.0
C1205 C 0.61639 0.61683 0.91109 0.0
C1206 C 0.603 0.61142 0.89166 0.0
C1207 C 0.56968 0.59871 0.87731 0.0
C1208 C 0.55002 0.592 0.88224 0.0
C1209 C 0.58386 0.60663 0.89613 0.0
C1210 C 0.54506 0.59491 0.90588 0.0
C1211 C 0.55922 0.60332 0.92459 0.0
H1212 H 0.9934 0.60869 0.94305 0.0
H1213 H 0.05465 0.64305 0.92675 0.0
H1214 H 0.04983 0.62268 0.8913 0.0
H1215 H 0.02908 0.59307 0.86795 0.0
H1216 H 0.96831 0.55707 0.88607 0.0
H1217 H 0.97194 0.58025 0.91726 0.0
C1218 C 0.00557 0.61196 0.93135 0.0
C1219 C 0.02437 0.6273 0.93755 0.0
C1220 C 0.00281 0.59975 0.91144 0.0
C1221 C 0.04006 0.63126 0.92242 0.0
C1222 C 0.03733 0.61957 0.9022 0.0
C1223 C 0.0166 0.5903 0.87866 0.0
C1224 C 0.99852 0.5732 0.87483 0.0
C1225 C 0.01892 0.60341 0.89706 0.0
C1226 C 0.98239 0.57013 0.88848 0.0
C1227 C 0.98449 0.58333 0.9065 0.0
H1228 H 0.3753 0.43438 0.96117 0.0
H1229 H 0.38238 0.38747 0.93974 0.0
H1230 H 0.39672 0.40381 0.90078 0.0
H1231 H 0.40825 0.43219 0.87362 0.0
H1232 H 0.40207 0.47924 0.8976 0.0
H1233 H 0.38594 0.46175 0.93452 0.0
C1234 C 0.37992 0.4276 0.94805 0.0
C1235 C 0.37789 0.40976 0.9535 0.0
C1236 C 0.38819 0.43706 0.92601 0.0
C1237 C 0.38383 0.40122 0.93607 0.0
C1238 C 0.39204 0.41058 0.91381 0.0
C1239 C 0.40339 0.43862 0.88693 0.0
C1240 C 0.40629 0.45702 0.88254 0.0
C1241 C 0.39447 0.42863 0.9087 0.0
C1242 C 0.39967 0.46497 0.89998 0.0
C1243 C 0.39062 0.45507 0.92134 0.0
H1244 H 0.62016 0.02661 0.92554 0.0
H1245 H 0.58891 0.97071 0.95928 0.0
H1246 H 0.564 0.95927 0.92637 0.0
H1247 H 0.54938 0.96672 0.8907 0.0
H1248 H 0.58159 0.02288 0.85748 0.0
H1249 H 0.60802 0.03264 0.88736 0.0
C1250 C 0.60799 0.01185 0.92554 0.0
C1251 C 0.60611 0.99959 0.94493 0.0
C1252 C 0.59389 0.00549 0.90672 0.0
C1253 C 0.59056 0.9804 0.94453 0.0
C1254 C 0.57631 0.97392 0.9258 0.0
C1255 C 0.5624 0.98091 0.88969 0.0
C1256 C 0.5634 0.99419 0.87221 0.0
C1257 C 0.57756 0.98652 0.90715 0.0
C1258 C 0.58035 0.01255 0.87108 0.0
C1259 C 0.59545 0.01814 0.88814 0.0
H1260 H 0.64253 0.05207 0.08031 0.0
H1261 H 0.60459 0.9908 0.07148 0.0
H1262 H 0.5877 0.98937 0.1094 0.0
H1263 H 0.58152 0.00629 0.14212 0.0
H1264 H 0.62127 0.06736 0.15228 0.0
H1265 H 0.63959 0.06809 0.11662 0.0
C1266 C 0.63074 0.03837 0.08694 0.0
C1267 C 0.62458 0.02161 0.07308 0.0
C1268 C 0.62127 0.03767 0.10873 0.0
C1269 C 0.60953 0.00388 0.08192 0.0
C1270 C 0.59982 0.0031 0.10348 0.0
C1271 C 0.59446 0.0197 0.13702 0.0
C1272 C 0.5996 0.03685 0.14962 0.0
C1273 C 0.60524 0.02 0.11668 0.0
C1274 C 0.61647 0.05404 0.14249 0.0
C1275 C 0.62709 0.05448 0.12217 0.0
H1276 H 0.0394 0.61341 0.0677 0.0
H1277 H 0.98279 0.6074 0.0674 0.0
H1278 H 0.97358 0.58613 0.10324 0.0
H1279 H 0.982 0.56947 0.13496 0.0
H1280 H 0.03895 0.5762 0.13399 0.0
H1281 H 0.04766 0.59718 0.09848 0.0
C1282 C 0.02498 0.60745 0.07532 0.0
C1283 C 0.0118 0.61199 0.06477 0.0
C1284 C 0.0199 0.59547 0.09588 0.0
C1285 C 0.99323 0.60414 0.0751 0.0
C1286 C 0.98798 0.59199 0.09562 0.0
C1287 C 0.99628 0.57551 0.1269 0.0
C1288 C 0.00987 0.57143 0.13736 0.0
C1289 C 0.00124 0.58759 0.10621 0.0
C1290 C 0.02835 0.57942 0.12673 0.0
C1291 C 0.03331 0.5913 0.10626 0.0
H1292 H 0.40172 0.37841 0.07406 0.0
H1293 H 0.38823 0.42188 0.09162 0.0
H1294 H 0.41276 0.43436 0.12398 0.0
H1295 H 0.43915 0.43454 0.14575 0.0
H1296 H 0.45277 0.39087 0.1311 0.0
H1297 H 0.42744 0.37725 0.09884 0.0
C1298 C 0.40405 0.39049 0.08512 0.0
C1299 C 0.39316 0.39922 0.08012 0.0
C1300 C 0.41837 0.39777 0.10407 0.0
C1301 C 0.3964 0.41487 0.09476 0.0
C1302 C 0.41049 0.42211 0.11336 0.0
C1303 C 0.43636 0.42172 0.13609 0.0
C1304 C 0.44784 0.4137 0.14118 0.0
C1305 C 0.42168 0.41384 0.11797 0.0
C1306 C 0.4443 0.39749 0.12756 0.0
C1307 C 0.42973 0.38962 0.10916 0.0
H1308 H 0.66788 0.72995 0.41139 0.0
H1309 H 0.60642 0.69204 0.42413 0.0
H1310 H 0.60893 0.71001 0.46122 0.0
H1311 H 0.62789 0.73786 0.48815 0.0
H1312 H 0.68869 0.77778 0.47329 0.0
H1313 H 0.68726 0.75744 0.43955 0.0
C1314 C 0.65514 0.72547 0.42255 0.0
C1315 C 0.63699 0.70971 0.41501 0.0
C1316 C 0.65655 0.73628 0.44349 0.0
C1317 C 0.62054 0.70418 0.42948 0.0
C1318 C 0.62195 0.71446 0.45068 0.0
C1319 C 0.64085 0.74221 0.47752 0.0
C1320 C 0.65832 0.75951 0.48329 0.0
C1321 C 0.63977 0.73082 0.45752 0.0
C1322 C 0.67506 0.76451 0.4696 0.0
C1323 C 0.67422 0.75295 0.45007 0.0
H1324 H 0.30973 0.923 0.41365 0.0
H1325 H 0.27559 0.94958 0.40571 0.0
H1326 H 0.25724 0.93291 0.44258 0.0
H1327 H 0.24879 0.9082 0.47411 0.0
H1328 H 0.2847 0.88349 0.48368 0.0
H1329 H 0.30443 0.90199 0.44892 0.0
C1330 C 0.29841 0.92529 0.4202 0.0
C1331 C 0.29377 0.93722 0.4069 0.0
C1332 C 0.28813 0.91586 0.44146 0.0
C1333 C 0.27935 0.9404 0.4157 0.0
C1334 C 0.26882 0.93081 0.43668 0.0
C1335 C 0.26123 0.90719 0.46914 0.0
C1336 C 0.2649 0.89405 0.48132 0.0
C1337 C 0.2728 0.91815 0.44935 0.0
C1338 C 0.28108 0.89297 0.47426 0.0
C1339 C 0.29249 0.90365 0.45444 0.0
H1340 H 0.04748 0.3067 0.43227 0.0
H1341 H 0.07691 0.36586 0.40883 0.0
H1342 H 0.10182 0.37457 0.44106 0.0
H1343 H 0.11676 0.3646 0.47343 0.0
H1344 H 0.08689 0.30522 0.49599 0.0
H1345 H 0.06057 0.29738 0.46657 0.0
C1346 C 0.05927 0.32155 0.43426 0.0
C1347 C 0.06049 0.33556 0.41795 0.0
C1348 C 0.07351 0.32638 0.45261 0.0
C1349 C 0.07568 0.35478 0.42109 0.0
C1350 C 0.08995 0.35975 0.43946 0.0
C1351 C 0.10429 0.35004 0.47219 0.0
C1352 C 0.10388 0.33545 0.48662 0.0
C1353 C 0.08924 0.34558 0.45499 0.0
C1354 C 0.08769 0.31662 0.48478 0.0
C1355 C 0.07263 0.31213 0.468 0.0
H1356 H 0.03466 0.2878 0.28914 0.0
H1357 H 0.05676 0.3487 0.28585 0.0
H1358 H 0.07462 0.35121 0.24856 0.0
H1359 H 0.08612 0.33653 0.21903 0.0
H1360 H 0.06457 0.27579 0.22352 0.0
H1361 H 0.04401 0.27276 0.25789 0.0
C1362 C 0.04324 0.30162 0.28018 0.0
C1363 C 0.04457 0.31808 0.29047 0.0
C1364 C 0.05358 0.30299 0.25894 0.0
C1365 C 0.05555 0.33581 0.2784 0.0
C1366 C 0.06582 0.33727 0.25712 0.0
C1367 C 0.07683 0.32262 0.22746 0.0
C1368 C 0.077 0.30644 0.2188 0.0
C1369 C 0.0653 0.32103 0.24757 0.0
C1370 C 0.06461 0.28844 0.22962 0.0
C1371 C 0.05297 0.28672 0.24945 0.0
H1372 H 0.62227 0.71775 0.28044 0.0
H1373 H 0.68037 0.7275 0.2858 0.0
H1374 H 0.68974 0.74784 0.24915 0.0
H1375 H 0.68132 0.76301 0.21565 0.0
H1376 H 0.62321 0.75351 0.21192 0.0
H1377 H 0.61394 0.73262 0.24754 0.0
C1378 C 0.63702 0.7243 0.27368 0.0
C1379 C 0.6506 0.72111 0.28596 0.0
C1380 C 0.64228 0.73591 0.25269 0.0
C1381 C 0.66961 0.72972 0.27678 0.0
C1382 C 0.67497 0.74135 0.25579 0.0
C1383 C 0.66665 0.75641 0.22267 0.0
C1384 C 0.65296 0.75974 0.21082 0.0
C1385 C 0.66142 0.74458 0.24361 0.0
C1386 C 0.63396 0.75091 0.22015 0.0
C1387 C 0.62866 0.73908 0.24075 0.0
H1388 H 0.26147 0.95108 0.29721 0.0
H1389 H 0.29906 0.93856 0.25615 0.0
H1390 H 0.27546 0.92591 0.22209 0.0
H1391 H 0.24332 0.91628 0.20531 0.0
H1392 H 0.20384 0.92514 0.24821 0.0
H1393 H 0.2291 0.9418 0.27976 0.0
C1394 C 0.26456 0.94587 0.28059 0.0
C1395 C 0.28195 0.94577 0.27907 0.0
C1396 C 0.25054 0.93789 0.26145 0.0
C1397 C 0.28573 0.93872 0.25768 0.0
C1398 C 0.27224 0.93146 0.23825 0.0
C1399 C 0.24009 0.92168 0.22162 0.0
C1400 C 0.22152 0.91919 0.22434 0.0
C1401 C 0.2544 0.93055 0.24018 0.0
C1402 C 0.21798 0.92693 0.24536 0.0
C1403 C 0.2324 0.93634 0.26359 0.0
H1404 H 0.7142 0.94523 0.28551 0.0
H1405 H 0.66438 0.95042 0.26975 0.0
H1406 H 0.65864 0.93289 0.23107 0.0
H1407 H 0.66657 0.91419 0.20308 0.0
H1408 H 0.71551 0.9079 0.22077 0.0
H1409 H 0.72293 0.92804 0.257 0.0
C1410 C 0.70217 0.94272 0.27355 0.0
C1411 C 0.68967 0.94904 0.28068 0.0
C1412 C 0.69878 0.93239 0.2516 0.0
C1413 C 0.67422 0.94569 0.26481 0.0
C1414 C 0.67089 0.9356 0.2427 0.0
C1415 C 0.67887 0.91723 0.21484 0.0
C1416 C 0.69045 0.9095 0.20902 0.0
C1417 C 0.68285 0.92854 0.23614 0.0
C1418 C 0.7065 0.91387 0.22438 0.0
C1419 C 0.71069 0.92527 0.24532 0.0
H1420 H 0.01832 0.74537 0.26847 0.0
H1421 H 0.05583 0.72261 0.2779 0.0
H1422 H 0.07532 0.74158 0.2429 0.0
H1423 H 0.08403 0.76777 0.21352 0.0
H1424 H 0.04531 0.78916 0.20279 0.0
H1425 H 0.02405 0.76765 0.23465 0.0
C1426 C 0.03056 0.74431 0.26255 0.0
C1427 C 0.03582 0.73285 0.27587 0.0
C1428 C 0.04167 0.75524 0.24252 0.0
C1429 C 0.05151 0.73135 0.26788 0.0
C1430 C 0.06274 0.74231 0.24801 0.0
C1431 C 0.0707 0.76742 0.21758 0.0
C1432 C 0.06663 0.78051 0.20608 0.0
C1433 C 0.0583 0.75477 0.23571 0.0
C1434 C 0.04923 0.77977 0.21185 0.0
C1435 C 0.03695 0.76736 0.22997 0.0
H1436 H 0.29576 0.3658 0.25964 0.0
H1437 H 0.2678 0.30967 0.29309 0.0
H1438 H 0.24133 0.29767 0.26244 0.0
H1439 H 0.22454 0.30422 0.22874 0.0
H1440 H 0.25293 0.36063 0.19604 0.0
H1441 H 0.28083 0.37141 0.22381 0.0
C1442 C 0.28399 0.35087 0.26013 0.0
C1443 C 0.28363 0.33873 0.27883 0.0
C1444 C 0.26879 0.34417 0.2427 0.0
C1445 C 0.26841 0.31935 0.27893 0.0
C1446 C 0.25322 0.31251 0.26148 0.0
C1447 C 0.23701 0.31874 0.22741 0.0
C1448 C 0.23654 0.3317 0.21061 0.0
C1449 C 0.25302 0.32493 0.24364 0.0
C1450 C 0.25277 0.35051 0.20914 0.0
C1451 C 0.26876 0.35667 0.22497 0.0
H1452 H 0.29047 0.33846 0.41341 0.0
H1453 H 0.30767 0.39719 0.39773 0.0
H1454 H 0.29101 0.39807 0.43433 0.0
H1455 H 0.26931 0.38141 0.46875 0.0
H1456 H 0.25119 0.32248 0.48404 0.0
H1457 H 0.27051 0.32245 0.44967 0.0
C1458 C 0.29075 0.35152 0.41814 0.0
C1459 C 0.30017 0.36767 0.4027 0.0
C1460 C 0.28089 0.35187 0.43907 0.0
C1461 C 0.3004 0.38448 0.40914 0.0
C1462 C 0.29088 0.38502 0.43009 0.0
C1463 C 0.26993 0.3687 0.4649 0.0
C1464 C 0.25883 0.35197 0.47885 0.0
C1465 C 0.28078 0.3687 0.44492 0.0
C1466 C 0.2595 0.33549 0.47339 0.0
C1467 C 0.27054 0.33547 0.45377 0.0
H1468 H 0.67081 0.95198 0.43212 0.0
H1469 H 0.64829 0.90545 0.37981 0.0
H1470 H 0.63779 0.88212 0.41342 0.0
H1471 H 0.63989 0.87574 0.45712 0.0
H1472 H 0.66358 0.92247 0.50955 0.0
H1473 H 0.66874 0.94502 0.47653 0.0
C1474 C 0.66298 0.93667 0.42825 0.0
C1475 C 0.66002 0.93026 0.40376 0.0
C1476 C 0.65761 0.92348 0.44764 0.0
C1477 C 0.65036 0.91052 0.39865 0.0
C1478 C 0.64457 0.89726 0.41784 0.0
C1479 C 0.64564 0.89075 0.46148 0.0
C1480 C 0.65158 0.89744 0.48575 0.0
C1481 C 0.64879 0.90365 0.44236 0.0
C1482 C 0.65923 0.91701 0.49096 0.0
C1483 C 0.66215 0.9299 0.4721 0.0
H1484 H 0.05989 0.7585 0.40096 0.0
H1485 H 0.05739 0.70433 0.4029 0.0
H1486 H 0.08299 0.71701 0.43481 0.0
H1487 H 0.10584 0.74359 0.46263 0.0
H1488 H 0.10834 0.79776 0.45889 0.0
H1489 H 0.08288 0.78486 0.42733 0.0
C1490 C 0.06485 0.74937 0.40835 0.0
C1491 C 0.05662 0.73044 0.39961 0.0
C1492 C 0.07957 0.75676 0.42646 0.0
C1493 C 0.06343 0.71895 0.40931 0.0
C1494 C 0.07808 0.7262 0.42756 0.0
C1495 C 0.1009 0.75259 0.45474 0.0
C1496 C 0.10883 0.77155 0.46341 0.0
C1497 C 0.08626 0.74511 0.4363 0.0
C1498 C 0.10221 0.78299 0.45303 0.0
C1499 C 0.08772 0.77568 0.43484 0.0
H1500 H 0.32649 0.0532 0.7697 0.0
H1501 H 0.27382 0.04926 0.74223 0.0
H1502 H 0.27458 0.06879 0.77631 0.0
H1503 H 0.29109 0.08874 0.8121 0.0
H1504 H 0.34262 0.09159 0.8419 0.0
H1505 H 0.34152 0.07107 0.8085 0.0
C1506 C 0.3151 0.05649 0.77131 0.0
C1507 C 0.30021 0.04982 0.75324 0.0
C1508 C 0.3155 0.06774 0.79121 0.0
C1509 C 0.2855 0.05414 0.75575 0.0
C1510 C 0.28592 0.0654 0.77525 0.0
C1511 C 0.30186 0.08455 0.81183 0.0
C1512 C 0.31697 0.0919 0.82962 0.0
C1513 C 0.30096 0.07247 0.79288 0.0
C1514 C 0.331 0.08654 0.82829 0.0
C1515 C 0.33033 0.07467 0.80924 0.0
H1516 H 0.96918 0.23952 0.73919 0.0
H1517 H 0.94821 0.27791 0.75125 0.0
H1518 H 0.9319 0.26044 0.78865 0.0
H1519 H 0.92143 0.23261 0.81596 0.0
H1520 H 0.9431 0.19479 0.80435 0.0
H1521 H 0.96161 0.21386 0.76892 0.0
C1522 C 0.96115 0.24414 0.75012 0.0
C1523 C 0.95965 0.25979 0.74232 0.0
C1524 C 0.95197 0.23414 0.77165 0.0
C1525 C 0.94951 0.26585 0.75685 0.0
C1526 C 0.94014 0.25584 0.77818 0.0
C1527 C 0.93042 0.22874 0.80581 0.0
C1528 C 0.93084 0.2123 0.81255 0.0
C1529 C 0.94095 0.23974 0.78547 0.0
C1530 C 0.94267 0.20747 0.79952 0.0
C1531 C 0.95311 0.21827 0.77918 0.0
H1532 H 0.74544 0.70008 0.74495 0.0
H1533 H 0.71941 0.63936 0.75898 0.0
H1534 H 0.74193 0.6463 0.79305 0.0
H1535 H 0.77015 0.66909 0.81734 0.0
H1536 H 0.79797 0.72983 0.80332 0.0
H1537 H 0.77341 0.72348 0.77136 0.0
C1538 C 0.74465 0.68843 0.75561 0.0
C1539 C 0.7309 0.66923 0.74914 0.0
C1540 C 0.75795 0.69249 0.77525 0.0
C1541 C 0.73002 0.65427 0.76322 0.0
C1542 C 0.74286 0.65819 0.78283 0.0
C1543 C 0.77085 0.68097 0.8073 0.0
C1544 C 0.78599 0.69985 0.81242 0.0
C1545 C 0.75708 0.67718 0.7887 0.0
C1546 C 0.78642 0.71513 0.79972 0.0
C1547 C 0.77247 0.71148 0.78132 0.0
H1548 H 0.6992 0.62457 0.61547 0.0
H1549 H 0.72267 0.68576 0.61724 0.0
H1550 H 0.73816 0.6892 0.57759 0.0
H1551 H 0.74775 0.67523 0.54468 0.0
H1552 H 0.72526 0.6142 0.54434 0.0
H1553 H 0.70619 0.61026 0.58072 0.0
C1554 C 0.70756 0.63866 0.60711 0.0
C1555 C 0.71004 0.65493 0.61952 0.0
C1556 C 0.71655 0.64056 0.58449 0.0
C1557 C 0.72064 0.67301 0.60819 0.0
C1558 C 0.72954 0.675 0.58554 0.0
C1559 C 0.73853 0.66104 0.55244 0.0
C1560 C 0.73812 0.64508 0.54188 0.0
C1561 C 0.72802 0.65894 0.57386 0.0
C1562 C 0.72577 0.62673 0.55188 0.0
C1563 C 0.71501 0.62448 0.5729 0.0
H1564 H 0.29316 0.04919 0.61525 0.0
H1565 H 0.35348 0.0716 0.6349 0.0
H1566 H 0.36369 0.09307 0.59927 0.0
H1567 H 0.35528 0.10627 0.56342 0.0
H1568 H 0.29465 0.08418 0.54563 0.0
H1569 H 0.28484 0.06149 0.57937 0.0
C1570 C 0.30857 0.05871 0.6118 0.0
C1571 C 0.32252 0.05887 0.62789 0.0
C1572 C 0.3143 0.07101 0.59148 0.0
C1573 C 0.34242 0.07123 0.6229 0.0
C1574 C 0.34826 0.08351 0.60253 0.0
C1575 C 0.33993 0.0965 0.56693 0.0
C1576 C 0.32576 0.09697 0.55183 0.0
C1577 C 0.3343 0.08367 0.58684 0.0
C1578 C 0.30592 0.08398 0.55652 0.0
C1579 C 0.30026 0.07109 0.57603 0.0
H1580 H 0.9591 0.2783 0.59229 0.0
H1581 H 0.92135 0.28011 0.64623 0.0
H1582 H 0.89481 0.26809 0.61555 0.0
H1583 H 0.88147 0.25312 0.57502 0.0
H1584 H 0.92037 0.25391 0.52028 0.0
H1585 H 0.94736 0.26888 0.54971 0.0
C1586 C 0.94516 0.27644 0.5971 0.0
C1587 C 0.942 0.27985 0.62137 0.0
C1588 C 0.93014 0.26971 0.57939 0.0
C1589 C 0.92404 0.27759 0.62754 0.0
C1590 C 0.90886 0.27059 0.61007 0.0
C1591 C 0.89591 0.25701 0.5692 0.0
C1592 C 0.89862 0.25174 0.54557 0.0
C1593 C 0.91159 0.26604 0.58612 0.0
C1594 C 0.91758 0.25704 0.53858 0.0
C1595 C 0.93312 0.26575 0.55535 0.0
H1596 H 0.33642 0.27853 0.61384 0.0
H1597 H 0.39632 0.29391 0.62278 0.0
H1598 H 0.39361 0.27594 0.58573 0.0
H1599 H 0.37371 0.25387 0.55267 0.0
H1600 H 0.31354 0.23736 0.54391 0.0
H1601 H 0.31688 0.25771 0.57895 0.0
C1602 C 0.34894 0.27813 0.60751 0.0
C1603 C 0.36651 0.28748 0.62122 0.0
C1604 C 0.34721 0.26744 0.58629 0.0
C1605 C 0.38256 0.28674 0.61276 0.0
C1606 C 0.38105 0.27646 0.59153 0.0
C1607 C 0.36142 0.25503 0.55807 0.0
C1608 C 0.34341 0.24413 0.54566 0.0
C1609 C 0.36337 0.26649 0.57841 0.0
C1610 C 0.32753 0.24551 0.55327 0.0
C1611 C 0.32944 0.25715 0.57328 0.0
H1612 H 0.73062 0.06315 0.63059 0.0
H1613 H 0.69225 0.08522 0.6336 0.0
H1614 H 0.70657 0.10383 0.59629 0.0
H1615 H 0.73111 0.11527 0.56438 0.0
H1616 H 0.77242 0.09653 0.56409 0.0
H1617 H 0.75549 0.07479 0.5981 0.0
C1618 C 0.7253 0.07187 0.62282 0.0
C1619 C 0.71044 0.07286 0.63472 0.0
C1620 C 0.73411 0.08313 0.60183 0.0
C1621 C 0.70376 0.08436 0.62476 0.0
C1622 C 0.71193 0.09498 0.60344 0.0
C1623 C 0.73661 0.10661 0.57183 0.0
C1624 C 0.75319 0.10778 0.56162 0.0
C1625 C 0.72737 0.09478 0.59212 0.0
C1626 C 0.75959 0.09588 0.5712 0.0
C1627 C 0.75001 0.08353 0.5909 0.0
H1628 H 0.90641 0.65889 0.64489 0.0
H1629 H 0.9417 0.64446 0.60213 0.0
H1630 H 0.91835 0.63452 0.56756 0.0
H1631 H 0.8907 0.63525 0.54762 0.0
H1632 H 0.85583 0.64975 0.59153 0.0
H1633 H 0.87601 0.65412 0.62763 0.0
C1634 C 0.90863 0.65301 0.62823 0.0
C1635 C 0.92566 0.65246 0.62582 0.0
C1636 C 0.89538 0.64766 0.60853 0.0
C1637 C 0.92854 0.64484 0.60431 0.0
C1638 C 0.91531 0.63938 0.5845 0.0
C1639 C 0.88728 0.63889 0.56525 0.0
C1640 C 0.87216 0.64273 0.56678 0.0
C1641 C 0.89909 0.6415 0.58606 0.0
C1642 C 0.86775 0.64728 0.58977 0.0
C1643 C 0.87923 0.64972 0.61044 0.0
H1644 H 0.96948 0.72344 0.74081 0.0
H1645 H 0.95026 0.66375 0.75258 0.0
H1646 H 0.93705 0.66464 0.79243 0.0
H1647 H 0.92764 0.68137 0.82153 0.0
H1648 H 0.94622 0.74079 0.80896 0.0
H1649 H 0.96344 0.74114 0.77217 0.0
C1650 C 0.9626 0.71067 0.75221 0.0
C1651 C 0.96055 0.69347 0.74355 0.0
C1652 C 0.95493 0.71125 0.77498 0.0
C1653 C 0.95191 0.67715 0.75873 0.0
C1654 C 0.94429 0.67763 0.78149 0.0
C1655 C 0.9357 0.69446 0.81089 0.0
C1656 C 0.93549 0.71096 0.81781 0.0
C1657 C 0.94521 0.69444 0.78944 0.0
C1658 C 0.94625 0.72792 0.80413 0.0
C1659 C 0.95593 0.72808 0.78293 0.0
H1660 H 0.32383 0.25328 0.73262 0.0
H1661 H 0.36268 0.30538 0.77252 0.0
H1662 H 0.35363 0.28778 0.8114 0.0
H1663 H 0.33757 0.25716 0.83328 0.0
H1664 H 0.30118 0.2044 0.79296 0.0
H1665 H 0.3058 0.22258 0.7553 0.0
C1666 C 0.3299 0.26072 0.74996 0.0
C1667 C 0.34376 0.28049 0.74999 0.0
C1668 C 0.32514 0.25036 0.77213 0.0
C1669 C 0.35189 0.29012 0.77232 0.0
C1670 C 0.34679 0.28006 0.79446 0.0
C1671 C 0.33057 0.24962 0.81629 0.0
C1672 C 0.31924 0.22942 0.81599 0.0
C1673 C 0.3339 0.2601 0.7945 0.0
C1674 C 0.30988 0.21994 0.79388 0.0
C1675 C 0.31267 0.23033 0.77221 0.0
H1676 H 0.7454 0.05139 0.7386 0.0
H1677 H 0.70376 0.05345 0.78554 0.0
H1678 H 0.72631 0.06268 0.82058 0.0
H1679 H 0.75878 0.073 0.83687 0.0
H1680 H 0.80214 0.0752 0.78864 0.0
H1681 H 0.77794 0.06091 0.75554 0.0
C1682 C 0.74121 0.05352 0.75665 0.0
C1683 C 0.72301 0.05171 0.75963 0.0
C1684 C 0.75461 0.05966 0.77649 0.0
C1685 C 0.71776 0.0548 0.78292 0.0
C1686 C 0.73065 0.06011 0.80291 0.0
C1687 C 0.76305 0.07048 0.81912 0.0
C1688 C 0.78242 0.07544 0.81538 0.0
C1689 C 0.74931 0.06312 0.79974 0.0
C1690 C 0.78736 0.07141 0.79235 0.0
C1691 C 0.77355 0.06339 0.77322 0.0
H1692 H 0.02278 0.31088 0.02448 0.0
H1693 H 0.05558 0.37197 0.03834 0.0
H1694 H 0.08162 0.36924 0.05802 0.0
H1695 H 0.09427 0.34926 0.07276 0.0
H1696 H 0.05945 0.28762 0.06276 0.0
H1697 H 0.03527 0.29091 0.03955 0.0
C1698 C 0.03575 0.32364 0.0315 0.0
C1699 C 0.03733 0.34162 0.02983 0.0
C1700 C 0.0503 0.32186 0.04351 0.0
C1701 C 0.05406 0.35798 0.03939 0.0
C1702 C 0.06891 0.3564 0.05068 0.0
C1703 C 0.08132 0.33647 0.0658 0.0
C1704 C 0.07884 0.3182 0.06967 0.0
C1705 C 0.06703 0.33836 0.0532 0.0
C1706 C 0.06208 0.30192 0.05983 0.0
C1707 C 0.04809 0.30375 0.04669 0.0
H1708 H 0.63966 0.70235 0.9942 0.0
H1709 H 0.66127 0.6846 0.05556 0.0
H1710 H 0.66546 0.71156 0.07996 0.0
H1711 H 0.66268 0.73997 0.08422 0.0
H1712 H 0.64152 0.75811 0.02286 0.0
H1713 H 0.63723 0.73108 0.99834 0.0
C1714 C 0.64532 0.70438 0.01289 0.0
C1715 C 0.65013 0.69141 0.02296 0.0
C1716 C 0.64768 0.71994 0.02693 0.0
C1717 C 0.65742 0.69431 0.04726 0.0
C1718 C 0.65983 0.70974 0.06129 0.0
C1719 C 0.65731 0.73814 0.0654 0.0
C1720 C 0.65243 0.75109 0.05545 0.0
C1721 C 0.65499 0.72264 0.05133 0.0
C1722 C 0.64516 0.74825 0.03114 0.0
C1723 C 0.64281 0.73285 0.01703 0.0
H1724 H 0.30872 0.94142 0.07534 0.0
H1725 H 0.30193 0.98641 0.04423 0.0
H1726 H 0.26822 0.97001 0.05858 0.0
H1727 H 0.24035 0.94213 0.07895 0.0
H1728 H 0.24833 0.89798 0.11053 0.0
H1729 H 0.28196 0.91485 0.09692 0.0
C1730 C 0.29991 0.94768 0.0716 0.0
C1731 C 0.30777 0.96501 0.05852 0.0
C1732 C 0.28073 0.93829 0.07996 0.0
C1733 C 0.29619 0.97303 0.05419 0.0
C1734 C 0.27693 0.96366 0.06238 0.0
C1735 C 0.24955 0.93636 0.08304 0.0
C1736 C 0.24177 0.91869 0.09541 0.0
C1737 C 0.269 0.9462 0.07519 0.0
C1738 C 0.25384 0.91134 0.10057 0.0
C1739 C 0.27309 0.92101 0.0929 0.0
H1740 H 0.35016 0.04675 0.98781 0.0
H1741 H 0.38112 0.0847 0.04898 0.0
H1742 H 0.37559 0.1091 0.0312 0.0
H1743 H 0.36143 0.11943 0.99843 0.0
H1744 H 0.33041 0.08105 0.93768 0.0
H1745 H 0.33642 0.05701 0.95525 0.0
C1746 C 0.35576 0.06036 0.99729 0.0
C1747 C 0.36605 0.06386 0.01972 0.0
C1748 C 0.35244 0.07424 0.98707 0.0
C1749 C 0.37314 0.0816 0.03171 0.0
C1750 C 0.36998 0.09557 0.02155 0.0
C1751 C 0.35612 0.10585 0.989 0.0
C1752 C 0.34539 0.10198 0.96687 0.0
C1753 C 0.35961 0.09203 0.99925 0.0
C1754 C 0.33845 0.08426 0.95493 0.0
C1755 C 0.34196 0.07054 0.96489 0.0
H1756 H 0.91775 0.28625 0.99919 0.0
H1757 H 0.97444 0.29368 0.01141 0.0
H1758 H 0.96328 0.26257 0.99195 0.0
H1759 H 0.9381 0.23443 0.96829 0.0
H1760 H 0.88187 0.22791 0.95551 0.0
H1761 H 0.8922 0.25749 0.97825 0.0
C1762 C 0.92763 0.28099 0.99796 0.0
C1763 C 0.94697 0.29241 0.00658 0.0
C1764 C 0.92126 0.26332 0.98631 0.0
C1765 C 0.95952 0.28529 0.00475 0.0
C1766 C 0.95316 0.2675 0.99356 0.0
C1767 C 0.92808 0.23941 0.97076 0.0
C1768 C 0.90936 0.22915 0.95991 0.0
C1769 C 0.93418 0.25658 0.98375 0.0
C1770 C 0.89651 0.23576 0.96322 0.0
C1771 C 0.90236 0.25262 0.97635 0.0
H1772 H 0.71054 0.6749 0.976 0.0
H1773 H 0.70499 0.61996 0.989 0.0
H1774 H 0.73869 0.63311 0.97739 0.0
H1775 H 0.76879 0.65914 0.96025 0.0
H1776 H 0.7749 0.71398 0.94541 0.0
H1777 H 0.74216 0.70213 0.96143 0.0
C1778 C 0.71684 0.66594 0.97663 0.0
C1779 C 0.70519 0.64642 0.98308 0.0
C1780 C 0.7363 0.67353 0.96946 0.0
C1781 C 0.71354 0.63496 0.98379 0.0
C1782 C 0.73284 0.64245 0.97716 0.0
C1783 C 0.76297 0.66852 0.9606 0.0
C1784 C 0.77407 0.68727 0.95136 0.0
C1785 C 0.74416 0.66153 0.96938 0.0
C1786 C 0.76658 0.69945 0.95244 0.0
C1787 C 0.74784 0.69264 0.96145 0.0
H1788 H 0.99524 0.69976 0.9716 0.0
H1789 H 0.9532 0.64209 0.99484 0.0
H1790 H 0.9266 0.64726 0.98413 0.0
H1791 H 0.91531 0.66783 0.96659 0.0
H1792 H 0.95768 0.72541 0.94338 0.0
H1793 H 0.98411 0.72069 0.95603 0.0
C1794 C 0.98026 0.68831 0.97439 0.0
C1795 C 0.97622 0.6705 0.9838 0.0
C1796 C 0.96509 0.6914 0.96828 0.0
C1797 C 0.95673 0.65592 0.98757 0.0
C1798 C 0.94151 0.65886 0.98142 0.0
C1799 C 0.93034 0.67935 0.96436 0.0
C1800 C 0.93448 0.69695 0.95402 0.0
C1801 C 0.94552 0.67648 0.97151 0.0
C1802 C 0.95404 0.71182 0.95155 0.0
C1803 C 0.96918 0.70907 0.9586 0.0
H1804 H 0.36612 0.32237 0.9834 0.0
H1805 H 0.31534 0.29046 0.02865 0.0
H1806 H 0.3101 0.2603 0.01228 0.0
H1807 H 0.31936 0.24284 0.98432 0.0
H1808 H 0.37043 0.27448 0.93968 0.0
H1809 H 0.37619 0.3048 0.95668 0.0
C1810 C 0.35395 0.30882 0.98976 0.0
C1811 C 0.3411 0.30875 0.00717 0.0
C1812 C 0.35104 0.29144 0.98034 0.0
C1813 C 0.32549 0.29101 0.01529 0.0
C1814 C 0.32243 0.27371 0.00589 0.0
C1815 C 0.33172 0.25639 0.9783 0.0
C1816 C 0.34439 0.25643 0.96069 0.0
C1817 C 0.335 0.27374 0.98826 0.0
C1818 C 0.36053 0.27407 0.95332 0.0
C1819 C 0.36378 0.29141 0.96296 0.0
H1820 H 0.70826 0.03292 0.99022 0.0
H1821 H 0.70215 0.08165 0.97509 0.0
H1822 H 0.73503 0.09953 0.95946 0.0
H1823 H 0.76498 0.10128 0.94882 0.0
H1824 H 0.77297 0.05399 0.96537 0.0
H1825 H 0.73969 0.03544 0.98107 0.0
C1826 C 0.71418 0.04748 0.98362 0.0
C1827 C 0.70266 0.05586 0.98384 0.0
C1828 C 0.73334 0.0579 0.97466 0.0
C1829 C 0.7106 0.07478 0.97523 0.0
C1830 C 0.72943 0.08506 0.96618 0.0
C1831 C 0.7597 0.08708 0.95633 0.0
C1832 C 0.77161 0.07918 0.95616 0.0
C1833 C 0.74086 0.07675 0.96572 0.0
C1834 C 0.76411 0.06042 0.96514 0.0
C1835 C 0.74512 0.04985 0.97426 0.0
H1836 H 0.61586 0.93848 0.05652 0.0
H1837 H 0.66758 0.96678 0.01223 0.0
H1838 H 0.67605 0.9433 0.02519 0.0
H1839 H 0.66921 0.91515 0.04991 0.0
H1840 H 0.61776 0.88724 0.09461 0.0
H1841 H 0.60869 0.91002 0.08049 0.0
C1842 C 0.62893 0.93948 0.04957 0.0
C1843 C 0.64107 0.95443 0.03347 0.0
C1844 C 0.63379 0.92598 0.0572 0.0
C1845 C 0.65795 0.95545 0.02467 0.0
C1846 C 0.66285 0.94204 0.0321 0.0
C1847 C 0.65607 0.91412 0.05664 0.0
C1848 C 0.64419 0.89949 0.07329 0.0
C1849 C 0.65097 0.92735 0.04854 0.0
C1850 C 0.62705 0.89819 0.08156 0.0
C1851 C 0.6219 0.91129 0.0736 0.0
H1852 H 0.04015 0.71226 0.0247 0.0
H1853 H 0.08982 0.70641 0.0391 0.0
H1854 H 0.10688 0.73761 0.05912 0.0
H1855 H 0.10748 0.76578 0.07404 0.0
H1856 H 0.05962 0.77397 0.05752 0.0
H1857 H 0.04185 0.74233 0.03763 0.0
C1858 C 0.05476 0.71791 0.03207 0.0
C1859 C 0.06363 0.70691 0.03039 0.0
C1860 C 0.06473 0.73614 0.0435 0.0
C1861 C 0.0826 0.71449 0.03999 0.0
C1862 C 0.09239 0.73234 0.05159 0.0
C1863 C 0.09338 0.76101 0.0656 0.0
C1864 C 0.0851 0.7725 0.06713 0.0
C1865 C 0.08357 0.7432 0.05358 0.0
C1866 C 0.06638 0.76547 0.05687 0.0
C1867 C 0.05625 0.74741 0.0453 0.0
H1868 H 0.29569 0.33291 0.05299 0.0
H1869 H 0.29147 0.37505 0.0096 0.0
H1870 H 0.25801 0.36189 0.02269 0.0
H1871 H 0.23176 0.34154 0.05066 0.0
H1872 H 0.23601 0.30056 0.09642 0.0
H1873 H 0.26741 0.3098 0.07804 0.0
C1874 C 0.2872 0.33881 0.04598 0.0
C1875 C 0.29598 0.35498 0.03054 0.0
C1876 C 0.26809 0.33156 0.05428 0.0
C1877 C 0.28499 0.36268 0.02167 0.0
C1878 C 0.2659 0.35522 0.0292 0.0
C1879 C 0.23949 0.3345 0.0564 0.0
C1880 C 0.23183 0.32066 0.07508 0.0
C1881 C 0.2576 0.34019 0.04621 0.0
C1882 C 0.24171 0.31132 0.08206 0.0
C1883 C 0.25969 0.31668 0.07167 0.0
H1884 H 0.6855 0.64571 0.35317 0.0
H1885 H 0.7155 0.70691 0.36579 0.0
H1886 H 0.74346 0.70642 0.3833 0.0
H1887 H 0.75868 0.68836 0.39656 0.0
H1888 H 0.72686 0.62659 0.3876 0.0
H1889 H 0.70064 0.62771 0.36646 0.0
C1890 C 0.69823 0.65899 0.3595 0.0
C1891 C 0.69844 0.67633 0.35814 0.0
C1892 C 0.71398 0.65852 0.37015 0.0
C1893 C 0.71497 0.69337 0.36669 0.0
C1894 C 0.73094 0.69309 0.37671 0.0
C1895 C 0.74597 0.67508 0.39022 0.0
C1896 C 0.74493 0.65742 0.39381 0.0
C1897 C 0.73048 0.67569 0.37887 0.0
C1898 C 0.72842 0.64048 0.38481 0.0
C1899 C 0.71324 0.64105 0.37289 0.0
H1900 H 0.36334 0.05066 0.3773 0.0
H1901 H 0.30093 0.01941 0.3663 0.0
H1902 H 0.29966 0.04664 0.38261 0.0
H1903 H 0.31609 0.07866 0.40189 0.0
H1904 H 0.37873 0.11038 0.41104 0.0
H1905 H 0.37998 0.08347 0.39393 0.0
C1906 C 0.34945 0.04981 0.37837 0.0
C1907 C 0.33224 0.03295 0.37073 0.0
C1908 C 0.34883 0.06554 0.38767 0.0
C1909 C 0.31441 0.0322 0.37203 0.0
C1910 C 0.31366 0.04775 0.38144 0.0
C1911 C 0.33008 0.07988 0.39979 0.0
C1912 C 0.34727 0.09657 0.40806 0.0
C1913 C 0.33076 0.06443 0.38954 0.0
C1914 C 0.36519 0.09762 0.40542 0.0
C1915 C 0.36596 0.08227 0.39544 0.0
H1916 H 0.95279 0.27049 0.34974 0.0
H1917 H 0.97197 0.31751 0.40075 0.0
H1918 H 0.93969 0.30119 0.41955 0.0
H1919 H 0.90777 0.27139 0.425 0.0
H1920 H 0.88828 0.22534 0.372 0.0
H1921 H 0.91898 0.24348 0.35043 0.0
C1922 C 0.94972 0.27731 0.36462 0.0
C1923 C 0.96465 0.29496 0.37413 0.0
C1924 C 0.93123 0.2679 0.37522 0.0
C1925 C 0.96059 0.30389 0.39318 0.0
C1926 C 0.94221 0.29449 0.40403 0.0
C1927 C 0.90998 0.26551 0.40837 0.0
C1928 C 0.89594 0.24672 0.40067 0.0
C1929 C 0.92763 0.27616 0.39574 0.0
C1930 C 0.89912 0.23944 0.37895 0.0
C1931 C 0.91662 0.24986 0.36645 0.0
H1932 H 0.98997 0.37801 0.35524 0.0
H1933 H 0.04629 0.39576 0.3251 0.0
H1934 H 0.04613 0.42177 0.30284 0.0
H1935 H 0.02912 0.43827 0.29 0.0
H1936 H 0.97255 0.42005 0.31954 0.0
H1937 H 0.97361 0.39529 0.34375 0.0
C1938 C 0.00233 0.38768 0.34403 0.0
C1939 C 0.0181 0.38488 0.34183 0.0
C1940 C 0.00199 0.4024 0.33093 0.0
C1941 C 0.03393 0.39753 0.3271 0.0
C1942 C 0.03383 0.41239 0.3143 0.0
C1943 C 0.01714 0.42904 0.30198 0.0
C1944 C 0.00074 0.43096 0.30287 0.0
C1945 C 0.01781 0.41478 0.31579 0.0
C1946 C 0.98522 0.41871 0.31824 0.0
C1947 C 0.98586 0.40461 0.3322 0.0
H1948 H 0.63164 0.63336 0.31006 0.0
H1949 H 0.57862 0.61772 0.34799 0.0
H1950 H 0.56295 0.58525 0.33088 0.0
H1951 H 0.56348 0.56221 0.30286 0.0
H1952 H 0.61534 0.57857 0.26159 0.0
H1953 H 0.63245 0.60964 0.28275 0.0
C1954 C 0.61678 0.62271 0.31491 0.0
C1955 C 0.60629 0.62788 0.33029 0.0
C1956 C 0.60763 0.60424 0.30429 0.0
C1957 C 0.58696 0.61406 0.33614 0.0
C1958 C 0.57798 0.59552 0.32633 0.0
C1959 C 0.57849 0.57258 0.2983 0.0
C1960 C 0.58797 0.56807 0.28035 0.0
C1961 C 0.58802 0.59062 0.30991 0.0
C1962 C 0.60765 0.58154 0.27537 0.0
C1963 C 0.61742 0.59939 0.28735 0.0
H1964 H 0.37778 0.00728 0.30266 0.0
H1965 H 0.38248 0.97266 0.35923 0.0
H1966 H 0.41688 0.98631 0.34997 0.0
H1967 H 0.4445 0.00542 0.32311 0.0
H1968 H 0.43898 0.03734 0.26329 0.0
H1969 H 0.40636 0.02789 0.27679 0.0
C1970 C 0.38654 0.00313 0.31325 0.0
C1971 C 0.37778 0.9891 0.33161 0.0
C1972 C 0.40612 0.01044 0.30708 0.0
C1973 C 0.38904 0.98348 0.345 0.0
C1974 C 0.40865 0.99122 0.33966 0.0
C1975 C 0.43619 0.01031 0.31297 0.0
C1976 C 0.4442 0.02192 0.29207 0.0
C1977 C 0.41716 0.00423 0.32024 0.0
C1978 C 0.43333 0.02853 0.27959 0.0
C1979 C 0.41456 0.02299 0.28716 0.0
H1980 H 0.64536 0.99628 0.30518 0.0
H1981 H 0.61206 0.97711 0.37193 0.0
H1982 H 0.59055 0.98768 0.35617 0.0
H1983 H 0.58116 0.00233 0.32332 0.0
H1984 H 0.61478 0.02172 0.25688 0.0
H1985 H 0.63637 0.01133 0.2728 0.0
C1986 C 0.63337 0.99435 0.31629 0.0
C1987 C 0.63028 0.98582 0.33966 0.0
C1988 C 0.62119 0.00062 0.30723 0.0
C1989 C 0.61477 0.98361 0.35388 0.0
C1990 C 0.60246 0.98966 0.34488 0.0
C1991 C 0.59318 0.00421 0.31232 0.0
C1992 C 0.59636 0.01279 0.28896 0.0
C1993 C 0.60552 0.99816 0.32157 0.0
C1994 C 0.61215 0.01537 0.27503 0.0
C1995 C 0.62442 0.00932 0.28405 0.0
H1996 H 0.03027 0.65113 0.31349 0.0
H1997 H 0.97478 0.6165 0.34889 0.0
H1998 H 0.97152 0.58745 0.33138 0.0
H1999 H 0.9838 0.57188 0.30477 0.0
H2000 H 0.0396 0.60615 0.27025 0.0
H2001 H 0.04344 0.63531 0.28874 0.0
C2002 C 0.01751 0.63722 0.31747 0.0
C2003 C 0.00274 0.63605 0.33236 0.0
C2004 C 0.01576 0.6205 0.30744 0.0
C2005 C 0.98638 0.61787 0.3375 0.0
C2006 C 0.98446 0.60122 0.32743 0.0
C2007 C 0.99679 0.58575 0.30133 0.0
C2008 C 0.01133 0.58693 0.28605 0.0
C2009 C 0.99894 0.60238 0.31216 0.0
C2010 C 0.02824 0.60492 0.28202 0.0
C2011 C 0.0304 0.62158 0.29251 0.0
H2012 H 0.37583 0.36391 0.29924 0.0
H2013 H 0.39035 0.40601 0.3563 0.0
H2014 H 0.4248 0.42221 0.34563 0.0
H2015 H 0.44983 0.4267 0.31687 0.0
H2016 H 0.4346 0.38741 0.25584 0.0
H2017 H 0.40169 0.36742 0.27168 0.0
C2018 C 0.38669 0.37636 0.30963 0.0
C2019 C 0.38079 0.38382 0.32853 0.0
C2020 C 0.40631 0.38614 0.30254 0.0
C2021 C 0.39474 0.40011 0.34169 0.0
C2022 C 0.41437 0.40937 0.33554 0.0
C2023 C 0.43935 0.41376 0.30701 0.0
C2024 C 0.44466 0.40881 0.28495 0.0
C2025 C 0.42019 0.40292 0.31544 0.0
C2026 C 0.43102 0.3916 0.27291 0.0
C2027 C 0.41209 0.38024 0.28182 0.0
H2028 H 0.33891 0.28849 0.33469 0.0
H2029 H 0.30689 0.29522 0.39289 0.0
H2030 H 0.30805 0.27051 0.41687 0.0
H2031 H 0.3194 0.2481 0.42226 0.0
H2032 H 0.35021 0.2402 0.3635 0.0
H2033 H 0.34863 0.26456 0.33913 0.0
C2034 C 0.33207 0.28447 0.35255 0.0
C2035 C 0.32291 0.2938 0.36197 0.0
C2036 C 0.33278 0.2702 0.36633 0.0
C2037 C 0.31406 0.28832 0.38513 0.0
C2038 C 0.31476 0.27421 0.39894 0.0
C2039 C 0.32551 0.25142 0.40396 0.0
C2040 C 0.335 0.2423 0.39488 0.0
C2041 C 0.32425 0.2652 0.38983 0.0
C2042 C 0.34314 0.24718 0.37126 0.0
C2043 C 0.3421 0.26103 0.35718 0.0
H2044 H 0.7047 0.03218 0.37217 0.0
H2045 H 0.75252 0.02307 0.38437 0.0
H2046 H 0.77112 0.05403 0.40505 0.0
H2047 H 0.77361 0.08308 0.42081 0.0
H2048 H 0.72694 0.09363 0.40736 0.0
H2049 H 0.70787 0.0624 0.38674 0.0
C2050 C 0.71925 0.03704 0.37918 0.0
C2051 C 0.72714 0.02524 0.37669 0.0
C2052 C 0.72998 0.05497 0.39116 0.0
C2053 C 0.74602 0.03178 0.38596 0.0
C2054 C 0.75669 0.04949 0.3979 0.0
C2055 C 0.7594 0.07878 0.41304 0.0
C2056 C 0.75184 0.09083 0.41552 0.0
C2057 C 0.74877 0.06111 0.40074 0.0
C2058 C 0.7331 0.08461 0.40597 0.0
C2059 C 0.72224 0.06682 0.39397 0.0
H2060 H 0.96373 0.67218 0.39768 0.0
H2061 H 0.9454 0.68619 0.33011 0.0
H2062 H 0.91229 0.67221 0.34582 0.0
H2063 H 0.88988 0.65985 0.38077 0.0
H2064 H 0.90936 0.64923 0.44995 0.0
H2065 H 0.94062 0.65787 0.43183 0.0
C2066 C 0.95227 0.67163 0.38626 0.0
C2067 C 0.9567 0.67984 0.36273 0.0
C2068 C 0.9336 0.66444 0.3959 0.0
C2069 C 0.94207 0.67966 0.34818 0.0
C2070 C 0.92324 0.67181 0.35723 0.0
C2071 C 0.90086 0.65904 0.39163 0.0
C2072 C 0.89744 0.65391 0.41656 0.0
C2073 C 0.919 0.66471 0.38134 0.0
C2074 C 0.9118 0.6532 0.4307 0.0
C2075 C 0.92963 0.65815 0.42037 0.0
H2076 H 0.36803 0.02668 0.73811 0.0
H2077 H 0.37766 0.01413 0.66442 0.0
H2078 H 0.40065 0.00549 0.68036 0.0
H2079 H 0.41718 0.00041 0.71544 0.0
H2080 H 0.40647 0.01193 0.78913 0.0
H2081 H 0.38486 0.02213 0.77294 0.0
C2082 C 0.37531 0.02226 0.72547 0.0
C2083 C 0.37111 0.02106 0.7001 0.0
C2084 C 0.38825 0.017 0.73479 0.0
C2085 C 0.3806 0.01517 0.68404 0.0
C2086 C 0.39371 0.01017 0.69315 0.0
C2087 C 0.41001 0.00503 0.72795 0.0
C2088 C 0.41348 0.00541 0.75346 0.0
C2089 C 0.39744 0.01076 0.71853 0.0
C2090 C 0.40427 0.01171 0.76939 0.0
C2091 C 0.39183 0.01748 0.76017 0.0
H2092 H 0.97215 0.36705 0.67519 0.0
H2093 H 0.99241 0.34934 0.73801 0.0
H2094 H 0.99472 0.37548 0.76243 0.0
H2095 H 0.99052 0.40306 0.76632 0.0
H2096 H 0.97067 0.42113 0.70352 0.0
H2097 H 0.96845 0.39505 0.67892 0.0
C2098 C 0.97711 0.36892 0.6942 0.0
C2099 C 0.98208 0.3562 0.70469 0.0
C2100 C 0.97838 0.384 0.70825 0.0
C2101 C 0.98847 0.35888 0.72939 0.0
C2102 C 0.9898 0.37384 0.74343 0.0
C2103 C 0.98589 0.40142 0.74718 0.0
C2104 C 0.98073 0.41403 0.73684 0.0
C2105 C 0.98476 0.38646 0.73308 0.0
C2106 C 0.97447 0.41148 0.71209 0.0
C2107 C 0.97331 0.39663 0.69794 0.0
H2108 H 0.63424 0.60337 0.72842 0.0
H2109 H 0.63081 0.65049 0.698 0.0
H2110 H 0.59739 0.63601 0.71309 0.0
H2111 H 0.56878 0.60912 0.73394 0.0
H2112 H 0.57394 0.56328 0.76563 0.0
H2113 H 0.60713 0.57816 0.751 0.0
C2114 C 0.62618 0.61047 0.72494 0.0
C2115 C 0.63483 0.62779 0.7118 0.0
C2116 C 0.6073 0.60229 0.73392 0.0
C2117 C 0.62437 0.63704 0.70795 0.0
C2118 C 0.6053 0.62878 0.71658 0.0
C2119 C 0.57728 0.60256 0.73784 0.0
C2120 C 0.56876 0.58492 0.75041 0.0
C2121 C 0.59657 0.61132 0.7295 0.0
C2122 C 0.57997 0.57658 0.75542 0.0
C2123 C 0.59898 0.58512 0.74717 0.0
H2124 H 0.70805 0.72846 0.6593 0.0
H2125 H 0.6577 0.71055 0.70452 0.0
H2126 H 0.65208 0.73414 0.68464 0.0
H2127 H 0.66031 0.75863 0.65275 0.0
H2128 H 0.71087 0.77698 0.60803 0.0
H2129 H 0.71759 0.7545 0.62938 0.0
C2130 C 0.69596 0.72984 0.66499 0.0
C2131 C 0.68324 0.71762 0.68326 0.0
C2132 C 0.69275 0.74342 0.65343 0.0
C2133 C 0.66773 0.71972 0.69051 0.0
C2134 C 0.66442 0.73317 0.67906 0.0
C2135 C 0.67279 0.75767 0.64774 0.0
C2136 C 0.68499 0.76927 0.62875 0.0
C2137 C 0.67663 0.74484 0.66021 0.0
C2138 C 0.70131 0.76819 0.62264 0.0
C2139 C 0.70512 0.75532 0.63479 0.0
H2140 H 0.25355 0.95435 0.6887 0.0
H2141 H 0.30986 0.97588 0.65634 0.0
H2142 H 0.29764 0.94524 0.63492 0.0
H2143 H 0.26952 0.91414 0.62083 0.0
H2144 H 0.21366 0.89252 0.65482 0.0
H2145 H 0.22717 0.92132 0.68019 0.0
C2146 C 0.26324 0.95217 0.67734 0.0
C2147 C 0.28243 0.96737 0.67377 0.0
C2148 C 0.25612 0.93461 0.66507 0.0
C2149 C 0.29497 0.96434 0.65933 0.0
C2150 C 0.28795 0.94688 0.64692 0.0
C2151 C 0.26044 0.91552 0.63421 0.0
C2152 C 0.24046 0.90147 0.63533 0.0
C2153 C 0.26834 0.93215 0.64896 0.0
C2154 C 0.22894 0.90343 0.65295 0.0
C2155 C 0.23665 0.91986 0.66759 0.0
H2156 H 0.04258 0.29151 0.66903 0.0
H2157 H 0.04201 0.34284 0.65148 0.0
H2158 H 0.07514 0.35773 0.63526 0.0
H2159 H 0.10268 0.35441 0.62188 0.0
H2160 H 0.10215 0.30248 0.6395 0.0
H2161 H 0.07101 0.28955 0.65997 0.0
C2162 C 0.04977 0.30605 0.66189 0.0
C2163 C 0.0398 0.31596 0.66108 0.0
C2164 C 0.06854 0.31431 0.65242 0.0
C2165 C 0.04941 0.33491 0.65223 0.0
C2166 C 0.06828 0.34336 0.64283 0.0
C2167 C 0.09588 0.34044 0.63063 0.0
C2168 C 0.10449 0.32925 0.62884 0.0
C2169 C 0.07778 0.33297 0.64221 0.0
C2170 C 0.09558 0.31117 0.64024 0.0
C2171 C 0.07781 0.30379 0.65198 0.0
H2172 H 0.32944 0.3593 0.64098 0.0
H2173 H 0.29058 0.30066 0.66378 0.0
H2174 H 0.26254 0.30247 0.64992 0.0
H2175 H 0.24912 0.32041 0.6302 0.0
H2176 H 0.28807 0.37898 0.60733 0.0
H2177 H 0.31599 0.37757 0.62271 0.0
C2178 C 0.31484 0.3469 0.64296 0.0
C2179 C 0.31214 0.32982 0.65324 0.0
C2180 C 0.29879 0.34806 0.63502 0.0
C2181 C 0.29309 0.31397 0.65588 0.0
C2182 C 0.27704 0.31499 0.64794 0.0
C2183 C 0.26373 0.33285 0.62857 0.0
C2184 C 0.26651 0.34975 0.61756 0.0
C2185 C 0.27973 0.3319 0.63729 0.0
C2186 C 0.2855 0.36586 0.61594 0.0
C2187 C 0.30149 0.36503 0.62457 0.0
H2188 H 0.64877 0.94836 0.68174 0.0
H2189 H 0.70556 0.98997 0.65395 0.0
H2190 H 0.707 0.96448 0.63251 0.0
H2191 H 0.6917 0.93045 0.62055 0.0
H2192 H 0.63482 0.88899 0.64809 0.0
H2193 H 0.63382 0.91434 0.67053 0.0
C2194 C 0.66152 0.95188 0.6711 0.0
C2195 C 0.67702 0.9711 0.66948 0.0
C2196 C 0.6622 0.93716 0.65862 0.0
C2197 C 0.69339 0.97533 0.65552 0.0
C2198 C 0.69423 0.96075 0.64322 0.0
C2199 C 0.67918 0.92694 0.63168 0.0
C2200 C 0.66334 0.90784 0.63255 0.0
C2201 C 0.67867 0.94162 0.64451 0.0
C2202 C 0.64711 0.90359 0.64682 0.0
C2203 C 0.64656 0.91807 0.65976 0.0
H2204 H 0.02328 0.73564 0.62516 0.0
H2205 H 0.0348 0.69377 0.6566 0.0
H2206 H 0.06755 0.71094 0.63924 0.0
H2207 H 0.09335 0.73874 0.61642 0.0
H2208 H 0.08108 0.78018 0.58532 0.0
H2209 H 0.0481 0.76223 0.60132 0.0
C2210 C 0.03291 0.73021 0.62826 0.0
C2211 C 0.02665 0.71353 0.64232 0.0
C2212 C 0.05159 0.7401 0.61832 0.0
C2213 C 0.03928 0.70662 0.64591 0.0
C2214 C 0.058 0.71643 0.636 0.0
C2215 C 0.08334 0.74366 0.61295 0.0
C2216 C 0.08965 0.76084 0.59996 0.0
C2217 C 0.06436 0.73329 0.62232 0.0
C2218 C 0.07662 0.76716 0.59565 0.0
C2219 C 0.05777 0.75689 0.6047 0.0
H2220 H 0.96506 0.59663 0.66875 0.0
H2221 H 0.98882 0.63741 0.72887 0.0
H2222 H 0.99387 0.61515 0.75305 0.0
H2223 H 0.99084 0.58386 0.75777 0.0
H2224 H 0.96726 0.5429 0.69798 0.0
H2225 H 0.9627 0.56539 0.6732 0.0
C2226 C 0.97139 0.60067 0.6871 0.0
C2227 C 0.9765 0.61867 0.69693 0.0
C2228 C 0.97422 0.58774 0.70107 0.0
C2229 C 0.98469 0.62365 0.72079 0.0
C2230 C 0.98761 0.61092 0.73469 0.0
C2231 C 0.98493 0.57994 0.7392 0.0
C2232 C 0.9794 0.56174 0.72976 0.0
C2233 C 0.98236 0.59291 0.72507 0.0
C2234 C 0.97144 0.55675 0.7058 0.0
C2235 C 0.9689 0.56964 0.69158 0.0
H2236 H 0.37512 0.37416 0.69754 0.0
H2237 H 0.42643 0.37166 0.71456 0.0
H2238 H 0.44237 0.40376 0.73212 0.0
H2239 H 0.44131 0.43164 0.74472 0.0
H2240 H 0.39144 0.43604 0.7257 0.0
H2241 H 0.37514 0.40378 0.70765 0.0
C2242 C 0.38986 0.38073 0.70486 0.0
C2243 C 0.39948 0.3704 0.70479 0.0
C2244 C 0.39909 0.39937 0.71498 0.0
C2245 C 0.41861 0.37918 0.71432 0.0
C2246 C 0.42775 0.39755 0.72451 0.0
C2247 C 0.42706 0.42587 0.73614 0.0
C2248 C 0.41775 0.43646 0.73651 0.0
C2249 C 0.41806 0.40766 0.72519 0.0
C2250 C 0.39894 0.42822 0.72602 0.0
C2251 C 0.38966 0.40981 0.71547 0.0
H2252 H 0.62428 0.03576 0.69467 0.0
H2253 H 0.62724 0.98837 0.72482 0.0
H2254 H 0.59362 0.97362 0.73934 0.0
H2255 H 0.56517 0.97676 0.74806 0.0
H2256 H 0.56297 0.02448 0.71713 0.0
H2257 H 0.59457 0.03658 0.69832 0.0
C2258 C 0.61743 0.02202 0.70406 0.0
C2259 C 0.62821 0.01326 0.709 0.0
C2260 C 0.59837 0.01387 0.71251 0.0
C2261 C 0.61916 0.99535 0.72083 0.0
C2262 C 0.60003 0.98703 0.72929 0.0
C2263 C 0.57143 0.98957 0.73676 0.0
C2264 C 0.56192 0.99995 0.73449 0.0
C2265 C 0.58972 0.99652 0.72594 0.0
C2266 C 0.57022 0.01651 0.71973 0.0
C2267 C 0.58824 0.0234 0.70887 0.0
loop_
_geom_bond_atom_site_label_1
_geom_bond_atom_site_label_2
_geom_bond_distance
_geom_bond_site_symmetry_2
_ccdc_geom_bond_type
Zn0 O3 2.031 1_554 S
Zn0 O5 2.049 . S
Zn0 O10 2.067 1_554 S
Zn1 O2 1.962 1_455 S
Zn1 O4 1.986 . S
Zn1 O6 1.996 1_455 S
Zn1 O9 1.943 1_554 S
O2 Zn1 1.962 1_655 S
O2 C7 1.254 1_554 S
O3 Zn0 2.031 1_556 S
O3 C7 1.269 . S
O4 Zn1 1.986 . S
O4 C11 1.262 . S
O5 Zn0 2.049 . S
O5 C13 1.260 . S
O6 Zn1 1.996 1_655 S
O6 C13 1.257 . S
C7 O2 1.254 1_556 S
C7 O3 1.269 . S
C8 O9 1.249 . S
C8 O10 1.270 1_455 S
O9 Zn1 1.943 1_556 S
O9 C8 1.249 . S
O10 Zn0 2.067 1_556 S
O10 C8 1.270 1_655 S
C11 O4 1.262 . S
C11 O12 1.232 . S
O12 C11 1.232 . S
C13 O5 1.260 . S
C13 O6 1.257 . S
Zn14 O17 2.031 1_554 S
Zn14 O19 2.049 . S
Zn14 O24 2.067 1_554 S
Zn15 O16 1.962 . S
Zn15 O18 1.986 . S
Zn15 O20 1.996 . S
Zn15 O23 1.943 1_554 S
O16 Zn15 1.962 . S
O16 C21 1.254 1_554 S
O17 Zn14 2.031 1_556 S
O17 C21 1.269 . S
O18 Zn15 1.986 . S
O18 C25 1.262 . S
O19 Zn14 2.049 . S
O19 C27 1.260 . S
O20 Zn15 1.996 . S
O20 C27 1.257 . S
C21 O16 1.254 1_556 S
C21 O17 1.269 . S
C22 O23 1.249 . S
C22 O24 1.270 . S
O23 Zn15 1.943 1_556 S
O23 C22 1.249 . S
O24 Zn14 2.067 1_556 S
O24 C22 1.270 . S
C25 O18 1.262 . S
C25 O26 1.232 . S
O26 C25 1.232 . S
C27 O19 1.260 . S
C27 O20 1.257 . S
Zn28 O31 2.031 . S
Zn28 O33 2.049 1_554 S
Zn28 O38 2.067 . S
Zn29 O30 1.962 1_545 S
Zn29 O32 1.986 1_554 S
Zn29 O34 1.996 1_544 S
Zn29 O37 1.943 . S
O30 Zn29 1.962 1_565 S
O30 C35 1.254 . S
O31 Zn28 2.031 . S
O31 C35 1.269 . S
O32 Zn29 1.986 1_556 S
O32 C39 1.262 . S
O33 Zn28 2.049 1_556 S
O33 C41 1.260 . S
O34 Zn29 1.996 1_566 S
O34 C41 1.257 . S
C35 O30 1.254 . S
C35 O31 1.269 . S
C36 O37 1.249 . S
C36 O38 1.270 1_545 S
O37 Zn29 1.943 . S
O37 C36 1.249 . S
O38 Zn28 2.067 . S
O38 C36 1.270 1_565 S
C39 O32 1.262 . S
C39 O40 1.232 1_556 S
O40 C39 1.232 1_554 S
C41 O33 1.260 . S
C41 O34 1.257 . S
Zn42 O45 2.031 . S
Zn42 O47 2.049 1_554 S
Zn42 O52 2.067 . S
Zn43 O44 1.962 1_655 S
Zn43 O46 1.986 1_554 S
Zn43 O48 1.996 1_654 S
Zn43 O51 1.943 . S
O44 Zn43 1.962 1_455 S
O44 C49 1.254 . S
O45 Zn42 2.031 . S
O45 C49 1.269 . S
O46 Zn43 1.986 1_556 S
O46 C53 1.262 . S
O47 Zn42 2.049 1_556 S
O47 C55 1.260 . S
O48 Zn43 1.996 1_456 S
O48 C55 1.257 . S
C49 O44 1.254 . S
C49 O45 1.269 . S
C50 O51 1.249 . S
C50 O52 1.270 1_655 S
O51 Zn43 1.943 . S
O51 C50 1.249 . S
O52 Zn42 2.067 . S
O52 C50 1.270 1_455 S
C53 O46 1.262 . S
C53 O54 1.232 1_556 S
O54 C53 1.232 1_554 S
C55 O47 1.260 . S
C55 O48 1.257 . S
Zn56 O59 2.031 . S
Zn56 O61 2.049 1_554 S
Zn56 O66 2.067 . S
Zn57 O58 1.962 . S
Zn57 O60 1.986 1_554 S
Zn57 O62 1.996 1_554 S
Zn57 O65 1.943 . S
O58 Zn57 1.962 . S
O58 C63 1.254 . S
O59 Zn56 2.031 . S
O59 C63 1.269 . S
O60 Zn57 1.986 1_556 S
O60 C67 1.262 . S
O61 Zn56 2.049 1_556 S
O61 C69 1.260 . S
O62 Zn57 1.996 1_556 S
O62 C69 1.257 . S
C63 O58 1.254 . S
C63 O59 1.269 . S
C64 O65 1.249 . S
C64 O66 1.270 . S
O65 Zn57 1.943 . S
O65 C64 1.249 . S
O66 Zn56 2.067 . S
O66 C64 1.270 . S
C67 O60 1.262 . S
C67 O68 1.232 1_556 S
O68 C67 1.232 1_554 S
C69 O61 1.260 . S
C69 O62 1.257 . S
Zn70 O73 2.031 1_554 S
Zn70 O75 2.049 . S
Zn70 O80 2.067 1_554 S
Zn71 O72 1.962 1_565 S
Zn71 O74 1.986 . S
Zn71 O76 1.996 1_565 S
Zn71 O79 1.943 1_554 S
O72 Zn71 1.962 1_545 S
O72 C77 1.254 . S
O73 Zn70 2.031 1_556 S
O73 C77 1.269 1_556 S
O74 Zn71 1.986 . S
O74 C81 1.262 . S
O75 Zn70 2.049 . S
O75 C83 1.260 . S
O76 Zn71 1.996 1_545 S
O76 C83 1.257 . S
C77 O72 1.254 . S
C77 O73 1.269 1_554 S
C78 O79 1.249 . S
C78 O80 1.270 1_565 S
O79 Zn71 1.943 1_556 S
O79 C78 1.249 . S
O80 Zn70 2.067 1_556 S
O80 C78 1.270 1_545 S
C81 O74 1.262 . S
C81 O82 1.232 . S
O82 C81 1.232 . S
C83 O75 1.260 . S
C83 O76 1.257 . S
Zn84 O87 2.031 . S
Zn84 O89 2.049 . S
Zn84 O94 2.067 . S
Zn85 O86 1.962 . S
Zn85 O88 1.986 . S
Zn85 O90 1.996 . S
Zn85 O93 1.943 . S
O86 Zn85 1.962 . S
O86 C91 1.254 . S
O87 Zn84 2.031 . S
O87 C91 1.269 . S
O88 Zn85 1.986 . S
O88 C95 1.262 . S
O89 Zn84 2.049 . S
O89 C97 1.260 . S
O90 Zn85 1.996 . S
O90 C97 1.257 . S
C91 O86 1.254 . S
C91 O87 1.269 . S
C92 O93 1.249 . S
C92 O94 1.270 . S
O93 Zn85 1.943 . S
O93 C92 1.249 . S
O94 Zn84 2.067 . S
O94 C92 1.270 . S
C95 O88 1.262 . S
C95 O96 1.232 . S
O96 C95 1.232 . S
C97 O89 1.260 . S
C97 O90 1.257 . S
Zn98 O101 2.031 . S
Zn98 O103 2.049 . S
Zn98 O108 2.067 . S
Zn99 O100 1.962 . S
Zn99 O102 1.986 1_565 S
Zn99 O104 1.996 . S
Zn99 O107 1.943 . S
O100 Zn99 1.962 . S
O100 C105 1.254 . S
O101 Zn98 2.031 . S
O101 C105 1.269 . S
O102 Zn99 1.986 1_545 S
O102 C109 1.262 . S
O103 Zn98 2.049 . S
O103 C111 1.260 . S
O104 Zn99 1.996 . S
O104 C111 1.257 . S
C105 O100 1.254 . S
C105 O101 1.269 . S
C106 O107 1.249 . S
C106 O108 1.270 . S
O107 Zn99 1.943 . S
O107 C106 1.249 . S
O108 Zn98 2.067 . S
O108 C106 1.270 . S
C109 O102 1.262 . S
C109 O110 1.232 . S
O110 C109 1.232 . S
C111 O103 1.260 . S
C111 O104 1.257 . S
Zn112 O115 2.031 . S
Zn112 O117 2.049 . S
Zn112 O122 2.067 . S
Zn113 O114 1.962 1_455 S
Zn113 O116 1.986 . S
Zn113 O118 1.996 . S
Zn113 O121 1.943 . S
O114 Zn113 1.962 1_655 S
O114 C119 1.254 . S
O115 Zn112 2.031 . S
O115 C119 1.269 1_455 S
O116 Zn113 1.986 . S
O116 C123 1.262 . S
O117 Zn112 2.049 . S
O117 C125 1.260 . S
O118 Zn113 1.996 . S
O118 C125 1.257 . S
C119 O114 1.254 . S
C119 O115 1.269 1_655 S
C120 O121 1.249 . S
C120 O122 1.270 . S
O121 Zn113 1.943 . S
O121 C120 1.249 . S
O122 Zn112 2.067 . S
O122 C120 1.270 . S
C123 O116 1.262 . S
C123 O124 1.232 . S
O124 C123 1.232 . S
C125 O117 1.260 . S
C125 O118 1.257 . S
Zn126 O129 2.057 . S
Zn126 O131 2.049 . S
Zn126 O136 2.067 . S
Zn127 O128 1.962 1_565 S
Zn127 O130 1.986 . S
Zn127 O132 1.996 . S
Zn127 O135 1.943 . S
O128 Zn127 1.962 1_545 S
O128 C133 1.254 . S
O129 Zn126 2.057 . S
O129 C133 1.242 1_565 S
O130 Zn127 1.986 . S
O130 C137 1.262 . S
O131 Zn126 2.049 . S
O131 C139 1.260 . S
O132 Zn127 1.996 . S
O132 C139 1.257 . S
C133 O128 1.254 . S
C133 O129 1.242 1_545 S
C134 O135 1.249 . S
C134 O136 1.270 . S
O135 Zn127 1.943 . S
O135 C134 1.249 . S
O136 Zn126 2.067 . S
O136 C134 1.270 . S
C137 O130 1.262 . S
C137 O138 1.232 . S
O138 C137 1.232 . S
C139 O131 1.260 . S
C139 O132 1.257 . S
Zn140 O143 2.035 . S
Zn140 O145 2.049 . S
Zn140 O150 2.067 . S
Zn141 O142 1.962 1_455 S
Zn141 O144 1.986 . S
Zn141 O146 1.996 . S
Zn141 O149 1.943 . S
O142 Zn141 1.962 1_655 S
O142 C147 1.254 . S
O143 Zn140 2.035 . S
O143 C147 1.265 1_455 S
O144 Zn141 1.986 . S
O144 C151 1.262 . S
O145 Zn140 2.049 . S
O145 C153 1.260 . S
O146 Zn141 1.996 . S
O146 C153 1.257 . S
C147 O142 1.254 . S
C147 O143 1.265 1_655 S
C148 O149 1.249 . S
C148 O150 1.270 . S
O149 Zn141 1.943 . S
O149 C148 1.249 . S
O150 Zn140 2.067 . S
O150 C148 1.270 . S
C151 O144 1.262 . S
C151 O152 1.232 . S
O152 C151 1.232 . S
C153 O145 1.260 . S
C153 O146 1.257 . S
Zn154 O157 2.031 . S
Zn154 O159 2.049 . S
Zn154 O164 2.067 . S
Zn155 O156 1.962 . S
Zn155 O158 1.986 . S
Zn155 O160 1.996 . S
Zn155 O163 1.943 . S
O156 Zn155 1.962 . S
O156 C161 1.254 . S
O157 Zn154 2.031 . S
O157 C161 1.269 . S
O158 Zn155 1.986 . S
O158 C165 1.262 . S
O159 Zn154 2.049 . S
O159 C167 1.260 . S
O160 Zn155 1.996 . S
O160 C167 1.257 . S
C161 O156 1.254 . S
C161 O157 1.269 . S
C162 O163 1.249 . S
C162 O164 1.270 . S
O163 Zn155 1.943 . S
O163 C162 1.249 . S
O164 Zn154 2.067 . S
O164 C162 1.270 . S
C165 O158 1.262 . S
C165 O166 1.232 . S
O166 C165 1.232 . S
C167 O159 1.260 . S
C167 O160 1.257 . S
Zn168 O171 2.031 . S
Zn168 O173 2.049 . S
Zn168 O178 2.067 . S
Zn169 O170 1.962 1_545 S
Zn169 O172 1.986 . S
Zn169 O174 1.996 . S
Zn169 O177 1.943 . S
O170 Zn169 1.962 1_565 S
O170 C175 1.254 . S
O171 Zn168 2.031 . S
O171 C175 1.269 1_545 S
O172 Zn169 1.986 . S
O172 C179 1.262 . S
O173 Zn168 2.049 . S
O173 C181 1.260 . S
O174 Zn169 1.996 . S
O174 C181 1.257 . S
C175 O170 1.254 . S
C175 O171 1.269 1_565 S
C176 O177 1.249 . S
C176 O178 1.270 . S
O177 Zn169 1.943 . S
O177 C176 1.249 . S
O178 Zn168 2.067 . S
O178 C176 1.270 . S
C179 O172 1.262 . S
C179 O180 1.232 . S
O180 C179 1.232 . S
C181 O173 1.260 . S
C181 O174 1.257 . S
Zn182 O185 2.031 1_655 S
Zn182 O187 2.049 . S
Zn182 O192 2.067 . S
Zn183 O184 1.962 1_655 S
Zn183 O186 1.986 . S
Zn183 O188 1.996 . S
Zn183 O191 1.943 . S
O184 Zn183 1.962 1_455 S
O184 C189 1.254 . S
O185 Zn182 2.031 1_455 S
O185 C189 1.269 . S
O186 Zn183 1.986 . S
O186 C193 1.262 . S
O187 Zn182 2.049 . S
O187 C195 1.260 . S
O188 Zn183 1.996 . S
O188 C195 1.257 . S
C189 O184 1.254 . S
C189 O185 1.269 . S
C190 O191 1.249 . S
C190 O192 1.270 . S
O191 Zn183 1.943 . S
O191 C190 1.249 . S
O192 Zn182 2.067 . S
O192 C190 1.270 . S
C193 O186 1.262 . S
C193 O194 1.232 . S
O194 C193 1.232 . S
C195 O187 1.260 . S
C195 O188 1.257 . S
Zn196 O199 2.031 . S
Zn196 O201 2.049 . S
Zn196 O206 2.067 . S
Zn197 O198 1.962 . S
Zn197 O200 1.986 . S
Zn197 O202 1.996 . S
Zn197 O205 1.943 . S
O198 Zn197 1.962 . S
O198 C203 1.254 . S
O199 Zn196 2.031 . S
O199 C203 1.269 . S
O200 Zn197 1.986 . S
O200 C207 1.262 . S
O201 Zn196 2.049 . S
O201 C209 1.260 . S
O202 Zn197 1.996 . S
O202 C209 1.257 . S
C203 O198 1.254 . S
C203 O199 1.269 . S
C204 O205 1.249 . S
C204 O206 1.270 . S
O205 Zn197 1.943 . S
O205 C204 1.249 . S
O206 Zn196 2.067 . S
O206 C204 1.270 . S
C207 O200 1.262 . S
C207 O208 1.232 . S
O208 C207 1.232 . S
C209 O201 1.260 . S
C209 O202 1.257 . S
Zn210 O213 2.031 . S
Zn210 O215 2.049 . S
Zn210 O220 2.067 . S
Zn211 O212 1.962 . S
Zn211 O214 1.986 . S
Zn211 O216 1.996 . S
Zn211 O219 1.943 . S
O212 Zn211 1.962 . S
O212 C217 1.254 . S
O213 Zn210 2.031 . S
O213 C217 1.269 . S
O214 Zn211 1.986 . S
O214 C221 1.262 . S
O215 Zn210 2.049 . S
O215 C223 1.260 . S
O216 Zn211 1.996 . S
O216 C223 1.257 . S
C217 O212 1.254 . S
C217 O213 1.269 . S
C218 O219 1.249 . S
C218 O220 1.270 . S
O219 Zn211 1.943 . S
O219 C218 1.249 . S
O220 Zn210 2.067 . S
O220 C218 1.270 . S
C221 O214 1.262 . S
C221 O222 1.232 . S
O222 C221 1.232 . S
C223 O215 1.260 . S
C223 O216 1.257 . S
Zn224 O227 2.031 . S
Zn224 O229 2.049 . S
Zn224 O234 2.067 . S
Zn225 O226 1.962 . S
Zn225 O228 1.986 1_545 S
Zn225 O230 1.996 . S
Zn225 O233 1.943 . S
O226 Zn225 1.962 . S
O226 C231 1.254 . S
O227 Zn224 2.031 . S
O227 C231 1.269 . S
O228 Zn225 1.986 1_565 S
O228 C235 1.262 . S
O229 Zn224 2.049 . S
O229 C237 1.260 . S
O230 Zn225 1.996 . S
O230 C237 1.257 . S
C231 O226 1.254 . S
C231 O227 1.269 . S
C232 O233 1.249 . S
C232 O234 1.270 . S
O233 Zn225 1.943 . S
O233 C232 1.249 . S
O234 Zn224 2.067 . S
O234 C232 1.270 . S
C235 O228 1.262 . S
C235 O236 1.232 . S
O236 C235 1.232 . S
C237 O229 1.260 . S
C237 O230 1.257 . S
Zn238 O241 2.031 . S
Zn238 O243 2.049 . S
Zn238 O248 2.067 . S
Zn239 O240 1.962 1_655 S
Zn239 O242 1.986 . S
Zn239 O244 1.996 . S
Zn239 O247 1.943 . S
O240 Zn239 1.962 1_455 S
O240 C245 1.254 . S
O241 Zn238 2.031 . S
O241 C245 1.269 1_655 S
O242 Zn239 1.986 . S
O242 C249 1.262 . S
O243 Zn238 2.049 . S
O243 C251 1.260 . S
O244 Zn239 1.996 . S
O244 C251 1.257 . S
C245 O240 1.254 . S
C245 O241 1.269 1_455 S
C246 O247 1.249 . S
C246 O248 1.270 . S
O247 Zn239 1.943 . S
O247 C246 1.249 . S
O248 Zn238 2.067 . S
O248 C246 1.270 . S
C249 O242 1.262 . S
C249 O250 1.232 . S
O250 C249 1.232 . S
C251 O243 1.260 . S
C251 O244 1.257 . S
H252 C271 0.949 . S
H253 C272 0.950 . S
H254 C274 0.950 . S
H255 C275 0.950 . S
H256 C277 0.950 . S
H257 C280 0.950 . S
H258 C281 0.950 . S
H259 C283 0.951 . S
H260 C284 0.949 . S
H261 C286 0.949 . S
H262 C287 0.950 . S
H263 C289 0.950 . S
H264 C290 0.950 . S
H265 C292 0.950 . S
H266 C295 0.950 . S
H267 C296 0.950 . S
H268 C298 0.951 . S
H269 C299 0.949 . S
C270 C271 1.376 . S
C270 C275 1.386 . S
C270 C276 1.483 . S
C271 H252 0.949 . S
C271 C270 1.376 . S
C271 C272 1.397 . S
C272 H253 0.950 . S
C272 C271 1.397 . S
C272 C273 1.391 . S
C273 C272 1.391 . S
C273 C274 1.405 . S
C274 H254 0.950 . S
C274 C273 1.405 . S
C274 C275 1.367 . S
C275 H255 0.950 . S
C275 C270 1.386 . S
C275 C274 1.367 . S
C276 C270 1.483 . S
C276 C277 1.382 . S
C276 C278 1.403 . S
C277 H256 0.950 . S
C277 C276 1.382 . S
C277 C293 1.411 . S
C278 C276 1.403 . S
C278 C279 1.489 . S
C278 C292 1.411 . S
C279 C278 1.489 . S
C279 C280 1.383 . S
C279 C284 1.382 . S
C280 H257 0.950 . S
C280 C279 1.383 . S
C280 C281 1.395 . S
C281 H258 0.950 . S
C281 C280 1.395 . S
C281 C282 1.288 . S
C282 C281 1.288 . S
C282 C283 1.392 . S
C283 H259 0.951 . S
C283 C282 1.392 . S
C283 C284 1.392 . S
C284 H260 0.949 . S
C284 C279 1.382 . S
C284 C283 1.392 . S
C285 C286 1.376 . S
C285 C290 1.386 . S
C285 C291 1.483 . S
C286 H261 0.949 . S
C286 C285 1.376 . S
C286 C287 1.397 . S
C287 H262 0.950 . S
C287 C286 1.397 . S
C287 C288 1.391 . S
C288 C287 1.391 . S
C288 C289 1.405 . S
C289 H263 0.950 . S
C289 C288 1.405 . S
C289 C290 1.367 . S
C290 H264 0.950 . S
C290 C285 1.386 . S
C290 C289 1.367 . S
C291 C285 1.483 . S
C291 C292 1.382 . S
C291 C293 1.403 . S
C292 H265 0.950 . S
C292 C278 1.411 . S
C292 C291 1.382 . S
C293 C277 1.411 . S
C293 C291 1.403 . S
C293 C294 1.489 . S
C294 C293 1.489 . S
C294 C295 1.383 . S
C294 C299 1.382 . S
C295 H266 0.950 . S
C295 C294 1.383 . S
C295 C296 1.395 . S
C296 H267 0.950 . S
C296 C295 1.395 . S
C296 C297 1.288 . S
C297 C296 1.288 . S
C297 C298 1.392 . S
C298 H268 0.951 . S
C298 C297 1.392 . S
C298 C299 1.392 . S
C299 H269 0.949 . S
C299 C294 1.382 . S
C299 C298 1.392 . S
H300 C319 0.949 . S
H301 C320 0.950 . S
H302 C322 0.950 . S
H303 C323 0.950 . S
H304 C325 0.950 . S
H305 C328 0.950 . S
H306 C329 0.950 . S
H307 C331 0.951 . S
H308 C332 0.949 . S
H309 C334 0.949 . S
H310 C335 0.950 . S
H311 C337 0.950 . S
H312 C338 0.950 . S
H313 C340 0.950 . S
H314 C343 0.950 . S
H315 C344 0.950 . S
H316 C346 0.951 . S
H317 C347 0.949 . S
C318 C319 1.376 . S
C318 C323 1.386 . S
C318 C324 1.483 . S
C319 H300 0.949 . S
C319 C318 1.376 . S
C319 C320 1.397 . S
C320 H301 0.950 . S
C320 C319 1.397 . S
C320 C321 1.391 . S
C321 C320 1.391 . S
C321 C322 1.405 . S
C322 H302 0.950 . S
C322 C321 1.405 . S
C322 C323 1.367 . S
C323 H303 0.950 . S
C323 C318 1.386 . S
C323 C322 1.367 . S
C324 C318 1.483 . S
C324 C325 1.382 . S
C324 C326 1.403 . S
C325 H304 0.950 . S
C325 C324 1.382 . S
C325 C341 1.411 . S
C326 C324 1.403 . S
C326 C327 1.489 . S
C326 C340 1.411 . S
C327 C326 1.489 . S
C327 C328 1.383 . S
C327 C332 1.382 . S
C328 H305 0.950 . S
C328 C327 1.383 . S
C328 C329 1.395 . S
C329 H306 0.950 . S
C329 C328 1.395 . S
C329 C330 1.288 . S
C330 C329 1.288 . S
C330 C331 1.392 . S
C331 H307 0.951 . S
C331 C330 1.392 . S
C331 C332 1.392 . S
C332 H308 0.949 . S
C332 C327 1.382 . S
C332 C331 1.392 . S
C333 C334 1.376 . S
C333 C338 1.386 . S
C333 C339 1.483 . S
C334 H309 0.949 . S
C334 C333 1.376 . S
C334 C335 1.397 . S
C335 H310 0.950 . S
C335 C334 1.397 . S
C335 C336 1.391 . S
C336 C335 1.391 . S
C336 C337 1.405 . S
C337 H311 0.950 . S
C337 C336 1.405 . S
C337 C338 1.367 . S
C338 H312 0.950 . S
C338 C333 1.386 . S
C338 C337 1.367 . S
C339 C333 1.483 . S
C339 C340 1.382 . S
C339 C341 1.403 . S
C340 H313 0.950 . S
C340 C326 1.411 . S
C340 C339 1.382 . S
C341 C325 1.411 . S
C341 C339 1.403 . S
C341 C342 1.489 . S
C342 C341 1.489 . S
C342 C343 1.383 . S
C342 C347 1.382 . S
C343 H314 0.950 . S
C343 C342 1.383 . S
C343 C344 1.395 . S
C344 H315 0.950 . S
C344 C343 1.395 . S
C344 C345 1.288 . S
C345 C344 1.288 . S
C345 C346 1.392 . S
C346 H316 0.951 . S
C346 C345 1.392 . S
C346 C347 1.392 . S
C347 H317 0.949 . S
C347 C342 1.382 . S
C347 C346 1.392 . S
H348 C367 0.949 . S
H349 C368 0.950 . S
H350 C370 0.950 . S
H351 C371 0.950 . S
H352 C373 0.950 . S
H353 C376 0.950 . S
H354 C377 0.950 . S
H355 C379 0.951 . S
H356 C380 0.949 . S
H357 C382 0.949 . S
H358 C383 0.950 . S
H359 C385 0.950 . S
H360 C386 0.950 . S
H361 C388 0.950 . S
H362 C391 0.950 . S
H363 C392 0.950 . S
H364 C394 0.951 . S
H365 C395 0.949 . S
C366 C367 1.376 . S
C366 C371 1.386 . S
C366 C372 1.483 . S
C367 H348 0.949 . S
C367 C366 1.376 . S
C367 C368 1.397 . S
C368 H349 0.950 . S
C368 C367 1.397 . S
C368 C369 1.391 . S
C369 C368 1.391 . S
C369 C370 1.405 . S
C370 H350 0.950 . S
C370 C369 1.405 . S
C370 C371 1.367 . S
C371 H351 0.950 . S
C371 C366 1.386 . S
C371 C370 1.367 . S
C372 C366 1.483 . S
C372 C373 1.382 . S
C372 C374 1.403 . S
C373 H352 0.950 . S
C373 C372 1.382 . S
C373 C389 1.411 . S
C374 C372 1.403 . S
C374 C375 1.489 . S
C374 C388 1.411 . S
C375 C374 1.489 . S
C375 C376 1.383 . S
C375 C380 1.382 . S
C376 H353 0.950 . S
C376 C375 1.383 . S
C376 C377 1.395 . S
C377 H354 0.950 . S
C377 C376 1.395 . S
C377 C378 1.288 . S
C378 C377 1.288 . S
C378 C379 1.392 . S
C379 H355 0.951 . S
C379 C378 1.392 . S
C379 C380 1.392 . S
C380 H356 0.949 . S
C380 C375 1.382 . S
C380 C379 1.392 . S
C381 C382 1.376 . S
C381 C386 1.386 . S
C381 C387 1.483 . S
C382 H357 0.949 . S
C382 C381 1.376 . S
C382 C383 1.397 . S
C383 H358 0.950 . S
C383 C382 1.397 . S
C383 C384 1.391 . S
C384 C383 1.391 . S
C384 C385 1.405 . S
C385 H359 0.950 . S
C385 C384 1.405 . S
C385 C386 1.367 . S
C386 H360 0.950 . S
C386 C381 1.386 . S
C386 C385 1.367 . S
C387 C381 1.483 . S
C387 C388 1.382 . S
C387 C389 1.403 . S
C388 H361 0.950 . S
C388 C374 1.411 . S
C388 C387 1.382 . S
C389 C373 1.411 . S
C389 C387 1.403 . S
C389 C390 1.489 . S
C390 C389 1.489 . S
C390 C391 1.383 . S
C390 C395 1.382 . S
C391 H362 0.950 . S
C391 C390 1.383 . S
C391 C392 1.395 . S
C392 H363 0.950 . S
C392 C391 1.395 . S
C392 C393 1.288 . S
C393 C392 1.288 . S
C393 C394 1.392 . S
C394 H364 0.951 . S
C394 C393 1.392 . S
C394 C395 1.392 . S
C395 H365 0.949 . S
C395 C390 1.382 . S
C395 C394 1.392 . S
H396 C415 0.949 . S
H397 C416 0.950 . S
H398 C418 0.950 . S
H399 C419 0.950 . S
H400 C421 0.950 . S
H401 C424 0.950 . S
H402 C425 0.950 . S
H403 C427 0.951 . S
H404 C428 0.949 . S
H405 C430 0.949 . S
H406 C431 0.950 . S
H407 C433 0.950 . S
H408 C434 0.950 . S
H409 C436 0.950 . S
H410 C439 0.950 . S
H411 C440 0.950 . S
H412 C442 0.951 . S
H413 C443 0.949 . S
C414 C415 1.376 . S
C414 C419 1.386 . S
C414 C420 1.483 . S
C415 H396 0.949 . S
C415 C414 1.376 . S
C415 C416 1.397 . S
C416 H397 0.950 . S
C416 C415 1.397 . S
C416 C417 1.391 . S
C417 C416 1.391 . S
C417 C418 1.405 . S
C418 H398 0.950 . S
C418 C417 1.405 . S
C418 C419 1.367 . S
C419 H399 0.950 . S
C419 C414 1.386 . S
C419 C418 1.367 . S
C420 C414 1.483 . S
C420 C421 1.382 . S
C420 C422 1.403 . S
C421 H400 0.950 . S
C421 C420 1.382 . S
C421 C437 1.411 . S
C422 C420 1.403 . S
C422 C423 1.489 . S
C422 C436 1.411 . S
C423 C422 1.489 . S
C423 C424 1.383 . S
C423 C428 1.382 . S
C424 H401 0.950 . S
C424 C423 1.383 . S
C424 C425 1.395 . S
C425 H402 0.950 . S
C425 C424 1.395 . S
C425 C426 1.288 . S
C426 C425 1.288 . S
C426 C427 1.392 . S
C427 H403 0.951 . S
C427 C426 1.392 . S
C427 C428 1.392 . S
C428 H404 0.949 . S
C428 C423 1.382 . S
C428 C427 1.392 . S
C429 C430 1.376 . S
C429 C434 1.386 . S
C429 C435 1.483 . S
C430 H405 0.949 . S
C430 C429 1.376 . S
C430 C431 1.397 . S
C431 H406 0.950 . S
C431 C430 1.397 . S
C431 C432 1.391 . S
C432 C431 1.391 . S
C432 C433 1.405 . S
C433 H407 0.950 . S
C433 C432 1.405 . S
C433 C434 1.367 . S
C434 H408 0.950 . S
C434 C429 1.386 . S
C434 C433 1.367 . S
C435 C429 1.483 . S
C435 C436 1.382 . S
C435 C437 1.403 . S
C436 H409 0.950 . S
C436 C422 1.411 . S
C436 C435 1.382 . S
C437 C421 1.411 . S
C437 C435 1.403 . S
C437 C438 1.489 . S
C438 C437 1.489 . S
C438 C439 1.383 . S
C438 C443 1.382 . S
C439 H410 0.950 . S
C439 C438 1.383 . S
C439 C440 1.395 . S
C440 H411 0.950 . S
C440 C439 1.395 . S
C440 C441 1.288 . S
C441 C440 1.288 . S
C441 C442 1.392 . S
C442 H412 0.951 . S
C442 C441 1.392 . S
C442 C443 1.392 . S
C443 H413 0.949 . S
C443 C438 1.382 . S
C443 C442 1.392 . S
H444 C463 0.949 . S
H445 C464 0.950 . S
H446 C466 0.950 . S
H447 C467 0.950 . S
H448 C469 0.950 . S
H449 C472 0.950 . S
H450 C473 0.950 . S
H451 C475 0.951 . S
H452 C476 0.949 . S
H453 C478 0.949 . S
H454 C479 0.950 . S
H455 C481 0.950 . S
H456 C482 0.950 . S
H457 C484 0.950 . S
H458 C487 0.950 . S
H459 C488 0.950 . S
H460 C490 0.951 . S
H461 C491 0.949 . S
C462 C463 1.376 . S
C462 C467 1.386 . S
C462 C468 1.483 . S
C463 H444 0.949 . S
C463 C462 1.376 . S
C463 C464 1.397 . S
C464 H445 0.950 . S
C464 C463 1.397 . S
C464 C465 1.391 . S
C465 C464 1.391 . S
C465 C466 1.405 . S
C466 H446 0.950 . S
C466 C465 1.405 . S
C466 C467 1.367 . S
C467 H447 0.950 . S
C467 C462 1.386 . S
C467 C466 1.367 . S
C468 C462 1.483 . S
C468 C469 1.382 . S
C468 C470 1.403 . S
C469 H448 0.950 . S
C469 C468 1.382 . S
C469 C485 1.411 . S
C470 C468 1.403 . S
C470 C471 1.489 . S
C470 C484 1.411 . S
C471 C470 1.489 . S
C471 C472 1.383 . S
C471 C476 1.382 . S
C472 H449 0.950 . S
C472 C471 1.383 . S
C472 C473 1.395 . S
C473 H450 0.950 . S
C473 C472 1.395 . S
C473 C474 1.288 . S
C474 C473 1.288 . S
C474 C475 1.392 . S
C475 H451 0.951 . S
C475 C474 1.392 . S
C475 C476 1.392 . S
C476 H452 0.949 . S
C476 C471 1.382 . S
C476 C475 1.392 . S
C477 C478 1.376 . S
C477 C482 1.386 . S
C477 C483 1.483 . S
C478 H453 0.949 . S
C478 C477 1.376 . S
C478 C479 1.397 . S
C479 H454 0.950 . S
C479 C478 1.397 . S
C479 C480 1.391 . S
C480 C479 1.391 . S
C480 C481 1.405 . S
C481 H455 0.950 . S
C481 C480 1.405 . S
C481 C482 1.367 . S
C482 H456 0.950 . S
C482 C477 1.386 . S
C482 C481 1.367 . S
C483 C477 1.483 . S
C483 C484 1.382 . S
C483 C485 1.403 . S
C484 H457 0.950 . S
C484 C470 1.411 . S
C484 C483 1.382 . S
C485 C469 1.411 . S
C485 C483 1.403 . S
C485 C486 1.489 . S
C486 C485 1.489 . S
C486 C487 1.383 . S
C486 C491 1.382 . S
C487 H458 0.950 . S
C487 C486 1.383 . S
C487 C488 1.395 . S
C488 H459 0.950 . S
C488 C487 1.395 . S
C488 C489 1.288 . S
C489 C488 1.288 . S
C489 C490 1.392 . S
C490 H460 0.951 . S
C490 C489 1.392 . S
C490 C491 1.392 . S
C491 H461 0.949 . S
C491 C486 1.382 . S
C491 C490 1.392 . S
H492 C511 0.949 . S
H493 C512 0.950 . S
H494 C514 0.950 . S
H495 C515 0.950 . S
H496 C517 0.950 . S
H497 C520 0.950 . S
H498 C521 0.950 . S
H499 C523 0.951 . S
H500 C524 0.949 . S
H501 C526 0.949 . S
H502 C527 0.950 . S
H503 C529 0.950 . S
H504 C530 0.950 . S
H505 C532 0.950 . S
H506 C535 0.950 . S
H507 C536 0.950 . S
H508 C538 0.951 . S
H509 C539 0.949 . S
C510 C511 1.376 . S
C510 C515 1.386 . S
C510 C516 1.483 . S
C511 H492 0.949 . S
C511 C510 1.376 . S
C511 C512 1.397 . S
C512 H493 0.950 . S
C512 C511 1.397 . S
C512 C513 1.391 . S
C513 C512 1.391 . S
C513 C514 1.405 . S
C514 H494 0.950 . S
C514 C513 1.405 . S
C514 C515 1.367 . S
C515 H495 0.950 . S
C515 C510 1.386 . S
C515 C514 1.367 . S
C516 C510 1.483 . S
C516 C517 1.382 . S
C516 C518 1.403 . S
C517 H496 0.950 . S
C517 C516 1.382 . S
C517 C533 1.411 . S
C518 C516 1.403 . S
C518 C519 1.489 . S
C518 C532 1.411 . S
C519 C518 1.489 . S
C519 C520 1.383 . S
C519 C524 1.382 . S
C520 H497 0.950 . S
C520 C519 1.383 . S
C520 C521 1.395 . S
C521 H498 0.950 . S
C521 C520 1.395 . S
C521 C522 1.288 . S
C522 C521 1.288 . S
C522 C523 1.392 . S
C523 H499 0.951 . S
C523 C522 1.392 . S
C523 C524 1.392 . S
C524 H500 0.949 . S
C524 C519 1.382 . S
C524 C523 1.392 . S
C525 C526 1.376 . S
C525 C530 1.386 . S
C525 C531 1.483 . S
C526 H501 0.949 . S
C526 C525 1.376 . S
C526 C527 1.397 . S
C527 H502 0.950 . S
C527 C526 1.397 . S
C527 C528 1.391 . S
C528 C527 1.391 . S
C528 C529 1.405 . S
C529 H503 0.950 . S
C529 C528 1.405 . S
C529 C530 1.367 . S
C530 H504 0.950 . S
C530 C525 1.386 . S
C530 C529 1.367 . S
C531 C525 1.483 . S
C531 C532 1.382 . S
C531 C533 1.403 . S
C532 H505 0.950 . S
C532 C518 1.411 . S
C532 C531 1.382 . S
C533 C517 1.411 . S
C533 C531 1.403 . S
C533 C534 1.489 . S
C534 C533 1.489 . S
C534 C535 1.383 . S
C534 C539 1.382 . S
C535 H506 0.950 . S
C535 C534 1.383 . S
C535 C536 1.395 . S
C536 H507 0.950 . S
C536 C535 1.395 . S
C536 C537 1.288 . S
C537 C536 1.288 . S
C537 C538 1.392 . S
C538 H508 0.951 . S
C538 C537 1.392 . S
C538 C539 1.392 . S
C539 H509 0.949 . S
C539 C534 1.382 . S
C539 C538 1.392 . S
H540 C559 0.949 . S
H541 C560 0.950 . S
H542 C562 0.950 . S
H543 C563 0.950 . S
H544 C565 0.950 . S
H545 C568 0.950 . S
H546 C569 0.950 . S
H547 C571 0.951 . S
H548 C572 0.949 . S
H549 C574 0.949 . S
H550 C575 0.950 . S
H551 C577 0.950 . S
H552 C578 0.950 . S
H553 C580 0.950 . S
H554 C583 0.950 . S
H555 C584 0.950 . S
H556 C586 0.951 . S
H557 C587 0.949 . S
C558 C559 1.376 . S
C558 C563 1.386 . S
C558 C564 1.483 . S
C559 H540 0.949 . S
C559 C558 1.376 . S
C559 C560 1.397 . S
C560 H541 0.950 . S
C560 C559 1.397 . S
C560 C561 1.391 . S
C561 C560 1.391 . S
C561 C562 1.405 . S
C562 H542 0.950 . S
C562 C561 1.405 . S
C562 C563 1.367 . S
C563 H543 0.950 . S
C563 C558 1.386 . S
C563 C562 1.367 . S
C564 C558 1.483 . S
C564 C565 1.382 . S
C564 C566 1.403 . S
C565 H544 0.950 . S
C565 C564 1.382 . S
C565 C581 1.411 . S
C566 C564 1.403 . S
C566 C567 1.489 . S
C566 C580 1.411 . S
C567 C566 1.489 . S
C567 C568 1.383 . S
C567 C572 1.382 . S
C568 H545 0.950 . S
C568 C567 1.383 . S
C568 C569 1.395 . S
C569 H546 0.950 . S
C569 C568 1.395 . S
C569 C570 1.288 . S
C570 C569 1.288 . S
C570 C571 1.392 . S
C571 H547 0.951 . S
C571 C570 1.392 . S
C571 C572 1.392 . S
C572 H548 0.949 . S
C572 C567 1.382 . S
C572 C571 1.392 . S
C573 C574 1.376 . S
C573 C578 1.386 . S
C573 C579 1.483 . S
C574 H549 0.949 . S
C574 C573 1.376 . S
C574 C575 1.397 . S
C575 H550 0.950 . S
C575 C574 1.397 . S
C575 C576 1.391 . S
C576 C575 1.391 . S
C576 C577 1.405 . S
C577 H551 0.950 . S
C577 C576 1.405 . S
C577 C578 1.367 . S
C578 H552 0.950 . S
C578 C573 1.386 . S
C578 C577 1.367 . S
C579 C573 1.483 . S
C579 C580 1.382 . S
C579 C581 1.403 . S
C580 H553 0.950 . S
C580 C566 1.411 . S
C580 C579 1.382 . S
C581 C565 1.411 . S
C581 C579 1.403 . S
C581 C582 1.489 . S
C582 C581 1.489 . S
C582 C583 1.383 . S
C582 C587 1.382 . S
C583 H554 0.950 . S
C583 C582 1.383 . S
C583 C584 1.395 . S
C584 H555 0.950 . S
C584 C583 1.395 . S
C584 C585 1.288 . S
C585 C584 1.288 . S
C585 C586 1.392 . S
C586 H556 0.951 . S
C586 C585 1.392 . S
C586 C587 1.392 . S
C587 H557 0.949 . S
C587 C582 1.382 . S
C587 C586 1.392 . S
H588 C607 0.949 . S
H589 C608 0.950 . S
H590 C610 0.950 . S
H591 C611 0.950 . S
H592 C613 0.950 . S
H593 C616 0.950 . S
H594 C617 0.950 . S
H595 C619 0.951 . S
H596 C620 0.949 . S
H597 C622 0.949 . S
H598 C623 0.950 . S
H599 C625 0.950 . S
H600 C626 0.950 . S
H601 C628 0.950 . S
H602 C631 0.950 . S
H603 C632 0.950 . S
H604 C634 0.951 . S
H605 C635 0.949 . S
C606 C607 1.376 . S
C606 C611 1.386 . S
C606 C612 1.483 . S
C607 H588 0.949 . S
C607 C606 1.376 . S
C607 C608 1.397 . S
C608 H589 0.950 . S
C608 C607 1.397 . S
C608 C609 1.391 . S
C609 C608 1.391 . S
C609 C610 1.405 . S
C610 H590 0.950 . S
C610 C609 1.405 . S
C610 C611 1.367 . S
C611 H591 0.950 . S
C611 C606 1.386 . S
C611 C610 1.367 . S
C612 C606 1.483 . S
C612 C613 1.382 . S
C612 C614 1.403 . S
C613 H592 0.950 . S
C613 C612 1.382 . S
C613 C629 1.411 . S
C614 C612 1.403 . S
C614 C615 1.489 . S
C614 C628 1.411 . S
C615 C614 1.489 . S
C615 C616 1.383 . S
C615 C620 1.382 . S
C616 H593 0.950 . S
C616 C615 1.383 . S
C616 C617 1.395 . S
C617 H594 0.950 . S
C617 C616 1.395 . S
C617 C618 1.288 . S
C618 C617 1.288 . S
C618 C619 1.392 . S
C619 H595 0.951 . S
C619 C618 1.392 . S
C619 C620 1.392 . S
C620 H596 0.949 . S
C620 C615 1.382 . S
C620 C619 1.392 . S
C621 C622 1.376 . S
C621 C626 1.386 . S
C621 C627 1.483 . S
C622 H597 0.949 . S
C622 C621 1.376 . S
C622 C623 1.397 . S
C623 H598 0.950 . S
C623 C622 1.397 . S
C623 C624 1.391 . S
C624 C623 1.391 . S
C624 C625 1.405 . S
C625 H599 0.950 . S
C625 C624 1.405 . S
C625 C626 1.367 . S
C626 H600 0.950 . S
C626 C621 1.386 . S
C626 C625 1.367 . S
C627 C621 1.483 . S
C627 C628 1.382 . S
C627 C629 1.403 . S
C628 H601 0.950 . S
C628 C614 1.411 . S
C628 C627 1.382 . S
C629 C613 1.411 . S
C629 C627 1.403 . S
C629 C630 1.489 . S
C630 C629 1.489 . S
C630 C631 1.383 . S
C630 C635 1.382 . S
C631 H602 0.950 . S
C631 C630 1.383 . S
C631 C632 1.395 . S
C632 H603 0.950 . S
C632 C631 1.395 . S
C632 C633 1.288 . S
C633 C632 1.288 . S
C633 C634 1.392 . S
C634 H604 0.951 . S
C634 C633 1.392 . S
C634 C635 1.392 . S
C635 H605 0.949 . S
C635 C630 1.382 . S
C635 C634 1.392 . S
H636 C655 0.949 . S
H637 C656 0.950 . S
H638 C658 0.950 . S
H639 C659 0.950 . S
H640 C661 0.950 . S
H641 C664 0.950 . S
H642 C665 0.950 . S
H643 C667 0.951 . S
H644 C668 0.949 . S
H645 C670 0.949 . S
H646 C671 0.950 . S
H647 C673 0.950 . S
H648 C674 0.950 . S
H649 C676 0.950 . S
H650 C679 0.950 . S
H651 C680 0.950 . S
H652 C682 0.951 . S
H653 C683 0.949 . S
C654 C655 1.376 . S
C654 C659 1.386 . S
C654 C660 1.483 . S
C655 H636 0.949 . S
C655 C654 1.376 . S
C655 C656 1.397 . S
C656 H637 0.950 . S
C656 C655 1.397 . S
C656 C657 1.391 . S
C657 C656 1.391 . S
C657 C658 1.405 . S
C658 H638 0.950 . S
C658 C657 1.405 . S
C658 C659 1.367 . S
C659 H639 0.950 . S
C659 C654 1.386 . S
C659 C658 1.367 . S
C660 C654 1.483 . S
C660 C661 1.382 . S
C660 C662 1.403 . S
C661 H640 0.950 . S
C661 C660 1.382 . S
C661 C677 1.411 . S
C662 C660 1.403 . S
C662 C663 1.489 . S
C662 C676 1.411 . S
C663 C662 1.489 . S
C663 C664 1.383 . S
C663 C668 1.382 . S
C664 H641 0.950 . S
C664 C663 1.383 . S
C664 C665 1.395 . S
C665 H642 0.950 . S
C665 C664 1.395 . S
C665 C666 1.288 . S
C666 C665 1.288 . S
C666 C667 1.392 . S
C667 H643 0.951 . S
C667 C666 1.392 . S
C667 C668 1.392 . S
C668 H644 0.949 . S
C668 C663 1.382 . S
C668 C667 1.392 . S
C669 C670 1.376 . S
C669 C674 1.386 . S
C669 C675 1.483 . S
C670 H645 0.949 . S
C670 C669 1.376 . S
C670 C671 1.397 . S
C671 H646 0.950 . S
C671 C670 1.397 . S
C671 C672 1.391 . S
C672 C671 1.391 . S
C672 C673 1.405 . S
C673 H647 0.950 . S
C673 C672 1.405 . S
C673 C674 1.367 . S
C674 H648 0.950 . S
C674 C669 1.386 . S
C674 C673 1.367 . S
C675 C669 1.483 . S
C675 C676 1.382 . S
C675 C677 1.403 . S
C676 H649 0.950 . S
C676 C662 1.411 . S
C676 C675 1.382 . S
C677 C661 1.411 . S
C677 C675 1.403 . S
C677 C678 1.489 . S
C678 C677 1.489 . S
C678 C679 1.383 . S
C678 C683 1.382 . S
C679 H650 0.950 . S
C679 C678 1.383 . S
C679 C680 1.395 . S
C680 H651 0.950 . S
C680 C679 1.395 . S
C680 C681 1.288 . S
C681 C680 1.288 . S
C681 C682 1.392 . S
C682 H652 0.951 . S
C682 C681 1.392 . S
C682 C683 1.392 . S
C683 H653 0.949 . S
C683 C678 1.382 . S
C683 C682 1.392 . S
H684 C703 0.949 . S
H685 C704 0.950 . S
H686 C706 0.950 . S
H687 C707 0.950 . S
H688 C709 0.950 . S
H689 C712 0.950 . S
H690 C713 0.950 . S
H691 C715 0.951 . S
H692 C716 0.949 . S
H693 C718 0.949 . S
H694 C719 0.950 . S
H695 C721 0.950 . S
H696 C722 0.950 . S
H697 C724 0.950 . S
H698 C727 0.950 . S
H699 C728 0.950 . S
H700 C730 0.951 . S
H701 C731 0.949 . S
C702 C703 1.376 . S
C702 C707 1.386 1_655 S
C702 C708 1.483 . S
C703 H684 0.949 . S
C703 C702 1.376 . S
C703 C704 1.397 . S
C704 H685 0.950 . S
C704 C703 1.397 . S
C704 C705 1.391 . S
C705 C704 1.391 . S
C705 C706 1.405 1_655 S
C706 H686 0.950 . S
C706 C705 1.405 1_455 S
C706 C707 1.367 . S
C707 H687 0.950 . S
C707 C702 1.386 1_455 S
C707 C706 1.367 . S
C708 C702 1.483 . S
C708 C709 1.382 . S
C708 C710 1.403 1_655 S
C709 H688 0.950 . S
C709 C708 1.382 . S
C709 C725 1.411 . S
C710 C708 1.403 1_455 S
C710 C711 1.489 . S
C710 C724 1.411 . S
C711 C710 1.489 . S
C711 C712 1.383 1_455 S
C711 C716 1.382 . S
C712 H689 0.950 . S
C712 C711 1.383 1_655 S
C712 C713 1.395 . S
C713 H690 0.950 . S
C713 C712 1.395 . S
C713 C714 1.288 1_655 S
C714 C713 1.288 1_455 S
C714 C715 1.392 . S
C715 H691 0.951 . S
C715 C714 1.392 . S
C715 C716 1.392 . S
C716 H692 0.949 . S
C716 C711 1.382 . S
C716 C715 1.392 . S
C717 C718 1.376 . S
C717 C722 1.386 1_455 S
C717 C723 1.483 . S
C718 H693 0.949 . S
C718 C717 1.376 . S
C718 C719 1.397 . S
C719 H694 0.950 . S
C719 C718 1.397 . S
C719 C720 1.391 . S
C720 C719 1.391 . S
C720 C721 1.405 1_455 S
C721 H695 0.950 . S
C721 C720 1.405 1_655 S
C721 C722 1.367 . S
C722 H696 0.950 . S
C722 C717 1.386 1_655 S
C722 C721 1.367 . S
C723 C717 1.483 . S
C723 C724 1.382 . S
C723 C725 1.403 1_455 S
C724 H697 0.950 . S
C724 C710 1.411 . S
C724 C723 1.382 . S
C725 C709 1.411 . S
C725 C723 1.403 1_655 S
C725 C726 1.489 . S
C726 C725 1.489 . S
C726 C727 1.383 1_655 S
C726 C731 1.382 . S
C727 H698 0.950 . S
C727 C726 1.383 1_455 S
C727 C728 1.395 . S
C728 H699 0.950 . S
C728 C727 1.395 . S
C728 C729 1.288 1_455 S
C729 C728 1.288 1_655 S
C729 C730 1.392 . S
C730 H700 0.951 . S
C730 C729 1.392 . S
C730 C731 1.392 . S
C731 H701 0.949 . S
C731 C726 1.382 . S
C731 C730 1.392 . S
H732 C751 0.949 . S
H733 C752 0.950 . S
H734 C754 0.950 . S
H735 C755 0.950 . S
H736 C757 0.950 . S
H737 C760 0.950 . S
H738 C761 0.950 . S
H739 C763 0.951 . S
H740 C764 0.949 . S
H741 C766 0.949 . S
H742 C767 0.950 . S
H743 C769 0.950 . S
H744 C770 0.950 . S
H745 C772 0.950 . S
H746 C775 0.950 . S
H747 C776 0.950 . S
H748 C778 0.951 . S
H749 C779 0.949 . S
C750 C751 1.376 . S
C750 C755 1.386 . S
C750 C756 1.483 . S
C751 H732 0.949 . S
C751 C750 1.376 . S
C751 C752 1.397 . S
C752 H733 0.950 . S
C752 C751 1.397 . S
C752 C753 1.391 . S
C753 C752 1.391 . S
C753 C754 1.405 . S
C754 H734 0.950 . S
C754 C753 1.405 . S
C754 C755 1.367 . S
C755 H735 0.950 . S
C755 C750 1.386 . S
C755 C754 1.367 . S
C756 C750 1.483 . S
C756 C757 1.382 . S
C756 C758 1.403 . S
C757 H736 0.950 . S
C757 C756 1.382 . S
C757 C773 1.411 . S
C758 C756 1.403 . S
C758 C759 1.489 . S
C758 C772 1.411 . S
C759 C758 1.489 . S
C759 C760 1.383 . S
C759 C764 1.382 . S
C760 H737 0.950 . S
C760 C759 1.383 . S
C760 C761 1.395 . S
C761 H738 0.950 . S
C761 C760 1.395 . S
C761 C762 1.288 . S
C762 C761 1.288 . S
C762 C763 1.392 . S
C763 H739 0.951 . S
C763 C762 1.392 . S
C763 C764 1.392 . S
C764 H740 0.949 . S
C764 C759 1.382 . S
C764 C763 1.392 . S
C765 C766 1.376 . S
C765 C770 1.386 . S
C765 C771 1.483 . S
C766 H741 0.949 . S
C766 C765 1.376 . S
C766 C767 1.397 . S
C767 H742 0.950 . S
C767 C766 1.397 . S
C767 C768 1.391 . S
C768 C767 1.391 . S
C768 C769 1.405 . S
C769 H743 0.950 . S
C769 C768 1.405 . S
C769 C770 1.367 . S
C770 H744 0.950 . S
C770 C765 1.386 . S
C770 C769 1.367 . S
C771 C765 1.483 . S
C771 C772 1.382 . S
C771 C773 1.403 . S
C772 H745 0.950 . S
C772 C758 1.411 . S
C772 C771 1.382 . S
C773 C757 1.411 . S
C773 C771 1.403 . S
C773 C774 1.489 . S
C774 C773 1.489 . S
C774 C775 1.383 . S
C774 C779 1.382 . S
C775 H746 0.950 . S
C775 C774 1.383 . S
C775 C776 1.395 . S
C776 H747 0.950 . S
C776 C775 1.395 . S
C776 C777 1.288 . S
C777 C776 1.288 . S
C777 C778 1.392 . S
C778 H748 0.951 . S
C778 C777 1.392 . S
C778 C779 1.392 . S
C779 H749 0.949 . S
C779 C774 1.382 . S
C779 C778 1.392 . S
H780 C799 0.949 . S
H781 C800 0.950 . S
H782 C802 0.950 . S
H783 C803 0.950 . S
H784 C805 0.950 . S
H785 C808 0.950 . S
H786 C809 0.950 . S
H787 C811 0.951 . S
H788 C812 0.949 . S
H789 C814 0.949 . S
H790 C815 0.950 . S
H791 C817 0.950 . S
H792 C818 0.950 . S
H793 C820 0.950 . S
H794 C823 0.950 . S
H795 C824 0.950 . S
H796 C826 0.951 . S
H797 C827 0.949 . S
C798 C799 1.376 . S
C798 C803 1.386 1_545 S
C798 C804 1.483 . S
C799 H780 0.949 . S
C799 C798 1.376 . S
C799 C800 1.397 . S
C800 H781 0.950 . S
C800 C799 1.397 . S
C800 C801 1.391 . S
C801 C800 1.391 . S
C801 C802 1.405 1_545 S
C802 H782 0.950 . S
C802 C801 1.405 1_565 S
C802 C803 1.367 . S
C803 H783 0.950 . S
C803 C798 1.386 1_565 S
C803 C802 1.367 . S
C804 C798 1.483 . S
C804 C805 1.382 . S
C804 C806 1.403 1_545 S
C805 H784 0.950 . S
C805 C804 1.382 . S
C805 C821 1.411 . S
C806 C804 1.403 1_565 S
C806 C807 1.489 . S
C806 C820 1.411 . S
C807 C806 1.489 . S
C807 C808 1.383 1_565 S
C807 C812 1.382 . S
C808 H785 0.950 . S
C808 C807 1.383 1_545 S
C808 C809 1.395 . S
C809 H786 0.950 . S
C809 C808 1.395 . S
C809 C810 1.288 1_545 S
C810 C809 1.288 1_565 S
C810 C811 1.392 . S
C811 H787 0.951 . S
C811 C810 1.392 . S
C811 C812 1.392 . S
C812 H788 0.949 . S
C812 C807 1.382 . S
C812 C811 1.392 . S
C813 C814 1.376 . S
C813 C818 1.386 1_565 S
C813 C819 1.483 . S
C814 H789 0.949 . S
C814 C813 1.376 . S
C814 C815 1.397 . S
C815 H790 0.950 . S
C815 C814 1.397 . S
C815 C816 1.391 . S
C816 C815 1.391 . S
C816 C817 1.405 1_565 S
C817 H791 0.950 . S
C817 C816 1.405 1_545 S
C817 C818 1.367 . S
C818 H792 0.950 . S
C818 C813 1.386 1_545 S
C818 C817 1.367 . S
C819 C813 1.483 . S
C819 C820 1.382 . S
C819 C821 1.403 1_565 S
C820 H793 0.950 . S
C820 C806 1.411 . S
C820 C819 1.382 . S
C821 C805 1.411 . S
C821 C819 1.403 1_545 S
C821 C822 1.489 . S
C822 C821 1.489 . S
C822 C823 1.383 1_545 S
C822 C827 1.382 . S
C823 H794 0.950 . S
C823 C822 1.383 1_565 S
C823 C824 1.395 . S
C824 H795 0.950 . S
C824 C823 1.395 . S
C824 C825 1.288 1_565 S
C825 C824 1.288 1_545 S
C825 C826 1.392 . S
C826 H796 0.951 . S
C826 C825 1.392 . S
C826 C827 1.392 . S
C827 H797 0.949 . S
C827 C822 1.382 . S
C827 C826 1.392 . S
H828 C847 0.949 . S
H829 C848 0.950 . S
H830 C850 0.950 . S
H831 C851 0.950 . S
H832 C853 0.950 . S
H833 C856 0.950 . S
H834 C857 0.950 . S
H835 C859 0.951 . S
H836 C860 0.949 . S
H837 C862 0.949 . S
H838 C863 0.950 . S
H839 C865 0.950 . S
H840 C866 0.950 . S
H841 C868 0.950 . S
H842 C871 0.950 . S
H843 C872 0.950 . S
H844 C874 0.951 . S
H845 C875 0.949 . S
C846 C847 1.410 . S
C846 C851 1.372 1_545 S
C846 C852 1.464 . S
C847 H828 0.949 . S
C847 C846 1.410 . S
C847 C848 1.397 . S
C848 H829 0.950 . S
C848 C847 1.397 . S
C848 C849 1.391 1_545 S
C849 C848 1.391 1_565 S
C849 C850 1.405 . S
C850 H830 0.950 . S
C850 C849 1.405 . S
C850 C851 1.367 . S
C851 H831 0.950 . S
C851 C846 1.372 1_565 S
C851 C850 1.367 . S
C852 C846 1.464 . S
C852 C853 1.382 . S
C852 C854 1.400 1_545 S
C853 H832 0.950 . S
C853 C852 1.382 . S
C853 C869 1.438 . S
C854 C852 1.400 1_565 S
C854 C855 1.476 . S
C854 C868 1.429 . S
C855 C854 1.476 . S
C855 C856 1.379 1_565 S
C855 C860 1.383 . S
C856 H833 0.950 . S
C856 C855 1.379 1_545 S
C856 C857 1.395 . S
C857 H834 0.950 . S
C857 C856 1.395 . S
C857 C858 1.288 . S
C858 C857 1.288 . S
C858 C859 1.392 1_545 S
C859 H835 0.951 . S
C859 C858 1.392 1_565 S
C859 C860 1.392 . S
C860 H836 0.949 . S
C860 C855 1.383 . S
C860 C859 1.392 . S
C861 C862 1.398 . S
C861 C866 1.377 1_565 S
C861 C867 1.498 . S
C862 H837 0.949 . S
C862 C861 1.398 . S
C862 C863 1.397 . S
C863 H838 0.950 . S
C863 C862 1.397 . S
C863 C864 1.391 1_565 S
C864 C863 1.391 1_545 S
C864 C865 1.405 . S
C865 H839 0.950 . S
C865 C864 1.405 . S
C865 C866 1.367 . S
C866 H840 0.950 . S
C866 C861 1.377 1_545 S
C866 C865 1.367 . S
C867 C861 1.498 . S
C867 C868 1.356 . S
C867 C869 1.398 1_565 S
C868 H841 0.950 . S
C868 C854 1.429 . S
C868 C867 1.356 . S
C869 C853 1.438 . S
C869 C867 1.398 1_545 S
C869 C870 1.476 . S
C870 C869 1.476 . S
C870 C871 1.363 1_545 S
C870 C875 1.392 . S
C871 H842 0.950 . S
C871 C870 1.363 1_565 S
C871 C872 1.395 . S
C872 H843 0.950 . S
C872 C871 1.395 . S
C872 C873 1.288 . S
C873 C872 1.288 . S
C873 C874 1.392 1_565 S
C874 H844 0.951 . S
C874 C873 1.392 1_545 S
C874 C875 1.392 . S
C875 H845 0.949 . S
C875 C870 1.392 . S
C875 C874 1.392 . S
H876 C895 0.949 . S
H877 C896 0.950 . S
H878 C898 0.950 . S
H879 C899 0.950 . S
H880 C901 0.950 . S
H881 C904 0.950 . S
H882 C905 0.950 . S
H883 C907 0.951 . S
H884 C908 0.949 . S
H885 C910 0.949 . S
H886 C911 0.950 . S
H887 C913 0.950 . S
H888 C914 0.950 . S
H889 C916 0.950 . S
H890 C919 0.950 . S
H891 C920 0.950 . S
H892 C922 0.951 . S
H893 C923 0.949 . S
C894 C895 1.376 . S
C894 C899 1.386 1_455 S
C894 C900 1.483 . S
C895 H876 0.949 . S
C895 C894 1.376 . S
C895 C896 1.397 . S
C896 H877 0.950 . S
C896 C895 1.397 . S
C896 C897 1.391 . S
C897 C896 1.391 . S
C897 C898 1.405 1_455 S
C898 H878 0.950 . S
C898 C897 1.405 1_655 S
C898 C899 1.367 . S
C899 H879 0.950 . S
C899 C894 1.386 1_655 S
C899 C898 1.367 . S
C900 C894 1.483 . S
C900 C901 1.382 . S
C900 C902 1.403 1_455 S
C901 H880 0.950 . S
C901 C900 1.382 . S
C901 C917 1.411 . S
C902 C900 1.403 1_655 S
C902 C903 1.489 . S
C902 C916 1.411 . S
C903 C902 1.489 . S
C903 C904 1.383 1_655 S
C903 C908 1.382 . S
C904 H881 0.950 . S
C904 C903 1.383 1_455 S
C904 C905 1.395 . S
C905 H882 0.950 . S
C905 C904 1.395 . S
C905 C906 1.288 1_455 S
C906 C905 1.288 1_655 S
C906 C907 1.392 . S
C907 H883 0.951 . S
C907 C906 1.392 . S
C907 C908 1.392 . S
C908 H884 0.949 . S
C908 C903 1.382 . S
C908 C907 1.392 . S
C909 C910 1.376 . S
C909 C914 1.386 1_655 S
C909 C915 1.483 . S
C910 H885 0.949 . S
C910 C909 1.376 . S
C910 C911 1.397 . S
C911 H886 0.950 . S
C911 C910 1.397 . S
C911 C912 1.391 . S
C912 C911 1.391 . S
C912 C913 1.405 1_655 S
C913 H887 0.950 . S
C913 C912 1.405 1_455 S
C913 C914 1.367 . S
C914 H888 0.950 . S
C914 C909 1.386 1_455 S
C914 C913 1.367 . S
C915 C909 1.483 . S
C915 C916 1.382 . S
C915 C917 1.403 1_655 S
C916 H889 0.950 . S
C916 C902 1.411 . S
C916 C915 1.382 . S
C917 C901 1.411 . S
C917 C915 1.403 1_455 S
C917 C918 1.489 . S
C918 C917 1.489 . S
C918 C919 1.383 1_455 S
C918 C923 1.382 . S
C919 H890 0.950 . S
C919 C918 1.383 1_655 S
C919 C920 1.395 . S
C920 H891 0.950 . S
C920 C919 1.395 . S
C920 C921 1.288 1_655 S
C921 C920 1.288 1_455 S
C921 C922 1.392 . S
C922 H892 0.951 . S
C922 C921 1.392 . S
C922 C923 1.392 . S
C923 H893 0.949 . S
C923 C918 1.382 . S
C923 C922 1.392 . S
H924 C943 0.949 . S
H925 C944 0.950 . S
H926 C946 0.950 . S
H927 C947 0.950 . S
H928 C949 0.950 . S
H929 C952 0.950 . S
H930 C953 0.950 . S
H931 C955 0.951 . S
H932 C956 0.949 . S
H933 C958 0.949 . S
H934 C959 0.950 . S
H935 C961 0.950 . S
H936 C962 0.950 . S
H937 C964 0.950 . S
H938 C967 0.950 . S
H939 C968 0.950 . S
H940 C970 0.951 . S
H941 C971 0.949 . S
C942 C943 1.376 . S
C942 C947 1.386 . S
C942 C948 1.483 . S
C943 H924 0.949 . S
C943 C942 1.376 . S
C943 C944 1.397 . S
C944 H925 0.950 . S
C944 C943 1.397 . S
C944 C945 1.391 . S
C945 C944 1.391 . S
C945 C946 1.405 . S
C946 H926 0.950 . S
C946 C945 1.405 . S
C946 C947 1.367 . S
C947 H927 0.950 . S
C947 C942 1.386 . S
C947 C946 1.367 . S
C948 C942 1.483 . S
C948 C949 1.382 . S
C948 C950 1.403 . S
C949 H928 0.950 . S
C949 C948 1.382 . S
C949 C965 1.411 . S
C950 C948 1.403 . S
C950 C951 1.489 . S
C950 C964 1.411 . S
C951 C950 1.489 . S
C951 C952 1.383 . S
C951 C956 1.382 . S
C952 H929 0.950 . S
C952 C951 1.383 . S
C952 C953 1.395 . S
C953 H930 0.950 . S
C953 C952 1.395 . S
C953 C954 1.288 . S
C954 C953 1.288 . S
C954 C955 1.392 . S
C955 H931 0.951 . S
C955 C954 1.392 . S
C955 C956 1.392 . S
C956 H932 0.949 . S
C956 C951 1.382 . S
C956 C955 1.392 . S
C957 C958 1.376 . S
C957 C962 1.386 . S
C957 C963 1.483 . S
C958 H933 0.949 . S
C958 C957 1.376 . S
C958 C959 1.397 . S
C959 H934 0.950 . S
C959 C958 1.397 . S
C959 C960 1.391 . S
C960 C959 1.391 . S
C960 C961 1.405 . S
C961 H935 0.950 . S
C961 C960 1.405 . S
C961 C962 1.367 . S
C962 H936 0.950 . S
C962 C957 1.386 . S
C962 C961 1.367 . S
C963 C957 1.483 . S
C963 C964 1.382 . S
C963 C965 1.403 . S
C964 H937 0.950 . S
C964 C950 1.411 . S
C964 C963 1.382 . S
C965 C949 1.411 . S
C965 C963 1.403 . S
C965 C966 1.489 . S
C966 C965 1.489 . S
C966 C967 1.383 . S
C966 C971 1.382 . S
C967 H938 0.950 . S
C967 C966 1.383 . S
C967 C968 1.395 . S
C968 H939 0.950 . S
C968 C967 1.395 . S
C968 C969 1.288 . S
C969 C968 1.288 . S
C969 C970 1.392 . S
C970 H940 0.951 . S
C970 C969 1.392 . S
C970 C971 1.392 . S
C971 H941 0.949 . S
C971 C966 1.382 . S
C971 C970 1.392 . S
H972 C991 0.949 . S
H973 C992 0.950 . S
H974 C994 0.950 . S
H975 C995 0.950 . S
H976 C997 0.950 . S
H977 C1000 0.950 . S
H978 C1001 0.950 . S
H979 C1003 0.951 . S
H980 C1004 0.949 . S
H981 C1006 0.949 . S
H982 C1007 0.950 . S
H983 C1009 0.950 . S
H984 C1010 0.950 . S
H985 C1012 0.950 . S
H986 C1015 0.950 . S
H987 C1016 0.950 . S
H988 C1018 0.951 . S
H989 C1019 0.949 . S
C990 C991 1.376 . S
C990 C995 1.386 . S
C990 C996 1.483 . S
C991 H972 0.949 . S
C991 C990 1.376 . S
C991 C992 1.397 . S
C992 H973 0.950 . S
C992 C991 1.397 . S
C992 C993 1.391 . S
C993 C992 1.391 . S
C993 C994 1.405 . S
C994 H974 0.950 . S
C994 C993 1.405 . S
C994 C995 1.367 . S
C995 H975 0.950 . S
C995 C990 1.386 . S
C995 C994 1.367 . S
C996 C990 1.483 . S
C996 C997 1.382 . S
C996 C998 1.403 . S
C997 H976 0.950 . S
C997 C996 1.382 . S
C997 C1013 1.411 . S
C998 C996 1.403 . S
C998 C999 1.489 . S
C998 C1012 1.411 . S
C999 C998 1.489 . S
C999 C1000 1.383 . S
C999 C1004 1.382 . S
C1000 H977 0.950 . S
C1000 C999 1.383 . S
C1000 C1001 1.395 . S
C1001 H978 0.950 . S
C1001 C1000 1.395 . S
C1001 C1002 1.288 . S
C1002 C1001 1.288 . S
C1002 C1003 1.392 . S
C1003 H979 0.951 . S
C1003 C1002 1.392 . S
C1003 C1004 1.392 . S
C1004 H980 0.949 . S
C1004 C999 1.382 . S
C1004 C1003 1.392 . S
C1005 C1006 1.376 . S
C1005 C1010 1.386 . S
C1005 C1011 1.483 . S
C1006 H981 0.949 . S
C1006 C1005 1.376 . S
C1006 C1007 1.397 . S
C1007 H982 0.950 . S
C1007 C1006 1.397 . S
C1007 C1008 1.391 . S
C1008 C1007 1.391 . S
C1008 C1009 1.405 . S
C1009 H983 0.950 . S
C1009 C1008 1.405 . S
C1009 C1010 1.367 . S
C1010 H984 0.950 . S
C1010 C1005 1.386 . S
C1010 C1009 1.367 . S
C1011 C1005 1.483 . S
C1011 C1012 1.382 . S
C1011 C1013 1.403 . S
C1012 H985 0.950 . S
C1012 C998 1.411 . S
C1012 C1011 1.382 . S
C1013 C997 1.411 . S
C1013 C1011 1.403 . S
C1013 C1014 1.489 . S
C1014 C1013 1.489 . S
C1014 C1015 1.383 . S
C1014 C1019 1.382 . S
C1015 H986 0.950 . S
C1015 C1014 1.383 . S
C1015 C1016 1.395 . S
C1016 H987 0.950 . S
C1016 C1015 1.395 . S
C1016 C1017 1.288 . S
C1017 C1016 1.288 . S
C1017 C1018 1.392 . S
C1018 H988 0.951 . S
C1018 C1017 1.392 . S
C1018 C1019 1.392 . S
C1019 H989 0.949 . S
C1019 C1014 1.382 . S
C1019 C1018 1.392 . S
H1020 C1039 0.949 . S
H1021 C1040 0.950 . S
H1022 C1042 0.950 . S
H1023 C1043 0.950 . S
H1024 C1045 0.950 . S
H1025 C1048 0.950 . S
H1026 C1049 0.950 . S
H1027 C1051 0.951 . S
H1028 C1052 0.949 . S
H1029 C1054 0.949 . S
H1030 C1055 0.950 . S
H1031 C1057 0.950 . S
H1032 C1058 0.950 . S
H1033 C1060 0.950 . S
H1034 C1063 0.950 . S
H1035 C1064 0.950 . S
H1036 C1066 0.951 . S
H1037 C1067 0.949 . S
C1038 C1039 1.376 . S
C1038 C1043 1.386 . S
C1038 C1044 1.483 . S
C1039 H1020 0.949 . S
C1039 C1038 1.376 . S
C1039 C1040 1.397 . S
C1040 H1021 0.950 . S
C1040 C1039 1.397 . S
C1040 C1041 1.391 . S
C1041 C1040 1.391 . S
C1041 C1042 1.405 . S
C1042 H1022 0.950 . S
C1042 C1041 1.405 . S
C1042 C1043 1.367 . S
C1043 H1023 0.950 . S
C1043 C1038 1.386 . S
C1043 C1042 1.367 . S
C1044 C1038 1.483 . S
C1044 C1045 1.382 . S
C1044 C1046 1.403 . S
C1045 H1024 0.950 . S
C1045 C1044 1.382 . S
C1045 C1061 1.411 . S
C1046 C1044 1.403 . S
C1046 C1047 1.489 . S
C1046 C1060 1.411 . S
C1047 C1046 1.489 . S
C1047 C1048 1.383 . S
C1047 C1052 1.382 . S
C1048 H1025 0.950 . S
C1048 C1047 1.383 . S
C1048 C1049 1.395 . S
C1049 H1026 0.950 . S
C1049 C1048 1.395 . S
C1049 C1050 1.288 . S
C1050 C1049 1.288 . S
C1050 C1051 1.392 . S
C1051 H1027 0.951 . S
C1051 C1050 1.392 . S
C1051 C1052 1.392 . S
C1052 H1028 0.949 . S
C1052 C1047 1.382 . S
C1052 C1051 1.392 . S
C1053 C1054 1.376 . S
C1053 C1058 1.386 . S
C1053 C1059 1.483 . S
C1054 H1029 0.949 . S
C1054 C1053 1.376 . S
C1054 C1055 1.397 . S
C1055 H1030 0.950 . S
C1055 C1054 1.397 . S
C1055 C1056 1.391 . S
C1056 C1055 1.391 . S
C1056 C1057 1.405 . S
C1057 H1031 0.950 . S
C1057 C1056 1.405 . S
C1057 C1058 1.367 . S
C1058 H1032 0.950 . S
C1058 C1053 1.386 . S
C1058 C1057 1.367 . S
C1059 C1053 1.483 . S
C1059 C1060 1.382 . S
C1059 C1061 1.403 . S
C1060 H1033 0.950 . S
C1060 C1046 1.411 . S
C1060 C1059 1.382 . S
C1061 C1045 1.411 . S
C1061 C1059 1.403 . S
C1061 C1062 1.489 . S
C1062 C1061 1.489 . S
C1062 C1063 1.383 . S
C1062 C1067 1.382 . S
C1063 H1034 0.950 . S
C1063 C1062 1.383 . S
C1063 C1064 1.395 . S
C1064 H1035 0.950 . S
C1064 C1063 1.395 . S
C1064 C1065 1.288 . S
C1065 C1064 1.288 . S
C1065 C1066 1.392 . S
C1066 H1036 0.951 . S
C1066 C1065 1.392 . S
C1066 C1067 1.392 . S
C1067 H1037 0.949 . S
C1067 C1062 1.382 . S
C1067 C1066 1.392 . S
H1068 C1087 0.949 . S
H1069 C1088 0.950 . S
H1070 C1090 0.950 . S
H1071 C1091 0.950 . S
H1072 C1093 0.950 . S
H1073 C1096 0.950 . S
H1074 C1097 0.950 . S
H1075 C1099 0.951 . S
H1076 C1100 0.949 . S
H1077 C1102 0.949 . S
H1078 C1103 0.950 . S
H1079 C1105 0.950 . S
H1080 C1106 0.950 . S
H1081 C1108 0.950 . S
H1082 C1111 0.950 . S
H1083 C1112 0.950 . S
H1084 C1114 0.951 . S
H1085 C1115 0.949 . S
C1086 C1087 1.376 . S
C1086 C1091 1.386 . S
C1086 C1092 1.483 . S
C1087 H1068 0.949 . S
C1087 C1086 1.376 . S
C1087 C1088 1.397 . S
C1088 H1069 0.950 . S
C1088 C1087 1.397 . S
C1088 C1089 1.391 . S
C1089 C1088 1.391 . S
C1089 C1090 1.405 . S
C1090 H1070 0.950 . S
C1090 C1089 1.405 . S
C1090 C1091 1.367 . S
C1091 H1071 0.950 . S
C1091 C1086 1.386 . S
C1091 C1090 1.367 . S
C1092 C1086 1.483 . S
C1092 C1093 1.382 . S
C1092 C1094 1.403 . S
C1093 H1072 0.950 . S
C1093 C1092 1.382 . S
C1093 C1109 1.411 . S
C1094 C1092 1.403 . S
C1094 C1095 1.489 . S
C1094 C1108 1.411 . S
C1095 C1094 1.489 . S
C1095 C1096 1.383 . S
C1095 C1100 1.382 . S
C1096 H1073 0.950 . S
C1096 C1095 1.383 . S
C1096 C1097 1.395 . S
C1097 H1074 0.950 . S
C1097 C1096 1.395 . S
C1097 C1098 1.288 . S
C1098 C1097 1.288 . S
C1098 C1099 1.392 . S
C1099 H1075 0.951 . S
C1099 C1098 1.392 . S
C1099 C1100 1.392 . S
C1100 H1076 0.949 . S
C1100 C1095 1.382 . S
C1100 C1099 1.392 . S
C1101 C1102 1.376 . S
C1101 C1106 1.386 . S
C1101 C1107 1.483 . S
C1102 H1077 0.949 . S
C1102 C1101 1.376 . S
C1102 C1103 1.397 . S
C1103 H1078 0.950 . S
C1103 C1102 1.397 . S
C1103 C1104 1.391 . S
C1104 C1103 1.391 . S
C1104 C1105 1.405 . S
C1105 H1079 0.950 . S
C1105 C1104 1.405 . S
C1105 C1106 1.367 . S
C1106 H1080 0.950 . S
C1106 C1101 1.386 . S
C1106 C1105 1.367 . S
C1107 C1101 1.483 . S
C1107 C1108 1.382 . S
C1107 C1109 1.403 . S
C1108 H1081 0.950 . S
C1108 C1094 1.411 . S
C1108 C1107 1.382 . S
C1109 C1093 1.411 . S
C1109 C1107 1.403 . S
C1109 C1110 1.489 . S
C1110 C1109 1.489 . S
C1110 C1111 1.383 . S
C1110 C1115 1.382 . S
C1111 H1082 0.950 . S
C1111 C1110 1.383 . S
C1111 C1112 1.395 . S
C1112 H1083 0.950 . S
C1112 C1111 1.395 . S
C1112 C1113 1.288 . S
C1113 C1112 1.288 . S
C1113 C1114 1.392 . S
C1114 H1084 0.951 . S
C1114 C1113 1.392 . S
C1114 C1115 1.392 . S
C1115 H1085 0.949 . S
C1115 C1110 1.382 . S
C1115 C1114 1.392 . S
H1116 C1122 0.930 . S
H1117 C1125 0.930 . S
H1118 C1126 0.930 . S
H1119 C1127 0.930 . S
H1120 C1130 0.930 . S
H1121 C1131 0.930 . S
C1122 H1116 0.930 . S
C1122 C1123 1.355 . S
C1122 C1124 1.415 . S
C1123 C1122 1.355 . S
C1123 C1125 1.419 1_655 S
C1124 C1122 1.415 . S
C1124 C1129 1.425 . S
C1124 C1131 1.409 . S
C1125 H1117 0.930 . S
C1125 C1123 1.419 1_455 S
C1125 C1126 1.362 . S
C1126 H1118 0.930 . S
C1126 C1125 1.362 . S
C1126 C1129 1.409 1_455 S
C1127 H1119 0.930 . S
C1127 C1128 1.355 1_455 S
C1127 C1129 1.415 1_455 S
C1128 C1127 1.355 1_655 S
C1128 C1130 1.419 . S
C1129 C1124 1.425 . S
C1129 C1126 1.409 1_655 S
C1129 C1127 1.415 1_655 S
C1130 H1120 0.930 . S
C1130 C1128 1.419 . S
C1130 C1131 1.362 . S
C1131 H1121 0.930 . S
C1131 C1124 1.409 . S
C1131 C1130 1.362 . S
H1132 C1138 0.930 . S
H1133 C1141 0.930 . S
H1134 C1142 0.930 . S
H1135 C1143 0.930 . S
H1136 C1146 0.930 . S
H1137 C1147 0.930 . S
C1138 H1132 0.930 . S
C1138 C1139 1.355 . S
C1138 C1140 1.415 . S
C1139 C1138 1.355 . S
C1139 C1141 1.419 . S
C1140 C1138 1.415 . S
C1140 C1145 1.425 . S
C1140 C1147 1.409 . S
C1141 H1133 0.930 . S
C1141 C1139 1.419 . S
C1141 C1142 1.362 . S
C1142 H1134 0.930 . S
C1142 C1141 1.362 . S
C1142 C1145 1.409 . S
C1143 H1135 0.930 . S
C1143 C1144 1.355 . S
C1143 C1145 1.415 . S
C1144 C1143 1.355 . S
C1144 C1146 1.419 . S
C1145 C1140 1.425 . S
C1145 C1142 1.409 . S
C1145 C1143 1.415 . S
C1146 H1136 0.930 . S
C1146 C1144 1.419 . S
C1146 C1147 1.362 . S
C1147 H1137 0.930 . S
C1147 C1140 1.409 . S
C1147 C1146 1.362 . S
H1148 C1154 0.930 . S
H1149 C1157 0.930 . S
H1150 C1158 0.930 . S
H1151 C1159 0.930 . S
H1152 C1162 0.930 . S
H1153 C1163 0.930 . S
C1154 H1148 0.930 . S
C1154 C1155 1.355 . S
C1154 C1156 1.415 . S
C1155 C1154 1.355 . S
C1155 C1157 1.419 . S
C1156 C1154 1.415 . S
C1156 C1161 1.425 . S
C1156 C1163 1.409 . S
C1157 H1149 0.930 . S
C1157 C1155 1.419 . S
C1157 C1158 1.362 . S
C1158 H1150 0.930 . S
C1158 C1157 1.362 . S
C1158 C1161 1.409 . S
C1159 H1151 0.930 . S
C1159 C1160 1.355 . S
C1159 C1161 1.415 . S
C1160 C1159 1.355 . S
C1160 C1162 1.419 . S
C1161 C1156 1.425 . S
C1161 C1158 1.409 . S
C1161 C1159 1.415 . S
C1162 H1152 0.930 . S
C1162 C1160 1.419 . S
C1162 C1163 1.362 . S
C1163 H1153 0.930 . S
C1163 C1156 1.409 . S
C1163 C1162 1.362 . S
H1164 C1170 0.930 . S
H1165 C1173 0.962 . S
H1166 C1174 0.930 . S
H1167 C1175 0.911 1_545 S
H1168 C1178 0.930 . S
H1169 C1179 0.930 . S
C1170 H1164 0.930 . S
C1170 C1171 1.355 . S
C1170 C1172 1.415 . S
C1171 C1170 1.355 . S
C1171 C1173 1.403 1_565 S
C1172 C1170 1.415 . S
C1172 C1177 1.425 . S
C1172 C1179 1.409 . S
C1173 H1165 0.962 . S
C1173 C1171 1.403 1_545 S
C1173 C1174 1.348 . S
C1174 H1166 0.930 . S
C1174 C1173 1.348 . S
C1174 C1177 1.409 1_545 S
C1175 H1167 0.911 1_565 S
C1175 C1176 1.399 . S
C1175 C1177 1.394 . S
C1176 C1175 1.399 . S
C1176 C1178 1.419 . S
C1177 C1172 1.425 . S
C1177 C1174 1.409 1_565 S
C1177 C1175 1.394 . S
C1178 H1168 0.930 . S
C1178 C1176 1.419 . S
C1178 C1179 1.362 . S
C1179 H1169 0.930 . S
C1179 C1172 1.409 . S
C1179 C1178 1.362 . S
H1180 C1186 0.890 1_655 S
H1181 C1189 0.930 . S
H1182 C1190 0.930 . S
H1183 C1191 0.930 . S
H1184 C1194 0.930 . S
H1185 C1195 0.930 . S
C1186 H1180 0.890 1_455 S
C1186 C1187 1.416 . S
C1186 C1188 1.396 . S
C1187 C1186 1.416 . S
C1187 C1189 1.419 . S
C1188 C1186 1.396 . S
C1188 C1193 1.425 . S
C1188 C1195 1.409 1_455 S
C1189 H1181 0.930 . S
C1189 C1187 1.419 . S
C1189 C1190 1.362 . S
C1190 H1182 0.930 . S
C1190 C1189 1.362 . S
C1190 C1193 1.409 . S
C1191 H1183 0.930 . S
C1191 C1192 1.355 . S
C1191 C1193 1.415 . S
C1192 C1191 1.355 . S
C1192 C1194 1.419 1_455 S
C1193 C1188 1.425 . S
C1193 C1190 1.409 . S
C1193 C1191 1.415 . S
C1194 H1184 0.930 . S
C1194 C1192 1.419 1_655 S
C1194 C1195 1.362 . S
C1195 H1185 0.930 . S
C1195 C1188 1.409 1_655 S
C1195 C1194 1.362 . S
H1196 C1202 0.930 . S
H1197 C1205 0.930 . S
H1198 C1206 0.930 . S
H1199 C1207 0.930 . S
H1200 C1210 0.930 . S
H1201 C1211 0.930 . S
C1202 H1196 0.930 . S
C1202 C1203 1.355 . S
C1202 C1204 1.415 . S
C1203 C1202 1.355 . S
C1203 C1205 1.419 . S
C1204 C1202 1.415 . S
C1204 C1209 1.425 . S
C1204 C1211 1.409 . S
C1205 H1197 0.930 . S
C1205 C1203 1.419 . S
C1205 C1206 1.362 . S
C1206 H1198 0.930 . S
C1206 C1205 1.362 . S
C1206 C1209 1.409 . S
C1207 H1199 0.930 . S
C1207 C1208 1.355 . S
C1207 C1209 1.415 . S
C1208 C1207 1.355 . S
C1208 C1210 1.419 . S
C1209 C1204 1.425 . S
C1209 C1206 1.409 . S
C1209 C1207 1.415 . S
C1210 H1200 0.930 . S
C1210 C1208 1.419 . S
C1210 C1211 1.362 . S
C1211 H1201 0.930 . S
C1211 C1204 1.409 . S
C1211 C1210 1.362 . S
H1212 C1218 0.937 . S
H1213 C1221 0.930 . S
H1214 C1222 0.930 . S
H1215 C1223 0.930 . S
H1216 C1226 0.930 . S
H1217 C1227 0.930 . S
C1218 H1212 0.937 . S
C1218 C1219 1.353 1_655 S
C1218 C1220 1.407 1_655 S
C1219 C1218 1.353 1_455 S
C1219 C1221 1.419 . S
C1220 C1218 1.407 1_455 S
C1220 C1225 1.428 . S
C1220 C1227 1.409 1_455 S
C1221 H1213 0.930 . S
C1221 C1219 1.419 . S
C1221 C1222 1.362 . S
C1222 H1214 0.930 . S
C1222 C1221 1.362 . S
C1222 C1225 1.409 . S
C1223 H1215 0.930 . S
C1223 C1224 1.355 . S
C1223 C1225 1.415 . S
C1224 C1223 1.355 . S
C1224 C1226 1.419 1_455 S
C1225 C1220 1.428 . S
C1225 C1222 1.409 . S
C1225 C1223 1.415 . S
C1226 H1216 0.930 . S
C1226 C1224 1.419 1_655 S
C1226 C1227 1.362 . S
C1227 H1217 0.930 . S
C1227 C1220 1.409 1_655 S
C1227 C1226 1.362 . S
H1228 C1234 0.930 . S
H1229 C1237 0.930 . S
H1230 C1238 0.930 . S
H1231 C1239 0.930 . S
H1232 C1242 0.930 . S
H1233 C1243 0.930 . S
C1234 H1228 0.930 . S
C1234 C1235 1.355 . S
C1234 C1236 1.415 . S
C1235 C1234 1.355 . S
C1235 C1237 1.419 . S
C1236 C1234 1.415 . S
C1236 C1241 1.425 . S
C1236 C1243 1.409 . S
C1237 H1229 0.930 . S
C1237 C1235 1.419 . S
C1237 C1238 1.362 . S
C1238 H1230 0.930 . S
C1238 C1237 1.362 . S
C1238 C1241 1.409 . S
C1239 H1231 0.930 . S
C1239 C1240 1.355 . S
C1239 C1241 1.415 . S
C1240 C1239 1.355 . S
C1240 C1242 1.419 . S
C1241 C1236 1.425 . S
C1241 C1238 1.409 . S
C1241 C1239 1.415 . S
C1242 H1232 0.930 . S
C1242 C1240 1.419 . S
C1242 C1243 1.362 . S
C1243 H1233 0.930 . S
C1243 C1236 1.409 . S
C1243 C1242 1.362 . S
H1244 C1250 0.930 . S
H1245 C1253 0.930 . S
H1246 C1254 0.930 . S
H1247 C1255 0.930 . S
H1248 C1258 0.930 . S
H1249 C1259 0.930 . S
C1250 H1244 0.930 . S
C1250 C1251 1.355 1_545 S
C1250 C1252 1.415 . S
C1251 C1250 1.355 1_565 S
C1251 C1253 1.419 . S
C1252 C1250 1.415 . S
C1252 C1257 1.425 1_545 S
C1252 C1259 1.409 . S
C1253 H1245 0.930 . S
C1253 C1251 1.419 . S
C1253 C1254 1.362 . S
C1254 H1246 0.930 . S
C1254 C1253 1.362 . S
C1254 C1257 1.409 . S
C1255 H1247 0.930 . S
C1255 C1256 1.355 . S
C1255 C1257 1.415 . S
C1256 C1255 1.355 . S
C1256 C1258 1.419 1_565 S
C1257 C1252 1.425 1_565 S
C1257 C1254 1.409 . S
C1257 C1255 1.415 . S
C1258 H1248 0.930 . S
C1258 C1256 1.419 1_545 S
C1258 C1259 1.362 . S
C1259 H1249 0.930 . S
C1259 C1252 1.409 . S
C1259 C1258 1.362 . S
H1260 C1266 0.930 . S
H1261 C1269 0.930 . S
H1262 C1270 0.930 . S
H1263 C1271 0.930 . S
H1264 C1274 0.930 . S
H1265 C1275 0.930 . S
C1266 H1260 0.930 . S
C1266 C1267 1.355 . S
C1266 C1268 1.415 . S
C1267 C1266 1.355 . S
C1267 C1269 1.419 1_545 S
C1268 C1266 1.415 . S
C1268 C1273 1.425 1_545 S
C1268 C1275 1.409 . S
C1269 H1261 0.930 . S
C1269 C1267 1.419 1_565 S
C1269 C1270 1.362 . S
C1270 H1262 0.930 . S
C1270 C1269 1.362 . S
C1270 C1273 1.409 . S
C1271 H1263 0.930 . S
C1271 C1272 1.355 1_565 S
C1271 C1273 1.415 . S
C1272 C1271 1.355 1_545 S
C1272 C1274 1.419 . S
C1273 C1268 1.425 1_565 S
C1273 C1270 1.409 . S
C1273 C1271 1.415 . S
C1274 H1264 0.930 . S
C1274 C1272 1.419 . S
C1274 C1275 1.362 . S
C1275 H1265 0.930 . S
C1275 C1268 1.409 . S
C1275 C1274 1.362 . S
H1276 C1282 0.930 . S
H1277 C1285 0.930 . S
H1278 C1286 0.930 . S
H1279 C1287 0.930 . S
H1280 C1290 0.930 . S
H1281 C1291 0.930 . S
C1282 H1276 0.930 . S
C1282 C1283 1.355 1_455 S
C1282 C1284 1.415 . S
C1283 C1282 1.355 1_655 S
C1283 C1285 1.419 . S
C1284 C1282 1.415 . S
C1284 C1289 1.425 1_455 S
C1284 C1291 1.409 . S
C1285 H1277 0.930 . S
C1285 C1283 1.419 . S
C1285 C1286 1.362 . S
C1286 H1278 0.930 . S
C1286 C1285 1.362 . S
C1286 C1289 1.409 . S
C1287 H1279 0.930 . S
C1287 C1288 1.355 . S
C1287 C1289 1.415 . S
C1288 C1287 1.355 . S
C1288 C1290 1.419 1_655 S
C1289 C1284 1.425 1_655 S
C1289 C1286 1.409 . S
C1289 C1287 1.415 . S
C1290 H1280 0.930 . S
C1290 C1288 1.419 1_455 S
C1290 C1291 1.362 . S
C1291 H1281 0.930 . S
C1291 C1284 1.409 . S
C1291 C1290 1.362 . S
H1292 C1298 0.930 . S
H1293 C1301 0.930 . S
H1294 C1302 0.930 . S
H1295 C1303 0.930 . S
H1296 C1306 0.930 . S
H1297 C1307 0.930 . S
C1298 H1292 0.930 . S
C1298 C1299 1.355 . S
C1298 C1300 1.415 . S
C1299 C1298 1.355 . S
C1299 C1301 1.419 . S
C1300 C1298 1.415 . S
C1300 C1305 1.425 . S
C1300 C1307 1.409 . S
C1301 H1293 0.930 . S
C1301 C1299 1.419 . S
C1301 C1302 1.362 . S
C1302 H1294 0.930 . S
C1302 C1301 1.362 . S
C1302 C1305 1.409 . S
C1303 H1295 0.930 . S
C1303 C1304 1.355 . S
C1303 C1305 1.415 . S
C1304 C1303 1.355 . S
C1304 C1306 1.419 . S
C1305 C1300 1.425 . S
C1305 C1302 1.409 . S
C1305 C1303 1.415 . S
C1306 H1296 0.930 . S
C1306 C1304 1.419 . S
C1306 C1307 1.362 . S
C1307 H1297 0.930 . S
C1307 C1300 1.409 . S
C1307 C1306 1.362 . S
H1308 C1314 0.930 . S
H1309 C1317 0.930 . S
H1310 C1318 0.930 . S
H1311 C1319 0.930 . S
H1312 C1322 0.930 . S
H1313 C1323 0.930 . S
C1314 H1308 0.930 . S
C1314 C1315 1.355 . S
C1314 C1316 1.415 . S
C1315 C1314 1.355 . S
C1315 C1317 1.419 . S
C1316 C1314 1.415 . S
C1316 C1321 1.425 . S
C1316 C1323 1.409 . S
C1317 H1309 0.930 . S
C1317 C1315 1.419 . S
C1317 C1318 1.362 . S
C1318 H1310 0.930 . S
C1318 C1317 1.362 . S
C1318 C1321 1.409 . S
C1319 H1311 0.930 . S
C1319 C1320 1.355 . S
C1319 C1321 1.415 . S
C1320 C1319 1.355 . S
C1320 C1322 1.419 . S
C1321 C1316 1.425 . S
C1321 C1318 1.409 . S
C1321 C1319 1.415 . S
C1322 H1312 0.930 . S
C1322 C1320 1.419 . S
C1322 C1323 1.362 . S
C1323 H1313 0.930 . S
C1323 C1316 1.409 . S
C1323 C1322 1.362 . S
H1324 C1330 0.930 . S
H1325 C1333 0.930 . S
H1326 C1334 0.930 . S
H1327 C1335 0.930 . S
H1328 C1338 0.930 . S
H1329 C1339 0.930 . S
C1330 H1324 0.930 . S
C1330 C1331 1.355 . S
C1330 C1332 1.415 . S
C1331 C1330 1.355 . S
C1331 C1333 1.419 . S
C1332 C1330 1.415 . S
C1332 C1337 1.425 . S
C1332 C1339 1.409 . S
C1333 H1325 0.930 . S
C1333 C1331 1.419 . S
C1333 C1334 1.362 . S
C1334 H1326 0.930 . S
C1334 C1333 1.362 . S
C1334 C1337 1.409 . S
C1335 H1327 0.930 . S
C1335 C1336 1.355 . S
C1335 C1337 1.415 . S
C1336 C1335 1.355 . S
C1336 C1338 1.419 . S
C1337 C1332 1.425 . S
C1337 C1334 1.409 . S
C1337 C1335 1.415 . S
C1338 H1328 0.930 . S
C1338 C1336 1.419 . S
C1338 C1339 1.362 . S
C1339 H1329 0.930 . S
C1339 C1332 1.409 . S
C1339 C1338 1.362 . S
H1340 C1346 0.930 . S
H1341 C1349 0.930 . S
H1342 C1350 0.930 . S
H1343 C1351 0.930 . S
H1344 C1354 0.930 . S
H1345 C1355 0.930 . S
C1346 H1340 0.930 . S
C1346 C1347 1.355 . S
C1346 C1348 1.415 . S
C1347 C1346 1.355 . S
C1347 C1349 1.419 . S
C1348 C1346 1.415 . S
C1348 C1353 1.425 . S
C1348 C1355 1.409 . S
C1349 H1341 0.930 . S
C1349 C1347 1.419 . S
C1349 C1350 1.362 . S
C1350 H1342 0.930 . S
C1350 C1349 1.362 . S
C1350 C1353 1.409 . S
C1351 H1343 0.930 . S
C1351 C1352 1.355 . S
C1351 C1353 1.415 . S
C1352 C1351 1.355 . S
C1352 C1354 1.419 . S
C1353 C1348 1.425 . S
C1353 C1350 1.409 . S
C1353 C1351 1.415 . S
C1354 H1344 0.930 . S
C1354 C1352 1.419 . S
C1354 C1355 1.362 . S
C1355 H1345 0.930 . S
C1355 C1348 1.409 . S
C1355 C1354 1.362 . S
H1356 C1362 0.930 . S
H1357 C1365 0.930 . S
H1358 C1366 0.930 . S
H1359 C1367 0.930 . S
H1360 C1370 0.930 . S
H1361 C1371 0.930 . S
C1362 H1356 0.930 . S
C1362 C1363 1.355 . S
C1362 C1364 1.415 . S
C1363 C1362 1.355 . S
C1363 C1365 1.419 . S
C1364 C1362 1.415 . S
C1364 C1369 1.425 . S
C1364 C1371 1.409 . S
C1365 H1357 0.930 . S
C1365 C1363 1.419 . S
C1365 C1366 1.362 . S
C1366 H1358 0.930 . S
C1366 C1365 1.362 . S
C1366 C1369 1.409 . S
C1367 H1359 0.930 . S
C1367 C1368 1.355 . S
C1367 C1369 1.415 . S
C1368 C1367 1.355 . S
C1368 C1370 1.419 . S
C1369 C1364 1.425 . S
C1369 C1366 1.409 . S
C1369 C1367 1.415 . S
C1370 H1360 0.930 . S
C1370 C1368 1.419 . S
C1370 C1371 1.362 . S
C1371 H1361 0.930 . S
C1371 C1364 1.409 . S
C1371 C1370 1.362 . S
H1372 C1378 0.930 . S
H1373 C1381 0.930 . S
H1374 C1382 0.930 . S
H1375 C1383 0.930 . S
H1376 C1386 0.930 . S
H1377 C1387 0.930 . S
C1378 H1372 0.930 . S
C1378 C1379 1.355 . S
C1378 C1380 1.415 . S
C1379 C1378 1.355 . S
C1379 C1381 1.419 . S
C1380 C1378 1.415 . S
C1380 C1385 1.425 . S
C1380 C1387 1.409 . S
C1381 H1373 0.930 . S
C1381 C1379 1.419 . S
C1381 C1382 1.362 . S
C1382 H1374 0.930 . S
C1382 C1381 1.362 . S
C1382 C1385 1.409 . S
C1383 H1375 0.930 . S
C1383 C1384 1.355 . S
C1383 C1385 1.415 . S
C1384 C1383 1.355 . S
C1384 C1386 1.419 . S
C1385 C1380 1.425 . S
C1385 C1382 1.409 . S
C1385 C1383 1.415 . S
C1386 H1376 0.930 . S
C1386 C1384 1.419 . S
C1386 C1387 1.362 . S
C1387 H1377 0.930 . S
C1387 C1380 1.409 . S
C1387 C1386 1.362 . S
H1388 C1394 0.930 . S
H1389 C1397 0.930 . S
H1390 C1398 0.930 . S
H1391 C1399 0.930 . S
H1392 C1402 0.930 . S
H1393 C1403 0.930 . S
C1394 H1388 0.930 . S
C1394 C1395 1.355 . S
C1394 C1396 1.415 . S
C1395 C1394 1.355 . S
C1395 C1397 1.419 . S
C1396 C1394 1.415 . S
C1396 C1401 1.425 . S
C1396 C1403 1.409 . S
C1397 H1389 0.930 . S
C1397 C1395 1.419 . S
C1397 C1398 1.362 . S
C1398 H1390 0.930 . S
C1398 C1397 1.362 . S
C1398 C1401 1.409 . S
C1399 H1391 0.930 . S
C1399 C1400 1.355 . S
C1399 C1401 1.415 . S
C1400 C1399 1.355 . S
C1400 C1402 1.419 . S
C1401 C1396 1.425 . S
C1401 C1398 1.409 . S
C1401 C1399 1.415 . S
C1402 H1392 0.930 . S
C1402 C1400 1.419 . S
C1402 C1403 1.362 . S
C1403 H1393 0.930 . S
C1403 C1396 1.409 . S
C1403 C1402 1.362 . S
H1404 C1410 0.930 . S
H1405 C1413 0.930 . S
H1406 C1414 0.930 . S
H1407 C1415 0.930 . S
H1408 C1418 0.930 . S
H1409 C1419 0.930 . S
C1410 H1404 0.930 . S
C1410 C1411 1.355 . S
C1410 C1412 1.415 . S
C1411 C1410 1.355 . S
C1411 C1413 1.419 . S
C1412 C1410 1.415 . S
C1412 C1417 1.425 . S
C1412 C1419 1.409 . S
C1413 H1405 0.930 . S
C1413 C1411 1.419 . S
C1413 C1414 1.362 . S
C1414 H1406 0.930 . S
C1414 C1413 1.362 . S
C1414 C1417 1.409 . S
C1415 H1407 0.930 . S
C1415 C1416 1.355 . S
C1415 C1417 1.415 . S
C1416 C1415 1.355 . S
C1416 C1418 1.419 . S
C1417 C1412 1.425 . S
C1417 C1414 1.409 . S
C1417 C1415 1.415 . S
C1418 H1408 0.930 . S
C1418 C1416 1.419 . S
C1418 C1419 1.362 . S
C1419 H1409 0.930 . S
C1419 C1412 1.409 . S
C1419 C1418 1.362 . S
H1420 C1426 0.930 . S
H1421 C1429 0.930 . S
H1422 C1430 0.930 . S
H1423 C1431 0.930 . S
H1424 C1434 0.930 . S
H1425 C1435 0.930 . S
C1426 H1420 0.930 . S
C1426 C1427 1.355 . S
C1426 C1428 1.415 . S
C1427 C1426 1.355 . S
C1427 C1429 1.419 . S
C1428 C1426 1.415 . S
C1428 C1433 1.425 . S
C1428 C1435 1.409 . S
C1429 H1421 0.930 . S
C1429 C1427 1.419 . S
C1429 C1430 1.362 . S
C1430 H1422 0.930 . S
C1430 C1429 1.362 . S
C1430 C1433 1.409 . S
C1431 H1423 0.930 . S
C1431 C1432 1.355 . S
C1431 C1433 1.415 . S
C1432 C1431 1.355 . S
C1432 C1434 1.419 . S
C1433 C1428 1.425 . S
C1433 C1430 1.409 . S
C1433 C1431 1.415 . S
C1434 H1424 0.930 . S
C1434 C1432 1.419 . S
C1434 C1435 1.362 . S
C1435 H1425 0.930 . S
C1435 C1428 1.409 . S
C1435 C1434 1.362 . S
H1436 C1442 0.930 . S
H1437 C1445 0.930 . S
H1438 C1446 0.930 . S
H1439 C1447 0.930 . S
H1440 C1450 0.930 . S
H1441 C1451 0.930 . S
C1442 H1436 0.930 . S
C1442 C1443 1.355 . S
C1442 C1444 1.415 . S
C1443 C1442 1.355 . S
C1443 C1445 1.419 . S
C1444 C1442 1.415 . S
C1444 C1449 1.425 . S
C1444 C1451 1.409 . S
C1445 H1437 0.930 . S
C1445 C1443 1.419 . S
C1445 C1446 1.362 . S
C1446 H1438 0.930 . S
C1446 C1445 1.362 . S
C1446 C1449 1.409 . S
C1447 H1439 0.930 . S
C1447 C1448 1.355 . S
C1447 C1449 1.415 . S
C1448 C1447 1.355 . S
C1448 C1450 1.419 . S
C1449 C1444 1.425 . S
C1449 C1446 1.409 . S
C1449 C1447 1.415 . S
C1450 H1440 0.930 . S
C1450 C1448 1.419 . S
C1450 C1451 1.362 . S
C1451 H1441 0.930 . S
C1451 C1444 1.409 . S
C1451 C1450 1.362 . S
H1452 C1458 0.930 . S
H1453 C1461 0.930 . S
H1454 C1462 0.930 . S
H1455 C1463 0.930 . S
H1456 C1466 0.930 . S
H1457 C1467 0.930 . S
C1458 H1452 0.930 . S
C1458 C1459 1.355 . S
C1458 C1460 1.415 . S
C1459 C1458 1.355 . S
C1459 C1461 1.419 . S
C1460 C1458 1.415 . S
C1460 C1465 1.425 . S
C1460 C1467 1.409 . S
C1461 H1453 0.930 . S
C1461 C1459 1.419 . S
C1461 C1462 1.362 . S
C1462 H1454 0.930 . S
C1462 C1461 1.362 . S
C1462 C1465 1.409 . S
C1463 H1455 0.930 . S
C1463 C1464 1.355 . S
C1463 C1465 1.415 . S
C1464 C1463 1.355 . S
C1464 C1466 1.419 . S
C1465 C1460 1.425 . S
C1465 C1462 1.409 . S
C1465 C1463 1.415 . S
C1466 H1456 0.930 . S
C1466 C1464 1.419 . S
C1466 C1467 1.362 . S
C1467 H1457 0.930 . S
C1467 C1460 1.409 . S
C1467 C1466 1.362 . S
H1468 C1474 0.930 . S
H1469 C1477 0.930 . S
H1470 C1478 0.930 . S
H1471 C1479 0.930 . S
H1472 C1482 0.930 . S
H1473 C1483 0.930 . S
C1474 H1468 0.930 . S
C1474 C1475 1.355 . S
C1474 C1476 1.415 . S
C1475 C1474 1.355 . S
C1475 C1477 1.419 . S
C1476 C1474 1.415 . S
C1476 C1481 1.425 . S
C1476 C1483 1.409 . S
C1477 H1469 0.930 . S
C1477 C1475 1.419 . S
C1477 C1478 1.362 . S
C1478 H1470 0.930 . S
C1478 C1477 1.362 . S
C1478 C1481 1.409 . S
C1479 H1471 0.930 . S
C1479 C1480 1.355 . S
C1479 C1481 1.415 . S
C1480 C1479 1.355 . S
C1480 C1482 1.419 . S
C1481 C1476 1.425 . S
C1481 C1478 1.409 . S
C1481 C1479 1.415 . S
C1482 H1472 0.930 . S
C1482 C1480 1.419 . S
C1482 C1483 1.362 . S
C1483 H1473 0.930 . S
C1483 C1476 1.409 . S
C1483 C1482 1.362 . S
H1484 C1490 0.930 . S
H1485 C1493 0.930 . S
H1486 C1494 0.930 . S
H1487 C1495 0.930 . S
H1488 C1498 0.930 . S
H1489 C1499 0.930 . S
C1490 H1484 0.930 . S
C1490 C1491 1.355 . S
C1490 C1492 1.415 . S
C1491 C1490 1.355 . S
C1491 C1493 1.419 . S
C1492 C1490 1.415 . S
C1492 C1497 1.425 . S
C1492 C1499 1.409 . S
C1493 H1485 0.930 . S
C1493 C1491 1.419 . S
C1493 C1494 1.362 . S
C1494 H1486 0.930 . S
C1494 C1493 1.362 . S
C1494 C1497 1.409 . S
C1495 H1487 0.930 . S
C1495 C1496 1.355 . S
C1495 C1497 1.415 . S
C1496 C1495 1.355 . S
C1496 C1498 1.419 . S
C1497 C1492 1.425 . S
C1497 C1494 1.409 . S
C1497 C1495 1.415 . S
C1498 H1488 0.930 . S
C1498 C1496 1.419 . S
C1498 C1499 1.362 . S
C1499 H1489 0.930 . S
C1499 C1492 1.409 . S
C1499 C1498 1.362 . S
H1500 C1506 0.930 . S
H1501 C1509 0.930 . S
H1502 C1510 0.930 . S
H1503 C1511 0.930 . S
H1504 C1514 0.930 . S
H1505 C1515 0.930 . S
C1506 H1500 0.930 . S
C1506 C1507 1.355 . S
C1506 C1508 1.415 . S
C1507 C1506 1.355 . S
C1507 C1509 1.419 . S
C1508 C1506 1.415 . S
C1508 C1513 1.425 . S
C1508 C1515 1.409 . S
C1509 H1501 0.930 . S
C1509 C1507 1.419 . S
C1509 C1510 1.362 . S
C1510 H1502 0.930 . S
C1510 C1509 1.362 . S
C1510 C1513 1.409 . S
C1511 H1503 0.930 . S
C1511 C1512 1.355 . S
C1511 C1513 1.415 . S
C1512 C1511 1.355 . S
C1512 C1514 1.419 . S
C1513 C1508 1.425 . S
C1513 C1510 1.409 . S
C1513 C1511 1.415 . S
C1514 H1504 0.930 . S
C1514 C1512 1.419 . S
C1514 C1515 1.362 . S
C1515 H1505 0.930 . S
C1515 C1508 1.409 . S
C1515 C1514 1.362 . S
H1516 C1522 0.930 . S
H1517 C1525 0.930 . S
H1518 C1526 0.930 . S
H1519 C1527 0.930 . S
H1520 C1530 0.930 . S
H1521 C1531 0.930 . S
C1522 H1516 0.930 . S
C1522 C1523 1.355 . S
C1522 C1524 1.415 . S
C1523 C1522 1.355 . S
C1523 C1525 1.419 . S
C1524 C1522 1.415 . S
C1524 C1529 1.425 . S
C1524 C1531 1.409 . S
C1525 H1517 0.930 . S
C1525 C1523 1.419 . S
C1525 C1526 1.362 . S
C1526 H1518 0.930 . S
C1526 C1525 1.362 . S
C1526 C1529 1.409 . S
C1527 H1519 0.930 . S
C1527 C1528 1.355 . S
C1527 C1529 1.415 . S
C1528 C1527 1.355 . S
C1528 C1530 1.419 . S
C1529 C1524 1.425 . S
C1529 C1526 1.409 . S
C1529 C1527 1.415 . S
C1530 H1520 0.930 . S
C1530 C1528 1.419 . S
C1530 C1531 1.362 . S
C1531 H1521 0.930 . S
C1531 C1524 1.409 . S
C1531 C1530 1.362 . S
H1532 C1538 0.930 . S
H1533 C1541 0.930 . S
H1534 C1542 0.930 . S
H1535 C1543 0.930 . S
H1536 C1546 0.930 . S
H1537 C1547 0.930 . S
C1538 H1532 0.930 . S
C1538 C1539 1.355 . S
C1538 C1540 1.415 . S
C1539 C1538 1.355 . S
C1539 C1541 1.419 . S
C1540 C1538 1.415 . S
C1540 C1545 1.425 . S
C1540 C1547 1.409 . S
C1541 H1533 0.930 . S
C1541 C1539 1.419 . S
C1541 C1542 1.362 . S
C1542 H1534 0.930 . S
C1542 C1541 1.362 . S
C1542 C1545 1.409 . S
C1543 H1535 0.930 . S
C1543 C1544 1.355 . S
C1543 C1545 1.415 . S
C1544 C1543 1.355 . S
C1544 C1546 1.419 . S
C1545 C1540 1.425 . S
C1545 C1542 1.409 . S
C1545 C1543 1.415 . S
C1546 H1536 0.930 . S
C1546 C1544 1.419 . S
C1546 C1547 1.362 . S
C1547 H1537 0.930 . S
C1547 C1540 1.409 . S
C1547 C1546 1.362 . S
H1548 C1554 0.930 . S
H1549 C1557 0.930 . S
H1550 C1558 0.930 . S
H1551 C1559 0.930 . S
H1552 C1562 0.930 . S
H1553 C1563 0.930 . S
C1554 H1548 0.930 . S
C1554 C1555 1.355 . S
C1554 C1556 1.415 . S
C1555 C1554 1.355 . S
C1555 C1557 1.419 . S
C1556 C1554 1.415 . S
C1556 C1561 1.425 . S
C1556 C1563 1.409 . S
C1557 H1549 0.930 . S
C1557 C1555 1.419 . S
C1557 C1558 1.362 . S
C1558 H1550 0.930 . S
C1558 C1557 1.362 . S
C1558 C1561 1.409 . S
C1559 H1551 0.930 . S
C1559 C1560 1.355 . S
C1559 C1561 1.415 . S
C1560 C1559 1.355 . S
C1560 C1562 1.419 . S
C1561 C1556 1.425 . S
C1561 C1558 1.409 . S
C1561 C1559 1.415 . S
C1562 H1552 0.930 . S
C1562 C1560 1.419 . S
C1562 C1563 1.362 . S
C1563 H1553 0.930 . S
C1563 C1556 1.409 . S
C1563 C1562 1.362 . S
H1564 C1570 0.930 . S
H1565 C1573 0.930 . S
H1566 C1574 0.930 . S
H1567 C1575 0.930 . S
H1568 C1578 0.930 . S
H1569 C1579 0.930 . S
C1570 H1564 0.930 . S
C1570 C1571 1.355 . S
C1570 C1572 1.415 . S
C1571 C1570 1.355 . S
C1571 C1573 1.419 . S
C1572 C1570 1.415 . S
C1572 C1577 1.425 . S
C1572 C1579 1.409 . S
C1573 H1565 0.930 . S
C1573 C1571 1.419 . S
C1573 C1574 1.362 . S
C1574 H1566 0.930 . S
C1574 C1573 1.362 . S
C1574 C1577 1.409 . S
C1575 H1567 0.930 . S
C1575 C1576 1.355 . S
C1575 C1577 1.415 . S
C1576 C1575 1.355 . S
C1576 C1578 1.419 . S
C1577 C1572 1.425 . S
C1577 C1574 1.409 . S
C1577 C1575 1.415 . S
C1578 H1568 0.930 . S
C1578 C1576 1.419 . S
C1578 C1579 1.362 . S
C1579 H1569 0.930 . S
C1579 C1572 1.409 . S
C1579 C1578 1.362 . S
H1580 C1586 0.930 . S
H1581 C1589 0.930 . S
H1582 C1590 0.930 . S
H1583 C1591 0.930 . S
H1584 C1594 0.930 . S
H1585 C1595 0.930 . S
C1586 H1580 0.930 . S
C1586 C1587 1.355 . S
C1586 C1588 1.415 . S
C1587 C1586 1.355 . S
C1587 C1589 1.419 . S
C1588 C1586 1.415 . S
C1588 C1593 1.425 . S
C1588 C1595 1.409 . S
C1589 H1581 0.930 . S
C1589 C1587 1.419 . S
C1589 C1590 1.362 . S
C1590 H1582 0.930 . S
C1590 C1589 1.362 . S
C1590 C1593 1.409 . S
C1591 H1583 0.930 . S
C1591 C1592 1.355 . S
C1591 C1593 1.415 . S
C1592 C1591 1.355 . S
C1592 C1594 1.419 . S
C1593 C1588 1.425 . S
C1593 C1590 1.409 . S
C1593 C1591 1.415 . S
C1594 H1584 0.930 . S
C1594 C1592 1.419 . S
C1594 C1595 1.362 . S
C1595 H1585 0.930 . S
C1595 C1588 1.409 . S
C1595 C1594 1.362 . S
H1596 C1602 0.930 . S
H1597 C1605 0.930 . S
H1598 C1606 0.930 . S
H1599 C1607 0.930 . S
H1600 C1610 0.930 . S
H1601 C1611 0.930 . S
C1602 H1596 0.930 . S
C1602 C1603 1.355 . S
C1602 C1604 1.415 . S
C1603 C1602 1.355 . S
C1603 C1605 1.419 . S
C1604 C1602 1.415 . S
C1604 C1609 1.425 . S
C1604 C1611 1.409 . S
C1605 H1597 0.930 . S
C1605 C1603 1.419 . S
C1605 C1606 1.362 . S
C1606 H1598 0.930 . S
C1606 C1605 1.362 . S
C1606 C1609 1.409 . S
C1607 H1599 0.930 . S
C1607 C1608 1.355 . S
C1607 C1609 1.415 . S
C1608 C1607 1.355 . S
C1608 C1610 1.419 . S
C1609 C1604 1.425 . S
C1609 C1606 1.409 . S
C1609 C1607 1.415 . S
C1610 H1600 0.930 . S
C1610 C1608 1.419 . S
C1610 C1611 1.362 . S
C1611 H1601 0.930 . S
C1611 C1604 1.409 . S
C1611 C1610 1.362 . S
H1612 C1618 0.930 . S
H1613 C1621 0.930 . S
H1614 C1622 0.930 . S
H1615 C1623 0.930 . S
H1616 C1626 0.930 . S
H1617 C1627 0.930 . S
C1618 H1612 0.930 . S
C1618 C1619 1.355 . S
C1618 C1620 1.415 . S
C1619 C1618 1.355 . S
C1619 C1621 1.419 . S
C1620 C1618 1.415 . S
C1620 C1625 1.425 . S
C1620 C1627 1.409 . S
C1621 H1613 0.930 . S
C1621 C1619 1.419 . S
C1621 C1622 1.362 . S
C1622 H1614 0.930 . S
C1622 C1621 1.362 . S
C1622 C1625 1.409 . S
C1623 H1615 0.930 . S
C1623 C1624 1.355 . S
C1623 C1625 1.415 . S
C1624 C1623 1.355 . S
C1624 C1626 1.419 . S
C1625 C1620 1.425 . S
C1625 C1622 1.409 . S
C1625 C1623 1.415 . S
C1626 H1616 0.930 . S
C1626 C1624 1.419 . S
C1626 C1627 1.362 . S
C1627 H1617 0.930 . S
C1627 C1620 1.409 . S
C1627 C1626 1.362 . S
H1628 C1634 0.930 . S
H1629 C1637 0.930 . S
H1630 C1638 0.930 . S
H1631 C1639 0.930 . S
H1632 C1642 0.930 . S
H1633 C1643 0.930 . S
C1634 H1628 0.930 . S
C1634 C1635 1.355 . S
C1634 C1636 1.415 . S
C1635 C1634 1.355 . S
C1635 C1637 1.419 . S
C1636 C1634 1.415 . S
C1636 C1641 1.425 . S
C1636 C1643 1.409 . S
C1637 H1629 0.930 . S
C1637 C1635 1.419 . S
C1637 C1638 1.362 . S
C1638 H1630 0.930 . S
C1638 C1637 1.362 . S
C1638 C1641 1.409 . S
C1639 H1631 0.930 . S
C1639 C1640 1.355 . S
C1639 C1641 1.415 . S
C1640 C1639 1.355 . S
C1640 C1642 1.419 . S
C1641 C1636 1.425 . S
C1641 C1638 1.409 . S
C1641 C1639 1.415 . S
C1642 H1632 0.930 . S
C1642 C1640 1.419 . S
C1642 C1643 1.362 . S
C1643 H1633 0.930 . S
C1643 C1636 1.409 . S
C1643 C1642 1.362 . S
H1644 C1650 0.930 . S
H1645 C1653 0.930 . S
H1646 C1654 0.930 . S
H1647 C1655 0.930 . S
H1648 C1658 0.930 . S
H1649 C1659 0.930 . S
C1650 H1644 0.930 . S
C1650 C1651 1.355 . S
C1650 C1652 1.415 . S
C1651 C1650 1.355 . S
C1651 C1653 1.419 . S
C1652 C1650 1.415 . S
C1652 C1657 1.425 . S
C1652 C1659 1.409 . S
C1653 H1645 0.930 . S
C1653 C1651 1.419 . S
C1653 C1654 1.362 . S
C1654 H1646 0.930 . S
C1654 C1653 1.362 . S
C1654 C1657 1.409 . S
C1655 H1647 0.930 . S
C1655 C1656 1.355 . S
C1655 C1657 1.415 . S
C1656 C1655 1.355 . S
C1656 C1658 1.419 . S
C1657 C1652 1.425 . S
C1657 C1654 1.409 . S
C1657 C1655 1.415 . S
C1658 H1648 0.930 . S
C1658 C1656 1.419 . S
C1658 C1659 1.362 . S
C1659 H1649 0.930 . S
C1659 C1652 1.409 . S
C1659 C1658 1.362 . S
H1660 C1666 0.930 . S
H1661 C1669 0.930 . S
H1662 C1670 0.930 . S
H1663 C1671 0.930 . S
H1664 C1674 0.930 . S
H1665 C1675 0.930 . S
C1666 H1660 0.930 . S
C1666 C1667 1.355 . S
C1666 C1668 1.415 . S
C1667 C1666 1.355 . S
C1667 C1669 1.419 . S
C1668 C1666 1.415 . S
C1668 C1673 1.425 . S
C1668 C1675 1.409 . S
C1669 H1661 0.930 . S
C1669 C1667 1.419 . S
C1669 C1670 1.362 . S
C1670 H1662 0.930 . S
C1670 C1669 1.362 . S
C1670 C1673 1.409 . S
C1671 H1663 0.930 . S
C1671 C1672 1.355 . S
C1671 C1673 1.415 . S
C1672 C1671 1.355 . S
C1672 C1674 1.419 . S
C1673 C1668 1.425 . S
C1673 C1670 1.409 . S
C1673 C1671 1.415 . S
C1674 H1664 0.930 . S
C1674 C1672 1.419 . S
C1674 C1675 1.362 . S
C1675 H1665 0.930 . S
C1675 C1668 1.409 . S
C1675 C1674 1.362 . S
H1676 C1682 0.930 . S
H1677 C1685 0.930 . S
H1678 C1686 0.930 . S
H1679 C1687 0.930 . S
H1680 C1690 0.930 . S
H1681 C1691 0.930 . S
C1682 H1676 0.930 . S
C1682 C1683 1.355 . S
C1682 C1684 1.415 . S
C1683 C1682 1.355 . S
C1683 C1685 1.419 . S
C1684 C1682 1.415 . S
C1684 C1689 1.425 . S
C1684 C1691 1.409 . S
C1685 H1677 0.930 . S
C1685 C1683 1.419 . S
C1685 C1686 1.362 . S
C1686 H1678 0.930 . S
C1686 C1685 1.362 . S
C1686 C1689 1.409 . S
C1687 H1679 0.930 . S
C1687 C1688 1.355 . S
C1687 C1689 1.415 . S
C1688 C1687 1.355 . S
C1688 C1690 1.419 . S
C1689 C1684 1.425 . S
C1689 C1686 1.409 . S
C1689 C1687 1.415 . S
C1690 H1680 0.930 . S
C1690 C1688 1.419 . S
C1690 C1691 1.362 . S
C1691 H1681 0.930 . S
C1691 C1684 1.409 . S
C1691 C1690 1.362 . S
H1692 C1698 0.930 . S
H1693 C1701 0.930 . S
H1694 C1702 0.930 . S
H1695 C1703 0.930 . S
H1696 C1706 0.930 . S
H1697 C1707 0.930 . S
C1698 H1692 0.930 . S
C1698 C1699 1.355 . S
C1698 C1700 1.415 . S
C1699 C1698 1.355 . S
C1699 C1701 1.419 . S
C1700 C1698 1.415 . S
C1700 C1705 1.425 . S
C1700 C1707 1.409 . S
C1701 H1693 0.930 . S
C1701 C1699 1.419 . S
C1701 C1702 1.362 . S
C1702 H1694 0.930 . S
C1702 C1701 1.362 . S
C1702 C1705 1.409 . S
C1703 H1695 0.930 . S
C1703 C1704 1.355 . S
C1703 C1705 1.415 . S
C1704 C1703 1.355 . S
C1704 C1706 1.419 . S
C1705 C1700 1.425 . S
C1705 C1702 1.409 . S
C1705 C1703 1.415 . S
C1706 H1696 0.930 . S
C1706 C1704 1.419 . S
C1706 C1707 1.362 . S
C1707 H1697 0.930 . S
C1707 C1700 1.409 . S
C1707 C1706 1.362 . S
H1708 C1714 0.930 . S
H1709 C1717 0.930 . S
H1710 C1718 0.930 . S
H1711 C1719 0.930 . S
H1712 C1722 0.930 . S
H1713 C1723 0.930 . S
C1714 H1708 0.930 . S
C1714 C1715 1.355 . S
C1714 C1716 1.415 . S
C1715 C1714 1.355 . S
C1715 C1717 1.419 . S
C1716 C1714 1.415 . S
C1716 C1721 1.425 . S
C1716 C1723 1.409 . S
C1717 H1709 0.930 . S
C1717 C1715 1.419 . S
C1717 C1718 1.362 . S
C1718 H1710 0.930 . S
C1718 C1717 1.362 . S
C1718 C1721 1.409 . S
C1719 H1711 0.930 . S
C1719 C1720 1.355 . S
C1719 C1721 1.415 . S
C1720 C1719 1.355 . S
C1720 C1722 1.419 . S
C1721 C1716 1.425 . S
C1721 C1718 1.409 . S
C1721 C1719 1.415 . S
C1722 H1712 0.930 . S
C1722 C1720 1.419 . S
C1722 C1723 1.362 . S
C1723 H1713 0.930 . S
C1723 C1716 1.409 . S
C1723 C1722 1.362 . S
H1724 C1730 0.930 . S
H1725 C1733 0.930 . S
H1726 C1734 0.930 . S
H1727 C1735 0.930 . S
H1728 C1738 0.930 . S
H1729 C1739 0.930 . S
C1730 H1724 0.930 . S
C1730 C1731 1.355 . S
C1730 C1732 1.415 . S
C1731 C1730 1.355 . S
C1731 C1733 1.419 . S
C1732 C1730 1.415 . S
C1732 C1737 1.425 . S
C1732 C1739 1.409 . S
C1733 H1725 0.930 . S
C1733 C1731 1.419 . S
C1733 C1734 1.362 . S
C1734 H1726 0.930 . S
C1734 C1733 1.362 . S
C1734 C1737 1.409 . S
C1735 H1727 0.930 . S
C1735 C1736 1.355 . S
C1735 C1737 1.415 . S
C1736 C1735 1.355 . S
C1736 C1738 1.419 . S
C1737 C1732 1.425 . S
C1737 C1734 1.409 . S
C1737 C1735 1.415 . S
C1738 H1728 0.930 . S
C1738 C1736 1.419 . S
C1738 C1739 1.362 . S
C1739 H1729 0.930 . S
C1739 C1732 1.409 . S
C1739 C1738 1.362 . S
H1740 C1746 0.930 . S
H1741 C1749 0.938 . S
H1742 C1750 0.930 1_554 S
H1743 C1751 0.930 . S
H1744 C1754 0.930 . S
H1745 C1755 0.930 . S
C1746 H1740 0.930 . S
C1746 C1747 1.355 . S
C1746 C1748 1.415 . S
C1747 C1746 1.355 . S
C1747 C1749 1.414 1_556 S
C1748 C1746 1.415 . S
C1748 C1753 1.425 . S
C1748 C1755 1.409 . S
C1749 H1741 0.938 . S
C1749 C1747 1.414 1_554 S
C1749 C1750 1.360 1_554 S
C1750 H1742 0.930 1_556 S
C1750 C1749 1.360 1_556 S
C1750 C1753 1.409 . S
C1751 H1743 0.930 . S
C1751 C1752 1.355 . S
C1751 C1753 1.415 . S
C1752 C1751 1.355 . S
C1752 C1754 1.419 . S
C1753 C1748 1.425 . S
C1753 C1750 1.409 . S
C1753 C1751 1.415 . S
C1754 H1744 0.930 . S
C1754 C1752 1.419 . S
C1754 C1755 1.362 . S
C1755 H1745 0.930 . S
C1755 C1748 1.409 . S
C1755 C1754 1.362 . S
H1756 C1762 0.930 . S
H1757 C1765 0.930 . S
H1758 C1766 0.930 . S
H1759 C1767 0.930 . S
H1760 C1770 0.930 . S
H1761 C1771 0.930 . S
C1762 H1756 0.930 . S
C1762 C1763 1.355 . S
C1762 C1764 1.415 . S
C1763 C1762 1.355 . S
C1763 C1765 1.419 . S
C1764 C1762 1.415 . S
C1764 C1769 1.425 . S
C1764 C1771 1.409 . S
C1765 H1757 0.930 . S
C1765 C1763 1.419 . S
C1765 C1766 1.362 . S
C1766 H1758 0.930 . S
C1766 C1765 1.362 . S
C1766 C1769 1.409 . S
C1767 H1759 0.930 . S
C1767 C1768 1.355 . S
C1767 C1769 1.415 . S
C1768 C1767 1.355 . S
C1768 C1770 1.419 . S
C1769 C1764 1.425 . S
C1769 C1766 1.409 . S
C1769 C1767 1.415 . S
C1770 H1760 0.930 . S
C1770 C1768 1.419 . S
C1770 C1771 1.362 . S
C1771 H1761 0.930 . S
C1771 C1764 1.409 . S
C1771 C1770 1.362 . S
H1772 C1778 0.930 . S
H1773 C1781 0.930 1_554 S
H1774 C1782 0.930 . S
H1775 C1783 0.930 . S
H1776 C1786 0.930 . S
H1777 C1787 0.930 . S
C1778 H1772 0.930 . S
C1778 C1779 1.355 . S
C1778 C1780 1.415 . S
C1779 C1778 1.355 . S
C1779 C1781 1.419 . S
C1780 C1778 1.415 . S
C1780 C1785 1.425 . S
C1780 C1787 1.409 . S
C1781 H1773 0.930 1_556 S
C1781 C1779 1.419 . S
C1781 C1782 1.362 . S
C1782 H1774 0.930 . S
C1782 C1781 1.362 . S
C1782 C1785 1.409 . S
C1783 H1775 0.930 . S
C1783 C1784 1.355 . S
C1783 C1785 1.415 . S
C1784 C1783 1.355 . S
C1784 C1786 1.419 . S
C1785 C1780 1.425 . S
C1785 C1782 1.409 . S
C1785 C1783 1.415 . S
C1786 H1776 0.930 . S
C1786 C1784 1.419 . S
C1786 C1787 1.362 . S
C1787 H1777 0.930 . S
C1787 C1780 1.409 . S
C1787 C1786 1.362 . S
H1788 C1794 0.930 . S
H1789 C1797 0.930 . S
H1790 C1798 0.930 . S
H1791 C1799 0.930 . S
H1792 C1802 0.930 . S
H1793 C1803 0.930 . S
C1794 H1788 0.930 . S
C1794 C1795 1.355 . S
C1794 C1796 1.415 . S
C1795 C1794 1.355 . S
C1795 C1797 1.419 . S
C1796 C1794 1.415 . S
C1796 C1801 1.425 . S
C1796 C1803 1.409 . S
C1797 H1789 0.930 . S
C1797 C1795 1.419 . S
C1797 C1798 1.362 . S
C1798 H1790 0.930 . S
C1798 C1797 1.362 . S
C1798 C1801 1.409 . S
C1799 H1791 0.930 . S
C1799 C1800 1.355 . S
C1799 C1801 1.415 . S
C1800 C1799 1.355 . S
C1800 C1802 1.419 . S
C1801 C1796 1.425 . S
C1801 C1798 1.409 . S
C1801 C1799 1.415 . S
C1802 H1792 0.930 . S
C1802 C1800 1.419 . S
C1802 C1803 1.362 . S
C1803 H1793 0.930 . S
C1803 C1796 1.409 . S
C1803 C1802 1.362 . S
H1804 C1810 0.930 . S
H1805 C1813 0.930 . S
H1806 C1814 0.930 . S
H1807 C1815 0.930 . S
H1808 C1818 0.930 . S
H1809 C1819 0.930 . S
C1810 H1804 0.930 . S
C1810 C1811 1.355 . S
C1810 C1812 1.415 . S
C1811 C1810 1.355 . S
C1811 C1813 1.419 . S
C1812 C1810 1.415 . S
C1812 C1817 1.425 . S
C1812 C1819 1.409 . S
C1813 H1805 0.930 . S
C1813 C1811 1.419 . S
C1813 C1814 1.362 . S
C1814 H1806 0.930 . S
C1814 C1813 1.362 . S
C1814 C1817 1.409 . S
C1815 H1807 0.930 . S
C1815 C1816 1.355 . S
C1815 C1817 1.415 . S
C1816 C1815 1.355 . S
C1816 C1818 1.419 . S
C1817 C1812 1.425 . S
C1817 C1814 1.409 . S
C1817 C1815 1.415 . S
C1818 H1808 0.930 . S
C1818 C1816 1.419 . S
C1818 C1819 1.362 . S
C1819 H1809 0.930 . S
C1819 C1812 1.409 . S
C1819 C1818 1.362 . S
H1820 C1826 0.930 1_554 S
H1821 C1829 0.930 . S
H1822 C1830 0.930 . S
H1823 C1831 0.930 . S
H1824 C1834 0.930 . S
H1825 C1835 0.930 1_554 S
C1826 H1820 0.930 1_556 S
C1826 C1827 1.355 . S
C1826 C1828 1.415 . S
C1827 C1826 1.355 . S
C1827 C1829 1.419 . S
C1828 C1826 1.415 . S
C1828 C1833 1.425 . S
C1828 C1835 1.409 . S
C1829 H1821 0.930 . S
C1829 C1827 1.419 . S
C1829 C1830 1.362 . S
C1830 H1822 0.930 . S
C1830 C1829 1.362 . S
C1830 C1833 1.409 . S
C1831 H1823 0.930 . S
C1831 C1832 1.355 . S
C1831 C1833 1.415 . S
C1832 C1831 1.355 . S
C1832 C1834 1.419 . S
C1833 C1828 1.425 . S
C1833 C1830 1.409 . S
C1833 C1831 1.415 . S
C1834 H1824 0.930 . S
C1834 C1832 1.419 . S
C1834 C1835 1.362 . S
C1835 H1825 0.930 1_556 S
C1835 C1828 1.409 . S
C1835 C1834 1.362 . S
H1836 C1842 0.930 . S
H1837 C1845 0.930 . S
H1838 C1846 0.930 . S
H1839 C1847 0.930 . S
H1840 C1850 0.930 . S
H1841 C1851 0.930 . S
C1842 H1836 0.930 . S
C1842 C1843 1.355 . S
C1842 C1844 1.415 . S
C1843 C1842 1.355 . S
C1843 C1845 1.419 . S
C1844 C1842 1.415 . S
C1844 C1849 1.425 . S
C1844 C1851 1.409 . S
C1845 H1837 0.930 . S
C1845 C1843 1.419 . S
C1845 C1846 1.362 . S
C1846 H1838 0.930 . S
C1846 C1845 1.362 . S
C1846 C1849 1.409 . S
C1847 H1839 0.930 . S
C1847 C1848 1.355 . S
C1847 C1849 1.415 . S
C1848 C1847 1.355 . S
C1848 C1850 1.419 . S
C1849 C1844 1.425 . S
C1849 C1846 1.409 . S
C1849 C1847 1.415 . S
C1850 H1840 0.930 . S
C1850 C1848 1.419 . S
C1850 C1851 1.362 . S
C1851 H1841 0.930 . S
C1851 C1844 1.409 . S
C1851 C1850 1.362 . S
H1852 C1858 0.930 . S
H1853 C1861 0.930 . S
H1854 C1862 0.930 . S
H1855 C1863 0.930 . S
H1856 C1866 0.930 . S
H1857 C1867 0.930 . S
C1858 H1852 0.930 . S
C1858 C1859 1.355 . S
C1858 C1860 1.415 . S
C1859 C1858 1.355 . S
C1859 C1861 1.419 . S
C1860 C1858 1.415 . S
C1860 C1865 1.425 . S
C1860 C1867 1.409 . S
C1861 H1853 0.930 . S
C1861 C1859 1.419 . S
C1861 C1862 1.362 . S
C1862 H1854 0.930 . S
C1862 C1861 1.362 . S
C1862 C1865 1.409 . S
C1863 H1855 0.930 . S
C1863 C1864 1.355 . S
C1863 C1865 1.415 . S
C1864 C1863 1.355 . S
C1864 C1866 1.419 . S
C1865 C1860 1.425 . S
C1865 C1862 1.409 . S
C1865 C1863 1.415 . S
C1866 H1856 0.930 . S
C1866 C1864 1.419 . S
C1866 C1867 1.362 . S
C1867 H1857 0.930 . S
C1867 C1860 1.409 . S
C1867 C1866 1.362 . S
H1868 C1874 0.930 . S
H1869 C1877 0.930 . S
H1870 C1878 0.930 . S
H1871 C1879 0.930 . S
H1872 C1882 0.930 . S
H1873 C1883 0.930 . S
C1874 H1868 0.930 . S
C1874 C1875 1.355 . S
C1874 C1876 1.415 . S
C1875 C1874 1.355 . S
C1875 C1877 1.419 . S
C1876 C1874 1.415 . S
C1876 C1881 1.425 . S
C1876 C1883 1.409 . S
C1877 H1869 0.930 . S
C1877 C1875 1.419 . S
C1877 C1878 1.362 . S
C1878 H1870 0.930 . S
C1878 C1877 1.362 . S
C1878 C1881 1.409 . S
C1879 H1871 0.930 . S
C1879 C1880 1.355 . S
C1879 C1881 1.415 . S
C1880 C1879 1.355 . S
C1880 C1882 1.419 . S
C1881 C1876 1.425 . S
C1881 C1878 1.409 . S
C1881 C1879 1.415 . S
C1882 H1872 0.930 . S
C1882 C1880 1.419 . S
C1882 C1883 1.362 . S
C1883 H1873 0.930 . S
C1883 C1876 1.409 . S
C1883 C1882 1.362 . S
H1884 C1890 0.930 . S
H1885 C1893 0.930 . S
H1886 C1894 0.930 . S
H1887 C1895 0.930 . S
H1888 C1898 0.930 . S
H1889 C1899 0.930 . S
C1890 H1884 0.930 . S
C1890 C1891 1.355 . S
C1890 C1892 1.415 . S
C1891 C1890 1.355 . S
C1891 C1893 1.419 . S
C1892 C1890 1.415 . S
C1892 C1897 1.425 . S
C1892 C1899 1.409 . S
C1893 H1885 0.930 . S
C1893 C1891 1.419 . S
C1893 C1894 1.362 . S
C1894 H1886 0.930 . S
C1894 C1893 1.362 . S
C1894 C1897 1.409 . S
C1895 H1887 0.930 . S
C1895 C1896 1.355 . S
C1895 C1897 1.415 . S
C1896 C1895 1.355 . S
C1896 C1898 1.419 . S
C1897 C1892 1.425 . S
C1897 C1894 1.409 . S
C1897 C1895 1.415 . S
C1898 H1888 0.930 . S
C1898 C1896 1.419 . S
C1898 C1899 1.362 . S
C1899 H1889 0.930 . S
C1899 C1892 1.409 . S
C1899 C1898 1.362 . S
H1900 C1906 0.930 . S
H1901 C1909 0.930 . S
H1902 C1910 0.930 . S
H1903 C1911 0.930 . S
H1904 C1914 0.930 . S
H1905 C1915 0.930 . S
C1906 H1900 0.930 . S
C1906 C1907 1.355 . S
C1906 C1908 1.415 . S
C1907 C1906 1.355 . S
C1907 C1909 1.419 . S
C1908 C1906 1.415 . S
C1908 C1913 1.425 . S
C1908 C1915 1.409 . S
C1909 H1901 0.930 . S
C1909 C1907 1.419 . S
C1909 C1910 1.362 . S
C1910 H1902 0.930 . S
C1910 C1909 1.362 . S
C1910 C1913 1.409 . S
C1911 H1903 0.930 . S
C1911 C1912 1.355 . S
C1911 C1913 1.415 . S
C1912 C1911 1.355 . S
C1912 C1914 1.419 . S
C1913 C1908 1.425 . S
C1913 C1910 1.409 . S
C1913 C1911 1.415 . S
C1914 H1904 0.930 . S
C1914 C1912 1.419 . S
C1914 C1915 1.362 . S
C1915 H1905 0.930 . S
C1915 C1908 1.409 . S
C1915 C1914 1.362 . S
H1916 C1922 0.930 . S
H1917 C1925 0.930 . S
H1918 C1926 0.930 . S
H1919 C1927 0.930 . S
H1920 C1930 0.930 . S
H1921 C1931 0.930 . S
C1922 H1916 0.930 . S
C1922 C1923 1.355 . S
C1922 C1924 1.415 . S
C1923 C1922 1.355 . S
C1923 C1925 1.419 . S
C1924 C1922 1.415 . S
C1924 C1929 1.425 . S
C1924 C1931 1.409 . S
C1925 H1917 0.930 . S
C1925 C1923 1.419 . S
C1925 C1926 1.362 . S
C1926 H1918 0.930 . S
C1926 C1925 1.362 . S
C1926 C1929 1.409 . S
C1927 H1919 0.930 . S
C1927 C1928 1.355 . S
C1927 C1929 1.415 . S
C1928 C1927 1.355 . S
C1928 C1930 1.419 . S
C1929 C1924 1.425 . S
C1929 C1926 1.409 . S
C1929 C1927 1.415 . S
C1930 H1920 0.930 . S
C1930 C1928 1.419 . S
C1930 C1931 1.362 . S
C1931 H1921 0.930 . S
C1931 C1924 1.409 . S
C1931 C1930 1.362 . S
H1932 C1938 0.905 1_655 S
H1933 C1941 0.930 . S
H1934 C1942 0.930 . S
H1935 C1943 0.930 . S
H1936 C1946 0.930 . S
H1937 C1947 0.930 . S
C1938 H1932 0.905 1_455 S
C1938 C1939 1.402 . S
C1938 C1940 1.393 . S
C1939 C1938 1.402 . S
C1939 C1941 1.419 . S
C1940 C1938 1.393 . S
C1940 C1945 1.425 . S
C1940 C1947 1.409 1_455 S
C1941 H1933 0.930 . S
C1941 C1939 1.419 . S
C1941 C1942 1.362 . S
C1942 H1934 0.930 . S
C1942 C1941 1.362 . S
C1942 C1945 1.409 . S
C1943 H1935 0.930 . S
C1943 C1944 1.355 . S
C1943 C1945 1.415 . S
C1944 C1943 1.355 . S
C1944 C1946 1.419 1_455 S
C1945 C1940 1.425 . S
C1945 C1942 1.409 . S
C1945 C1943 1.415 . S
C1946 H1936 0.930 . S
C1946 C1944 1.419 1_655 S
C1946 C1947 1.362 . S
C1947 H1937 0.930 . S
C1947 C1940 1.409 1_655 S
C1947 C1946 1.362 . S
H1948 C1954 0.930 . S
H1949 C1957 0.930 . S
H1950 C1958 0.930 . S
H1951 C1959 0.930 . S
H1952 C1962 0.930 . S
H1953 C1963 0.930 . S
C1954 H1948 0.930 . S
C1954 C1955 1.355 . S
C1954 C1956 1.415 . S
C1955 C1954 1.355 . S
C1955 C1957 1.419 . S
C1956 C1954 1.415 . S
C1956 C1961 1.425 . S
C1956 C1963 1.409 . S
C1957 H1949 0.930 . S
C1957 C1955 1.419 . S
C1957 C1958 1.362 . S
C1958 H1950 0.930 . S
C1958 C1957 1.362 . S
C1958 C1961 1.409 . S
C1959 H1951 0.930 . S
C1959 C1960 1.355 . S
C1959 C1961 1.415 . S
C1960 C1959 1.355 . S
C1960 C1962 1.419 . S
C1961 C1956 1.425 . S
C1961 C1958 1.409 . S
C1961 C1959 1.415 . S
C1962 H1952 0.930 . S
C1962 C1960 1.419 . S
C1962 C1963 1.362 . S
C1963 H1953 0.930 . S
C1963 C1956 1.409 . S
C1963 C1962 1.362 . S
H1964 C1970 0.930 . S
H1965 C1973 0.930 . S
H1966 C1974 0.930 . S
H1967 C1975 0.930 . S
H1968 C1978 0.930 . S
H1969 C1979 0.930 . S
C1970 H1964 0.930 . S
C1970 C1971 1.355 . S
C1970 C1972 1.415 . S
C1971 C1970 1.355 . S
C1971 C1973 1.419 . S
C1972 C1970 1.415 . S
C1972 C1977 1.425 . S
C1972 C1979 1.409 . S
C1973 H1965 0.930 . S
C1973 C1971 1.419 . S
C1973 C1974 1.362 . S
C1974 H1966 0.930 . S
C1974 C1973 1.362 . S
C1974 C1977 1.409 . S
C1975 H1967 0.930 . S
C1975 C1976 1.355 . S
C1975 C1977 1.415 . S
C1976 C1975 1.355 . S
C1976 C1978 1.419 . S
C1977 C1972 1.425 . S
C1977 C1974 1.409 . S
C1977 C1975 1.415 . S
C1978 H1968 0.930 . S
C1978 C1976 1.419 . S
C1978 C1979 1.362 . S
C1979 H1969 0.930 . S
C1979 C1972 1.409 . S
C1979 C1978 1.362 . S
H1980 C1986 0.930 . S
H1981 C1989 0.930 . S
H1982 C1990 0.930 . S
H1983 C1991 0.930 . S
H1984 C1994 0.930 1_545 S
H1985 C1995 0.935 1_545 S
C1986 H1980 0.930 . S
C1986 C1987 1.355 . S
C1986 C1988 1.415 . S
C1987 C1986 1.355 . S
C1987 C1989 1.419 . S
C1988 C1986 1.415 . S
C1988 C1993 1.425 . S
C1988 C1995 1.409 . S
C1989 H1981 0.930 . S
C1989 C1987 1.419 . S
C1989 C1990 1.362 . S
C1990 H1982 0.930 . S
C1990 C1989 1.362 . S
C1990 C1993 1.409 . S
C1991 H1983 0.930 . S
C1991 C1992 1.355 . S
C1991 C1993 1.415 . S
C1992 C1991 1.355 . S
C1992 C1994 1.419 . S
C1993 C1988 1.425 . S
C1993 C1990 1.409 . S
C1993 C1991 1.415 . S
C1994 H1984 0.930 1_565 S
C1994 C1992 1.419 . S
C1994 C1995 1.362 . S
C1995 H1985 0.935 1_565 S
C1995 C1988 1.409 . S
C1995 C1994 1.362 . S
H1996 C2002 0.930 . S
H1997 C2005 0.930 . S
H1998 C2006 0.930 . S
H1999 C2007 0.930 . S
H2000 C2010 0.930 . S
H2001 C2011 0.930 . S
C2002 H1996 0.930 . S
C2002 C2003 1.355 . S
C2002 C2004 1.415 . S
C2003 C2002 1.355 . S
C2003 C2005 1.419 1_455 S
C2004 C2002 1.415 . S
C2004 C2009 1.425 1_455 S
C2004 C2011 1.409 . S
C2005 H1997 0.930 . S
C2005 C2003 1.419 1_655 S
C2005 C2006 1.362 . S
C2006 H1998 0.930 . S
C2006 C2005 1.362 . S
C2006 C2009 1.409 . S
C2007 H1999 0.930 . S
C2007 C2008 1.355 1_655 S
C2007 C2009 1.415 . S
C2008 C2007 1.355 1_455 S
C2008 C2010 1.419 . S
C2009 C2004 1.425 1_655 S
C2009 C2006 1.409 . S
C2009 C2007 1.415 . S
C2010 H2000 0.930 . S
C2010 C2008 1.419 . S
C2010 C2011 1.362 . S
C2011 H2001 0.930 . S
C2011 C2004 1.409 . S
C2011 C2010 1.362 . S
H2012 C2018 0.930 . S
H2013 C2021 0.930 . S
H2014 C2022 0.930 . S
H2015 C2023 0.930 . S
H2016 C2026 0.930 . S
H2017 C2027 0.930 . S
C2018 H2012 0.930 . S
C2018 C2019 1.355 . S
C2018 C2020 1.415 . S
C2019 C2018 1.355 . S
C2019 C2021 1.419 . S
C2020 C2018 1.415 . S
C2020 C2025 1.425 . S
C2020 C2027 1.409 . S
C2021 H2013 0.930 . S
C2021 C2019 1.419 . S
C2021 C2022 1.362 . S
C2022 H2014 0.930 . S
C2022 C2021 1.362 . S
C2022 C2025 1.409 . S
C2023 H2015 0.930 . S
C2023 C2024 1.355 . S
C2023 C2025 1.415 . S
C2024 C2023 1.355 . S
C2024 C2026 1.419 . S
C2025 C2020 1.425 . S
C2025 C2022 1.409 . S
C2025 C2023 1.415 . S
C2026 H2016 0.930 . S
C2026 C2024 1.419 . S
C2026 C2027 1.362 . S
C2027 H2017 0.930 . S
C2027 C2020 1.409 . S
C2027 C2026 1.362 . S
H2028 C2034 0.930 . S
H2029 C2037 0.930 . S
H2030 C2038 0.930 . S
H2031 C2039 0.930 . S
H2032 C2042 0.930 . S
H2033 C2043 0.930 . S
C2034 H2028 0.930 . S
C2034 C2035 1.355 . S
C2034 C2036 1.415 . S
C2035 C2034 1.355 . S
C2035 C2037 1.419 . S
C2036 C2034 1.415 . S
C2036 C2041 1.425 . S
C2036 C2043 1.409 . S
C2037 H2029 0.930 . S
C2037 C2035 1.419 . S
C2037 C2038 1.362 . S
C2038 H2030 0.930 . S
C2038 C2037 1.362 . S
C2038 C2041 1.409 . S
C2039 H2031 0.930 . S
C2039 C2040 1.355 . S
C2039 C2041 1.415 . S
C2040 C2039 1.355 . S
C2040 C2042 1.419 . S
C2041 C2036 1.425 . S
C2041 C2038 1.409 . S
C2041 C2039 1.415 . S
C2042 H2032 0.930 . S
C2042 C2040 1.419 . S
C2042 C2043 1.362 . S
C2043 H2033 0.930 . S
C2043 C2036 1.409 . S
C2043 C2042 1.362 . S
H2044 C2050 0.930 . S
H2045 C2053 0.930 . S
H2046 C2054 0.930 . S
H2047 C2055 0.930 . S
H2048 C2058 0.930 . S
H2049 C2059 0.930 . S
C2050 H2044 0.930 . S
C2050 C2051 1.355 . S
C2050 C2052 1.415 . S
C2051 C2050 1.355 . S
C2051 C2053 1.419 . S
C2052 C2050 1.415 . S
C2052 C2057 1.425 . S
C2052 C2059 1.409 . S
C2053 H2045 0.930 . S
C2053 C2051 1.419 . S
C2053 C2054 1.362 . S
C2054 H2046 0.930 . S
C2054 C2053 1.362 . S
C2054 C2057 1.409 . S
C2055 H2047 0.930 . S
C2055 C2056 1.355 . S
C2055 C2057 1.415 . S
C2056 C2055 1.355 . S
C2056 C2058 1.419 . S
C2057 C2052 1.425 . S
C2057 C2054 1.409 . S
C2057 C2055 1.415 . S
C2058 H2048 0.930 . S
C2058 C2056 1.419 . S
C2058 C2059 1.362 . S
C2059 H2049 0.930 . S
C2059 C2052 1.409 . S
C2059 C2058 1.362 . S
H2060 C2066 0.930 . S
H2061 C2069 0.930 . S
H2062 C2070 0.930 . S
H2063 C2071 0.930 . S
H2064 C2074 0.930 . S
H2065 C2075 0.930 . S
C2066 H2060 0.930 . S
C2066 C2067 1.355 . S
C2066 C2068 1.415 . S
C2067 C2066 1.355 . S
C2067 C2069 1.419 . S
C2068 C2066 1.415 . S
C2068 C2073 1.425 . S
C2068 C2075 1.409 . S
C2069 H2061 0.930 . S
C2069 C2067 1.419 . S
C2069 C2070 1.362 . S
C2070 H2062 0.930 . S
C2070 C2069 1.362 . S
C2070 C2073 1.409 . S
C2071 H2063 0.930 . S
C2071 C2072 1.355 . S
C2071 C2073 1.415 . S
C2072 C2071 1.355 . S
C2072 C2074 1.419 . S
C2073 C2068 1.425 . S
C2073 C2070 1.409 . S
C2073 C2071 1.415 . S
C2074 H2064 0.930 . S
C2074 C2072 1.419 . S
C2074 C2075 1.362 . S
C2075 H2065 0.930 . S
C2075 C2068 1.409 . S
C2075 C2074 1.362 . S
H2076 C2082 0.930 . S
H2077 C2085 0.930 . S
H2078 C2086 0.930 . S
H2079 C2087 0.930 . S
H2080 C2090 0.930 1_565 S
H2081 C2091 0.930 . S
C2082 H2076 0.930 . S
C2082 C2083 1.355 . S
C2082 C2084 1.415 . S
C2083 C2082 1.355 . S
C2083 C2085 1.419 . S
C2084 C2082 1.415 . S
C2084 C2089 1.425 . S
C2084 C2091 1.409 . S
C2085 H2077 0.930 . S
C2085 C2083 1.419 . S
C2085 C2086 1.362 . S
C2086 H2078 0.930 . S
C2086 C2085 1.362 . S
C2086 C2089 1.409 . S
C2087 H2079 0.930 . S
C2087 C2088 1.355 . S
C2087 C2089 1.415 . S
C2088 C2087 1.355 . S
C2088 C2090 1.419 . S
C2089 C2084 1.425 . S
C2089 C2086 1.409 . S
C2089 C2087 1.415 . S
C2090 H2080 0.930 1_545 S
C2090 C2088 1.419 . S
C2090 C2091 1.362 . S
C2091 H2081 0.930 . S
C2091 C2084 1.409 . S
C2091 C2090 1.362 . S
H2092 C2098 0.930 . S
H2093 C2101 0.930 . S
H2094 C2102 0.930 . S
H2095 C2103 0.930 . S
H2096 C2106 0.930 . S
H2097 C2107 0.930 . S
C2098 H2092 0.930 . S
C2098 C2099 1.355 . S
C2098 C2100 1.415 . S
C2099 C2098 1.355 . S
C2099 C2101 1.419 1_655 S
C2100 C2098 1.415 . S
C2100 C2105 1.425 1_655 S
C2100 C2107 1.409 . S
C2101 H2093 0.930 . S
C2101 C2099 1.419 1_455 S
C2101 C2102 1.362 . S
C2102 H2094 0.930 . S
C2102 C2101 1.362 . S
C2102 C2105 1.409 . S
C2103 H2095 0.930 . S
C2103 C2104 1.355 1_455 S
C2103 C2105 1.415 . S
C2104 C2103 1.355 1_655 S
C2104 C2106 1.419 . S
C2105 C2100 1.425 1_455 S
C2105 C2102 1.409 . S
C2105 C2103 1.415 . S
C2106 H2096 0.930 . S
C2106 C2104 1.419 . S
C2106 C2107 1.362 . S
C2107 H2097 0.930 . S
C2107 C2100 1.409 . S
C2107 C2106 1.362 . S
H2108 C2114 0.930 . S
H2109 C2117 0.930 . S
H2110 C2118 0.930 . S
H2111 C2119 0.930 . S
H2112 C2122 0.930 . S
H2113 C2123 0.930 . S
C2114 H2108 0.930 . S
C2114 C2115 1.355 . S
C2114 C2116 1.415 . S
C2115 C2114 1.355 . S
C2115 C2117 1.419 . S
C2116 C2114 1.415 . S
C2116 C2121 1.425 . S
C2116 C2123 1.409 . S
C2117 H2109 0.930 . S
C2117 C2115 1.419 . S
C2117 C2118 1.362 . S
C2118 H2110 0.930 . S
C2118 C2117 1.362 . S
C2118 C2121 1.409 . S
C2119 H2111 0.930 . S
C2119 C2120 1.355 . S
C2119 C2121 1.415 . S
C2120 C2119 1.355 . S
C2120 C2122 1.419 . S
C2121 C2116 1.425 . S
C2121 C2118 1.409 . S
C2121 C2119 1.415 . S
C2122 H2112 0.930 . S
C2122 C2120 1.419 . S
C2122 C2123 1.362 . S
C2123 H2113 0.930 . S
C2123 C2116 1.409 . S
C2123 C2122 1.362 . S
H2124 C2130 0.930 . S
H2125 C2133 0.930 . S
H2126 C2134 0.930 . S
H2127 C2135 0.930 . S
H2128 C2138 0.930 . S
H2129 C2139 0.930 . S
C2130 H2124 0.930 . S
C2130 C2131 1.355 . S
C2130 C2132 1.415 . S
C2131 C2130 1.355 . S
C2131 C2133 1.419 . S
C2132 C2130 1.415 . S
C2132 C2137 1.425 . S
C2132 C2139 1.409 . S
C2133 H2125 0.930 . S
C2133 C2131 1.419 . S
C2133 C2134 1.362 . S
C2134 H2126 0.930 . S
C2134 C2133 1.362 . S
C2134 C2137 1.409 . S
C2135 H2127 0.930 . S
C2135 C2136 1.355 . S
C2135 C2137 1.415 . S
C2136 C2135 1.355 . S
C2136 C2138 1.419 . S
C2137 C2132 1.425 . S
C2137 C2134 1.409 . S
C2137 C2135 1.415 . S
C2138 H2128 0.930 . S
C2138 C2136 1.419 . S
C2138 C2139 1.362 . S
C2139 H2129 0.930 . S
C2139 C2132 1.409 . S
C2139 C2138 1.362 . S
H2140 C2146 0.930 . S
H2141 C2149 0.930 . S
H2142 C2150 0.930 . S
H2143 C2151 0.930 . S
H2144 C2154 0.930 . S
H2145 C2155 0.930 . S
C2146 H2140 0.930 . S
C2146 C2147 1.355 . S
C2146 C2148 1.415 . S
C2147 C2146 1.355 . S
C2147 C2149 1.419 . S
C2148 C2146 1.415 . S
C2148 C2153 1.425 . S
C2148 C2155 1.409 . S
C2149 H2141 0.930 . S
C2149 C2147 1.419 . S
C2149 C2150 1.362 . S
C2150 H2142 0.930 . S
C2150 C2149 1.362 . S
C2150 C2153 1.409 . S
C2151 H2143 0.930 . S
C2151 C2152 1.355 . S
C2151 C2153 1.415 . S
C2152 C2151 1.355 . S
C2152 C2154 1.419 . S
C2153 C2148 1.425 . S
C2153 C2150 1.409 . S
C2153 C2151 1.415 . S
C2154 H2144 0.930 . S
C2154 C2152 1.419 . S
C2154 C2155 1.362 . S
C2155 H2145 0.930 . S
C2155 C2148 1.409 . S
C2155 C2154 1.362 . S
H2156 C2162 0.930 . S
H2157 C2165 0.930 . S
H2158 C2166 0.930 . S
H2159 C2167 0.930 . S
H2160 C2170 0.930 . S
H2161 C2171 0.930 . S
C2162 H2156 0.930 . S
C2162 C2163 1.355 . S
C2162 C2164 1.415 . S
C2163 C2162 1.355 . S
C2163 C2165 1.419 . S
C2164 C2162 1.415 . S
C2164 C2169 1.425 . S
C2164 C2171 1.409 . S
C2165 H2157 0.930 . S
C2165 C2163 1.419 . S
C2165 C2166 1.362 . S
C2166 H2158 0.930 . S
C2166 C2165 1.362 . S
C2166 C2169 1.409 . S
C2167 H2159 0.930 . S
C2167 C2168 1.355 . S
C2167 C2169 1.415 . S
C2168 C2167 1.355 . S
C2168 C2170 1.419 . S
C2169 C2164 1.425 . S
C2169 C2166 1.409 . S
C2169 C2167 1.415 . S
C2170 H2160 0.930 . S
C2170 C2168 1.419 . S
C2170 C2171 1.362 . S
C2171 H2161 0.930 . S
C2171 C2164 1.409 . S
C2171 C2170 1.362 . S
H2172 C2178 0.930 . S
H2173 C2181 0.930 . S
H2174 C2182 0.930 . S
H2175 C2183 0.930 . S
H2176 C2186 0.930 . S
H2177 C2187 0.930 . S
C2178 H2172 0.930 . S
C2178 C2179 1.355 . S
C2178 C2180 1.415 . S
C2179 C2178 1.355 . S
C2179 C2181 1.419 . S
C2180 C2178 1.415 . S
C2180 C2185 1.425 . S
C2180 C2187 1.409 . S
C2181 H2173 0.930 . S
C2181 C2179 1.419 . S
C2181 C2182 1.362 . S
C2182 H2174 0.930 . S
C2182 C2181 1.362 . S
C2182 C2185 1.409 . S
C2183 H2175 0.930 . S
C2183 C2184 1.355 . S
C2183 C2185 1.415 . S
C2184 C2183 1.355 . S
C2184 C2186 1.419 . S
C2185 C2180 1.425 . S
C2185 C2182 1.409 . S
C2185 C2183 1.415 . S
C2186 H2176 0.930 . S
C2186 C2184 1.419 . S
C2186 C2187 1.362 . S
C2187 H2177 0.930 . S
C2187 C2180 1.409 . S
C2187 C2186 1.362 . S
H2188 C2194 0.930 . S
H2189 C2197 0.930 . S
H2190 C2198 0.930 . S
H2191 C2199 0.930 . S
H2192 C2202 0.930 . S
H2193 C2203 0.930 . S
C2194 H2188 0.930 . S
C2194 C2195 1.355 . S
C2194 C2196 1.415 . S
C2195 C2194 1.355 . S
C2195 C2197 1.419 . S
C2196 C2194 1.415 . S
C2196 C2201 1.425 . S
C2196 C2203 1.409 . S
C2197 H2189 0.930 . S
C2197 C2195 1.419 . S
C2197 C2198 1.362 . S
C2198 H2190 0.930 . S
C2198 C2197 1.362 . S
C2198 C2201 1.409 . S
C2199 H2191 0.930 . S
C2199 C2200 1.355 . S
C2199 C2201 1.415 . S
C2200 C2199 1.355 . S
C2200 C2202 1.419 . S
C2201 C2196 1.425 . S
C2201 C2198 1.409 . S
C2201 C2199 1.415 . S
C2202 H2192 0.930 . S
C2202 C2200 1.419 . S
C2202 C2203 1.362 . S
C2203 H2193 0.930 . S
C2203 C2196 1.409 . S
C2203 C2202 1.362 . S
H2204 C2210 0.930 . S
H2205 C2213 0.930 . S
H2206 C2214 0.930 . S
H2207 C2215 0.930 . S
H2208 C2218 0.930 . S
H2209 C2219 0.930 . S
C2210 H2204 0.930 . S
C2210 C2211 1.355 . S
C2210 C2212 1.415 . S
C2211 C2210 1.355 . S
C2211 C2213 1.419 . S
C2212 C2210 1.415 . S
C2212 C2217 1.425 . S
C2212 C2219 1.409 . S
C2213 H2205 0.930 . S
C2213 C2211 1.419 . S
C2213 C2214 1.362 . S
C2214 H2206 0.930 . S
C2214 C2213 1.362 . S
C2214 C2217 1.409 . S
C2215 H2207 0.930 . S
C2215 C2216 1.355 . S
C2215 C2217 1.415 . S
C2216 C2215 1.355 . S
C2216 C2218 1.419 . S
C2217 C2212 1.425 . S
C2217 C2214 1.409 . S
C2217 C2215 1.415 . S
C2218 H2208 0.930 . S
C2218 C2216 1.419 . S
C2218 C2219 1.362 . S
C2219 H2209 0.930 . S
C2219 C2212 1.409 . S
C2219 C2218 1.362 . S
H2220 C2226 0.930 . S
H2221 C2229 0.930 1_455 S
H2222 C2230 0.930 . S
H2223 C2231 0.955 . S
H2224 C2234 0.930 . S
H2225 C2235 0.930 . S
C2226 H2220 0.930 . S
C2226 C2227 1.355 . S
C2226 C2228 1.415 . S
C2227 C2226 1.355 . S
C2227 C2229 1.419 . S
C2228 C2226 1.415 . S
C2228 C2233 1.425 . S
C2228 C2235 1.409 . S
C2229 H2221 0.930 1_655 S
C2229 C2227 1.419 . S
C2229 C2230 1.362 1_655 S
C2230 H2222 0.930 . S
C2230 C2229 1.362 1_455 S
C2230 C2233 1.409 1_455 S
C2231 H2223 0.955 . S
C2231 C2232 1.365 1_455 S
C2231 C2233 1.381 1_455 S
C2232 C2231 1.365 1_655 S
C2232 C2234 1.419 . S
C2233 C2228 1.425 . S
C2233 C2230 1.409 1_655 S
C2233 C2231 1.381 1_655 S
C2234 H2224 0.930 . S
C2234 C2232 1.419 . S
C2234 C2235 1.362 . S
C2235 H2225 0.930 . S
C2235 C2228 1.409 . S
C2235 C2234 1.362 . S
H2236 C2242 0.930 . S
H2237 C2245 0.930 . S
H2238 C2246 0.930 . S
H2239 C2247 0.930 . S
H2240 C2250 0.930 . S
H2241 C2251 0.930 . S
C2242 H2236 0.930 . S
C2242 C2243 1.355 . S
C2242 C2244 1.415 . S
C2243 C2242 1.355 . S
C2243 C2245 1.419 . S
C2244 C2242 1.415 . S
C2244 C2249 1.425 . S
C2244 C2251 1.409 . S
C2245 H2237 0.930 . S
C2245 C2243 1.419 . S
C2245 C2246 1.362 . S
C2246 H2238 0.930 . S
C2246 C2245 1.362 . S
C2246 C2249 1.409 . S
C2247 H2239 0.930 . S
C2247 C2248 1.355 . S
C2247 C2249 1.415 . S
C2248 C2247 1.355 . S
C2248 C2250 1.419 . S
C2249 C2244 1.425 . S
C2249 C2246 1.409 . S
C2249 C2247 1.415 . S
C2250 H2240 0.930 . S
C2250 C2248 1.419 . S
C2250 C2251 1.362 . S
C2251 H2241 0.930 . S
C2251 C2244 1.409 . S
C2251 C2250 1.362 . S
H2252 C2258 0.930 . S
H2253 C2261 0.930 . S
H2254 C2262 0.930 . S
H2255 C2263 0.930 . S
H2256 C2266 0.930 . S
H2257 C2267 0.930 . S
C2258 H2252 0.930 . S
C2258 C2259 1.355 . S
C2258 C2260 1.415 . S
C2259 C2258 1.355 . S
C2259 C2261 1.419 . S
C2260 C2258 1.415 . S
C2260 C2265 1.425 . S
C2260 C2267 1.409 1_545 S
C2261 H2253 0.930 . S
C2261 C2259 1.419 . S
C2261 C2262 1.362 . S
C2262 H2254 0.930 . S
C2262 C2261 1.362 . S
C2262 C2265 1.409 . S
C2263 H2255 0.930 . S
C2263 C2264 1.355 . S
C2263 C2265 1.415 . S
C2264 C2263 1.355 . S
C2264 C2266 1.419 1_545 S
C2265 C2260 1.425 . S
C2265 C2262 1.409 . S
C2265 C2263 1.415 . S
C2266 H2256 0.930 . S
C2266 C2264 1.419 1_565 S
C2266 C2267 1.362 . S
C2267 H2257 0.930 . S
C2267 C2260 1.409 1_565 S
C2267 C2266 1.362 . S
C1123 C13 1.415 . S
C1128 C729 1.516 . S
C1139 C27 1.410 . S
C1144 C777 1.429 . S
C1160 C825 1.508 . S
C1155 C36 1.378 . S
C1171 C41 1.470 . S
C1176 C849 1.507 . S
C1187 C8 1.527 . S
C1192 C921 1.578 . S
C1203 C22 1.482 . S
C1208 C969 1.509 . S
C1219 C55 1.440 . S
C1224 C897 1.517 . S
C1240 C945 1.440 . S
C1235 C69 1.394 . S
C1256 C873 1.490 . S
C1251 C78 1.451 . S
C1267 C83 1.461 . S
C1272 C801 1.488 . S
C1288 C705 1.610 . S
C1283 C50 1.501 . S
C1299 C64 1.450 . S
C1304 C753 1.526 . S
C1315 C97 1.512 . S
C1320 C1017 1.633 . S
C1331 C111 1.428 . S
C1336 C1065 1.499 . S
C1352 C1089 1.564 . S
C1347 C120 1.559 . S
C1363 C125 1.511 . S
C1368 C273 1.558 . S
C1379 C92 1.693 . S
C1384 C345 1.705 . S
C1395 C106 1.524 . S
C1400 C393 1.553 . S
C1411 C139 1.522 . S
C1416 C321 1.584 . S
C1427 C153 1.449 . S
C1432 C369 1.487 . S
C1448 C297 1.541 . S
C1443 C162 1.558 . S
C1464 C1113 1.577 . S
C1459 C167 1.460 . S
C1480 C993 1.724 . S
C1475 C134 1.627 . S
C1496 C1041 1.571 . S
C1491 C148 1.552 . S
C1507 C181 1.450 . S
C1512 C441 1.597 . S
C1523 C195 1.442 . S
C1528 C489 1.464 . S
C1539 C204 1.533 . S
C1544 C513 1.602 . S
C1555 C209 1.523 . S
C1560 C561 1.620 . S
C1576 C633 1.709 . S
C1571 C176 1.700 . S
C1592 C681 1.593 . S
C1587 C190 1.501 . S
C1608 C609 1.649 . S
C1603 C223 1.503 . S
C1624 C657 1.495 . S
C1619 C237 1.399 . S
C1635 C246 1.547 . S
C1640 C585 1.548 . S
C1656 C537 1.530 . S
C1651 C251 1.502 . S
C1667 C218 1.668 . S
C1672 C417 1.723 . S
C1688 C465 1.574 . S
C1683 C232 1.517 . S
C1704 C282 1.516 . S
C1699 C11 1.501 . S
C1715 C25 1.345 . S
C1720 C336 1.354 . S
C1736 C384 1.431 . S
C1731 C35 1.483 . S
C1752 C432 1.498 . S
C1747 C39 1.513 . S
C1768 C480 1.520 . S
C1763 C7 1.567 . S
C1784 C522 1.454 . S
C1779 C21 1.454 . S
C1795 C53 1.513 . S
C1800 C528 1.521 . S
C1811 C67 1.334 . S
C1816 C426 1.309 . S
C1827 C77 1.457 1_556 S
C1832 C474 1.433 . S
C1843 C81 1.474 . S
C1848 C330 1.468 . S
C1864 C378 1.553 . S
C1859 C49 1.575 . S
C1875 C63 1.453 . S
C1880 C288 1.421 . S
C1896 C570 1.480 . S
C1891 C95 1.461 . S
C1907 C109 1.447 . S
C1912 C624 1.451 . S
C1923 C119 1.526 . S
C1928 C672 1.483 . S
C1944 C720 1.319 . S
C1939 C123 1.318 . S
C1955 C91 1.516 . S
C1960 C768 1.483 . S
C1971 C105 1.284 . S
C1976 C816 1.280 . S
C1987 C137 1.332 . S
C1992 C810 1.312 . S
C2003 C151 1.194 . S
C2008 C714 1.199 . S
C2024 C762 1.393 . S
C2019 C161 1.430 . S
C2035 C165 1.505 . S
C2040 C618 1.489 . S
C2051 C133 1.589 . S
C2056 C666 1.571 . S
C2072 C576 1.483 . S
C2067 C147 1.521 . S
C2088 C858 1.339 . S
C2083 C179 1.349 . S
C2099 C193 1.189 . S
C2104 C912 1.199 . S
C2115 C203 1.431 . S
C2120 C960 1.388 . S
C2136 C1008 1.423 . S
C2131 C207 1.437 . S
C2152 C1056 1.566 . S
C2147 C175 1.599 . S
C2163 C189 1.523 . S
C2168 C1098 1.514 . S
C2179 C221 1.485 . S
C2184 C1104 1.481 . S
C2195 C235 1.455 . S
C2200 C1002 1.428 . S
C2216 C1050 1.436 . S
C2211 C245 1.507 . S
C2232 C906 1.289 . S
C2227 C249 1.280 . S
C2248 C954 1.509 . S
C2243 C217 1.525 . S
C2259 C231 1.299 . S
C2264 C864 1.320 . S
