# Generated by pormake.
# Topology zzz, (3,6)-cn, num edge types: 1
# Building blocks:
#     Node 0, Type 0, BuildingBlock: ESEHIV_clean_linker_0, # of connection points: 3
#     Node 1, Type 0, BuildingBlock: ESEHIV_clean_linker_0, # of connection points: 3
#     Node 2, Type 0, BuildingBlock: ESEHIV_clean_linker_0, # of connection points: 3
#     Node 3, Type 0, BuildingBlock: ESEHIV_clean_linker_0, # of connection points: 3
#     Node 4, Type 0, BuildingBlock: ESEHIV_clean_linker_0, # of connection points: 3
#     Node 5, Type 0, BuildingBlock: ESEHIV_clean_linker_0, # of connection points: 3
#     Node 6, Type 0, BuildingBlock: ESEHIV_clean_linker_0, # of connection points: 3
#     Node 7, Type 0, BuildingBlock: ESEHIV_clean_linker_0, # of connection points: 3
#     Node 8, Type 1, BuildingBlock: BETDAH_clean_sbu_0, # of connection points: 6
#     Node 9, Type 1, BuildingBlock: BETDAH_clean_sbu_0, # of connection points: 6
#     Node 10, Type 1, BuildingBlock: BETDAH_clean_sbu_0, # of connection points: 6
#     Node 11, Type 1, BuildingBlock: BETDAH_clean_sbu_0, # of connection points: 6
#     Edge 12, Type (0, 1), BuildingBlock: OJICUG_clean_linker_0, # of connection points: 2
#     Edge 13, Type (0, 1), BuildingBlock: OJICUG_clean_linker_0, # of connection points: 2
#     Edge 14, Type (0, 1), BuildingBlock: OJICUG_clean_linker_0, # of connection points: 2
#     Edge 15, Type (0, 1), BuildingBlock: OJICUG_clean_linker_0, # of connection points: 2
#     Edge 16, Type (0, 1), BuildingBlock: OJICUG_clean_linker_0, # of connection points: 2
#     Edge 17, Type (0, 1), BuildingBlock: OJICUG_clean_linker_0, # of connection points: 2
#     Edge 18, Type (0, 1), BuildingBlock: OJICUG_clean_linker_0, # of connection points: 2
#     Edge 19, Type (0, 1), BuildingBlock: OJICUG_clean_linker_0, # of connection points: 2
#     Edge 20, Type (0, 1), BuildingBlock: OJICUG_clean_linker_0, # of connection points: 2
#     Edge 21, Type (0, 1), BuildingBlock: OJICUG_clean_linker_0, # of connection points: 2
#     Edge 22, Type (0, 1), BuildingBlock: OJICUG_clean_linker_0, # of connection points: 2
#     Edge 23, Type (0, 1), BuildingBlock: OJICUG_clean_linker_0, # of connection points: 2
#     Edge 24, Type (0, 1), BuildingBlock: OJICUG_clean_linker_0, # of connection points: 2
#     Edge 25, Type (0, 1), BuildingBlock: OJICUG_clean_linker_0, # of connection points: 2
#     Edge 26, Type (0, 1), BuildingBlock: OJICUG_clean_linker_0, # of connection points: 2
#     Edge 27, Type (0, 1), BuildingBlock: OJICUG_clean_linker_0, # of connection points: 2
#     Edge 28, Type (0, 1), BuildingBlock: OJICUG_clean_linker_0, # of connection points: 2
#     Edge 29, Type (0, 1), BuildingBlock: OJICUG_clean_linker_0, # of connection points: 2
#     Edge 30, Type (0, 1), BuildingBlock: OJICUG_clean_linker_0, # of connection points: 2
#     Edge 31, Type (0, 1), BuildingBlock: OJICUG_clean_linker_0, # of connection points: 2
#     Edge 32, Type (0, 1), BuildingBlock: OJICUG_clean_linker_0, # of connection points: 2
#     Edge 33, Type (0, 1), BuildingBlock: OJICUG_clean_linker_0, # of connection points: 2
#     Edge 34, Type (0, 1), BuildingBlock: OJICUG_clean_linker_0, # of connection points: 2
#     Edge 35, Type (0, 1), BuildingBlock: OJICUG_clean_linker_0, # of connection points: 2
# Relax obj value: 0.631
# Max RMSD: 0.271
# Mean RMSD: 0.254
data_MOF--net-zzz--node1-BETDAH_clean_sbu_0--node2-ESEHIV_clean_linker_0--edge1-OJICUG_clean_linker_0
_symmetry_space_group_name_H-M    P1
_symmetry_Int_Tables_number       1
_symmetry_cell_setting            triclinic
loop_
_symmetry_equiv_pos_as_xyz
'x, y, z'
_cell_length_a     31.797891
_cell_length_b     31.788175
_cell_length_c     10.265844
_cell_angle_alpha  89.745392
_cell_angle_beta   89.978254
_cell_angle_gamma 89.978472
loop_
_atom_site_label
_atom_site_type_symbol
_atom_site_fract_x
_atom_site_fract_y
_atom_site_fract_z
_atom_type_partial_charge
H0 H 0.81882 0.44066 0.42224 0.0
H1 H 0.69992 0.441 0.22487 0.0
H2 H 0.744 0.55308 0.41795 0.0
C3 C 0.78952 0.45617 0.39737 0.0
C4 C 0.78415 0.49799 0.43618 0.0
C5 C 0.75993 0.43565 0.31838 0.0
C6 C 0.72292 0.45687 0.28501 0.0
C7 C 0.71649 0.49922 0.31889 0.0
C8 C 0.74788 0.52023 0.39326 0.0
H9 H 0.09355 0.81409 0.45477 0.0
H10 H 0.08333 0.70158 0.22755 0.0
H11 H 0.97364 0.75355 0.41401 0.0
C12 C 0.07548 0.7874 0.42101 0.0
C13 C 0.03256 0.78629 0.45171 0.0
C14 C 0.09408 0.75792 0.33747 0.0
C15 C 0.06938 0.7248 0.29134 0.0
C16 C 0.02615 0.72252 0.31739 0.0
C17 C 1.00719 0.75409 0.3962 0.0
H18 H 0.72793 0.09738 0.36073 0.0
H19 H 0.84861 0.09508 0.17369 0.0
H20 H 0.80878 0.98987 0.41094 0.0
C21 C 0.75784 0.08203 0.34309 0.0
C22 C 0.76483 0.04234 0.39911 0.0
C23 C 0.78753 0.10106 0.26025 0.0
C24 C 0.82532 0.08022 0.23591 0.0
C25 C 0.8336 0.04021 0.28845 0.0
C26 C 0.80281 1.02066 0.36936 0.0
H27 H 0.45111 0.73499 0.4233 0.0
H28 H 0.56362 0.80953 0.42901 0.0
H29 H 0.45237 0.85519 0.23221 0.0
C30 C 0.46676 0.76442 0.40088 0.0
C31 C 0.44664 0.79465 0.32243 0.0
C32 C 0.50833 0.76937 0.44276 0.0
C33 C 0.53088 0.8059 0.40248 0.0
C34 C 0.5102 0.83784 0.32814 0.0
C35 C 0.468 0.83178 0.29208 0.0
H36 H 0.23865 0.61451 0.20228 0.0
H37 H 0.35444 0.60382 0.41151 0.0
H38 H 0.30899 0.49875 0.18544 0.0
C39 C 0.26678 0.59661 0.22523 0.0
C40 C 0.27044 0.55543 0.17855 0.0
C41 C 0.29655 0.61368 0.31047 0.0
C42 C 0.33203 0.59037 0.34371 0.0
C43 C 0.33772 0.54918 0.29809 0.0
C44 C 0.30591 0.53096 0.21788 0.0
H45 H 0.94869 0.22933 0.21225 0.0
H46 H 0.94736 0.34547 0.42458 0.0
H47 H 0.05771 0.30906 0.20766 0.0
C48 C 0.96345 0.25875 0.2392 0.0
C49 C 1.00425 0.26669 0.1937 0.0
C50 C 0.94289 0.28632 0.32497 0.0
C51 C 0.96322 0.32361 0.36043 0.0
C52 C 1.00465 0.33225 0.32065 0.0
C53 C 0.02565 0.30311 0.23825 0.0
H54 H 0.31686 0.94623 0.19862 0.0
H55 H 0.19589 0.95099 0.383 0.0
H56 H 0.24479 0.06049 0.18355 0.0
C57 C 0.28777 0.96276 0.21897 0.0
C58 C 0.28394 1.0044 0.17557 0.0
C59 C 0.25669 0.94353 0.29619 0.0
C60 C 0.21992 0.9659 0.32383 0.0
C61 C 0.21488 1.0081 0.28527 0.0
C62 C 0.24761 0.02777 0.21197 0.0
H63 H 0.60935 0.31306 0.20431 0.0
H64 H 0.4952 0.24104 0.18168 0.0
H65 H 0.60267 0.1923 0.39106 0.0
C66 C 0.5925 0.2841 0.22437 0.0
C67 C 0.61097 0.253 0.30361 0.0
C68 C 0.55132 0.28021 0.17723 0.0
C69 C 0.52751 0.24409 0.21349 0.0
C70 C 0.5466 0.21136 0.28833 0.0
C71 C 0.58834 0.21637 0.33046 0.0
Ho72 Ho 0.06577 1.02096 0.86083 0.0
Ho73 Ho 0.99166 0.04372 0.74206 0.0
C74 C 1.01742 0.94714 0.707 0.0
C75 C 0.13257 0.99025 0.9702 0.0
C76 C 0.14614 0.94797 1.00693 0.0
C77 C 0.11613 0.91622 1.02156 0.0
C78 C 0.12867 0.87571 0.05349 0.0
C79 C 0.17147 0.86616 0.07179 0.0
C80 C 0.20174 0.89768 0.05444 0.0
C81 C 0.18907 0.9385 1.02044 0.0
C82 C 0.08144 0.05774 0.62435 0.0
C83 C 0.03809 0.11549 0.90063 0.0
C84 C 0.92297 0.06381 0.62439 0.0
C85 C 0.89402 0.09886 0.64885 0.0
C86 C 0.90764 0.13277 0.72418 0.0
C87 C 0.88854 0.17191 0.71 0.0
C88 C 0.85596 0.17767 0.61802 0.0
C89 C 0.83655 0.1414 0.5673 0.0
C90 C 0.85609 0.10218 0.58092 0.0
C91 C 0.97997 0.03067 1.00259 0.0
O92 O 0.04648 0.95573 0.79477 0.0
O93 O 0.99312 0.97753 0.66252 0.0
O94 O 0.12861 0.99589 0.84527 0.0
O95 O 0.10088 1.00588 0.03544 0.0
O96 O 0.0966 0.07012 0.73427 0.0
O97 O 0.05341 0.03055 0.64891 0.0
O98 O 1.01768 0.10843 0.79052 0.0
O99 O 0.05527 0.0832 0.96183 0.0
O100 O 0.92465 0.03478 0.71433 0.0
O101 O 0.96031 0.07522 0.58327 0.0
O102 O 0.96911 0.06374 0.93843 0.0
O103 O 1.00024 1.00679 0.92644 0.0
H104 H 0.08292 0.92287 1.01021 0.0
H105 H 0.1046 0.85209 0.06945 0.0
H106 H 0.23476 0.8909 0.06931 0.0
H107 H 0.2126 0.96275 1.00666 0.0
H108 H 0.9359 0.13028 0.78249 0.0
H109 H 0.90383 0.19819 0.75685 0.0
H110 H 0.80954 0.14402 0.50375 0.0
H111 H 0.8438 0.07544 0.52944 0.0
Ho112 Ho 0.5358 0.05972 0.86062 0.0
Ho113 Ho 0.51716 0.98628 0.73573 0.0
C114 C 0.60912 1.01603 0.68267 0.0
C115 C 0.56737 0.12634 0.96765 0.0
C116 C 0.60408 0.15267 0.93662 0.0
C117 C 0.60923 0.19183 0.99566 0.0
C118 C 0.64912 0.21031 1.00094 0.0
C119 C 0.68428 0.18838 0.95241 0.0
C120 C 0.67664 0.15454 0.86705 0.0
C121 C 0.6367 0.13679 0.85993 0.0
C122 C 0.50142 0.07616 0.62232 0.0
C123 C 0.44448 0.02911 0.91588 0.0
C124 C 0.48426 0.92209 0.61884 0.0
C125 C 0.44233 0.90287 0.62291 0.0
C126 C 0.40716 0.92821 0.64477 0.0
C127 C 0.36699 0.9118 0.63313 0.0
C128 C 0.36095 0.86978 0.59468 0.0
C129 C 0.39622 0.84333 0.58353 0.0
C130 C 0.43681 0.85979 0.59939 0.0
C131 C 0.55204 0.96973 0.97323 0.0
O132 O 0.6009 0.0392 0.78658 0.0
O133 O 0.57832 0.9945 0.62981 0.0
O134 O 0.53676 0.1275 0.884 0.0
O135 O 0.57572 0.088 1.00649 0.0
O136 O 0.48765 0.09045 0.73177 0.0
O137 O 0.52958 0.04902 0.64701 0.0
O138 O 0.45226 1.00781 0.8079 0.0
O139 O 0.47596 0.04862 0.97283 0.0
O140 O 0.50614 0.919 0.72533 0.0
O141 O 0.48613 0.95982 0.56817 0.0
O142 O 0.5652 0.95481 0.86353 0.0
O143 O 0.52389 0.99702 0.9494 0.0
H144 H 0.58329 0.20632 0.04569 0.0
H145 H 0.65321 0.23861 0.05757 0.0
H146 H 0.70198 0.13762 0.82035 0.0
H147 H 0.63248 0.10845 0.8045 0.0
H148 H 0.41057 0.96149 0.66183 0.0
H149 H 0.34086 0.93354 0.64044 0.0
H150 H 0.39244 0.81089 0.55431 0.0
H151 H 0.46381 0.83953 0.58635 0.0
Ho152 Ho 0.49271 0.53202 0.86988 0.0
Ho153 Ho 0.56494 0.51484 0.7303 0.0
C154 C 0.5347 0.6078 0.69483 0.0
C155 C 0.43074 0.5634 1.00045 0.0
C156 C 0.41171 0.60539 0.99953 0.0
C157 C 0.43726 0.64073 0.98185 0.0
C158 C 0.42052 0.6808 0.99221 0.0
C159 C 0.378 0.68645 1.02529 0.0
C160 C 0.35155 0.65113 0.03295 0.0
C161 C 0.36834 0.61067 1.01844 0.0
C162 C 0.47288 0.50063 0.63116 0.0
C163 C 0.52388 0.43937 0.90864 0.0
C164 C 0.62659 0.48257 0.60042 0.0
C165 C 0.64556 0.44046 0.60502 0.0
C166 C 0.61968 0.4052 0.61952 0.0
C167 C 0.63659 0.36508 0.61552 0.0
C168 C 0.6798 0.35905 0.59254 0.0
C169 C 0.70631 0.39437 0.58621 0.0
C170 C 0.68925 0.43497 0.59457 0.0
C171 C 0.58431 0.54592 0.96972 0.0
O172 O 0.51234 0.59804 0.79984 0.0
O173 O 0.55563 0.57784 0.6352 0.0
O174 O 0.42572 0.54186 0.89425 0.0
O175 O 0.46921 0.56117 0.04491 0.0
O176 O 0.45919 0.48604 0.74105 0.0
O177 O 0.50074 0.52815 0.65487 0.0
O178 O 0.54626 0.44891 0.80349 0.0
O179 O 0.50239 0.4693 0.96643 0.0
O180 O 0.63195 0.50526 0.70417 0.0
O181 O 0.58802 0.48454 0.5566 0.0
O182 O 0.59869 0.56037 0.86046 0.0
O183 O 0.55662 0.51843 0.94485 0.0
H184 H 0.47079 0.63754 0.96822 0.0
H185 H 0.4421 0.70716 0.98836 0.0
H186 H 0.31873 0.65474 0.0584 0.0
H187 H 0.34799 0.58359 1.02824 0.0
H188 H 0.58592 0.40841 0.62735 0.0
H189 H 0.61491 0.3388 0.61773 0.0
H190 H 0.7396 0.39055 0.56736 0.0
H191 H 0.70982 0.46198 0.58712 0.0
Ho192 Ho 1.0172 0.49703 0.88822 0.0
Ho193 Ho 0.03496 0.56359 0.72784 0.0
C194 C 0.94265 0.53089 0.69564 0.0
C195 C 0.98566 0.43869 0.0345 0.0
C196 C 0.94635 0.41462 1.02558 0.0
C197 C 0.90873 0.43532 0.99603 0.0
C198 C 0.87089 0.41374 0.99929 0.0
C199 C 0.86955 0.37103 0.03637 0.0
C200 C 0.90762 0.34931 0.05443 0.0
C201 C 0.94593 0.37101 0.0477 0.0
C202 C 0.04781 0.46988 0.65405 0.0
C203 C 0.10953 0.52976 0.92091 0.0
C204 C 0.06551 0.61922 0.57101 0.0
C205 C 0.10225 0.64638 0.55649 0.0
C206 C 0.11983 0.64993 0.43266 0.0
C207 C 0.15692 0.67198 0.41444 0.0
C208 C 0.17802 0.69029 0.52086 0.0
C209 C 0.15889 0.68892 0.64444 0.0
C210 C 0.12106 0.66705 0.66224 0.0
C211 C 0.99899 0.59184 0.95104 0.0
O212 O 0.95137 0.51265 0.80884 0.0
O213 O 0.97342 0.549 0.63057 0.0
O214 O 1.01299 0.43128 0.94333 0.0
O215 O 0.98195 0.47883 0.05936 0.0
O216 O 0.06234 0.45886 0.7667 0.0
O217 O 1.02057 0.49822 0.67168 0.0
O218 O 0.1005 0.54935 0.81028 0.0
O219 O 0.07932 0.51002 0.98365 0.0
O220 O 0.03897 0.62816 0.6634 0.0
O221 O 0.07193 0.57888 0.55756 0.0
O222 O 0.98768 0.60219 0.83453 0.0
O223 O 0.02767 0.56391 0.94442 0.0
H224 H 0.90815 0.46883 0.97793 0.0
H225 H 0.84241 0.43198 0.9862 0.0
H226 H 0.90747 0.31644 0.08225 0.0
H227 H 0.97497 0.35427 0.06568 0.0
H228 H 0.10572 0.6341 0.35017 0.0
H229 H 0.1707 0.6713 0.31798 0.0
H230 H 0.17463 0.70215 0.72837 0.0
H231 H 0.10773 0.66457 0.75908 0.0
C232 C 0.1815 0.06513 0.42134 0.0
C233 C 0.1769 0.03052 0.33778 0.0
H234 H 0.15457 0.10135 0.57678 0.0
C235 C 0.13718 1.01076 0.33235 0.0
H236 H 0.21166 0.0807 0.42978 0.0
C237 C 0.10442 1.02247 0.41654 0.0
C238 C 0.11053 0.05406 0.50994 0.0
H239 H 0.13262 0.98357 0.27088 0.0
H240 H 0.0756 1.0043 0.41574 0.0
C241 C 0.14873 0.07671 0.50653 0.0
C242 C 0.49042 0.1765 0.42309 0.0
C243 C 0.5243 0.17279 0.33619 0.0
H244 H 0.45601 0.1483 0.5806 0.0
C245 C 0.54428 0.13325 0.32568 0.0
H246 H 0.47472 0.20649 0.43494 0.0
C247 C 0.53409 0.09998 0.41046 0.0
C248 C 0.5035 0.10536 0.50774 0.0
H249 H 0.57076 0.12943 0.26039 0.0
H250 H 0.55264 0.07142 0.40691 0.0
C251 C 0.48006 0.14312 0.50766 0.0
C252 C 0.41543 0.54681 0.33997 0.0
C253 C 0.37596 0.52661 0.34775 0.0
H254 H 0.47719 0.55415 0.42102 0.0
C255 C 0.37196 0.49217 0.43306 0.0
H256 H 0.41937 0.57407 0.27759 0.0
C257 C 0.40516 0.48107 0.51742 0.0
C258 C 0.44313 0.50415 0.51843 0.0
H259 H 0.34193 0.47642 0.44349 0.0
H260 H 0.39984 0.45646 0.58885 0.0
C261 C 0.44859 0.53566 0.42355 0.0
C262 C 0.05842 0.36755 0.46402 0.0
C263 C 1.02471 0.37088 0.37596 0.0
H264 H 0.09242 0.3964 0.62112 0.0
C265 C 1.00353 0.40974 0.36664 0.0
H266 H 0.07481 0.33789 0.47557 0.0
C267 C 1.0136 0.44327 0.44934 0.0
C268 C 0.0447 0.43869 0.54566 0.0
H269 H 0.9768 0.41308 0.30222 0.0
H270 H 0.99478 0.47165 0.44419 0.0
C271 C 0.06822 0.40104 0.54824 0.0
C272 C 0.91157 0.04478 0.29176 0.0
C273 C 0.87557 1.02193 0.25541 0.0
H274 H 0.97406 0.06406 0.24159 0.0
C275 C 0.8794 0.99287 0.15303 0.0
H276 H 0.9091 0.0691 0.3645 0.0
C277 C 0.91695 0.99038 0.08005 0.0
C278 C 0.95121 1.01694 0.10842 0.0
H279 H 0.85197 0.97588 0.11953 0.0
H280 H 0.91727 0.97156 0.99232 0.0
C281 C 0.94886 0.04224 0.21969 0.0
C282 C 0.56496 0.87162 0.18375 0.0
C283 C 0.53138 0.87601 0.27168 0.0
H284 H 0.59826 0.89818 1.02086 0.0
C285 C 0.51061 0.91525 0.27644 0.0
H286 H 0.58119 0.84178 0.17561 0.0
C287 C 0.52016 0.94756 0.18759 0.0
C288 C 0.55058 0.94145 0.09028 0.0
H289 H 0.48395 0.91947 0.34054 0.0
H290 H 0.50115 0.97585 0.18822 0.0
C291 C 0.57442 0.90395 0.09401 0.0
C292 C 0.63936 0.49962 0.26452 0.0
C293 C 0.67857 0.52039 0.26143 0.0
H294 H 0.57857 0.49186 0.17751 0.0
C295 C 0.68305 0.55511 0.17731 0.0
H296 H 0.63497 0.47229 0.32625 0.0
C297 C 0.6507 0.56595 0.08963 0.0
C298 C 0.61307 0.54246 0.08458 0.0
H299 H 0.71288 0.57144 0.1708 0.0
H300 H 0.65643 0.5908 1.01931 0.0
C301 C 0.607 0.51064 0.17806 0.0
C302 C 1.01172 0.6463 0.27843 0.0
C303 C 1.00308 0.68855 0.24672 0.0
H304 H 1.01855 0.58258 0.21114 0.0
C305 C 0.98635 0.69713 0.12293 0.0
H306 H 1.02447 0.6388 0.37209 0.0
C307 C 0.98196 0.66487 1.03054 0.0
C308 C 0.99526 0.62334 0.05837 0.0
H309 H 0.98036 0.72934 0.0934 0.0
H310 H 0.97124 0.67332 0.93377 0.0
C311 C 1.00855 0.61413 0.18545 0.0
C312 C 0.89738 0.28091 0.52524 0.0
C313 C 0.90351 0.27253 0.39194 0.0
H314 H 0.87111 0.25917 0.70459 0.0
C315 C 0.87612 0.24397 0.3314 0.0
H316 H 0.91621 0.30397 0.5759 0.0
C317 C 0.85173 0.21679 0.40704 0.0
C318 C 0.85429 0.21831 0.54413 0.0
H319 H 0.8773 0.23904 0.22713 0.0
H320 H 0.83666 0.1909 0.35754 0.0
C321 C 0.87151 0.25478 0.60004 0.0
C322 C 0.25744 0.90059 0.50136 0.0
C323 C 0.26674 0.90387 0.36743 0.0
H324 H 0.28044 0.88088 0.68711 0.0
C325 C 0.29525 0.87489 0.3138 0.0
H326 H 0.23457 0.921 0.54693 0.0
C327 C 0.32229 0.85263 0.39591 0.0
C328 C 0.32054 0.85945 0.53084 0.0
H329 H 0.30122 0.87439 0.20993 0.0
H330 H 0.34936 0.83773 0.35251 0.0
C331 C 0.28366 0.87703 0.58273 0.0
C332 C 0.65197 0.25457 0.51158 0.0
C333 C 0.65018 0.26274 0.3766 0.0
H334 H 0.66922 0.27964 0.69656 0.0
C335 C 0.67982 0.2906 0.32278 0.0
H336 H 0.63093 0.23219 0.55737 0.0
C337 C 0.70124 0.31824 0.4041 0.0
C338 C 0.69258 0.31803 0.53806 0.0
H339 H 0.6813 0.29579 0.2185 0.0
H340 H 0.71625 0.34504 0.35942 0.0
C341 C 0.67453 0.28164 0.59241 0.0
C342 C 0.26741 0.68632 0.31892 0.0
C343 C 0.28542 0.65185 0.38399 0.0
H344 H 0.22001 0.73297 0.32472 0.0
C345 C 0.28088 0.64868 0.51975 0.0
H346 H 0.27137 0.69027 0.21479 0.0
C347 C 0.25019 0.67268 0.58202 0.0
C348 C 0.22368 0.69844 0.50648 0.0
H349 H 0.29544 0.62311 0.5734 0.0
H350 H 0.24159 0.66388 0.68057 0.0
C351 C 0.23821 0.71136 0.38326 0.0
C352 C 0.16356 0.79534 0.33919 0.0
C353 C 0.13552 0.76781 0.27627 0.0
H354 H 0.20038 0.85076 0.31543 0.0
C355 C 0.14096 0.76121 0.1415 0.0
H356 H 0.16298 0.79887 0.44406 0.0
C357 C 0.16487 0.78952 0.06857 0.0
C358 C 0.18163 0.82507 0.12992 0.0
H359 H 0.12165 0.73923 0.08819 0.0
H360 H 0.16222 0.78871 0.96334 0.0
C361 C 0.18643 0.82434 0.26556 0.0
C362 C 0.78527 0.14322 0.05288 0.0
C363 C 0.77627 0.13992 0.18687 0.0
H364 H 0.76497 0.16715 0.86868 0.0
C365 C 0.74892 0.16948 0.24226 0.0
H366 H 0.80752 0.12229 1.00652 0.0
C367 C 0.72326 0.1939 0.16212 0.0
C368 C 0.72492 0.18905 1.02569 0.0
H369 H 0.74336 0.16984 0.34639 0.0
H370 H 0.69789 0.21062 0.20861 0.0
C371 C 0.76049 0.16891 0.97311 0.0
C372 C 0.38028 0.75289 0.30644 0.0
C373 C 0.40741 0.78309 0.25208 0.0
H374 H 0.35005 0.69494 0.26974 0.0
C375 C 0.40389 0.79189 0.11775 0.0
H376 H 0.38001 0.747 0.41044 0.0
C377 C 0.38247 0.76392 0.03703 0.0
C378 C 0.36696 0.72623 0.0902 0.0
H379 H 0.42289 0.8159 0.07145 0.0
H380 H 0.38623 0.76716 0.93252 0.0
C381 C 0.36107 0.72372 0.22538 0.0
C382 C 0.80173 0.36883 0.30786 0.0
C383 C 0.77214 0.39612 0.25064 0.0
H384 H 0.85838 0.33526 0.27493 0.0
C385 C 0.76376 0.3916 0.11655 0.0
H386 H 0.80684 0.36879 0.41218 0.0
C387 C 0.79196 0.36939 0.03838 0.0
C388 C 0.82982 0.3552 0.09371 0.0
H389 H 0.73998 0.41033 0.06815 0.0
H390 H 0.78927 0.37275 0.9336 0.0
C391 C 0.83068 0.34813 0.22878 0.0
C392 C 1.00511 0.2282 0.98078 0.0
C393 C 1.02289 0.23432 0.10495 0.0
H394 H 0.99629 0.18675 0.81848 0.0
C395 C 0.04944 0.20275 0.15488 0.0
H396 H 0.98354 0.25134 0.94114 0.0
C397 C 0.05625 0.16516 0.08545 0.0
C398 C 0.03661 0.15804 0.96417 0.0
H399 H 0.06253 0.20583 0.25175 0.0
H400 H 0.07526 0.14078 0.13014 0.0
C401 C 1.01208 0.19081 0.91102 0.0
C402 C 0.32702 1.00722 0.97064 0.0
C403 C 0.32036 1.02151 0.09862 0.0
H404 H 0.3703 0.99895 0.81262 0.0
C405 C 0.35413 0.04138 0.16229 0.0
H406 H 0.3022 0.99058 0.92018 0.0
C407 C 0.39379 0.04544 0.10139 0.0
C408 C 0.40103 0.0293 0.97539 0.0
H409 H 0.35064 0.05136 0.26246 0.0
H410 H 0.41933 0.05948 0.15573 0.0
C411 C 0.36654 1.01131 0.90978 0.0
C412 C 0.50858 0.34672 0.14648 0.0
C413 C 0.53531 0.31582 0.09422 0.0
H414 H 0.48393 0.40955 0.12994 0.0
C415 C 0.55535 0.32473 0.97477 0.0
H416 H 0.4937 0.34151 0.2401 0.0
C417 C 0.55018 0.36385 0.91198 0.0
C418 C 0.52515 0.39571 0.96708 0.0
H419 H 0.57704 0.30211 0.9334 0.0
H420 H 0.56733 0.36964 0.8229 0.0
C421 C 0.50349 0.38604 0.08374 0.0
C422 C 0.20366 0.51323 0.15123 0.0
C423 C 0.23445 0.53982 0.09694 0.0
H424 H 0.14049 0.4893 0.1398 0.0
C425 C 0.22473 0.56054 0.97891 0.0
H426 H 0.20942 0.4979 0.24396 0.0
C427 C 0.18504 0.55607 0.91949 0.0
C428 C 0.1534 0.53113 0.97702 0.0
H429 H 0.24719 0.58223 0.93627 0.0
H430 H 0.17861 0.57371 0.8312 0.0
C431 C 0.16377 0.50892 0.0922 0.0
C432 C 0.03605 0.82957 0.6549 0.0
C433 C 1.01683 0.82216 0.5333 0.0
H434 H 0.05171 0.8741 0.80367 0.0
C435 C 0.99354 0.85518 0.47675 0.0
H436 H 0.05502 0.80521 0.69997 0.0
C437 C 0.99177 0.89514 0.53632 0.0
C438 C 1.01375 0.9033 0.65313 0.0
H439 H 0.97943 0.8511 0.38163 0.0
H440 H 0.97524 0.92031 0.48662 0.0
C441 C 0.0347 0.86943 0.7135 0.0
C442 C 0.72448 0.04308 0.60985 0.0
C443 C 0.73054 1.0256 0.48535 0.0
H444 H 0.6825 0.05302 0.77089 0.0
C445 C 0.69752 1.00186 0.43175 0.0
H446 H 0.74874 0.06262 0.65232 0.0
C447 C 0.65898 0.99717 0.49832 0.0
C448 C 0.65209 1.0164 0.62025 0.0
H449 H 0.70052 0.98921 0.33438 0.0
H450 H 0.63384 0.98011 0.45093 0.0
C451 C 0.68604 0.03823 0.6768 0.0
C452 C 0.50895 0.72483 0.6453 0.0
C453 C 0.52609 0.73354 0.52142 0.0
H454 H 0.49838 0.67942 0.79688 0.0
C455 C 0.54935 0.7015 0.46043 0.0
H456 H 0.48971 0.74824 0.69338 0.0
C457 C 0.55371 0.66143 0.51905 0.0
C458 C 0.53458 0.65201 0.64003 0.0
H459 H 0.56166 0.70646 0.36318 0.0
H460 H 0.57039 0.63719 0.46619 0.0
C461 C 0.5133 0.68489 0.70382 0.0
C462 C 0.85148 0.53948 0.45158 0.0
C463 C 0.8193 0.51671 0.51408 0.0
H464 H 0.91524 0.56179 0.45875 0.0
C465 C 0.82696 0.50168 0.64115 0.0
H466 H 0.84723 0.55021 0.35215 0.0
C467 C 0.86612 0.50783 0.70213 0.0
C468 C 0.8992 0.52868 0.63733 0.0
H469 H 0.80336 0.48289 0.69054 0.0
H470 H 0.87089 0.49464 0.79811 0.0
C471 C 0.8908 0.5455 0.51239 0.0
loop_
_geom_bond_atom_site_label_1
_geom_bond_atom_site_label_2
_geom_bond_distance
_geom_bond_site_symmetry_2
_ccdc_geom_bond_type
H0 C3 0.931 . S
H1 C6 0.928 . S
H2 C8 0.930 . S
C3 H0 0.931 . S
C3 C4 1.413 . S
C3 C5 1.360 . S
C4 C3 1.413 . S
C4 C8 1.429 . S
C5 C3 1.360 . S
C5 C6 1.372 . S
C6 H1 0.928 . S
C6 C5 1.372 . S
C6 C7 1.404 . S
C7 C6 1.404 . S
C7 C8 1.391 . S
C8 H2 0.930 . S
C8 C4 1.429 . S
C8 C7 1.391 . S
H9 C12 0.931 . S
H10 C15 0.928 . S
H11 C17 0.930 . S
C12 H9 0.931 . S
C12 C13 1.413 . S
C12 C14 1.360 . S
C13 C12 1.413 . S
C13 C17 1.429 1_655 S
C14 C12 1.360 . S
C14 C15 1.372 . S
C15 H10 0.928 . S
C15 C14 1.372 . S
C15 C16 1.404 . S
C16 C15 1.404 . S
C16 C17 1.390 1_655 S
C17 H11 0.930 . S
C17 C13 1.429 1_455 S
C17 C16 1.390 1_455 S
H18 C21 0.931 . S
H19 C24 0.928 . S
H20 C26 0.930 . S
C21 H18 0.931 . S
C21 C22 1.413 . S
C21 C23 1.360 . S
C22 C21 1.413 . S
C22 C26 1.429 1_565 S
C23 C21 1.360 . S
C23 C24 1.372 . S
C24 H19 0.928 . S
C24 C23 1.372 . S
C24 C25 1.404 . S
C25 C24 1.404 . S
C25 C26 1.390 1_565 S
C26 H20 0.930 . S
C26 C22 1.429 1_545 S
C26 C25 1.390 1_545 S
H27 C30 0.931 . S
H28 C33 0.928 . S
H29 C35 0.930 . S
C30 H27 0.931 . S
C30 C31 1.413 . S
C30 C32 1.360 . S
C31 C30 1.413 . S
C31 C35 1.429 . S
C32 C30 1.360 . S
C32 C33 1.372 . S
C33 H28 0.928 . S
C33 C32 1.372 . S
C33 C34 1.404 . S
C34 C33 1.404 . S
C34 C35 1.391 . S
C35 H29 0.930 . S
C35 C31 1.429 . S
C35 C34 1.391 . S
H36 C39 0.931 1_556 S
H37 C42 0.928 . S
H38 C44 0.930 . S
C39 H36 0.931 1_554 S
C39 C40 1.413 1_554 S
C39 C41 1.360 . S
C40 C39 1.413 1_556 S
C40 C44 1.429 . S
C41 C39 1.360 . S
C41 C42 1.372 . S
C42 H37 0.928 . S
C42 C41 1.372 . S
C42 C43 1.404 . S
C43 C42 1.404 . S
C43 C44 1.391 1_554 S
C44 H38 0.930 . S
C44 C40 1.429 . S
C44 C43 1.391 1_556 S
H45 C48 0.931 1_556 S
H46 C51 0.928 . S
H47 C53 0.930 . S
C48 H45 0.931 1_554 S
C48 C49 1.413 1_554 S
C48 C50 1.360 . S
C49 C48 1.413 1_556 S
C49 C53 1.429 1_655 S
C50 C48 1.360 . S
C50 C51 1.372 . S
C51 H46 0.928 . S
C51 C50 1.372 . S
C51 C52 1.404 . S
C52 C51 1.404 . S
C52 C53 1.391 1_654 S
C53 H47 0.930 . S
C53 C49 1.429 1_455 S
C53 C52 1.391 1_456 S
H54 C57 0.931 1_556 S
H55 C60 0.928 . S
H56 C62 0.930 . S
C57 H54 0.931 1_554 S
C57 C58 1.413 1_554 S
C57 C59 1.360 . S
C58 C57 1.413 1_556 S
C58 C62 1.429 1_565 S
C59 C57 1.360 . S
C59 C60 1.372 . S
C60 H55 0.928 . S
C60 C59 1.372 . S
C60 C61 1.404 . S
C61 C60 1.404 . S
C61 C62 1.391 1_564 S
C62 H56 0.930 . S
C62 C58 1.429 1_545 S
C62 C61 1.391 1_546 S
H63 C66 0.931 1_556 S
H64 C69 0.928 . S
H65 C71 0.930 . S
C66 H63 0.931 1_554 S
C66 C67 1.413 . S
C66 C68 1.360 1_554 S
C67 C66 1.413 . S
C67 C71 1.429 . S
C68 C66 1.360 1_556 S
C68 C69 1.372 . S
C69 H64 0.928 . S
C69 C68 1.372 . S
C69 C70 1.404 1_556 S
C70 C69 1.404 1_554 S
C70 C71 1.391 . S
C71 H65 0.930 . S
C71 C67 1.429 . S
C71 C70 1.391 . S
Ho72 C75 2.811 1_556 S
Ho72 O92 2.322 . S
Ho72 O94 2.378 . S
Ho72 O95 2.524 1_556 S
Ho72 O96 2.381 . S
Ho72 O97 2.669 1_565 S
Ho72 O99 2.346 1_565 S
Ho72 O103 2.305 1_455 S
Ho73 C84 2.811 . S
Ho73 O93 2.346 1_545 S
Ho73 O97 2.305 1_655 S
Ho73 O98 2.322 . S
Ho73 O100 2.378 . S
Ho73 O101 2.524 . S
Ho73 O102 2.381 . S
Ho73 O103 2.669 1_545 S
C74 O92 1.259 1_655 S
C74 O93 1.268 . S
C75 Ho72 2.811 1_554 S
C75 C76 1.488 . S
C75 O94 1.215 1_554 S
C75 O95 1.289 . S
C76 C75 1.488 . S
C76 C77 1.348 . S
C76 C81 1.413 . S
C77 C76 1.348 . S
C77 C78 1.442 . S
C77 H104 0.930 . S
C78 C77 1.442 . S
C78 C79 1.381 . S
C78 H105 0.931 . S
C79 C78 1.381 . S
C79 C80 1.321 . S
C80 C79 1.321 . S
C80 C81 1.403 . S
C80 H106 0.934 . S
C81 C76 1.413 . S
C81 C80 1.403 . S
C81 H107 0.930 . S
C82 O96 1.275 . S
C82 O97 1.256 1_565 S
C83 O98 1.259 1_455 S
C83 O99 1.268 . S
C84 Ho73 2.811 . S
C84 C85 1.488 . S
C84 O100 1.215 . S
C84 O101 1.289 . S
C85 C84 1.488 . S
C85 C86 1.348 . S
C85 C90 1.413 . S
C86 C85 1.348 . S
C86 C87 1.442 . S
C86 H108 0.953 . S
C87 C86 1.442 . S
C87 C88 1.381 . S
C87 H109 0.931 . S
C88 C87 1.381 . S
C88 C89 1.321 . S
C89 C88 1.321 . S
C89 C90 1.403 . S
C89 H110 0.934 . S
C90 C85 1.413 . S
C90 C89 1.403 . S
C90 H111 0.930 . S
C91 O102 1.275 . S
C91 O103 1.256 1_545 S
O92 Ho72 2.322 . S
O92 C74 1.259 1_455 S
O93 Ho73 2.346 1_565 S
O93 C74 1.268 . S
O94 Ho72 2.378 . S
O94 C75 1.215 1_556 S
O95 Ho72 2.524 1_554 S
O95 C75 1.289 . S
O96 Ho72 2.381 . S
O96 C82 1.275 . S
O97 Ho72 2.669 1_545 S
O97 Ho73 2.305 1_455 S
O97 C82 1.256 1_545 S
O98 Ho73 2.322 . S
O98 C83 1.259 1_655 S
O99 Ho72 2.346 1_545 S
O99 C83 1.268 . S
O100 Ho73 2.378 . S
O100 C84 1.215 . S
O101 Ho73 2.524 . S
O101 C84 1.289 . S
O102 Ho73 2.381 . S
O102 C91 1.275 . S
O103 Ho72 2.305 1_655 S
O103 Ho73 2.669 1_565 S
O103 C91 1.256 1_565 S
H104 C77 0.930 . S
H105 C78 0.931 . S
H106 C80 0.934 . S
H107 C81 0.930 . S
H108 C86 0.953 . S
H109 C87 0.931 . S
H110 C89 0.934 . S
H111 C90 0.930 . S
Ho112 C115 2.811 1_556 S
Ho112 O132 2.322 . S
Ho112 O134 2.378 . S
Ho112 O135 2.524 1_556 S
Ho112 O136 2.381 . S
Ho112 O137 2.669 . S
Ho112 O139 2.346 . S
Ho112 O143 2.305 1_545 S
Ho113 C124 2.811 . S
Ho113 O133 2.346 . S
Ho113 O137 2.305 1_565 S
Ho113 O138 2.322 . S
Ho113 O140 2.378 . S
Ho113 O141 2.524 . S
Ho113 O142 2.381 . S
Ho113 O143 2.669 . S
C114 O132 1.259 1_565 S
C114 O133 1.268 . S
C115 Ho112 2.811 1_554 S
C115 C116 1.488 . S
C115 O134 1.215 1_554 S
C115 O135 1.289 . S
C116 C115 1.488 . S
C116 C117 1.348 . S
C116 C121 1.413 . S
C117 C116 1.348 . S
C117 C118 1.442 . S
C117 H144 0.930 1_545 S
C118 C117 1.442 . S
C118 C119 1.381 . S
C118 H145 0.931 . S
C119 C118 1.381 . S
C119 C120 1.321 . S
C120 C119 1.321 . S
C120 C121 1.403 . S
C120 H146 0.934 . S
C121 C116 1.413 . S
C121 C120 1.403 . S
C121 H147 0.930 . S
C122 O136 1.275 . S
C122 O137 1.256 . S
C123 O138 1.259 1_545 S
C123 O139 1.268 . S
C124 Ho113 2.811 . S
C124 C125 1.488 . S
C124 O140 1.215 . S
C124 O141 1.289 . S
C125 C124 1.488 . S
C125 C126 1.348 . S
C125 C130 1.413 . S
C126 C125 1.348 . S
C126 C127 1.442 . S
C126 H148 0.930 1_565 S
C127 C126 1.442 . S
C127 C128 1.381 . S
C127 H149 0.931 . S
C128 C127 1.381 . S
C128 C129 1.321 . S
C129 C128 1.321 . S
C129 C130 1.403 . S
C129 H150 0.934 . S
C130 C125 1.413 . S
C130 C129 1.403 . S
C130 H151 0.930 . S
C131 O142 1.275 . S
C131 O143 1.256 . S
O132 Ho112 2.322 . S
O132 C114 1.259 1_545 S
O133 Ho113 2.346 . S
O133 C114 1.268 . S
O134 Ho112 2.378 . S
O134 C115 1.215 1_556 S
O135 Ho112 2.524 1_554 S
O135 C115 1.289 . S
O136 Ho112 2.381 . S
O136 C122 1.275 . S
O137 Ho112 2.669 . S
O137 Ho113 2.305 1_545 S
O137 C122 1.256 . S
O138 Ho113 2.322 . S
O138 C123 1.259 1_565 S
O139 Ho112 2.346 . S
O139 C123 1.268 . S
O140 Ho113 2.378 . S
O140 C124 1.215 . S
O141 Ho113 2.524 . S
O141 C124 1.289 . S
O142 Ho113 2.381 . S
O142 C131 1.275 . S
O143 Ho112 2.305 1_565 S
O143 Ho113 2.669 . S
O143 C131 1.256 . S
H144 C117 0.930 1_565 S
H145 C118 0.931 . S
H146 C120 0.934 . S
H147 C121 0.930 . S
H148 C126 0.930 1_545 S
H149 C127 0.931 . S
H150 C129 0.934 . S
H151 C130 0.930 . S
Ho152 C155 2.811 1_556 S
Ho152 O172 2.322 . S
Ho152 O174 2.378 . S
Ho152 O175 2.524 1_556 S
Ho152 O176 2.381 . S
Ho152 O177 2.669 . S
Ho152 O179 2.346 . S
Ho152 O183 2.305 . S
Ho153 C164 2.811 . S
Ho153 O173 2.346 . S
Ho153 O177 2.305 . S
Ho153 O178 2.322 . S
Ho153 O180 2.378 . S
Ho153 O181 2.524 . S
Ho153 O182 2.381 . S
Ho153 O183 2.669 . S
C154 O172 1.259 . S
C154 O173 1.268 . S
C155 Ho152 2.811 1_554 S
C155 C156 1.488 . S
C155 O174 1.215 1_554 S
C155 O175 1.289 . S
C156 C155 1.488 . S
C156 C157 1.348 . S
C156 C161 1.413 . S
C157 C156 1.348 . S
C157 C158 1.442 . S
C157 H184 0.930 . S
C158 C157 1.442 . S
C158 C159 1.381 . S
C158 H185 0.931 . S
C159 C158 1.381 . S
C159 C160 1.321 . S
C160 C159 1.321 . S
C160 C161 1.403 . S
C160 H186 0.934 . S
C161 C156 1.413 . S
C161 C160 1.403 . S
C161 H187 0.930 . S
C162 O176 1.275 . S
C162 O177 1.256 . S
C163 O178 1.259 . S
C163 O179 1.268 . S
C164 Ho153 2.811 . S
C164 C165 1.488 . S
C164 O180 1.215 . S
C164 O181 1.289 . S
C165 C164 1.488 . S
C165 C166 1.348 . S
C165 C170 1.413 . S
C166 C165 1.348 . S
C166 C167 1.442 . S
C166 H188 0.930 . S
C167 C166 1.442 . S
C167 C168 1.381 . S
C167 H189 0.931 . S
C168 C167 1.381 . S
C168 C169 1.321 . S
C169 C168 1.321 . S
C169 C170 1.403 . S
C169 H190 0.934 . S
C170 C165 1.413 . S
C170 C169 1.403 . S
C170 H191 0.930 . S
C171 O182 1.275 . S
C171 O183 1.256 . S
O172 Ho152 2.322 . S
O172 C154 1.259 . S
O173 Ho153 2.346 . S
O173 C154 1.268 . S
O174 Ho152 2.378 . S
O174 C155 1.215 1_556 S
O175 Ho152 2.524 1_554 S
O175 C155 1.289 . S
O176 Ho152 2.381 . S
O176 C162 1.275 . S
O177 Ho152 2.669 . S
O177 Ho153 2.305 . S
O177 C162 1.256 . S
O178 Ho153 2.322 . S
O178 C163 1.259 . S
O179 Ho152 2.346 . S
O179 C163 1.268 . S
O180 Ho153 2.378 . S
O180 C164 1.215 . S
O181 Ho153 2.524 . S
O181 C164 1.289 . S
O182 Ho153 2.381 . S
O182 C171 1.275 . S
O183 Ho152 2.305 . S
O183 Ho153 2.669 . S
O183 C171 1.256 . S
H184 C157 0.930 . S
H185 C158 0.931 . S
H186 C160 0.934 . S
H187 C161 0.930 . S
H188 C166 0.930 . S
H189 C167 0.931 . S
H190 C169 0.934 . S
H191 C170 0.930 . S
Ho192 C195 2.811 1_556 S
Ho192 O212 2.322 . S
Ho192 O214 2.378 . S
Ho192 O215 2.524 1_556 S
Ho192 O216 2.381 . S
Ho192 O217 2.669 1_655 S
Ho192 O219 2.346 1_655 S
Ho192 O223 2.305 . S
Ho193 C204 2.811 . S
Ho193 O213 2.346 1_455 S
Ho193 O217 2.305 . S
Ho193 O218 2.322 . S
Ho193 O220 2.378 . S
Ho193 O221 2.524 . S
Ho193 O222 2.381 . S
Ho193 O223 2.669 1_455 S
C194 O212 1.259 . S
C194 O213 1.268 . S
C195 Ho192 2.811 1_554 S
C195 C196 1.488 . S
C195 O214 1.215 1_554 S
C195 O215 1.289 . S
C196 C195 1.488 . S
C196 C197 1.348 . S
C196 C201 1.413 . S
C197 C196 1.348 . S
C197 C198 1.442 . S
C197 H224 0.930 . S
C198 C197 1.442 . S
C198 C199 1.381 . S
C198 H225 0.931 . S
C199 C198 1.381 . S
C199 C200 1.321 . S
C200 C199 1.321 . S
C200 C201 1.403 . S
C200 H226 0.934 . S
C201 C196 1.413 . S
C201 C200 1.403 . S
C201 H227 0.930 . S
C202 O216 1.274 . S
C202 O217 1.257 1_655 S
C203 O218 1.259 . S
C203 O219 1.268 . S
C204 Ho193 2.811 . S
C204 C205 1.488 . S
C204 O220 1.215 . S
C204 O221 1.289 . S
C205 C204 1.488 . S
C205 C206 1.348 . S
C205 C210 1.413 . S
C206 C205 1.348 . S
C206 C207 1.442 . S
C206 H228 0.930 . S
C207 C206 1.442 . S
C207 C208 1.381 . S
C207 H229 0.931 . S
C208 C207 1.381 . S
C208 C209 1.321 . S
C209 C208 1.321 . S
C209 C210 1.403 . S
C209 H230 0.934 . S
C210 C205 1.413 . S
C210 C209 1.403 . S
C210 H231 0.930 . S
C211 O222 1.276 . S
C211 O223 1.255 1_455 S
O212 Ho192 2.322 . S
O212 C194 1.259 . S
O213 Ho193 2.346 1_655 S
O213 C194 1.268 . S
O214 Ho192 2.378 . S
O214 C195 1.215 1_556 S
O215 Ho192 2.524 1_554 S
O215 C195 1.289 . S
O216 Ho192 2.381 . S
O216 C202 1.274 . S
O217 Ho192 2.669 1_455 S
O217 Ho193 2.305 . S
O217 C202 1.257 1_455 S
O218 Ho193 2.322 . S
O218 C203 1.259 . S
O219 Ho192 2.346 1_455 S
O219 C203 1.268 . S
O220 Ho193 2.378 . S
O220 C204 1.215 . S
O221 Ho193 2.524 . S
O221 C204 1.289 . S
O222 Ho193 2.381 . S
O222 C211 1.276 . S
O223 Ho192 2.305 . S
O223 Ho193 2.669 1_655 S
O223 C211 1.255 1_655 S
H224 C197 0.930 . S
H225 C198 0.931 . S
H226 C200 0.934 . S
H227 C201 0.930 . S
H228 C206 0.930 . S
H229 C207 0.931 . S
H230 C209 0.934 . S
H231 C210 0.930 . S
C232 C233 1.394 . S
C232 H236 0.950 . S
C232 C241 1.390 . S
C233 C232 1.394 . S
C233 C235 1.382 1_545 S
H234 C241 0.950 . S
C235 C233 1.382 1_565 S
C235 C237 1.390 . S
C235 H239 0.950 . S
H236 C232 0.950 . S
C237 C235 1.390 . S
C237 C238 1.371 1_565 S
C237 H240 0.950 . S
C238 C237 1.371 1_545 S
C238 C241 1.404 . S
H239 C235 0.950 . S
H240 C237 0.950 . S
C241 C232 1.390 . S
C241 H234 0.950 . S
C241 C238 1.404 . S
C242 C243 1.387 . S
C242 H246 0.950 . S
C242 C251 1.390 . S
C243 C242 1.387 . S
C243 C245 1.387 . S
H244 C251 0.950 . S
C245 C243 1.387 . S
C245 C247 1.390 . S
C245 H249 0.950 . S
H246 C242 0.950 . S
C247 C245 1.390 . S
C247 C248 1.387 . S
C247 H250 0.950 . S
C248 C247 1.387 . S
C248 C251 1.387 . S
H249 C245 0.950 . S
H250 C247 0.950 . S
C251 C242 1.390 . S
C251 H244 0.950 . S
C251 C248 1.387 . S
C252 C253 1.387 . S
C252 H256 0.950 . S
C252 C261 1.390 . S
C253 C252 1.387 . S
C253 C255 1.387 . S
H254 C261 0.950 . S
C255 C253 1.387 . S
C255 C257 1.390 . S
C255 H259 0.950 . S
H256 C252 0.950 . S
C257 C255 1.390 . S
C257 C258 1.387 . S
C257 H260 0.950 . S
C258 C257 1.387 . S
C258 C261 1.387 . S
H259 C255 0.950 . S
H260 C257 0.950 . S
C261 C252 1.390 . S
C261 H254 0.950 . S
C261 C258 1.387 . S
C262 C263 1.387 . S
C262 H266 0.950 . S
C262 C271 1.390 . S
C263 C262 1.387 . S
C263 C265 1.387 1_455 S
H264 C271 0.950 . S
C265 C263 1.387 1_655 S
C265 C267 1.390 . S
C265 H269 0.950 . S
H266 C262 0.950 . S
C267 C265 1.390 . S
C267 C268 1.387 1_655 S
C267 H270 0.950 . S
C268 C267 1.387 1_455 S
C268 C271 1.387 . S
H269 C265 0.950 . S
H270 C267 0.950 . S
C271 C262 1.390 . S
C271 H264 0.950 . S
C271 C268 1.387 . S
C272 C273 1.388 1_545 S
C272 H276 0.950 . S
C272 C281 1.390 . S
C273 C272 1.388 1_565 S
C273 C275 1.387 . S
H274 C281 0.950 . S
C275 C273 1.387 . S
C275 C277 1.390 . S
C275 H279 0.950 . S
H276 C272 0.950 . S
C277 C275 1.390 . S
C277 C278 1.398 . S
C277 H280 0.950 . S
C278 C277 1.398 . S
C278 C281 1.377 1_565 S
H279 C275 0.950 . S
H280 C277 0.950 . S
C281 C272 1.390 . S
C281 H274 0.950 . S
C281 C278 1.377 1_545 S
C282 C283 1.387 . S
C282 H286 0.950 . S
C282 C291 1.390 . S
C283 C282 1.387 . S
C283 C285 1.387 . S
H284 C291 0.950 . S
C285 C283 1.387 . S
C285 C287 1.390 . S
C285 H289 0.950 . S
H286 C282 0.950 . S
C287 C285 1.390 . S
C287 C288 1.387 . S
C287 H290 0.950 . S
C288 C287 1.387 . S
C288 C291 1.387 . S
H289 C285 0.950 . S
H290 C287 0.950 . S
C291 C282 1.390 . S
C291 H284 0.950 . S
C291 C288 1.387 . S
C292 C293 1.387 . S
C292 H296 0.950 . S
C292 C301 1.390 . S
C293 C292 1.387 . S
C293 C295 1.387 . S
H294 C301 0.950 . S
C295 C293 1.387 . S
C295 C297 1.390 . S
C295 H299 0.950 . S
H296 C292 0.950 . S
C297 C295 1.390 . S
C297 C298 1.387 . S
C297 H300 0.950 . S
C298 C297 1.387 . S
C298 C301 1.387 . S
H299 C295 0.950 . S
H300 C297 0.950 . S
C301 C292 1.390 . S
C301 H294 0.950 . S
C301 C298 1.387 . S
C302 C303 1.387 1_455 S
C302 H306 0.950 . S
C302 C311 1.390 . S
C303 C302 1.387 1_655 S
C303 C305 1.387 . S
H304 C311 0.950 . S
C305 C303 1.387 . S
C305 C307 1.390 . S
C305 H309 0.950 . S
H306 C302 0.950 . S
C307 C305 1.390 . S
C307 C308 1.387 . S
C307 H310 0.950 . S
C308 C307 1.387 . S
C308 C311 1.387 1_655 S
H309 C305 0.950 . S
H310 C307 0.950 . S
C311 C302 1.390 . S
C311 H304 0.950 . S
C311 C308 1.387 1_455 S
C312 C313 1.387 . S
C312 H316 0.950 . S
C312 C321 1.390 . S
C313 C312 1.387 . S
C313 C315 1.387 . S
H314 C321 0.950 . S
C315 C313 1.387 . S
C315 C317 1.390 . S
C315 H319 0.950 1_655 S
H316 C312 0.950 . S
C317 C315 1.390 . S
C317 C318 1.387 . S
C317 H320 0.950 . S
C318 C317 1.387 . S
C318 C321 1.387 . S
H319 C315 0.950 1_455 S
H320 C317 0.950 . S
C321 C312 1.390 . S
C321 H314 0.950 . S
C321 C318 1.387 . S
C322 C323 1.387 . S
C322 H326 0.950 . S
C322 C331 1.390 . S
C323 C322 1.387 . S
C323 C325 1.387 . S
H324 C331 0.950 . S
C325 C323 1.387 . S
C325 C327 1.390 . S
C325 H329 0.950 1_565 S
H326 C322 0.950 . S
C327 C325 1.390 . S
C327 C328 1.387 . S
C327 H330 0.950 . S
C328 C327 1.387 . S
C328 C331 1.387 . S
H329 C325 0.950 1_545 S
H330 C327 0.950 . S
C331 C322 1.390 . S
C331 H324 0.950 . S
C331 C328 1.387 . S
C332 C333 1.387 . S
C332 H336 0.950 . S
C332 C341 1.390 . S
C333 C332 1.387 . S
C333 C335 1.387 . S
H334 C341 0.950 . S
C335 C333 1.387 . S
C335 C337 1.390 . S
C335 H339 0.950 . S
H336 C332 0.950 . S
C337 C335 1.390 . S
C337 C338 1.387 . S
C337 H340 0.950 . S
C338 C337 1.387 . S
C338 C341 1.387 . S
H339 C335 0.950 . S
H340 C337 0.950 . S
C341 C332 1.390 . S
C341 H334 0.950 . S
C341 C338 1.387 . S
C342 C343 1.387 . S
C342 H346 0.950 . S
C342 C351 1.390 . S
C343 C342 1.387 . S
C343 C345 1.387 . S
H344 C351 0.950 . S
C345 C343 1.387 . S
C345 C347 1.390 . S
C345 H349 0.950 . S
H346 C342 0.950 . S
C347 C345 1.390 . S
C347 C348 1.387 . S
C347 H350 0.950 . S
C348 C347 1.387 . S
C348 C351 1.387 . S
H349 C345 0.950 . S
H350 C347 0.950 . S
C351 C342 1.390 . S
C351 H344 0.950 . S
C351 C348 1.387 . S
C352 C353 1.387 . S
C352 H356 0.950 . S
C352 C361 1.390 . S
C353 C352 1.387 . S
C353 C355 1.387 . S
H354 C361 0.950 . S
C355 C353 1.387 . S
C355 C357 1.390 . S
C355 H359 0.950 . S
H356 C352 0.950 . S
C357 C355 1.390 . S
C357 C358 1.387 . S
C357 H360 0.950 . S
C358 C357 1.387 . S
C358 C361 1.387 . S
H359 C355 0.950 . S
H360 C357 0.950 . S
C361 C352 1.390 . S
C361 H354 0.950 . S
C361 C358 1.387 . S
C362 C363 1.385 1_565 S
C362 H366 0.966 . S
C362 C371 1.377 1_565 S
C363 C362 1.385 1_545 S
C363 C365 1.387 . S
H364 C371 0.950 . S
C365 C363 1.387 . S
C365 C367 1.390 . S
C365 H369 0.950 . S
H366 C362 0.966 . S
C367 C365 1.390 . S
C367 C368 1.387 . S
C367 H370 0.950 . S
C368 C367 1.387 . S
C368 C371 1.387 . S
H369 C365 0.950 . S
H370 C367 0.950 . S
C371 C362 1.377 1_545 S
C371 H364 0.950 . S
C371 C368 1.387 . S
C372 C373 1.387 . S
C372 H376 0.950 . S
C372 C381 1.390 . S
C373 C372 1.387 . S
C373 C375 1.387 . S
H374 C381 0.950 . S
C375 C373 1.387 . S
C375 C377 1.390 . S
C375 H379 0.950 . S
H376 C372 0.950 . S
C377 C375 1.390 . S
C377 C378 1.387 . S
C377 H380 0.950 . S
C378 C377 1.387 . S
C378 C381 1.387 . S
H379 C375 0.950 . S
H380 C377 0.950 . S
C381 C372 1.390 . S
C381 H374 0.950 . S
C381 C378 1.387 . S
C382 C383 1.387 . S
C382 H386 0.950 . S
C382 C391 1.390 . S
C383 C382 1.387 . S
C383 C385 1.387 . S
H384 C391 0.950 . S
C385 C383 1.387 . S
C385 C387 1.390 . S
C385 H389 0.950 . S
H386 C382 0.950 . S
C387 C385 1.390 . S
C387 C388 1.387 . S
C387 H390 0.950 . S
C388 C387 1.387 . S
C388 C391 1.387 . S
H389 C385 0.950 . S
H390 C387 0.950 . S
C391 C382 1.390 . S
C391 H384 0.950 . S
C391 C388 1.387 . S
C392 C393 1.387 . S
C392 H396 0.950 . S
C392 C401 1.390 . S
C393 C392 1.387 . S
C393 C395 1.387 . S
H394 C401 0.950 . S
C395 C393 1.387 . S
C395 C397 1.390 . S
C395 H399 0.950 1_556 S
H396 C392 0.950 . S
C397 C395 1.390 . S
C397 C398 1.387 . S
C397 H400 0.950 1_556 S
C398 C397 1.387 . S
C398 C401 1.387 . S
H399 C395 0.950 1_554 S
H400 C397 0.950 1_554 S
C401 C392 1.390 . S
C401 H394 0.950 . S
C401 C398 1.387 . S
C402 C403 1.387 1_565 S
C402 H406 0.950 . S
C402 C411 1.390 1_565 S
C403 C402 1.387 1_545 S
C403 C405 1.387 . S
H404 C411 0.950 1_565 S
C405 C403 1.387 . S
C405 C407 1.390 . S
C405 H409 0.950 1_556 S
H406 C402 0.950 . S
C407 C405 1.390 . S
C407 C408 1.387 . S
C407 H410 0.950 1_556 S
C408 C407 1.387 . S
C408 C411 1.387 . S
H409 C405 0.950 1_554 S
H410 C407 0.950 1_554 S
C411 C402 1.390 1_545 S
C411 H404 0.950 1_545 S
C411 C408 1.387 . S
C412 C413 1.387 . S
C412 H416 0.950 1_556 S
C412 C421 1.390 . S
C413 C412 1.387 . S
C413 C415 1.387 . S
H414 C421 0.950 1_554 S
C415 C413 1.387 . S
C415 C417 1.390 . S
C415 H419 0.950 . S
H416 C412 0.950 1_554 S
C417 C415 1.390 . S
C417 C418 1.387 . S
C417 H420 0.950 . S
C418 C417 1.387 . S
C418 C421 1.387 . S
H419 C415 0.950 . S
H420 C417 0.950 . S
C421 C412 1.390 . S
C421 H414 0.950 1_556 S
C421 C418 1.387 . S
C422 C423 1.387 . S
C422 H426 0.950 1_556 S
C422 C431 1.390 . S
C423 C422 1.387 . S
C423 C425 1.387 . S
H424 C431 0.950 1_554 S
C425 C423 1.387 . S
C425 C427 1.390 . S
C425 H429 0.950 . S
H426 C422 0.950 1_554 S
C427 C425 1.390 . S
C427 C428 1.387 . S
C427 H430 0.950 . S
C428 C427 1.387 . S
C428 C431 1.387 . S
H429 C425 0.950 . S
H430 C427 0.950 . S
C431 C422 1.390 . S
C431 H424 0.950 1_556 S
C431 C428 1.387 . S
C432 C433 1.387 . S
C432 H436 0.950 . S
C432 C441 1.390 . S
C433 C432 1.387 . S
C433 C435 1.387 . S
H434 C441 0.950 . S
C435 C433 1.387 . S
C435 C437 1.390 . S
C435 H439 0.950 . S
H436 C432 0.950 . S
C437 C435 1.390 . S
C437 C438 1.387 . S
C437 H440 0.950 . S
C438 C437 1.387 . S
C438 C441 1.387 . S
H439 C435 0.950 . S
H440 C437 0.950 . S
C441 C432 1.390 . S
C441 H434 0.950 . S
C441 C438 1.387 . S
C442 C443 1.387 1_545 S
C442 H446 0.950 . S
C442 C451 1.390 . S
C443 C442 1.387 1_565 S
C443 C445 1.387 . S
H444 C451 0.950 . S
C445 C443 1.387 . S
C445 C447 1.390 . S
C445 H449 0.950 . S
H446 C442 0.950 . S
C447 C445 1.390 . S
C447 C448 1.387 . S
C447 H450 0.950 . S
C448 C447 1.387 . S
C448 C451 1.387 1_565 S
H449 C445 0.950 . S
H450 C447 0.950 . S
C451 C442 1.390 . S
C451 H444 0.950 . S
C451 C448 1.387 1_545 S
C452 C453 1.387 . S
C452 H456 0.950 . S
C452 C461 1.390 . S
C453 C452 1.387 . S
C453 C455 1.387 . S
H454 C461 0.950 . S
C455 C453 1.387 . S
C455 C457 1.390 . S
C455 H459 0.950 . S
H456 C452 0.950 . S
C457 C455 1.390 . S
C457 C458 1.387 . S
C457 H460 0.950 . S
C458 C457 1.387 . S
C458 C461 1.387 . S
H459 C455 0.950 . S
H460 C457 0.950 . S
C461 C452 1.390 . S
C461 H454 0.950 . S
C461 C458 1.387 . S
C462 C463 1.387 . S
C462 H466 0.950 . S
C462 C471 1.390 . S
C463 C462 1.387 . S
C463 C465 1.387 . S
H464 C471 0.950 . S
C465 C463 1.387 . S
C465 C467 1.390 . S
C465 H469 0.950 . S
H466 C462 0.950 . S
C467 C465 1.390 . S
C467 C468 1.387 . S
C467 H470 0.950 . S
C468 C467 1.387 . S
C468 C471 1.387 . S
H469 C465 0.950 . S
H470 C467 0.950 . S
C471 C462 1.390 . S
C471 H464 0.950 . S
C471 C468 1.387 . S
C233 C61 1.986 1_545 S
C238 C82 2.253 1_545 S
C248 C122 2.277 . S
C243 C70 2.027 . S
C258 C162 2.287 . S
C253 C43 2.031 . S
C268 C202 2.270 1_455 S
C263 C52 2.005 1_455 S
C278 C91 2.255 1_564 S
C273 C25 1.988 . S
C283 C34 2.036 . S
C288 C131 2.280 1_554 S
C293 C7 2.025 . S
C298 C171 2.287 1_554 S
C303 C16 2.004 . S
C308 C211 2.269 1_654 S
C318 C88 0.911 . S
C313 C50 0.959 . S
C328 C128 0.899 . S
C323 C59 0.938 . S
C338 C168 0.884 . S
C333 C67 0.926 . S
C343 C41 0.936 . S
C348 C208 0.886 . S
C353 C14 0.964 1_455 S
C358 C79 0.915 . S
C368 C119 0.893 . S
C363 C23 0.937 1_545 S
C378 C159 0.885 . S
C373 C31 0.923 . S
C383 C5 0.947 . S
C388 C199 0.897 . S
C393 C49 2.303 1_455 S
C398 C83 2.614 . S
C403 C58 2.253 1_545 S
C408 C123 2.564 . S
C418 C163 2.549 . S
C413 C68 2.239 . S
C428 C203 2.599 . S
C423 C40 2.287 . S
C433 C13 2.302 . S
C438 C74 2.619 . S
C448 C114 2.563 . S
C443 C22 2.254 . S
C458 C154 2.549 . S
C453 C32 2.246 . S
C463 C4 2.286 . S
C468 C194 2.604 . S
