# Generated by pormake.
# Topology llj, (12,3)-cn, num edge types: 1
# Building blocks:
#     Node 0, Type 0, BuildingBlock: QEWDON_clean_sbu_0, # of connection points: 12
#     Node 1, Type 0, BuildingBlock: QEWDON_clean_sbu_0, # of connection points: 12
#     Node 2, Type 1, BuildingBlock: BETDIP_clean_linker_0, # of connection points: 3
#     Node 3, Type 1, BuildingBlock: BETDIP_clean_linker_0, # of connection points: 3
#     Node 4, Type 1, BuildingBlock: BETDIP_clean_linker_0, # of connection points: 3
#     Node 5, Type 1, BuildingBlock: BETDIP_clean_linker_0, # of connection points: 3
#     Node 6, Type 1, BuildingBlock: BETDIP_clean_linker_0, # of connection points: 3
#     Node 7, Type 1, BuildingBlock: BETDIP_clean_linker_0, # of connection points: 3
#     Node 8, Type 1, BuildingBlock: BETDIP_clean_linker_0, # of connection points: 3
#     Node 9, Type 1, BuildingBlock: BETDIP_clean_linker_0, # of connection points: 3
#     Edge 10, Type (0, 1), BuildingBlock: XIVTED_clean_linker_0, # of connection points: 2
#     Edge 11, Type (0, 1), BuildingBlock: XIVTED_clean_linker_0, # of connection points: 2
#     Edge 12, Type (0, 1), BuildingBlock: XIVTED_clean_linker_0, # of connection points: 2
#     Edge 13, Type (0, 1), BuildingBlock: XIVTED_clean_linker_0, # of connection points: 2
#     Edge 14, Type (0, 1), BuildingBlock: XIVTED_clean_linker_0, # of connection points: 2
#     Edge 15, Type (0, 1), BuildingBlock: XIVTED_clean_linker_0, # of connection points: 2
#     Edge 16, Type (0, 1), BuildingBlock: XIVTED_clean_linker_0, # of connection points: 2
#     Edge 17, Type (0, 1), BuildingBlock: XIVTED_clean_linker_0, # of connection points: 2
#     Edge 18, Type (0, 1), BuildingBlock: XIVTED_clean_linker_0, # of connection points: 2
#     Edge 19, Type (0, 1), BuildingBlock: XIVTED_clean_linker_0, # of connection points: 2
#     Edge 20, Type (0, 1), BuildingBlock: XIVTED_clean_linker_0, # of connection points: 2
#     Edge 21, Type (0, 1), BuildingBlock: XIVTED_clean_linker_0, # of connection points: 2
#     Edge 22, Type (0, 1), BuildingBlock: XIVTED_clean_linker_0, # of connection points: 2
#     Edge 23, Type (0, 1), BuildingBlock: XIVTED_clean_linker_0, # of connection points: 2
#     Edge 24, Type (0, 1), BuildingBlock: XIVTED_clean_linker_0, # of connection points: 2
#     Edge 25, Type (0, 1), BuildingBlock: XIVTED_clean_linker_0, # of connection points: 2
#     Edge 26, Type (0, 1), BuildingBlock: XIVTED_clean_linker_0, # of connection points: 2
#     Edge 27, Type (0, 1), BuildingBlock: XIVTED_clean_linker_0, # of connection points: 2
#     Edge 28, Type (0, 1), BuildingBlock: XIVTED_clean_linker_0, # of connection points: 2
#     Edge 29, Type (0, 1), BuildingBlock: XIVTED_clean_linker_0, # of connection points: 2
#     Edge 30, Type (0, 1), BuildingBlock: XIVTED_clean_linker_0, # of connection points: 2
#     Edge 31, Type (0, 1), BuildingBlock: XIVTED_clean_linker_0, # of connection points: 2
#     Edge 32, Type (0, 1), BuildingBlock: XIVTED_clean_linker_0, # of connection points: 2
#     Edge 33, Type (0, 1), BuildingBlock: XIVTED_clean_linker_0, # of connection points: 2
# Relax obj value: 0.010
# Max RMSD: 0.102
# Mean RMSD: 0.088
data_MOF--net-llj--node1-QEWDON_clean_sbu_0--node2-BETDIP_clean_linker_0--edge1-XIVTED_clean_linker_0
_symmetry_space_group_name_H-M    P1
_symmetry_Int_Tables_number       1
_symmetry_cell_setting            triclinic
loop_
_symmetry_equiv_pos_as_xyz
'x, y, z'
_cell_length_a     39.704891
_cell_length_b     39.6459
_cell_length_c     24.628386
_cell_angle_alpha  90.367155
_cell_angle_beta   91.149704
_cell_angle_gamma 89.970396
loop_
_atom_site_label
_atom_site_type_symbol
_atom_site_fract_x
_atom_site_fract_y
_atom_site_fract_z
_atom_type_partial_charge
Zn0 Zn 0.95481 0.05668 0.96517 0.0
Zn1 Zn 0.95615 0.04873 0.09398 0.0
O2 O 0.98352 0.04113 0.02838 0.0
H3 H 0.00588 0.03181 0.02608 0.0
C4 C 0.91259 0.98781 0.86141 0.0
O5 O 0.9334 0.00366 0.89489 0.0
Zn6 Zn 0.05011 0.95402 0.09009 0.0
Zn7 Zn 0.04881 0.95177 0.96037 0.0
O8 O 0.02128 0.96452 0.02522 0.0
H9 H -0.00115 0.97388 0.02365 0.0
Zn10 Zn 0.92626 0.93558 0.93937 0.0
O11 O 0.92932 0.96668 0.00439 0.0
Zn12 Zn 0.93011 0.93679 0.069 0.0
H13 H 0.92456 0.99057 0.00383 0.0
Zn14 Zn 0.09836 0.06426 0.95497 0.0
O15 O 0.07688 0.03734 0.01308 0.0
H16 H 0.06388 0.01705 0.007 0.0
Zn17 Zn 0.07737 0.06635 0.07929 0.0
C18 C 0.11747 0.00757 0.88824 0.0
O19 O 0.1054 0.9915 0.93006 0.0
O20 O 0.9182 0.09023 0.9882 0.0
O21 O 0.92143 0.08562 0.07832 0.0
O22 O 0.0852 0.9164 0.97952 0.0
O23 O 0.08356 0.91703 0.06996 0.0
O24 O 0.91026 0.88805 0.95925 0.0
O25 O 0.91055 0.89054 0.04967 0.0
C26 C 0.01815 0.06795 0.14934 0.0
O27 O 0.11456 0.11106 0.97895 0.0
O28 O 0.09869 0.11289 0.06521 0.0
O29 O 0.02112 0.94632 0.88883 0.0
C30 C 0.90871 0.09893 0.03543 0.0
O31 O 0.98033 0.06443 0.89403 0.0
C32 C 0.98951 0.93353 0.14268 0.0
O33 O 0.90549 0.95715 0.87037 0.0
C34 C 0.09522 0.90533 0.02562 0.0
O35 O 0.11791 0.0396 0.88873 0.0
C36 C 0.9111 0.9908 0.13584 0.0
O37 O 0.98738 0.06105 0.15751 0.0
O38 O 0.02858 0.06901 0.10098 0.0
C39 C 0.90472 0.87465 0.00512 0.0
O40 O 0.02041 0.93998 0.15242 0.0
O41 O 0.97861 0.93418 0.0939 0.0
C42 C 0.0957 0.00984 0.1416 0.0
O43 O 0.90363 0.96002 0.12728 0.0
O44 O 0.93357 0.00384 0.10642 0.0
C45 C 0.11234 0.12661 0.02417 0.0
O46 O 0.10335 0.04082 0.13717 0.0
O47 O 0.07384 0.99788 0.10825 0.0
C48 C -0.00112 0.9233 0.88796 0.0
O49 O 0.99581 0.90402 0.93079 0.0
C50 C 0.00944 0.07755 0.89842 0.0
O51 O 0.02102 0.08636 0.94682 0.0
Zn52 Zn 0.4516 0.55035 0.44614 0.0
Zn53 Zn 0.45107 0.55033 0.57471 0.0
O54 O 0.48024 0.54066 0.51236 0.0
H55 H 0.49947 0.5258 0.51292 0.0
C56 C 0.40858 0.48437 0.34521 0.0
O57 O 0.43068 0.49846 0.37863 0.0
Zn58 Zn 0.53839 0.44587 0.57396 0.0
Zn59 Zn 0.54136 0.44034 0.44644 0.0
O60 O 0.51077 0.45341 0.507 0.0
H61 H 0.49088 0.46726 0.5029 0.0
Zn62 Zn 0.4146 0.43441 0.4279 0.0
O63 O 0.41642 0.46771 0.4901 0.0
Zn64 Zn 0.41606 0.43933 0.55617 0.0
H65 H 0.41036 0.49127 0.48784 0.0
Zn66 Zn 0.59656 0.55532 0.43857 0.0
O67 O 0.56933 0.53088 0.49335 0.0
H68 H 0.55533 0.51136 0.4863 0.0
Zn69 Zn 0.57421 0.55725 0.56209 0.0
C70 C 0.60696 0.49929 0.36621 0.0
O71 O 0.59725 0.48333 0.40978 0.0
O72 O 0.40994 0.57876 0.46302 0.0
O73 O 0.41325 0.58308 0.55316 0.0
O74 O 0.57801 0.40656 0.47087 0.0
O75 O 0.5739 0.40945 0.56093 0.0
O76 O 0.39588 0.38826 0.45024 0.0
O77 O 0.39294 0.39411 0.54009 0.0
C78 C 0.51241 0.57327 0.63197 0.0
O79 O 0.61865 0.59932 0.46484 0.0
O80 O 0.60033 0.60178 0.54967 0.0
O81 O 0.516 0.4337 0.37334 0.0
C82 C 0.39914 0.59054 0.50765 0.0
O83 O 0.47827 0.56433 0.37929 0.0
C84 C 0.47601 0.4304 0.62653 0.0
O85 O 0.3977 0.45508 0.35572 0.0
C86 C 0.58721 0.39707 0.51831 0.0
O87 O 0.60933 0.53123 0.36755 0.0
C88 C 0.40572 0.49639 0.61987 0.0
O89 O 0.48057 0.57019 0.63561 0.0
O90 O 0.5262 0.56391 0.5881 0.0
C91 C 0.38788 0.3769 0.49656 0.0
O92 O 0.50748 0.43355 0.63546 0.0
O93 O 0.4646 0.43295 0.57825 0.0
C94 C 0.58621 0.49777 0.61863 0.0
O95 O 0.39348 0.46691 0.61419 0.0
O96 O 0.43013 0.50487 0.59025 0.0
C97 C 0.61675 0.61445 0.51048 0.0
O98 O 0.59874 0.52715 0.616 0.0
O99 O 0.56135 0.49045 0.58756 0.0
C100 C 0.49058 0.41431 0.37453 0.0
O101 O 0.48381 0.39869 0.41993 0.0
C102 C 0.50667 0.57828 0.38782 0.0
O103 O 0.51759 0.58286 0.43803 0.0
H104 H 0.28656 0.38007 0.91374 0.0
H105 H 0.29409 0.37373 0.08782 0.0
H106 H 0.37418 0.41836 -0.001 0.0
H107 H 0.24077 0.3581 0.08346 0.0
C108 C 0.2373 0.34577 0.04429 0.0
C109 C 0.30018 0.38543 0.95138 0.0
C110 C 0.33172 0.40146 0.95039 0.0
C111 C 0.28622 0.37542 0.00058 0.0
C112 C 0.30408 0.38178 0.04956 0.0
C113 C 0.33563 0.39783 0.04934 0.0
C114 C 0.3491 0.40763 -0.00037 0.0
N115 N 0.25574 0.35653 -0.00141 0.0
H116 H 0.7073 0.32842 0.90195 0.0
H117 H 0.70519 0.33967 0.07593 0.0
H118 H 0.64437 0.40387 0.97475 0.0
H119 H 0.75463 0.31501 0.0739 0.0
C120 C 0.75336 0.29723 0.04024 0.0
C121 C 0.69791 0.34107 0.93774 0.0
C122 C 0.67416 0.36712 0.93228 0.0
C123 C 0.70954 0.3311 0.98933 0.0
C124 C 0.69696 0.3473 0.03577 0.0
C125 C 0.67381 0.37388 0.03072 0.0
C126 C 0.66238 0.38343 0.9789 0.0
N127 N 0.73337 0.3044 0.99316 0.0
H128 H 0.68462 0.66328 0.10654 0.0
H129 H 0.68637 0.66489 0.93201 0.0
H130 H 0.60063 0.62469 0.0125 0.0
H131 H 0.74247 0.66816 0.94481 0.0
C132 C 0.74606 0.6819 0.98275 0.0
C133 C 0.67271 0.65729 0.0677 0.0
C134 C 0.64009 0.64371 0.06544 0.0
C135 C 0.69007 0.664 0.02002 0.0
C136 C 0.67412 0.65808 0.96919 0.0
C137 C 0.64139 0.64462 0.96639 0.0
C138 C 0.62515 0.63666 0.01463 0.0
N139 N 0.7226 0.67869 0.02515 0.0
H140 H 0.28628 0.66488 0.90153 0.0
H141 H 0.2876 0.65235 0.07552 0.0
H142 H 0.34509 0.58595 0.97565 0.0
H143 H 0.24621 0.68769 0.07599 0.0
C144 C 0.24503 0.70188 0.03853 0.0
C145 C 0.29475 0.65149 0.93754 0.0
C146 C 0.31721 0.62438 0.93279 0.0
C147 C 0.28368 0.66194 0.98873 0.0
C148 C 0.29525 0.6447 0.03547 0.0
C149 C 0.31694 0.61692 0.03075 0.0
C150 C 0.32792 0.6071 0.9794 0.0
N151 N 0.26166 0.69022 0.99135 0.0
H152 H 0.80329 0.86471 0.4242 0.0
H153 H 0.8079 0.8592 0.59848 0.0
H154 H 0.88447 0.91247 0.51368 0.0
H155 H 0.75712 0.83718 0.59154 0.0
C156 C 0.75463 0.82568 0.55159 0.0
C157 C 0.81554 0.87147 0.46245 0.0
C158 C 0.84519 0.89085 0.46293 0.0
C159 C 0.80173 0.85998 0.51089 0.0
C160 C 0.81776 0.86828 0.56074 0.0
C161 C 0.84737 0.88777 0.5621 0.0
C162 C 0.86073 0.89899 0.51303 0.0
N163 N 0.77327 0.83817 0.50723 0.0
H164 H 0.20779 0.83511 0.59572 0.0
H165 H 0.20548 0.83339 0.42088 0.0
H166 H 0.16548 0.91844 0.50676 0.0
H167 H 0.21571 0.77852 0.43016 0.0
C168 C 0.22841 0.77487 0.4691 0.0
C169 C 0.2009 0.84692 0.5575 0.0
C170 C 0.18601 0.87899 0.55718 0.0
C171 C 0.2076 0.82995 0.5089 0.0
C172 C 0.19956 0.84552 0.45895 0.0
C173 C 0.18482 0.87777 0.4581 0.0
C174 C 0.17791 0.89408 0.50732 0.0
N175 N 0.22384 0.79808 0.51247 0.0
H176 H 0.19435 0.136 0.61841 0.0
H177 H 0.20675 0.1272 0.44622 0.0
H178 H 0.12477 0.07655 0.5216 0.0
H179 H 0.25927 0.14431 0.46453 0.0
C180 C 0.25722 0.16096 0.49947 0.0
C181 C 0.18648 0.12493 0.57989 0.0
C182 C 0.15732 0.10485 0.57619 0.0
C183 C 0.20502 0.1324 0.53375 0.0
C184 C 0.19375 0.12031 0.48266 0.0
C185 C 0.16462 0.1003 0.47802 0.0
C186 C 0.14723 0.09194 0.52515 0.0
N187 N 0.23302 0.15455 0.53983 0.0
H188 H 0.78549 0.15763 0.41181 0.0
H189 H 0.78642 0.15331 0.58679 0.0
H190 H 0.83295 0.07467 0.49463 0.0
H191 H 0.76972 0.20583 0.58371 0.0
C192 C 0.75792 0.21067 0.54445 0.0
C193 C 0.79263 0.14503 0.44924 0.0
C194 C 0.80974 0.11408 0.44738 0.0
C195 C 0.78413 0.15966 0.49918 0.0
C196 C 0.79323 0.14304 0.54779 0.0
C197 C 0.81067 0.11222 0.54627 0.0
C198 C 0.81868 0.09798 0.49598 0.0
N199 N 0.76549 0.19034 0.49846 0.0
H200 H 0.12115 0.16661 0.11557 0.0
H201 H 0.21936 0.30938 0.95301 0.0
H202 H 0.13656 0.16521 0.94245 0.0
H203 H 0.20471 0.31431 0.12598 0.0
H204 H 0.18573 0.25804 0.94862 0.0
H205 H 0.14839 0.22214 0.12067 0.0
C206 C 0.13003 0.178 0.07866 0.0
C207 C 0.12678 0.16102 0.02859 0.0
C208 C 0.18966 0.27036 0.9876 0.0
C209 C 0.15793 0.22441 0.03415 0.0
C210 C 0.2089 0.29974 0.9901 0.0
C211 C 0.21496 0.31599 0.04006 0.0
C212 C 0.17649 0.25693 0.03542 0.0
C213 C 0.20062 0.30242 0.08671 0.0
C214 C 0.1456 0.20967 0.0816 0.0
C215 C 0.13873 0.17708 0.98207 0.0
N216 N 0.1822 0.27351 0.08337 0.0
N217 N 0.15383 0.20768 0.98607 0.0
H218 H 0.88292 0.12628 0.12856 0.0
H219 H 0.79321 0.27743 0.12464 0.0
H220 H 0.876 0.13294 0.95366 0.0
H221 H 0.76155 0.24777 0.96272 0.0
H222 H 0.82958 0.22786 0.12949 0.0
H223 H 0.84295 0.17276 0.13531 0.0
C224 C 0.87314 0.13762 0.09156 0.0
C225 C 0.88324 0.12595 0.04046 0.0
C226 C 0.8142 0.23165 0.09331 0.0
C227 C 0.83805 0.17983 0.04786 0.0
C228 C 0.79371 0.26019 0.09035 0.0
C229 C 0.77443 0.26663 0.0433 0.0
C230 C 0.81531 0.20938 0.04876 0.0
C231 C 0.77602 0.24374 -0.00019 0.0
C232 C 0.85052 0.16445 0.09546 0.0
C233 C 0.86927 0.14128 0.99395 0.0
N234 N 0.79632 0.21622 0.00349 0.0
N235 N 0.84747 0.16744 -0.00119 0.0
H236 H 0.87851 0.84163 0.09236 0.0
H237 H 0.79148 0.69869 0.9065 0.0
H238 H 0.89348 0.83128 0.9198 0.0
H239 H 0.76603 0.71813 0.0733 0.0
H240 H 0.8362 0.74112 0.91448 0.0
H241 H 0.8448 0.79005 0.08991 0.0
C242 C 0.87511 0.82831 0.0541 0.0
C243 C 0.88842 0.84112 0.00606 0.0
C244 C 0.82099 0.73589 0.94946 0.0
C245 C 0.84974 0.7822 0.00297 0.0
C246 C 0.79555 0.7117 0.9449 0.0
C247 C 0.77485 0.70524 0.98901 0.0
C248 C 0.82573 0.75367 -0.00142 0.0
C249 C 0.78118 0.72259 0.03802 0.0
C250 C 0.85575 0.79892 0.05271 0.0
C251 C 0.88332 0.82264 0.95773 0.0
N252 N 0.80592 0.74619 0.04136 0.0
N253 N 0.86413 0.79431 0.95735 0.0
H254 H 0.12868 0.87647 0.94084 0.0
H255 H 0.21215 0.73083 0.12222 0.0
H256 H 0.11796 0.87017 0.1147 0.0
H257 H 0.23142 0.74358 0.95181 0.0
H258 H 0.17752 0.78192 0.12036 0.0
H259 H 0.16667 0.82812 0.94416 0.0
C260 C 0.13439 0.86503 0.97978 0.0
C261 C 0.11989 0.87733 0.02754 0.0
C262 C 0.18941 0.77362 0.0834 0.0
C263 C 0.16335 0.82177 0.03151 0.0
C264 C 0.20909 0.74446 0.08445 0.0
C265 C 0.22454 0.73298 0.03715 0.0
C266 C 0.18503 0.79133 0.03454 0.0
C267 C 0.2199 0.75151 0.98924 0.0
C268 C 0.15613 0.8374 0.98161 0.0
C269 C 0.12842 0.86152 0.07681 0.0
N270 N 0.20045 0.77973 0.98913 0.0
N271 N 0.14943 0.83445 0.07745 0.0
H272 H 0.625 0.6528 0.60372 0.0
H273 H 0.74001 0.79013 0.45786 0.0
H274 H 0.6493 0.6507 0.43356 0.0
H275 H 0.7181 0.79408 0.62864 0.0
H276 H 0.70459 0.74017 0.44827 0.0
H277 H 0.65669 0.70564 0.61387 0.0
C278 C 0.63683 0.66346 0.56848 0.0
C279 C 0.63458 0.6471 0.51776 0.0
C280 C 0.70737 0.75195 0.48789 0.0
C281 C 0.67086 0.7075 0.52913 0.0
C282 C 0.72763 0.78056 0.49338 0.0
C283 C 0.73205 0.79622 0.54423 0.0
C284 C 0.69143 0.73876 0.53359 0.0
C285 C 0.71531 0.78267 0.58875 0.0
C286 C 0.65495 0.6936 0.57433 0.0
C287 C 0.65045 0.66216 0.47356 0.0
N288 N 0.69581 0.75463 0.58248 0.0
N289 N 0.66791 0.69135 0.48034 0.0
H290 H 0.37303 0.62845 0.59094 0.0
H291 H 0.24377 0.72706 0.39421 0.0
H292 H 0.36002 0.60747 0.41946 0.0
H293 H 0.26327 0.75528 0.56138 0.0
H294 H 0.28234 0.67929 0.40541 0.0
H295 H 0.32863 0.67121 0.58372 0.0
C296 C 0.36072 0.63263 0.5519 0.0
C297 C 0.37056 0.61456 0.50564 0.0
C298 C 0.27809 0.69585 0.43973 0.0
C299 C 0.31982 0.66341 0.49712 0.0
C300 C 0.25608 0.72306 0.4333 0.0
C301 C 0.25052 0.7452 0.47672 0.0
C302 C 0.29464 0.69076 0.49003 0.0
C303 C 0.26697 0.73892 0.52666 0.0
C304 C 0.33543 0.65709 0.54779 0.0
C305 C 0.35358 0.62097 0.45616 0.0
N306 N 0.2884 0.71234 0.53189 0.0
N307 N 0.32921 0.64493 0.4532 0.0
H308 H 0.38121 0.32994 0.41531 0.0
H309 H 0.26298 0.2074 0.58285 0.0
H310 H 0.35749 0.34728 0.5836 0.0
H311 H 0.30102 0.18302 0.4245 0.0
H312 H 0.29735 0.25859 0.58452 0.0
H313 H 0.35196 0.27603 0.4184 0.0
C314 C 0.36992 0.3224 0.45304 0.0
C315 C 0.37164 0.34335 0.49921 0.0
C316 C 0.29836 0.24194 0.54955 0.0
C317 C 0.3379 0.28145 0.50288 0.0
C318 C 0.2787 0.21273 0.54852 0.0
C319 C 0.2791 0.19106 0.50325 0.0
C320 C 0.31832 0.24963 0.50483 0.0
C321 C 0.3 0.19915 0.46008 0.0
C322 C 0.35327 0.29151 0.45477 0.0
C323 C 0.35672 0.33201 0.54699 0.0
N324 N 0.31861 0.2279 0.46175 0.0
N325 N 0.34025 0.30193 0.54747 0.0
H326 H 0.61784 0.37288 0.6115 0.0
H327 H 0.72548 0.23422 0.45255 0.0
H328 H 0.61681 0.36115 0.43696 0.0
H329 H 0.73559 0.25148 0.62525 0.0
H330 H 0.68497 0.2804 0.44679 0.0
H331 H 0.66039 0.32829 0.61822 0.0
C332 C 0.62651 0.36097 0.57461 0.0
C333 C 0.61355 0.37072 0.52358 0.0
C334 C 0.69607 0.27421 0.48599 0.0
C335 C 0.66222 0.31968 0.53105 0.0
C336 C 0.71921 0.24778 0.4893 0.0
C337 C 0.73386 0.23903 0.53955 0.0
C338 C 0.68735 0.29194 0.53327 0.0
C339 C 0.72481 0.25752 0.58576 0.0
C340 C 0.65086 0.33556 0.57849 0.0
C341 C 0.62594 0.3545 0.47719 0.0
N342 N 0.70203 0.28306 0.58158 0.0
N343 N 0.64944 0.32976 0.48209 0.0
H344 H 0.06819 0.11412 0.16134 0.0
H345 H 0.13539 0.04045 0.44509 0.0
H346 H 0.02234 0.02981 0.24101 0.0
H347 H 0.15903 0.14028 0.38813 0.0
H348 H 0.1022 0.03045 0.36166 0.0
H349 H 0.10923 0.11884 0.23658 0.0
C350 C 0.06694 0.09657 0.19472 0.0
C351 C 0.04207 0.07156 0.19526 0.0
C352 C 0.11492 0.05442 0.36736 0.0
C353 C 0.08867 0.07668 0.28115 0.0
C354 C 0.13389 0.06013 0.41485 0.0
C355 C 0.14969 0.09143 0.42399 0.0
C356 C 0.1118 0.08014 0.32871 0.0
C357 C 0.14748 0.11573 0.38284 0.0
C358 C 0.09025 0.09926 0.23759 0.0
C359 C 0.04108 0.04959 0.23954 0.0
N360 N 0.12861 0.10968 0.33724 0.0
N361 N 0.06418 0.05258 0.28077 0.0
H362 H 0.86141 0.96852 0.20144 0.0
H363 H 0.84213 0.14329 0.36248 0.0
H364 H 0.92144 0.05656 0.1694 0.0
H365 H 0.79987 0.04902 0.41481 0.0
H366 H 0.86461 0.11437 0.28252 0.0
H367 H 0.83295 -0.00021 0.27254 0.0
C368 C 0.86845 0.99457 0.20885 0.0
C369 C 0.89362 0.0101 0.17853 0.0
C370 C 0.85018 0.10011 0.31133 0.0
C371 C 0.86093 0.04613 0.2601 0.0
C372 C 0.83713 0.11665 0.35657 0.0
C373 C 0.81938 0.09839 0.39529 0.0
C374 C 0.84517 0.06521 0.30479 0.0
C375 C 0.81378 0.06388 0.38612 0.0
C376 C 0.85214 0.0124 0.24955 0.0
C377 C 0.90182 0.04377 0.19063 0.0
N378 N 0.82677 0.04837 0.34196 0.0
N379 N 0.88549 0.0607 0.23041 0.0
H380 H 0.93909 0.88738 0.14802 0.0
H381 H 0.87698 0.95033 0.43868 0.0
H382 H 0.98718 0.9678 0.23891 0.0
H383 H 0.85152 0.85295 0.36993 0.0
H384 H 0.90999 0.96251 0.35833 0.0
H385 H 0.89972 0.87955 0.22228 0.0
C386 C 0.94115 0.90348 0.18359 0.0
C387 C 0.96619 0.92829 0.18753 0.0
C388 C 0.89701 0.93856 0.3608 0.0
C389 C 0.92152 0.91955 0.27245 0.0
C390 C 0.87819 0.93155 0.40664 0.0
C391 C 0.86171 0.90037 0.41149 0.0
C392 C 0.89932 0.9143 0.3193 0.0
C393 C 0.86356 0.87738 0.36799 0.0
C394 C 0.91882 0.89897 0.22595 0.0
C395 C 0.96826 0.94825 0.23465 0.0
N396 N 0.88221 0.88472 0.32393 0.0
N397 N 0.9461 0.94354 0.27529 0.0
H398 H 0.14093 0.03064 0.21962 0.0
H399 H 0.15209 0.85168 0.36805 0.0
H400 H 0.08633 0.94249 0.16428 0.0
H401 H 0.19761 0.94304 0.43098 0.0
H402 H 0.13265 0.88278 0.28751 0.0
H403 H 0.16583 0.99752 0.29302 0.0
C404 C 0.13431 0.00422 0.22249 0.0
C405 C 0.11151 0.9893 0.18521 0.0
C406 C 0.14707 0.89595 0.31883 0.0
C407 C 0.14018 0.95107 0.26939 0.0
C408 C 0.15837 0.87815 0.36451 0.0
C409 C 0.17618 0.89492 0.40636 0.0
C410 C 0.15381 0.93066 0.31502 0.0
C411 C 0.18348 0.92929 0.39999 0.0
C412 C 0.14859 0.9853 0.26453 0.0
C413 C 0.10385 0.95503 0.19145 0.0
N414 N 0.17212 0.94604 0.35539 0.0
N415 N 0.11813 0.93705 0.23271 0.0
H416 H 0.14475 0.03284 0.79607 0.0
H417 H 0.15978 0.85289 0.65015 0.0
H418 H 0.1177 0.93918 0.87228 0.0
H419 H 0.19527 0.94586 0.5812 0.0
H420 H 0.14498 0.88372 0.73259 0.0
H421 H 0.16344 0.00123 0.71693 0.0
C422 C 0.14281 0.00561 0.79618 0.0
C423 C 0.1296 0.98864 0.84075 0.0
C424 C 0.15613 0.89734 0.69948 0.0
C425 C 0.15102 0.95221 0.75038 0.0
C426 C 0.16476 0.87972 0.65256 0.0
C427 C 0.17859 0.89687 0.60861 0.0
C428 C 0.1613 0.93236 0.70239 0.0
C429 C 0.18412 0.93173 0.61371 0.0
C430 C 0.15356 0.98755 0.75103 0.0
C431 C 0.12773 0.9533 0.83878 0.0
N432 N 0.17533 0.94833 0.65963 0.0
N433 N 0.13826 0.93625 0.79423 0.0
H434 H 0.995 0.05836 0.79338 0.0
H435 H 0.17753 0.09739 0.6834 0.0
H436 H 0.07196 0.10599 0.89356 0.0
H437 H 0.08822 0.10041 0.58008 0.0
H438 H 0.14153 0.09134 0.76211 0.0
H439 H 0.03149 0.06383 0.71494 0.0
C440 C 0.01956 0.06993 0.79895 0.0
C441 C 0.03061 0.0815 0.85025 0.0
C442 C 0.13001 0.093 0.72199 0.0
C443 C 0.07245 0.08733 0.76102 0.0
C444 C 0.15048 0.09672 0.67701 0.0
C445 C 0.13609 0.09934 0.62458 0.0
C446 C 0.09496 0.09107 0.71448 0.0
C447 C 0.10076 0.09763 0.61918 0.0
C448 C 0.04032 0.073 0.75422 0.0
C449 C 0.06266 0.09628 0.85501 0.0
N450 N 0.08147 0.0934 0.66348 0.0
N451 N 0.0826 0.09857 0.81103 0.0
H452 H 0.87233 0.96159 0.78009 0.0
H453 H 0.8413 0.13997 0.63656 0.0
H454 H 0.91642 0.05498 0.83796 0.0
H455 H 0.80581 0.04518 0.57017 0.0
H456 H 0.86507 0.10988 0.71492 0.0
H457 H 0.84509 0.99219 0.70554 0.0
C458 C 0.8763 0.98853 0.77711 0.0
C459 C 0.8967 0.00576 0.81528 0.0
C460 C 0.85193 0.09569 0.68332 0.0
C461 C 0.86528 0.04103 0.73045 0.0
C462 C 0.83811 0.11289 0.6389 0.0
C463 C 0.82177 0.095 0.59675 0.0
C464 C 0.84926 0.06037 0.68562 0.0
C465 C 0.81863 0.05987 0.60149 0.0
C466 C 0.86069 0.00601 0.73459 0.0
C467 C 0.90098 0.04067 0.80938 0.0
N468 N 0.83238 0.0437 0.64498 0.0
N469 N 0.88532 0.05718 0.76784 0.0
H470 H 0.99149 0.96447 0.79948 0.0
H471 H 0.8583 0.84445 0.64715 0.0
H472 H 0.95356 0.87254 0.86867 0.0
H473 H 0.87958 0.94593 0.59524 0.0
H474 H 0.89343 0.85402 0.72816 0.0
H475 H 0.95204 0.95739 0.72272 0.0
C476 C 0.97503 0.94269 0.79838 0.0
C477 C 0.97591 0.91898 0.84047 0.0
C478 C 0.89022 0.87429 0.69924 0.0
C479 C 0.93072 0.91076 0.75281 0.0
C480 C 0.86992 0.86893 0.65311 0.0
C481 C 0.86605 0.89436 0.61406 0.0
C482 C 0.90708 0.90518 0.70626 0.0
C483 C 0.8823 0.92538 0.62373 0.0
C484 C 0.95238 0.93877 0.7547 0.0
C485 C 0.95376 0.89143 0.83715 0.0
N486 N 0.9023 0.92983 0.66862 0.0
N487 N 0.93216 0.88803 0.79401 0.0
H488 H 0.58046 0.58689 0.63954 0.0
H489 H 0.57529 0.65771 0.94178 0.0
H490 H 0.48981 0.59036 0.73269 0.0
H491 H 0.66625 0.61898 0.87108 0.0
H492 H 0.54408 0.64236 0.85904 0.0
H493 H 0.61253 0.60702 0.71804 0.0
C494 C 0.56723 0.59153 0.67629 0.0
C495 C 0.53241 0.58618 0.67917 0.0
C496 C 0.57088 0.6373 0.86159 0.0
C497 C 0.56897 0.6103 0.76961 0.0
C498 C 0.58873 0.64598 0.90879 0.0
C499 C 0.62336 0.63901 0.91376 0.0
C500 C 0.58776 0.62192 0.81861 0.0
C501 C 0.63961 0.62477 0.86903 0.0
C502 C 0.58563 0.60327 0.72129 0.0
C503 C 0.51667 0.59379 0.72835 0.0
N504 N 0.62161 0.6165 0.82331 0.0
N505 N 0.53506 0.60548 0.77161 0.0
H506 H 0.33943 0.50736 0.64146 0.0
H507 H 0.38243 0.61871 0.90356 0.0
H508 H 0.43987 0.53736 0.68956 0.0
H509 H 0.2809 0.6044 0.84264 0.0
H510 H 0.40375 0.59222 0.82138 0.0
H511 H 0.31686 0.54477 0.71178 0.0
C512 C 0.35664 0.52231 0.66636 0.0
C513 C 0.39148 0.52015 0.65913 0.0
C514 C 0.37681 0.59521 0.82544 0.0
C515 C 0.36616 0.5624 0.73961 0.0
C516 C 0.36469 0.61035 0.87227 0.0
C517 C 0.32995 0.61348 0.87966 0.0
C518 C 0.35396 0.58258 0.78606 0.0
C519 C 0.3079 0.60243 0.83812 0.0
C520 C 0.34382 0.5437 0.70623 0.0
C521 C 0.41286 0.53957 0.69251 0.0
N522 N 0.32027 0.58697 0.79326 0.0
N523 N 0.3999 0.55972 0.73159 0.0
H524 H 0.42258 0.38795 0.63383 0.0
H525 H 0.36863 0.45752 0.92508 0.0
H526 H 0.47733 0.46505 0.72234 0.0
H527 H 0.33288 0.36316 0.85713 0.0
H528 H 0.40196 0.46624 0.844 0.0
H529 H 0.38325 0.38372 0.70895 0.0
C530 C 0.42604 0.40416 0.66898 0.0
C531 C 0.4529 0.427 0.67202 0.0
C532 C 0.38665 0.44373 0.84675 0.0
C533 C 0.40844 0.42229 0.75799 0.0
C534 C 0.36762 0.43872 0.89299 0.0
C535 C 0.3482 0.40934 0.89828 0.0
C536 C 0.38619 0.4193 0.80527 0.0
C537 C 0.34729 0.38625 0.8548 0.0
C538 C 0.40378 0.40165 0.71189 0.0
C539 C 0.45694 0.44699 0.7188 0.0
N540 N 0.36622 0.3916 0.81029 0.0
N541 N 0.43483 0.44428 0.75997 0.0
H542 H 0.55047 0.46267 0.69066 0.0
H543 H 0.7113 0.38448 0.84407 0.0
H544 H 0.65184 0.47966 0.63889 0.0
H545 H 0.60916 0.37605 0.89865 0.0
H546 H 0.69019 0.4116 0.76065 0.0
H547 H 0.57148 0.42328 0.7589 0.0
C548 C 0.57709 0.45704 0.69257 0.0
C549 C 0.59932 0.47329 0.65815 0.0
C550 C 0.67241 0.40343 0.79062 0.0
C551 C 0.6241 0.42981 0.73809 0.0
C552 C 0.68441 0.38777 0.83792 0.0
C553 C 0.6619 0.37843 0.87833 0.0
C554 C 0.6377 0.40955 0.78391 0.0
C555 C 0.62735 0.38336 0.86873 0.0
C556 C 0.58924 0.43508 0.73216 0.0
C557 C 0.63394 0.46724 0.66463 0.0
N558 N 0.61635 0.3988 0.82274 0.0
N559 N 0.64536 0.44595 0.70406 0.0
H560 H 0.60692 0.43086 0.35107 0.0
H561 H 0.66781 0.44204 0.04397 0.0
H562 H 0.62563 0.52449 0.26817 0.0
H563 H 0.65403 0.34807 0.12819 0.0
H564 H 0.64985 0.47254 0.12469 0.0
H565 H 0.62177 0.39996 0.26883 0.0
C566 C 0.61413 0.44493 0.31557 0.0
C567 C 0.61525 0.48031 0.31655 0.0
C568 C 0.65068 0.44525 0.12556 0.0
C569 C 0.6322 0.4451 0.22237 0.0
C570 C 0.66073 0.42782 0.07936 0.0
C571 C 0.66236 0.39246 0.07937 0.0
C572 C 0.64217 0.42724 0.17222 0.0
C573 C 0.65346 0.37535 0.12667 0.0
C574 C 0.62261 0.42726 0.26864 0.0
C575 C 0.62462 0.49721 0.26932 0.0
N576 N 0.64374 0.39291 0.17124 0.0
N577 N 0.63278 0.47943 0.22418 0.0
H578 H 0.57085 0.60303 0.39102 0.0
H579 H 0.57274 0.65321 0.08141 0.0
H580 H 0.48853 0.5795 0.28019 0.0
H581 H 0.66377 0.6199 0.16402 0.0
H582 H 0.54062 0.63783 0.16072 0.0
H583 H 0.60476 0.62017 0.31391 0.0
C584 C 0.56002 0.60127 0.35053 0.0
C585 C 0.52708 0.58934 0.34192 0.0
C586 C 0.56764 0.63394 0.16134 0.0
C587 C 0.56508 0.60995 0.25424 0.0
C588 C 0.58603 0.64253 0.11607 0.0
C589 C 0.62101 0.63719 0.1155 0.0
C590 C 0.58433 0.6206 0.20694 0.0
C591 C 0.6369 0.62451 0.16261 0.0
C592 C 0.5793 0.61113 0.30672 0.0
C593 C 0.51392 0.58831 0.28867 0.0
N594 N 0.61839 0.61659 0.20659 0.0
N595 N 0.53292 0.59871 0.24679 0.0
H596 H 0.36651 0.46135 0.26376 0.0
H597 H 0.34365 0.64202 0.12598 0.0
H598 H 0.41933 0.55049 0.32012 0.0
H599 H 0.31687 0.54877 0.04493 0.0
H600 H 0.36579 0.60961 0.20329 0.0
H601 H 0.34307 0.4937 0.18774 0.0
C602 C 0.37331 0.48767 0.26001 0.0
C603 C 0.3951 0.50319 0.29809 0.0
C604 C 0.35503 0.59628 0.16858 0.0
C605 C 0.3679 0.54045 0.21194 0.0
C606 C 0.34218 0.61474 0.12478 0.0
C607 C 0.32856 0.59797 0.07914 0.0
C608 C 0.35385 0.56086 0.16684 0.0
C609 C 0.32749 0.56259 0.07925 0.0
C610 C 0.35987 0.50612 0.2167 0.0
C611 C 0.40283 0.53744 0.29149 0.0
N612 N 0.33994 0.54519 0.12247 0.0
N613 N 0.38911 0.55498 0.24936 0.0
H614 H 0.43891 0.36952 0.35907 0.0
H615 H 0.3749 0.45185 0.08038 0.0
H616 H 0.48936 0.4525 0.28233 0.0
H617 H 0.34313 0.35358 0.13408 0.0
H618 H 0.41263 0.45592 0.15968 0.0
H619 H 0.39934 0.36656 0.2819 0.0
C620 C 0.44177 0.38701 0.32588 0.0
C621 C 0.46756 0.4112 0.32698 0.0
C622 C 0.3973 0.43353 0.15414 0.0
C623 C 0.42223 0.40811 0.23889 0.0
C624 C 0.37578 0.43115 0.10887 0.0
C625 C 0.35596 0.40219 0.10023 0.0
C626 C 0.39874 0.40698 0.19151 0.0
C627 C 0.35761 0.37653 0.13926 0.0
C628 C 0.41917 0.3853 0.28187 0.0
C629 C 0.47001 0.43329 0.28294 0.0
N630 N 0.3787 0.3795 0.18313 0.0
N631 N 0.44753 0.4313 0.24075 0.0
loop_
_geom_bond_atom_site_label_1
_geom_bond_atom_site_label_2
_geom_bond_distance
_geom_bond_site_symmetry_2
_ccdc_geom_bond_type
Zn0 O2 1.933 1_556 S
Zn0 O20 1.985 . S
Zn0 O31 1.955 . S
Zn1 O2 1.911 . S
Zn1 O21 1.970 . S
Zn1 O37 1.945 . S
Zn1 O44 1.981 . S
O2 Zn0 1.933 1_554 S
O2 Zn1 1.911 . S
O2 H3 0.841 1_655 S
H3 O2 0.841 1_455 S
C4 O5 1.246 . S
C4 O33 1.276 1_545 S
O5 C4 1.246 . S
Zn6 O8 1.911 . S
Zn6 O23 1.970 . S
Zn6 O40 1.945 . S
Zn6 O47 1.981 . S
Zn7 O8 1.933 1_556 S
Zn7 O22 1.985 . S
Zn7 O29 1.955 . S
O8 Zn6 1.911 . S
O8 Zn7 1.933 1_554 S
O8 H9 0.841 1_455 S
H9 O8 0.841 1_655 S
Zn10 O11 1.933 1_556 S
Zn10 O24 1.985 . S
Zn10 O33 1.955 . S
O11 Zn10 1.933 1_554 S
O11 Zn12 1.911 . S
O11 H13 0.841 1_565 S
Zn12 O11 1.911 . S
Zn12 O25 1.970 . S
Zn12 O41 1.981 . S
Zn12 O43 1.945 . S
H13 O11 0.841 1_545 S
Zn14 O15 1.933 1_556 S
Zn14 O27 1.985 . S
Zn14 O35 1.955 . S
O15 Zn14 1.933 1_554 S
O15 H16 0.841 1_545 S
O15 Zn17 1.911 . S
H16 O15 0.841 1_565 S
Zn17 O15 1.911 . S
Zn17 O28 1.970 . S
Zn17 O38 1.981 . S
Zn17 O46 1.945 . S
C18 O19 1.246 . S
C18 O35 1.276 1_565 S
O19 C18 1.246 . S
O20 Zn0 1.985 . S
O20 C30 1.245 1_556 S
O21 Zn1 1.970 . S
O21 C30 1.263 . S
O22 Zn7 1.985 . S
O22 C34 1.245 1_556 S
O23 Zn6 1.970 . S
O23 C34 1.263 . S
O24 Zn10 1.985 . S
O24 C39 1.245 1_556 S
O25 Zn12 1.970 . S
O25 C39 1.263 . S
C26 O37 1.262 1_455 S
C26 O38 1.245 . S
O27 Zn14 1.985 . S
O27 C45 1.245 1_556 S
O28 Zn17 1.970 . S
O28 C45 1.263 . S
O29 Zn7 1.955 . S
O29 C48 1.276 1_455 S
C30 O20 1.245 1_554 S
C30 O21 1.263 . S
O31 Zn0 1.955 . S
O31 C50 1.276 1_655 S
C32 O40 1.262 1_655 S
C32 O41 1.245 . S
O33 C4 1.276 1_565 S
O33 Zn10 1.955 . S
C34 O22 1.245 1_554 S
C34 O23 1.263 . S
O35 Zn14 1.955 . S
O35 C18 1.276 1_545 S
C36 O43 1.262 1_545 S
C36 O44 1.245 . S
O37 Zn1 1.945 . S
O37 C26 1.262 1_655 S
O38 Zn17 1.981 . S
O38 C26 1.245 . S
C39 O24 1.245 1_554 S
C39 O25 1.263 . S
O40 Zn6 1.945 . S
O40 C32 1.262 1_455 S
O41 Zn12 1.981 . S
O41 C32 1.245 . S
C42 O46 1.262 1_565 S
C42 O47 1.245 . S
O43 Zn12 1.945 . S
O43 C36 1.262 1_565 S
O44 Zn1 1.981 . S
O44 C36 1.245 . S
C45 O27 1.245 1_554 S
C45 O28 1.263 . S
O46 Zn17 1.945 . S
O46 C42 1.262 1_545 S
O47 Zn6 1.981 . S
O47 C42 1.245 . S
C48 O29 1.276 1_655 S
C48 O49 1.246 . S
O49 C48 1.246 . S
C50 O31 1.276 1_455 S
C50 O51 1.246 . S
O51 C50 1.246 . S
Zn52 O54 1.933 . S
Zn52 O72 1.985 . S
Zn52 O83 1.955 . S
Zn53 O54 1.911 . S
Zn53 O73 1.970 . S
Zn53 O89 1.945 . S
Zn53 O96 1.981 . S
O54 Zn52 1.933 . S
O54 Zn53 1.911 . S
O54 H55 0.841 . S
H55 O54 0.841 . S
C56 O57 1.246 . S
C56 O85 1.276 . S
O57 C56 1.246 . S
Zn58 O60 1.911 . S
Zn58 O75 1.970 . S
Zn58 O92 1.945 . S
Zn58 O99 1.981 . S
Zn59 O60 1.933 . S
Zn59 O74 1.985 . S
Zn59 O81 1.955 . S
O60 Zn58 1.911 . S
O60 Zn59 1.933 . S
O60 H61 0.841 . S
H61 O60 0.841 . S
Zn62 O63 1.933 . S
Zn62 O76 1.985 . S
Zn62 O85 1.955 . S
O63 Zn62 1.933 . S
O63 Zn64 1.911 . S
O63 H65 0.841 . S
Zn64 O63 1.911 . S
Zn64 O77 1.970 . S
Zn64 O93 1.981 . S
Zn64 O95 1.945 . S
H65 O63 0.841 . S
Zn66 O67 1.933 . S
Zn66 O79 1.985 . S
Zn66 O87 1.955 . S
O67 Zn66 1.933 . S
O67 H68 0.841 . S
O67 Zn69 1.911 . S
H68 O67 0.841 . S
Zn69 O67 1.911 . S
Zn69 O80 1.970 . S
Zn69 O90 1.981 . S
Zn69 O98 1.945 . S
C70 O71 1.246 . S
C70 O87 1.276 . S
O71 C70 1.246 . S
O72 Zn52 1.985 . S
O72 C82 1.245 . S
O73 Zn53 1.970 . S
O73 C82 1.263 . S
O74 Zn59 1.985 . S
O74 C86 1.245 . S
O75 Zn58 1.970 . S
O75 C86 1.263 . S
O76 Zn62 1.985 . S
O76 C91 1.245 . S
O77 Zn64 1.970 . S
O77 C91 1.263 . S
C78 O89 1.262 . S
C78 O90 1.245 . S
O79 Zn66 1.985 . S
O79 C97 1.245 . S
O80 Zn69 1.970 . S
O80 C97 1.263 . S
O81 Zn59 1.955 . S
O81 C100 1.276 . S
C82 O72 1.245 . S
C82 O73 1.263 . S
O83 Zn52 1.955 . S
O83 C102 1.276 . S
C84 O92 1.262 . S
C84 O93 1.245 . S
O85 C56 1.276 . S
O85 Zn62 1.955 . S
C86 O74 1.245 . S
C86 O75 1.263 . S
O87 Zn66 1.955 . S
O87 C70 1.276 . S
C88 O95 1.262 . S
C88 O96 1.245 . S
O89 Zn53 1.945 . S
O89 C78 1.262 . S
O90 Zn69 1.981 . S
O90 C78 1.245 . S
C91 O76 1.245 . S
C91 O77 1.263 . S
O92 Zn58 1.945 . S
O92 C84 1.262 . S
O93 Zn64 1.981 . S
O93 C84 1.245 . S
C94 O98 1.262 . S
C94 O99 1.245 . S
O95 Zn64 1.945 . S
O95 C88 1.262 . S
O96 Zn53 1.981 . S
O96 C88 1.245 . S
C97 O79 1.245 . S
C97 O80 1.263 . S
O98 Zn69 1.945 . S
O98 C94 1.262 . S
O99 Zn58 1.981 . S
O99 C94 1.245 . S
C100 O81 1.276 . S
C100 O101 1.246 . S
O101 C100 1.246 . S
C102 O83 1.276 . S
C102 O103 1.246 . S
O103 C102 1.246 . S
H104 C109 0.930 . S
H105 C112 0.930 . S
H106 C114 0.930 . S
H107 C108 1.016 . S
C108 H107 1.016 . S
C108 N115 1.286 1_554 S
C109 H104 0.930 . S
C109 C110 1.397 . S
C109 C111 1.363 1_556 S
C110 C109 1.397 . S
C110 C114 1.390 1_556 S
C111 C109 1.363 1_554 S
C111 C112 1.392 . S
C111 N115 1.413 1_554 S
C112 H105 0.930 . S
C112 C111 1.392 . S
C112 C113 1.399 . S
C113 C112 1.399 . S
C113 C114 1.381 . S
C114 H106 0.930 . S
C114 C110 1.390 1_554 S
C114 C113 1.381 . S
N115 C108 1.286 1_556 S
N115 C111 1.413 1_556 S
H116 C121 0.930 . S
H117 C124 0.930 . S
H118 C126 0.930 . S
H119 C120 1.016 . S
C120 H119 1.016 . S
C120 N127 1.286 1_554 S
C121 H116 0.930 . S
C121 C122 1.397 . S
C121 C123 1.361 1_556 S
C122 C121 1.397 . S
C122 C126 1.390 1_556 S
C123 C121 1.361 1_554 S
C123 C124 1.393 . S
C123 N127 1.413 1_554 S
C124 H117 0.930 . S
C124 C123 1.393 . S
C124 C125 1.399 . S
C125 C124 1.399 . S
C125 C126 1.381 . S
C126 H118 0.930 . S
C126 C122 1.390 1_554 S
C126 C125 1.381 . S
N127 C120 1.286 1_556 S
N127 C123 1.413 1_556 S
H128 C133 0.930 . S
H129 C136 0.930 . S
H130 C138 0.930 . S
H131 C132 1.016 1_556 S
C132 H131 1.016 1_554 S
C132 N139 1.286 . S
C133 H128 0.930 . S
C133 C134 1.397 . S
C133 C135 1.361 . S
C134 C133 1.397 . S
C134 C138 1.390 . S
C135 C133 1.361 . S
C135 C136 1.393 1_554 S
C135 N139 1.413 . S
C136 H129 0.930 . S
C136 C135 1.393 1_556 S
C136 C137 1.399 . S
C137 C136 1.399 . S
C137 C138 1.381 1_556 S
C138 H130 0.930 . S
C138 C134 1.390 . S
C138 C137 1.381 1_554 S
N139 C132 1.286 . S
N139 C135 1.413 . S
H140 C145 0.930 . S
H141 C148 0.930 . S
H142 C150 0.930 . S
H143 C144 1.016 . S
C144 H143 1.016 . S
C144 N151 1.286 1_554 S
C145 H140 0.930 . S
C145 C146 1.397 . S
C145 C147 1.361 . S
C146 C145 1.397 . S
C146 C150 1.390 1_556 S
C147 C145 1.361 . S
C147 C148 1.393 1_556 S
C147 N151 1.413 . S
C148 H141 0.930 . S
C148 C147 1.393 1_554 S
C148 C149 1.399 . S
C149 C148 1.399 . S
C149 C150 1.381 . S
C150 H142 0.930 . S
C150 C146 1.390 1_554 S
C150 C149 1.381 . S
N151 C144 1.286 1_556 S
N151 C147 1.413 . S
H152 C157 0.930 . S
H153 C160 0.930 . S
H154 C162 0.930 . S
H155 C156 1.016 . S
C156 H155 1.016 . S
C156 N163 1.286 . S
C157 H152 0.930 . S
C157 C158 1.397 . S
C157 C159 1.361 . S
C158 C157 1.397 . S
C158 C162 1.390 . S
C159 C157 1.361 . S
C159 C160 1.393 . S
C159 N163 1.413 . S
C160 H153 0.930 . S
C160 C159 1.393 . S
C160 C161 1.399 . S
C161 C160 1.399 . S
C161 C162 1.381 . S
C162 H154 0.930 . S
C162 C158 1.390 . S
C162 C161 1.381 . S
N163 C156 1.286 . S
N163 C159 1.413 . S
H164 C169 0.930 . S
H165 C172 0.930 . S
H166 C174 0.930 . S
H167 C168 1.016 . S
C168 H167 1.016 . S
C168 N175 1.286 . S
C169 H164 0.930 . S
C169 C170 1.397 . S
C169 C171 1.361 . S
C170 C169 1.397 . S
C170 C174 1.390 . S
C171 C169 1.361 . S
C171 C172 1.393 . S
C171 N175 1.413 . S
C172 H165 0.930 . S
C172 C171 1.393 . S
C172 C173 1.399 . S
C173 C172 1.399 . S
C173 C174 1.381 . S
C174 H166 0.930 . S
C174 C170 1.390 . S
C174 C173 1.381 . S
N175 C168 1.286 . S
N175 C171 1.413 . S
H176 C181 0.930 . S
H177 C184 0.930 . S
H178 C186 0.930 . S
H179 C180 1.016 . S
C180 H179 1.016 . S
C180 N187 1.286 . S
C181 H176 0.930 . S
C181 C182 1.397 . S
C181 C183 1.361 . S
C182 C181 1.397 . S
C182 C186 1.390 . S
C183 C181 1.361 . S
C183 C184 1.393 . S
C183 N187 1.413 . S
C184 H177 0.930 . S
C184 C183 1.393 . S
C184 C185 1.399 . S
C185 C184 1.399 . S
C185 C186 1.381 . S
C186 H178 0.930 . S
C186 C182 1.390 . S
C186 C185 1.381 . S
N187 C180 1.286 . S
N187 C183 1.413 . S
H188 C193 0.930 . S
H189 C196 0.930 . S
H190 C198 0.930 . S
H191 C192 1.016 . S
C192 H191 1.016 . S
C192 N199 1.286 . S
C193 H188 0.930 . S
C193 C194 1.397 . S
C193 C195 1.361 . S
C194 C193 1.397 . S
C194 C198 1.390 . S
C195 C193 1.361 . S
C195 C196 1.393 . S
C195 N199 1.413 . S
C196 H189 0.930 . S
C196 C195 1.393 . S
C196 C197 1.399 . S
C197 C196 1.399 . S
C197 C198 1.381 . S
C198 H190 0.930 . S
C198 C194 1.390 . S
C198 C197 1.381 . S
N199 C192 1.286 . S
N199 C195 1.413 . S
H200 C206 0.930 . S
H201 C210 0.930 . S
H202 C215 0.929 . S
H203 C213 0.929 . S
H204 C208 0.929 . S
H205 C214 0.929 . S
C206 H200 0.930 . S
C206 C207 1.367 . S
C206 C214 1.378 . S
C207 C206 1.367 . S
C207 C215 1.433 1_554 S
C208 H204 0.929 . S
C208 C210 1.378 . S
C208 C212 1.350 1_556 S
C209 C212 1.463 . S
C209 C214 1.350 . S
C209 N217 1.427 1_554 S
C210 H201 0.930 . S
C210 C208 1.378 . S
C210 C211 1.367 1_556 S
C211 C210 1.367 1_554 S
C211 C213 1.433 . S
C212 C208 1.350 1_554 S
C212 C209 1.463 . S
C212 N216 1.427 . S
C213 H203 0.929 . S
C213 C211 1.433 . S
C213 N216 1.384 . S
C214 H205 0.929 . S
C214 C206 1.378 . S
C214 C209 1.350 . S
C215 H202 0.929 . S
C215 C207 1.433 1_556 S
C215 N217 1.384 . S
N216 C212 1.427 . S
N216 C213 1.384 . S
N217 C209 1.427 1_556 S
N217 C215 1.384 . S
H218 C224 0.930 . S
H219 C228 0.930 1_556 S
H220 C233 0.929 . S
H221 C231 0.929 . S
H222 C226 0.925 1_556 S
H223 C232 0.929 . S
C224 H218 0.930 . S
C224 C225 1.367 . S
C224 C232 1.378 . S
C225 C224 1.367 . S
C225 C233 1.433 1_554 S
C226 H222 0.925 1_554 S
C226 C228 1.378 . S
C226 C230 1.354 . S
C227 C230 1.463 . S
C227 C232 1.350 . S
C227 N235 1.427 1_554 S
C228 H219 0.930 1_554 S
C228 C226 1.378 . S
C228 C229 1.367 . S
C229 C228 1.367 . S
C229 C231 1.433 . S
C230 C226 1.354 . S
C230 C227 1.463 . S
C230 N234 1.427 . S
C231 H221 0.929 . S
C231 C229 1.433 . S
C231 N234 1.384 . S
C232 H223 0.929 . S
C232 C224 1.378 . S
C232 C227 1.350 . S
C233 H220 0.929 . S
C233 C225 1.433 1_556 S
C233 N235 1.384 . S
N234 C230 1.427 . S
N234 C231 1.384 . S
N235 C227 1.427 1_556 S
N235 C233 1.384 . S
H236 C242 0.930 . S
H237 C246 0.930 . S
H238 C251 0.929 . S
H239 C249 0.929 . S
H240 C244 0.929 . S
H241 C250 0.929 . S
C242 H236 0.930 . S
C242 C243 1.367 . S
C242 C250 1.378 . S
C243 C242 1.367 . S
C243 C251 1.433 1_554 S
C244 H240 0.929 . S
C244 C246 1.378 . S
C244 C248 1.350 1_556 S
C245 C248 1.463 . S
C245 C250 1.350 . S
C245 N253 1.427 1_554 S
C246 H237 0.930 . S
C246 C244 1.378 . S
C246 C247 1.367 1_556 S
C247 C246 1.367 1_554 S
C247 C249 1.433 . S
C248 C244 1.350 1_554 S
C248 C245 1.463 . S
C248 N252 1.427 . S
C249 H239 0.929 . S
C249 C247 1.433 . S
C249 N252 1.384 . S
C250 H241 0.929 . S
C250 C242 1.378 . S
C250 C245 1.350 . S
C251 H238 0.929 . S
C251 C243 1.433 1_556 S
C251 N253 1.384 . S
N252 C248 1.427 . S
N252 C249 1.384 . S
N253 C245 1.427 1_556 S
N253 C251 1.384 . S
H254 C260 0.930 1_556 S
H255 C264 0.930 . S
H256 C269 0.929 . S
H257 C267 0.929 1_556 S
H258 C262 0.929 . S
H259 C268 0.929 1_556 S
C260 H254 0.930 1_554 S
C260 C261 1.367 . S
C260 C268 1.378 . S
C261 C260 1.367 . S
C261 C269 1.433 . S
C262 H258 0.929 . S
C262 C264 1.378 . S
C262 C266 1.350 . S
C263 C266 1.463 . S
C263 C268 1.350 . S
C263 N271 1.427 . S
C264 H255 0.930 . S
C264 C262 1.378 . S
C264 C265 1.367 . S
C265 C264 1.367 . S
C265 C267 1.433 . S
C266 C262 1.350 . S
C266 C263 1.463 . S
C266 N270 1.427 . S
C267 H257 0.929 1_554 S
C267 C265 1.433 . S
C267 N270 1.384 . S
C268 H259 0.929 1_554 S
C268 C260 1.378 . S
C268 C263 1.350 . S
C269 H256 0.929 . S
C269 C261 1.433 . S
C269 N271 1.384 . S
N270 C266 1.427 . S
N270 C267 1.384 . S
N271 C263 1.427 . S
N271 C269 1.384 . S
H272 C278 0.930 . S
H273 C282 0.930 . S
H274 C287 0.929 . S
H275 C285 0.929 . S
H276 C280 0.929 . S
H277 C286 0.929 . S
C278 H272 0.930 . S
C278 C279 1.367 . S
C278 C286 1.378 . S
C279 C278 1.367 . S
C279 C287 1.433 . S
C280 H276 0.929 . S
C280 C282 1.378 . S
C280 C284 1.350 . S
C281 C284 1.463 . S
C281 C286 1.350 . S
C281 N289 1.427 . S
C282 H273 0.930 . S
C282 C280 1.378 . S
C282 C283 1.367 . S
C283 C282 1.367 . S
C283 C285 1.433 . S
C284 C280 1.350 . S
C284 C281 1.463 . S
C284 N288 1.427 . S
C285 H275 0.929 . S
C285 C283 1.433 . S
C285 N288 1.384 . S
C286 H277 0.929 . S
C286 C278 1.378 . S
C286 C281 1.350 . S
C287 H274 0.929 . S
C287 C279 1.433 . S
C287 N289 1.384 . S
N288 C284 1.427 . S
N288 C285 1.384 . S
N289 C281 1.427 . S
N289 C287 1.384 . S
H290 C296 0.930 . S
H291 C300 0.930 . S
H292 C305 0.929 . S
H293 C303 0.929 . S
H294 C298 0.929 . S
H295 C304 0.929 . S
C296 H290 0.930 . S
C296 C297 1.367 . S
C296 C304 1.378 . S
C297 C296 1.367 . S
C297 C305 1.433 . S
C298 H294 0.929 . S
C298 C300 1.378 . S
C298 C302 1.350 . S
C299 C302 1.463 . S
C299 C304 1.350 . S
C299 N307 1.427 . S
C300 H291 0.930 . S
C300 C298 1.378 . S
C300 C301 1.367 . S
C301 C300 1.367 . S
C301 C303 1.433 . S
C302 C298 1.350 . S
C302 C299 1.463 . S
C302 N306 1.427 . S
C303 H293 0.929 . S
C303 C301 1.433 . S
C303 N306 1.384 . S
C304 H295 0.929 . S
C304 C296 1.378 . S
C304 C299 1.350 . S
C305 H292 0.929 . S
C305 C297 1.433 . S
C305 N307 1.384 . S
N306 C302 1.427 . S
N306 C303 1.384 . S
N307 C299 1.427 . S
N307 C305 1.384 . S
H308 C314 0.930 . S
H309 C318 0.930 . S
H310 C323 0.929 . S
H311 C321 0.929 . S
H312 C316 0.929 . S
H313 C322 0.929 . S
C314 H308 0.930 . S
C314 C315 1.367 . S
C314 C322 1.378 . S
C315 C314 1.367 . S
C315 C323 1.433 . S
C316 H312 0.929 . S
C316 C318 1.378 . S
C316 C320 1.350 . S
C317 C320 1.463 . S
C317 C322 1.350 . S
C317 N325 1.427 . S
C318 H309 0.930 . S
C318 C316 1.378 . S
C318 C319 1.367 . S
C319 C318 1.367 . S
C319 C321 1.433 . S
C320 C316 1.350 . S
C320 C317 1.463 . S
C320 N324 1.427 . S
C321 H311 0.929 . S
C321 C319 1.433 . S
C321 N324 1.384 . S
C322 H313 0.929 . S
C322 C314 1.378 . S
C322 C317 1.350 . S
C323 H310 0.929 . S
C323 C315 1.433 . S
C323 N325 1.384 . S
N324 C320 1.427 . S
N324 C321 1.384 . S
N325 C317 1.427 . S
N325 C323 1.384 . S
H326 C332 0.930 . S
H327 C336 0.930 . S
H328 C341 0.929 . S
H329 C339 0.929 . S
H330 C334 0.929 . S
H331 C340 0.929 . S
C332 H326 0.930 . S
C332 C333 1.367 . S
C332 C340 1.378 . S
C333 C332 1.367 . S
C333 C341 1.433 . S
C334 H330 0.929 . S
C334 C336 1.378 . S
C334 C338 1.350 . S
C335 C338 1.463 . S
C335 C340 1.350 . S
C335 N343 1.427 . S
C336 H327 0.930 . S
C336 C334 1.378 . S
C336 C337 1.367 . S
C337 C336 1.367 . S
C337 C339 1.433 . S
C338 C334 1.350 . S
C338 C335 1.463 . S
C338 N342 1.427 . S
C339 H329 0.929 . S
C339 C337 1.433 . S
C339 N342 1.384 . S
C340 H331 0.929 . S
C340 C332 1.378 . S
C340 C335 1.350 . S
C341 H328 0.929 . S
C341 C333 1.433 . S
C341 N343 1.384 . S
N342 C338 1.427 . S
N342 C339 1.384 . S
N343 C335 1.427 . S
N343 C341 1.384 . S
H344 C350 0.930 . S
H345 C354 0.930 . S
H346 C359 0.929 . S
H347 C357 0.929 . S
H348 C352 0.929 . S
H349 C358 0.929 . S
C350 H344 0.930 . S
C350 C351 1.367 . S
C350 C358 1.378 . S
C351 C350 1.367 . S
C351 C359 1.433 . S
C352 H348 0.929 . S
C352 C354 1.378 . S
C352 C356 1.350 . S
C353 C356 1.463 . S
C353 C358 1.350 . S
C353 N361 1.427 . S
C354 H345 0.930 . S
C354 C352 1.378 . S
C354 C355 1.367 . S
C355 C354 1.367 . S
C355 C357 1.433 . S
C356 C352 1.350 . S
C356 C353 1.463 . S
C356 N360 1.427 . S
C357 H347 0.929 . S
C357 C355 1.433 . S
C357 N360 1.384 . S
C358 H349 0.929 . S
C358 C350 1.378 . S
C358 C353 1.350 . S
C359 H346 0.929 . S
C359 C351 1.433 . S
C359 N361 1.384 . S
N360 C356 1.427 . S
N360 C357 1.384 . S
N361 C353 1.427 . S
N361 C359 1.384 . S
H362 C368 0.930 1_565 S
H363 C372 0.930 . S
H364 C377 0.929 . S
H365 C375 0.929 . S
H366 C370 0.929 . S
H367 C376 0.929 . S
C368 H362 0.930 1_545 S
C368 C369 1.367 . S
C368 C376 1.378 . S
C369 C368 1.367 . S
C369 C377 1.433 . S
C370 H366 0.929 . S
C370 C372 1.378 . S
C370 C374 1.350 . S
C371 C374 1.463 . S
C371 C376 1.350 . S
C371 N379 1.427 . S
C372 H363 0.930 . S
C372 C370 1.378 . S
C372 C373 1.367 . S
C373 C372 1.367 . S
C373 C375 1.433 . S
C374 C370 1.350 . S
C374 C371 1.463 . S
C374 N378 1.427 . S
C375 H365 0.929 . S
C375 C373 1.433 . S
C375 N378 1.384 . S
C376 H367 0.929 . S
C376 C368 1.378 . S
C376 C371 1.350 . S
C377 H364 0.929 . S
C377 C369 1.433 . S
C377 N379 1.384 . S
N378 C374 1.427 . S
N378 C375 1.384 . S
N379 C371 1.427 . S
N379 C377 1.384 . S
H380 C386 0.930 . S
H381 C390 0.930 . S
H382 C395 0.929 . S
H383 C393 0.929 . S
H384 C388 0.929 . S
H385 C394 0.929 . S
C386 H380 0.930 . S
C386 C387 1.367 . S
C386 C394 1.378 . S
C387 C386 1.367 . S
C387 C395 1.433 . S
C388 H384 0.929 . S
C388 C390 1.378 . S
C388 C392 1.350 . S
C389 C392 1.463 . S
C389 C394 1.350 . S
C389 N397 1.427 . S
C390 H381 0.930 . S
C390 C388 1.378 . S
C390 C391 1.367 . S
C391 C390 1.367 . S
C391 C393 1.433 . S
C392 C388 1.350 . S
C392 C389 1.463 . S
C392 N396 1.427 . S
C393 H383 0.929 . S
C393 C391 1.433 . S
C393 N396 1.384 . S
C394 H385 0.929 . S
C394 C386 1.378 . S
C394 C389 1.350 . S
C395 H382 0.929 . S
C395 C387 1.433 . S
C395 N397 1.384 . S
N396 C392 1.427 . S
N396 C393 1.384 . S
N397 C389 1.427 . S
N397 C395 1.384 . S
H398 C404 0.930 . S
H399 C408 0.930 . S
H400 C413 0.929 . S
H401 C411 0.929 . S
H402 C406 0.929 . S
H403 C412 0.929 . S
C404 H398 0.930 . S
C404 C405 1.367 . S
C404 C412 1.378 . S
C405 C404 1.367 . S
C405 C413 1.433 . S
C406 H402 0.929 . S
C406 C408 1.378 . S
C406 C410 1.350 . S
C407 C410 1.463 . S
C407 C412 1.350 . S
C407 N415 1.427 . S
C408 H399 0.930 . S
C408 C406 1.378 . S
C408 C409 1.367 . S
C409 C408 1.367 . S
C409 C411 1.433 . S
C410 C406 1.350 . S
C410 C407 1.463 . S
C410 N414 1.427 . S
C411 H401 0.929 . S
C411 C409 1.433 . S
C411 N414 1.384 . S
C412 H403 0.929 . S
C412 C404 1.378 . S
C412 C407 1.350 . S
C413 H400 0.929 . S
C413 C405 1.433 . S
C413 N415 1.384 . S
N414 C410 1.427 . S
N414 C411 1.384 . S
N415 C407 1.427 . S
N415 C413 1.384 . S
H416 C422 0.930 1_545 S
H417 C426 0.930 . S
H418 C431 0.929 . S
H419 C429 0.929 . S
H420 C424 0.929 . S
H421 C430 0.929 . S
C422 H416 0.930 1_565 S
C422 C423 1.367 . S
C422 C430 1.378 . S
C423 C422 1.367 . S
C423 C431 1.433 . S
C424 H420 0.929 . S
C424 C426 1.378 . S
C424 C428 1.350 . S
C425 C428 1.463 . S
C425 C430 1.350 . S
C425 N433 1.427 . S
C426 H417 0.930 . S
C426 C424 1.378 . S
C426 C427 1.367 . S
C427 C426 1.367 . S
C427 C429 1.433 . S
C428 C424 1.350 . S
C428 C425 1.463 . S
C428 N432 1.427 . S
C429 H419 0.929 . S
C429 C427 1.433 . S
C429 N432 1.384 . S
C430 H421 0.929 . S
C430 C422 1.378 . S
C430 C425 1.350 . S
C431 H418 0.929 . S
C431 C423 1.433 . S
C431 N433 1.384 . S
N432 C428 1.427 . S
N432 C429 1.384 . S
N433 C425 1.427 . S
N433 C431 1.384 . S
H434 C440 0.930 1_655 S
H435 C444 0.930 . S
H436 C449 0.929 . S
H437 C447 0.929 . S
H438 C442 0.929 . S
H439 C448 0.929 . S
C440 H434 0.930 1_455 S
C440 C441 1.367 . S
C440 C448 1.378 . S
C441 C440 1.367 . S
C441 C449 1.433 . S
C442 H438 0.929 . S
C442 C444 1.378 . S
C442 C446 1.350 . S
C443 C446 1.463 . S
C443 C448 1.350 . S
C443 N451 1.427 . S
C444 H435 0.930 . S
C444 C442 1.378 . S
C444 C445 1.367 . S
C445 C444 1.367 . S
C445 C447 1.433 . S
C446 C442 1.350 . S
C446 C443 1.463 . S
C446 N450 1.427 . S
C447 H437 0.929 . S
C447 C445 1.433 . S
C447 N450 1.384 . S
C448 H439 0.929 . S
C448 C440 1.378 . S
C448 C443 1.350 . S
C449 H436 0.929 . S
C449 C441 1.433 . S
C449 N451 1.384 . S
N450 C446 1.427 . S
N450 C447 1.384 . S
N451 C443 1.427 . S
N451 C449 1.384 . S
H452 C458 0.930 1_565 S
H453 C462 0.930 . S
H454 C467 0.929 . S
H455 C465 0.929 . S
H456 C460 0.929 . S
H457 C466 0.929 . S
C458 H452 0.930 1_545 S
C458 C459 1.367 . S
C458 C466 1.378 . S
C459 C458 1.367 . S
C459 C467 1.433 . S
C460 H456 0.929 . S
C460 C462 1.378 . S
C460 C464 1.350 . S
C461 C464 1.463 . S
C461 C466 1.350 . S
C461 N469 1.427 . S
C462 H453 0.930 . S
C462 C460 1.378 . S
C462 C463 1.367 . S
C463 C462 1.367 . S
C463 C465 1.433 . S
C464 C460 1.350 . S
C464 C461 1.463 . S
C464 N468 1.427 . S
C465 H455 0.929 . S
C465 C463 1.433 . S
C465 N468 1.384 . S
C466 H457 0.929 . S
C466 C458 1.378 . S
C466 C461 1.350 . S
C467 H454 0.929 . S
C467 C459 1.433 . S
C467 N469 1.384 . S
N468 C464 1.427 . S
N468 C465 1.384 . S
N469 C461 1.427 . S
N469 C467 1.384 . S
H470 C476 0.930 . S
H471 C480 0.930 . S
H472 C485 0.929 . S
H473 C483 0.929 . S
H474 C478 0.929 . S
H475 C484 0.929 . S
C476 H470 0.930 . S
C476 C477 1.367 . S
C476 C484 1.378 . S
C477 C476 1.367 . S
C477 C485 1.433 . S
C478 H474 0.929 . S
C478 C480 1.378 . S
C478 C482 1.350 . S
C479 C482 1.463 . S
C479 C484 1.350 . S
C479 N487 1.427 . S
C480 H471 0.930 . S
C480 C478 1.378 . S
C480 C481 1.367 . S
C481 C480 1.367 . S
C481 C483 1.433 . S
C482 C478 1.350 . S
C482 C479 1.463 . S
C482 N486 1.427 . S
C483 H473 0.929 . S
C483 C481 1.433 . S
C483 N486 1.384 . S
C484 H475 0.929 . S
C484 C476 1.378 . S
C484 C479 1.350 . S
C485 H472 0.929 . S
C485 C477 1.433 . S
C485 N487 1.384 . S
N486 C482 1.427 . S
N486 C483 1.384 . S
N487 C479 1.427 . S
N487 C485 1.384 . S
H488 C494 0.930 . S
H489 C498 0.930 . S
H490 C503 0.929 . S
H491 C501 0.929 . S
H492 C496 0.929 . S
H493 C502 0.929 . S
C494 H488 0.930 . S
C494 C495 1.367 . S
C494 C502 1.378 . S
C495 C494 1.367 . S
C495 C503 1.433 . S
C496 H492 0.929 . S
C496 C498 1.378 . S
C496 C500 1.350 . S
C497 C500 1.463 . S
C497 C502 1.350 . S
C497 N505 1.427 . S
C498 H489 0.930 . S
C498 C496 1.378 . S
C498 C499 1.367 . S
C499 C498 1.367 . S
C499 C501 1.433 . S
C500 C496 1.350 . S
C500 C497 1.463 . S
C500 N504 1.427 . S
C501 H491 0.929 . S
C501 C499 1.433 . S
C501 N504 1.384 . S
C502 H493 0.929 . S
C502 C494 1.378 . S
C502 C497 1.350 . S
C503 H490 0.929 . S
C503 C495 1.433 . S
C503 N505 1.384 . S
N504 C500 1.427 . S
N504 C501 1.384 . S
N505 C497 1.427 . S
N505 C503 1.384 . S
H506 C512 0.930 . S
H507 C516 0.930 . S
H508 C521 0.929 . S
H509 C519 0.929 . S
H510 C514 0.929 . S
H511 C520 0.929 . S
C512 H506 0.930 . S
C512 C513 1.367 . S
C512 C520 1.378 . S
C513 C512 1.367 . S
C513 C521 1.433 . S
C514 H510 0.929 . S
C514 C516 1.378 . S
C514 C518 1.350 . S
C515 C518 1.463 . S
C515 C520 1.350 . S
C515 N523 1.427 . S
C516 H507 0.930 . S
C516 C514 1.378 . S
C516 C517 1.367 . S
C517 C516 1.367 . S
C517 C519 1.433 . S
C518 C514 1.350 . S
C518 C515 1.463 . S
C518 N522 1.427 . S
C519 H509 0.929 . S
C519 C517 1.433 . S
C519 N522 1.384 . S
C520 H511 0.929 . S
C520 C512 1.378 . S
C520 C515 1.350 . S
C521 H508 0.929 . S
C521 C513 1.433 . S
C521 N523 1.384 . S
N522 C518 1.427 . S
N522 C519 1.384 . S
N523 C515 1.427 . S
N523 C521 1.384 . S
H524 C530 0.930 . S
H525 C534 0.930 . S
H526 C539 0.929 . S
H527 C537 0.929 . S
H528 C532 0.929 . S
H529 C538 0.929 . S
C530 H524 0.930 . S
C530 C531 1.367 . S
C530 C538 1.378 . S
C531 C530 1.367 . S
C531 C539 1.433 . S
C532 H528 0.929 . S
C532 C534 1.378 . S
C532 C536 1.350 . S
C533 C536 1.463 . S
C533 C538 1.350 . S
C533 N541 1.427 . S
C534 H525 0.930 . S
C534 C532 1.378 . S
C534 C535 1.367 . S
C535 C534 1.367 . S
C535 C537 1.433 . S
C536 C532 1.350 . S
C536 C533 1.463 . S
C536 N540 1.427 . S
C537 H527 0.929 . S
C537 C535 1.433 . S
C537 N540 1.384 . S
C538 H529 0.929 . S
C538 C530 1.378 . S
C538 C533 1.350 . S
C539 H526 0.929 . S
C539 C531 1.433 . S
C539 N541 1.384 . S
N540 C536 1.427 . S
N540 C537 1.384 . S
N541 C533 1.427 . S
N541 C539 1.384 . S
H542 C548 0.930 . S
H543 C552 0.930 . S
H544 C557 0.929 . S
H545 C555 0.929 . S
H546 C550 0.929 . S
H547 C556 0.929 . S
C548 H542 0.930 . S
C548 C549 1.367 . S
C548 C556 1.378 . S
C549 C548 1.367 . S
C549 C557 1.433 . S
C550 H546 0.929 . S
C550 C552 1.378 . S
C550 C554 1.350 . S
C551 C554 1.463 . S
C551 C556 1.350 . S
C551 N559 1.427 . S
C552 H543 0.930 . S
C552 C550 1.378 . S
C552 C553 1.367 . S
C553 C552 1.367 . S
C553 C555 1.433 . S
C554 C550 1.350 . S
C554 C551 1.463 . S
C554 N558 1.427 . S
C555 H545 0.929 . S
C555 C553 1.433 . S
C555 N558 1.384 . S
C556 H547 0.929 . S
C556 C548 1.378 . S
C556 C551 1.350 . S
C557 H544 0.929 . S
C557 C549 1.433 . S
C557 N559 1.384 . S
N558 C554 1.427 . S
N558 C555 1.384 . S
N559 C551 1.427 . S
N559 C557 1.384 . S
H560 C566 0.930 . S
H561 C570 0.930 . S
H562 C575 0.929 . S
H563 C573 0.929 . S
H564 C568 0.929 . S
H565 C574 0.929 . S
C566 H560 0.930 . S
C566 C567 1.367 . S
C566 C574 1.378 . S
C567 C566 1.367 . S
C567 C575 1.433 . S
C568 H564 0.929 . S
C568 C570 1.378 . S
C568 C572 1.350 . S
C569 C572 1.463 . S
C569 C574 1.350 . S
C569 N577 1.427 . S
C570 H561 0.930 . S
C570 C568 1.378 . S
C570 C571 1.367 . S
C571 C570 1.367 . S
C571 C573 1.433 . S
C572 C568 1.350 . S
C572 C569 1.463 . S
C572 N576 1.427 . S
C573 H563 0.929 . S
C573 C571 1.433 . S
C573 N576 1.384 . S
C574 H565 0.929 . S
C574 C566 1.378 . S
C574 C569 1.350 . S
C575 H562 0.929 . S
C575 C567 1.433 . S
C575 N577 1.384 . S
N576 C572 1.427 . S
N576 C573 1.384 . S
N577 C569 1.427 . S
N577 C575 1.384 . S
H578 C584 0.930 . S
H579 C588 0.930 . S
H580 C593 0.929 . S
H581 C591 0.929 . S
H582 C586 0.929 . S
H583 C592 0.929 . S
C584 H578 0.930 . S
C584 C585 1.367 . S
C584 C592 1.378 . S
C585 C584 1.367 . S
C585 C593 1.433 . S
C586 H582 0.929 . S
C586 C588 1.378 . S
C586 C590 1.350 . S
C587 C590 1.463 . S
C587 C592 1.350 . S
C587 N595 1.427 . S
C588 H579 0.930 . S
C588 C586 1.378 . S
C588 C589 1.367 . S
C589 C588 1.367 . S
C589 C591 1.433 . S
C590 C586 1.350 . S
C590 C587 1.463 . S
C590 N594 1.427 . S
C591 H581 0.929 . S
C591 C589 1.433 . S
C591 N594 1.384 . S
C592 H583 0.929 . S
C592 C584 1.378 . S
C592 C587 1.350 . S
C593 H580 0.929 . S
C593 C585 1.433 . S
C593 N595 1.384 . S
N594 C590 1.427 . S
N594 C591 1.384 . S
N595 C587 1.427 . S
N595 C593 1.384 . S
H596 C602 0.930 . S
H597 C606 0.930 . S
H598 C611 0.929 . S
H599 C609 0.929 . S
H600 C604 0.929 . S
H601 C610 0.929 . S
C602 H596 0.930 . S
C602 C603 1.367 . S
C602 C610 1.378 . S
C603 C602 1.367 . S
C603 C611 1.433 . S
C604 H600 0.929 . S
C604 C606 1.378 . S
C604 C608 1.350 . S
C605 C608 1.463 . S
C605 C610 1.350 . S
C605 N613 1.427 . S
C606 H597 0.930 . S
C606 C604 1.378 . S
C606 C607 1.367 . S
C607 C606 1.367 . S
C607 C609 1.433 . S
C608 C604 1.350 . S
C608 C605 1.463 . S
C608 N612 1.427 . S
C609 H599 0.929 . S
C609 C607 1.433 . S
C609 N612 1.384 . S
C610 H601 0.929 . S
C610 C602 1.378 . S
C610 C605 1.350 . S
C611 H598 0.929 . S
C611 C603 1.433 . S
C611 N613 1.384 . S
N612 C608 1.427 . S
N612 C609 1.384 . S
N613 C605 1.427 . S
N613 C611 1.384 . S
H614 C620 0.930 . S
H615 C624 0.930 . S
H616 C629 0.929 . S
H617 C627 0.929 . S
H618 C622 0.929 . S
H619 C628 0.929 . S
C620 H614 0.930 . S
C620 C621 1.367 . S
C620 C628 1.378 . S
C621 C620 1.367 . S
C621 C629 1.433 . S
C622 H618 0.929 . S
C622 C624 1.378 . S
C622 C626 1.350 . S
C623 C626 1.463 . S
C623 C628 1.350 . S
C623 N631 1.427 . S
C624 H615 0.930 . S
C624 C622 1.378 . S
C624 C625 1.367 . S
C625 C624 1.367 . S
C625 C627 1.433 . S
C626 C622 1.350 . S
C626 C623 1.463 . S
C626 N630 1.427 . S
C627 H617 0.929 . S
C627 C625 1.433 . S
C627 N630 1.384 . S
C628 H619 0.929 . S
C628 C620 1.378 . S
C628 C623 1.350 . S
C629 H616 0.929 . S
C629 C621 1.433 . S
C629 N631 1.384 . S
N630 C626 1.427 . S
N630 C627 1.384 . S
N631 C623 1.427 . S
N631 C629 1.384 . S
C207 C45 1.562 . S
C211 C108 1.571 . S
C225 C30 1.568 . S
C229 C120 1.577 . S
C243 C39 1.561 . S
C247 C132 1.557 . S
C265 C144 1.572 . S
C261 C34 1.567 . S
C279 C97 1.559 . S
C283 C156 1.569 . S
C301 C168 1.557 . S
C297 C82 1.561 . S
C319 C180 1.562 . S
C315 C91 1.564 . S
C337 C192 1.572 . S
C333 C86 1.561 . S
C355 C185 1.531 . S
C351 C26 1.486 . S
C373 C194 1.502 . S
C369 C36 1.466 . S
C391 C158 1.521 . S
C387 C32 1.483 . S
C409 C173 1.560 . S
C405 C42 1.521 . S
C423 C18 1.545 . S
C427 C170 1.619 . S
C445 C182 1.639 . S
C441 C50 1.569 . S
C459 C4 1.596 . S
C463 C197 1.643 . S
C477 C48 1.584 . S
C481 C161 1.630 . S
C499 C137 1.557 . S
C495 C78 1.517 . S
C513 C88 1.470 . S
C517 C146 1.510 . S
C535 C110 1.538 . S
C531 C84 1.500 . S
C553 C122 1.477 . S
C549 C94 1.448 . S
C571 C125 1.679 . S
C567 C70 1.634 . S
C589 C134 1.618 . S
C585 C102 1.553 . S
C603 C56 1.590 . S
C607 C149 1.636 . S
C621 C100 1.553 . S
C625 C113 1.602 . S
