# Generated by pormake.
# Topology anh, (6,3)-cn, num edge types: 1
# Building blocks:
#     Node 0, Type 0, BuildingBlock: PAMTUU_clean_sbu_0, # of connection points: 6
#     Node 1, Type 0, BuildingBlock: PAMTUU_clean_sbu_0, # of connection points: 6
#     Node 2, Type 0, BuildingBlock: PAMTUU_clean_sbu_0, # of connection points: 6
#     Node 3, Type 1, BuildingBlock: BETDAH_clean_linker_0, # of connection points: 3
#     Node 4, Type 1, BuildingBlock: BETDAH_clean_linker_0, # of connection points: 3
#     Node 5, Type 1, BuildingBlock: BETDAH_clean_linker_0, # of connection points: 3
#     Node 6, Type 1, BuildingBlock: BETDAH_clean_linker_0, # of connection points: 3
#     Node 7, Type 1, BuildingBlock: BETDAH_clean_linker_0, # of connection points: 3
#     Node 8, Type 1, BuildingBlock: BETDAH_clean_linker_0, # of connection points: 3
#     Edge 9, Type (0, 1), BuildingBlock: EZIPEK_clean_linker_0, # of connection points: 2
#     Edge 10, Type (0, 1), BuildingBlock: EZIPEK_clean_linker_0, # of connection points: 2
#     Edge 11, Type (0, 1), BuildingBlock: EZIPEK_clean_linker_0, # of connection points: 2
#     Edge 12, Type (0, 1), BuildingBlock: EZIPEK_clean_linker_0, # of connection points: 2
#     Edge 13, Type (0, 1), BuildingBlock: EZIPEK_clean_linker_0, # of connection points: 2
#     Edge 14, Type (0, 1), BuildingBlock: EZIPEK_clean_linker_0, # of connection points: 2
#     Edge 15, Type (0, 1), BuildingBlock: EZIPEK_clean_linker_0, # of connection points: 2
#     Edge 16, Type (0, 1), BuildingBlock: EZIPEK_clean_linker_0, # of connection points: 2
#     Edge 17, Type (0, 1), BuildingBlock: EZIPEK_clean_linker_0, # of connection points: 2
#     Edge 18, Type (0, 1), BuildingBlock: EZIPEK_clean_linker_0, # of connection points: 2
#     Edge 19, Type (0, 1), BuildingBlock: EZIPEK_clean_linker_0, # of connection points: 2
#     Edge 20, Type (0, 1), BuildingBlock: EZIPEK_clean_linker_0, # of connection points: 2
#     Edge 21, Type (0, 1), BuildingBlock: EZIPEK_clean_linker_0, # of connection points: 2
#     Edge 22, Type (0, 1), BuildingBlock: EZIPEK_clean_linker_0, # of connection points: 2
#     Edge 23, Type (0, 1), BuildingBlock: EZIPEK_clean_linker_0, # of connection points: 2
#     Edge 24, Type (0, 1), BuildingBlock: EZIPEK_clean_linker_0, # of connection points: 2
#     Edge 25, Type (0, 1), BuildingBlock: EZIPEK_clean_linker_0, # of connection points: 2
#     Edge 26, Type (0, 1), BuildingBlock: EZIPEK_clean_linker_0, # of connection points: 2
# Relax obj value: 0.377
# Max RMSD: 0.161
# Mean RMSD: 0.112
data_MOF--net-anh--node1-PAMTUU_clean_sbu_0--node2-BETDAH_clean_linker_0--edge1-EZIPEK_clean_linker_0
_symmetry_space_group_name_H-M    P1
_symmetry_Int_Tables_number       1
_symmetry_cell_setting            triclinic
loop_
_symmetry_equiv_pos_as_xyz
'x, y, z'
_cell_length_a     22.092753
_cell_length_b     22.027493
_cell_length_c     36.344108
_cell_angle_alpha  91.975522
_cell_angle_beta   94.082518
_cell_angle_gamma 119.72104
loop_
_atom_site_label
_atom_site_type_symbol
_atom_site_fract_x
_atom_site_fract_y
_atom_site_fract_z
_atom_type_partial_charge
Tb0 Tb 0.27751 0.80878 0.1801 0.0
Tb1 Tb 0.3605 0.72512 0.16736 0.0
C2 C 0.28249 0.75115 0.09982 0.0
C3 C 1.12591 0.83048 0.18234 0.0
C4 C 0.98192 0.73361 0.17003 0.0
C5 C 1.0214 0.75977 0.14003 0.0
C6 C 1.09283 0.80795 0.14606 0.0
C7 C 1.08472 0.80898 0.21227 0.0
C8 C 1.01307 0.76035 0.20616 0.0
C9 C 0.20287 0.8638 0.1893 0.0
O10 O 0.20435 0.70054 0.19271 0.0
O11 O 0.24849 0.64215 0.16086 0.0
O12 O 0.35132 0.72725 0.22597 0.0
O13 O 0.33806 0.82358 0.23306 0.0
O14 O 0.38134 0.64561 0.18161 0.0
O15 O 0.43641 0.71513 0.14028 0.0
O16 O 0.443 0.83428 0.18563 0.0
O17 O 0.38322 0.89134 0.16987 0.0
O18 O 0.24457 0.76227 0.12257 0.0
O19 O 0.33763 0.74769 0.11215 0.0
C20 C 0.19794 0.64154 0.17858 0.0
O21 O 0.22441 0.83844 0.21569 0.0
O22 O 0.23749 0.872 0.16047 0.0
C23 C 0.35239 0.77734 0.24675 0.0
C24 C 0.40963 0.59811 0.13176 0.0
C25 C 0.38174 0.47661 0.08975 0.0
C26 C 0.44902 0.52173 0.10759 0.0
C27 C 0.46285 0.58209 0.1285 0.0
C28 C 0.3427 0.5544 0.11295 0.0
C29 C 0.32873 0.49359 0.09194 0.0
C30 C 0.42396 0.65866 0.15626 0.0
C31 C 0.4427 0.89321 0.18018 0.0
H32 H 0.99772 0.73956 0.11195 0.0
H33 H 1.12272 0.82354 0.12235 0.0
H34 H 1.10888 0.82569 0.2405 0.0
H35 H 0.98301 0.74048 0.22955 0.0
H36 H 0.49045 0.50915 0.10601 0.0
H37 H 0.51466 0.61541 0.1428 0.0
H38 H 0.30114 0.56649 0.11525 0.0
H39 H 0.27666 0.45918 0.07826 0.0
Tb40 Tb 0.61484 0.20689 0.48543 0.0
Tb41 Tb 0.777 0.27945 0.52016 0.0
C42 C 0.73866 0.26111 0.43252 0.0
C43 C 0.43224 1.0668 0.46771 0.0
C44 C 0.36131 0.92997 0.49034 0.0
C45 C 0.39402 0.94322 0.45755 0.0
C46 C 0.42882 1.01078 0.4462 0.0
C47 C 0.39176 1.05197 0.49792 0.0
C48 C 0.35677 0.98371 0.50941 0.0
C49 C 0.48613 0.13959 0.46208 0.0
O50 O 0.63324 1.12014 0.50111 0.0
O51 O 0.75219 0.17406 0.49946 0.0
O52 O 0.71425 0.2197 0.56321 0.0
O53 O 0.61621 0.224 0.54492 0.0
O54 O 0.8574 0.27759 0.55374 0.0
O55 O 0.87444 0.37198 0.52952 0.0
O56 O 0.73971 0.35384 0.53232 0.0
O57 O 0.65308 0.31981 0.48476 0.0
O58 O 0.67134 0.22738 0.43642 0.0
O59 O 0.78716 0.28832 0.46087 0.0
C60 C 0.69137 1.11659 0.501 0.0
O61 O 0.51143 0.18406 0.49122 0.0
O62 O 0.5361 0.14578 0.4428 0.0
C63 C 0.65264 0.21 0.56963 0.0
C64 C 0.96886 0.35187 0.53494 0.0
C65 C 1.0942 0.38378 0.50543 0.0
C66 C 1.09502 0.4235 0.53666 0.0
C67 C 1.03261 0.40757 0.55135 0.0
C68 C 0.96819 0.31042 0.50449 0.0
C69 C 1.03074 0.32608 0.48992 0.0
C70 C 0.9033 0.34147 0.54778 0.0
C71 C 0.69768 0.36723 0.51082 0.0
H72 H 0.39722 0.90213 0.44215 0.0
H73 H 0.45759 1.01971 0.42214 0.0
H74 H 0.39197 1.09392 0.51448 0.0
H75 H 0.33076 0.97404 0.53449 0.0
H76 H 1.14362 0.46837 0.54877 0.0
H77 H 1.0338 0.44019 0.57472 0.0
H78 H 0.91918 0.26755 0.49131 0.0
H79 H 1.02939 0.29528 0.46566 0.0
Tb80 Tb 0.71132 0.62654 0.81564 0.0
Tb81 Tb 0.7836 0.7897 0.84424 0.0
C82 C 0.75462 0.73982 0.75962 0.0
C83 C 0.67244 0.44493 0.80423 0.0
C84 C 0.66884 0.32573 0.83062 0.0
C85 C 0.65148 0.32752 0.79282 0.0
C86 C 0.65288 0.38665 0.77976 0.0
C87 C 0.69604 0.44587 0.84138 0.0
C88 C 0.69362 0.386 0.85468 0.0
C89 C 0.66186 0.50137 0.79151 0.0
O90 O 0.82376 0.65941 0.82663 0.0
O91 O 0.8742 0.77393 0.8508 0.0
O92 O 0.73433 0.72583 0.89018 0.0
O93 O 0.74444 0.63161 0.87315 0.0
O94 O 0.81013 0.89199 0.83254 0.0
O95 O 0.83129 0.86991 0.88773 0.0
O96 O 0.67156 0.75598 0.8328 0.0
O97 O 0.62237 0.63668 0.83316 0.0
O98 O 0.70412 0.68057 0.76865 0.0
O99 O 0.80097 0.78635 0.78535 0.0
C100 C 0.87898 0.71792 0.84195 0.0
O101 O 0.63093 0.52237 0.81368 0.0
O102 O 0.71532 0.55345 0.77865 0.0
C103 C 0.73355 0.66775 0.89826 0.0
C104 C 0.77424 0.9364 0.87974 0.0
C105 C 0.64222 0.92313 0.86509 0.0
C106 C 0.65232 0.88348 0.89152 0.0
C107 C 0.71817 0.89001 0.89893 0.0
C108 C 0.76735 0.98683 0.86007 0.0
C109 C 0.70119 0.9802 0.85274 0.0
C110 C 0.82254 0.91346 0.86757 0.0
C111 C 0.61661 0.69359 0.83508 0.0
H112 H 0.63201 0.28125 0.77388 0.0
H113 H 0.6352 0.38549 0.75101 0.0
H114 H 0.71285 0.49148 0.86041 0.0
H115 H 0.7074 0.38546 0.88381 0.0
H116 H 0.60801 0.84163 0.9027 0.0
H117 H 0.72201 0.85141 0.91509 0.0
H118 H 0.80989 1.02357 0.8453 0.0
H119 H 0.69453 1.01221 0.83271 0.0
H120 H 0.67845 0.14826 0.27821 0.0
H121 H 0.87092 0.33859 0.26642 0.0
H122 H 0.75182 0.19561 0.17064 0.0
C123 C 0.71726 0.18219 0.26064 0.0
C124 C 0.70692 0.16317 0.22242 0.0
C125 C 0.77546 0.2451 0.27661 0.0
C126 C 0.82655 0.2902 0.25404 0.0
C127 C 0.81943 0.27246 0.2156 0.0
C128 C 0.75876 0.20906 0.20018 0.0
N129 N 0.87023 0.31572 0.19117 0.0
C130 C 0.93453 0.38013 0.19799 0.0
H131 H 0.7296 0.62492 0.60469 0.0
H132 H 0.71933 0.81177 0.58509 0.0
H133 H 0.68837 0.66573 0.4935 0.0
C134 C 0.72256 0.65807 0.58551 0.0
C135 C 0.70896 0.63721 0.54741 0.0
C136 C 0.72653 0.72077 0.5993 0.0
C137 C 0.71682 0.76398 0.57441 0.0
C138 C 0.70268 0.74463 0.53602 0.0
C139 C 0.69921 0.68116 0.52291 0.0
N140 N 0.69112 0.78628 0.5097 0.0
C141 C 0.69096 0.85 0.51579 0.0
H142 H 1.12354 0.71637 0.94249 0.0
H143 H 0.31517 0.71833 0.9257 0.0
H144 H 1.18454 0.72008 0.83218 0.0
C145 C 1.15956 0.71661 0.92366 0.0
C146 C 1.14482 0.71769 0.88531 0.0
C147 C 0.22174 0.71937 0.93846 0.0
C148 C 0.26841 0.71774 0.91425 0.0
C149 C 0.25478 0.71626 0.87562 0.0
C150 C 0.19388 0.71836 0.86169 0.0
N151 N 0.30077 0.71458 0.84977 0.0
C152 C 0.36053 0.70658 0.85546 0.0
H153 H 0.37571 0.78966 0.42087 0.0
H154 H 0.4287 0.64219 0.37503 0.0
H155 H 0.38725 0.63977 0.48919 0.0
C156 C 0.38819 0.74837 0.42474 0.0
C157 C 0.38241 0.71998 0.45904 0.0
C158 C 0.40389 0.7202 0.39441 0.0
C159 C 0.41892 0.6659 0.39882 0.0
C160 C 0.41355 0.63701 0.43306 0.0
C161 C 0.3946 0.66388 0.46316 0.0
N162 N 0.41544 0.57394 0.43522 0.0
C163 C 0.35785 0.51674 0.44708 0.0
H164 H 0.59573 0.17117 0.73678 0.0
H165 H 0.46018 0.97182 0.67547 0.0
H166 H 0.46756 0.99251 0.7943 0.0
C167 C 0.55637 1.11614 0.73604 0.0
C168 C 0.53446 1.08558 0.76921 0.0
C169 C 0.53118 1.07567 0.70207 0.0
C170 C 0.47968 1.00415 0.70143 0.0
C171 C 0.45554 0.97377 0.73457 0.0
C172 C 0.48406 1.01502 0.76839 0.0
N173 N 0.40766 0.90071 0.73431 0.0
C174 C 0.41638 0.86507 0.76309 0.0
H175 H 0.78162 0.60651 0.05881 0.0
H176 H 0.5799 0.43586 0.01595 0.0
H177 H 0.67383 0.429 0.12235 0.0
C178 C 0.73617 0.55581 0.06166 0.0
C179 C 0.73212 0.52304 0.09443 0.0
C180 C 0.68082 0.5258 0.03346 0.0
C181 C 0.62257 0.45986 0.03773 0.0
C182 C 0.62186 0.4228 0.06866 0.0
C183 C 0.67605 0.45543 0.09746 0.0
N184 N 0.56706 0.35306 0.07116 0.0
C185 C 0.49801 0.33381 0.06036 0.0
C186 C 0.39365 0.4128 0.03586 0.0
C187 C 0.3688 0.41028 0.07088 0.0
C188 C 0.39271 0.31711 0.08643 0.0
C189 C 0.43172 0.33189 0.05562 0.0
N190 N 0.4444 0.36619 -0.00632 0.0
N191 N 0.31931 0.34435 0.12262 0.0
C192 C 0.42246 0.36964 0.02742 0.0
C193 C 0.35815 0.35545 0.09343 0.0
N194 N 0.39508 0.46074 0.01263 0.0
N195 N 0.39421 0.27105 0.11015 0.0
H196 H 0.29459 0.3733 0.12768 0.0
H197 H 0.30771 0.30427 0.14001 0.0
H198 H 0.41873 0.24218 0.10428 0.0
H199 H 0.37187 0.26147 0.13507 0.0
H200 H 0.41896 0.47071 0.98816 0.0
H201 H 0.37249 0.49137 0.01864 0.0
H202 H 0.43719 0.39043 0.97105 0.0
H203 H 0.4656 0.33408 0.98811 0.0
C204 C 0.21425 0.3989 0.50379 0.0
C205 C 1.15913 0.4074 0.48709 0.0
C206 C 0.23106 0.46865 0.43794 0.0
C207 C 0.28904 0.46967 0.45778 0.0
N208 N 0.33887 0.43835 0.50961 0.0
N209 N 1.11685 0.45716 0.44059 0.0
C210 C 0.28145 0.43486 0.49056 0.0
C211 C 1.16759 0.44336 0.45448 0.0
N212 N 0.2019 0.35602 0.53199 0.0
N213 N 0.2369 0.49225 0.40331 0.0
H214 H 1.06945 0.43997 0.45187 0.0
H215 H 1.12393 0.4906 0.4197 0.0
H216 H 0.28288 0.51095 0.39037 0.0
H217 H 0.19462 0.487 0.38605 0.0
H218 H 0.23796 0.34265 0.54325 0.0
H219 H 1.15309 0.32907 0.54216 0.0
H220 H 0.33872 0.42104 0.53591 0.0
H221 H 0.38802 0.46194 0.49963 0.0
C222 C 0.51578 0.89428 0.85503 0.0
C223 C 0.57369 0.89182 0.84205 0.0
C224 C 0.5054 0.83626 0.78223 0.0
C225 C 0.45427 0.85165 0.79273 0.0
N226 N 0.4019 0.88454 0.83915 0.0
N227 N 0.62246 0.85516 0.79424 0.0
C228 C 0.45599 0.87593 0.82954 0.0
C229 C 0.5676 0.85999 0.80612 0.0
N230 N 0.51888 0.91543 0.89123 0.0
N231 N 0.49409 0.79933 0.74901 0.0
H232 H 0.66629 0.86477 0.81163 0.0
H233 H 0.62633 0.84533 0.76658 0.0
H234 H 0.44757 0.78047 0.73169 0.0
H235 H 0.52705 0.78202 0.74012 0.0
H236 H 0.47693 0.91385 0.90335 0.0
H237 H 0.56306 0.93141 0.90995 0.0
H238 H 0.40138 0.90783 0.86441 0.0
H239 H 0.35699 0.86847 0.8209 0.0
C240 C 0.90406 0.60533 0.15479 0.0
C241 C 0.91087 0.67193 0.16287 0.0
C242 C 0.78802 0.62522 0.14135 0.0
C243 C 0.78562 0.56392 0.12577 0.0
N244 N 0.84021 0.49338 0.11851 0.0
N245 N 0.85688 0.74313 0.1695 0.0
C246 C 0.8426 0.55227 0.13365 0.0
C247 C 0.85188 0.68084 0.15841 0.0
N248 N 0.95657 0.59326 0.1673 0.0
N249 N 0.7306 0.63318 0.13861 0.0
H250 H 0.90306 0.78537 0.18249 0.0
H251 H 0.81452 0.75178 0.16587 0.0
H252 H 0.68111 0.59421 0.1269 0.0
H253 H 0.68111 0.59421 0.1269 0.0
H254 H 0.95089 0.54349 0.1662 0.0
H255 H 1.00275 0.63169 0.18237 0.0
H256 H 0.88349 0.4863 0.11923 0.0
H257 H 0.79553 0.45282 0.10347 0.0
C258 C 0.39754 0.85772 0.52504 0.0
C259 C 0.3421 0.86224 0.50589 0.0
C260 C 0.29097 0.7413 0.48064 0.0
C261 C 0.35754 0.74752 0.48859 0.0
N262 N 0.46775 0.80072 0.52625 0.0
N263 N 0.22656 0.80428 0.47434 0.0
C264 C 0.40794 0.80117 0.51455 0.0
C265 C 0.28421 0.80134 0.48771 0.0
N266 N 0.44206 0.91004 0.55103 0.0
N267 N 0.23744 0.68015 0.46347 0.0
H268 H 0.22233 0.84878 0.48004 0.0
H269 H 1.18426 0.76403 0.45779 0.0
H270 H 0.244 0.63704 0.45775 0.0
H271 H 0.18661 0.67068 0.45737 0.0
H272 H 0.4827 0.90964 0.56715 0.0
H273 H 0.43354 0.95111 0.55848 0.0
H274 H 0.51037 0.84199 0.54209 0.0
H275 H 0.47466 0.75836 0.51934 0.0
C276 C 0.57688 0.21673 0.84922 0.0
C277 C 0.64846 0.25664 0.84426 0.0
C278 C 0.64257 0.15536 0.81195 0.0
C279 C 0.56936 0.12794 0.80462 0.0
N280 N 0.46381 0.12482 0.82117 0.0
N281 N 0.7546 0.25936 0.8328 0.0
C282 C 0.53496 0.15451 0.82588 0.0
C283 C 0.68332 0.22283 0.83095 0.0
N284 N 0.54914 0.24271 0.87324 0.0
N285 N 0.67221 1.11855 0.79874 0.0
H286 H 0.78319 0.30937 0.84666 0.0
H287 H 0.78443 0.24122 0.82055 0.0
H288 H 0.64178 1.06887 0.78476 0.0
H289 H 0.72512 0.13447 0.80397 0.0
H290 H 0.49744 0.21488 0.87952 0.0
H291 H 0.58079 0.28998 0.88928 0.0
H292 H 0.43697 0.14696 0.83304 0.0
H293 H 0.4316 1.07918 0.80417 0.0
C294 C 0.73489 1.0415 0.53365 0.0
C295 C 0.68924 1.04677 0.50559 0.0
C296 C 0.63744 0.91908 0.48865 0.0
C297 C 0.68841 0.91629 0.5138 0.0
N298 N 0.79204 0.97803 0.55666 0.0
N299 N 0.60285 0.99043 0.4529 0.0
C300 C 0.73894 0.9785 0.53518 0.0
C301 C 0.64164 0.98523 0.48235 0.0
N302 N 0.77174 1.09528 0.56044 0.0
N303 N 0.58433 0.85815 0.4708 0.0
H304 H 0.60573 1.03755 0.44663 0.0
H305 H 0.57261 0.94967 0.43265 0.0
H306 H 0.58037 0.80944 0.474 0.0
H307 H 0.541 0.85484 0.45549 0.0
H308 H 0.79985 1.0919 0.58375 0.0
H309 H 0.76817 0.1406 0.56165 0.0
H310 H 0.8354 1.02335 0.56939 0.0
H311 H 0.79551 0.93283 0.5594 0.0
C312 C 0.99437 0.75975 0.88354 0.0
C313 C 0.94875 0.71969 0.85138 0.0
C314 C 1.02924 0.67312 0.84222 0.0
C315 C 1.07918 0.72081 0.87119 0.0
N316 N 1.11491 0.82633 0.91027 0.0
N317 N 0.93756 0.65317 0.79434 0.0
C318 C 1.06348 0.76939 0.8889 0.0
C319 C 0.9705 0.6807 0.82899 0.0
N320 N 0.97112 0.78508 0.91066 0.0
N321 N 1.03526 0.61829 0.82824 0.0
H322 H 0.8988 0.66213 0.78223 0.0
H323 H 0.95512 0.62928 0.776 0.0
H324 H 1.07445 0.60815 0.83829 0.0
H325 H 0.99674 0.57865 0.80957 0.0
H326 H 1.00138 0.80996 0.93565 0.0
H327 H 0.91911 0.7727 0.91072 0.0
H328 H 1.10709 0.86583 0.92149 0.0
H329 H 1.16704 0.83826 0.91273 0.0
C330 C 0.51118 1.02127 0.20852 0.0
C331 C 0.5105 0.96406 0.18834 0.0
C332 C 0.64025 1.03749 0.18985 0.0
C333 C 0.63949 1.09639 0.20687 0.0
N334 N 0.56925 0.1473 0.22263 0.0
N335 N 0.57534 0.92658 0.15217 0.0
C336 C 0.5733 1.08903 0.213 0.0
C337 C 0.57542 0.97482 0.17683 0.0
N338 N 0.45419 1.01059 0.22584 0.0
N339 N 0.70271 1.0398 0.1874 0.0
H340 H 0.52948 0.88221 0.14064 0.0
H341 H 0.61982 0.93458 0.14006 0.0
H342 H 0.75078 1.08373 0.19674 0.0
H343 H 0.70639 0.99608 0.17912 0.0
H344 H 0.45467 1.04867 0.24389 0.0
H345 H 0.40943 0.96172 0.22597 0.0
H346 H 0.52179 0.14629 0.22397 0.0
H347 H 0.61281 0.19774 0.2252 0.0
C348 C 0.76226 0.50151 0.51566 0.0
C349 C 0.69912 0.43669 0.51745 0.0
C350 C 0.63989 0.50428 0.532 0.0
C351 C 0.70465 0.56862 0.53406 0.0
N352 N 0.82941 0.62771 0.5314 0.0
N353 N 0.57966 0.37718 0.53259 0.0
C354 C 0.7663 0.56684 0.5268 0.0
C355 C 0.63824 0.4384 0.5267 0.0
N356 N 0.81791 0.5009 0.50182 0.0
N357 N 0.57947 0.5061 0.5349 0.0
H358 H 0.57646 0.3284 0.52974 0.0
H359 H 0.53634 0.37501 0.54344 0.0
H360 H 0.57886 0.55276 0.53965 0.0
H361 H 0.52968 0.46224 0.52958 0.0
H362 H 0.86288 0.54599 0.49603 0.0
H363 H 0.81663 0.45476 0.49282 0.0
H364 H 0.87734 0.62946 0.53116 0.0
H365 H 0.83416 0.67648 0.53792 0.0
C366 C 0.49583 0.67378 0.81037 0.0
C367 C 0.5465 0.68848 0.84086 0.0
C368 C 0.47427 0.71385 0.88133 0.0
C369 C 0.4229 0.69803 0.85113 0.0
N370 N 0.37961 0.65237 0.78777 0.0
N371 N 0.57293 0.70305 0.907 0.0
C372 C 0.4322 0.67459 0.81593 0.0
C373 C 0.53218 0.70254 0.87681 0.0
N374 N 0.50918 0.65998 0.77586 0.0
N375 N 0.46927 0.74212 0.91422 0.0
H376 H 0.61388 0.69302 0.90475 0.0
H377 H 0.56192 0.70624 0.93414 0.0
H378 H 0.42875 0.75215 0.91824 0.0
H379 H 0.50814 0.76128 0.9364 0.0
H380 H 0.47894 0.65558 0.75157 0.0
H381 H 0.55295 0.65555 0.77129 0.0
H382 H 0.37905 0.62846 0.76247 0.0
H383 H 0.33359 0.65371 0.79046 0.0
C384 C 1.11871 0.54504 0.21877 0.0
C385 C 1.13148 0.57249 0.18336 0.0
C386 C 1.01844 0.46932 0.15753 0.0
C387 C 1.00225 0.44576 0.19355 0.0
N388 N 1.03549 0.46592 0.25916 0.0
N389 N 1.08655 0.56576 0.12022 0.0
C390 C 1.05206 0.48517 0.22435 0.0
C391 C 1.07951 0.53566 0.15305 0.0
N392 N 1.17167 0.57453 0.24689 0.0
N393 N 0.9756 0.42796 0.1272 0.0
H394 H 1.12951 0.61413 0.11609 0.0
H395 H 1.04712 0.54621 0.0983 0.0
H396 H 0.92967 0.3806 0.12905 0.0
H397 H 0.98826 0.43788 0.10017 0.0
H398 H 1.16913 0.55378 0.2724 0.0
H399 H 0.221 0.61659 0.24349 0.0
H400 H 1.06526 0.49633 0.28317 0.0
H401 H 0.98905 0.42138 0.26401 0.0
C402 C 0.23859 0.67583 0.0391 0.0
C403 C 0.26369 0.74235 0.05871 0.0
C404 C 0.26196 0.79369 -0.0004 0.0
C405 C 0.2389 0.72765 0.97987 0.0
N406 N 0.21103 0.60728 0.98004 0.0
N407 N 0.30744 0.86638 0.0579 0.0
C408 C 0.22897 0.66915 -0.00053 0.0
C409 C 0.27701 0.80165 0.03901 0.0
N410 N 0.22189 0.61848 0.0586 0.0
N411 N 0.26952 0.84905 0.98049 0.0
H412 H 0.31812 0.87411 0.08664 0.0
H413 H 0.32624 0.91322 0.04531 0.0
H414 H 0.266 0.84753 0.95168 0.0
H415 H 0.27667 0.89574 -0.00713 0.0
H416 H 0.19652 0.5671 0.04684 0.0
H417 H 0.22943 0.6216 0.08737 0.0
H418 H 0.21054 0.5647 0.99181 0.0
H419 H 0.20016 0.59945 0.95133 0.0
C420 C 0.79665 0.23502 0.38104 0.0
C421 C 0.75981 0.2681 0.39383 0.0
C422 C 0.74261 0.29579 0.33008 0.0
C423 C 0.77954 0.26294 0.31735 0.0
N424 N 0.8545 0.21488 0.33135 0.0
N425 N 0.71297 0.34451 0.38228 0.0
C426 C 0.811 0.23731 0.34317 0.0
C427 C 0.73748 0.30296 0.3688 0.0
N428 N 0.81418 0.19765 0.40446 0.0
N429 N 0.71022 0.31796 0.30496 0.0
H430 H 0.70972 0.35178 0.41044 0.0
H431 H 0.70213 0.37684 0.36621 0.0
H432 H 0.7156 0.31667 0.27669 0.0
H433 H 0.67506 0.33404 0.31174 0.0
H434 H 0.83346 0.16549 0.3959 0.0
H435 H 0.80482 0.19459 0.43221 0.0
H436 H 0.88486 0.20214 0.34912 0.0
H437 H 0.86498 0.21492 0.3038 0.0
C438 C 0.69358 0.74417 0.69972 0.0
C439 C 0.75553 0.7524 0.71931 0.0
C440 C 0.8047 0.75846 0.65984 0.0
C441 C 0.73864 0.73899 0.64042 0.0
N442 N 0.61738 0.70646 0.64227 0.0
N443 N 0.86885 0.76191 0.71777 0.0
C444 C 0.68252 0.73086 0.66045 0.0
C445 C 0.81134 0.7592 0.69934 0.0
N446 N 0.64532 0.74966 0.71888 0.0
N447 N 0.86127 0.77677 0.64045 0.0
H448 H 0.87602 0.76319 0.7465 0.0
H449 H 0.90723 0.75812 0.70451 0.0
H450 H 0.85805 0.77675 0.61166 0.0
H451 H 0.91226 0.79797 0.65294 0.0
H452 H 0.60231 0.75108 0.70621 0.0
H453 H 0.65226 0.75976 0.74756 0.0
H454 H 0.57258 0.69134 0.65576 0.0
H455 H 0.60674 0.69587 0.61364 0.0
C456 C 0.66455 0.18872 0.63726 0.0
C457 C 0.62127 0.17698 0.60389 0.0
C458 C 0.51818 1.10686 0.6368 0.0
C459 C 0.5618 1.10874 0.66779 0.0
N460 N 0.67835 0.13704 0.69246 0.0
N461 N 0.50648 1.10289 0.57053 0.0
C462 C 0.63567 0.14528 0.66654 0.0
C463 C 0.54782 0.13013 0.60317 0.0
N464 N 0.73206 0.24297 0.642 0.0
N465 N 0.44893 1.08428 0.63931 0.0
H466 H 0.52644 1.10834 0.54501 0.0
H467 H 0.45347 1.06599 0.56957 0.0
H468 H 0.42562 1.06938 0.66386 0.0
H469 H 0.41696 1.08804 0.61804 0.0
H470 H 0.76337 0.25598 0.66709 0.0
H471 H 0.75354 0.28031 0.62283 0.0
H472 H 0.73196 0.15856 0.69075 0.0
H473 H 0.65909 1.10224 0.71302 0.0
C474 C 0.6709 0.56029 0.93207 0.0
C475 C 0.70974 0.63459 0.93356 0.0
C476 C 0.70731 0.63562 0.00075 0.0
C477 C 0.68582 0.56267 -0.00097 0.0
N478 N 0.66521 0.461 0.96004 0.0
N479 N 0.76497 0.74443 0.97211 0.0
C480 C 0.67242 0.52622 0.96385 0.0
C481 C 0.728 0.67292 0.96863 0.0
N482 N 0.62933 0.52205 0.90092 0.0
N483 N 0.7081 0.67108 0.03235 0.0
H484 H 0.78484 0.77495 0.95004 0.0
H485 H 0.77877 0.77295 -0.00218 0.0
H486 H 0.68916 0.6473 0.05658 0.0
H487 H 0.68916 0.6473 0.05658 0.0
H488 H 0.5973 0.46764 0.89959 0.0
H489 H 0.6195 0.54609 0.87896 0.0
H490 H 0.65961 0.43574 0.93416 0.0
H491 H 0.67364 0.43626 0.98213 0.0
C492 C 0.43691 0.80493 0.30282 0.0
C493 C 0.36693 0.77779 0.28699 0.0
C494 C 0.32217 0.71276 0.34103 0.0
C495 C 0.39213 0.74003 0.35718 0.0
N496 N 0.51537 0.82251 0.35761 0.0
N497 N 0.24416 0.72327 0.29463 0.0
C498 C 0.44947 0.78951 0.33934 0.0
C499 C 0.30992 0.73746 0.3074 0.0
N500 N 0.49107 0.84415 0.28254 0.0
N501 N 0.2676 0.66106 0.35704 0.0
H502 H 0.23395 0.74113 0.27003 0.0
H503 H 0.20121 0.69961 0.30989 0.0
H504 H 0.27414 0.64095 0.38162 0.0
H505 H 0.21642 0.63378 0.34439 0.0
H506 H 0.54296 0.85856 0.29043 0.0
H507 H 0.4834 0.86056 0.25693 0.0
H508 H 0.5584 0.86426 0.34772 0.0
H509 H 0.52622 0.81122 0.3841 0.0
loop_
_geom_bond_atom_site_label_1
_geom_bond_atom_site_label_2
_geom_bond_distance
_geom_bond_site_symmetry_2
_ccdc_geom_bond_type
Tb0 C9 2.764 . S
Tb0 O10 2.325 . S
Tb0 O13 2.303 1_655 S
Tb0 O17 2.322 1_655 S
Tb0 O18 2.349 1_655 S
Tb0 O21 2.415 . S
Tb0 O22 2.399 . S
Tb1 O11 2.322 1_455 S
Tb1 O12 2.349 . S
Tb1 O14 2.415 . S
Tb1 O15 2.399 . S
Tb1 O16 2.325 . S
Tb1 O19 2.303 . S
Tb1 C30 2.764 . S
C2 O18 1.261 . S
C2 O19 1.257 . S
C3 C6 1.358 . S
C3 C7 1.332 . S
C3 C9 1.504 . S
C4 C5 1.373 . S
C4 C8 1.308 . S
C5 C4 1.373 . S
C5 C6 1.429 . S
C5 H32 0.932 . S
C6 C3 1.358 . S
C6 C5 1.429 . S
C6 H33 0.930 . S
C7 C3 1.332 . S
C7 C8 1.394 . S
C7 H34 0.932 . S
C8 C4 1.308 . S
C8 C7 1.394 . S
C8 H35 0.929 . S
C9 Tb0 2.764 . S
C9 C3 1.504 . S
C9 O21 1.239 . S
C9 O22 1.263 . S
O10 Tb0 2.325 . S
O10 C20 1.236 . S
O11 Tb1 2.322 1_655 S
O11 C20 1.257 . S
O12 Tb1 2.349 . S
O12 C23 1.261 . S
O13 Tb0 2.303 1_455 S
O13 C23 1.257 . S
O14 Tb1 2.415 . S
O14 C30 1.239 . S
O15 Tb1 2.399 . S
O15 C30 1.263 . S
O16 Tb1 2.325 . S
O16 C31 1.236 . S
O17 Tb0 2.322 1_455 S
O17 C31 1.257 . S
O18 Tb0 2.349 1_455 S
O18 C2 1.261 . S
O19 Tb1 2.303 . S
O19 C2 1.257 . S
C20 O10 1.236 . S
C20 O11 1.257 . S
O21 Tb0 2.415 . S
O21 C9 1.239 . S
O22 Tb0 2.399 . S
O22 C9 1.263 . S
C23 O12 1.261 . S
C23 O13 1.257 . S
C24 C27 1.358 . S
C24 C28 1.332 . S
C24 C30 1.504 . S
C25 C26 1.373 . S
C25 C29 1.308 . S
C26 C25 1.373 . S
C26 C27 1.429 . S
C26 H36 0.932 . S
C27 C24 1.358 . S
C27 C26 1.429 . S
C27 H37 0.930 . S
C28 C24 1.332 . S
C28 C29 1.394 . S
C28 H38 0.932 . S
C29 C25 1.308 . S
C29 C28 1.394 . S
C29 H39 0.929 . S
C30 Tb1 2.764 . S
C30 O14 1.239 . S
C30 O15 1.263 . S
C30 C24 1.504 . S
C31 O16 1.236 . S
C31 O17 1.257 . S
H32 C5 0.932 . S
H33 C6 0.930 . S
H34 C7 0.932 . S
H35 C8 0.929 . S
H36 C26 0.932 . S
H37 C27 0.930 . S
H38 C28 0.932 . S
H39 C29 0.929 . S
Tb40 C49 2.764 1_545 S
Tb40 O50 2.325 1_545 S
Tb40 O53 2.303 . S
Tb40 O57 2.322 . S
Tb40 O58 2.349 . S
Tb40 O61 2.415 1_545 S
Tb40 O62 2.399 1_545 S
Tb41 O51 2.322 . S
Tb41 O52 2.349 . S
Tb41 O54 2.415 . S
Tb41 O55 2.399 . S
Tb41 O56 2.325 . S
Tb41 O59 2.303 . S
Tb41 C70 2.764 . S
C42 O58 1.261 . S
C42 O59 1.257 . S
C43 C46 1.358 . S
C43 C47 1.332 . S
C43 C49 1.504 . S
C44 C45 1.373 . S
C44 C48 1.308 . S
C45 C44 1.373 . S
C45 C46 1.429 . S
C45 H72 0.932 . S
C46 C43 1.358 . S
C46 C45 1.429 . S
C46 H73 0.930 . S
C47 C43 1.332 . S
C47 C48 1.394 . S
C47 H74 0.932 . S
C48 C44 1.308 . S
C48 C47 1.394 . S
C48 H75 0.929 . S
C49 Tb40 2.764 1_565 S
C49 C43 1.504 . S
C49 O61 1.239 . S
C49 O62 1.263 . S
O50 Tb40 2.325 1_565 S
O50 C60 1.236 . S
O51 Tb41 2.322 . S
O51 C60 1.257 1_545 S
O52 Tb41 2.349 . S
O52 C63 1.261 . S
O53 Tb40 2.303 . S
O53 C63 1.257 . S
O54 Tb41 2.415 . S
O54 C70 1.239 . S
O55 Tb41 2.399 . S
O55 C70 1.263 . S
O56 Tb41 2.325 . S
O56 C71 1.236 . S
O57 Tb40 2.322 . S
O57 C71 1.257 . S
O58 Tb40 2.349 . S
O58 C42 1.261 . S
O59 Tb41 2.303 . S
O59 C42 1.257 . S
C60 O50 1.236 . S
C60 O51 1.257 1_565 S
O61 Tb40 2.415 1_565 S
O61 C49 1.239 . S
O62 Tb40 2.399 1_565 S
O62 C49 1.263 . S
C63 O52 1.261 . S
C63 O53 1.257 . S
C64 C67 1.358 . S
C64 C68 1.332 . S
C64 C70 1.504 . S
C65 C66 1.373 . S
C65 C69 1.308 . S
C66 C65 1.373 . S
C66 C67 1.429 . S
C66 H76 0.932 . S
C67 C64 1.358 . S
C67 C66 1.429 . S
C67 H77 0.930 . S
C68 C64 1.332 . S
C68 C69 1.394 . S
C68 H78 0.932 . S
C69 C65 1.308 . S
C69 C68 1.394 . S
C69 H79 0.929 . S
C70 Tb41 2.764 . S
C70 O54 1.239 . S
C70 O55 1.263 . S
C70 C64 1.504 . S
C71 O56 1.236 . S
C71 O57 1.257 . S
H72 C45 0.932 . S
H73 C46 0.930 . S
H74 C47 0.932 . S
H75 C48 0.929 . S
H76 C66 0.932 . S
H77 C67 0.930 . S
H78 C68 0.932 . S
H79 C69 0.929 . S
Tb80 C89 2.764 . S
Tb80 O90 2.325 . S
Tb80 O93 2.303 . S
Tb80 O97 2.322 . S
Tb80 O98 2.349 . S
Tb80 O101 2.415 . S
Tb80 O102 2.399 . S
Tb81 O91 2.322 . S
Tb81 O92 2.349 . S
Tb81 O94 2.415 . S
Tb81 O95 2.399 . S
Tb81 O96 2.325 . S
Tb81 O99 2.303 . S
Tb81 C110 2.764 . S
C82 O98 1.261 . S
C82 O99 1.257 . S
C83 C86 1.358 . S
C83 C87 1.332 . S
C83 C89 1.504 . S
C84 C85 1.373 . S
C84 C88 1.308 . S
C85 C84 1.373 . S
C85 C86 1.429 . S
C85 H112 0.932 . S
C86 C83 1.358 . S
C86 C85 1.429 . S
C86 H113 0.930 . S
C87 C83 1.332 . S
C87 C88 1.394 . S
C87 H114 0.932 . S
C88 C84 1.308 . S
C88 C87 1.394 . S
C88 H115 0.929 . S
C89 Tb80 2.764 . S
C89 C83 1.504 . S
C89 O101 1.239 . S
C89 O102 1.263 . S
O90 Tb80 2.325 . S
O90 C100 1.236 . S
O91 Tb81 2.322 . S
O91 C100 1.257 . S
O92 Tb81 2.349 . S
O92 C103 1.261 . S
O93 Tb80 2.303 . S
O93 C103 1.257 . S
O94 Tb81 2.415 . S
O94 C110 1.239 . S
O95 Tb81 2.399 . S
O95 C110 1.263 . S
O96 Tb81 2.325 . S
O96 C111 1.236 . S
O97 Tb80 2.322 . S
O97 C111 1.257 . S
O98 Tb80 2.349 . S
O98 C82 1.261 . S
O99 Tb81 2.303 . S
O99 C82 1.257 . S
C100 O90 1.236 . S
C100 O91 1.257 . S
O101 Tb80 2.415 . S
O101 C89 1.239 . S
O102 Tb80 2.399 . S
O102 C89 1.263 . S
C103 O92 1.261 . S
C103 O93 1.257 . S
C104 C107 1.358 . S
C104 C108 1.332 . S
C104 C110 1.504 . S
C105 C106 1.373 . S
C105 C109 1.308 . S
C106 C105 1.373 . S
C106 C107 1.429 . S
C106 H116 0.932 . S
C107 C104 1.358 . S
C107 C106 1.429 . S
C107 H117 0.930 . S
C108 C104 1.332 . S
C108 C109 1.394 . S
C108 H118 0.932 . S
C109 C105 1.308 . S
C109 C108 1.394 . S
C109 H119 0.929 . S
C110 Tb81 2.764 . S
C110 O94 1.239 . S
C110 O95 1.263 . S
C110 C104 1.504 . S
C111 O96 1.236 . S
C111 O97 1.257 . S
H112 C85 0.932 . S
H113 C86 0.930 . S
H114 C87 0.932 . S
H115 C88 0.929 . S
H116 C106 0.932 . S
H117 C107 0.930 . S
H118 C108 0.932 . S
H119 C109 0.929 . S
H120 C123 0.929 1_565 S
H121 C126 0.929 . S
H122 C128 0.930 . S
C123 H120 0.929 1_545 S
C123 C124 1.398 1_545 S
C123 C125 1.396 . S
C124 C123 1.398 1_565 S
C124 C128 1.407 1_565 S
C125 C123 1.396 . S
C125 C126 1.394 . S
C126 H121 0.929 . S
C126 C125 1.394 . S
C126 C127 1.382 . S
C127 C126 1.382 . S
C127 C128 1.392 . S
C127 N129 1.420 . S
C128 H122 0.930 . S
C128 C124 1.407 1_545 S
C128 C127 1.392 . S
N129 C127 1.420 . S
N129 C130 1.244 . S
C130 N129 1.244 . S
H131 C134 0.929 . S
H132 C137 0.929 . S
H133 C139 0.930 . S
C134 H131 0.929 . S
C134 C135 1.398 . S
C134 C136 1.396 . S
C135 C134 1.398 . S
C135 C139 1.407 . S
C136 C134 1.396 . S
C136 C137 1.394 . S
C137 H132 0.929 . S
C137 C136 1.394 . S
C137 C138 1.382 . S
C138 C137 1.382 . S
C138 C139 1.392 . S
C138 N140 1.420 . S
C139 H133 0.930 . S
C139 C135 1.407 . S
C139 C138 1.392 . S
N140 C138 1.420 . S
N140 C141 1.244 . S
C141 N140 1.244 . S
H142 C145 0.929 1_655 S
H143 C148 0.929 . S
H144 C150 0.930 . S
C145 H142 0.929 1_455 S
C145 C146 1.398 1_455 S
C145 C147 1.396 . S
C146 C145 1.398 1_655 S
C146 C150 1.407 1_655 S
C147 C145 1.396 . S
C147 C148 1.394 . S
C148 H143 0.929 . S
C148 C147 1.394 . S
C148 C149 1.382 . S
C149 C148 1.382 . S
C149 C150 1.392 . S
C149 N151 1.420 . S
C150 H144 0.930 . S
C150 C146 1.407 1_455 S
C150 C149 1.392 . S
N151 C149 1.420 . S
N151 C152 1.244 . S
C152 N151 1.244 . S
H153 C156 0.929 . S
H154 C159 0.929 . S
H155 C161 0.930 . S
C156 H153 0.929 . S
C156 C157 1.398 . S
C156 C158 1.396 . S
C157 C156 1.398 . S
C157 C161 1.407 . S
C158 C156 1.396 . S
C158 C159 1.394 1_455 S
C159 H154 0.929 . S
C159 C158 1.394 1_655 S
C159 C160 1.382 . S
C160 C159 1.382 . S
C160 C161 1.392 1_655 S
C160 N162 1.420 . S
C161 H155 0.930 . S
C161 C157 1.407 . S
C161 C160 1.392 1_455 S
N162 C160 1.420 . S
N162 C163 1.244 . S
C163 N162 1.244 . S
H164 C167 0.929 . S
H165 C170 0.929 . S
H166 C172 0.930 . S
C167 H164 0.929 . S
C167 C168 1.398 . S
C167 C169 1.396 . S
C168 C167 1.398 . S
C168 C172 1.407 . S
C169 C167 1.396 . S
C169 C170 1.394 1_545 S
C170 H165 0.929 . S
C170 C169 1.394 1_565 S
C170 C171 1.382 1_565 S
C171 C170 1.382 1_545 S
C171 C172 1.392 . S
C171 N173 1.420 1_545 S
C172 H166 0.930 . S
C172 C168 1.407 . S
C172 C171 1.392 . S
N173 C171 1.420 1_565 S
N173 C174 1.244 . S
C174 N173 1.244 . S
H175 C178 0.929 . S
H176 C181 0.929 . S
H177 C183 0.930 . S
C178 H175 0.929 . S
C178 C179 1.398 . S
C178 C180 1.396 . S
C179 C178 1.398 . S
C179 C183 1.407 . S
C180 C178 1.396 . S
C180 C181 1.394 . S
C181 H176 0.929 . S
C181 C180 1.394 . S
C181 C182 1.382 . S
C182 C181 1.382 . S
C182 C183 1.392 . S
C182 N184 1.420 . S
C183 H177 0.930 . S
C183 C179 1.407 . S
C183 C182 1.392 . S
N184 C182 1.420 . S
N184 C185 1.244 . S
C185 N184 1.244 . S
C186 C187 1.363 . S
C186 C192 1.379 . S
C186 N194 1.356 . S
C187 C186 1.363 . S
C187 C193 1.363 . S
C188 C189 1.363 . S
C188 C193 1.379 . S
C188 N195 1.356 . S
C189 C188 1.363 . S
C189 C192 1.363 . S
N190 C192 1.356 . S
N190 H202 0.984 . S
N190 H203 0.985 . S
N191 C193 1.356 . S
N191 H196 0.984 . S
N191 H197 0.985 . S
C192 C186 1.379 . S
C192 C189 1.363 . S
C192 N190 1.356 . S
C193 C187 1.363 . S
C193 C188 1.379 . S
C193 N191 1.356 . S
N194 C186 1.356 . S
N194 H200 0.984 . S
N194 H201 0.984 . S
N195 C188 1.356 . S
N195 H198 0.984 . S
N195 H199 0.985 . S
H196 N191 0.984 . S
H197 N191 0.985 . S
H198 N195 0.984 . S
H199 N195 0.985 . S
H200 N194 0.984 . S
H201 N194 0.984 . S
H202 N190 0.984 . S
H203 N190 0.985 . S
C204 C205 1.363 . S
C204 C210 1.379 . S
C204 N212 1.356 . S
C205 C204 1.363 . S
C205 C211 1.363 . S
C206 C207 1.363 . S
C206 C211 1.379 . S
C206 N213 1.356 . S
C207 C206 1.363 . S
C207 C210 1.363 . S
N208 C210 1.356 . S
N208 H220 0.984 . S
N208 H221 0.985 . S
N209 C211 1.356 . S
N209 H214 0.984 . S
N209 H215 0.985 . S
C210 C204 1.379 . S
C210 C207 1.363 . S
C210 N208 1.356 . S
C211 C205 1.363 . S
C211 C206 1.379 . S
C211 N209 1.356 . S
N212 C204 1.356 . S
N212 H218 0.984 . S
N212 H219 0.984 . S
N213 C206 1.356 . S
N213 H216 0.984 . S
N213 H217 0.985 . S
H214 N209 0.984 . S
H215 N209 0.985 . S
H216 N213 0.984 . S
H217 N213 0.985 . S
H218 N212 0.984 . S
H219 N212 0.984 . S
H220 N208 0.984 . S
H221 N208 0.985 . S
C222 C223 1.363 . S
C222 C228 1.379 . S
C222 N230 1.356 . S
C223 C222 1.363 . S
C223 C229 1.363 . S
C224 C225 1.363 . S
C224 C229 1.379 . S
C224 N231 1.356 . S
C225 C224 1.363 . S
C225 C228 1.363 . S
N226 C228 1.356 . S
N226 H238 0.984 1_565 S
N226 H239 0.985 . S
N227 C229 1.356 . S
N227 H232 0.984 . S
N227 H233 0.985 . S
C228 C222 1.379 . S
C228 C225 1.363 . S
C228 N226 1.356 . S
C229 C223 1.363 . S
C229 C224 1.379 . S
C229 N227 1.356 . S
N230 C222 1.356 . S
N230 H236 0.984 1_565 S
N230 H237 0.984 . S
N231 C224 1.356 . S
N231 H234 0.984 . S
N231 H235 0.985 . S
H232 N227 0.984 . S
H233 N227 0.985 . S
H234 N231 0.984 . S
H235 N231 0.985 . S
H236 N230 0.984 1_545 S
H237 N230 0.984 . S
H238 N226 0.984 1_545 S
H239 N226 0.985 . S
C240 C241 1.363 . S
C240 C246 1.379 . S
C240 N248 1.356 . S
C241 C240 1.363 . S
C241 C247 1.363 . S
C242 C243 1.363 . S
C242 C247 1.379 . S
C242 N249 1.356 . S
C243 C242 1.363 . S
C243 C246 1.363 . S
N244 C246 1.356 . S
N244 H256 0.984 . S
N244 H257 0.985 . S
N245 C247 1.356 . S
N245 H250 0.984 . S
N245 H251 0.985 . S
C246 C240 1.379 . S
C246 C243 1.363 . S
C246 N244 1.356 . S
C247 C241 1.363 . S
C247 C242 1.379 . S
C247 N245 1.356 . S
N248 C240 1.356 . S
N248 H254 0.984 . S
N248 H255 0.984 . S
N249 C242 1.356 . S
N249 H252 0.984 . S
N249 H253 0.985 . S
H250 N245 0.984 . S
H251 N245 0.985 . S
H252 N249 0.984 . S
H253 N249 0.985 . S
H254 N248 0.984 . S
H255 N248 0.984 . S
H256 N244 0.984 . S
H257 N244 0.985 . S
C258 C259 1.363 . S
C258 C264 1.379 . S
C258 N266 1.356 . S
C259 C258 1.363 . S
C259 C265 1.363 . S
C260 C261 1.363 . S
C260 C265 1.379 . S
C260 N267 1.356 . S
C261 C260 1.363 . S
C261 C264 1.363 . S
N262 C264 1.356 . S
N262 H274 0.984 . S
N262 H275 0.985 . S
N263 C265 1.356 . S
N263 H268 0.984 . S
N263 H269 0.985 . S
C264 C258 1.379 . S
C264 C261 1.363 . S
C264 N262 1.356 . S
C265 C259 1.363 . S
C265 C260 1.379 . S
C265 N263 1.356 . S
N266 C258 1.356 . S
N266 H272 0.984 . S
N266 H273 0.984 . S
N267 C260 1.356 . S
N267 H270 0.984 . S
N267 H271 0.985 . S
H268 N263 0.984 . S
H269 N263 0.985 . S
H270 N267 0.984 . S
H271 N267 0.985 . S
H272 N266 0.984 . S
H273 N266 0.984 . S
H274 N262 0.984 . S
H275 N262 0.985 . S
C276 C277 1.363 . S
C276 C282 1.379 . S
C276 N284 1.356 . S
C277 C276 1.363 . S
C277 C283 1.363 . S
C278 C279 1.363 . S
C278 C283 1.379 . S
C278 N285 1.356 . S
C279 C278 1.363 . S
C279 C282 1.363 . S
N280 C282 1.356 . S
N280 H292 0.984 . S
N280 H293 0.985 . S
N281 C283 1.356 . S
N281 H286 0.984 . S
N281 H287 0.985 . S
C282 C276 1.379 . S
C282 C279 1.363 . S
C282 N280 1.356 . S
C283 C277 1.363 . S
C283 C278 1.379 . S
C283 N281 1.356 . S
N284 C276 1.356 . S
N284 H290 0.984 . S
N284 H291 0.984 . S
N285 C278 1.356 . S
N285 H288 0.984 . S
N285 H289 0.985 . S
H286 N281 0.984 . S
H287 N281 0.985 . S
H288 N285 0.984 . S
H289 N285 0.985 . S
H290 N284 0.984 . S
H291 N284 0.984 . S
H292 N280 0.984 . S
H293 N280 0.985 . S
C294 C295 1.363 . S
C294 C300 1.379 . S
C294 N302 1.356 . S
C295 C294 1.363 . S
C295 C301 1.363 . S
C296 C297 1.363 . S
C296 C301 1.379 . S
C296 N303 1.356 . S
C297 C296 1.363 . S
C297 C300 1.363 . S
N298 C300 1.356 . S
N298 H310 0.984 . S
N298 H311 0.985 . S
N299 C301 1.356 . S
N299 H304 0.984 . S
N299 H305 0.985 . S
C300 C294 1.379 . S
C300 C297 1.363 . S
C300 N298 1.356 . S
C301 C295 1.363 . S
C301 C296 1.379 . S
C301 N299 1.356 . S
N302 C294 1.356 . S
N302 H308 0.984 . S
N302 H309 0.984 . S
N303 C296 1.356 . S
N303 H306 0.984 . S
N303 H307 0.985 . S
H304 N299 0.984 . S
H305 N299 0.985 . S
H306 N303 0.984 . S
H307 N303 0.985 . S
H308 N302 0.984 . S
H309 N302 0.984 . S
H310 N298 0.984 . S
H311 N298 0.985 . S
C312 C313 1.363 . S
C312 C318 1.379 . S
C312 N320 1.356 . S
C313 C312 1.363 . S
C313 C319 1.363 . S
C314 C315 1.363 . S
C314 C319 1.379 . S
C314 N321 1.356 . S
C315 C314 1.363 . S
C315 C318 1.363 . S
N316 C318 1.356 . S
N316 H328 0.984 . S
N316 H329 0.985 . S
N317 C319 1.356 . S
N317 H322 0.984 . S
N317 H323 0.985 . S
C318 C312 1.379 . S
C318 C315 1.363 . S
C318 N316 1.356 . S
C319 C313 1.363 . S
C319 C314 1.379 . S
C319 N317 1.356 . S
N320 C312 1.356 . S
N320 H326 0.984 . S
N320 H327 0.984 . S
N321 C314 1.356 . S
N321 H324 0.984 . S
N321 H325 0.985 . S
H322 N317 0.984 . S
H323 N317 0.985 . S
H324 N321 0.984 . S
H325 N321 0.985 . S
H326 N320 0.984 . S
H327 N320 0.984 . S
H328 N316 0.984 . S
H329 N316 0.985 . S
C330 C331 1.363 . S
C330 C336 1.379 . S
C330 N338 1.356 . S
C331 C330 1.363 . S
C331 C337 1.363 . S
C332 C333 1.363 . S
C332 C337 1.379 . S
C332 N339 1.356 . S
C333 C332 1.363 . S
C333 C336 1.363 . S
N334 C336 1.356 . S
N334 H346 0.984 . S
N334 H347 0.985 . S
N335 C337 1.356 . S
N335 H340 0.984 . S
N335 H341 0.985 . S
C336 C330 1.379 . S
C336 C333 1.363 . S
C336 N334 1.356 . S
C337 C331 1.363 . S
C337 C332 1.379 . S
C337 N335 1.356 . S
N338 C330 1.356 . S
N338 H344 0.984 . S
N338 H345 0.984 . S
N339 C332 1.356 . S
N339 H342 0.984 . S
N339 H343 0.985 . S
H340 N335 0.984 . S
H341 N335 0.985 . S
H342 N339 0.984 . S
H343 N339 0.985 . S
H344 N338 0.984 . S
H345 N338 0.984 . S
H346 N334 0.984 . S
H347 N334 0.985 . S
C348 C349 1.363 . S
C348 C354 1.379 . S
C348 N356 1.356 . S
C349 C348 1.363 . S
C349 C355 1.363 . S
C350 C351 1.363 . S
C350 C355 1.379 . S
C350 N357 1.356 . S
C351 C350 1.363 . S
C351 C354 1.363 . S
N352 C354 1.356 . S
N352 H364 0.984 . S
N352 H365 0.985 . S
N353 C355 1.356 . S
N353 H358 0.984 . S
N353 H359 0.985 . S
C354 C348 1.379 . S
C354 C351 1.363 . S
C354 N352 1.356 . S
C355 C349 1.363 . S
C355 C350 1.379 . S
C355 N353 1.356 . S
N356 C348 1.356 . S
N356 H362 0.984 . S
N356 H363 0.984 . S
N357 C350 1.356 . S
N357 H360 0.984 . S
N357 H361 0.985 . S
H358 N353 0.984 . S
H359 N353 0.985 . S
H360 N357 0.984 . S
H361 N357 0.985 . S
H362 N356 0.984 . S
H363 N356 0.984 . S
H364 N352 0.984 . S
H365 N352 0.985 . S
C366 C367 1.363 . S
C366 C372 1.379 . S
C366 N374 1.356 . S
C367 C366 1.363 . S
C367 C373 1.363 . S
C368 C369 1.363 . S
C368 C373 1.379 . S
C368 N375 1.356 . S
C369 C368 1.363 . S
C369 C372 1.363 . S
N370 C372 1.356 . S
N370 H382 0.984 . S
N370 H383 0.985 . S
N371 C373 1.356 . S
N371 H376 0.984 . S
N371 H377 0.985 . S
C372 C366 1.379 . S
C372 C369 1.363 . S
C372 N370 1.356 . S
C373 C367 1.363 . S
C373 C368 1.379 . S
C373 N371 1.356 . S
N374 C366 1.356 . S
N374 H380 0.984 . S
N374 H381 0.984 . S
N375 C368 1.356 . S
N375 H378 0.984 . S
N375 H379 0.985 . S
H376 N371 0.984 . S
H377 N371 0.985 . S
H378 N375 0.984 . S
H379 N375 0.985 . S
H380 N374 0.984 . S
H381 N374 0.984 . S
H382 N370 0.984 . S
H383 N370 0.985 . S
C384 C385 1.363 . S
C384 C390 1.379 . S
C384 N392 1.356 . S
C385 C384 1.363 . S
C385 C391 1.363 . S
C386 C387 1.363 . S
C386 C391 1.379 . S
C386 N393 1.356 . S
C387 C386 1.363 . S
C387 C390 1.363 . S
N388 C390 1.356 . S
N388 H400 0.984 . S
N388 H401 0.985 . S
N389 C391 1.356 . S
N389 H394 0.984 . S
N389 H395 0.985 . S
C390 C384 1.379 . S
C390 C387 1.363 . S
C390 N388 1.356 . S
C391 C385 1.363 . S
C391 C386 1.379 . S
C391 N389 1.356 . S
N392 C384 1.356 . S
N392 H398 0.984 . S
N392 H399 0.984 . S
N393 C386 1.356 . S
N393 H396 0.984 . S
N393 H397 0.985 . S
H394 N389 0.984 . S
H395 N389 0.985 . S
H396 N393 0.984 . S
H397 N393 0.985 . S
H398 N392 0.984 . S
H399 N392 0.984 . S
H400 N388 0.984 . S
H401 N388 0.985 . S
C402 C403 1.363 . S
C402 C408 1.379 . S
C402 N410 1.356 . S
C403 C402 1.363 . S
C403 C409 1.363 . S
C404 C405 1.363 1_554 S
C404 C409 1.379 . S
C404 N411 1.356 1_554 S
C405 C404 1.363 1_556 S
C405 C408 1.363 1_556 S
N406 C408 1.356 1_556 S
N406 H418 0.984 . S
N406 H419 0.985 . S
N407 C409 1.356 . S
N407 H412 0.984 . S
N407 H413 0.985 . S
C408 C402 1.379 . S
C408 C405 1.363 1_554 S
C408 N406 1.356 1_554 S
C409 C403 1.363 . S
C409 C404 1.379 . S
C409 N407 1.356 . S
N410 C402 1.356 . S
N410 H416 0.984 . S
N410 H417 0.984 . S
N411 C404 1.356 1_556 S
N411 H414 0.984 . S
N411 H415 0.985 . S
H412 N407 0.984 . S
H413 N407 0.985 . S
H414 N411 0.984 . S
H415 N411 0.985 . S
H416 N410 0.984 . S
H417 N410 0.984 . S
H418 N406 0.984 . S
H419 N406 0.985 . S
C420 C421 1.363 . S
C420 C426 1.379 . S
C420 N428 1.356 1_545 S
C421 C420 1.363 . S
C421 C427 1.363 . S
C422 C423 1.363 . S
C422 C427 1.379 . S
C422 N429 1.356 . S
C423 C422 1.363 . S
C423 C426 1.363 . S
N424 C426 1.356 1_565 S
N424 H436 0.984 . S
N424 H437 0.986 . S
N425 C427 1.356 . S
N425 H430 0.984 . S
N425 H431 0.985 . S
C426 C420 1.379 . S
C426 C423 1.363 . S
C426 N424 1.356 1_545 S
C427 C421 1.363 . S
C427 C422 1.379 . S
C427 N425 1.356 . S
N428 C420 1.356 1_565 S
N428 H434 0.984 . S
N428 H435 0.984 1_565 S
N429 C422 1.356 . S
N429 H432 0.984 . S
N429 H433 0.985 . S
H430 N425 0.984 . S
H431 N425 0.985 . S
H432 N429 0.984 . S
H433 N429 0.985 . S
H434 N428 0.984 . S
H435 N428 0.984 1_545 S
H436 N424 0.984 . S
H437 N424 0.986 . S
C438 C439 1.363 . S
C438 C444 1.379 . S
C438 N446 1.356 . S
C439 C438 1.363 . S
C439 C445 1.363 . S
C440 C441 1.363 . S
C440 C445 1.379 . S
C440 N447 1.356 . S
C441 C440 1.363 . S
C441 C444 1.363 . S
N442 C444 1.356 . S
N442 H454 0.984 . S
N442 H455 0.985 . S
N443 C445 1.356 . S
N443 H448 0.984 . S
N443 H449 0.985 . S
C444 C438 1.379 . S
C444 C441 1.363 . S
C444 N442 1.356 . S
C445 C439 1.363 . S
C445 C440 1.379 . S
C445 N443 1.356 . S
N446 C438 1.356 . S
N446 H452 0.984 . S
N446 H453 0.984 . S
N447 C440 1.356 . S
N447 H450 0.984 . S
N447 H451 0.985 . S
H448 N443 0.984 . S
H449 N443 0.985 . S
H450 N447 0.984 . S
H451 N447 0.985 . S
H452 N446 0.984 . S
H453 N446 0.984 . S
H454 N442 0.984 . S
H455 N442 0.985 . S
C456 C457 1.363 . S
C456 C462 1.379 . S
C456 N464 1.356 . S
C457 C456 1.363 . S
C457 C463 1.363 . S
C458 C459 1.363 1_565 S
C458 C463 1.379 1_565 S
C458 N465 1.356 . S
C459 C458 1.363 1_545 S
C459 C462 1.363 . S
N460 C462 1.356 . S
N460 H472 0.984 . S
N460 H473 0.985 . S
N461 C463 1.356 1_565 S
N461 H466 0.985 . S
N461 H467 0.985 . S
C462 C456 1.379 . S
C462 C459 1.363 . S
C462 N460 1.356 . S
C463 C457 1.363 . S
C463 C458 1.379 1_545 S
C463 N461 1.356 1_545 S
N464 C456 1.356 . S
N464 H470 0.984 . S
N464 H471 0.984 . S
N465 C458 1.356 . S
N465 H468 0.984 . S
N465 H469 0.985 . S
H466 N461 0.985 . S
H467 N461 0.985 . S
H468 N465 0.984 . S
H469 N465 0.985 . S
H470 N464 0.984 . S
H471 N464 0.984 . S
H472 N460 0.984 . S
H473 N460 0.985 . S
C474 C475 1.363 . S
C474 C480 1.379 . S
C474 N482 1.356 . S
C475 C474 1.363 . S
C475 C481 1.363 . S
C476 C477 1.363 . S
C476 C481 1.379 1_554 S
C476 N483 1.356 . S
C477 C476 1.363 . S
C477 C480 1.363 1_554 S
N478 C480 1.356 . S
N478 H490 0.984 . S
N478 H491 0.985 1_556 S
N479 C481 1.356 . S
N479 H484 0.984 . S
N479 H485 0.985 . S
C480 C474 1.379 . S
C480 C477 1.363 1_556 S
C480 N478 1.356 . S
C481 C475 1.363 . S
C481 C476 1.379 1_556 S
C481 N479 1.356 . S
N482 C474 1.356 . S
N482 H488 0.984 . S
N482 H489 0.984 . S
N483 C476 1.356 . S
N483 H486 0.984 . S
N483 H487 0.985 . S
H484 N479 0.984 . S
H485 N479 0.985 . S
H486 N483 0.984 . S
H487 N483 0.985 . S
H488 N482 0.984 . S
H489 N482 0.984 . S
H490 N478 0.984 . S
H491 N478 0.985 1_554 S
C492 C493 1.363 . S
C492 C498 1.379 . S
C492 N500 1.356 . S
C493 C492 1.363 . S
C493 C499 1.363 1_455 S
C494 C495 1.363 1_655 S
C494 C499 1.379 . S
C494 N501 1.356 . S
C495 C494 1.363 1_455 S
C495 C498 1.363 . S
N496 C498 1.356 . S
N496 H508 0.984 . S
N496 H509 0.985 . S
N497 C499 1.356 . S
N497 H502 0.984 . S
N497 H503 0.985 . S
C498 C492 1.379 . S
C498 C495 1.363 . S
C498 N496 1.356 . S
C499 C493 1.363 1_655 S
C499 C494 1.379 . S
C499 N497 1.356 . S
N500 C492 1.356 . S
N500 H506 0.984 . S
N500 H507 0.984 . S
N501 C494 1.356 . S
N501 H504 0.984 . S
N501 H505 0.985 . S
H502 N497 0.984 . S
H503 N497 0.985 . S
H504 N501 0.984 . S
H505 N501 0.985 . S
H506 N500 0.984 . S
H507 N500 0.984 . S
H508 N496 0.984 . S
H509 N496 0.985 . S
C187 C25 0.831 . S
C189 C185 0.852 . S
C205 C65 0.698 . S
C207 C163 0.649 . S
C223 C105 0.752 . S
C225 C174 0.754 . S
C241 C4 0.809 . S
C243 C179 0.853 . S
C261 C157 0.533 . S
C259 C44 0.624 . S
C279 C168 0.575 . S
C277 C84 0.633 . S
C295 C60 3.074 . S
C297 C141 3.003 . S
C313 C100 3.071 . S
C315 C146 3.016 . S
C331 C31 3.062 . S
C333 C124 3.005 . S
C351 C135 3.018 . S
C349 C71 3.063 . S
C369 C152 3.007 . S
C367 C111 3.058 . S
C385 C20 3.082 . S
C387 C130 3.015 . S
C405 C147 1.778 . S
C403 C2 1.740 . S
C421 C42 1.780 . S
C423 C125 1.798 . S
C439 C82 1.759 . S
C441 C136 1.793 . S
C459 C169 1.046 . S
C457 C63 1.041 . S
C477 C180 1.165 . S
C475 C103 1.173 . S
C493 C23 1.025 . S
C495 C158 1.037 . S
