# Generated by pormake.
# Topology pts, (4,4)-cn, num edge types: 1
# Building blocks:
#     Node 0, Type 0, BuildingBlock: NAWXER_clean_linker_0, # of connection points: 4
#     Node 1, Type 0, BuildingBlock: NAWXER_clean_linker_0, # of connection points: 4
#     Node 2, Type 1, BuildingBlock: QUQFOY_clean_sbu_1, # of connection points: 4
#     Node 3, Type 1, BuildingBlock: QUQFOY_clean_sbu_1, # of connection points: 4
#     Edge 4, Type (0, 1), BuildingBlock: ZUJKAS_clean_linker_0, # of connection points: 2
#     Edge 5, Type (0, 1), BuildingBlock: ZUJKAS_clean_linker_0, # of connection points: 2
#     Edge 6, Type (0, 1), BuildingBlock: ZUJKAS_clean_linker_0, # of connection points: 2
#     Edge 7, Type (0, 1), BuildingBlock: ZUJKAS_clean_linker_0, # of connection points: 2
#     Edge 8, Type (0, 1), BuildingBlock: ZUJKAS_clean_linker_0, # of connection points: 2
#     Edge 9, Type (0, 1), BuildingBlock: ZUJKAS_clean_linker_0, # of connection points: 2
#     Edge 10, Type (0, 1), BuildingBlock: ZUJKAS_clean_linker_0, # of connection points: 2
#     Edge 11, Type (0, 1), BuildingBlock: ZUJKAS_clean_linker_0, # of connection points: 2
# Relax obj value: 0.095
# Max RMSD: 0.253
# Mean RMSD: 0.145
data_MOF--net-pts--node1-QUQFOY_clean_sbu_1--node2-NAWXER_clean_linker_0--edge1-ZUJKAS_clean_linker_0
_symmetry_space_group_name_H-M    P1
_symmetry_Int_Tables_number       1
_symmetry_cell_setting            triclinic
loop_
_symmetry_equiv_pos_as_xyz
'x, y, z'
_cell_length_a     34.597979
_cell_length_b     38.03262
_cell_length_c     56.447881
_cell_angle_alpha  90.023686
_cell_angle_beta   89.967385
_cell_angle_gamma 90.039007
loop_
_atom_site_label
_atom_site_type_symbol
_atom_site_fract_x
_atom_site_fract_y
_atom_site_fract_z
_atom_type_partial_charge
C0 C 0.62745 0.02405 0.95902 0.0
C1 C 0.63097 0.99841 0.94118 0.0
C2 C 0.59586 0.02371 0.97447 0.0
C3 C 0.56744 0.99746 0.97256 0.0
C4 C 0.60269 0.97196 0.93952 0.0
C5 C 0.57123 0.97159 0.95499 0.0
C6 C 0.53177 0.99866 0.987 0.0
C7 C 0.62633 0.98134 0.04085 0.0
C8 C 0.62911 0.00748 0.05841 0.0
C9 C 0.59514 0.98095 0.02512 0.0
C10 C 0.56635 0.0069 0.02651 0.0
C11 C 0.60043 0.03359 0.05957 0.0
C12 C 0.56931 0.03318 0.04386 0.0
C13 C 0.53124 0.00504 0.01163 0.0
C14 C 0.3664 0.97957 0.03919 0.0
C15 C 0.36271 0.00563 0.05674 0.0
C16 C 0.39811 0.97957 0.02383 0.0
C17 C 0.42651 0.00586 0.02557 0.0
C18 C 0.39099 0.0321 0.05823 0.0
C19 C 0.4226 0.03211 0.04287 0.0
C20 C 0.4622 0.00443 0.01117 0.0
C21 C 0.36759 0.02087 0.95712 0.0
C22 C 0.36505 0.99455 0.93966 0.0
C23 C 0.39869 0.02156 0.97291 0.0
C24 C 0.42763 0.99573 0.97168 0.0
C25 C 0.39385 0.96854 0.93869 0.0
C26 C 0.42488 0.96924 0.95447 0.0
C27 C 0.46273 0.99792 0.98655 0.0
H28 H 0.64885 0.04466 0.96087 0.0
H29 H 0.5931 0.04458 0.98742 0.0
H30 H 0.60413 0.95218 0.92574 0.0
H31 H 0.54941 0.95136 0.95296 0.0
H32 H 0.64807 0.96098 0.03941 0.0
H33 H 0.59302 0.95981 0.01232 0.0
H34 H 0.60135 0.05374 0.07312 0.0
H35 H 0.54717 0.05318 0.04548 0.0
H36 H 0.345 0.95893 0.03749 0.0
H37 H 0.40097 0.95844 0.01109 0.0
H38 H 0.3894 0.05221 0.07179 0.0
H39 H 0.4444 0.05239 0.04476 0.0
H40 H 0.34575 0.04117 0.95841 0.0
H41 H 0.40066 0.04285 0.9856 0.0
H42 H 0.39312 0.94824 0.92523 0.0
H43 H 0.44712 0.94931 0.95298 0.0
N44 N 0.49749 0.99521 0.97551 0.0
N45 N 0.49648 0.00783 0.02267 0.0
C46 C 0.02235 0.62244 0.53556 0.0
C47 C 0.99409 0.62749 0.55313 0.0
C48 C 0.02286 0.59164 0.52208 0.0
C49 C 0.99469 0.56552 0.52558 0.0
C50 C 0.96641 0.60098 0.55695 0.0
C51 C 0.9668 0.57024 0.54335 0.0
C52 C 0.99483 0.53283 0.51128 0.0
C53 C 0.96906 0.62145 0.46153 0.0
C54 C -0.00052 0.62837 0.44568 0.0
C55 C 0.9684 0.59027 0.47461 0.0
C56 C -0.00182 0.56546 0.4721 0.0
C57 C 0.0289 0.6032 0.44292 0.0
C58 C 0.02806 0.57188 0.45587 0.0
C59 C -0.00176 0.53281 0.48632 0.0
C60 C 0.97188 0.38018 0.46225 0.0
C61 C 0.00057 0.375 0.44496 0.0
C62 C 0.97089 0.41118 0.47552 0.0
C63 C -0.00103 0.4374 0.47205 0.0
C64 C 0.02807 0.40166 0.44112 0.0
C65 C 0.02717 0.43261 0.45449 0.0
C66 C -0.0014 0.47011 0.48631 0.0
C67 C 0.02501 0.38164 0.53604 0.0
C68 C 0.99478 0.37464 0.55201 0.0
C69 C 0.02539 0.41279 0.52293 0.0
C70 C 0.99551 0.43748 0.5255 0.0
C71 C 0.96526 0.39971 0.55484 0.0
C72 C 0.96581 0.43098 0.54184 0.0
C73 C 0.99521 0.47013 0.51127 0.0
H74 H 0.04457 0.64201 0.53255 0.0
H75 H 0.04553 0.58813 0.50905 0.0
H76 H 0.94415 0.60416 0.57027 0.0
H77 H 0.945 0.55032 0.5465 0.0
H78 H 0.94605 0.64039 0.46407 0.0
H79 H 0.9447 0.58557 0.48675 0.0
H80 H 0.05239 0.60759 0.43058 0.0
H81 H 0.05111 0.55293 0.45353 0.0
H82 H 0.94979 0.36048 0.46528 0.0
H83 H 0.94803 0.41472 0.48841 0.0
H84 H 0.05067 0.39839 0.42802 0.0
H85 H 0.04892 0.45259 0.45137 0.0
H86 H 0.04809 0.3628 0.53344 0.0
H87 H 0.04899 0.41756 0.51072 0.0
H88 H 0.94192 0.39527 0.56728 0.0
H89 H 0.94269 0.44985 0.54424 0.0
N90 N 0.99318 0.50146 0.5228 0.0
N91 N 0.00027 0.50147 0.47479 0.0
O92 O 0.94355 0.97282 0.23967 0.0
Cd93 Cd 0.99535 0.96458 0.25686 0.0
Cd94 Cd 0.99645 0.0368 0.25771 0.0
O95 O 0.94486 0.03079 0.23993 0.0
O96 O 0.99467 0.91368 0.26485 0.0
O97 O -0.00205 0.95545 0.29202 0.0
C98 C 0.99675 0.92235 0.28688 0.0
C99 C -0.00121 0.07903 0.28777 0.0
C100 C 0.92845 0.00215 0.23415 0.0
C101 C 0.06091 1.00032 0.23161 0.0
O102 O 0.04627 0.02926 0.23837 0.0
O103 O 0.04516 0.97132 0.23727 0.0
O104 O -0.00185 0.08769 0.26572 0.0
O105 O -0.00208 0.04595 0.29294 0.0
O106 O 0.94853 0.0329 0.76031 0.0
Cd107 Cd -0.00118 0.03856 0.74105 0.0
Cd108 Cd 0.99599 0.9663 0.74059 0.0
O109 O 0.94571 0.97499 0.75927 0.0
O110 O 0.00072 0.08942 0.73301 0.0
O111 O 0.99692 0.04766 0.70586 0.0
C112 C -0.00129 0.08074 0.71098 0.0
C113 C 0.99434 0.92359 0.7108 0.0
C114 C 0.93179 0.00431 0.76586 0.0
C115 C 0.06419 1.00003 0.76461 0.0
O116 O 0.04711 0.97166 0.75896 0.0
O117 O 0.05007 0.02957 0.75867 0.0
O118 O 0.99375 0.91531 0.73292 0.0
O119 O 0.99578 0.95658 0.70541 0.0
H120 H 0.32014 0.06066 0.07402 0.0
H121 H 0.27034 0.05891 0.10478 0.0
H122 H 0.28193 0.94621 0.10915 0.0
H123 H 0.33275 0.94782 0.07907 0.0
H124 H 0.20005 0.02398 0.10538 0.0
H125 H 0.29505 0.97691 0.17798 0.0
H126 H 0.31387 0.99376 0.1504 0.0
H127 H 0.29553 0.94958 0.15204 0.0
C128 C 0.31232 0.03552 0.08166 0.0
C129 C 0.33061 0.0044 0.07421 0.0
C130 C 0.28373 0.03456 0.09913 0.0
C131 C 0.273 0.00252 0.10953 0.0
C132 C 0.29039 0.9713 0.10169 0.0
H133 H 0.1002 0.94374 0.21362 0.0
H134 H 0.15248 0.94447 0.18439 0.0
C135 C 0.31905 0.97223 0.08426 0.0
C136 C 0.24324 0.00179 0.12838 0.0
H137 H 0.22776 0.97916 0.18617 0.0
C138 C 0.20612 0.01432 0.12307 0.0
C139 C 0.25134 0.98917 0.15143 0.0
C140 C 0.29119 0.97688 0.15844 0.0
C141 C 0.17664 0.01411 0.14013 0.0
C142 C 0.18472 0.00144 0.16314 0.0
C143 C 0.22177 0.98881 0.16847 0.0
C144 C 0.15492 0.00117 0.18191 0.0
C145 C 0.13688 0.02688 0.13332 0.0
C146 C 0.13986 0.03285 0.19061 0.0
C147 C 0.11012 0.03258 0.20734 0.0
C148 C 0.09492 1.00056 0.21568 0.0
C149 C 0.11111 0.96885 0.20752 0.0
C150 C 0.14096 0.96919 0.19082 0.0
H151 H 0.13325 0.0284 0.11379 0.0
H152 H 0.1142 0.0093 0.14066 0.0
H153 H 0.13229 0.05357 0.14074 0.0
H154 H 0.15077 0.05781 0.18419 0.0
H155 H 0.09849 0.05749 0.21331 0.0
H156 H 0.05468 0.34357 0.57557 0.0
H157 H 0.05316 0.2897 0.59918 0.0
H158 H 0.93211 0.27665 0.58309 0.0
H159 H 0.93335 0.33086 0.55971 0.0
H160 H 0.94539 0.26834 0.62917 0.0
H161 H 0.05078 0.18811 0.5791 0.0
H162 H 0.0707 0.22967 0.58784 0.0
H163 H 0.03069 0.22834 0.56747 0.0
C164 C 0.02788 0.32895 0.57681 0.0
C165 C 0.99415 0.34139 0.56577 0.0
C166 C 0.02708 0.29806 0.59021 0.0
C167 C 0.9927 0.27872 0.59254 0.0
C168 C 0.95901 0.29103 0.58144 0.0
H169 H 0.98601 0.07274 0.66323 0.0
H170 H 0.9822 0.11938 0.63325 0.0
C171 C 0.95971 0.32207 0.56819 0.0
C172 C 0.99132 0.24695 0.60779 0.0
H173 H 0.03582 0.16839 0.61851 0.0
C174 C 0.96488 0.24632 0.62666 0.0
C175 C 0.01627 0.2179 0.6043 0.0
C176 C 0.04341 0.21581 0.58342 0.0
C177 C 0.96374 0.21813 0.64266 0.0
C178 C 0.99042 0.1902 0.64008 0.0
C179 C 0.01577 0.19006 0.62066 0.0
C180 C 0.99343 0.16173 0.65793 0.0
C181 C 0.9339 0.21859 0.66217 0.0
C182 C 0.00188 0.17002 0.68158 0.0
C183 C 0.00385 0.14361 0.69867 0.0
C184 C -0.00208 0.10822 0.69243 0.0
C185 C 0.99058 0.09977 0.66859 0.0
C186 C 0.9884 0.12636 0.65147 0.0
H187 H 0.90864 0.23514 0.65735 0.0
H188 H 0.92351 0.19165 0.6663 0.0
H189 H 0.94698 0.2299 0.67842 0.0
H190 H 0.00691 0.19703 0.68685 0.0
H191 H 0.00998 0.15102 0.71681 0.0
H192 H 0.67064 0.06313 0.07574 0.0
H193 H 0.72006 0.0622 0.10668 0.0
H194 H 0.7091 0.94952 0.1119 0.0
H195 H 0.6587 0.95031 0.08153 0.0
H196 H 0.70805 0.98366 0.15572 0.0
H197 H 0.83178 0.0285 0.10083 0.0
H198 H 0.7904 0.05688 0.09954 0.0
H199 H 0.78713 0.01287 0.08807 0.0
C200 C 0.67871 0.03815 0.08348 0.0
C201 C 0.66082 0.00678 0.07612 0.0
C202 C 0.70721 0.03763 0.10099 0.0
C203 C 0.71856 0.00574 0.11134 0.0
C204 C 0.70089 0.97437 0.10401 0.0
H205 H 0.88557 0.94627 0.21842 0.0
H206 H 0.83234 0.94742 0.18997 0.0
C207 C 0.67236 0.97485 0.08651 0.0
C208 C 0.74804 0.00523 0.13033 0.0
H209 H 0.84194 0.02605 0.14239 0.0
C210 C 0.73739 0.99276 0.15281 0.0
C211 C 0.78623 0.01715 0.12643 0.0
C212 C 0.79978 0.02931 0.10236 0.0
C213 C 0.76383 0.99246 0.17167 0.0
C214 C 0.80192 0.00458 0.16778 0.0
C215 C 0.81258 0.01699 0.1453 0.0
C216 C 0.83157 0.00408 0.18664 0.0
C217 C 0.75067 0.9798 0.19568 0.0
C218 C 0.84866 0.03558 0.1942 0.0
C219 C 0.87911 0.03505 0.21043 0.0
C220 C 0.89329 0.00294 0.21921 0.0
C221 C 0.87533 0.97146 0.21206 0.0
C222 C 0.84479 0.97205 0.19588 0.0
H223 H 0.71865 0.97934 0.19714 0.0
H224 H 0.76145 0.95267 0.19859 0.0
H225 H 0.76249 0.99677 0.20996 0.0
H226 H 0.83889 0.06055 0.18718 0.0
H227 H 0.89228 0.05978 0.2155 0.0
H228 H 0.00462 0.69539 0.53828 0.0
H229 H 0.00629 0.74873 0.5627 0.0
H230 H 0.98435 0.68649 0.6251 0.0
H231 H 0.98332 0.63308 0.60096 0.0
H232 H 0.94692 0.77566 0.59428 0.0
H233 H 0.08367 0.74348 0.64083 0.0
H234 H 0.0693 0.72227 0.61358 0.0
H235 H 0.04818 0.70898 0.64126 0.0
C236 C 0.00042 0.69307 0.55724 0.0
C237 C 0.99401 0.66 0.56772 0.0
C238 C 0.00116 0.72355 0.57111 0.0
C239 C 0.99592 0.72143 0.5957 0.0
C240 C 0.98896 0.68858 0.60617 0.0
H241 H 0.98723 0.8531 0.71772 0.0
H242 H 0.98764 0.80658 0.68804 0.0
C243 C 0.98804 0.65814 0.59233 0.0
C244 C -0.00242 0.75349 0.61055 0.0
H245 H 0.04668 0.79068 0.65658 0.0
C246 C 0.96891 0.77924 0.60776 0.0
C247 C 0.02644 0.75802 0.62799 0.0
C248 C 0.05889 0.73191 0.63103 0.0
C249 C 0.96734 0.80874 0.62274 0.0
C250 C 0.99563 0.81276 0.64063 0.0
C251 C 0.02494 0.78748 0.6429 0.0
C252 C 0.99419 0.84173 0.65818 0.0
C253 C 0.93458 0.83457 0.61994 0.0
C254 C -0.00223 0.87706 0.65125 0.0
C255 C -0.0026 0.90391 0.66826 0.0
C256 C 0.99375 0.89576 0.69246 0.0
C257 C 0.99013 0.86034 0.69925 0.0
C258 C 0.99039 0.83366 0.6823 0.0
H259 H 0.91091 0.82383 0.60877 0.0
H260 H 0.92247 0.84195 0.63748 0.0
H261 H 0.9456 0.85882 0.61135 0.0
H262 H 0.00143 0.88382 0.63275 0.0
H263 H 0.00044 0.93092 0.66249 0.0
H264 H 0.32382 0.93867 0.92238 0.0
H265 H 0.27489 0.93923 0.89109 0.0
H266 H 0.28542 0.05193 0.88571 0.0
H267 H 0.33527 0.05152 0.91638 0.0
H268 H 0.20411 0.97405 0.88976 0.0
H269 H 0.3004 0.01934 0.8172 0.0
H270 H 0.31871 0.00306 0.84505 0.0
H271 H 0.30056 0.04722 0.84289 0.0
C272 C 0.31594 0.96355 0.9144 0.0
C273 C 0.3336 0.99503 0.92178 0.0
C274 C 0.28787 0.96383 0.89663 0.0
C275 C 0.27709 0.99553 0.88581 0.0
C276 C 0.29392 0.0271 0.8935 0.0
H277 H 0.10706 0.05533 0.78125 0.0
H278 H 0.15991 0.05324 0.80998 0.0
C279 C 0.32202 0.02685 0.91127 0.0
C280 C 0.24773 0.99561 0.86676 0.0
H281 H 0.23313 0.01733 0.80874 0.0
C282 C 0.21047 0.9833 0.872 0.0
C283 C 0.25622 0.00772 0.84363 0.0
C284 C 0.29622 0.01979 0.83672 0.0
C285 C 0.18117 0.98344 0.85485 0.0
C286 C 0.1896 0.99571 0.83177 0.0
C287 C 0.22686 0.00794 0.82647 0.0
C288 C 0.15978 0.99656 0.81302 0.0
C289 C 0.14118 0.97123 0.8617 0.0
C290 C 0.14312 0.96528 0.80472 0.0
C291 C 0.11296 0.96632 0.7883 0.0
C292 C 0.099 0.99872 0.77985 0.0
C293 C 0.11697 0.02994 0.78746 0.0
C294 C 0.14717 0.02884 0.80387 0.0
H295 H 0.13737 0.9702 0.88124 0.0
H296 H 0.11878 0.98886 0.85414 0.0
H297 H 0.13628 0.94441 0.85456 0.0
H298 H 0.153 0.94008 0.81128 0.0
H299 H 0.09996 0.94177 0.78272 0.0
H300 H 0.01319 0.36803 0.39736 0.0
H301 H 0.01438 0.31384 0.37405 0.0
H302 H 0.99159 0.25331 0.43712 0.0
H303 H 0.99032 0.30747 0.4606 0.0
H304 H 0.06226 0.25557 0.37877 0.0
H305 H 0.90807 0.21868 0.39155 0.0
H306 H 0.92635 0.26188 0.39864 0.0
H307 H 0.93509 0.22562 0.41832 0.0
C308 C 0.00863 0.34318 0.4063 0.0
C309 C 0.00152 0.34205 0.43081 0.0
C310 C 0.00917 0.31226 0.39294 0.0
C311 C 0.00253 0.27961 0.40379 0.0
C312 C 0.99591 0.27829 0.42831 0.0
H313 H 0.99416 0.07102 0.3361 0.0
H314 H 0.99703 0.11758 0.36626 0.0
C315 C 0.99523 0.30925 0.44168 0.0
C316 C 0.00318 0.24705 0.38935 0.0
H317 H 0.94681 0.17929 0.36962 0.0
C318 C 0.03707 0.23881 0.37686 0.0
C319 C 0.97033 0.22511 0.387 0.0
C320 C 0.93275 0.23329 0.39941 0.0
C321 C 0.03883 0.20954 0.36177 0.0
C322 C 0.00569 0.18821 0.3589 0.0
C323 C 0.97217 0.19572 0.37194 0.0
C324 C 0.00435 0.15981 0.34099 0.0
C325 C 0.07606 0.20179 0.34886 0.0
C326 C 0.00698 0.16829 0.31689 0.0
C327 C 0.00518 0.14197 0.29972 0.0
C328 C 0.00065 0.10654 0.3063 0.0
C329 C -0.00219 0.09805 0.33049 0.0
C330 C -0.00059 0.12456 0.34772 0.0
H331 H 0.10123 0.2144 0.35766 0.0
H332 H 0.08126 0.17302 0.34775 0.0
H333 H 0.07414 0.21224 0.33055 0.0
H334 H 0.01014 0.19541 0.31133 0.0
H335 H 0.00735 0.14948 0.28126 0.0
H336 H 0.6608 0.05681 0.91945 0.0
H337 H 0.71081 0.0591 0.88883 0.0
H338 H 0.7226 0.94637 0.89198 0.0
H339 H 0.67314 0.9438 0.92293 0.0
H340 H 0.78928 0.03281 0.89062 0.0
H341 H 0.70054 0.96834 0.82097 0.0
H342 H 0.67969 0.9872 0.84742 0.0
H343 H 0.70323 0.94516 0.84867 0.0
C344 C 0.6744 0.03253 0.9139 0.0
C345 C 0.66286 1.00008 0.92358 0.0
C346 C 0.70275 0.03389 0.89628 0.0
C347 C 0.71982 0.00286 0.88792 0.0
C348 C 0.70912 0.97053 0.8979 0.0
H349 H 0.89274 0.94822 0.78451 0.0
H350 H 0.84039 0.94946 0.81354 0.0
C351 C 0.68088 0.96913 0.91556 0.0
C352 C 0.74903 0.00429 0.86883 0.0
H353 H 0.76662 0.97815 0.81199 0.0
C354 C 0.78434 0.02108 0.87336 0.0
C355 C 0.74231 0.9889 0.8464 0.0
C356 C 0.70429 0.97161 0.8404 0.0
C357 C 0.81367 0.0221 0.8562 0.0
C358 C 0.80705 0.00657 0.83377 0.0
C359 C 0.77155 0.99006 0.82919 0.0
C360 C 0.8371 0.00622 0.81509 0.0
C361 C 0.85191 0.03879 0.8625 0.0
C362 C 0.8518 0.03774 0.80584 0.0
C363 C 0.88184 0.03717 0.78929 0.0
C364 C 0.89748 0.00501 0.78155 0.0
C365 C 0.88149 0.97346 0.79013 0.0
C366 C 0.85156 0.97409 0.80673 0.0
H367 H 0.85555 0.04151 0.88198 0.0
H368 H 0.87639 0.02313 0.85541 0.0
H369 H 0.85337 0.06547 0.85461 0.0
H370 H 0.84037 0.06281 0.81166 0.0
H371 H 0.89326 0.06194 0.78291 0.0
H372 H 0.06112 0.6721 0.43852 0.0
H373 H 0.06291 0.72641 0.41526 0.0
H374 H 0.9422 0.7135 0.39818 0.0
H375 H 0.94011 0.65957 0.42172 0.0
H376 H 0.05084 0.73509 0.36921 0.0
H377 H 0.94397 0.81492 0.41835 0.0
H378 H 0.96371 0.77461 0.43008 0.0
H379 H 0.92423 0.77342 0.40931 0.0
C380 C 0.03494 0.68095 0.42986 0.0
C381 C 0.00044 0.66166 0.43198 0.0
C382 C 0.03595 0.71204 0.41667 0.0
C383 C 0.00251 0.72443 0.40533 0.0
C384 C 0.96807 0.70509 0.40735 0.0
H385 H 0.98731 0.85186 0.28096 0.0
H386 H 0.99064 0.80593 0.31096 0.0
C387 C 0.96695 0.67417 0.42071 0.0
C388 C 0.00423 0.75626 0.39014 0.0
H389 H 0.95964 0.83466 0.37902 0.0
C390 C 0.03118 0.75703 0.37155 0.0
C391 C 0.97909 0.78523 0.39341 0.0
C392 C 0.95142 0.78723 0.41403 0.0
C393 C 0.03262 0.78524 0.35558 0.0
C394 C 0.00572 0.81305 0.35789 0.0
C395 C 0.97988 0.81307 0.37707 0.0
C396 C 0.00289 0.84144 0.33997 0.0
C397 C 0.06299 0.78494 0.33638 0.0
C398 C 0.0072 0.87689 0.34644 0.0
C399 C 0.00486 0.90342 0.32929 0.0
C400 C -0.00192 0.89486 0.30541 0.0
C401 C 0.99299 0.85937 0.29914 0.0
C402 C 0.99512 0.833 0.31625 0.0
H403 H 0.08828 0.76863 0.34151 0.0
H404 H 0.05048 0.77342 0.32002 0.0
H405 H 0.07323 0.81194 0.33228 0.0
H406 H 0.01287 0.88398 0.3647 0.0
H407 H 0.00878 0.93052 0.33468 0.0
loop_
_geom_bond_atom_site_label_1
_geom_bond_atom_site_label_2
_geom_bond_distance
_geom_bond_site_symmetry_2
_ccdc_geom_bond_type
C0 C1 1.367 1_545 S
C0 C2 1.384 . S
C0 H28 0.931 . S
C1 C0 1.367 1_565 S
C1 C4 1.401 . S
C2 C0 1.384 . S
C2 C3 1.381 1_545 S
C2 H29 0.930 . S
C3 C2 1.381 1_565 S
C3 C5 1.381 . S
C3 C6 1.487 . S
C4 C1 1.401 . S
C4 C5 1.387 . S
C4 H30 0.930 . S
C5 C3 1.381 . S
C5 C4 1.387 . S
C5 H31 0.931 . S
C6 C3 1.487 . S
C6 C13 1.399 1_566 S
C6 N44 1.343 . S
C7 C8 1.384 1_565 S
C7 C9 1.384 . S
C7 H32 0.931 . S
C8 C7 1.384 1_545 S
C8 C11 1.382 . S
C9 C7 1.384 . S
C9 C10 1.381 1_565 S
C9 H33 0.930 . S
C10 C9 1.381 1_545 S
C10 C12 1.381 . S
C10 C13 1.487 . S
C11 C8 1.382 . S
C11 C12 1.387 . S
C11 H34 0.930 . S
C12 C10 1.381 . S
C12 C11 1.387 . S
C12 H35 0.931 . S
C13 C6 1.399 1_544 S
C13 C10 1.487 . S
C13 N45 1.343 . S
C14 C15 1.384 1_565 S
C14 C16 1.384 . S
C14 H36 0.931 . S
C15 C14 1.384 1_545 S
C15 C18 1.382 . S
C16 C14 1.384 . S
C16 C17 1.381 1_565 S
C16 H37 0.930 . S
C17 C16 1.381 1_545 S
C17 C19 1.381 . S
C17 C20 1.487 . S
C18 C15 1.382 . S
C18 C19 1.387 . S
C18 H38 0.930 . S
C19 C17 1.381 . S
C19 C18 1.387 . S
C19 H39 0.931 . S
C20 C17 1.487 . S
C20 C27 1.399 1_544 S
C20 N45 1.343 . S
C21 C22 1.367 1_545 S
C21 C23 1.384 . S
C21 H40 0.931 . S
C22 C21 1.367 1_565 S
C22 C25 1.401 . S
C23 C21 1.384 . S
C23 C24 1.381 1_545 S
C23 H41 0.930 . S
C24 C23 1.381 1_565 S
C24 C26 1.381 . S
C24 C27 1.487 . S
C25 C22 1.401 . S
C25 C26 1.387 . S
C25 H42 0.930 . S
C26 C24 1.381 . S
C26 C25 1.387 . S
C26 H43 0.931 . S
C27 C20 1.399 1_566 S
C27 C24 1.487 . S
C27 N44 1.343 . S
H28 C0 0.931 . S
H29 C2 0.930 . S
H30 C4 0.930 . S
H31 C5 0.931 . S
H32 C7 0.931 . S
H33 C9 0.930 . S
H34 C11 0.930 . S
H35 C12 0.931 . S
H36 C14 0.931 . S
H37 C16 0.930 . S
H38 C18 0.930 . S
H39 C19 0.931 . S
H40 C21 0.931 . S
H41 C23 0.930 . S
H42 C25 0.930 . S
H43 C26 0.931 . S
N44 C6 1.343 . S
N44 C27 1.343 . S
N45 C13 1.343 . S
N45 C20 1.343 . S
C46 C47 1.366 1_455 S
C46 C48 1.384 . S
C46 H74 0.931 . S
C47 C46 1.366 1_655 S
C47 C50 1.402 . S
C48 C46 1.384 . S
C48 C49 1.381 1_455 S
C48 H75 0.930 . S
C49 C48 1.381 1_655 S
C49 C51 1.381 . S
C49 C52 1.487 . S
C50 C47 1.402 . S
C50 C51 1.387 . S
C50 H76 0.930 . S
C51 C49 1.381 . S
C51 C50 1.387 . S
C51 H77 0.931 . S
C52 C49 1.487 . S
C52 C59 1.399 1_655 S
C52 N90 1.343 . S
C53 C54 1.384 1_655 S
C53 C55 1.384 . S
C53 H78 0.931 . S
C54 C53 1.384 1_455 S
C54 C57 1.382 . S
C55 C53 1.384 . S
C55 C56 1.381 1_655 S
C55 H79 0.930 . S
C56 C55 1.381 1_455 S
C56 C58 1.381 . S
C56 C59 1.487 . S
C57 C54 1.382 . S
C57 C58 1.387 . S
C57 H80 0.930 . S
C58 C56 1.381 . S
C58 C57 1.387 . S
C58 H81 0.931 . S
C59 C52 1.399 1_455 S
C59 C56 1.487 . S
C59 N91 1.343 . S
C60 C61 1.384 1_655 S
C60 C62 1.384 . S
C60 H82 0.931 . S
C61 C60 1.384 1_455 S
C61 C64 1.382 . S
C62 C60 1.384 . S
C62 C63 1.381 1_655 S
C62 H83 0.930 . S
C63 C62 1.381 1_455 S
C63 C65 1.381 . S
C63 C66 1.487 . S
C64 C61 1.382 . S
C64 C65 1.387 . S
C64 H84 0.930 . S
C65 C63 1.381 . S
C65 C64 1.387 . S
C65 H85 0.931 . S
C66 C63 1.487 . S
C66 C73 1.399 1_455 S
C66 N91 1.343 . S
C67 C68 1.366 1_455 S
C67 C69 1.384 . S
C67 H86 0.931 . S
C68 C67 1.366 1_655 S
C68 C71 1.402 . S
C69 C67 1.384 . S
C69 C70 1.381 1_455 S
C69 H87 0.930 . S
C70 C69 1.381 1_655 S
C70 C72 1.381 . S
C70 C73 1.487 . S
C71 C68 1.402 . S
C71 C72 1.387 . S
C71 H88 0.930 . S
C72 C70 1.381 . S
C72 C71 1.387 . S
C72 H89 0.931 . S
C73 C66 1.399 1_655 S
C73 C70 1.487 . S
C73 N90 1.343 . S
H74 C46 0.931 . S
H75 C48 0.930 . S
H76 C50 0.930 . S
H77 C51 0.931 . S
H78 C53 0.931 . S
H79 C55 0.930 . S
H80 C57 0.930 . S
H81 C58 0.931 . S
H82 C60 0.931 . S
H83 C62 0.930 . S
H84 C64 0.930 . S
H85 C65 0.931 . S
H86 C67 0.931 . S
H87 C69 0.930 . S
H88 C71 0.930 . S
H89 C72 0.931 . S
N90 C52 1.343 . S
N90 C73 1.343 . S
N91 C59 1.343 . S
N91 C66 1.343 . S
O92 Cd93 2.223 1_655 S
O92 C100 1.315 . S
Cd93 O92 2.223 1_455 S
Cd93 O96 2.297 1_455 S
Cd93 O97 2.439 1_455 S
Cd93 O103 2.240 1_565 S
Cd94 O95 2.240 1_545 S
Cd94 O102 2.223 1_655 S
Cd94 O104 2.297 1_655 S
Cd94 O105 2.439 1_655 S
O95 Cd94 2.240 1_565 S
O95 C100 1.279 . S
O96 Cd93 2.297 1_655 S
O96 C98 1.247 . S
O97 Cd93 2.439 1_655 S
O97 C98 1.208 . S
C98 O96 1.247 . S
C98 O97 1.208 . S
C99 O104 1.247 . S
C99 O105 1.208 . S
C100 O92 1.315 . S
C100 O95 1.279 . S
C101 O102 1.315 . S
C101 O103 1.279 . S
O102 Cd94 2.223 1_455 S
O102 C101 1.315 . S
O103 Cd93 2.240 1_545 S
O103 C101 1.279 . S
O104 Cd94 2.297 1_455 S
O104 C99 1.247 . S
O105 Cd94 2.439 1_455 S
O105 C99 1.208 . S
O106 Cd107 2.223 1_655 S
O106 C114 1.315 . S
Cd107 O106 2.223 1_455 S
Cd107 O110 2.297 1_455 S
Cd107 O111 2.439 1_455 S
Cd107 O117 2.240 1_545 S
Cd108 O109 2.240 1_565 S
Cd108 O116 2.223 1_655 S
Cd108 O118 2.297 1_655 S
Cd108 O119 2.439 1_655 S
O109 Cd108 2.240 1_545 S
O109 C114 1.279 . S
O110 Cd107 2.297 1_655 S
O110 C112 1.247 . S
O111 Cd107 2.439 1_655 S
O111 C112 1.208 . S
C112 O110 1.247 . S
C112 O111 1.208 . S
C113 O118 1.247 . S
C113 O119 1.208 . S
C114 O106 1.315 . S
C114 O109 1.279 . S
C115 O116 1.315 . S
C115 O117 1.279 . S
O116 Cd108 2.223 1_455 S
O116 C115 1.315 . S
O117 Cd107 2.240 1_565 S
O117 C115 1.279 . S
O118 Cd108 2.297 1_455 S
O118 C113 1.247 . S
O119 Cd108 2.439 1_455 S
O119 C113 1.208 . S
H120 C128 0.929 . S
H121 C130 0.930 . S
H122 C132 0.930 . S
H123 C135 0.929 . S
H124 C138 0.930 . S
H125 C140 0.960 . S
H126 C140 0.960 . S
H127 C140 0.960 1_565 S
C128 H120 0.929 . S
C128 C129 1.377 . S
C128 C130 1.384 . S
C129 C128 1.377 . S
C129 C135 1.390 1_545 S
C130 H121 0.930 . S
C130 C128 1.384 . S
C130 C131 1.372 . S
C131 C130 1.372 . S
C131 C132 1.400 1_545 S
C131 C136 1.490 . S
C132 H122 0.930 . S
C132 C131 1.400 1_565 S
C132 C135 1.386 . S
H133 C149 0.930 . S
H134 C150 0.931 . S
C135 H123 0.929 . S
C135 C129 1.390 1_565 S
C135 C132 1.386 . S
C136 C131 1.490 . S
C136 C138 1.395 . S
C136 C139 1.403 . S
H137 C143 0.930 . S
C138 H124 0.930 . S
C138 C136 1.395 . S
C138 C141 1.403 . S
C139 C136 1.403 . S
C139 C140 1.524 . S
C139 C143 1.400 . S
C140 H125 0.960 . S
C140 H126 0.960 . S
C140 H127 0.960 1_545 S
C140 C139 1.524 . S
C141 C138 1.403 . S
C141 C142 1.392 . S
C141 C145 1.495 . S
C142 C141 1.392 . S
C142 C143 1.385 . S
C142 C144 1.478 . S
C143 H137 0.930 . S
C143 C139 1.400 . S
C143 C142 1.385 . S
C144 C142 1.478 . S
C144 C146 1.381 . S
C144 C150 1.383 1_545 S
C145 C141 1.495 . S
C145 H151 0.959 . S
C145 H152 0.961 1_545 S
C145 H153 0.960 . S
C146 C144 1.381 . S
C146 C147 1.394 . S
C146 H154 0.930 . S
C147 C146 1.394 . S
C147 C148 1.383 . S
C147 H155 0.929 . S
C148 C147 1.383 . S
C148 C149 1.377 1_545 S
C149 H133 0.930 . S
C149 C148 1.377 1_565 S
C149 C150 1.379 . S
C150 H134 0.931 . S
C150 C144 1.383 1_565 S
C150 C149 1.379 . S
H151 C145 0.959 . S
H152 C145 0.961 1_565 S
H153 C145 0.960 . S
H154 C146 0.930 . S
H155 C147 0.929 . S
H156 C164 0.929 . S
H157 C166 0.930 . S
H158 C168 0.930 . S
H159 C171 0.929 . S
H160 C174 0.930 . S
H161 C176 0.960 . S
H162 C176 0.960 . S
H163 C176 0.960 1_655 S
C164 H156 0.929 . S
C164 C165 1.377 1_455 S
C164 C166 1.384 . S
C165 C164 1.377 1_655 S
C165 C171 1.390 . S
C166 H157 0.930 . S
C166 C164 1.384 . S
C166 C167 1.372 1_455 S
C167 C166 1.372 1_655 S
C167 C168 1.400 . S
C167 C172 1.490 . S
C168 H158 0.930 . S
C168 C167 1.400 . S
C168 C171 1.386 . S
H169 C185 0.930 . S
H170 C186 0.931 . S
C171 H159 0.929 . S
C171 C165 1.390 . S
C171 C168 1.386 . S
C172 C167 1.490 . S
C172 C174 1.395 . S
C172 C175 1.403 . S
H173 C179 0.930 . S
C174 H160 0.930 . S
C174 C172 1.395 . S
C174 C177 1.403 . S
C175 C172 1.403 . S
C175 C176 1.524 1_655 S
C175 C179 1.400 . S
C176 H161 0.960 . S
C176 H162 0.960 . S
C176 H163 0.960 1_455 S
C176 C175 1.524 1_455 S
C177 C174 1.403 . S
C177 C178 1.392 . S
C177 C181 1.495 . S
C178 C177 1.392 . S
C178 C179 1.385 . S
C178 C180 1.478 . S
C179 H173 0.930 . S
C179 C175 1.400 . S
C179 C178 1.385 . S
C180 C178 1.478 . S
C180 C182 1.381 1_655 S
C180 C186 1.383 . S
C181 C177 1.495 . S
C181 H187 0.959 . S
C181 H188 0.961 . S
C181 H189 0.960 . S
C182 C180 1.381 1_455 S
C182 C183 1.394 . S
C182 H190 0.930 . S
C183 C182 1.394 . S
C183 C184 1.383 1_455 S
C183 H191 0.929 . S
C184 C183 1.383 1_655 S
C184 C185 1.377 . S
C185 H169 0.930 . S
C185 C184 1.377 . S
C185 C186 1.379 . S
C186 H170 0.931 . S
C186 C180 1.383 . S
C186 C185 1.379 . S
H187 C181 0.959 . S
H188 C181 0.961 . S
H189 C181 0.960 . S
H190 C182 0.930 . S
H191 C183 0.929 . S
H192 C200 0.929 . S
H193 C202 0.930 . S
H194 C204 0.930 . S
H195 C207 0.929 . S
H196 C210 0.930 . S
H197 C212 0.960 . S
H198 C212 0.970 . S
H199 C212 0.952 1_565 S
C200 H192 0.929 . S
C200 C201 1.364 1_545 S
C200 C202 1.384 . S
C201 C200 1.364 1_565 S
C201 C207 1.404 . S
C202 H193 0.930 . S
C202 C200 1.384 . S
C202 C203 1.372 1_545 S
C203 C202 1.372 1_565 S
C203 C204 1.400 . S
C203 C208 1.490 . S
C204 H194 0.930 . S
C204 C203 1.400 . S
C204 C207 1.386 . S
H205 C221 0.930 . S
H206 C222 0.931 . S
C207 H195 0.929 . S
C207 C201 1.404 . S
C207 C204 1.386 . S
C208 C203 1.490 . S
C208 C210 1.395 . S
C208 C211 1.403 . S
H209 C215 0.930 . S
C210 H196 0.930 . S
C210 C208 1.395 . S
C210 C213 1.403 . S
C211 C208 1.403 . S
C211 C212 1.522 1_565 S
C211 C215 1.400 . S
C212 H197 0.960 . S
C212 H198 0.970 . S
C212 H199 0.952 1_545 S
C212 C211 1.522 1_545 S
C213 C210 1.403 . S
C213 C214 1.392 . S
C213 C217 1.495 . S
C214 C213 1.392 . S
C214 C215 1.385 . S
C214 C216 1.478 . S
C215 H209 0.930 . S
C215 C211 1.400 . S
C215 C214 1.385 . S
C216 C214 1.478 . S
C216 C218 1.381 1_565 S
C216 C222 1.383 . S
C217 C213 1.495 . S
C217 H223 0.959 . S
C217 H224 0.961 . S
C217 H225 0.960 1_565 S
C218 C216 1.381 1_545 S
C218 C219 1.394 . S
C218 H226 0.930 . S
C219 C218 1.394 . S
C219 C220 1.383 1_545 S
C219 H227 0.929 . S
C220 C219 1.383 1_565 S
C220 C221 1.377 . S
C221 H205 0.930 . S
C221 C220 1.377 . S
C221 C222 1.379 . S
C222 H206 0.931 . S
C222 C216 1.383 . S
C222 C221 1.379 . S
H223 C217 0.959 . S
H224 C217 0.961 . S
H225 C217 0.960 1_545 S
H226 C218 0.930 . S
H227 C219 0.929 . S
H228 C236 0.928 1_655 S
H229 C238 0.930 . S
H230 C240 0.930 . S
H231 C243 0.929 . S
H232 C246 0.930 . S
H233 C248 0.960 . S
H234 C248 0.960 . S
H235 C248 0.960 . S
C236 H228 0.928 1_455 S
C236 C237 1.377 . S
C236 C238 1.384 . S
C237 C236 1.377 . S
C237 C243 1.390 . S
C238 H229 0.930 . S
C238 C236 1.384 . S
C238 C239 1.372 . S
C239 C238 1.372 . S
C239 C240 1.400 . S
C239 C244 1.490 . S
C240 H230 0.930 . S
C240 C239 1.400 . S
C240 C243 1.386 . S
H241 C257 0.930 . S
H242 C258 0.931 . S
C243 H231 0.929 . S
C243 C237 1.390 . S
C243 C240 1.386 . S
C244 C239 1.490 . S
C244 C246 1.395 1_455 S
C244 C247 1.403 . S
H245 C251 0.930 . S
C246 H232 0.930 . S
C246 C244 1.395 1_655 S
C246 C249 1.403 . S
C247 C244 1.403 . S
C247 C248 1.524 . S
C247 C251 1.400 . S
C248 H233 0.960 . S
C248 H234 0.960 . S
C248 H235 0.960 . S
C248 C247 1.524 . S
C249 C246 1.403 . S
C249 C250 1.392 1_655 S
C249 C253 1.495 . S
C250 C249 1.392 1_455 S
C250 C251 1.385 . S
C250 C252 1.478 . S
C251 H245 0.930 . S
C251 C247 1.400 . S
C251 C250 1.385 . S
C252 C250 1.478 . S
C252 C254 1.381 . S
C252 C258 1.383 . S
C253 C249 1.495 . S
C253 H259 0.959 . S
C253 H260 0.961 . S
C253 H261 0.960 . S
C254 C252 1.381 . S
C254 C255 1.394 . S
C254 H262 0.930 . S
C255 C254 1.394 . S
C255 C256 1.383 . S
C255 H263 0.929 . S
C256 C255 1.383 . S
C256 C257 1.377 . S
C257 H241 0.930 . S
C257 C256 1.377 . S
C257 C258 1.379 . S
C258 H242 0.931 . S
C258 C252 1.383 . S
C258 C257 1.379 . S
H259 C253 0.959 . S
H260 C253 0.961 . S
H261 C253 0.960 . S
H262 C254 0.930 . S
H263 C255 0.929 . S
H264 C272 0.929 . S
H265 C274 0.930 . S
H266 C276 0.930 . S
H267 C279 0.929 . S
H268 C282 0.930 . S
H269 C284 0.960 . S
H270 C284 0.960 . S
H271 C284 0.960 . S
C272 H264 0.929 . S
C272 C273 1.377 . S
C272 C274 1.384 . S
C273 C272 1.377 . S
C273 C279 1.390 1_565 S
C274 H265 0.930 . S
C274 C272 1.384 . S
C274 C275 1.372 . S
C275 C274 1.372 . S
C275 C276 1.400 1_565 S
C275 C280 1.490 . S
C276 H266 0.930 . S
C276 C275 1.400 1_545 S
C276 C279 1.386 . S
H277 C293 0.930 . S
H278 C294 0.931 . S
C279 H267 0.929 . S
C279 C273 1.390 1_545 S
C279 C276 1.386 . S
C280 C275 1.490 . S
C280 C282 1.395 . S
C280 C283 1.403 1_565 S
H281 C287 0.930 . S
C282 H268 0.930 . S
C282 C280 1.395 . S
C282 C285 1.403 . S
C283 C280 1.403 1_545 S
C283 C284 1.524 . S
C283 C287 1.400 . S
C284 H269 0.960 . S
C284 H270 0.960 . S
C284 H271 0.960 . S
C284 C283 1.524 . S
C285 C282 1.403 . S
C285 C286 1.392 . S
C285 C289 1.495 . S
C286 C285 1.392 . S
C286 C287 1.385 1_565 S
C286 C288 1.478 . S
C287 H281 0.930 . S
C287 C283 1.400 . S
C287 C286 1.385 1_545 S
C288 C286 1.478 . S
C288 C290 1.381 . S
C288 C294 1.383 1_565 S
C289 C285 1.495 . S
C289 H295 0.959 . S
C289 H296 0.961 . S
C289 H297 0.960 . S
C290 C288 1.381 . S
C290 C291 1.394 . S
C290 H298 0.930 . S
C291 C290 1.394 . S
C291 C292 1.383 . S
C291 H299 0.929 . S
C292 C291 1.383 . S
C292 C293 1.377 1_565 S
C293 H277 0.930 . S
C293 C292 1.377 1_545 S
C293 C294 1.379 . S
C294 H278 0.931 . S
C294 C288 1.383 1_545 S
C294 C293 1.379 . S
H295 C289 0.959 . S
H296 C289 0.961 . S
H297 C289 0.960 . S
H298 C290 0.930 . S
H299 C291 0.929 . S
H300 C308 0.929 . S
H301 C310 0.930 . S
H302 C312 0.930 . S
H303 C315 0.929 . S
H304 C318 0.930 . S
H305 C320 0.960 . S
H306 C320 0.960 . S
H307 C320 0.960 . S
C308 H300 0.929 . S
C308 C309 1.377 . S
C308 C310 1.384 . S
C309 C308 1.377 . S
C309 C315 1.390 1_455 S
C310 H301 0.930 . S
C310 C308 1.384 . S
C310 C311 1.372 . S
C311 C310 1.372 . S
C311 C312 1.400 1_455 S
C311 C316 1.490 . S
C312 H302 0.930 . S
C312 C311 1.400 1_655 S
C312 C315 1.386 . S
H313 C329 0.930 . S
H314 C330 0.931 . S
C315 H303 0.929 . S
C315 C309 1.390 1_655 S
C315 C312 1.386 . S
C316 C311 1.490 . S
C316 C318 1.395 . S
C316 C319 1.403 1_455 S
H317 C323 0.930 . S
C318 H304 0.930 . S
C318 C316 1.395 . S
C318 C321 1.403 . S
C319 C316 1.403 1_655 S
C319 C320 1.524 . S
C319 C323 1.400 . S
C320 H305 0.960 . S
C320 H306 0.960 . S
C320 H307 0.960 . S
C320 C319 1.524 . S
C321 C318 1.403 . S
C321 C322 1.392 . S
C321 C325 1.495 . S
C322 C321 1.392 . S
C322 C323 1.385 1_455 S
C322 C324 1.478 . S
C323 H317 0.930 . S
C323 C319 1.400 . S
C323 C322 1.385 1_655 S
C324 C322 1.478 . S
C324 C326 1.381 . S
C324 C330 1.383 . S
C325 C321 1.495 . S
C325 H331 0.959 . S
C325 H332 0.961 . S
C325 H333 0.960 . S
C326 C324 1.381 . S
C326 C327 1.394 . S
C326 H334 0.930 . S
C327 C326 1.394 . S
C327 C328 1.383 . S
C327 H335 0.929 . S
C328 C327 1.383 . S
C328 C329 1.377 . S
C329 H313 0.930 . S
C329 C328 1.377 . S
C329 C330 1.379 . S
C330 H314 0.931 . S
C330 C324 1.383 . S
C330 C329 1.379 . S
H331 C325 0.959 . S
H332 C325 0.961 . S
H333 C325 0.960 . S
H334 C326 0.930 . S
H335 C327 0.929 . S
H336 C344 0.929 . S
H337 C346 0.930 . S
H338 C348 0.930 . S
H339 C351 0.929 . S
H340 C354 0.930 . S
H341 C356 0.960 . S
H342 C356 0.960 1_545 S
H343 C356 0.960 . S
C344 H336 0.929 . S
C344 C345 1.377 . S
C344 C346 1.384 . S
C345 C344 1.377 . S
C345 C351 1.390 1_545 S
C346 H337 0.930 . S
C346 C344 1.384 . S
C346 C347 1.372 . S
C347 C346 1.372 . S
C347 C348 1.400 1_545 S
C347 C352 1.490 . S
C348 H338 0.930 . S
C348 C347 1.400 1_565 S
C348 C351 1.386 . S
H349 C365 0.930 . S
H350 C366 0.931 . S
C351 H339 0.929 . S
C351 C345 1.390 1_565 S
C351 C348 1.386 . S
C352 C347 1.490 . S
C352 C354 1.395 . S
C352 C355 1.403 . S
H353 C359 0.930 1_565 S
C354 H340 0.930 . S
C354 C352 1.395 . S
C354 C357 1.403 . S
C355 C352 1.403 . S
C355 C356 1.524 1_545 S
C355 C359 1.400 . S
C356 H341 0.960 . S
C356 H342 0.960 1_565 S
C356 H343 0.960 . S
C356 C355 1.524 1_565 S
C357 C354 1.403 . S
C357 C358 1.392 . S
C357 C361 1.495 . S
C358 C357 1.392 . S
C358 C359 1.385 . S
C358 C360 1.478 . S
C359 H353 0.930 1_545 S
C359 C355 1.400 . S
C359 C358 1.385 . S
C360 C358 1.478 . S
C360 C362 1.381 . S
C360 C366 1.383 1_545 S
C361 C357 1.495 . S
C361 H367 0.959 . S
C361 H368 0.961 . S
C361 H369 0.960 . S
C362 C360 1.381 . S
C362 C363 1.394 . S
C362 H370 0.930 . S
C363 C362 1.394 . S
C363 C364 1.383 . S
C363 H371 0.929 . S
C364 C363 1.383 . S
C364 C365 1.377 1_545 S
C365 H349 0.930 . S
C365 C364 1.377 1_565 S
C365 C366 1.379 . S
C366 H350 0.931 . S
C366 C360 1.383 1_565 S
C366 C365 1.379 . S
H367 C361 0.959 . S
H368 C361 0.961 . S
H369 C361 0.960 . S
H370 C362 0.930 . S
H371 C363 0.929 . S
H372 C380 0.929 . S
H373 C382 0.930 . S
H374 C384 0.930 . S
H375 C387 0.929 . S
H376 C390 0.930 . S
H377 C392 0.960 . S
H378 C392 0.960 . S
H379 C392 0.960 . S
C380 H372 0.929 . S
C380 C381 1.377 1_455 S
C380 C382 1.384 . S
C381 C380 1.377 1_655 S
C381 C387 1.390 . S
C382 H373 0.930 . S
C382 C380 1.384 . S
C382 C383 1.372 1_455 S
C383 C382 1.372 1_655 S
C383 C384 1.400 . S
C383 C388 1.490 . S
C384 H374 0.930 . S
C384 C383 1.400 . S
C384 C387 1.386 . S
H385 C401 0.930 . S
H386 C402 0.931 . S
C387 H375 0.929 . S
C387 C381 1.390 . S
C387 C384 1.386 . S
C388 C383 1.490 . S
C388 C390 1.395 1_655 S
C388 C391 1.403 . S
H389 C395 0.930 . S
C390 H376 0.930 . S
C390 C388 1.395 1_455 S
C390 C393 1.403 . S
C391 C388 1.403 . S
C391 C392 1.524 . S
C391 C395 1.400 . S
C392 H377 0.960 . S
C392 H378 0.960 . S
C392 H379 0.960 . S
C392 C391 1.524 . S
C393 C390 1.403 . S
C393 C394 1.392 1_455 S
C393 C397 1.495 . S
C394 C393 1.392 1_655 S
C394 C395 1.385 . S
C394 C396 1.478 . S
C395 H389 0.930 . S
C395 C391 1.400 . S
C395 C394 1.385 . S
C396 C394 1.478 . S
C396 C398 1.381 1_655 S
C396 C402 1.383 . S
C397 C393 1.495 . S
C397 H403 0.959 . S
C397 H404 0.961 . S
C397 H405 0.960 . S
C398 C396 1.381 1_455 S
C398 C399 1.394 . S
C398 H406 0.930 . S
C399 C398 1.394 . S
C399 C400 1.383 1_455 S
C399 H407 0.929 . S
C400 C399 1.383 1_655 S
C400 C401 1.377 . S
C401 H385 0.930 . S
C401 C400 1.377 . S
C401 C402 1.379 . S
C402 H386 0.931 . S
C402 C396 1.383 . S
C402 C401 1.379 . S
H403 C397 0.959 . S
H404 C397 0.961 . S
H405 C397 0.960 . S
H406 C398 0.930 . S
H407 C399 0.929 . S
C148 C101 1.605 . S
C129 C15 1.598 . S
C184 C112 1.523 . S
C165 C68 1.598 . S
C220 C100 1.598 . S
C201 C8 1.605 1_565 S
C256 C113 1.518 . S
C237 C47 1.597 1_455 S
C292 C115 1.602 . S
C273 C22 1.606 . S
C328 C99 1.557 . S
C309 C61 1.598 . S
C364 C114 1.604 . S
C345 C1 1.611 1_545 S
C381 C54 1.599 1_655 S
C400 C98 1.506 . S
