# Generated by pormake.
# Topology nom, (4,4)-cn, num edge types: 1
# Building blocks:
#     Node 0, Type 0, BuildingBlock: NAHDIM_clean_linker_0, # of connection points: 4
#     Node 1, Type 0, BuildingBlock: NAHDIM_clean_linker_0, # of connection points: 4
#     Node 2, Type 0, BuildingBlock: NAHDIM_clean_linker_0, # of connection points: 4
#     Node 3, Type 0, BuildingBlock: NAHDIM_clean_linker_0, # of connection points: 4
#     Node 4, Type 0, BuildingBlock: NAHDIM_clean_linker_0, # of connection points: 4
#     Node 5, Type 0, BuildingBlock: NAHDIM_clean_linker_0, # of connection points: 4
#     Node 6, Type 1, BuildingBlock: KUFVIS_clean_sbu_0, # of connection points: 4
#     Node 7, Type 1, BuildingBlock: KUFVIS_clean_sbu_0, # of connection points: 4
#     Node 8, Type 1, BuildingBlock: KUFVIS_clean_sbu_0, # of connection points: 4
#     Node 9, Type 1, BuildingBlock: KUFVIS_clean_sbu_0, # of connection points: 4
#     Node 10, Type 1, BuildingBlock: KUFVIS_clean_sbu_0, # of connection points: 4
#     Node 11, Type 1, BuildingBlock: KUFVIS_clean_sbu_0, # of connection points: 4
#     Edge 12, Type (0, 1), BuildingBlock: EZIPEK_clean_linker_0, # of connection points: 2
#     Edge 13, Type (0, 1), BuildingBlock: EZIPEK_clean_linker_0, # of connection points: 2
#     Edge 14, Type (0, 1), BuildingBlock: EZIPEK_clean_linker_0, # of connection points: 2
#     Edge 15, Type (0, 1), BuildingBlock: EZIPEK_clean_linker_0, # of connection points: 2
#     Edge 16, Type (0, 1), BuildingBlock: EZIPEK_clean_linker_0, # of connection points: 2
#     Edge 17, Type (0, 1), BuildingBlock: EZIPEK_clean_linker_0, # of connection points: 2
#     Edge 18, Type (0, 1), BuildingBlock: EZIPEK_clean_linker_0, # of connection points: 2
#     Edge 19, Type (0, 1), BuildingBlock: EZIPEK_clean_linker_0, # of connection points: 2
#     Edge 20, Type (0, 1), BuildingBlock: EZIPEK_clean_linker_0, # of connection points: 2
#     Edge 21, Type (0, 1), BuildingBlock: EZIPEK_clean_linker_0, # of connection points: 2
#     Edge 22, Type (0, 1), BuildingBlock: EZIPEK_clean_linker_0, # of connection points: 2
#     Edge 23, Type (0, 1), BuildingBlock: EZIPEK_clean_linker_0, # of connection points: 2
#     Edge 24, Type (0, 1), BuildingBlock: EZIPEK_clean_linker_0, # of connection points: 2
#     Edge 25, Type (0, 1), BuildingBlock: EZIPEK_clean_linker_0, # of connection points: 2
#     Edge 26, Type (0, 1), BuildingBlock: EZIPEK_clean_linker_0, # of connection points: 2
#     Edge 27, Type (0, 1), BuildingBlock: EZIPEK_clean_linker_0, # of connection points: 2
#     Edge 28, Type (0, 1), BuildingBlock: EZIPEK_clean_linker_0, # of connection points: 2
#     Edge 29, Type (0, 1), BuildingBlock: EZIPEK_clean_linker_0, # of connection points: 2
#     Edge 30, Type (0, 1), BuildingBlock: EZIPEK_clean_linker_0, # of connection points: 2
#     Edge 31, Type (0, 1), BuildingBlock: EZIPEK_clean_linker_0, # of connection points: 2
#     Edge 32, Type (0, 1), BuildingBlock: EZIPEK_clean_linker_0, # of connection points: 2
#     Edge 33, Type (0, 1), BuildingBlock: EZIPEK_clean_linker_0, # of connection points: 2
#     Edge 34, Type (0, 1), BuildingBlock: EZIPEK_clean_linker_0, # of connection points: 2
#     Edge 35, Type (0, 1), BuildingBlock: EZIPEK_clean_linker_0, # of connection points: 2
# Relax obj value: 0.044
# Max RMSD: 0.132
# Mean RMSD: 0.094
data_MOF--net-nom--node1-KUFVIS_clean_sbu_0--node2-NAHDIM_clean_linker_0--edge1-EZIPEK_clean_linker_0
_symmetry_space_group_name_H-M    P1
_symmetry_Int_Tables_number       1
_symmetry_cell_setting            triclinic
loop_
_symmetry_equiv_pos_as_xyz
'x, y, z'
_cell_length_a     46.441757
_cell_length_b     47.056399
_cell_length_c     56.643906
_cell_angle_alpha  90.873403
_cell_angle_beta   90.921489
_cell_angle_gamma 119.9918
loop_
_atom_site_label
_atom_site_type_symbol
_atom_site_fract_x
_atom_site_fract_y
_atom_site_fract_z
_atom_type_partial_charge
C0 C 0.206 0.62638 0.22871 0.0
C1 C 0.21804 0.63336 0.25474 0.0
C2 C 0.16419 0.60861 0.27447 0.0
C3 C 0.1563 0.5756 0.27323 0.0
C4 C 0.12455 0.55033 0.27909 0.0
C5 C 0.10009 0.55816 0.28587 0.0
C6 C 0.10794 0.59139 0.28687 0.0
C7 C 0.14014 0.61615 0.28165 0.0
C8 C 0.11712 0.51523 0.27801 0.0
C9 C 0.08236 0.60092 0.29319 0.0
C10 C 0.86209 0.39581 0.21905 0.0
C11 C 0.8807 0.42871 0.20608 0.0
C12 C 0.93837 0.4504 0.21858 0.0
C13 C 0.94495 0.47987 0.22987 0.0
C14 C 0.96976 0.49462 0.24757 0.0
C15 C 0.98817 0.47937 0.25427 0.0
C16 C 0.983 0.45073 0.24198 0.0
C17 C 0.95827 0.43676 0.224 0.0
C18 C 0.97559 0.526 0.25958 0.0
C19 C 0.00267 0.43429 0.24847 0.0
C20 C 0.85302 0.43472 0.37427 0.0
C21 C 0.87167 0.46508 0.36344 0.0
C22 C 0.90613 0.47924 0.3611 0.0
C23 C 0.92238 0.4625 0.36946 0.0
C24 C 0.90382 0.43214 0.38063 0.0
C25 C 0.86942 0.41886 0.38312 0.0
C26 C 0.92508 0.51221 0.34967 0.0
C27 C 0.92028 0.41364 0.38973 0.0
C28 C 0.14551 0.65325 0.46475 0.0
C29 C 0.12855 0.61646 0.45876 0.0
C30 C 0.07516 0.58217 0.43867 0.0
C31 C 0.05236 0.58757 0.42615 0.0
C32 C 0.03228 0.56586 0.40795 0.0
C33 C 0.03421 0.53728 0.40291 0.0
C34 C 0.05602 0.53076 0.41652 0.0
C35 C 0.07667 0.55358 0.43412 0.0
C36 C 0.00941 0.57385 0.39395 0.0
C37 C 0.05775 0.49992 0.41232 0.0
C38 C 0.06595 0.53167 0.2911 0.0
C39 C 0.04438 0.5148 0.27193 0.0
C40 C 0.01086 0.49226 0.2753 0.0
C41 C 0.9984 0.48581 0.29839 0.0
C42 C 0.96468 0.46343 0.30231 0.0
C43 C 0.95187 0.45977 0.32477 0.0
C44 C 0.9723 0.4782 0.34416 0.0
C45 C 0.95882 0.47723 0.36652 0.0
C46 C 0.97995 0.49495 0.38566 0.0
C47 C 0.01419 0.51511 0.38284 0.0
C48 C 0.02792 0.51743 0.36033 0.0
C49 C 0.06197 0.53862 0.35653 0.0
C50 C 0.07476 0.54238 0.33401 0.0
C51 C 0.0539 0.52564 0.31434 0.0
C52 C 0.01985 0.50304 0.31793 0.0
C53 C 0.00682 0.49902 0.34092 0.0
C54 C 0.7779 0.3939 0.34661 0.0
C55 C 0.79626 0.4235 0.3638 0.0
O56 O 0.19454 0.634 0.26914 0.0
O57 O 0.09494 0.60477 0.45535 0.0
O58 O 0.81966 0.42043 0.37741 0.0
O59 O 0.91274 0.43451 0.20264 0.0
H60 H 0.22142 0.61247 0.25929 0.0
H61 H 0.19914 0.64414 0.22183 0.0
H62 H 0.1838 0.60149 0.22666 0.0
H63 H 0.22579 0.62704 0.21756 0.0
H64 H 0.1747 0.56926 0.26801 0.0
H65 H 0.14651 0.64167 0.28259 0.0
H66 H 0.09912 0.50182 0.26322 0.0
H67 H 0.13982 0.51347 0.27525 0.0
H68 H 0.10548 0.50276 0.29458 0.0
H69 H 0.09057 0.62677 0.28884 0.0
H70 H 0.0583 0.58466 0.28377 0.0
H71 H 0.078 0.59819 0.31243 0.0
H72 H 0.8809 0.4481 0.21761 0.0
H73 H 0.84762 0.37475 0.20662 0.0
H74 H 0.87977 0.39079 0.22908 0.0
H75 H 0.84516 0.39644 0.23235 0.0
H76 H 0.93069 0.49144 0.22498 0.0
H77 H 0.95338 0.41433 0.21484 0.0
H78 H 0.96668 0.52092 0.27794 0.0
H79 H 0.00258 0.54429 0.26054 0.0
H80 H 0.96238 0.53695 0.25027 0.0
H81 H 0.99616 0.41253 0.23688 0.0
H82 H 0.02967 0.45204 0.24722 0.0
H83 H 0.99796 0.42641 0.26707 0.0
H84 H 0.80833 0.4441 0.35165 0.0
H85 H 0.85998 0.47848 0.35718 0.0
H86 H 0.85499 0.39566 0.39175 0.0
H87 H 0.93193 0.50877 0.33161 0.0
H88 H 0.91015 0.52465 0.34821 0.0
H89 H 0.9484 0.52862 0.35983 0.0
H90 H 0.90199 0.38911 0.39627 0.0
H91 H 0.9347 0.41046 0.37551 0.0
H92 H 0.93805 0.42805 0.4044 0.0
H93 H 0.13903 0.61487 0.44164 0.0
H94 H 0.17282 0.66379 0.46705 0.0
H95 H 0.14091 0.66614 0.45016 0.0
H96 H 0.13561 0.6578 0.48123 0.0
H97 H 0.05116 0.60954 0.43019 0.0
H98 H 0.09354 0.54889 0.44451 0.0
H99 H 0.01228 0.57151 0.37471 0.0
H100 H 0.98322 0.55618 0.39816 0.0
H101 H 0.0142 0.59905 0.398 0.0
H102 H 0.07236 0.49628 0.42647 0.0
H103 H 0.03231 0.47818 0.41126 0.0
H104 H 0.06961 0.50133 0.3952 0.0
H105 H 0.05341 0.52048 0.2541 0.0
H106 H 0.94764 0.44902 0.28796 0.0
H107 H 0.92558 0.44275 0.32669 0.0
H108 H 0.96936 0.49472 0.40265 0.0
H109 H 0.07908 0.55298 0.37083 0.0
H110 H 0.10108 0.55923 0.33212 0.0
H111 H 0.76563 0.37014 0.35561 0.0
H112 H 0.75874 0.39613 0.33609 0.0
H113 H 0.79587 0.39332 0.33417 0.0
C114 C 0.41818 0.81967 0.58229 0.0
C115 C 0.40865 0.80974 0.55598 0.0
C116 C 0.41902 0.86261 0.5402 0.0
C117 C 0.45376 0.87717 0.53881 0.0
C118 C 0.47333 0.91005 0.53254 0.0
C119 C 0.45803 0.92902 0.52804 0.0
C120 C 0.42308 0.91438 0.52911 0.0
C121 C 0.40401 0.88121 0.53491 0.0
C122 C 0.51053 0.92476 0.53123 0.0
C123 C 0.40599 0.93398 0.52467 0.0
C124 C 0.62847 0.12612 0.62227 0.0
C125 C 0.5956 0.11213 0.63588 0.0
C126 C 0.55523 0.08298 0.60304 0.0
C127 C 0.52915 0.08204 0.5898 0.0
C128 C 0.51473 0.06045 0.57028 0.0
C129 C 0.52752 0.03994 0.56344 0.0
C130 C 0.55331 0.04003 0.57717 0.0
C131 C 0.56651 0.06116 0.59708 0.0
C132 C 0.48621 0.06003 0.55679 0.0
C133 C 0.56721 0.0181 0.57071 0.0
C134 C 0.6133 0.17609 0.44596 0.0
C135 C 0.57888 0.16357 0.44591 0.0
C136 C 0.55678 0.12967 0.44675 0.0
C137 C 0.56947 0.10788 0.447 0.0
C138 C 0.60412 0.12039 0.44544 0.0
C139 C 0.62564 0.15446 0.44486 0.0
C140 C 0.51994 0.11718 0.44789 0.0
C141 C 0.61841 0.09781 0.44521 0.0
C142 C 0.38756 0.89323 0.34271 0.0
C143 C 0.42477 0.90932 0.34884 0.0
C144 C 0.4554 0.96107 0.37083 0.0
C145 C 0.44676 0.98274 0.38116 0.0
C146 C 0.46374 0.00142 0.40145 0.0
C147 C 0.49085 0.99914 0.41104 0.0
C148 C 0.50068 0.97828 0.3999 0.0
C149 C 0.48253 0.95912 0.37999 0.0
C150 C 0.45255 0.02349 0.41262 0.0
C151 C 0.53025 0.97621 0.40903 0.0
C152 C 0.47899 0.96468 0.52397 0.0
C153 C 0.49265 0.98554 0.54384 0.0
C154 C 0.51451 0.01911 0.54159 0.0
C155 C 0.5234 0.03239 0.51887 0.0
C156 C 0.5465 0.0658 0.51596 0.0
C157 C 0.55434 0.07886 0.49359 0.0
C158 C 0.53951 0.05901 0.47321 0.0
C159 C 0.54672 0.0723 0.45041 0.0
C160 C 0.5313 0.05199 0.43053 0.0
C161 C 0.50859 0.01852 0.43274 0.0
C162 C 0.50136 0.00467 0.45541 0.0
C163 C 0.47886 0.97106 0.45834 0.0
C164 C 0.47193 0.95776 0.48073 0.0
C165 C 0.48638 0.97773 0.50109 0.0
C166 C 0.50883 0.01172 0.49857 0.0
C167 C 0.51672 0.0251 0.4757 0.0
C168 C 0.66609 0.25342 0.47473 0.0
C169 C 0.63274 0.23154 0.46161 0.0
O170 O 0.39907 0.83111 0.54692 0.0
O171 O 0.4374 0.94271 0.35177 0.0
O172 O 0.63516 0.20883 0.44711 0.0
O173 O 0.56897 0.10572 0.62097 0.0
H174 H 0.43008 0.8116 0.54629 0.0
H175 H 0.4362 0.84637 0.5842 0.0
H176 H 0.39576 0.81439 0.59234 0.0
H177 H 0.43026 0.80708 0.59065 0.0
H178 H 0.46601 0.86337 0.54282 0.0
H179 H 0.37723 0.86981 0.53595 0.0
H180 H 0.52289 0.94288 0.54601 0.0
H181 H 0.51819 0.90591 0.53237 0.0
H182 H 0.51955 0.93797 0.51448 0.0
H183 H 0.37863 0.91911 0.52662 0.0
H184 H 0.41607 0.95536 0.53721 0.0
H185 H 0.41111 0.94367 0.50655 0.0
H186 H 0.59202 0.08888 0.64323 0.0
H187 H 0.64965 0.14674 0.63202 0.0
H188 H 0.63545 0.10695 0.61946 0.0
H189 H 0.62606 0.13471 0.60459 0.0
H190 H 0.52025 0.0986 0.59473 0.0
H191 H 0.58585 0.06066 0.6076 0.0
H192 H 0.49522 0.07265 0.53985 0.0
H193 H 0.46635 0.0344 0.5526 0.0
H194 H 0.47531 0.07269 0.56682 0.0
H195 H 0.59027 0.02448 0.58106 0.0
H196 H 0.5484 0.99226 0.57418 0.0
H197 H 0.57272 0.0197 0.55161 0.0
H198 H 0.61628 0.21836 0.47624 0.0
H199 H 0.5693 0.18025 0.44511 0.0
H200 H 0.65229 0.16442 0.44435 0.0
H201 H 0.51001 0.10294 0.46414 0.0
H202 H 0.5141 0.13738 0.44783 0.0
H203 H 0.50692 0.10037 0.43255 0.0
H204 H 0.64563 0.11119 0.44238 0.0
H205 H 0.61363 0.08516 0.4623 0.0
H206 H 0.60592 0.07863 0.43106 0.0
H207 H 0.42595 0.89897 0.36609 0.0
H208 H 0.37634 0.86618 0.34066 0.0
H209 H 0.37471 0.89839 0.35711 0.0
H210 H 0.38335 0.90297 0.32606 0.0
H211 H 0.42601 0.9843 0.37361 0.0
H212 H 0.48979 0.94308 0.37134 0.0
H213 H 0.45054 0.02027 0.43202 0.0
H214 H 0.47132 0.04943 0.40944 0.0
H215 H 0.42819 0.01869 0.40519 0.0
H216 H 0.53703 0.96195 0.39678 0.0
H217 H 0.55206 0.00123 0.41178 0.0
H218 H 0.5245 0.96418 0.42638 0.0
H219 H 0.48636 0.97544 0.56133 0.0
H220 H 0.55874 0.08231 0.53096 0.0
H221 H 0.57209 0.10481 0.49251 0.0
H222 H 0.53651 0.0625 0.41313 0.0
H223 H 0.46648 0.95459 0.44334 0.0
H224 H 0.4547 0.93169 0.4819 0.0
H225 H 0.66383 0.27078 0.48704 0.0
H226 H 0.67309 0.23798 0.48529 0.0
H227 H 0.68659 0.26784 0.46262 0.0
C228 C 0.61829 0.41268 0.75445 0.0
C229 C 0.6229 0.40637 0.72828 0.0
C230 C 0.58399 0.42135 0.70994 0.0
C231 C 0.60468 0.4556 0.71246 0.0
C232 C 0.59254 0.47683 0.70729 0.0
C233 C 0.55904 0.4636 0.69962 0.0
C234 C 0.53842 0.42922 0.69645 0.0
C235 C 0.55135 0.4086 0.70143 0.0
C236 C 0.61529 0.5134 0.7105 0.0
C237 C 0.50247 0.4142 0.68844 0.0
C238 C 0.43139 0.54171 0.82607 0.0
C239 C 0.43585 0.52653 0.80417 0.0
C240 C 0.47989 0.53026 0.77914 0.0
C241 C 0.4584 0.50654 0.76228 0.0
C242 C 0.47074 0.50049 0.74151 0.0
C243 C 0.50515 0.51936 0.73707 0.0
C244 C 0.52683 0.54334 0.75397 0.0
C245 C 0.51392 0.54817 0.77493 0.0
C246 C 0.44688 0.47374 0.72442 0.0
C247 C 0.56362 0.56392 0.74988 0.0
C248 C 0.42693 0.5873 0.61859 0.0
C249 C 0.41284 0.55348 0.62186 0.0
C250 C 0.43293 0.53913 0.6237 0.0
C251 C 0.46783 0.55903 0.62206 0.0
C252 C 0.48202 0.59291 0.6179 0.0
C253 C 0.46127 0.60656 0.61603 0.0
C254 C 0.41687 0.50268 0.62744 0.0
C255 C 0.51908 0.61468 0.61572 0.0
C256 C 0.48356 0.40791 0.50818 0.0
C257 C 0.52103 0.42974 0.51461 0.0
C258 C 0.52629 0.47372 0.54158 0.0
C259 C 0.50483 0.45361 0.55893 0.0
C260 C 0.50065 0.46719 0.57991 0.0
C261 C 0.51996 0.50153 0.58435 0.0
C262 C 0.54235 0.52178 0.56718 0.0
C263 C 0.54467 0.50761 0.54581 0.0
C264 C 0.47507 0.44461 0.59701 0.0
C265 C 0.56367 0.55839 0.57125 0.0
C266 C 0.54491 0.48548 0.6965 0.0
C267 C 0.53406 0.49448 0.71664 0.0
C268 C 0.51845 0.51322 0.71508 0.0
C269 C 0.51342 0.52335 0.69276 0.0
C270 C 0.4979 0.54232 0.69048 0.0
C271 C 0.49062 0.54984 0.66832 0.0
C272 C 0.49886 0.53893 0.64761 0.0
C273 C 0.48935 0.54428 0.62503 0.0
C274 C 0.49768 0.53288 0.60482 0.0
C275 C 0.51552 0.51623 0.60644 0.0
C276 C 0.52561 0.51099 0.62889 0.0
C277 C 0.54404 0.49483 0.63126 0.0
C278 C 0.55103 0.48701 0.65343 0.0
C279 C 0.54017 0.49539 0.67404 0.0
C280 C 0.5237 0.51379 0.67214 0.0
C281 C 0.51644 0.52162 0.64954 0.0
C282 C 0.38555 0.62169 0.64641 0.0
C283 C 0.37923 0.59407 0.62868 0.0
O284 O 0.59398 0.39968 0.71606 0.0
O285 O 0.52926 0.46172 0.52033 0.0
O286 O 0.40828 0.60209 0.61701 0.0
O287 O 0.46879 0.53669 0.79951 0.0
H288 H 0.64453 0.42822 0.72096 0.0
H289 H 0.61042 0.43132 0.75603 0.0
H290 H 0.59875 0.38968 0.76225 0.0
H291 H 0.64144 0.4222 0.7653 0.0
H292 H 0.63012 0.46607 0.71883 0.0
H293 H 0.53565 0.38221 0.69939 0.0
H294 H 0.60697 0.52253 0.72562 0.0
H295 H 0.64156 0.52005 0.71396 0.0
H296 H 0.614 0.52615 0.69452 0.0
H297 H 0.4893 0.38694 0.68806 0.0
H298 H 0.48929 0.42254 0.7004 0.0
H299 H 0.50104 0.42251 0.67045 0.0
H300 H 0.41963 0.49931 0.80284 0.0
H301 H 0.41757 0.52079 0.8383 0.0
H302 H 0.45565 0.55281 0.83643 0.0
H303 H 0.41174 0.56898 0.81363 0.0
H304 H 0.432 0.49234 0.76527 0.0
H305 H 0.53031 0.5664 0.78802 0.0
H306 H 0.44253 0.485 0.70869 0.0
H307 H 0.45745 0.45841 0.71831 0.0
H308 H 0.42246 0.45754 0.7324 0.0
H309 H 0.57637 0.58423 0.76324 0.0
H310 H 0.5751 0.54816 0.75073 0.0
H311 H 0.56789 0.57447 0.73201 0.0
H312 H 0.37284 0.57321 0.64026 0.0
H313 H 0.38623 0.53808 0.62259 0.0
H314 H 0.47185 0.63255 0.61301 0.0
H315 H 0.42498 0.49837 0.6449 0.0
H316 H 0.38928 0.49028 0.62678 0.0
H317 H 0.42497 0.49121 0.61376 0.0
H318 H 0.52631 0.64069 0.61288 0.0
H319 H 0.53202 0.6134 0.63198 0.0
H320 H 0.52779 0.60577 0.6007 0.0
H321 H 0.5253 0.41812 0.53022 0.0
H322 H 0.4792 0.38812 0.49519 0.0
H323 H 0.46932 0.3954 0.52396 0.0
H324 H 0.47265 0.42237 0.50107 0.0
H325 H 0.49057 0.42737 0.55612 0.0
H326 H 0.56121 0.52298 0.53234 0.0
H327 H 0.48769 0.43904 0.6115 0.0
H328 H 0.4616 0.45619 0.60495 0.0
H329 H 0.45653 0.42096 0.58831 0.0
H330 H 0.58373 0.56969 0.55821 0.0
H331 H 0.5479 0.56988 0.5697 0.0
H332 H 0.57512 0.56406 0.58932 0.0
H333 H 0.53707 0.48606 0.73375 0.0
H334 H 0.49062 0.551 0.70581 0.0
H335 H 0.47799 0.56391 0.66763 0.0
H336 H 0.48914 0.536 0.58763 0.0
H337 H 0.55263 0.48744 0.61596 0.0
H338 H 0.56458 0.47384 0.6542 0.0
H339 H 0.39305 0.64527 0.63778 0.0
H340 H 0.36269 0.61478 0.65645 0.0
H341 H 0.40568 0.62566 0.65921 0.0
C342 C 0.20901 0.59518 0.91844 0.0
C343 C 0.21514 0.593 0.89191 0.0
C344 C 0.15941 0.55023 0.87769 0.0
C345 C 0.14467 0.57008 0.87822 0.0
C346 C 0.1109 0.55697 0.8722 0.0
C347 C 0.09142 0.52335 0.86571 0.0
C348 C 0.10614 0.50334 0.865 0.0
C349 C 0.14005 0.51716 0.87089 0.0
C350 C 0.0959 0.57897 0.87303 0.0
C351 C 0.08595 0.46733 0.85828 0.0
C352 C 0.86938 0.45723 0.94789 0.0
C353 C 0.89582 0.45516 0.96336 0.0
C354 C 0.93319 0.45274 0.93387 0.0
C355 C 0.94141 0.43142 0.92233 0.0
C356 C 0.96365 0.442 0.90371 0.0
C357 C 0.97821 0.4749 0.89659 0.0
C358 C 0.97076 0.49694 0.90855 0.0
C359 C 0.94824 0.48565 0.92705 0.0
C360 C 0.97101 0.41785 0.89126 0.0
C361 C 0.98615 0.53226 0.90145 0.0
C362 C 0.84259 0.43764 0.78116 0.0
C363 C 0.85462 0.4156 0.78086 0.0
C364 C 0.88877 0.42701 0.77939 0.0
C365 C 0.91124 0.46117 0.77853 0.0
C366 C 0.89891 0.48318 0.77697 0.0
C367 C 0.86456 0.47098 0.77802 0.0
C368 C 0.90096 0.40272 0.78007 0.0
C369 C 0.92212 0.51968 0.77551 0.0
C370 C 0.06355 0.50059 0.65566 0.0
C371 C 0.09351 0.52394 0.67178 0.0
C372 C 0.0654 0.529 0.707 0.0
C373 C 0.05311 0.49697 0.71515 0.0
C374 C 0.03242 0.48608 0.73472 0.0
C375 C 0.02418 0.50769 0.74648 0.0
C376 C 0.03674 0.53997 0.73844 0.0
C377 C 0.05722 0.55016 0.71881 0.0
C378 C 0.01949 0.45153 0.74296 0.0
C379 C 0.0286 0.56372 0.75064 0.0
C380 C 0.05541 0.50898 0.86038 0.0
C381 C 0.03391 0.49861 0.87936 0.0
C382 C -0.00023 0.48572 0.87577 0.0
C383 C 0.98654 0.48301 0.85268 0.0
C384 C 0.95236 0.47064 0.84857 0.0
C385 C 0.93952 0.46799 0.82583 0.0
C386 C 0.96028 0.4772 0.80622 0.0
C387 C 0.94728 0.47408 0.78298 0.0
C388 C 0.96856 0.48375 0.76389 0.0
C389 C 0.00282 0.49679 0.76742 0.0
C390 C 0.01629 0.50003 0.79055 0.0
C391 C 0.05064 0.51324 0.79476 0.0
C392 C 0.06357 0.5163 0.81761 0.0
C393 C 0.04264 0.50617 0.8371 0.0
C394 C 0.00802 0.49304 0.83326 0.0
C395 C 0.99485 0.49002 0.80998 0.0
C396 C 0.7632 0.4109 0.80916 0.0
C397 C 0.78921 0.40313 0.79944 0.0
O398 O 0.19185 0.56162 0.88391 0.0
O399 O 0.08516 0.54077 0.68801 0.0
O400 O 0.81012 0.42773 0.78461 0.0
O401 O 0.91057 0.44023 0.95122 0.0
H402 H 0.21225 0.6116 0.88193 0.0
H403 H 0.18231 0.58639 0.92136 0.0
H404 H 0.21606 0.57954 0.9287 0.0
H405 H 0.22289 0.62058 0.9258 0.0
H406 H 0.15906 0.59569 0.88357 0.0
H407 H 0.1516 0.50205 0.87051 0.0
H408 H 0.07701 0.57066 0.88694 0.0
H409 H 0.11485 0.60507 0.87684 0.0
H410 H 0.08305 0.57726 0.85592 0.0
H411 H 0.10095 0.45493 0.85912 0.0
H412 H 0.0647 0.45489 0.87026 0.0
H413 H 0.0755 0.46435 0.84005 0.0
H414 H 0.91438 0.48109 0.96775 0.0
H415 H 0.85599 0.46669 0.95863 0.0
H416 H 0.88144 0.47452 0.93337 0.0
H417 H 0.85097 0.4333 0.93967 0.0
H418 H 0.92979 0.40615 0.92775 0.0
H419 H 0.94249 0.50269 0.93583 0.0
H420 H 0.99826 0.42749 0.89149 0.0
H421 H 0.95861 0.39342 0.8995 0.0
H422 H 0.96248 0.41477 0.87249 0.0
H423 H 0.97871 0.54666 0.91301 0.0
H424 H 0.01368 0.54402 0.90216 0.0
H425 H 0.97853 0.53328 0.88294 0.0
H426 H 0.80396 0.40472 0.8154 0.0
H427 H 0.83757 0.38958 0.78198 0.0
H428 H 0.85484 0.48766 0.77764 0.0
H429 H 0.91179 0.40371 0.79789 0.0
H430 H 0.88055 0.37719 0.77631 0.0
H431 H 0.9208 0.40909 0.76707 0.0
H432 H 0.90853 0.53346 0.7741 0.0
H433 H 0.93883 0.52884 0.79144 0.0
H434 H 0.93799 0.52489 0.7599 0.0
H435 H 0.1001 0.50747 0.68114 0.0
H436 H 0.07182 0.49039 0.64115 0.0
H437 H 0.04499 0.4796 0.6658 0.0
H438 H 0.05057 0.51267 0.64784 0.0
H439 H 0.05951 0.48034 0.70648 0.0
H440 H 0.06691 0.57483 0.71247 0.0
H441 H 0.02886 0.45229 0.76126 0.0
H442 H 0.99191 0.43846 0.74333 0.0
H443 H 0.02718 0.43731 0.73145 0.0
H444 H 0.04101 0.58825 0.74254 0.0
H445 H 0.0013 0.55375 0.7498 0.0
H446 H 0.03636 0.56667 0.76958 0.0
H447 H 0.0439 0.50076 0.89717 0.0
H448 H 0.93508 0.46295 0.86289 0.0
H449 H 0.91302 0.45852 0.8239 0.0
H450 H 0.95839 0.48141 0.74612 0.0
H451 H 0.06792 0.52135 0.78045 0.0
H452 H 0.09019 0.52663 0.8198 0.0
H453 H 0.74777 0.39232 0.82222 0.0
H454 H 0.77585 0.43539 0.81827 0.0
H455 H 0.74642 0.41111 0.79512 0.0
C456 C 0.42422 0.82714 0.88309 0.0
C457 C 0.42758 0.82044 0.90928 0.0
C458 C 0.46911 0.87536 0.9251 0.0
C459 C 0.44731 0.88787 0.92699 0.0
C460 C 0.45885 0.92012 0.93523 0.0
C461 C 0.49301 0.94061 0.94114 0.0
C462 C 0.51504 0.92819 0.93918 0.0
C463 C 0.50266 0.89556 0.93143 0.0
C464 C 0.43456 0.93248 0.93718 0.0
C465 C 0.55174 0.94953 0.94485 0.0
C466 C 0.49772 0.08995 0.8139 0.0
C467 C 0.52391 0.09392 0.83253 0.0
C468 C 0.51687 0.08248 0.87464 0.0
C469 C 0.54545 0.08043 0.87955 0.0
C470 C 0.54751 0.06428 0.8996 0.0
C471 C 0.5205 0.05021 0.91506 0.0
C472 C 0.49227 0.05358 0.91066 0.0
C473 C 0.49105 0.07008 0.8906 0.0
C474 C 0.57832 0.06191 0.90415 0.0
C475 C 0.46299 0.03896 0.92677 0.0
C476 C 0.58249 0.18013 0.04013 0.0
C477 C 0.605 0.16853 0.03928 0.0
C478 C 0.59362 0.13481 0.03705 0.0
C479 C 0.55902 0.11233 0.03599 0.0
C480 C 0.53632 0.12386 0.03859 0.0
C481 C 0.54844 0.15775 0.04078 0.0
C482 C 0.6185 0.12324 0.035 0.0
C483 C 0.49928 0.10048 0.03801 0.0
C484 C 0.46055 0.8767 0.09947 0.0
C485 C 0.46193 0.90115 0.11856 0.0
C486 C 0.49978 0.9529 0.09924 0.0
C487 C 0.53332 0.97335 0.09431 0.0
C488 C 0.54305 0.99627 0.07626 0.0
C489 C 0.51854 0.99936 0.06326 0.0
C490 C 0.48466 0.97995 0.06895 0.0
C491 C 0.47557 0.95664 0.08663 0.0
C492 C 0.5794 0.01667 0.07074 0.0
C493 C 0.45791 0.98353 0.05615 0.0
C494 C 0.50585 0.97553 0.94797 0.0
C495 C 0.51015 0.99713 0.92995 0.0
C496 C 0.52061 0.03007 0.93492 0.0
C497 C 0.52825 0.04232 0.95848 0.0
C498 C 0.54007 0.0756 0.96399 0.0
C499 C 0.54657 0.08722 0.9873 0.0
C500 C 0.54109 0.0659 0.00603 0.0
C501 C 0.54663 0.0773 0.02983 0.0
C502 C 0.53984 0.0553 0.04806 0.0
C503 C 0.52796 0.02197 0.04316 0.0
C504 C 0.52334 0.01031 0.01942 0.0
C505 C 0.51228 0.97713 0.01381 0.0
C506 C 0.50668 0.96567 0.99044 0.0
C507 C 0.51207 0.98698 0.97177 0.0
C508 C 0.52354 0.02058 0.977 0.0
C509 C 0.52952 0.0323 0.00083 0.0
C510 C 0.60949 0.26203 0.01936 0.0
C511 C 0.61822 0.23606 0.0271 0.0
O512 O 0.45918 0.84432 0.91704 0.0
O513 O 0.49204 0.92996 0.11608 0.0
O514 O 0.59275 0.21264 0.04029 0.0
O515 O 0.51341 0.09642 0.85482 0.0
H516 H 0.40838 0.82177 0.91988 0.0
H517 H 0.43104 0.85318 0.88103 0.0
H518 H 0.44124 0.82247 0.87226 0.0
H519 H 0.3986 0.8121 0.87574 0.0
H520 H 0.42135 0.87295 0.92187 0.0
H521 H 0.51931 0.88577 0.92989 0.0
H522 H 0.43893 0.94991 0.92284 0.0
H523 H 0.40831 0.91224 0.93565 0.0
H524 H 0.43835 0.94588 0.9543 0.0
H525 H 0.5659 0.93686 0.94077 0.0
H526 H 0.56207 0.97242 0.93467 0.0
H527 H 0.55554 0.9567 0.96389 0.0
H528 H 0.5231 0.07013 0.83103 0.0
H529 H 0.5057 0.08736 0.79599 0.0
H530 H 0.47368 0.06745 0.81725 0.0
H531 H 0.49331 0.11102 0.8141 0.0
H532 H 0.56623 0.09166 0.86793 0.0
H533 H 0.46937 0.0724 0.88682 0.0
H534 H 0.57196 0.03587 0.90235 0.0
H535 H 0.59832 0.07664 0.89168 0.0
H536 H 0.58789 0.07043 0.92251 0.0
H537 H 0.44242 0.04269 0.92035 0.0
H538 H 0.45336 0.01222 0.9283 0.0
H539 H 0.47104 0.05031 0.94473 0.0
H540 H 0.61839 0.22434 0.0101 0.0
H541 H 0.6314 0.18569 0.04036 0.0
H542 H 0.5313 0.16699 0.04205 0.0
H543 H 0.61603 0.11196 0.01718 0.0
H544 H 0.64453 0.14358 0.03778 0.0
H545 H 0.6133 0.10408 0.04814 0.0
H546 H 0.48502 0.11313 0.04181 0.0
H547 H 0.49134 0.08821 0.0203 0.0
H548 H 0.49296 0.08107 0.05114 0.0
H549 H 0.44091 0.90569 0.11598 0.0
H550 H 0.43646 0.85349 0.09836 0.0
H551 H 0.46432 0.8877 0.08177 0.0
H552 H 0.48059 0.87082 0.10293 0.0
H553 H 0.55188 0.97059 0.10424 0.0
H554 H 0.44954 0.94176 0.09042 0.0
H555 H 0.58308 0.01337 0.05179 0.0
H556 H 0.58784 0.04305 0.07397 0.0
H557 H 0.59523 0.01012 0.08164 0.0
H558 H 0.43364 0.97041 0.06499 0.0
H559 H 0.46534 0.00985 0.05499 0.0
H560 H 0.45452 0.97336 0.03786 0.0
H561 H 0.50433 0.98793 0.9118 0.0
H562 H 0.54441 0.09303 0.95031 0.0
H563 H 0.55556 0.1131 0.99043 0.0
H564 H 0.54334 0.06412 0.06627 0.0
H565 H 0.5077 0.95958 0.02744 0.0
H566 H 0.49786 0.93984 0.9872 0.0
H567 H 0.60641 0.27535 0.03451 0.0
H568 H 0.62933 0.28025 0.00812 0.0
H569 H 0.58579 0.25008 0.0088 0.0
C570 C 0.6026 0.40486 0.05974 0.0
C571 C 0.6105 0.40722 0.08652 0.0
C572 C 0.60293 0.45341 0.09932 0.0
C573 C 0.56795 0.43599 0.09866 0.0
C574 C 0.55001 0.45172 0.10442 0.0
C575 C 0.56735 0.48557 0.11061 0.0
C576 C 0.60251 0.50317 0.11122 0.0
C577 C 0.61981 0.48672 0.10573 0.0
C578 C 0.51248 0.43226 0.10367 0.0
C579 C 0.62178 0.53941 0.11743 0.0
C580 C 0.44789 0.59959 0.04057 0.0
C581 C 0.4771 0.60549 0.02461 0.0
C582 C 0.48918 0.56479 0.04056 0.0
C583 C 0.51993 0.58516 0.05211 0.0
C584 C 0.53053 0.57381 0.07124 0.0
C585 C 0.50993 0.54143 0.07889 0.0
C586 C 0.47959 0.5204 0.06663 0.0
C587 C 0.46972 0.53235 0.04744 0.0
C588 C 0.56348 0.59654 0.08354 0.0
C589 C 0.45728 0.48562 0.07419 0.0
C590 C 0.43598 0.60254 0.2002 0.0
C591 C 0.47057 0.62111 0.19809 0.0
C592 C 0.48976 0.6057 0.19689 0.0
C593 C 0.47388 0.57106 0.1977 0.0
C594 C 0.4392 0.55249 0.20108 0.0
C595 C 0.42075 0.56861 0.20256 0.0
C596 C 0.52685 0.62633 0.19411 0.0
C597 C 0.4215 0.51556 0.20228 0.0
C598 C 0.56865 0.43256 0.2713 0.0
C599 C 0.55944 0.45029 0.29023 0.0
C600 C 0.55588 0.49231 0.2668 0.0
C601 C 0.57374 0.52521 0.26056 0.0
C602 C 0.56256 0.53716 0.24211 0.0
C603 C 0.5324 0.51564 0.22983 0.0
C604 C 0.51337 0.48265 0.23672 0.0
C605 C 0.5254 0.47122 0.25498 0.0
C606 C 0.58337 0.57253 0.23531 0.0
C607 C 0.48065 0.45925 0.22439 0.0
C608 C 0.54867 0.50275 0.11573 0.0
C609 C 0.5377 0.51352 0.09658 0.0
C610 C 0.51992 0.52986 0.1 0.0
C611 C 0.51268 0.53564 0.12314 0.0
C612 C 0.49444 0.55164 0.12717 0.0
C613 C 0.48778 0.55753 0.15001 0.0
C614 C 0.49926 0.54782 0.16974 0.0
C615 C 0.49296 0.55407 0.19305 0.0
C616 C 0.50425 0.54361 0.21225 0.0
C617 C 0.52183 0.52697 0.20881 0.0
C618 C 0.52868 0.52082 0.18563 0.0
C619 C 0.54653 0.50439 0.18153 0.0
C620 C 0.55288 0.49818 0.15868 0.0
C621 C 0.542 0.50853 0.13903 0.0
C622 C 0.52399 0.52514 0.14273 0.0
C623 C 0.51733 0.53129 0.16605 0.0
C624 C 0.3883 0.63526 0.17489 0.0
C625 C 0.42114 0.64317 0.18732 0.0
O626 O 0.6215 0.43944 0.09366 0.0
O627 O 0.56918 0.4822 0.28408 0.0
O628 O 0.41651 0.61644 0.20018 0.0
O629 O 0.47723 0.57606 0.02323 0.0
H630 H 0.58802 0.39001 0.0962 0.0
H631 H 0.58726 0.41633 0.05575 0.0
H632 H 0.62595 0.41805 0.0498 0.0
H633 H 0.58813 0.37924 0.0529 0.0
H634 H 0.55437 0.41027 0.09348 0.0
H635 H 0.64677 0.49993 0.10615 0.0
H636 H 0.50284 0.44123 0.08925 0.0
H637 H 0.50272 0.40558 0.1006 0.0
H638 H 0.5027 0.43592 0.12051 0.0
H639 H 0.64903 0.5499 0.1158 0.0
H640 H 0.61354 0.55285 0.10573 0.0
H641 H 0.61671 0.54357 0.13587 0.0
H642 H 0.5006 0.62526 0.03289 0.0
H643 H 0.42416 0.58959 0.03023 0.0
H644 H 0.44416 0.58176 0.05448 0.0
H645 H 0.45279 0.62224 0.05026 0.0
H646 H 0.53576 0.60989 0.04621 0.0
H647 H 0.4461 0.51677 0.03835 0.0
H648 H 0.57906 0.58475 0.08413 0.0
H649 H 0.5774 0.62041 0.07466 0.0
H650 H 0.55924 0.6013 0.10206 0.0
H651 H 0.43429 0.47248 0.06294 0.0
H652 H 0.47092 0.47187 0.07335 0.0
H653 H 0.45019 0.48572 0.09281 0.0
H654 H 0.43736 0.64594 0.17245 0.0
H655 H 0.48257 0.64754 0.19746 0.0
H656 H 0.39407 0.55463 0.20469 0.0
H657 H 0.53332 0.62222 0.17608 0.0
H658 H 0.53591 0.65295 0.19677 0.0
H659 H 0.54008 0.6189 0.20691 0.0
H660 H 0.39434 0.50469 0.20471 0.0
H661 H 0.42543 0.50502 0.18579 0.0
H662 H 0.43209 0.50834 0.21718 0.0
H663 H 0.532 0.43563 0.29061 0.0
H664 H 0.5626 0.4079 0.27743 0.0
H665 H 0.55399 0.42899 0.25473 0.0
H666 H 0.59524 0.44627 0.26686 0.0
H667 H 0.59705 0.5414 0.26987 0.0
H668 H 0.51082 0.44578 0.25965 0.0
H669 H 0.59029 0.57372 0.21652 0.0
H670 H 0.56864 0.58509 0.23705 0.0
H671 H 0.60645 0.58603 0.24643 0.0
H672 H 0.46689 0.43566 0.23364 0.0
H673 H 0.46471 0.47061 0.22313 0.0
H674 H 0.48527 0.45394 0.20612 0.0
H675 H 0.54321 0.50925 0.07877 0.0
H676 H 0.48508 0.55979 0.11271 0.0
H677 H 0.47355 0.56989 0.15196 0.0
H678 H 0.49906 0.54823 0.23007 0.0
H679 H 0.5558 0.49608 0.19595 0.0
H680 H 0.56658 0.4853 0.15661 0.0
H681 H 0.39218 0.65586 0.16352 0.0
H682 H 0.37916 0.61283 0.16347 0.0
H683 H 0.3687 0.63095 0.18761 0.0
Mn684 Mn 0.61208 0.38172 0.41467 0.0
Mn685 Mn 0.65059 0.4637 0.42369 0.0
C686 C 0.58906 0.40352 0.44005 0.0
C687 C 0.61035 0.33315 0.42422 0.0
C688 C 0.6092 0.42816 0.37927 0.0
O689 O 0.65766 0.39823 0.40105 0.0
O690 O 0.68375 0.45103 0.41362 0.0
C691 C 0.69264 0.4685 0.46512 0.0
N692 N 0.66917 0.47418 0.45512 0.0
C693 C 0.66358 0.49783 0.49152 0.0
C694 C 0.68789 0.49249 0.50214 0.0
C695 C 0.7024 0.47767 0.48889 0.0
C696 C 0.65472 0.48801 0.4678 0.0
H697 H 0.70366 0.45685 0.45507 0.0
C698 C 0.68372 0.42621 0.40399 0.0
O699 O 0.59867 0.33612 0.40397 0.0
O700 O 0.62201 0.35788 0.43905 0.0
N701 N 0.62222 0.47989 0.43391 0.0
C702 C 0.60011 0.48452 0.42079 0.0
C703 C 0.58388 0.49971 0.43128 0.0
C704 C 0.59086 0.5104 0.45505 0.0
C705 C 0.61445 0.50631 0.46799 0.0
C706 C 0.63022 0.49147 0.45647 0.0
H707 H 0.5948 0.47663 0.40246 0.0
O708 O 0.57134 0.37363 0.4318 0.0
O709 O 0.61982 0.4192 0.43362 0.0
O710 O 0.59877 0.39889 0.38599 0.0
O711 O 0.63027 0.45386 0.39123 0.0
C712 C 0.62309 0.51656 0.49182 0.0
C713 C 0.64753 0.51218 0.50361 0.0
H714 H 0.69546 0.49949 0.52048 0.0
H715 H 0.72102 0.47326 0.49701 0.0
H716 H 0.56593 0.50305 0.4211 0.0
H717 H 0.57805 0.52181 0.46315 0.0
H718 H 0.61104 0.52777 0.50126 0.0
H719 H 0.65379 0.51993 0.52198 0.0
Mn720 Mn 0.24158 0.63335 0.56752 0.0
Mn721 Mn 0.19676 0.55211 0.55485 0.0
C722 C 0.19938 0.61444 0.5392 0.0
C723 C 0.28968 0.6828 0.56174 0.0
C724 C 0.18824 0.58433 0.59916 0.0
O725 O 0.26857 0.61499 0.58218 0.0
O726 O 0.24135 0.56276 0.56804 0.0
C727 C 0.23673 0.54818 0.51609 0.0
N728 N 0.20711 0.54333 0.52403 0.0
C729 C 0.18066 0.52267 0.48583 0.0
C730 C 0.21083 0.52725 0.47729 0.0
C731 C 0.23899 0.54013 0.49248 0.0
C732 C 0.17991 0.53114 0.50952 0.0
H733 H 0.25851 0.55831 0.52765 0.0
C734 C 0.26583 0.58687 0.57919 0.0
O735 O 0.27343 0.67766 0.58113 0.0
O736 O 0.27795 0.65952 0.5457 0.0
N737 N 0.15341 0.53842 0.54164 0.0
C738 C 0.12616 0.53545 0.55262 0.0
C739 C 0.096 0.5233 0.53977 0.0
C740 C 0.09402 0.51392 0.51587 0.0
C741 C 0.12211 0.51632 0.50513 0.0
C742 C 0.15142 0.52835 0.51889 0.0
H743 H 0.12746 0.54254 0.57099 0.0
O744 O 0.21117 0.6435 0.54884 0.0
O745 O 0.21314 0.59771 0.54626 0.0
O746 O 0.20827 0.61405 0.59399 0.0
O747 O 0.18385 0.55951 0.58664 0.0
C748 C 0.12221 0.50736 0.4813 0.0
C749 C 0.15146 0.51054 0.47165 0.0
H750 H 0.21271 0.5212 0.45907 0.0
H751 H 0.26241 0.54393 0.48598 0.0
H752 H 0.07437 0.52132 0.54824 0.0
H753 H 0.0708 0.50485 0.50596 0.0
H754 H 0.09998 0.4982 0.47019 0.0
H755 H 0.15132 0.50388 0.45324 0.0
Mn756 Mn 0.62988 0.23966 0.74486 0.0
Mn757 Mn 0.67662 0.20364 0.74249 0.0
C758 C 0.61614 0.19815 0.71714 0.0
C759 C 0.62554 0.2853 0.73579 0.0
C760 C 0.62775 0.19269 0.78142 0.0
O761 O 0.67133 0.26929 0.76432 0.0
O762 O 0.70512 0.24988 0.75428 0.0
C763 C 0.72369 0.2421 0.70544 0.0
N764 N 0.69971 0.21272 0.71348 0.0
C765 C 0.70396 0.18397 0.67945 0.0
C766 C 0.72864 0.21392 0.67078 0.0
C767 C 0.73843 0.24313 0.68379 0.0
C768 C 0.68976 0.18453 0.70094 0.0
H769 H 0.73159 0.26457 0.71551 0.0
C770 C 0.69979 0.27173 0.76359 0.0
O771 O 0.61095 0.26789 0.75399 0.0
O772 O 0.64133 0.27546 0.72231 0.0
N773 N 0.65224 0.15909 0.73087 0.0
C774 C 0.62818 0.13216 0.74166 0.0
C775 C 0.61561 0.10098 0.73088 0.0
C776 C 0.62822 0.0977 0.70929 0.0
C777 C 0.65335 0.12565 0.69869 0.0
C778 C 0.66485 0.15611 0.71023 0.0
H779 H 0.61843 0.13439 0.75828 0.0
O780 O 0.59475 0.20727 0.72234 0.0
O781 O 0.64506 0.21449 0.72779 0.0
O782 O 0.61368 0.20671 0.7712 0.0
O783 O 0.65274 0.19204 0.77282 0.0
C784 C 0.66762 0.12444 0.67722 0.0
C785 C 0.69299 0.15357 0.66765 0.0
H786 H 0.74025 0.21478 0.65417 0.0
H787 H 0.75746 0.26636 0.67722 0.0
H788 H 0.59625 0.07952 0.73922 0.0
H789 H 0.61843 0.07361 0.70101 0.0
H790 H 0.6592 0.10125 0.66788 0.0
H791 H 0.7037 0.15234 0.65109 0.0
Mn792 Mn 0.41694 0.64324 0.9016 0.0
Mn793 Mn 0.37647 0.56503 0.91882 0.0
C794 C 0.44099 0.62662 0.93045 0.0
C795 C 0.42343 0.69531 0.90515 0.0
C796 C 0.40826 0.58627 0.87095 0.0
O797 O 0.36934 0.62557 0.89005 0.0
O798 O 0.34291 0.5776 0.90904 0.0
C799 C 0.34394 0.57126 0.96156 0.0
N800 N 0.365 0.56282 0.95126 0.0
C801 C 0.37655 0.5458 0.98836 0.0
C802 C 0.3549 0.5542 0.99936 0.0
C803 C 0.33864 0.56713 0.98591 0.0
C804 C 0.38116 0.55085 0.9641 0.0
H805 H 0.33139 0.58119 0.95127 0.0
C806 C 0.34305 0.60052 0.89697 0.0
O807 O 0.43066 0.68557 0.88571 0.0
O808 O 0.41355 0.67543 0.92257 0.0
N809 N 0.40649 0.55065 0.92904 0.0
C810 C 0.42694 0.54418 0.91584 0.0
C811 C 0.44529 0.53142 0.92671 0.0
C812 C 0.44212 0.52505 0.95094 0.0
C813 C 0.42049 0.53135 0.96406 0.0
C814 C 0.40288 0.54412 0.95229 0.0
H815 H 0.4293 0.54868 0.89716 0.0
O816 O 0.45927 0.65305 0.9188 0.0
O817 O 0.40977 0.61097 0.92432 0.0
O818 O 0.42351 0.61702 0.87544 0.0
O819 O 0.38851 0.56511 0.88532 0.0
C820 C 0.41569 0.5254 0.98835 0.0
C821 C 0.39378 0.53265 0.00051 0.0
H822 H 0.35065 0.55093 0.01812 0.0
H823 H 0.322 0.5738 0.99429 0.0
H824 H 0.4618 0.52647 0.91642 0.0
H825 H 0.45637 0.51527 0.95928 0.0
H826 H 0.42882 0.51532 0.99782 0.0
H827 H 0.39049 0.52815 0.01924 0.0
Mn828 Mn 0.77683 0.39489 0.08316 0.0
Mn829 Mn 0.81617 0.3521 0.09077 0.0
C830 C 0.81549 0.41009 0.11382 0.0
C831 C 0.72885 0.39728 0.08867 0.0
C832 C 0.82894 0.39899 0.05061 0.0
O833 O 0.75017 0.35301 0.06358 0.0
O834 O 0.77047 0.32171 0.07759 0.0
C835 C 0.77636 0.30575 0.12766 0.0
N836 N 0.80593 0.33077 0.12045 0.0
C837 C 0.83315 0.33158 0.15718 0.0
C838 C 0.80293 0.306 0.16505 0.0
C839 C 0.77439 0.29309 0.15024 0.0
C840 C 0.83347 0.34354 0.13464 0.0
H841 H 0.75445 0.29543 0.11625 0.0
C842 C 0.74857 0.32544 0.06617 0.0
O843 O 0.74792 0.41172 0.0711 0.0
O844 O 0.73796 0.38223 0.10337 0.0
N845 N 0.86016 0.37897 0.10403 0.0
C846 C 0.88773 0.40275 0.09355 0.0
C847 C 0.9183 0.41841 0.10613 0.0
C848 C 0.92046 0.40884 0.12914 0.0
C849 C 0.89208 0.38341 0.13923 0.0
C850 C 0.86221 0.36894 0.12592 0.0
H851 H 0.88657 0.40949 0.07564 0.0
O852 O 0.80606 0.43035 0.10664 0.0
O853 O 0.80155 0.38173 0.1029 0.0
O854 O 0.81303 0.41231 0.05881 0.0
O855 O 0.82907 0.37437 0.05987 0.0
C856 C 0.89238 0.37162 0.16189 0.0
C857 C 0.86299 0.34557 0.17077 0.0
H858 H 0.80137 0.29604 0.1824 0.0
H859 H 0.75099 0.27329 0.15616 0.0
H860 H 0.9402 0.43761 0.09802 0.0
H861 H 0.94409 0.4209 0.13877 0.0
H862 H 0.91511 0.38231 0.17258 0.0
H863 H 0.86358 0.33656 0.18815 0.0
Mn864 Mn 0.40212 0.79298 0.24296 0.0
Mn865 Mn 0.48468 0.83277 0.25522 0.0
C866 C 0.42397 0.83586 0.27003 0.0
C867 C 0.34929 0.74889 0.24886 0.0
C868 C 0.45432 0.84081 0.2096 0.0
O869 O 0.41733 0.76254 0.23003 0.0
O870 O 0.4709 0.78748 0.24307 0.0
C871 C 0.48728 0.79399 0.29502 0.0
N872 N 0.49305 0.82321 0.28644 0.0
C873 C 0.51627 0.85071 0.32393 0.0
C874 C 0.51034 0.82085 0.33319 0.0
C875 C 0.49579 0.79238 0.31866 0.0
C876 C 0.50727 0.85081 0.30022 0.0
H877 H 0.47635 0.77212 0.28389 0.0
C878 C 0.44507 0.76354 0.23291 0.0
O879 O 0.35677 0.76422 0.22907 0.0
O880 O 0.37248 0.75908 0.26521 0.0
N881 N 0.50087 0.87654 0.26744 0.0
C882 C 0.50333 0.90304 0.25625 0.0
C883 C 0.51718 0.93347 0.2684 0.0
C884 C 0.52811 0.9363 0.29202 0.0
C885 C 0.52517 0.90867 0.30325 0.0
C886 C 0.5116 0.87909 0.29013 0.0
H887 H 0.49384 0.90079 0.23845 0.0
O888 O 0.39501 0.82602 0.26006 0.0
O889 O 0.43901 0.81985 0.26395 0.0
O890 O 0.42417 0.82418 0.21592 0.0
O891 O 0.47877 0.84461 0.22263 0.0
C892 C 0.53469 0.90921 0.32707 0.0
C893 C 0.53029 0.88026 0.33739 0.0
H894 H 0.51676 0.81948 0.35144 0.0
H895 H 0.49119 0.76924 0.32566 0.0
H896 H 0.51889 0.95455 0.25969 0.0
H897 H 0.53831 0.95968 0.30144 0.0
H898 H 0.54511 0.93168 0.33768 0.0
H899 H 0.53739 0.8809 0.35578 0.0
C900 C 0.25499 0.69645 0.25085 0.0
C901 C 0.25119 0.66572 0.25786 0.0
C902 C 0.3118 0.69064 0.26056 0.0
C903 C 0.31559 0.72073 0.25266 0.0
N904 N 0.29066 0.75397 0.24394 0.0
N905 N 0.27669 0.64101 0.28111 0.0
C906 C 0.2872 0.72411 0.24898 0.0
C907 C 0.2798 0.66499 0.2663 0.0
N908 N 0.22857 0.70093 0.24677 0.0
N909 N 0.33838 0.68571 0.26141 0.0
H910 H 0.25413 0.62429 0.2884 0.0
H911 H 0.29709 0.64097 0.28903 0.0
H912 H 0.36196 0.70323 0.25614 0.0
H913 H 0.33609 0.66297 0.26482 0.0
H914 H 0.20377 0.68324 0.24902 0.0
H915 H 0.20377 0.68324 0.24902 0.0
H916 H 0.27033 0.7573 0.24079 0.0
H917 H 0.31362 0.77557 0.2438 0.0
C918 C 0.59503 0.2567 0.45637 0.0
C919 C 0.62149 0.25246 0.44775 0.0
C920 C 0.63302 0.29518 0.41852 0.0
C921 C 0.61128 0.30316 0.43035 0.0
N922 N 0.57251 0.29299 0.46123 0.0
N923 N 0.66597 0.26866 0.41964 0.0
C924 C 0.59256 0.28431 0.44943 0.0
C925 C 0.64016 0.27155 0.42825 0.0
N926 N 0.57119 0.23389 0.47038 0.0
N927 N 0.64745 0.31061 0.39814 0.0
H928 H 0.67154 0.2507 0.42438 0.0
H929 H 0.68367 0.28563 0.40854 0.0
H930 H 0.64496 0.32972 0.3913 0.0
H931 H 0.65992 0.30291 0.38693 0.0
H932 H 0.54982 0.23443 0.47489 0.0
H933 H 0.56972 0.21201 0.47518 0.0
H934 H 0.56227 0.28345 0.47746 0.0
H935 H 0.56768 0.31123 0.45557 0.0
C936 C 0.31856 0.55937 0.61356 0.0
C937 C 0.35079 0.58756 0.61108 0.0
C938 C 0.32652 0.60652 0.58045 0.0
C939 C 0.29426 0.58343 0.58768 0.0
N940 N 0.25916 0.5381 0.61217 0.0
N941 N 0.38451 0.63938 0.59122 0.0
C942 C 0.29008 0.5597 0.60436 0.0
C943 C 0.35465 0.61137 0.59403 0.0
N944 N 0.31482 0.53162 0.62374 0.0
N945 N 0.33026 0.62352 0.56029 0.0
H946 H 0.40673 0.64467 0.59962 0.0
H947 H 0.38687 0.65902 0.5815 0.0
H948 H 0.31008 0.61987 0.54963 0.0
H949 H 0.35324 0.63837 0.55277 0.0
H950 H 0.29205 0.50986 0.62409 0.0
H951 H 0.33453 0.5283 0.62869 0.0
H952 H 0.25534 0.52336 0.62667 0.0
H953 H 0.23743 0.53649 0.60532 0.0
C954 C 0.75412 0.36331 0.76508 0.0
C955 C 0.77214 0.36905 0.78705 0.0
C956 C 0.74556 0.30934 0.79204 0.0
C957 C 0.72827 0.30414 0.77029 0.0
N958 N 0.72384 0.32495 0.73272 0.0
N959 N 0.794 0.34602 0.81578 0.0
C960 C 0.73532 0.3308 0.75567 0.0
C961 C 0.77072 0.34167 0.79885 0.0
N962 N 0.75323 0.38821 0.75353 0.0
N963 N 0.7374 0.2836 0.80654 0.0
H964 H 0.81518 0.36842 0.81987 0.0
H965 H 0.79504 0.32653 0.82339 0.0
H966 H 0.71987 0.25943 0.80169 0.0
H967 H 0.74628 0.28661 0.82394 0.0
H968 H 0.73674 0.3841 0.73948 0.0
H969 H 0.76666 0.41283 0.75863 0.0
H970 H 0.73114 0.34336 0.72038 0.0
H971 H 0.70971 0.30133 0.72535 0.0
C972 C 0.3953 0.75814 0.90108 0.0
C973 C 0.42266 0.78583 0.91239 0.0
C974 C 0.44747 0.75207 0.92235 0.0
C975 C 0.42363 0.72667 0.90718 0.0
N976 N 0.37415 0.70468 0.88214 0.0
N977 N 0.46001 0.80003 0.94624 0.0
C978 C 0.3972 0.72936 0.89664 0.0
C979 C 0.44477 0.78041 0.92673 0.0
N980 N 0.36637 0.75831 0.89674 0.0
N981 N 0.47317 0.74953 0.9321 0.0
H982 H 0.45378 0.81724 0.95234 0.0
H983 H 0.47446 0.79577 0.95835 0.0
H984 H 0.47583 0.72897 0.92944 0.0
H985 H 0.49326 0.76891 0.94117 0.0
H986 H 0.34445 0.73783 0.89059 0.0
H987 H 0.36314 0.77777 0.90224 0.0
H988 H 0.35658 0.7069 0.87191 0.0
H989 H 0.37398 0.68271 0.87901 0.0
C990 C 0.6633 0.41696 0.10938 0.0
C991 C 0.63759 0.39847 0.09229 0.0
C992 C 0.66849 0.37258 0.07793 0.0
C993 C 0.69685 0.39628 0.09117 0.0
N994 N 0.72151 0.44015 0.12058 0.0
N995 N 0.6085 0.34475 0.0737 0.0
C996 C 0.69423 0.41792 0.10752 0.0
C997 C 0.63783 0.37184 0.0805 0.0
N998 N 0.65701 0.4309 0.12846 0.0
N999 N 0.671 0.3515 0.06239 0.0
H1000 H 0.58564 0.34229 0.07811 0.0
H1001 H 0.60686 0.32335 0.06673 0.0
H1002 H 0.69292 0.35089 0.06028 0.0
H1003 H 0.65196 0.33622 0.05046 0.0
H1004 H 0.67393 0.44264 0.14246 0.0
H1005 H 0.63313 0.42654 0.13183 0.0
H1006 H 0.72203 0.45907 0.13072 0.0
H1007 H 0.74438 0.44101 0.12007 0.0
C1008 C 0.3809 0.74857 0.56582 0.0
C1009 C 0.38018 0.77389 0.55298 0.0
C1010 C 0.32196 0.73614 0.54139 0.0
C1011 C 0.32105 0.71365 0.55816 0.0
N1012 N 0.34962 0.69751 0.58617 0.0
N1013 N 0.35687 0.78195 0.51705 0.0
C1014 C 0.35058 0.71944 0.57021 0.0
C1015 C 0.35266 0.76498 0.53725 0.0
N1016 N 0.41072 0.75114 0.57179 0.0
N1017 N 0.29335 0.73061 0.53004 0.0
H1018 H 0.38033 0.79974 0.51165 0.0
H1019 H 0.33832 0.77506 0.50402 0.0
H1020 H 0.27037 0.70959 0.53242 0.0
H1021 H 0.292 0.74806 0.51972 0.0
H1022 H 0.413 0.73227 0.57932 0.0
H1023 H 0.43323 0.7706 0.56633 0.0
H1024 H 0.36958 0.70238 0.59747 0.0
H1025 H 0.32818 0.67525 0.58923 0.0
C1026 C 0.61192 0.3514 0.70888 0.0
C1027 C 0.62952 0.37747 0.72575 0.0
C1028 C 0.65004 0.34509 0.74576 0.0
C1029 C 0.62734 0.31711 0.73187 0.0
N1030 N 0.58661 0.29309 0.69997 0.0
N1031 N 0.68039 0.40439 0.74913 0.0
C1032 C 0.60853 0.32017 0.71314 0.0
C1033 C 0.65333 0.37601 0.74088 0.0
N1034 N 0.60185 0.35747 0.68771 0.0
N1035 N 0.66771 0.34207 0.7641 0.0
H1036 H 0.68494 0.42742 0.74393 0.0
H1037 H 0.70011 0.40511 0.75866 0.0
H1038 H 0.66636 0.31997 0.76819 0.0
H1039 H 0.68175 0.36095 0.77637 0.0
H1040 H 0.59104 0.34005 0.674 0.0
H1041 H 0.60906 0.38125 0.68254 0.0
H1042 H 0.56944 0.29312 0.68792 0.0
H1043 H 0.58387 0.26992 0.70236 0.0
C1044 C 0.27803 0.62651 0.89983 0.0
C1045 C 0.25069 0.59966 0.88796 0.0
C1046 C 0.28686 0.57778 0.87684 0.0
C1047 C 0.31144 0.60039 0.89316 0.0
N1048 N 0.32936 0.64497 0.92191 0.0
N1049 N 0.23727 0.56422 0.85345 0.0
C1050 C 0.307 0.62477 0.90486 0.0
C1051 C 0.25723 0.57916 0.87295 0.0
N1052 N 0.27708 0.65448 0.90487 0.0
N1053 N 0.29168 0.55488 0.86528 0.0
H1054 H 0.21891 0.56949 0.84802 0.0
H1055 H 0.24193 0.55078 0.84086 0.0
H1056 H 0.31384 0.55445 0.8668 0.0
H1057 H 0.27312 0.53531 0.85532 0.0
H1058 H 0.29758 0.67594 0.9116 0.0
H1059 H 0.25716 0.65738 0.89941 0.0
H1060 H 0.32546 0.66098 0.93249 0.0
H1061 H 0.35008 0.64334 0.92717 0.0
C1062 C 0.68068 0.25487 0.02937 0.0
C1063 C 0.65201 0.25222 0.04059 0.0
C1064 C 0.68873 0.28813 0.07307 0.0
C1065 C 0.71662 0.2962 0.05913 0.0
N1066 N 0.74033 0.28741 0.02441 0.0
N1067 N 0.62969 0.26676 0.07448 0.0
C1068 C 0.71297 0.2794 0.0375 0.0
C1069 C 0.65622 0.26845 0.06306 0.0
N1070 N 0.6775 0.23332 0.01165 0.0
N1071 N 0.69342 0.29949 0.09599 0.0
H1072 H 0.60496 0.25147 0.06939 0.0
H1073 H 0.63223 0.28239 0.08858 0.0
H1074 H 0.71696 0.31455 0.10368 0.0
H1075 H 0.67436 0.29154 0.10803 0.0
H1076 H 0.6977 0.23273 0.00447 0.0
H1077 H 0.65509 0.21305 0.00608 0.0
H1078 H 0.73899 0.27975 0.00687 0.0
H1079 H 0.76449 0.30318 0.03084 0.0
C1080 C 0.41818 0.67448 0.22441 0.0
C1081 C 0.43425 0.67448 0.20298 0.0
C1082 C 0.46202 0.73483 0.20333 0.0
C1083 C 0.44643 0.73436 0.22461 0.0
N1084 N 0.41972 0.70541 0.25946 0.0
N1085 N 0.48178 0.70677 0.17826 0.0
C1086 C 0.42804 0.70471 0.23653 0.0
C1087 C 0.45948 0.70526 0.19437 0.0
N1088 N 0.39209 0.64639 0.23269 0.0
N1089 N 0.47829 0.76323 0.19114 0.0
H1090 H 0.48358 0.68666 0.17252 0.0
H1091 H 0.50185 0.72887 0.17306 0.0
H1092 H 0.48146 0.78558 0.19749 0.0
H1093 H 0.48645 0.764 0.17401 0.0
H1094 H 0.37743 0.64654 0.24637 0.0
H1095 H 0.38266 0.62311 0.22511 0.0
H1096 H 0.40948 0.68477 0.26994 0.0
H1097 H 0.42583 0.72721 0.26859 0.0
C1098 C 0.75013 0.40275 0.39492 0.0
C1099 C 0.77202 0.42787 0.37962 0.0
C1100 C 0.73854 0.45471 0.38313 0.0
C1101 C 0.71591 0.42903 0.39744 0.0
N1102 N 0.70727 0.38611 0.42406 0.0
N1103 N 0.79526 0.48524 0.37068 0.0
C1104 C 0.72384 0.40524 0.40549 0.0
C1105 C 0.76883 0.45623 0.37726 0.0
N1106 N 0.75409 0.37645 0.39941 0.0
N1107 N 0.73095 0.4771 0.37431 0.0
H1108 H 0.81905 0.48857 0.3692 0.0
H1109 H 0.79476 0.50714 0.37039 0.0
H1110 H 0.70934 0.47749 0.37821 0.0
H1111 H 0.74506 0.49377 0.36153 0.0
H1112 H 0.7359 0.35521 0.40713 0.0
H1113 H 0.77496 0.37511 0.39477 0.0
H1114 H 0.71379 0.37035 0.43219 0.0
H1115 H 0.68934 0.38871 0.43314 0.0
C1116 C 0.12364 0.59704 0.50136 0.0
C1117 C 0.13655 0.59918 0.47849 0.0
C1118 C 0.18647 0.60173 0.49581 0.0
C1119 C 0.1759 0.60463 0.51867 0.0
N1120 N 0.13488 0.60583 0.5435 0.0
N1121 N 0.1708 0.58592 0.45466 0.0
C1122 C 0.14444 0.60221 0.52151 0.0
C1123 C 0.16498 0.59579 0.47596 0.0
N1124 N 0.09093 0.58776 0.50386 0.0
N1125 N 0.21798 0.60721 0.49273 0.0
H1126 H 0.15385 0.57868 0.44044 0.0
H1127 H 0.18972 0.58052 0.45206 0.0
H1128 H 0.23496 0.61225 0.50662 0.0
H1129 H 0.22825 0.60924 0.47621 0.0
H1130 H 0.07946 0.58342 0.52008 0.0
H1131 H 0.07381 0.57923 0.48979 0.0
H1132 H 0.1147 0.60916 0.54657 0.0
H1133 H 0.14815 0.60681 0.55875 0.0
C1134 C 0.61409 0.16918 0.65419 0.0
C1135 C 0.59675 0.13456 0.65633 0.0
C1136 C 0.5849 0.14227 0.69746 0.0
C1137 C 0.60961 0.1759 0.69655 0.0
N1138 N 0.6484 0.2218 0.67369 0.0
N1139 N 0.55846 0.08798 0.67889 0.0
C1140 C 0.62457 0.18945 0.67485 0.0
C1141 C 0.57975 0.12101 0.67763 0.0
N1142 N 0.61832 0.18274 0.63248 0.0
N1143 N 0.56606 0.13084 0.7171 0.0
H1144 H 0.54945 0.07232 0.66405 0.0
H1145 H 0.54966 0.07596 0.69468 0.0
H1146 H 0.57025 0.14535 0.73229 0.0
H1147 H 0.54525 0.10756 0.71806 0.0
H1148 H 0.62856 0.20786 0.63013 0.0
H1149 H 0.60727 0.1686 0.61716 0.0
H1150 H 0.66263 0.23159 0.65879 0.0
H1151 H 0.65572 0.23832 0.68802 0.0
C1152 C 0.45642 0.58744 0.80235 0.0
C1153 C 0.42417 0.54523 0.79235 0.0
C1154 C 0.37785 0.53745 0.83383 0.0
C1155 C 0.41269 0.57467 0.84764 0.0
N1156 N 0.47647 0.6276 0.842 0.0
N1157 N 0.35702 0.49663 0.79348 0.0
C1158 C 0.45118 0.60005 0.83178 0.0
C1159 C 0.38181 0.52358 0.80456 0.0
N1160 N 0.48368 0.60554 0.78959 0.0
N1161 N 0.34852 0.52057 0.84473 0.0
H1162 H 0.36121 0.48877 0.77723 0.0
H1163 H 0.33354 0.48346 0.80066 0.0
H1164 H 0.34429 0.52772 0.86113 0.0
H1165 H 0.32878 0.49964 0.83678 0.0
H1166 H 0.50236 0.62864 0.79555 0.0
H1167 H 0.48603 0.59663 0.77318 0.0
H1168 H 0.49831 0.64186 0.83301 0.0
H1169 H 0.47594 0.63458 0.85942 0.0
C1170 C 0.85212 0.40545 0.98602 0.0
C1171 C 0.88142 0.43692 0.98627 0.0
C1172 C 0.87824 0.44148 0.02921 0.0
C1173 C 0.84719 0.41189 0.02856 0.0
N1174 N 0.80215 0.36766 0.00616 0.0
N1175 N 0.92998 0.47487 0.00962 0.0
C1176 C 0.83365 0.39415 0.00695 0.0
C1177 C 0.89681 0.45212 0.00834 0.0
N1178 N 0.84316 0.38542 0.96632 0.0
N1179 N 0.88949 0.46017 0.04956 0.0
H1180 H 0.94539 0.48033 0.9952 0.0
H1181 H 0.94318 0.48471 0.0255 0.0
H1182 H 0.87654 0.45323 0.0652 0.0
H1183 H 0.91002 0.4838 0.05038 0.0
H1184 H 0.82399 0.36108 0.96587 0.0
H1185 H 0.8573 0.39157 0.95121 0.0
H1186 H 0.78924 0.356 0.99052 0.0
H1187 H 0.78757 0.35921 0.02104 0.0
C1188 C 0.43247 0.85514 0.14815 0.0
C1189 C 0.45868 0.88726 0.14354 0.0
C1190 C 0.48558 0.88826 0.18149 0.0
C1191 C 0.46005 0.8555 0.18559 0.0
N1192 N 0.4163 0.80471 0.16821 0.0
N1193 N 0.49716 0.93871 0.16338 0.0
C1194 C 0.43546 0.83812 0.16758 0.0
C1195 C 0.48181 0.90525 0.16226 0.0
N1196 N 0.40332 0.84191 0.13525 0.0
N1197 N 0.51434 0.90299 0.19484 0.0
H1198 H 0.49012 0.95183 0.15232 0.0
H1199 H 0.51222 0.95273 0.1777 0.0
H1200 H 0.52059 0.89082 0.20724 0.0
H1201 H 0.53431 0.92596 0.191 0.0
H1202 H 0.3823 0.81987 0.13941 0.0
H1203 H 0.3988 0.85491 0.12239 0.0
H1204 H 0.40012 0.79051 0.15439 0.0
H1205 H 0.41987 0.79097 0.18102 0.0
C1206 C 0.60862 0.46156 0.31858 0.0
C1207 C 0.57408 0.45012 0.31472 0.0
C1208 C 0.56235 0.42288 0.35281 0.0
C1209 C 0.59661 0.4332 0.35627 0.0
N1210 N 0.65229 0.46073 0.34136 0.0
N1211 N 0.52278 0.4351 0.33426 0.0
C1212 C 0.61963 0.45226 0.33894 0.0
C1213 C 0.55224 0.43521 0.33363 0.0
N1214 N 0.63211 0.48255 0.30371 0.0
N1215 N 0.53905 0.40057 0.36728 0.0
H1216 H 0.51636 0.44762 0.32214 0.0
H1217 H 0.50725 0.42711 0.34868 0.0
H1218 H 0.54468 0.38946 0.38089 0.0
H1219 H 0.51356 0.39007 0.36396 0.0
H1220 H 0.62724 0.49321 0.28933 0.0
H1221 H 0.62724 0.49321 0.28933 0.0
H1222 H 0.67006 0.47484 0.32909 0.0
H1223 H 0.66105 0.45201 0.35487 0.0
C1224 C 0.44484 0.87225 0.33257 0.0
C1225 C 0.442 0.90053 0.32944 0.0
C1226 C 0.43815 0.89112 0.28652 0.0
C1227 C 0.43502 0.85989 0.29006 0.0
N1228 N 0.43115 0.81878 0.31706 0.0
N1229 N 0.45407 0.94481 0.30319 0.0
C1230 C 0.43791 0.85011 0.3132 0.0
C1231 C 0.44413 0.91251 0.3063 0.0
N1232 N 0.45497 0.86704 0.35402 0.0
N1233 N 0.43424 0.89988 0.26429 0.0
H1234 H 0.46304 0.96211 0.31701 0.0
H1235 H 0.45848 0.9556 0.28676 0.0
H1236 H 0.4323 0.88606 0.24915 0.0
H1237 H 0.43146 0.92007 0.26089 0.0
H1238 H 0.46002 0.84816 0.357 0.0
H1239 H 0.46273 0.88428 0.36792 0.0
H1240 H 0.42909 0.80935 0.33386 0.0
H1241 H 0.42489 0.80114 0.30364 0.0
C1242 C 0.5725 0.42865 0.50033 0.0
C1243 C 0.54349 0.43038 0.49481 0.0
C1244 C 0.5493 0.42181 0.45284 0.0
C1245 C 0.57562 0.41587 0.45859 0.0
N1246 N 0.61091 0.41092 0.48806 0.0
N1247 N 0.51726 0.44677 0.46516 0.0
C1248 C 0.58721 0.419 0.48238 0.0
C1249 C 0.53561 0.43235 0.47081 0.0
N1250 N 0.58719 0.43829 0.52232 0.0
N1251 N 0.53704 0.41702 0.43018 0.0
H1252 H 0.51077 0.45877 0.47777 0.0
H1253 H 0.51275 0.45112 0.4479 0.0
H1254 H 0.54825 0.41197 0.41626 0.0
H1255 H 0.51512 0.41673 0.42545 0.0
H1256 H 0.61008 0.44058 0.52683 0.0
H1257 H 0.57873 0.44824 0.53519 0.0
H1258 H 0.61747 0.40885 0.50534 0.0
H1259 H 0.62256 0.40397 0.47552 0.0
C1260 C 0.15387 0.54923 0.65861 0.0
C1261 C 0.12296 0.54873 0.65736 0.0
C1262 C 0.14344 0.58506 0.62329 0.0
C1263 C 0.16934 0.57757 0.62121 0.0
N1264 N 0.20401 0.55927 0.6398 0.0
N1265 N 0.09215 0.57368 0.6417 0.0
C1266 C 0.17587 0.5616 0.6397 0.0
C1267 C 0.11911 0.56935 0.64084 0.0
N1268 N 0.16386 0.53937 0.67802 0.0
N1269 N 0.14275 0.60788 0.60903 0.0
H1270 H 0.07634 0.56683 0.65591 0.0
H1271 H 0.08488 0.58359 0.62813 0.0
H1272 H 0.16118 0.62102 0.59702 0.0
H1273 H 0.12619 0.61654 0.61065 0.0
H1274 H 0.15139 0.53336 0.69393 0.0
H1275 H 0.15139 0.53336 0.69393 0.0
H1276 H 0.20931 0.54698 0.65284 0.0
H1277 H 0.22225 0.57041 0.62719 0.0
C1278 C 0.5845 0.11864 0.81905 0.0
C1279 C 0.5582 0.1236 0.82724 0.0
C1280 C 0.59091 0.18151 0.81601 0.0
C1281 C 0.61171 0.17364 0.80299 0.0
N1282 N 0.64124 0.14391 0.80583 0.0
N1283 N 0.53981 0.16273 0.83668 0.0
C1284 C 0.6126 0.14496 0.80856 0.0
C1285 C 0.5629 0.15617 0.82732 0.0
N1286 N 0.58264 0.08878 0.82042 0.0
N1287 N 0.59922 0.21369 0.81837 0.0
H1288 H 0.51987 0.14641 0.84652 0.0
H1289 H 0.53938 0.1843 0.83379 0.0
H1290 H 0.62091 0.23249 0.81129 0.0
H1291 H 0.58729 0.22216 0.82945 0.0
H1292 H 0.59743 0.08249 0.81049 0.0
H1293 H 0.56674 0.07008 0.83128 0.0
H1294 H 0.64431 0.12457 0.81137 0.0
H1295 H 0.6636 0.16449 0.80156 0.0
C1296 C 0.45871 0.63562 0.99628 0.0
C1297 C 0.4744 0.61683 0.99963 0.0
C1298 C 0.47754 0.61369 0.95629 0.0
C1299 C 0.45273 0.62278 0.95403 0.0
N1300 N 0.41871 0.64185 0.97312 0.0
N1301 N 0.51012 0.59908 0.98221 0.0
C1302 C 0.44284 0.6334 0.97439 0.0
C1303 C 0.48745 0.60923 0.97937 0.0
N1304 N 0.4618 0.65804 0.01313 0.0
N1305 N 0.49195 0.61004 0.93648 0.0
H1306 H 0.52289 0.60215 0.99821 0.0
H1307 H 0.5169 0.58849 0.96875 0.0
H1308 H 0.48466 0.61253 0.91948 0.0
H1309 H 0.51202 0.60601 0.93673 0.0
H1310 H 0.45251 0.67394 0.01075 0.0
H1311 H 0.47826 0.66417 0.02757 0.0
H1312 H 0.40914 0.64678 0.98818 0.0
H1313 H 0.40618 0.64112 0.95757 0.0
C1314 C 0.88231 0.44759 0.16288 0.0
C1315 C 0.86378 0.42892 0.18241 0.0
C1316 C 0.8139 0.40026 0.15704 0.0
C1317 C 0.83281 0.41615 0.13706 0.0
N1318 N 0.88221 0.46136 0.12163 0.0
N1319 N 0.80936 0.40677 0.19877 0.0
C1320 C 0.86628 0.44185 0.14017 0.0
C1321 C 0.82867 0.41085 0.17981 0.0
N1322 N 0.9146 0.47184 0.16622 0.0
N1323 N 0.78157 0.37562 0.15456 0.0
H1324 H 0.81957 0.41921 0.21483 0.0
H1325 H 0.78353 0.39572 0.19748 0.0
H1326 H 0.76873 0.36784 0.13838 0.0
H1327 H 0.76834 0.36125 0.16864 0.0
H1328 H 0.93129 0.48226 0.15265 0.0
H1329 H 0.92435 0.4825 0.18279 0.0
H1330 H 0.87116 0.45747 0.10487 0.0
H1331 H 0.9056 0.48229 0.12286 0.0
loop_
_geom_bond_atom_site_label_1
_geom_bond_atom_site_label_2
_geom_bond_distance
_geom_bond_site_symmetry_2
_ccdc_geom_bond_type
C0 C1 1.560 . S
C0 H61 0.959 . S
C0 H62 0.959 . S
C0 H63 0.960 . S
C1 C0 1.560 . S
C1 O56 1.426 . S
C1 H60 0.980 . S
C2 C3 1.407 . S
C2 C7 1.418 . S
C2 O56 1.334 . S
C3 C2 1.407 . S
C3 C4 1.360 . S
C3 H64 0.929 . S
C4 C3 1.360 . S
C4 C5 1.401 . S
C4 C8 1.527 . S
C5 C4 1.401 . S
C5 C6 1.405 . S
C5 C38 1.587 . S
C6 C5 1.405 . S
C6 C7 1.332 . S
C6 C9 1.496 . S
C7 C2 1.418 . S
C7 C6 1.332 . S
C7 H65 0.929 . S
C8 C4 1.527 . S
C8 H66 0.959 . S
C8 H67 0.961 . S
C8 H68 0.961 . S
C9 C6 1.496 . S
C9 H69 0.960 . S
C9 H70 0.960 . S
C9 H71 0.961 . S
C10 C11 1.517 . S
C10 H73 0.961 . S
C10 H74 0.960 . S
C10 H75 0.959 . S
C11 C10 1.517 . S
C11 O59 1.468 . S
C11 H72 0.980 . S
C12 C13 1.349 . S
C12 C17 1.367 . S
C12 O59 1.408 . S
C13 C12 1.349 . S
C13 C14 1.407 . S
C13 H76 0.930 . S
C14 C13 1.407 . S
C14 C15 1.449 . S
C14 C18 1.535 . S
C15 C14 1.449 . S
C15 C16 1.384 . S
C15 C40 1.553 1_655 S
C16 C15 1.384 . S
C16 C17 1.364 . S
C16 C19 1.450 . S
C17 C12 1.367 . S
C17 C16 1.364 . S
C17 H77 0.931 . S
C18 C14 1.535 . S
C18 H78 0.959 1_655 S
C18 H79 0.961 . S
C18 H80 0.959 . S
C19 C16 1.450 . S
C19 H81 0.960 . S
C19 H82 0.960 1_655 S
C19 H83 0.960 . S
C20 C21 1.309 . S
C20 C25 1.304 . S
C20 O58 1.435 . S
C21 C20 1.309 . S
C21 C22 1.476 . S
C21 H85 0.930 . S
C22 C21 1.476 . S
C22 C23 1.400 . S
C22 C26 1.567 . S
C23 C22 1.400 . S
C23 C24 1.373 . S
C23 C45 1.432 . S
C24 C23 1.373 . S
C24 C25 1.339 . S
C24 C27 1.530 . S
C25 C20 1.304 . S
C25 C24 1.339 . S
C25 H86 0.930 . S
C26 C22 1.567 . S
C26 H87 0.961 . S
C26 H88 0.960 . S
C26 H89 0.958 . S
C27 C24 1.530 . S
C27 H90 0.961 . S
C27 H91 0.960 . S
C27 H92 0.960 . S
C28 C29 1.530 . S
C28 H94 0.961 . S
C28 H95 0.961 . S
C28 H96 0.959 . S
C29 C28 1.530 . S
C29 O57 1.412 . S
C29 H93 0.980 . S
C30 C31 1.288 . S
C30 C35 1.377 . S
C30 O57 1.393 . S
C31 C30 1.288 . S
C31 C32 1.369 . S
C31 H97 0.932 . S
C32 C31 1.369 . S
C32 C33 1.398 . S
C32 C36 1.527 . S
C33 C32 1.398 . S
C33 C34 1.380 . S
C33 C47 1.497 . S
C34 C33 1.380 . S
C34 C35 1.383 . S
C34 C37 1.603 . S
C35 C30 1.377 . S
C35 C34 1.383 . S
C35 H98 0.929 . S
C36 C32 1.527 . S
C36 H99 0.961 . S
C36 H100 0.959 1_455 S
C36 H101 0.959 . S
C37 C34 1.603 . S
C37 H102 0.960 . S
C37 H103 0.962 . S
C37 H104 0.961 . S
C38 C5 1.587 . S
C38 C39 1.360 . S
C38 C51 1.412 . S
C39 C38 1.360 . S
C39 C40 1.365 . S
C39 H105 0.929 . S
C40 C15 1.553 1_455 S
C40 C39 1.365 . S
C40 C41 1.404 1_455 S
C41 C40 1.404 1_655 S
C41 C42 1.395 . S
C41 C52 1.451 1_655 S
C42 C41 1.395 . S
C42 C43 1.322 . S
C42 H106 0.930 . S
C43 C42 1.322 . S
C43 C44 1.459 . S
C43 H107 0.929 . S
C44 C43 1.459 . S
C44 C45 1.445 . S
C44 C53 1.395 1_655 S
C45 C23 1.432 . S
C45 C44 1.445 . S
C45 C46 1.370 . S
C46 C45 1.370 . S
C46 C47 1.438 1_655 S
C46 H108 0.930 . S
C47 C33 1.497 . S
C47 C46 1.438 1_455 S
C47 C48 1.360 . S
C48 C47 1.360 . S
C48 C49 1.401 . S
C48 C53 1.446 . S
C49 C48 1.401 . S
C49 C50 1.347 . S
C49 H109 0.929 . S
C50 C49 1.347 . S
C50 C51 1.455 . S
C50 H110 0.930 . S
C51 C38 1.412 . S
C51 C50 1.455 . S
C51 C52 1.331 . S
C52 C41 1.451 1_455 S
C52 C51 1.331 . S
C52 C53 1.497 . S
C53 C44 1.395 1_455 S
C53 C48 1.446 . S
C53 C52 1.497 . S
C54 C55 1.582 . S
C54 H111 0.962 . S
C54 H112 0.959 . S
C54 H113 0.958 . S
C55 C54 1.582 . S
C55 O58 1.458 . S
C55 H84 0.980 . S
O56 C1 1.426 . S
O56 C2 1.334 . S
O57 C29 1.412 . S
O57 C30 1.393 . S
O58 C20 1.435 . S
O58 C55 1.458 . S
O59 C11 1.468 . S
O59 C12 1.408 . S
H60 C1 0.980 . S
H61 C0 0.959 . S
H62 C0 0.959 . S
H63 C0 0.960 . S
H64 C3 0.929 . S
H65 C7 0.929 . S
H66 C8 0.959 . S
H67 C8 0.961 . S
H68 C8 0.961 . S
H69 C9 0.960 . S
H70 C9 0.960 . S
H71 C9 0.961 . S
H72 C11 0.980 . S
H73 C10 0.961 . S
H74 C10 0.960 . S
H75 C10 0.959 . S
H76 C13 0.930 . S
H77 C17 0.931 . S
H78 C18 0.959 1_455 S
H79 C18 0.961 . S
H80 C18 0.959 . S
H81 C19 0.960 . S
H82 C19 0.960 1_455 S
H83 C19 0.960 . S
H84 C55 0.980 . S
H85 C21 0.930 . S
H86 C25 0.930 . S
H87 C26 0.961 . S
H88 C26 0.960 . S
H89 C26 0.958 . S
H90 C27 0.961 . S
H91 C27 0.960 . S
H92 C27 0.960 . S
H93 C29 0.980 . S
H94 C28 0.961 . S
H95 C28 0.961 . S
H96 C28 0.959 . S
H97 C31 0.932 . S
H98 C35 0.929 . S
H99 C36 0.961 . S
H100 C36 0.959 1_655 S
H101 C36 0.959 . S
H102 C37 0.960 . S
H103 C37 0.962 . S
H104 C37 0.961 . S
H105 C39 0.929 . S
H106 C42 0.930 . S
H107 C43 0.929 . S
H108 C46 0.930 . S
H109 C49 0.929 . S
H110 C50 0.930 . S
H111 C54 0.962 . S
H112 C54 0.959 . S
H113 C54 0.958 . S
C114 C115 1.560 . S
C114 H175 0.959 . S
C114 H176 0.959 . S
C114 H177 0.960 . S
C115 C114 1.560 . S
C115 O170 1.426 . S
C115 H174 0.980 . S
C116 C117 1.407 . S
C116 C121 1.418 . S
C116 O170 1.334 . S
C117 C116 1.407 . S
C117 C118 1.360 . S
C117 H178 0.929 . S
C118 C117 1.360 . S
C118 C119 1.401 . S
C118 C122 1.527 . S
C119 C118 1.401 . S
C119 C120 1.405 . S
C119 C152 1.587 . S
C120 C119 1.405 . S
C120 C121 1.332 . S
C120 C123 1.496 . S
C121 C116 1.418 . S
C121 C120 1.332 . S
C121 H179 0.929 . S
C122 C118 1.527 . S
C122 H180 0.959 . S
C122 H181 0.961 . S
C122 H182 0.961 . S
C123 C120 1.496 . S
C123 H183 0.960 . S
C123 H184 0.960 . S
C123 H185 0.961 . S
C124 C125 1.517 . S
C124 H187 0.961 . S
C124 H188 0.960 . S
C124 H189 0.959 . S
C125 C124 1.517 . S
C125 O173 1.468 . S
C125 H186 0.980 . S
C126 C127 1.349 . S
C126 C131 1.367 . S
C126 O173 1.408 . S
C127 C126 1.349 . S
C127 C128 1.407 . S
C127 H190 0.930 . S
C128 C127 1.407 . S
C128 C129 1.449 . S
C128 C132 1.535 . S
C129 C128 1.449 . S
C129 C130 1.384 . S
C129 C154 1.553 . S
C130 C129 1.384 . S
C130 C131 1.364 . S
C130 C133 1.450 . S
C131 C126 1.367 . S
C131 C130 1.364 . S
C131 H191 0.931 . S
C132 C128 1.535 . S
C132 H192 0.959 . S
C132 H193 0.961 . S
C132 H194 0.959 . S
C133 C130 1.450 . S
C133 H195 0.960 . S
C133 H196 0.960 . S
C133 H197 0.960 . S
C134 C135 1.309 . S
C134 C139 1.304 . S
C134 O172 1.435 . S
C135 C134 1.309 . S
C135 C136 1.476 . S
C135 H199 0.930 . S
C136 C135 1.476 . S
C136 C137 1.400 . S
C136 C140 1.567 . S
C137 C136 1.400 . S
C137 C138 1.373 . S
C137 C159 1.432 . S
C138 C137 1.373 . S
C138 C139 1.339 . S
C138 C141 1.530 . S
C139 C134 1.304 . S
C139 C138 1.339 . S
C139 H200 0.930 . S
C140 C136 1.567 . S
C140 H201 0.961 . S
C140 H202 0.960 . S
C140 H203 0.958 . S
C141 C138 1.530 . S
C141 H204 0.961 . S
C141 H205 0.960 . S
C141 H206 0.960 . S
C142 C143 1.530 . S
C142 H208 0.961 . S
C142 H209 0.961 . S
C142 H210 0.959 . S
C143 C142 1.530 . S
C143 O171 1.412 . S
C143 H207 0.980 . S
C144 C145 1.288 . S
C144 C149 1.377 . S
C144 O171 1.393 . S
C145 C144 1.288 . S
C145 C146 1.369 . S
C145 H211 0.932 . S
C146 C145 1.369 . S
C146 C147 1.398 . S
C146 C150 1.527 1_565 S
C147 C146 1.398 . S
C147 C148 1.380 . S
C147 C161 1.497 1_565 S
C148 C147 1.380 . S
C148 C149 1.383 . S
C148 C151 1.603 . S
C149 C144 1.377 . S
C149 C148 1.383 . S
C149 H212 0.929 . S
C150 C146 1.527 1_545 S
C150 H213 0.967 . S
C150 H214 0.959 . S
C150 H215 0.959 1_545 S
C151 C148 1.603 . S
C151 H216 0.960 . S
C151 H217 0.962 . S
C151 H218 0.961 . S
C152 C119 1.587 . S
C152 C153 1.360 . S
C152 C165 1.412 . S
C153 C152 1.360 . S
C153 C154 1.365 1_565 S
C153 H219 0.929 . S
C154 C129 1.553 . S
C154 C153 1.365 1_545 S
C154 C155 1.404 . S
C155 C154 1.404 . S
C155 C156 1.395 . S
C155 C166 1.451 . S
C156 C155 1.395 . S
C156 C157 1.322 . S
C156 H220 0.930 . S
C157 C156 1.322 . S
C157 C158 1.459 . S
C157 H221 0.929 . S
C158 C157 1.459 . S
C158 C159 1.445 . S
C158 C167 1.395 . S
C159 C137 1.432 . S
C159 C158 1.445 . S
C159 C160 1.370 . S
C160 C159 1.370 . S
C160 C161 1.438 . S
C160 H222 0.930 . S
C161 C147 1.497 1_545 S
C161 C160 1.438 . S
C161 C162 1.360 1_545 S
C162 C161 1.360 1_565 S
C162 C163 1.401 . S
C162 C167 1.446 1_565 S
C163 C162 1.401 . S
C163 C164 1.347 . S
C163 H223 0.929 . S
C164 C163 1.347 . S
C164 C165 1.455 . S
C164 H224 0.930 . S
C165 C152 1.412 . S
C165 C164 1.455 . S
C165 C166 1.331 1_565 S
C166 C155 1.451 . S
C166 C165 1.331 1_545 S
C166 C167 1.497 . S
C167 C158 1.395 . S
C167 C162 1.446 1_545 S
C167 C166 1.497 . S
C168 C169 1.582 . S
C168 H225 0.962 . S
C168 H226 0.959 . S
C168 H227 0.958 . S
C169 C168 1.582 . S
C169 O172 1.458 . S
C169 H198 0.980 . S
O170 C115 1.426 . S
O170 C116 1.334 . S
O171 C143 1.412 . S
O171 C144 1.393 . S
O172 C134 1.435 . S
O172 C169 1.458 . S
O173 C125 1.468 . S
O173 C126 1.408 . S
H174 C115 0.980 . S
H175 C114 0.959 . S
H176 C114 0.959 . S
H177 C114 0.960 . S
H178 C117 0.929 . S
H179 C121 0.929 . S
H180 C122 0.959 . S
H181 C122 0.961 . S
H182 C122 0.961 . S
H183 C123 0.960 . S
H184 C123 0.960 . S
H185 C123 0.961 . S
H186 C125 0.980 . S
H187 C124 0.961 . S
H188 C124 0.960 . S
H189 C124 0.959 . S
H190 C127 0.930 . S
H191 C131 0.931 . S
H192 C132 0.959 . S
H193 C132 0.961 . S
H194 C132 0.959 . S
H195 C133 0.960 . S
H196 C133 0.960 . S
H197 C133 0.960 . S
H198 C169 0.980 . S
H199 C135 0.930 . S
H200 C139 0.930 . S
H201 C140 0.961 . S
H202 C140 0.960 . S
H203 C140 0.958 . S
H204 C141 0.961 . S
H205 C141 0.960 . S
H206 C141 0.960 . S
H207 C143 0.980 . S
H208 C142 0.961 . S
H209 C142 0.961 . S
H210 C142 0.959 . S
H211 C145 0.932 . S
H212 C149 0.929 . S
H213 C150 0.967 . S
H214 C150 0.959 . S
H215 C150 0.959 1_565 S
H216 C151 0.960 . S
H217 C151 0.962 . S
H218 C151 0.961 . S
H219 C153 0.929 . S
H220 C156 0.930 . S
H221 C157 0.929 . S
H222 C160 0.930 . S
H223 C163 0.929 . S
H224 C164 0.930 . S
H225 C168 0.962 . S
H226 C168 0.959 . S
H227 C168 0.958 . S
C228 C229 1.560 . S
C228 H289 0.959 . S
C228 H290 0.959 . S
C228 H291 0.960 . S
C229 C228 1.560 . S
C229 O284 1.426 . S
C229 H288 0.980 . S
C230 C231 1.407 . S
C230 C235 1.418 . S
C230 O284 1.334 . S
C231 C230 1.407 . S
C231 C232 1.360 . S
C231 H292 0.929 . S
C232 C231 1.360 . S
C232 C233 1.401 . S
C232 C236 1.527 . S
C233 C232 1.401 . S
C233 C234 1.405 . S
C233 C266 1.587 . S
C234 C233 1.405 . S
C234 C235 1.332 . S
C234 C237 1.496 . S
C235 C230 1.418 . S
C235 C234 1.332 . S
C235 H293 0.929 . S
C236 C232 1.527 . S
C236 H294 0.959 . S
C236 H295 0.961 . S
C236 H296 0.961 . S
C237 C234 1.496 . S
C237 H297 0.960 . S
C237 H298 0.960 . S
C237 H299 0.961 . S
C238 C239 1.517 . S
C238 H301 0.961 . S
C238 H302 0.960 . S
C238 H303 0.959 . S
C239 C238 1.517 . S
C239 O287 1.468 . S
C239 H300 0.980 . S
C240 C241 1.349 . S
C240 C245 1.367 . S
C240 O287 1.408 . S
C241 C240 1.349 . S
C241 C242 1.407 . S
C241 H304 0.930 . S
C242 C241 1.407 . S
C242 C243 1.449 . S
C242 C246 1.535 . S
C243 C242 1.449 . S
C243 C244 1.384 . S
C243 C268 1.553 . S
C244 C243 1.384 . S
C244 C245 1.364 . S
C244 C247 1.450 . S
C245 C240 1.367 . S
C245 C244 1.364 . S
C245 H305 0.931 . S
C246 C242 1.535 . S
C246 H306 0.959 . S
C246 H307 0.961 . S
C246 H308 0.959 . S
C247 C244 1.450 . S
C247 H309 0.960 . S
C247 H310 0.960 . S
C247 H311 0.960 . S
C248 C249 1.309 . S
C248 C253 1.304 . S
C248 O286 1.435 . S
C249 C248 1.309 . S
C249 C250 1.476 . S
C249 H313 0.930 . S
C250 C249 1.476 . S
C250 C251 1.400 . S
C250 C254 1.567 . S
C251 C250 1.400 . S
C251 C252 1.373 . S
C251 C273 1.432 . S
C252 C251 1.373 . S
C252 C253 1.339 . S
C252 C255 1.530 . S
C253 C248 1.304 . S
C253 C252 1.339 . S
C253 H314 0.930 . S
C254 C250 1.567 . S
C254 H315 0.961 . S
C254 H316 0.960 . S
C254 H317 0.958 . S
C255 C252 1.530 . S
C255 H318 0.961 . S
C255 H319 0.960 . S
C255 H320 0.960 . S
C256 C257 1.530 . S
C256 H322 0.961 . S
C256 H323 0.961 . S
C256 H324 0.959 . S
C257 C256 1.530 . S
C257 O285 1.412 . S
C257 H321 0.980 . S
C258 C259 1.288 . S
C258 C263 1.377 . S
C258 O285 1.393 . S
C259 C258 1.288 . S
C259 C260 1.369 . S
C259 H325 0.932 . S
C260 C259 1.369 . S
C260 C261 1.398 . S
C260 C264 1.527 . S
C261 C260 1.398 . S
C261 C262 1.380 . S
C261 C275 1.497 . S
C262 C261 1.380 . S
C262 C263 1.383 . S
C262 C265 1.603 . S
C263 C258 1.377 . S
C263 C262 1.383 . S
C263 H326 0.929 . S
C264 C260 1.527 . S
C264 H327 0.961 . S
C264 H328 0.959 . S
C264 H329 0.959 . S
C265 C262 1.603 . S
C265 H330 0.960 . S
C265 H331 0.962 . S
C265 H332 0.961 . S
C266 C233 1.587 . S
C266 C267 1.360 . S
C266 C279 1.412 . S
C267 C266 1.360 . S
C267 C268 1.365 . S
C267 H333 0.929 . S
C268 C243 1.553 . S
C268 C267 1.365 . S
C268 C269 1.404 . S
C269 C268 1.404 . S
C269 C270 1.395 . S
C269 C280 1.451 . S
C270 C269 1.395 . S
C270 C271 1.322 . S
C270 H334 0.930 . S
C271 C270 1.322 . S
C271 C272 1.459 . S
C271 H335 0.929 . S
C272 C271 1.459 . S
C272 C273 1.445 . S
C272 C281 1.395 . S
C273 C251 1.432 . S
C273 C272 1.445 . S
C273 C274 1.370 . S
C274 C273 1.370 . S
C274 C275 1.438 . S
C274 H336 0.930 . S
C275 C261 1.497 . S
C275 C274 1.438 . S
C275 C276 1.360 . S
C276 C275 1.360 . S
C276 C277 1.401 . S
C276 C281 1.446 . S
C277 C276 1.401 . S
C277 C278 1.347 . S
C277 H337 0.929 . S
C278 C277 1.347 . S
C278 C279 1.455 . S
C278 H338 0.930 . S
C279 C266 1.412 . S
C279 C278 1.455 . S
C279 C280 1.331 . S
C280 C269 1.451 . S
C280 C279 1.331 . S
C280 C281 1.497 . S
C281 C272 1.395 . S
C281 C276 1.446 . S
C281 C280 1.497 . S
C282 C283 1.582 . S
C282 H339 0.962 . S
C282 H340 0.959 . S
C282 H341 0.958 . S
C283 C282 1.582 . S
C283 O286 1.458 . S
C283 H312 0.980 . S
O284 C229 1.426 . S
O284 C230 1.334 . S
O285 C257 1.412 . S
O285 C258 1.393 . S
O286 C248 1.435 . S
O286 C283 1.458 . S
O287 C239 1.468 . S
O287 C240 1.408 . S
H288 C229 0.980 . S
H289 C228 0.959 . S
H290 C228 0.959 . S
H291 C228 0.960 . S
H292 C231 0.929 . S
H293 C235 0.929 . S
H294 C236 0.959 . S
H295 C236 0.961 . S
H296 C236 0.961 . S
H297 C237 0.960 . S
H298 C237 0.960 . S
H299 C237 0.961 . S
H300 C239 0.980 . S
H301 C238 0.961 . S
H302 C238 0.960 . S
H303 C238 0.959 . S
H304 C241 0.930 . S
H305 C245 0.931 . S
H306 C246 0.959 . S
H307 C246 0.961 . S
H308 C246 0.959 . S
H309 C247 0.960 . S
H310 C247 0.960 . S
H311 C247 0.960 . S
H312 C283 0.980 . S
H313 C249 0.930 . S
H314 C253 0.930 . S
H315 C254 0.961 . S
H316 C254 0.960 . S
H317 C254 0.958 . S
H318 C255 0.961 . S
H319 C255 0.960 . S
H320 C255 0.960 . S
H321 C257 0.980 . S
H322 C256 0.961 . S
H323 C256 0.961 . S
H324 C256 0.959 . S
H325 C259 0.932 . S
H326 C263 0.929 . S
H327 C264 0.961 . S
H328 C264 0.959 . S
H329 C264 0.959 . S
H330 C265 0.960 . S
H331 C265 0.962 . S
H332 C265 0.961 . S
H333 C267 0.929 . S
H334 C270 0.930 . S
H335 C271 0.929 . S
H336 C274 0.930 . S
H337 C277 0.929 . S
H338 C278 0.930 . S
H339 C282 0.962 . S
H340 C282 0.959 . S
H341 C282 0.958 . S
C342 C343 1.560 . S
C342 H403 0.959 . S
C342 H404 0.959 . S
C342 H405 0.960 . S
C343 C342 1.560 . S
C343 O398 1.426 . S
C343 H402 0.980 . S
C344 C345 1.407 . S
C344 C349 1.418 . S
C344 O398 1.334 . S
C345 C344 1.407 . S
C345 C346 1.360 . S
C345 H406 0.929 . S
C346 C345 1.360 . S
C346 C347 1.401 . S
C346 C350 1.527 . S
C347 C346 1.401 . S
C347 C348 1.405 . S
C347 C380 1.587 . S
C348 C347 1.405 . S
C348 C349 1.332 . S
C348 C351 1.496 . S
C349 C344 1.418 . S
C349 C348 1.332 . S
C349 H407 0.929 . S
C350 C346 1.527 . S
C350 H408 0.959 . S
C350 H409 0.961 . S
C350 H410 0.961 . S
C351 C348 1.496 . S
C351 H411 0.960 . S
C351 H412 0.960 . S
C351 H413 0.961 . S
C352 C353 1.517 . S
C352 H415 0.961 1_556 S
C352 H416 0.960 . S
C352 H417 0.959 . S
C353 C352 1.517 . S
C353 O401 1.468 . S
C353 H414 0.980 . S
C354 C355 1.349 . S
C354 C359 1.367 . S
C354 O401 1.408 . S
C355 C354 1.349 . S
C355 C356 1.407 . S
C355 H418 0.930 . S
C356 C355 1.407 . S
C356 C357 1.449 . S
C356 C360 1.535 . S
C357 C356 1.449 . S
C357 C358 1.384 . S
C357 C382 1.553 1_655 S
C358 C357 1.384 . S
C358 C359 1.364 . S
C358 C361 1.450 . S
C359 C354 1.367 . S
C359 C358 1.364 . S
C359 H419 0.931 . S
C360 C356 1.535 . S
C360 H420 0.959 1_655 S
C360 H421 0.961 1_655 S
C360 H422 0.959 . S
C361 C358 1.450 . S
C361 H423 0.960 . S
C361 H424 0.960 1_655 S
C361 H425 0.960 . S
C362 C363 1.309 . S
C362 C367 1.304 . S
C362 O400 1.435 . S
C363 C362 1.309 . S
C363 C364 1.476 . S
C363 H427 0.930 . S
C364 C363 1.476 . S
C364 C365 1.400 . S
C364 C368 1.567 . S
C365 C364 1.400 . S
C365 C366 1.373 . S
C365 C387 1.432 . S
C366 C365 1.373 . S
C366 C367 1.339 . S
C366 C369 1.530 . S
C367 C362 1.304 . S
C367 C366 1.339 . S
C367 H428 0.930 . S
C368 C364 1.567 . S
C368 H429 0.961 . S
C368 H430 0.960 . S
C368 H431 0.958 . S
C369 C366 1.530 . S
C369 H432 0.961 . S
C369 H433 0.960 . S
C369 H434 0.960 . S
C370 C371 1.530 . S
C370 H436 0.961 . S
C370 H437 0.961 . S
C370 H438 0.959 . S
C371 C370 1.530 . S
C371 O399 1.412 . S
C371 H435 0.980 . S
C372 C373 1.288 . S
C372 C377 1.377 . S
C372 O399 1.393 . S
C373 C372 1.288 . S
C373 C374 1.369 . S
C373 H439 0.932 . S
C374 C373 1.369 . S
C374 C375 1.398 . S
C374 C378 1.527 . S
C375 C374 1.398 . S
C375 C376 1.380 . S
C375 C389 1.497 . S
C376 C375 1.380 . S
C376 C377 1.383 . S
C376 C379 1.603 . S
C377 C372 1.377 . S
C377 C376 1.383 . S
C377 H440 0.929 . S
C378 C374 1.527 . S
C378 H441 0.961 . S
C378 H442 0.959 1_455 S
C378 H443 0.959 . S
C379 C376 1.603 . S
C379 H444 0.960 . S
C379 H445 0.962 . S
C379 H446 0.961 . S
C380 C347 1.587 . S
C380 C381 1.360 . S
C380 C393 1.412 . S
C381 C380 1.360 . S
C381 C382 1.365 . S
C381 H447 0.929 . S
C382 C357 1.553 1_455 S
C382 C381 1.365 . S
C382 C383 1.417 . S
C383 C382 1.417 . S
C383 C384 1.365 1_455 S
C383 C394 1.474 . S
C384 C383 1.365 1_655 S
C384 C385 1.322 . S
C384 H448 0.930 . S
C385 C384 1.322 . S
C385 C386 1.459 . S
C385 H449 0.929 . S
C386 C385 1.459 . S
C386 C387 1.445 . S
C386 C395 1.395 1_655 S
C387 C365 1.432 . S
C387 C386 1.445 . S
C387 C388 1.370 . S
C388 C387 1.370 . S
C388 C389 1.438 1_655 S
C388 H450 0.930 . S
C389 C375 1.497 . S
C389 C388 1.438 1_455 S
C389 C390 1.360 . S
C390 C389 1.360 . S
C390 C391 1.401 . S
C390 C395 1.446 . S
C391 C390 1.401 . S
C391 C392 1.347 . S
C391 H451 0.929 . S
C392 C391 1.347 . S
C392 C393 1.455 . S
C392 H452 0.930 . S
C393 C380 1.412 . S
C393 C392 1.455 . S
C393 C394 1.331 . S
C394 C383 1.474 . S
C394 C393 1.331 . S
C394 C395 1.497 . S
C395 C386 1.395 1_455 S
C395 C390 1.446 . S
C395 C394 1.497 . S
C396 C397 1.582 . S
C396 H453 0.962 . S
C396 H454 0.959 . S
C396 H455 0.958 . S
C397 C396 1.582 . S
C397 O400 1.458 . S
C397 H426 0.980 . S
O398 C343 1.426 . S
O398 C344 1.334 . S
O399 C371 1.412 . S
O399 C372 1.393 . S
O400 C362 1.435 . S
O400 C397 1.458 . S
O401 C353 1.468 . S
O401 C354 1.408 . S
H402 C343 0.980 . S
H403 C342 0.959 . S
H404 C342 0.959 . S
H405 C342 0.960 . S
H406 C345 0.929 . S
H407 C349 0.929 . S
H408 C350 0.959 . S
H409 C350 0.961 . S
H410 C350 0.961 . S
H411 C351 0.960 . S
H412 C351 0.960 . S
H413 C351 0.961 . S
H414 C353 0.980 . S
H415 C352 0.961 1_554 S
H416 C352 0.960 . S
H417 C352 0.959 . S
H418 C355 0.930 . S
H419 C359 0.931 . S
H420 C360 0.959 1_455 S
H421 C360 0.961 1_455 S
H422 C360 0.959 . S
H423 C361 0.960 . S
H424 C361 0.960 1_455 S
H425 C361 0.960 . S
H426 C397 0.980 . S
H427 C363 0.930 . S
H428 C367 0.930 . S
H429 C368 0.961 . S
H430 C368 0.960 . S
H431 C368 0.958 . S
H432 C369 0.961 . S
H433 C369 0.960 . S
H434 C369 0.960 . S
H435 C371 0.980 . S
H436 C370 0.961 . S
H437 C370 0.961 . S
H438 C370 0.959 . S
H439 C373 0.932 . S
H440 C377 0.929 . S
H441 C378 0.961 . S
H442 C378 0.959 1_655 S
H443 C378 0.959 . S
H444 C379 0.960 . S
H445 C379 0.962 . S
H446 C379 0.961 . S
H447 C381 0.929 . S
H448 C384 0.930 . S
H449 C385 0.929 . S
H450 C388 0.930 . S
H451 C391 0.929 . S
H452 C392 0.930 . S
H453 C396 0.962 . S
H454 C396 0.959 . S
H455 C396 0.958 . S
C456 C457 1.560 . S
C456 H517 0.959 . S
C456 H518 0.959 . S
C456 H519 0.960 . S
C457 C456 1.560 . S
C457 O512 1.426 . S
C457 H516 0.980 . S
C458 C459 1.407 . S
C458 C463 1.418 . S
C458 O512 1.334 . S
C459 C458 1.407 . S
C459 C460 1.360 . S
C459 H520 0.929 . S
C460 C459 1.360 . S
C460 C461 1.401 . S
C460 C464 1.527 . S
C461 C460 1.401 . S
C461 C462 1.405 . S
C461 C494 1.587 . S
C462 C461 1.405 . S
C462 C463 1.332 . S
C462 C465 1.496 . S
C463 C458 1.418 . S
C463 C462 1.332 . S
C463 H521 0.929 . S
C464 C460 1.527 . S
C464 H522 0.959 . S
C464 H523 0.961 . S
C464 H524 0.961 . S
C465 C462 1.496 . S
C465 H525 0.960 . S
C465 H526 0.960 . S
C465 H527 0.961 . S
C466 C467 1.517 . S
C466 H529 0.961 . S
C466 H530 0.960 . S
C466 H531 0.959 . S
C467 C466 1.517 . S
C467 O515 1.468 . S
C467 H528 0.980 . S
C468 C469 1.349 . S
C468 C473 1.367 . S
C468 O515 1.408 . S
C469 C468 1.349 . S
C469 C470 1.407 . S
C469 H532 0.930 . S
C470 C469 1.407 . S
C470 C471 1.449 . S
C470 C474 1.535 . S
C471 C470 1.449 . S
C471 C472 1.384 . S
C471 C496 1.553 . S
C472 C471 1.384 . S
C472 C473 1.364 . S
C472 C475 1.450 . S
C473 C468 1.367 . S
C473 C472 1.364 . S
C473 H533 0.931 . S
C474 C470 1.535 . S
C474 H534 0.959 . S
C474 H535 0.961 . S
C474 H536 0.959 . S
C475 C472 1.450 . S
C475 H537 0.960 . S
C475 H538 0.960 . S
C475 H539 0.960 . S
C476 C477 1.309 . S
C476 C481 1.304 . S
C476 O514 1.435 . S
C477 C476 1.309 . S
C477 C478 1.476 . S
C477 H541 0.930 . S
C478 C477 1.476 . S
C478 C479 1.400 . S
C478 C482 1.567 . S
C479 C478 1.400 . S
C479 C480 1.373 . S
C479 C501 1.432 . S
C480 C479 1.373 . S
C480 C481 1.339 . S
C480 C483 1.530 . S
C481 C476 1.304 . S
C481 C480 1.339 . S
C481 H542 0.930 . S
C482 C478 1.567 . S
C482 H543 0.961 . S
C482 H544 0.960 . S
C482 H545 0.958 . S
C483 C480 1.530 . S
C483 H546 0.961 . S
C483 H547 0.960 . S
C483 H548 0.960 . S
C484 C485 1.530 . S
C484 H550 0.961 . S
C484 H551 0.961 . S
C484 H552 0.959 . S
C485 C484 1.530 . S
C485 O513 1.412 . S
C485 H549 0.980 . S
C486 C487 1.288 . S
C486 C491 1.377 . S
C486 O513 1.393 . S
C487 C486 1.288 . S
C487 C488 1.369 . S
C487 H553 0.932 . S
C488 C487 1.369 . S
C488 C489 1.398 . S
C488 C492 1.527 1_565 S
C489 C488 1.398 . S
C489 C490 1.380 . S
C489 C503 1.497 1_565 S
C490 C489 1.380 . S
C490 C491 1.383 . S
C490 C493 1.603 . S
C491 C486 1.377 . S
C491 C490 1.383 . S
C491 H554 0.929 . S
C492 C488 1.527 1_545 S
C492 H555 0.961 . S
C492 H556 0.959 . S
C492 H557 0.959 . S
C493 C490 1.603 . S
C493 H558 0.960 . S
C493 H559 0.994 . S
C493 H560 0.961 . S
C494 C461 1.587 . S
C494 C495 1.360 . S
C494 C507 1.412 . S
C495 C494 1.360 . S
C495 C496 1.365 1_565 S
C495 H561 0.929 . S
C496 C471 1.553 . S
C496 C495 1.365 1_545 S
C496 C497 1.404 . S
C497 C496 1.404 . S
C497 C498 1.395 . S
C497 C508 1.451 . S
C498 C497 1.395 . S
C498 C499 1.322 . S
C498 H562 0.930 . S
C499 C498 1.322 . S
C499 C500 1.459 1_556 S
C499 H563 0.929 . S
C500 C499 1.459 1_554 S
C500 C501 1.445 . S
C500 C509 1.399 . S
C501 C479 1.432 . S
C501 C500 1.445 . S
C501 C502 1.370 . S
C502 C501 1.370 . S
C502 C503 1.438 . S
C502 H564 0.930 . S
C503 C489 1.497 1_545 S
C503 C502 1.438 . S
C503 C504 1.360 . S
C504 C503 1.360 . S
C504 C505 1.401 1_545 S
C504 C509 1.473 . S
C505 C504 1.401 1_565 S
C505 C506 1.347 1_554 S
C505 H565 0.929 . S
C506 C505 1.347 1_556 S
C506 C507 1.455 . S
C506 H566 0.930 . S
C507 C494 1.412 . S
C507 C506 1.455 . S
C507 C508 1.331 1_565 S
C508 C497 1.451 . S
C508 C507 1.331 1_545 S
C508 C509 1.465 1_556 S
C509 C500 1.399 . S
C509 C504 1.473 . S
C509 C508 1.465 1_554 S
C510 C511 1.582 . S
C510 H567 0.962 . S
C510 H568 0.959 . S
C510 H569 0.958 . S
C511 C510 1.582 . S
C511 O514 1.458 . S
C511 H540 0.980 . S
O512 C457 1.426 . S
O512 C458 1.334 . S
O513 C485 1.412 . S
O513 C486 1.393 . S
O514 C476 1.435 . S
O514 C511 1.458 . S
O515 C467 1.468 . S
O515 C468 1.408 . S
H516 C457 0.980 . S
H517 C456 0.959 . S
H518 C456 0.959 . S
H519 C456 0.960 . S
H520 C459 0.929 . S
H521 C463 0.929 . S
H522 C464 0.959 . S
H523 C464 0.961 . S
H524 C464 0.961 . S
H525 C465 0.960 . S
H526 C465 0.960 . S
H527 C465 0.961 . S
H528 C467 0.980 . S
H529 C466 0.961 . S
H530 C466 0.960 . S
H531 C466 0.959 . S
H532 C469 0.930 . S
H533 C473 0.931 . S
H534 C474 0.959 . S
H535 C474 0.961 . S
H536 C474 0.959 . S
H537 C475 0.960 . S
H538 C475 0.960 . S
H539 C475 0.960 . S
H540 C511 0.980 . S
H541 C477 0.930 . S
H542 C481 0.930 . S
H543 C482 0.961 . S
H544 C482 0.960 . S
H545 C482 0.958 . S
H546 C483 0.961 . S
H547 C483 0.960 . S
H548 C483 0.960 . S
H549 C485 0.980 . S
H550 C484 0.961 . S
H551 C484 0.961 . S
H552 C484 0.959 . S
H553 C487 0.932 . S
H554 C491 0.929 . S
H555 C492 0.961 . S
H556 C492 0.959 . S
H557 C492 0.959 . S
H558 C493 0.960 . S
H559 C493 0.994 . S
H560 C493 0.961 . S
H561 C495 0.929 . S
H562 C498 0.930 . S
H563 C499 0.929 . S
H564 C502 0.930 . S
H565 C505 0.929 . S
H566 C506 0.930 . S
H567 C510 0.962 . S
H568 C510 0.959 . S
H569 C510 0.958 . S
C570 C571 1.560 . S
C570 H631 0.959 . S
C570 H632 0.959 . S
C570 H633 0.960 . S
C571 C570 1.560 . S
C571 O626 1.426 . S
C571 H630 0.980 . S
C572 C573 1.407 . S
C572 C577 1.418 . S
C572 O626 1.334 . S
C573 C572 1.407 . S
C573 C574 1.360 . S
C573 H634 0.929 . S
C574 C573 1.360 . S
C574 C575 1.401 . S
C574 C578 1.527 . S
C575 C574 1.401 . S
C575 C576 1.405 . S
C575 C608 1.587 . S
C576 C575 1.405 . S
C576 C577 1.332 . S
C576 C579 1.496 . S
C577 C572 1.418 . S
C577 C576 1.332 . S
C577 H635 0.929 . S
C578 C574 1.527 . S
C578 H636 0.959 . S
C578 H637 0.961 . S
C578 H638 0.961 . S
C579 C576 1.496 . S
C579 H639 0.960 . S
C579 H640 0.960 . S
C579 H641 0.961 . S
C580 C581 1.517 1_556 S
C580 H643 0.961 . S
C580 H644 0.960 . S
C580 H645 0.959 . S
C581 C580 1.517 1_554 S
C581 O629 1.468 . S
C581 H642 0.980 . S
C582 C583 1.349 . S
C582 C587 1.367 . S
C582 O629 1.408 . S
C583 C582 1.349 . S
C583 C584 1.407 . S
C583 H646 0.930 . S
C584 C583 1.407 . S
C584 C585 1.449 . S
C584 C588 1.535 . S
C585 C584 1.449 . S
C585 C586 1.384 . S
C585 C610 1.553 . S
C586 C585 1.384 . S
C586 C587 1.364 . S
C586 C589 1.450 . S
C587 C582 1.367 . S
C587 C586 1.364 . S
C587 H647 0.931 . S
C588 C584 1.535 . S
C588 H648 0.959 . S
C588 H649 0.961 . S
C588 H650 0.959 . S
C589 C586 1.450 . S
C589 H651 0.960 . S
C589 H652 0.960 . S
C589 H653 0.960 . S
C590 C591 1.309 . S
C590 C595 1.304 . S
C590 O628 1.435 . S
C591 C590 1.309 . S
C591 C592 1.476 . S
C591 H655 0.930 . S
C592 C591 1.476 . S
C592 C593 1.400 . S
C592 C596 1.567 . S
C593 C592 1.400 . S
C593 C594 1.373 . S
C593 C615 1.432 . S
C594 C593 1.373 . S
C594 C595 1.339 . S
C594 C597 1.530 . S
C595 C590 1.304 . S
C595 C594 1.339 . S
C595 H656 0.930 . S
C596 C592 1.567 . S
C596 H657 0.961 . S
C596 H658 0.960 . S
C596 H659 0.958 . S
C597 C594 1.530 . S
C597 H660 0.961 . S
C597 H661 0.960 . S
C597 H662 0.960 . S
C598 C599 1.530 . S
C598 H664 0.961 . S
C598 H665 0.961 . S
C598 H666 0.959 . S
C599 C598 1.530 . S
C599 O627 1.412 . S
C599 H663 0.980 . S
C600 C601 1.288 . S
C600 C605 1.377 . S
C600 O627 1.393 . S
C601 C600 1.288 . S
C601 C602 1.369 . S
C601 H667 0.932 . S
C602 C601 1.369 . S
C602 C603 1.398 . S
C602 C606 1.527 . S
C603 C602 1.398 . S
C603 C604 1.380 . S
C603 C617 1.497 . S
C604 C603 1.380 . S
C604 C605 1.383 . S
C604 C607 1.603 . S
C605 C600 1.377 . S
C605 C604 1.383 . S
C605 H668 0.929 . S
C606 C602 1.527 . S
C606 H669 0.961 . S
C606 H670 0.959 . S
C606 H671 0.959 . S
C607 C604 1.603 . S
C607 H672 0.960 . S
C607 H673 0.962 . S
C607 H674 0.961 . S
C608 C575 1.587 . S
C608 C609 1.360 . S
C608 C621 1.412 . S
C609 C608 1.360 . S
C609 C610 1.365 . S
C609 H675 0.929 . S
C610 C585 1.553 . S
C610 C609 1.365 . S
C610 C611 1.404 . S
C611 C610 1.404 . S
C611 C612 1.395 . S
C611 C622 1.451 . S
C612 C611 1.395 . S
C612 C613 1.322 . S
C612 H676 0.930 . S
C613 C612 1.322 . S
C613 C614 1.459 . S
C613 H677 0.929 . S
C614 C613 1.459 . S
C614 C615 1.445 . S
C614 C623 1.395 . S
C615 C593 1.432 . S
C615 C614 1.445 . S
C615 C616 1.370 . S
C616 C615 1.370 . S
C616 C617 1.438 . S
C616 H678 0.930 . S
C617 C603 1.497 . S
C617 C616 1.438 . S
C617 C618 1.360 . S
C618 C617 1.360 . S
C618 C619 1.401 . S
C618 C623 1.446 . S
C619 C618 1.401 . S
C619 C620 1.347 . S
C619 H679 0.929 . S
C620 C619 1.347 . S
C620 C621 1.455 . S
C620 H680 0.930 . S
C621 C608 1.412 . S
C621 C620 1.455 . S
C621 C622 1.331 . S
C622 C611 1.451 . S
C622 C621 1.331 . S
C622 C623 1.497 . S
C623 C614 1.395 . S
C623 C618 1.446 . S
C623 C622 1.497 . S
C624 C625 1.582 . S
C624 H681 0.962 . S
C624 H682 0.959 . S
C624 H683 0.958 . S
C625 C624 1.582 . S
C625 O628 1.458 . S
C625 H654 0.980 . S
O626 C571 1.426 . S
O626 C572 1.334 . S
O627 C599 1.412 . S
O627 C600 1.393 . S
O628 C590 1.435 . S
O628 C625 1.458 . S
O629 C581 1.468 . S
O629 C582 1.408 . S
H630 C571 0.980 . S
H631 C570 0.959 . S
H632 C570 0.959 . S
H633 C570 0.960 . S
H634 C573 0.929 . S
H635 C577 0.929 . S
H636 C578 0.959 . S
H637 C578 0.961 . S
H638 C578 0.961 . S
H639 C579 0.960 . S
H640 C579 0.960 . S
H641 C579 0.961 . S
H642 C581 0.980 . S
H643 C580 0.961 . S
H644 C580 0.960 . S
H645 C580 0.959 . S
H646 C583 0.930 . S
H647 C587 0.931 . S
H648 C588 0.959 . S
H649 C588 0.961 . S
H650 C588 0.959 . S
H651 C589 0.960 . S
H652 C589 0.960 . S
H653 C589 0.960 . S
H654 C625 0.980 . S
H655 C591 0.930 . S
H656 C595 0.930 . S
H657 C596 0.961 . S
H658 C596 0.960 . S
H659 C596 0.958 . S
H660 C597 0.961 . S
H661 C597 0.960 . S
H662 C597 0.960 . S
H663 C599 0.980 . S
H664 C598 0.961 . S
H665 C598 0.961 . S
H666 C598 0.959 . S
H667 C601 0.932 . S
H668 C605 0.929 . S
H669 C606 0.961 . S
H670 C606 0.959 . S
H671 C606 0.959 . S
H672 C607 0.960 . S
H673 C607 0.962 . S
H674 C607 0.961 . S
H675 C609 0.929 . S
H676 C612 0.930 . S
H677 C613 0.929 . S
H678 C616 0.930 . S
H679 C619 0.929 . S
H680 C620 0.930 . S
H681 C624 0.962 . S
H682 C624 0.959 . S
H683 C624 0.958 . S
Mn684 O689 2.095 . S
Mn684 O699 2.162 . S
Mn684 O700 2.297 . S
Mn684 O708 2.385 . S
Mn684 O709 2.209 . S
Mn684 O710 2.094 . S
Mn685 O690 2.121 . S
Mn685 N692 2.257 . S
Mn685 N701 2.282 . S
Mn685 O709 2.215 . S
Mn685 O711 2.117 . S
C686 O708 1.234 . S
C686 O709 1.283 . S
C687 O699 1.281 . S
C687 O700 1.236 . S
C688 O710 1.240 . S
C688 O711 1.264 . S
O689 Mn684 2.095 . S
O689 C698 1.250 . S
O690 Mn685 2.121 . S
O690 C698 1.258 . S
C691 N692 1.326 . S
C691 C695 1.460 . S
C691 H697 0.929 . S
N692 Mn685 2.257 . S
N692 C691 1.326 . S
N692 C696 1.362 . S
C693 C694 1.258 . S
C693 C696 1.431 . S
C693 C713 1.449 . S
C694 C693 1.258 . S
C694 C695 1.477 . S
C694 H714 0.931 . S
C695 C691 1.460 . S
C695 C694 1.477 . S
C695 H715 0.930 . S
C696 N692 1.362 . S
C696 C693 1.431 . S
C696 C706 1.476 . S
H697 C691 0.929 . S
C698 O689 1.250 . S
C698 O690 1.258 . S
O699 Mn684 2.162 . S
O699 C687 1.281 . S
O700 Mn684 2.297 . S
O700 C687 1.236 . S
N701 Mn685 2.282 . S
N701 C702 1.328 . S
N701 C706 1.318 . S
C702 N701 1.328 . S
C702 C703 1.457 . S
C702 H707 0.929 . S
C703 C702 1.457 . S
C703 C704 1.291 . S
C703 H716 0.931 . S
C704 C703 1.291 . S
C704 C705 1.373 . S
C704 H717 0.929 . S
C705 C704 1.373 . S
C705 C706 1.396 . S
C705 C712 1.403 . S
C706 C696 1.476 . S
C706 N701 1.318 . S
C706 C705 1.396 . S
H707 C702 0.929 . S
O708 Mn684 2.385 . S
O708 C686 1.234 . S
O709 Mn684 2.209 . S
O709 Mn685 2.215 . S
O709 C686 1.283 . S
O710 Mn684 2.094 . S
O710 C688 1.240 . S
O711 Mn685 2.117 . S
O711 C688 1.264 . S
C712 C705 1.403 . S
C712 C713 1.399 . S
C712 H718 0.929 . S
C713 C693 1.449 . S
C713 C712 1.399 . S
C713 H719 0.930 . S
H714 C694 0.931 . S
H715 C695 0.930 . S
H716 C703 0.931 . S
H717 C704 0.929 . S
H718 C712 0.929 . S
H719 C713 0.930 . S
Mn720 O725 2.095 . S
Mn720 O735 2.162 . S
Mn720 O736 2.297 . S
Mn720 O744 2.385 . S
Mn720 O745 2.209 . S
Mn720 O746 2.094 . S
Mn721 O726 2.121 . S
Mn721 N728 2.257 . S
Mn721 N737 2.282 . S
Mn721 O745 2.215 . S
Mn721 O747 2.117 . S
C722 O744 1.234 . S
C722 O745 1.283 . S
C723 O735 1.281 . S
C723 O736 1.236 . S
C724 O746 1.240 . S
C724 O747 1.264 . S
O725 Mn720 2.095 . S
O725 C734 1.250 . S
O726 Mn721 2.121 . S
O726 C734 1.258 . S
C727 N728 1.326 . S
C727 C731 1.460 . S
C727 H733 0.929 . S
N728 Mn721 2.257 . S
N728 C727 1.326 . S
N728 C732 1.362 . S
C729 C730 1.258 . S
C729 C732 1.431 . S
C729 C749 1.449 . S
C730 C729 1.258 . S
C730 C731 1.477 . S
C730 H750 0.931 . S
C731 C727 1.460 . S
C731 C730 1.477 . S
C731 H751 0.930 . S
C732 N728 1.362 . S
C732 C729 1.431 . S
C732 C742 1.476 . S
H733 C727 0.929 . S
C734 O725 1.250 . S
C734 O726 1.258 . S
O735 Mn720 2.162 . S
O735 C723 1.281 . S
O736 Mn720 2.297 . S
O736 C723 1.236 . S
N737 Mn721 2.282 . S
N737 C738 1.328 . S
N737 C742 1.318 . S
C738 N737 1.328 . S
C738 C739 1.457 . S
C738 H743 0.929 . S
C739 C738 1.457 . S
C739 C740 1.291 . S
C739 H752 0.931 . S
C740 C739 1.291 . S
C740 C741 1.373 . S
C740 H753 0.929 . S
C741 C740 1.373 . S
C741 C742 1.396 . S
C741 C748 1.403 . S
C742 C732 1.476 . S
C742 N737 1.318 . S
C742 C741 1.396 . S
H743 C738 0.929 . S
O744 Mn720 2.385 . S
O744 C722 1.234 . S
O745 Mn720 2.209 . S
O745 Mn721 2.215 . S
O745 C722 1.283 . S
O746 Mn720 2.094 . S
O746 C724 1.240 . S
O747 Mn721 2.117 . S
O747 C724 1.264 . S
C748 C741 1.403 . S
C748 C749 1.399 . S
C748 H754 0.929 . S
C749 C729 1.449 . S
C749 C748 1.399 . S
C749 H755 0.930 . S
H750 C730 0.931 . S
H751 C731 0.930 . S
H752 C739 0.931 . S
H753 C740 0.929 . S
H754 C748 0.929 . S
H755 C749 0.930 . S
Mn756 O761 2.095 . S
Mn756 O771 2.162 . S
Mn756 O772 2.297 . S
Mn756 O780 2.385 . S
Mn756 O781 2.209 . S
Mn756 O782 2.094 . S
Mn757 O762 2.121 . S
Mn757 N764 2.257 . S
Mn757 N773 2.282 . S
Mn757 O781 2.215 . S
Mn757 O783 2.117 . S
C758 O780 1.234 . S
C758 O781 1.283 . S
C759 O771 1.281 . S
C759 O772 1.236 . S
C760 O782 1.240 . S
C760 O783 1.264 . S
O761 Mn756 2.095 . S
O761 C770 1.250 . S
O762 Mn757 2.121 . S
O762 C770 1.258 . S
C763 N764 1.326 . S
C763 C767 1.460 . S
C763 H769 0.929 . S
N764 Mn757 2.257 . S
N764 C763 1.326 . S
N764 C768 1.362 . S
C765 C766 1.258 . S
C765 C768 1.431 . S
C765 C785 1.449 . S
C766 C765 1.258 . S
C766 C767 1.477 . S
C766 H786 0.931 . S
C767 C763 1.460 . S
C767 C766 1.477 . S
C767 H787 0.930 . S
C768 N764 1.362 . S
C768 C765 1.431 . S
C768 C778 1.476 . S
H769 C763 0.929 . S
C770 O761 1.250 . S
C770 O762 1.258 . S
O771 Mn756 2.162 . S
O771 C759 1.281 . S
O772 Mn756 2.297 . S
O772 C759 1.236 . S
N773 Mn757 2.282 . S
N773 C774 1.328 . S
N773 C778 1.318 . S
C774 N773 1.328 . S
C774 C775 1.457 . S
C774 H779 0.929 . S
C775 C774 1.457 . S
C775 C776 1.291 . S
C775 H788 0.931 . S
C776 C775 1.291 . S
C776 C777 1.373 . S
C776 H789 0.929 . S
C777 C776 1.373 . S
C777 C778 1.396 . S
C777 C784 1.403 . S
C778 C768 1.476 . S
C778 N773 1.318 . S
C778 C777 1.396 . S
H779 C774 0.929 . S
O780 Mn756 2.385 . S
O780 C758 1.234 . S
O781 Mn756 2.209 . S
O781 Mn757 2.215 . S
O781 C758 1.283 . S
O782 Mn756 2.094 . S
O782 C760 1.240 . S
O783 Mn757 2.117 . S
O783 C760 1.264 . S
C784 C777 1.403 . S
C784 C785 1.399 . S
C784 H790 0.929 . S
C785 C765 1.449 . S
C785 C784 1.399 . S
C785 H791 0.930 . S
H786 C766 0.931 . S
H787 C767 0.930 . S
H788 C775 0.931 . S
H789 C776 0.929 . S
H790 C784 0.929 . S
H791 C785 0.930 . S
Mn792 O797 2.095 . S
Mn792 O807 2.162 . S
Mn792 O808 2.297 . S
Mn792 O816 2.385 . S
Mn792 O817 2.209 . S
Mn792 O818 2.094 . S
Mn793 O798 2.121 . S
Mn793 N800 2.257 . S
Mn793 N809 2.282 . S
Mn793 O817 2.215 . S
Mn793 O819 2.117 . S
C794 O816 1.234 . S
C794 O817 1.283 . S
C795 O807 1.281 . S
C795 O808 1.236 . S
C796 O818 1.240 . S
C796 O819 1.264 . S
O797 Mn792 2.095 . S
O797 C806 1.250 . S
O798 Mn793 2.121 . S
O798 C806 1.258 . S
C799 N800 1.326 . S
C799 C803 1.460 . S
C799 H805 0.929 . S
N800 Mn793 2.257 . S
N800 C799 1.326 . S
N800 C804 1.362 . S
C801 C802 1.258 . S
C801 C804 1.431 . S
C801 C821 1.449 . S
C802 C801 1.258 . S
C802 C803 1.477 . S
C802 H822 0.931 . S
C803 C799 1.460 . S
C803 C802 1.477 . S
C803 H823 0.930 . S
C804 N800 1.362 . S
C804 C801 1.431 . S
C804 C814 1.476 . S
H805 C799 0.929 . S
C806 O797 1.250 . S
C806 O798 1.258 . S
O807 Mn792 2.162 . S
O807 C795 1.281 . S
O808 Mn792 2.297 . S
O808 C795 1.236 . S
N809 Mn793 2.282 . S
N809 C810 1.328 . S
N809 C814 1.318 . S
C810 N809 1.328 . S
C810 C811 1.457 . S
C810 H815 0.929 . S
C811 C810 1.457 . S
C811 C812 1.291 . S
C811 H824 0.931 . S
C812 C811 1.291 . S
C812 C813 1.373 . S
C812 H825 0.929 . S
C813 C812 1.373 . S
C813 C814 1.396 . S
C813 C820 1.403 . S
C814 C804 1.476 . S
C814 N809 1.318 . S
C814 C813 1.396 . S
H815 C810 0.929 . S
O816 Mn792 2.385 . S
O816 C794 1.234 . S
O817 Mn792 2.209 . S
O817 Mn793 2.215 . S
O817 C794 1.283 . S
O818 Mn792 2.094 . S
O818 C796 1.240 . S
O819 Mn793 2.117 . S
O819 C796 1.264 . S
C820 C813 1.403 . S
C820 C821 1.399 . S
C820 H826 0.929 . S
C821 C801 1.449 . S
C821 C820 1.399 . S
C821 H827 0.930 . S
H822 C802 0.931 . S
H823 C803 0.930 . S
H824 C811 0.931 . S
H825 C812 0.929 . S
H826 C820 0.929 . S
H827 C821 0.930 . S
Mn828 O833 2.095 . S
Mn828 O843 2.162 . S
Mn828 O844 2.297 . S
Mn828 O852 2.385 . S
Mn828 O853 2.209 . S
Mn828 O854 2.094 . S
Mn829 O834 2.121 . S
Mn829 N836 2.257 . S
Mn829 N845 2.282 . S
Mn829 O853 2.215 . S
Mn829 O855 2.117 . S
C830 O852 1.234 . S
C830 O853 1.283 . S
C831 O843 1.281 . S
C831 O844 1.236 . S
C832 O854 1.240 . S
C832 O855 1.264 . S
O833 Mn828 2.095 . S
O833 C842 1.250 . S
O834 Mn829 2.121 . S
O834 C842 1.258 . S
C835 N836 1.326 . S
C835 C839 1.460 . S
C835 H841 0.929 . S
N836 Mn829 2.257 . S
N836 C835 1.326 . S
N836 C840 1.362 . S
C837 C838 1.258 . S
C837 C840 1.431 . S
C837 C857 1.449 . S
C838 C837 1.258 . S
C838 C839 1.477 . S
C838 H858 0.931 . S
C839 C835 1.460 . S
C839 C838 1.477 . S
C839 H859 0.930 . S
C840 N836 1.362 . S
C840 C837 1.431 . S
C840 C850 1.476 . S
H841 C835 0.929 . S
C842 O833 1.250 . S
C842 O834 1.258 . S
O843 Mn828 2.162 . S
O843 C831 1.281 . S
O844 Mn828 2.297 . S
O844 C831 1.236 . S
N845 Mn829 2.282 . S
N845 C846 1.328 . S
N845 C850 1.318 . S
C846 N845 1.328 . S
C846 C847 1.457 . S
C846 H851 0.929 . S
C847 C846 1.457 . S
C847 C848 1.291 . S
C847 H860 0.931 . S
C848 C847 1.291 . S
C848 C849 1.373 . S
C848 H861 0.929 . S
C849 C848 1.373 . S
C849 C850 1.396 . S
C849 C856 1.403 . S
C850 C840 1.476 . S
C850 N845 1.318 . S
C850 C849 1.396 . S
H851 C846 0.929 . S
O852 Mn828 2.385 . S
O852 C830 1.234 . S
O853 Mn828 2.209 . S
O853 Mn829 2.215 . S
O853 C830 1.283 . S
O854 Mn828 2.094 . S
O854 C832 1.240 . S
O855 Mn829 2.117 . S
O855 C832 1.264 . S
C856 C849 1.403 . S
C856 C857 1.399 . S
C856 H862 0.929 . S
C857 C837 1.449 . S
C857 C856 1.399 . S
C857 H863 0.930 . S
H858 C838 0.931 . S
H859 C839 0.930 . S
H860 C847 0.931 . S
H861 C848 0.929 . S
H862 C856 0.929 . S
H863 C857 0.930 . S
Mn864 O869 2.095 . S
Mn864 O879 2.162 . S
Mn864 O880 2.297 . S
Mn864 O888 2.385 . S
Mn864 O889 2.209 . S
Mn864 O890 2.094 . S
Mn865 O870 2.121 . S
Mn865 N872 2.257 . S
Mn865 N881 2.282 . S
Mn865 O889 2.215 . S
Mn865 O891 2.117 . S
C866 O888 1.234 . S
C866 O889 1.283 . S
C867 O879 1.281 . S
C867 O880 1.236 . S
C868 O890 1.240 . S
C868 O891 1.264 . S
O869 Mn864 2.095 . S
O869 C878 1.250 . S
O870 Mn865 2.121 . S
O870 C878 1.258 . S
C871 N872 1.326 . S
C871 C875 1.460 . S
C871 H877 0.929 . S
N872 Mn865 2.257 . S
N872 C871 1.326 . S
N872 C876 1.362 . S
C873 C874 1.258 . S
C873 C876 1.431 . S
C873 C893 1.449 . S
C874 C873 1.258 . S
C874 C875 1.477 . S
C874 H894 0.931 . S
C875 C871 1.460 . S
C875 C874 1.477 . S
C875 H895 0.930 . S
C876 N872 1.362 . S
C876 C873 1.431 . S
C876 C886 1.476 . S
H877 C871 0.929 . S
C878 O869 1.250 . S
C878 O870 1.258 . S
O879 Mn864 2.162 . S
O879 C867 1.281 . S
O880 Mn864 2.297 . S
O880 C867 1.236 . S
N881 Mn865 2.282 . S
N881 C882 1.328 . S
N881 C886 1.318 . S
C882 N881 1.328 . S
C882 C883 1.457 . S
C882 H887 0.929 . S
C883 C882 1.457 . S
C883 C884 1.291 . S
C883 H896 0.931 . S
C884 C883 1.291 . S
C884 C885 1.373 . S
C884 H897 0.929 . S
C885 C884 1.373 . S
C885 C886 1.396 . S
C885 C892 1.403 . S
C886 C876 1.476 . S
C886 N881 1.318 . S
C886 C885 1.396 . S
H887 C882 0.929 . S
O888 Mn864 2.385 . S
O888 C866 1.234 . S
O889 Mn864 2.209 . S
O889 Mn865 2.215 . S
O889 C866 1.283 . S
O890 Mn864 2.094 . S
O890 C868 1.240 . S
O891 Mn865 2.117 . S
O891 C868 1.264 . S
C892 C885 1.403 . S
C892 C893 1.399 . S
C892 H898 0.929 . S
C893 C873 1.449 . S
C893 C892 1.399 . S
C893 H899 0.930 . S
H894 C874 0.931 . S
H895 C875 0.930 . S
H896 C883 0.931 . S
H897 C884 0.929 . S
H898 C892 0.929 . S
H899 C893 0.930 . S
C900 C901 1.363 . S
C900 C906 1.379 . S
C900 N908 1.356 . S
C901 C900 1.363 . S
C901 C907 1.363 . S
C902 C903 1.363 . S
C902 C907 1.379 . S
C902 N909 1.356 . S
C903 C902 1.363 . S
C903 C906 1.363 . S
N904 C906 1.356 . S
N904 H916 0.984 . S
N904 H917 0.985 . S
N905 C907 1.356 . S
N905 H910 0.984 . S
N905 H911 0.985 . S
C906 C900 1.379 . S
C906 C903 1.363 . S
C906 N904 1.356 . S
C907 C901 1.363 . S
C907 C902 1.379 . S
C907 N905 1.356 . S
N908 C900 1.356 . S
N908 H914 0.984 . S
N908 H915 0.984 . S
N909 C902 1.356 . S
N909 H912 0.984 . S
N909 H913 0.985 . S
H910 N905 0.984 . S
H911 N905 0.985 . S
H912 N909 0.984 . S
H913 N909 0.985 . S
H914 N908 0.984 . S
H915 N908 0.984 . S
H916 N904 0.984 . S
H917 N904 0.985 . S
C918 C919 1.363 . S
C918 C924 1.379 . S
C918 N926 1.356 . S
C919 C918 1.363 . S
C919 C925 1.363 . S
C920 C921 1.363 . S
C920 C925 1.379 . S
C920 N927 1.356 . S
C921 C920 1.363 . S
C921 C924 1.363 . S
N922 C924 1.356 . S
N922 H934 0.984 . S
N922 H935 0.985 . S
N923 C925 1.356 . S
N923 H928 0.984 . S
N923 H929 0.985 . S
C924 C918 1.379 . S
C924 C921 1.363 . S
C924 N922 1.356 . S
C925 C919 1.363 . S
C925 C920 1.379 . S
C925 N923 1.356 . S
N926 C918 1.356 . S
N926 H932 0.984 . S
N926 H933 0.984 . S
N927 C920 1.356 . S
N927 H930 0.984 . S
N927 H931 0.985 . S
H928 N923 0.984 . S
H929 N923 0.985 . S
H930 N927 0.984 . S
H931 N927 0.985 . S
H932 N926 0.984 . S
H933 N926 0.984 . S
H934 N922 0.984 . S
H935 N922 0.985 . S
C936 C937 1.363 . S
C936 C942 1.379 . S
C936 N944 1.356 . S
C937 C936 1.363 . S
C937 C943 1.363 . S
C938 C939 1.363 . S
C938 C943 1.379 . S
C938 N945 1.356 . S
C939 C938 1.363 . S
C939 C942 1.363 . S
N940 C942 1.356 . S
N940 H952 0.984 . S
N940 H953 0.985 . S
N941 C943 1.356 . S
N941 H946 0.984 . S
N941 H947 0.985 . S
C942 C936 1.379 . S
C942 C939 1.363 . S
C942 N940 1.356 . S
C943 C937 1.363 . S
C943 C938 1.379 . S
C943 N941 1.356 . S
N944 C936 1.356 . S
N944 H950 0.984 . S
N944 H951 0.984 . S
N945 C938 1.356 . S
N945 H948 0.984 . S
N945 H949 0.985 . S
H946 N941 0.984 . S
H947 N941 0.985 . S
H948 N945 0.984 . S
H949 N945 0.985 . S
H950 N944 0.984 . S
H951 N944 0.984 . S
H952 N940 0.984 . S
H953 N940 0.985 . S
C954 C955 1.363 . S
C954 C960 1.379 . S
C954 N962 1.356 . S
C955 C954 1.363 . S
C955 C961 1.363 . S
C956 C957 1.363 . S
C956 C961 1.379 . S
C956 N963 1.356 . S
C957 C956 1.363 . S
C957 C960 1.363 . S
N958 C960 1.356 . S
N958 H970 0.984 . S
N958 H971 0.985 . S
N959 C961 1.356 . S
N959 H964 0.984 . S
N959 H965 0.985 . S
C960 C954 1.379 . S
C960 C957 1.363 . S
C960 N958 1.356 . S
C961 C955 1.363 . S
C961 C956 1.379 . S
C961 N959 1.356 . S
N962 C954 1.356 . S
N962 H968 0.984 . S
N962 H969 0.984 . S
N963 C956 1.356 . S
N963 H966 0.984 . S
N963 H967 0.985 . S
H964 N959 0.984 . S
H965 N959 0.985 . S
H966 N963 0.984 . S
H967 N963 0.985 . S
H968 N962 0.984 . S
H969 N962 0.984 . S
H970 N958 0.984 . S
H971 N958 0.985 . S
C972 C973 1.363 . S
C972 C978 1.379 . S
C972 N980 1.356 . S
C973 C972 1.363 . S
C973 C979 1.363 . S
C974 C975 1.363 . S
C974 C979 1.379 . S
C974 N981 1.356 . S
C975 C974 1.363 . S
C975 C978 1.363 . S
N976 C978 1.356 . S
N976 H988 0.984 . S
N976 H989 0.985 . S
N977 C979 1.356 . S
N977 H982 0.984 . S
N977 H983 0.985 . S
C978 C972 1.379 . S
C978 C975 1.363 . S
C978 N976 1.356 . S
C979 C973 1.363 . S
C979 C974 1.379 . S
C979 N977 1.356 . S
N980 C972 1.356 . S
N980 H986 0.984 . S
N980 H987 0.984 . S
N981 C974 1.356 . S
N981 H984 0.984 . S
N981 H985 0.985 . S
H982 N977 0.984 . S
H983 N977 0.985 . S
H984 N981 0.984 . S
H985 N981 0.985 . S
H986 N980 0.984 . S
H987 N980 0.984 . S
H988 N976 0.984 . S
H989 N976 0.985 . S
C990 C991 1.363 . S
C990 C996 1.379 . S
C990 N998 1.356 . S
C991 C990 1.363 . S
C991 C997 1.363 . S
C992 C993 1.363 . S
C992 C997 1.379 . S
C992 N999 1.356 . S
C993 C992 1.363 . S
C993 C996 1.363 . S
N994 C996 1.356 . S
N994 H1006 0.984 . S
N994 H1007 0.985 . S
N995 C997 1.356 . S
N995 H1000 0.984 . S
N995 H1001 0.985 . S
C996 C990 1.379 . S
C996 C993 1.363 . S
C996 N994 1.356 . S
C997 C991 1.363 . S
C997 C992 1.379 . S
C997 N995 1.356 . S
N998 C990 1.356 . S
N998 H1004 0.984 . S
N998 H1005 0.984 . S
N999 C992 1.356 . S
N999 H1002 0.984 . S
N999 H1003 0.985 . S
H1000 N995 0.984 . S
H1001 N995 0.985 . S
H1002 N999 0.984 . S
H1003 N999 0.985 . S
H1004 N998 0.984 . S
H1005 N998 0.984 . S
H1006 N994 0.984 . S
H1007 N994 0.985 . S
C1008 C1009 1.363 . S
C1008 C1014 1.379 . S
C1008 N1016 1.356 . S
C1009 C1008 1.363 . S
C1009 C1015 1.363 . S
C1010 C1011 1.363 . S
C1010 C1015 1.379 . S
C1010 N1017 1.356 . S
C1011 C1010 1.363 . S
C1011 C1014 1.363 . S
N1012 C1014 1.356 . S
N1012 H1024 0.984 . S
N1012 H1025 0.985 . S
N1013 C1015 1.356 . S
N1013 H1018 0.984 . S
N1013 H1019 0.985 . S
C1014 C1008 1.379 . S
C1014 C1011 1.363 . S
C1014 N1012 1.356 . S
C1015 C1009 1.363 . S
C1015 C1010 1.379 . S
C1015 N1013 1.356 . S
N1016 C1008 1.356 . S
N1016 H1022 0.984 . S
N1016 H1023 0.984 . S
N1017 C1010 1.356 . S
N1017 H1020 0.984 . S
N1017 H1021 0.985 . S
H1018 N1013 0.984 . S
H1019 N1013 0.985 . S
H1020 N1017 0.984 . S
H1021 N1017 0.985 . S
H1022 N1016 0.984 . S
H1023 N1016 0.984 . S
H1024 N1012 0.984 . S
H1025 N1012 0.985 . S
C1026 C1027 1.363 . S
C1026 C1032 1.379 . S
C1026 N1034 1.356 . S
C1027 C1026 1.363 . S
C1027 C1033 1.363 . S
C1028 C1029 1.363 . S
C1028 C1033 1.379 . S
C1028 N1035 1.356 . S
C1029 C1028 1.363 . S
C1029 C1032 1.363 . S
N1030 C1032 1.356 . S
N1030 H1042 0.984 . S
N1030 H1043 0.985 . S
N1031 C1033 1.356 . S
N1031 H1036 0.984 . S
N1031 H1037 0.985 . S
C1032 C1026 1.379 . S
C1032 C1029 1.363 . S
C1032 N1030 1.356 . S
C1033 C1027 1.363 . S
C1033 C1028 1.379 . S
C1033 N1031 1.356 . S
N1034 C1026 1.356 . S
N1034 H1040 0.984 . S
N1034 H1041 0.984 . S
N1035 C1028 1.356 . S
N1035 H1038 0.984 . S
N1035 H1039 0.985 . S
H1036 N1031 0.984 . S
H1037 N1031 0.985 . S
H1038 N1035 0.984 . S
H1039 N1035 0.985 . S
H1040 N1034 0.984 . S
H1041 N1034 0.984 . S
H1042 N1030 0.984 . S
H1043 N1030 0.985 . S
C1044 C1045 1.363 . S
C1044 C1050 1.379 . S
C1044 N1052 1.356 . S
C1045 C1044 1.363 . S
C1045 C1051 1.363 . S
C1046 C1047 1.363 . S
C1046 C1051 1.379 . S
C1046 N1053 1.356 . S
C1047 C1046 1.363 . S
C1047 C1050 1.363 . S
N1048 C1050 1.356 . S
N1048 H1060 0.984 . S
N1048 H1061 0.985 . S
N1049 C1051 1.356 . S
N1049 H1054 0.984 . S
N1049 H1055 0.985 . S
C1050 C1044 1.379 . S
C1050 C1047 1.363 . S
C1050 N1048 1.356 . S
C1051 C1045 1.363 . S
C1051 C1046 1.379 . S
C1051 N1049 1.356 . S
N1052 C1044 1.356 . S
N1052 H1058 0.984 . S
N1052 H1059 0.984 . S
N1053 C1046 1.356 . S
N1053 H1056 0.984 . S
N1053 H1057 0.985 . S
H1054 N1049 0.984 . S
H1055 N1049 0.985 . S
H1056 N1053 0.984 . S
H1057 N1053 0.985 . S
H1058 N1052 0.984 . S
H1059 N1052 0.984 . S
H1060 N1048 0.984 . S
H1061 N1048 0.985 . S
C1062 C1063 1.363 . S
C1062 C1068 1.379 . S
C1062 N1070 1.356 . S
C1063 C1062 1.363 . S
C1063 C1069 1.363 . S
C1064 C1065 1.363 . S
C1064 C1069 1.379 . S
C1064 N1071 1.356 . S
C1065 C1064 1.363 . S
C1065 C1068 1.363 . S
N1066 C1068 1.356 . S
N1066 H1078 0.984 . S
N1066 H1079 0.985 . S
N1067 C1069 1.356 . S
N1067 H1072 0.984 . S
N1067 H1073 0.985 . S
C1068 C1062 1.379 . S
C1068 C1065 1.363 . S
C1068 N1066 1.356 . S
C1069 C1063 1.363 . S
C1069 C1064 1.379 . S
C1069 N1067 1.356 . S
N1070 C1062 1.356 . S
N1070 H1076 0.984 . S
N1070 H1077 0.984 . S
N1071 C1064 1.356 . S
N1071 H1074 0.984 . S
N1071 H1075 0.985 . S
H1072 N1067 0.984 . S
H1073 N1067 0.985 . S
H1074 N1071 0.984 . S
H1075 N1071 0.985 . S
H1076 N1070 0.984 . S
H1077 N1070 0.984 . S
H1078 N1066 0.984 . S
H1079 N1066 0.985 . S
C1080 C1081 1.363 . S
C1080 C1086 1.379 . S
C1080 N1088 1.356 . S
C1081 C1080 1.363 . S
C1081 C1087 1.363 . S
C1082 C1083 1.363 . S
C1082 C1087 1.379 . S
C1082 N1089 1.356 . S
C1083 C1082 1.363 . S
C1083 C1086 1.363 . S
N1084 C1086 1.356 . S
N1084 H1096 0.984 . S
N1084 H1097 0.985 . S
N1085 C1087 1.356 . S
N1085 H1090 0.984 . S
N1085 H1091 0.985 . S
C1086 C1080 1.379 . S
C1086 C1083 1.363 . S
C1086 N1084 1.356 . S
C1087 C1081 1.363 . S
C1087 C1082 1.379 . S
C1087 N1085 1.356 . S
N1088 C1080 1.356 . S
N1088 H1094 0.984 . S
N1088 H1095 0.984 . S
N1089 C1082 1.356 . S
N1089 H1092 0.984 . S
N1089 H1093 0.985 . S
H1090 N1085 0.984 . S
H1091 N1085 0.985 . S
H1092 N1089 0.984 . S
H1093 N1089 0.985 . S
H1094 N1088 0.984 . S
H1095 N1088 0.984 . S
H1096 N1084 0.984 . S
H1097 N1084 0.985 . S
C1098 C1099 1.363 . S
C1098 C1104 1.379 . S
C1098 N1106 1.356 . S
C1099 C1098 1.363 . S
C1099 C1105 1.363 . S
C1100 C1101 1.363 . S
C1100 C1105 1.379 . S
C1100 N1107 1.356 . S
C1101 C1100 1.363 . S
C1101 C1104 1.363 . S
N1102 C1104 1.356 . S
N1102 H1114 0.984 . S
N1102 H1115 0.985 . S
N1103 C1105 1.356 . S
N1103 H1108 0.984 . S
N1103 H1109 0.985 . S
C1104 C1098 1.379 . S
C1104 C1101 1.363 . S
C1104 N1102 1.356 . S
C1105 C1099 1.363 . S
C1105 C1100 1.379 . S
C1105 N1103 1.356 . S
N1106 C1098 1.356 . S
N1106 H1112 0.984 . S
N1106 H1113 0.984 . S
N1107 C1100 1.356 . S
N1107 H1110 0.984 . S
N1107 H1111 0.985 . S
H1108 N1103 0.984 . S
H1109 N1103 0.985 . S
H1110 N1107 0.984 . S
H1111 N1107 0.985 . S
H1112 N1106 0.984 . S
H1113 N1106 0.984 . S
H1114 N1102 0.984 . S
H1115 N1102 0.985 . S
C1116 C1117 1.363 . S
C1116 C1122 1.379 . S
C1116 N1124 1.356 . S
C1117 C1116 1.363 . S
C1117 C1123 1.363 . S
C1118 C1119 1.363 . S
C1118 C1123 1.379 . S
C1118 N1125 1.356 . S
C1119 C1118 1.363 . S
C1119 C1122 1.363 . S
N1120 C1122 1.356 . S
N1120 H1132 0.984 . S
N1120 H1133 0.985 . S
N1121 C1123 1.356 . S
N1121 H1126 0.984 . S
N1121 H1127 0.985 . S
C1122 C1116 1.379 . S
C1122 C1119 1.363 . S
C1122 N1120 1.356 . S
C1123 C1117 1.363 . S
C1123 C1118 1.379 . S
C1123 N1121 1.356 . S
N1124 C1116 1.356 . S
N1124 H1130 0.984 . S
N1124 H1131 0.984 . S
N1125 C1118 1.356 . S
N1125 H1128 0.984 . S
N1125 H1129 0.985 . S
H1126 N1121 0.984 . S
H1127 N1121 0.985 . S
H1128 N1125 0.984 . S
H1129 N1125 0.985 . S
H1130 N1124 0.984 . S
H1131 N1124 0.984 . S
H1132 N1120 0.984 . S
H1133 N1120 0.985 . S
C1134 C1135 1.363 . S
C1134 C1140 1.379 . S
C1134 N1142 1.356 . S
C1135 C1134 1.363 . S
C1135 C1141 1.363 . S
C1136 C1137 1.363 . S
C1136 C1141 1.379 . S
C1136 N1143 1.356 . S
C1137 C1136 1.363 . S
C1137 C1140 1.363 . S
N1138 C1140 1.356 . S
N1138 H1150 0.984 . S
N1138 H1151 0.985 . S
N1139 C1141 1.356 . S
N1139 H1144 0.984 . S
N1139 H1145 0.985 . S
C1140 C1134 1.379 . S
C1140 C1137 1.363 . S
C1140 N1138 1.356 . S
C1141 C1135 1.363 . S
C1141 C1136 1.379 . S
C1141 N1139 1.356 . S
N1142 C1134 1.356 . S
N1142 H1148 0.984 . S
N1142 H1149 0.984 . S
N1143 C1136 1.356 . S
N1143 H1146 0.984 . S
N1143 H1147 0.985 . S
H1144 N1139 0.984 . S
H1145 N1139 0.985 . S
H1146 N1143 0.984 . S
H1147 N1143 0.985 . S
H1148 N1142 0.984 . S
H1149 N1142 0.984 . S
H1150 N1138 0.984 . S
H1151 N1138 0.985 . S
C1152 C1153 1.363 . S
C1152 C1158 1.379 . S
C1152 N1160 1.356 . S
C1153 C1152 1.363 . S
C1153 C1159 1.363 . S
C1154 C1155 1.363 . S
C1154 C1159 1.379 . S
C1154 N1161 1.356 . S
C1155 C1154 1.363 . S
C1155 C1158 1.363 . S
N1156 C1158 1.356 . S
N1156 H1168 0.984 . S
N1156 H1169 0.985 . S
N1157 C1159 1.356 . S
N1157 H1162 0.984 . S
N1157 H1163 0.985 . S
C1158 C1152 1.379 . S
C1158 C1155 1.363 . S
C1158 N1156 1.356 . S
C1159 C1153 1.363 . S
C1159 C1154 1.379 . S
C1159 N1157 1.356 . S
N1160 C1152 1.356 . S
N1160 H1166 0.984 . S
N1160 H1167 0.984 . S
N1161 C1154 1.356 . S
N1161 H1164 0.984 . S
N1161 H1165 0.985 . S
H1162 N1157 0.984 . S
H1163 N1157 0.985 . S
H1164 N1161 0.984 . S
H1165 N1161 0.985 . S
H1166 N1160 0.984 . S
H1167 N1160 0.984 . S
H1168 N1156 0.984 . S
H1169 N1156 0.985 . S
C1170 C1171 1.363 . S
C1170 C1176 1.379 . S
C1170 N1178 1.356 . S
C1171 C1170 1.363 . S
C1171 C1177 1.363 . S
C1172 C1173 1.363 . S
C1172 C1177 1.379 1_554 S
C1172 N1179 1.356 . S
C1173 C1172 1.363 . S
C1173 C1176 1.363 1_554 S
N1174 C1176 1.361 . S
N1174 H1186 0.995 . S
N1174 H1187 0.970 1_556 S
N1175 C1177 1.356 . S
N1175 H1180 0.984 . S
N1175 H1181 0.985 1_556 S
C1176 C1170 1.379 . S
C1176 C1173 1.363 1_556 S
C1176 N1174 1.361 . S
C1177 C1171 1.363 . S
C1177 C1172 1.379 1_556 S
C1177 N1175 1.356 . S
N1178 C1170 1.356 . S
N1178 H1184 0.984 . S
N1178 H1185 0.984 . S
N1179 C1172 1.356 . S
N1179 H1182 0.984 . S
N1179 H1183 0.985 . S
H1180 N1175 0.984 . S
H1181 N1175 0.985 1_554 S
H1182 N1179 0.984 . S
H1183 N1179 0.985 . S
H1184 N1178 0.984 . S
H1185 N1178 0.984 . S
H1186 N1174 0.995 . S
H1187 N1174 0.970 1_554 S
C1188 C1189 1.363 . S
C1188 C1194 1.379 . S
C1188 N1196 1.356 . S
C1189 C1188 1.363 . S
C1189 C1195 1.363 . S
C1190 C1191 1.363 . S
C1190 C1195 1.379 . S
C1190 N1197 1.356 . S
C1191 C1190 1.363 . S
C1191 C1194 1.363 . S
N1192 C1194 1.356 . S
N1192 H1204 0.984 . S
N1192 H1205 0.985 . S
N1193 C1195 1.356 . S
N1193 H1198 0.984 . S
N1193 H1199 0.985 . S
C1194 C1188 1.379 . S
C1194 C1191 1.363 . S
C1194 N1192 1.356 . S
C1195 C1189 1.363 . S
C1195 C1190 1.379 . S
C1195 N1193 1.356 . S
N1196 C1188 1.356 . S
N1196 H1202 0.984 . S
N1196 H1203 0.984 . S
N1197 C1190 1.356 . S
N1197 H1200 0.984 . S
N1197 H1201 0.985 . S
H1198 N1193 0.984 . S
H1199 N1193 0.985 . S
H1200 N1197 0.984 . S
H1201 N1197 0.985 . S
H1202 N1196 0.984 . S
H1203 N1196 0.984 . S
H1204 N1192 0.984 . S
H1205 N1192 0.985 . S
C1206 C1207 1.363 . S
C1206 C1212 1.379 . S
C1206 N1214 1.356 . S
C1207 C1206 1.363 . S
C1207 C1213 1.363 . S
C1208 C1209 1.363 . S
C1208 C1213 1.379 . S
C1208 N1215 1.356 . S
C1209 C1208 1.363 . S
C1209 C1212 1.363 . S
N1210 C1212 1.356 . S
N1210 H1222 0.984 . S
N1210 H1223 0.985 . S
N1211 C1213 1.356 . S
N1211 H1216 0.984 . S
N1211 H1217 0.985 . S
C1212 C1206 1.379 . S
C1212 C1209 1.363 . S
C1212 N1210 1.356 . S
C1213 C1207 1.363 . S
C1213 C1208 1.379 . S
C1213 N1211 1.356 . S
N1214 C1206 1.356 . S
N1214 H1220 0.984 . S
N1214 H1221 0.984 . S
N1215 C1208 1.356 . S
N1215 H1218 0.984 . S
N1215 H1219 0.985 . S
H1216 N1211 0.984 . S
H1217 N1211 0.985 . S
H1218 N1215 0.984 . S
H1219 N1215 0.985 . S
H1220 N1214 0.984 . S
H1221 N1214 0.984 . S
H1222 N1210 0.984 . S
H1223 N1210 0.985 . S
C1224 C1225 1.363 . S
C1224 C1230 1.379 . S
C1224 N1232 1.356 . S
C1225 C1224 1.363 . S
C1225 C1231 1.363 . S
C1226 C1227 1.363 . S
C1226 C1231 1.379 . S
C1226 N1233 1.356 . S
C1227 C1226 1.363 . S
C1227 C1230 1.363 . S
N1228 C1230 1.356 . S
N1228 H1240 0.984 . S
N1228 H1241 0.985 . S
N1229 C1231 1.356 . S
N1229 H1234 0.984 . S
N1229 H1235 0.985 . S
C1230 C1224 1.379 . S
C1230 C1227 1.363 . S
C1230 N1228 1.356 . S
C1231 C1225 1.363 . S
C1231 C1226 1.379 . S
C1231 N1229 1.356 . S
N1232 C1224 1.356 . S
N1232 H1238 0.984 . S
N1232 H1239 0.984 . S
N1233 C1226 1.356 . S
N1233 H1236 0.984 . S
N1233 H1237 0.985 . S
H1234 N1229 0.984 . S
H1235 N1229 0.985 . S
H1236 N1233 0.984 . S
H1237 N1233 0.985 . S
H1238 N1232 0.984 . S
H1239 N1232 0.984 . S
H1240 N1228 0.984 . S
H1241 N1228 0.985 . S
C1242 C1243 1.363 . S
C1242 C1248 1.379 . S
C1242 N1250 1.356 . S
C1243 C1242 1.363 . S
C1243 C1249 1.363 . S
C1244 C1245 1.363 . S
C1244 C1249 1.379 . S
C1244 N1251 1.356 . S
C1245 C1244 1.363 . S
C1245 C1248 1.363 . S
N1246 C1248 1.356 . S
N1246 H1258 0.984 . S
N1246 H1259 0.985 . S
N1247 C1249 1.356 . S
N1247 H1252 0.984 . S
N1247 H1253 0.985 . S
C1248 C1242 1.379 . S
C1248 C1245 1.363 . S
C1248 N1246 1.356 . S
C1249 C1243 1.363 . S
C1249 C1244 1.379 . S
C1249 N1247 1.356 . S
N1250 C1242 1.356 . S
N1250 H1256 0.984 . S
N1250 H1257 0.984 . S
N1251 C1244 1.356 . S
N1251 H1254 0.984 . S
N1251 H1255 0.985 . S
H1252 N1247 0.984 . S
H1253 N1247 0.985 . S
H1254 N1251 0.984 . S
H1255 N1251 0.985 . S
H1256 N1250 0.984 . S
H1257 N1250 0.984 . S
H1258 N1246 0.984 . S
H1259 N1246 0.985 . S
C1260 C1261 1.363 . S
C1260 C1266 1.379 . S
C1260 N1268 1.356 . S
C1261 C1260 1.363 . S
C1261 C1267 1.363 . S
C1262 C1263 1.363 . S
C1262 C1267 1.379 . S
C1262 N1269 1.356 . S
C1263 C1262 1.363 . S
C1263 C1266 1.363 . S
N1264 C1266 1.356 . S
N1264 H1276 0.984 . S
N1264 H1277 0.985 . S
N1265 C1267 1.356 . S
N1265 H1270 0.984 . S
N1265 H1271 0.985 . S
C1266 C1260 1.379 . S
C1266 C1263 1.363 . S
C1266 N1264 1.356 . S
C1267 C1261 1.363 . S
C1267 C1262 1.379 . S
C1267 N1265 1.356 . S
N1268 C1260 1.356 . S
N1268 H1274 0.984 . S
N1268 H1275 0.984 . S
N1269 C1262 1.356 . S
N1269 H1272 0.984 . S
N1269 H1273 0.985 . S
H1270 N1265 0.984 . S
H1271 N1265 0.985 . S
H1272 N1269 0.984 . S
H1273 N1269 0.985 . S
H1274 N1268 0.984 . S
H1275 N1268 0.984 . S
H1276 N1264 0.984 . S
H1277 N1264 0.985 . S
C1278 C1279 1.363 . S
C1278 C1284 1.379 . S
C1278 N1286 1.356 . S
C1279 C1278 1.363 . S
C1279 C1285 1.363 . S
C1280 C1281 1.363 . S
C1280 C1285 1.379 . S
C1280 N1287 1.356 . S
C1281 C1280 1.363 . S
C1281 C1284 1.363 . S
N1282 C1284 1.356 . S
N1282 H1294 0.984 . S
N1282 H1295 0.985 . S
N1283 C1285 1.356 . S
N1283 H1288 0.984 . S
N1283 H1289 0.985 . S
C1284 C1278 1.379 . S
C1284 C1281 1.363 . S
C1284 N1282 1.356 . S
C1285 C1279 1.363 . S
C1285 C1280 1.379 . S
C1285 N1283 1.356 . S
N1286 C1278 1.356 . S
N1286 H1292 0.984 . S
N1286 H1293 0.984 . S
N1287 C1280 1.356 . S
N1287 H1290 0.984 . S
N1287 H1291 0.985 . S
H1288 N1283 0.984 . S
H1289 N1283 0.985 . S
H1290 N1287 0.984 . S
H1291 N1287 0.985 . S
H1292 N1286 0.984 . S
H1293 N1286 0.984 . S
H1294 N1282 0.984 . S
H1295 N1282 0.985 . S
C1296 C1297 1.363 . S
C1296 C1302 1.379 1_554 S
C1296 N1304 1.356 . S
C1297 C1296 1.363 . S
C1297 C1303 1.363 1_554 S
C1298 C1299 1.363 . S
C1298 C1303 1.379 . S
C1298 N1305 1.356 . S
C1299 C1298 1.363 . S
C1299 C1302 1.363 . S
N1300 C1302 1.356 . S
N1300 H1312 0.984 . S
N1300 H1313 0.985 . S
N1301 C1303 1.356 . S
N1301 H1306 0.984 1_556 S
N1301 H1307 0.985 . S
C1302 C1296 1.379 1_556 S
C1302 C1299 1.363 . S
C1302 N1300 1.356 . S
C1303 C1297 1.363 1_556 S
C1303 C1298 1.379 . S
C1303 N1301 1.356 . S
N1304 C1296 1.356 . S
N1304 H1310 0.984 . S
N1304 H1311 0.984 . S
N1305 C1298 1.356 . S
N1305 H1308 0.984 . S
N1305 H1309 0.985 . S
H1306 N1301 0.984 1_554 S
H1307 N1301 0.985 . S
H1308 N1305 0.984 . S
H1309 N1305 0.985 . S
H1310 N1304 0.984 . S
H1311 N1304 0.984 . S
H1312 N1300 0.984 . S
H1313 N1300 0.985 . S
C1314 C1315 1.363 . S
C1314 C1320 1.379 . S
C1314 N1322 1.356 . S
C1315 C1314 1.363 . S
C1315 C1321 1.363 . S
C1316 C1317 1.363 . S
C1316 C1321 1.379 . S
C1316 N1323 1.356 . S
C1317 C1316 1.363 . S
C1317 C1320 1.363 . S
N1318 C1320 1.356 . S
N1318 H1330 0.984 . S
N1318 H1331 0.985 . S
N1319 C1321 1.356 . S
N1319 H1324 0.984 . S
N1319 H1325 0.985 . S
C1320 C1314 1.379 . S
C1320 C1317 1.363 . S
C1320 N1318 1.356 . S
C1321 C1315 1.363 . S
C1321 C1316 1.379 . S
C1321 N1319 1.356 . S
N1322 C1314 1.356 . S
N1322 H1328 0.984 . S
N1322 H1329 0.984 . S
N1323 C1316 1.356 . S
N1323 H1326 0.984 . S
N1323 H1327 0.985 . S
H1324 N1319 0.984 . S
H1325 N1319 0.985 . S
H1326 N1323 0.984 . S
H1327 N1323 0.985 . S
H1328 N1322 0.984 . S
H1329 N1322 0.984 . S
H1330 N1318 0.984 . S
H1331 N1318 0.985 . S
C903 C867 1.761 . S
C901 C1 1.306 . S
C919 C169 1.694 . S
C921 C687 1.893 . S
C937 C283 1.651 . S
C939 C734 1.938 . S
C955 C397 1.430 . S
C957 C770 1.698 . S
C975 C795 1.617 . S
C973 C457 1.224 . S
C991 C571 1.227 . S
C993 C831 1.615 . S
C1009 C115 1.347 . S
C1011 C723 1.784 . S
C1027 C229 1.208 . S
C1029 C759 1.641 . S
C1045 C343 1.206 . S
C1047 C806 1.612 . S
C1065 C842 1.802 . S
C1063 C511 1.527 . S
C1083 C878 1.898 . S
C1081 C625 1.628 . S
C1101 C698 1.965 . S
C1099 C55 1.698 . S
C1117 C29 1.143 . S
C1119 C722 1.455 . S
C1135 C125 0.941 . S
C1137 C758 1.522 . S
C1155 C796 1.490 . S
C1153 C239 0.903 . S
C1171 C353 0.904 . S
C1173 C832 1.476 . S
C1191 C868 1.415 . S
C1189 C485 1.081 . S
C1209 C688 1.459 . S
C1207 C599 1.130 . S
C1227 C866 1.444 . S
C1225 C143 1.141 . S
C1243 C257 1.127 . S
C1245 C686 1.452 . S
C1263 C724 1.411 . S
C1261 C371 1.119 . S
C1279 C467 0.912 . S
C1281 C760 1.480 . S
C1297 C581 0.889 . S
C1299 C794 1.497 . S
C1315 C11 0.922 . S
C1317 C830 1.532 . S
