# Generated by pormake.
# Topology tsx, (6,3)-cn, num edge types: 1
# Building blocks:
#     Node 0, Type 0, BuildingBlock: VOLQOD_clean_sbu_1, # of connection points: 6
#     Node 1, Type 0, BuildingBlock: VOLQOD_clean_sbu_1, # of connection points: 6
#     Node 2, Type 1, BuildingBlock: QEWDON_clean_linker_0, # of connection points: 3
#     Node 3, Type 1, BuildingBlock: QEWDON_clean_linker_0, # of connection points: 3
#     Node 4, Type 1, BuildingBlock: QEWDON_clean_linker_0, # of connection points: 3
#     Node 5, Type 1, BuildingBlock: QEWDON_clean_linker_0, # of connection points: 3
#     Edge 6, Type (0, 1), BuildingBlock: FUNLAD_clean_linker_1, # of connection points: 2
#     Edge 7, Type (0, 1), BuildingBlock: FUNLAD_clean_linker_1, # of connection points: 2
#     Edge 8, Type (0, 1), BuildingBlock: FUNLAD_clean_linker_1, # of connection points: 2
#     Edge 9, Type (0, 1), BuildingBlock: FUNLAD_clean_linker_1, # of connection points: 2
#     Edge 10, Type (0, 1), BuildingBlock: FUNLAD_clean_linker_1, # of connection points: 2
#     Edge 11, Type (0, 1), BuildingBlock: FUNLAD_clean_linker_1, # of connection points: 2
#     Edge 12, Type (0, 1), BuildingBlock: FUNLAD_clean_linker_1, # of connection points: 2
#     Edge 13, Type (0, 1), BuildingBlock: FUNLAD_clean_linker_1, # of connection points: 2
#     Edge 14, Type (0, 1), BuildingBlock: FUNLAD_clean_linker_1, # of connection points: 2
#     Edge 15, Type (0, 1), BuildingBlock: FUNLAD_clean_linker_1, # of connection points: 2
#     Edge 16, Type (0, 1), BuildingBlock: FUNLAD_clean_linker_1, # of connection points: 2
#     Edge 17, Type (0, 1), BuildingBlock: FUNLAD_clean_linker_1, # of connection points: 2
# Relax obj value: 0.078
# Max RMSD: 0.177
# Mean RMSD: 0.149
data_MOF--net-tsx--node1-VOLQOD_clean_sbu_1--node2-QEWDON_clean_linker_0--edge1-FUNLAD_clean_linker_1
_symmetry_space_group_name_H-M    P1
_symmetry_Int_Tables_number       1
_symmetry_cell_setting            triclinic
loop_
_symmetry_equiv_pos_as_xyz
'x, y, z'
_cell_length_a     22.804545
_cell_length_b     23.682432
_cell_length_c     38.950423
_cell_angle_alpha  90.130451
_cell_angle_beta   102.31256
_cell_angle_gamma 89.902016
loop_
_atom_site_label
_atom_site_type_symbol
_atom_site_fract_x
_atom_site_fract_y
_atom_site_fract_z
_atom_type_partial_charge
O0 O 0.10562 0.99135 0.08154 0.0
Zn1 Zn 0.11752 0.99957 0.03169 0.0
O2 O 0.04063 0.01627 0.0 0.0
Zn3 Zn 0.01463 0.95009 0.97012 0.0
Zn4 Zn 0.98055 0.03442 0.02706 0.0
Zn5 Zn 0.04963 0.08229 0.97174 0.0
O6 O 0.00747 0.97132 0.91896 0.0
O7 O 0.04439 0.05878 0.92168 0.0
O8 O 0.15491 0.92787 0.01667 0.0
O9 O 0.07888 0.89007 0.97818 0.0
O10 O 0.9372 0.91534 0.97952 0.0
O11 O 0.91641 0.97589 0.01899 0.0
O12 O 0.93875 0.10909 0.01353 0.0
O13 O 0.1754 0.06457 0.03236 0.0
O14 O 0.98367 0.13918 0.97174 0.0
O15 O 0.12825 0.12233 0.99051 0.0
C16 C 0.0642 0.00906 0.09627 0.0
C17 C 0.02481 0.01459 0.90432 0.0
C18 C 0.90432 0.93159 0.00042 0.0
C19 C 0.13266 0.88803 0.99581 0.0
C20 C 0.94409 0.14496 0.99008 0.0
C21 C 0.17342 0.11011 0.0148 0.0
O22 O 0.01606 0.03098 0.07868 0.0
O23 O 0.54322 0.52154 0.58512 0.0
Zn24 Zn 0.55822 0.51813 0.53571 0.0
O25 O 0.48316 0.51686 0.50052 0.0
Zn26 Zn 0.47125 0.44174 0.47857 0.0
Zn27 Zn 0.41758 0.53439 0.52355 0.0
Zn28 Zn 0.48571 0.57398 0.46487 0.0
O29 O 0.45852 0.44815 0.42558 0.0
O30 O 0.48281 0.53752 0.4179 0.0
O31 O 0.60841 0.45023 0.53016 0.0
O32 O 0.54697 0.3951 0.49246 0.0
O33 O 0.40099 0.40053 0.49204 0.0
O34 O 0.3627 0.46808 0.52053 0.0
O35 O 0.36909 0.60168 0.50212 0.0
O36 O 0.60778 0.5857 0.52873 0.0
O37 O 0.4148 0.62665 0.45949 0.0
O38 O 0.56033 0.62183 0.4777 0.0
C39 C 0.49687 0.53679 0.5962 0.0
C40 C 0.46884 0.48814 0.40586 0.0
C41 C 0.36171 0.41806 0.50853 0.0
C42 C 0.59803 0.4049 0.51233 0.0
C43 C 0.37324 0.63332 0.47636 0.0
C44 C 0.604 0.62189 0.5042 0.0
O45 O 0.44722 0.54716 0.57521 0.0
H46 H 0.9818 0.08361 0.36071 0.0
C47 C 1.00162 0.04666 0.37511 0.0
C48 C 0.01811 1.00036 0.35684 0.0
C49 C 0.01474 0.04755 0.41192 0.0
H50 H 0.05585 0.91657 0.36177 0.0
C51 C 0.04534 0.95344 0.37581 0.0
C52 C 0.05931 0.95397 0.41279 0.0
C53 C 0.04328 1.00109 0.43075 0.0
C54 C 0.00736 0.10085 0.42996 0.0
H55 H 0.0553 1.00271 0.45922 0.0
C56 C 0.95127 0.11703 0.43622 0.0
C57 C 0.94309 0.17133 0.44921 0.0
C58 C 0.05573 0.13848 0.43742 0.0
H59 H 0.09905 0.12674 0.43235 0.0
C60 C 0.04801 0.19225 0.45026 0.0
H61 H 0.91384 0.08788 0.43024 0.0
C62 C 0.99212 0.20884 0.45599 0.0
H63 H 0.98791 0.25055 0.46645 0.0
H64 H 0.08541 0.22127 0.45537 0.0
H65 H 0.05646 0.01674 0.63567 0.0
C66 C 0.03276 0.97996 0.62327 0.0
C67 C 0.02536 0.9322 0.64338 0.0
C68 C 1.0059 0.98208 0.58734 0.0
H69 H 0.98796 0.84857 0.64193 0.0
C70 C 0.99462 0.88518 0.6265 0.0
C71 C 0.96682 0.887 0.59078 0.0
C72 C 0.97299 0.93557 0.5712 0.0
C73 C 1.00367 0.03616 0.56834 0.0
H74 H 0.95121 0.93801 0.54366 0.0
C75 C 0.05643 0.06372 0.56438 0.0
C76 C 0.05329 0.11788 0.54939 0.0
C77 C 0.94784 0.06223 0.5561 0.0
H78 H 0.90672 0.04166 0.55891 0.0
C79 C 0.94469 0.11587 0.54125 0.0
H80 H 0.09965 0.0435 0.57339 0.0
C81 C 0.99709 0.14406 0.53842 0.0
H82 H 0.99367 0.18586 0.52703 0.0
H83 H 0.90142 0.1356 0.53214 0.0
H84 H 0.53253 0.5767 0.86934 0.0
C85 C 0.55205 0.54011 0.88405 0.0
C86 C 0.56627 0.49137 0.86674 0.0
C87 C 0.56825 0.54449 0.92075 0.0
H88 H 0.60644 0.4089 0.87365 0.0
C89 C 0.59575 0.4466 0.88691 0.0
C90 C 0.61324 0.45073 0.92373 0.0
C91 C 0.59845 0.4996 0.94053 0.0
C92 C 0.56542 0.60042 0.93701 0.0
H93 H 0.61348 0.50415 0.96876 0.0
C94 C 0.51067 0.62387 0.94154 0.0
C95 C 0.50875 0.68026 0.95325 0.0
C96 C 0.61784 0.63307 0.94427 0.0
H97 H 0.66004 0.6158 0.94045 0.0
C98 C 0.61579 0.68895 0.95494 0.0
H99 H 0.47054 0.59828 0.93561 0.0
C100 C 0.5617 0.71237 0.95914 0.0
H101 H 0.56115 0.75597 0.96716 0.0
H102 H 0.65616 0.71431 0.95978 0.0
H103 H 0.52892 0.58673 0.14042 0.0
C104 C 0.50658 0.55211 0.12459 0.0
C105 C 0.49024 0.50383 0.14106 0.0
C106 C 0.4898 0.55826 0.08803 0.0
H107 H 0.44774 0.42249 0.13294 0.0
C108 C 0.46025 0.45975 0.12024 0.0
C109 C 0.44356 0.46487 0.0834 0.0
C110 C 0.45762 0.51495 0.06756 0.0
C111 C 0.49774 0.61363 0.07238 0.0
H112 H 0.44248 0.5208 0.03946 0.0
C113 C 0.55246 0.6288 0.06375 0.0
C114 C 0.56084 0.68391 0.05215 0.0
C115 C 0.45125 0.65336 0.06882 0.0
H116 H 0.40948 0.64264 0.07619 0.0
C117 C 0.4587 0.70746 0.05641 0.0
H118 H 0.58872 0.59832 0.06684 0.0
C119 C 0.51309 0.72282 0.0482 0.0
H120 H 0.51727 0.76487 0.03816 0.0
H121 H 0.4223 0.7377 0.05335 0.0
H122 H 0.25937 0.14012 0.04697 0.0
C123 C 0.22289 0.15114 0.02512 0.0
H124 H 0.18631 0.21474 0.98867 0.0
H125 H 0.34739 0.36315 0.12003 0.0
H126 H 0.27192 0.33494 0.15188 0.0
H127 H 0.19243 0.2674 0.12601 0.0
H128 H 0.1883 0.22734 0.06831 0.0
C129 C 0.22178 0.20293 0.01084 0.0
C130 C 0.26771 0.24629 0.02563 0.0
C131 C 0.2688 0.27015 0.05923 0.0
C132 C 0.31398 0.3099 0.07388 0.0
C133 C 0.31426 0.33266 0.10762 0.0
C134 C 0.27103 0.31701 0.12619 0.0
C135 C 0.22634 0.27895 0.11164 0.0
C136 C 0.22482 0.25589 0.07854 0.0
H137 H 0.37376 0.43516 0.03821 0.0
C138 C 0.40523 0.42137 0.06176 0.0
H139 H 0.43722 0.35159 0.09424 0.0
H140 H 0.27599 0.2116 0.95986 0.0
H141 H 0.35004 0.24185 0.92726 0.0
H142 H 0.42848 0.3107 0.95272 0.0
H143 H 0.4333 0.34995 0.01089 0.0
C144 C 0.40553 0.36668 0.07123 0.0
C145 C 0.35717 0.3269 0.05462 0.0
C146 C 0.35498 0.30444 0.0206 0.0
C147 C 0.30999 0.26431 0.00603 0.0
C148 C 0.30911 0.24223 0.97212 0.0
C149 C 0.35139 0.25916 0.95316 0.0
C150 C 0.39555 0.29796 0.9675 0.0
C151 C 0.39768 0.32033 0.00086 0.0
H152 H 0.1487 0.80603 0.97233 0.0
C153 C 0.1704 0.84008 0.98908 0.0
H154 H 0.25337 0.87547 0.01424 0.0
H155 H 0.35539 0.61999 0.99413 0.0
H156 H 0.3038 0.59215 0.03983 0.0
H157 H 0.2364 0.65855 0.06152 0.0
H158 H 0.21938 0.75304 0.0372 0.0
C159 C 0.2305 0.84017 -0.00073 0.0
C160 C 0.26777 0.79805 0.98496 0.0
C161 C 0.27738 0.74312 -0.00049 0.0
C162 C 0.31687 0.70499 0.98726 0.0
C163 C 0.32584 0.65053 0.00236 0.0
C164 C 0.29649 0.63403 0.02862 0.0
C165 C 0.25858 0.67145 0.04086 0.0
C166 C 0.24915 0.7255 0.02667 0.0
H167 H 0.45951 0.75153 0.97023 0.0
C168 C 0.45374 0.70883 0.95963 0.0
H169 H 0.38873 0.64469 0.94343 0.0
H170 H 0.25316 0.89744 0.94834 0.0
H171 H 0.29704 0.92177 0.89882 0.0
H172 H 0.36251 0.85442 0.8763 0.0
H173 H 0.38499 0.76252 0.90345 0.0
C174 C 0.39783 0.68738 0.95316 0.0
C175 C 0.34741 0.72228 0.96094 0.0
C176 C 0.33333 0.77528 0.94419 0.0
C177 C 0.29433 0.81351 0.9566 0.0
C178 C 0.28231 0.86666 0.93991 0.0
C179 C 0.30707 0.88113 0.9114 0.0
C180 C 0.34402 0.84326 0.89876 0.0
C181 C 0.35703 0.79088 0.9148 0.0
H182 H 0.82315 0.91891 0.02091 0.0
C183 C 0.85126 0.89924 0.0049 0.0
H184 H 0.86648 0.82463 0.97817 0.0
H185 H 0.72963 0.68739 0.0789 0.0
H186 H 0.82896 0.64599 0.09287 0.0
H187 H 0.90964 0.68165 0.0655 0.0
H188 H 0.89137 0.75921 0.02401 0.0
C189 C 0.83766 0.84674 0.99265 0.0
C190 C 0.78594 0.81663 0.0024 0.0
C191 C 0.79649 0.76965 0.02542 0.0
C192 C 0.74937 0.7481 0.04054 0.0
C193 C 0.76263 0.70378 0.06535 0.0
C194 C 0.81979 0.68002 0.07396 0.0
C195 C 0.86527 0.7002 0.05863 0.0
C196 C 0.85415 0.74474 0.03483 0.0
H197 H 0.64138 0.66815 0.03017 0.0
C198 C 0.61838 0.69981 0.04268 0.0
H199 H 0.61906 0.78332 0.06142 0.0
H200 H 0.7476 0.89849 0.95344 0.0
H201 H 0.64831 0.94059 0.93899 0.0
H202 H 0.56811 0.90785 0.96777 0.0
H203 H 0.58613 0.83228 0.01031 0.0
C204 C 0.64126 0.75233 0.04796 0.0
C205 C 0.69127 0.77284 0.03192 0.0
C206 C 0.68051 0.81897 0.00809 0.0
C207 C 0.72729 0.83951 0.99251 0.0
C208 C 0.71426 0.88305 0.96714 0.0
C209 C 0.65738 0.90727 0.95839 0.0
C210 C 0.61225 0.88878 0.97454 0.0
C211 C 0.62338 0.84528 -0.00092 0.0
H212 H 0.90941 0.22333 0.96262 0.0
C213 C 0.90206 0.19306 0.98223 0.0
H214 H 0.84337 0.16785 0.0148 0.0
H215 H 0.75732 0.4328 0.98424 0.0
H216 H 0.83739 0.45117 0.03485 0.0
H217 H 0.9042 0.37444 0.06259 0.0
H218 H 0.89152 0.27871 0.03956 0.0
C219 C 0.85317 0.19849 0.99609 0.0
C220 C 0.80778 0.24293 0.98285 0.0
C221 C 0.81454 0.29816 0.99716 0.0
C222 C 0.77506 0.34214 0.9816 0.0
C223 C 0.78482 0.39746 0.99547 0.0
C224 C 0.83087 0.40867 0.02446 0.0
C225 C 0.86856 0.36548 0.04004 0.0
C226 C 0.86087 0.31082 0.02657 0.0
H227 H 0.64505 0.3985 0.97151 0.0
C228 C 0.65006 0.40583 0.94474 0.0
H229 H 0.69869 0.3847 0.90597 0.0
H230 H 0.7792 0.14044 0.95127 0.0
H231 H 0.697 0.12081 0.90187 0.0
H232 H 0.62773 0.19655 0.87524 0.0
H233 H 0.64021 0.29236 0.89781 0.0
C234 C 0.69186 0.37668 0.93227 0.0
C235 C 0.72818 0.3303 0.95212 0.0
C236 C 0.71973 0.27434 0.93897 0.0
C237 C 0.75947 0.23062 0.95439 0.0
C238 C 0.75037 0.17525 0.94046 0.0
C239 C 0.70331 0.16338 0.91216 0.0
C240 C 0.66433 0.20603 0.89716 0.0
C241 C 0.67216 0.26089 0.9103 0.0
H242 H 0.64402 0.69873 0.48671 0.0
C243 C 0.65061 0.6657 0.50652 0.0
H244 H 0.70646 0.63436 0.55293 0.0
H245 H 0.89446 0.80537 0.495 0.0
H246 H 0.8873 0.73958 0.44629 0.0
H247 H 0.81535 0.66049 0.43876 0.0
H248 H 0.74989 0.64682 0.47964 0.0
C249 C 0.70002 0.66625 0.53244 0.0
C250 C 0.7438 0.71349 0.53645 0.0
C251 C 0.78204 0.72038 0.51239 0.0
C252 C 0.82434 0.76533 0.51706 0.0
C253 C 0.86188 0.77162 0.4927 0.0
C254 C 0.85823 0.73421 0.46468 0.0
C255 C 0.81764 0.68972 0.46041 0.0
C256 C 0.78005 0.68254 0.48397 0.0
H257 H 0.93473 0.79882 0.58888 0.0
C258 C 0.9266 0.83976 0.57609 0.0
H259 H 0.86311 0.88848 0.54043 0.0
H260 H 0.67659 0.71265 0.58703 0.0
H261 H 0.68451 0.77817 0.63572 0.0
H262 H 0.75791 0.85606 0.6437 0.0
H263 H 0.82388 0.8688 0.60307 0.0
C264 C 0.87522 0.84747 0.55223 0.0
C265 C 0.82893 0.80247 0.54601 0.0
C266 C 0.79031 0.796 0.56983 0.0
C267 C 0.74794 0.75124 0.56517 0.0
C268 C 0.70995 0.74568 0.58941 0.0
C269 C 0.71388 0.7831 0.61745 0.0
C270 C 0.7552 0.82694 0.62195 0.0
C271 C 0.79296 0.83362 0.59847 0.0
H272 H 0.69379 0.38295 0.52312 0.0
C273 C 0.64927 0.36739 0.51115 0.0
H274 H 0.5995 0.30396 0.47986 0.0
H275 H 0.79999 0.24988 0.3955 0.0
H276 H 0.71405 0.27479 0.34955 0.0
H277 H 0.61994 0.30819 0.36436 0.0
H278 H 0.611 0.31695 0.42486 0.0
C279 C 0.6438 0.31913 0.49247 0.0
C280 C 0.69765 0.29154 0.48362 0.0
C281 C 0.70193 0.28684 0.44784 0.0
C282 C 0.75644 0.26831 0.43924 0.0
C283 C 0.75972 0.26411 0.40342 0.0
C284 C 0.71077 0.27824 0.3768 0.0
C285 C 0.65781 0.29706 0.38513 0.0
C286 C 0.65325 0.30169 0.42013 0.0
H287 H 0.85422 0.15342 0.46132 0.0
C288 C 0.88381 0.18712 0.45656 0.0
H289 H 0.8914 0.2756 0.45041 0.0
H290 H 0.70038 0.28245 0.55404 0.0
H291 H 0.78744 0.25997 0.5999 0.0
H292 H 0.88516 0.23844 0.58516 0.0
H293 H 0.8958 0.23777 0.52447 0.0
C294 C 0.8651 0.24095 0.4573 0.0
C295 C 0.80672 0.25537 0.46629 0.0
C296 C 0.80208 0.25874 0.50193 0.0
C297 C 0.74682 0.27469 0.51055 0.0
C298 C 0.74222 0.27357 0.54622 0.0
C299 C 0.79168 0.26029 0.57275 0.0
C300 C 0.84661 0.24795 0.56445 0.0
C301 C 0.85203 0.24729 0.5295 0.0
H302 H 0.28394 0.39789 0.53095 0.0
C303 C 0.31423 0.38043 0.51552 0.0
H304 H 0.33747 0.30742 0.49006 0.0
H305 H 0.21552 0.14835 0.58654 0.0
H306 H 0.31955 0.11891 0.60209 0.0
H307 H 0.39695 0.16779 0.57773 0.0
H308 H 0.37071 0.24657 0.53775 0.0
C309 C 0.30674 0.32662 0.5045 0.0
C310 C 0.25864 0.29148 0.51447 0.0
C311 C 0.27435 0.24419 0.53683 0.0
C312 C 0.22938 0.21502 0.55018 0.0
C313 C 0.24712 0.17025 0.57423 0.0
C314 C 0.30691 0.15336 0.58377 0.0
C315 C 0.35051 0.18098 0.57013 0.0
C316 C 0.33478 0.22612 0.54713 0.0
H317 H 0.1386 0.12195 0.53114 0.0
C318 C 0.10822 0.14602 0.54361 0.0
H319 H 0.08961 0.22362 0.56528 0.0
H320 H 0.21133 0.3734 0.46699 0.0
H321 H 0.10803 0.40553 0.45307 0.0
H322 H 0.03163 0.3608 0.48032 0.0
H323 H 0.05756 0.28269 0.5205 0.0
C324 C 0.11983 0.20052 0.55221 0.0
C325 C 0.16846 0.23252 0.54054 0.0
C326 C 0.15306 0.28056 0.5187 0.0
C327 C 0.19767 0.30847 0.5045 0.0
C328 C 0.17992 0.35283 0.48011 0.0
C329 C 0.12064 0.37135 0.4716 0.0
C330 C 0.07765 0.34611 0.48687 0.0
C331 C 0.09332 0.30119 0.51003 0.0
H332 H 0.33177 0.7021 0.44149 0.0
C333 C 0.32882 0.67846 0.46497 0.0
H334 H 0.28243 0.66972 0.50634 0.0
H335 H 0.1956 0.92697 0.47819 0.0
H336 H 0.26806 0.93706 0.53317 0.0
H337 H 0.32877 0.85581 0.55986 0.0
H338 H 0.31759 0.76393 0.53142 0.0
C339 C 0.28533 0.69128 0.48217 0.0
C340 C 0.24188 0.73732 0.46917 0.0
C341 C 0.24721 0.79007 0.48679 0.0
C342 C 0.21125 0.83662 0.47174 0.0
C343 C 0.22025 0.88972 0.48885 0.0
C344 C 0.26206 0.89622 0.52038 0.0
C345 C 0.29631 0.85049 0.53538 0.0
C346 C 0.28942 0.79801 0.5188 0.0
H347 H 0.0841 0.89605 0.45842 0.0
C348 C 0.09297 0.90665 0.43286 0.0
H349 H 0.14671 0.89013 0.39597 0.0
H350 H 0.21434 0.63953 0.43167 0.0
H351 H 0.13939 0.62809 0.37762 0.0
H352 H 0.07672 0.70854 0.35148 0.0
H353 H 0.08847 0.8008 0.37926 0.0
C354 C 0.13625 0.87888 0.42102 0.0
C355 C 0.16891 0.82962 0.43955 0.0
C356 C 0.16129 0.77593 0.42303 0.0
C357 C 0.19763 0.72967 0.43792 0.0
C358 C 0.18869 0.67637 0.42106 0.0
C359 C 0.14559 0.66913 0.39015 0.0
C360 C 0.11029 0.71441 0.37544 0.0
C361 C 0.11771 0.76722 0.3916 0.0
H362 H 0.11218 0.98216 0.14917 0.0
C363 C 0.07134 1.00181 0.13454 0.0
H364 H 0.98722 0.03741 0.13734 0.0
H365 H 0.02312 0.88076 0.27868 0.0
H366 H 0.99734 0.80321 0.2374 0.0
H367 H 0.98759 0.8183 0.17377 0.0
H368 H 1.00377 0.91095 0.15104 0.0
C369 C 0.02799 0.01692 0.15132 0.0
C370 C 0.03454 0.00742 0.18958 0.0
C371 C 0.0249 0.95297 0.20236 0.0
C372 C 0.03012 0.94436 0.23899 0.0
C373 C 0.01993 0.88962 0.2511 0.0
C374 C 1.00499 0.84475 0.22769 0.0
C375 C 0.99953 0.85324 0.19187 0.0
C376 C 0.00915 0.90663 0.17918 0.0
H377 H 0.97449 0.03085 0.30381 0.0
C378 C 0.01008 1.00392 0.31814 0.0
H379 H 0.08667 0.95532 0.31452 0.0
H380 H 0.055 0.11694 0.17336 0.0
H381 H 0.08259 0.19428 0.2146 0.0
H382 H 0.09503 0.17885 0.27837 0.0
H383 H 0.0794 0.08634 0.30124 0.0
C384 C 0.04944 0.98093 0.30086 0.0
C385 C 0.04436 0.99031 0.26264 0.0
C386 C 0.05493 0.04464 0.24988 0.0
C387 C 0.04914 0.0533 0.21321 0.0
C388 C 0.05907 0.10802 0.201 0.0
C389 C 0.07504 0.15276 0.22438 0.0
C390 C 0.08195 0.14408 0.26028 0.0
C391 C 0.07236 0.09075 0.27304 0.0
H392 H 0.03086 0.05383 0.854 0.0
C393 C 0.02424 0.01397 0.86645 0.0
H394 H 0.01679 0.92541 0.85983 0.0
H395 H 0.93725 0.01917 0.69575 0.0
H396 H 0.84576 0.0492 0.71249 0.0
H397 H 0.83462 0.04159 0.77392 0.0
H398 H 0.9151 1.00377 0.81896 0.0
C399 C 0.01985 0.96613 0.84753 0.0
C400 C 0.02504 0.96756 0.81014 0.0
C401 C 0.97756 0.98972 0.78412 0.0
C402 C 0.98401 0.99393 0.74871 0.0
C403 C 0.93538 0.01555 0.72316 0.0
C404 C 0.88236 0.03278 0.73237 0.0
C405 C 0.87609 0.02852 0.76694 0.0
C406 C 0.92284 0.00705 0.79259 0.0
H407 H 0.04335 0.89134 0.6956 0.0
C408 C 0.04166 0.93198 0.68243 0.0
H409 H 0.03655 0.02023 0.68954 0.0
H410 H 0.12357 0.92116 0.85351 0.0
H411 H 0.21553 0.891 0.83697 0.0
H412 H 0.22785 0.90052 0.77584 0.0
H413 H 0.14813 0.93986 0.7308 0.0
C414 C 0.0429 0.97907 0.70194 0.0
C415 C 0.03786 0.97563 0.73936 0.0
C416 C 0.08521 0.9531 0.76539 0.0
C417 C 0.07849 0.94849 0.80076 0.0
C418 C 0.12635 0.92573 0.82626 0.0
C419 C 0.17942 0.90834 0.81715 0.0
C420 C 0.18631 0.91361 0.78271 0.0
C421 C 0.14003 0.93591 0.75706 0.0
H422 H 0.45783 0.55389 0.6422 0.0
C423 C 0.49837 0.53998 0.63415 0.0
H424 H 0.58689 0.50908 0.65173 0.0
H425 H 0.57816 0.61923 0.80267 0.0
H426 H 0.62629 0.69661 0.77878 0.0
H427 H 0.63634 0.6955 0.71695 0.0
H428 H 0.59846 0.6167 0.67865 0.0
C429 C 0.54573 0.52345 0.65877 0.0
C430 C 0.54184 0.52295 0.69635 0.0
C431 C 0.5641 0.5692 0.71833 0.0
C432 C 0.55789 0.56995 0.75388 0.0
C433 C 0.58109 0.61658 0.77536 0.0
C434 C 0.60895 0.66129 0.762 0.0
C435 C 0.61463 0.66066 0.72719 0.0
C436 C 0.59263 0.61523 0.70549 0.0
H437 H 0.58316 0.45528 0.81734 0.0
C438 C 0.55842 0.48809 0.82783 0.0
H439 H 0.50011 0.55817 0.8138 0.0
H440 H 0.49671 0.42677 0.66148 0.0
H441 H 0.44589 0.35038 0.68466 0.0
H442 H 0.43109 0.35349 0.74556 0.0
H443 H 0.46752 0.43267 0.78375 0.0
C444 C 0.52572 0.52456 0.80503 0.0
C445 C 0.52952 0.52427 0.76735 0.0
C446 C 0.50658 0.47825 0.74518 0.0
C447 C 0.51355 0.47724 0.70977 0.0
C448 C 0.49163 0.43016 0.6884 0.0
C449 C 0.46249 0.38597 0.70139 0.0
C450 C 0.45429 0.38766 0.73571 0.0
C451 C 0.47581 0.43321 0.75743 0.0
H452 H 0.45227 0.43433 0.35825 0.0
C453 C 0.46579 0.47627 0.36828 0.0
H454 H 0.49259 0.55787 0.3559 0.0
H455 H 0.55731 0.41525 0.22296 0.0
H456 H 0.63879 0.37498 0.2665 0.0
H457 H 0.64751 0.39427 0.32964 0.0
H458 H 0.57409 0.45285 0.34976 0.0
C459 C 0.48022 0.51538 0.34653 0.0
C460 C 0.47582 0.50366 0.30856 0.0
C461 C 0.5196 0.46984 0.29731 0.0
C462 C 0.51564 0.4601 0.26082 0.0
C463 C 0.559 0.42502 0.2503 0.0
C464 C 0.60586 0.40149 0.27502 0.0
C465 C 0.61064 0.41219 0.31059 0.0
C466 C 0.56812 0.44584 0.32178 0.0
H467 H 0.53621 0.52952 0.19486 0.0
C468 C 0.50093 0.50275 0.18007 0.0
H469 H 0.42515 0.45314 0.1833 0.0
H470 H 0.3848 0.57051 0.32141 0.0
H471 H 0.30492 0.6128 0.27783 0.0
H472 H 0.29909 0.5974 0.21453 0.0
H473 H 0.37296 0.53957 0.19442 0.0
C474 C 0.46413 0.47596 0.19747 0.0
C475 C 0.46863 0.48513 0.23572 0.0
C476 C 0.42498 0.51902 0.24701 0.0
C477 C 0.42865 0.52836 0.28346 0.0
C478 C 0.38443 0.56239 0.29402 0.0
C479 C 0.33827 0.58686 0.26928 0.0
C480 C 0.33495 0.57815 0.23365 0.0
C481 C 0.37764 0.54472 0.22248 0.0
loop_
_geom_bond_atom_site_label_1
_geom_bond_atom_site_label_2
_geom_bond_distance
_geom_bond_site_symmetry_2
_ccdc_geom_bond_type
O0 Zn1 1.953 . S
O0 C16 1.225 1_565 S
Zn1 O0 1.953 . S
Zn1 O2 1.949 1_565 S
Zn1 O8 1.919 . S
Zn1 O13 1.924 1_565 S
O2 Zn1 1.949 1_545 S
O2 Zn3 1.923 1_444 S
O2 Zn4 1.950 1_455 S
O2 Zn5 1.945 1_554 S
Zn3 O2 1.923 1_666 S
Zn3 O6 1.933 . S
Zn3 O9 1.941 1_655 S
Zn3 O10 1.965 . S
Zn4 O2 1.950 1_655 S
Zn4 O11 1.938 1_545 S
Zn4 O12 1.906 . S
Zn4 O22 1.953 . S
Zn5 O2 1.945 1_556 S
Zn5 O7 1.932 . S
Zn5 O14 1.977 1_455 S
Zn5 O15 1.910 . S
O6 Zn3 1.933 . S
O6 C17 1.226 1_565 S
O7 Zn5 1.932 . S
O7 C17 1.307 1_455 S
O8 Zn1 1.919 . S
O8 C19 1.241 1_554 S
O9 Zn3 1.941 1_455 S
O9 C19 1.288 . S
O10 Zn3 1.965 . S
O10 C18 1.303 1_556 S
O11 Zn4 1.938 1_565 S
O11 C18 1.247 . S
O12 Zn4 1.906 . S
O12 C20 1.304 1_554 S
O13 Zn1 1.924 1_545 S
O13 C21 1.311 . S
O14 Zn5 1.977 1_655 S
O14 C20 1.272 . S
O15 Zn5 1.910 . S
O15 C21 1.231 1_556 S
C16 O0 1.225 1_545 S
C16 O22 1.298 1_455 S
C17 O6 1.226 1_545 S
C17 O7 1.307 1_655 S
C18 O10 1.303 1_554 S
C18 O11 1.247 . S
C19 O8 1.241 1_556 S
C19 O9 1.288 . S
C20 O12 1.304 1_556 S
C20 O14 1.272 . S
C21 O13 1.311 . S
C21 O15 1.231 1_554 S
O22 Zn4 1.953 . S
O22 C16 1.298 1_655 S
O23 Zn24 1.953 . S
O23 C39 1.225 . S
Zn24 O23 1.953 . S
Zn24 O25 1.949 . S
Zn24 O31 1.919 . S
Zn24 O36 1.924 . S
O25 Zn24 1.949 . S
O25 Zn26 1.923 . S
O25 Zn27 1.950 . S
O25 Zn28 1.945 . S
Zn26 O25 1.923 . S
Zn26 O29 1.933 . S
Zn26 O32 1.941 . S
Zn26 O33 1.965 . S
Zn27 O25 1.950 . S
Zn27 O34 1.938 . S
Zn27 O35 1.906 . S
Zn27 O45 1.953 . S
Zn28 O25 1.945 . S
Zn28 O30 1.932 . S
Zn28 O37 1.977 . S
Zn28 O38 1.910 . S
O29 Zn26 1.933 . S
O29 C40 1.226 . S
O30 Zn28 1.932 . S
O30 C40 1.307 . S
O31 Zn24 1.919 . S
O31 C42 1.253 . S
O32 Zn26 1.941 . S
O32 C42 1.283 . S
O33 Zn26 1.965 . S
O33 C41 1.303 . S
O34 Zn27 1.938 . S
O34 C41 1.247 . S
O35 Zn27 1.906 . S
O35 C43 1.304 . S
O36 Zn24 1.924 . S
O36 C44 1.311 . S
O37 Zn28 1.977 . S
O37 C43 1.272 . S
O38 Zn28 1.910 . S
O38 C44 1.231 . S
C39 O23 1.225 . S
C39 O45 1.298 . S
C40 O29 1.226 . S
C40 O30 1.307 . S
C41 O33 1.303 . S
C41 O34 1.247 . S
C42 O31 1.253 . S
C42 O32 1.283 . S
C43 O35 1.304 . S
C43 O37 1.272 . S
C44 O36 1.311 . S
C44 O38 1.231 . S
O45 Zn27 1.953 . S
O45 C39 1.298 . S
H46 C47 0.949 1_655 S
C47 H46 0.949 1_455 S
C47 C48 1.395 1_545 S
C47 C49 1.391 . S
C48 C47 1.395 1_565 S
C48 C51 1.390 . S
C49 C47 1.391 . S
C49 C53 1.387 1_545 S
C49 C54 1.491 . S
H50 C51 0.950 . S
C51 C48 1.390 . S
C51 H50 0.950 . S
C51 C52 1.378 . S
C52 C51 1.378 . S
C52 C53 1.409 . S
C53 C49 1.387 1_565 S
C53 C52 1.409 . S
C53 H55 0.951 . S
C54 C49 1.491 . S
C54 C56 1.382 1_455 S
C54 C58 1.404 . S
H55 C53 0.951 . S
C56 C54 1.382 1_655 S
C56 C57 1.390 . S
C56 H61 0.949 . S
C57 C56 1.390 . S
C57 C62 1.399 . S
C58 C54 1.404 . S
C58 H59 0.950 . S
C58 C60 1.375 . S
H59 C58 0.950 . S
C60 C58 1.375 . S
C60 C62 1.382 1_455 S
C60 H64 0.950 . S
H61 C56 0.949 . S
C62 C57 1.399 . S
C62 C60 1.382 1_655 S
C62 H63 0.952 . S
H63 C62 0.952 . S
H64 C60 0.950 . S
H65 C66 0.949 . S
C66 H65 0.949 . S
C66 C67 1.394 1_445 S
C66 C68 1.391 1_455 S
C67 C66 1.394 1_665 S
C67 C70 1.391 . S
C68 C66 1.391 1_655 S
C68 C72 1.387 1_545 S
C68 C73 1.491 1_655 S
H69 C70 0.950 . S
C70 C67 1.391 . S
C70 H69 0.950 . S
C70 C71 1.378 . S
C71 C70 1.378 . S
C71 C72 1.409 . S
C72 C68 1.387 1_565 S
C72 C71 1.409 . S
C72 H74 0.951 . S
C73 C68 1.491 1_455 S
C73 C75 1.382 . S
C73 C77 1.404 1_455 S
H74 C72 0.951 . S
C75 C73 1.382 . S
C75 C76 1.390 . S
C75 H80 0.949 . S
C76 C75 1.390 . S
C76 C81 1.399 . S
C77 C73 1.404 1_655 S
C77 H78 0.950 . S
C77 C79 1.375 . S
H78 C77 0.950 . S
C79 C77 1.375 . S
C79 C81 1.382 1_655 S
C79 H83 0.950 . S
H80 C75 0.949 . S
C81 C76 1.399 . S
C81 C79 1.382 1_455 S
C81 H82 0.952 . S
H82 C81 0.952 . S
H83 C79 0.950 . S
H84 C85 0.949 . S
C85 H84 0.949 . S
C85 C86 1.395 . S
C85 C87 1.391 . S
C86 C85 1.395 . S
C86 C89 1.390 . S
C87 C85 1.391 . S
C87 C91 1.387 . S
C87 C92 1.491 . S
H88 C89 0.950 . S
C89 C86 1.390 . S
C89 H88 0.950 . S
C89 C90 1.378 . S
C90 C89 1.378 . S
C90 C91 1.409 . S
C91 C87 1.387 . S
C91 C90 1.409 . S
C91 H93 0.951 . S
C92 C87 1.491 . S
C92 C94 1.382 . S
C92 C96 1.404 . S
H93 C91 0.951 . S
C94 C92 1.382 . S
C94 C95 1.390 . S
C94 H99 0.949 . S
C95 C94 1.390 . S
C95 C100 1.399 . S
C96 C92 1.404 . S
C96 H97 0.950 . S
C96 C98 1.375 1_556 S
H97 C96 0.950 . S
C98 C96 1.375 1_554 S
C98 C100 1.382 1_554 S
C98 H102 0.950 . S
H99 C94 0.949 . S
C100 C95 1.399 . S
C100 C98 1.382 1_556 S
C100 H101 0.952 1_556 S
H101 C100 0.952 1_554 S
H102 C98 0.950 . S
H103 C104 0.949 . S
C104 H103 0.949 . S
C104 C105 1.395 . S
C104 C106 1.391 . S
C105 C104 1.395 . S
C105 C108 1.390 . S
C106 C104 1.391 . S
C106 C110 1.387 . S
C106 C111 1.491 . S
H107 C108 0.950 . S
C108 C105 1.390 . S
C108 H107 0.950 . S
C108 C109 1.378 . S
C109 C108 1.378 . S
C109 C110 1.409 . S
C110 C106 1.387 . S
C110 C109 1.409 . S
C110 H112 0.951 . S
C111 C106 1.491 . S
C111 C113 1.382 . S
C111 C115 1.404 . S
H112 C110 0.951 . S
C113 C111 1.382 . S
C113 C114 1.390 . S
C113 H118 0.949 . S
C114 C113 1.390 . S
C114 C119 1.399 . S
C115 C111 1.404 . S
C115 H116 0.950 . S
C115 C117 1.375 . S
H116 C115 0.950 . S
C117 C115 1.375 . S
C117 C119 1.382 . S
C117 H121 0.950 1_554 S
H118 C113 0.949 . S
C119 C114 1.399 . S
C119 C117 1.382 . S
C119 H120 0.952 1_554 S
H120 C119 0.952 1_556 S
H121 C117 0.950 1_556 S
H122 C123 0.951 . S
C123 H122 0.951 . S
C123 C129 1.265 . S
H124 C129 0.950 . S
H125 C133 0.949 . S
H126 C134 0.950 . S
H127 C135 0.951 . S
H128 C136 0.951 . S
C129 C123 1.265 . S
C129 H124 0.950 . S
C129 C130 1.478 . S
C130 C129 1.478 . S
C130 C131 1.397 . S
C130 C147 1.394 . S
C131 C130 1.397 . S
C131 C132 1.438 . S
C131 C136 1.429 . S
C132 C131 1.438 . S
C132 C133 1.428 . S
C132 C145 1.394 . S
C133 H125 0.949 . S
C133 C132 1.428 . S
C133 C134 1.345 . S
C134 H126 0.950 . S
C134 C133 1.345 . S
C134 C135 1.424 . S
C135 H127 0.951 . S
C135 C134 1.424 . S
C135 C136 1.347 . S
C136 H128 0.951 . S
C136 C131 1.429 . S
C136 C135 1.347 . S
H137 C138 0.951 . S
C138 H137 0.951 . S
C138 C144 1.265 . S
H139 C144 0.950 . S
H140 C148 0.949 . S
H141 C149 0.950 . S
H142 C150 0.951 . S
H143 C151 0.951 . S
C144 C138 1.265 . S
C144 H139 0.950 . S
C144 C145 1.478 . S
C145 C132 1.394 . S
C145 C144 1.478 . S
C145 C146 1.397 . S
C146 C145 1.397 . S
C146 C147 1.438 . S
C146 C151 1.429 . S
C147 C130 1.394 . S
C147 C146 1.438 . S
C147 C148 1.428 1_554 S
C148 H140 0.949 . S
C148 C147 1.428 1_556 S
C148 C149 1.345 . S
C149 H141 0.950 . S
C149 C148 1.345 . S
C149 C150 1.424 . S
C150 H142 0.951 . S
C150 C149 1.424 . S
C150 C151 1.347 1_556 S
C151 H143 0.951 . S
C151 C146 1.429 . S
C151 C150 1.347 1_554 S
H152 C153 0.951 . S
C153 H152 0.951 . S
C153 C159 1.265 . S
H154 C159 0.949 1_554 S
H155 C163 0.949 . S
H156 C164 0.950 . S
H157 C165 0.951 . S
H158 C166 0.951 . S
C159 C153 1.265 . S
C159 H154 0.949 1_556 S
C159 C160 1.478 . S
C160 C159 1.478 . S
C160 C161 1.397 1_556 S
C160 C177 1.394 . S
C161 C160 1.397 1_554 S
C161 C162 1.433 1_554 S
C161 C166 1.429 . S
C162 C161 1.433 1_556 S
C162 C163 1.420 1_556 S
C162 C175 1.406 . S
C163 H155 0.949 . S
C163 C162 1.420 1_554 S
C163 C164 1.345 . S
C164 H156 0.950 . S
C164 C163 1.345 . S
C164 C165 1.424 . S
C165 H157 0.951 . S
C165 C164 1.424 . S
C165 C166 1.347 . S
C166 H158 0.951 . S
C166 C161 1.429 . S
C166 C165 1.347 . S
H167 C168 0.951 . S
C168 H167 0.951 . S
C168 C174 1.265 . S
H169 C174 0.950 . S
H170 C178 0.949 . S
H171 C179 0.950 . S
H172 C180 0.951 . S
H173 C181 0.951 . S
C174 C168 1.265 . S
C174 H169 0.950 . S
C174 C175 1.478 . S
C175 C162 1.406 . S
C175 C174 1.478 . S
C175 C176 1.397 . S
C176 C175 1.397 . S
C176 C177 1.438 . S
C176 C181 1.429 . S
C177 C160 1.394 . S
C177 C176 1.438 . S
C177 C178 1.428 . S
C178 H170 0.949 . S
C178 C177 1.428 . S
C178 C179 1.345 . S
C179 H171 0.950 . S
C179 C178 1.345 . S
C179 C180 1.424 . S
C180 H172 0.951 . S
C180 C179 1.424 . S
C180 C181 1.347 . S
C181 H173 0.951 . S
C181 C176 1.429 . S
C181 C180 1.347 . S
H182 C183 0.951 . S
C183 H182 0.951 . S
C183 C189 1.265 . S
H184 C189 0.950 . S
H185 C193 0.949 . S
H186 C194 0.950 . S
H187 C195 0.951 . S
H188 C196 0.951 . S
C189 C183 1.265 . S
C189 H184 0.950 . S
C189 C190 1.478 . S
C190 C189 1.478 . S
C190 C191 1.397 . S
C190 C207 1.394 1_554 S
C191 C190 1.397 . S
C191 C192 1.438 . S
C191 C196 1.429 . S
C192 C191 1.438 . S
C192 C193 1.428 . S
C192 C205 1.394 . S
C193 H185 0.949 . S
C193 C192 1.428 . S
C193 C194 1.345 . S
C194 H186 0.950 . S
C194 C193 1.345 . S
C194 C195 1.424 . S
C195 H187 0.951 . S
C195 C194 1.424 . S
C195 C196 1.347 . S
C196 H188 0.951 . S
C196 C191 1.429 . S
C196 C195 1.347 . S
H197 C198 0.951 . S
C198 H197 0.951 . S
C198 C204 1.265 . S
H199 C204 0.950 . S
H200 C208 0.949 . S
H201 C209 0.950 . S
H202 C210 0.951 . S
H203 C211 0.951 . S
C204 C198 1.265 . S
C204 H199 0.950 . S
C204 C205 1.478 . S
C205 C192 1.394 . S
C205 C204 1.478 . S
C205 C206 1.397 . S
C206 C205 1.397 . S
C206 C207 1.438 1_554 S
C206 C211 1.429 1_554 S
C207 C190 1.394 1_556 S
C207 C206 1.438 1_556 S
C207 C208 1.428 . S
C208 H200 0.949 . S
C208 C207 1.428 . S
C208 C209 1.345 . S
C209 H201 0.950 . S
C209 C208 1.345 . S
C209 C210 1.424 . S
C210 H202 0.951 . S
C210 C209 1.424 . S
C210 C211 1.347 . S
C211 H203 0.951 . S
C211 C206 1.429 1_556 S
C211 C210 1.347 . S
H212 C213 0.951 . S
C213 H212 0.951 . S
C213 C219 1.265 . S
H214 C219 0.950 . S
H215 C223 0.949 1_556 S
H216 C224 0.950 . S
H217 C225 0.951 . S
H218 C226 0.951 . S
C219 C213 1.265 . S
C219 H214 0.950 . S
C219 C220 1.478 . S
C220 C219 1.478 . S
C220 C221 1.397 . S
C220 C237 1.394 . S
C221 C220 1.397 . S
C221 C222 1.438 . S
C221 C226 1.429 1_556 S
C222 C221 1.438 . S
C222 C223 1.428 1_556 S
C222 C235 1.394 . S
C223 H215 0.949 1_554 S
C223 C222 1.428 1_554 S
C223 C224 1.345 . S
C224 H216 0.950 . S
C224 C223 1.345 . S
C224 C225 1.424 . S
C225 H217 0.951 . S
C225 C224 1.424 . S
C225 C226 1.347 . S
C226 H218 0.951 . S
C226 C221 1.429 1_554 S
C226 C225 1.347 . S
H227 C228 0.951 . S
C228 H227 0.951 . S
C228 C234 1.265 . S
H229 C234 0.950 . S
H230 C238 0.949 . S
H231 C239 0.950 . S
H232 C240 0.951 . S
H233 C241 0.951 . S
C234 C228 1.265 . S
C234 H229 0.950 . S
C234 C235 1.478 . S
C235 C222 1.394 . S
C235 C234 1.478 . S
C235 C236 1.397 . S
C236 C235 1.397 . S
C236 C237 1.438 . S
C236 C241 1.429 . S
C237 C220 1.394 . S
C237 C236 1.438 . S
C237 C238 1.428 . S
C238 H230 0.949 . S
C238 C237 1.428 . S
C238 C239 1.345 . S
C239 H231 0.950 . S
C239 C238 1.345 . S
C239 C240 1.424 . S
C240 H232 0.951 . S
C240 C239 1.424 . S
C240 C241 1.347 . S
C241 H233 0.951 . S
C241 C236 1.429 . S
C241 C240 1.347 . S
H242 C243 0.951 . S
C243 H242 0.951 . S
C243 C249 1.265 . S
H244 C249 0.950 . S
H245 C253 0.949 . S
H246 C254 0.950 . S
H247 C255 0.951 . S
H248 C256 0.951 . S
C249 C243 1.265 . S
C249 H244 0.950 . S
C249 C250 1.478 . S
C250 C249 1.478 . S
C250 C251 1.397 . S
C250 C267 1.394 . S
C251 C250 1.397 . S
C251 C252 1.438 . S
C251 C256 1.429 . S
C252 C251 1.438 . S
C252 C253 1.428 . S
C252 C265 1.394 . S
C253 H245 0.949 . S
C253 C252 1.428 . S
C253 C254 1.345 . S
C254 H246 0.950 . S
C254 C253 1.345 . S
C254 C255 1.424 . S
C255 H247 0.951 . S
C255 C254 1.424 . S
C255 C256 1.347 . S
C256 H248 0.951 . S
C256 C251 1.429 . S
C256 C255 1.347 . S
H257 C258 0.951 . S
C258 H257 0.951 . S
C258 C264 1.265 . S
H259 C264 0.950 . S
H260 C268 0.949 . S
H261 C269 0.950 . S
H262 C270 0.951 . S
H263 C271 0.951 . S
C264 C258 1.265 . S
C264 H259 0.950 . S
C264 C265 1.478 . S
C265 C252 1.394 . S
C265 C264 1.478 . S
C265 C266 1.397 . S
C266 C265 1.397 . S
C266 C267 1.438 . S
C266 C271 1.429 . S
C267 C250 1.394 . S
C267 C266 1.438 . S
C267 C268 1.428 . S
C268 H260 0.949 . S
C268 C267 1.428 . S
C268 C269 1.345 . S
C269 H261 0.950 . S
C269 C268 1.345 . S
C269 C270 1.424 . S
C270 H262 0.951 . S
C270 C269 1.424 . S
C270 C271 1.347 . S
C271 H263 0.951 . S
C271 C266 1.429 . S
C271 C270 1.347 . S
H272 C273 0.951 . S
C273 H272 0.951 . S
C273 C279 1.265 . S
H274 C279 0.950 . S
H275 C283 0.949 . S
H276 C284 0.950 . S
H277 C285 0.951 . S
H278 C286 0.951 . S
C279 C273 1.265 . S
C279 H274 0.950 . S
C279 C280 1.478 . S
C280 C279 1.478 . S
C280 C281 1.397 . S
C280 C297 1.394 . S
C281 C280 1.397 . S
C281 C282 1.438 . S
C281 C286 1.429 . S
C282 C281 1.438 . S
C282 C283 1.428 . S
C282 C295 1.394 . S
C283 H275 0.949 . S
C283 C282 1.428 . S
C283 C284 1.345 . S
C284 H276 0.950 . S
C284 C283 1.345 . S
C284 C285 1.424 . S
C285 H277 0.951 . S
C285 C284 1.424 . S
C285 C286 1.347 . S
C286 H278 0.951 . S
C286 C281 1.429 . S
C286 C285 1.347 . S
H287 C288 0.951 . S
C288 H287 0.951 . S
C288 C294 1.265 . S
H289 C294 0.950 . S
H290 C298 0.949 . S
H291 C299 0.950 . S
H292 C300 0.951 . S
H293 C301 0.951 . S
C294 C288 1.265 . S
C294 H289 0.950 . S
C294 C295 1.478 . S
C295 C282 1.394 . S
C295 C294 1.478 . S
C295 C296 1.397 . S
C296 C295 1.397 . S
C296 C297 1.438 . S
C296 C301 1.429 . S
C297 C280 1.394 . S
C297 C296 1.438 . S
C297 C298 1.428 . S
C298 H290 0.949 . S
C298 C297 1.428 . S
C298 C299 1.345 . S
C299 H291 0.950 . S
C299 C298 1.345 . S
C299 C300 1.424 . S
C300 H292 0.951 . S
C300 C299 1.424 . S
C300 C301 1.347 . S
C301 H293 0.951 . S
C301 C296 1.429 . S
C301 C300 1.347 . S
H302 C303 0.951 . S
C303 H302 0.951 . S
C303 C309 1.265 . S
H304 C309 0.950 . S
H305 C313 0.949 . S
H306 C314 0.950 . S
H307 C315 0.951 . S
H308 C316 0.951 . S
C309 C303 1.265 . S
C309 H304 0.950 . S
C309 C310 1.478 . S
C310 C309 1.478 . S
C310 C311 1.397 . S
C310 C327 1.394 . S
C311 C310 1.397 . S
C311 C312 1.438 . S
C311 C316 1.429 . S
C312 C311 1.438 . S
C312 C313 1.428 . S
C312 C325 1.394 . S
C313 H305 0.949 . S
C313 C312 1.428 . S
C313 C314 1.345 . S
C314 H306 0.950 . S
C314 C313 1.345 . S
C314 C315 1.424 . S
C315 H307 0.951 . S
C315 C314 1.424 . S
C315 C316 1.347 . S
C316 H308 0.951 . S
C316 C311 1.429 . S
C316 C315 1.347 . S
H317 C318 0.951 . S
C318 H317 0.951 . S
C318 C324 1.265 . S
H319 C324 0.950 . S
H320 C328 0.949 . S
H321 C329 0.950 . S
H322 C330 0.951 . S
H323 C331 0.951 . S
C324 C318 1.265 . S
C324 H319 0.950 . S
C324 C325 1.478 . S
C325 C312 1.394 . S
C325 C324 1.478 . S
C325 C326 1.397 . S
C326 C325 1.397 . S
C326 C327 1.438 . S
C326 C331 1.429 . S
C327 C310 1.394 . S
C327 C326 1.438 . S
C327 C328 1.428 . S
C328 H320 0.949 . S
C328 C327 1.428 . S
C328 C329 1.345 . S
C329 H321 0.950 . S
C329 C328 1.345 . S
C329 C330 1.424 . S
C330 H322 0.951 . S
C330 C329 1.424 . S
C330 C331 1.347 . S
C331 H323 0.951 . S
C331 C326 1.429 . S
C331 C330 1.347 . S
H332 C333 0.951 . S
C333 H332 0.951 . S
C333 C339 1.265 . S
H334 C339 0.950 . S
H335 C343 0.949 . S
H336 C344 0.950 . S
H337 C345 0.951 . S
H338 C346 0.951 . S
C339 C333 1.265 . S
C339 H334 0.950 . S
C339 C340 1.478 . S
C340 C339 1.478 . S
C340 C341 1.397 . S
C340 C357 1.394 . S
C341 C340 1.397 . S
C341 C342 1.438 . S
C341 C346 1.429 . S
C342 C341 1.438 . S
C342 C343 1.428 . S
C342 C355 1.394 . S
C343 H335 0.949 . S
C343 C342 1.428 . S
C343 C344 1.345 . S
C344 H336 0.950 . S
C344 C343 1.345 . S
C344 C345 1.424 . S
C345 H337 0.951 . S
C345 C344 1.424 . S
C345 C346 1.347 . S
C346 H338 0.951 . S
C346 C341 1.429 . S
C346 C345 1.347 . S
H347 C348 0.951 . S
C348 H347 0.951 . S
C348 C354 1.265 . S
H349 C354 0.950 . S
H350 C358 0.949 . S
H351 C359 0.950 . S
H352 C360 0.951 . S
H353 C361 0.951 . S
C354 C348 1.265 . S
C354 H349 0.950 . S
C354 C355 1.478 . S
C355 C342 1.394 . S
C355 C354 1.478 . S
C355 C356 1.397 . S
C356 C355 1.397 . S
C356 C357 1.438 . S
C356 C361 1.429 . S
C357 C340 1.394 . S
C357 C356 1.438 . S
C357 C358 1.428 . S
C358 H350 0.949 . S
C358 C357 1.428 . S
C358 C359 1.345 . S
C359 H351 0.950 . S
C359 C358 1.345 . S
C359 C360 1.424 . S
C360 H352 0.951 . S
C360 C359 1.424 . S
C360 C361 1.347 . S
C361 H353 0.951 . S
C361 C356 1.429 . S
C361 C360 1.347 . S
H362 C363 0.951 . S
C363 H362 0.951 . S
C363 C369 1.265 . S
H364 C369 0.950 1_665 S
H365 C373 0.949 . S
H366 C374 0.950 . S
H367 C375 0.951 . S
H368 C376 0.951 . S
C369 C363 1.265 . S
C369 H364 0.950 1_445 S
C369 C370 1.478 . S
C370 C369 1.478 . S
C370 C371 1.397 1_545 S
C370 C387 1.394 . S
C371 C370 1.397 1_565 S
C371 C372 1.438 . S
C371 C376 1.429 1_455 S
C372 C371 1.438 . S
C372 C373 1.428 . S
C372 C385 1.394 1_565 S
C373 H365 0.949 . S
C373 C372 1.428 . S
C373 C374 1.345 1_455 S
C374 H366 0.950 . S
C374 C373 1.345 1_655 S
C374 C375 1.424 . S
C375 H367 0.951 . S
C375 C374 1.424 . S
C375 C376 1.347 . S
C376 H368 0.951 . S
C376 C371 1.429 1_655 S
C376 C375 1.347 . S
H377 C378 0.951 1_665 S
C378 H377 0.951 1_445 S
C378 C384 1.265 . S
H379 C384 0.950 . S
H380 C388 0.949 . S
H381 C389 0.950 . S
H382 C390 0.951 . S
H383 C391 0.951 . S
C384 C378 1.265 . S
C384 H379 0.950 . S
C384 C385 1.478 . S
C385 C372 1.394 1_545 S
C385 C384 1.478 . S
C385 C386 1.397 . S
C386 C385 1.397 . S
C386 C387 1.438 . S
C386 C391 1.429 . S
C387 C370 1.394 . S
C387 C386 1.438 . S
C387 C388 1.428 . S
C388 H380 0.949 . S
C388 C387 1.428 . S
C388 C389 1.345 . S
C389 H381 0.950 . S
C389 C388 1.345 . S
C389 C390 1.424 . S
C390 H382 0.951 . S
C390 C389 1.424 . S
C390 C391 1.347 . S
C391 H383 0.951 . S
C391 C386 1.429 . S
C391 C390 1.347 . S
H392 C393 0.951 1_465 S
C393 H392 0.951 1_645 S
C393 C399 1.265 . S
H394 C399 0.950 . S
H395 C403 0.949 . S
H396 C404 0.950 . S
H397 C405 0.951 . S
H398 C406 0.951 . S
C399 C393 1.265 . S
C399 H394 0.950 . S
C399 C400 1.478 . S
C400 C399 1.478 . S
C400 C401 1.397 . S
C400 C417 1.394 1_545 S
C401 C400 1.397 . S
C401 C402 1.438 . S
C401 C406 1.429 . S
C402 C401 1.438 . S
C402 C403 1.428 . S
C402 C415 1.394 1_655 S
C403 H395 0.949 . S
C403 C402 1.428 . S
C403 C404 1.345 . S
C404 H396 0.950 . S
C404 C403 1.345 . S
C404 C405 1.424 . S
C405 H397 0.951 . S
C405 C404 1.424 . S
C405 C406 1.347 . S
C406 H398 0.951 . S
C406 C401 1.429 . S
C406 C405 1.347 . S
H407 C408 0.951 . S
C408 H407 0.951 . S
C408 C414 1.265 1_645 S
H409 C414 0.950 . S
H410 C418 0.949 1_655 S
H411 C419 0.950 . S
H412 C420 0.951 . S
H413 C421 0.951 . S
C414 C408 1.265 1_465 S
C414 H409 0.950 . S
C414 C415 1.478 1_565 S
C415 C402 1.394 1_455 S
C415 C414 1.478 1_545 S
C415 C416 1.397 1_545 S
C416 C415 1.397 1_565 S
C416 C417 1.438 1_455 S
C416 C421 1.429 . S
C417 C400 1.394 1_565 S
C417 C416 1.438 1_655 S
C417 C418 1.428 1_655 S
C418 H410 0.949 1_455 S
C418 C417 1.428 1_455 S
C418 C419 1.345 . S
C419 H411 0.950 . S
C419 C418 1.345 . S
C419 C420 1.424 . S
C420 H412 0.951 . S
C420 C419 1.424 . S
C420 C421 1.347 . S
C421 H413 0.951 . S
C421 C416 1.429 . S
C421 C420 1.347 . S
H422 C423 0.951 . S
C423 H422 0.951 . S
C423 C429 1.265 . S
H424 C429 0.950 . S
H425 C433 0.949 . S
H426 C434 0.950 . S
H427 C435 0.951 . S
H428 C436 0.951 . S
C429 C423 1.265 . S
C429 H424 0.950 . S
C429 C430 1.478 . S
C430 C429 1.478 . S
C430 C431 1.397 . S
C430 C447 1.394 . S
C431 C430 1.397 . S
C431 C432 1.438 . S
C431 C436 1.429 . S
C432 C431 1.438 . S
C432 C433 1.428 . S
C432 C445 1.394 . S
C433 H425 0.949 . S
C433 C432 1.428 . S
C433 C434 1.345 . S
C434 H426 0.950 . S
C434 C433 1.345 . S
C434 C435 1.424 . S
C435 H427 0.951 . S
C435 C434 1.424 . S
C435 C436 1.347 . S
C436 H428 0.951 . S
C436 C431 1.429 . S
C436 C435 1.347 . S
H437 C438 0.951 . S
C438 H437 0.951 . S
C438 C444 1.265 . S
H439 C444 0.950 . S
H440 C448 0.949 . S
H441 C449 0.950 . S
H442 C450 0.951 . S
H443 C451 0.951 . S
C444 C438 1.265 . S
C444 H439 0.950 . S
C444 C445 1.478 . S
C445 C432 1.394 . S
C445 C444 1.478 . S
C445 C446 1.397 . S
C446 C445 1.397 . S
C446 C447 1.438 . S
C446 C451 1.429 . S
C447 C430 1.394 . S
C447 C446 1.438 . S
C447 C448 1.428 . S
C448 H440 0.949 . S
C448 C447 1.428 . S
C448 C449 1.345 . S
C449 H441 0.950 . S
C449 C448 1.345 . S
C449 C450 1.424 . S
C450 H442 0.951 . S
C450 C449 1.424 . S
C450 C451 1.347 . S
C451 H443 0.951 . S
C451 C446 1.429 . S
C451 C450 1.347 . S
H452 C453 0.951 . S
C453 H452 0.951 . S
C453 C459 1.265 . S
H454 C459 0.950 . S
H455 C463 0.949 . S
H456 C464 0.950 . S
H457 C465 0.951 . S
H458 C466 0.951 . S
C459 C453 1.265 . S
C459 H454 0.950 . S
C459 C460 1.478 . S
C460 C459 1.478 . S
C460 C461 1.397 . S
C460 C477 1.394 . S
C461 C460 1.397 . S
C461 C462 1.438 . S
C461 C466 1.429 . S
C462 C461 1.438 . S
C462 C463 1.428 . S
C462 C475 1.394 . S
C463 H455 0.949 . S
C463 C462 1.428 . S
C463 C464 1.345 . S
C464 H456 0.950 . S
C464 C463 1.345 . S
C464 C465 1.424 . S
C465 H457 0.951 . S
C465 C464 1.424 . S
C465 C466 1.347 . S
C466 H458 0.951 . S
C466 C461 1.429 . S
C466 C465 1.347 . S
H467 C468 0.951 . S
C468 H467 0.951 . S
C468 C474 1.265 . S
H469 C474 0.950 . S
H470 C478 0.949 . S
H471 C479 0.950 . S
H472 C480 0.951 . S
H473 C481 0.951 . S
C474 C468 1.265 . S
C474 H469 0.950 . S
C474 C475 1.478 . S
C475 C462 1.394 . S
C475 C474 1.478 . S
C475 C476 1.397 . S
C476 C475 1.397 . S
C476 C477 1.438 . S
C476 C481 1.429 . S
C477 C460 1.394 . S
C477 C476 1.438 . S
C477 C478 1.428 . S
C478 H470 0.949 . S
C478 C477 1.428 . S
C478 C479 1.345 . S
C479 H471 0.950 . S
C479 C478 1.345 . S
C479 C480 1.424 . S
C480 H472 0.951 . S
C480 C479 1.424 . S
C480 C481 1.347 . S
C481 H473 0.951 . S
C481 C476 1.429 . S
C481 C480 1.347 . S
C138 C109 1.580 . S
C123 C21 1.565 . S
C153 C19 1.386 . S
C168 C95 1.291 . S
C183 C18 1.315 . S
C198 C114 1.364 . S
C213 C20 1.536 . S
C228 C90 1.573 . S
C243 C44 1.588 . S
C258 C71 1.590 . S
C273 C42 1.389 . S
C288 C57 1.386 . S
C318 C76 1.367 . S
C303 C41 1.315 . S
C348 C52 1.571 . S
C333 C43 1.534 . S
C363 C16 1.556 . S
C378 C48 1.554 1_545 S
C393 C17 1.507 . S
C408 C67 1.486 1_545 S
C438 C86 1.525 . S
C423 C39 1.543 . S
C453 C40 1.512 . S
C468 C105 1.515 . S
