# Generated by pormake.
# Topology pts, (4,4)-cn, num edge types: 1
# Building blocks:
#     Node 0, Type 0, BuildingBlock: MIFKUJ_clean_linker_1, # of connection points: 4
#     Node 1, Type 0, BuildingBlock: MIFKUJ_clean_linker_1, # of connection points: 4
#     Node 2, Type 1, BuildingBlock: UXUYUI_clean_sbu_0, # of connection points: 4
#     Node 3, Type 1, BuildingBlock: UXUYUI_clean_sbu_0, # of connection points: 4
#     Edge 4, Type (0, 1), BuildingBlock: EYOCIG_clean_linker_4, # of connection points: 2
#     Edge 5, Type (0, 1), BuildingBlock: EYOCIG_clean_linker_4, # of connection points: 2
#     Edge 6, Type (0, 1), BuildingBlock: EYOCIG_clean_linker_4, # of connection points: 2
#     Edge 7, Type (0, 1), BuildingBlock: EYOCIG_clean_linker_4, # of connection points: 2
#     Edge 8, Type (0, 1), BuildingBlock: EYOCIG_clean_linker_4, # of connection points: 2
#     Edge 9, Type (0, 1), BuildingBlock: EYOCIG_clean_linker_4, # of connection points: 2
#     Edge 10, Type (0, 1), BuildingBlock: EYOCIG_clean_linker_4, # of connection points: 2
#     Edge 11, Type (0, 1), BuildingBlock: EYOCIG_clean_linker_4, # of connection points: 2
# Relax obj value: 0.001
# Max RMSD: 0.016
# Mean RMSD: 0.014
data_MOF--net-pts--node1-UXUYUI_clean_sbu_0--node2-MIFKUJ_clean_linker_1--edge1-EYOCIG_clean_linker_4
_symmetry_space_group_name_H-M    P1
_symmetry_Int_Tables_number       1
_symmetry_cell_setting            triclinic
loop_
_symmetry_equiv_pos_as_xyz
'x, y, z'
_cell_length_a     30.870046
_cell_length_b     30.870981
_cell_length_c     42.29721
_cell_angle_alpha  90.105627
_cell_angle_beta   90.109255
_cell_angle_gamma 89.958871
loop_
_atom_site_label
_atom_site_type_symbol
_atom_site_fract_x
_atom_site_fract_y
_atom_site_fract_z
_atom_type_partial_charge
H0 H 0.5785 0.94515 0.06104 0.0
H1 H 0.64398 0.94565 0.09415 0.0
H2 H 0.67891 0.07052 0.0565 0.0
H3 H 0.61336 0.07017 0.02337 0.0
H4 H 0.51148 1.00169 0.06282 0.0
H5 H 0.61719 0.95545 0.98815 0.0
H6 H 0.68231 0.95581 0.95502 0.0
H7 H 0.63757 0.07188 0.90878 0.0
H8 H 0.57287 0.07242 0.94248 0.0
H9 H 0.44153 0.07509 0.94784 0.0
H10 H 0.37604 0.07367 0.91474 0.0
H11 H 0.34228 0.94884 0.95302 0.0
H12 H 0.40783 0.9501 0.98612 0.0
H13 H 0.50913 0.0192 0.94638 0.0
H14 H 0.40323 0.06512 0.02101 0.0
H15 H 0.33812 0.06456 0.05414 0.0
H16 H 0.38319 0.94859 0.10035 0.0
H17 H 0.44792 0.94828 0.06666 0.0
C18 C 0.59117 0.00748 0.03955 0.0
C19 C 0.60031 0.97258 0.0598 0.0
C20 C 0.6376 0.97283 0.07865 0.0
C21 C 0.6661 0.00812 0.0777 0.0
C22 C 0.65727 0.04293 0.05743 0.0
C23 C 0.62004 0.04264 0.03846 0.0
C24 C 0.55034 0.00803 0.02088 0.0
C25 C 0.5109 0.00482 0.03728 0.0
C26 C 0.54984 0.01349 0.98761 0.0
C27 C 0.59026 0.01435 0.96832 0.0
C28 C 0.62163 0.98152 0.97137 0.0
C29 C 0.65863 0.98146 0.95227 0.0
C30 C 0.66467 0.0139 0.92957 0.0
C31 C 0.63348 0.04661 0.92628 0.0
C32 C 0.59657 0.04685 0.94548 0.0
C33 C 0.42944 0.01284 0.96964 0.0
C34 C 0.41998 0.04747 0.94922 0.0
C35 C 0.38268 0.04669 0.93037 0.0
C36 C 0.35451 0.01115 0.9315 0.0
C37 C 0.36366 0.97661 0.95194 0.0
C38 C 0.4009 0.97743 0.9709 0.0
C39 C 0.47027 0.01278 0.98832 0.0
C40 C 0.50972 0.0161 0.97192 0.0
C41 C 0.47078 0.00736 0.02159 0.0
C42 C 0.43036 0.00633 0.04086 0.0
C43 C 0.39888 0.03904 0.03779 0.0
C44 C 0.36187 0.03897 0.05689 0.0
C45 C 0.35594 0.00651 0.07958 0.0
C46 C 0.3872 0.97388 0.08287 0.0
C47 C 0.42413 0.97378 0.06367 0.0
H48 H 0.07529 0.4419 0.44804 0.0
H49 H 0.07486 0.37596 0.41542 0.0
H50 H 0.95006 0.34138 0.45337 0.0
H51 H 0.95035 0.40739 0.48601 0.0
H52 H 0.01895 0.50919 0.44633 0.0
H53 H 0.06556 0.40368 0.52082 0.0
H54 H 0.0655 0.33841 0.55379 0.0
H55 H 0.94943 0.38261 0.60032 0.0
H56 H 0.94859 0.44745 0.56676 0.0
H57 H 0.94499 0.57862 0.56107 0.0
H58 H 0.94564 0.64411 0.59417 0.0
H59 H 0.07055 0.67879 0.55647 0.0
H60 H 0.07006 0.61323 0.52336 0.0
H61 H 1.0015 0.51145 0.56279 0.0
H62 H 0.9556 0.6175 0.48807 0.0
H63 H 0.95642 0.68268 0.45502 0.0
H64 H 0.07248 0.63749 0.409 0.0
H65 H 0.07255 0.57271 0.44262 0.0
C66 C 0.013 0.42944 0.46964 0.0
C67 C 0.04788 0.42009 0.44943 0.0
C68 C 0.04767 0.38252 0.43087 0.0
C69 C 0.01245 0.35397 0.43207 0.0
C70 C 0.97761 0.36305 0.45226 0.0
C71 C 0.97786 0.40056 0.47094 0.0
C72 C 0.01259 0.47031 0.48827 0.0
C73 C 0.01583 0.50976 0.47187 0.0
C74 C 0.00728 0.47079 0.52154 0.0
C75 C 0.00664 0.43034 0.54081 0.0
C76 C 0.03956 0.39909 0.53764 0.0
C77 C 0.03979 0.36201 0.55665 0.0
C78 C 0.00743 0.35578 0.57938 0.0
C79 C 0.97464 0.38685 0.5828 0.0
C80 C 0.97423 0.42385 0.56368 0.0
C81 C 0.00733 0.59117 0.53955 0.0
C82 C 0.97246 0.60038 0.55981 0.0
C83 C 0.9728 0.63768 0.57866 0.0
C84 C 0.00814 0.66611 0.57769 0.0
C85 C 0.04292 0.6572 0.55741 0.0
C86 C 0.04255 0.61996 0.53846 0.0
C87 C 0.00779 0.55035 0.52086 0.0
C88 C 0.00459 0.51089 0.53725 0.0
C89 C 0.0133 0.54987 0.48759 0.0
C90 C 0.01444 0.59032 0.46833 0.0
C91 C 0.98176 0.62185 0.47136 0.0
C92 C 0.98198 0.65889 0.45231 0.0
C93 C 0.01453 0.66482 0.42968 0.0
C94 C 0.04712 0.6335 0.42643 0.0
C95 C 0.04708 0.59653 0.44559 0.0
Li96 Li 0.01142 0.0516 0.27586 0.0
Li97 Li 0.00919 0.96909 0.27582 0.0
Li98 Li 0.05151 0.01147 0.23328 0.0
Li99 Li 0.96901 0.00932 0.23332 0.0
C100 C 0.09535 0.01196 0.29875 0.0
N101 N 0.16816 0.01722 0.33653 0.0
C102 C 0.09869 0.98647 0.32591 0.0
C103 C 0.1289 0.0402 0.29078 0.0
C104 C 0.13579 0.98957 0.34471 0.0
C105 C 0.16549 0.04239 0.31022 0.0
C106 C 0.92535 0.00875 0.29877 0.0
C107 C 0.85522 0.97835 0.31009 0.0
N108 N 0.8526 0.0036 0.33641 0.0
C109 C 0.92204 0.03434 0.32595 0.0
C110 C 0.89178 0.98047 0.29072 0.0
C111 C 0.88497 0.03129 0.34467 0.0
C112 C 0.98605 0.13653 0.29403 0.0
N113 N 0.01236 0.10279 0.30187 0.0
C114 C 0.03907 0.14174 0.3469 0.0
C115 C 0.03853 0.10472 0.32779 0.0
C116 C 0.01221 0.17678 0.33933 0.0
C117 C 0.98547 0.17414 0.3126 0.0
H118 H 0.96538 0.13412 0.27342 0.0
H119 H 0.05874 0.07744 0.33387 0.0
C120 C 0.0352 0.88438 0.29348 0.0
N121 N 0.00858 0.91773 0.30162 0.0
C122 C 0.03634 0.84655 0.31169 0.0
C123 C 0.98263 0.87789 0.34634 0.0
C124 C 0.98258 0.91518 0.32754 0.0
C125 C 0.00984 0.84323 0.33842 0.0
H126 H 0.05571 0.88727 0.27288 0.0
H127 H 0.96205 0.94215 0.33384 0.0
C128 C 0.01191 0.09535 0.21039 0.0
N129 N 0.01705 0.16806 0.1727 0.0
C130 C 0.98633 0.09862 0.1832 0.0
C131 C 0.04017 0.12894 0.21843 0.0
C132 C 0.98937 0.13568 0.16446 0.0
C133 C 0.0423 0.16547 0.19903 0.0
C134 C 0.00858 0.92534 0.21031 0.0
C135 C 0.03409 0.92199 0.18316 0.0
C136 C 0.98036 0.89178 0.2183 0.0
C137 C 0.03103 0.88486 0.1644 0.0
C138 C 0.97821 0.85517 0.19888 0.0
N139 N 0.0034 0.85249 0.17258 0.0
C140 C 0.1363 0.98556 0.21567 0.0
C141 C 0.10548 0.03818 0.18162 0.0
C142 C 0.17418 0.98455 0.19753 0.0
N143 N 0.1029 0.01213 0.2075 0.0
C144 C 0.14283 0.03826 0.16288 0.0
C145 C 0.17753 0.01111 0.17083 0.0
H146 H 0.13339 0.96502 0.23625 0.0
H147 H 0.07849 0.05868 0.17529 0.0
C148 C 0.88409 0.03491 0.21552 0.0
N149 N 0.91767 0.00851 0.20749 0.0
C150 C 0.84625 0.03555 0.19721 0.0
C151 C 0.87811 0.98186 0.16272 0.0
C152 C 0.91538 0.98234 0.18159 0.0
C153 C 0.84321 0.00877 0.17053 0.0
H154 H 0.8868 0.05557 0.23611 0.0
H155 H 0.94254 0.96203 0.17536 0.0
O156 O 0.05956 0.00874 0.27989 0.0
O157 O 0.96108 0.01196 0.27994 0.0
O158 O 0.00868 0.05966 0.22925 0.0
O159 O 0.0118 0.96113 0.22918 0.0
H160 H 0.07291 0.96453 0.33243 0.0
H161 H 0.12669 0.06014 0.26981 0.0
H162 H 0.13886 0.96998 0.36578 0.0
H163 H 0.19179 0.06405 0.30438 0.0
H164 H 0.82891 0.95666 0.30417 0.0
H165 H 0.94781 0.05632 0.33252 0.0
H166 H 0.89394 0.96049 0.26971 0.0
H167 H 0.88193 0.05096 0.36575 0.0
H168 H 0.06003 0.14285 0.36747 0.0
H169 H 0.96428 0.20073 0.30622 0.0
H170 H 0.05779 0.8203 0.30503 0.0
H171 H 0.96184 0.87629 0.36692 0.0
H172 H 0.96434 0.07284 0.17664 0.0
H173 H 0.06015 0.1268 0.23944 0.0
H174 H 0.9697 0.1387 0.14338 0.0
H175 H 0.06397 0.19179 0.20494 0.0
H176 H 0.05602 0.94777 0.17665 0.0
H177 H 0.96042 0.89399 0.23927 0.0
H178 H 0.05064 0.88178 0.14334 0.0
H179 H 0.95657 0.82885 0.20474 0.0
H180 H 0.20047 0.96315 0.20421 0.0
H181 H 0.14445 0.05909 0.14233 0.0
H182 H 0.81978 0.05678 0.20376 0.0
H183 H 0.8767 0.96089 0.14217 0.0
Li184 Li 0.96909 0.01138 0.77582 0.0
Li185 Li 0.05162 0.00915 0.77585 0.0
Li186 Li 0.00934 0.05155 0.73331 0.0
Li187 Li 0.01142 0.96903 0.73329 0.0
C188 C 0.00871 0.09531 0.79885 0.0
N189 N 0.00357 0.16816 0.83658 0.0
C190 C 0.03429 0.09863 0.82604 0.0
C191 C 0.98045 0.1289 0.79083 0.0
C192 C 0.03125 0.13576 0.8448 0.0
C193 C 0.97833 0.16551 0.81024 0.0
C194 C 0.01203 0.9253 0.7987 0.0
C195 C 0.04245 0.85514 0.81009 0.0
N196 N 0.01725 0.85256 0.83638 0.0
C197 C 0.98651 0.92206 0.82585 0.0
C198 C 0.04029 0.89169 0.79071 0.0
C199 C 0.98959 0.88499 0.84458 0.0
C200 C 0.88426 0.98551 0.79351 0.0
N201 N 0.91773 0.01202 0.80162 0.0
C202 C 0.87795 0.0386 0.84625 0.0
C203 C 0.91529 0.03817 0.82753 0.0
C204 C 0.84308 0.01171 0.83827 0.0
C205 C 0.84635 0.98484 0.81165 0.0
H206 H 0.88708 0.96484 0.77294 0.0
H207 H 0.94236 0.05857 0.83384 0.0
C208 C 0.13658 0.03455 0.79373 0.0
N209 N 0.10295 0.00828 0.8017 0.0
C210 C 0.17442 0.03509 0.81205 0.0
C211 C 0.14245 0.98153 0.84641 0.0
C212 C 0.10519 0.98211 0.82754 0.0
C213 C 0.1774 0.00833 0.83867 0.0
H214 H 0.13392 0.05521 0.77318 0.0
H215 H 0.07799 0.9619 0.83372 0.0
C216 C 0.92535 0.01199 0.71029 0.0
N217 N 0.85247 0.01706 0.67256 0.0
C218 C 0.92203 0.9864 0.68311 0.0
C219 C 0.89174 0.04023 0.7183 0.0
C220 C 0.88489 0.98941 0.66434 0.0
C221 C 0.85512 0.04232 0.69889 0.0
C222 C 0.09533 0.0085 0.7104 0.0
C223 C 0.09857 0.03404 0.68327 0.0
C224 C 0.12897 0.98027 0.7184 0.0
C225 C 0.13565 0.03101 0.66454 0.0
C226 C 0.16553 0.97815 0.69902 0.0
N227 N 0.16809 0.00337 0.67274 0.0
C228 C 0.03536 0.13629 0.71557 0.0
C229 C 0.9827 0.1053 0.68153 0.0
C230 C 0.0362 0.17413 0.69735 0.0
N231 N 0.00878 0.10288 0.70747 0.0
C232 C 0.98244 0.14258 0.66274 0.0
C233 C 0.00943 0.17739 0.67068 0.0
H234 H 0.05597 0.13348 0.73618 0.0
H235 H 0.96224 0.07827 0.67524 0.0
C236 C 0.98552 0.88426 0.71553 0.0
N237 N 0.01203 0.91768 0.70749 0.0
C238 C 0.98455 0.84645 0.69722 0.0
C239 C 0.03819 0.87796 0.6627 0.0
C240 C 0.03806 0.91521 0.68159 0.0
C241 C 0.01111 0.84325 0.6705 0.0
H242 H 0.96498 0.88711 0.73613 0.0
H243 H 0.05848 0.94224 0.67537 0.0
O244 O 0.01193 0.05953 0.77997 0.0
O245 O 0.00881 0.96105 0.77988 0.0
O246 O 0.96112 0.00881 0.72917 0.0
O247 O 0.05961 0.01173 0.72925 0.0
H248 H 0.05626 0.07284 0.83258 0.0
H249 H 0.96048 0.12671 0.76982 0.0
H250 H 0.05091 0.13883 0.86589 0.0
H251 H 0.95666 0.19184 0.80435 0.0
H252 H 0.06413 0.82879 0.80422 0.0
H253 H 0.96457 0.94787 0.83239 0.0
H254 H 0.06025 0.89382 0.76974 0.0
H255 H 0.96997 0.88198 0.86563 0.0
H256 H 0.8764 0.05963 0.86675 0.0
H257 H 0.81995 0.96359 0.80497 0.0
H258 H 0.20092 0.05625 0.80556 0.0
H259 H 0.14381 0.9606 0.86692 0.0
H260 H 0.94783 0.96445 0.67656 0.0
H261 H 0.89392 0.06022 0.73931 0.0
H262 H 0.88183 0.96973 0.64327 0.0
H263 H 0.82877 0.06398 0.70478 0.0
H264 H 0.07274 0.05598 0.67673 0.0
H265 H 0.12685 0.96031 0.73936 0.0
H266 H 0.13864 0.05065 0.6435 0.0
H267 H 0.19189 0.9565 0.7049 0.0
H268 H 0.0575 0.2005 0.70402 0.0
H269 H 0.96147 0.14412 0.64219 0.0
H270 H 0.9632 0.82012 0.70377 0.0
H271 H 0.059 0.87642 0.64212 0.0
C272 C 0.28608 0.00791 0.11617 0.0
C273 C 0.31799 0.00701 0.09961 0.0
C274 C 0.24844 0.00919 0.13533 0.0
C275 C 0.21614 0.01009 0.15148 0.0
C276 C 0.00876 0.28585 0.61589 0.0
C277 C 0.00808 0.31772 0.59929 0.0
C278 C 0.00941 0.24833 0.63519 0.0
C279 C 0.00963 0.21615 0.65148 0.0
C280 C 0.73565 0.009 0.11467 0.0
C281 C 0.70401 0.00876 0.09778 0.0
C282 C 0.77278 0.00915 0.13441 0.0
C283 C 0.80472 0.0092 0.151 0.0
C284 C 0.00937 0.7357 0.61462 0.0
C285 C 0.0089 0.70403 0.59777 0.0
C286 C 0.00987 0.77286 0.63434 0.0
C287 C 0.01025 0.80481 0.65092 0.0
C288 C 0.28496 0.00929 0.89454 0.0
C289 C 0.31659 0.00995 0.91143 0.0
C290 C 0.24781 0.00885 0.87482 0.0
C291 C 0.21584 0.00877 0.85826 0.0
C292 C 0.01177 0.28395 0.39558 0.0
C293 C 0.01186 0.31578 0.41227 0.0
C294 C 0.01178 0.2468 0.37585 0.0
C295 C 0.01182 0.21501 0.35912 0.0
C296 C 0.73448 0.01277 0.89293 0.0
C297 C 0.70264 0.0134 0.90956 0.0
C298 C 0.77201 0.01205 0.87364 0.0
C299 C 0.80424 0.01168 0.8574 0.0
C300 C 0.0133 0.73475 0.39317 0.0
C301 C 0.01415 0.7028 0.40968 0.0
C302 C 0.01199 0.7724 0.37401 0.0
C303 C 0.01098 0.80467 0.35783 0.0
loop_
_geom_bond_atom_site_label_1
_geom_bond_atom_site_label_2
_geom_bond_distance
_geom_bond_site_symmetry_2
_ccdc_geom_bond_type
H0 C19 0.949 . S
H1 C20 0.950 . S
H2 C22 0.950 . S
H3 C23 0.950 . S
H4 C25 0.949 1_565 S
H5 C28 0.950 . S
H6 C29 0.950 . S
H7 C31 0.951 . S
H8 C32 0.949 . S
H9 C34 0.949 . S
H10 C35 0.950 . S
H11 C37 0.950 . S
H12 C38 0.950 . S
H13 C40 0.950 . S
H14 C43 0.950 . S
H15 C44 0.950 . S
H16 C46 0.951 . S
H17 C47 0.949 . S
C18 C19 1.376 1_545 S
C18 C23 1.386 . S
C18 C24 1.483 . S
C19 H0 0.949 . S
C19 C18 1.376 1_565 S
C19 C20 1.397 . S
C20 H1 0.950 . S
C20 C19 1.397 . S
C20 C21 1.391 1_565 S
C21 C20 1.391 1_545 S
C21 C22 1.405 . S
C22 H2 0.950 . S
C22 C21 1.405 . S
C22 C23 1.367 . S
C23 H3 0.950 . S
C23 C18 1.386 . S
C23 C22 1.367 . S
C24 C18 1.483 . S
C24 C25 1.382 . S
C24 C26 1.403 1_554 S
C25 H4 0.949 1_545 S
C25 C24 1.382 . S
C25 C41 1.412 . S
C26 C24 1.403 1_556 S
C26 C27 1.489 . S
C26 C40 1.411 . S
C27 C26 1.489 . S
C27 C28 1.383 1_545 S
C27 C32 1.382 . S
C28 H5 0.950 . S
C28 C27 1.383 1_565 S
C28 C29 1.395 . S
C29 H6 0.950 . S
C29 C28 1.395 . S
C29 C30 1.288 1_565 S
C30 C29 1.288 1_545 S
C30 C31 1.392 . S
C31 H7 0.951 . S
C31 C30 1.392 . S
C31 C32 1.392 . S
C32 H8 0.949 . S
C32 C27 1.382 . S
C32 C31 1.392 . S
C33 C34 1.376 . S
C33 C38 1.386 1_545 S
C33 C39 1.483 . S
C34 H9 0.949 . S
C34 C33 1.376 . S
C34 C35 1.397 . S
C35 H10 0.950 . S
C35 C34 1.397 . S
C35 C36 1.391 . S
C36 C35 1.391 . S
C36 C37 1.405 1_545 S
C37 H11 0.950 . S
C37 C36 1.405 1_565 S
C37 C38 1.367 . S
C38 H12 0.950 . S
C38 C33 1.386 1_565 S
C38 C37 1.367 . S
C39 C33 1.483 . S
C39 C40 1.382 . S
C39 C41 1.403 1_556 S
C40 H13 0.950 . S
C40 C26 1.411 . S
C40 C39 1.382 . S
C41 C25 1.412 . S
C41 C39 1.403 1_554 S
C41 C42 1.489 . S
C42 C41 1.489 . S
C42 C43 1.383 . S
C42 C47 1.382 1_545 S
C43 H14 0.950 . S
C43 C42 1.383 . S
C43 C44 1.395 . S
C44 H15 0.950 . S
C44 C43 1.395 . S
C44 C45 1.288 . S
C45 C44 1.288 . S
C45 C46 1.392 1_545 S
C46 H16 0.951 . S
C46 C45 1.392 1_565 S
C46 C47 1.392 . S
C47 H17 0.949 . S
C47 C42 1.382 1_565 S
C47 C46 1.392 . S
H48 C67 0.949 . S
H49 C68 0.950 . S
H50 C70 0.950 . S
H51 C71 0.950 . S
H52 C73 0.950 . S
H53 C76 0.950 . S
H54 C77 0.950 . S
H55 C79 0.951 . S
H56 C80 0.949 . S
H57 C82 0.949 . S
H58 C83 0.950 . S
H59 C85 0.950 . S
H60 C86 0.950 . S
H61 C88 0.949 1_655 S
H62 C91 0.950 . S
H63 C92 0.950 . S
H64 C94 0.951 . S
H65 C95 0.949 . S
C66 C67 1.376 . S
C66 C71 1.386 1_455 S
C66 C72 1.483 . S
C67 H48 0.949 . S
C67 C66 1.376 . S
C67 C68 1.397 . S
C68 H49 0.950 . S
C68 C67 1.397 . S
C68 C69 1.391 . S
C69 C68 1.391 . S
C69 C70 1.405 1_455 S
C70 H50 0.950 . S
C70 C69 1.405 1_655 S
C70 C71 1.367 . S
C71 H51 0.950 . S
C71 C66 1.386 1_655 S
C71 C70 1.367 . S
C72 C66 1.483 . S
C72 C73 1.382 . S
C72 C74 1.403 . S
C73 H52 0.950 . S
C73 C72 1.382 . S
C73 C89 1.411 . S
C74 C72 1.403 . S
C74 C75 1.489 . S
C74 C88 1.411 . S
C75 C74 1.489 . S
C75 C76 1.383 . S
C75 C80 1.382 1_455 S
C76 H53 0.950 . S
C76 C75 1.383 . S
C76 C77 1.395 . S
C77 H54 0.950 . S
C77 C76 1.395 . S
C77 C78 1.288 . S
C78 C77 1.288 . S
C78 C79 1.392 1_455 S
C79 H55 0.951 . S
C79 C78 1.392 1_655 S
C79 C80 1.392 . S
C80 H56 0.949 . S
C80 C75 1.382 1_655 S
C80 C79 1.392 . S
C81 C82 1.376 1_455 S
C81 C86 1.386 . S
C81 C87 1.483 . S
C82 H57 0.949 . S
C82 C81 1.376 1_655 S
C82 C83 1.397 . S
C83 H58 0.950 . S
C83 C82 1.397 . S
C83 C84 1.391 1_655 S
C84 C83 1.391 1_455 S
C84 C85 1.405 . S
C85 H59 0.950 . S
C85 C84 1.405 . S
C85 C86 1.367 . S
C86 H60 0.950 . S
C86 C81 1.386 . S
C86 C85 1.367 . S
C87 C81 1.483 . S
C87 C88 1.382 . S
C87 C89 1.403 . S
C88 H61 0.949 1_455 S
C88 C74 1.411 . S
C88 C87 1.382 . S
C89 C73 1.411 . S
C89 C87 1.403 . S
C89 C90 1.489 . S
C90 C89 1.489 . S
C90 C91 1.383 1_455 S
C90 C95 1.382 . S
C91 H62 0.950 . S
C91 C90 1.383 1_655 S
C91 C92 1.395 . S
C92 H63 0.950 . S
C92 C91 1.395 . S
C92 C93 1.288 1_655 S
C93 C92 1.288 1_455 S
C93 C94 1.392 . S
C94 H64 0.951 . S
C94 C93 1.392 . S
C94 C95 1.392 . S
C95 H65 0.949 . S
C95 C90 1.382 . S
C95 C94 1.392 . S
Li96 N113 1.990 . S
Li96 O156 1.956 . S
Li96 O157 1.970 1_455 S
Li96 O158 1.961 . S
Li97 N121 1.990 . S
Li97 O156 1.970 1_565 S
Li97 O157 1.956 1_465 S
Li97 O159 1.961 . S
Li98 N143 1.990 . S
Li98 O156 1.961 . S
Li98 O158 1.956 . S
Li98 O159 1.970 1_545 S
Li99 N149 1.990 . S
Li99 O157 1.961 . S
Li99 O158 1.970 1_655 S
Li99 O159 1.956 1_645 S
C100 C102 1.348 1_545 S
C100 C103 1.356 . S
C100 O156 1.325 . S
N101 C104 1.314 1_545 S
N101 C105 1.279 . S
C102 C100 1.348 1_565 S
C102 C104 1.353 . S
C102 H160 0.929 . S
C103 C100 1.356 . S
C103 C105 1.358 . S
C103 H161 0.930 . S
C104 N101 1.314 1_565 S
C104 C102 1.353 . S
C104 H162 0.930 . S
C105 N101 1.279 . S
C105 C103 1.358 . S
C105 H163 0.930 . S
C106 C109 1.348 . S
C106 C110 1.356 1_545 S
C106 O157 1.325 . S
C107 N108 1.279 1_565 S
C107 C110 1.358 . S
C107 H164 0.930 . S
N108 C107 1.279 1_545 S
N108 C111 1.314 . S
C109 C106 1.348 . S
C109 C111 1.353 . S
C109 H165 0.929 . S
C110 C106 1.356 1_565 S
C110 C107 1.358 . S
C110 H166 0.930 . S
C111 N108 1.314 . S
C111 C109 1.353 . S
C111 H167 0.930 . S
C112 N113 1.314 1_655 S
C112 C117 1.353 . S
C112 H118 0.930 . S
N113 Li96 1.990 . S
N113 C112 1.314 1_455 S
N113 C115 1.279 . S
C114 C115 1.358 . S
C114 C116 1.356 . S
C114 H168 0.930 . S
C115 N113 1.279 . S
C115 C114 1.358 . S
C115 H119 0.930 . S
C116 C114 1.356 . S
C116 C117 1.348 1_455 S
C117 C112 1.353 . S
C117 C116 1.348 1_655 S
C117 H169 0.929 . S
H118 C112 0.930 . S
H119 C115 0.930 . S
C120 N121 1.314 . S
C120 C122 1.353 . S
C120 H126 0.930 . S
N121 Li97 1.990 . S
N121 C120 1.314 . S
N121 C124 1.279 1_455 S
C122 C120 1.353 . S
C122 C125 1.348 . S
C122 H170 0.929 . S
C123 C124 1.358 . S
C123 C125 1.356 1_655 S
C123 H171 0.930 . S
C124 N121 1.279 1_655 S
C124 C123 1.358 . S
C124 H127 0.930 . S
C125 C122 1.348 . S
C125 C123 1.356 1_455 S
H126 C120 0.930 . S
H127 C124 0.930 . S
C128 C130 1.348 1_455 S
C128 C131 1.356 . S
C128 O158 1.325 . S
N129 C132 1.314 1_455 S
N129 C133 1.279 . S
C130 C128 1.348 1_655 S
C130 C132 1.353 . S
C130 H172 0.929 . S
C131 C128 1.356 . S
C131 C133 1.358 . S
C131 H173 0.930 . S
C132 N129 1.314 1_655 S
C132 C130 1.353 . S
C132 H174 0.930 . S
C133 N129 1.279 . S
C133 C131 1.358 . S
C133 H175 0.930 . S
C134 C135 1.348 . S
C134 C136 1.356 1_455 S
C134 O159 1.325 . S
C135 C134 1.348 . S
C135 C137 1.353 . S
C135 H176 0.929 . S
C136 C134 1.356 1_655 S
C136 C138 1.358 . S
C136 H177 0.930 . S
C137 C135 1.353 . S
C137 N139 1.314 . S
C137 H178 0.930 . S
C138 C136 1.358 . S
C138 N139 1.279 1_655 S
C138 H179 0.930 . S
N139 C137 1.314 . S
N139 C138 1.279 1_455 S
C140 C142 1.353 . S
C140 N143 1.314 1_565 S
C140 H146 0.930 . S
C141 N143 1.279 . S
C141 C144 1.358 . S
C141 H147 0.930 . S
C142 C140 1.353 . S
C142 C145 1.348 1_565 S
C142 H180 0.929 . S
N143 Li98 1.990 . S
N143 C140 1.314 1_545 S
N143 C141 1.279 . S
C144 C141 1.358 . S
C144 C145 1.356 . S
C144 H181 0.930 . S
C145 C142 1.348 1_545 S
C145 C144 1.356 . S
H146 C140 0.930 . S
H147 C141 0.930 . S
C148 N149 1.314 . S
C148 C150 1.353 . S
C148 H154 0.930 . S
N149 Li99 1.990 . S
N149 C148 1.314 . S
N149 C152 1.279 1_545 S
C150 C148 1.353 . S
C150 C153 1.348 . S
C150 H182 0.929 . S
C151 C152 1.358 . S
C151 C153 1.356 1_565 S
C151 H183 0.930 . S
C152 N149 1.279 1_565 S
C152 C151 1.358 . S
C152 H155 0.930 . S
C153 C150 1.348 . S
C153 C151 1.356 1_545 S
H154 C148 0.930 . S
H155 C152 0.930 . S
O156 Li96 1.956 . S
O156 Li97 1.970 1_545 S
O156 Li98 1.961 . S
O156 C100 1.325 . S
O157 Li96 1.970 1_655 S
O157 Li97 1.956 1_645 S
O157 Li99 1.961 . S
O157 C106 1.325 . S
O158 Li96 1.961 . S
O158 Li98 1.956 . S
O158 Li99 1.970 1_455 S
O158 C128 1.325 . S
O159 Li97 1.961 . S
O159 Li98 1.970 1_565 S
O159 Li99 1.956 1_465 S
O159 C134 1.325 . S
H160 C102 0.929 . S
H161 C103 0.930 . S
H162 C104 0.930 . S
H163 C105 0.930 . S
H164 C107 0.930 . S
H165 C109 0.929 . S
H166 C110 0.930 . S
H167 C111 0.930 . S
H168 C114 0.930 . S
H169 C117 0.929 . S
H170 C122 0.929 . S
H171 C123 0.930 . S
H172 C130 0.929 . S
H173 C131 0.930 . S
H174 C132 0.930 . S
H175 C133 0.930 . S
H176 C135 0.929 . S
H177 C136 0.930 . S
H178 C137 0.930 . S
H179 C138 0.930 . S
H180 C142 0.929 . S
H181 C144 0.930 . S
H182 C150 0.929 . S
H183 C151 0.930 . S
Li184 N201 1.990 . S
Li184 O244 1.956 1_655 S
Li184 O245 1.970 1_645 S
Li184 O246 1.961 . S
Li185 N209 1.990 . S
Li185 O244 1.970 . S
Li185 O245 1.956 1_545 S
Li185 O247 1.961 . S
Li186 N231 1.990 . S
Li186 O244 1.961 . S
Li186 O246 1.956 1_455 S
Li186 O247 1.970 . S
Li187 N237 1.990 . S
Li187 O245 1.961 . S
Li187 O246 1.970 1_465 S
Li187 O247 1.956 1_565 S
C188 C190 1.348 . S
C188 C191 1.356 1_455 S
C188 O244 1.325 . S
N189 C192 1.314 . S
N189 C193 1.279 1_455 S
C190 C188 1.348 . S
C190 C192 1.353 . S
C190 H248 0.929 . S
C191 C188 1.356 1_655 S
C191 C193 1.358 . S
C191 H249 0.930 . S
C192 N189 1.314 . S
C192 C190 1.353 . S
C192 H250 0.930 . S
C193 N189 1.279 1_655 S
C193 C191 1.358 . S
C193 H251 0.930 . S
C194 C197 1.348 1_455 S
C194 C198 1.356 . S
C194 O245 1.325 . S
C195 N196 1.279 . S
C195 C198 1.358 . S
C195 H252 0.930 . S
N196 C195 1.279 . S
N196 C199 1.314 1_455 S
C197 C194 1.348 1_655 S
C197 C199 1.353 . S
C197 H253 0.929 . S
C198 C194 1.356 . S
C198 C195 1.358 . S
C198 H254 0.930 . S
C199 N196 1.314 1_655 S
C199 C197 1.353 . S
C199 H255 0.930 . S
C200 N201 1.314 1_565 S
C200 C205 1.353 . S
C200 H206 0.930 . S
N201 Li184 1.990 . S
N201 C200 1.314 1_545 S
N201 C203 1.279 . S
C202 C203 1.358 . S
C202 C204 1.356 . S
C202 H256 0.930 . S
C203 N201 1.279 . S
C203 C202 1.358 . S
C203 H207 0.930 . S
C204 C202 1.356 . S
C204 C205 1.348 1_545 S
C205 C200 1.353 . S
C205 C204 1.348 1_565 S
C205 H257 0.929 . S
H206 C200 0.930 . S
H207 C203 0.930 . S
C208 N209 1.314 . S
C208 C210 1.353 . S
C208 H214 0.930 . S
N209 Li185 1.990 . S
N209 C208 1.314 . S
N209 C212 1.279 1_545 S
C210 C208 1.353 . S
C210 C213 1.348 . S
C210 H258 0.929 . S
C211 C212 1.358 . S
C211 C213 1.356 1_565 S
C211 H259 0.930 . S
C212 N209 1.279 1_565 S
C212 C211 1.358 . S
C212 H215 0.930 . S
C213 C210 1.348 . S
C213 C211 1.356 1_545 S
H214 C208 0.930 . S
H215 C212 0.930 . S
C216 C218 1.348 1_545 S
C216 C219 1.356 . S
C216 O246 1.325 . S
N217 C220 1.314 1_545 S
N217 C221 1.279 . S
C218 C216 1.348 1_565 S
C218 C220 1.353 . S
C218 H260 0.929 . S
C219 C216 1.356 . S
C219 C221 1.358 . S
C219 H261 0.930 . S
C220 N217 1.314 1_565 S
C220 C218 1.353 . S
C220 H262 0.930 . S
C221 N217 1.279 . S
C221 C219 1.358 . S
C221 H263 0.930 . S
C222 C223 1.348 . S
C222 C224 1.356 1_545 S
C222 O247 1.325 . S
C223 C222 1.348 . S
C223 C225 1.353 . S
C223 H264 0.929 . S
C224 C222 1.356 1_565 S
C224 C226 1.358 . S
C224 H265 0.930 . S
C225 C223 1.353 . S
C225 N227 1.314 . S
C225 H266 0.930 . S
C226 C224 1.358 . S
C226 N227 1.279 1_565 S
C226 H267 0.930 . S
N227 C225 1.314 . S
N227 C226 1.279 1_545 S
C228 C230 1.353 . S
C228 N231 1.314 . S
C228 H234 0.930 . S
C229 N231 1.279 1_655 S
C229 C232 1.358 . S
C229 H235 0.930 . S
C230 C228 1.353 . S
C230 C233 1.348 . S
C230 H268 0.929 . S
N231 Li186 1.990 . S
N231 C228 1.314 . S
N231 C229 1.279 1_455 S
C232 C229 1.358 . S
C232 C233 1.356 1_655 S
C232 H269 0.930 . S
C233 C230 1.348 . S
C233 C232 1.356 1_455 S
H234 C228 0.930 . S
H235 C229 0.930 . S
C236 N237 1.314 1_655 S
C236 C238 1.353 . S
C236 H242 0.930 . S
N237 Li187 1.990 . S
N237 C236 1.314 1_455 S
N237 C240 1.279 . S
C238 C236 1.353 . S
C238 C241 1.348 1_655 S
C238 H270 0.929 . S
C239 C240 1.358 . S
C239 C241 1.356 . S
C239 H271 0.930 . S
C240 N237 1.279 . S
C240 C239 1.358 . S
C240 H243 0.930 . S
C241 C238 1.348 1_455 S
C241 C239 1.356 . S
H242 C236 0.930 . S
H243 C240 0.930 . S
O244 Li184 1.956 1_455 S
O244 Li185 1.970 . S
O244 Li186 1.961 . S
O244 C188 1.325 . S
O245 Li184 1.970 1_465 S
O245 Li185 1.956 1_565 S
O245 Li187 1.961 . S
O245 C194 1.325 . S
O246 Li184 1.961 . S
O246 Li186 1.956 1_655 S
O246 Li187 1.970 1_645 S
O246 C216 1.325 . S
O247 Li185 1.961 . S
O247 Li186 1.970 . S
O247 Li187 1.956 1_545 S
O247 C222 1.325 . S
H248 C190 0.929 . S
H249 C191 0.930 . S
H250 C192 0.930 . S
H251 C193 0.930 . S
H252 C195 0.930 . S
H253 C197 0.929 . S
H254 C198 0.930 . S
H255 C199 0.930 . S
H256 C202 0.930 . S
H257 C205 0.929 . S
H258 C210 0.929 . S
H259 C211 0.930 . S
H260 C218 0.929 . S
H261 C219 0.930 . S
H262 C220 0.930 . S
H263 C221 0.930 . S
H264 C223 0.929 . S
H265 C224 0.930 . S
H266 C225 0.930 . S
H267 C226 0.930 . S
H268 C230 0.929 . S
H269 C232 0.930 . S
H270 C238 0.929 . S
H271 C239 0.930 . S
C272 C273 1.170 . S
C272 C274 1.380 . S
C273 C272 1.170 . S
C274 C272 1.380 . S
C274 C275 1.170 . S
C275 C274 1.170 . S
C276 C277 1.170 . S
C276 C278 1.380 . S
C277 C276 1.170 . S
C278 C276 1.380 . S
C278 C279 1.170 . S
C279 C278 1.170 . S
C280 C281 1.170 . S
C280 C282 1.380 . S
C281 C280 1.170 . S
C282 C280 1.380 . S
C282 C283 1.170 . S
C283 C282 1.170 . S
C284 C285 1.170 . S
C284 C286 1.380 . S
C285 C284 1.170 . S
C286 C284 1.380 . S
C286 C287 1.170 . S
C287 C286 1.170 . S
C288 C289 1.170 . S
C288 C290 1.380 . S
C289 C288 1.170 . S
C290 C288 1.380 . S
C290 C291 1.170 . S
C291 C290 1.170 . S
C292 C293 1.170 . S
C292 C294 1.380 . S
C293 C292 1.170 . S
C294 C292 1.380 . S
C294 C295 1.170 . S
C295 C294 1.170 . S
C296 C297 1.170 . S
C296 C298 1.380 . S
C297 C296 1.170 . S
C298 C296 1.380 . S
C298 C299 1.170 . S
C299 C298 1.170 . S
C300 C301 1.170 . S
C300 C302 1.380 . S
C301 C300 1.170 . S
C302 C300 1.380 . S
C302 C303 1.170 . S
C303 C302 1.170 . S
C275 C145 1.511 . S
C273 C45 1.505 . S
C279 C233 1.512 . S
C277 C78 1.509 . S
C283 C153 1.509 . S
C281 C21 1.510 . S
C287 C241 1.512 . S
C285 C84 1.511 . S
C291 C213 1.509 . S
C289 C36 1.513 . S
C295 C116 1.509 . S
C293 C69 1.507 . S
C299 C204 1.511 . S
C297 C30 1.504 . S
C301 C93 1.503 . S
C303 C125 1.512 . S
