# Generated by pormake.
# Topology pyr, (3,6)-cn, num edge types: 1
# Building blocks:
#     Node 0, Type 0, BuildingBlock: BETDAH_clean_linker_0, # of connection points: 3
#     Node 1, Type 0, BuildingBlock: BETDAH_clean_linker_0, # of connection points: 3
#     Node 2, Type 0, BuildingBlock: BETDAH_clean_linker_0, # of connection points: 3
#     Node 3, Type 0, BuildingBlock: BETDAH_clean_linker_0, # of connection points: 3
#     Node 4, Type 0, BuildingBlock: BETDAH_clean_linker_0, # of connection points: 3
#     Node 5, Type 0, BuildingBlock: BETDAH_clean_linker_0, # of connection points: 3
#     Node 6, Type 0, BuildingBlock: BETDAH_clean_linker_0, # of connection points: 3
#     Node 7, Type 0, BuildingBlock: BETDAH_clean_linker_0, # of connection points: 3
#     Node 8, Type 1, BuildingBlock: PAMTOO_clean_sbu_0, # of connection points: 6
#     Node 9, Type 1, BuildingBlock: PAMTOO_clean_sbu_0, # of connection points: 6
#     Node 10, Type 1, BuildingBlock: PAMTOO_clean_sbu_0, # of connection points: 6
#     Node 11, Type 1, BuildingBlock: PAMTOO_clean_sbu_0, # of connection points: 6
#     Edge 12, Type (0, 1), BuildingBlock: XUDNAN_clean_linker_2, # of connection points: 2
#     Edge 13, Type (0, 1), BuildingBlock: XUDNAN_clean_linker_2, # of connection points: 2
#     Edge 14, Type (0, 1), BuildingBlock: XUDNAN_clean_linker_2, # of connection points: 2
#     Edge 15, Type (0, 1), BuildingBlock: XUDNAN_clean_linker_2, # of connection points: 2
#     Edge 16, Type (0, 1), BuildingBlock: XUDNAN_clean_linker_2, # of connection points: 2
#     Edge 17, Type (0, 1), BuildingBlock: XUDNAN_clean_linker_2, # of connection points: 2
#     Edge 18, Type (0, 1), BuildingBlock: XUDNAN_clean_linker_2, # of connection points: 2
#     Edge 19, Type (0, 1), BuildingBlock: XUDNAN_clean_linker_2, # of connection points: 2
#     Edge 20, Type (0, 1), BuildingBlock: XUDNAN_clean_linker_2, # of connection points: 2
#     Edge 21, Type (0, 1), BuildingBlock: XUDNAN_clean_linker_2, # of connection points: 2
#     Edge 22, Type (0, 1), BuildingBlock: XUDNAN_clean_linker_2, # of connection points: 2
#     Edge 23, Type (0, 1), BuildingBlock: XUDNAN_clean_linker_2, # of connection points: 2
#     Edge 24, Type (0, 1), BuildingBlock: XUDNAN_clean_linker_2, # of connection points: 2
#     Edge 25, Type (0, 1), BuildingBlock: XUDNAN_clean_linker_2, # of connection points: 2
#     Edge 26, Type (0, 1), BuildingBlock: XUDNAN_clean_linker_2, # of connection points: 2
#     Edge 27, Type (0, 1), BuildingBlock: XUDNAN_clean_linker_2, # of connection points: 2
#     Edge 28, Type (0, 1), BuildingBlock: XUDNAN_clean_linker_2, # of connection points: 2
#     Edge 29, Type (0, 1), BuildingBlock: XUDNAN_clean_linker_2, # of connection points: 2
#     Edge 30, Type (0, 1), BuildingBlock: XUDNAN_clean_linker_2, # of connection points: 2
#     Edge 31, Type (0, 1), BuildingBlock: XUDNAN_clean_linker_2, # of connection points: 2
#     Edge 32, Type (0, 1), BuildingBlock: XUDNAN_clean_linker_2, # of connection points: 2
#     Edge 33, Type (0, 1), BuildingBlock: XUDNAN_clean_linker_2, # of connection points: 2
#     Edge 34, Type (0, 1), BuildingBlock: XUDNAN_clean_linker_2, # of connection points: 2
#     Edge 35, Type (0, 1), BuildingBlock: XUDNAN_clean_linker_2, # of connection points: 2
# Relax obj value: 0.126
# Max RMSD: 0.202
# Mean RMSD: 0.126
data_MOF--net-pyr--node1-PAMTOO_clean_sbu_0--node2-BETDAH_clean_linker_0--edge1-XUDNAN_clean_linker_2
_symmetry_space_group_name_H-M    P1
_symmetry_Int_Tables_number       1
_symmetry_cell_setting            triclinic
loop_
_symmetry_equiv_pos_as_xyz
'x, y, z'
_cell_length_a     35.938661
_cell_length_b     39.155298
_cell_length_c     39.969977
_cell_angle_alpha  90.449241
_cell_angle_beta   90.676503
_cell_angle_gamma 110.06545
loop_
_atom_site_label
_atom_site_type_symbol
_atom_site_fract_x
_atom_site_fract_y
_atom_site_fract_z
_atom_type_partial_charge
H0 H 0.36944 0.25017 0.25231 0.0
H1 H 0.42041 0.32216 0.17158 0.0
H2 H 0.3267 0.33748 0.22862 0.0
C3 C 0.37104 0.27386 0.23774 0.0
C4 C 0.34543 0.29322 0.24453 0.0
C5 C 0.39833 0.28434 0.21175 0.0
C6 C 0.40005 0.31443 0.19224 0.0
C7 C 0.37333 0.33276 0.1975 0.0
C8 C 0.34645 0.32244 0.22395 0.0
N9 N 0.37254 0.36023 0.17491 0.0
C10 C 0.33709 0.36453 0.1656 0.0
H11 H 0.27306 0.81791 0.76611 0.0
H12 H 0.17019 0.84204 0.73472 0.0
H13 H 0.2044 0.76237 0.68065 0.0
C14 C 0.24737 0.81254 0.74975 0.0
C15 C 0.24139 0.78715 0.72349 0.0
C16 C 0.22183 0.83241 0.75409 0.0
C17 C 0.19015 0.82697 0.73139 0.0
C18 C 0.18396 0.80183 0.70471 0.0
C19 C 0.20933 0.78175 0.70117 0.0
N20 N 0.15294 0.79673 0.68078 0.0
C21 C 0.13402 0.82195 0.67632 0.0
H22 H 0.69952 0.36742 0.94277 0.0
H23 H 0.71005 0.44015 0.85954 0.0
H24 H 0.62599 0.33121 0.85547 0.0
C25 C 0.69045 0.3732 0.91813 0.0
C26 C 0.66078 0.34557 0.90096 0.0
C27 C 0.70976 0.40722 0.9033 0.0
C28 C 0.69579 0.41439 0.87161 0.0
C29 C 0.66484 0.38703 0.85456 0.0
C30 C 0.64855 0.35265 0.86913 0.0
N31 N 0.65113 0.3912 0.82168 0.0
C32 C 0.65311 0.42315 0.80523 0.0
H33 H 0.83805 0.75685 0.43304 0.0
H34 H 0.94253 0.77138 0.37575 0.0
H35 H 0.85208 0.66628 0.37854 0.0
C36 C 0.85519 0.74551 0.41716 0.0
C37 C 0.84018 0.70832 0.40799 0.0
C38 C 0.89192 0.76863 0.4057 0.0
C39 C 0.91354 0.7543 0.38397 0.0
C40 C 0.89873 0.71784 0.3732 0.0
C41 C 0.86212 0.69486 0.38534 0.0
N42 N 0.92416 0.70399 0.35461 0.0
C43 C 0.91492 0.68498 0.32413 0.0
H44 H 0.79726 0.80849 0.89629 0.0
H45 H 0.78099 0.87454 0.97707 0.0
H46 H 0.7473 0.89258 0.87796 0.0
C47 C 0.78682 0.8297 0.9051 0.0
C48 C 0.77211 0.84921 0.88202 0.0
C49 C 0.79163 0.83945 0.9392 0.0
C50 C 0.77769 0.8666 0.95086 0.0
C51 C 0.76009 0.88431 0.92895 0.0
C52 C 0.75767 0.87602 0.89462 0.0
N53 N 0.74945 0.91344 0.94159 0.0
C54 C 0.71436 0.91882 0.93308 0.0
H55 H 0.85079 0.2329 0.41329 0.0
H56 H 0.91484 0.34087 0.45059 0.0
H57 H 0.80768 0.32011 0.39239 0.0
C58 C 0.85407 0.26138 0.41562 0.0
C59 C 0.8258 0.2738 0.40047 0.0
C60 C 0.88638 0.28522 0.43373 0.0
C61 C 0.89012 0.32203 0.43669 0.0
C62 C 0.86164 0.33471 0.42233 0.0
C63 C 0.82962 0.31052 0.40395 0.0
N64 N 0.86563 0.37175 0.42713 0.0
C65 C 0.83386 0.38403 0.42379 0.0
H66 H 0.33961 0.74318 0.19189 0.0
H67 H 0.34886 0.67998 0.27732 0.0
H68 H 0.44018 0.7829 0.25841 0.0
C69 C 0.35543 0.73993 0.2142 0.0
C70 C 0.39181 0.76684 0.2225 0.0
C71 C 0.33936 0.70859 0.23361 0.0
C72 C 0.36067 0.70406 0.26224 0.0
C73 C 0.397 0.73121 0.27149 0.0
C74 C 0.412 0.76245 0.25159 0.0
N75 N 0.41985 0.72866 0.30025 0.0
C76 C 0.41256 0.69999 0.32277 0.0
H77 H 0.21613 0.38548 0.6928 0.0
H78 H 0.20257 0.45484 0.77246 0.0
H79 H 0.1077 0.35533 0.74728 0.0
C80 C 0.19865 0.39087 0.7127 0.0
C81 C 0.16024 0.36619 0.71766 0.0
C82 C 0.21439 0.4231 0.73182 0.0
C83 C 0.19124 0.43001 0.7577 0.0
C84 C 0.15283 0.40513 0.76368 0.0
C85 C 0.13768 0.37362 0.74339 0.0
N86 N 0.12704 0.41173 0.78782 0.0
C87 C 0.13742 0.43358 0.81669 0.0
Dy88 Dy 0.06411 0.07537 0.53811 0.0
Dy89 Dy 0.98311 0.05578 0.58304 0.0
C90 C 0.05816 0.12875 0.59883 0.0
O91 O 0.06148 0.02721 0.56867 0.0
O92 O 0.02262 0.03312 0.61189 0.0
O93 O 0.12781 0.09234 0.5332 0.0
O94 O 0.08917 0.07292 0.48997 0.0
O95 O 0.97822 1.00682 0.55108 0.0
O96 O 0.01265 0.03949 0.50802 0.0
O97 O 0.97699 0.09234 0.54215 0.0
O98 O 0.04178 0.12019 0.52638 0.0
O99 O 0.91923 0.03505 0.58197 0.0
O100 O 0.95119 0.05242 0.62902 0.0
C101 C 0.04757 0.01905 0.5989 0.0
O102 O 0.08076 0.11651 0.57991 0.0
O103 O 0.01979 0.11162 0.60151 0.0
C104 C 0.14986 0.11849 0.48086 0.0
C105 C 0.18996 0.17237 0.43512 0.0
C106 C 0.15965 0.17665 0.45482 0.0
C107 C 0.13975 0.14988 0.47757 0.0
C108 C 0.18101 0.11475 0.46229 0.0
C109 C 0.201 0.1415 0.43963 0.0
C110 C 0.12554 0.08795 0.50076 0.0
C111 C 0.98787 1.00903 0.51944 0.0
C112 C 1.00489 0.11869 0.52749 0.0
C113 C 0.89106 1.00358 0.63061 0.0
C114 C 0.84771 0.94186 0.66714 0.0
C115 C 0.87029 0.93852 0.63957 0.0
C116 C 0.89199 0.96919 0.62155 0.0
C117 C 0.86716 1.00682 0.65695 0.0
C118 C 0.8457 0.97627 0.67511 0.0
C119 C 0.9168 0.03657 0.61446 0.0
H120 H 0.15079 0.20029 0.45211 0.0
H121 H 0.11561 0.15307 0.49175 0.0
H122 H 0.18889 0.0905 0.46439 0.0
H123 H 0.22382 0.13715 0.42452 0.0
H124 H 0.87221 0.91239 0.6326 0.0
H125 H 0.91039 0.96622 0.60123 0.0
H126 H 0.86629 0.03323 0.66431 0.0
H127 H 0.82933 0.98009 0.69654 0.0
Dy128 Dy 0.47876 0.06074 0.05139 0.0
Dy129 Dy 0.56151 0.0672 0.08958 0.0
C130 C 0.48425 0.99973 0.10096 0.0
O131 O 0.47593 0.08381 0.10221 0.0
O132 O 0.54236 0.11027 0.11248 0.0
O133 O 0.41473 0.0418 0.05033 0.0
O134 O 0.44803 0.07617 1.01089 0.0
O135 O 0.57582 0.09933 0.04218 0.0
O136 O 0.52184 0.11687 0.04351 0.0
O137 O 0.55339 0.0238 0.05129 0.0
O138 O 0.51116 0.03797 1.01448 0.0
O139 O 0.62371 0.09643 0.09834 0.0
O140 O 0.59474 0.04625 0.12434 0.0
C141 C 0.50576 0.10799 0.11799 0.0
O142 O 0.47186 1.00567 0.07125 0.0
O143 O 0.51224 0.02575 0.11688 0.0
C144 C 0.38602 0.03365 0.99628 0.0
C145 C 0.33613 0.99313 0.94459 0.0
C146 C 0.37065 0.98602 0.9539 0.0
C147 C 0.39542 1.00615 0.97957 0.0
C148 C 0.3513 0.04033 0.98767 0.0
C149 C 0.32649 0.02022 0.96202 0.0
C150 C 0.41308 0.05673 1.02155 0.0
C151 C 0.55797 0.12218 0.03361 0.0
C152 C 0.536 0.02092 1.02181 0.0
C153 C 0.64247 0.09297 0.15449 0.0
C154 C 0.67086 0.12524 0.21713 0.0
C155 C 0.64981 0.14072 0.19583 0.0
C156 C 0.63548 0.12458 0.16485 0.0
C157 C 0.66354 0.0775 0.17564 0.0
C158 C 0.67755 0.09346 0.2068 0.0
C159 C 0.62635 0.07511 0.12244 0.0
H160 H 0.37918 0.96567 0.94067 0.0
H161 H 0.4223 1.00082 0.98591 0.0
H162 H 0.34369 0.0615 1.00044 0.0
H163 H 0.29988 0.02601 0.95571 0.0
H164 H 0.64393 0.165 0.20335 0.0
H165 H 0.61874 0.13669 0.14912 0.0
H166 H 0.66894 0.05299 0.16812 0.0
H167 H 0.69403 0.0812 0.22265 0.0
Dy168 Dy 0.51479 0.52554 0.5554 0.0
Dy169 Dy 0.53797 0.60765 0.58622 0.0
C170 C 0.56624 0.54788 0.6231 0.0
O171 O 0.47056 0.5198 0.59584 0.0
O172 O 0.47393 0.57936 0.59846 0.0
O173 O 0.50981 0.46907 0.55977 0.0
O174 O 0.49791 0.48947 0.51236 0.0
O175 O 0.51535 0.60908 0.5339 0.0
O176 O 0.47455 0.54997 0.52868 0.0
O177 O 0.5946 0.60788 0.5628 0.0
O178 O 0.56493 0.56161 0.52558 0.0
O179 O 0.54796 0.66488 0.5797 0.0
O180 O 0.55138 0.64412 0.62906 0.0
C181 C 0.45662 0.54496 0.60622 0.0
O182 O 0.56199 0.53014 0.59446 0.0
O183 O 0.5531 0.57509 0.6266 0.0
C184 C 0.53774 0.45347 0.51187 0.0
C185 C 0.59916 0.43964 0.47768 0.0
C186 C 0.60704 0.47136 0.49714 0.0
C187 C 0.57672 0.47805 0.51424 0.0
C188 C 0.52964 0.42136 0.49294 0.0
C189 C 0.56037 0.41427 0.47616 0.0
C190 C 0.50613 0.46354 0.5275 0.0
C191 C 0.4859 0.5839 0.51862 0.0
C192 C 0.59569 0.58949 0.53536 0.0
C193 C 0.51911 0.68645 0.6241 0.0
C194 C 0.4591 0.70728 0.65329 0.0
C195 C 0.45141 0.68624 0.62373 0.0
C196 C 0.48107 0.67571 0.60938 0.0
C197 C 0.52723 0.70833 0.65305 0.0
C198 C 0.49743 0.71864 0.6676 0.0
C199 C 0.54852 0.67115 0.61179 0.0
H200 H 0.63679 0.49103 0.4992 0.0
H201 H 0.58365 0.50282 0.52897 0.0
H202 H 0.49968 0.40217 0.49076 0.0
H203 H 0.55372 0.38954 0.46136 0.0
H204 H 0.42204 0.6767 0.61243 0.0
H205 H 0.47386 0.65816 0.5874 0.0
H206 H 0.55625 0.71647 0.66498 0.0
H207 H 0.50419 0.7351 0.69026 0.0
Dy208 Dy 0.03678 0.59689 0.05341 0.0
Dy209 Dy 0.01296 0.51746 0.08997 0.0
C210 C 0.9852 0.58146 0.11947 0.0
O211 O 0.08042 0.60275 0.09549 0.0
O212 O 0.07834 0.54405 0.09789 0.0
O213 O 0.05858 0.65524 0.05983 0.0
O214 O 0.04471 0.63138 1.01025 0.0
O215 O 0.04056 0.50913 0.04208 0.0
O216 O 0.06961 0.56778 1.0233 0.0
O217 O 0.95708 0.5143 0.06204 0.0
O218 O 0.98005 0.56424 1.02792 0.0
O219 O 0.98544 0.45898 0.09062 0.0
O220 O 0.0156 0.48801 0.13494 0.0
C221 C 0.09579 0.57855 0.1054 0.0
O222 O 0.98869 0.59512 0.08929 0.0
O223 O 0.99891 0.55522 0.12656 0.0
C224 C 0.02669 0.68211 1.02274 0.0
C225 C 0.97656 0.72322 1.01563 0.0
C226 C 0.96078 0.68603 1.02302 0.0
C227 C 0.98566 0.66568 1.02664 0.0
C228 C 0.04264 0.71909 1.01518 0.0
C229 C 0.01773 0.73956 1.01163 0.0
C230 C 0.0526 0.66085 1.02847 0.0
C231 C 0.06337 0.53264 1.02114 0.0
C232 C 0.95235 0.53402 0.03682 0.0
C233 C 0.02646 0.43399 0.1212 0.0
C234 C 0.08495 0.40119 0.12602 0.0
C235 C 0.07549 0.41296 0.09498 0.0
C236 C 0.04669 0.42933 0.09261 0.0
C237 C 0.0348 0.4211 0.15203 0.0
C238 C 0.06387 0.40487 0.15445 0.0
C239 C 1.00103 0.45653 0.11977 0.0
H240 H 0.92928 0.6728 1.02664 0.0
H241 H 0.97294 0.63718 0.03291 0.0
H242 H 0.0743 0.73214 1.0123 0.0
H243 H 0.03064 0.76808 1.00555 0.0
H244 H 0.09163 0.41109 0.07272 0.0
H245 H 0.04143 0.43961 0.0686 0.0
H246 H 0.01987 0.42482 0.17444 0.0
H247 H 0.0704 0.39584 0.17866 0.0
H248 H 0.35851 0.26973 0.30653 0.0
H249 H 0.268 0.29078 0.24567 0.0
H250 H 0.22019 0.26885 0.29123 0.0
H251 H 0.29679 0.18668 0.33728 0.0
H252 H 0.31974 0.19268 0.37827 0.0
H253 H 0.34809 0.21468 0.34287 0.0
H254 H 0.36569 0.27715 0.37318 0.0
H255 H 0.33726 0.2553 0.40873 0.0
H256 H 0.32649 0.29182 0.38833 0.0
H257 H 0.1807 0.23929 0.3412 0.0
H258 H 0.15212 0.20243 0.39048 0.0
H259 H 0.26822 0.19962 0.41794 0.0
C260 C 0.32871 0.26996 0.30277 0.0
C261 C 0.31712 0.28213 0.27252 0.0
C262 C 0.27786 0.28221 0.26882 0.0
C263 C 0.25043 0.26969 0.29453 0.0
C264 C 0.26275 0.2573 0.32377 0.0
C265 C 0.30097 0.25735 0.328 0.0
C266 C 0.30598 0.23996 0.36061 0.0
C267 C 0.31836 0.20652 0.35437 0.0
C268 C 0.33561 0.26772 0.3841 0.0
C269 C 0.26428 0.22914 0.37368 0.0
C270 C 0.23991 0.23988 0.35236 0.0
C271 C 0.19962 0.23122 0.35833 0.0
C272 C 0.1837 0.21043 0.38648 0.0
C273 C 0.208 0.19831 0.40812 0.0
C274 C 0.24892 0.20848 0.40185 0.0
H275 H 0.24621 0.82658 0.81835 0.0
H276 H 0.21633 0.90065 0.75171 0.0
H277 H 0.23596 0.94822 0.79584 0.0
H278 H 0.21742 0.85938 0.89728 0.0
H279 H 0.25868 0.85418 0.92008 0.0
H280 H 0.23695 0.82452 0.88503 0.0
H281 H 0.30575 0.84277 0.85725 0.0
H282 H 0.32763 0.87257 0.89206 0.0
H283 H 0.33305 0.89015 0.85017 0.0
H284 H 0.26552 0.98955 0.84489 0.0
H285 H 0.30271 0.02142 0.8949 0.0
H286 H 0.31435 0.92049 0.92888 0.0
C287 C 0.24338 0.85267 0.8131 0.0
C288 C 0.22963 0.85983 0.78157 0.0
C289 C 0.22616 0.89429 0.77583 0.0
C290 C 0.2374 0.92154 0.8007 0.0
C291 C 0.25186 0.91383 0.83116 0.0
C292 C 0.25469 0.88016 0.83748 0.0
C293 C 0.27405 0.87958 0.87119 0.0
C294 C 0.24503 0.85283 0.89479 0.0
C295 C 0.31239 0.87076 0.86742 0.0
C296 C 0.28273 0.91852 0.88248 0.0
C297 C 0.26925 0.93772 0.85927 0.0
C298 C 0.27565 0.97466 0.86349 0.0
C299 C 0.29667 0.99249 0.89204 0.0
C300 C 0.31128 0.97341 0.91587 0.0
C301 C 0.30368 0.93584 0.91108 0.0
H302 H 0.62999 0.41054 0.74044 0.0
H303 H 0.66112 0.49407 0.81774 0.0
H304 H 0.64521 0.53629 0.77851 0.0
H305 H 0.66795 0.47036 0.66931 0.0
H306 H 0.62795 0.44471 0.64168 0.0
H307 H 0.64389 0.42221 0.67521 0.0
H308 H 0.57227 0.39816 0.69746 0.0
H309 H 0.55615 0.42064 0.66407 0.0
H310 H 0.5474 0.42991 0.70695 0.0
H311 H 0.62191 0.56795 0.7313 0.0
H312 H 0.59469 0.58703 0.68067 0.0
H313 H 0.57934 0.48285 0.63336 0.0
C314 C 0.63407 0.43798 0.74885 0.0
C315 C 0.64726 0.44938 0.78191 0.0
C316 C 0.65152 0.48509 0.79237 0.0
C317 C 0.64245 0.50913 0.77025 0.0
C318 C 0.62916 0.49698 0.73776 0.0
C319 C 0.62514 0.46223 0.72707 0.0
C320 C 0.60901 0.45537 0.69135 0.0
C321 C 0.639 0.44772 0.66801 0.0
C322 C 0.56883 0.42417 0.68989 0.0
C323 C 0.6043 0.49159 0.68353 0.0
C324 C 0.61605 0.5152 0.71066 0.0
C325 C 0.61299 0.54973 0.7099 0.0
C326 C 0.59737 0.56032 0.68092 0.0
C327 C 0.58502 0.53665 0.65272 0.0
C328 C 0.58897 0.50188 0.65416 0.0
H329 H 0.94655 0.63331 0.30782 0.0
H330 H 0.8855 0.70155 0.26609 0.0
H331 H 0.89363 0.68 0.20897 0.0
H332 H 0.01852 0.6484 0.24527 0.0
H333 H 0.01971 0.60275 0.24475 0.0
H334 H 1.00602 0.62097 0.28226 0.0
H335 H 0.93986 0.56672 0.28359 0.0
H336 H 0.95349 0.54818 0.24617 0.0
H337 H 0.90733 0.55674 0.2474 0.0
H338 H 0.91377 0.65474 0.15597 0.0
H339 H 0.94134 0.62623 0.11187 0.0
H340 H 0.98843 0.57318 0.18803 0.0
C341 C 0.93403 0.64293 0.28664 0.0
C342 C 0.9147 0.66854 0.29125 0.0
C343 C 0.89971 0.68141 0.26303 0.0
C344 C 0.90437 0.66941 0.23052 0.0
C345 C 0.92411 0.64448 0.22666 0.0
C346 C 0.93839 0.63113 0.25402 0.0
C347 C 0.95993 0.60572 0.243 0.0
C348 C 1.00363 0.62035 0.2545 0.0
C349 C 0.93889 0.56704 0.2558 0.0
C350 C 0.95609 0.60722 0.20518 0.0
C351 C 0.93532 0.62973 0.19626 0.0
C352 C 0.92962 0.63672 0.16276 0.0
C353 C 0.94551 0.6204 0.13781 0.0
C354 C 0.96682 0.59708 0.14626 0.0
C355 C 0.97181 0.59035 0.18055 0.0
H356 H 0.37189 0.21265 0.19485 0.0
H357 H 0.47903 0.30614 0.20841 0.0
H358 H 0.51924 0.26854 0.19191 0.0
H359 H 0.41167 0.1423 0.22222 0.0
H360 H 0.38423 0.11031 0.19047 0.0
H361 H 0.36455 0.14334 0.20726 0.0
H362 H 0.35868 0.16619 0.14739 0.0
H363 H 0.37816 0.13321 0.13046 0.0
H364 H 0.40185 0.18073 0.12142 0.0
H365 H 0.54702 0.22145 0.17136 0.0
H366 H 0.56031 0.17077 0.14299 0.0
H367 H 0.43421 0.10898 0.14021 0.0
C368 C 0.40389 0.22489 0.19497 0.0
C369 C 0.42266 0.26196 0.2033 0.0
C370 C 0.46439 0.27762 0.20228 0.0
C371 C 0.48733 0.25646 0.19315 0.0
C372 C 0.46789 0.2199 0.18488 0.0
C373 C 0.42707 0.20435 0.18541 0.0
C374 C 0.41317 0.16558 0.1723 0.0
C375 C 0.39217 0.1388 0.19971 0.0
C376 C 0.3864 0.1612 0.14104 0.0
C377 C 0.45249 0.1619 0.16369 0.0
C378 C 0.48374 0.19325 0.17175 0.0
C379 C 0.52281 0.1967 0.16511 0.0
C380 C 0.53004 0.16769 0.14903 0.0
C381 C 0.49827 0.13591 0.1393 0.0
C382 C 0.45913 0.13284 0.1474 0.0
H383 H 0.13946 0.86185 0.62095 0.0
H384 H 0.09168 0.84528 0.72084 0.0
H385 H 0.06466 0.89521 0.71269 0.0
H386 H 0.16904 0.95915 0.62183 0.0
H387 H 0.15595 0.9619 0.57852 0.0
H388 H 0.17075 0.92471 0.59227 0.0
H389 H 0.10504 0.87861 0.56853 0.0
H390 H 0.0902 0.91568 0.55453 0.0
H391 H 0.0585 0.88179 0.58166 0.0
H392 H 0.04277 0.94695 0.69285 0.0
H393 H 0.02744 0.99584 0.66318 0.0
H394 H 0.09105 0.9784 0.57669 0.0
C395 C 0.12308 0.86873 0.64094 0.0
C396 C 0.11713 0.84997 0.67136 0.0
C397 C 0.09604 0.85951 0.69727 0.0
C398 C 0.08077 0.88777 0.69287 0.0
C399 C 0.08714 0.90602 0.66246 0.0
C400 C 0.10779 0.89683 0.63695 0.0
C401 C 0.11075 0.92061 0.60677 0.0
C402 C 0.1542 0.94291 0.59944 0.0
C403 C 0.08987 0.89781 0.57607 0.0
C404 C 0.08856 0.94465 0.61921 0.0
C405 C 0.0751 0.93587 0.65134 0.0
C406 C 0.05327 0.95412 0.66772 0.0
C407 C 0.04475 0.98188 0.65068 0.0
C408 C 0.05817 0.99113 0.61764 0.0
C409 C 0.08056 0.97228 0.60198 0.0
H410 H 0.76651 0.39175 0.94137 0.0
H411 H 0.73546 0.48274 0.90456 0.0
H412 H 0.79382 0.52511 0.93478 0.0
H413 H 0.79514 0.42847 1.02428 0.0
H414 H 0.83438 0.40981 1.02808 0.0
H415 H 0.79149 0.38709 1.00219 0.0
H416 H 0.83676 0.38984 0.95157 0.0
H417 H 0.87979 0.41251 0.97729 0.0
H418 H 0.87142 0.4331 0.93907 0.0
H419 H 0.85701 0.55758 0.96906 0.0
H420 H 0.91746 0.57692 1.00483 0.0
H421 H 0.90274 0.46403 1.02305 0.0
C422 C 0.77123 0.42051 0.93993 0.0
C423 C 0.74563 0.43362 0.92061 0.0
C424 C 0.75446 0.47175 0.9188 0.0
C425 C 0.78747 0.49608 0.93614 0.0
C426 C 0.81137 0.48196 0.95544 0.0
C427 C 0.80343 0.445 0.95748 0.0
C428 C 0.83303 0.43644 0.98033 0.0
C429 C 0.81226 0.41414 1.01051 0.0
C430 C 0.85664 0.41682 0.9609 0.0
C431 C 0.85911 0.47442 0.99094 0.0
C432 C 0.8464 0.50037 0.97606 0.0
C433 C 0.86689 0.53741 0.981 0.0
C434 C 0.90125 0.54814 1.00137 0.0
C435 C 0.91462 0.522 1.01707 0.0
C436 C 0.89289 0.48466 1.01194 0.0
H437 H 0.81014 0.71288 0.47095 0.0
H438 H 0.78316 0.64824 0.37911 0.0
H439 H 0.72027 0.60928 0.40327 0.0
H440 H 0.76581 0.64071 0.52892 0.0
H441 H 0.74625 0.66801 0.55513 0.0
H442 H 0.79067 0.68924 0.53179 0.0
H443 H 0.7585 0.73212 0.50416 0.0
H444 H 0.71404 0.71113 0.52748 0.0
H445 H 0.71152 0.71292 0.48249 0.0
H446 H 0.65953 0.57795 0.4369 0.0
H447 H 0.60389 0.5585 0.4757 0.0
H448 H 0.66748 0.64626 0.54439 0.0
C449 C 0.79105 0.69083 0.45554 0.0
C450 C 0.80218 0.68394 0.42284 0.0
C451 C 0.77615 0.65402 0.40432 0.0
C452 C 0.74007 0.63177 0.41778 0.0
C453 C 0.73004 0.63979 0.44979 0.0
C454 C 0.75464 0.66875 0.46834 0.0
C455 C 0.73603 0.67255 0.5015 0.0
C456 C 0.7612 0.66731 0.53108 0.0
C457 C 0.72964 0.70936 0.50405 0.0
C458 C 0.69687 0.64129 0.49863 0.0
C459 C 0.69433 0.62253 0.46873 0.0
C460 C 0.66118 0.59256 0.46029 0.0
C461 C 0.62962 0.58174 0.48266 0.0
C462 C 0.63091 0.60093 0.51323 0.0
C463 C 0.66534 0.63101 0.5213 0.0
H464 H 0.29341 0.39966 0.19614 0.0
H465 H 0.29491 0.32969 0.11207 0.0
H466 H 0.22811 0.32839 0.09432 0.0
H467 H 0.18884 0.35793 0.21434 0.0
H468 H 0.18249 0.4004 0.22496 0.0
H469 H 0.22988 0.39506 0.23151 0.0
H470 H 0.26342 0.45159 0.19518 0.0
H471 H 0.21623 0.45725 0.18877 0.0
H472 H 0.245 0.45322 0.15329 0.0
H473 H 0.16232 0.33597 0.08516 0.0
H474 H 0.10253 0.35353 0.08388 0.0
H475 H 0.14401 0.419 0.17386 0.0
C476 C 0.27949 0.38419 0.174 0.0
C477 C 0.29881 0.36491 0.15517 0.0
C478 C 0.28019 0.34472 0.1265 0.0
C479 C 0.24235 0.34373 0.11639 0.0
C480 C 0.22378 0.363 0.13543 0.0
C481 C 0.24171 0.38294 0.16358 0.0
C482 C 0.21569 0.40191 0.17909 0.0
C483 C 0.20351 0.38798 0.21458 0.0
C484 C 0.23632 0.44345 0.17906 0.0
C485 C 0.1806 0.38992 0.15502 0.0
C486 C 0.18575 0.36729 0.13017 0.0
C487 C 0.15787 0.35358 0.10454 0.0
C488 C 0.1241 0.36378 0.10396 0.0
C489 C 0.11857 0.38752 0.1288 0.0
C490 C 0.14703 0.40028 0.15488 0.0
H491 H 0.62409 0.32459 0.96133 0.0
H492 H 0.66356 0.28298 0.87287 0.0
H493 H 0.64314 0.2217 0.89775 0.0
H494 H 0.65281 0.27073 1.0218 0.0
H495 H 0.60979 0.26289 0.04741 0.0
H496 H 0.62789 0.30359 1.02297 0.0
H497 H 0.55898 0.28813 0.99428 0.0
H498 H 0.54059 0.24755 1.01884 0.0
H499 H 0.53654 0.24453 0.97383 0.0
H500 H 0.62288 0.16597 0.93414 0.0
H501 H 0.59532 0.11764 0.97585 0.0
H502 H 0.56274 0.19354 0.03834 0.0
C503 C 0.62812 0.30243 0.9472 0.0
C504 C 0.64539 0.3084 0.91517 0.0
C505 C 0.65014 0.27884 0.89732 0.0
C506 C 0.63886 0.24405 0.91135 0.0
C507 C 0.62228 0.23907 0.94309 0.0
C508 C 0.61618 0.26728 0.96055 0.0
C509 C 0.59647 0.25428 0.99375 0.0
C510 C 0.62335 0.27405 1.02322 0.0
C511 C 0.55572 0.25889 0.99524 0.0
C512 C 0.5925 0.21442 0.99226 0.0
C513 C 0.60833 0.2064 0.96311 0.0
C514 C 0.60997 0.17184 0.95684 0.0
C515 C 0.5945 0.14464 0.9807 0.0
C516 C 0.57678 0.1519 1.01007 0.0
C517 C 0.5758 0.18725 1.01587 0.0
H518 H 0.89124 0.79742 0.46902 0.0
H519 H 0.92876 0.82825 0.36747 0.0
H520 H 0.95529 0.89274 0.38534 0.0
H521 H 0.86125 0.87474 0.48852 0.0
H522 H 0.87934 0.87898 0.53116 0.0
H523 H 0.86277 0.83517 0.51045 0.0
H524 H 0.93055 0.82806 0.52327 0.0
H525 H 0.94726 0.87179 0.54407 0.0
H526 H 0.9754 0.86285 0.51019 0.0
H527 H 0.97821 0.95377 0.41408 0.0
H528 H 0.99791 1.00715 0.45189 0.0
H529 H 0.94548 0.93752 0.5353 0.0
C530 C 0.9047 0.81776 0.45046 0.0
C531 C 0.90784 0.80764 0.41673 0.0
C532 C 0.92632 0.83516 0.39344 0.0
C533 C 0.94127 0.87193 0.40333 0.0
C534 C 0.93766 0.88092 0.43667 0.0
C535 C 0.91996 0.85466 0.45995 0.0
C536 C 0.92077 0.87167 0.4944 0.0
C537 C 0.87852 0.86472 0.50686 0.0
C538 C 0.94494 0.85776 0.51945 0.0
C539 C 0.94164 0.9116 0.48683 0.0
C540 C 0.95101 0.91625 0.45334 0.0
C541 C 0.97094 0.95046 0.44032 0.0
C542 C 0.982 0.98068 0.46209 0.0
C543 C 0.9732 0.97674 0.49665 0.0
C544 C 0.9524 0.94161 0.50901 0.0
H545 H 0.27521 0.77669 0.66488 0.0
H546 H 0.27367 0.7558 0.77141 0.0
H547 H 0.32799 0.7313 0.76472 0.0
H548 H 0.29781 0.6954 0.63807 0.0
H549 H 0.32925 0.71939 0.60485 0.0
H550 H 0.28809 0.73247 0.61771 0.0
H551 H 0.3359 0.79845 0.62799 0.0
H552 H 0.37724 0.78551 0.61558 0.0
H553 H 0.37787 0.80655 0.65596 0.0
H554 H 0.3859 0.71401 0.74734 0.0
H555 H 0.44088 0.70115 0.71965 0.0
H556 H 0.40407 0.73242 0.62434 0.0
C557 C 0.28558 0.76606 0.68663 0.0
C558 C 0.27026 0.76814 0.71867 0.0
C559 C 0.28524 0.75471 0.74668 0.0
C560 C 0.31597 0.74065 0.74311 0.0
C561 C 0.33118 0.73996 0.71134 0.0
C562 C 0.31621 0.75188 0.68351 0.0
C563 C 0.33893 0.7495 0.65242 0.0
C564 C 0.31191 0.72258 0.62675 0.0
C565 C 0.35865 0.78725 0.6371 0.0
C566 C 0.36943 0.73501 0.66725 0.0
C567 C 0.36441 0.72966 0.70126 0.0
C568 C 0.38993 0.71778 0.72066 0.0
C569 C 0.42124 0.71087 0.7048 0.0
C570 C 0.42667 0.71582 0.66991 0.0
C571 C 0.40033 0.72802 0.65099 0.0
H572 H 0.73046 0.8652 0.82867 0.0
H573 H 0.82878 0.82745 0.85061 0.0
H574 H 0.84508 0.83096 0.79188 0.0
H575 H 0.71115 0.8314 0.73781 0.0
H576 H 0.70409 0.87295 0.72542 0.0
H577 H 0.68969 0.8549 0.76652 0.0
H578 H 0.73361 0.91623 0.79322 0.0
H579 H 0.74807 0.93433 0.75243 0.0
H580 H 0.78541 0.93447 0.783 0.0
H581 H 0.8623 0.85186 0.73537 0.0
H582 H 0.88157 0.89277 0.68762 0.0
H583 H 0.77716 0.923 0.70072 0.0
C584 C 0.75495 0.85691 0.82129 0.0
C585 C 0.77755 0.84544 0.84516 0.0
C586 C 0.80934 0.83487 0.83359 0.0
C587 C 0.81928 0.83699 0.79981 0.0
C588 C 0.79784 0.85031 0.7775 0.0
C589 C 0.76632 0.86023 0.78771 0.0
C590 C 0.75364 0.88085 0.76045 0.0
C591 C 0.71218 0.85869 0.74674 0.0
C592 C 0.75533 0.91869 0.77304 0.0
C593 C 0.78506 0.88353 0.73464 0.0
C594 C 0.80912 0.86431 0.74439 0.0
C595 C 0.84305 0.86618 0.72691 0.0
C596 C 0.85372 0.8895 0.69963 0.0
C597 C 0.83082 0.91108 0.69029 0.0
C598 C 0.79516 0.90675 0.70721 0.0
H599 H 0.80111 0.2846 0.33779 0.0
H600 H 0.77841 0.20504 0.41679 0.0
H601 H 0.73129 0.15936 0.37959 0.0
H602 H 0.69838 0.25244 0.30124 0.0
H603 H 0.71656 0.26126 0.25921 0.0
H604 H 0.74419 0.28892 0.29355 0.0
H605 H 0.80617 0.2738 0.2764 0.0
H606 H 0.77872 0.24582 0.24231 0.0
H607 H 0.80294 0.22691 0.27307 0.0
H608 H 0.69371 0.12058 0.33197 0.0
H609 H 0.6653 0.09208 0.27773 0.0
H610 H 0.71174 0.19709 0.23004 0.0
C611 C 0.78521 0.25792 0.34757 0.0
C612 C 0.79327 0.24828 0.3801 0.0
C613 C 0.77274 0.21283 0.39182 0.0
C614 C 0.74582 0.1868 0.37096 0.0
C615 C 0.73953 0.19679 0.33861 0.0
C616 C 0.75825 0.23162 0.32707 0.0
C617 C 0.74861 0.23458 0.29048 0.0
C618 C 0.72556 0.26086 0.28586 0.0
C619 C 0.78635 0.24593 0.26934 0.0
C620 C 0.72263 0.19571 0.28299 0.0
C621 C 0.71749 0.17441 0.31114 0.0
C622 C 0.69694 0.13708 0.30987 0.0
C623 C 0.68122 0.1211 0.27898 0.0
C624 C 0.68619 0.14247 0.24987 0.0
C625 C 0.70685 0.18028 0.25207 0.0
H626 H 0.46096 0.71863 0.37684 0.0
H627 H 0.36964 0.62758 0.32983 0.0
H628 H 0.37658 0.58746 0.37575 0.0
H629 H 0.52306 0.66971 0.40386 0.0
H630 H 0.53778 0.69489 0.4426 0.0
H631 H 0.52415 0.71601 0.4069 0.0
H632 H 0.47126 0.73068 0.44202 0.0
H633 H 0.48478 0.70963 0.47786 0.0
H634 H 0.43408 0.69445 0.46307 0.0
H635 H 0.39594 0.5571 0.42732 0.0
H636 H 0.42515 0.53979 0.47812 0.0
H637 H 0.50375 0.65155 0.49058 0.0
C638 C 0.44218 0.69028 0.37644 0.0
C639 C 0.41455 0.67611 0.35004 0.0
C640 C 0.39077 0.6389 0.35002 0.0
C641 C 0.39461 0.61599 0.37599 0.0
C642 C 0.42239 0.63078 0.40175 0.0
C643 C 0.44569 0.66718 0.40207 0.0
C644 C 0.47394 0.67649 0.43198 0.0
C645 C 0.51729 0.69007 0.42065 0.0
C646 C 0.46549 0.70447 0.4551 0.0
C647 C 0.46322 0.63969 0.4485 0.0
C648 C 0.43338 0.61359 0.43084 0.0
C649 C 0.41919 0.57747 0.44129 0.0
C650 C 0.43598 0.56786 0.47027 0.0
C651 C 0.46679 0.59418 0.48865 0.0
C652 C 0.4802 0.6306 0.47741 0.0
H653 H 0.1148 0.49149 0.83321 0.0
H654 H 0.15894 0.41067 0.87472 0.0
H655 H 0.14928 0.43046 0.93198 0.0
H656 H 0.15782 0.56252 0.89975 0.0
H657 H 0.11535 0.57705 0.89904 0.0
H658 H 0.12954 0.55909 0.86153 0.0
H659 H 0.0591 0.51109 0.85635 0.0
H660 H 0.04481 0.52865 0.89395 0.0
H661 H 0.0394 0.48123 0.89086 0.0
H662 H 0.12652 0.45331 0.98424 0.0
H663 H 0.09786 0.48118 1.0281 0.0
H664 H 0.07162 0.55028 0.95402 0.0
C665 C 0.12362 0.47887 0.85445 0.0
C666 C 0.13842 0.45004 0.84968 0.0
C667 C 0.14838 0.43328 0.87792 0.0
C668 C 0.14277 0.44425 0.91052 0.0
C669 C 0.12737 0.47225 0.91453 0.0
C670 C 0.11849 0.48979 0.88728 0.0
C671 C 0.10063 0.51797 0.89861 0.0
C672 C 0.12744 0.55644 0.88917 0.0
C673 C 0.05849 0.50919 0.88408 0.0
C674 C 0.09999 0.51297 0.93634 0.0
C675 C 0.11545 0.48632 0.94491 0.0
C676 C 0.11516 0.47473 0.97786 0.0
C677 C 0.09868 0.49064 1.00262 0.0
C678 C 0.08313 0.51833 0.99464 0.0
C679 C 0.08425 0.52987 0.96103 0.0
H680 H 0.65781 0.89778 0.97833 0.0
H681 H 0.69178 0.9596 0.8877 0.0
H682 H 0.63624 0.98303 0.89449 0.0
H683 H 0.54644 0.88026 0.97246 0.0
H684 H 0.54476 0.88661 1.01706 0.0
H685 H 0.57924 0.8671 0.99987 0.0
H686 H 0.63717 0.91674 1.03036 0.0
H687 H 0.60309 0.93633 0.04744 0.0
H688 H 0.64433 0.96399 1.0233 0.0
H689 H 0.5861 1.00874 0.91745 0.0
H690 H 0.54996 0.03644 0.95539 0.0
H691 H 0.55065 0.95873 1.03162 0.0
C692 C 0.65218 0.91488 0.95914 0.0
C693 C 0.67796 0.92639 0.93215 0.0
C694 C 0.6714 0.94998 0.90811 0.0
C695 C 0.63995 0.96329 0.9118 0.0
C696 C 0.6156 0.95252 0.93959 0.0
C697 C 0.6213 0.92855 0.96273 0.0
C698 C 0.59604 0.92587 0.99322 0.0
C699 C 0.56476 0.88769 0.99578 0.0
C700 C 0.6217 0.93639 1.02544 0.0
C701 C 0.57706 0.95372 0.98472 0.0
C702 C 0.58757 0.96806 0.95327 0.0
C703 C 0.57687 0.99706 0.94172 0.0
C704 C 0.55625 1.01257 0.96333 0.0
C705 C 0.5475 0.99943 0.99618 0.0
C706 C 0.55669 0.96887 1.00639 0.0
H707 H 0.91719 0.23491 0.40964 0.0
H708 H 0.91793 0.30167 0.49703 0.0
H709 H 0.95629 0.27066 0.52846 0.0
H710 H 0.89732 0.15489 0.45173 0.0
H711 H 0.92759 0.13662 0.42663 0.0
H712 H 0.90732 0.16862 0.40886 0.0
H713 H 0.97771 0.21084 0.39304 0.0
H714 H 0.99826 0.17875 0.41051 0.0
H715 H 0.01603 0.2254 0.42488 0.0
H716 H 0.98546 0.22689 0.55268 0.0
H717 H 1.00494 0.17408 0.56758 0.0
H718 H 0.98337 0.13429 0.46524 0.0
C719 C 0.92604 0.24349 0.43521 0.0
C720 C 0.91462 0.27078 0.45087 0.0
C721 C 0.9269 0.2813 0.48432 0.0
C722 C 0.94856 0.26372 0.50242 0.0
C723 C 0.95791 0.23591 0.48662 0.0
C724 C 0.94736 0.22606 0.45365 0.0
C725 C 0.95748 0.19296 0.4435 0.0
C726 C 0.92021 0.16142 0.43202 0.0
C727 C 0.98927 0.20258 0.41638 0.0
C728 C 0.97378 0.18474 0.47633 0.0
C729 C 0.9744 0.21024 0.50073 0.0
C730 C 0.98578 0.20716 0.53368 0.0
C731 C 0.99659 0.17712 0.54194 0.0
C732 C 0.99568 0.15069 0.51739 0.0
C733 C 0.98462 0.15462 0.48417 0.0
H734 H 0.27294 0.72055 0.21019 0.0
H735 H 0.31951 0.63397 0.22967 0.0
H736 H 0.26056 0.59004 0.20118 0.0
H737 H 0.16718 0.66699 0.21766 0.0
H738 H 0.15345 0.69078 0.18392 0.0
H739 H 0.19647 0.71368 0.20962 0.0
H740 H 0.23942 0.7293 0.15649 0.0
H741 H 0.19672 0.70604 0.13068 0.0
H742 H 0.24022 0.69315 0.1286 0.0
H743 H 0.19844 0.5567 0.16541 0.0
H744 H 0.13869 0.537 0.12874 0.0
H745 H 0.13569 0.64687 0.13105 0.0
C746 C 0.27058 0.69224 0.20894 0.0
C747 C 0.30103 0.68077 0.22219 0.0
C748 C 0.29645 0.64339 0.22014 0.0
C749 C 0.26317 0.61831 0.20374 0.0
C750 C 0.23464 0.63098 0.18962 0.0
C751 C 0.23796 0.6671 0.19244 0.0
C752 C 0.20481 0.6746 0.17356 0.0
C753 C 0.17894 0.68725 0.19763 0.0
C754 C 0.22129 0.70241 0.14569 0.0
C755 C 0.18246 0.63719 0.15917 0.0
C756 C 0.19984 0.61224 0.16883 0.0
C757 C 0.18457 0.57606 0.15795 0.0
C758 C 0.15063 0.56513 0.13698 0.0
C759 C 0.13237 0.59033 0.12681 0.0
C760 C 0.1488 0.62683 0.13818 0.0
H761 H 0.28136 0.40955 0.71247 0.0
H762 H 0.23536 0.49753 0.72659 0.0
H763 H 0.29448 0.53959 0.69894 0.0
H764 H 0.38783 0.46334 0.72076 0.0
H765 H 0.40073 0.43744 0.68823 0.0
H766 H 0.3582 0.41624 0.71378 0.0
H767 H 0.31415 0.39752 0.6603 0.0
H768 H 0.35634 0.41908 0.63462 0.0
H769 H 0.31289 0.43197 0.6311 0.0
H770 H 0.35605 0.5706 0.66404 0.0
H771 H 0.4147 0.58792 0.62776 0.0
H772 H 0.41741 0.47814 0.63375 0.0
C773 C 0.28389 0.43781 0.71029 0.0
C774 C 0.25344 0.4501 0.72181 0.0
C775 C 0.25837 0.48743 0.71856 0.0
C776 C 0.29176 0.51148 0.70255 0.0
C777 C 0.3201 0.49788 0.68995 0.0
C778 C 0.31658 0.46191 0.69399 0.0
C779 C 0.34929 0.45316 0.67613 0.0
C780 C 0.37557 0.44189 0.70123 0.0
C781 C 0.33213 0.4237 0.64893 0.0
C782 C 0.37153 0.48965 0.66086 0.0
C783 C 0.35454 0.51526 0.66933 0.0
C784 C 0.36963 0.55075 0.6575 0.0
C785 C 0.40296 0.5603 0.63675 0.0
C786 C 0.42078 0.53442 0.62764 0.0
C787 C 0.40459 0.49864 0.64001 0.0
H788 H 0.79377 0.76976 0.94122 0.0
H789 H 0.84742 0.87747 0.98556 0.0
H790 H 0.89631 0.85708 1.015 0.0
H791 H 0.81404 0.71708 1.01229 0.0
H792 H 0.8253 0.6857 0.98437 0.0
H793 H 0.78986 0.70661 0.97183 0.0
H794 H 0.83022 0.73059 0.9184 0.0
H795 H 0.86595 0.71016 0.93089 0.0
H796 H 0.88187 0.75814 0.9224 0.0
H797 H 0.94506 0.82822 0.03306 0.0
H798 H 0.98836 0.79155 0.04057 0.0
H799 H 0.90515 0.70372 0.98236 0.0
C800 C 0.81529 0.78887 0.95764 0.0
C801 C 0.8164 0.82516 0.96122 0.0
C802 C 0.84517 0.84929 0.98296 0.0
C803 C 0.87335 0.83804 0.99966 0.0
C804 C 0.87239 0.80257 0.99446 0.0
C805 C 0.84389 0.7782 0.97424 0.0
C806 C 0.8517 0.74279 0.97027 0.0
C807 C 0.81823 0.71118 0.98562 0.0
C808 C 0.85781 0.73499 0.9333 0.0
C809 C 0.88976 0.75156 0.99048 0.0
C810 C 0.90096 0.78601 1.00454 0.0
C811 C 0.93634 0.80099 1.02259 0.0
C812 C 0.96091 0.78014 1.02644 0.0
C813 C 0.95004 0.7448 1.01212 0.0
C814 C 0.91386 0.73038 0.99412 0.0
H815 H 0.42883 0.84046 0.23834 0.0
H816 H 0.39296 0.76471 0.1543 0.0
H817 H 0.41299 0.81576 0.11528 0.0
H818 H 0.39732 0.90965 0.20412 0.0
H819 H 0.43896 0.94739 0.21953 0.0
H820 H 0.42342 0.90502 0.24166 0.0
H821 H 0.49394 0.90179 0.23725 0.0
H822 H 0.5098 0.94434 0.21536 0.0
H823 H 0.51635 0.90474 0.19676 0.0
H824 H 0.43131 0.87408 0.08517 0.0
H825 H 0.45361 0.93699 0.065 0.0
H826 H 0.48253 0.97716 0.16701 0.0
C827 C 0.42583 0.83464 0.21172 0.0
C828 C 0.40855 0.79836 0.19954 0.0
C829 C 0.4051 0.7921 0.16444 0.0
C830 C 0.41663 0.82097 0.14196 0.0
C831 C 0.43228 0.85627 0.15471 0.0
C832 C 0.43762 0.86338 0.18868 0.0
C833 C 0.45515 0.90421 0.19534 0.0
C834 C 0.42703 0.91733 0.21641 0.0
C835 C 0.49626 0.91437 0.21218 0.0
C836 C 0.45812 0.91873 0.15986 0.0
C837 C 0.44449 0.89041 0.13695 0.0
C838 C 0.44246 0.8965 0.10281 0.0
C839 C 0.45497 0.93244 0.09162 0.0
C840 C 0.46984 0.96213 0.11434 0.0
C841 C 0.47156 0.95506 0.14899 0.0
H842 H 0.11194 0.29515 0.73212 0.0
H843 H 0.17049 0.36408 0.65001 0.0
H844 H 0.15105 0.31104 0.61224 0.0
H845 H 0.1352 0.21703 0.70959 0.0
H846 H 0.08773 0.18423 0.71985 0.0
H847 H 0.10537 0.22762 0.74126 0.0
H848 H 0.04162 0.23994 0.72367 0.0
H849 H 0.02359 0.19641 0.70248 0.0
H850 H 0.02746 0.2372 0.68004 0.0
H851 H 0.1314 0.25081 0.58423 0.0
H852 H 0.10403 0.1869 0.56518 0.0
H853 H 0.05114 0.15564 0.66226 0.0
C854 C 0.12015 0.29918 0.7061 0.0
C855 C 0.14389 0.33396 0.69449 0.0
C856 C 0.15371 0.33778 0.66008 0.0
C857 C 0.1425 0.30777 0.63821 0.0
C858 C 0.12048 0.27389 0.65065 0.0
C859 C 0.10851 0.26937 0.68353 0.0
C860 C 0.08427 0.22967 0.6899 0.0
C861 C 0.10435 0.21371 0.71675 0.0
C862 C 0.0417 0.22557 0.69959 0.0
C863 C 0.08524 0.21272 0.65564 0.0
C864 C 0.10675 0.2389 0.6336 0.0
C865 C 0.11404 0.23012 0.60109 0.0
C866 C 0.09866 0.1937 0.59058 0.0
C867 C 0.07559 0.16638 0.61222 0.0
C868 C 0.06852 0.17607 0.64517 0.0
H869 H 0.76237 0.34832 0.4495 0.0
H870 H 0.8296 0.44533 0.39624 0.0
H871 H 0.77233 0.46693 0.39822 0.0
H872 H 0.66372 0.33793 0.41176 0.0
H873 H 0.63855 0.32292 0.45055 0.0
H874 H 0.68285 0.31316 0.44116 0.0
H875 H 0.71515 0.34428 0.49688 0.0
H876 H 0.67105 0.35408 0.50641 0.0
H877 H 0.71823 0.39045 0.50549 0.0
H878 H 0.71129 0.48081 0.41164 0.0
H879 H 0.65075 0.4866 0.43581 0.0
H880 H 0.62244 0.38007 0.47994 0.0
C881 C 0.76449 0.37373 0.4377 0.0
C882 C 0.79978 0.39526 0.4225 0.0
C883 C 0.80237 0.42858 0.40773 0.0
C884 C 0.77005 0.44089 0.40867 0.0
C885 C 0.73557 0.4193 0.42429 0.0
C886 C 0.73249 0.38632 0.43841 0.0
C887 C 0.69335 0.36971 0.45594 0.0
C888 C 0.66812 0.3338 0.43882 0.0
C889 C 0.69986 0.36434 0.49339 0.0
C890 C 0.67544 0.39908 0.45053 0.0
C891 C 0.70008 0.42723 0.43185 0.0
C892 C 0.69144 0.4587 0.42577 0.0
C893 C 0.65713 0.46179 0.43965 0.0
C894 C 0.63193 0.43361 0.4594 0.0
C895 C 0.64079 0.40157 0.46427 0.0
loop_
_geom_bond_atom_site_label_1
_geom_bond_atom_site_label_2
_geom_bond_distance
_geom_bond_site_symmetry_2
_ccdc_geom_bond_type
H0 C3 0.929 . S
H1 C6 0.929 . S
H2 C8 0.930 . S
C3 H0 0.929 . S
C3 C4 1.398 . S
C3 C5 1.396 . S
C4 C3 1.398 . S
C4 C8 1.407 . S
C5 C3 1.396 . S
C5 C6 1.394 . S
C6 H1 0.929 . S
C6 C5 1.394 . S
C6 C7 1.382 . S
C7 C6 1.382 . S
C7 C8 1.392 . S
C7 N9 1.420 . S
C8 H2 0.930 . S
C8 C4 1.407 . S
C8 C7 1.392 . S
N9 C7 1.420 . S
N9 C10 1.244 . S
C10 N9 1.244 . S
H11 C14 0.929 . S
H12 C17 0.929 . S
H13 C19 0.930 . S
C14 H11 0.929 . S
C14 C15 1.398 . S
C14 C16 1.396 . S
C15 C14 1.398 . S
C15 C19 1.407 . S
C16 C14 1.396 . S
C16 C17 1.394 . S
C17 H12 0.929 . S
C17 C16 1.394 . S
C17 C18 1.382 . S
C18 C17 1.382 . S
C18 C19 1.392 . S
C18 N20 1.420 . S
C19 H13 0.930 . S
C19 C15 1.407 . S
C19 C18 1.392 . S
N20 C18 1.420 . S
N20 C21 1.244 . S
C21 N20 1.244 . S
H22 C25 0.929 . S
H23 C28 0.929 . S
H24 C30 0.930 . S
C25 H22 0.929 . S
C25 C26 1.398 . S
C25 C27 1.396 . S
C26 C25 1.398 . S
C26 C30 1.407 . S
C27 C25 1.396 . S
C27 C28 1.394 . S
C28 H23 0.929 . S
C28 C27 1.394 . S
C28 C29 1.382 . S
C29 C28 1.382 . S
C29 C30 1.392 . S
C29 N31 1.420 . S
C30 H24 0.930 . S
C30 C26 1.407 . S
C30 C29 1.392 . S
N31 C29 1.420 . S
N31 C32 1.244 . S
C32 N31 1.244 . S
H33 C36 0.929 . S
H34 C39 0.929 . S
H35 C41 0.930 . S
C36 H33 0.929 . S
C36 C37 1.398 . S
C36 C38 1.396 . S
C37 C36 1.398 . S
C37 C41 1.407 . S
C38 C36 1.396 . S
C38 C39 1.394 . S
C39 H34 0.929 . S
C39 C38 1.394 . S
C39 C40 1.382 . S
C40 C39 1.382 . S
C40 C41 1.392 . S
C40 N42 1.420 . S
C41 H35 0.930 . S
C41 C37 1.407 . S
C41 C40 1.392 . S
N42 C40 1.420 . S
N42 C43 1.244 . S
C43 N42 1.244 . S
H44 C47 0.929 . S
H45 C50 0.929 . S
H46 C52 0.930 . S
C47 H44 0.929 . S
C47 C48 1.398 . S
C47 C49 1.396 . S
C48 C47 1.398 . S
C48 C52 1.407 . S
C49 C47 1.396 . S
C49 C50 1.394 . S
C50 H45 0.929 . S
C50 C49 1.394 . S
C50 C51 1.382 . S
C51 C50 1.382 . S
C51 C52 1.392 . S
C51 N53 1.420 . S
C52 H46 0.930 . S
C52 C48 1.407 . S
C52 C51 1.392 . S
N53 C51 1.420 . S
N53 C54 1.244 . S
C54 N53 1.244 . S
H55 C58 0.929 . S
H56 C61 0.929 . S
H57 C63 0.930 . S
C58 H55 0.929 . S
C58 C59 1.398 . S
C58 C60 1.396 . S
C59 C58 1.398 . S
C59 C63 1.407 . S
C60 C58 1.396 . S
C60 C61 1.394 . S
C61 H56 0.929 . S
C61 C60 1.394 . S
C61 C62 1.382 . S
C62 C61 1.382 . S
C62 C63 1.392 . S
C62 N64 1.420 . S
C63 H57 0.930 . S
C63 C59 1.407 . S
C63 C62 1.392 . S
N64 C62 1.420 . S
N64 C65 1.244 . S
C65 N64 1.244 . S
H66 C69 0.929 . S
H67 C72 0.929 . S
H68 C74 0.930 . S
C69 H66 0.929 . S
C69 C70 1.398 . S
C69 C71 1.396 . S
C70 C69 1.398 . S
C70 C74 1.407 . S
C71 C69 1.396 . S
C71 C72 1.394 . S
C72 H67 0.929 . S
C72 C71 1.394 . S
C72 C73 1.382 . S
C73 C72 1.382 . S
C73 C74 1.392 . S
C73 N75 1.420 . S
C74 H68 0.930 . S
C74 C70 1.407 . S
C74 C73 1.392 . S
N75 C73 1.420 . S
N75 C76 1.244 . S
C76 N75 1.244 . S
H77 C80 0.929 . S
H78 C83 0.929 . S
H79 C85 0.930 . S
C80 H77 0.929 . S
C80 C81 1.398 . S
C80 C82 1.396 . S
C81 C80 1.398 . S
C81 C85 1.407 . S
C82 C80 1.396 . S
C82 C83 1.394 . S
C83 H78 0.929 . S
C83 C82 1.394 . S
C83 C84 1.382 . S
C84 C83 1.382 . S
C84 C85 1.392 . S
C84 N86 1.420 . S
C85 H79 0.930 . S
C85 C81 1.407 . S
C85 C84 1.392 . S
N86 C84 1.420 . S
N86 C87 1.244 . S
C87 N86 1.244 . S
Dy88 O91 2.307 1_545 S
Dy88 O93 2.395 . S
Dy88 O94 2.379 . S
Dy88 O96 2.339 1_545 S
Dy88 O98 2.298 . S
Dy88 O102 2.275 . S
Dy88 C110 2.738 . S
Dy89 O92 2.298 1_645 S
Dy89 O95 2.275 1_545 S
Dy89 O97 2.307 . S
Dy89 O99 2.395 1_545 S
Dy89 O100 2.379 . S
Dy89 O103 2.339 1_655 S
Dy89 C119 2.738 1_545 S
C90 O102 1.254 . S
C90 O103 1.257 . S
O91 Dy88 2.307 1_565 S
O91 C101 1.266 . S
O92 Dy89 2.298 1_465 S
O92 C101 1.236 . S
O93 Dy88 2.395 . S
O93 C110 1.255 . S
O94 Dy88 2.379 . S
O94 C110 1.249 . S
O95 Dy89 2.275 1_565 S
O95 C111 1.254 . S
O96 Dy88 2.339 1_565 S
O96 C111 1.257 1_455 S
O97 Dy89 2.307 . S
O97 C112 1.266 . S
O98 Dy88 2.298 . S
O98 C112 1.236 1_455 S
O99 Dy89 2.395 1_565 S
O99 C119 1.255 . S
O100 Dy89 2.379 . S
O100 C119 1.249 1_545 S
C101 O91 1.266 . S
C101 O92 1.236 . S
O102 Dy88 2.275 . S
O102 C90 1.254 . S
O103 Dy89 2.339 1_455 S
O103 C90 1.257 . S
C104 C107 1.344 . S
C104 C108 1.328 . S
C104 C110 1.516 . S
C105 C106 1.304 . S
C105 C109 1.323 . S
C106 C105 1.304 . S
C106 C107 1.371 . S
C106 H120 0.930 . S
C107 C104 1.344 . S
C107 C106 1.371 . S
C107 H121 0.931 . S
C108 C104 1.328 . S
C108 C109 1.433 . S
C108 H122 0.931 . S
C109 C105 1.323 . S
C109 C108 1.433 . S
C109 H123 0.933 . S
C110 Dy88 2.738 . S
C110 O93 1.255 . S
C110 O94 1.249 . S
C110 C104 1.516 . S
C111 O95 1.254 . S
C111 O96 1.257 1_655 S
C112 O97 1.266 . S
C112 O98 1.236 1_655 S
C113 C116 1.344 . S
C113 C117 1.328 . S
C113 C119 1.516 . S
C114 C115 1.304 . S
C114 C118 1.323 . S
C115 C114 1.304 . S
C115 C116 1.371 . S
C115 H124 0.930 . S
C116 C113 1.344 . S
C116 C115 1.371 . S
C116 H125 0.931 . S
C117 C113 1.328 . S
C117 C118 1.433 . S
C117 H126 0.931 . S
C118 C114 1.323 . S
C118 C117 1.433 . S
C118 H127 0.933 . S
C119 Dy89 2.738 1_565 S
C119 O99 1.255 . S
C119 O100 1.249 1_565 S
C119 C113 1.516 . S
H120 C106 0.930 . S
H121 C107 0.931 . S
H122 C108 0.931 . S
H123 C109 0.933 . S
H124 C115 0.930 . S
H125 C116 0.931 . S
H126 C117 0.931 . S
H127 C118 0.933 . S
Dy128 O131 2.307 . S
Dy128 O133 2.395 1_544 S
Dy128 O134 2.379 1_554 S
Dy128 O136 2.339 1_554 S
Dy128 O138 2.298 1_544 S
Dy128 O142 2.275 1_545 S
Dy128 C150 2.738 1_544 S
Dy129 O132 2.298 . S
Dy129 O135 2.275 . S
Dy129 O137 2.307 1_545 S
Dy129 O139 2.395 . S
Dy129 O140 2.379 . S
Dy129 O143 2.339 1_545 S
Dy129 C159 2.738 . S
C130 O142 1.254 . S
C130 O143 1.257 . S
O131 Dy128 2.307 . S
O131 C141 1.266 . S
O132 Dy129 2.298 . S
O132 C141 1.236 . S
O133 Dy128 2.395 1_566 S
O133 C150 1.255 . S
O134 Dy128 2.379 1_556 S
O134 C150 1.249 1_545 S
O135 Dy129 2.275 . S
O135 C151 1.254 . S
O136 Dy128 2.339 1_556 S
O136 C151 1.257 1_556 S
O137 Dy129 2.307 1_565 S
O137 C152 1.266 . S
O138 Dy128 2.298 1_566 S
O138 C152 1.236 1_556 S
O139 Dy129 2.395 . S
O139 C159 1.255 . S
O140 Dy129 2.379 . S
O140 C159 1.249 . S
C141 O131 1.266 . S
C141 O132 1.236 . S
O142 Dy128 2.275 1_565 S
O142 C130 1.254 . S
O143 Dy129 2.339 1_565 S
O143 C130 1.257 . S
C144 C147 1.344 . S
C144 C148 1.328 . S
C144 C150 1.516 . S
C145 C146 1.304 . S
C145 C149 1.323 . S
C146 C145 1.304 . S
C146 C147 1.371 . S
C146 H160 0.930 . S
C147 C144 1.344 . S
C147 C146 1.371 . S
C147 H161 0.931 . S
C148 C144 1.328 . S
C148 C149 1.433 . S
C148 H162 0.931 . S
C149 C145 1.323 . S
C149 C148 1.433 . S
C149 H163 0.933 . S
C150 Dy128 2.738 1_566 S
C150 O133 1.255 . S
C150 O134 1.249 1_565 S
C150 C144 1.516 . S
C151 O135 1.254 . S
C151 O136 1.257 1_554 S
C152 O137 1.266 . S
C152 O138 1.236 1_554 S
C153 C156 1.344 . S
C153 C157 1.328 . S
C153 C159 1.516 . S
C154 C155 1.304 . S
C154 C158 1.323 . S
C155 C154 1.304 . S
C155 C156 1.371 . S
C155 H164 0.930 . S
C156 C153 1.344 . S
C156 C155 1.371 . S
C156 H165 0.931 . S
C157 C153 1.328 . S
C157 C158 1.433 . S
C157 H166 0.931 . S
C158 C154 1.323 . S
C158 C157 1.433 . S
C158 H167 0.933 . S
C159 Dy129 2.738 . S
C159 O139 1.255 . S
C159 O140 1.249 . S
C159 C153 1.516 . S
H160 C146 0.930 . S
H161 C147 0.931 . S
H162 C148 0.931 . S
H163 C149 0.933 . S
H164 C155 0.930 . S
H165 C156 0.931 . S
H166 C157 0.931 . S
H167 C158 0.933 . S
Dy168 O171 2.307 . S
Dy168 O173 2.395 . S
Dy168 O174 2.379 . S
Dy168 O176 2.339 . S
Dy168 O178 2.298 . S
Dy168 O182 2.275 . S
Dy168 C190 2.738 . S
Dy169 O172 2.298 . S
Dy169 O175 2.275 . S
Dy169 O177 2.307 . S
Dy169 O179 2.395 . S
Dy169 O180 2.379 . S
Dy169 O183 2.339 . S
Dy169 C199 2.738 . S
C170 O182 1.254 . S
C170 O183 1.257 . S
O171 Dy168 2.307 . S
O171 C181 1.266 . S
O172 Dy169 2.298 . S
O172 C181 1.236 . S
O173 Dy168 2.395 . S
O173 C190 1.255 . S
O174 Dy168 2.379 . S
O174 C190 1.249 . S
O175 Dy169 2.275 . S
O175 C191 1.254 . S
O176 Dy168 2.339 . S
O176 C191 1.257 . S
O177 Dy169 2.307 . S
O177 C192 1.266 . S
O178 Dy168 2.298 . S
O178 C192 1.236 . S
O179 Dy169 2.395 . S
O179 C199 1.255 . S
O180 Dy169 2.379 . S
O180 C199 1.249 . S
C181 O171 1.266 . S
C181 O172 1.236 . S
O182 Dy168 2.275 . S
O182 C170 1.254 . S
O183 Dy169 2.339 . S
O183 C170 1.257 . S
C184 C187 1.344 . S
C184 C188 1.328 . S
C184 C190 1.516 . S
C185 C186 1.304 . S
C185 C189 1.323 . S
C186 C185 1.304 . S
C186 C187 1.371 . S
C186 H200 0.930 . S
C187 C184 1.344 . S
C187 C186 1.371 . S
C187 H201 0.931 . S
C188 C184 1.328 . S
C188 C189 1.433 . S
C188 H202 0.931 . S
C189 C185 1.323 . S
C189 C188 1.433 . S
C189 H203 0.933 . S
C190 Dy168 2.738 . S
C190 O173 1.255 . S
C190 O174 1.249 . S
C190 C184 1.516 . S
C191 O175 1.254 . S
C191 O176 1.257 . S
C192 O177 1.266 . S
C192 O178 1.236 . S
C193 C196 1.344 . S
C193 C197 1.328 . S
C193 C199 1.516 . S
C194 C195 1.304 . S
C194 C198 1.323 . S
C195 C194 1.304 . S
C195 C196 1.371 . S
C195 H204 0.930 . S
C196 C193 1.344 . S
C196 C195 1.371 . S
C196 H205 0.931 . S
C197 C193 1.328 . S
C197 C198 1.433 . S
C197 H206 0.931 . S
C198 C194 1.323 . S
C198 C197 1.433 . S
C198 H207 0.933 . S
C199 Dy169 2.738 . S
C199 O179 1.255 . S
C199 O180 1.249 . S
C199 C193 1.516 . S
H200 C186 0.930 . S
H201 C187 0.931 . S
H202 C188 0.931 . S
H203 C189 0.933 . S
H204 C195 0.930 . S
H205 C196 0.931 . S
H206 C197 0.931 . S
H207 C198 0.933 . S
Dy208 O211 2.307 1_556 S
Dy208 O213 2.395 1_455 S
Dy208 O214 2.379 . S
Dy208 O216 2.339 . S
Dy208 O218 2.298 1_455 S
Dy208 O222 2.275 1_556 S
Dy208 C230 2.738 1_455 S
Dy209 O212 2.298 . S
Dy209 O215 2.275 1_554 S
Dy209 O217 2.307 1_455 S
Dy209 O219 2.395 . S
Dy209 O220 2.379 . S
Dy209 O223 2.339 . S
Dy209 C239 2.738 . S
C210 O222 1.254 . S
C210 O223 1.257 . S
O211 Dy208 2.307 1_554 S
O211 C221 1.266 . S
O212 Dy209 2.298 . S
O212 C221 1.236 . S
O213 Dy208 2.395 1_655 S
O213 C230 1.255 . S
O214 Dy208 2.379 . S
O214 C230 1.249 1_455 S
O215 Dy209 2.275 1_556 S
O215 C231 1.254 . S
O216 Dy208 2.339 . S
O216 C231 1.257 . S
O217 Dy209 2.307 1_655 S
O217 C232 1.266 1_554 S
O218 Dy208 2.298 1_655 S
O218 C232 1.236 . S
O219 Dy209 2.395 . S
O219 C239 1.255 . S
O220 Dy209 2.379 . S
O220 C239 1.249 . S
C221 O211 1.266 . S
C221 O212 1.236 . S
O222 Dy208 2.275 1_554 S
O222 C210 1.254 . S
O223 Dy209 2.339 . S
O223 C210 1.257 . S
C224 C227 1.344 . S
C224 C228 1.328 . S
C224 C230 1.516 . S
C225 C226 1.304 . S
C225 C229 1.323 . S
C226 C225 1.304 . S
C226 C227 1.371 . S
C226 H240 0.930 . S
C227 C224 1.344 . S
C227 C226 1.371 . S
C227 H241 0.931 . S
C228 C224 1.328 . S
C228 C229 1.433 . S
C228 H242 0.931 . S
C229 C225 1.323 . S
C229 C228 1.433 . S
C229 H243 0.933 . S
C230 Dy208 2.738 1_655 S
C230 O213 1.255 . S
C230 O214 1.249 1_655 S
C230 C224 1.516 . S
C231 O215 1.254 . S
C231 O216 1.257 . S
C232 O217 1.266 1_556 S
C232 O218 1.236 . S
C233 C236 1.344 . S
C233 C237 1.328 . S
C233 C239 1.516 . S
C234 C235 1.304 . S
C234 C238 1.323 . S
C235 C234 1.304 . S
C235 C236 1.371 . S
C235 H244 0.930 . S
C236 C233 1.344 . S
C236 C235 1.371 . S
C236 H245 0.931 . S
C237 C233 1.328 . S
C237 C238 1.433 . S
C237 H246 0.931 . S
C238 C234 1.323 . S
C238 C237 1.433 . S
C238 H247 0.933 . S
C239 Dy209 2.738 . S
C239 O219 1.255 . S
C239 O220 1.249 . S
C239 C233 1.516 . S
H240 C226 0.930 . S
H241 C227 0.931 . S
H242 C228 0.931 . S
H243 C229 0.933 . S
H244 C235 0.930 . S
H245 C236 0.931 . S
H246 C237 0.931 . S
H247 C238 0.933 . S
H248 C260 0.930 . S
H249 C262 0.930 . S
H250 C263 0.930 . S
H251 C267 0.959 . S
H252 C267 0.959 . S
H253 C267 0.961 . S
H254 C268 0.960 . S
H255 C268 0.961 . S
H256 C268 0.959 . S
H257 C271 0.929 . S
H258 C272 0.931 . S
H259 C274 0.930 . S
C260 H248 0.930 . S
C260 C261 1.399 . S
C260 C265 1.399 . S
C261 C260 1.399 . S
C261 C262 1.376 . S
C262 H249 0.930 . S
C262 C261 1.376 . S
C262 C263 1.388 . S
C263 H250 0.930 . S
C263 C262 1.388 . S
C263 C264 1.390 . S
C264 C263 1.390 . S
C264 C265 1.394 . S
C264 C270 1.465 . S
C265 C260 1.399 . S
C265 C264 1.394 . S
C265 C266 1.516 . S
C266 C265 1.516 . S
C266 C267 1.502 . S
C266 C268 1.561 . S
C266 C269 1.526 . S
C267 H251 0.959 . S
C267 H252 0.959 . S
C267 H253 0.961 . S
C267 C266 1.502 . S
C268 H254 0.960 . S
C268 H255 0.961 . S
C268 H256 0.959 . S
C268 C266 1.561 . S
C269 C266 1.526 . S
C269 C270 1.396 . S
C269 C274 1.390 . S
C270 C264 1.465 . S
C270 C269 1.396 . S
C270 C271 1.399 . S
C271 H257 0.929 . S
C271 C270 1.399 . S
C271 C272 1.385 . S
C272 H258 0.931 . S
C272 C271 1.385 . S
C272 C273 1.389 . S
C273 C272 1.389 . S
C273 C274 1.387 . S
C274 H259 0.930 . S
C274 C269 1.390 . S
C274 C273 1.387 . S
H275 C287 0.930 . S
H276 C289 0.930 . S
H277 C290 0.930 . S
H278 C294 0.959 . S
H279 C294 0.959 . S
H280 C294 0.961 . S
H281 C295 0.960 . S
H282 C295 0.961 . S
H283 C295 0.959 . S
H284 C298 0.929 . S
H285 C299 0.931 . S
H286 C301 0.930 . S
C287 H275 0.930 . S
C287 C288 1.399 . S
C287 C292 1.399 . S
C288 C287 1.399 . S
C288 C289 1.376 . S
C289 H276 0.930 . S
C289 C288 1.376 . S
C289 C290 1.388 . S
C290 H277 0.930 . S
C290 C289 1.388 . S
C290 C291 1.390 . S
C291 C290 1.390 . S
C291 C292 1.394 . S
C291 C297 1.465 . S
C292 C287 1.399 . S
C292 C291 1.394 . S
C292 C293 1.516 . S
C293 C292 1.516 . S
C293 C294 1.502 . S
C293 C295 1.561 . S
C293 C296 1.526 . S
C294 H278 0.959 . S
C294 H279 0.959 . S
C294 H280 0.961 . S
C294 C293 1.502 . S
C295 H281 0.960 . S
C295 H282 0.961 . S
C295 H283 0.959 . S
C295 C293 1.561 . S
C296 C293 1.526 . S
C296 C297 1.396 . S
C296 C301 1.390 . S
C297 C291 1.465 . S
C297 C296 1.396 . S
C297 C298 1.399 . S
C298 H284 0.929 . S
C298 C297 1.399 . S
C298 C299 1.385 . S
C299 H285 0.931 . S
C299 C298 1.385 . S
C299 C300 1.389 . S
C300 C299 1.389 . S
C300 C301 1.387 . S
C301 H286 0.930 . S
C301 C296 1.390 . S
C301 C300 1.387 . S
H302 C314 0.930 . S
H303 C316 0.930 . S
H304 C317 0.930 . S
H305 C321 0.959 . S
H306 C321 0.959 . S
H307 C321 0.961 . S
H308 C322 0.960 . S
H309 C322 0.961 . S
H310 C322 0.959 . S
H311 C325 0.929 . S
H312 C326 0.931 . S
H313 C328 0.930 . S
C314 H302 0.930 . S
C314 C315 1.399 . S
C314 C319 1.399 . S
C315 C314 1.399 . S
C315 C316 1.376 . S
C316 H303 0.930 . S
C316 C315 1.376 . S
C316 C317 1.388 . S
C317 H304 0.930 . S
C317 C316 1.388 . S
C317 C318 1.390 . S
C318 C317 1.390 . S
C318 C319 1.394 . S
C318 C324 1.465 . S
C319 C314 1.399 . S
C319 C318 1.394 . S
C319 C320 1.516 . S
C320 C319 1.516 . S
C320 C321 1.502 . S
C320 C322 1.561 . S
C320 C323 1.526 . S
C321 H305 0.959 . S
C321 H306 0.959 . S
C321 H307 0.961 . S
C321 C320 1.502 . S
C322 H308 0.960 . S
C322 H309 0.961 . S
C322 H310 0.959 . S
C322 C320 1.561 . S
C323 C320 1.526 . S
C323 C324 1.396 . S
C323 C328 1.390 . S
C324 C318 1.465 . S
C324 C323 1.396 . S
C324 C325 1.399 . S
C325 H311 0.929 . S
C325 C324 1.399 . S
C325 C326 1.385 . S
C326 H312 0.931 . S
C326 C325 1.385 . S
C326 C327 1.389 . S
C327 C326 1.389 . S
C327 C328 1.387 . S
C328 H313 0.930 . S
C328 C323 1.390 . S
C328 C327 1.387 . S
H329 C341 0.930 . S
H330 C343 0.930 . S
H331 C344 0.930 . S
H332 C348 0.959 . S
H333 C348 0.959 . S
H334 C348 0.961 . S
H335 C349 0.960 . S
H336 C349 0.961 . S
H337 C349 0.959 . S
H338 C352 0.929 1_455 S
H339 C353 0.931 1_455 S
H340 C355 0.930 . S
C341 H329 0.930 . S
C341 C342 1.399 . S
C341 C346 1.399 . S
C342 C341 1.399 . S
C342 C343 1.376 . S
C343 H330 0.930 . S
C343 C342 1.376 . S
C343 C344 1.388 . S
C344 H331 0.930 . S
C344 C343 1.388 . S
C344 C345 1.390 . S
C345 C344 1.390 . S
C345 C346 1.394 . S
C345 C351 1.465 . S
C346 C341 1.399 . S
C346 C345 1.394 . S
C346 C347 1.516 . S
C347 C346 1.516 . S
C347 C348 1.502 . S
C347 C349 1.561 . S
C347 C350 1.526 . S
C348 H332 0.959 . S
C348 H333 0.959 . S
C348 H334 0.961 . S
C348 C347 1.502 . S
C349 H335 0.960 . S
C349 H336 0.961 . S
C349 H337 0.959 . S
C349 C347 1.561 . S
C350 C347 1.526 . S
C350 C351 1.396 . S
C350 C355 1.390 . S
C351 C345 1.465 . S
C351 C350 1.396 . S
C351 C352 1.399 . S
C352 H338 0.929 1_655 S
C352 C351 1.399 . S
C352 C353 1.385 . S
C353 H339 0.931 1_655 S
C353 C352 1.385 . S
C353 C354 1.389 . S
C354 C353 1.389 . S
C354 C355 1.387 . S
C355 H340 0.930 . S
C355 C350 1.390 . S
C355 C354 1.387 . S
H356 C368 0.930 . S
H357 C370 0.930 . S
H358 C371 0.930 . S
H359 C375 0.959 . S
H360 C375 0.959 . S
H361 C375 0.961 . S
H362 C376 0.960 . S
H363 C376 0.961 . S
H364 C376 0.959 . S
H365 C379 0.929 . S
H366 C380 0.931 . S
H367 C382 0.930 . S
C368 H356 0.930 . S
C368 C369 1.399 . S
C368 C373 1.399 . S
C369 C368 1.399 . S
C369 C370 1.376 . S
C370 H357 0.930 . S
C370 C369 1.376 . S
C370 C371 1.388 . S
C371 H358 0.930 . S
C371 C370 1.388 . S
C371 C372 1.390 . S
C372 C371 1.390 . S
C372 C373 1.394 . S
C372 C378 1.465 . S
C373 C368 1.399 . S
C373 C372 1.394 . S
C373 C374 1.516 . S
C374 C373 1.516 . S
C374 C375 1.502 . S
C374 C376 1.561 . S
C374 C377 1.526 . S
C375 H359 0.959 . S
C375 H360 0.959 . S
C375 H361 0.961 . S
C375 C374 1.502 . S
C376 H362 0.960 . S
C376 H363 0.961 . S
C376 H364 0.959 . S
C376 C374 1.561 . S
C377 C374 1.526 . S
C377 C378 1.396 . S
C377 C382 1.390 . S
C378 C372 1.465 . S
C378 C377 1.396 . S
C378 C379 1.399 . S
C379 H365 0.929 . S
C379 C378 1.399 . S
C379 C380 1.385 . S
C380 H366 0.931 . S
C380 C379 1.385 . S
C380 C381 1.389 . S
C381 C380 1.389 . S
C381 C382 1.387 . S
C382 H367 0.930 . S
C382 C377 1.390 . S
C382 C381 1.387 . S
H383 C395 0.930 . S
H384 C397 0.930 . S
H385 C398 0.930 . S
H386 C402 0.959 . S
H387 C402 0.959 . S
H388 C402 0.961 . S
H389 C403 0.960 . S
H390 C403 0.961 . S
H391 C403 0.959 1_655 S
H392 C406 0.929 . S
H393 C407 0.931 . S
H394 C409 0.930 . S
C395 H383 0.930 . S
C395 C396 1.399 . S
C395 C400 1.399 . S
C396 C395 1.399 . S
C396 C397 1.376 . S
C397 H384 0.930 . S
C397 C396 1.376 . S
C397 C398 1.388 . S
C398 H385 0.930 . S
C398 C397 1.388 . S
C398 C399 1.390 . S
C399 C398 1.390 . S
C399 C400 1.394 . S
C399 C405 1.465 . S
C400 C395 1.399 . S
C400 C399 1.394 . S
C400 C401 1.516 . S
C401 C400 1.516 . S
C401 C402 1.502 . S
C401 C403 1.561 . S
C401 C404 1.526 . S
C402 H386 0.959 . S
C402 H387 0.959 . S
C402 H388 0.961 . S
C402 C401 1.502 . S
C403 H389 0.960 . S
C403 H390 0.961 . S
C403 H391 0.959 1_455 S
C403 C401 1.561 . S
C404 C401 1.526 . S
C404 C405 1.396 . S
C404 C409 1.390 . S
C405 C399 1.465 . S
C405 C404 1.396 . S
C405 C406 1.399 . S
C406 H392 0.929 . S
C406 C405 1.399 . S
C406 C407 1.385 . S
C407 H393 0.931 . S
C407 C406 1.385 . S
C407 C408 1.389 . S
C408 C407 1.389 . S
C408 C409 1.387 . S
C409 H394 0.930 . S
C409 C404 1.390 . S
C409 C408 1.387 . S
H410 C422 0.930 . S
H411 C424 0.930 . S
H412 C425 0.930 . S
H413 C429 0.959 . S
H414 C429 0.959 . S
H415 C429 0.961 . S
H416 C430 0.960 . S
H417 C430 0.961 . S
H418 C430 0.959 . S
H419 C433 0.929 . S
H420 C434 0.931 . S
H421 C436 0.930 . S
C422 H410 0.930 . S
C422 C423 1.399 . S
C422 C427 1.399 . S
C423 C422 1.399 . S
C423 C424 1.376 . S
C424 H411 0.930 . S
C424 C423 1.376 . S
C424 C425 1.388 . S
C425 H412 0.930 . S
C425 C424 1.388 . S
C425 C426 1.390 . S
C426 C425 1.390 . S
C426 C427 1.394 . S
C426 C432 1.465 . S
C427 C422 1.399 . S
C427 C426 1.394 . S
C427 C428 1.516 . S
C428 C427 1.516 . S
C428 C429 1.502 . S
C428 C430 1.561 . S
C428 C431 1.526 . S
C429 H413 0.959 . S
C429 H414 0.959 . S
C429 H415 0.961 . S
C429 C428 1.502 . S
C430 H416 0.960 . S
C430 H417 0.961 . S
C430 H418 0.959 . S
C430 C428 1.561 . S
C431 C428 1.526 . S
C431 C432 1.396 . S
C431 C436 1.390 . S
C432 C426 1.465 . S
C432 C431 1.396 . S
C432 C433 1.399 . S
C433 H419 0.929 . S
C433 C432 1.399 . S
C433 C434 1.385 . S
C434 H420 0.931 . S
C434 C433 1.385 . S
C434 C435 1.389 . S
C435 C434 1.389 . S
C435 C436 1.387 . S
C436 H421 0.930 . S
C436 C431 1.390 . S
C436 C435 1.387 . S
H437 C449 0.930 . S
H438 C451 0.930 . S
H439 C452 0.930 . S
H440 C456 0.959 . S
H441 C456 0.959 . S
H442 C456 0.961 . S
H443 C457 0.960 . S
H444 C457 0.961 . S
H445 C457 0.959 . S
H446 C460 0.929 . S
H447 C461 0.931 . S
H448 C463 0.930 . S
C449 H437 0.930 . S
C449 C450 1.399 . S
C449 C454 1.399 . S
C450 C449 1.399 . S
C450 C451 1.376 . S
C451 H438 0.930 . S
C451 C450 1.376 . S
C451 C452 1.388 . S
C452 H439 0.930 . S
C452 C451 1.388 . S
C452 C453 1.390 . S
C453 C452 1.390 . S
C453 C454 1.394 . S
C453 C459 1.465 . S
C454 C449 1.399 . S
C454 C453 1.394 . S
C454 C455 1.516 . S
C455 C454 1.516 . S
C455 C456 1.502 . S
C455 C457 1.561 . S
C455 C458 1.526 . S
C456 H440 0.959 . S
C456 H441 0.959 . S
C456 H442 0.961 . S
C456 C455 1.502 . S
C457 H443 0.960 . S
C457 H444 0.961 . S
C457 H445 0.959 . S
C457 C455 1.561 . S
C458 C455 1.526 . S
C458 C459 1.396 . S
C458 C463 1.390 . S
C459 C453 1.465 . S
C459 C458 1.396 . S
C459 C460 1.399 . S
C460 H446 0.929 . S
C460 C459 1.399 . S
C460 C461 1.385 . S
C461 H447 0.931 . S
C461 C460 1.385 . S
C461 C462 1.389 . S
C462 C461 1.389 . S
C462 C463 1.387 . S
C463 H448 0.930 . S
C463 C458 1.390 . S
C463 C462 1.387 . S
H464 C476 0.930 . S
H465 C478 0.930 . S
H466 C479 0.930 . S
H467 C483 0.959 . S
H468 C483 0.959 . S
H469 C483 0.961 . S
H470 C484 0.960 . S
H471 C484 0.961 . S
H472 C484 0.959 . S
H473 C487 0.929 . S
H474 C488 0.931 . S
H475 C490 0.930 . S
C476 H464 0.930 . S
C476 C477 1.399 . S
C476 C481 1.399 . S
C477 C476 1.399 . S
C477 C478 1.376 . S
C478 H465 0.930 . S
C478 C477 1.376 . S
C478 C479 1.388 . S
C479 H466 0.930 . S
C479 C478 1.388 . S
C479 C480 1.390 . S
C480 C479 1.390 . S
C480 C481 1.394 . S
C480 C486 1.465 . S
C481 C476 1.399 . S
C481 C480 1.394 . S
C481 C482 1.516 . S
C482 C481 1.516 . S
C482 C483 1.502 . S
C482 C484 1.561 . S
C482 C485 1.526 . S
C483 H467 0.959 . S
C483 H468 0.959 . S
C483 H469 0.961 . S
C483 C482 1.502 . S
C484 H470 0.960 . S
C484 H471 0.961 . S
C484 H472 0.959 . S
C484 C482 1.561 . S
C485 C482 1.526 . S
C485 C486 1.396 . S
C485 C490 1.390 . S
C486 C480 1.465 . S
C486 C485 1.396 . S
C486 C487 1.399 . S
C487 H473 0.929 . S
C487 C486 1.399 . S
C487 C488 1.385 . S
C488 H474 0.931 . S
C488 C487 1.385 . S
C488 C489 1.389 . S
C489 C488 1.389 . S
C489 C490 1.387 . S
C490 H475 0.930 . S
C490 C485 1.390 . S
C490 C489 1.387 . S
H491 C503 0.930 . S
H492 C505 0.930 . S
H493 C506 0.930 . S
H494 C510 0.959 1_556 S
H495 C510 0.959 . S
H496 C510 0.961 . S
H497 C511 0.960 . S
H498 C511 0.961 . S
H499 C511 0.959 1_556 S
H500 C514 0.929 . S
H501 C515 0.931 . S
H502 C517 0.930 1_554 S
C503 H491 0.930 . S
C503 C504 1.399 . S
C503 C508 1.399 . S
C504 C503 1.399 . S
C504 C505 1.376 . S
C505 H492 0.930 . S
C505 C504 1.376 . S
C505 C506 1.388 . S
C506 H493 0.930 . S
C506 C505 1.388 . S
C506 C507 1.390 . S
C507 C506 1.390 . S
C507 C508 1.394 . S
C507 C513 1.465 . S
C508 C503 1.399 . S
C508 C507 1.394 . S
C508 C509 1.516 . S
C509 C508 1.516 . S
C509 C510 1.502 1_556 S
C509 C511 1.561 1_556 S
C509 C512 1.526 . S
C510 H494 0.959 1_554 S
C510 H495 0.959 . S
C510 H496 0.961 . S
C510 C509 1.502 1_554 S
C511 H497 0.960 . S
C511 H498 0.961 . S
C511 H499 0.959 1_554 S
C511 C509 1.561 1_554 S
C512 C509 1.526 . S
C512 C513 1.396 . S
C512 C517 1.390 . S
C513 C507 1.465 . S
C513 C512 1.396 . S
C513 C514 1.399 . S
C514 H500 0.929 . S
C514 C513 1.399 . S
C514 C515 1.385 . S
C515 H501 0.931 . S
C515 C514 1.385 . S
C515 C516 1.389 . S
C516 C515 1.389 . S
C516 C517 1.387 . S
C517 H502 0.930 1_556 S
C517 C512 1.390 . S
C517 C516 1.387 . S
H518 C530 0.930 . S
H519 C532 0.930 . S
H520 C533 0.930 . S
H521 C537 0.959 . S
H522 C537 0.959 . S
H523 C537 0.961 . S
H524 C538 0.960 . S
H525 C538 0.961 . S
H526 C538 0.959 . S
H527 C541 0.929 . S
H528 C542 0.931 . S
H529 C544 0.930 . S
C530 H518 0.930 . S
C530 C531 1.399 . S
C530 C535 1.399 . S
C531 C530 1.399 . S
C531 C532 1.376 . S
C532 H519 0.930 . S
C532 C531 1.376 . S
C532 C533 1.388 . S
C533 H520 0.930 . S
C533 C532 1.388 . S
C533 C534 1.390 . S
C534 C533 1.390 . S
C534 C535 1.394 . S
C534 C540 1.465 . S
C535 C530 1.399 . S
C535 C534 1.394 . S
C535 C536 1.516 . S
C536 C535 1.516 . S
C536 C537 1.502 . S
C536 C538 1.561 . S
C536 C539 1.526 . S
C537 H521 0.959 . S
C537 H522 0.959 . S
C537 H523 0.961 . S
C537 C536 1.502 . S
C538 H524 0.960 . S
C538 H525 0.961 . S
C538 H526 0.959 . S
C538 C536 1.561 . S
C539 C536 1.526 . S
C539 C540 1.396 . S
C539 C544 1.390 . S
C540 C534 1.465 . S
C540 C539 1.396 . S
C540 C541 1.399 . S
C541 H527 0.929 . S
C541 C540 1.399 . S
C541 C542 1.385 . S
C542 H528 0.931 . S
C542 C541 1.385 . S
C542 C543 1.389 . S
C543 C542 1.389 . S
C543 C544 1.387 . S
C544 H529 0.930 . S
C544 C539 1.390 . S
C544 C543 1.387 . S
H545 C557 0.930 . S
H546 C559 0.930 . S
H547 C560 0.930 . S
H548 C564 0.959 . S
H549 C564 0.959 . S
H550 C564 0.961 . S
H551 C565 0.960 . S
H552 C565 0.961 . S
H553 C565 0.959 . S
H554 C568 0.929 . S
H555 C569 0.931 . S
H556 C571 0.930 . S
C557 H545 0.930 . S
C557 C558 1.399 . S
C557 C562 1.399 . S
C558 C557 1.399 . S
C558 C559 1.376 . S
C559 H546 0.930 . S
C559 C558 1.376 . S
C559 C560 1.388 . S
C560 H547 0.930 . S
C560 C559 1.388 . S
C560 C561 1.390 . S
C561 C560 1.390 . S
C561 C562 1.394 . S
C561 C567 1.465 . S
C562 C557 1.399 . S
C562 C561 1.394 . S
C562 C563 1.516 . S
C563 C562 1.516 . S
C563 C564 1.502 . S
C563 C565 1.561 . S
C563 C566 1.526 . S
C564 H548 0.959 . S
C564 H549 0.959 . S
C564 H550 0.961 . S
C564 C563 1.502 . S
C565 H551 0.960 . S
C565 H552 0.961 . S
C565 H553 0.959 . S
C565 C563 1.561 . S
C566 C563 1.526 . S
C566 C567 1.396 . S
C566 C571 1.390 . S
C567 C561 1.465 . S
C567 C566 1.396 . S
C567 C568 1.399 . S
C568 H554 0.929 . S
C568 C567 1.399 . S
C568 C569 1.385 . S
C569 H555 0.931 . S
C569 C568 1.385 . S
C569 C570 1.389 . S
C570 C569 1.389 . S
C570 C571 1.387 . S
C571 H556 0.930 . S
C571 C566 1.390 . S
C571 C570 1.387 . S
H572 C584 0.930 . S
H573 C586 0.930 . S
H574 C587 0.930 . S
H575 C591 0.959 . S
H576 C591 0.959 . S
H577 C591 0.961 . S
H578 C592 0.960 . S
H579 C592 0.961 . S
H580 C592 0.959 . S
H581 C595 0.929 . S
H582 C596 0.931 . S
H583 C598 0.930 . S
C584 H572 0.930 . S
C584 C585 1.399 . S
C584 C589 1.399 . S
C585 C584 1.399 . S
C585 C586 1.376 . S
C586 H573 0.930 . S
C586 C585 1.376 . S
C586 C587 1.388 . S
C587 H574 0.930 . S
C587 C586 1.388 . S
C587 C588 1.390 . S
C588 C587 1.390 . S
C588 C589 1.394 . S
C588 C594 1.465 . S
C589 C584 1.399 . S
C589 C588 1.394 . S
C589 C590 1.516 . S
C590 C589 1.516 . S
C590 C591 1.502 . S
C590 C592 1.561 . S
C590 C593 1.526 . S
C591 H575 0.959 . S
C591 H576 0.959 . S
C591 H577 0.961 . S
C591 C590 1.502 . S
C592 H578 0.960 . S
C592 H579 0.961 . S
C592 H580 0.959 . S
C592 C590 1.561 . S
C593 C590 1.526 . S
C593 C594 1.396 . S
C593 C598 1.390 . S
C594 C588 1.465 . S
C594 C593 1.396 . S
C594 C595 1.399 . S
C595 H581 0.929 . S
C595 C594 1.399 . S
C595 C596 1.385 . S
C596 H582 0.931 . S
C596 C595 1.385 . S
C596 C597 1.389 . S
C597 C596 1.389 . S
C597 C598 1.387 . S
C598 H583 0.930 . S
C598 C593 1.390 . S
C598 C597 1.387 . S
H599 C611 0.930 . S
H600 C613 0.930 . S
H601 C614 0.930 . S
H602 C618 0.959 . S
H603 C618 0.959 . S
H604 C618 0.961 . S
H605 C619 0.960 . S
H606 C619 0.961 . S
H607 C619 0.959 . S
H608 C622 0.929 . S
H609 C623 0.931 . S
H610 C625 0.930 . S
C611 H599 0.930 . S
C611 C612 1.399 . S
C611 C616 1.399 . S
C612 C611 1.399 . S
C612 C613 1.376 . S
C613 H600 0.930 . S
C613 C612 1.376 . S
C613 C614 1.388 . S
C614 H601 0.930 . S
C614 C613 1.388 . S
C614 C615 1.390 . S
C615 C614 1.390 . S
C615 C616 1.394 . S
C615 C621 1.465 . S
C616 C611 1.399 . S
C616 C615 1.394 . S
C616 C617 1.516 . S
C617 C616 1.516 . S
C617 C618 1.502 . S
C617 C619 1.561 . S
C617 C620 1.526 . S
C618 H602 0.959 . S
C618 H603 0.959 . S
C618 H604 0.961 . S
C618 C617 1.502 . S
C619 H605 0.960 . S
C619 H606 0.961 . S
C619 H607 0.959 . S
C619 C617 1.561 . S
C620 C617 1.526 . S
C620 C621 1.396 . S
C620 C625 1.390 . S
C621 C615 1.465 . S
C621 C620 1.396 . S
C621 C622 1.399 . S
C622 H608 0.929 . S
C622 C621 1.399 . S
C622 C623 1.385 . S
C623 H609 0.931 . S
C623 C622 1.385 . S
C623 C624 1.389 . S
C624 C623 1.389 . S
C624 C625 1.387 . S
C625 H610 0.930 . S
C625 C620 1.390 . S
C625 C624 1.387 . S
H626 C638 0.930 . S
H627 C640 0.930 . S
H628 C641 0.930 . S
H629 C645 0.959 . S
H630 C645 0.959 . S
H631 C645 0.961 . S
H632 C646 0.960 . S
H633 C646 0.961 . S
H634 C646 0.959 . S
H635 C649 0.929 . S
H636 C650 0.931 . S
H637 C652 0.930 . S
C638 H626 0.930 . S
C638 C639 1.399 . S
C638 C643 1.399 . S
C639 C638 1.399 . S
C639 C640 1.376 . S
C640 H627 0.930 . S
C640 C639 1.376 . S
C640 C641 1.388 . S
C641 H628 0.930 . S
C641 C640 1.388 . S
C641 C642 1.390 . S
C642 C641 1.390 . S
C642 C643 1.394 . S
C642 C648 1.465 . S
C643 C638 1.399 . S
C643 C642 1.394 . S
C643 C644 1.516 . S
C644 C643 1.516 . S
C644 C645 1.502 . S
C644 C646 1.561 . S
C644 C647 1.526 . S
C645 H629 0.959 . S
C645 H630 0.959 . S
C645 H631 0.961 . S
C645 C644 1.502 . S
C646 H632 0.960 . S
C646 H633 0.961 . S
C646 H634 0.959 . S
C646 C644 1.561 . S
C647 C644 1.526 . S
C647 C648 1.396 . S
C647 C652 1.390 . S
C648 C642 1.465 . S
C648 C647 1.396 . S
C648 C649 1.399 . S
C649 H635 0.929 . S
C649 C648 1.399 . S
C649 C650 1.385 . S
C650 H636 0.931 . S
C650 C649 1.385 . S
C650 C651 1.389 . S
C651 C650 1.389 . S
C651 C652 1.387 . S
C652 H637 0.930 . S
C652 C647 1.390 . S
C652 C651 1.387 . S
H653 C665 0.930 . S
H654 C667 0.930 . S
H655 C668 0.930 . S
H656 C672 0.959 . S
H657 C672 0.959 . S
H658 C672 0.961 . S
H659 C673 0.960 . S
H660 C673 0.961 . S
H661 C673 0.959 . S
H662 C676 0.929 . S
H663 C677 0.931 . S
H664 C679 0.930 . S
C665 H653 0.930 . S
C665 C666 1.399 . S
C665 C670 1.399 . S
C666 C665 1.399 . S
C666 C667 1.376 . S
C667 H654 0.930 . S
C667 C666 1.376 . S
C667 C668 1.388 . S
C668 H655 0.930 . S
C668 C667 1.388 . S
C668 C669 1.390 . S
C669 C668 1.390 . S
C669 C670 1.394 . S
C669 C675 1.465 . S
C670 C665 1.399 . S
C670 C669 1.394 . S
C670 C671 1.516 . S
C671 C670 1.516 . S
C671 C672 1.502 . S
C671 C673 1.561 . S
C671 C674 1.526 . S
C672 H656 0.959 . S
C672 H657 0.959 . S
C672 H658 0.961 . S
C672 C671 1.502 . S
C673 H659 0.960 . S
C673 H660 0.961 . S
C673 H661 0.959 . S
C673 C671 1.561 . S
C674 C671 1.526 . S
C674 C675 1.396 . S
C674 C679 1.390 . S
C675 C669 1.465 . S
C675 C674 1.396 . S
C675 C676 1.399 . S
C676 H662 0.929 . S
C676 C675 1.399 . S
C676 C677 1.385 . S
C677 H663 0.931 . S
C677 C676 1.385 . S
C677 C678 1.389 . S
C678 C677 1.389 . S
C678 C679 1.387 . S
C679 H664 0.930 . S
C679 C674 1.390 . S
C679 C678 1.387 . S
H680 C692 0.930 . S
H681 C694 0.930 . S
H682 C695 0.930 . S
H683 C699 0.959 . S
H684 C699 0.959 1_554 S
H685 C699 0.961 . S
H686 C700 0.960 . S
H687 C700 0.961 1_554 S
H688 C700 0.959 . S
H689 C703 0.929 . S
H690 C704 0.931 . S
H691 C706 0.930 1_554 S
C692 H680 0.930 . S
C692 C693 1.399 . S
C692 C697 1.399 . S
C693 C692 1.399 . S
C693 C694 1.376 . S
C694 H681 0.930 . S
C694 C693 1.376 . S
C694 C695 1.388 . S
C695 H682 0.930 . S
C695 C694 1.388 . S
C695 C696 1.390 . S
C696 C695 1.390 . S
C696 C697 1.394 . S
C696 C702 1.465 . S
C697 C692 1.399 . S
C697 C696 1.394 . S
C697 C698 1.516 . S
C698 C697 1.516 . S
C698 C699 1.502 . S
C698 C700 1.561 . S
C698 C701 1.526 . S
C699 H683 0.959 . S
C699 H684 0.959 1_556 S
C699 H685 0.961 . S
C699 C698 1.502 . S
C700 H686 0.960 . S
C700 H687 0.961 1_556 S
C700 H688 0.959 . S
C700 C698 1.561 . S
C701 C698 1.526 . S
C701 C702 1.396 . S
C701 C706 1.390 . S
C702 C696 1.465 . S
C702 C701 1.396 . S
C702 C703 1.399 . S
C703 H689 0.929 . S
C703 C702 1.399 . S
C703 C704 1.385 . S
C704 H690 0.931 . S
C704 C703 1.385 . S
C704 C705 1.389 . S
C705 C704 1.389 . S
C705 C706 1.387 . S
C706 H691 0.930 1_556 S
C706 C701 1.390 . S
C706 C705 1.387 . S
H707 C719 0.930 . S
H708 C721 0.930 . S
H709 C722 0.930 . S
H710 C726 0.959 . S
H711 C726 0.959 . S
H712 C726 0.961 . S
H713 C727 0.960 . S
H714 C727 0.961 . S
H715 C727 0.959 . S
H716 C730 0.929 . S
H717 C731 0.931 . S
H718 C733 0.930 . S
C719 H707 0.930 . S
C719 C720 1.399 . S
C719 C724 1.399 . S
C720 C719 1.399 . S
C720 C721 1.376 . S
C721 H708 0.930 . S
C721 C720 1.376 . S
C721 C722 1.388 . S
C722 H709 0.930 . S
C722 C721 1.388 . S
C722 C723 1.390 . S
C723 C722 1.390 . S
C723 C724 1.394 . S
C723 C729 1.465 . S
C724 C719 1.399 . S
C724 C723 1.394 . S
C724 C725 1.516 . S
C725 C724 1.516 . S
C725 C726 1.502 . S
C725 C727 1.561 . S
C725 C728 1.526 . S
C726 H710 0.959 . S
C726 H711 0.959 . S
C726 H712 0.961 . S
C726 C725 1.502 . S
C727 H713 0.960 . S
C727 H714 0.961 . S
C727 H715 0.959 . S
C727 C725 1.561 . S
C728 C725 1.526 . S
C728 C729 1.396 . S
C728 C733 1.390 . S
C729 C723 1.465 . S
C729 C728 1.396 . S
C729 C730 1.399 . S
C730 H716 0.929 . S
C730 C729 1.399 . S
C730 C731 1.385 . S
C731 H717 0.931 . S
C731 C730 1.385 . S
C731 C732 1.389 . S
C732 C731 1.389 . S
C732 C733 1.387 . S
C733 H718 0.930 . S
C733 C728 1.390 . S
C733 C732 1.387 . S
H734 C746 0.930 . S
H735 C748 0.930 . S
H736 C749 0.930 . S
H737 C753 0.959 . S
H738 C753 0.959 . S
H739 C753 0.961 . S
H740 C754 0.960 . S
H741 C754 0.961 . S
H742 C754 0.959 . S
H743 C757 0.929 . S
H744 C758 0.931 . S
H745 C760 0.930 . S
C746 H734 0.930 . S
C746 C747 1.399 . S
C746 C751 1.399 . S
C747 C746 1.399 . S
C747 C748 1.376 . S
C748 H735 0.930 . S
C748 C747 1.376 . S
C748 C749 1.388 . S
C749 H736 0.930 . S
C749 C748 1.388 . S
C749 C750 1.390 . S
C750 C749 1.390 . S
C750 C751 1.394 . S
C750 C756 1.465 . S
C751 C746 1.399 . S
C751 C750 1.394 . S
C751 C752 1.516 . S
C752 C751 1.516 . S
C752 C753 1.502 . S
C752 C754 1.561 . S
C752 C755 1.526 . S
C753 H737 0.959 . S
C753 H738 0.959 . S
C753 H739 0.961 . S
C753 C752 1.502 . S
C754 H740 0.960 . S
C754 H741 0.961 . S
C754 H742 0.959 . S
C754 C752 1.561 . S
C755 C752 1.526 . S
C755 C756 1.396 . S
C755 C760 1.390 . S
C756 C750 1.465 . S
C756 C755 1.396 . S
C756 C757 1.399 . S
C757 H743 0.929 . S
C757 C756 1.399 . S
C757 C758 1.385 . S
C758 H744 0.931 . S
C758 C757 1.385 . S
C758 C759 1.389 . S
C759 C758 1.389 . S
C759 C760 1.387 . S
C760 H745 0.930 . S
C760 C755 1.390 . S
C760 C759 1.387 . S
H761 C773 0.930 . S
H762 C775 0.930 . S
H763 C776 0.930 . S
H764 C780 0.959 . S
H765 C780 0.959 . S
H766 C780 0.961 . S
H767 C781 0.960 . S
H768 C781 0.961 . S
H769 C781 0.959 . S
H770 C784 0.929 . S
H771 C785 0.931 . S
H772 C787 0.930 . S
C773 H761 0.930 . S
C773 C774 1.399 . S
C773 C778 1.399 . S
C774 C773 1.399 . S
C774 C775 1.376 . S
C775 H762 0.930 . S
C775 C774 1.376 . S
C775 C776 1.388 . S
C776 H763 0.930 . S
C776 C775 1.388 . S
C776 C777 1.390 . S
C777 C776 1.390 . S
C777 C778 1.394 . S
C777 C783 1.465 . S
C778 C773 1.399 . S
C778 C777 1.394 . S
C778 C779 1.516 . S
C779 C778 1.516 . S
C779 C780 1.502 . S
C779 C781 1.561 . S
C779 C782 1.526 . S
C780 H764 0.959 . S
C780 H765 0.959 . S
C780 H766 0.961 . S
C780 C779 1.502 . S
C781 H767 0.960 . S
C781 H768 0.961 . S
C781 H769 0.959 . S
C781 C779 1.561 . S
C782 C779 1.526 . S
C782 C783 1.396 . S
C782 C787 1.390 . S
C783 C777 1.465 . S
C783 C782 1.396 . S
C783 C784 1.399 . S
C784 H770 0.929 . S
C784 C783 1.399 . S
C784 C785 1.385 . S
C785 H771 0.931 . S
C785 C784 1.385 . S
C785 C786 1.389 . S
C786 C785 1.389 . S
C786 C787 1.387 . S
C787 H772 0.930 . S
C787 C782 1.390 . S
C787 C786 1.387 . S
H788 C800 0.930 . S
H789 C802 0.930 . S
H790 C803 0.930 . S
H791 C807 0.959 . S
H792 C807 0.959 . S
H793 C807 0.961 . S
H794 C808 0.960 . S
H795 C808 0.961 . S
H796 C808 0.959 . S
H797 C811 0.929 . S
H798 C812 0.931 . S
H799 C814 0.930 . S
C800 H788 0.930 . S
C800 C801 1.399 . S
C800 C805 1.399 . S
C801 C800 1.399 . S
C801 C802 1.376 . S
C802 H789 0.930 . S
C802 C801 1.376 . S
C802 C803 1.388 . S
C803 H790 0.930 . S
C803 C802 1.388 . S
C803 C804 1.390 . S
C804 C803 1.390 . S
C804 C805 1.394 . S
C804 C810 1.465 . S
C805 C800 1.399 . S
C805 C804 1.394 . S
C805 C806 1.516 . S
C806 C805 1.516 . S
C806 C807 1.502 . S
C806 C808 1.561 . S
C806 C809 1.526 . S
C807 H791 0.959 . S
C807 H792 0.959 . S
C807 H793 0.961 . S
C807 C806 1.502 . S
C808 H794 0.960 . S
C808 H795 0.961 . S
C808 H796 0.959 . S
C808 C806 1.561 . S
C809 C806 1.526 . S
C809 C810 1.396 . S
C809 C814 1.390 . S
C810 C804 1.465 . S
C810 C809 1.396 . S
C810 C811 1.399 . S
C811 H797 0.929 . S
C811 C810 1.399 . S
C811 C812 1.385 . S
C812 H798 0.931 . S
C812 C811 1.385 . S
C812 C813 1.389 . S
C813 C812 1.389 . S
C813 C814 1.387 . S
C814 H799 0.930 . S
C814 C809 1.390 . S
C814 C813 1.387 . S
H815 C827 0.930 . S
H816 C829 0.930 . S
H817 C830 0.930 . S
H818 C834 0.959 . S
H819 C834 0.959 . S
H820 C834 0.961 . S
H821 C835 0.960 . S
H822 C835 0.961 . S
H823 C835 0.959 . S
H824 C838 0.929 . S
H825 C839 0.931 . S
H826 C841 0.930 . S
C827 H815 0.930 . S
C827 C828 1.399 . S
C827 C832 1.399 . S
C828 C827 1.399 . S
C828 C829 1.376 . S
C829 H816 0.930 . S
C829 C828 1.376 . S
C829 C830 1.388 . S
C830 H817 0.930 . S
C830 C829 1.388 . S
C830 C831 1.390 . S
C831 C830 1.390 . S
C831 C832 1.394 . S
C831 C837 1.465 . S
C832 C827 1.399 . S
C832 C831 1.394 . S
C832 C833 1.516 . S
C833 C832 1.516 . S
C833 C834 1.502 . S
C833 C835 1.561 . S
C833 C836 1.526 . S
C834 H818 0.959 . S
C834 H819 0.959 . S
C834 H820 0.961 . S
C834 C833 1.502 . S
C835 H821 0.960 . S
C835 H822 0.961 . S
C835 H823 0.959 . S
C835 C833 1.561 . S
C836 C833 1.526 . S
C836 C837 1.396 . S
C836 C841 1.390 . S
C837 C831 1.465 . S
C837 C836 1.396 . S
C837 C838 1.399 . S
C838 H824 0.929 . S
C838 C837 1.399 . S
C838 C839 1.385 . S
C839 H825 0.931 . S
C839 C838 1.385 . S
C839 C840 1.389 . S
C840 C839 1.389 . S
C840 C841 1.387 . S
C841 H826 0.930 . S
C841 C836 1.390 . S
C841 C840 1.387 . S
H842 C854 0.930 . S
H843 C856 0.930 . S
H844 C857 0.930 . S
H845 C861 0.959 . S
H846 C861 0.959 . S
H847 C861 0.961 . S
H848 C862 0.960 . S
H849 C862 0.961 . S
H850 C862 0.959 . S
H851 C865 0.929 . S
H852 C866 0.931 . S
H853 C868 0.930 . S
C854 H842 0.930 . S
C854 C855 1.399 . S
C854 C859 1.399 . S
C855 C854 1.399 . S
C855 C856 1.376 . S
C856 H843 0.930 . S
C856 C855 1.376 . S
C856 C857 1.388 . S
C857 H844 0.930 . S
C857 C856 1.388 . S
C857 C858 1.390 . S
C858 C857 1.390 . S
C858 C859 1.394 . S
C858 C864 1.465 . S
C859 C854 1.399 . S
C859 C858 1.394 . S
C859 C860 1.516 . S
C860 C859 1.516 . S
C860 C861 1.502 . S
C860 C862 1.561 . S
C860 C863 1.526 . S
C861 H845 0.959 . S
C861 H846 0.959 . S
C861 H847 0.961 . S
C861 C860 1.502 . S
C862 H848 0.960 . S
C862 H849 0.961 . S
C862 H850 0.959 . S
C862 C860 1.561 . S
C863 C860 1.526 . S
C863 C864 1.396 . S
C863 C868 1.390 . S
C864 C858 1.465 . S
C864 C863 1.396 . S
C864 C865 1.399 . S
C865 H851 0.929 . S
C865 C864 1.399 . S
C865 C866 1.385 . S
C866 H852 0.931 . S
C866 C865 1.385 . S
C866 C867 1.389 . S
C867 C866 1.389 . S
C867 C868 1.387 . S
C868 H853 0.930 . S
C868 C863 1.390 . S
C868 C867 1.387 . S
H869 C881 0.930 . S
H870 C883 0.930 . S
H871 C884 0.930 . S
H872 C888 0.959 . S
H873 C888 0.959 . S
H874 C888 0.961 . S
H875 C889 0.960 . S
H876 C889 0.961 . S
H877 C889 0.959 . S
H878 C892 0.929 . S
H879 C893 0.931 . S
H880 C895 0.930 . S
C881 H869 0.930 . S
C881 C882 1.399 . S
C881 C886 1.399 . S
C882 C881 1.399 . S
C882 C883 1.376 . S
C883 H870 0.930 . S
C883 C882 1.376 . S
C883 C884 1.388 . S
C884 H871 0.930 . S
C884 C883 1.388 . S
C884 C885 1.390 . S
C885 C884 1.390 . S
C885 C886 1.394 . S
C885 C891 1.465 . S
C886 C881 1.399 . S
C886 C885 1.394 . S
C886 C887 1.516 . S
C887 C886 1.516 . S
C887 C888 1.502 . S
C887 C889 1.561 . S
C887 C890 1.526 . S
C888 H872 0.959 . S
C888 H873 0.959 . S
C888 H874 0.961 . S
C888 C887 1.502 . S
C889 H875 0.960 . S
C889 H876 0.961 . S
C889 H877 0.959 . S
C889 C887 1.561 . S
C890 C887 1.526 . S
C890 C891 1.396 . S
C890 C895 1.390 . S
C891 C885 1.465 . S
C891 C890 1.396 . S
C891 C892 1.399 . S
C892 H878 0.929 . S
C892 C891 1.399 . S
C892 C893 1.385 . S
C893 H879 0.931 . S
C893 C892 1.385 . S
C893 C894 1.389 . S
C894 C893 1.389 . S
C894 C895 1.387 . S
C895 H880 0.930 . S
C895 C890 1.390 . S
C895 C894 1.387 . S
C261 C4 1.028 . S
C273 C105 1.108 . S
C288 C16 1.182 . S
C300 C145 1.280 . S
C327 C170 1.994 . S
C315 C32 2.039 . S
C342 C43 2.331 . S
C354 C210 2.295 1_655 S
C381 C141 2.133 . S
C369 C5 2.076 . S
C408 C101 1.406 . S
C396 C21 1.355 . S
C435 C232 1.643 . S
C423 C27 1.650 . S
C462 C192 1.545 . S
C450 C37 1.647 . S
C477 C10 1.216 . S
C489 C234 1.171 . S
C516 C151 2.337 1_556 S
C504 C26 2.395 . S
C531 C38 1.897 . S
C543 C111 1.845 . S
C558 C15 1.487 . S
C570 C194 1.540 . S
C597 C114 1.249 . S
C585 C48 1.171 . S
C612 C59 1.037 . S
C624 C154 1.047 . S
C639 C76 2.356 . S
C651 C191 2.280 . S
C666 C87 2.146 . S
C678 C231 2.101 . S
C693 C54 1.401 . S
C705 C152 1.471 1_556 S
C732 C112 2.096 . S
C720 C60 2.061 . S
C759 C221 1.581 . S
C747 C71 1.580 . S
C786 C181 1.641 . S
C774 C82 1.637 . S
C801 C49 1.512 . S
C813 C225 1.648 . S
C840 C130 1.809 . S
C828 C70 1.840 . S
C867 C90 2.323 . S
C855 C81 2.364 . S
C882 C65 1.240 . S
C894 C185 1.185 . S
