# Generated by pormake.
# Topology tsx, (6,3)-cn, num edge types: 1
# Building blocks:
#     Node 0, Type 0, BuildingBlock: LEVNOQ01_clean_sbu_1, # of connection points: 6
#     Node 1, Type 0, BuildingBlock: LEVNOQ01_clean_sbu_1, # of connection points: 6
#     Node 2, Type 1, BuildingBlock: KAKCAD_clean_linker_0, # of connection points: 3
#     Node 3, Type 1, BuildingBlock: KAKCAD_clean_linker_0, # of connection points: 3
#     Node 4, Type 1, BuildingBlock: KAKCAD_clean_linker_0, # of connection points: 3
#     Node 5, Type 1, BuildingBlock: KAKCAD_clean_linker_0, # of connection points: 3
#     Edge 6, Type (0, 1), BuildingBlock: FUNLAD_clean_linker_1, # of connection points: 2
#     Edge 7, Type (0, 1), BuildingBlock: FUNLAD_clean_linker_1, # of connection points: 2
#     Edge 8, Type (0, 1), BuildingBlock: FUNLAD_clean_linker_1, # of connection points: 2
#     Edge 9, Type (0, 1), BuildingBlock: FUNLAD_clean_linker_1, # of connection points: 2
#     Edge 10, Type (0, 1), BuildingBlock: FUNLAD_clean_linker_1, # of connection points: 2
#     Edge 11, Type (0, 1), BuildingBlock: FUNLAD_clean_linker_1, # of connection points: 2
#     Edge 12, Type (0, 1), BuildingBlock: FUNLAD_clean_linker_1, # of connection points: 2
#     Edge 13, Type (0, 1), BuildingBlock: FUNLAD_clean_linker_1, # of connection points: 2
#     Edge 14, Type (0, 1), BuildingBlock: FUNLAD_clean_linker_1, # of connection points: 2
#     Edge 15, Type (0, 1), BuildingBlock: FUNLAD_clean_linker_1, # of connection points: 2
#     Edge 16, Type (0, 1), BuildingBlock: FUNLAD_clean_linker_1, # of connection points: 2
#     Edge 17, Type (0, 1), BuildingBlock: FUNLAD_clean_linker_1, # of connection points: 2
# Relax obj value: 0.130
# Max RMSD: 0.158
# Mean RMSD: 0.120
data_MOF--net-tsx--node1-LEVNOQ01_clean_sbu_1--node2-KAKCAD_clean_linker_0--edge1-FUNLAD_clean_linker_1
_symmetry_space_group_name_H-M    P1
_symmetry_Int_Tables_number       1
_symmetry_cell_setting            triclinic
loop_
_symmetry_equiv_pos_as_xyz
'x, y, z'
_cell_length_a     23.047837
_cell_length_b     28.585618
_cell_length_c     46.584014
_cell_angle_alpha  97.818677
_cell_angle_beta   90.177902
_cell_angle_gamma 90.488599
loop_
_atom_site_label
_atom_site_type_symbol
_atom_site_fract_x
_atom_site_fract_y
_atom_site_fract_z
_atom_type_partial_charge
O0 O 0.1054 0.04835 0.07763 0.0
Mg1 Mg 0.14879 0.0339 0.03777 0.0
O2 O 0.05054 -0.00284 0.05107 0.0
Mg3 Mg 0.05858 0.01256 0.00278 0.0
O4 O 0.13128 0.07382 0.00532 0.0
O5 O 0.20957 0.0831 0.03489 0.0
O6 O 0.06125 0.02186 0.95109 0.0
O7 O 0.99879 0.07668 0.01668 0.0
Mg8 Mg 0.96902 -0.00313 0.97302 0.0
O9 O 0.98542 0.95435 0.00387 0.0
O10 O 0.99877 0.96706 0.93342 0.0
O11 O 0.94839 0.06952 0.97673 0.0
O12 O 0.89748 0.96327 0.98443 0.0
C13 C 0.16797 0.93967 0.00465 0.0
C14 C 0.06554 0.01772 0.07587 0.0
C15 C 0.17873 0.0965 0.01447 0.0
C16 C 0.03835 -0.00421 0.92922 0.0
C17 C 0.96387 0.09405 6e-05 0.0
C18 C 0.93102 0.94243 0.00079 0.0
O19 O 0.1874 0.96767 0.02587 0.0
O20 O 0.12208 0.94937 0.99136 0.0
O21 O 0.64128 0.51506 0.57462 0.0
Mg22 Mg 0.68307 0.52403 0.53507 0.0
O23 O 0.55331 0.5077 0.55502 0.0
Mg24 Mg 0.55888 0.51398 0.50612 0.0
O25 O 0.63582 0.56693 0.51228 0.0
O26 O 0.72418 0.58606 0.5297 0.0
O27 O 0.56755 0.52324 0.45646 0.0
O28 O 0.50048 0.58043 0.51405 0.0
Mg29 Mg 0.45789 0.49236 0.46928 0.0
O30 O 0.47878 0.46237 0.50481 0.0
O31 O 0.5059 0.47448 0.43176 0.0
O32 O 0.43227 0.56301 0.48059 0.0
O33 O 0.39934 0.44313 0.47742 0.0
C34 C 0.67019 0.4343 0.49678 0.0
C35 C 0.587 0.50839 0.57679 0.0
C36 C 0.67886 0.59677 0.51569 0.0
C37 C 0.54802 0.50297 0.43221 0.0
C38 C 0.45536 0.59164 0.50068 0.0
C39 C 0.43145 0.43755 0.49941 0.0
O40 O 0.70813 0.46314 0.50826 0.0
O41 O 0.61646 0.4452 0.49645 0.0
C42 C 0.05745 0.95419 0.30418 0.0
C43 C 0.05892 -0.00191 0.29366 0.0
C44 C 0.0564 0.95217 0.33404 0.0
C45 C 0.05678 -0.00611 0.35394 0.0
C46 C 0.05944 0.03755 0.34327 0.0
C47 C 0.06 0.03956 0.31356 0.0
C48 C 0.05253 -0.00764 0.38569 0.0
C49 C 0.08144 0.95774 0.39883 0.0
C50 C 0.07743 0.95673 0.42889 0.0
C51 C 0.04452 -0.00885 0.44593 0.0
C52 C 0.01584 0.02619 0.43314 0.0
C53 C 0.01942 0.02606 0.40306 0.0
C54 C 0.98138 0.06308 0.4507 0.0
C55 C 0.93993 0.05117 0.4706 0.0
C56 C 0.9865 0.11025 0.44569 0.0
C57 C 0.94875 0.14439 0.45889 0.0
C58 C 0.905 0.13215 0.47761 0.0
C59 C 0.10842 0.91998 0.44237 0.0
C60 C 0.10775 0.87287 0.429 0.0
C61 C 0.13982 0.93181 0.4683 0.0
C62 C 0.1713 0.89743 0.48016 0.0
C63 C 0.17183 0.85057 0.46626 0.0
C64 C 0.13884 0.83851 0.44094 0.0
C65 C 0.90177 0.0854 0.48374 0.0
H66 H 0.05538 0.92139 0.28958 0.0
H67 H 0.0536 0.91794 0.34148 0.0
H68 H 0.06101 0.07041 0.35789 0.0
H69 H 0.0612 0.07385 0.30609 0.0
H70 H 0.10835 0.93225 0.38579 0.0
H71 H 0.99524 0.05198 0.39309 0.0
H72 H 0.04128 -0.00922 0.46911 0.0
H73 H 0.93495 0.01501 0.4748 0.0
H74 H 0.01851 0.12046 0.43066 0.0
H75 H 0.95222 0.17955 0.45293 0.0
H76 H 0.0832 0.86255 0.40925 0.0
H77 H 0.14115 0.96785 0.47909 0.0
H78 H 0.86824 0.07495 0.49788 0.0
H79 H 0.13819 0.80256 0.42996 0.0
H80 H 0.19507 0.90769 0.50012 0.0
C81 C 0.02365 0.12486 0.70891 0.0
C82 C 0.02315 0.08414 0.72264 0.0
C83 C 0.01548 0.12162 0.6789 0.0
C84 C 0.0081 0.07734 0.66179 0.0
C85 C 0.00855 0.03655 0.67567 0.0
C86 C 0.01563 0.03991 0.70568 0.0
C87 C 1.0015 0.07344 0.6296 0.0
C88 C 0.03162 0.10441 0.61381 0.0
C89 C 0.02729 0.10007 0.58339 0.0
C90 C 0.9927 0.06376 0.56863 0.0
C91 C 0.96347 0.03179 0.58393 0.0
C92 C 0.96713 0.03741 0.61433 0.0
C93 C 0.9326 -0.00972 0.56825 0.0
C94 C 0.89213 -0.0049 0.54622 0.0
C95 C 0.94435 0.94509 0.57527 0.0
C96 C 0.91575 0.90552 0.56088 0.0
C97 C 0.87395 0.91025 0.53955 0.0
C98 C 0.06242 0.13159 0.56723 0.0
C99 C 0.06955 0.17956 0.57817 0.0
C100 C 0.09279 0.11328 0.5421 0.0
C101 C 0.13185 0.14175 0.52923 0.0
C102 C 0.14117 0.18909 0.54104 0.0
C103 C 0.10862 0.20795 0.56538 0.0
C104 C 0.86261 0.95538 0.53209 0.0
H105 H 0.02995 0.15933 0.72147 0.0
H106 H 0.01478 0.15392 0.66918 0.0
H107 H 0.0049 0.00171 0.66333 0.0
H108 H 0.01713 0.00762 0.71539 0.0
H109 H 0.06069 0.13074 0.62508 0.0
H110 H 0.9431 0.01332 0.626 0.0
H111 H 0.98986 0.05945 0.54518 0.0
H112 H 0.88265 0.0296 0.54035 0.0
H113 H 0.97606 0.9403 0.59182 0.0
H114 H 0.9255 0.87111 0.56689 0.0
H115 H 0.04621 0.19489 0.59726 0.0
H116 H 0.08868 0.07638 0.53319 0.0
H117 H 0.8314 0.95999 0.51531 0.0
H118 H 0.11496 0.24384 0.57568 0.0
H119 H 0.15642 0.12622 0.51059 0.0
C120 C 0.54957 0.44365 0.80675 0.0
C121 C 0.56355 0.48525 0.79541 0.0
C122 C 0.54427 0.44434 0.8367 0.0
C123 C 0.55196 0.4868 0.85556 0.0
C124 C 0.56502 0.52847 0.84392 0.0
C125 C 0.57139 0.52754 0.81408 0.0
C126 C 0.54814 0.48749 0.88734 0.0
C127 C 0.57695 0.45343 0.90076 0.0
C128 C 0.57436 0.45364 0.93095 0.0
C129 C 0.54269 0.48917 0.94784 0.0
C130 C 0.51437 0.52412 0.93462 0.0
C131 C 0.51712 0.5228 0.90439 0.0
C132 C 0.48115 0.56218 0.95183 0.0
C133 C 0.43849 0.55169 0.97149 0.0
C134 C 0.4881 0.60897 0.94636 0.0
C135 C 0.45113 0.64421 0.95896 0.0
C136 C 0.40623 0.63345 0.97751 0.0
C137 C 0.60679 0.41728 0.94421 0.0
C138 C 0.60929 0.37094 0.92966 0.0
C139 C 0.63987 0.4292 0.96966 0.0
C140 C 0.67726 0.39609 0.97928 0.0
C141 C 0.68219 0.35081 0.96342 0.0
C142 C 0.6471 0.33839 0.93894 0.0
C143 C 0.40105 0.587 0.98399 0.0
H144 H 0.54391 0.41064 0.79253 0.0
H145 H 0.53403 0.41176 0.84513 0.0
H146 H 0.57171 0.56153 0.85796 0.0
H147 H 0.58241 0.55988 0.80554 0.0
H148 H 0.60305 0.42745 0.88761 0.0
H149 H 0.49415 0.54893 0.89401 0.0
H150 H 0.54035 0.48988 0.97113 0.0
H151 H 0.43198 0.51579 0.97593 0.0
H152 H 0.52095 0.61802 0.9314 0.0
H153 H 0.45633 0.67903 0.95271 0.0
H154 H 0.58332 0.36018 0.91044 0.0
H155 H 0.63915 0.46469 0.98126 0.0
H156 H 0.36645 0.57762 -0.00214 0.0
H157 H 0.64973 0.30351 0.92655 0.0
H158 H 0.70426 0.40676 -0.00187 0.0
C159 C 0.51572 0.59985 0.20934 0.0
C160 C 0.51803 0.5558 0.21958 0.0
C161 C 0.51225 0.60217 0.17951 0.0
C162 C 0.51123 0.56057 0.15947 0.0
C163 C 0.51509 0.51682 0.16993 0.0
C164 C 0.51778 0.51452 0.19957 0.0
C165 C 0.50477 0.56209 0.1278 0.0
C166 C 0.53301 0.59685 0.11427 0.0
C167 C 0.52833 0.5969 0.08415 0.0
C168 C 0.4953 0.5616 0.06744 0.0
C169 C 0.46689 0.5266 0.08064 0.0
C170 C 0.47112 0.52761 0.11078 0.0
C171 C 0.43287 0.48852 0.06327 0.0
C172 C 0.39312 0.49884 0.04216 0.0
C173 C 0.43775 0.44173 0.06896 0.0
C174 C 0.40202 0.40629 0.05474 0.0
C175 C 0.36078 0.41675 0.03422 0.0
C176 C 0.56003 0.63288 0.07018 0.0
C177 C 0.55937 0.68049 0.08258 0.0
C178 C 0.59345 0.6196 0.04525 0.0
C179 C 0.62812 0.65293 0.03393 0.0
C180 C 0.6293 0.70008 0.04725 0.0
C181 C 0.59329 0.71388 0.071 0.0
C182 C 0.35723 0.4633 0.02786 0.0
H183 H 0.5148 0.63238 0.22423 0.0
H184 H 0.50878 0.63645 0.17224 0.0
H185 H 0.51595 0.48409 0.15519 0.0
H186 H 0.51981 0.48017 0.20689 0.0
H187 H 0.56035 0.62295 0.127 0.0
H188 H 0.44739 0.50157 0.12105 0.0
H189 H 0.49209 0.56115 0.04418 0.0
H190 H 0.38808 0.53472 0.03766 0.0
H191 H 0.46838 0.43269 0.08497 0.0
H192 H 0.40528 0.37132 0.06097 0.0
H193 H 0.53329 0.69175 0.10153 0.0
H194 H 0.59455 0.58315 0.03518 0.0
H195 H 0.32555 0.47245 0.01237 0.0
H196 H 0.59327 0.75019 0.08137 0.0
H197 H 0.65456 0.64174 0.0151 0.0
H198 H 0.24572 0.14262 0.00088 0.0
C199 C 0.19892 0.13878 0.00274 0.0
H200 H 0.11974 0.17511 0.00757 0.0
H201 H 0.26726 0.35075 0.06794 0.0
H202 H 0.19814 0.33735 0.10501 0.0
H203 H 0.12587 0.27281 0.09637 0.0
H204 H 0.12264 0.2211 0.05064 0.0
C205 C 0.16575 0.17716 0.00283 0.0
C206 C 0.1952 0.22419 0.0043 0.0
C207 C 0.19433 0.25563 0.03066 0.0
C208 C 0.23547 0.29332 0.03551 0.0
C209 C 0.23627 0.32223 0.06277 0.0
C210 C 0.19693 0.31482 0.08435 0.0
C211 C 0.15632 0.27843 0.0795 0.0
C212 C 0.15501 0.24894 0.0531 0.0
H213 H 0.2755 0.39381 0.01487 0.0
C214 C 0.31705 0.38118 0.02168 0.0
H215 H 0.36675 0.32023 0.02533 0.0
H216 H 0.1994 0.17713 0.9494 0.0
H217 H 0.26789 0.19115 0.91175 0.0
H218 H 0.34096 0.25519 0.92053 0.0
H219 H 0.34551 0.30604 0.9668 0.0
C220 C 0.32492 0.33441 0.0204 0.0
C221 C 0.27639 0.30009 0.01371 0.0
C222 C 0.27418 0.27103 0.9866 0.0
C223 C 0.23293 0.23351 0.98174 0.0
C224 C 0.23107 0.20528 0.95434 0.0
C225 C 0.2698 0.21317 0.93257 0.0
C226 C 0.31089 0.24928 0.9375 0.0
C227 C 0.31315 0.2781 0.96414 0.0
H228 H 0.24649 0.90205 0.98925 0.0
C229 C 0.20148 0.89713 0.9952 0.0
H230 H 0.13961 0.84909 0.00799 0.0
H231 H 0.30352 0.68607 0.94079 0.0
H232 H 0.22528 0.68432 0.90589 0.0
H233 H 0.14559 0.74174 0.91319 0.0
H234 H 0.14417 0.80168 0.95551 0.0
C235 C 0.18337 0.85442 0.00037 0.0
C236 C 0.22541 0.81494 -0.00135 0.0
C237 C 0.22446 0.77913 0.97451 0.0
C238 C 0.26976 0.74539 0.9707 0.0
C239 C 0.26945 0.71171 0.94539 0.0
C240 C 0.2249 0.71049 0.92502 0.0
C241 C 0.1801 0.74287 0.9291 0.0
C242 C 0.1798 0.77705 0.95344 0.0
H243 H 0.31939 0.65458 0.99469 0.0
C244 C 0.36043 0.66816 0.98764 0.0
H245 H 0.40644 0.73057 0.98143 0.0
H246 H 0.2353 0.8749 0.04959 0.0
H247 H 0.3123 0.87583 0.08533 0.0
H248 H 0.39124 0.81763 0.07866 0.0
H249 H 0.3935 0.758 0.03624 0.0
C250 C 0.36539 0.71476 0.98639 0.0
C251 C 0.31505 0.74691 0.99159 0.0
C252 C 0.31445 0.78144 0.01645 0.0
C253 C 0.26931 0.81527 0.02012 0.0
C254 C 0.26927 0.849 0.04539 0.0
C255 C 0.31301 0.84975 0.06617 0.0
C256 C 0.35742 0.81695 0.06243 0.0
C257 C 0.35829 0.78303 0.03794 0.0
H258 H 0.93917 0.87687 0.02078 0.0
C259 C 0.90863 0.90158 0.01351 0.0
H260 H 0.82118 0.91691 0.0057 0.0
H261 H 0.72331 0.71508 0.97495 0.0
H262 H 0.73521 0.73757 0.92679 0.0
H263 H 0.79057 0.80937 0.91969 0.0
H264 H 0.83404 0.85916 0.96059 0.0
C265 C 0.85146 0.8925 0.01351 0.0
C266 C 0.82794 0.84563 0.01768 0.0
C267 C 0.80366 0.81663 0.99342 0.0
C268 C 0.77226 0.77517 -0.00259 0.0
C269 C 0.74753 0.74709 0.97298 0.0
C270 C 0.75417 0.75952 0.94527 0.0
C271 C 0.78529 0.79995 0.94128 0.0
C272 C 0.80982 0.82833 0.96497 0.0
H273 H 0.65577 0.77185 0.03993 0.0
C274 C 0.66953 0.73521 0.03777 0.0
H275 H 0.74103 0.68907 0.02989 0.0
H276 H 0.8747 0.89087 0.06831 0.0
H277 H 0.86864 0.86473 0.11567 0.0
H278 H 0.81458 0.79231 0.12249 0.0
H279 H 0.76725 0.74471 0.08169 0.0
C280 C 0.72459 0.72468 0.03045 0.0
C281 C 0.76543 0.76295 0.02559 0.0
C282 C 0.79358 0.78978 0.04953 0.0
C283 C 0.82483 0.83147 0.04561 0.0
C284 C 0.85101 0.85855 0.07 0.0
C285 C 0.84756 0.84413 0.09735 0.0
C286 C 0.81723 0.80324 0.10117 0.0
C287 C 0.79023 0.77631 0.07762 0.0
H288 H 0.93124 0.15285 0.03157 0.0
C289 C 0.93735 0.14044 0.00869 0.0
H290 H 0.92189 0.15156 0.96562 0.0
H291 H 0.6767 0.23779 0.98565 0.0
H292 H 0.65248 0.15783 0.96412 0.0
H293 H 0.72788 0.09666 0.95671 0.0
H294 H 0.82735 0.11482 0.97126 0.0
C295 C 0.91558 0.16461 0.98843 0.0
C296 C 0.87069 0.20116 0.99532 0.0
C297 C 0.81271 0.18981 0.98665 0.0
C298 C 0.76972 0.22528 0.99003 0.0
C299 C 0.71161 0.21259 0.98228 0.0
C300 C 0.69699 0.16672 0.97021 0.0
C301 C 0.73938 0.13229 0.96609 0.0
C302 C 0.79648 0.14334 0.97442 0.0
H303 H 0.74114 0.29145 0.95197 0.0
C304 C 0.72598 0.3164 0.97009 0.0
H305 H 0.73037 0.33525 0.01567 0.0
H306 H 0.97686 0.23349 0.0162 0.0
H307 H 1.00059 0.31347 0.03808 0.0
H308 H 0.92599 0.37546 0.04326 0.0
H309 H 0.8272 0.35791 0.02655 0.0
C310 C 0.74465 0.31154 0.99687 0.0
C311 C 0.78541 0.27262 0.00066 0.0
C312 C 0.84234 0.28321 0.01135 0.0
C313 C 0.88527 0.24736 0.00858 0.0
C314 C 0.94247 0.25924 0.01821 0.0
C315 C 0.95668 0.30502 0.0307 0.0
C316 C 0.91467 0.33994 0.03359 0.0
C317 C 0.85816 0.32944 0.02391 0.0
H318 H 0.63322 0.6581 0.50159 0.0
C319 C 0.67527 0.64421 0.50654 0.0
H320 H 0.76518 0.65728 0.51203 0.0
H321 H 0.80433 0.84408 0.46286 0.0
H322 H 0.82082 0.79144 0.41801 0.0
H323 H 0.79146 0.70747 0.41343 0.0
H324 H 0.74532 0.67556 0.45367 0.0
C325 C 0.72308 0.67183 0.50781 0.0
C326 C 0.72232 0.72359 0.507 0.0
C327 C 0.74757 0.74192 0.48314 0.0
C328 C 0.76455 0.79025 0.48576 0.0
C329 C 0.7911 0.80746 0.46191 0.0
C330 C 0.80059 0.77771 0.4361 0.0
C331 C 0.78405 0.73041 0.43353 0.0
C332 C 0.75788 0.7125 0.45674 0.0
H333 H 0.86499 0.83358 0.52619 0.0
C334 C 0.84302 0.86712 0.52608 0.0
H335 H 0.76186 0.89855 0.51976 0.0
H336 H 0.67 0.70107 0.55627 0.0
H337 H 0.65226 0.7541 0.60041 0.0
H338 H 0.68011 0.83827 0.60446 0.0
H339 H 0.72632 0.86975 0.5643 0.0
C340 C 0.787 0.86633 0.51793 0.0
C341 C 0.75623 0.82003 0.51224 0.0
C342 C 0.72604 0.80285 0.53516 0.0
C343 C 0.70946 0.75443 0.53266 0.0
C344 C 0.683 0.73755 0.55673 0.0
C345 C 0.67256 0.76766 0.58226 0.0
C346 C 0.68826 0.81504 0.58455 0.0
C347 C 0.71477 0.83262 0.56137 0.0
H348 H 0.72722 0.38489 0.47082 0.0
C349 C 0.69029 0.3869 0.4854 0.0
H350 H 0.64567 0.35335 0.51634 0.0
H351 H 0.81848 0.19424 0.43782 0.0
H352 H 0.75332 0.20019 0.39762 0.0
H353 H 0.67093 0.25519 0.40297 0.0
H354 H 0.65374 0.30508 0.44864 0.0
C355 C 0.67826 0.34995 0.49938 0.0
C356 C 0.72003 0.31012 0.49771 0.0
C357 C 0.72795 0.27976 0.47135 0.0
C358 C 0.77442 0.24705 0.46856 0.0
C359 C 0.78309 0.21891 0.44146 0.0
C360 C 0.74609 0.22207 0.41813 0.0
C361 C 0.69979 0.25312 0.42112 0.0
C362 C 0.69059 0.28169 0.44738 0.0
H363 H 0.81644 0.15096 0.49323 0.0
C364 C 0.85815 0.16565 0.48795 0.0
H365 H 0.90476 0.22917 0.48519 0.0
H366 H 0.71607 0.36185 0.55186 0.0
H367 H 0.78065 0.35505 0.59217 0.0
H368 H 0.85975 0.29693 0.58751 0.0
H369 H 0.87479 0.24528 0.54231 0.0
C370 C 0.86329 0.21268 0.48867 0.0
C371 C 0.81189 0.24387 0.49243 0.0
C372 C 0.80272 0.27289 0.5191 0.0
C373 C 0.7567 0.30604 0.52181 0.0
C374 C 0.74979 0.33563 0.54855 0.0
C375 C 0.78666 0.33216 0.57191 0.0
C376 C 0.83123 0.29947 0.56928 0.0
C377 C 0.8394 0.27008 0.54324 0.0
H378 H 0.37415 0.4241 0.53426 0.0
C379 C 0.40808 0.40815 0.52009 0.0
H380 H 0.44102 0.34544 0.49797 0.0
H381 H 0.23091 0.28386 0.58704 0.0
H382 H 0.29269 0.31623 0.62717 0.0
H383 H 0.38522 0.35586 0.61859 0.0
H384 H 0.41695 0.36287 0.56961 0.0
C385 C 0.40968 0.36108 0.51375 0.0
C386 C 0.35761 0.33259 0.51944 0.0
C387 C 0.34039 0.3281 0.54814 0.0
C388 C 0.28705 0.30519 0.55309 0.0
C389 C 0.27079 0.30118 0.58198 0.0
C390 C 0.30593 0.31951 0.60525 0.0
C391 C 0.35807 0.34179 0.6004 0.0
C392 C 0.37553 0.34588 0.57222 0.0
H393 H 0.22348 0.1957 0.51755 0.0
C394 C 0.18951 0.21587 0.52962 0.0
H395 H 0.16261 0.28476 0.54674 0.0
H396 H 0.37696 0.33557 0.4614 0.0
H397 H 0.31392 0.30505 0.42167 0.0
H398 H 0.22105 0.26607 0.43047 0.0
H399 H 0.19098 0.25733 0.47933 0.0
C400 C 0.19556 0.26306 0.53509 0.0
C401 C 0.25129 0.28655 0.52936 0.0
C402 C 0.26851 0.2908 0.50067 0.0
C403 C 0.32192 0.31356 0.49567 0.0
C404 C 0.33735 0.31827 0.46673 0.0
C405 C 0.30135 0.30101 0.44358 0.0
C406 C 0.24911 0.27905 0.44853 0.0
C407 C 0.23255 0.27403 0.47669 0.0
H408 H 0.45368 0.66592 0.52208 0.0
C409 C 0.43028 0.63905 0.50768 0.0
H410 H 0.35624 0.6228 0.48108 0.0
H411 H 0.21201 0.79776 0.53822 0.0
H412 H 0.18722 0.7456 0.57357 0.0
H413 H 0.24018 0.67123 0.57496 0.0
H414 H 0.31844 0.64865 0.54112 0.0
C415 C 0.38019 0.64954 0.4953 0.0
C416 C 0.35669 0.69789 0.49841 0.0
C417 C 0.31198 0.7108 0.51861 0.0
C418 C 0.28122 0.7534 0.51767 0.0
C419 C 0.23623 0.76542 0.53786 0.0
C420 C 0.22176 0.73591 0.55828 0.0
C421 C 0.25161 0.69404 0.55907 0.0
C422 C 0.29628 0.68144 0.53952 0.0
H423 H 0.19442 0.77682 0.4702 0.0
C424 C 0.20697 0.81345 0.47706 0.0
H425 H 0.27376 0.85813 0.49698 0.0
H426 H 0.44238 0.68418 0.45757 0.0
H427 H 0.46679 0.73603 0.42218 0.0
H428 H 0.4139 0.81038 0.42078 0.0
H429 H 0.33606 0.83318 0.45469 0.0
C430 C 0.25696 0.82239 0.49178 0.0
C431 C 0.2952 0.78261 0.49639 0.0
C432 C 0.34218 0.77101 0.47728 0.0
C433 C 0.37279 0.72834 0.47816 0.0
C434 C 0.41783 0.71634 0.45793 0.0
C435 C 0.43231 0.74579 0.43751 0.0
C436 C 0.40253 0.78764 0.43672 0.0
C437 C 0.35793 0.80029 0.4563 0.0
H438 H 0.04011 0.96147 0.10143 0.0
C439 C 0.04554 -0.00057 0.10221 0.0
H440 H 0.04885 0.0656 0.12776 0.0
H441 H 0.97781 0.9218 0.22469 0.0
H442 H 0.88907 0.90255 0.19717 0.0
H443 H 0.87238 0.93327 0.15089 0.0
H444 H 0.94555 0.98131 0.13098 0.0
C445 C 0.04329 0.02773 0.12756 0.0
C446 C 0.05085 0.00881 0.15552 0.0
C447 C 0.00771 0.9803 0.16647 0.0
C448 C 0.01621 0.96416 0.19375 0.0
C449 C 0.97293 0.93555 0.20428 0.0
C450 C 0.92193 0.92419 0.1887 0.0
C451 C 0.91274 0.9412 0.16252 0.0
C452 C 0.95507 0.96876 0.15134 0.0
H453 H 0.04532 0.03717 0.25656 0.0
C454 C 0.05703 0.00283 0.26235 0.0
H455 H 0.08332 0.93358 0.24499 0.0
H456 H 0.14514 0.05902 0.13962 0.0
H457 H 0.23147 0.08014 0.1681 0.0
H458 H 0.24409 0.0545 0.21618 0.0
H459 H 0.17008 0.00703 0.23586 0.0
C460 C 0.07025 0.96839 0.24085 0.0
C461 C 0.0665 0.97802 0.21038 0.0
C462 C 0.11026 0.00534 0.19912 0.0
C463 C 0.10263 0.02052 0.17159 0.0
C464 C 0.14763 0.04729 0.16069 0.0
C465 C 0.1978 0.05949 0.17676 0.0
C466 C 0.20489 0.04504 0.20381 0.0
C467 C 0.16195 0.01805 0.21491 0.0
H468 H 0.0258 0.97727 0.88281 0.0
C469 C 0.04823 0.00239 0.89883 0.0
H470 H 0.09402 0.06699 0.90559 0.0
H471 H 0.05976 0.97882 0.76275 0.0
H472 H 0.11272 0.91054 0.77347 0.0
H473 H 0.14935 0.90608 0.82283 0.0
H474 H 0.13202 0.96969 0.86185 0.0
C475 C 0.07427 0.03993 0.88987 0.0
C476 C 0.06611 0.04829 0.85901 0.0
C477 C 0.08059 0.01259 0.83587 0.0
C478 C 0.06136 0.01596 0.8072 0.0
C479 C 0.07356 0.97841 0.78492 0.0
C480 C 0.10419 0.93899 0.79073 0.0
C481 C 0.12468 0.93644 0.81852 0.0
C482 C 0.11382 0.97295 0.8408 0.0
H483 H 0.06428 0.11547 0.76401 0.0
C484 C 0.03447 0.08809 0.75429 0.0
H485 H 0.97965 0.03148 0.76167 0.0
H486 H 0.03248 0.12431 0.8977 0.0
H487 H 0.97854 0.192 0.88686 0.0
H488 H 0.94788 0.19874 0.83684 0.0
H489 H 0.97072 0.13743 0.79734 0.0
C490 C 0.01032 0.05844 0.771 0.0
C491 C 0.03067 0.0563 0.80119 0.0
C492 C 0.01832 0.09303 0.82397 0.0
C493 C 0.03601 0.08903 0.8529 0.0
C494 C 0.02084 0.12542 0.87532 0.0
C495 C 0.98969 0.16458 0.86942 0.0
C496 C 0.97247 0.16839 0.84125 0.0
C497 C 0.98623 0.13306 0.81874 0.0
H498 H 0.51508 0.50233 0.60742 0.0
C499 C 0.56198 0.50144 0.60498 0.0
H500 H 0.64264 0.49397 0.62541 0.0
H501 H 0.55267 0.57048 0.75012 0.0
H502 H 0.60015 0.64093 0.73767 0.0
H503 H 0.63523 0.64427 0.68799 0.0
H504 H 0.62224 0.57739 0.65047 0.0
C505 C 0.59568 0.49422 0.62746 0.0
C506 C 0.57132 0.49244 0.65672 0.0
C507 C 0.58037 0.53147 0.67848 0.0
C508 C 0.56197 0.52897 0.70728 0.0
C509 C 0.56859 0.56951 0.72825 0.0
C510 C 0.59511 0.61045 0.72129 0.0
C511 C 0.61474 0.61236 0.69333 0.0
C512 C 0.60723 0.57359 0.67203 0.0
H513 H 0.61557 0.49365 0.75699 0.0
C514 C 0.57247 0.48495 0.76421 0.0
H515 H 0.48452 0.47275 0.75272 0.0
H516 H 0.54322 0.41276 0.61946 0.0
H517 H 0.4933 0.34311 0.6317 0.0
H518 H 0.46252 0.33832 0.6819 0.0
H519 H 0.48197 0.40297 0.72023 0.0
C520 C 0.52786 0.48053 0.74543 0.0
C521 C 0.5371 0.48649 0.71451 0.0
C522 C 0.52437 0.44868 0.69234 0.0
C523 C 0.54169 0.45159 0.66334 0.0
C524 C 0.53031 0.41271 0.64175 0.0
C525 C 0.50183 0.37245 0.64851 0.0
C526 C 0.48457 0.36972 0.67678 0.0
C527 C 0.49595 0.40713 0.69858 0.0
H528 H 0.59762 0.54846 0.40601 0.0
C529 C 0.56555 0.52018 0.40501 0.0
H530 H 0.50249 0.47961 0.3795 0.0
H531 H 0.44013 0.61338 0.29075 0.0
H532 H 0.3534 0.61771 0.32054 0.0
H533 H 0.35195 0.58381 0.3665 0.0
H534 H 0.43687 0.54529 0.38293 0.0
C535 C 0.53653 0.5063 0.38013 0.0
C536 C 0.54085 0.53193 0.3545 0.0
C537 C 0.49105 0.55524 0.34559 0.0
C538 C 0.49183 0.57503 0.31922 0.0
C539 C 0.44143 0.59746 0.31054 0.0
C540 C 0.39154 0.60037 0.32747 0.0
C541 C 0.39073 0.58128 0.35335 0.0
C542 C 0.43976 0.55905 0.36245 0.0
H543 H 0.50347 0.51717 0.25677 0.0
C544 C 0.51847 0.55076 0.25081 0.0
H545 H 0.55845 0.61628 0.26705 0.0
H546 H 0.64366 0.48924 0.36482 0.0
H547 H 0.73071 0.48781 0.33572 0.0
H548 H 0.7332 0.52594 0.29129 0.0
H549 H 0.64803 0.56521 0.27551 0.0
C550 C 0.53957 0.58331 0.27182 0.0
C551 C 0.54234 0.57169 0.30192 0.0
C552 C 0.5932 0.55119 0.31169 0.0
C553 C 0.59224 0.53045 0.33777 0.0
C554 C 0.64243 0.50705 0.3458 0.0
C555 C 0.69266 0.50567 0.32916 0.0
C556 C 0.69402 0.52703 0.30411 0.0
C557 C 0.6449 0.54938 0.29528 0.0
loop_
_geom_bond_atom_site_label_1
_geom_bond_atom_site_label_2
_geom_bond_distance
_geom_bond_site_symmetry_2
_ccdc_geom_bond_type
O0 Mg1 1.990 . S
O0 C14 1.253 . S
Mg1 O0 1.990 . S
Mg1 O4 2.180 . S
Mg1 O5 2.117 . S
Mg1 O19 2.030 1_545 S
O2 Mg3 2.072 . S
O2 C14 1.260 . S
Mg3 O2 2.072 . S
Mg3 O4 2.099 . S
Mg3 O6 2.079 1_554 S
Mg3 O7 2.072 . S
Mg3 O9 2.099 1_444 S
Mg3 O20 2.079 1_544 S
O4 Mg1 2.180 . S
O4 Mg3 2.099 . S
O4 C15 1.279 . S
O5 Mg1 2.117 . S
O5 C15 1.250 . S
O6 Mg3 2.079 1_556 S
O6 C16 1.264 . S
O7 Mg3 2.072 . S
O7 C17 1.260 1_455 S
Mg8 O9 2.180 1_545 S
Mg8 O10 2.030 . S
Mg8 O11 1.990 . S
Mg8 O12 2.117 1_545 S
O9 Mg3 2.099 1_666 S
O9 Mg8 2.180 1_565 S
O9 C18 1.279 1_556 S
O10 Mg8 2.030 . S
O10 C16 1.248 1_655 S
O11 Mg8 1.990 . S
O11 C17 1.253 1_556 S
O12 Mg8 2.117 1_565 S
O12 C18 1.250 1_556 S
C13 O19 1.248 . S
C13 O20 1.264 1_554 S
C14 O0 1.253 . S
C14 O2 1.260 . S
C15 O4 1.279 . S
C15 O5 1.250 . S
C16 O6 1.264 . S
C16 O10 1.248 1_455 S
C17 O7 1.260 1_655 S
C17 O11 1.253 1_554 S
C18 O9 1.279 1_554 S
C18 O12 1.250 1_554 S
O19 Mg1 2.030 1_565 S
O19 C13 1.248 . S
O20 Mg3 2.079 1_566 S
O20 C13 1.264 1_556 S
O21 Mg22 1.990 . S
O21 C35 1.253 . S
Mg22 O21 1.990 . S
Mg22 O25 2.180 . S
Mg22 O26 2.117 . S
Mg22 O40 2.030 . S
O23 Mg24 2.072 . S
O23 C35 1.260 . S
Mg24 O23 2.072 . S
Mg24 O25 2.099 . S
Mg24 O27 2.079 . S
Mg24 O28 2.072 . S
Mg24 O30 2.099 . S
Mg24 O41 2.079 . S
O25 Mg22 2.180 . S
O25 Mg24 2.099 . S
O25 C36 1.279 . S
O26 Mg22 2.117 . S
O26 C36 1.250 . S
O27 Mg24 2.079 . S
O27 C37 1.264 . S
O28 Mg24 2.072 . S
O28 C38 1.260 . S
Mg29 O30 2.180 . S
Mg29 O31 2.030 . S
Mg29 O32 1.990 . S
Mg29 O33 2.117 . S
O30 Mg24 2.099 . S
O30 Mg29 2.180 . S
O30 C39 1.279 . S
O31 Mg29 2.030 . S
O31 C37 1.248 . S
O32 Mg29 1.990 . S
O32 C38 1.253 . S
O33 Mg29 2.117 . S
O33 C39 1.250 . S
C34 O40 1.248 . S
C34 O41 1.264 . S
C35 O21 1.253 . S
C35 O23 1.260 . S
C36 O25 1.279 . S
C36 O26 1.250 . S
C37 O27 1.264 . S
C37 O31 1.248 . S
C38 O28 1.260 . S
C38 O32 1.253 . S
C39 O30 1.279 . S
C39 O33 1.250 . S
O40 Mg22 2.030 . S
O40 C34 1.248 . S
O41 Mg24 2.079 . S
O41 C34 1.264 . S
C42 C43 1.386 . S
C42 C44 1.397 . S
C42 H66 0.931 . S
C43 C42 1.386 . S
C43 C47 1.397 1_565 S
C44 C42 1.397 . S
C44 C45 1.384 . S
C44 H67 0.930 . S
C45 C44 1.384 . S
C45 C46 1.377 1_565 S
C45 C48 1.481 . S
C46 C45 1.377 1_545 S
C46 C47 1.389 . S
C46 H68 0.929 . S
C47 C43 1.397 1_545 S
C47 C46 1.389 . S
C47 H69 0.931 . S
C48 C45 1.481 . S
C48 C49 1.387 . S
C48 C53 1.390 1_565 S
C49 C48 1.387 . S
C49 C50 1.401 . S
C49 H70 0.930 . S
C50 C49 1.401 . S
C50 C51 1.376 1_565 S
C50 C59 1.511 . S
C51 C50 1.376 1_545 S
C51 C52 1.392 . S
C51 H72 0.931 . S
C52 C51 1.392 . S
C52 C53 1.361 . S
C52 C54 1.500 1_455 S
C53 C48 1.390 1_545 S
C53 C52 1.361 . S
C53 H71 0.931 1_455 S
C54 C52 1.500 1_655 S
C54 C55 1.371 . S
C54 C56 1.365 . S
C55 C54 1.371 . S
C55 C65 1.386 . S
C55 H73 0.931 . S
C56 C54 1.365 . S
C56 C57 1.409 . S
C56 H74 0.929 . S
C57 C56 1.409 . S
C57 C58 1.380 . S
C57 H75 0.930 . S
C58 C57 1.380 . S
C58 C65 1.357 . S
C59 C50 1.511 . S
C59 C60 1.341 . S
C59 C61 1.371 . S
C60 C59 1.341 . S
C60 C64 1.394 . S
C60 H76 0.930 . S
C61 C59 1.371 . S
C61 C62 1.392 . S
C61 H77 0.931 . S
C62 C61 1.392 . S
C62 C63 1.331 . S
C62 H80 0.932 . S
C63 C62 1.331 . S
C63 C64 1.336 . S
C64 C60 1.394 . S
C64 C63 1.336 . S
C64 H79 0.929 . S
C65 C55 1.386 . S
C65 C58 1.357 . S
C65 H78 0.928 . S
H66 C42 0.931 . S
H67 C44 0.930 . S
H68 C46 0.929 . S
H69 C47 0.931 . S
H70 C49 0.930 . S
H71 C53 0.931 1_655 S
H72 C51 0.931 . S
H73 C55 0.931 . S
H74 C56 0.929 . S
H75 C57 0.930 . S
H76 C60 0.930 . S
H77 C61 0.931 . S
H78 C65 0.928 . S
H79 C64 0.929 . S
H80 C62 0.932 . S
C81 C82 1.386 . S
C81 C83 1.397 . S
C81 H105 0.931 . S
C82 C81 1.386 . S
C82 C86 1.397 . S
C83 C81 1.397 . S
C83 C84 1.384 . S
C83 H106 0.930 . S
C84 C83 1.384 . S
C84 C85 1.377 . S
C84 C87 1.481 . S
C85 C84 1.377 . S
C85 C86 1.389 . S
C85 H107 0.929 . S
C86 C82 1.397 . S
C86 C85 1.389 . S
C86 H108 0.931 . S
C87 C84 1.481 . S
C87 C88 1.387 . S
C87 C92 1.390 1_455 S
C88 C87 1.387 . S
C88 C89 1.401 . S
C88 H109 0.930 . S
C89 C88 1.401 . S
C89 C90 1.376 1_455 S
C89 C98 1.511 . S
C90 C89 1.376 1_655 S
C90 C91 1.392 . S
C90 H111 0.931 . S
C91 C90 1.392 . S
C91 C92 1.361 . S
C91 C93 1.500 . S
C92 C87 1.390 1_655 S
C92 C91 1.361 . S
C92 H110 0.931 . S
C93 C91 1.500 . S
C93 C94 1.371 . S
C93 C95 1.365 1_545 S
C94 C93 1.371 . S
C94 C104 1.386 1_545 S
C94 H112 0.931 . S
C95 C93 1.365 1_565 S
C95 C96 1.409 . S
C95 H113 0.929 . S
C96 C95 1.409 . S
C96 C97 1.380 . S
C96 H114 0.930 . S
C97 C96 1.380 . S
C97 C104 1.357 . S
C98 C89 1.511 . S
C98 C99 1.341 . S
C98 C100 1.371 . S
C99 C98 1.341 . S
C99 C103 1.394 . S
C99 H115 0.930 . S
C100 C98 1.371 . S
C100 C101 1.392 . S
C100 H116 0.931 . S
C101 C100 1.392 . S
C101 C102 1.331 . S
C101 H119 0.932 . S
C102 C101 1.331 . S
C102 C103 1.336 . S
C103 C99 1.394 . S
C103 C102 1.336 . S
C103 H118 0.929 . S
C104 C94 1.386 1_565 S
C104 C97 1.357 . S
C104 H117 0.928 . S
H105 C81 0.931 . S
H106 C83 0.930 . S
H107 C85 0.929 . S
H108 C86 0.931 . S
H109 C88 0.930 . S
H110 C92 0.931 . S
H111 C90 0.931 . S
H112 C94 0.931 . S
H113 C95 0.929 . S
H114 C96 0.930 . S
H115 C99 0.930 . S
H116 C100 0.931 . S
H117 C104 0.928 . S
H118 C103 0.929 . S
H119 C101 0.932 . S
C120 C121 1.386 . S
C120 C122 1.397 . S
C120 H144 0.931 . S
C121 C120 1.386 . S
C121 C125 1.397 . S
C122 C120 1.397 . S
C122 C123 1.384 . S
C122 H145 0.930 . S
C123 C122 1.384 . S
C123 C124 1.377 . S
C123 C126 1.481 . S
C124 C123 1.377 . S
C124 C125 1.389 . S
C124 H146 0.929 . S
C125 C121 1.397 . S
C125 C124 1.389 . S
C125 H147 0.931 . S
C126 C123 1.481 . S
C126 C127 1.387 . S
C126 C131 1.390 . S
C127 C126 1.387 . S
C127 C128 1.401 . S
C127 H148 0.930 . S
C128 C127 1.401 . S
C128 C129 1.376 . S
C128 C137 1.511 . S
C129 C128 1.376 . S
C129 C130 1.392 . S
C129 H150 0.931 . S
C130 C129 1.392 . S
C130 C131 1.361 . S
C130 C132 1.500 . S
C131 C126 1.390 . S
C131 C130 1.361 . S
C131 H149 0.931 . S
C132 C130 1.500 . S
C132 C133 1.371 . S
C132 C134 1.365 . S
C133 C132 1.371 . S
C133 C143 1.386 . S
C133 H151 0.931 . S
C134 C132 1.365 . S
C134 C135 1.409 . S
C134 H152 0.929 . S
C135 C134 1.409 . S
C135 C136 1.380 . S
C135 H153 0.930 . S
C136 C135 1.380 . S
C136 C143 1.357 . S
C137 C128 1.511 . S
C137 C138 1.341 . S
C137 C139 1.371 . S
C138 C137 1.341 . S
C138 C142 1.394 . S
C138 H154 0.930 . S
C139 C137 1.371 . S
C139 C140 1.392 . S
C139 H155 0.931 . S
C140 C139 1.392 . S
C140 C141 1.331 . S
C140 H158 0.932 1_556 S
C141 C140 1.331 . S
C141 C142 1.336 . S
C142 C138 1.394 . S
C142 C141 1.336 . S
C142 H157 0.929 . S
C143 C133 1.386 . S
C143 C136 1.357 . S
C143 H156 0.928 1_556 S
H144 C120 0.931 . S
H145 C122 0.930 . S
H146 C124 0.929 . S
H147 C125 0.931 . S
H148 C127 0.930 . S
H149 C131 0.931 . S
H150 C129 0.931 . S
H151 C133 0.931 . S
H152 C134 0.929 . S
H153 C135 0.930 . S
H154 C138 0.930 . S
H155 C139 0.931 . S
H156 C143 0.928 1_554 S
H157 C142 0.929 . S
H158 C140 0.932 1_554 S
C159 C160 1.386 . S
C159 C161 1.397 . S
C159 H183 0.931 . S
C160 C159 1.386 . S
C160 C164 1.397 . S
C161 C159 1.397 . S
C161 C162 1.384 . S
C161 H184 0.930 . S
C162 C161 1.384 . S
C162 C163 1.377 . S
C162 C165 1.481 . S
C163 C162 1.377 . S
C163 C164 1.389 . S
C163 H185 0.929 . S
C164 C160 1.397 . S
C164 C163 1.389 . S
C164 H186 0.931 . S
C165 C162 1.481 . S
C165 C166 1.387 . S
C165 C170 1.390 . S
C166 C165 1.387 . S
C166 C167 1.401 . S
C166 H187 0.930 . S
C167 C166 1.401 . S
C167 C168 1.376 . S
C167 C176 1.511 . S
C168 C167 1.376 . S
C168 C169 1.392 . S
C168 H189 0.931 . S
C169 C168 1.392 . S
C169 C170 1.361 . S
C169 C171 1.500 . S
C170 C165 1.390 . S
C170 C169 1.361 . S
C170 H188 0.931 . S
C171 C169 1.500 . S
C171 C172 1.371 . S
C171 C173 1.365 . S
C172 C171 1.371 . S
C172 C182 1.386 . S
C172 H190 0.931 . S
C173 C171 1.365 . S
C173 C174 1.409 . S
C173 H191 0.929 . S
C174 C173 1.409 . S
C174 C175 1.380 . S
C174 H192 0.930 . S
C175 C174 1.380 . S
C175 C182 1.357 . S
C176 C167 1.511 . S
C176 C177 1.341 . S
C176 C178 1.371 . S
C177 C176 1.341 . S
C177 C181 1.394 . S
C177 H193 0.930 . S
C178 C176 1.371 . S
C178 C179 1.392 . S
C178 H194 0.931 . S
C179 C178 1.392 . S
C179 C180 1.331 . S
C179 H197 0.932 . S
C180 C179 1.331 . S
C180 C181 1.336 . S
C181 C177 1.394 . S
C181 C180 1.336 . S
C181 H196 0.929 . S
C182 C172 1.386 . S
C182 C175 1.357 . S
C182 H195 0.928 . S
H183 C159 0.931 . S
H184 C161 0.930 . S
H185 C163 0.929 . S
H186 C164 0.931 . S
H187 C166 0.930 . S
H188 C170 0.931 . S
H189 C168 0.931 . S
H190 C172 0.931 . S
H191 C173 0.929 . S
H192 C174 0.930 . S
H193 C177 0.930 . S
H194 C178 0.931 . S
H195 C182 0.928 . S
H196 C181 0.929 . S
H197 C179 0.932 . S
H198 C199 0.951 . S
C199 H198 0.951 . S
C199 C205 1.265 . S
H200 C205 0.950 . S
H201 C209 0.949 . S
H202 C210 0.950 . S
H203 C211 0.951 . S
H204 C212 0.951 . S
C205 C199 1.265 . S
C205 H200 0.950 . S
C205 C206 1.478 . S
C206 C205 1.478 . S
C206 C207 1.397 . S
C206 C223 1.394 1_554 S
C207 C206 1.397 . S
C207 C208 1.438 . S
C207 C212 1.429 . S
C208 C207 1.438 . S
C208 C209 1.428 . S
C208 C221 1.394 . S
C209 H201 0.949 . S
C209 C208 1.428 . S
C209 C210 1.345 . S
C210 H202 0.950 . S
C210 C209 1.345 . S
C210 C211 1.424 . S
C211 H203 0.951 . S
C211 C210 1.424 . S
C211 C212 1.347 . S
C212 H204 0.951 . S
C212 C207 1.429 . S
C212 C211 1.347 . S
H213 C214 0.951 . S
C214 H213 0.951 . S
C214 C220 1.265 . S
H215 C220 0.950 . S
H216 C224 0.949 . S
H217 C225 0.950 . S
H218 C226 0.951 . S
H219 C227 0.951 . S
C220 C214 1.265 . S
C220 H215 0.950 . S
C220 C221 1.478 . S
C221 C208 1.394 . S
C221 C220 1.478 . S
C221 C222 1.397 1_554 S
C222 C221 1.397 1_556 S
C222 C223 1.438 . S
C222 C227 1.429 . S
C223 C206 1.394 1_556 S
C223 C222 1.438 . S
C223 C224 1.428 . S
C224 H216 0.949 . S
C224 C223 1.428 . S
C224 C225 1.345 . S
C225 H217 0.950 . S
C225 C224 1.345 . S
C225 C226 1.424 . S
C226 H218 0.951 . S
C226 C225 1.424 . S
C226 C227 1.347 . S
C227 H219 0.951 . S
C227 C222 1.429 . S
C227 C226 1.347 . S
H228 C229 0.951 . S
C229 H228 0.951 . S
C229 C235 1.265 . S
H230 C235 0.950 . S
H231 C239 0.949 . S
H232 C240 0.950 . S
H233 C241 0.951 . S
H234 C242 0.951 . S
C235 C229 1.265 . S
C235 H230 0.950 . S
C235 C236 1.478 . S
C236 C235 1.478 . S
C236 C237 1.397 1_554 S
C236 C253 1.394 . S
C237 C236 1.397 1_556 S
C237 C238 1.438 . S
C237 C242 1.429 . S
C238 C237 1.438 . S
C238 C239 1.428 . S
C238 C251 1.394 . S
C239 H231 0.949 . S
C239 C238 1.428 . S
C239 C240 1.345 . S
C240 H232 0.950 . S
C240 C239 1.345 . S
C240 C241 1.424 . S
C241 H233 0.951 . S
C241 C240 1.424 . S
C241 C242 1.347 . S
C242 H234 0.951 . S
C242 C237 1.429 . S
C242 C241 1.347 . S
H243 C244 0.951 . S
C244 H243 0.951 . S
C244 C250 1.265 . S
H245 C250 0.950 . S
H246 C254 0.949 . S
H247 C255 0.950 . S
H248 C256 0.951 . S
H249 C257 0.951 . S
C250 C244 1.265 . S
C250 H245 0.950 . S
C250 C251 1.478 . S
C251 C238 1.394 . S
C251 C250 1.478 . S
C251 C252 1.397 1_556 S
C252 C251 1.397 1_554 S
C252 C253 1.438 . S
C252 C257 1.429 . S
C253 C236 1.394 . S
C253 C252 1.438 . S
C253 C254 1.428 . S
C254 H246 0.949 . S
C254 C253 1.428 . S
C254 C255 1.345 . S
C255 H247 0.950 . S
C255 C254 1.345 . S
C255 C256 1.424 . S
C256 H248 0.951 . S
C256 C255 1.424 . S
C256 C257 1.347 . S
C257 H249 0.951 . S
C257 C252 1.429 . S
C257 C256 1.347 . S
H258 C259 0.951 . S
C259 H258 0.951 . S
C259 C265 1.265 . S
H260 C265 0.950 . S
H261 C269 0.949 . S
H262 C270 0.950 . S
H263 C271 0.951 . S
H264 C272 0.951 . S
C265 C259 1.265 . S
C265 H260 0.950 . S
C265 C266 1.478 . S
C266 C265 1.478 . S
C266 C267 1.397 1_554 S
C266 C283 1.394 . S
C267 C266 1.397 1_556 S
C267 C268 1.438 1_556 S
C267 C272 1.429 . S
C268 C267 1.438 1_554 S
C268 C269 1.428 1_554 S
C268 C281 1.394 . S
C269 H261 0.949 . S
C269 C268 1.428 1_556 S
C269 C270 1.345 . S
C270 H262 0.950 . S
C270 C269 1.345 . S
C270 C271 1.424 . S
C271 H263 0.951 . S
C271 C270 1.424 . S
C271 C272 1.347 . S
C272 H264 0.951 . S
C272 C267 1.429 . S
C272 C271 1.347 . S
H273 C274 0.951 . S
C274 H273 0.951 . S
C274 C280 1.265 . S
H275 C280 0.950 . S
H276 C284 0.949 . S
H277 C285 0.950 . S
H278 C286 0.951 . S
H279 C287 0.951 . S
C280 C274 1.265 . S
C280 H275 0.950 . S
C280 C281 1.478 . S
C281 C268 1.394 . S
C281 C280 1.478 . S
C281 C282 1.397 . S
C282 C281 1.397 . S
C282 C283 1.438 . S
C282 C287 1.429 . S
C283 C266 1.394 . S
C283 C282 1.438 . S
C283 C284 1.428 . S
C284 H276 0.949 . S
C284 C283 1.428 . S
C284 C285 1.345 . S
C285 H277 0.950 . S
C285 C284 1.345 . S
C285 C286 1.424 . S
C286 H278 0.951 . S
C286 C285 1.424 . S
C286 C287 1.347 . S
C287 H279 0.951 . S
C287 C282 1.429 . S
C287 C286 1.347 . S
H288 C289 0.951 . S
C289 H288 0.951 . S
C289 C295 1.265 1_554 S
H290 C295 0.950 . S
H291 C299 0.949 . S
H292 C300 0.950 . S
H293 C301 0.951 . S
H294 C302 0.951 . S
C295 C289 1.265 1_556 S
C295 H290 0.950 . S
C295 C296 1.478 . S
C296 C295 1.478 . S
C296 C297 1.397 . S
C296 C313 1.394 1_556 S
C297 C296 1.397 . S
C297 C298 1.438 . S
C297 C302 1.429 . S
C298 C297 1.438 . S
C298 C299 1.428 . S
C298 C311 1.394 . S
C299 H291 0.949 . S
C299 C298 1.428 . S
C299 C300 1.345 . S
C300 H292 0.950 . S
C300 C299 1.345 . S
C300 C301 1.424 . S
C301 H293 0.951 . S
C301 C300 1.424 . S
C301 C302 1.347 . S
C302 H294 0.951 . S
C302 C297 1.429 . S
C302 C301 1.347 . S
H303 C304 0.951 . S
C304 H303 0.951 . S
C304 C310 1.244 1_556 S
H305 C310 0.973 . S
H306 C314 0.949 . S
H307 C315 0.950 . S
H308 C316 0.951 . S
H309 C317 0.951 . S
C310 C304 1.244 1_554 S
C310 H305 0.973 . S
C310 C311 1.478 1_554 S
C311 C298 1.394 . S
C311 C310 1.478 1_556 S
C311 C312 1.397 1_556 S
C312 C311 1.397 1_554 S
C312 C313 1.438 . S
C312 C317 1.429 . S
C313 C296 1.394 1_554 S
C313 C312 1.438 . S
C313 C314 1.428 . S
C314 H306 0.949 . S
C314 C313 1.428 . S
C314 C315 1.345 . S
C315 H307 0.950 . S
C315 C314 1.345 . S
C315 C316 1.424 . S
C316 H308 0.951 . S
C316 C315 1.424 . S
C316 C317 1.347 . S
C317 H309 0.951 . S
C317 C312 1.429 . S
C317 C316 1.347 . S
H318 C319 0.951 . S
C319 H318 0.951 . S
C319 C325 1.265 . S
H320 C325 0.950 . S
H321 C329 0.949 . S
H322 C330 0.950 . S
H323 C331 0.951 . S
H324 C332 0.951 . S
C325 C319 1.265 . S
C325 H320 0.950 . S
C325 C326 1.478 . S
C326 C325 1.478 . S
C326 C327 1.397 . S
C326 C343 1.394 . S
C327 C326 1.397 . S
C327 C328 1.438 . S
C327 C332 1.429 . S
C328 C327 1.438 . S
C328 C329 1.428 . S
C328 C341 1.394 . S
C329 H321 0.949 . S
C329 C328 1.428 . S
C329 C330 1.345 . S
C330 H322 0.950 . S
C330 C329 1.345 . S
C330 C331 1.424 . S
C331 H323 0.951 . S
C331 C330 1.424 . S
C331 C332 1.347 . S
C332 H324 0.951 . S
C332 C327 1.429 . S
C332 C331 1.347 . S
H333 C334 0.951 . S
C334 H333 0.951 . S
C334 C340 1.265 . S
H335 C340 0.950 . S
H336 C344 0.949 . S
H337 C345 0.950 . S
H338 C346 0.951 . S
H339 C347 0.951 . S
C340 C334 1.265 . S
C340 H335 0.950 . S
C340 C341 1.478 . S
C341 C328 1.394 . S
C341 C340 1.478 . S
C341 C342 1.397 . S
C342 C341 1.397 . S
C342 C343 1.438 . S
C342 C347 1.429 . S
C343 C326 1.394 . S
C343 C342 1.438 . S
C343 C344 1.428 . S
C344 H336 0.949 . S
C344 C343 1.428 . S
C344 C345 1.345 . S
C345 H337 0.950 . S
C345 C344 1.345 . S
C345 C346 1.424 . S
C346 H338 0.951 . S
C346 C345 1.424 . S
C346 C347 1.347 . S
C347 H339 0.951 . S
C347 C342 1.429 . S
C347 C346 1.347 . S
H348 C349 0.951 . S
C349 H348 0.951 . S
C349 C355 1.265 . S
H350 C355 0.950 . S
H351 C359 0.949 . S
H352 C360 0.950 . S
H353 C361 0.951 . S
H354 C362 0.951 . S
C355 C349 1.265 . S
C355 H350 0.950 . S
C355 C356 1.478 . S
C356 C355 1.478 . S
C356 C357 1.397 . S
C356 C373 1.394 . S
C357 C356 1.397 . S
C357 C358 1.438 . S
C357 C362 1.429 . S
C358 C357 1.438 . S
C358 C359 1.428 . S
C358 C371 1.394 . S
C359 H351 0.949 . S
C359 C358 1.428 . S
C359 C360 1.345 . S
C360 H352 0.950 . S
C360 C359 1.345 . S
C360 C361 1.424 . S
C361 H353 0.951 . S
C361 C360 1.424 . S
C361 C362 1.347 . S
C362 H354 0.951 . S
C362 C357 1.429 . S
C362 C361 1.347 . S
H363 C364 0.951 . S
C364 H363 0.951 . S
C364 C370 1.265 . S
H365 C370 0.950 . S
H366 C374 0.949 . S
H367 C375 0.950 . S
H368 C376 0.951 . S
H369 C377 0.951 . S
C370 C364 1.265 . S
C370 H365 0.950 . S
C370 C371 1.478 . S
C371 C358 1.394 . S
C371 C370 1.478 . S
C371 C372 1.397 . S
C372 C371 1.397 . S
C372 C373 1.438 . S
C372 C377 1.429 . S
C373 C356 1.394 . S
C373 C372 1.438 . S
C373 C374 1.428 . S
C374 H366 0.949 . S
C374 C373 1.428 . S
C374 C375 1.345 . S
C375 H367 0.950 . S
C375 C374 1.345 . S
C375 C376 1.424 . S
C376 H368 0.951 . S
C376 C375 1.424 . S
C376 C377 1.347 . S
C377 H369 0.951 . S
C377 C372 1.429 . S
C377 C376 1.347 . S
H378 C379 0.951 . S
C379 H378 0.951 . S
C379 C385 1.265 . S
H380 C385 0.950 . S
H381 C389 0.949 . S
H382 C390 0.950 . S
H383 C391 0.951 . S
H384 C392 0.951 . S
C385 C379 1.265 . S
C385 H380 0.950 . S
C385 C386 1.478 . S
C386 C385 1.478 . S
C386 C387 1.397 . S
C386 C403 1.394 . S
C387 C386 1.397 . S
C387 C388 1.438 . S
C387 C392 1.429 . S
C388 C387 1.438 . S
C388 C389 1.428 . S
C388 C401 1.394 . S
C389 H381 0.949 . S
C389 C388 1.428 . S
C389 C390 1.345 . S
C390 H382 0.950 . S
C390 C389 1.345 . S
C390 C391 1.424 . S
C391 H383 0.951 . S
C391 C390 1.424 . S
C391 C392 1.347 . S
C392 H384 0.951 . S
C392 C387 1.429 . S
C392 C391 1.347 . S
H393 C394 0.951 . S
C394 H393 0.951 . S
C394 C400 1.265 . S
H395 C400 0.950 . S
H396 C404 0.949 . S
H397 C405 0.950 . S
H398 C406 0.951 . S
H399 C407 0.951 . S
C400 C394 1.265 . S
C400 H395 0.950 . S
C400 C401 1.478 . S
C401 C388 1.394 . S
C401 C400 1.478 . S
C401 C402 1.397 . S
C402 C401 1.397 . S
C402 C403 1.438 . S
C402 C407 1.429 . S
C403 C386 1.394 . S
C403 C402 1.438 . S
C403 C404 1.428 . S
C404 H396 0.949 . S
C404 C403 1.428 . S
C404 C405 1.345 . S
C405 H397 0.950 . S
C405 C404 1.345 . S
C405 C406 1.424 . S
C406 H398 0.951 . S
C406 C405 1.424 . S
C406 C407 1.347 . S
C407 H399 0.951 . S
C407 C402 1.429 . S
C407 C406 1.347 . S
H408 C409 0.951 . S
C409 H408 0.951 . S
C409 C415 1.265 . S
H410 C415 0.950 . S
H411 C419 0.949 . S
H412 C420 0.950 . S
H413 C421 0.951 . S
H414 C422 0.951 . S
C415 C409 1.265 . S
C415 H410 0.950 . S
C415 C416 1.478 . S
C416 C415 1.478 . S
C416 C417 1.397 . S
C416 C433 1.394 . S
C417 C416 1.397 . S
C417 C418 1.438 . S
C417 C422 1.429 . S
C418 C417 1.438 . S
C418 C419 1.428 . S
C418 C431 1.394 . S
C419 H411 0.949 . S
C419 C418 1.428 . S
C419 C420 1.345 . S
C420 H412 0.950 . S
C420 C419 1.345 . S
C420 C421 1.424 . S
C421 H413 0.951 . S
C421 C420 1.424 . S
C421 C422 1.347 . S
C422 H414 0.951 . S
C422 C417 1.429 . S
C422 C421 1.347 . S
H423 C424 0.951 . S
C424 H423 0.951 . S
C424 C430 1.265 . S
H425 C430 0.950 . S
H426 C434 0.949 . S
H427 C435 0.950 . S
H428 C436 0.951 . S
H429 C437 0.951 . S
C430 C424 1.265 . S
C430 H425 0.950 . S
C430 C431 1.478 . S
C431 C418 1.394 . S
C431 C430 1.478 . S
C431 C432 1.397 . S
C432 C431 1.397 . S
C432 C433 1.438 . S
C432 C437 1.429 . S
C433 C416 1.394 . S
C433 C432 1.438 . S
C433 C434 1.428 . S
C434 H426 0.949 . S
C434 C433 1.428 . S
C434 C435 1.345 . S
C435 H427 0.950 . S
C435 C434 1.345 . S
C435 C436 1.424 . S
C436 H428 0.951 . S
C436 C435 1.424 . S
C436 C437 1.347 . S
C437 H429 0.951 . S
C437 C432 1.429 . S
C437 C436 1.347 . S
H438 C439 0.951 1_565 S
C439 H438 0.951 1_545 S
C439 C445 1.265 . S
H440 C445 0.950 1_655 S
H441 C449 0.949 . S
H442 C450 0.950 . S
H443 C451 0.951 . S
H444 C452 0.951 . S
C445 C439 1.265 . S
C445 H440 0.950 1_455 S
C445 C446 1.478 . S
C446 C445 1.478 . S
C446 C447 1.397 1_545 S
C446 C463 1.394 . S
C447 C446 1.397 1_565 S
C447 C448 1.438 . S
C447 C452 1.429 1_455 S
C448 C447 1.438 . S
C448 C449 1.428 1_455 S
C448 C461 1.394 . S
C449 H441 0.949 . S
C449 C448 1.428 1_655 S
C449 C450 1.345 . S
C450 H442 0.950 . S
C450 C449 1.345 . S
C450 C451 1.424 . S
C451 H443 0.951 . S
C451 C450 1.424 . S
C451 C452 1.347 . S
C452 H444 0.951 . S
C452 C447 1.429 1_655 S
C452 C451 1.347 . S
H453 C454 0.951 1_545 S
C454 H453 0.951 1_565 S
C454 C460 1.265 . S
H455 C460 0.950 . S
H456 C464 0.949 . S
H457 C465 0.950 . S
H458 C466 0.951 . S
H459 C467 0.951 . S
C460 C454 1.265 . S
C460 H455 0.950 . S
C460 C461 1.478 . S
C461 C448 1.394 . S
C461 C460 1.478 . S
C461 C462 1.397 1_565 S
C462 C461 1.397 1_545 S
C462 C463 1.438 . S
C462 C467 1.429 . S
C463 C446 1.394 . S
C463 C462 1.438 . S
C463 C464 1.428 . S
C464 H456 0.949 . S
C464 C463 1.428 . S
C464 C465 1.345 . S
C465 H457 0.950 . S
C465 C464 1.345 . S
C465 C466 1.424 . S
C466 H458 0.951 . S
C466 C465 1.424 . S
C466 C467 1.347 . S
C467 H459 0.951 . S
C467 C462 1.429 . S
C467 C466 1.347 . S
H468 C469 0.951 1_655 S
C469 H468 0.951 1_455 S
C469 C475 1.265 . S
H470 C475 0.950 . S
H471 C479 0.949 . S
H472 C480 0.950 . S
H473 C481 0.951 . S
H474 C482 0.951 . S
C475 C469 1.265 . S
C475 H470 0.950 . S
C475 C476 1.478 . S
C476 C475 1.478 . S
C476 C477 1.397 . S
C476 C493 1.394 . S
C477 C476 1.397 . S
C477 C478 1.438 . S
C477 C482 1.429 1_545 S
C478 C477 1.438 . S
C478 C479 1.428 1_545 S
C478 C491 1.394 . S
C479 H471 0.949 . S
C479 C478 1.428 1_565 S
C479 C480 1.345 . S
C480 H472 0.950 . S
C480 C479 1.345 . S
C480 C481 1.424 . S
C481 H473 0.951 . S
C481 C480 1.424 . S
C481 C482 1.347 . S
C482 H474 0.951 . S
C482 C477 1.429 1_565 S
C482 C481 1.347 . S
H483 C484 0.951 . S
C484 H483 0.951 . S
C484 C490 1.265 1_455 S
H485 C490 0.950 . S
H486 C494 0.949 . S
H487 C495 0.950 . S
H488 C496 0.951 . S
H489 C497 0.951 . S
C490 C484 1.265 1_655 S
C490 H485 0.950 . S
C490 C491 1.478 1_655 S
C491 C478 1.394 . S
C491 C490 1.478 1_455 S
C491 C492 1.397 1_455 S
C492 C491 1.397 1_655 S
C492 C493 1.438 1_655 S
C492 C497 1.429 . S
C493 C476 1.394 . S
C493 C492 1.438 1_455 S
C493 C494 1.428 . S
C494 H486 0.949 . S
C494 C493 1.428 . S
C494 C495 1.345 1_455 S
C495 H487 0.950 . S
C495 C494 1.345 1_655 S
C495 C496 1.424 . S
C496 H488 0.951 . S
C496 C495 1.424 . S
C496 C497 1.347 . S
C497 H489 0.951 . S
C497 C492 1.429 . S
C497 C496 1.347 . S
H498 C499 0.951 . S
C499 H498 0.951 . S
C499 C505 1.265 . S
H500 C505 0.950 . S
H501 C509 0.949 . S
H502 C510 0.950 . S
H503 C511 0.951 . S
H504 C512 0.951 . S
C505 C499 1.265 . S
C505 H500 0.950 . S
C505 C506 1.478 . S
C506 C505 1.478 . S
C506 C507 1.397 . S
C506 C523 1.394 . S
C507 C506 1.397 . S
C507 C508 1.438 . S
C507 C512 1.429 . S
C508 C507 1.438 . S
C508 C509 1.428 . S
C508 C521 1.394 . S
C509 H501 0.949 . S
C509 C508 1.428 . S
C509 C510 1.345 . S
C510 H502 0.950 . S
C510 C509 1.345 . S
C510 C511 1.424 . S
C511 H503 0.951 . S
C511 C510 1.424 . S
C511 C512 1.347 . S
C512 H504 0.951 . S
C512 C507 1.429 . S
C512 C511 1.347 . S
H513 C514 0.951 . S
C514 H513 0.951 . S
C514 C520 1.265 . S
H515 C520 0.950 . S
H516 C524 0.949 . S
H517 C525 0.950 . S
H518 C526 0.951 . S
H519 C527 0.951 . S
C520 C514 1.265 . S
C520 H515 0.950 . S
C520 C521 1.478 . S
C521 C508 1.394 . S
C521 C520 1.478 . S
C521 C522 1.397 . S
C522 C521 1.397 . S
C522 C523 1.438 . S
C522 C527 1.429 . S
C523 C506 1.394 . S
C523 C522 1.438 . S
C523 C524 1.428 . S
C524 H516 0.949 . S
C524 C523 1.428 . S
C524 C525 1.345 . S
C525 H517 0.950 . S
C525 C524 1.345 . S
C525 C526 1.424 . S
C526 H518 0.951 . S
C526 C525 1.424 . S
C526 C527 1.347 . S
C527 H519 0.951 . S
C527 C522 1.429 . S
C527 C526 1.347 . S
H528 C529 0.951 . S
C529 H528 0.951 . S
C529 C535 1.265 . S
H530 C535 0.950 . S
H531 C539 0.949 . S
H532 C540 0.950 . S
H533 C541 0.951 . S
H534 C542 0.951 . S
C535 C529 1.265 . S
C535 H530 0.950 . S
C535 C536 1.478 . S
C536 C535 1.478 . S
C536 C537 1.397 . S
C536 C553 1.394 . S
C537 C536 1.397 . S
C537 C538 1.438 . S
C537 C542 1.429 . S
C538 C537 1.438 . S
C538 C539 1.428 . S
C538 C551 1.394 . S
C539 H531 0.949 . S
C539 C538 1.428 . S
C539 C540 1.345 . S
C540 H532 0.950 . S
C540 C539 1.345 . S
C540 C541 1.424 . S
C541 H533 0.951 . S
C541 C540 1.424 . S
C541 C542 1.347 . S
C542 H534 0.951 . S
C542 C537 1.429 . S
C542 C541 1.347 . S
H543 C544 0.951 . S
C544 H543 0.951 . S
C544 C550 1.265 . S
H545 C550 0.950 . S
H546 C554 0.949 . S
H547 C555 0.950 . S
H548 C556 0.951 . S
H549 C557 0.951 . S
C550 C544 1.265 . S
C550 H545 0.950 . S
C550 C551 1.478 . S
C551 C538 1.394 . S
C551 C550 1.478 . S
C551 C552 1.397 . S
C552 C551 1.397 . S
C552 C553 1.438 . S
C552 C557 1.429 . S
C553 C536 1.394 . S
C553 C552 1.438 . S
C553 C554 1.428 . S
C554 H546 0.949 . S
C554 C553 1.428 . S
C554 C555 1.345 . S
C555 H547 0.950 . S
C555 C554 1.345 . S
C555 C556 1.424 . S
C556 H548 0.951 . S
C556 C555 1.424 . S
C556 C557 1.347 . S
C557 H549 0.951 . S
C557 C552 1.429 . S
C557 C556 1.347 . S
C214 C175 1.470 . S
C199 C15 1.271 . S
C229 C13 1.489 . S
C244 C136 1.512 . S
C259 C18 1.374 . S
C274 C180 1.499 . S
C289 C17 1.349 . S
C304 C141 1.341 . S
C319 C36 1.375 . S
C334 C97 1.439 . S
C349 C34 1.484 . S
C364 C58 1.504 . S
C394 C102 1.457 . S
C379 C39 1.199 . S
C424 C63 1.370 . S
C409 C38 1.384 . S
C439 C14 1.486 . S
C454 C43 1.546 . S
C469 C16 1.317 . S
C484 C82 1.415 . S
C514 C121 1.555 . S
C499 C35 1.540 . S
C529 C37 1.404 . S
C544 C160 1.414 . S
