# Generated by pormake.
# Topology ant, (3,6)-cn, num edge types: 1
# Building blocks:
#     Node 0, Type 0, BuildingBlock: MIDCAF_clean_linker_0, # of connection points: 3
#     Node 1, Type 0, BuildingBlock: MIDCAF_clean_linker_0, # of connection points: 3
#     Node 2, Type 0, BuildingBlock: MIDCAF_clean_linker_0, # of connection points: 3
#     Node 3, Type 0, BuildingBlock: MIDCAF_clean_linker_0, # of connection points: 3
#     Node 4, Type 0, BuildingBlock: MIDCAF_clean_linker_0, # of connection points: 3
#     Node 5, Type 0, BuildingBlock: MIDCAF_clean_linker_0, # of connection points: 3
#     Node 6, Type 0, BuildingBlock: MIDCAF_clean_linker_0, # of connection points: 3
#     Node 7, Type 0, BuildingBlock: MIDCAF_clean_linker_0, # of connection points: 3
#     Node 8, Type 1, BuildingBlock: MIDCAF_clean_sbu_0, # of connection points: 6
#     Node 9, Type 1, BuildingBlock: MIDCAF_clean_sbu_0, # of connection points: 6
#     Node 10, Type 1, BuildingBlock: MIDCAF_clean_sbu_0, # of connection points: 6
#     Node 11, Type 1, BuildingBlock: MIDCAF_clean_sbu_0, # of connection points: 6
#     Edge 12, Type (0, 1), BuildingBlock: EZIPEK_clean_linker_0, # of connection points: 2
#     Edge 13, Type (0, 1), BuildingBlock: EZIPEK_clean_linker_0, # of connection points: 2
#     Edge 14, Type (0, 1), BuildingBlock: EZIPEK_clean_linker_0, # of connection points: 2
#     Edge 15, Type (0, 1), BuildingBlock: EZIPEK_clean_linker_0, # of connection points: 2
#     Edge 16, Type (0, 1), BuildingBlock: EZIPEK_clean_linker_0, # of connection points: 2
#     Edge 17, Type (0, 1), BuildingBlock: EZIPEK_clean_linker_0, # of connection points: 2
#     Edge 18, Type (0, 1), BuildingBlock: EZIPEK_clean_linker_0, # of connection points: 2
#     Edge 19, Type (0, 1), BuildingBlock: EZIPEK_clean_linker_0, # of connection points: 2
#     Edge 20, Type (0, 1), BuildingBlock: EZIPEK_clean_linker_0, # of connection points: 2
#     Edge 21, Type (0, 1), BuildingBlock: EZIPEK_clean_linker_0, # of connection points: 2
#     Edge 22, Type (0, 1), BuildingBlock: EZIPEK_clean_linker_0, # of connection points: 2
#     Edge 23, Type (0, 1), BuildingBlock: EZIPEK_clean_linker_0, # of connection points: 2
#     Edge 24, Type (0, 1), BuildingBlock: EZIPEK_clean_linker_0, # of connection points: 2
#     Edge 25, Type (0, 1), BuildingBlock: EZIPEK_clean_linker_0, # of connection points: 2
#     Edge 26, Type (0, 1), BuildingBlock: EZIPEK_clean_linker_0, # of connection points: 2
#     Edge 27, Type (0, 1), BuildingBlock: EZIPEK_clean_linker_0, # of connection points: 2
#     Edge 28, Type (0, 1), BuildingBlock: EZIPEK_clean_linker_0, # of connection points: 2
#     Edge 29, Type (0, 1), BuildingBlock: EZIPEK_clean_linker_0, # of connection points: 2
#     Edge 30, Type (0, 1), BuildingBlock: EZIPEK_clean_linker_0, # of connection points: 2
#     Edge 31, Type (0, 1), BuildingBlock: EZIPEK_clean_linker_0, # of connection points: 2
#     Edge 32, Type (0, 1), BuildingBlock: EZIPEK_clean_linker_0, # of connection points: 2
#     Edge 33, Type (0, 1), BuildingBlock: EZIPEK_clean_linker_0, # of connection points: 2
#     Edge 34, Type (0, 1), BuildingBlock: EZIPEK_clean_linker_0, # of connection points: 2
#     Edge 35, Type (0, 1), BuildingBlock: EZIPEK_clean_linker_0, # of connection points: 2
# Relax obj value: 0.104
# Max RMSD: 0.159
# Mean RMSD: 0.105
data_MOF--net-ant--node1-MIDCAF_clean_sbu_0--node2-MIDCAF_clean_linker_0--edge1-EZIPEK_clean_linker_0
_symmetry_space_group_name_H-M    P1
_symmetry_Int_Tables_number       1
_symmetry_cell_setting            triclinic
loop_
_symmetry_equiv_pos_as_xyz
'x, y, z'
_cell_length_a     26.280212
_cell_length_b     26.368556
_cell_length_c     73.120327
_cell_angle_alpha  90.118928
_cell_angle_beta   93.858258
_cell_angle_gamma 89.883978
loop_
_atom_site_label
_atom_site_type_symbol
_atom_site_fract_x
_atom_site_fract_y
_atom_site_fract_z
_atom_type_partial_charge
C0 C 0.21142 0.4208 0.05626 0.0
C1 C 0.22475 0.4331 0.07459 0.0
C2 C 0.2382 0.39417 0.08708 0.0
C3 C 0.23764 0.3434 0.08135 0.0
H4 H 0.18748 0.09523 0.06157 0.0
H5 H 0.21636 0.02025 0.07848 0.0
H6 H 0.33638 0.10669 0.10687 0.0
H7 H 0.30699 0.18346 0.08986 0.0
H8 H 0.16035 0.12459 0.02032 0.0
H9 H 0.12471 0.10549 0.98923 0.0
H10 H 0.1322 0.26388 0.97529 0.0
H11 H 0.1673 0.28368 0.00622 0.0
H12 H 0.19959 0.36211 0.03629 0.0
H13 H 0.20087 0.45037 0.04645 0.0
H14 H 0.24849 0.4031 0.10132 0.0
H15 H 0.24745 0.31416 0.09136 0.0
N16 N 0.23535 0.23792 0.06822 0.0
N17 N 0.20652 0.17927 0.04563 0.0
N18 N 0.19706 0.26601 0.04003 0.0
C19 C 0.22897 0.18891 0.06253 0.0
C20 C 0.19063 0.21737 0.03427 0.0
C21 C 0.21911 0.27682 0.05695 0.0
C22 C 0.2451 0.14533 0.07431 0.0
C23 C 0.21993 0.09872 0.07144 0.0
C24 C 0.23636 0.05572 0.0811 0.0
C25 C 0.27857 0.05791 0.09381 0.0
C26 C 0.30369 0.10441 0.09707 0.0
C27 C 0.28672 0.14811 0.08745 0.0
C28 C 0.16707 0.20574 0.01575 0.0
C29 C 0.1543 0.15547 0.01067 0.0
C30 C 0.13384 0.14436 0.99296 0.0
C31 C 0.12637 0.18325 0.98004 0.0
C32 C 0.13801 0.23341 0.98513 0.0
C33 C 0.15806 0.24462 0.00282 0.0
C34 C 0.22327 0.33068 0.06303 0.0
C35 C 0.21067 0.37017 0.05053 0.0
C36 C 0.23483 0.81017 0.31844 0.0
C37 C 0.23627 0.79787 0.33707 0.0
C38 C 0.19041 0.79395 0.34578 0.0
C39 C 0.14345 0.79963 0.33568 0.0
H40 H 0.98214 0.81478 0.33772 0.0
H41 H 0.89896 0.80981 0.3508 0.0
H42 H 0.82685 0.77928 0.29732 0.0
H43 H 0.90951 0.78431 0.28392 0.0
H44 H 0.97532 0.77787 0.24893 0.0
H45 H 0.9858 0.76064 0.21629 0.0
H46 H 0.14684 0.79055 0.22479 0.0
H47 H 0.1372 0.80819 0.25692 0.0
H48 H 0.18865 0.82392 0.29387 0.0
H49 H 0.26987 0.81334 0.31152 0.0
H50 H 0.19098 0.7843 0.36019 0.0
H51 H 0.10863 0.79433 0.34256 0.0
N52 N 0.04704 0.8065 0.31266 0.0
N53 N 1.0058 0.79883 0.28319 0.0
N54 N 0.09464 0.80492 0.28675 0.0
C55 C 1.00312 0.80224 0.30169 0.0
C56 C 0.05153 0.8003 0.27563 0.0
C57 C 0.09308 0.80805 0.30519 0.0
C58 C 0.95276 0.79992 0.30974 0.0
C59 C 0.94872 0.80708 0.32867 0.0
C60 C 0.90125 0.80435 0.33619 0.0
C61 C 0.8571 0.79423 0.32495 0.0
C62 C 0.8607 0.78718 0.30611 0.0
C63 C 0.90805 0.79012 0.29854 0.0
C64 C 0.05551 0.79394 0.25563 0.0
C65 C 0.01285 0.78127 0.24379 0.0
C66 C 0.01866 0.77135 0.22518 0.0
C67 C 0.06718 0.77384 0.21831 0.0
C68 C 0.10919 0.78811 0.22994 0.0
C69 C 0.1035 0.79811 0.24835 0.0
C70 C 0.14184 0.80921 0.31672 0.0
C71 C 0.18818 0.81592 0.30838 0.0
C72 C 0.73314 0.90136 0.55955 0.0
C73 C 0.74374 0.9139 0.57802 0.0
C74 C 0.75493 0.87515 0.59081 0.0
C75 C 0.75458 0.82426 0.58524 0.0
H76 H 0.69962 0.57834 0.56718 0.0
H77 H 0.72869 0.50209 0.58332 0.0
H78 H 0.85597 0.58395 0.60917 0.0
H79 H 0.82648 0.6619 0.59292 0.0
H80 H 0.67882 0.60508 0.52421 0.0
H81 H 0.64254 0.58633 0.49316 0.0
H82 H 0.64926 0.74495 0.47949 0.0
H83 H 0.68503 0.76439 0.51034 0.0
H84 H 0.72343 0.84231 0.53962 0.0
H85 H 0.72438 0.93082 0.54952 0.0
H86 H 0.76311 0.8843 0.60516 0.0
H87 H 0.76239 0.79514 0.59547 0.0
N88 N 0.75305 0.71855 0.57229 0.0
N89 N 0.7235 0.65982 0.54983 0.0
N90 N 0.71595 0.74655 0.54392 0.0
C91 C 0.74578 0.66954 0.56675 0.0
C92 C 0.70867 0.69789 0.5383 0.0
C93 C 0.73784 0.75741 0.56085 0.0
C94 C 0.76101 0.62605 0.57867 0.0
C95 C 0.73356 0.58055 0.57642 0.0
C96 C 0.75006 0.53689 0.58565 0.0
C97 C 0.79458 0.53737 0.59729 0.0
C98 C 0.82148 0.58302 0.60021 0.0
C99 C 0.80451 0.62737 0.59101 0.0
C100 C 0.68516 0.68632 0.51977 0.0
C101 C 0.67249 0.63607 0.51462 0.0
C102 C 0.65169 0.62516 0.49694 0.0
C103 C 0.64369 0.66424 0.48412 0.0
C104 C 0.65543 0.71434 0.48926 0.0
C105 C 0.67587 0.72534 0.50691 0.0
C106 C 0.74261 0.8113 0.56677 0.0
C107 C 0.73254 0.85062 0.55398 0.0
C108 C 0.73001 0.30904 0.8155 0.0
C109 C 0.73247 0.32174 0.83411 0.0
C110 C 0.68736 0.33461 0.84237 0.0
C111 C 0.64008 0.3326 0.83216 0.0
H112 H 0.47795 0.32599 0.83493 0.0
H113 H 0.39486 0.32336 0.84818 0.0
H114 H 0.32195 0.28775 0.79524 0.0
H115 H 0.40444 0.29026 0.78169 0.0
H116 H 0.46993 0.27413 0.74676 0.0
H117 H 0.48037 0.25163 0.71449 0.0
H118 H 0.64296 0.27114 0.72345 0.0
H119 H 0.63348 0.29361 0.7551 0.0
H120 H 0.68354 0.29672 0.79105 0.0
H121 H 0.76435 0.29912 0.80887 0.0
H122 H 0.68866 0.34477 0.85675 0.0
H123 H 0.60567 0.34154 0.83886 0.0
N124 N 0.5425 0.31536 0.80985 0.0
N125 N 0.50101 0.29885 0.78086 0.0
N126 N 0.58975 0.3047 0.78414 0.0
C127 C 0.49848 0.30806 0.79912 0.0
C128 C 0.54668 0.29727 0.77328 0.0
C129 C 0.58847 0.3137 0.80233 0.0
C130 C 0.44814 0.30822 0.80723 0.0
C131 C 0.44435 0.31776 0.82604 0.0
C132 C 0.39696 0.31633 0.83365 0.0
C133 C 0.35265 0.30527 0.82262 0.0
C134 C 0.35595 0.29626 0.80387 0.0
C135 C 0.40322 0.29778 0.79622 0.0
C136 C 0.55084 0.28556 0.7536 0.0
C137 C 0.50783 0.27384 0.74179 0.0
C138 C 0.51362 0.26096 0.7234 0.0
C139 C 0.56247 0.25956 0.71673 0.0
C140 C 0.60501 0.27182 0.72841 0.0
C141 C 0.59937 0.28471 0.74657 0.0
C142 C 0.63762 0.31856 0.81352 0.0
C143 C 0.68341 0.30763 0.80533 0.0
C144 C 0.95953 0.60979 0.88416 0.0
C145 C 0.98516 0.56338 0.88713 0.0
C146 C 0.02861 0.56142 0.89927 0.0
C147 C 0.04567 0.60454 0.90874 0.0
H148 H 0.01595 0.81923 0.88951 0.0
H149 H 0.01454 0.9079 0.87947 0.0
H150 H 0.06677 0.95585 0.93386 0.0
H151 H 0.06847 0.86773 0.94412 0.0
H152 H 0.09851 0.78821 0.97461 0.0
H153 H 0.13266 0.76729 0.00557 0.0
H154 H 0.14069 0.60936 0.99075 0.0
H155 H 0.1061 0.62957 0.95966 0.0
H156 H 0.95636 0.68887 0.89148 0.0
H157 H 0.9259 0.61187 0.87478 0.0
H158 H 0.04902 0.52602 0.90164 0.0
H159 H 0.079 0.60125 0.91822 0.0
N160 N 0.03002 0.74345 0.91242 0.0
N161 N 0.06907 0.77133 0.94055 0.0
N162 N 0.0592 0.68465 0.93482 0.0
C163 C 0.04666 0.78225 0.92369 0.0
C164 C 0.07546 0.7226 0.9462 0.0
C165 C 0.0364 0.69444 0.91801 0.0
C166 C 0.04248 0.83605 0.91763 0.0
C167 C 0.02673 0.84854 0.89941 0.0
C168 C 0.02594 0.89917 0.89363 0.0
C169 C 0.04054 0.93821 0.90595 0.0
C170 C 0.05531 0.92617 0.92419 0.0
C171 C 0.05629 0.87565 0.92997 0.0
C172 C 0.09909 0.71058 0.96466 0.0
C173 C 0.10776 0.74905 0.97782 0.0
C174 C 0.12725 0.73718 -0.00448 0.0
C175 C 0.13864 0.6868 0.00038 0.0
C176 C 0.13173 0.64839 0.9872 0.0
C177 C 0.11186 0.66014 0.96949 0.0
C178 C 0.01987 0.65099 0.90623 0.0
C179 C 0.9771 0.6536 0.89359 0.0
C180 C 0.53397 0.80583 0.16703 0.0
C181 C 0.53096 0.81702 0.1483 0.0
C182 C 0.57573 0.82979 0.13984 0.0
C183 C 0.62314 0.82965 0.15001 0.0
H184 H 0.78552 0.8015 0.1474 0.0
H185 H 0.86904 0.79609 0.13455 0.0
H186 H 0.94335 0.8108 0.18862 0.0
H187 H 0.86023 0.81579 0.20175 0.0
H188 H 0.7919 0.78271 0.23636 0.0
H189 H 0.77985 0.76363 0.26869 0.0
H190 H 0.62048 0.80184 0.26022 0.0
H191 H 0.63176 0.82131 0.22838 0.0
H192 H 0.58102 0.7967 0.19155 0.0
H193 H 0.49995 0.7959 0.17381 0.0
H194 H 0.57405 0.83874 0.12536 0.0
H195 H 0.65725 0.83885 0.14319 0.0
N196 N 0.72134 0.81528 0.17263 0.0
N197 N 0.76277 0.80812 0.20214 0.0
N198 N 0.67395 0.81321 0.19858 0.0
C199 C 0.76538 0.8114 0.18362 0.0
C200 C 0.71701 0.80921 0.2097 0.0
C201 C 0.67529 0.81622 0.18014 0.0
C202 C 0.81591 0.80908 0.17563 0.0
C203 C 0.81948 0.80364 0.15661 0.0
C204 C 0.86715 0.80035 0.14923 0.0
C205 C 0.91208 0.80279 0.16069 0.0
C206 C 0.90894 0.80857 0.17962 0.0
C207 C 0.86132 0.81147 0.18705 0.0
C208 C 0.71269 0.80292 0.22967 0.0
C209 C 0.75449 0.78773 0.24148 0.0
C210 C 0.74776 0.77682 0.25993 0.0
C211 C 0.69916 0.78083 0.26672 0.0
C212 C 0.65817 0.7981 0.25517 0.0
C213 C 0.66479 0.8091 0.23691 0.0
C214 C 0.6261 0.81765 0.16882 0.0
C215 C 0.58069 0.80628 0.17715 0.0
C216 C 0.47572 0.0959 0.38922 0.0
C217 C 0.50449 0.05092 0.39026 0.0
C218 C 0.55343 0.05119 0.39911 0.0
C219 C 0.57226 0.09467 0.40791 0.0
H220 H 0.53594 0.30712 0.39367 0.0
H221 H 0.53357 0.3963 0.38445 0.0
H222 H 0.58944 0.44076 0.43886 0.0
H223 H 0.59218 0.35184 0.44833 0.0
H224 H 0.62169 0.26913 0.47788 0.0
H225 H 0.65403 0.24539 0.50876 0.0
H226 H 0.66065 0.08859 0.49235 0.0
H227 H 0.62784 0.11165 0.4613 0.0
H228 H 0.47149 0.17384 0.39783 0.0
H229 H 0.43776 0.09613 0.38247 0.0
H230 H 0.57615 0.0168 0.39998 0.0
H231 H 0.60931 0.093 0.41535 0.0
N232 N 0.55271 0.23029 0.41536 0.0
N233 N 0.5918 0.25538 0.44381 0.0
N234 N 0.58285 0.16925 0.43678 0.0
C235 C 0.56918 0.2679 0.42714 0.0
C236 C 0.59869 0.20609 0.44874 0.0
C237 C 0.55978 0.18087 0.42017 0.0
C238 C 0.56445 0.32207 0.42173 0.0
C239 C 0.54736 0.33572 0.40376 0.0
C240 C 0.546 0.38664 0.39844 0.0
C241 C 0.56138 0.42478 0.411 0.0
C242 C 0.57742 0.41166 0.42902 0.0
C243 C 0.57897 0.36077 0.43435 0.0
C244 C 0.62172 0.19232 0.46711 0.0
C245 C 0.6303 0.22962 0.48071 0.0
C246 C 0.64875 0.21615 0.49837 0.0
C247 C 0.65919 0.16528 0.50276 0.0
C248 C 0.65244 0.12799 0.48916 0.0
C249 C 0.63362 0.14137 0.47147 0.0
C250 C 0.54273 0.13903 0.40788 0.0
C251 C 0.49502 0.14006 0.39792 0.0
C252 C 0.05272 0.36301 0.66105 0.0
C253 C 0.03725 0.32037 0.65058 0.0
C254 C 0.07403 0.28471 0.6459 0.0
C255 C 0.12467 0.28921 0.65296 0.0
H256 H 0.29499 0.29194 0.64563 0.0
H257 H 0.37841 0.28251 0.63308 0.0
H258 H 0.45242 0.30268 0.68695 0.0
H259 H 0.36915 0.31156 0.69985 0.0
H260 H 0.29452 0.28371 0.73413 0.0
H261 H 0.27787 0.26419 0.76604 0.0
H262 H 0.1228 0.31589 0.75613 0.0
H263 H 0.13873 0.33604 0.72467 0.0
H264 H 0.11303 0.39749 0.67791 0.0
H265 H 0.02497 0.39106 0.6647 0.0
H266 H 0.06285 0.25165 0.63778 0.0
H267 H 0.15157 0.25937 0.65027 0.0
N268 N 0.23207 0.31689 0.66988 0.0
N269 N 0.2704 0.30929 0.6998 0.0
N270 N 0.18278 0.32489 0.69526 0.0
C271 C 0.27467 0.30991 0.68133 0.0
C272 C 0.22439 0.31659 0.70685 0.0
C273 C 0.18619 0.32516 0.67688 0.0
C274 C 0.3252 0.30264 0.67376 0.0
C275 C 0.32886 0.29418 0.65489 0.0
C276 C 0.37645 0.28863 0.64767 0.0
C277 C 0.42123 0.29178 0.65915 0.0
C278 C 0.41805 0.29984 0.67798 0.0
C279 C 0.37041 0.30495 0.68526 0.0
C280 C 0.2178 0.31088 0.72673 0.0
C281 C 0.25713 0.29169 0.73885 0.0
C282 C 0.24775 0.28043 0.75706 0.0
C283 C 0.19891 0.28795 0.76329 0.0
C284 C 0.16057 0.30933 0.75149 0.0
C285 C 0.16986 0.32079 0.73346 0.0
C286 C 0.13876 0.32889 0.66506 0.0
C287 C 0.10292 0.36669 0.66854 0.0
Zn288 Zn 0.25765 0.68515 0.14064 0.0
Zn289 Zn 0.15356 0.81285 0.09254 0.0
Zn290 Zn 0.21015 0.74975 0.11516 0.0
C291 C 0.17901 0.72436 0.07318 0.0
C292 C 0.24481 0.86243 0.10599 0.0
O293 O 0.16625 0.74447 0.13935 0.0
O294 O 0.21093 0.70027 0.16061 0.0
C295 C 0.22948 0.63035 0.10814 0.0
O296 O 0.19781 0.70972 0.08898 0.0
O297 O 0.15955 0.76793 0.07098 0.0
O298 O 0.20232 0.86961 0.09725 0.0
O299 O 0.25659 0.81872 0.11288 0.0
O300 O 0.24517 0.62407 0.1247 0.0
O301 O 0.21702 0.67476 0.102 0.0
O302 O 0.28684 0.78135 0.12163 0.0
O303 O 0.32405 0.72189 0.13934 0.0
C304 C 0.3265 0.76313 0.13065 0.0
O305 O 0.13607 0.77031 0.12616 0.0
O306 O 0.08915 0.81399 0.10538 0.0
C307 C 0.1722 0.72665 0.15572 0.0
C308 C 0.09399 0.79274 0.12085 0.0
Zn309 Zn 0.52045 0.67697 0.34585 0.0
Zn310 Zn 0.61959 0.79818 0.39384 0.0
Zn311 Zn 0.55989 0.74071 0.371 0.0
C312 C 0.528 0.8506 0.38147 0.0
C313 C 0.67605 0.78288 0.3649 0.0
O314 O 0.55754 0.66502 0.38345 0.0
O315 O 0.53786 0.61381 0.35997 0.0
C316 C 0.44172 0.74379 0.35845 0.0
O317 O 0.51308 0.80773 0.37457 0.0
O318 O 0.57166 0.85547 0.38958 0.0
O319 O 0.68369 0.79919 0.38107 0.0
O320 O 0.63247 0.76382 0.35937 0.0
O321 O 0.45127 0.70569 0.34869 0.0
O322 O 0.4791 0.76827 0.36673 0.0
O323 O 0.60165 0.74069 0.34581 0.0
O324 O 0.55967 0.69505 0.32436 0.0
C325 C 0.59622 0.72414 0.3292 0.0
O326 O 0.57635 0.69878 0.39681 0.0
O327 O 0.61517 0.7547 0.4156 0.0
C328 C 0.55014 0.62017 0.37681 0.0
C329 C 0.59595 0.71138 0.41277 0.0
Zn330 Zn 0.66879 0.29459 0.59292 0.0
Zn331 Zn 0.76327 0.16619 0.64438 0.0
Zn332 Zn 0.72054 0.23078 0.61733 0.0
C333 C 0.83253 0.24635 0.6369 0.0
C334 C 0.74287 0.11134 0.61122 0.0
O335 O 0.645 0.2532 0.62631 0.0
O336 O 0.60325 0.2998 0.60502 0.0
C337 C 0.76068 0.34145 0.60716 0.0
O338 O 0.79511 0.26275 0.62625 0.0
O339 O 0.82859 0.20565 0.64583 0.0
O340 O 0.75656 0.1054 0.62798 0.0
O341 O 0.72997 0.15538 0.60485 0.0
O342 O 0.72031 0.34919 0.59717 0.0
O343 O 0.76877 0.29859 0.61525 0.0
O344 O 0.71204 0.18953 0.59132 0.0
O345 O 0.67499 0.24622 0.57236 0.0
C346 C 0.69438 0.20287 0.57523 0.0
O347 O 0.67179 0.22651 0.64025 0.0
O348 O 0.71042 0.18029 0.66235 0.0
C349 C 0.60477 0.2777 0.62035 0.0
C350 C 0.67349 0.20793 0.65653 0.0
Zn351 Zn 1.00567 0.19127 0.84011 0.0
Zn352 Zn 0.10854 0.31641 0.88972 0.0
Zn353 Zn 0.05299 0.25474 0.86615 0.0
C354 C 0.08274 0.22699 0.90809 0.0
C355 C 0.01825 0.36719 0.87597 0.0
O356 O 0.09691 0.25121 0.84182 0.0
O357 O 0.05212 0.20829 0.82023 0.0
C358 C 0.03423 0.135 0.87218 0.0
O359 O 0.06534 0.21317 0.89199 0.0
O360 O 0.10095 0.2708 0.91091 0.0
O361 O 0.06052 0.37399 0.8849 0.0
O362 O 0.0066 0.32368 0.86887 0.0
O363 O 0.01884 0.12932 0.85555 0.0
O364 O 0.04625 0.1792 0.87863 0.0
O365 O 0.97653 0.28665 0.85999 0.0
O366 O 0.93915 0.22789 0.84198 0.0
C367 C 0.93679 0.26879 0.85096 0.0
O368 O 0.12678 0.27545 0.85549 0.0
O369 O 0.17358 0.31596 0.8772 0.0
C370 C 0.09076 0.23454 0.82527 0.0
C371 C 0.16902 0.29637 0.86142 0.0
C372 C 0.26432 0.51982 0.07842 0.0
C373 C 0.22275 0.48674 0.0809 0.0
C374 C 0.18086 0.55243 0.0984 0.0
C375 C 0.22298 0.58493 0.09629 0.0
N376 N 0.29842 0.60544 0.081 0.0
N377 N 0.13661 0.47457 0.08941 0.0
C378 C 0.26258 0.57053 0.08513 0.0
C379 C 0.17939 0.50409 0.08969 0.0
N380 N 0.30633 0.502 0.07038 0.0
N381 N 0.14301 0.56739 0.1092 0.0
H382 H 0.13448 0.43878 0.0833 0.0
H383 H 0.10194 0.48683 0.09393 0.0
H384 H 0.14133 0.60375 0.1148 0.0
H385 H 0.11445 0.54344 0.11325 0.0
H386 H 0.34021 0.52218 0.06995 0.0
H387 H 0.30855 0.46539 0.06506 0.0
H388 H 0.32564 0.59914 0.07155 0.0
H389 H 0.29821 0.64261 0.08592 0.0
C390 C 0.77742 0.83462 0.33524 0.0
C391 C 0.80703 0.79025 0.33309 0.0
C392 C 0.74416 0.73944 0.34828 0.0
C393 C 0.7181 0.78478 0.35245 0.0
N394 N 0.70788 0.87536 0.34996 0.0
N395 N 0.82049 0.70057 0.33748 0.0
C396 C 0.73401 0.83235 0.34584 0.0
C397 C 0.79055 0.74253 0.33938 0.0
N398 N 0.79057 0.87861 0.32688 0.0
N399 N 0.72464 0.69352 0.35292 0.0
H400 H 0.85379 0.70108 0.33048 0.0
H401 H 0.81416 0.6658 0.34362 0.0
H402 H 0.69226 0.68974 0.36029 0.0
H403 H 0.73828 0.65888 0.34846 0.0
H404 H 0.76818 0.91121 0.32632 0.0
H405 H 0.82255 0.8816 0.31924 0.0
H406 H 0.72044 0.91193 0.34747 0.0
H407 H 0.67396 0.87466 0.3566 0.0
C408 C 0.83467 0.45315 0.59352 0.0
C409 C 0.81243 0.48824 0.60531 0.0
C410 C 0.78682 0.41844 0.62462 0.0
C411 C 0.79591 0.38465 0.61015 0.0
N412 N 0.83627 0.36605 0.58249 0.0
N413 N 0.77551 0.50634 0.63374 0.0
C414 C 0.82386 0.40068 0.59537 0.0
C415 C 0.79247 0.47144 0.62174 0.0
N416 N 0.86367 0.47079 0.58011 0.0
N417 N 0.77044 0.39959 0.64057 0.0
H418 H 0.78092 0.54519 0.63198 0.0
H419 H 0.75554 0.49721 0.6451 0.0
H420 H 0.76617 0.36069 0.6426 0.0
H421 H 0.76524 0.42154 0.65214 0.0
H422 H 0.88327 0.44752 0.57146 0.0
H423 H 0.87122 0.50941 0.57871 0.0
H424 H 0.8523 0.37532 0.57031 0.0
H425 H 0.82916 0.32739 0.58401 0.0
C426 C 0.79586 0.27534 0.85529 0.0
C427 C 0.78307 0.31877 0.8445 0.0
C428 C 0.87372 0.33824 0.8424 0.0
C429 C 0.8862 0.29292 0.85207 0.0
N430 N 0.86178 0.22882 0.87309 0.0
N431 N 0.80796 0.39956 0.83291 0.0
C432 C 0.84796 0.26519 0.86041 0.0
C433 C 0.82164 0.3532 0.83995 0.0
N434 N 0.7588 0.24184 0.85948 0.0
N435 N 0.91102 0.36488 0.83454 0.0
H436 H 0.76985 0.41086 0.83107 0.0
H437 H 0.83397 0.42816 0.83057 0.0
H438 H 0.94942 0.35476 0.83615 0.0
H439 H 0.90381 0.39527 0.82568 0.0
H440 H 0.76658 0.20636 0.86525 0.0
H441 H 0.7201 0.24824 0.85628 0.0
H442 H 0.83587 0.21014 0.88087 0.0
H443 H 0.89989 0.22108 0.87711 0.0
C444 C 0.94349 0.47889 0.88879 0.0
C445 C 0.96799 0.51524 0.87816 0.0
C446 C 1.00196 0.44806 0.85945 0.0
C447 C 0.98588 0.4123 0.87228 0.0
N448 N 0.92803 0.38937 0.89474 0.0
N449 N 1.00473 0.53657 0.85006 0.0
C450 C 0.95125 0.42639 0.88532 0.0
C451 C 0.99114 0.50031 0.8621 0.0
N452 N 0.91619 0.4951 0.90293 0.0
N453 N 0.03072 0.43192 0.84568 0.0
H454 H 0.9969 0.57492 0.85209 0.0
H455 H 0.0201 0.52882 0.83762 0.0
H456 H 0.03747 0.39347 0.8434 0.0
H457 H 0.04812 0.45587 0.83671 0.0
H458 H 0.90085 0.47117 0.91241 0.0
H459 H 0.90925 0.53357 0.90515 0.0
H460 H 0.90072 0.39624 0.90411 0.0
H461 H 0.93391 0.35096 0.89204 0.0
C462 C 0.98611 0.84559 0.14718 0.0
C463 C 0.96245 0.8003 0.15265 0.0
C464 C 0.02711 0.74943 0.13832 0.0
C465 C 0.05114 0.79478 0.13302 0.0
N466 N 0.06196 0.88509 0.13658 0.0
N467 N 0.96681 0.71007 0.1576 0.0
C468 C 0.03312 0.84266 0.1387 0.0
C469 C 0.98515 0.75247 0.14959 0.0
N470 N 0.96294 0.89133 0.14967 0.0
N471 N 0.04253 0.70365 0.1318 0.0
H472 H 0.93555 0.71093 0.16567 0.0
H473 H 0.98523 0.67506 0.15762 0.0
H474 H 0.07273 0.6997 0.12336 0.0
H475 H 0.02302 0.66988 0.13358 0.0
H476 H 0.97506 0.92506 0.14401 0.0
H477 H 0.92947 0.89518 0.15645 0.0
H478 H 0.05359 0.92025 0.14216 0.0
H479 H 0.0972 0.88411 0.13081 0.0
C480 C 0.52011 0.51064 0.40757 0.0
C481 C 0.56233 0.47842 0.40493 0.0
C482 C 0.60101 0.54355 0.38647 0.0
C483 C 0.55801 0.57504 0.38861 0.0
N484 N 0.48287 0.59486 0.40437 0.0
N485 N 0.64796 0.46736 0.39573 0.0
C486 C 0.51969 0.5607 0.40032 0.0
C487 C 0.60449 0.49601 0.3956 0.0
N488 N 0.47944 0.49247 0.41626 0.0
N489 N 0.63786 0.5588 0.37533 0.0
H490 H 0.65147 0.43215 0.40217 0.0
H491 H 0.68189 0.47985 0.39074 0.0
H492 H 0.63821 0.59483 0.36945 0.0
H493 H 0.66702 0.5354 0.3713 0.0
H494 H 0.44497 0.51171 0.41681 0.0
H495 H 0.47902 0.45646 0.42213 0.0
H496 H 0.45687 0.58875 0.41426 0.0
H497 H 0.48073 0.6313 0.39886 0.0
C498 C 0.95114 0.29845 0.66145 0.0
C499 C 0.98204 0.3092 0.6467 0.0
C500 C 0.91196 0.28388 0.62473 0.0
C501 C 0.88071 0.27537 0.63953 0.0
N502 N 0.86538 0.29017 0.67119 0.0
N503 N 0.98779 0.32434 0.61442 0.0
C504 C 0.89867 0.28799 0.65763 0.0
C505 C 0.96102 0.30599 0.62834 0.0
N506 N 0.9723 0.29471 0.679 0.0
N507 N 0.89639 0.26801 0.60745 0.0
H508 H 0.02369 0.3409 0.61669 0.0
H509 H 0.97241 0.3275 0.60096 0.0
H510 H 0.86112 0.25106 0.60424 0.0
H511 H 0.91999 0.2682 0.59657 0.0
H512 H 0.95214 0.28173 0.68985 0.0
H513 H 0.01108 0.29939 0.68251 0.0
H514 H 0.87559 0.30374 0.68432 0.0
H515 H 0.82633 0.28374 0.6687 0.0
C516 C 0.49257 0.23987 0.64775 0.0
C517 C 0.47147 0.2882 0.65114 0.0
C518 C 0.54341 0.32911 0.6375 0.0
C519 C 0.56024 0.28092 0.63167 0.0
N520 N 0.54833 0.19023 0.6296 0.0
N521 N 0.47419 0.37926 0.64837 0.0
C522 C 0.53444 0.2361 0.63649 0.0
C523 C 0.4963 0.33301 0.64585 0.0
N524 N 0.47291 0.19771 0.65549 0.0
N525 N 0.57349 0.37084 0.63572 0.0
H526 H 0.44056 0.38384 0.65501 0.0
H527 H 0.4873 0.41275 0.64283 0.0
H528 H 0.60884 0.36923 0.63005 0.0
H529 H 0.56593 0.40596 0.64149 0.0
H530 H 0.4901 0.16212 0.65522 0.0
H531 H 0.44189 0.19922 0.66367 0.0
H532 H 0.52763 0.15704 0.6311 0.0
H533 H 0.57831 0.18582 0.62109 0.0
C534 C 0.44121 0.84755 0.14235 0.0
C535 C 0.48019 0.81306 0.13803 0.0
C536 C 0.41604 0.75921 0.12184 0.0
C537 C 0.37722 0.7872 0.12987 0.0
N538 N 0.35149 0.85929 0.14731 0.0
N539 N 0.50524 0.73551 0.12345 0.0
C540 C 0.38921 0.83256 0.13962 0.0
C541 C 0.46793 0.76931 0.1273 0.0
N542 N 0.45436 0.89409 0.14937 0.0
N543 N 0.40295 0.72267 0.10911 0.0
H544 H 0.54381 0.74172 0.12696 0.0
H545 H 0.49774 0.69989 0.11772 0.0
H546 H 0.36503 0.715 0.10481 0.0
H547 H 0.42935 0.70382 0.10153 0.0
H548 H 0.42805 0.92271 0.1515 0.0
H549 H 0.49234 0.90552 0.15141 0.0
H550 H 0.3583 0.88967 0.15624 0.0
H551 H 0.31315 0.84922 0.1455 0.0
C552 C 0.28571 0.25472 0.83726 0.0
C553 C 0.30271 0.30213 0.83087 0.0
C554 C 0.22935 0.3451 0.84305 0.0
C555 C 0.21272 0.29777 0.84968 0.0
N556 N 0.21891 0.20644 0.85054 0.0
N557 N 0.28747 0.39056 0.82445 0.0
C558 C 0.23883 0.25216 0.84587 0.0
C559 C 0.27345 0.34682 0.83279 0.0
N560 N 0.31562 0.21257 0.83579 0.0
N561 N 0.20298 0.38835 0.8467 0.0
H562 H 0.3199 0.39312 0.81703 0.0
H563 H 0.26552 0.42343 0.82372 0.0
H564 H 0.16835 0.38806 0.85288 0.0
H565 H 0.21589 0.42479 0.84421 0.0
H566 H 0.30883 0.17809 0.84206 0.0
H567 H 0.34943 0.21265 0.82909 0.0
H568 H 0.23235 0.17167 0.84612 0.0
H569 H 0.18659 0.20292 0.85795 0.0
C570 C 0.29989 0.73189 0.34811 0.0
C571 C 0.28578 0.78381 0.34675 0.0
C572 C 0.36876 0.80768 0.36158 0.0
C573 C 0.38614 0.75742 0.35941 0.0
N574 N 0.36059 0.67008 0.36094 0.0
N575 N 0.30593 0.87184 0.35252 0.0
C576 C 0.34921 0.71883 0.35581 0.0
C577 C 0.31985 0.82197 0.35371 0.0
N578 N 0.2674 0.69521 0.3411 0.0
N579 N 0.39548 0.83934 0.37327 0.0
H580 H 0.26957 0.8835 0.34761 0.0
H581 H 0.33141 0.90148 0.3554 0.0
H582 H 0.42389 0.82482 0.38237 0.0
H583 H 0.38334 0.87572 0.37647 0.0
H584 H 0.27813 0.65747 0.33958 0.0
H585 H 0.23058 0.70293 0.33559 0.0
H586 H 0.33412 0.64069 0.3602 0.0
H587 H 0.3949 0.66059 0.36817 0.0
C588 C 0.6956 0.98538 0.59163 0.0
C589 C 0.74083 0.96759 0.58415 0.0
C590 C 0.78059 0.05101 0.58943 0.0
C591 C 0.73861 0.06581 0.59938 0.0
N592 N 0.65553 0.04905 0.60998 0.0
N593 N 0.82696 0.98205 0.57601 0.0
C594 C 0.69562 0.03373 0.6003 0.0
C595 C 0.78332 1.00027 0.58284 0.0
N596 N 0.65252 0.95624 0.59016 0.0
N597 N 0.81764 0.08563 0.5863 0.0
H598 H 0.82993 0.94543 0.57075 0.0
H599 H 0.86119 1.00193 0.5765 0.0
H600 H 0.81654 0.12288 0.59112 0.0
H601 H 0.84694 0.07903 0.5777 0.0
H602 H 0.61689 0.96887 0.59364 0.0
H603 H 0.6514 0.92038 0.58409 0.0
H604 H 0.6258 0.02537 0.61319 0.0
H605 H 0.65302 0.08539 0.61553 0.0
C606 C 0.2711 0.99608 0.11913 0.0
C607 C 0.29494 0.00997 0.10312 0.0
C608 C 0.31236 0.92063 0.09666 0.0
C609 C 0.27734 0.90739 0.10964 0.0
N610 N 0.23185 0.92856 0.13597 0.0
N611 N 0.34815 0.98821 0.07886 0.0
C612 C 0.2607 0.94395 0.12215 0.0
C613 C 0.32011 0.97291 0.0929 0.0
N614 N 0.25649 0.03311 0.13077 0.0
N615 N 0.33596 0.88298 0.08757 0.0
H616 H 0.35507 0.02652 0.07644 0.0
H617 H 0.36423 0.9637 0.06969 0.0
H618 H 0.3301 0.84477 0.09051 0.0
H619 H 0.36346 0.88918 0.07824 0.0
H620 H 0.24032 0.02621 0.14312 0.0
H621 H 0.26401 0.07135 0.12852 0.0
H622 H 0.21423 0.95295 0.14478 0.0
H623 H 0.2254 0.89021 0.13849 0.0
C624 C 0.49549 0.98157 0.36694 0.0
C625 C 0.48334 1.0012 0.38414 0.0
C626 C 0.47694 0.91585 0.39651 0.0
C627 C 0.49601 0.89662 0.38021 0.0
N628 N 0.50735 0.90665 0.34813 0.0
N629 N 0.44418 0.98861 0.41248 0.0
C630 C 0.49893 0.92808 0.36467 0.0
C631 C 0.46691 0.96852 0.39785 0.0
N632 N 0.50718 0.01432 0.35342 0.0
N633 N 0.47207 0.88413 0.41104 0.0
H634 H 0.43722 0.02745 0.41358 0.0
H635 H 0.42833 0.96684 0.4225 0.0
H636 H 0.47788 0.84505 0.41008 0.0
H637 H 0.46399 0.89644 0.42406 0.0
H638 H 0.52162 1.0031 0.34114 0.0
H639 H 0.50313 0.0535 0.35484 0.0
H640 H 0.5075 0.9269 0.33594 0.0
H641 H 0.51007 0.86742 0.34647 0.0
C642 C 0.08476 0.00836 0.89019 0.0
C643 C 0.04222 0.99165 0.89952 0.0
C644 C 1.00225 0.07551 0.89543 0.0
C645 C 0.04091 0.08926 0.8838 0.0
N646 N 0.11965 0.07071 0.8701 0.0
N647 N 0.95969 0.00779 0.91086 0.0
C648 C 0.08267 0.05637 0.88132 0.0
C649 C 1.001 0.02507 0.90233 0.0
N650 N 0.1274 0.97855 0.89012 0.0
N651 N 0.96682 0.11075 0.89983 0.0
H652 H 0.95787 0.9714 0.91635 0.0
H653 H 0.92592 0.02817 0.91156 0.0
H654 H 0.9664 0.14766 0.89471 0.0
H655 H 0.94056 0.10497 0.90965 0.0
H656 H 0.16164 0.99037 0.88518 0.0
H657 H 0.12997 0.94298 0.89634 0.0
H658 H 0.14776 0.04642 0.86581 0.0
H659 H 0.12103 0.10687 0.86437 0.0
C660 C 0.05668 0.18715 0.95523 0.0
C661 C 0.10727 0.17276 0.96087 0.0
C662 C 0.12785 0.16581 0.92884 0.0
C663 C 0.08249 0.19246 0.92385 0.0
N664 N 0.99921 0.22091 0.9307 0.0
N665 N 0.19 0.14237 0.95342 0.0
C666 C 0.0448 0.19949 0.93652 0.0
C667 C 0.14217 0.15872 0.94774 0.0
N668 N 0.021 0.19023 0.96794 0.0
N669 N 0.15758 0.14917 0.91544 0.0
H670 H 0.20118 0.1358 0.96716 0.0
H671 H 0.21917 0.13699 0.94466 0.0
H672 H 0.14694 0.15463 0.90156 0.0
H673 H 0.18969 0.12638 0.91789 0.0
H674 H 0.98258 0.19788 0.96475 0.0
H675 H 0.02953 0.1811 0.98169 0.0
H676 H 0.97151 0.23217 0.93939 0.0
H677 H 0.98966 0.22813 0.91685 0.0
C678 C 0.09009 0.80043 0.18748 0.0
C679 C 0.07635 0.76077 0.1991 0.0
C680 C 0.10993 0.69878 0.17807 0.0
C681 C 0.1343 0.73877 0.16915 0.0
N682 N 0.14992 0.82876 0.16604 0.0
N683 N 0.0713 0.67139 0.20553 0.0
C684 C 0.12419 0.79008 0.17372 0.0
C685 C 0.08472 0.70954 0.19422 0.0
N686 N 0.07143 0.84809 0.19002 0.0
N687 N 0.11048 0.65083 0.17097 0.0
H688 H 0.05128 0.67787 0.21716 0.0
H689 H 0.08217 0.63374 0.20389 0.0
H690 H 0.12798 0.64215 0.15895 0.0
H691 H 0.08942 0.62102 0.17591 0.0
H692 H 0.07641 0.8779 0.18099 0.0
H693 H 0.04636 0.85601 0.20015 0.0
H694 H 0.14756 0.86637 0.17029 0.0
H695 H 0.17704 0.82309 0.15648 0.0
C696 C 0.57278 0.66795 0.45979 0.0
C697 C 0.62379 0.65411 0.46502 0.0
C698 C 0.6431 0.64986 0.43281 0.0
C699 C 0.59709 0.67595 0.4283 0.0
N700 N 0.51372 0.70232 0.43586 0.0
N701 N 0.70643 0.62539 0.45688 0.0
C702 C 0.55987 0.68134 0.44124 0.0
C703 C 0.65826 0.64154 0.45158 0.0
N704 N 0.53771 0.66958 0.47274 0.0
N705 N 0.67259 0.63493 0.41909 0.0
H706 H 0.71809 0.61785 0.47052 0.0
H707 H 0.7353 0.62099 0.44794 0.0
H708 H 0.66137 0.64137 0.40532 0.0
H709 H 0.7052 0.61264 0.42115 0.0
H710 H 0.49908 0.67678 0.46984 0.0
H711 H 0.54703 0.6597 0.48637 0.0
H712 H 0.48624 0.71241 0.4448 0.0
H713 H 0.50344 0.71037 0.42212 0.0
C714 C 0.57813 0.19455 0.69271 0.0
C715 C 0.57153 0.24606 0.69755 0.0
C716 C 0.62481 0.27327 0.6734 0.0
C717 C 0.63345 0.22158 0.66896 0.0
N718 N 0.6056 0.13471 0.6701 0.0
N719 N 0.57175 0.33344 0.68859 0.0
C720 C 0.60575 0.18267 0.6772 0.0
C721 C 0.58871 0.28503 0.68632 0.0
N722 N 0.56067 0.15715 0.70354 0.0
N723 N 0.65375 0.31085 0.66651 0.0
H724 H 0.54538 0.34233 0.69818 0.0
H725 H 0.57951 0.36306 0.6798 0.0
H726 H 0.68248 0.30415 0.65766 0.0
H727 H 0.65224 0.34847 0.67081 0.0
H728 H 0.56979 0.11898 0.70206 0.0
H729 H 0.5387 0.1648 0.71459 0.0
H730 H 0.58248 0.10578 0.67451 0.0
H731 H 0.62492 0.12531 0.65854 0.0
C732 C 0.20702 0.68877 0.02572 0.0
C733 C 0.15653 0.67537 0.01958 0.0
C734 C 0.13428 0.66581 0.05132 0.0
C735 C 0.17972 0.69137 0.05696 0.0
N736 N 0.26362 0.71969 0.05101 0.0
N737 N 0.07297 0.64548 0.02611 0.0
C738 C 0.2181 0.69923 0.04464 0.0
C739 C 0.12078 0.66066 0.03228 0.0
N740 N 0.2434 0.69261 0.01331 0.0
N741 N 0.10376 0.64825 0.0643 0.0
H742 H 0.06228 0.64038 0.01224 0.0
H743 H 0.04332 0.63971 0.03461 0.0
H744 H 0.11389 0.65224 0.07829 0.0
H745 H 0.07149 0.62612 0.06135 0.0
H746 H 0.28177 0.69951 0.01685 0.0
H747 H 0.23551 0.68488 -0.0006 0.0
H748 H 0.29179 0.73157 0.04265 0.0
H749 H 0.27263 0.72551 0.06499 0.0
C750 C 0.68229 0.71387 0.28996 0.0
C751 C 0.68876 0.76578 0.28565 0.0
C752 C 0.6407 0.79112 0.31166 0.0
C753 C 0.63301 0.73912 0.31572 0.0
N754 N 0.66069 0.65247 0.31281 0.0
N755 N 0.6898 0.85261 0.2956 0.0
C756 C 0.65858 0.70091 0.30619 0.0
C757 C 0.67354 0.80397 0.29775 0.0
N758 N 0.69579 0.67702 0.27804 0.0
N759 N 0.61402 0.82806 0.32005 0.0
H760 H 0.71411 0.86245 0.28546 0.0
H761 H 0.68366 0.88156 0.30492 0.0
H762 H 0.58813 0.82053 0.32987 0.0
H763 H 0.61436 0.86605 0.3162 0.0
H764 H 0.68605 0.639 0.27937 0.0
H765 H 0.7142 0.6848 0.26618 0.0
H766 H 0.68289 0.62407 0.30741 0.0
H767 H 0.64448 0.64211 0.32489 0.0
C768 C 0.72612 0.16465 0.52855 0.0
C769 C 0.67576 0.15228 0.52195 0.0
C770 C 0.65084 0.14364 0.55339 0.0
C771 C 0.69631 0.16859 0.55941 0.0
N772 N 0.78145 0.1948 0.55433 0.0
N773 N 0.59123 0.12352 0.52764 0.0
C774 C 0.73597 0.1752 0.54752 0.0
C775 C 0.63878 0.13821 0.53427 0.0
N776 N 0.76351 0.16771 0.51651 0.0
N777 N 0.61886 0.12717 0.56608 0.0
H778 H 0.58171 0.11817 0.51369 0.0
H779 H 0.56076 0.11819 0.5358 0.0
H780 H 0.62796 0.13151 0.58012 0.0
H781 H 0.5863 0.10565 0.56288 0.0
H782 H 0.80179 0.17403 0.52038 0.0
H783 H 0.75642 0.15992 0.50256 0.0
H784 H 0.81071 0.20569 0.54628 0.0
H785 H 0.78935 0.20084 0.56835 0.0
C786 C 0.17202 0.31125 0.79417 0.0
C787 C 0.18567 0.27274 0.78192 0.0
C788 C 0.15168 0.2088 0.80204 0.0
C789 C 0.12817 0.24792 0.81179 0.0
N790 N 0.1126 0.33753 0.81616 0.0
N791 N 0.18737 0.18402 0.77369 0.0
C792 C 0.13816 0.2996 0.80787 0.0
C793 C 0.1761 0.22109 0.78587 0.0
N794 N 0.19075 0.35912 0.79238 0.0
N795 N 0.15115 0.1601 0.80836 0.0
H796 H 0.20584 0.19123 0.7618 0.0
H797 H 0.17549 0.14656 0.77481 0.0
H798 H 0.13433 0.15019 0.82038 0.0
H799 H 0.17177 0.13076 0.80278 0.0
H800 H 0.18562 0.38802 0.80182 0.0
H801 H 0.21596 0.36819 0.78243 0.0
H802 H 0.11472 0.37551 0.81241 0.0
H803 H 0.08569 0.33094 0.8257 0.0
loop_
_geom_bond_atom_site_label_1
_geom_bond_atom_site_label_2
_geom_bond_distance
_geom_bond_site_symmetry_2
_ccdc_geom_bond_type
C0 C1 1.384 . S
C0 H13 0.947 . S
C0 C35 1.382 . S
C1 C0 1.384 . S
C1 C2 1.378 . S
C2 C1 1.378 . S
C2 C3 1.378 . S
C2 H14 0.952 . S
C3 C2 1.378 . S
C3 H15 0.950 . S
C3 C34 1.383 . S
H4 C23 0.947 . S
H5 C24 0.946 . S
H6 C26 0.953 . S
H7 C27 0.945 . S
H8 C29 0.952 . S
H9 C30 0.941 1_556 S
H10 C32 0.920 1_556 S
H11 C33 0.948 . S
H12 C35 0.951 . S
H13 C0 0.947 . S
H14 C2 0.952 . S
H15 C3 0.950 . S
N16 C19 1.382 . S
N16 C21 1.363 . S
N17 C19 1.371 . S
N17 C20 1.372 . S
N18 C20 1.361 . S
N18 C21 1.377 . S
C19 N16 1.382 . S
C19 N17 1.371 . S
C19 C22 1.480 . S
C20 N17 1.372 . S
C20 N18 1.361 . S
C20 C28 1.457 . S
C21 N16 1.363 . S
C21 N18 1.377 . S
C21 C34 1.479 . S
C22 C19 1.480 . S
C22 C23 1.383 . S
C22 C27 1.385 . S
C23 H4 0.947 . S
C23 C22 1.383 . S
C23 C24 1.388 . S
C24 H5 0.946 . S
C24 C23 1.388 . S
C24 C25 1.384 . S
C25 C24 1.384 . S
C25 C26 1.377 . S
C26 H6 0.953 . S
C26 C25 1.377 . S
C26 C27 1.369 . S
C27 H7 0.945 . S
C27 C22 1.385 . S
C27 C26 1.369 . S
C28 C20 1.457 . S
C28 C29 1.372 . S
C28 C33 1.364 . S
C29 H8 0.952 . S
C29 C28 1.372 . S
C29 C30 1.405 . S
C30 H9 0.941 1_554 S
C30 C29 1.405 . S
C30 C31 1.379 1_554 S
C31 C30 1.379 1_556 S
C31 C32 1.342 1_556 S
C32 H10 0.920 1_554 S
C32 C31 1.342 1_554 S
C32 C33 1.441 . S
C33 H11 0.948 . S
C33 C28 1.364 . S
C33 C32 1.441 . S
C34 C3 1.383 . S
C34 C21 1.479 . S
C34 C35 1.398 . S
C35 C0 1.382 . S
C35 H12 0.951 . S
C35 C34 1.398 . S
C36 C37 1.384 . S
C36 H49 0.947 . S
C36 C71 1.382 . S
C37 C36 1.384 . S
C37 C38 1.378 . S
C38 C37 1.378 . S
C38 C39 1.378 . S
C38 H50 0.952 . S
C39 C38 1.378 . S
C39 H51 0.950 . S
C39 C70 1.383 . S
H40 C59 0.947 . S
H41 C60 0.946 . S
H42 C62 0.953 . S
H43 C63 0.945 . S
H44 C65 0.952 . S
H45 C66 0.949 . S
H46 C68 0.950 . S
H47 C69 0.948 . S
H48 C71 0.951 . S
H49 C36 0.947 . S
H50 C38 0.952 . S
H51 C39 0.950 . S
N52 C55 1.382 . S
N52 C57 1.363 . S
N53 C55 1.371 . S
N53 C56 1.372 . S
N54 C56 1.361 . S
N54 C57 1.377 . S
C55 N52 1.382 . S
C55 N53 1.371 . S
C55 C58 1.480 . S
C56 N53 1.372 . S
C56 N54 1.361 . S
C56 C64 1.457 . S
C57 N52 1.363 . S
C57 N54 1.377 . S
C57 C70 1.479 . S
C58 C55 1.480 . S
C58 C59 1.383 . S
C58 C63 1.385 1_455 S
C59 H40 0.947 . S
C59 C58 1.383 . S
C59 C60 1.388 1_455 S
C60 H41 0.946 . S
C60 C59 1.388 1_655 S
C60 C61 1.384 . S
C61 C60 1.384 . S
C61 C62 1.377 . S
C62 H42 0.953 . S
C62 C61 1.377 . S
C62 C63 1.369 . S
C63 H43 0.945 . S
C63 C58 1.385 1_655 S
C63 C62 1.369 . S
C64 C56 1.457 . S
C64 C65 1.372 . S
C64 C69 1.364 . S
C65 H44 0.952 . S
C65 C64 1.372 . S
C65 C66 1.389 . S
C66 H45 0.949 . S
C66 C65 1.389 . S
C66 C67 1.387 . S
C67 C66 1.387 . S
C67 C68 1.372 . S
C68 H46 0.950 . S
C68 C67 1.372 . S
C68 C69 1.379 . S
C69 H47 0.948 . S
C69 C64 1.364 . S
C69 C68 1.379 . S
C70 C39 1.383 . S
C70 C57 1.479 . S
C70 C71 1.398 . S
C71 C36 1.382 . S
C71 H48 0.951 . S
C71 C70 1.398 . S
C72 C73 1.384 . S
C72 H85 0.947 . S
C72 C107 1.382 . S
C73 C72 1.384 . S
C73 C74 1.378 . S
C74 C73 1.378 . S
C74 C75 1.378 . S
C74 H86 0.952 . S
C75 C74 1.378 . S
C75 H87 0.950 . S
C75 C106 1.383 . S
H76 C95 0.947 . S
H77 C96 0.946 . S
H78 C98 0.953 . S
H79 C99 0.945 . S
H80 C101 0.952 . S
H81 C102 0.949 . S
H82 C104 0.950 . S
H83 C105 0.948 . S
H84 C107 0.951 . S
H85 C72 0.947 . S
H86 C74 0.952 . S
H87 C75 0.950 . S
N88 C91 1.382 . S
N88 C93 1.363 . S
N89 C91 1.371 . S
N89 C92 1.372 . S
N90 C92 1.361 . S
N90 C93 1.377 . S
C91 N88 1.382 . S
C91 N89 1.371 . S
C91 C94 1.480 . S
C92 N89 1.372 . S
C92 N90 1.361 . S
C92 C100 1.457 . S
C93 N88 1.363 . S
C93 N90 1.377 . S
C93 C106 1.479 . S
C94 C91 1.480 . S
C94 C95 1.383 . S
C94 C99 1.385 . S
C95 H76 0.947 . S
C95 C94 1.383 . S
C95 C96 1.388 . S
C96 H77 0.946 . S
C96 C95 1.388 . S
C96 C97 1.384 . S
C97 C96 1.384 . S
C97 C98 1.377 . S
C98 H78 0.953 . S
C98 C97 1.377 . S
C98 C99 1.369 . S
C99 H79 0.945 . S
C99 C94 1.385 . S
C99 C98 1.369 . S
C100 C92 1.457 . S
C100 C101 1.372 . S
C100 C105 1.364 . S
C101 H80 0.952 . S
C101 C100 1.372 . S
C101 C102 1.389 . S
C102 H81 0.949 . S
C102 C101 1.389 . S
C102 C103 1.387 . S
C103 C102 1.387 . S
C103 C104 1.372 . S
C104 H82 0.950 . S
C104 C103 1.372 . S
C104 C105 1.379 . S
C105 H83 0.948 . S
C105 C100 1.364 . S
C105 C104 1.379 . S
C106 C75 1.383 . S
C106 C93 1.479 . S
C106 C107 1.398 . S
C107 C72 1.382 . S
C107 H84 0.951 . S
C107 C106 1.398 . S
C108 C109 1.384 . S
C108 H121 0.947 . S
C108 C143 1.382 . S
C109 C108 1.384 . S
C109 C110 1.378 . S
C110 C109 1.378 . S
C110 C111 1.378 . S
C110 H122 0.952 . S
C111 C110 1.378 . S
C111 H123 0.950 . S
C111 C142 1.383 . S
H112 C131 0.947 . S
H113 C132 0.946 . S
H114 C134 0.953 . S
H115 C135 0.945 . S
H116 C137 0.952 . S
H117 C138 0.949 . S
H118 C140 0.950 . S
H119 C141 0.948 . S
H120 C143 0.951 . S
H121 C108 0.947 . S
H122 C110 0.952 . S
H123 C111 0.950 . S
N124 C127 1.382 . S
N124 C129 1.363 . S
N125 C127 1.371 . S
N125 C128 1.372 . S
N126 C128 1.361 . S
N126 C129 1.377 . S
C127 N124 1.382 . S
C127 N125 1.371 . S
C127 C130 1.480 . S
C128 N125 1.372 . S
C128 N126 1.361 . S
C128 C136 1.457 . S
C129 N124 1.363 . S
C129 N126 1.377 . S
C129 C142 1.479 . S
C130 C127 1.480 . S
C130 C131 1.383 . S
C130 C135 1.385 . S
C131 H112 0.947 . S
C131 C130 1.383 . S
C131 C132 1.388 . S
C132 H113 0.946 . S
C132 C131 1.388 . S
C132 C133 1.384 . S
C133 C132 1.384 . S
C133 C134 1.377 . S
C134 H114 0.953 . S
C134 C133 1.377 . S
C134 C135 1.369 . S
C135 H115 0.945 . S
C135 C130 1.385 . S
C135 C134 1.369 . S
C136 C128 1.457 . S
C136 C137 1.372 . S
C136 C141 1.364 . S
C137 H116 0.952 . S
C137 C136 1.372 . S
C137 C138 1.389 . S
C138 H117 0.949 . S
C138 C137 1.389 . S
C138 C139 1.387 . S
C139 C138 1.387 . S
C139 C140 1.372 . S
C140 H118 0.950 . S
C140 C139 1.372 . S
C140 C141 1.379 . S
C141 H119 0.948 . S
C141 C136 1.364 . S
C141 C140 1.379 . S
C142 C111 1.383 . S
C142 C129 1.479 . S
C142 C143 1.398 . S
C143 C108 1.382 . S
C143 H120 0.951 . S
C143 C142 1.398 . S
C144 C145 1.384 . S
C144 H157 0.947 . S
C144 C179 1.382 . S
C145 C144 1.384 . S
C145 C146 1.378 . S
C146 C145 1.378 . S
C146 C147 1.378 . S
C146 H158 0.952 . S
C147 C146 1.378 . S
C147 H159 0.950 . S
C147 C178 1.383 . S
H148 C167 0.947 . S
H149 C168 0.946 . S
H150 C170 0.953 . S
H151 C171 0.945 . S
H152 C173 0.952 . S
H153 C174 0.949 1_554 S
H154 C176 0.950 1_554 S
H155 C177 0.948 . S
H156 C179 0.951 . S
H157 C144 0.947 . S
H158 C146 0.952 . S
H159 C147 0.950 . S
N160 C163 1.382 . S
N160 C165 1.363 . S
N161 C163 1.371 . S
N161 C164 1.372 . S
N162 C164 1.361 . S
N162 C165 1.377 . S
C163 N160 1.382 . S
C163 N161 1.371 . S
C163 C166 1.480 . S
C164 N161 1.372 . S
C164 N162 1.361 . S
C164 C172 1.457 . S
C165 N160 1.363 . S
C165 N162 1.377 . S
C165 C178 1.479 . S
C166 C163 1.480 . S
C166 C167 1.383 . S
C166 C171 1.385 . S
C167 H148 0.947 . S
C167 C166 1.383 . S
C167 C168 1.388 . S
C168 H149 0.946 . S
C168 C167 1.388 . S
C168 C169 1.384 . S
C169 C168 1.384 . S
C169 C170 1.377 . S
C170 H150 0.953 . S
C170 C169 1.377 . S
C170 C171 1.369 . S
C171 H151 0.945 . S
C171 C166 1.385 . S
C171 C170 1.369 . S
C172 C164 1.457 . S
C172 C173 1.372 . S
C172 C177 1.364 . S
C173 H152 0.952 . S
C173 C172 1.372 . S
C173 C174 1.389 . S
C174 H153 0.949 1_556 S
C174 C173 1.389 . S
C174 C175 1.387 1_556 S
C175 C174 1.387 1_554 S
C175 C176 1.372 1_554 S
C176 H154 0.950 1_556 S
C176 C175 1.372 1_556 S
C176 C177 1.379 . S
C177 H155 0.948 . S
C177 C172 1.364 . S
C177 C176 1.379 . S
C178 C147 1.383 . S
C178 C165 1.479 . S
C178 C179 1.398 . S
C179 C144 1.382 . S
C179 H156 0.951 . S
C179 C178 1.398 . S
C180 C181 1.384 . S
C180 H193 0.947 . S
C180 C215 1.382 . S
C181 C180 1.384 . S
C181 C182 1.378 . S
C182 C181 1.378 . S
C182 C183 1.378 . S
C182 H194 0.952 . S
C183 C182 1.378 . S
C183 H195 0.950 . S
C183 C214 1.383 . S
H184 C203 0.947 . S
H185 C204 0.946 . S
H186 C206 0.953 . S
H187 C207 0.945 . S
H188 C209 0.952 . S
H189 C210 0.949 . S
H190 C212 0.950 . S
H191 C213 0.948 . S
H192 C215 0.951 . S
H193 C180 0.947 . S
H194 C182 0.952 . S
H195 C183 0.950 . S
N196 C199 1.382 . S
N196 C201 1.363 . S
N197 C199 1.371 . S
N197 C200 1.372 . S
N198 C200 1.361 . S
N198 C201 1.377 . S
C199 N196 1.382 . S
C199 N197 1.371 . S
C199 C202 1.480 . S
C200 N197 1.372 . S
C200 N198 1.361 . S
C200 C208 1.457 . S
C201 N196 1.363 . S
C201 N198 1.377 . S
C201 C214 1.479 . S
C202 C199 1.480 . S
C202 C203 1.383 . S
C202 C207 1.385 . S
C203 H184 0.947 . S
C203 C202 1.383 . S
C203 C204 1.388 . S
C204 H185 0.946 . S
C204 C203 1.388 . S
C204 C205 1.384 . S
C205 C204 1.384 . S
C205 C206 1.377 . S
C206 H186 0.953 . S
C206 C205 1.377 . S
C206 C207 1.369 . S
C207 H187 0.945 . S
C207 C202 1.385 . S
C207 C206 1.369 . S
C208 C200 1.457 . S
C208 C209 1.372 . S
C208 C213 1.364 . S
C209 H188 0.952 . S
C209 C208 1.372 . S
C209 C210 1.389 . S
C210 H189 0.949 . S
C210 C209 1.389 . S
C210 C211 1.387 . S
C211 C210 1.387 . S
C211 C212 1.372 . S
C212 H190 0.950 . S
C212 C211 1.372 . S
C212 C213 1.379 . S
C213 H191 0.948 . S
C213 C208 1.364 . S
C213 C212 1.379 . S
C214 C183 1.383 . S
C214 C201 1.479 . S
C214 C215 1.398 . S
C215 C180 1.382 . S
C215 H192 0.951 . S
C215 C214 1.398 . S
C216 C217 1.384 . S
C216 H229 0.947 . S
C216 C251 1.382 . S
C217 C216 1.384 . S
C217 C218 1.378 . S
C218 C217 1.378 . S
C218 C219 1.378 . S
C218 H230 0.952 . S
C219 C218 1.378 . S
C219 H231 0.950 . S
C219 C250 1.383 . S
H220 C239 0.947 . S
H221 C240 0.946 . S
H222 C242 0.953 . S
H223 C243 0.945 . S
H224 C245 0.952 . S
H225 C246 0.949 . S
H226 C248 0.950 . S
H227 C249 0.948 . S
H228 C251 0.951 . S
H229 C216 0.947 . S
H230 C218 0.952 . S
H231 C219 0.950 . S
N232 C235 1.382 . S
N232 C237 1.363 . S
N233 C235 1.371 . S
N233 C236 1.372 . S
N234 C236 1.361 . S
N234 C237 1.377 . S
C235 N232 1.382 . S
C235 N233 1.371 . S
C235 C238 1.480 . S
C236 N233 1.372 . S
C236 N234 1.361 . S
C236 C244 1.457 . S
C237 N232 1.363 . S
C237 N234 1.377 . S
C237 C250 1.479 . S
C238 C235 1.480 . S
C238 C239 1.383 . S
C238 C243 1.385 . S
C239 H220 0.947 . S
C239 C238 1.383 . S
C239 C240 1.388 . S
C240 H221 0.946 . S
C240 C239 1.388 . S
C240 C241 1.384 . S
C241 C240 1.384 . S
C241 C242 1.377 . S
C242 H222 0.953 . S
C242 C241 1.377 . S
C242 C243 1.369 . S
C243 H223 0.945 . S
C243 C238 1.385 . S
C243 C242 1.369 . S
C244 C236 1.457 . S
C244 C245 1.372 . S
C244 C249 1.364 . S
C245 H224 0.952 . S
C245 C244 1.372 . S
C245 C246 1.389 . S
C246 H225 0.949 . S
C246 C245 1.389 . S
C246 C247 1.387 . S
C247 C246 1.387 . S
C247 C248 1.372 . S
C248 H226 0.950 . S
C248 C247 1.372 . S
C248 C249 1.379 . S
C249 H227 0.948 . S
C249 C244 1.364 . S
C249 C248 1.379 . S
C250 C219 1.383 . S
C250 C237 1.479 . S
C250 C251 1.398 . S
C251 C216 1.382 . S
C251 H228 0.951 . S
C251 C250 1.398 . S
C252 C253 1.384 . S
C252 H265 0.947 . S
C252 C287 1.382 1_655 S
C253 C252 1.384 . S
C253 C254 1.378 1_655 S
C254 C253 1.378 1_455 S
C254 C255 1.378 . S
C254 H266 0.952 . S
C255 C254 1.378 . S
C255 H267 0.950 . S
C255 C286 1.383 . S
H256 C275 0.947 . S
H257 C276 0.946 . S
H258 C278 0.953 . S
H259 C279 0.945 . S
H260 C281 0.952 . S
H261 C282 0.949 . S
H262 C284 0.950 . S
H263 C285 0.948 . S
H264 C287 0.951 . S
H265 C252 0.947 . S
H266 C254 0.952 . S
H267 C255 0.950 . S
N268 C271 1.382 . S
N268 C273 1.363 . S
N269 C271 1.371 . S
N269 C272 1.372 . S
N270 C272 1.361 . S
N270 C273 1.377 . S
C271 N268 1.382 . S
C271 N269 1.371 . S
C271 C274 1.480 . S
C272 N269 1.372 . S
C272 N270 1.361 . S
C272 C280 1.457 . S
C273 N268 1.363 . S
C273 N270 1.377 . S
C273 C286 1.479 . S
C274 C271 1.480 . S
C274 C275 1.383 . S
C274 C279 1.385 . S
C275 H256 0.947 . S
C275 C274 1.383 . S
C275 C276 1.388 . S
C276 H257 0.946 . S
C276 C275 1.388 . S
C276 C277 1.384 . S
C277 C276 1.384 . S
C277 C278 1.377 . S
C278 H258 0.953 . S
C278 C277 1.377 . S
C278 C279 1.369 . S
C279 H259 0.945 . S
C279 C274 1.385 . S
C279 C278 1.369 . S
C280 C272 1.457 . S
C280 C281 1.372 . S
C280 C285 1.364 . S
C281 H260 0.952 . S
C281 C280 1.372 . S
C281 C282 1.389 . S
C282 H261 0.949 . S
C282 C281 1.389 . S
C282 C283 1.387 . S
C283 C282 1.387 . S
C283 C284 1.372 . S
C284 H262 0.950 . S
C284 C283 1.372 . S
C284 C285 1.379 . S
C285 H263 0.948 . S
C285 C280 1.364 . S
C285 C284 1.379 . S
C286 C255 1.383 . S
C286 C273 1.479 . S
C286 C287 1.398 . S
C287 C252 1.382 1_455 S
C287 H264 0.951 . S
C287 C286 1.398 . S
Zn288 O294 1.920 . S
Zn288 O300 1.898 . S
Zn288 O303 1.905 . S
Zn289 O297 1.905 . S
Zn289 O298 1.898 . S
Zn289 O306 1.920 . S
Zn290 O293 2.080 . S
Zn290 O296 2.114 . S
Zn290 O299 2.120 . S
Zn290 O301 2.120 . S
Zn290 O302 2.114 . S
Zn290 O305 2.080 . S
C291 O296 1.166 . S
C291 O297 1.182 . S
C292 O298 1.167 . S
C292 O299 1.299 . S
O293 Zn290 2.080 . S
O293 C307 1.305 . S
O294 Zn288 1.920 . S
O294 C307 1.234 . S
C295 O300 1.167 . S
C295 O301 1.299 . S
O296 Zn290 2.114 . S
O296 C291 1.166 . S
O297 Zn289 1.905 . S
O297 C291 1.182 . S
O298 Zn289 1.898 . S
O298 C292 1.167 . S
O299 Zn290 2.120 . S
O299 C292 1.299 . S
O300 Zn288 1.898 . S
O300 C295 1.167 . S
O301 Zn290 2.120 . S
O301 C295 1.299 . S
O302 Zn290 2.114 . S
O302 C304 1.166 . S
O303 Zn288 1.905 . S
O303 C304 1.182 . S
C304 O302 1.166 . S
C304 O303 1.182 . S
O305 Zn290 2.080 . S
O305 C308 1.305 . S
O306 Zn289 1.920 . S
O306 C308 1.234 . S
C307 O293 1.305 . S
C307 O294 1.234 . S
C308 O305 1.305 . S
C308 O306 1.234 . S
Zn309 O315 1.920 . S
Zn309 O321 1.898 . S
Zn309 O324 1.905 . S
Zn310 O318 1.905 . S
Zn310 O319 1.898 . S
Zn310 O327 1.920 . S
Zn311 O314 2.080 . S
Zn311 O317 2.114 . S
Zn311 O320 2.120 . S
Zn311 O322 2.120 . S
Zn311 O323 2.114 . S
Zn311 O326 2.080 . S
C312 O317 1.166 . S
C312 O318 1.182 . S
C313 O319 1.167 . S
C313 O320 1.299 . S
O314 Zn311 2.080 . S
O314 C328 1.305 . S
O315 Zn309 1.920 . S
O315 C328 1.234 . S
C316 O321 1.167 . S
C316 O322 1.299 . S
O317 Zn311 2.114 . S
O317 C312 1.166 . S
O318 Zn310 1.905 . S
O318 C312 1.182 . S
O319 Zn310 1.898 . S
O319 C313 1.167 . S
O320 Zn311 2.120 . S
O320 C313 1.299 . S
O321 Zn309 1.898 . S
O321 C316 1.167 . S
O322 Zn311 2.120 . S
O322 C316 1.299 . S
O323 Zn311 2.114 . S
O323 C325 1.166 . S
O324 Zn309 1.905 . S
O324 C325 1.182 . S
C325 O323 1.166 . S
C325 O324 1.182 . S
O326 Zn311 2.080 . S
O326 C329 1.305 . S
O327 Zn310 1.920 . S
O327 C329 1.234 . S
C328 O314 1.305 . S
C328 O315 1.234 . S
C329 O326 1.305 . S
C329 O327 1.234 . S
Zn330 O336 1.920 . S
Zn330 O342 1.898 . S
Zn330 O345 1.905 . S
Zn331 O339 1.905 . S
Zn331 O340 1.898 . S
Zn331 O348 1.920 . S
Zn332 O335 2.080 . S
Zn332 O338 2.114 . S
Zn332 O341 2.120 . S
Zn332 O343 2.120 . S
Zn332 O344 2.114 . S
Zn332 O347 2.080 . S
C333 O338 1.166 . S
C333 O339 1.182 . S
C334 O340 1.167 . S
C334 O341 1.299 . S
O335 Zn332 2.080 . S
O335 C349 1.305 . S
O336 Zn330 1.920 . S
O336 C349 1.234 . S
C337 O342 1.167 . S
C337 O343 1.299 . S
O338 Zn332 2.114 . S
O338 C333 1.166 . S
O339 Zn331 1.905 . S
O339 C333 1.182 . S
O340 Zn331 1.898 . S
O340 C334 1.167 . S
O341 Zn332 2.120 . S
O341 C334 1.299 . S
O342 Zn330 1.898 . S
O342 C337 1.167 . S
O343 Zn332 2.120 . S
O343 C337 1.299 . S
O344 Zn332 2.114 . S
O344 C346 1.166 . S
O345 Zn330 1.905 . S
O345 C346 1.182 . S
C346 O344 1.166 . S
C346 O345 1.182 . S
O347 Zn332 2.080 . S
O347 C350 1.305 . S
O348 Zn331 1.920 . S
O348 C350 1.234 . S
C349 O335 1.305 . S
C349 O336 1.234 . S
C350 O347 1.305 . S
C350 O348 1.234 . S
Zn351 O357 1.920 . S
Zn351 O363 1.898 . S
Zn351 O366 1.905 1_455 S
Zn352 O360 1.905 . S
Zn352 O361 1.898 . S
Zn352 O369 1.920 . S
Zn353 O356 2.080 . S
Zn353 O359 2.114 . S
Zn353 O362 2.120 . S
Zn353 O364 2.120 . S
Zn353 O365 2.114 . S
Zn353 O368 2.080 . S
C354 O359 1.166 . S
C354 O360 1.182 . S
C355 O361 1.167 . S
C355 O362 1.299 . S
O356 Zn353 2.080 . S
O356 C370 1.305 . S
O357 Zn351 1.920 . S
O357 C370 1.234 . S
C358 O363 1.167 . S
C358 O364 1.299 . S
O359 Zn353 2.114 . S
O359 C354 1.166 . S
O360 Zn352 1.905 . S
O360 C354 1.182 . S
O361 Zn352 1.898 . S
O361 C355 1.167 . S
O362 Zn353 2.120 . S
O362 C355 1.299 . S
O363 Zn351 1.898 . S
O363 C358 1.167 . S
O364 Zn353 2.120 . S
O364 C358 1.299 . S
O365 Zn353 2.114 . S
O365 C367 1.166 . S
O366 Zn351 1.905 1_655 S
O366 C367 1.182 1_655 S
C367 O365 1.166 . S
C367 O366 1.182 1_455 S
O368 Zn353 2.080 . S
O368 C371 1.305 . S
O369 Zn352 1.920 . S
O369 C371 1.234 . S
C370 O356 1.305 . S
C370 O357 1.234 . S
C371 O368 1.305 . S
C371 O369 1.234 . S
C372 C373 1.363 . S
C372 C378 1.379 . S
C372 N380 1.356 . S
C373 C372 1.363 . S
C373 C379 1.363 . S
C374 C375 1.363 . S
C374 C379 1.379 . S
C374 N381 1.356 . S
C375 C374 1.363 . S
C375 C378 1.363 . S
N376 C378 1.356 . S
N376 H388 0.984 . S
N376 H389 0.985 . S
N377 C379 1.356 . S
N377 H382 0.984 . S
N377 H383 0.985 . S
C378 C372 1.379 . S
C378 C375 1.363 . S
C378 N376 1.356 . S
C379 C373 1.363 . S
C379 C374 1.379 . S
C379 N377 1.356 . S
N380 C372 1.356 . S
N380 H386 0.984 . S
N380 H387 0.984 . S
N381 C374 1.356 . S
N381 H384 0.984 . S
N381 H385 0.985 . S
H382 N377 0.984 . S
H383 N377 0.985 . S
H384 N381 0.984 . S
H385 N381 0.985 . S
H386 N380 0.984 . S
H387 N380 0.984 . S
H388 N376 0.984 . S
H389 N376 0.985 . S
C390 C391 1.363 . S
C390 C396 1.379 . S
C390 N398 1.356 . S
C391 C390 1.363 . S
C391 C397 1.363 . S
C392 C393 1.363 . S
C392 C397 1.379 . S
C392 N399 1.356 . S
C393 C392 1.363 . S
C393 C396 1.363 . S
N394 C396 1.356 . S
N394 H406 0.984 . S
N394 H407 0.985 . S
N395 C397 1.356 . S
N395 H400 0.984 . S
N395 H401 0.985 . S
C396 C390 1.379 . S
C396 C393 1.363 . S
C396 N394 1.356 . S
C397 C391 1.363 . S
C397 C392 1.379 . S
C397 N395 1.356 . S
N398 C390 1.356 . S
N398 H404 0.984 . S
N398 H405 0.984 . S
N399 C392 1.356 . S
N399 H402 0.984 . S
N399 H403 0.985 . S
H400 N395 0.984 . S
H401 N395 0.985 . S
H402 N399 0.984 . S
H403 N399 0.985 . S
H404 N398 0.984 . S
H405 N398 0.984 . S
H406 N394 0.984 . S
H407 N394 0.985 . S
C408 C409 1.363 . S
C408 C414 1.379 . S
C408 N416 1.356 . S
C409 C408 1.363 . S
C409 C415 1.363 . S
C410 C411 1.363 . S
C410 C415 1.379 . S
C410 N417 1.356 . S
C411 C410 1.363 . S
C411 C414 1.363 . S
N412 C414 1.356 . S
N412 H424 0.984 . S
N412 H425 0.985 . S
N413 C415 1.356 . S
N413 H418 0.984 . S
N413 H419 0.985 . S
C414 C408 1.379 . S
C414 C411 1.363 . S
C414 N412 1.356 . S
C415 C409 1.363 . S
C415 C410 1.379 . S
C415 N413 1.356 . S
N416 C408 1.356 . S
N416 H422 0.984 . S
N416 H423 0.984 . S
N417 C410 1.356 . S
N417 H420 0.984 . S
N417 H421 0.985 . S
H418 N413 0.984 . S
H419 N413 0.985 . S
H420 N417 0.984 . S
H421 N417 0.985 . S
H422 N416 0.984 . S
H423 N416 0.984 . S
H424 N412 0.984 . S
H425 N412 0.985 . S
C426 C427 1.363 . S
C426 C432 1.379 . S
C426 N434 1.356 . S
C427 C426 1.363 . S
C427 C433 1.363 . S
C428 C429 1.363 . S
C428 C433 1.379 . S
C428 N435 1.356 . S
C429 C428 1.363 . S
C429 C432 1.363 . S
N430 C432 1.356 . S
N430 H442 0.984 . S
N430 H443 0.985 1_655 S
N431 C433 1.356 . S
N431 H436 0.984 . S
N431 H437 0.985 . S
C432 C426 1.379 . S
C432 C429 1.363 . S
C432 N430 1.356 . S
C433 C427 1.363 . S
C433 C428 1.379 . S
C433 N431 1.356 . S
N434 C426 1.356 . S
N434 H440 0.984 . S
N434 H441 0.984 . S
N435 C428 1.356 . S
N435 H438 0.984 1_655 S
N435 H439 0.985 . S
H436 N431 0.984 . S
H437 N431 0.985 . S
H438 N435 0.984 1_455 S
H439 N435 0.985 . S
H440 N434 0.984 . S
H441 N434 0.984 . S
H442 N430 0.984 . S
H443 N430 0.985 1_455 S
C444 C445 1.363 . S
C444 C450 1.379 . S
C444 N452 1.356 . S
C445 C444 1.363 . S
C445 C451 1.363 . S
C446 C447 1.363 . S
C446 C451 1.379 . S
C446 N453 1.356 . S
C447 C446 1.363 . S
C447 C450 1.363 . S
N448 C450 1.356 . S
N448 H460 0.984 . S
N448 H461 0.985 . S
N449 C451 1.356 . S
N449 H454 0.985 . S
N449 H455 0.985 1_455 S
C450 C444 1.379 . S
C450 C447 1.363 . S
C450 N448 1.356 . S
C451 C445 1.363 . S
C451 C446 1.379 . S
C451 N449 1.356 . S
N452 C444 1.356 . S
N452 H458 0.984 . S
N452 H459 0.984 . S
N453 C446 1.356 . S
N453 H456 0.984 . S
N453 H457 0.985 . S
H454 N449 0.985 . S
H455 N449 0.985 1_655 S
H456 N453 0.984 . S
H457 N453 0.985 . S
H458 N452 0.984 . S
H459 N452 0.984 . S
H460 N448 0.984 . S
H461 N448 0.985 . S
C462 C463 1.363 . S
C462 C468 1.379 . S
C462 N470 1.356 . S
C463 C462 1.363 . S
C463 C469 1.363 . S
C464 C465 1.363 . S
C464 C469 1.379 . S
C464 N471 1.356 . S
C465 C464 1.363 . S
C465 C468 1.363 . S
N466 C468 1.356 . S
N466 H478 0.984 . S
N466 H479 0.985 1_655 S
N467 C469 1.356 . S
N467 H472 0.984 . S
N467 H473 0.985 . S
C468 C462 1.379 . S
C468 C465 1.363 . S
C468 N466 1.356 . S
C469 C463 1.363 . S
C469 C464 1.379 . S
C469 N467 1.356 . S
N470 C462 1.356 . S
N470 H476 0.984 . S
N470 H477 0.984 . S
N471 C464 1.356 . S
N471 H474 0.984 1_655 S
N471 H475 0.985 . S
H472 N467 0.984 . S
H473 N467 0.985 . S
H474 N471 0.984 1_455 S
H475 N471 0.985 . S
H476 N470 0.984 . S
H477 N470 0.984 . S
H478 N466 0.984 . S
H479 N466 0.985 1_455 S
C480 C481 1.363 . S
C480 C486 1.379 . S
C480 N488 1.356 . S
C481 C480 1.363 . S
C481 C487 1.363 . S
C482 C483 1.363 . S
C482 C487 1.379 . S
C482 N489 1.356 . S
C483 C482 1.363 . S
C483 C486 1.363 . S
N484 C486 1.356 . S
N484 H496 0.984 . S
N484 H497 0.985 . S
N485 C487 1.356 . S
N485 H490 0.984 . S
N485 H491 0.985 . S
C486 C480 1.379 . S
C486 C483 1.363 . S
C486 N484 1.356 . S
C487 C481 1.363 . S
C487 C482 1.379 . S
C487 N485 1.356 . S
N488 C480 1.356 . S
N488 H494 0.984 . S
N488 H495 0.984 . S
N489 C482 1.356 . S
N489 H492 0.984 . S
N489 H493 0.985 . S
H490 N485 0.984 . S
H491 N485 0.985 . S
H492 N489 0.984 . S
H493 N489 0.985 . S
H494 N488 0.984 . S
H495 N488 0.984 . S
H496 N484 0.984 . S
H497 N484 0.985 . S
C498 C499 1.363 . S
C498 C504 1.379 . S
C498 N506 1.356 . S
C499 C498 1.363 . S
C499 C505 1.363 . S
C500 C501 1.363 . S
C500 C505 1.379 . S
C500 N507 1.356 . S
C501 C500 1.363 . S
C501 C504 1.363 . S
N502 C504 1.356 . S
N502 H514 0.984 . S
N502 H515 0.985 . S
N503 C505 1.356 . S
N503 H508 0.984 . S
N503 H509 0.985 . S
C504 C498 1.379 . S
C504 C501 1.363 . S
C504 N502 1.356 . S
C505 C499 1.363 . S
C505 C500 1.379 . S
C505 N503 1.356 . S
N506 C498 1.356 . S
N506 H512 0.984 . S
N506 H513 0.984 . S
N507 C500 1.356 . S
N507 H510 0.984 . S
N507 H511 0.985 . S
H508 N503 0.984 . S
H509 N503 0.985 . S
H510 N507 0.984 . S
H511 N507 0.985 . S
H512 N506 0.984 . S
H513 N506 0.984 . S
H514 N502 0.984 . S
H515 N502 0.985 . S
C516 C517 1.363 . S
C516 C522 1.379 . S
C516 N524 1.356 . S
C517 C516 1.363 . S
C517 C523 1.363 . S
C518 C519 1.363 . S
C518 C523 1.379 . S
C518 N525 1.356 . S
C519 C518 1.363 . S
C519 C522 1.363 . S
N520 C522 1.356 . S
N520 H532 0.984 . S
N520 H533 0.985 . S
N521 C523 1.356 . S
N521 H526 0.984 . S
N521 H527 0.985 . S
C522 C516 1.379 . S
C522 C519 1.363 . S
C522 N520 1.356 . S
C523 C517 1.363 . S
C523 C518 1.379 . S
C523 N521 1.356 . S
N524 C516 1.356 . S
N524 H530 0.984 . S
N524 H531 0.984 . S
N525 C518 1.356 . S
N525 H528 0.984 . S
N525 H529 0.985 . S
H526 N521 0.984 . S
H527 N521 0.985 . S
H528 N525 0.984 . S
H529 N525 0.985 . S
H530 N524 0.984 . S
H531 N524 0.984 . S
H532 N520 0.984 . S
H533 N520 0.985 . S
C534 C535 1.363 . S
C534 C540 1.379 . S
C534 N542 1.356 . S
C535 C534 1.363 . S
C535 C541 1.363 . S
C536 C537 1.363 . S
C536 C541 1.379 . S
C536 N543 1.356 . S
C537 C536 1.363 . S
C537 C540 1.363 . S
N538 C540 1.356 . S
N538 H550 0.984 . S
N538 H551 0.985 . S
N539 C541 1.356 . S
N539 H544 0.984 . S
N539 H545 0.985 . S
C540 C534 1.379 . S
C540 C537 1.363 . S
C540 N538 1.356 . S
C541 C535 1.363 . S
C541 C536 1.379 . S
C541 N539 1.356 . S
N542 C534 1.356 . S
N542 H548 0.984 . S
N542 H549 0.984 . S
N543 C536 1.356 . S
N543 H546 0.984 . S
N543 H547 0.985 . S
H544 N539 0.984 . S
H545 N539 0.985 . S
H546 N543 0.984 . S
H547 N543 0.985 . S
H548 N542 0.984 . S
H549 N542 0.984 . S
H550 N538 0.984 . S
H551 N538 0.985 . S
C552 C553 1.363 . S
C552 C558 1.379 . S
C552 N560 1.356 . S
C553 C552 1.363 . S
C553 C559 1.363 . S
C554 C555 1.363 . S
C554 C559 1.379 . S
C554 N561 1.356 . S
C555 C554 1.363 . S
C555 C558 1.363 . S
N556 C558 1.356 . S
N556 H568 0.984 . S
N556 H569 0.985 . S
N557 C559 1.356 . S
N557 H562 0.984 . S
N557 H563 0.985 . S
C558 C552 1.379 . S
C558 C555 1.363 . S
C558 N556 1.356 . S
C559 C553 1.363 . S
C559 C554 1.379 . S
C559 N557 1.356 . S
N560 C552 1.356 . S
N560 H566 0.984 . S
N560 H567 0.984 . S
N561 C554 1.356 . S
N561 H564 0.984 . S
N561 H565 0.985 . S
H562 N557 0.984 . S
H563 N557 0.985 . S
H564 N561 0.984 . S
H565 N561 0.985 . S
H566 N560 0.984 . S
H567 N560 0.984 . S
H568 N556 0.984 . S
H569 N556 0.985 . S
C570 C571 1.363 . S
C570 C576 1.379 . S
C570 N578 1.356 . S
C571 C570 1.363 . S
C571 C577 1.363 . S
C572 C573 1.363 . S
C572 C577 1.379 . S
C572 N579 1.356 . S
C573 C572 1.363 . S
C573 C576 1.363 . S
N574 C576 1.356 . S
N574 H586 0.984 . S
N574 H587 0.985 . S
N575 C577 1.356 . S
N575 H580 0.984 . S
N575 H581 0.985 . S
C576 C570 1.379 . S
C576 C573 1.363 . S
C576 N574 1.356 . S
C577 C571 1.363 . S
C577 C572 1.379 . S
C577 N575 1.356 . S
N578 C570 1.356 . S
N578 H584 0.984 . S
N578 H585 0.984 . S
N579 C572 1.356 . S
N579 H582 0.984 . S
N579 H583 0.985 . S
H580 N575 0.984 . S
H581 N575 0.985 . S
H582 N579 0.984 . S
H583 N579 0.985 . S
H584 N578 0.984 . S
H585 N578 0.984 . S
H586 N574 0.984 . S
H587 N574 0.985 . S
C588 C589 1.363 . S
C588 C594 1.379 1_565 S
C588 N596 1.356 . S
C589 C588 1.363 . S
C589 C595 1.363 1_565 S
C590 C591 1.363 . S
C590 C595 1.379 . S
C590 N597 1.356 . S
C591 C590 1.363 . S
C591 C594 1.363 . S
N592 C594 1.356 . S
N592 H604 0.984 . S
N592 H605 0.985 . S
N593 C595 1.356 1_565 S
N593 H598 0.984 . S
N593 H599 0.985 1_565 S
C594 C588 1.379 1_545 S
C594 C591 1.363 . S
C594 N592 1.356 . S
C595 C589 1.363 1_545 S
C595 C590 1.379 . S
C595 N593 1.356 1_545 S
N596 C588 1.356 . S
N596 H602 0.984 . S
N596 H603 0.984 . S
N597 C590 1.356 . S
N597 H600 0.984 . S
N597 H601 0.985 . S
H598 N593 0.984 . S
H599 N593 0.985 1_545 S
H600 N597 0.984 . S
H601 N597 0.985 . S
H602 N596 0.984 . S
H603 N596 0.984 . S
H604 N592 0.984 . S
H605 N592 0.985 . S
C606 C607 1.363 1_565 S
C606 C612 1.379 . S
C606 N614 1.356 1_565 S
C607 C606 1.363 1_545 S
C607 C613 1.363 1_545 S
C608 C609 1.363 . S
C608 C613 1.379 . S
C608 N615 1.356 . S
C609 C608 1.363 . S
C609 C612 1.363 . S
N610 C612 1.356 . S
N610 H622 0.984 . S
N610 H623 0.985 . S
N611 C613 1.356 1_545 S
N611 H616 0.984 . S
N611 H617 0.985 . S
C612 C606 1.379 . S
C612 C609 1.363 . S
C612 N610 1.356 . S
C613 C607 1.363 1_565 S
C613 C608 1.379 . S
C613 N611 1.356 1_565 S
N614 C606 1.356 1_545 S
N614 H620 0.984 . S
N614 H621 0.984 . S
N615 C608 1.356 . S
N615 H618 0.984 . S
N615 H619 0.985 . S
H616 N611 0.984 . S
H617 N611 0.985 . S
H618 N615 0.984 . S
H619 N615 0.985 . S
H620 N614 0.984 . S
H621 N614 0.984 . S
H622 N610 0.984 . S
H623 N610 0.985 . S
C624 C625 1.364 . S
C624 C630 1.379 . S
C624 N632 1.356 1_565 S
C625 C624 1.364 . S
C625 C631 1.364 . S
C626 C627 1.363 . S
C626 C631 1.379 . S
C626 N633 1.356 . S
C627 C626 1.363 . S
C627 C630 1.363 . S
N628 C630 1.356 . S
N628 H640 0.984 . S
N628 H641 0.985 . S
N629 C631 1.356 1_545 S
N629 H634 0.984 . S
N629 H635 0.985 . S
C630 C624 1.379 . S
C630 C627 1.363 . S
C630 N628 1.356 . S
C631 C625 1.364 . S
C631 C626 1.379 . S
C631 N629 1.356 1_565 S
N632 C624 1.356 1_545 S
N632 H638 0.984 1_545 S
N632 H639 0.984 . S
N633 C626 1.356 . S
N633 H636 0.984 . S
N633 H637 0.985 . S
H634 N629 0.984 . S
H635 N629 0.985 . S
H636 N633 0.984 . S
H637 N633 0.985 . S
H638 N632 0.984 1_565 S
H639 N632 0.984 . S
H640 N628 0.984 . S
H641 N628 0.985 . S
C642 C643 1.363 . S
C642 C648 1.379 1_565 S
C642 N650 1.356 . S
C643 C642 1.363 . S
C643 C649 1.363 1_565 S
C644 C645 1.363 . S
C644 C649 1.379 . S
C644 N651 1.356 . S
C645 C644 1.363 . S
C645 C648 1.363 . S
N646 C648 1.356 . S
N646 H658 0.984 . S
N646 H659 0.985 . S
N647 C649 1.356 1_565 S
N647 H652 0.984 . S
N647 H653 0.985 1_465 S
C648 C642 1.379 1_545 S
C648 C645 1.363 . S
C648 N646 1.356 . S
C649 C643 1.363 1_545 S
C649 C644 1.379 . S
C649 N647 1.356 1_545 S
N650 C642 1.356 . S
N650 H656 0.984 . S
N650 H657 0.984 . S
N651 C644 1.356 . S
N651 H654 0.984 . S
N651 H655 0.985 . S
H652 N647 0.984 . S
H653 N647 0.985 1_645 S
H654 N651 0.984 . S
H655 N651 0.985 . S
H656 N650 0.984 . S
H657 N650 0.984 . S
H658 N646 0.984 . S
H659 N646 0.985 . S
C660 C661 1.363 . S
C660 C666 1.379 . S
C660 N668 1.356 . S
C661 C660 1.363 . S
C661 C667 1.363 . S
C662 C663 1.363 . S
C662 C667 1.379 . S
C662 N669 1.356 . S
C663 C662 1.363 . S
C663 C666 1.363 . S
N664 C666 1.356 . S
N664 H676 0.984 . S
N664 H677 0.985 . S
N665 C667 1.356 . S
N665 H670 0.984 . S
N665 H671 0.985 . S
C666 C660 1.379 . S
C666 C663 1.363 . S
C666 N664 1.356 . S
C667 C661 1.363 . S
C667 C662 1.379 . S
C667 N665 1.356 . S
N668 C660 1.356 . S
N668 H674 0.984 . S
N668 H675 0.984 . S
N669 C662 1.356 . S
N669 H672 0.984 . S
N669 H673 0.985 . S
H670 N665 0.984 . S
H671 N665 0.985 . S
H672 N669 0.984 . S
H673 N669 0.985 . S
H674 N668 0.984 . S
H675 N668 0.984 . S
H676 N664 0.984 . S
H677 N664 0.985 . S
C678 C679 1.363 . S
C678 C684 1.379 . S
C678 N686 1.356 . S
C679 C678 1.363 . S
C679 C685 1.363 . S
C680 C681 1.363 . S
C680 C685 1.379 . S
C680 N687 1.356 . S
C681 C680 1.363 . S
C681 C684 1.363 . S
N682 C684 1.356 . S
N682 H694 0.984 . S
N682 H695 0.985 . S
N683 C685 1.356 . S
N683 H688 0.984 . S
N683 H689 0.985 . S
C684 C678 1.379 . S
C684 C681 1.363 . S
C684 N682 1.356 . S
C685 C679 1.363 . S
C685 C680 1.379 . S
C685 N683 1.356 . S
N686 C678 1.356 . S
N686 H692 0.984 . S
N686 H693 0.984 . S
N687 C680 1.356 . S
N687 H690 0.984 . S
N687 H691 0.985 . S
H688 N683 0.984 . S
H689 N683 0.985 . S
H690 N687 0.984 . S
H691 N687 0.985 . S
H692 N686 0.984 . S
H693 N686 0.984 . S
H694 N682 0.984 . S
H695 N682 0.985 . S
C696 C697 1.363 . S
C696 C702 1.379 . S
C696 N704 1.356 . S
C697 C696 1.363 . S
C697 C703 1.363 . S
C698 C699 1.363 . S
C698 C703 1.379 . S
C698 N705 1.356 . S
C699 C698 1.363 . S
C699 C702 1.363 . S
N700 C702 1.356 . S
N700 H712 0.984 . S
N700 H713 0.985 . S
N701 C703 1.356 . S
N701 H706 0.984 . S
N701 H707 0.985 . S
C702 C696 1.379 . S
C702 C699 1.363 . S
C702 N700 1.356 . S
C703 C697 1.363 . S
C703 C698 1.379 . S
C703 N701 1.356 . S
N704 C696 1.356 . S
N704 H710 0.984 . S
N704 H711 0.984 . S
N705 C698 1.356 . S
N705 H708 0.984 . S
N705 H709 0.985 . S
H706 N701 0.984 . S
H707 N701 0.985 . S
H708 N705 0.984 . S
H709 N705 0.985 . S
H710 N704 0.984 . S
H711 N704 0.984 . S
H712 N700 0.984 . S
H713 N700 0.985 . S
C714 C715 1.363 . S
C714 C720 1.379 . S
C714 N722 1.356 . S
C715 C714 1.363 . S
C715 C721 1.363 . S
C716 C717 1.363 . S
C716 C721 1.379 . S
C716 N723 1.356 . S
C717 C716 1.363 . S
C717 C720 1.363 . S
N718 C720 1.356 . S
N718 H730 0.984 . S
N718 H731 0.985 . S
N719 C721 1.356 . S
N719 H724 0.984 . S
N719 H725 0.985 . S
C720 C714 1.379 . S
C720 C717 1.363 . S
C720 N718 1.356 . S
C721 C715 1.363 . S
C721 C716 1.379 . S
C721 N719 1.356 . S
N722 C714 1.356 . S
N722 H728 0.984 . S
N722 H729 0.984 . S
N723 C716 1.356 . S
N723 H726 0.984 . S
N723 H727 0.985 . S
H724 N719 0.984 . S
H725 N719 0.985 . S
H726 N723 0.984 . S
H727 N723 0.985 . S
H728 N722 0.984 . S
H729 N722 0.984 . S
H730 N718 0.984 . S
H731 N718 0.985 . S
C732 C733 1.363 . S
C732 C738 1.379 . S
C732 N740 1.356 . S
C733 C732 1.363 . S
C733 C739 1.363 . S
C734 C735 1.363 . S
C734 C739 1.379 . S
C734 N741 1.356 . S
C735 C734 1.363 . S
C735 C738 1.363 . S
N736 C738 1.356 . S
N736 H748 0.984 . S
N736 H749 0.985 . S
N737 C739 1.356 . S
N737 H742 0.984 . S
N737 H743 0.985 1_455 S
C738 C732 1.379 . S
C738 C735 1.363 . S
C738 N736 1.356 . S
C739 C733 1.363 . S
C739 C734 1.379 . S
C739 N737 1.356 . S
N740 C732 1.356 . S
N740 H746 0.984 . S
N740 H747 0.984 . S
N741 C734 1.356 . S
N741 H744 0.984 . S
N741 H745 0.985 . S
H742 N737 0.984 . S
H743 N737 0.985 1_655 S
H744 N741 0.984 . S
H745 N741 0.985 . S
H746 N740 0.984 . S
H747 N740 0.984 . S
H748 N736 0.984 . S
H749 N736 0.985 . S
C750 C751 1.363 . S
C750 C756 1.379 . S
C750 N758 1.356 . S
C751 C750 1.363 . S
C751 C757 1.363 . S
C752 C753 1.363 . S
C752 C757 1.379 . S
C752 N759 1.356 . S
C753 C752 1.363 . S
C753 C756 1.363 . S
N754 C756 1.356 . S
N754 H766 0.984 . S
N754 H767 0.985 . S
N755 C757 1.356 . S
N755 H760 0.984 . S
N755 H761 0.985 . S
C756 C750 1.379 . S
C756 C753 1.363 . S
C756 N754 1.356 . S
C757 C751 1.363 . S
C757 C752 1.379 . S
C757 N755 1.356 . S
N758 C750 1.356 . S
N758 H764 0.984 . S
N758 H765 0.984 . S
N759 C752 1.356 . S
N759 H762 0.984 . S
N759 H763 0.985 . S
H760 N755 0.984 . S
H761 N755 0.985 . S
H762 N759 0.984 . S
H763 N759 0.985 . S
H764 N758 0.984 . S
H765 N758 0.984 . S
H766 N754 0.984 . S
H767 N754 0.985 . S
C768 C769 1.363 . S
C768 C774 1.379 . S
C768 N776 1.356 . S
C769 C768 1.363 . S
C769 C775 1.363 . S
C770 C771 1.363 . S
C770 C775 1.379 . S
C770 N777 1.356 . S
C771 C770 1.363 . S
C771 C774 1.363 . S
N772 C774 1.356 . S
N772 H784 0.984 . S
N772 H785 0.985 . S
N773 C775 1.356 . S
N773 H778 0.984 . S
N773 H779 0.985 . S
C774 C768 1.379 . S
C774 C771 1.363 . S
C774 N772 1.356 . S
C775 C769 1.363 . S
C775 C770 1.379 . S
C775 N773 1.356 . S
N776 C768 1.356 . S
N776 H782 0.984 . S
N776 H783 0.984 . S
N777 C770 1.356 . S
N777 H780 0.984 . S
N777 H781 0.985 . S
H778 N773 0.984 . S
H779 N773 0.985 . S
H780 N777 0.984 . S
H781 N777 0.985 . S
H782 N776 0.984 . S
H783 N776 0.984 . S
H784 N772 0.984 . S
H785 N772 0.985 . S
C786 C787 1.363 . S
C786 C792 1.379 . S
C786 N794 1.356 . S
C787 C786 1.363 . S
C787 C793 1.363 . S
C788 C789 1.363 . S
C788 C793 1.379 . S
C788 N795 1.356 . S
C789 C788 1.363 . S
C789 C792 1.363 . S
N790 C792 1.356 . S
N790 H802 0.984 . S
N790 H803 0.985 . S
N791 C793 1.356 . S
N791 H796 0.984 . S
N791 H797 0.985 . S
C792 C786 1.379 . S
C792 C789 1.363 . S
C792 N790 1.356 . S
C793 C787 1.363 . S
C793 C788 1.379 . S
C793 N791 1.356 . S
N794 C786 1.356 . S
N794 H800 0.984 . S
N794 H801 0.984 . S
N795 C788 1.356 . S
N795 H798 0.984 . S
N795 H799 0.985 . S
H796 N791 0.984 . S
H797 N791 0.985 . S
H798 N795 0.984 . S
H799 N795 0.985 . S
H800 N794 0.984 . S
H801 N794 0.984 . S
H802 N790 0.984 . S
H803 N790 0.985 . S
C375 C295 1.497 . S
C373 C1 1.695 . S
C393 C313 1.335 . S
C391 C61 1.427 . S
C409 C97 1.476 . S
C411 C337 1.446 . S
C429 C367 1.404 1_655 S
C427 C109 1.517 . S
C447 C355 1.450 . S
C445 C145 1.470 . S
C463 C205 1.441 . S
C465 C308 1.360 1_655 S
C481 C241 1.622 . S
C483 C328 1.498 . S
C499 C253 1.515 . S
C501 C333 1.404 . S
C517 C277 1.435 . S
C519 C349 1.351 . S
C535 C181 1.516 . S
C537 C304 1.396 . S
C555 C371 1.350 . S
C553 C133 1.434 . S
C573 C316 1.395 . S
C571 C37 1.510 . S
C589 C73 1.692 . S
C591 C334 1.493 . S
C607 C25 1.485 . S
C609 C292 1.453 . S
C627 C312 1.447 . S
C625 C217 1.463 1_565 S
C645 C358 1.498 . S
C643 C169 1.630 . S
C663 C354 1.330 . S
C661 C31 1.547 . S
C681 C307 1.415 . S
C679 C67 1.470 . S
C697 C103 1.531 . S
C699 C329 1.308 . S
C715 C139 1.485 . S
C717 C350 1.423 . S
C735 C291 1.330 . S
C733 C175 1.509 . S
C751 C211 1.505 . S
C753 C325 1.442 . S
C771 C346 1.340 . S
C769 C247 1.522 . S
C789 C370 1.423 . S
C787 C283 1.485 . S
