# Generated by pormake.
# Topology sqc, (4,8)-cn, num edge types: 1
# Building blocks:
#     Node 0, Type 0, BuildingBlock: MIFKUJ_clean_linker_1, # of connection points: 4
#     Node 1, Type 0, BuildingBlock: MIFKUJ_clean_linker_1, # of connection points: 4
#     Node 2, Type 0, BuildingBlock: MIFKUJ_clean_linker_1, # of connection points: 4
#     Node 3, Type 0, BuildingBlock: MIFKUJ_clean_linker_1, # of connection points: 4
#     Node 4, Type 0, BuildingBlock: MIFKUJ_clean_linker_1, # of connection points: 4
#     Node 5, Type 0, BuildingBlock: MIFKUJ_clean_linker_1, # of connection points: 4
#     Node 6, Type 0, BuildingBlock: MIFKUJ_clean_linker_1, # of connection points: 4
#     Node 7, Type 0, BuildingBlock: MIFKUJ_clean_linker_1, # of connection points: 4
#     Node 8, Type 1, BuildingBlock: TAGTUT_clean_sbu_3, # of connection points: 8
#     Node 9, Type 1, BuildingBlock: TAGTUT_clean_sbu_3, # of connection points: 8
#     Node 10, Type 1, BuildingBlock: TAGTUT_clean_sbu_3, # of connection points: 8
#     Node 11, Type 1, BuildingBlock: TAGTUT_clean_sbu_3, # of connection points: 8
#     Edge 12, Type (0, 1), BuildingBlock: AJUNOK_clean_linker_0, # of connection points: 2
#     Edge 13, Type (0, 1), BuildingBlock: AJUNOK_clean_linker_0, # of connection points: 2
#     Edge 14, Type (0, 1), BuildingBlock: AJUNOK_clean_linker_0, # of connection points: 2
#     Edge 15, Type (0, 1), BuildingBlock: AJUNOK_clean_linker_0, # of connection points: 2
#     Edge 16, Type (0, 1), BuildingBlock: AJUNOK_clean_linker_0, # of connection points: 2
#     Edge 17, Type (0, 1), BuildingBlock: AJUNOK_clean_linker_0, # of connection points: 2
#     Edge 18, Type (0, 1), BuildingBlock: AJUNOK_clean_linker_0, # of connection points: 2
#     Edge 19, Type (0, 1), BuildingBlock: AJUNOK_clean_linker_0, # of connection points: 2
#     Edge 20, Type (0, 1), BuildingBlock: AJUNOK_clean_linker_0, # of connection points: 2
#     Edge 21, Type (0, 1), BuildingBlock: AJUNOK_clean_linker_0, # of connection points: 2
#     Edge 22, Type (0, 1), BuildingBlock: AJUNOK_clean_linker_0, # of connection points: 2
#     Edge 23, Type (0, 1), BuildingBlock: AJUNOK_clean_linker_0, # of connection points: 2
#     Edge 24, Type (0, 1), BuildingBlock: AJUNOK_clean_linker_0, # of connection points: 2
#     Edge 25, Type (0, 1), BuildingBlock: AJUNOK_clean_linker_0, # of connection points: 2
#     Edge 26, Type (0, 1), BuildingBlock: AJUNOK_clean_linker_0, # of connection points: 2
#     Edge 27, Type (0, 1), BuildingBlock: AJUNOK_clean_linker_0, # of connection points: 2
#     Edge 28, Type (0, 1), BuildingBlock: AJUNOK_clean_linker_0, # of connection points: 2
#     Edge 29, Type (0, 1), BuildingBlock: AJUNOK_clean_linker_0, # of connection points: 2
#     Edge 30, Type (0, 1), BuildingBlock: AJUNOK_clean_linker_0, # of connection points: 2
#     Edge 31, Type (0, 1), BuildingBlock: AJUNOK_clean_linker_0, # of connection points: 2
#     Edge 32, Type (0, 1), BuildingBlock: AJUNOK_clean_linker_0, # of connection points: 2
#     Edge 33, Type (0, 1), BuildingBlock: AJUNOK_clean_linker_0, # of connection points: 2
#     Edge 34, Type (0, 1), BuildingBlock: AJUNOK_clean_linker_0, # of connection points: 2
#     Edge 35, Type (0, 1), BuildingBlock: AJUNOK_clean_linker_0, # of connection points: 2
#     Edge 36, Type (0, 1), BuildingBlock: AJUNOK_clean_linker_0, # of connection points: 2
#     Edge 37, Type (0, 1), BuildingBlock: AJUNOK_clean_linker_0, # of connection points: 2
#     Edge 38, Type (0, 1), BuildingBlock: AJUNOK_clean_linker_0, # of connection points: 2
#     Edge 39, Type (0, 1), BuildingBlock: AJUNOK_clean_linker_0, # of connection points: 2
#     Edge 40, Type (0, 1), BuildingBlock: AJUNOK_clean_linker_0, # of connection points: 2
#     Edge 41, Type (0, 1), BuildingBlock: AJUNOK_clean_linker_0, # of connection points: 2
#     Edge 42, Type (0, 1), BuildingBlock: AJUNOK_clean_linker_0, # of connection points: 2
#     Edge 43, Type (0, 1), BuildingBlock: AJUNOK_clean_linker_0, # of connection points: 2
# Relax obj value: 0.147
# Max RMSD: 0.259
# Mean RMSD: 0.179
data_MOF--net-sqc--node1-TAGTUT_clean_sbu_3--node2-MIFKUJ_clean_linker_1--edge1-AJUNOK_clean_linker_0
_symmetry_space_group_name_H-M    P1
_symmetry_Int_Tables_number       1
_symmetry_cell_setting            triclinic
loop_
_symmetry_equiv_pos_as_xyz
'x, y, z'
_cell_length_a     22.693841
_cell_length_b     22.61667
_cell_length_c     67.148097
_cell_angle_alpha  91.163362
_cell_angle_beta   90.015137
_cell_angle_gamma 89.93385
loop_
_atom_site_label
_atom_site_type_symbol
_atom_site_fract_x
_atom_site_fract_y
_atom_site_fract_z
_atom_type_partial_charge
H0 H 0.94826 0.86212 0.47973 0.0
H1 H 0.85944 0.84102 0.46005 0.0
H2 H 0.82482 0.0281 0.45612 0.0
H3 H 0.91375 0.04913 0.47585 0.0
H4 H 0.04669 0.92584 0.46759 0.0
H5 H 0.90901 0.92957 0.52228 0.0
H6 H 0.81965 0.95752 0.54091 0.0
H7 H 0.86564 0.14169 0.53574 0.0
H8 H 0.95486 0.11372 0.51727 0.0
H9 H 0.18102 0.07699 0.4911 0.0
H10 H 0.27389 0.11345 0.50557 0.0
H11 H 0.24076 0.01321 0.55842 0.0
H12 H 0.14799 0.97694 0.54394 0.0
H13 H 0.04863 0.04554 0.5304 0.0
H14 H 0.14728 -0.00057 0.45485 0.0
H15 H 0.24137 0.96785 0.44008 0.0
H16 H 0.2732 0.85514 0.49004 0.0
H17 H 0.17937 0.88791 0.50506 0.0
C18 C 0.93758 0.95712 0.47923 0.0
C19 C 0.92122 0.89854 0.47481 0.0
C20 C 0.87028 0.88657 0.46375 0.0
C21 C 0.83534 0.93301 0.45666 0.0
C22 C 0.85103 0.99162 0.46145 0.0
C23 C 0.90168 0.00357 0.4727 0.0
C24 C 0.99334 0.97001 0.48998 0.0
C25 C 0.04696 0.95165 0.48139 0.0
C26 C 0.99392 0.00287 0.5081 0.0
C27 C 0.93857 0.01965 0.51847 0.0
C28 C 0.89945 0.97598 0.525 0.0
C29 C 0.84857 0.99186 0.5356 0.0
C30 C 0.83584 0.05168 0.53964 0.0
C31 C 0.87421 0.09529 0.53261 0.0
C32 C 0.92536 0.0794 0.52224 0.0
C33 C 0.15774 0.0243 0.51649 0.0
C34 C 0.19396 0.06272 0.50578 0.0
C35 C 0.24678 0.0836 0.51403 0.0
C36 C 0.26432 0.06602 0.53307 0.0
C37 C 0.22834 0.027 0.54364 0.0
C38 C 0.17526 0.00665 0.53548 0.0
C39 C 0.10164 0.00253 0.50776 0.0
C40 C 0.04811 0.01925 0.51671 0.0
C41 C 0.10101 0.96705 0.49023 0.0
C42 C 0.15653 0.9459 0.48098 0.0
C43 C 0.17448 0.96791 0.4626 0.0
C44 C 0.22827 0.9503 0.4543 0.0
C45 C 0.26451 0.90972 0.46411 0.0
C46 C 0.24606 0.88679 0.48234 0.0
C47 C 0.19263 0.90529 0.49083 0.0
H48 H 0.35445 0.80533 0.78827 0.0
H49 H 0.3246 0.89881 0.80454 0.0
H50 H 0.19296 0.92396 0.75908 0.0
H51 H 0.22259 0.83036 0.74292 0.0
H52 H 0.28767 0.70228 0.78013 0.0
H53 H 0.40374 0.84339 0.74178 0.0
H54 H 0.42947 0.92221 0.71875 0.0
H55 H 0.29779 0.85752 0.67733 0.0
H56 H 0.27202 0.77915 0.70039 0.0
H57 H 0.29649 0.60232 0.70084 0.0
H58 H 0.33649 0.5213 0.68036 0.0
H59 H 0.46629 0.48671 0.7257 0.0
H60 H 0.42562 0.56791 0.74636 0.0
H61 H 0.35984 0.69785 0.71047 0.0
H62 H 0.25945 0.54766 0.74219 0.0
H63 H 0.23392 0.45976 0.76052 0.0
H64 H 0.31802 0.53383 0.81304 0.0
H65 H 0.34866 0.61963 0.79405 0.0
C66 C 0.29072 0.81085 0.76442 0.0
C67 C 0.3192 0.83099 0.78181 0.0
C68 C 0.30257 0.8846 0.79095 0.0
C69 C 0.2566 0.91854 0.78301 0.0
C70 C 0.22841 0.89854 0.76552 0.0
C71 C 0.24536 0.84519 0.75629 0.0
C72 C 0.30874 0.75429 0.75459 0.0
C73 C 0.30445 0.70105 0.76501 0.0
C74 C 0.32795 0.75244 0.73463 0.0
C75 C 0.33581 0.80595 0.72277 0.0
C76 C 0.37937 0.8473 0.72799 0.0
C77 C 0.39433 0.89177 0.7148 0.0
C78 C 0.36556 0.89553 0.69635 0.0
C79 C 0.32006 0.85578 0.69158 0.0
C80 C 0.30543 0.81114 0.70468 0.0
C81 C 0.3582 0.59109 0.72508 0.0
C82 C 0.33317 0.57689 0.70647 0.0
C83 C 0.35631 0.53105 0.69473 0.0
C84 C 0.40521 0.49887 0.7013 0.0
C85 C 0.42868 0.51122 0.72031 0.0
C86 C 0.40539 0.55724 0.73212 0.0
C87 C 0.33897 0.64543 0.73586 0.0
C88 C 0.34321 0.69844 0.72563 0.0
C89 C 0.31846 0.64613 0.75577 0.0
C90 C 0.30665 0.59052 0.7666 0.0
C91 C 0.27459 0.54431 0.75741 0.0
C92 C 0.25899 0.49429 0.76803 0.0
C93 C 0.27287 0.49031 0.78835 0.0
C94 C 0.30685 0.5354 0.79738 0.0
C95 C 0.32372 0.5849 0.78659 0.0
H96 H 0.57537 0.03899 0.04441 0.0
H97 H 0.49773 0.01382 0.06803 0.0
H98 H 0.42433 0.89026 0.02502 0.0
H99 H 0.5035 0.91365 0.00153 0.0
H100 H 0.65425 0.96243 0.03344 0.0
H101 H 0.51383 0.08382 0.99596 0.0
H102 H 0.43425 0.11319 0.97343 0.0
H103 H 0.48078 0.96964 0.93302 0.0
H104 H 0.55922 0.93989 0.95567 0.0
H105 H 0.74172 0.9581 0.95186 0.0
H106 H 0.82095 -0.003 0.93119 0.0
H107 H 0.86429 0.12429 0.9777 0.0
H108 H 0.78532 0.08491 -0.00155 0.0
H109 H 0.64886 0.02077 0.96285 0.0
H110 H 0.7979 0.91437 0.9952 0.0
H111 H 0.88176 0.88121 0.01511 0.0
H112 H 0.82035 0.98744 0.06499 0.0
H113 H 0.73856 0.02344 0.04487 0.0
C114 C 0.54522 0.9782 0.0212 0.0
C115 C 0.54219 0.00696 0.03993 0.0
C116 C 0.49823 0.99251 0.05343 0.0
C117 C 0.45613 0.94972 0.04828 0.0
C118 C 0.45683 0.92331 0.02919 0.0
C119 C 0.50151 0.93711 0.01574 0.0
C120 C 0.59862 0.98546 0.0089 0.0
C121 C 0.65322 0.97665 0.0181 0.0
C122 C 0.59711 -0.00074 0.98852 0.0
C123 C 0.54209 0.00965 0.97746 0.0
C124 C 0.50571 0.05779 0.98252 0.0
C125 C 0.46103 0.07501 0.96954 0.0
C126 C 0.45249 0.04436 0.95134 0.0
C127 C 0.48669 0.99408 0.94692 0.0
C128 C 0.53128 0.977 0.95985 0.0
C129 C 0.7579 0.01851 0.97668 0.0
C130 C 0.76881 0.99387 0.95769 0.0
C131 C 0.81351 0.01647 0.94584 0.0
C132 C 0.84762 0.06439 0.95275 0.0
C133 C 0.83833 0.08741 0.97207 0.0
C134 C 0.79363 0.06471 0.98395 0.0
C135 C 0.70467 0.00126 0.98777 0.0
C136 C 0.65015 0.00714 0.97825 0.0
C137 C 0.70634 0.9845 0.00788 0.0
C138 C 0.76186 0.9715 0.01852 0.0
C139 C 0.80346 0.93215 0.01018 0.0
C140 C 0.85084 0.91263 0.02159 0.0
C141 C 0.85628 0.93116 0.04156 0.0
C142 C 0.81621 0.97214 0.04966 0.0
C143 C 0.76974 0.99267 0.03816 0.0
H144 H 0.2742 0.2299 0.29831 0.0
H145 H 0.29831 0.15206 0.32184 0.0
H146 H 0.40894 0.06719 0.27749 0.0
H147 H 0.38659 0.14599 0.25417 0.0
H148 H 0.35424 0.30258 0.28552 0.0
H149 H 0.21603 0.16935 0.25298 0.0
H150 H 0.18851 0.07336 0.238 0.0
H151 H 0.32574 0.09201 0.19409 0.0
H152 H 0.35321 0.18774 0.20909 0.0
H153 H 0.37716 0.37943 0.20526 0.0
H154 H 0.36031 0.4661 0.18472 0.0
H155 H 0.22663 0.52753 0.22607 0.0
H156 H 0.24586 0.44243 0.24695 0.0
H157 H 0.28967 0.2926 0.21502 0.0
H158 H 0.42417 0.42724 0.247 0.0
H159 H 0.46779 0.50974 0.26629 0.0
H160 H 0.34421 0.48012 0.31383 0.0
H161 H 0.29918 0.39938 0.2944 0.0
C162 C 0.32833 0.19356 0.27444 0.0
C163 C 0.30297 0.19406 0.29354 0.0
C164 C 0.31682 0.14995 0.30697 0.0
C165 C 0.35573 0.10444 0.30139 0.0
C166 C 0.37865 0.10204 0.28199 0.0
C167 C 0.3655 0.14666 0.26864 0.0
C168 C 0.32231 0.24607 0.26182 0.0
C169 C 0.33852 0.30066 0.27025 0.0
C170 C 0.30496 0.24267 0.24161 0.0
C171 C 0.28678 0.18564 0.23216 0.0
C172 C 0.24033 0.15262 0.24017 0.0
C173 C 0.22475 0.09782 0.23167 0.0
C174 C 0.25577 0.0748 0.21516 0.0
C175 C 0.30204 0.10806 0.20712 0.0
C176 C 0.31721 0.16308 0.21549 0.0
C177 C 0.31237 0.40431 0.22749 0.0
C178 C 0.34504 0.41222 0.21004 0.0
C179 C 0.33557 0.46193 0.19841 0.0
C180 C 0.29227 0.50404 0.20377 0.0
C181 C 0.26136 0.49706 0.22172 0.0
C182 C 0.27163 0.44786 0.23353 0.0
C183 C 0.31928 0.34981 0.23915 0.0
C184 C 0.30407 0.29471 0.23042 0.0
C185 C 0.33728 0.35243 0.25925 0.0
C186 C 0.35813 0.40746 0.26922 0.0
C187 C 0.40531 0.43962 0.2613 0.0
C188 C 0.4306 0.48609 0.27235 0.0
C189 C 0.40954 0.49999 0.2915 0.0
C190 C 0.3613 0.46928 0.29913 0.0
C191 C 0.33556 0.42356 0.28803 0.0
H192 H 0.77296 0.27158 0.19626 0.0
H193 H 0.79666 0.35043 0.17312 0.0
H194 H 0.89952 0.43857 0.21888 0.0
H195 H 0.87709 0.35898 0.2419 0.0
H196 H 0.85915 0.20315 0.21041 0.0
H197 H 0.70555 0.33073 0.24111 0.0
H198 H 0.67565 0.42562 0.25665 0.0
H199 H 0.81119 0.40609 0.30114 0.0
H200 H 0.84049 0.31144 0.28577 0.0
H201 H 0.83612 0.12898 0.29398 0.0
H202 H 0.80742 0.04276 0.31303 0.0
H203 H 0.73723 0.96016 0.25955 0.0
H204 H 0.76136 0.0482 0.24092 0.0
H205 H 0.77292 0.20631 0.27818 0.0
H206 H 0.91884 0.07421 0.25067 0.0
H207 H 0.96692 0.99101 0.23287 0.0
H208 H 0.8633 0.02679 0.18063 0.0
H209 H 0.81366 0.10783 0.19845 0.0
C210 C 0.82308 0.30959 0.22081 0.0
C211 C 0.79977 0.30843 0.20142 0.0
C212 C 0.81343 0.35313 0.18822 0.0
C213 C 0.8503 0.39977 0.19427 0.0
C214 C 0.87084 0.40287 0.21399 0.0
C215 C 0.85773 0.35775 0.22715 0.0
C216 C 0.81784 0.25654 0.23317 0.0
C217 C 0.83906 0.20326 0.22508 0.0
C218 C 0.79526 0.25808 0.25273 0.0
C219 C 0.77526 0.31418 0.26232 0.0
C220 C 0.72874 0.34701 0.25421 0.0
C221 C 0.71184 0.40109 0.26301 0.0
C222 C 0.74192 0.42348 0.27981 0.0
C223 C 0.78817 0.39033 0.28793 0.0
C224 C 0.80445 0.33603 0.27933 0.0
C225 C 0.80096 0.09551 0.26596 0.0
C226 C 0.81465 0.0923 0.28632 0.0
C227 C 0.7989 0.0426 0.29716 0.0
C228 C 0.76939 0.99487 0.28785 0.0
C229 C 0.75881 0.99668 0.26725 0.0
C230 C 0.77347 0.04682 0.2565 0.0
C231 C 0.81155 0.15101 0.25495 0.0
C232 C 0.79226 0.20529 0.26341 0.0
C233 C 0.83667 0.15062 0.23564 0.0
C234 C 0.86245 0.09713 0.22592 0.0
C235 C 0.90568 0.06342 0.23552 0.0
C236 C 0.9335 0.01652 0.22536 0.0
C237 C 0.91907 0.00376 0.20542 0.0
C238 C 0.87548 0.03677 0.19594 0.0
C239 C 0.84711 0.08276 0.20614 0.0
H240 H 0.76762 0.94937 0.7487 0.0
H241 H 0.7465 0.03805 0.73034 0.0
H242 H 0.8254 0.95813 0.67776 0.0
H243 H 0.85292 0.8719 0.697 0.0
H244 H 0.78911 0.79213 0.71234 0.0
H245 H 0.79417 0.91243 0.78488 0.0
H246 H 0.83573 0.99343 0.80485 0.0
H247 H 0.99526 0.98437 0.76965 0.0
H248 H 0.95114 0.90609 0.74879 0.0
H249 H 0.89437 0.64263 0.74967 0.0
H250 H 0.91597 0.56254 0.77266 0.0
H251 H 0.80915 0.64892 0.81778 0.0
H252 H 0.78673 0.72836 0.79473 0.0
H253 H 0.86885 0.80007 0.78108 0.0
H254 H 0.85139 0.68913 0.70407 0.0
H255 H 0.81881 0.59573 0.68861 0.0
H256 H 0.6935 0.57293 0.7362 0.0
H257 H 0.72553 0.66696 0.75147 0.0
C258 C 0.81369 0.90417 0.72454 0.0
C259 C 0.78343 0.95188 0.73356 0.0
C260 C 0.77026 0.00246 0.72287 0.0
C261 C 0.78467 0.00586 0.70257 0.0
C262 C 0.81529 0.95822 0.69351 0.0
C263 C 0.83008 0.90819 0.70443 0.0
C264 C 0.82426 0.84889 0.73574 0.0
C265 C 0.80741 0.7939 0.72726 0.0
C266 C 0.84722 0.85024 0.7553 0.0
C267 C 0.86925 0.90446 0.7652 0.0
C268 C 0.83738 0.92928 0.78114 0.0
C269 C 0.86152 0.97497 0.79265 0.0
C270 C 0.9189 0.99526 0.78889 0.0
C271 C 0.95047 0.9708 0.77266 0.0
C272 C 0.9255 0.92598 0.76078 0.0
C273 C 0.83882 0.69134 0.77048 0.0
C274 C 0.87434 0.64354 0.76431 0.0
C275 C 0.88688 0.59808 0.77745 0.0
C276 C 0.86477 0.60036 0.79699 0.0
C277 C 0.82732 0.64685 0.80286 0.0
C278 C 0.81439 0.69193 0.7897 0.0
C279 C 0.83247 0.74406 0.75794 0.0
C280 C 0.85072 0.79829 0.7661 0.0
C281 C 0.81107 0.74144 0.73818 0.0
C282 C 0.7909 0.68499 0.7289 0.0
C283 C 0.81684 0.66409 0.71115 0.0
C284 C 0.79867 0.6105 0.70247 0.0
C285 C 0.75377 0.57716 0.71126 0.0
C286 C 0.72799 0.59795 0.72909 0.0
C287 C 0.74637 0.65148 0.73782 0.0
H288 H 0.44784 0.37547 0.97933 0.0
H289 H 0.35793 0.34904 0.96099 0.0
H290 H 0.31833 0.53408 0.95381 0.0
H291 H 0.40832 0.56047 0.97222 0.0
H292 H 0.54422 0.43683 0.96666 0.0
H293 H 0.40728 0.44744 0.01871 0.0
H294 H 0.31794 0.47185 0.0376 0.0
H295 H 0.35954 0.65751 0.03404 0.0
H296 H 0.44838 0.63307 0.01477 0.0
H297 H 0.62793 0.63759 0.01508 0.0
H298 H 0.71583 0.67237 0.03251 0.0
H299 H 0.78499 0.49404 0.03141 0.0
H300 H 0.69347 0.45871 0.01712 0.0
H301 H 0.54389 0.57102 0.02604 0.0
H302 H 0.67645 0.54186 0.96469 0.0
H303 H 0.76555 0.50136 0.94894 0.0
H304 H 0.7349 0.33473 0.97767 0.0
H305 H 0.64314 0.37389 0.99161 0.0
C306 C 0.43471 0.46988 0.97716 0.0
C307 C 0.41951 0.41033 0.97398 0.0
C308 C 0.36782 0.39534 0.96375 0.0
C309 C 0.33075 0.43964 0.95633 0.0
C310 C 0.34581 0.49922 0.95961 0.0
C311 C 0.39717 0.51422 0.97006 0.0
C312 C 0.49029 0.48601 0.98759 0.0
C313 C 0.54415 0.46591 0.97971 0.0
C314 C 0.49022 0.52316 0.00475 0.0
C315 C 0.43453 0.53848 0.01529 0.0
C316 C 0.39666 0.49349 0.02166 0.0
C317 C 0.34574 0.50737 0.0325 0.0
C318 C 0.33192 0.5665 0.03726 0.0
C319 C 0.36888 0.61158 0.03037 0.0
C320 C 0.41992 0.59768 0.01957 0.0
C321 C 0.65422 0.54548 0.01409 0.0
C322 C 0.66199 0.60592 0.01866 0.0
C323 C 0.71318 0.62606 0.02827 0.0
C324 C 0.75881 0.58646 0.03302 0.0
C325 C 0.75115 0.52615 0.02808 0.0
C326 C 0.69901 0.50582 0.01933 0.0
C327 C 0.5984 0.52395 0.00466 0.0
C328 C 0.54416 0.54269 0.01281 0.0
C329 C 0.59805 0.48401 0.98809 0.0
C330 C 0.65303 0.46057 0.97906 0.0
C331 C 0.68882 0.49641 0.96735 0.0
C332 C 0.74009 0.47332 0.95858 0.0
C333 C 0.75715 0.41425 0.96169 0.0
C334 C 0.72217 0.37947 0.9742 0.0
C335 C 0.66988 0.4019 0.98234 0.0
H336 H 0.06329 0.45469 0.45565 0.0
H337 H 0.98608 0.47588 0.43149 0.0
H338 H 0.92794 0.62373 0.46821 0.0
H339 H 0.0064 0.60282 0.49233 0.0
H340 H 0.14829 0.54147 0.46301 0.0
H341 H 0.0008 0.43243 0.49935 0.0
H342 H 0.91858 0.40691 0.5212 0.0
H343 H 0.98155 0.53209 0.56561 0.0
H344 H 0.06255 0.55923 0.54354 0.0
H345 H 0.23774 0.53968 0.54515 0.0
H346 H 0.3158 0.49555 0.56517 0.0
H347 H 0.35895 0.3765 0.51625 0.0
H348 H 0.28035 0.4201 0.49628 0.0
H349 H 0.14503 0.48354 0.53367 0.0
H350 H 0.29139 0.59163 0.50071 0.0
H351 H 0.37429 0.62563 0.48047 0.0
H352 H 0.31565 0.51419 0.43149 0.0
H353 H 0.23398 0.47881 0.45178 0.0
C354 C 0.04011 0.52702 0.47577 0.0
C355 C 0.03305 0.49087 0.45871 0.0
C356 C 0.98899 0.50291 0.44496 0.0
C357 C 0.95122 0.55133 0.44806 0.0
C358 C 0.95684 0.58625 0.46552 0.0
C359 C 0.00102 0.57405 0.47936 0.0
C360 C 0.09359 0.52028 0.48795 0.0
C361 C 0.1478 0.52801 0.47844 0.0
C362 C 0.09247 0.50686 0.50837 0.0
C363 C 0.03745 0.49824 0.51971 0.0
C364 C -0.00419 0.45595 0.51345 0.0
C365 C 0.94931 0.44096 0.52599 0.0
C366 C 0.94449 0.46744 0.54502 0.0
C367 C 0.98491 0.51098 0.55102 0.0
C368 C 0.0308 0.52659 0.5384 0.0
C369 C 0.25345 0.48335 0.51921 0.0
C370 C 0.26447 0.50458 0.53864 0.0
C371 C 0.30853 0.4791 0.5501 0.0
C372 C 0.3422 0.43208 0.54228 0.0
C373 C 0.33317 0.41265 0.52254 0.0
C374 C 0.2888 0.4379 0.5111 0.0
C375 C 0.20009 0.50261 0.50854 0.0
C376 C 0.14586 0.49765 0.51832 0.0
C377 C 0.20116 0.51975 0.48847 0.0
C378 C 0.25642 0.53274 0.47774 0.0
C379 C 0.29731 0.57319 0.48583 0.0
C380 C 0.34422 0.59297 0.47427 0.0
C381 C 0.35013 0.57313 0.45445 0.0
C382 C 0.31104 0.53066 0.44668 0.0
C383 C 0.26469 0.5104 0.45827 0.0
C384 C 0.16392 0.64537 0.14832 0.0
C385 C 0.94557 0.5748 0.14157 0.0
C386 C 0.94737 0.66328 0.0859 0.0
Mg387 Mg 0.22592 0.76467 0.1322 0.0
Mg388 Mg 0.14981 0.88117 0.11844 0.0
O389 O 0.15959 0.79956 0.11668 0.0
Mg390 Mg 0.09493 0.74545 0.12387 0.0
O391 O 0.03435 0.68644 0.13095 0.0
Mg392 Mg 0.0625 0.61748 0.11445 0.0
Mg393 Mg 0.95443 0.70535 0.12884 0.0
C394 C 0.03365 0.84746 0.09553 0.0
O395 O 0.05372 0.80848 0.14763 0.0
O396 O 0.28672 0.82782 0.11425 0.0
O397 O 0.95678 0.78546 0.1468 0.0
O398 O 0.21911 0.83722 0.15789 0.0
O399 O 0.23 0.90311 0.10408 0.0
O400 O 0.15427 0.90626 0.14902 0.0
O401 O 0.13092 0.68042 0.09988 0.0
O402 O 0.22672 0.69579 0.10691 0.0
C403 C 0.18591 0.66896 0.09708 0.0
C404 C 0.27922 0.87559 0.10446 0.0
O405 O 0.0359 0.79359 0.10123 0.0
O406 O 0.9937 0.56303 0.13215 0.0
O407 O 0.06989 0.88745 0.10147 0.0
O408 O 0.99092 0.62966 0.09004 0.0
O409 O 0.92289 0.62665 0.14226 0.0
O410 O 0.92933 0.70333 0.09805 0.0
O411 O 0.15763 0.70162 0.14651 0.0
O412 O 0.13153 0.6086 0.13854 0.0
C413 C 0.18965 0.88467 0.16169 0.0
C414 C 0.00016 0.81662 0.15331 0.0
C415 C 0.68752 0.83122 0.39738 0.0
C416 C 0.77698 0.62137 0.39017 0.0
C417 C 0.68067 0.61219 0.33432 0.0
Mg418 Mg 0.56416 0.88362 0.38126 0.0
Mg419 Mg 0.45254 0.79868 0.36771 0.0
O420 O 0.5328 0.81439 0.36553 0.0
Mg421 Mg 0.5925 0.75414 0.37246 0.0
O422 O 0.65683 0.69908 0.37945 0.0
Mg423 Mg 0.72173 0.73228 0.36283 0.0
Mg424 Mg 0.64564 0.61745 0.37802 0.0
C425 C 0.49393 0.68367 0.34441 0.0
O426 O 0.53448 0.70849 0.39578 0.0
O427 O 0.49474 0.93946 0.36417 0.0
O428 O 0.56649 0.61374 0.3957 0.0
O429 O 0.49596 0.8726 0.40705 0.0
O430 O 0.42293 0.87733 0.35396 0.0
O431 O 0.4301 0.80341 0.39854 0.0
O432 O 0.65255 0.79452 0.3487 0.0
O433 O 0.62941 0.88932 0.35559 0.0
C434 C 0.65891 0.85014 0.34578 0.0
C435 C 0.44648 0.92869 0.35471 0.0
O436 O 0.54787 0.69063 0.34979 0.0
O437 O 0.7834 0.66943 0.38047 0.0
O438 O 0.45175 0.7172 0.35049 0.0
O439 O 0.71114 0.65906 0.33776 0.0
O440 O 0.72769 0.59421 0.39115 0.0
O441 O 0.64629 0.59134 0.34742 0.0
O442 O 0.63235 0.81993 0.3953 0.0
O443 O 0.72708 0.803 0.38741 0.0
C444 C 0.45097 0.84078 0.41112 0.0
C445 C 0.53109 0.65474 0.40155 0.0
C446 C 0.66617 0.15175 0.64694 0.0
C447 C 0.45296 0.06637 0.64062 0.0
C448 C 0.45076 0.15122 0.58393 0.0
Mg449 Mg 0.72215 0.27141 0.62837 0.0
Mg450 Mg 0.63851 0.38209 0.61461 0.0
O451 O 0.65328 0.30113 0.61284 0.0
Mg452 Mg 0.59214 0.24406 0.62097 0.0
O453 O 0.53538 0.18227 0.62903 0.0
Mg454 Mg 0.56755 0.11338 0.61321 0.0
Mg455 Mg 0.45448 0.19606 0.62678 0.0
C456 C 0.52307 0.34014 0.59281 0.0
O457 O 0.54749 0.30727 0.64382 0.0
O458 O 0.77822 0.3366 0.60939 0.0
O459 O 0.45191 0.27873 0.64342 0.0
O460 O 0.71282 0.3449 0.65339 0.0
O461 O 0.71627 0.40822 0.59957 0.0
O462 O 0.64293 0.40927 0.64506 0.0
O463 O 0.63159 0.17838 0.598 0.0
O464 O 0.72664 0.19989 0.60404 0.0
C465 C 0.68683 0.16935 0.59504 0.0
C466 C 0.76689 0.38337 0.59943 0.0
O467 O 0.52952 0.28634 0.59821 0.0
O468 O 0.50204 0.05691 0.63149 0.0
O469 O 0.55695 0.38249 0.59847 0.0
O470 O 0.49607 0.12 0.58821 0.0
O471 O 0.42705 0.11667 0.64075 0.0
O472 O 0.43058 0.19034 0.59604 0.0
O473 O 0.65728 0.20701 0.64391 0.0
O474 O 0.63632 0.11128 0.63791 0.0
C475 C 0.68066 0.39026 0.65743 0.0
C476 C 0.49346 0.31337 0.64923 0.0
C477 C 0.18374 0.33075 0.89848 0.0
C478 C 0.27849 0.1238 0.89458 0.0
C479 C 0.18775 0.10649 0.83751 0.0
Mg480 Mg 0.06092 0.37938 0.88057 0.0
Mg481 Mg 0.95341 0.29234 0.86465 0.0
O482 O 0.03371 0.30916 0.86448 0.0
Mg483 Mg 0.09363 0.25076 0.87267 0.0
O484 O 0.15794 0.19755 0.88107 0.0
Mg485 Mg 0.2241 0.23043 0.86506 0.0
Mg486 Mg 0.14896 0.11571 0.88083 0.0
C487 C 0.00098 0.17555 0.84389 0.0
O488 O 0.03314 0.20552 0.8954 0.0
O489 O 0.99353 0.43316 0.86191 0.0
O490 O 0.06761 0.11189 0.89718 0.0
O491 O 0.98835 0.36754 0.9053 0.0
O492 O 0.92605 0.36979 0.84936 0.0
O493 O 0.92438 0.29903 0.89468 0.0
O494 O 0.15581 0.29097 0.84949 0.0
O495 O 0.12962 0.38526 0.85597 0.0
C496 C 0.16103 0.34673 0.84654 0.0
C497 C 0.94826 0.4217 0.85095 0.0
O498 O 0.0542 0.18554 0.84949 0.0
O499 O 0.28494 0.1705 0.88416 0.0
O500 O 0.95697 0.20771 0.84923 0.0
O501 O 0.21739 0.15425 0.8405 0.0
O502 O 0.22975 0.09557 0.89536 0.0
O503 O 0.15319 0.08644 0.85069 0.0
O504 O 0.12898 0.31814 0.89587 0.0
O505 O 0.22487 0.30298 0.88911 0.0
C506 C 0.94247 0.33548 0.90803 0.0
C507 C 0.03034 0.15246 0.9018 0.0
C508 C 0.3267 0.83071 0.44829 0.0
C509 C 0.32015 0.88989 0.45464 0.0
C510 C 0.373 0.81366 0.43558 0.0
C511 C 0.41457 0.85515 0.42893 0.0
H512 H 0.29364 0.79827 0.45206 0.0
H513 H 0.37413 0.76845 0.42997 0.0
S514 S 0.42166 0.01365 0.44434 0.0
N515 N 0.36242 0.98834 0.4556 0.0
N516 N 0.44997 0.95662 0.43191 0.0
C517 C 0.41146 0.91329 0.4368 0.0
C518 C 0.3639 0.93065 0.44954 0.0
C519 C 0.44552 0.93828 0.6758 0.0
C520 C 0.38596 0.93804 0.68149 0.0
C521 C 0.46631 0.97815 0.66179 0.0
C522 C 0.42831 0.01968 0.65319 0.0
H523 H 0.47632 0.90743 0.68226 0.0
H524 H 0.51286 0.97772 0.65822 0.0
S525 S 0.26771 0.03503 0.6626 0.0
N526 N 0.28877 0.98084 0.67711 0.0
N527 N 0.32763 0.05631 0.65078 0.0
C528 C 0.36826 0.01889 0.65846 0.0
C529 C 0.3471 0.9779 0.6726 0.0
C530 C 0.3687 0.02611 0.92801 0.0
C531 C 0.40966 0.06565 0.93652 0.0
C532 C 0.32783 0.045 0.91391 0.0
C533 C 0.32678 0.10401 0.90762 0.0
H534 H 0.36755 0.98043 0.93255 0.0
H535 H 0.29628 0.01317 0.90807 0.0
S536 S 0.42695 0.22428 0.9248 0.0
N537 N 0.44864 0.16577 0.93718 0.0
N538 N 0.37138 0.20164 0.91073 0.0
C539 C 0.36857 0.14372 0.91567 0.0
C540 C 0.40998 0.12449 0.93016 0.0
C541 C 0.17861 0.01207 0.1987 0.0
C542 C 0.23713 0.01861 0.20521 0.0
C543 C 0.16225 0.96499 0.186 0.0
C544 C 0.20358 0.92227 0.17946 0.0
H545 H 0.14609 0.04569 0.20236 0.0
H546 H 0.11766 0.96414 0.18029 0.0
S547 S 0.36011 0.91411 0.19522 0.0
N548 N 0.33472 0.97463 0.20643 0.0
N549 N 0.30401 0.88576 0.18261 0.0
C550 C 0.26095 0.92535 0.18739 0.0
C551 C 0.27777 0.97378 0.20017 0.0
C552 C 0.36077 0.05108 0.55027 0.0
C553 C 0.31862 0.08991 0.5425 0.0
C554 C 0.40745 0.0722 0.5621 0.0
C555 C 0.4129 0.13284 0.56692 0.0
H556 H 0.35618 0.00378 0.54788 0.0
H557 H 0.43671 0.04022 0.56873 0.0
S558 S 0.31808 0.25325 0.54815 0.0
N559 N 0.28864 0.19217 0.53866 0.0
N560 N 0.37576 0.23193 0.5612 0.0
C561 C 0.37332 0.17244 0.55809 0.0
C562 C 0.32631 0.15095 0.5458 0.0
C563 C 0.27555 0.01728 0.79956 0.0
C564 C 0.23568 0.97241 0.79387 0.0
C565 C 0.25815 0.06427 0.81227 0.0
C566 C 0.20056 0.06732 0.82003 0.0
H567 H 0.32105 0.01483 0.79473 0.0
H568 H 0.29119 0.09595 0.81713 0.0
S569 S 0.07858 0.96292 0.80844 0.0
N570 N 0.1353 0.93606 0.79582 0.0
N571 N 0.1026 0.02369 0.81978 0.0
C572 C 0.1595 0.02449 0.81348 0.0
C573 C 0.17707 0.97716 0.8004 0.0
C574 C 0.35255 0.94269 0.05976 0.0
C575 C 0.41239 0.93158 0.06309 0.0
C576 C 0.31019 0.92582 0.07361 0.0
C577 C 0.32616 0.89627 0.09111 0.0
H578 H 0.33849 0.9647 0.04638 0.0
H579 H 0.26435 0.93476 0.07029 0.0
S580 S 0.47796 0.85727 0.10651 0.0
N581 N 0.48638 0.89036 0.08498 0.0
N582 N 0.40636 0.85721 0.11098 0.0
C583 C 0.38612 0.88496 0.09457 0.0
C584 C 0.42938 0.90307 0.08057 0.0
C585 C 0.36579 0.00065 0.31231 0.0
C586 C 0.37514 0.06106 0.31606 0.0
C587 C 0.38729 0.95842 0.32537 0.0
C588 C 0.41988 0.97514 0.34245 0.0
H589 H 0.34222 0.98597 0.29907 0.0
H590 H 0.37993 0.91218 0.32164 0.0
S591 S 0.4549 0.12855 0.35898 0.0
N592 N 0.41735 0.13626 0.33811 0.0
N593 N 0.4588 0.05665 0.36264 0.0
C594 C 0.42871 0.03567 0.3465 0.0
C595 C 0.40599 0.07873 0.33331 0.0
C596 C 0.74566 0.1126 0.54645 0.0
C597 C 0.78596 0.06938 0.55269 0.0
C598 C 0.70684 0.1401 0.56003 0.0
C599 C 0.70771 0.12556 0.58026 0.0
H600 H 0.74678 0.12783 0.53126 0.0
H601 H 0.68002 0.17663 0.55505 0.0
S602 S 0.80063 0.01186 0.60376 0.0
N603 N 0.82054 0.00988 0.58009 0.0
N604 N 0.74825 0.06243 0.6056 0.0
C605 C 0.74453 0.0795 0.58635 0.0
C606 C 0.78354 0.05108 0.57255 0.0
C607 C 0.77726 0.92207 0.31562 0.0
C608 C 0.74413 0.94696 0.3001 0.0
C609 C 0.7508 0.88498 0.32959 0.0
C610 C 0.69064 0.87121 0.32829 0.0
H611 H 0.82323 0.93367 0.31756 0.0
H612 H 0.77649 0.87028 0.34216 0.0
S613 S 0.58469 0.92263 0.29044 0.0
N614 N 0.64785 0.95331 0.28422 0.0
N615 N 0.59917 0.88269 0.31015 0.0
C616 C 0.65792 0.89285 0.3123 0.0
C617 C 0.68442 0.93086 0.29823 0.0
C618 C 0.88645 0.87387 0.07114 0.0
C619 C 0.90235 0.90641 0.05433 0.0
C620 C 0.92946 0.85254 0.08413 0.0
C621 C 0.98928 0.86447 0.08086 0.0
H622 H 0.84046 0.86523 0.07428 0.0
H623 H 0.91578 0.82851 0.09713 0.0
S624 S 0.05332 0.94589 0.03868 0.0
N625 N 0.98151 0.94753 0.03469 0.0
N626 N 0.06256 0.90886 0.05941 0.0
C627 C 0.00567 0.89609 0.06395 0.0
C628 C 0.96206 0.91671 0.05056 0.0
C629 C 0.93767 0.03396 0.8234 0.0
C630 C 0.94602 0.03941 0.80271 0.0
C631 C 0.95825 0.07713 0.83685 0.0
C632 C 0.98912 0.12635 0.8301 0.0
H633 H 0.91408 0.99653 0.82927 0.0
H634 H 0.94879 0.07273 0.85257 0.0
S635 S 0.0256 0.16092 0.77793 0.0
N636 N 0.98869 0.09809 0.77633 0.0
N637 N 0.0295 0.178 0.80193 0.0
C638 C 0.00034 0.13138 0.8097 0.0
C639 C 0.97843 0.08803 0.7959 0.0
C640 C 0.74281 0.87833 0.44761 0.0
C641 C 0.78651 0.91961 0.44262 0.0
C642 C 0.70428 0.85504 0.43308 0.0
C643 C 0.70903 0.87175 0.41311 0.0
H644 H 0.7408 0.86133 0.46256 0.0
H645 H 0.67456 0.8198 0.43713 0.0
S646 S 0.81186 0.98213 0.39273 0.0
N647 N 0.82844 0.98002 0.41666 0.0
N648 N 0.7569 0.93518 0.38937 0.0
C649 C 0.74943 0.91608 0.40826 0.0
C650 C 0.78803 0.94034 0.42304 0.0
C651 C 0.98417 0.96716 0.17798 0.0
C652 C 0.94767 0.95498 0.19431 0.0
C653 C 0.00415 0.9215 0.16524 0.0
C654 C 0.987 0.86279 0.16831 0.0
H655 H -0.00431 0.01241 0.1747 0.0
H656 H 0.03053 0.9325 0.15239 0.0
S657 S 0.89463 0.80806 0.20955 0.0
N658 N 0.89788 0.88032 0.2135 0.0
N659 N 0.93423 0.79443 0.18933 0.0
C660 C 0.9522 0.85 0.18498 0.0
C661 C 0.93283 0.89623 0.19808 0.0
C662 C 0.95062 0.0979 0.94689 0.0
C663 C 0.89277 0.0905 0.93979 0.0
C664 C 0.99488 0.11984 0.93459 0.0
C665 C 0.9822 0.13639 0.91503 0.0
H666 H 0.9621 0.08491 0.96185 0.0
H667 H 0.03947 0.1231 0.94028 0.0
S668 S 0.83805 0.12754 0.88945 0.0
N669 N 0.82516 0.10237 0.91197 0.0
N670 N 0.90865 0.14515 0.88906 0.0
C671 C 0.92455 0.13085 0.90787 0.0
C672 C 0.87966 0.10741 0.92022 0.0
C673 C 0.70116 0.07218 0.6934 0.0
C674 C 0.7602 0.05469 0.69042 0.0
C675 C 0.67289 0.11003 0.68025 0.0
C676 C 0.70237 0.13205 0.66362 0.0
H677 H 0.67498 0.05321 0.70514 0.0
H678 H 0.62619 0.11841 0.68224 0.0
S679 S 0.85875 0.1072 0.65033 0.0
N680 N 0.84912 0.06866 0.67073 0.0
N681 N 0.79456 0.13851 0.64561 0.0
C682 C 0.76221 0.11861 0.6611 0.0
C683 C 0.79145 0.08019 0.67459 0.0
C684 C 0.8606 0.42237 0.94828 0.0
C685 C 0.80913 0.38854 0.95089 0.0
C686 C 0.90638 0.40264 0.93571 0.0
C687 C 0.90263 0.34816 0.92525 0.0
H688 H 0.86469 0.46551 0.95544 0.0
H689 H 0.94322 0.43203 0.93327 0.0
S690 S 0.78116 0.2389 0.92906 0.0
N691 N 0.75968 0.29542 0.94315 0.0
N692 N 0.84657 0.25727 0.92048 0.0
C693 C 0.85372 0.31172 0.92909 0.0
C694 C 0.80678 0.33214 0.94163 0.0
C695 C 0.8614 0.50362 0.18336 0.0
C696 C 0.87077 0.4431 0.17973 0.0
C697 C 0.88402 0.54568 0.17046 0.0
C698 C 0.91777 0.52867 0.15366 0.0
H699 H 0.83695 0.51852 0.19639 0.0
H700 H 0.87659 0.59197 0.17409 0.0
S701 S 0.9532 0.37493 0.13748 0.0
N702 N 0.91426 0.36758 0.15806 0.0
N703 N 0.95758 0.44678 0.13381 0.0
C704 C 0.92651 0.46804 0.14971 0.0
C705 C 0.90275 0.42519 0.16274 0.0
C706 C 0.90741 0.62496 0.42519 0.0
C707 C 0.90826 0.56721 0.43253 0.0
C708 C 0.86698 0.64127 0.41054 0.0
C709 C 0.82558 0.6005 0.40288 0.0
H710 H 0.93807 0.65787 0.4309 0.0
H711 H 0.86669 0.68678 0.4058 0.0
S712 S 0.81201 0.44277 0.41654 0.0
N713 N 0.86613 0.46858 0.43065 0.0
N714 N 0.79015 0.49888 0.40301 0.0
C715 C 0.82731 0.54203 0.40969 0.0
C716 C 0.86864 0.52546 0.42455 0.0
C717 C 0.77177 0.47908 0.69434 0.0
C718 C 0.73188 0.52285 0.70097 0.0
C719 C 0.75349 0.43248 0.68169 0.0
C720 C 0.69482 0.42864 0.67495 0.0
H721 H 0.81797 0.48232 0.69828 0.0
H722 H 0.78653 0.40189 0.67604 0.0
S723 S 0.57202 0.52846 0.68996 0.0
N724 N 0.63023 0.55644 0.70145 0.0
N725 N 0.59573 0.46918 0.67762 0.0
C726 C 0.65374 0.46984 0.68264 0.0
C727 C 0.6723 0.51689 0.69566 0.0
C728 C 0.83404 0.5694 0.05966 0.0
C729 C 0.8116 0.60623 0.04475 0.0
C730 C 0.8808 0.58732 0.0719 0.0
C731 C 0.90635 0.64341 0.07016 0.0
H732 H 0.81398 0.52704 0.06256 0.0
H733 H 0.89496 0.55811 0.08358 0.0
S734 S 0.86917 0.75519 0.03272 0.0
N735 N 0.8235 0.69994 0.02783 0.0
N736 N 0.90893 0.73488 0.05203 0.0
C737 C 0.88581 0.68054 0.05522 0.0
C738 C 0.83907 0.66167 0.04225 0.0
C739 C 0.66571 0.48518 0.29725 0.0
C740 C 0.72333 0.47945 0.28983 0.0
C741 C 0.65059 0.53183 0.31035 0.0
C742 C 0.69241 0.57465 0.31637 0.0
H743 H 0.63321 0.45126 0.29401 0.0
H744 H 0.60677 0.53236 0.3167 0.0
S745 S 0.84644 0.58461 0.29813 0.0
N746 N 0.82011 0.52418 0.28717 0.0
N747 N 0.79187 0.61218 0.31169 0.0
C748 C 0.74859 0.57236 0.3075 0.0
C749 C 0.76408 0.5245 0.29431 0.0
C750 C 0.91494 0.42276 0.57715 0.0
C751 C 0.89877 0.44789 0.55896 0.0
C752 C 0.8721 0.40189 0.5903 0.0
C753 C 0.81183 0.40677 0.58581 0.0
H754 H 0.96104 0.41828 0.58105 0.0
H755 H 0.88621 0.38213 0.60407 0.0
S756 S 0.74745 0.46975 0.53993 0.0
N757 N 0.81932 0.47664 0.53703 0.0
N758 N 0.73839 0.43846 0.56172 0.0
C759 C 0.79533 0.43255 0.56769 0.0
C760 C 0.83895 0.45282 0.55424 0.0
C761 C 0.87496 0.49551 0.80725 0.0
C762 C 0.88334 0.55589 0.81151 0.0
C763 C 0.89442 0.45261 0.82047 0.0
C764 C 0.92387 0.46854 0.83827 0.0
H765 H 0.85342 0.48139 0.79356 0.0
H766 H 0.88776 0.40651 0.81639 0.0
S767 S 0.95608 0.62137 0.8562 0.0
N768 N 0.92209 0.62997 0.83471 0.0
N769 N 0.95929 0.5493 0.85956 0.0
C770 C 0.93198 0.52898 0.84276 0.0
C771 C 0.9115 0.57267 0.82938 0.0
C772 C 0.24212 0.62586 0.04658 0.0
C773 C 0.28315 0.58141 0.0512 0.0
C774 C 0.20376 0.64924 0.06117 0.0
C775 C 0.20585 0.62929 0.08084 0.0
H776 H 0.24209 0.64501 0.03192 0.0
H777 H 0.17636 0.68675 0.0575 0.0
S778 S 0.30151 0.51085 0.10019 0.0
N779 N 0.31998 0.51536 0.07648 0.0
N780 N 0.24871 0.56016 0.10382 0.0
C781 C 0.24356 0.58218 0.08523 0.0
C782 C 0.28206 0.55796 0.07042 0.0
C783 C 0.27986 0.41474 0.81536 0.0
C784 C 0.24628 0.44336 0.8007 0.0
C785 C 0.25302 0.37786 0.82933 0.0
C786 C 0.19195 0.36832 0.82894 0.0
H787 H 0.32674 0.42302 0.81659 0.0
H788 H 0.27945 0.35998 0.84123 0.0
S789 S 0.08438 0.43046 0.79353 0.0
N790 N 0.14846 0.45775 0.78662 0.0
N791 N 0.09902 0.38752 0.81248 0.0
C792 C 0.15853 0.39377 0.81377 0.0
C793 C 0.18542 0.4315 0.79972 0.0
C794 C 0.44546 0.40009 0.54821 0.0
C795 C 0.38676 0.40333 0.55475 0.0
C796 C 0.48934 0.37699 0.56043 0.0
C797 C 0.47542 0.35512 0.57926 0.0
H798 H 0.45782 0.41755 0.5339 0.0
H799 H 0.53465 0.37748 0.55534 0.0
S800 S 0.32812 0.34969 0.60266 0.0
N801 N 0.31657 0.3805 0.58089 0.0
N802 N 0.39951 0.33571 0.60367 0.0
C803 C 0.41681 0.35591 0.58568 0.0
C804 C 0.37225 0.38049 0.57344 0.0
C805 C 0.42925 0.60573 0.29944 0.0
C806 C 0.43789 0.54603 0.30387 0.0
C807 C 0.44913 0.65034 0.31252 0.0
C808 C 0.47914 0.63633 0.33012 0.0
H809 H 0.40499 0.61784 0.28623 0.0
H810 H 0.44012 0.69605 0.30904 0.0
S811 S 0.5141 0.48663 0.34798 0.0
N812 N 0.47912 0.4749 0.32667 0.0
N813 N 0.51748 0.55919 0.35115 0.0
C814 C 0.48979 0.57691 0.33435 0.0
C815 C 0.46881 0.5315 0.32121 0.0
C816 C 0.27992 0.44314 0.92348 0.0
C817 C 0.28068 0.42314 0.94317 0.0
C818 C 0.24219 0.41752 0.90923 0.0
C819 C 0.20312 0.37208 0.9143 0.0
H820 H 0.31211 0.47516 0.91865 0.0
H821 H 0.24698 0.42994 0.89381 0.0
S822 S 0.18167 0.31053 0.96444 0.0
N823 N 0.23447 0.36014 0.96753 0.0
N824 N 0.16283 0.3126 0.94069 0.0
C825 C 0.1994 0.35579 0.9343 0.0
C826 C 0.23851 0.38112 0.94877 0.0
C827 C 0.44095 0.39559 0.69519 0.0
C828 C 0.43193 0.45301 0.68815 0.0
C829 C 0.46278 0.35063 0.68257 0.0
C830 C 0.47748 0.36221 0.66273 0.0
H831 H 0.42923 0.38494 0.71034 0.0
H832 H 0.46724 0.30632 0.68824 0.0
S833 S 0.46619 0.50542 0.63742 0.0
N834 N 0.4419 0.51937 0.66024 0.0
N835 N 0.48395 0.43457 0.6367 0.0
C836 C 0.47057 0.41951 0.65566 0.0
C837 C 0.44743 0.46507 0.66834 0.0
C838 C 0.45554 0.58983 0.44604 0.0
C839 C 0.39575 0.59802 0.44153 0.0
C840 C 0.49939 0.60929 0.43308 0.0
C841 C 0.48458 0.63866 0.41552 0.0
H842 H 0.46832 0.56673 0.45935 0.0
H843 H 0.54515 0.601 0.43671 0.0
S844 S 0.33447 0.67189 0.3973 0.0
N845 N 0.32382 0.63803 0.41857 0.0
N846 N 0.40662 0.67514 0.39427 0.0
C847 C 0.4251 0.64835 0.41109 0.0
C848 C 0.38047 0.62782 0.42411 0.0
C849 C 0.26156 0.52802 0.16937 0.0
C850 C 0.2718 0.5479 0.18901 0.0
C851 C 0.23085 0.56263 0.15593 0.0
C852 C 0.20906 0.61897 0.16137 0.0
H853 H 0.27337 0.48347 0.16465 0.0
H854 H 0.2207 0.5431 0.1415 0.0
S855 S 0.23262 0.69613 0.20989 0.0
N856 N 0.2645 0.63099 0.21254 0.0
N857 N 0.20595 0.69629 0.18698 0.0
C858 C 0.22322 0.64185 0.18036 0.0
C859 C 0.25453 0.60615 0.19427 0.0
loop_
_geom_bond_atom_site_label_1
_geom_bond_atom_site_label_2
_geom_bond_distance
_geom_bond_site_symmetry_2
_ccdc_geom_bond_type
H0 C19 0.949 . S
H1 C20 0.950 . S
H2 C22 0.950 1_545 S
H3 C23 0.969 . S
H4 C25 0.950 . S
H5 C28 0.950 1_565 S
H6 C29 0.950 . S
H7 C31 0.951 . S
H8 C32 0.949 . S
H9 C34 0.949 . S
H10 C35 0.950 . S
H11 C37 0.950 1_565 S
H12 C38 0.949 1_565 S
H13 C40 0.950 . S
H14 C43 0.950 1_545 S
H15 C44 0.962 . S
H16 C46 0.951 . S
H17 C47 0.949 . S
C18 C19 1.376 . S
C18 C23 1.373 1_565 S
C18 C24 1.483 . S
C19 H0 0.949 . S
C19 C18 1.376 . S
C19 C20 1.397 . S
C20 H1 0.950 . S
C20 C19 1.397 . S
C20 C21 1.391 . S
C21 C20 1.391 . S
C21 C22 1.405 . S
C22 H2 0.950 1_565 S
C22 C21 1.405 . S
C22 C23 1.362 1_565 S
C23 H3 0.969 . S
C23 C18 1.373 1_545 S
C23 C22 1.362 1_545 S
C24 C18 1.483 . S
C24 C25 1.382 1_655 S
C24 C26 1.403 1_565 S
C25 H4 0.950 . S
C25 C24 1.382 1_455 S
C25 C41 1.411 . S
C26 C24 1.403 1_545 S
C26 C27 1.489 . S
C26 C40 1.411 1_655 S
C27 C26 1.489 . S
C27 C28 1.383 . S
C27 C32 1.382 . S
C28 H5 0.950 1_545 S
C28 C27 1.383 . S
C28 C29 1.395 . S
C29 H6 0.950 . S
C29 C28 1.395 . S
C29 C30 1.288 . S
C30 C29 1.288 . S
C30 C31 1.392 . S
C31 H7 0.951 . S
C31 C30 1.392 . S
C31 C32 1.392 . S
C32 H8 0.949 . S
C32 C27 1.382 . S
C32 C31 1.392 . S
C33 C34 1.376 . S
C33 C38 1.387 . S
C33 C39 1.483 . S
C34 H9 0.949 . S
C34 C33 1.376 . S
C34 C35 1.397 . S
C35 H10 0.950 . S
C35 C34 1.397 . S
C35 C36 1.391 . S
C36 C35 1.391 . S
C36 C37 1.405 . S
C37 H11 0.950 1_545 S
C37 C36 1.405 . S
C37 C38 1.368 . S
C38 H12 0.949 1_545 S
C38 C33 1.387 . S
C38 C37 1.368 . S
C39 C33 1.483 . S
C39 C40 1.382 . S
C39 C41 1.403 1_545 S
C40 H13 0.950 . S
C40 C26 1.411 1_455 S
C40 C39 1.382 . S
C41 C25 1.411 . S
C41 C39 1.403 1_565 S
C41 C42 1.489 . S
C42 C41 1.489 . S
C42 C43 1.383 . S
C42 C47 1.382 . S
C43 H14 0.950 1_565 S
C43 C42 1.383 . S
C43 C44 1.395 . S
C44 H15 0.962 . S
C44 C43 1.395 . S
C44 C45 1.288 . S
C45 C44 1.288 . S
C45 C46 1.392 . S
C46 H16 0.951 . S
C46 C45 1.392 . S
C46 C47 1.392 . S
C47 H17 0.949 . S
C47 C42 1.382 . S
C47 C46 1.392 . S
H48 C67 0.949 . S
H49 C68 0.950 . S
H50 C70 0.950 . S
H51 C71 0.950 . S
H52 C73 0.950 . S
H53 C76 0.950 . S
H54 C77 0.950 . S
H55 C79 0.951 . S
H56 C80 0.949 . S
H57 C82 0.949 . S
H58 C83 0.950 . S
H59 C85 0.950 . S
H60 C86 0.950 . S
H61 C88 0.950 . S
H62 C91 0.950 . S
H63 C92 0.950 . S
H64 C94 0.951 . S
H65 C95 0.949 . S
C66 C67 1.376 . S
C66 C71 1.386 . S
C66 C72 1.483 . S
C67 H48 0.949 . S
C67 C66 1.376 . S
C67 C68 1.397 . S
C68 H49 0.950 . S
C68 C67 1.397 . S
C68 C69 1.391 . S
C69 C68 1.391 . S
C69 C70 1.405 . S
C70 H50 0.950 . S
C70 C69 1.405 . S
C70 C71 1.367 . S
C71 H51 0.950 . S
C71 C66 1.386 . S
C71 C70 1.367 . S
C72 C66 1.483 . S
C72 C73 1.382 . S
C72 C74 1.403 . S
C73 H52 0.950 . S
C73 C72 1.382 . S
C73 C89 1.411 . S
C74 C72 1.403 . S
C74 C75 1.489 . S
C74 C88 1.411 . S
C75 C74 1.489 . S
C75 C76 1.383 . S
C75 C80 1.382 . S
C76 H53 0.950 . S
C76 C75 1.383 . S
C76 C77 1.395 . S
C77 H54 0.950 . S
C77 C76 1.395 . S
C77 C78 1.288 . S
C78 C77 1.288 . S
C78 C79 1.392 . S
C79 H55 0.951 . S
C79 C78 1.392 . S
C79 C80 1.392 . S
C80 H56 0.949 . S
C80 C75 1.382 . S
C80 C79 1.392 . S
C81 C82 1.376 . S
C81 C86 1.386 . S
C81 C87 1.483 . S
C82 H57 0.949 . S
C82 C81 1.376 . S
C82 C83 1.397 . S
C83 H58 0.950 . S
C83 C82 1.397 . S
C83 C84 1.391 . S
C84 C83 1.391 . S
C84 C85 1.405 . S
C85 H59 0.950 . S
C85 C84 1.405 . S
C85 C86 1.367 . S
C86 H60 0.950 . S
C86 C81 1.386 . S
C86 C85 1.367 . S
C87 C81 1.483 . S
C87 C88 1.382 . S
C87 C89 1.403 . S
C88 H61 0.950 . S
C88 C74 1.411 . S
C88 C87 1.382 . S
C89 C73 1.411 . S
C89 C87 1.403 . S
C89 C90 1.489 . S
C90 C89 1.489 . S
C90 C91 1.383 . S
C90 C95 1.382 . S
C91 H62 0.950 . S
C91 C90 1.383 . S
C91 C92 1.395 . S
C92 H63 0.950 . S
C92 C91 1.395 . S
C92 C93 1.288 . S
C93 C92 1.288 . S
C93 C94 1.392 . S
C94 H64 0.951 . S
C94 C93 1.392 . S
C94 C95 1.392 . S
C95 H65 0.949 . S
C95 C90 1.382 . S
C95 C94 1.392 . S
H96 C115 0.949 1_545 S
H97 C116 0.950 . S
H98 C118 0.950 . S
H99 C119 0.950 1_556 S
H100 C121 0.950 . S
H101 C124 0.950 1_554 S
H102 C125 0.950 . S
H103 C127 0.951 . S
H104 C128 0.949 1_565 S
H105 C130 0.949 1_565 S
H106 C131 0.950 . S
H107 C133 0.950 . S
H108 C134 0.950 1_554 S
H109 C136 0.950 . S
H110 C139 0.950 1_556 S
H111 C140 0.950 . S
H112 C142 0.951 . S
H113 C143 0.949 1_545 S
C114 C115 1.376 . S
C114 C119 1.386 . S
C114 C120 1.483 . S
C115 H96 0.949 1_565 S
C115 C114 1.376 . S
C115 C116 1.397 . S
C116 H97 0.950 . S
C116 C115 1.397 . S
C116 C117 1.391 . S
C117 C116 1.391 . S
C117 C118 1.405 . S
C118 H98 0.950 . S
C118 C117 1.405 . S
C118 C119 1.367 . S
C119 H99 0.950 1_554 S
C119 C114 1.386 . S
C119 C118 1.367 . S
C120 C114 1.483 . S
C120 C121 1.382 . S
C120 C122 1.403 1_564 S
C121 H100 0.950 . S
C121 C120 1.382 . S
C121 C137 1.411 . S
C122 C120 1.403 1_546 S
C122 C123 1.489 . S
C122 C136 1.411 . S
C123 C122 1.489 . S
C123 C124 1.383 . S
C123 C128 1.382 . S
C124 H101 0.950 1_556 S
C124 C123 1.383 . S
C124 C125 1.395 . S
C125 H102 0.950 . S
C125 C124 1.395 . S
C125 C126 1.288 . S
C126 C125 1.288 . S
C126 C127 1.392 . S
C127 H103 0.951 . S
C127 C126 1.392 . S
C127 C128 1.392 . S
C128 H104 0.949 1_545 S
C128 C123 1.382 . S
C128 C127 1.392 . S
C129 C130 1.376 . S
C129 C134 1.386 . S
C129 C135 1.483 . S
C130 H105 0.949 1_545 S
C130 C129 1.376 . S
C130 C131 1.397 . S
C131 H106 0.950 . S
C131 C130 1.397 . S
C131 C132 1.391 . S
C132 C131 1.391 . S
C132 C133 1.405 . S
C133 H107 0.950 . S
C133 C132 1.405 . S
C133 C134 1.367 . S
C134 H108 0.950 1_556 S
C134 C129 1.386 . S
C134 C133 1.367 . S
C135 C129 1.483 . S
C135 C136 1.382 . S
C135 C137 1.403 1_546 S
C136 H109 0.950 . S
C136 C122 1.411 . S
C136 C135 1.382 . S
C137 C121 1.411 . S
C137 C135 1.403 1_564 S
C137 C138 1.489 . S
C138 C137 1.489 . S
C138 C139 1.383 . S
C138 C143 1.382 . S
C139 H110 0.950 1_554 S
C139 C138 1.383 . S
C139 C140 1.395 . S
C140 H111 0.950 . S
C140 C139 1.395 . S
C140 C141 1.288 . S
C141 C140 1.288 . S
C141 C142 1.392 . S
C142 H112 0.951 . S
C142 C141 1.392 . S
C142 C143 1.392 . S
C143 H113 0.949 1_565 S
C143 C138 1.382 . S
C143 C142 1.392 . S
H144 C163 0.949 . S
H145 C164 0.950 . S
H146 C166 0.950 . S
H147 C167 0.950 . S
H148 C169 0.950 . S
H149 C172 0.950 . S
H150 C173 0.950 . S
H151 C175 0.951 . S
H152 C176 0.949 . S
H153 C178 0.949 . S
H154 C179 0.950 . S
H155 C181 0.950 . S
H156 C182 0.950 . S
H157 C184 0.950 . S
H158 C187 0.950 . S
H159 C188 0.950 . S
H160 C190 0.951 . S
H161 C191 0.949 . S
C162 C163 1.376 . S
C162 C167 1.386 . S
C162 C168 1.483 . S
C163 H144 0.949 . S
C163 C162 1.376 . S
C163 C164 1.397 . S
C164 H145 0.950 . S
C164 C163 1.397 . S
C164 C165 1.391 . S
C165 C164 1.391 . S
C165 C166 1.405 . S
C166 H146 0.950 . S
C166 C165 1.405 . S
C166 C167 1.367 . S
C167 H147 0.950 . S
C167 C162 1.386 . S
C167 C166 1.367 . S
C168 C162 1.483 . S
C168 C169 1.382 . S
C168 C170 1.403 . S
C169 H148 0.950 . S
C169 C168 1.382 . S
C169 C185 1.411 . S
C170 C168 1.403 . S
C170 C171 1.489 . S
C170 C184 1.411 . S
C171 C170 1.489 . S
C171 C172 1.383 . S
C171 C176 1.382 . S
C172 H149 0.950 . S
C172 C171 1.383 . S
C172 C173 1.395 . S
C173 H150 0.950 . S
C173 C172 1.395 . S
C173 C174 1.288 . S
C174 C173 1.288 . S
C174 C175 1.392 . S
C175 H151 0.951 . S
C175 C174 1.392 . S
C175 C176 1.392 . S
C176 H152 0.949 . S
C176 C171 1.382 . S
C176 C175 1.392 . S
C177 C178 1.376 . S
C177 C182 1.386 . S
C177 C183 1.483 . S
C178 H153 0.949 . S
C178 C177 1.376 . S
C178 C179 1.397 . S
C179 H154 0.950 . S
C179 C178 1.397 . S
C179 C180 1.391 . S
C180 C179 1.391 . S
C180 C181 1.405 . S
C181 H155 0.950 . S
C181 C180 1.405 . S
C181 C182 1.367 . S
C182 H156 0.950 . S
C182 C177 1.386 . S
C182 C181 1.367 . S
C183 C177 1.483 . S
C183 C184 1.382 . S
C183 C185 1.403 . S
C184 H157 0.950 . S
C184 C170 1.411 . S
C184 C183 1.382 . S
C185 C169 1.411 . S
C185 C183 1.403 . S
C185 C186 1.489 . S
C186 C185 1.489 . S
C186 C187 1.383 . S
C186 C191 1.382 . S
C187 H158 0.950 . S
C187 C186 1.383 . S
C187 C188 1.395 . S
C188 H159 0.950 . S
C188 C187 1.395 . S
C188 C189 1.288 . S
C189 C188 1.288 . S
C189 C190 1.392 . S
C190 H160 0.951 . S
C190 C189 1.392 . S
C190 C191 1.392 . S
C191 H161 0.949 . S
C191 C186 1.382 . S
C191 C190 1.392 . S
H192 C211 0.949 . S
H193 C212 0.950 . S
H194 C214 0.950 . S
H195 C215 0.950 . S
H196 C217 0.950 . S
H197 C220 0.950 . S
H198 C221 0.950 . S
H199 C223 0.951 . S
H200 C224 0.949 . S
H201 C226 0.949 . S
H202 C227 0.950 1_565 S
H203 C229 0.950 . S
H204 C230 0.950 . S
H205 C232 0.950 . S
H206 C235 0.950 . S
H207 C236 0.950 . S
H208 C238 0.951 . S
H209 C239 0.949 . S
C210 C211 1.376 . S
C210 C215 1.386 . S
C210 C216 1.483 . S
C211 H192 0.949 . S
C211 C210 1.376 . S
C211 C212 1.397 . S
C212 H193 0.950 . S
C212 C211 1.397 . S
C212 C213 1.391 . S
C213 C212 1.391 . S
C213 C214 1.405 . S
C214 H194 0.950 . S
C214 C213 1.405 . S
C214 C215 1.367 . S
C215 H195 0.950 . S
C215 C210 1.386 . S
C215 C214 1.367 . S
C216 C210 1.483 . S
C216 C217 1.382 . S
C216 C218 1.403 . S
C217 H196 0.950 . S
C217 C216 1.382 . S
C217 C233 1.411 . S
C218 C216 1.403 . S
C218 C219 1.489 . S
C218 C232 1.411 . S
C219 C218 1.489 . S
C219 C220 1.383 . S
C219 C224 1.382 . S
C220 H197 0.950 . S
C220 C219 1.383 . S
C220 C221 1.395 . S
C221 H198 0.950 . S
C221 C220 1.395 . S
C221 C222 1.288 . S
C222 C221 1.288 . S
C222 C223 1.392 . S
C223 H199 0.951 . S
C223 C222 1.392 . S
C223 C224 1.392 . S
C224 H200 0.949 . S
C224 C219 1.382 . S
C224 C223 1.392 . S
C225 C226 1.376 . S
C225 C230 1.386 . S
C225 C231 1.483 . S
C226 H201 0.949 . S
C226 C225 1.376 . S
C226 C227 1.397 . S
C227 H202 0.950 1_545 S
C227 C226 1.397 . S
C227 C228 1.391 1_545 S
C228 C227 1.391 1_565 S
C228 C229 1.405 . S
C229 H203 0.950 . S
C229 C228 1.405 . S
C229 C230 1.367 1_565 S
C230 H204 0.950 . S
C230 C225 1.386 . S
C230 C229 1.367 1_545 S
C231 C225 1.483 . S
C231 C232 1.382 . S
C231 C233 1.403 . S
C232 H205 0.950 . S
C232 C218 1.411 . S
C232 C231 1.382 . S
C233 C217 1.411 . S
C233 C231 1.403 . S
C233 C234 1.489 . S
C234 C233 1.489 . S
C234 C235 1.383 . S
C234 C239 1.382 . S
C235 H206 0.950 . S
C235 C234 1.383 . S
C235 C236 1.395 1_545 S
C236 H207 0.950 . S
C236 C235 1.395 1_565 S
C236 C237 1.288 . S
C237 C236 1.288 . S
C237 C238 1.392 1_565 S
C238 H208 0.951 . S
C238 C237 1.392 1_545 S
C238 C239 1.392 . S
C239 H209 0.949 . S
C239 C234 1.382 . S
C239 C238 1.392 . S
H240 C259 0.949 . S
H241 C260 0.950 1_545 S
H242 C262 0.950 . S
H243 C263 0.950 . S
H244 C265 0.950 . S
H245 C268 0.950 . S
H246 C269 0.950 . S
H247 C271 0.951 1_455 S
H248 C272 0.949 . S
H249 C274 0.949 . S
H250 C275 0.950 . S
H251 C277 0.950 . S
H252 C278 0.950 . S
H253 C280 0.950 . S
H254 C283 0.950 . S
H255 C284 0.950 . S
H256 C286 0.951 . S
H257 C287 0.949 . S
C258 C259 1.376 . S
C258 C263 1.386 . S
C258 C264 1.483 . S
C259 H240 0.949 . S
C259 C258 1.376 . S
C259 C260 1.397 . S
C260 H241 0.950 1_565 S
C260 C259 1.397 . S
C260 C261 1.391 1_565 S
C261 C260 1.391 1_545 S
C261 C262 1.405 . S
C262 H242 0.950 . S
C262 C261 1.405 . S
C262 C263 1.367 1_545 S
C263 H243 0.950 . S
C263 C258 1.386 . S
C263 C262 1.367 1_565 S
C264 C258 1.483 . S
C264 C265 1.382 . S
C264 C266 1.403 . S
C265 H244 0.950 . S
C265 C264 1.382 . S
C265 C281 1.411 . S
C266 C264 1.403 . S
C266 C267 1.489 . S
C266 C280 1.411 . S
C267 C266 1.489 . S
C267 C268 1.383 . S
C267 C272 1.382 . S
C268 H245 0.950 . S
C268 C267 1.383 . S
C268 C269 1.395 1_565 S
C269 H246 0.950 . S
C269 C268 1.395 1_545 S
C269 C270 1.288 . S
C270 C269 1.288 . S
C270 C271 1.392 1_545 S
C271 H247 0.951 1_655 S
C271 C270 1.392 1_565 S
C271 C272 1.392 . S
C272 H248 0.949 . S
C272 C267 1.382 . S
C272 C271 1.392 . S
C273 C274 1.376 . S
C273 C278 1.386 . S
C273 C279 1.483 . S
C274 H249 0.949 . S
C274 C273 1.376 . S
C274 C275 1.397 . S
C275 H250 0.950 . S
C275 C274 1.397 . S
C275 C276 1.391 . S
C276 C275 1.391 . S
C276 C277 1.405 . S
C277 H251 0.950 . S
C277 C276 1.405 . S
C277 C278 1.367 . S
C278 H252 0.950 . S
C278 C273 1.386 . S
C278 C277 1.367 . S
C279 C273 1.483 . S
C279 C280 1.382 . S
C279 C281 1.403 . S
C280 H253 0.950 . S
C280 C266 1.411 . S
C280 C279 1.382 . S
C281 C265 1.411 . S
C281 C279 1.403 . S
C281 C282 1.489 . S
C282 C281 1.489 . S
C282 C283 1.383 . S
C282 C287 1.382 . S
C283 H254 0.950 . S
C283 C282 1.383 . S
C283 C284 1.395 . S
C284 H255 0.950 . S
C284 C283 1.395 . S
C284 C285 1.288 . S
C285 C284 1.288 . S
C285 C286 1.392 . S
C286 H256 0.951 . S
C286 C285 1.392 . S
C286 C287 1.392 . S
C287 H257 0.949 . S
C287 C282 1.382 . S
C287 C286 1.392 . S
H288 C307 0.949 . S
H289 C308 0.950 . S
H290 C310 0.950 . S
H291 C311 0.950 . S
H292 C313 0.950 . S
H293 C316 0.950 . S
H294 C317 0.950 . S
H295 C319 0.951 . S
H296 C320 0.949 . S
H297 C322 0.949 . S
H298 C323 0.950 . S
H299 C325 0.950 . S
H300 C326 0.950 . S
H301 C328 0.950 . S
H302 C331 0.950 . S
H303 C332 0.950 . S
H304 C334 0.951 . S
H305 C335 0.949 . S
C306 C307 1.376 . S
C306 C311 1.386 . S
C306 C312 1.483 . S
C307 H288 0.949 . S
C307 C306 1.376 . S
C307 C308 1.397 . S
C308 H289 0.950 . S
C308 C307 1.397 . S
C308 C309 1.391 . S
C309 C308 1.391 . S
C309 C310 1.405 . S
C310 H290 0.950 . S
C310 C309 1.405 . S
C310 C311 1.367 . S
C311 H291 0.950 . S
C311 C306 1.386 . S
C311 C310 1.367 . S
C312 C306 1.483 . S
C312 C313 1.382 . S
C312 C314 1.403 1_556 S
C313 H292 0.950 . S
C313 C312 1.382 . S
C313 C329 1.411 . S
C314 C312 1.403 1_554 S
C314 C315 1.489 . S
C314 C328 1.411 . S
C315 C314 1.489 . S
C315 C316 1.383 . S
C315 C320 1.382 . S
C316 H293 0.950 . S
C316 C315 1.383 . S
C316 C317 1.395 . S
C317 H294 0.950 . S
C317 C316 1.395 . S
C317 C318 1.288 . S
C318 C317 1.288 . S
C318 C319 1.392 . S
C319 H295 0.951 . S
C319 C318 1.392 . S
C319 C320 1.392 . S
C320 H296 0.949 . S
C320 C315 1.382 . S
C320 C319 1.392 . S
C321 C322 1.376 . S
C321 C326 1.386 . S
C321 C327 1.483 . S
C322 H297 0.949 . S
C322 C321 1.376 . S
C322 C323 1.397 . S
C323 H298 0.950 . S
C323 C322 1.397 . S
C323 C324 1.391 . S
C324 C323 1.391 . S
C324 C325 1.405 . S
C325 H299 0.950 . S
C325 C324 1.405 . S
C325 C326 1.367 . S
C326 H300 0.950 . S
C326 C321 1.386 . S
C326 C325 1.367 . S
C327 C321 1.483 . S
C327 C328 1.382 . S
C327 C329 1.403 1_554 S
C328 H301 0.950 . S
C328 C314 1.411 . S
C328 C327 1.382 . S
C329 C313 1.411 . S
C329 C327 1.403 1_556 S
C329 C330 1.489 . S
C330 C329 1.489 . S
C330 C331 1.383 . S
C330 C335 1.382 . S
C331 H302 0.950 . S
C331 C330 1.383 . S
C331 C332 1.395 . S
C332 H303 0.950 . S
C332 C331 1.395 . S
C332 C333 1.288 . S
C333 C332 1.288 . S
C333 C334 1.392 . S
C334 H304 0.951 . S
C334 C333 1.392 . S
C334 C335 1.392 . S
C335 H305 0.949 . S
C335 C330 1.382 . S
C335 C334 1.392 . S
H336 C355 0.949 . S
H337 C356 0.950 . S
H338 C358 0.950 . S
H339 C359 0.950 . S
H340 C361 0.950 . S
H341 C364 0.950 . S
H342 C365 0.950 . S
H343 C367 0.953 . S
H344 C368 0.949 . S
H345 C370 0.949 . S
H346 C371 0.950 . S
H347 C373 0.950 . S
H348 C374 0.950 . S
H349 C376 0.950 . S
H350 C379 0.950 . S
H351 C380 0.950 . S
H352 C382 0.951 . S
H353 C383 0.949 . S
C354 C355 1.376 . S
C354 C359 1.386 . S
C354 C360 1.483 . S
C355 H336 0.949 . S
C355 C354 1.376 . S
C355 C356 1.397 1_455 S
C356 H337 0.950 . S
C356 C355 1.397 1_655 S
C356 C357 1.391 . S
C357 C356 1.391 . S
C357 C358 1.405 . S
C358 H338 0.950 . S
C358 C357 1.405 . S
C358 C359 1.367 1_655 S
C359 H339 0.950 . S
C359 C354 1.386 . S
C359 C358 1.367 1_455 S
C360 C354 1.483 . S
C360 C361 1.382 . S
C360 C362 1.403 . S
C361 H340 0.950 . S
C361 C360 1.382 . S
C361 C377 1.411 . S
C362 C360 1.403 . S
C362 C363 1.489 . S
C362 C376 1.411 . S
C363 C362 1.489 . S
C363 C364 1.383 . S
C363 C368 1.382 . S
C364 H341 0.950 . S
C364 C363 1.383 . S
C364 C365 1.395 1_455 S
C365 H342 0.950 . S
C365 C364 1.395 1_655 S
C365 C366 1.288 . S
C366 C365 1.288 . S
C366 C367 1.392 1_655 S
C367 H343 0.953 . S
C367 C366 1.392 1_455 S
C367 C368 1.392 . S
C368 H344 0.949 . S
C368 C363 1.382 . S
C368 C367 1.392 . S
C369 C370 1.376 . S
C369 C374 1.386 . S
C369 C375 1.483 . S
C370 H345 0.949 . S
C370 C369 1.376 . S
C370 C371 1.397 . S
C371 H346 0.950 . S
C371 C370 1.397 . S
C371 C372 1.391 . S
C372 C371 1.391 . S
C372 C373 1.405 . S
C373 H347 0.950 . S
C373 C372 1.405 . S
C373 C374 1.367 . S
C374 H348 0.950 . S
C374 C369 1.386 . S
C374 C373 1.367 . S
C375 C369 1.483 . S
C375 C376 1.382 . S
C375 C377 1.403 . S
C376 H349 0.950 . S
C376 C362 1.411 . S
C376 C375 1.382 . S
C377 C361 1.411 . S
C377 C375 1.403 . S
C377 C378 1.489 . S
C378 C377 1.489 . S
C378 C379 1.383 . S
C378 C383 1.382 . S
C379 H350 0.950 . S
C379 C378 1.383 . S
C379 C380 1.395 . S
C380 H351 0.950 . S
C380 C379 1.395 . S
C380 C381 1.288 . S
C381 C380 1.288 . S
C381 C382 1.392 . S
C382 H352 0.951 . S
C382 C381 1.392 . S
C382 C383 1.392 . S
C383 H353 0.949 . S
C383 C378 1.382 . S
C383 C382 1.392 . S
C384 O411 1.312 . S
C384 O412 1.208 . S
C385 O406 1.331 1_655 S
C385 O409 1.244 . S
C386 O408 1.264 1_655 S
C386 O410 1.273 . S
Mg387 O389 1.936 . S
Mg387 O396 2.081 . S
Mg387 O398 2.023 . S
Mg387 O402 2.031 . S
Mg387 O411 2.291 . S
Mg388 O389 1.963 . S
Mg388 O399 1.942 . S
Mg388 O400 1.955 . S
Mg388 O407 1.986 . S
O389 Mg387 1.936 . S
O389 Mg388 1.963 . S
O389 Mg390 1.915 . S
Mg390 O389 1.915 . S
Mg390 O391 1.915 . S
Mg390 O395 2.013 . S
Mg390 O401 2.114 . S
Mg390 O405 2.013 . S
Mg390 O411 2.114 . S
O391 Mg390 1.915 . S
O391 Mg392 1.936 . S
O391 Mg393 1.963 1_455 S
Mg392 O391 1.936 . S
Mg392 O401 2.291 . S
Mg392 O406 2.081 . S
Mg392 O408 2.023 . S
Mg392 O412 2.031 . S
Mg393 O391 1.963 1_655 S
Mg393 O397 1.986 . S
Mg393 O409 1.942 . S
Mg393 O410 1.955 . S
C394 O405 1.191 . S
C394 O407 1.307 . S
O395 Mg390 2.013 . S
O395 C414 1.191 . S
O396 Mg387 2.081 . S
O396 C404 1.331 . S
O397 Mg393 1.986 . S
O397 C414 1.307 1_655 S
O398 Mg387 2.023 . S
O398 C413 1.264 . S
O399 Mg388 1.942 . S
O399 C404 1.244 . S
O400 Mg388 1.955 . S
O400 C413 1.273 . S
O401 Mg390 2.114 . S
O401 Mg392 2.291 . S
O401 C403 1.312 . S
O402 Mg387 2.031 . S
O402 C403 1.208 . S
C403 O401 1.312 . S
C403 O402 1.208 . S
C404 O396 1.331 . S
C404 O399 1.244 . S
O405 Mg390 2.013 . S
O405 C394 1.191 . S
O406 C385 1.331 1_455 S
O406 Mg392 2.081 . S
O407 Mg388 1.986 . S
O407 C394 1.307 . S
O408 C386 1.264 1_455 S
O408 Mg392 2.023 . S
O409 C385 1.244 . S
O409 Mg393 1.942 . S
O410 C386 1.273 . S
O410 Mg393 1.955 . S
O411 C384 1.312 . S
O411 Mg387 2.291 . S
O411 Mg390 2.114 . S
O412 C384 1.208 . S
O412 Mg392 2.031 . S
C413 O398 1.264 . S
C413 O400 1.273 . S
C414 O395 1.191 . S
C414 O397 1.307 1_455 S
C415 O442 1.312 . S
C415 O443 1.208 . S
C416 O437 1.331 . S
C416 O440 1.244 . S
C417 O439 1.264 . S
C417 O441 1.273 . S
Mg418 O420 1.936 . S
Mg418 O427 2.081 . S
Mg418 O429 2.023 . S
Mg418 O433 2.031 . S
Mg418 O442 2.291 . S
Mg419 O420 1.963 . S
Mg419 O430 1.942 . S
Mg419 O431 1.955 . S
Mg419 O438 1.986 . S
O420 Mg418 1.936 . S
O420 Mg419 1.963 . S
O420 Mg421 1.915 . S
Mg421 O420 1.915 . S
Mg421 O422 1.915 . S
Mg421 O426 2.013 . S
Mg421 O432 2.114 . S
Mg421 O436 2.013 . S
Mg421 O442 2.114 . S
O422 Mg421 1.915 . S
O422 Mg423 1.936 . S
O422 Mg424 1.963 . S
Mg423 O422 1.936 . S
Mg423 O432 2.291 . S
Mg423 O437 2.081 . S
Mg423 O439 2.023 . S
Mg423 O443 2.031 . S
Mg424 O422 1.963 . S
Mg424 O428 1.986 . S
Mg424 O440 1.942 . S
Mg424 O441 1.955 . S
C425 O436 1.191 . S
C425 O438 1.307 . S
O426 Mg421 2.013 . S
O426 C445 1.191 . S
O427 Mg418 2.081 . S
O427 C435 1.331 . S
O428 Mg424 1.986 . S
O428 C445 1.307 . S
O429 Mg418 2.023 . S
O429 C444 1.264 . S
O430 Mg419 1.942 . S
O430 C435 1.244 . S
O431 Mg419 1.955 . S
O431 C444 1.273 . S
O432 Mg421 2.114 . S
O432 Mg423 2.291 . S
O432 C434 1.312 . S
O433 Mg418 2.031 . S
O433 C434 1.208 . S
C434 O432 1.312 . S
C434 O433 1.208 . S
C435 O427 1.331 . S
C435 O430 1.244 . S
O436 Mg421 2.013 . S
O436 C425 1.191 . S
O437 C416 1.331 . S
O437 Mg423 2.081 . S
O438 Mg419 1.986 . S
O438 C425 1.307 . S
O439 C417 1.264 . S
O439 Mg423 2.023 . S
O440 C416 1.244 . S
O440 Mg424 1.942 . S
O441 C417 1.273 . S
O441 Mg424 1.955 . S
O442 C415 1.312 . S
O442 Mg418 2.291 . S
O442 Mg421 2.114 . S
O443 C415 1.208 . S
O443 Mg423 2.031 . S
C444 O429 1.264 . S
C444 O431 1.273 . S
C445 O426 1.191 . S
C445 O428 1.307 . S
C446 O473 1.312 . S
C446 O474 1.208 . S
C447 O468 1.331 . S
C447 O471 1.244 . S
C448 O470 1.264 . S
C448 O472 1.273 . S
Mg449 O451 1.936 . S
Mg449 O458 2.081 . S
Mg449 O460 2.023 . S
Mg449 O464 2.031 . S
Mg449 O473 2.291 . S
Mg450 O451 1.963 . S
Mg450 O461 1.942 . S
Mg450 O462 1.955 . S
Mg450 O469 1.986 . S
O451 Mg449 1.936 . S
O451 Mg450 1.963 . S
O451 Mg452 1.915 . S
Mg452 O451 1.915 . S
Mg452 O453 1.915 . S
Mg452 O457 2.013 . S
Mg452 O463 2.114 . S
Mg452 O467 2.013 . S
Mg452 O473 2.114 . S
O453 Mg452 1.915 . S
O453 Mg454 1.936 . S
O453 Mg455 1.963 . S
Mg454 O453 1.936 . S
Mg454 O463 2.291 . S
Mg454 O468 2.081 . S
Mg454 O470 2.023 . S
Mg454 O474 2.031 . S
Mg455 O453 1.963 . S
Mg455 O459 1.986 . S
Mg455 O471 1.942 . S
Mg455 O472 1.955 . S
C456 O467 1.191 . S
C456 O469 1.307 . S
O457 Mg452 2.013 . S
O457 C476 1.191 . S
O458 Mg449 2.081 . S
O458 C466 1.331 . S
O459 Mg455 1.986 . S
O459 C476 1.307 . S
O460 Mg449 2.023 . S
O460 C475 1.264 . S
O461 Mg450 1.942 . S
O461 C466 1.244 . S
O462 Mg450 1.955 . S
O462 C475 1.273 . S
O463 Mg452 2.114 . S
O463 Mg454 2.291 . S
O463 C465 1.312 . S
O464 Mg449 2.031 . S
O464 C465 1.208 . S
C465 O463 1.312 . S
C465 O464 1.208 . S
C466 O458 1.331 . S
C466 O461 1.244 . S
O467 Mg452 2.013 . S
O467 C456 1.191 . S
O468 C447 1.331 . S
O468 Mg454 2.081 . S
O469 Mg450 1.986 . S
O469 C456 1.307 . S
O470 C448 1.264 . S
O470 Mg454 2.023 . S
O471 C447 1.244 . S
O471 Mg455 1.942 . S
O472 C448 1.273 . S
O472 Mg455 1.955 . S
O473 C446 1.312 . S
O473 Mg449 2.291 . S
O473 Mg452 2.114 . S
O474 C446 1.208 . S
O474 Mg454 2.031 . S
C475 O460 1.264 . S
C475 O462 1.273 . S
C476 O457 1.191 . S
C476 O459 1.307 . S
C477 O504 1.312 . S
C477 O505 1.208 . S
C478 O499 1.331 . S
C478 O502 1.244 . S
C479 O501 1.264 . S
C479 O503 1.273 . S
Mg480 O482 1.936 . S
Mg480 O489 2.081 . S
Mg480 O491 2.023 . S
Mg480 O495 2.031 . S
Mg480 O504 2.291 . S
Mg481 O482 1.963 1_655 S
Mg481 O492 1.942 . S
Mg481 O493 1.955 . S
Mg481 O500 1.986 . S
O482 Mg480 1.936 . S
O482 Mg481 1.963 1_455 S
O482 Mg483 1.915 . S
Mg483 O482 1.915 . S
Mg483 O484 1.915 . S
Mg483 O488 2.013 . S
Mg483 O494 2.114 . S
Mg483 O498 2.013 . S
Mg483 O504 2.114 . S
O484 Mg483 1.915 . S
O484 Mg485 1.936 . S
O484 Mg486 1.963 . S
Mg485 O484 1.936 . S
Mg485 O494 2.291 . S
Mg485 O499 2.081 . S
Mg485 O501 2.023 . S
Mg485 O505 2.031 . S
Mg486 O484 1.963 . S
Mg486 O490 1.986 . S
Mg486 O502 1.942 . S
Mg486 O503 1.955 . S
C487 O498 1.191 . S
C487 O500 1.307 1_455 S
O488 Mg483 2.013 . S
O488 C507 1.191 . S
O489 Mg480 2.081 . S
O489 C497 1.331 1_455 S
O490 Mg486 1.986 . S
O490 C507 1.307 . S
O491 Mg480 2.023 . S
O491 C506 1.264 1_455 S
O492 Mg481 1.942 . S
O492 C497 1.244 . S
O493 Mg481 1.955 . S
O493 C506 1.273 . S
O494 Mg483 2.114 . S
O494 Mg485 2.291 . S
O494 C496 1.312 . S
O495 Mg480 2.031 . S
O495 C496 1.208 . S
C496 O494 1.312 . S
C496 O495 1.208 . S
C497 O489 1.331 1_655 S
C497 O492 1.244 . S
O498 Mg483 2.013 . S
O498 C487 1.191 . S
O499 C478 1.331 . S
O499 Mg485 2.081 . S
O500 Mg481 1.986 . S
O500 C487 1.307 1_655 S
O501 C479 1.264 . S
O501 Mg485 2.023 . S
O502 C478 1.244 . S
O502 Mg486 1.942 . S
O503 C479 1.273 . S
O503 Mg486 1.955 . S
O504 C477 1.312 . S
O504 Mg480 2.291 . S
O504 Mg483 2.114 . S
O505 C477 1.208 . S
O505 Mg485 2.031 . S
C506 O491 1.264 1_655 S
C506 O493 1.273 . S
C507 O488 1.191 . S
C507 O490 1.307 . S
C508 C509 1.369 . S
C508 C510 1.419 . S
C508 H512 0.930 . S
C509 C508 1.369 . S
C509 C518 1.429 . S
C510 C508 1.419 . S
C510 C511 1.363 . S
C510 H513 0.929 . S
C511 C510 1.363 . S
C511 C517 1.428 . S
H512 C508 0.930 . S
H513 C510 0.929 . S
S514 N515 1.613 . S
S514 N516 1.610 1_545 S
N515 S514 1.613 . S
N515 C518 1.350 1_545 S
N516 S514 1.610 1_565 S
N516 C517 1.351 . S
C517 C511 1.428 . S
C517 N516 1.351 . S
C517 C518 1.434 . S
C518 C509 1.429 . S
C518 N515 1.350 1_565 S
C518 C517 1.434 . S
C519 C520 1.369 . S
C519 C521 1.419 1_565 S
C519 H523 0.930 . S
C520 C519 1.369 . S
C520 C529 1.429 . S
C521 C519 1.419 1_545 S
C521 C522 1.363 . S
C521 H524 0.929 . S
C522 C521 1.363 . S
C522 C528 1.428 . S
H523 C519 0.930 . S
H524 C521 0.929 . S
S525 N526 1.613 1_545 S
S525 N527 1.610 . S
N526 S525 1.613 1_565 S
N526 C529 1.350 . S
N527 S525 1.610 . S
N527 C528 1.351 . S
C528 C522 1.428 . S
C528 N527 1.351 . S
C528 C529 1.434 1_545 S
C529 C520 1.429 . S
C529 N526 1.350 . S
C529 C528 1.434 1_565 S
C530 C531 1.369 . S
C530 C532 1.419 . S
C530 H534 0.930 . S
C531 C530 1.369 . S
C531 C540 1.429 . S
C532 C530 1.419 . S
C532 C533 1.363 . S
C532 H535 0.929 . S
C533 C532 1.363 . S
C533 C539 1.428 . S
H534 C530 0.930 . S
H535 C532 0.929 . S
S536 N537 1.613 . S
S536 N538 1.610 . S
N537 S536 1.613 . S
N537 C540 1.350 . S
N538 S536 1.610 . S
N538 C539 1.351 . S
C539 C533 1.428 . S
C539 N538 1.351 . S
C539 C540 1.434 . S
C540 C531 1.429 . S
C540 N537 1.350 . S
C540 C539 1.434 . S
C541 C542 1.369 . S
C541 C543 1.419 1_545 S
C541 H545 0.930 . S
C542 C541 1.369 . S
C542 C551 1.429 . S
C543 C541 1.419 1_565 S
C543 C544 1.363 . S
C543 H546 0.929 . S
C544 C543 1.363 . S
C544 C550 1.428 . S
H545 C541 0.930 . S
H546 C543 0.929 . S
S547 N548 1.613 . S
S547 N549 1.610 1_545 S
N548 S547 1.613 . S
N548 C551 1.350 . S
N549 S547 1.610 1_565 S
N549 C550 1.351 . S
C550 C544 1.428 . S
C550 N549 1.351 . S
C550 C551 1.434 1_565 S
C551 C542 1.429 . S
C551 N548 1.350 . S
C551 C550 1.434 1_545 S
C552 C553 1.369 . S
C552 C554 1.419 . S
C552 H556 0.930 . S
C553 C552 1.369 . S
C553 C562 1.429 . S
C554 C552 1.419 . S
C554 C555 1.363 . S
C554 H557 0.929 . S
C555 C554 1.363 . S
C555 C561 1.428 . S
H556 C552 0.930 . S
H557 C554 0.929 . S
S558 N559 1.613 . S
S558 N560 1.610 . S
N559 S558 1.613 . S
N559 C562 1.350 . S
N560 S558 1.610 . S
N560 C561 1.351 . S
C561 C555 1.428 . S
C561 N560 1.351 . S
C561 C562 1.434 . S
C562 C553 1.429 . S
C562 N559 1.350 . S
C562 C561 1.434 . S
C563 C564 1.369 . S
C563 C565 1.419 1_565 S
C563 H567 0.930 . S
C564 C563 1.369 . S
C564 C573 1.429 . S
C565 C563 1.419 1_545 S
C565 C566 1.363 . S
C565 H568 0.929 . S
C566 C565 1.363 . S
C566 C572 1.428 . S
H567 C563 0.930 . S
H568 C565 0.929 . S
S569 N570 1.613 1_545 S
S569 N571 1.610 . S
N570 S569 1.613 1_565 S
N570 C573 1.350 . S
N571 S569 1.610 . S
N571 C572 1.351 . S
C572 C566 1.428 . S
C572 N571 1.351 . S
C572 C573 1.434 1_545 S
C573 C564 1.429 . S
C573 N570 1.350 . S
C573 C572 1.434 1_565 S
C574 C575 1.369 . S
C574 C576 1.419 . S
C574 H578 0.930 . S
C575 C574 1.369 . S
C575 C584 1.429 . S
C576 C574 1.419 . S
C576 C577 1.363 . S
C576 H579 0.929 . S
C577 C576 1.363 . S
C577 C583 1.428 . S
H578 C574 0.930 . S
H579 C576 0.929 . S
S580 N581 1.613 . S
S580 N582 1.610 . S
N581 S580 1.613 . S
N581 C584 1.350 . S
N582 S580 1.610 . S
N582 C583 1.351 . S
C583 C577 1.428 . S
C583 N582 1.351 . S
C583 C584 1.434 . S
C584 C575 1.429 . S
C584 N581 1.350 . S
C584 C583 1.434 . S
C585 C586 1.375 . S
C585 C587 1.413 1_545 S
C585 H589 0.930 1_545 S
C586 C585 1.375 . S
C586 C595 1.429 . S
C587 C585 1.413 1_565 S
C587 C588 1.363 . S
C587 H590 0.929 . S
C588 C587 1.363 . S
C588 C594 1.444 . S
H589 C585 0.930 1_565 S
H590 C587 0.929 . S
S591 N592 1.613 . S
S591 N593 1.610 . S
N592 S591 1.613 . S
N592 C595 1.350 . S
N593 S591 1.610 . S
N593 C594 1.349 1_545 S
C594 C588 1.444 . S
C594 N593 1.349 1_565 S
C594 C595 1.419 1_565 S
C595 C586 1.429 . S
C595 N592 1.350 . S
C595 C594 1.419 1_545 S
C596 C597 1.369 . S
C596 C598 1.419 . S
C596 H600 0.930 . S
C597 C596 1.369 . S
C597 C606 1.429 . S
C598 C596 1.419 . S
C598 C599 1.363 . S
C598 H601 0.929 . S
C599 C598 1.363 . S
C599 C605 1.428 . S
H600 C596 0.930 . S
H601 C598 0.929 . S
S602 N603 1.613 . S
S602 N604 1.610 . S
N603 S602 1.613 . S
N603 C606 1.350 . S
N604 S602 1.610 . S
N604 C605 1.351 . S
C605 C599 1.428 . S
C605 N604 1.351 . S
C605 C606 1.434 . S
C606 C597 1.429 . S
C606 N603 1.350 . S
C606 C605 1.434 . S
C607 C608 1.369 . S
C607 C609 1.419 . S
C607 H611 0.930 . S
C608 C607 1.369 . S
C608 C617 1.429 . S
C609 C607 1.419 . S
C609 C610 1.363 . S
C609 H612 0.929 . S
C610 C609 1.363 . S
C610 C616 1.428 . S
H611 C607 0.930 . S
H612 C609 0.929 . S
S613 N614 1.613 . S
S613 N615 1.610 . S
N614 S613 1.613 . S
N614 C617 1.350 . S
N615 S613 1.610 . S
N615 C616 1.351 . S
C616 C610 1.428 . S
C616 N615 1.351 . S
C616 C617 1.434 . S
C617 C608 1.429 . S
C617 N614 1.350 . S
C617 C616 1.434 . S
C618 C619 1.369 . S
C618 C620 1.419 . S
C618 H622 0.930 . S
C619 C618 1.369 . S
C619 C628 1.429 . S
C620 C618 1.419 . S
C620 C621 1.364 1_655 S
C620 H623 0.929 . S
C621 C620 1.364 1_455 S
C621 C627 1.428 . S
H622 C618 0.930 . S
H623 C620 0.929 . S
S624 N625 1.613 . S
S624 N626 1.610 . S
N625 S624 1.613 . S
N625 C628 1.350 1_455 S
N626 S624 1.610 . S
N626 C627 1.351 . S
C627 C621 1.428 . S
C627 N626 1.351 . S
C627 C628 1.434 1_455 S
C628 C619 1.429 . S
C628 N625 1.350 1_655 S
C628 C627 1.434 1_655 S
C629 C630 1.369 . S
C629 C631 1.419 1_655 S
C629 H633 0.930 . S
C630 C629 1.369 . S
C630 C639 1.429 . S
C631 C629 1.419 1_455 S
C631 C632 1.363 1_455 S
C631 H634 0.929 . S
C632 C631 1.363 1_655 S
C632 C638 1.428 . S
H633 C629 0.930 . S
H634 C631 0.929 . S
S635 N636 1.613 . S
S635 N637 1.610 . S
N636 S635 1.613 . S
N636 C639 1.350 . S
N637 S635 1.610 . S
N637 C638 1.351 . S
C638 C632 1.428 . S
C638 N637 1.351 . S
C638 C639 1.434 . S
C639 C630 1.429 . S
C639 N636 1.350 . S
C639 C638 1.434 . S
C640 C641 1.369 . S
C640 C642 1.419 . S
C640 H644 0.930 . S
C641 C640 1.369 . S
C641 C650 1.429 . S
C642 C640 1.419 . S
C642 C643 1.363 . S
C642 H645 0.929 . S
C643 C642 1.363 . S
C643 C649 1.428 . S
H644 C640 0.930 . S
H645 C642 0.929 . S
S646 N647 1.613 1_545 S
S646 N648 1.610 1_545 S
N647 S646 1.613 1_565 S
N647 C650 1.350 . S
N648 S646 1.610 1_565 S
N648 C649 1.351 . S
C649 C643 1.428 . S
C649 N648 1.351 . S
C649 C650 1.434 . S
C650 C641 1.429 . S
C650 N647 1.350 . S
C650 C649 1.434 . S
C651 C652 1.386 . S
C651 C653 1.411 1_655 S
C651 H655 0.921 1_655 S
C652 C651 1.386 . S
C652 C661 1.429 . S
C653 C651 1.411 1_455 S
C653 C654 1.363 1_455 S
C653 H656 0.929 . S
C654 C653 1.363 1_655 S
C654 C660 1.428 . S
H655 C651 0.921 1_455 S
H656 C653 0.929 . S
S657 N658 1.613 . S
S657 N659 1.610 . S
N658 S657 1.613 . S
N658 C661 1.350 . S
N659 S657 1.610 . S
N659 C660 1.351 . S
C660 C654 1.428 . S
C660 N659 1.351 . S
C660 C661 1.434 . S
C661 C652 1.429 . S
C661 N658 1.350 . S
C661 C660 1.434 . S
C662 C663 1.369 . S
C662 C664 1.419 1_655 S
C662 H666 0.930 . S
C663 C662 1.369 . S
C663 C672 1.429 . S
C664 C662 1.419 1_455 S
C664 C665 1.363 1_455 S
C664 H667 0.929 . S
C665 C664 1.363 1_655 S
C665 C671 1.428 . S
H666 C662 0.930 . S
H667 C664 0.929 . S
S668 N669 1.613 . S
S668 N670 1.610 . S
N669 S668 1.613 . S
N669 C672 1.350 . S
N670 S668 1.610 . S
N670 C671 1.351 . S
C671 C665 1.428 . S
C671 N670 1.351 . S
C671 C672 1.434 . S
C672 C663 1.429 . S
C672 N669 1.350 . S
C672 C671 1.434 . S
C673 C674 1.369 . S
C673 C675 1.419 . S
C673 H677 0.930 . S
C674 C673 1.369 . S
C674 C683 1.429 . S
C675 C673 1.419 . S
C675 C676 1.363 . S
C675 H678 0.929 . S
C676 C675 1.363 . S
C676 C682 1.428 . S
H677 C673 0.930 . S
H678 C675 0.929 . S
S679 N680 1.613 . S
S679 N681 1.610 . S
N680 S679 1.613 . S
N680 C683 1.350 . S
N681 S679 1.610 . S
N681 C682 1.351 . S
C682 C676 1.428 . S
C682 N681 1.351 . S
C682 C683 1.434 . S
C683 C674 1.429 . S
C683 N680 1.350 . S
C683 C682 1.434 . S
C684 C685 1.369 . S
C684 C686 1.419 . S
C684 H688 0.930 . S
C685 C684 1.369 . S
C685 C694 1.429 . S
C686 C684 1.419 . S
C686 C687 1.363 . S
C686 H689 0.929 . S
C687 C686 1.363 . S
C687 C693 1.428 . S
H688 C684 0.930 . S
H689 C686 0.929 . S
S690 N691 1.613 . S
S690 N692 1.610 . S
N691 S690 1.613 . S
N691 C694 1.350 . S
N692 S690 1.610 . S
N692 C693 1.351 . S
C693 C687 1.428 . S
C693 N692 1.351 . S
C693 C694 1.434 . S
C694 C685 1.429 . S
C694 N691 1.350 . S
C694 C693 1.434 . S
C695 C696 1.369 . S
C695 C697 1.419 . S
C695 H699 0.930 . S
C696 C695 1.369 . S
C696 C705 1.429 . S
C697 C695 1.419 . S
C697 C698 1.363 . S
C697 H700 0.929 . S
C698 C697 1.363 . S
C698 C704 1.428 . S
H699 C695 0.930 . S
H700 C697 0.929 . S
S701 N702 1.613 . S
S701 N703 1.610 . S
N702 S701 1.613 . S
N702 C705 1.350 . S
N703 S701 1.610 . S
N703 C704 1.351 . S
C704 C698 1.428 . S
C704 N703 1.351 . S
C704 C705 1.434 . S
C705 C696 1.429 . S
C705 N702 1.350 . S
C705 C704 1.434 . S
C706 C707 1.369 . S
C706 C708 1.419 . S
C706 H710 0.930 . S
C707 C706 1.369 . S
C707 C716 1.429 . S
C708 C706 1.419 . S
C708 C709 1.363 . S
C708 H711 0.929 . S
C709 C708 1.363 . S
C709 C715 1.428 . S
H710 C706 0.930 . S
H711 C708 0.929 . S
S712 N713 1.613 . S
S712 N714 1.610 . S
N713 S712 1.613 . S
N713 C716 1.350 . S
N714 S712 1.610 . S
N714 C715 1.351 . S
C715 C709 1.428 . S
C715 N714 1.351 . S
C715 C716 1.434 . S
C716 C707 1.429 . S
C716 N713 1.350 . S
C716 C715 1.434 . S
C717 C718 1.369 . S
C717 C719 1.419 . S
C717 H721 0.930 . S
C718 C717 1.369 . S
C718 C727 1.429 . S
C719 C717 1.419 . S
C719 C720 1.363 . S
C719 H722 0.929 . S
C720 C719 1.363 . S
C720 C726 1.428 . S
H721 C717 0.930 . S
H722 C719 0.929 . S
S723 N724 1.613 . S
S723 N725 1.610 . S
N724 S723 1.613 . S
N724 C727 1.350 . S
N725 S723 1.610 . S
N725 C726 1.351 . S
C726 C720 1.428 . S
C726 N725 1.351 . S
C726 C727 1.434 . S
C727 C718 1.429 . S
C727 N724 1.350 . S
C727 C726 1.434 . S
C728 C729 1.369 . S
C728 C730 1.419 . S
C728 H732 0.930 . S
C729 C728 1.369 . S
C729 C738 1.429 . S
C730 C728 1.419 . S
C730 C731 1.363 . S
C730 H733 0.929 . S
C731 C730 1.363 . S
C731 C737 1.428 . S
H732 C728 0.930 . S
H733 C730 0.929 . S
S734 N735 1.613 . S
S734 N736 1.610 . S
N735 S734 1.613 . S
N735 C738 1.350 . S
N736 S734 1.610 . S
N736 C737 1.351 . S
C737 C731 1.428 . S
C737 N736 1.351 . S
C737 C738 1.434 . S
C738 C729 1.429 . S
C738 N735 1.350 . S
C738 C737 1.434 . S
C739 C740 1.369 . S
C739 C741 1.419 . S
C739 H743 0.930 . S
C740 C739 1.369 . S
C740 C749 1.429 . S
C741 C739 1.419 . S
C741 C742 1.363 . S
C741 H744 0.929 . S
C742 C741 1.363 . S
C742 C748 1.428 . S
H743 C739 0.930 . S
H744 C741 0.929 . S
S745 N746 1.613 . S
S745 N747 1.610 . S
N746 S745 1.613 . S
N746 C749 1.350 . S
N747 S745 1.610 . S
N747 C748 1.351 . S
C748 C742 1.428 . S
C748 N747 1.351 . S
C748 C749 1.434 . S
C749 C740 1.429 . S
C749 N746 1.350 . S
C749 C748 1.434 . S
C750 C751 1.369 . S
C750 C752 1.419 . S
C750 H754 0.930 . S
C751 C750 1.369 . S
C751 C760 1.429 . S
C752 C750 1.419 . S
C752 C753 1.363 . S
C752 H755 0.929 . S
C753 C752 1.363 . S
C753 C759 1.428 . S
H754 C750 0.930 . S
H755 C752 0.929 . S
S756 N757 1.613 . S
S756 N758 1.610 . S
N757 S756 1.613 . S
N757 C760 1.350 . S
N758 S756 1.610 . S
N758 C759 1.351 . S
C759 C753 1.428 . S
C759 N758 1.351 . S
C759 C760 1.434 . S
C760 C751 1.429 . S
C760 N757 1.350 . S
C760 C759 1.434 . S
C761 C762 1.369 . S
C761 C763 1.419 . S
C761 H765 0.930 1_655 S
C762 C761 1.369 . S
C762 C771 1.429 . S
C763 C761 1.419 . S
C763 C764 1.363 . S
C763 H766 0.929 1_655 S
C764 C763 1.363 . S
C764 C770 1.428 . S
H765 C761 0.930 1_455 S
H766 C763 0.929 1_455 S
S767 N768 1.613 . S
S767 N769 1.610 . S
N768 S767 1.613 . S
N768 C771 1.350 . S
N769 S767 1.610 . S
N769 C770 1.351 . S
C770 C764 1.428 . S
C770 N769 1.351 . S
C770 C771 1.434 . S
C771 C762 1.429 . S
C771 N768 1.350 . S
C771 C770 1.434 . S
C772 C773 1.369 . S
C772 C774 1.419 . S
C772 H776 0.930 . S
C773 C772 1.369 . S
C773 C782 1.429 . S
C774 C772 1.419 . S
C774 C775 1.363 . S
C774 H777 0.929 . S
C775 C774 1.363 . S
C775 C781 1.428 . S
H776 C772 0.930 . S
H777 C774 0.929 . S
S778 N779 1.613 . S
S778 N780 1.610 . S
N779 S778 1.613 . S
N779 C782 1.350 . S
N780 S778 1.610 . S
N780 C781 1.351 . S
C781 C775 1.428 . S
C781 N780 1.351 . S
C781 C782 1.434 . S
C782 C773 1.429 . S
C782 N779 1.350 . S
C782 C781 1.434 . S
C783 C784 1.369 . S
C783 C785 1.419 . S
C783 H787 0.930 . S
C784 C783 1.369 . S
C784 C793 1.429 . S
C785 C783 1.419 . S
C785 C786 1.363 . S
C785 H788 0.929 . S
C786 C785 1.363 . S
C786 C792 1.428 . S
H787 C783 0.930 . S
H788 C785 0.929 . S
S789 N790 1.613 . S
S789 N791 1.610 . S
N790 S789 1.613 . S
N790 C793 1.350 . S
N791 S789 1.610 . S
N791 C792 1.351 . S
C792 C786 1.428 . S
C792 N791 1.351 . S
C792 C793 1.434 . S
C793 C784 1.429 . S
C793 N790 1.350 . S
C793 C792 1.434 . S
C794 C795 1.369 . S
C794 C796 1.419 . S
C794 H798 0.930 . S
C795 C794 1.369 . S
C795 C804 1.429 . S
C796 C794 1.419 . S
C796 C797 1.363 . S
C796 H799 0.929 . S
C797 C796 1.363 . S
C797 C803 1.428 . S
H798 C794 0.930 . S
H799 C796 0.929 . S
S800 N801 1.613 . S
S800 N802 1.610 . S
N801 S800 1.613 . S
N801 C804 1.350 . S
N802 S800 1.610 . S
N802 C803 1.351 . S
C803 C797 1.428 . S
C803 N802 1.351 . S
C803 C804 1.434 . S
C804 C795 1.429 . S
C804 N801 1.350 . S
C804 C803 1.434 . S
C805 C806 1.369 . S
C805 C807 1.419 . S
C805 H809 0.930 . S
C806 C805 1.369 . S
C806 C815 1.429 . S
C807 C805 1.419 . S
C807 C808 1.363 . S
C807 H810 0.929 . S
C808 C807 1.363 . S
C808 C814 1.428 . S
H809 C805 0.930 . S
H810 C807 0.929 . S
S811 N812 1.613 . S
S811 N813 1.610 . S
N812 S811 1.613 . S
N812 C815 1.350 . S
N813 S811 1.610 . S
N813 C814 1.351 . S
C814 C808 1.428 . S
C814 N813 1.351 . S
C814 C815 1.434 . S
C815 C806 1.429 . S
C815 N812 1.350 . S
C815 C814 1.434 . S
C816 C817 1.369 . S
C816 C818 1.419 . S
C816 H820 0.930 . S
C817 C816 1.369 . S
C817 C826 1.429 . S
C818 C816 1.419 . S
C818 C819 1.363 . S
C818 H821 0.929 . S
C819 C818 1.363 . S
C819 C825 1.428 . S
H820 C816 0.930 . S
H821 C818 0.929 . S
S822 N823 1.613 . S
S822 N824 1.610 . S
N823 S822 1.613 . S
N823 C826 1.350 . S
N824 S822 1.610 . S
N824 C825 1.351 . S
C825 C819 1.428 . S
C825 N824 1.351 . S
C825 C826 1.434 . S
C826 C817 1.429 . S
C826 N823 1.350 . S
C826 C825 1.434 . S
C827 C828 1.369 . S
C827 C829 1.419 . S
C827 H831 0.930 . S
C828 C827 1.369 . S
C828 C837 1.429 . S
C829 C827 1.419 . S
C829 C830 1.363 . S
C829 H832 0.929 . S
C830 C829 1.363 . S
C830 C836 1.428 . S
H831 C827 0.930 . S
H832 C829 0.929 . S
S833 N834 1.613 . S
S833 N835 1.610 . S
N834 S833 1.613 . S
N834 C837 1.350 . S
N835 S833 1.610 . S
N835 C836 1.351 . S
C836 C830 1.428 . S
C836 N835 1.351 . S
C836 C837 1.434 . S
C837 C828 1.429 . S
C837 N834 1.350 . S
C837 C836 1.434 . S
C838 C839 1.369 . S
C838 C840 1.419 . S
C838 H842 0.930 . S
C839 C838 1.369 . S
C839 C848 1.429 . S
C840 C838 1.419 . S
C840 C841 1.363 . S
C840 H843 0.929 . S
C841 C840 1.363 . S
C841 C847 1.428 . S
H842 C838 0.930 . S
H843 C840 0.929 . S
S844 N845 1.613 . S
S844 N846 1.610 . S
N845 S844 1.613 . S
N845 C848 1.350 . S
N846 S844 1.610 . S
N846 C847 1.351 . S
C847 C841 1.428 . S
C847 N846 1.351 . S
C847 C848 1.434 . S
C848 C839 1.429 . S
C848 N845 1.350 . S
C848 C847 1.434 . S
C849 C850 1.369 . S
C849 C851 1.419 . S
C849 H853 0.930 . S
C850 C849 1.369 . S
C850 C859 1.429 . S
C851 C849 1.419 . S
C851 C852 1.363 . S
C851 H854 0.929 . S
C852 C851 1.363 . S
C852 C858 1.428 . S
H853 C849 0.930 . S
H854 C851 0.929 . S
S855 N856 1.613 . S
S855 N857 1.610 . S
N856 S855 1.613 . S
N856 C859 1.350 . S
N857 S855 1.610 . S
N857 C858 1.351 . S
C858 C852 1.428 . S
C858 N857 1.351 . S
C858 C859 1.434 . S
C859 C850 1.429 . S
C859 N856 1.350 . S
C859 C858 1.434 . S
C511 C444 1.760 . S
C509 C45 1.827 . S
C520 C78 1.714 . S
C522 C447 1.703 . S
C531 C126 1.701 . S
C533 C478 1.677 . S
C544 C413 1.733 . S
C542 C174 1.778 . S
C555 C448 1.757 . S
C553 C36 1.824 . S
C566 C479 1.738 . S
C564 C69 1.797 . S
C577 C404 1.682 . S
C575 C117 1.717 . S
C588 C435 1.703 . S
C586 C165 1.733 . S
C597 C30 1.407 . S
C599 C465 1.351 . S
C608 C228 1.403 . S
C610 C434 1.339 . S
C619 C141 1.325 . S
C621 C394 1.335 . S
C632 C487 1.347 1_655 S
C630 C270 1.341 . S
C643 C415 1.356 . S
C641 C21 1.422 . S
C652 C237 1.342 . S
C654 C414 1.349 1_655 S
C663 C132 1.339 . S
C665 C507 1.338 1_655 S
C676 C446 1.349 . S
C674 C261 1.411 . S
C685 C333 1.825 . S
C687 C506 1.754 . S
C696 C213 1.734 . S
C698 C385 1.703 . S
C707 C357 1.712 . S
C709 C416 1.684 . S
C718 C285 1.807 . S
C720 C475 1.730 . S
C731 C386 1.763 . S
C729 C324 1.826 . S
C740 C222 1.780 . S
C742 C417 1.738 . S
C751 C366 1.701 . S
C753 C466 1.684 . S
C764 C497 1.706 . S
C762 C276 1.746 . S
C773 C318 1.404 . S
C775 C403 1.348 . S
C784 C93 1.387 . S
C786 C496 1.339 . S
C795 C372 1.338 . S
C797 C456 1.334 . S
C808 C425 1.351 . S
C806 C189 1.336 . S
C819 C477 1.361 . S
C817 C309 1.425 . S
C830 C476 1.354 . S
C828 C84 1.356 . S
C841 C445 1.336 . S
C839 C381 1.320 . S
C852 C384 1.345 . S
C850 C180 1.406 . S
