# Generated by pormake.
# Topology nom, (4,4)-cn, num edge types: 1
# Building blocks:
#     Node 0, Type 0, BuildingBlock: AZAVOO_clean_linker_0, # of connection points: 4
#     Node 1, Type 0, BuildingBlock: AZAVOO_clean_linker_0, # of connection points: 4
#     Node 2, Type 0, BuildingBlock: AZAVOO_clean_linker_0, # of connection points: 4
#     Node 3, Type 0, BuildingBlock: AZAVOO_clean_linker_0, # of connection points: 4
#     Node 4, Type 0, BuildingBlock: AZAVOO_clean_linker_0, # of connection points: 4
#     Node 5, Type 0, BuildingBlock: AZAVOO_clean_linker_0, # of connection points: 4
#     Node 6, Type 1, BuildingBlock: AZAVOO_clean_sbu_0, # of connection points: 4
#     Node 7, Type 1, BuildingBlock: AZAVOO_clean_sbu_0, # of connection points: 4
#     Node 8, Type 1, BuildingBlock: AZAVOO_clean_sbu_0, # of connection points: 4
#     Node 9, Type 1, BuildingBlock: AZAVOO_clean_sbu_0, # of connection points: 4
#     Node 10, Type 1, BuildingBlock: AZAVOO_clean_sbu_0, # of connection points: 4
#     Node 11, Type 1, BuildingBlock: AZAVOO_clean_sbu_0, # of connection points: 4
#     Edge 12, Type (0, 1), BuildingBlock: UVAHIK_clean_linker_0, # of connection points: 2
#     Edge 13, Type (0, 1), BuildingBlock: UVAHIK_clean_linker_0, # of connection points: 2
#     Edge 14, Type (0, 1), BuildingBlock: UVAHIK_clean_linker_0, # of connection points: 2
#     Edge 15, Type (0, 1), BuildingBlock: UVAHIK_clean_linker_0, # of connection points: 2
#     Edge 16, Type (0, 1), BuildingBlock: UVAHIK_clean_linker_0, # of connection points: 2
#     Edge 17, Type (0, 1), BuildingBlock: UVAHIK_clean_linker_0, # of connection points: 2
#     Edge 18, Type (0, 1), BuildingBlock: UVAHIK_clean_linker_0, # of connection points: 2
#     Edge 19, Type (0, 1), BuildingBlock: UVAHIK_clean_linker_0, # of connection points: 2
#     Edge 20, Type (0, 1), BuildingBlock: UVAHIK_clean_linker_0, # of connection points: 2
#     Edge 21, Type (0, 1), BuildingBlock: UVAHIK_clean_linker_0, # of connection points: 2
#     Edge 22, Type (0, 1), BuildingBlock: UVAHIK_clean_linker_0, # of connection points: 2
#     Edge 23, Type (0, 1), BuildingBlock: UVAHIK_clean_linker_0, # of connection points: 2
#     Edge 24, Type (0, 1), BuildingBlock: UVAHIK_clean_linker_0, # of connection points: 2
#     Edge 25, Type (0, 1), BuildingBlock: UVAHIK_clean_linker_0, # of connection points: 2
#     Edge 26, Type (0, 1), BuildingBlock: UVAHIK_clean_linker_0, # of connection points: 2
#     Edge 27, Type (0, 1), BuildingBlock: UVAHIK_clean_linker_0, # of connection points: 2
#     Edge 28, Type (0, 1), BuildingBlock: UVAHIK_clean_linker_0, # of connection points: 2
#     Edge 29, Type (0, 1), BuildingBlock: UVAHIK_clean_linker_0, # of connection points: 2
#     Edge 30, Type (0, 1), BuildingBlock: UVAHIK_clean_linker_0, # of connection points: 2
#     Edge 31, Type (0, 1), BuildingBlock: UVAHIK_clean_linker_0, # of connection points: 2
#     Edge 32, Type (0, 1), BuildingBlock: UVAHIK_clean_linker_0, # of connection points: 2
#     Edge 33, Type (0, 1), BuildingBlock: UVAHIK_clean_linker_0, # of connection points: 2
#     Edge 34, Type (0, 1), BuildingBlock: UVAHIK_clean_linker_0, # of connection points: 2
#     Edge 35, Type (0, 1), BuildingBlock: UVAHIK_clean_linker_0, # of connection points: 2
# Relax obj value: 0.183
# Max RMSD: 0.229
# Mean RMSD: 0.192
data_MOF--net-nom--node1-AZAVOO_clean_sbu_0--node2-AZAVOO_clean_linker_0--edge1-UVAHIK_clean_linker_0
_symmetry_space_group_name_H-M    P1
_symmetry_Int_Tables_number       1
_symmetry_cell_setting            triclinic
loop_
_symmetry_equiv_pos_as_xyz
'x, y, z'
_cell_length_a     59.269626
_cell_length_b     61.445225
_cell_length_c     72.759376
_cell_angle_alpha  90.717078
_cell_angle_beta   90.679402
_cell_angle_gamma 120.9398
loop_
_atom_site_label
_atom_site_type_symbol
_atom_site_fract_x
_atom_site_fract_y
_atom_site_fract_z
_atom_type_partial_charge
H0 H 0.0501 0.46414 0.19394 0.0
H1 H 0.20078 0.59653 0.36828 0.0
H2 H 0.99808 0.44658 0.28498 0.0
H3 H 0.96173 0.42721 0.26281 0.0
H4 H 0.9484 0.48953 0.27146 0.0
H5 H 0.98639 0.50973 0.29264 0.0
H6 H 0.05711 0.46965 0.2743 0.0
H7 H 0.0568 0.46239 0.24112 0.0
H8 H 0.03036 0.51517 0.23164 0.0
H9 H 0.03109 0.5225 0.26483 0.0
H10 H 0.10449 0.49814 0.30481 0.0
H11 H 0.14903 0.52005 0.29239 0.0
H12 H 0.13265 0.5729 0.26551 0.0
H13 H 0.0886 0.55134 0.27822 0.0
H14 H 0.08432 0.49446 0.34607 0.0
H15 H 0.1255 0.51407 0.36409 0.0
H16 H 0.15012 0.58575 0.33833 0.0
H17 H 0.10868 0.56601 0.32064 0.0
H18 H 0.0248 0.47549 0.35756 0.0
H19 H 0.03523 0.48375 0.39048 0.0
H20 H 0.07909 0.56443 0.38067 0.0
H21 H 0.06722 0.55591 0.34813 0.0
H22 H 0.97403 0.45379 0.32499 0.0
H23 H 0.93269 0.44857 0.33599 0.0
H24 H 0.97206 0.52932 0.34751 0.0
H25 H 0.01254 0.5345 0.3353 0.0
O26 O 0.05019 0.46737 0.207 0.0
O27 O 0.03648 0.49457 0.20288 0.0
O28 O 0.17059 0.5511 0.37438 0.0
O29 O 0.18432 0.58831 0.36136 0.0
C30 C 0.02015 0.49315 0.30119 0.0
C31 C 0.04405 0.50071 0.29215 0.0
C32 C 0.0681 0.51281 0.30218 0.0
C33 C 0.0683 0.51684 0.32133 0.0
C34 C 0.0446 0.51007 0.33033 0.0
C35 C 0.02052 0.49861 0.32023 0.0
C36 C 0.99502 0.47963 0.29036 0.0
C37 C 0.98711 0.45591 0.28223 0.0
C38 C 0.96607 0.44474 0.26963 0.0
C39 C 0.95198 0.45677 0.26515 0.0
C40 C 0.95905 0.47991 0.2742 0.0
C41 C 0.98053 0.49135 0.28656 0.0
C42 C 0.04403 0.49651 0.27196 0.0
C43 C 0.05136 0.47969 0.26502 0.0
C44 C 0.0511 0.47554 0.24607 0.0
C45 C 0.0435 0.48816 0.23373 0.0
C46 C 0.03627 0.50511 0.24076 0.0
C47 C 0.0366 0.50928 0.25971 0.0
C48 C 0.09338 0.52323 0.29246 0.0
C49 C 0.11045 0.51422 0.29601 0.0
C50 C 0.13581 0.52674 0.28896 0.0
C51 C 0.14425 0.54817 0.27802 0.0
C52 C 0.12657 0.55625 0.2737 0.0
C53 C 0.10141 0.54397 0.28095 0.0
C54 C 0.09358 0.52879 0.33201 0.0
C55 C 0.09863 0.5144 0.34437 0.0
C56 C 0.12217 0.52564 0.35462 0.0
C57 C 0.14114 0.55149 0.35263 0.0
C58 C 0.13598 0.56582 0.34018 0.0
C59 C 0.11237 0.55458 0.33001 0.0
C60 C 0.04554 0.51509 0.35045 0.0
C61 C 0.03588 0.49494 0.36268 0.0
C62 C 0.04222 0.49973 0.38144 0.0
C63 C 0.05854 0.52476 0.38825 0.0
C64 C 0.06639 0.54493 0.37607 0.0
C65 C 0.05973 0.54011 0.35739 0.0
C66 C 0.99627 0.49455 0.32918 0.0
C67 C 0.97367 0.4703 0.32996 0.0
C68 C 0.95012 0.46734 0.33642 0.0
C69 C 0.9489 0.48858 0.34245 0.0
C70 C 0.97204 0.51262 0.34257 0.0
C71 C 0.99536 0.51559 0.33583 0.0
C72 C 0.04314 0.48364 0.21361 0.0
C73 C 0.16619 0.56352 0.36347 0.0
H74 H 0.53009 0.0715 0.37137 0.0
H75 H 0.48704 0.16559 0.55404 0.0
H76 H 0.50781 0.00912 0.46574 0.0
H77 H 0.50689 0.97833 0.44376 0.0
H78 H 0.42353 0.94728 0.43432 0.0
H79 H 0.42459 0.97764 0.45706 0.0
H80 H 0.52565 0.06573 0.45157 0.0
H81 H 0.53548 0.07223 0.41883 0.0
H82 H 0.45214 0.02992 0.40559 0.0
H83 H 0.44261 0.0238 0.43839 0.0
H84 H 0.5308 0.10295 0.48288 0.0
H85 H 0.54699 0.14488 0.46987 0.0
H86 H 0.47094 0.11757 0.44369 0.0
H87 H 0.45513 0.07564 0.45657 0.0
H88 H 0.51803 0.08191 0.5226 0.0
H89 H 0.52717 0.11718 0.54347 0.0
H90 H 0.45997 0.11801 0.52051 0.0
H91 H 0.45083 0.08247 0.49991 0.0
H92 H 0.49787 0.02344 0.52774 0.0
H93 H 0.5026 0.0295 0.56106 0.0
H94 H 0.43834 0.0437 0.56132 0.0
H95 H 0.43389 0.03774 0.52783 0.0
H96 H 0.48229 0.98119 0.49812 0.0
H97 H 0.45945 0.93799 0.51004 0.0
H98 H 0.3899 0.94263 0.51803 0.0
H99 H 0.41275 0.98559 0.50601 0.0
O100 O 0.52576 0.06873 0.38426 0.0
O101 O 0.48271 0.04672 0.37818 0.0
O102 O 0.51808 0.15028 0.55737 0.0
O103 O 0.48394 0.15171 0.54588 0.0
C104 C 0.46806 0.01618 0.4747 0.0
C105 C 0.47758 0.04039 0.46718 0.0
C106 C 0.48201 0.06099 0.47861 0.0
C107 C 0.47766 0.05757 0.49765 0.0
C108 C 0.46778 0.03324 0.50514 0.0
C109 C 0.46231 0.01238 0.49357 0.0
C110 C 0.46629 0.99553 0.46292 0.0
C111 C 0.48928 0.99534 0.45915 0.0
C112 C 0.48873 0.97789 0.44646 0.0
C113 C 0.46521 0.96054 0.43706 0.0
C114 C 0.44193 0.9602 0.44142 0.0
C115 C 0.44247 0.97756 0.45432 0.0
C116 C 0.48344 0.04429 0.4473 0.0
C117 C 0.50957 0.05796 0.44156 0.0
C118 C 0.51511 0.0616 0.42286 0.0
C119 C 0.49459 0.05158 0.40958 0.0
C120 C 0.4684 0.03787 0.41544 0.0
C121 C 0.4629 0.0343 0.43415 0.0
C122 C 0.49181 0.08635 0.47067 0.0
C123 C 0.51768 0.10611 0.47436 0.0
C124 C 0.52682 0.13003 0.46699 0.0
C125 C 0.51023 0.13457 0.45577 0.0
C126 C 0.48431 0.11462 0.45208 0.0
C127 C 0.4752 0.09071 0.45947 0.0
C128 C 0.48373 0.07961 0.50981 0.0
C129 C 0.50531 0.08974 0.52212 0.0
C130 C 0.51049 0.10989 0.53401 0.0
C131 C 0.49426 0.12039 0.53368 0.0
C132 C 0.47283 0.11036 0.52114 0.0
C133 C 0.46761 0.09012 0.50932 0.0
C134 C 0.46572 0.0304 0.52538 0.0
C135 C 0.48422 0.02699 0.53506 0.0
C136 C 0.48689 0.03048 0.55413 0.0
C137 C 0.47108 0.03745 0.56381 0.0
C138 C 0.4511 0.03878 0.55419 0.0
C139 C 0.44839 0.03519 0.53511 0.0
C140 C 0.44909 0.98643 0.50107 0.0
C141 C 0.46207 0.97277 0.50232 0.0
C142 C 0.44901 0.94813 0.50912 0.0
C143 C 0.42289 0.93694 0.51498 0.0
C144 C 0.41011 0.95084 0.51383 0.0
C145 C 0.42308 0.97532 0.50692 0.0
C146 C 0.50055 0.05547 0.38972 0.0
C147 C 0.49957 0.14169 0.54637 0.0
H148 H 0.62977 0.56807 0.75745 0.0
H149 H 0.5898 0.43175 0.57347 0.0
H150 H 0.5972 0.59971 0.6678 0.0
H151 H 0.59309 0.62322 0.69363 0.0
H152 H 0.50947 0.56928 0.69436 0.0
H153 H 0.51379 0.54584 0.66848 0.0
H154 H 0.6205 0.56375 0.67716 0.0
H155 H 0.63231 0.56912 0.70995 0.0
H156 H 0.54975 0.52919 0.72313 0.0
H157 H 0.53825 0.52363 0.69032 0.0
H158 H 0.62282 0.52587 0.6462 0.0
H159 H 0.63397 0.49553 0.65883 0.0
H160 H 0.55854 0.45606 0.68501 0.0
H161 H 0.5474 0.48592 0.67214 0.0
H162 H 0.61044 0.54272 0.60603 0.0
H163 H 0.62211 0.51892 0.58491 0.0
H164 H 0.56049 0.4486 0.60712 0.0
H165 H 0.54877 0.47262 0.62797 0.0
H166 H 0.57996 0.57594 0.6002 0.0
H167 H 0.5809 0.57337 0.56673 0.0
H168 H 0.52963 0.4918 0.56866 0.0
H169 H 0.52718 0.49498 0.60182 0.0
H170 H 0.55932 0.59868 0.63341 0.0
H171 H 0.52615 0.60967 0.62512 0.0
H172 H 0.47013 0.53053 0.6128 0.0
H173 H 0.50263 0.51967 0.62204 0.0
O174 O 0.62467 0.56553 0.74456 0.0
O175 O 0.58198 0.54511 0.75059 0.0
O176 O 0.61693 0.47831 0.57066 0.0
O177 O 0.58567 0.44163 0.58171 0.0
C178 C 0.55974 0.554 0.65406 0.0
C179 C 0.57155 0.54094 0.66145 0.0
C180 C 0.57637 0.52516 0.65001 0.0
C181 C 0.57135 0.524 0.63092 0.0
C182 C 0.55886 0.53652 0.62359 0.0
C183 C 0.55188 0.55054 0.63532 0.0
C184 C 0.5558 0.57109 0.66635 0.0
C185 C 0.57789 0.59343 0.6732 0.0
C186 C 0.57555 0.60668 0.68802 0.0
C187 C 0.55103 0.59786 0.69613 0.0
C188 C 0.52858 0.57656 0.68831 0.0
C189 C 0.53097 0.5632 0.67352 0.0
C190 C 0.57855 0.54349 0.68139 0.0
C191 C 0.60502 0.55608 0.68717 0.0
C192 C 0.61169 0.55917 0.7059 0.0
C193 C 0.59197 0.54968 0.71917 0.0
C194 C 0.56543 0.53682 0.71328 0.0
C195 C 0.5588 0.53367 0.69456 0.0
C196 C 0.58433 0.5081 0.65831 0.0
C197 C 0.6088 0.51068 0.6547 0.0
C198 C 0.61509 0.49338 0.66187 0.0
C199 C 0.59715 0.47356 0.67296 0.0
C200 C 0.57289 0.47136 0.67674 0.0
C201 C 0.5665 0.48838 0.6694 0.0
C202 C 0.57886 0.5094 0.61857 0.0
C203 C 0.59954 0.52218 0.60633 0.0
C204 C 0.60615 0.50854 0.59429 0.0
C205 C 0.59224 0.48184 0.59434 0.0
C206 C 0.57162 0.46912 0.60673 0.0
C207 C 0.56495 0.48279 0.61871 0.0
C208 C 0.55409 0.53556 0.60344 0.0
C209 C 0.56818 0.55767 0.59328 0.0
C210 C 0.56897 0.55608 0.57416 0.0
C211 C 0.55605 0.53229 0.56495 0.0
C212 C 0.53986 0.51048 0.57512 0.0
C213 C 0.53861 0.51219 0.59417 0.0
C214 C 0.53335 0.55832 0.62852 0.0
C215 C 0.53986 0.58377 0.62892 0.0
C216 C 0.52096 0.59003 0.62402 0.0
C217 C 0.49534 0.57093 0.61853 0.0
C218 C 0.48942 0.54566 0.61738 0.0
C219 C 0.50811 0.53944 0.62245 0.0
C220 C 0.59913 0.55324 0.73906 0.0
C221 C 0.59911 0.46725 0.58151 0.0
H222 H 0.00905 0.43942 0.95628 0.0
H223 H 0.17943 0.52307 0.77799 0.0
H224 H 0.97808 0.46887 0.85372 0.0
H225 H 0.94593 0.4579 0.87783 0.0
H226 H 0.93756 0.38395 0.88152 0.0
H227 H 0.97002 0.39527 0.85738 0.0
H228 H 0.01851 0.47633 0.88143 0.0
H229 H 0.01415 0.46712 0.91425 0.0
H230 H 0.02403 0.40312 0.9036 0.0
H231 H 0.02796 0.41235 0.87076 0.0
H232 H 0.07491 0.4997 0.86948 0.0
H233 H 0.11487 0.5109 0.88721 0.0
H234 H 0.11728 0.44871 0.86064 0.0
H235 H 0.07633 0.4367 0.84412 0.0
H236 H 0.07665 0.51648 0.82009 0.0
H237 H 0.11899 0.54172 0.8051 0.0
H238 H 0.12295 0.47397 0.79664 0.0
H239 H 0.08052 0.44898 0.8115 0.0
H240 H 0.01179 0.48907 0.79987 0.0
H241 H 0.01833 0.50362 0.76828 0.0
H242 H 0.05243 0.45759 0.75595 0.0
H243 H 0.0434 0.44143 0.78703 0.0
H244 H 0.96534 0.45999 0.81976 0.0
H245 H 0.92447 0.43789 0.80124 0.0
H246 H 0.94304 0.38093 0.78534 0.0
H247 H 0.98372 0.40318 0.80372 0.0
O248 O 0.01113 0.44289 0.94329 0.0
O249 O 0.01713 0.41068 0.93717 0.0
O250 O 0.15973 0.54784 0.78871 0.0
O251 O 0.16272 0.51358 0.78404 0.0
C252 C 0.00106 0.44251 0.84365 0.0
C253 C 0.02446 0.44961 0.85373 0.0
C254 C 0.04871 0.46072 0.84473 0.0
C255 C 0.04981 0.46588 0.82581 0.0
C256 C 0.02633 0.45815 0.8156 0.0
C257 C 0.00187 0.44566 0.82445 0.0
C258 C 0.97621 0.4328 0.85371 0.0
C259 C 0.96842 0.44989 0.85915 0.0
C260 C 0.95015 0.44363 0.87304 0.0
C261 C 0.93948 0.42018 0.88179 0.0
C262 C 0.94577 0.40232 0.87525 0.0
C263 C 0.964 0.40859 0.8613 0.0
C264 C 0.02343 0.44494 0.87376 0.0
C265 C 0.01975 0.46035 0.88623 0.0
C266 C 0.01727 0.45504 0.90496 0.0
C267 C 0.01866 0.43433 0.91155 0.0
C268 C 0.02282 0.41919 0.89899 0.0
C269 C 0.02517 0.42446 0.88025 0.0
C270 C 0.07307 0.46769 0.85532 0.0
C271 C 0.08407 0.48847 0.86764 0.0
C272 C 0.10699 0.49489 0.87766 0.0
C273 C 0.11952 0.48085 0.8753 0.0
C274 C 0.10808 0.45978 0.86307 0.0
C275 C 0.08491 0.45312 0.85334 0.0
C276 C 0.0757 0.481 0.81701 0.0
C277 C 0.08677 0.50718 0.81504 0.0
C278 C 0.11092 0.52153 0.80646 0.0
C279 C 0.12439 0.50987 0.7997 0.0
C280 C 0.11316 0.48357 0.80173 0.0
C281 C 0.089 0.46926 0.8103 0.0
C282 C 0.02756 0.46454 0.79585 0.0
C283 C 0.02005 0.48167 0.79017 0.0
C284 C 0.02417 0.49024 0.77214 0.0
C285 C 0.03646 0.48228 0.75951 0.0
C286 C 0.04274 0.4641 0.76509 0.0
C287 C 0.03798 0.45508 0.783 0.0
C288 C 0.97723 0.43295 0.81325 0.0
C289 C 0.96043 0.44267 0.81235 0.0
C290 C 0.93719 0.43007 0.80173 0.0
C291 C 0.93054 0.40767 0.7918 0.0
C292 C 0.94775 0.39832 0.79257 0.0
C293 C 0.97087 0.41086 0.80319 0.0
C294 C 0.01563 0.42852 0.93142 0.0
C295 C 0.15 0.52499 0.79051 0.0
H296 H 0.37493 0.92915 0.87623 0.0
H297 H 0.38188 0.81614 0.05795 0.0
H298 H 0.42276 0.00123 0.9667 0.0
H299 H 0.44032 0.03416 0.94353 0.0
H300 H 0.51318 0.03381 0.94446 0.0
H301 H 0.49581 0.00194 0.96826 0.0
H302 H 0.38243 0.9358 0.95656 0.0
H303 H 0.37149 0.93041 0.92364 0.0
H304 H 0.45271 0.95649 0.91164 0.0
H305 H 0.46327 0.9614 0.94457 0.0
H306 H 0.37213 0.88643 0.98399 0.0
H307 H 0.36025 0.84577 0.96847 0.0
H308 H 0.43901 0.87981 0.94786 0.0
H309 H 0.45105 0.91958 0.96383 0.0
H310 H 0.38251 0.91783 0.02598 0.0
H311 H 0.36342 0.88092 0.04585 0.0
H312 H 0.42025 0.86206 0.02675 0.0
H313 H 0.4393 0.89914 0.00711 0.0
H314 H 0.42411 0.98406 0.03352 0.0
H315 H 0.43052 0.99077 0.06687 0.0
H316 H 0.46899 0.94707 0.06761 0.0
H317 H 0.46357 0.94153 0.03427 0.0
H318 H 0.45815 0.02696 0.00447 0.0
H319 H 0.4975 0.06568 0.01644 0.0
H320 H 0.53613 0.02296 0.02493 0.0
H321 H 0.4975 0.98504 0.01239 0.0
O322 O 0.37968 0.93137 0.88918 0.0
O323 O 0.42171 0.94509 0.88375 0.0
O324 O 0.36023 0.84135 0.05959 0.0
O325 O 0.38901 0.83083 0.0502 0.0
C326 C 0.44609 0.97694 0.981 0.0
C327 C 0.43001 0.95253 0.973 0.0
C328 C 0.4207 0.93084 0.98394 0.0
C329 C 0.42382 0.93366 0.00326 0.0
C330 C 0.43914 0.95822 0.01131 0.0
C331 C 0.45204 0.97957 -0.0 0.0
C332 C 0.45807 -0.00068 0.96911 0.0
C333 C 0.44274 0.0088 0.96217 0.0
C334 C 0.45272 0.02737 0.94878 0.0
C335 C 0.47808 0.03648 0.94191 0.0
C336 C 0.49374 0.02759 0.94955 0.0
C337 C 0.48386 0.0093 0.96312 0.0
C338 C 0.4237 0.94939 0.95294 0.0
C339 C 0.39783 0.94037 0.94679 0.0
C340 C 0.39164 0.93732 0.92798 0.0
C341 C 0.41126 0.94316 0.915 0.0
C342 C 0.43716 0.95197 0.92126 0.0
C343 C 0.44329 0.95496 0.94006 0.0
C344 C 0.41236 0.90604 0.97481 0.0
C345 C 0.38676 0.88498 0.97619 0.0
C346 C 0.38003 0.86191 0.96739 0.0
C347 C 0.39874 0.86001 0.95692 0.0
C348 C 0.42425 0.88103 0.95571 0.0
C349 C 0.43106 0.90371 0.96473 0.0
C350 C 0.4121 0.91101 0.01501 0.0
C351 C 0.39075 0.90566 0.0261 0.0
C352 C 0.3799 0.88458 0.03742 0.0
C353 C 0.39028 0.8685 0.03785 0.0
C354 C 0.41174 0.87399 0.02672 0.0
C355 C 0.42259 0.8951 0.01543 0.0
C356 C 0.44288 0.96186 0.03155 0.0
C357 C 0.43399 0.97603 0.04094 0.0
C358 C 0.43761 0.97979 0.05996 0.0
C359 C 0.45023 0.96944 0.06992 0.0
C360 C 0.45952 0.95562 0.06036 0.0
C361 C 0.45603 0.95202 0.04135 0.0
C362 C 0.47502 0.00324 0.00758 0.0
C363 C 0.4752 0.02612 0.00888 0.0
C364 C 0.49758 0.0481 0.01583 0.0
C365 C 0.52 0.0474 0.02153 0.0
C366 C 0.51944 0.02429 0.02036 0.0
C367 C 0.49727 0.00254 0.01336 0.0
C368 C 0.40464 0.93996 0.89503 0.0
C369 C 0.37886 0.84611 0.04989 0.0
H370 H 0.64128 0.5776 0.00956 0.0
H371 H 0.67902 0.50662 0.19978 0.0
H372 H 0.57339 0.58074 0.09959 0.0
H373 H 0.55441 0.59829 0.07877 0.0
H374 H 0.62145 0.67349 0.08906 0.0
H375 H 0.6402 0.65566 0.11035 0.0
H376 H 0.60806 0.55527 0.08578 0.0
H377 H 0.61654 0.55716 0.05284 0.0
H378 H 0.67523 0.63692 0.05925 0.0
H379 H 0.66674 0.63467 0.09223 0.0
H380 H 0.62028 0.52924 0.11646 0.0
H381 H 0.64393 0.50997 0.10337 0.0
H382 H 0.71304 0.58447 0.09798 0.0
H383 H 0.68933 0.60353 0.11152 0.0
H384 H 0.59526 0.53047 0.15511 0.0
H385 H 0.60309 0.50269 0.17454 0.0
H386 H 0.68686 0.5561 0.17295 0.0
H387 H 0.67874 0.58384 0.15368 0.0
H388 H 0.56871 0.5674 0.16042 0.0
H389 H 0.55281 0.55805 0.19173 0.0
H390 H 0.63273 0.58801 0.21175 0.0
H391 H 0.64851 0.59942 0.18057 0.0
H392 H 0.56521 0.5991 0.13436 0.0
H393 H 0.55066 0.62599 0.14867 0.0
H394 H 0.62695 0.67088 0.17551 0.0
H395 H 0.64155 0.64453 0.1606 0.0
O396 O 0.63825 0.57729 0.0226 0.0
O397 O 0.6681 0.61829 0.0266 0.0
O398 O 0.63213 0.49043 0.19246 0.0
O399 O 0.67538 0.51724 0.19207 0.0
C400 C 0.61897 0.60557 0.1188 0.0
C401 C 0.6317 0.5935 0.11135 0.0
C402 C 0.63874 0.57945 0.12279 0.0
C403 C 0.63149 0.5761 0.14145 0.0
C404 C 0.61897 0.58848 0.14893 0.0
C405 C 0.61382 0.60412 0.13774 0.0
C406 C 0.60809 0.61696 0.10641 0.0
C407 C 0.58388 0.60102 0.09745 0.0
C408 C 0.57302 0.61108 0.0857 0.0
C409 C 0.58638 0.63726 0.08249 0.0
C410 C 0.61078 0.65326 0.0914 0.0
C411 C 0.62147 0.64317 0.10347 0.0
C412 C 0.63681 0.59482 0.09135 0.0
C413 C 0.62279 0.57311 0.08003 0.0
C414 C 0.62764 0.57425 0.06123 0.0
C415 C 0.64657 0.59719 0.0534 0.0
C416 C 0.66052 0.61895 0.06483 0.0
C417 C 0.65568 0.61775 0.08365 0.0
C418 C 0.65315 0.56773 0.11501 0.0
C419 C 0.64056 0.54135 0.11254 0.0
C420 C 0.65403 0.53044 0.1049 0.0
C421 C 0.68033 0.54574 0.09953 0.0
C422 C 0.69289 0.57219 0.10209 0.0
C423 C 0.67937 0.58309 0.10974 0.0
C424 C 0.63643 0.55916 0.15301 0.0
C425 C 0.61528 0.53614 0.159 0.0
C426 C 0.61981 0.5203 0.17008 0.0
C427 C 0.64562 0.52718 0.17531 0.0
C428 C 0.66676 0.55023 0.16918 0.0
C429 C 0.66219 0.56608 0.15814 0.0
C430 C 0.60977 0.58398 0.16818 0.0
C431 C 0.58282 0.57249 0.17165 0.0
C432 C 0.57373 0.56687 0.18957 0.0
C433 C 0.59137 0.572 0.20439 0.0
C434 C 0.61849 0.58412 0.20084 0.0
C435 C 0.6276 0.59031 0.18295 0.0
C436 C 0.60456 0.62015 0.14621 0.0
C437 C 0.57884 0.61497 0.14311 0.0
C438 C 0.57049 0.63014 0.15149 0.0
C439 C 0.5877 0.65064 0.16318 0.0
C440 C 0.61336 0.65554 0.16635 0.0
C441 C 0.6217 0.64044 0.15792 0.0
C442 C 0.65169 0.59833 0.03342 0.0
C443 C 0.65052 0.51045 0.18712 0.0
Mg444 Mg 0.63589 0.43472 0.36576 0.0
O445 O 0.63395 0.4552 0.39166 0.0
O446 O 0.65599 0.49685 0.3863 0.0
Mg447 Mg 0.67072 0.50272 0.3569 0.0
C448 C 0.64247 0.47815 0.39675 0.0
C449 C 0.60682 0.37791 0.37329 0.0
O450 O 0.59962 0.37856 0.35625 0.0
O451 O 0.67897 0.44793 0.37157 0.0
O452 O 0.69893 0.48874 0.36411 0.0
O453 O 0.59874 0.4314 0.35556 0.0
O454 O 0.6384 0.46387 0.34996 0.0
C455 C 0.69982 0.4694 0.3693 0.0
C456 C 0.6132 0.45371 0.34877 0.0
O457 O 0.62248 0.39869 0.38168 0.0
Mg458 Mg 0.24084 0.62802 0.59273 0.0
O459 O 0.21672 0.60807 0.56642 0.0
O460 O 0.19647 0.5663 0.57097 0.0
Mg461 Mg 0.20569 0.55962 0.60025 0.0
C462 C 0.20165 0.5851 0.56087 0.0
C463 C 0.26721 0.68502 0.58557 0.0
O464 O 0.25563 0.68271 0.60132 0.0
O465 O 0.27109 0.61661 0.58634 0.0
O466 O 0.24916 0.57565 0.59355 0.0
O467 O 0.20668 0.62925 0.60422 0.0
O468 O 0.21372 0.59766 0.60825 0.0
C469 C 0.27016 0.59558 0.58858 0.0
C470 C 0.19888 0.60702 0.61075 0.0
O471 O 0.26471 0.66526 0.57775 0.0
Mg472 Mg 0.61238 0.22062 0.75869 0.0
O473 O 0.59489 0.18925 0.73646 0.0
O474 O 0.60505 0.16021 0.74427 0.0
Mg475 Mg 0.62809 0.17269 0.7717 0.0
C476 C 0.59414 0.16838 0.73336 0.0
C477 C 0.60245 0.26265 0.74927 0.0
O478 O 0.59957 0.26032 0.76715 0.0
O479 O 0.65334 0.23535 0.74806 0.0
O480 O 0.66332 0.20711 0.75826 0.0
O481 O 0.57561 0.20015 0.77467 0.0
O482 O 0.60985 0.19525 0.77812 0.0
C483 C 0.66955 0.22774 0.75011 0.0
C484 C 0.58635 0.18887 0.78267 0.0
O485 O 0.60719 0.24749 0.74048 0.0
Mg486 Mg 0.4361 0.65329 0.88334 0.0
O487 O 0.45914 0.65346 0.90905 0.0
O488 O 0.46084 0.61799 0.90643 0.0
Mg489 Mg 0.44226 0.597 0.87923 0.0
C490 C 0.46583 0.63814 0.91527 0.0
C491 C 0.40231 0.66339 0.85241 0.0
O492 O 0.39116 0.65884 0.83598 0.0
O493 O 0.39889 0.62124 0.89496 0.0
O494 O 0.40139 0.5866 0.89002 0.0
O495 O 0.47374 0.67457 0.86735 0.0
O496 O 0.45015 0.63338 0.86825 0.0
C497 C 0.38898 0.5973 0.89556 0.0
C498 C 0.4707 0.65305 0.86248 0.0
O499 O 0.4128 0.65076 0.85735 0.0
Mg500 Mg 0.75564 0.33991 0.06726 0.0
O501 O 0.78376 0.35374 0.09218 0.0
O502 O 0.8131 0.34177 0.08745 0.0
Mg503 Mg 0.80739 0.32589 0.05786 0.0
C504 C 0.80332 0.35193 0.09752 0.0
C505 C 0.71269 0.35187 0.08622 0.0
O506 O 0.69219 0.34381 0.09679 0.0
O507 O 0.73928 0.29896 0.07471 0.0
O508 O 0.76899 0.28944 0.0654 0.0
O509 O 0.77931 0.37747 0.05305 0.0
O510 O 0.78605 0.34549 0.05063 0.0
C511 C 0.74648 0.28293 0.07187 0.0
C512 C 0.79293 0.36826 0.04639 0.0
O513 O 0.72334 0.33858 0.08468 0.0
Mg514 Mg 0.4393 0.81148 0.23135 0.0
O515 O 0.45239 0.82836 0.26044 0.0
O516 O 0.49219 0.8632 0.25837 0.0
Mg517 Mg 0.50411 0.86867 0.22821 0.0
C518 C 0.47257 0.84761 0.26781 0.0
C519 C 0.39006 0.75942 0.23039 0.0
O520 O 0.39282 0.76671 0.21325 0.0
O521 O 0.46757 0.79714 0.23182 0.0
O522 O 0.50659 0.83234 0.22804 0.0
O523 O 0.42102 0.83484 0.22713 0.0
O524 O 0.46208 0.84712 0.22028 0.0
C525 C 0.49237 0.80828 0.22972 0.0
C526 C 0.44367 0.85235 0.22131 0.0
O527 O 0.40682 0.7743 0.24242 0.0
C528 C 0.19244 0.57094 0.28555 0.0
C529 C 0.17202 0.5636 0.27248 0.0
C530 C 0.2184 0.58864 0.28118 0.0
C531 C 0.26295 0.62152 0.24282 0.0
H532 H 0.29708 0.67824 0.27757 0.0
C533 C 0.34753 0.71974 0.22252 0.0
C534 C 0.36754 0.73456 0.23552 0.0
C535 C 0.32576 0.69662 0.22739 0.0
C536 C 0.28815 0.66237 0.26786 0.0
H537 H 0.16284 0.56775 0.2443 0.0
H538 H 0.2082 0.59869 0.23663 0.0
H539 H 0.25551 0.64081 0.28529 0.0
H540 H 0.38082 0.73643 0.26372 0.0
H541 H 0.34298 0.69579 0.27216 0.0
H542 H 0.29542 0.64324 0.22526 0.0
C543 C 0.20418 0.59077 0.25024 0.0
C544 C 0.26429 0.64091 0.2723 0.0
C545 C 0.17821 0.57322 0.25466 0.0
C546 C 0.3656 0.72552 0.25342 0.0
C547 C 0.34388 0.70228 0.25827 0.0
C548 C 0.28693 0.64293 0.23842 0.0
C549 C 0.22443 0.59917 0.26361 0.0
C550 C 0.25119 0.62047 0.25968 0.0
C551 C 0.32357 0.68767 0.24535 0.0
C552 C 0.29954 0.66384 0.25074 0.0
H553 H 0.18819 0.564 0.29945 0.0
H554 H 0.23366 0.59463 0.2917 0.0
H555 H 0.25342 0.60591 0.23292 0.0
H556 H 0.34838 0.72618 0.20861 0.0
H557 H 0.3103 0.68611 0.21717 0.0
C558 C 0.53582 0.18216 0.45852 0.0
C559 C 0.51993 0.15999 0.4479 0.0
C560 C 0.54498 0.20607 0.45108 0.0
C561 C 0.53151 0.23825 0.41383 0.0
H562 H 0.60414 0.2916 0.42239 0.0
C563 C 0.57974 0.3305 0.37292 0.0
C564 C 0.59674 0.35335 0.38247 0.0
C565 C 0.57014 0.30725 0.38149 0.0
C566 C 0.58372 0.27702 0.42007 0.0
H567 H 0.50154 0.14558 0.42104 0.0
H568 H 0.51743 0.18727 0.40809 0.0
H569 H 0.58774 0.25034 0.43632 0.0
H570 H 0.61693 0.36973 0.40856 0.0
H571 H 0.59995 0.32907 0.42358 0.0
H572 H 0.52746 0.26484 0.39756 0.0
C573 C 0.52249 0.18616 0.42226 0.0
C574 C 0.57433 0.25338 0.42804 0.0
C575 C 0.51338 0.16227 0.42968 0.0
C576 C 0.60392 0.35245 0.4008 0.0
C577 C 0.5943 0.32916 0.40938 0.0
C578 C 0.54087 0.26188 0.40589 0.0
C579 C 0.53839 0.20832 0.43287 0.0
C580 C 0.54818 0.23368 0.42489 0.0
C581 C 0.57729 0.30629 0.39982 0.0
C582 C 0.56713 0.28148 0.40881 0.0
H583 H 0.54089 0.18104 0.47269 0.0
H584 H 0.55691 0.22279 0.45968 0.0
H585 H 0.51113 0.22359 0.41141 0.0
H586 H 0.57388 0.33051 0.35877 0.0
H587 H 0.55739 0.28997 0.37364 0.0
C588 C 0.47937 0.59864 0.60535 0.0
C589 C 0.4743 0.57682 0.61485 0.0
C590 C 0.4591 0.60353 0.60177 0.0
C591 C 0.392 0.58511 0.61708 0.0
H592 H 0.38473 0.60895 0.56951 0.0
C593 C 0.29441 0.57251 0.59252 0.0
C594 C 0.29469 0.5947 0.58754 0.0
C595 C 0.31781 0.5725 0.59452 0.0
C596 C 0.38672 0.60251 0.58289 0.0
H597 H 0.44405 0.54349 0.6285 0.0
H598 H 0.40889 0.55141 0.62172 0.0
H599 H 0.42337 0.60545 0.57635 0.0
H600 H 0.31989 0.63384 0.57953 0.0
H601 H 0.36097 0.63353 0.58274 0.0
H602 H 0.35497 0.58127 0.62337 0.0
C603 C 0.42848 0.56502 0.61722 0.0
C604 C 0.40884 0.6006 0.58686 0.0
C605 C 0.44864 0.56024 0.62086 0.0
C606 C 0.31894 0.61645 0.58346 0.0
C607 C 0.34245 0.61631 0.58527 0.0
C608 C 0.36986 0.58671 0.61304 0.0
C609 C 0.43338 0.58674 0.60768 0.0
C610 C 0.41144 0.59135 0.60389 0.0
C611 C 0.34208 0.59454 0.59139 0.0
C612 C 0.36674 0.59494 0.59581 0.0
H613 H 0.49889 0.61174 0.60045 0.0
H614 H 0.46361 0.62053 0.5945 0.0
H615 H 0.39367 0.57864 0.63053 0.0
H616 H 0.27617 0.55534 0.59565 0.0
H617 H 0.317 0.55536 0.59898 0.0
C618 C 0.8819 0.38954 0.78912 0.0
C619 C 0.9052 0.39327 0.7814 0.0
C620 C 0.85765 0.37386 0.78027 0.0
C621 C 0.82532 0.31926 0.74836 0.0
H622 H 0.76784 0.33191 0.75203 0.0
C623 C 0.717 0.24027 0.75116 0.0
C624 C 0.69733 0.245 0.74512 0.0
C625 C 0.74355 0.25894 0.74991 0.0
C626 C 0.78371 0.32819 0.75049 0.0
H627 H 0.92148 0.38459 0.75782 0.0
H628 H 0.87903 0.35711 0.74234 0.0
H629 H 0.81224 0.36536 0.76059 0.0
H630 H 0.69023 0.27209 0.73127 0.0
H631 H 0.73657 0.30444 0.72881 0.0
H632 H 0.79666 0.28191 0.73852 0.0
C633 C 0.87953 0.36603 0.75539 0.0
C634 C 0.80914 0.3473 0.75565 0.0
C635 C 0.90381 0.38174 0.76426 0.0
C636 C 0.70486 0.26795 0.73633 0.0
C637 C 0.73143 0.28657 0.73499 0.0
C638 C 0.79986 0.30013 0.74315 0.0
C639 C 0.85613 0.36156 0.76346 0.0
C640 C 0.83008 0.34279 0.75521 0.0
C641 C 0.75103 0.28268 0.74247 0.0
C642 C 0.77863 0.30411 0.7447 0.0
H643 H 0.88224 0.39784 0.80242 0.0
H644 H 0.83998 0.3705 0.78702 0.0
H645 H 0.841 0.31512 0.74792 0.0
H646 H 0.71195 0.22278 0.75792 0.0
H647 H 0.75807 0.25531 0.75591 0.0
C648 C 0.38833 0.81516 0.95654 0.0
C649 C 0.39234 0.83648 0.94696 0.0
C650 C 0.38783 0.79491 0.94709 0.0
C651 C 0.41294 0.78328 0.90419 0.0
H652 H 0.36852 0.71214 0.91559 0.0
C653 C 0.4016 0.70325 0.85645 0.0
C654 C 0.40283 0.68317 0.8644 0.0
C655 C 0.40081 0.72153 0.86749 0.0
C656 C 0.38124 0.73199 0.91244 0.0
H657 H 0.39736 0.85309 0.92018 0.0
H658 H 0.39542 0.81745 0.90355 0.0
H659 H 0.36393 0.74412 0.9328 0.0
H660 H 0.40361 0.66619 0.89014 0.0
H661 H 0.40218 0.69829 0.90954 0.0
H662 H 0.42989 0.77118 0.88365 0.0
C663 C 0.39346 0.81649 0.91834 0.0
C664 C 0.3786 0.75027 0.92225 0.0
C665 C 0.39424 0.83674 0.92778 0.0
C666 C 0.40321 0.6817 0.88365 0.0
C667 C 0.40206 0.69988 0.89473 0.0
C668 C 0.41542 0.76506 0.89434 0.0
C669 C 0.39124 0.79576 0.92794 0.0
C670 C 0.39418 0.77611 0.91804 0.0
C671 C 0.40088 0.71996 0.88672 0.0
C672 C 0.39939 0.73923 0.8982 0.0
H673 H 0.38716 0.81483 0.97139 0.0
H674 H 0.38618 0.77929 0.9549 0.0
H675 H 0.42583 0.80306 0.90096 0.0
H676 H 0.40121 0.70482 0.84165 0.0
H677 H 0.39962 0.73667 0.86095 0.0
C678 C 0.72053 0.54206 0.09705 0.0
C679 C 0.69452 0.53394 0.09148 0.0
C680 C 0.73291 0.52929 0.09069 0.0
C681 C 0.72565 0.47957 0.05686 0.0
H682 H 0.75439 0.4596 0.09691 0.0
C683 C 0.70447 0.38032 0.06745 0.0
C684 C 0.72252 0.37596 0.07679 0.0
C685 C 0.71121 0.4049 0.06301 0.0
C686 C 0.74722 0.46549 0.08537 0.0
H687 H 0.66179 0.50721 0.07397 0.0
H688 H 0.68292 0.48455 0.06334 0.0
H689 H 0.74673 0.49443 0.10158 0.0
H690 H 0.7623 0.39324 0.08774 0.0
H691 H 0.77406 0.43672 0.08039 0.0
H692 H 0.72415 0.44908 0.04119 0.0
C693 C 0.694 0.50091 0.07242 0.0
C694 C 0.74275 0.4855 0.08806 0.0
C695 C 0.68167 0.51364 0.07875 0.0
C696 C 0.74819 0.39625 0.08034 0.0
C697 C 0.75483 0.42105 0.07623 0.0
C698 C 0.72997 0.45945 0.05421 0.0
C699 C 0.71956 0.5082 0.07861 0.0
C700 C 0.7306 0.49186 0.07416 0.0
C701 C 0.73596 0.42566 0.06826 0.0
C702 C 0.7395 0.45137 0.06876 0.0
H703 H 0.73094 0.55762 0.10688 0.0
H704 H 0.75267 0.53551 0.09562 0.0
H705 H 0.7169 0.48446 0.04571 0.0
H706 H 0.6845 0.36488 0.06472 0.0
H707 H 0.69612 0.40777 0.05707 0.0
C708 C 0.39347 0.90543 0.53801 0.0
C709 C 0.40888 0.91087 0.52229 0.0
C710 C 0.37957 0.88079 0.54464 0.0
C711 C 0.35089 0.81397 0.53033 0.0
H712 H 0.34831 0.80304 0.58283 0.0
C713 C 0.29801 0.71353 0.56155 0.0
C714 C 0.28361 0.71038 0.57754 0.0
C715 C 0.31415 0.73771 0.55446 0.0
C716 C 0.3486 0.80577 0.56814 0.0
H717 H 0.42184 0.89473 0.5012 0.0
H718 H 0.39761 0.85157 0.51289 0.0
H719 H 0.37535 0.84577 0.57126 0.0
H720 H 0.27448 0.73012 0.59837 0.0
H721 H 0.30221 0.77206 0.58587 0.0
H722 H 0.32382 0.77397 0.52723 0.0
C723 C 0.39622 0.86641 0.52001 0.0
C724 C 0.36414 0.83027 0.56152 0.0
C725 C 0.41028 0.89114 0.51343 0.0
C726 C 0.28542 0.73186 0.5861 0.0
C727 C 0.30149 0.75597 0.579 0.0
C728 C 0.33525 0.78943 0.53697 0.0
C729 C 0.38066 0.86097 0.53567 0.0
C730 C 0.36525 0.8347 0.54256 0.0
C731 C 0.31622 0.75924 0.56319 0.0
C732 C 0.3337 0.78509 0.55597 0.0
H733 H 0.3922 0.92027 0.54524 0.0
H734 H 0.36756 0.87718 0.55662 0.0
H735 H 0.35113 0.81681 0.51566 0.0
H736 H 0.29708 0.69736 0.55464 0.0
H737 H 0.3254 0.73959 0.54233 0.0
C738 C 0.61251 0.44269 0.66877 0.0
C739 C 0.60314 0.45469 0.6803 0.0
C740 C 0.61563 0.42308 0.67537 0.0
C741 C 0.62148 0.39443 0.71816 0.0
H742 H 0.59045 0.33201 0.68899 0.0
C743 C 0.59686 0.30022 0.75001 0.0
C744 C 0.60248 0.28393 0.74 0.0
C745 C 0.5987 0.32145 0.74182 0.0
C746 C 0.59955 0.34941 0.69718 0.0
H747 H 0.59081 0.45648 0.70792 0.0
H748 H 0.59619 0.42232 0.71943 0.0
H749 H 0.59221 0.36949 0.67636 0.0
H750 H 0.61388 0.27684 0.71339 0.0
H751 H 0.61721 0.31414 0.69907 0.0
H752 H 0.62854 0.37439 0.73906 0.0
C753 C 0.60117 0.428 0.70532 0.0
C754 C 0.60059 0.37088 0.68994 0.0
C755 C 0.59787 0.4474 0.6987 0.0
C756 C 0.60937 0.28901 0.72145 0.0
C757 C 0.61124 0.31034 0.71325 0.0
C758 C 0.62049 0.37304 0.72537 0.0
C759 C 0.6097 0.41536 0.69367 0.0
C760 C 0.61112 0.39346 0.7005 0.0
C761 C 0.60626 0.32697 0.72344 0.0
C762 C 0.60904 0.35014 0.71511 0.0
H763 H 0.61654 0.44785 0.65448 0.0
H764 H 0.62243 0.4138 0.66612 0.0
H765 H 0.63012 0.4117 0.72649 0.0
H766 H 0.59132 0.29676 0.76428 0.0
H767 H 0.59416 0.33356 0.74993 0.0
C768 C 0.15149 0.47076 0.8904 0.0
C769 C 0.14507 0.48882 0.88481 0.0
C770 C 0.17655 0.47846 0.89756 0.0
C771 C 0.23677 0.53267 0.91779 0.0
H772 H 0.27397 0.50832 0.88862 0.0
C773 C 0.34668 0.59288 0.90558 0.0
C774 C 0.36148 0.5815 0.90161 0.0
C775 C 0.31988 0.57806 0.90899 0.0
C776 C 0.26386 0.51488 0.89732 0.0
H777 H 0.15998 0.52925 0.88297 0.0
H778 H 0.20319 0.54251 0.89597 0.0
H779 H 0.22648 0.48823 0.88498 0.0
H780 H 0.36005 0.54555 0.89941 0.0
H781 H 0.31319 0.51959 0.9057 0.0
H782 H 0.27414 0.55974 0.92984 0.0
C783 C 0.18877 0.5224 0.89483 0.0
C784 C 0.23662 0.50337 0.89516 0.0
C785 C 0.16392 0.51475 0.8874 0.0
C786 C 0.34916 0.55492 0.90222 0.0
C787 C 0.32228 0.54004 0.90576 0.0
C788 C 0.26396 0.54397 0.92014 0.0
C789 C 0.1955 0.50436 0.89959 0.0
C790 C 0.22303 0.51286 0.90483 0.0
C791 C 0.30718 0.55143 0.90867 0.0
C792 C 0.27799 0.53595 0.90932 0.0
H793 H 0.13731 0.45063 0.889 0.0
H794 H 0.18129 0.46421 0.90122 0.0
H795 H 0.22661 0.54009 0.92558 0.0
H796 H 0.35548 0.61329 0.90529 0.0
H797 H 0.30892 0.58756 0.91088 0.0
C798 C 0.56905 0.07523 0.02342 0.0
C799 C 0.54416 0.07057 0.02851 0.0
C800 C 0.59193 0.09638 0.03044 0.0
C801 C 0.61723 0.1448 0.06806 0.0
H802 H 0.67478 0.18226 0.03485 0.0
C803 C 0.70159 0.24818 0.08046 0.0
C804 C 0.72649 0.25564 0.07341 0.0
C805 C 0.68072 0.22324 0.07806 0.0
C806 C 0.65913 0.17174 0.04442 0.0
H807 H 0.52381 0.08461 0.0449 0.0
H808 H 0.5639 0.12211 0.05677 0.0
H809 H 0.63514 0.14423 0.02374 0.0
H810 H 0.7496 0.24208 0.05995 0.0
H811 H 0.71315 0.19848 0.05592 0.0
H812 H 0.64114 0.17297 0.08859 0.0
C813 C 0.56565 0.10905 0.04761 0.0
C814 C 0.63633 0.14995 0.03803 0.0
C815 C 0.54269 0.08778 0.04061 0.0
C816 C 0.73063 0.23707 0.0654 0.0
C817 C 0.70971 0.21212 0.06296 0.0
C818 C 0.64006 0.16672 0.07445 0.0
C819 C 0.59054 0.11355 0.04261 0.0
C820 C 0.61502 0.13632 0.04972 0.0
C821 C 0.68431 0.20523 0.06857 0.0
C822 C 0.66117 0.18053 0.06264 0.0
H823 H 0.5709 0.06254 0.01393 0.0
H824 H 0.61075 0.09912 0.02643 0.0
H825 H 0.60132 0.1345 0.07749 0.0
H826 H 0.69775 0.26193 0.08687 0.0
H827 H 0.66139 0.21856 0.08253 0.0
C828 C 0.59625 0.69348 0.17314 0.0
C829 C 0.5791 0.66705 0.17195 0.0
C830 C 0.58828 0.70901 0.18135 0.0
C831 C 0.53906 0.70819 0.21259 0.0
H832 H 0.55689 0.77088 0.18856 0.0
C833 C 0.48915 0.76598 0.22804 0.0
C834 C 0.50461 0.79261 0.22748 0.0
C835 C 0.49986 0.75104 0.22354 0.0
C836 C 0.55212 0.75365 0.19563 0.0
H837 H 0.54022 0.63617 0.17869 0.0
H838 H 0.52605 0.66339 0.19262 0.0
H839 H 0.57201 0.74391 0.17585 0.0
H840 H 0.54392 0.82439 0.2228 0.0
H841 H 0.56259 0.79827 0.21511 0.0
H842 H 0.51871 0.71783 0.23218 0.0
C843 C 0.54581 0.67206 0.18741 0.0
C844 C 0.56076 0.73817 0.18832 0.0
C845 C 0.5538 0.65649 0.17921 0.0
C846 C 0.53137 0.80395 0.22324 0.0
C847 C 0.54205 0.78899 0.21872 0.0
C848 C 0.53036 0.72369 0.21989 0.0
C849 C 0.56294 0.69851 0.18851 0.0
C850 C 0.55423 0.7152 0.19665 0.0
C851 C 0.52625 0.76238 0.21838 0.0
C852 C 0.5367 0.74654 0.21143 0.0
H853 H 0.61578 0.70225 0.16751 0.0
H854 H 0.60206 0.72929 0.18214 0.0
H855 H 0.53402 0.69078 0.21948 0.0
H856 H 0.46848 0.75658 0.23131 0.0
H857 H 0.48712 0.73058 0.2233 0.0
C858 C 0.91786 0.50488 0.34242 0.0
C859 C 0.9234 0.48607 0.34748 0.0
C860 C 0.89378 0.50248 0.3465 0.0
C861 C 0.83485 0.46792 0.37536 0.0
H862 H 0.8046 0.49125 0.33861 0.0
C863 C 0.72807 0.45053 0.3755 0.0
C864 C 0.72588 0.47158 0.37094 0.0
C865 C 0.75237 0.45192 0.37459 0.0
C866 C 0.8129 0.48484 0.34907 0.0
H867 H 0.90783 0.45005 0.36109 0.0
H868 H 0.86526 0.44539 0.36762 0.0
H869 H 0.84602 0.49358 0.33271 0.0
H870 H 0.74792 0.51105 0.36293 0.0
H871 H 0.78998 0.51328 0.36126 0.0
H872 H 0.80103 0.45867 0.39148 0.0
C873 C 0.87986 0.46226 0.36077 0.0
C874 C 0.83671 0.48624 0.34573 0.0
C875 C 0.90416 0.46478 0.35682 0.0
C876 C 0.74874 0.49437 0.36638 0.0
C877 C 0.77287 0.49567 0.36534 0.0
C878 C 0.81076 0.46626 0.37862 0.0
C879 C 0.87431 0.48101 0.3555 0.0
C880 C 0.84824 0.47819 0.35893 0.0
C881 C 0.77481 0.4743 0.36897 0.0
C882 C 0.79981 0.47508 0.3656 0.0
H883 H 0.93193 0.52134 0.33493 0.0
H884 H 0.89044 0.51754 0.34252 0.0
H885 H 0.84324 0.46171 0.38587 0.0
H886 H 0.71089 0.43272 0.37915 0.0
H887 H 0.75337 0.43518 0.37746 0.0
C888 C 0.07476 0.55187 0.41727 0.0
C889 C 0.06951 0.52982 0.40741 0.0
C890 C 0.08792 0.558 0.43434 0.0
C891 C 0.10443 0.53134 0.47349 0.0
H892 H 0.16617 0.59862 0.47964 0.0
C893 C 0.17687 0.55565 0.53433 0.0
C894 C 0.18831 0.57992 0.54262 0.0
C895 C 0.16247 0.55006 0.51784 0.0
C896 C 0.14877 0.57988 0.47832 0.0
H897 H 0.07376 0.49675 0.40817 0.0
H898 H 0.09576 0.50703 0.43817 0.0
H899 H 0.13915 0.58759 0.45163 0.0
H900 H 0.19387 0.61747 0.53991 0.0
H901 H 0.16814 0.60755 0.51141 0.0
H902 H 0.11356 0.52361 0.50021 0.0
C903 C 0.08969 0.51955 0.43261 0.0
C904 C 0.13333 0.57358 0.46224 0.0
C905 C 0.07688 0.51359 0.41544 0.0
C906 C 0.18547 0.59863 0.53382 0.0
C907 C 0.17075 0.59294 0.51742 0.0
C908 C 0.11965 0.53772 0.48967 0.0
C909 C 0.09576 0.54203 0.44207 0.0
C910 C 0.11116 0.54917 0.4596 0.0
C911 C 0.1588 0.56847 0.50931 0.0
C912 C 0.14222 0.56199 0.49223 0.0
H913 H 0.06901 0.56461 0.4117 0.0
H914 H 0.09209 0.57529 0.44147 0.0
H915 H 0.08727 0.51247 0.47188 0.0
H916 H 0.1789 0.54086 0.54066 0.0
H917 H 0.15418 0.53121 0.5118 0.0
C918 C 0.48553 0.03397 0.59573 0.0
C919 C 0.47761 0.04623 0.5833 0.0
C920 C 0.49508 0.04438 0.61331 0.0
C921 C 0.49937 0.09188 0.64738 0.0
H922 H 0.56446 0.09606 0.66255 0.0
C923 C 0.56748 0.16135 0.70446 0.0
C924 C 0.57961 0.15287 0.71682 0.0
C925 C 0.55336 0.14653 0.68907 0.0
C926 C 0.54609 0.09475 0.65868 0.0
H927 H 0.47302 0.07877 0.57974 0.0
H928 H 0.48942 0.09674 0.61036 0.0
H929 H 0.54151 0.07244 0.63457 0.0
H930 H 0.58629 0.12202 0.72261 0.0
H931 H 0.56151 0.09615 0.69583 0.0
H932 H 0.50418 0.11453 0.67136 0.0
C933 C 0.48795 0.07892 0.60665 0.0
C934 C 0.53291 0.08116 0.64264 0.0
C935 C 0.47846 0.06856 0.58909 0.0
C936 C 0.57731 0.12922 0.71337 0.0
C937 C 0.56318 0.11441 0.69797 0.0
C938 C 0.51255 0.10545 0.66343 0.0
C939 C 0.49688 0.06725 0.61883 0.0
C940 C 0.50957 0.07983 0.63669 0.0
C941 C 0.551 0.12287 0.68565 0.0
C942 C 0.53624 0.10732 0.66914 0.0
H943 H 0.48485 0.0166 0.59173 0.0
H944 H 0.50144 0.03474 0.62249 0.0
H945 H 0.48124 0.09092 0.6433 0.0
H946 H 0.56888 0.17948 0.70663 0.0
H947 H 0.54459 0.15381 0.6797 0.0
C948 C 0.52891 0.614 0.71669 0.0
C949 C 0.54934 0.60922 0.71373 0.0
C950 C 0.52632 0.62285 0.73385 0.0
C951 C 0.53293 0.6527 0.76922 0.0
H952 H 0.53483 0.61563 0.81142 0.0
C953 C 0.50835 0.67296 0.84101 0.0
C954 C 0.48846 0.65111 0.84939 0.0
C955 C 0.52186 0.67083 0.82614 0.0
C956 C 0.53444 0.62627 0.79978 0.0
H957 H 0.58313 0.60999 0.72632 0.0
H958 H 0.57866 0.6256 0.75625 0.0
H959 H 0.54616 0.60682 0.78118 0.0
H960 H 0.46847 0.61002 0.84966 0.0
H961 H 0.49205 0.60632 0.82385 0.0
H962 H 0.52016 0.6714 0.78765 0.0
C963 C 0.5647 0.62255 0.74531 0.0
C964 C 0.54109 0.62137 0.78251 0.0
C965 C 0.5674 0.61387 0.72814 0.0
C966 C 0.48367 0.62721 0.84351 0.0
C967 C 0.49727 0.6251 0.82873 0.0
C968 C 0.52644 0.65771 0.7865 0.0
C969 C 0.54397 0.62686 0.7484 0.0
C970 C 0.5398 0.63412 0.76698 0.0
C971 C 0.51584 0.64683 0.8195 0.0
C972 C 0.52654 0.64413 0.80188 0.0
H973 H 0.51477 0.6106 0.70581 0.0
H974 H 0.50996 0.62574 0.7359 0.0
H975 H 0.53205 0.66299 0.75752 0.0
H976 H 0.51259 0.69166 0.84529 0.0
H977 H 0.53633 0.68791 0.81943 0.0
C978 C 0.90577 0.4233 0.90056 0.0
C979 C 0.92426 0.41558 0.89885 0.0
C980 C 0.89297 0.42053 0.91717 0.0
C981 C 0.87569 0.38454 0.96003 0.0
H982 H 0.86668 0.43862 0.97946 0.0
C983 C 0.83398 0.37643 0.03137 0.0
C984 C 0.81378 0.38184 0.0329 0.0
C985 C 0.85008 0.38412 0.01609 0.0
C986 C 0.8689 0.4233 0.97415 0.0
H987 H 0.94421 0.39943 0.91341 0.0
H988 H 0.92169 0.39431 0.9422 0.0
H989 H 0.88835 0.4438 0.95005 0.0
H990 H 0.79575 0.40115 0.02037 0.0
H991 H 0.82366 0.41432 0.99338 0.0
H992 H 0.85601 0.36382 0.9838 0.0
C993 C 0.91675 0.40213 0.93064 0.0
C994 C 0.88125 0.42623 0.9573 0.0
C995 C 0.92956 0.40493 0.91409 0.0
C996 C 0.81129 0.39683 0.01956 0.0
C997 C 0.82725 0.40432 0.00408 0.0
C998 C 0.86333 0.38158 0.97678 0.0
C999 C 0.89836 0.40995 0.9324 0.0
C1000 C 0.88486 0.4069 0.9501 0.0
C1001 C 0.8461 0.39711 0.00183 0.0
C1002 C 0.8599 0.40095 0.98413 0.0
H1003 H 0.90119 0.43148 0.88905 0.0
H1004 H 0.87866 0.42646 0.91803 0.0
H1005 H 0.8777 0.36909 0.9547 0.0
H1006 H 0.8367 0.36535 0.04164 0.0
H1007 H 0.86498 0.37897 0.0151 0.0
C1008 C 0.43113 0.96842 0.10072 0.0
C1009 C 0.45242 0.97164 0.09029 0.0
C1010 C 0.43148 0.96629 0.11979 0.0
C1011 C 0.47311 0.96905 0.15995 0.0
H1012 H 0.40919 0.90738 0.17291 0.0
C1013 C 0.4707 0.89345 0.20545 0.0
C1014 C 0.44761 0.87664 0.21463 0.0
C1015 C 0.47231 0.91363 0.19575 0.0
C1016 C 0.42697 0.92505 0.16989 0.0
H1017 H 0.49185 0.97779 0.0919 0.0
H1018 H 0.49205 0.97301 0.12498 0.0
H1019 H 0.41012 0.92829 0.14483 0.0
H1020 H 0.40922 0.86939 0.22258 0.0
H1021 H 0.41214 0.90483 0.20577 0.0
H1022 H 0.49038 0.96461 0.1846 0.0
C1023 C 0.47515 0.97238 0.11854 0.0
C1024 C 0.42752 0.93712 0.15368 0.0
C1025 C 0.47487 0.97469 0.0995 0.0
C1026 C 0.42714 0.88181 0.21539 0.0
C1027 C 0.42879 0.90208 0.20574 0.0
C1028 C 0.47258 0.95691 0.17621 0.0
C1029 C 0.45302 0.96713 0.12883 0.0
C1030 C 0.45093 0.95858 0.14807 0.0
C1031 C 0.45087 0.91745 0.19508 0.0
C1032 C 0.44984 0.9341 0.1809 0.0
H1033 H 0.41351 0.966 0.09408 0.0
H1034 H 0.4143 0.96269 0.12736 0.0
H1035 H 0.4913 0.98588 0.15621 0.0
H1036 H 0.48689 0.89007 0.20468 0.0
H1037 H 0.48955 0.92493 0.1876 0.0
C1038 C 0.55799 0.53958 0.22546 0.0
C1039 C 0.58153 0.56287 0.22315 0.0
C1040 C 0.55102 0.52884 0.24279 0.0
C1041 C 0.57319 0.53939 0.2925 0.0
H1042 H 0.55356 0.46883 0.28777 0.0
C1043 C 0.61683 0.49257 0.33521 0.0
C1044 C 0.60118 0.46704 0.34007 0.0
C1045 C 0.60601 0.50442 0.32532 0.0
C1046 C 0.55839 0.48832 0.28948 0.0
H1047 H 0.61457 0.59439 0.23773 0.0
H1048 H 0.6036 0.57493 0.26753 0.0
H1049 H 0.54911 0.48999 0.26142 0.0
H1050 H 0.56152 0.43427 0.33917 0.0
H1051 H 0.54278 0.45488 0.32125 0.0
H1052 H 0.58483 0.53795 0.32027 0.0
C1053 C 0.59012 0.56504 0.25611 0.0
C1054 C 0.55578 0.50056 0.27432 0.0
C1055 C 0.59677 0.57604 0.23885 0.0
C1056 C 0.57414 0.45395 0.33556 0.0
C1057 C 0.56338 0.46571 0.32537 0.0
C1058 C 0.57621 0.5272 0.3076 0.0
C1059 C 0.56773 0.54078 0.25817 0.0
C1060 C 0.5643 0.52658 0.27537 0.0
C1061 C 0.57939 0.49089 0.31981 0.0
C1062 C 0.56988 0.50187 0.30595 0.0
H1063 H 0.54563 0.52875 0.21379 0.0
H1064 H 0.53322 0.51049 0.24392 0.0
H1065 H 0.57923 0.55922 0.29399 0.0
H1066 H 0.63765 0.50325 0.33844 0.0
H1067 H 0.61891 0.52373 0.32097 0.0
C1068 C 0.44444 0.91903 0.41917 0.0
C1069 C 0.46546 0.9441 0.42199 0.0
C1070 C 0.4446 0.90413 0.40452 0.0
C1071 C 0.48886 0.8992 0.37158 0.0
H1072 H 0.42724 0.86583 0.33931 0.0
C1073 C 0.49382 0.87491 0.29596 0.0
C1074 C 0.47243 0.85315 0.28769 0.0
C1075 C 0.49264 0.88175 0.31413 0.0
C1076 C 0.44444 0.87456 0.34836 0.0
H1077 H 0.50291 0.97321 0.41135 0.0
H1078 H 0.50333 0.94718 0.38615 0.0
H1079 H 0.42544 0.88557 0.3681 0.0
H1080 H 0.43347 0.82081 0.29241 0.0
H1081 H 0.43158 0.83267 0.32422 0.0
H1082 H 0.50808 0.88872 0.35169 0.0
C1083 C 0.48694 0.93889 0.39542 0.0
C1084 C 0.4434 0.8859 0.36484 0.0
C1085 C 0.48669 0.9538 0.40992 0.0
C1086 C 0.45026 0.83779 0.2983 0.0
C1087 C 0.44909 0.84464 0.31651 0.0
C1088 C 0.48987 0.88778 0.35515 0.0
C1089 C 0.46588 0.91395 0.3925 0.0
C1090 C 0.46582 0.89893 0.37637 0.0
C1091 C 0.47007 0.86697 0.32451 0.0
C1092 C 0.4679 0.87592 0.34311 0.0
H1093 H 0.42791 0.91089 0.42832 0.0
H1094 H 0.42815 0.88491 0.40263 0.0
H1095 H 0.50631 0.90874 0.38037 0.0
H1096 H 0.51122 0.88719 0.28824 0.0
H1097 H 0.50903 0.89923 0.31976 0.0
C1098 C 0.54332 0.51011 0.53388 0.0
C1099 C 0.56211 0.52975 0.54551 0.0
C1100 C 0.55052 0.50516 0.51681 0.0
C1101 C 0.59888 0.5315 0.48064 0.0
H1102 H 0.58793 0.46384 0.47522 0.0
C1103 C 0.64856 0.50736 0.42308 0.0
C1104 C 0.63434 0.48319 0.41464 0.0
C1105 C 0.63937 0.51289 0.439 0.0
C1106 C 0.59077 0.48268 0.47629 0.0
H1107 H 0.60307 0.56024 0.54772 0.0
H1108 H 0.61505 0.55227 0.51766 0.0
H1109 H 0.57054 0.47447 0.5018 0.0
H1110 H 0.59948 0.44575 0.41634 0.0
H1111 H 0.58293 0.45559 0.44366 0.0
H1112 H 0.61856 0.53973 0.45502 0.0
C1113 C 0.59485 0.54064 0.52191 0.0
C1114 C 0.58082 0.48873 0.49154 0.0
C1115 C 0.58783 0.54529 0.5391 0.0
C1116 C 0.61104 0.46449 0.42266 0.0
C1117 C 0.60158 0.47015 0.43838 0.0
C1118 C 0.60843 0.52534 0.4652 0.0
C1119 C 0.57647 0.52011 0.51088 0.0
C1120 C 0.58503 0.51325 0.49392 0.0
C1121 C 0.61545 0.49453 0.44665 0.0
C1122 C 0.60479 0.50092 0.46292 0.0
H1123 H 0.52321 0.49808 0.53815 0.0
H1124 H 0.53596 0.48936 0.50839 0.0
H1125 H 0.60227 0.55052 0.4822 0.0
H1126 H 0.66671 0.52211 0.41728 0.0
H1127 H 0.65098 0.53166 0.44523 0.0
C1128 C 0.05317 0.52016 0.73918 0.0
C1129 C 0.04463 0.49431 0.74119 0.0
C1130 C 0.0637 0.53229 0.72267 0.0
C1131 C 0.07527 0.52101 0.67378 0.0
H1132 H 0.13637 0.58863 0.68027 0.0
C1133 C 0.16347 0.56757 0.62522 0.0
C1134 C 0.17455 0.59343 0.62145 0.0
C1135 C 0.14253 0.55553 0.63724 0.0
C1136 C 0.11907 0.56995 0.67817 0.0
H1137 H 0.03898 0.46067 0.72673 0.0
H1138 H 0.05891 0.48213 0.69849 0.0
H1139 H 0.10928 0.56745 0.70644 0.0
H1140 H 0.17157 0.62669 0.62667 0.0
H1141 H 0.13532 0.60572 0.64809 0.0
H1142 H 0.08653 0.52319 0.64562 0.0
C1143 C 0.05695 0.493 0.70952 0.0
C1144 C 0.10339 0.55775 0.69318 0.0
C1145 C 0.0459 0.48072 0.72592 0.0
C1146 C 0.16347 0.60674 0.62931 0.0
C1147 C 0.14279 0.59479 0.64159 0.0
C1148 C 0.09128 0.5331 0.65881 0.0
C1149 C 0.06659 0.51912 0.70782 0.0
C1150 C 0.08149 0.53294 0.69129 0.0
C1151 C 0.13252 0.56922 0.64594 0.0
C1152 C 0.11354 0.55753 0.66096 0.0
H1153 H 0.05283 0.53147 0.75057 0.0
H1154 H 0.07026 0.55225 0.72178 0.0
H1155 H 0.05831 0.50215 0.67166 0.0
H1156 H 0.1714 0.55673 0.61935 0.0
H1157 H 0.13511 0.53585 0.64047 0.0
C1158 C 0.4701 0.05101 0.91167 0.0
C1159 C 0.48756 0.05383 0.92605 0.0
C1160 C 0.47926 0.06603 0.89614 0.0
C1161 C 0.53779 0.12391 0.87816 0.0
H1162 H 0.50648 0.09247 0.83077 0.0
C1163 C 0.58758 0.16483 0.80958 0.0
C1164 C 0.57289 0.1705 0.79734 0.0
C1165 C 0.57578 0.15002 0.82486 0.0
C1166 C 0.51523 0.10145 0.84395 0.0
H1167 H 0.52832 0.07538 0.93549 0.0
H1168 H 0.54448 0.10045 0.90807 0.0
H1169 H 0.48874 0.06843 0.85876 0.0
H1170 H 0.53409 0.16415 0.79096 0.0
H1171 H 0.5132 0.1374 0.81755 0.0
H1172 H 0.56505 0.15649 0.8631 0.0
C1173 C 0.52356 0.08709 0.90893 0.0
C1174 C 0.50502 0.08782 0.86001 0.0
C1175 C 0.51434 0.07238 0.9246 0.0
C1176 C 0.54587 0.16009 0.8002 0.0
C1177 C 0.53393 0.14482 0.81535 0.0
C1178 C 0.54829 0.1373 0.8621 0.0
C1179 C 0.50618 0.08398 0.89441 0.0
C1180 C 0.51627 0.09883 0.87734 0.0
C1181 C 0.54898 0.1402 0.82799 0.0
C1182 C 0.53718 0.12613 0.84489 0.0
H1183 H 0.4494 0.0367 0.91213 0.0
H1184 H 0.46518 0.06338 0.88542 0.0
H1185 H 0.54661 0.13328 0.89122 0.0
H1186 H 0.60846 0.17264 0.80776 0.0
H1187 H 0.58766 0.14648 0.8344 0.0
C1188 C 0.54851 0.63979 0.06984 0.0
C1189 C 0.57515 0.64714 0.06905 0.0
C1190 C 0.53641 0.6448 0.05531 0.0
C1191 C 0.54778 0.678 0.01078 0.0
H1192 H 0.48303 0.61635 0.99631 0.0
C1193 C 0.48653 0.6657 0.94367 0.0
C1194 C 0.47894 0.64316 0.93361 0.0
C1195 C 0.49795 0.66959 0.96129 0.0
C1196 C 0.50103 0.63375 0.0002 0.0
H1197 H 0.61053 0.66699 0.05315 0.0
H1198 H 0.58931 0.67538 0.02749 0.0
H1199 H 0.50382 0.61874 0.0258 0.0
H1200 H 0.47788 0.60729 0.93413 0.0
H1201 H 0.4976 0.6141 0.96462 0.0
H1202 H 0.54531 0.69242 0.98457 0.0
C1203 C 0.57781 0.66608 0.03944 0.0
C1204 C 0.51281 0.63528 0.01722 0.0
C1205 C 0.58998 0.66124 0.0541 0.0
C1206 C 0.48335 0.62484 0.94144 0.0
C1207 C 0.49452 0.62864 0.959 0.0
C1208 C 0.53587 0.67649 0.99369 0.0
C1209 C 0.55064 0.65701 0.03958 0.0
C1210 C 0.53662 0.65719 0.02257 0.0
C1211 C 0.50168 0.65089 0.9692 0.0
C1212 C 0.51275 0.65407 0.98807 0.0
H1213 H 0.53677 0.62918 0.08138 0.0
H1214 H 0.51559 0.63808 0.05601 0.0
H1215 H 0.56601 0.69521 0.01458 0.0
H1216 H 0.48347 0.68023 0.93802 0.0
H1217 H 0.50332 0.68692 0.96889 0.0
C1218 C 0.91611 0.41966 0.24687 0.0
C1219 C 0.93141 0.44603 0.25018 0.0
C1220 C 0.89936 0.40975 0.23144 0.0
C1221 C 0.88859 0.42951 0.18546 0.0
H1222 H 0.82776 0.36121 0.18398 0.0
C1223 C 0.81423 0.38281 0.1237 0.0
C1224 C 0.81532 0.36235 0.11586 0.0
C1225 C 0.8264 0.39327 0.14076 0.0
C1226 C 0.84467 0.38034 0.1843 0.0
H1227 H 0.93973 0.48251 0.24009 0.0
H1228 H 0.9092 0.46521 0.21412 0.0
H1229 H 0.85124 0.37953 0.21314 0.0
H1230 H 0.82934 0.33634 0.11992 0.0
H1231 H 0.84985 0.35416 0.15011 0.0
H1232 H 0.88121 0.4303 0.1566 0.0
C1233 C 0.911 0.45214 0.22298 0.0
C1234 C 0.85832 0.39083 0.20093 0.0
C1235 C 0.92823 0.4621 0.23819 0.0
C1236 C 0.8283 0.35218 0.12559 0.0
C1237 C 0.83989 0.36224 0.14285 0.0
C1238 C 0.87455 0.41921 0.16894 0.0
C1239 C 0.89687 0.42586 0.21907 0.0
C1240 C 0.88081 0.41542 0.20171 0.0
C1241 C 0.83925 0.383 0.15045 0.0
C1242 C 0.85278 0.39443 0.1682 0.0
H1243 H 0.91745 0.40655 0.25597 0.0
H1244 H 0.88911 0.38944 0.22895 0.0
H1245 H 0.90604 0.44823 0.18526 0.0
H1246 H 0.80447 0.39111 0.11647 0.0
H1247 H 0.82576 0.40933 0.14642 0.0
loop_
_geom_bond_atom_site_label_1
_geom_bond_atom_site_label_2
_geom_bond_distance
_geom_bond_site_symmetry_2
_ccdc_geom_bond_type
H0 O26 0.856 . S
H1 O29 0.854 . S
H2 C37 0.930 1_455 S
H3 C38 0.930 . S
H4 C40 0.930 . S
H5 C41 0.930 . S
H6 C43 0.931 . S
H7 C44 0.930 . S
H8 C46 0.930 . S
H9 C47 0.929 . S
H10 C49 0.930 . S
H11 C50 0.931 . S
H12 C52 0.930 . S
H13 C53 0.929 . S
H14 C55 0.931 . S
H15 C56 0.930 . S
H16 C58 0.930 . S
H17 C59 0.932 . S
H18 C61 0.930 . S
H19 C62 0.929 . S
H20 C64 0.931 . S
H21 C65 0.930 . S
H22 C67 0.929 . S
H23 C68 0.931 . S
H24 C70 0.930 . S
H25 C71 0.925 1_455 S
O26 H0 0.856 . S
O26 C72 1.300 . S
O27 C72 1.209 . S
O28 C73 1.199 . S
O29 H1 0.854 . S
O29 C73 1.297 . S
C30 C31 1.404 . S
C30 C35 1.397 . S
C30 C36 1.492 . S
C31 C30 1.404 . S
C31 C32 1.396 . S
C31 C42 1.492 . S
C32 C31 1.396 . S
C32 C33 1.397 . S
C32 C48 1.509 . S
C33 C32 1.397 . S
C33 C34 1.412 . S
C33 C54 1.485 . S
C34 C33 1.412 . S
C34 C35 1.388 . S
C34 C60 1.490 . S
C35 C30 1.397 . S
C35 C34 1.388 . S
C35 C66 1.519 1_455 S
C36 C30 1.492 . S
C36 C37 1.363 1_455 S
C36 C41 1.390 1_455 S
C37 H2 0.930 1_655 S
C37 C36 1.363 1_655 S
C37 C38 1.372 . S
C38 H3 0.930 . S
C38 C37 1.372 . S
C38 C39 1.383 . S
C39 C38 1.383 . S
C39 C40 1.395 . S
C40 H4 0.930 . S
C40 C39 1.395 . S
C40 C41 1.362 . S
C41 H5 0.930 . S
C41 C36 1.390 1_655 S
C41 C40 1.362 . S
C42 C31 1.492 . S
C42 C43 1.377 . S
C42 C47 1.397 . S
C43 H6 0.931 . S
C43 C42 1.377 . S
C43 C44 1.376 . S
C44 H7 0.930 . S
C44 C43 1.376 . S
C44 C45 1.376 . S
C45 C44 1.376 . S
C45 C46 1.378 . S
C45 C72 1.486 . S
C46 H8 0.930 . S
C46 C45 1.378 . S
C46 C47 1.376 . S
C47 H9 0.929 . S
C47 C42 1.397 . S
C47 C46 1.376 . S
C48 C32 1.509 . S
C48 C49 1.391 . S
C48 C53 1.386 . S
C49 H10 0.930 . S
C49 C48 1.391 . S
C49 C50 1.375 . S
C50 H11 0.931 . S
C50 C49 1.375 . S
C50 C51 1.375 . S
C51 C50 1.375 . S
C51 C52 1.361 . S
C52 H12 0.930 . S
C52 C51 1.361 . S
C52 C53 1.399 . S
C53 H13 0.929 . S
C53 C48 1.386 . S
C53 C52 1.399 . S
C54 C33 1.485 . S
C54 C55 1.394 . S
C54 C59 1.360 . S
C55 H14 0.931 . S
C55 C54 1.394 . S
C55 C56 1.372 . S
C56 H15 0.930 . S
C56 C55 1.372 . S
C56 C57 1.397 . S
C57 C56 1.397 . S
C57 C58 1.390 . S
C57 C73 1.476 . S
C58 H16 0.930 . S
C58 C57 1.390 . S
C58 C59 1.366 . S
C59 H17 0.932 . S
C59 C54 1.360 . S
C59 C58 1.366 . S
C60 C34 1.490 . S
C60 C61 1.380 . S
C60 C65 1.386 . S
C61 H18 0.930 . S
C61 C60 1.380 . S
C61 C62 1.381 . S
C62 H19 0.929 . S
C62 C61 1.381 . S
C62 C63 1.371 . S
C63 C62 1.371 . S
C63 C64 1.380 . S
C64 H20 0.931 . S
C64 C63 1.380 . S
C64 C65 1.387 . S
C65 H21 0.930 . S
C65 C60 1.386 . S
C65 C64 1.387 . S
C66 C35 1.519 1_655 S
C66 C67 1.377 . S
C66 C71 1.361 . S
C67 H22 0.929 . S
C67 C66 1.377 . S
C67 C68 1.386 . S
C68 H23 0.931 . S
C68 C67 1.386 . S
C68 C69 1.363 . S
C69 C68 1.363 . S
C69 C70 1.385 . S
C70 H24 0.930 . S
C70 C69 1.385 . S
C70 C71 1.396 . S
C71 H25 0.925 1_655 S
C71 C66 1.361 . S
C71 C70 1.396 . S
C72 O26 1.300 . S
C72 O27 1.209 . S
C72 C45 1.486 . S
C73 O28 1.199 . S
C73 O29 1.297 . S
C73 C57 1.476 . S
H74 O100 0.856 . S
H75 O103 0.854 . S
H76 C111 0.930 . S
H77 C112 0.930 . S
H78 C114 0.930 . S
H79 C115 0.930 . S
H80 C117 0.931 . S
H81 C118 0.930 . S
H82 C120 0.930 . S
H83 C121 0.929 . S
H84 C123 0.930 . S
H85 C124 0.931 . S
H86 C126 0.930 . S
H87 C127 0.929 . S
H88 C129 0.931 . S
H89 C130 0.930 . S
H90 C132 0.930 . S
H91 C133 0.932 . S
H92 C135 0.930 . S
H93 C136 0.929 . S
H94 C138 0.931 . S
H95 C139 0.930 . S
H96 C141 0.929 . S
H97 C142 0.931 . S
H98 C144 0.930 . S
H99 C145 0.929 1_545 S
O100 H74 0.856 . S
O100 C146 1.300 . S
O101 C146 1.209 . S
O102 C147 1.199 . S
O103 H75 0.854 . S
O103 C147 1.297 . S
C104 C105 1.404 . S
C104 C109 1.397 . S
C104 C110 1.492 . S
C105 C104 1.404 . S
C105 C106 1.396 . S
C105 C116 1.492 . S
C106 C105 1.396 . S
C106 C107 1.397 . S
C106 C122 1.509 . S
C107 C106 1.397 . S
C107 C108 1.412 . S
C107 C128 1.485 . S
C108 C107 1.412 . S
C108 C109 1.388 . S
C108 C134 1.490 . S
C109 C104 1.397 . S
C109 C108 1.388 . S
C109 C140 1.519 . S
C110 C104 1.492 . S
C110 C111 1.363 . S
C110 C115 1.390 1_545 S
C111 H76 0.930 . S
C111 C110 1.363 . S
C111 C112 1.372 1_545 S
C112 H77 0.930 . S
C112 C111 1.372 1_565 S
C112 C113 1.383 . S
C113 C112 1.383 . S
C113 C114 1.395 . S
C114 H78 0.930 . S
C114 C113 1.395 . S
C114 C115 1.362 . S
C115 H79 0.930 . S
C115 C110 1.390 1_565 S
C115 C114 1.362 . S
C116 C105 1.492 . S
C116 C117 1.377 . S
C116 C121 1.397 . S
C117 H80 0.931 . S
C117 C116 1.377 . S
C117 C118 1.376 . S
C118 H81 0.930 . S
C118 C117 1.376 . S
C118 C119 1.376 . S
C119 C118 1.376 . S
C119 C120 1.378 . S
C119 C146 1.486 . S
C120 H82 0.930 . S
C120 C119 1.378 . S
C120 C121 1.376 . S
C121 H83 0.929 . S
C121 C116 1.397 . S
C121 C120 1.376 . S
C122 C106 1.509 . S
C122 C123 1.391 . S
C122 C127 1.386 . S
C123 H84 0.930 . S
C123 C122 1.391 . S
C123 C124 1.375 . S
C124 H85 0.931 . S
C124 C123 1.375 . S
C124 C125 1.375 . S
C125 C124 1.375 . S
C125 C126 1.361 . S
C126 H86 0.930 . S
C126 C125 1.361 . S
C126 C127 1.399 . S
C127 H87 0.929 . S
C127 C122 1.386 . S
C127 C126 1.399 . S
C128 C107 1.485 . S
C128 C129 1.394 . S
C128 C133 1.360 . S
C129 H88 0.931 . S
C129 C128 1.394 . S
C129 C130 1.372 . S
C130 H89 0.930 . S
C130 C129 1.372 . S
C130 C131 1.397 . S
C131 C130 1.397 . S
C131 C132 1.390 . S
C131 C147 1.476 . S
C132 H90 0.930 . S
C132 C131 1.390 . S
C132 C133 1.366 . S
C133 H91 0.932 . S
C133 C128 1.360 . S
C133 C132 1.366 . S
C134 C108 1.490 . S
C134 C135 1.380 . S
C134 C139 1.386 . S
C135 H92 0.930 . S
C135 C134 1.380 . S
C135 C136 1.381 . S
C136 H93 0.929 . S
C136 C135 1.381 . S
C136 C137 1.371 . S
C137 C136 1.371 . S
C137 C138 1.380 . S
C138 H94 0.931 . S
C138 C137 1.380 . S
C138 C139 1.387 . S
C139 H95 0.930 . S
C139 C134 1.386 . S
C139 C138 1.387 . S
C140 C109 1.519 . S
C140 C141 1.377 1_545 S
C140 C145 1.361 1_545 S
C141 H96 0.929 . S
C141 C140 1.377 1_565 S
C141 C142 1.386 . S
C142 H97 0.931 . S
C142 C141 1.386 . S
C142 C143 1.363 . S
C143 C142 1.363 . S
C143 C144 1.385 . S
C144 H98 0.930 . S
C144 C143 1.385 . S
C144 C145 1.396 . S
C145 H99 0.929 1_565 S
C145 C140 1.361 1_565 S
C145 C144 1.396 . S
C146 O100 1.300 . S
C146 O101 1.209 . S
C146 C119 1.486 . S
C147 O102 1.199 . S
C147 O103 1.297 . S
C147 C131 1.476 . S
H148 O174 0.856 . S
H149 O177 0.854 . S
H150 C185 0.930 . S
H151 C186 0.930 . S
H152 C188 0.930 . S
H153 C189 0.930 . S
H154 C191 0.931 . S
H155 C192 0.930 . S
H156 C194 0.930 . S
H157 C195 0.929 . S
H158 C197 0.930 . S
H159 C198 0.931 . S
H160 C200 0.930 . S
H161 C201 0.929 . S
H162 C203 0.931 . S
H163 C204 0.930 . S
H164 C206 0.930 . S
H165 C207 0.932 . S
H166 C209 0.930 . S
H167 C210 0.929 . S
H168 C212 0.931 . S
H169 C213 0.930 . S
H170 C215 0.929 . S
H171 C216 0.931 . S
H172 C218 0.930 . S
H173 C219 0.929 . S
O174 H148 0.856 . S
O174 C220 1.300 . S
O175 C220 1.209 . S
O176 C221 1.199 . S
O177 H149 0.854 . S
O177 C221 1.297 . S
C178 C179 1.404 . S
C178 C183 1.397 . S
C178 C184 1.492 . S
C179 C178 1.404 . S
C179 C180 1.396 . S
C179 C190 1.492 . S
C180 C179 1.396 . S
C180 C181 1.397 . S
C180 C196 1.509 . S
C181 C180 1.397 . S
C181 C182 1.412 . S
C181 C202 1.485 . S
C182 C181 1.412 . S
C182 C183 1.388 . S
C182 C208 1.490 . S
C183 C178 1.397 . S
C183 C182 1.388 . S
C183 C214 1.519 . S
C184 C178 1.492 . S
C184 C185 1.363 . S
C184 C189 1.390 . S
C185 H150 0.930 . S
C185 C184 1.363 . S
C185 C186 1.372 . S
C186 H151 0.930 . S
C186 C185 1.372 . S
C186 C187 1.383 . S
C187 C186 1.383 . S
C187 C188 1.395 . S
C188 H152 0.930 . S
C188 C187 1.395 . S
C188 C189 1.362 . S
C189 H153 0.930 . S
C189 C184 1.390 . S
C189 C188 1.362 . S
C190 C179 1.492 . S
C190 C191 1.377 . S
C190 C195 1.397 . S
C191 H154 0.931 . S
C191 C190 1.377 . S
C191 C192 1.376 . S
C192 H155 0.930 . S
C192 C191 1.376 . S
C192 C193 1.376 . S
C193 C192 1.376 . S
C193 C194 1.378 . S
C193 C220 1.486 . S
C194 H156 0.930 . S
C194 C193 1.378 . S
C194 C195 1.376 . S
C195 H157 0.929 . S
C195 C190 1.397 . S
C195 C194 1.376 . S
C196 C180 1.509 . S
C196 C197 1.391 . S
C196 C201 1.386 . S
C197 H158 0.930 . S
C197 C196 1.391 . S
C197 C198 1.375 . S
C198 H159 0.931 . S
C198 C197 1.375 . S
C198 C199 1.375 . S
C199 C198 1.375 . S
C199 C200 1.361 . S
C200 H160 0.930 . S
C200 C199 1.361 . S
C200 C201 1.399 . S
C201 H161 0.929 . S
C201 C196 1.386 . S
C201 C200 1.399 . S
C202 C181 1.485 . S
C202 C203 1.394 . S
C202 C207 1.360 . S
C203 H162 0.931 . S
C203 C202 1.394 . S
C203 C204 1.372 . S
C204 H163 0.930 . S
C204 C203 1.372 . S
C204 C205 1.397 . S
C205 C204 1.397 . S
C205 C206 1.390 . S
C205 C221 1.476 . S
C206 H164 0.930 . S
C206 C205 1.390 . S
C206 C207 1.366 . S
C207 H165 0.932 . S
C207 C202 1.360 . S
C207 C206 1.366 . S
C208 C182 1.490 . S
C208 C209 1.380 . S
C208 C213 1.386 . S
C209 H166 0.930 . S
C209 C208 1.380 . S
C209 C210 1.381 . S
C210 H167 0.929 . S
C210 C209 1.381 . S
C210 C211 1.371 . S
C211 C210 1.371 . S
C211 C212 1.380 . S
C212 H168 0.931 . S
C212 C211 1.380 . S
C212 C213 1.387 . S
C213 H169 0.930 . S
C213 C208 1.386 . S
C213 C212 1.387 . S
C214 C183 1.519 . S
C214 C215 1.377 . S
C214 C219 1.361 . S
C215 H170 0.929 . S
C215 C214 1.377 . S
C215 C216 1.386 . S
C216 H171 0.931 . S
C216 C215 1.386 . S
C216 C217 1.363 . S
C217 C216 1.363 . S
C217 C218 1.385 . S
C218 H172 0.930 . S
C218 C217 1.385 . S
C218 C219 1.396 . S
C219 H173 0.929 . S
C219 C214 1.361 . S
C219 C218 1.396 . S
C220 O174 1.300 . S
C220 O175 1.209 . S
C220 C193 1.486 . S
C221 O176 1.199 . S
C221 O177 1.297 . S
C221 C205 1.476 . S
H222 O248 0.856 . S
H223 O251 0.854 . S
H224 C259 0.930 1_455 S
H225 C260 0.930 . S
H226 C262 0.930 . S
H227 C263 0.930 . S
H228 C265 0.931 . S
H229 C266 0.930 . S
H230 C268 0.930 . S
H231 C269 0.929 . S
H232 C271 0.930 . S
H233 C272 0.931 . S
H234 C274 0.930 . S
H235 C275 0.929 . S
H236 C277 0.931 . S
H237 C278 0.930 . S
H238 C280 0.930 . S
H239 C281 0.932 . S
H240 C283 0.930 . S
H241 C284 0.929 . S
H242 C286 0.931 . S
H243 C287 0.930 . S
H244 C289 0.929 . S
H245 C290 0.931 . S
H246 C292 0.930 . S
H247 C293 0.929 . S
O248 H222 0.856 . S
O248 C294 1.300 . S
O249 C294 1.209 . S
O250 C295 1.199 . S
O251 H223 0.854 . S
O251 C295 1.297 . S
C252 C253 1.404 . S
C252 C257 1.397 . S
C252 C258 1.492 . S
C253 C252 1.404 . S
C253 C254 1.396 . S
C253 C264 1.492 . S
C254 C253 1.396 . S
C254 C255 1.397 . S
C254 C270 1.509 . S
C255 C254 1.397 . S
C255 C256 1.412 . S
C255 C276 1.485 . S
C256 C255 1.412 . S
C256 C257 1.388 . S
C256 C282 1.490 . S
C257 C252 1.397 . S
C257 C256 1.388 . S
C257 C288 1.519 1_455 S
C258 C252 1.492 . S
C258 C259 1.363 1_455 S
C258 C263 1.390 1_455 S
C259 H224 0.930 1_655 S
C259 C258 1.363 1_655 S
C259 C260 1.372 . S
C260 H225 0.930 . S
C260 C259 1.372 . S
C260 C261 1.383 . S
C261 C260 1.383 . S
C261 C262 1.395 . S
C262 H226 0.930 . S
C262 C261 1.395 . S
C262 C263 1.362 . S
C263 H227 0.930 . S
C263 C258 1.390 1_655 S
C263 C262 1.362 . S
C264 C253 1.492 . S
C264 C265 1.377 . S
C264 C269 1.397 . S
C265 H228 0.931 . S
C265 C264 1.377 . S
C265 C266 1.376 . S
C266 H229 0.930 . S
C266 C265 1.376 . S
C266 C267 1.376 . S
C267 C266 1.376 . S
C267 C268 1.378 . S
C267 C294 1.486 . S
C268 H230 0.930 . S
C268 C267 1.378 . S
C268 C269 1.376 . S
C269 H231 0.929 . S
C269 C264 1.397 . S
C269 C268 1.376 . S
C270 C254 1.509 . S
C270 C271 1.391 . S
C270 C275 1.386 . S
C271 H232 0.930 . S
C271 C270 1.391 . S
C271 C272 1.375 . S
C272 H233 0.931 . S
C272 C271 1.375 . S
C272 C273 1.375 . S
C273 C272 1.375 . S
C273 C274 1.361 . S
C274 H234 0.930 . S
C274 C273 1.361 . S
C274 C275 1.399 . S
C275 H235 0.929 . S
C275 C270 1.386 . S
C275 C274 1.399 . S
C276 C255 1.485 . S
C276 C277 1.394 . S
C276 C281 1.360 . S
C277 H236 0.931 . S
C277 C276 1.394 . S
C277 C278 1.372 . S
C278 H237 0.930 . S
C278 C277 1.372 . S
C278 C279 1.397 . S
C279 C278 1.397 . S
C279 C280 1.390 . S
C279 C295 1.476 . S
C280 H238 0.930 . S
C280 C279 1.390 . S
C280 C281 1.366 . S
C281 H239 0.932 . S
C281 C276 1.360 . S
C281 C280 1.366 . S
C282 C256 1.490 . S
C282 C283 1.380 . S
C282 C287 1.386 . S
C283 H240 0.930 . S
C283 C282 1.380 . S
C283 C284 1.381 . S
C284 H241 0.929 . S
C284 C283 1.381 . S
C284 C285 1.371 . S
C285 C284 1.371 . S
C285 C286 1.380 . S
C286 H242 0.931 . S
C286 C285 1.380 . S
C286 C287 1.387 . S
C287 H243 0.930 . S
C287 C282 1.386 . S
C287 C286 1.387 . S
C288 C257 1.519 1_655 S
C288 C289 1.377 . S
C288 C293 1.361 . S
C289 H244 0.929 . S
C289 C288 1.377 . S
C289 C290 1.386 . S
C290 H245 0.931 . S
C290 C289 1.386 . S
C290 C291 1.363 . S
C291 C290 1.363 . S
C291 C292 1.385 . S
C292 H246 0.930 . S
C292 C291 1.385 . S
C292 C293 1.396 . S
C293 H247 0.929 . S
C293 C288 1.361 . S
C293 C292 1.396 . S
C294 O248 1.300 . S
C294 O249 1.209 . S
C294 C267 1.486 . S
C295 O250 1.199 . S
C295 O251 1.297 . S
C295 C279 1.476 . S
H296 O322 0.856 . S
H297 O325 0.854 . S
H298 C333 0.930 . S
H299 C334 0.930 . S
H300 C336 0.930 . S
H301 C337 0.930 . S
H302 C339 0.931 . S
H303 C340 0.930 . S
H304 C342 0.930 . S
H305 C343 0.929 . S
H306 C345 0.930 . S
H307 C346 0.931 . S
H308 C348 0.930 . S
H309 C349 0.929 . S
H310 C351 0.931 . S
H311 C352 0.930 . S
H312 C354 0.930 . S
H313 C355 0.931 . S
H314 C357 0.930 . S
H315 C358 0.929 . S
H316 C360 0.931 . S
H317 C361 0.930 . S
H318 C363 0.929 . S
H319 C364 0.931 . S
H320 C366 0.930 . S
H321 C367 0.929 . S
O322 H296 0.856 . S
O322 C368 1.300 . S
O323 C368 1.209 . S
O324 C369 1.199 . S
O325 H297 0.854 . S
O325 C369 1.297 . S
C326 C327 1.404 . S
C326 C331 1.402 . S
C326 C332 1.492 1_565 S
C327 C326 1.404 . S
C327 C328 1.396 . S
C327 C338 1.492 . S
C328 C327 1.396 . S
C328 C329 1.397 . S
C328 C344 1.509 . S
C329 C328 1.397 . S
C329 C330 1.412 1_556 S
C329 C350 1.485 1_556 S
C330 C329 1.412 1_554 S
C330 C331 1.425 1_554 S
C330 C356 1.490 . S
C331 C326 1.402 . S
C331 C330 1.425 1_556 S
C331 C362 1.505 1_565 S
C332 C326 1.492 1_545 S
C332 C333 1.363 . S
C332 C337 1.390 . S
C333 H298 0.930 . S
C333 C332 1.363 . S
C333 C334 1.372 . S
C334 H299 0.930 . S
C334 C333 1.372 . S
C334 C335 1.383 . S
C335 C334 1.383 . S
C335 C336 1.395 . S
C336 H300 0.930 . S
C336 C335 1.395 . S
C336 C337 1.362 . S
C337 H301 0.930 . S
C337 C332 1.390 . S
C337 C336 1.362 . S
C338 C327 1.492 . S
C338 C339 1.377 . S
C338 C343 1.397 . S
C339 H302 0.931 . S
C339 C338 1.377 . S
C339 C340 1.376 . S
C340 H303 0.930 . S
C340 C339 1.376 . S
C340 C341 1.376 . S
C341 C340 1.376 . S
C341 C342 1.378 . S
C341 C368 1.486 . S
C342 H304 0.930 . S
C342 C341 1.378 . S
C342 C343 1.376 . S
C343 H305 0.929 . S
C343 C338 1.397 . S
C343 C342 1.376 . S
C344 C328 1.509 . S
C344 C345 1.391 . S
C344 C349 1.386 . S
C345 H306 0.930 . S
C345 C344 1.391 . S
C345 C346 1.375 . S
C346 H307 0.931 . S
C346 C345 1.375 . S
C346 C347 1.375 . S
C347 C346 1.375 . S
C347 C348 1.361 . S
C348 H308 0.930 . S
C348 C347 1.361 . S
C348 C349 1.399 . S
C349 H309 0.929 . S
C349 C344 1.386 . S
C349 C348 1.399 . S
C350 C329 1.485 1_554 S
C350 C351 1.394 . S
C350 C355 1.360 . S
C351 H310 0.931 . S
C351 C350 1.394 . S
C351 C352 1.372 . S
C352 H311 0.930 . S
C352 C351 1.372 . S
C352 C353 1.397 . S
C353 C352 1.397 . S
C353 C354 1.390 . S
C353 C369 1.476 . S
C354 H312 0.930 . S
C354 C353 1.390 . S
C354 C355 1.366 . S
C355 H313 0.931 . S
C355 C350 1.360 . S
C355 C354 1.366 . S
C356 C330 1.490 . S
C356 C357 1.380 . S
C356 C361 1.386 . S
C357 H314 0.930 . S
C357 C356 1.380 . S
C357 C358 1.381 . S
C358 H315 0.929 . S
C358 C357 1.381 . S
C358 C359 1.371 . S
C359 C358 1.371 . S
C359 C360 1.380 . S
C360 H316 0.931 . S
C360 C359 1.380 . S
C360 C361 1.387 . S
C361 H317 0.930 . S
C361 C356 1.386 . S
C361 C360 1.387 . S
C362 C331 1.505 1_545 S
C362 C363 1.382 . S
C362 C367 1.334 1_556 S
C363 H318 0.929 . S
C363 C362 1.382 . S
C363 C364 1.386 1_556 S
C364 H319 0.931 . S
C364 C363 1.386 1_554 S
C364 C365 1.363 . S
C365 C364 1.363 . S
C365 C366 1.385 . S
C366 H320 0.930 . S
C366 C365 1.385 . S
C366 C367 1.396 . S
C367 H321 0.929 . S
C367 C362 1.334 1_554 S
C367 C366 1.396 . S
C368 O322 1.300 . S
C368 O323 1.209 . S
C368 C341 1.486 . S
C369 O324 1.199 . S
C369 O325 1.297 . S
C369 C353 1.476 . S
H370 O396 0.856 . S
H371 O399 0.854 . S
H372 C407 0.930 . S
H373 C408 0.930 . S
H374 C410 0.930 . S
H375 C411 0.930 . S
H376 C413 0.931 . S
H377 C414 0.930 . S
H378 C416 0.930 . S
H379 C417 0.929 . S
H380 C419 0.930 . S
H381 C420 0.931 . S
H382 C422 0.930 . S
H383 C423 0.929 . S
H384 C425 0.931 . S
H385 C426 0.930 . S
H386 C428 0.930 . S
H387 C429 0.932 . S
H388 C431 0.930 . S
H389 C432 0.929 . S
H390 C434 0.931 . S
H391 C435 0.930 . S
H392 C437 0.929 . S
H393 C438 0.931 . S
H394 C440 0.930 . S
H395 C441 0.929 . S
O396 H370 0.856 . S
O396 C442 1.300 . S
O397 C442 1.209 . S
O398 C443 1.199 . S
O399 H371 0.854 . S
O399 C443 1.297 . S
C400 C401 1.404 . S
C400 C405 1.397 . S
C400 C406 1.492 . S
C401 C400 1.404 . S
C401 C402 1.396 . S
C401 C412 1.492 . S
C402 C401 1.396 . S
C402 C403 1.397 . S
C402 C418 1.509 . S
C403 C402 1.397 . S
C403 C404 1.412 . S
C403 C424 1.485 . S
C404 C403 1.412 . S
C404 C405 1.388 . S
C404 C430 1.490 . S
C405 C400 1.397 . S
C405 C404 1.388 . S
C405 C436 1.519 . S
C406 C400 1.492 . S
C406 C407 1.363 . S
C406 C411 1.390 . S
C407 H372 0.930 . S
C407 C406 1.363 . S
C407 C408 1.372 . S
C408 H373 0.930 . S
C408 C407 1.372 . S
C408 C409 1.383 . S
C409 C408 1.383 . S
C409 C410 1.395 . S
C410 H374 0.930 . S
C410 C409 1.395 . S
C410 C411 1.362 . S
C411 H375 0.930 . S
C411 C406 1.390 . S
C411 C410 1.362 . S
C412 C401 1.492 . S
C412 C413 1.377 . S
C412 C417 1.397 . S
C413 H376 0.931 . S
C413 C412 1.377 . S
C413 C414 1.376 . S
C414 H377 0.930 . S
C414 C413 1.376 . S
C414 C415 1.376 . S
C415 C414 1.376 . S
C415 C416 1.378 . S
C415 C442 1.486 . S
C416 H378 0.930 . S
C416 C415 1.378 . S
C416 C417 1.376 . S
C417 H379 0.929 . S
C417 C412 1.397 . S
C417 C416 1.376 . S
C418 C402 1.509 . S
C418 C419 1.391 . S
C418 C423 1.386 . S
C419 H380 0.930 . S
C419 C418 1.391 . S
C419 C420 1.375 . S
C420 H381 0.931 . S
C420 C419 1.375 . S
C420 C421 1.375 . S
C421 C420 1.375 . S
C421 C422 1.361 . S
C422 H382 0.930 . S
C422 C421 1.361 . S
C422 C423 1.399 . S
C423 H383 0.929 . S
C423 C418 1.386 . S
C423 C422 1.399 . S
C424 C403 1.485 . S
C424 C425 1.394 . S
C424 C429 1.360 . S
C425 H384 0.931 . S
C425 C424 1.394 . S
C425 C426 1.372 . S
C426 H385 0.930 . S
C426 C425 1.372 . S
C426 C427 1.397 . S
C427 C426 1.397 . S
C427 C428 1.390 . S
C427 C443 1.476 . S
C428 H386 0.930 . S
C428 C427 1.390 . S
C428 C429 1.366 . S
C429 H387 0.932 . S
C429 C424 1.360 . S
C429 C428 1.366 . S
C430 C404 1.490 . S
C430 C431 1.380 . S
C430 C435 1.386 . S
C431 H388 0.930 . S
C431 C430 1.380 . S
C431 C432 1.381 . S
C432 H389 0.929 . S
C432 C431 1.381 . S
C432 C433 1.371 . S
C433 C432 1.371 . S
C433 C434 1.380 . S
C434 H390 0.931 . S
C434 C433 1.380 . S
C434 C435 1.387 . S
C435 H391 0.930 . S
C435 C430 1.386 . S
C435 C434 1.387 . S
C436 C405 1.519 . S
C436 C437 1.377 . S
C436 C441 1.361 . S
C437 H392 0.929 . S
C437 C436 1.377 . S
C437 C438 1.386 . S
C438 H393 0.931 . S
C438 C437 1.386 . S
C438 C439 1.363 . S
C439 C438 1.363 . S
C439 C440 1.385 . S
C440 H394 0.930 . S
C440 C439 1.385 . S
C440 C441 1.396 . S
C441 H395 0.929 . S
C441 C436 1.361 . S
C441 C440 1.396 . S
C442 O396 1.300 . S
C442 O397 1.209 . S
C442 C415 1.486 . S
C443 O398 1.199 . S
C443 O399 1.297 . S
C443 C427 1.476 . S
Mg444 O445 2.028 . S
Mg444 O451 1.986 . S
Mg444 O453 2.114 . S
Mg444 O454 2.251 . S
Mg444 O457 2.010 . S
O445 Mg444 2.028 . S
O445 C448 1.250 . S
O446 Mg447 2.028 . S
O446 C448 1.248 . S
Mg447 O446 2.028 . S
Mg447 O452 2.032 . S
Mg447 O454 2.079 . S
C448 O445 1.250 . S
C448 O446 1.248 . S
C449 O450 1.264 . S
C449 O457 1.249 . S
O450 C449 1.264 . S
O451 Mg444 1.986 . S
O451 C455 1.246 . S
O452 Mg447 2.032 . S
O452 C455 1.259 . S
O453 Mg444 2.114 . S
O453 C456 1.252 . S
O454 Mg444 2.251 . S
O454 Mg447 2.079 . S
O454 C456 1.273 . S
C455 O451 1.246 . S
C455 O452 1.259 . S
C456 O453 1.252 . S
C456 O454 1.273 . S
O457 Mg444 2.010 . S
O457 C449 1.249 . S
Mg458 O459 2.028 . S
Mg458 O465 1.986 . S
Mg458 O467 2.114 . S
Mg458 O468 2.251 . S
Mg458 O471 2.010 . S
O459 Mg458 2.028 . S
O459 C462 1.250 . S
O460 Mg461 2.028 . S
O460 C462 1.248 . S
Mg461 O460 2.028 . S
Mg461 O466 2.032 . S
Mg461 O468 2.079 . S
C462 O459 1.250 . S
C462 O460 1.248 . S
C463 O464 1.264 . S
C463 O471 1.249 . S
O464 C463 1.264 . S
O465 Mg458 1.986 . S
O465 C469 1.246 . S
O466 Mg461 2.032 . S
O466 C469 1.259 . S
O467 Mg458 2.114 . S
O467 C470 1.252 . S
O468 Mg458 2.251 . S
O468 Mg461 2.079 . S
O468 C470 1.273 . S
C469 O465 1.246 . S
C469 O466 1.259 . S
C470 O467 1.252 . S
C470 O468 1.273 . S
O471 Mg458 2.010 . S
O471 C463 1.249 . S
Mg472 O473 2.028 . S
Mg472 O479 1.986 . S
Mg472 O481 2.114 . S
Mg472 O482 2.251 . S
Mg472 O485 2.010 . S
O473 Mg472 2.028 . S
O473 C476 1.250 . S
O474 Mg475 2.028 . S
O474 C476 1.248 . S
Mg475 O474 2.028 . S
Mg475 O480 2.032 . S
Mg475 O482 2.079 . S
C476 O473 1.250 . S
C476 O474 1.248 . S
C477 O478 1.264 . S
C477 O485 1.249 . S
O478 C477 1.264 . S
O479 Mg472 1.986 . S
O479 C483 1.246 . S
O480 Mg475 2.032 . S
O480 C483 1.259 . S
O481 Mg472 2.114 . S
O481 C484 1.252 . S
O482 Mg472 2.251 . S
O482 Mg475 2.079 . S
O482 C484 1.273 . S
C483 O479 1.246 . S
C483 O480 1.259 . S
C484 O481 1.252 . S
C484 O482 1.273 . S
O485 Mg472 2.010 . S
O485 C477 1.249 . S
Mg486 O487 2.028 . S
Mg486 O493 1.986 . S
Mg486 O495 2.114 . S
Mg486 O496 2.251 . S
Mg486 O499 2.010 . S
O487 Mg486 2.028 . S
O487 C490 1.250 . S
O488 Mg489 2.028 . S
O488 C490 1.248 . S
Mg489 O488 2.028 . S
Mg489 O494 2.032 . S
Mg489 O496 2.079 . S
C490 O487 1.250 . S
C490 O488 1.248 . S
C491 O492 1.264 . S
C491 O499 1.249 . S
O492 C491 1.264 . S
O493 Mg486 1.986 . S
O493 C497 1.246 . S
O494 Mg489 2.032 . S
O494 C497 1.259 . S
O495 Mg486 2.114 . S
O495 C498 1.252 . S
O496 Mg486 2.251 . S
O496 Mg489 2.079 . S
O496 C498 1.273 . S
C497 O493 1.246 . S
C497 O494 1.259 . S
C498 O495 1.252 . S
C498 O496 1.273 . S
O499 Mg486 2.010 . S
O499 C491 1.249 . S
Mg500 O501 2.028 . S
Mg500 O507 1.986 . S
Mg500 O509 2.114 . S
Mg500 O510 2.251 . S
Mg500 O513 2.010 . S
O501 Mg500 2.028 . S
O501 C504 1.250 . S
O502 Mg503 2.028 . S
O502 C504 1.248 . S
Mg503 O502 2.028 . S
Mg503 O508 2.032 . S
Mg503 O510 2.079 . S
C504 O501 1.250 . S
C504 O502 1.248 . S
C505 O506 1.264 . S
C505 O513 1.249 . S
O506 C505 1.264 . S
O507 Mg500 1.986 . S
O507 C511 1.246 . S
O508 Mg503 2.032 . S
O508 C511 1.259 . S
O509 Mg500 2.114 . S
O509 C512 1.252 . S
O510 Mg500 2.251 . S
O510 Mg503 2.079 . S
O510 C512 1.273 . S
C511 O507 1.246 . S
C511 O508 1.259 . S
C512 O509 1.252 . S
C512 O510 1.273 . S
O513 Mg500 2.010 . S
O513 C505 1.249 . S
Mg514 O515 2.028 . S
Mg514 O521 1.986 . S
Mg514 O523 2.114 . S
Mg514 O524 2.251 . S
Mg514 O527 2.010 . S
O515 Mg514 2.028 . S
O515 C518 1.250 . S
O516 Mg517 2.028 . S
O516 C518 1.248 . S
Mg517 O516 2.028 . S
Mg517 O522 2.032 . S
Mg517 O524 2.079 . S
C518 O515 1.250 . S
C518 O516 1.248 . S
C519 O520 1.264 . S
C519 O527 1.249 . S
O520 C519 1.264 . S
O521 Mg514 1.986 . S
O521 C525 1.246 . S
O522 Mg517 2.032 . S
O522 C525 1.259 . S
O523 Mg514 2.114 . S
O523 C526 1.252 . S
O524 Mg514 2.251 . S
O524 Mg517 2.079 . S
O524 C526 1.273 . S
C525 O521 1.246 . S
C525 O522 1.259 . S
C526 O523 1.252 . S
C526 O524 1.273 . S
O527 Mg514 2.010 . S
O527 C519 1.249 . S
C528 C529 1.349 . S
C528 C530 1.327 . S
C528 H553 0.950 . S
C529 C528 1.349 . S
C529 C545 1.349 . S
C530 C528 1.327 . S
C530 C549 1.429 . S
C530 H554 0.950 . S
C531 C548 1.574 . S
C531 C550 1.368 . S
C531 H555 0.949 . S
H532 C536 0.949 . S
C533 C534 1.349 . S
C533 C535 1.327 . S
C533 H556 0.950 . S
C534 C533 1.349 . S
C534 C546 1.349 . S
C535 C533 1.327 . S
C535 C551 1.429 . S
C535 H557 0.950 . S
C536 H532 0.949 . S
C536 C544 1.574 . S
C536 C552 1.368 . S
H537 C545 0.950 . S
H538 C543 0.950 . S
H539 C544 0.949 . S
H540 C546 0.950 . S
H541 C547 0.950 . S
H542 C548 0.949 . S
C543 H538 0.950 . S
C543 C545 1.327 . S
C543 C549 1.429 . S
C544 C536 1.574 . S
C544 H539 0.949 . S
C544 C550 1.368 . S
C545 C529 1.349 . S
C545 H537 0.950 . S
C545 C543 1.327 . S
C546 C534 1.349 . S
C546 H540 0.950 . S
C546 C547 1.327 . S
C547 H541 0.950 . S
C547 C546 1.327 . S
C547 C551 1.429 . S
C548 C531 1.574 . S
C548 H542 0.949 . S
C548 C552 1.368 . S
C549 C530 1.429 . S
C549 C543 1.429 . S
C549 C550 1.523 . S
C550 C531 1.368 . S
C550 C544 1.368 . S
C550 C549 1.523 . S
C551 C535 1.429 . S
C551 C547 1.429 . S
C551 C552 1.523 . S
C552 C536 1.368 . S
C552 C548 1.368 . S
C552 C551 1.523 . S
H553 C528 0.950 . S
H554 C530 0.950 . S
H555 C531 0.949 . S
H556 C533 0.950 . S
H557 C535 0.950 . S
C558 C559 1.349 . S
C558 C560 1.327 . S
C558 H583 0.950 . S
C559 C558 1.349 . S
C559 C575 1.349 . S
C560 C558 1.327 . S
C560 C579 1.429 . S
C560 H584 0.950 . S
C561 C578 1.574 . S
C561 C580 1.368 . S
C561 H585 0.949 . S
H562 C566 0.949 . S
C563 C564 1.349 . S
C563 C565 1.327 . S
C563 H586 0.950 . S
C564 C563 1.349 . S
C564 C576 1.349 . S
C565 C563 1.327 . S
C565 C581 1.429 . S
C565 H587 0.950 . S
C566 H562 0.949 . S
C566 C574 1.574 . S
C566 C582 1.368 . S
H567 C575 0.950 . S
H568 C573 0.950 . S
H569 C574 0.949 . S
H570 C576 0.950 . S
H571 C577 0.950 . S
H572 C578 0.949 . S
C573 H568 0.950 . S
C573 C575 1.327 . S
C573 C579 1.429 . S
C574 C566 1.574 . S
C574 H569 0.949 . S
C574 C580 1.368 . S
C575 C559 1.349 . S
C575 H567 0.950 . S
C575 C573 1.327 . S
C576 C564 1.349 . S
C576 H570 0.950 . S
C576 C577 1.327 . S
C577 H571 0.950 . S
C577 C576 1.327 . S
C577 C581 1.429 . S
C578 C561 1.574 . S
C578 H572 0.949 . S
C578 C582 1.368 . S
C579 C560 1.429 . S
C579 C573 1.429 . S
C579 C580 1.523 . S
C580 C561 1.368 . S
C580 C574 1.368 . S
C580 C579 1.523 . S
C581 C565 1.429 . S
C581 C577 1.429 . S
C581 C582 1.523 . S
C582 C566 1.368 . S
C582 C578 1.368 . S
C582 C581 1.523 . S
H583 C558 0.950 . S
H584 C560 0.950 . S
H585 C561 0.949 . S
H586 C563 0.950 . S
H587 C565 0.950 . S
C588 C589 1.349 . S
C588 C590 1.327 . S
C588 H613 0.950 . S
C589 C588 1.349 . S
C589 C605 1.349 . S
C590 C588 1.327 . S
C590 C609 1.429 . S
C590 H614 0.950 . S
C591 C608 1.574 . S
C591 C610 1.368 . S
C591 H615 0.949 . S
H592 C596 0.949 . S
C593 C594 1.349 . S
C593 C595 1.327 . S
C593 H616 0.950 . S
C594 C593 1.349 . S
C594 C606 1.349 . S
C595 C593 1.327 . S
C595 C611 1.429 . S
C595 H617 0.950 . S
C596 H592 0.949 . S
C596 C604 1.574 . S
C596 C612 1.368 . S
H597 C605 0.950 . S
H598 C603 0.950 . S
H599 C604 0.949 . S
H600 C606 0.950 . S
H601 C607 0.950 . S
H602 C608 0.949 . S
C603 H598 0.950 . S
C603 C605 1.327 . S
C603 C609 1.429 . S
C604 C596 1.574 . S
C604 H599 0.949 . S
C604 C610 1.368 . S
C605 C589 1.349 . S
C605 H597 0.950 . S
C605 C603 1.327 . S
C606 C594 1.349 . S
C606 H600 0.950 . S
C606 C607 1.327 . S
C607 H601 0.950 . S
C607 C606 1.327 . S
C607 C611 1.429 . S
C608 C591 1.574 . S
C608 H602 0.949 . S
C608 C612 1.368 . S
C609 C590 1.429 . S
C609 C603 1.429 . S
C609 C610 1.523 . S
C610 C591 1.368 . S
C610 C604 1.368 . S
C610 C609 1.523 . S
C611 C595 1.429 . S
C611 C607 1.429 . S
C611 C612 1.523 . S
C612 C596 1.368 . S
C612 C608 1.368 . S
C612 C611 1.523 . S
H613 C588 0.950 . S
H614 C590 0.950 . S
H615 C591 0.949 . S
H616 C593 0.950 . S
H617 C595 0.950 . S
C618 C619 1.349 . S
C618 C620 1.327 . S
C618 H643 0.950 . S
C619 C618 1.349 . S
C619 C635 1.349 . S
C620 C618 1.327 . S
C620 C639 1.429 . S
C620 H644 0.950 . S
C621 C638 1.574 . S
C621 C640 1.368 . S
C621 H645 0.949 . S
H622 C626 0.949 . S
C623 C624 1.349 . S
C623 C625 1.327 . S
C623 H646 0.950 . S
C624 C623 1.349 . S
C624 C636 1.349 . S
C625 C623 1.327 . S
C625 C641 1.429 . S
C625 H647 0.950 . S
C626 H622 0.949 . S
C626 C634 1.574 . S
C626 C642 1.368 . S
H627 C635 0.950 . S
H628 C633 0.950 . S
H629 C634 0.949 . S
H630 C636 0.950 . S
H631 C637 0.950 . S
H632 C638 0.949 . S
C633 H628 0.950 . S
C633 C635 1.327 . S
C633 C639 1.429 . S
C634 C626 1.574 . S
C634 H629 0.949 . S
C634 C640 1.368 . S
C635 C619 1.349 . S
C635 H627 0.950 . S
C635 C633 1.327 . S
C636 C624 1.349 . S
C636 H630 0.950 . S
C636 C637 1.327 . S
C637 H631 0.950 . S
C637 C636 1.327 . S
C637 C641 1.429 . S
C638 C621 1.574 . S
C638 H632 0.949 . S
C638 C642 1.368 . S
C639 C620 1.429 . S
C639 C633 1.429 . S
C639 C640 1.523 . S
C640 C621 1.368 . S
C640 C634 1.368 . S
C640 C639 1.523 . S
C641 C625 1.429 . S
C641 C637 1.429 . S
C641 C642 1.523 . S
C642 C626 1.368 . S
C642 C638 1.368 . S
C642 C641 1.523 . S
H643 C618 0.950 . S
H644 C620 0.950 . S
H645 C621 0.949 . S
H646 C623 0.950 . S
H647 C625 0.950 . S
C648 C649 1.349 . S
C648 C650 1.327 . S
C648 H673 0.950 . S
C649 C648 1.349 . S
C649 C665 1.349 . S
C650 C648 1.327 . S
C650 C669 1.429 . S
C650 H674 0.950 . S
C651 C668 1.574 . S
C651 C670 1.368 . S
C651 H675 0.949 . S
H652 C656 0.949 . S
C653 C654 1.349 . S
C653 C655 1.327 . S
C653 H676 0.950 . S
C654 C653 1.349 . S
C654 C666 1.349 . S
C655 C653 1.327 . S
C655 C671 1.429 . S
C655 H677 0.950 . S
C656 H652 0.949 . S
C656 C664 1.574 . S
C656 C672 1.368 . S
H657 C665 0.950 . S
H658 C663 0.950 . S
H659 C664 0.949 . S
H660 C666 0.950 . S
H661 C667 0.950 . S
H662 C668 0.949 . S
C663 H658 0.950 . S
C663 C665 1.327 . S
C663 C669 1.429 . S
C664 C656 1.574 . S
C664 H659 0.949 . S
C664 C670 1.368 . S
C665 C649 1.349 . S
C665 H657 0.950 . S
C665 C663 1.327 . S
C666 C654 1.349 . S
C666 H660 0.950 . S
C666 C667 1.327 . S
C667 H661 0.950 . S
C667 C666 1.327 . S
C667 C671 1.429 . S
C668 C651 1.574 . S
C668 H662 0.949 . S
C668 C672 1.368 . S
C669 C650 1.429 . S
C669 C663 1.429 . S
C669 C670 1.523 . S
C670 C651 1.368 . S
C670 C664 1.368 . S
C670 C669 1.523 . S
C671 C655 1.429 . S
C671 C667 1.429 . S
C671 C672 1.523 . S
C672 C656 1.368 . S
C672 C668 1.368 . S
C672 C671 1.523 . S
H673 C648 0.950 . S
H674 C650 0.950 . S
H675 C651 0.949 . S
H676 C653 0.950 . S
H677 C655 0.950 . S
C678 C679 1.349 . S
C678 C680 1.327 . S
C678 H703 0.950 . S
C679 C678 1.349 . S
C679 C695 1.349 . S
C680 C678 1.327 . S
C680 C699 1.429 . S
C680 H704 0.950 . S
C681 C698 1.574 . S
C681 C700 1.368 . S
C681 H705 0.949 . S
H682 C686 0.949 . S
C683 C684 1.349 . S
C683 C685 1.327 . S
C683 H706 0.950 . S
C684 C683 1.349 . S
C684 C696 1.349 . S
C685 C683 1.327 . S
C685 C701 1.429 . S
C685 H707 0.950 . S
C686 H682 0.949 . S
C686 C694 1.574 . S
C686 C702 1.368 . S
H687 C695 0.950 . S
H688 C693 0.950 . S
H689 C694 0.949 . S
H690 C696 0.950 . S
H691 C697 0.950 . S
H692 C698 0.949 . S
C693 H688 0.950 . S
C693 C695 1.327 . S
C693 C699 1.429 . S
C694 C686 1.574 . S
C694 H689 0.949 . S
C694 C700 1.368 . S
C695 C679 1.349 . S
C695 H687 0.950 . S
C695 C693 1.327 . S
C696 C684 1.349 . S
C696 H690 0.950 . S
C696 C697 1.327 . S
C697 H691 0.950 . S
C697 C696 1.327 . S
C697 C701 1.429 . S
C698 C681 1.574 . S
C698 H692 0.949 . S
C698 C702 1.368 . S
C699 C680 1.429 . S
C699 C693 1.429 . S
C699 C700 1.523 . S
C700 C681 1.368 . S
C700 C694 1.368 . S
C700 C699 1.523 . S
C701 C685 1.429 . S
C701 C697 1.429 . S
C701 C702 1.523 . S
C702 C686 1.368 . S
C702 C698 1.368 . S
C702 C701 1.523 . S
H703 C678 0.950 . S
H704 C680 0.950 . S
H705 C681 0.949 . S
H706 C683 0.950 . S
H707 C685 0.950 . S
C708 C709 1.349 . S
C708 C710 1.327 . S
C708 H733 0.950 . S
C709 C708 1.349 . S
C709 C725 1.349 . S
C710 C708 1.327 . S
C710 C729 1.429 . S
C710 H734 0.950 . S
C711 C728 1.574 . S
C711 C730 1.368 . S
C711 H735 0.949 . S
H712 C716 0.949 . S
C713 C714 1.349 . S
C713 C715 1.327 . S
C713 H736 0.950 . S
C714 C713 1.349 . S
C714 C726 1.349 . S
C715 C713 1.327 . S
C715 C731 1.429 . S
C715 H737 0.950 . S
C716 H712 0.949 . S
C716 C724 1.574 . S
C716 C732 1.368 . S
H717 C725 0.950 . S
H718 C723 0.950 . S
H719 C724 0.949 . S
H720 C726 0.950 . S
H721 C727 0.950 . S
H722 C728 0.949 . S
C723 H718 0.950 . S
C723 C725 1.327 . S
C723 C729 1.429 . S
C724 C716 1.574 . S
C724 H719 0.949 . S
C724 C730 1.368 . S
C725 C709 1.349 . S
C725 H717 0.950 . S
C725 C723 1.327 . S
C726 C714 1.349 . S
C726 H720 0.950 . S
C726 C727 1.327 . S
C727 H721 0.950 . S
C727 C726 1.327 . S
C727 C731 1.429 . S
C728 C711 1.574 . S
C728 H722 0.949 . S
C728 C732 1.368 . S
C729 C710 1.429 . S
C729 C723 1.429 . S
C729 C730 1.523 . S
C730 C711 1.368 . S
C730 C724 1.368 . S
C730 C729 1.523 . S
C731 C715 1.429 . S
C731 C727 1.429 . S
C731 C732 1.523 . S
C732 C716 1.368 . S
C732 C728 1.368 . S
C732 C731 1.523 . S
H733 C708 0.950 . S
H734 C710 0.950 . S
H735 C711 0.949 . S
H736 C713 0.950 . S
H737 C715 0.950 . S
C738 C739 1.349 . S
C738 C740 1.327 . S
C738 H763 0.950 . S
C739 C738 1.349 . S
C739 C755 1.349 . S
C740 C738 1.327 . S
C740 C759 1.429 . S
C740 H764 0.950 . S
C741 C758 1.574 . S
C741 C760 1.368 . S
C741 H765 0.949 . S
H742 C746 0.949 . S
C743 C744 1.349 . S
C743 C745 1.327 . S
C743 H766 0.950 . S
C744 C743 1.349 . S
C744 C756 1.349 . S
C745 C743 1.327 . S
C745 C761 1.429 . S
C745 H767 0.950 . S
C746 H742 0.949 . S
C746 C754 1.574 . S
C746 C762 1.368 . S
H747 C755 0.950 . S
H748 C753 0.950 . S
H749 C754 0.949 . S
H750 C756 0.950 . S
H751 C757 0.950 . S
H752 C758 0.949 . S
C753 H748 0.950 . S
C753 C755 1.327 . S
C753 C759 1.429 . S
C754 C746 1.574 . S
C754 H749 0.949 . S
C754 C760 1.368 . S
C755 C739 1.349 . S
C755 H747 0.950 . S
C755 C753 1.327 . S
C756 C744 1.349 . S
C756 H750 0.950 . S
C756 C757 1.327 . S
C757 H751 0.950 . S
C757 C756 1.327 . S
C757 C761 1.429 . S
C758 C741 1.574 . S
C758 H752 0.949 . S
C758 C762 1.368 . S
C759 C740 1.429 . S
C759 C753 1.429 . S
C759 C760 1.523 . S
C760 C741 1.368 . S
C760 C754 1.368 . S
C760 C759 1.523 . S
C761 C745 1.429 . S
C761 C757 1.429 . S
C761 C762 1.523 . S
C762 C746 1.368 . S
C762 C758 1.368 . S
C762 C761 1.523 . S
H763 C738 0.950 . S
H764 C740 0.950 . S
H765 C741 0.949 . S
H766 C743 0.950 . S
H767 C745 0.950 . S
C768 C769 1.349 . S
C768 C770 1.327 . S
C768 H793 0.950 . S
C769 C768 1.349 . S
C769 C785 1.349 . S
C770 C768 1.327 . S
C770 C789 1.429 . S
C770 H794 0.950 . S
C771 C788 1.574 . S
C771 C790 1.368 . S
C771 H795 0.949 . S
H772 C776 0.949 . S
C773 C774 1.349 . S
C773 C775 1.327 . S
C773 H796 0.950 . S
C774 C773 1.349 . S
C774 C786 1.349 . S
C775 C773 1.327 . S
C775 C791 1.429 . S
C775 H797 0.950 . S
C776 H772 0.949 . S
C776 C784 1.574 . S
C776 C792 1.368 . S
H777 C785 0.950 . S
H778 C783 0.950 . S
H779 C784 0.949 . S
H780 C786 0.950 . S
H781 C787 0.950 . S
H782 C788 0.949 . S
C783 H778 0.950 . S
C783 C785 1.327 . S
C783 C789 1.429 . S
C784 C776 1.574 . S
C784 H779 0.949 . S
C784 C790 1.368 . S
C785 C769 1.349 . S
C785 H777 0.950 . S
C785 C783 1.327 . S
C786 C774 1.349 . S
C786 H780 0.950 . S
C786 C787 1.327 . S
C787 H781 0.950 . S
C787 C786 1.327 . S
C787 C791 1.429 . S
C788 C771 1.574 . S
C788 H782 0.949 . S
C788 C792 1.368 . S
C789 C770 1.429 . S
C789 C783 1.429 . S
C789 C790 1.523 . S
C790 C771 1.368 . S
C790 C784 1.368 . S
C790 C789 1.523 . S
C791 C775 1.429 . S
C791 C787 1.429 . S
C791 C792 1.523 . S
C792 C776 1.368 . S
C792 C788 1.368 . S
C792 C791 1.523 . S
H793 C768 0.950 . S
H794 C770 0.950 . S
H795 C771 0.949 . S
H796 C773 0.950 . S
H797 C775 0.950 . S
C798 C799 1.349 . S
C798 C800 1.327 . S
C798 H823 0.950 1_554 S
C799 C798 1.349 . S
C799 C815 1.349 . S
C800 C798 1.327 . S
C800 C819 1.429 . S
C800 H824 0.950 . S
C801 C818 1.574 . S
C801 C820 1.368 . S
C801 H825 0.949 . S
H802 C806 0.949 . S
C803 C804 1.349 . S
C803 C805 1.327 . S
C803 H826 0.950 . S
C804 C803 1.349 . S
C804 C816 1.349 . S
C805 C803 1.327 . S
C805 C821 1.429 . S
C805 H827 0.950 . S
C806 H802 0.949 . S
C806 C814 1.574 . S
C806 C822 1.368 . S
H807 C815 0.950 . S
H808 C813 0.950 . S
H809 C814 0.949 . S
H810 C816 0.950 . S
H811 C817 0.950 . S
H812 C818 0.949 . S
C813 H808 0.950 . S
C813 C815 1.327 . S
C813 C819 1.429 . S
C814 C806 1.574 . S
C814 H809 0.949 . S
C814 C820 1.368 . S
C815 C799 1.349 . S
C815 H807 0.950 . S
C815 C813 1.327 . S
C816 C804 1.349 . S
C816 H810 0.950 . S
C816 C817 1.327 . S
C817 H811 0.950 . S
C817 C816 1.327 . S
C817 C821 1.429 . S
C818 C801 1.574 . S
C818 H812 0.949 . S
C818 C822 1.368 . S
C819 C800 1.429 . S
C819 C813 1.429 . S
C819 C820 1.523 . S
C820 C801 1.368 . S
C820 C814 1.368 . S
C820 C819 1.523 . S
C821 C805 1.429 . S
C821 C817 1.429 . S
C821 C822 1.523 . S
C822 C806 1.368 . S
C822 C818 1.368 . S
C822 C821 1.523 . S
H823 C798 0.950 1_556 S
H824 C800 0.950 . S
H825 C801 0.949 . S
H826 C803 0.950 . S
H827 C805 0.950 . S
C828 C829 1.349 . S
C828 C830 1.327 . S
C828 H853 0.950 . S
C829 C828 1.349 . S
C829 C845 1.349 . S
C830 C828 1.327 . S
C830 C849 1.429 . S
C830 H854 0.950 . S
C831 C848 1.574 . S
C831 C850 1.368 . S
C831 H855 0.949 . S
H832 C836 0.949 . S
C833 C834 1.349 . S
C833 C835 1.327 . S
C833 H856 0.950 . S
C834 C833 1.349 . S
C834 C846 1.349 . S
C835 C833 1.327 . S
C835 C851 1.429 . S
C835 H857 0.950 . S
C836 H832 0.949 . S
C836 C844 1.574 . S
C836 C852 1.368 . S
H837 C845 0.950 . S
H838 C843 0.950 . S
H839 C844 0.949 . S
H840 C846 0.950 . S
H841 C847 0.950 . S
H842 C848 0.949 . S
C843 H838 0.950 . S
C843 C845 1.327 . S
C843 C849 1.429 . S
C844 C836 1.574 . S
C844 H839 0.949 . S
C844 C850 1.368 . S
C845 C829 1.349 . S
C845 H837 0.950 . S
C845 C843 1.327 . S
C846 C834 1.349 . S
C846 H840 0.950 . S
C846 C847 1.327 . S
C847 H841 0.950 . S
C847 C846 1.327 . S
C847 C851 1.429 . S
C848 C831 1.574 . S
C848 H842 0.949 . S
C848 C852 1.368 . S
C849 C830 1.429 . S
C849 C843 1.429 . S
C849 C850 1.523 . S
C850 C831 1.368 . S
C850 C844 1.368 . S
C850 C849 1.523 . S
C851 C835 1.429 . S
C851 C847 1.429 . S
C851 C852 1.523 . S
C852 C836 1.368 . S
C852 C848 1.368 . S
C852 C851 1.523 . S
H853 C828 0.950 . S
H854 C830 0.950 . S
H855 C831 0.949 . S
H856 C833 0.950 . S
H857 C835 0.950 . S
C858 C859 1.349 . S
C858 C860 1.327 . S
C858 H883 0.950 . S
C859 C858 1.349 . S
C859 C875 1.349 . S
C860 C858 1.327 . S
C860 C879 1.429 . S
C860 H884 0.950 . S
C861 C878 1.574 . S
C861 C880 1.368 . S
C861 H885 0.949 . S
H862 C866 0.949 . S
C863 C864 1.349 . S
C863 C865 1.327 . S
C863 H886 0.950 . S
C864 C863 1.349 . S
C864 C876 1.349 . S
C865 C863 1.327 . S
C865 C881 1.429 . S
C865 H887 0.950 . S
C866 H862 0.949 . S
C866 C874 1.574 . S
C866 C882 1.368 . S
H867 C875 0.950 . S
H868 C873 0.950 . S
H869 C874 0.949 . S
H870 C876 0.950 . S
H871 C877 0.950 . S
H872 C878 0.949 . S
C873 H868 0.950 . S
C873 C875 1.327 . S
C873 C879 1.429 . S
C874 C866 1.574 . S
C874 H869 0.949 . S
C874 C880 1.368 . S
C875 C859 1.349 . S
C875 H867 0.950 . S
C875 C873 1.327 . S
C876 C864 1.349 . S
C876 H870 0.950 . S
C876 C877 1.327 . S
C877 H871 0.950 . S
C877 C876 1.327 . S
C877 C881 1.429 . S
C878 C861 1.574 . S
C878 H872 0.949 . S
C878 C882 1.368 . S
C879 C860 1.429 . S
C879 C873 1.429 . S
C879 C880 1.523 . S
C880 C861 1.368 . S
C880 C874 1.368 . S
C880 C879 1.523 . S
C881 C865 1.429 . S
C881 C877 1.429 . S
C881 C882 1.523 . S
C882 C866 1.368 . S
C882 C878 1.368 . S
C882 C881 1.523 . S
H883 C858 0.950 . S
H884 C860 0.950 . S
H885 C861 0.949 . S
H886 C863 0.950 . S
H887 C865 0.950 . S
C888 C889 1.349 . S
C888 C890 1.327 . S
C888 H913 0.950 . S
C889 C888 1.349 . S
C889 C905 1.349 . S
C890 C888 1.327 . S
C890 C909 1.429 . S
C890 H914 0.950 . S
C891 C908 1.574 . S
C891 C910 1.368 . S
C891 H915 0.949 . S
H892 C896 0.949 . S
C893 C894 1.349 . S
C893 C895 1.327 . S
C893 H916 0.950 . S
C894 C893 1.349 . S
C894 C906 1.349 . S
C895 C893 1.327 . S
C895 C911 1.429 . S
C895 H917 0.950 . S
C896 H892 0.949 . S
C896 C904 1.574 . S
C896 C912 1.368 . S
H897 C905 0.950 . S
H898 C903 0.950 . S
H899 C904 0.949 . S
H900 C906 0.950 . S
H901 C907 0.950 . S
H902 C908 0.949 . S
C903 H898 0.950 . S
C903 C905 1.327 . S
C903 C909 1.429 . S
C904 C896 1.574 . S
C904 H899 0.949 . S
C904 C910 1.368 . S
C905 C889 1.349 . S
C905 H897 0.950 . S
C905 C903 1.327 . S
C906 C894 1.349 . S
C906 H900 0.950 . S
C906 C907 1.327 . S
C907 H901 0.950 . S
C907 C906 1.327 . S
C907 C911 1.429 . S
C908 C891 1.574 . S
C908 H902 0.949 . S
C908 C912 1.368 . S
C909 C890 1.429 . S
C909 C903 1.429 . S
C909 C910 1.523 . S
C910 C891 1.368 . S
C910 C904 1.368 . S
C910 C909 1.523 . S
C911 C895 1.429 . S
C911 C907 1.429 . S
C911 C912 1.523 . S
C912 C896 1.368 . S
C912 C908 1.368 . S
C912 C911 1.523 . S
H913 C888 0.950 . S
H914 C890 0.950 . S
H915 C891 0.949 . S
H916 C893 0.950 . S
H917 C895 0.950 . S
C918 C919 1.349 . S
C918 C920 1.327 . S
C918 H943 0.950 . S
C919 C918 1.349 . S
C919 C935 1.349 . S
C920 C918 1.327 . S
C920 C939 1.429 . S
C920 H944 0.950 . S
C921 C938 1.574 . S
C921 C940 1.368 . S
C921 H945 0.949 . S
H922 C926 0.949 . S
C923 C924 1.349 . S
C923 C925 1.327 . S
C923 H946 0.950 . S
C924 C923 1.349 . S
C924 C936 1.349 . S
C925 C923 1.327 . S
C925 C941 1.429 . S
C925 H947 0.950 . S
C926 H922 0.949 . S
C926 C934 1.574 . S
C926 C942 1.368 . S
H927 C935 0.950 . S
H928 C933 0.950 . S
H929 C934 0.949 . S
H930 C936 0.950 . S
H931 C937 0.950 . S
H932 C938 0.949 . S
C933 H928 0.950 . S
C933 C935 1.327 . S
C933 C939 1.429 . S
C934 C926 1.574 . S
C934 H929 0.949 . S
C934 C940 1.368 . S
C935 C919 1.349 . S
C935 H927 0.950 . S
C935 C933 1.327 . S
C936 C924 1.349 . S
C936 H930 0.950 . S
C936 C937 1.327 . S
C937 H931 0.950 . S
C937 C936 1.327 . S
C937 C941 1.429 . S
C938 C921 1.574 . S
C938 H932 0.949 . S
C938 C942 1.368 . S
C939 C920 1.429 . S
C939 C933 1.429 . S
C939 C940 1.523 . S
C940 C921 1.368 . S
C940 C934 1.368 . S
C940 C939 1.523 . S
C941 C925 1.429 . S
C941 C937 1.429 . S
C941 C942 1.523 . S
C942 C926 1.368 . S
C942 C938 1.368 . S
C942 C941 1.523 . S
H943 C918 0.950 . S
H944 C920 0.950 . S
H945 C921 0.949 . S
H946 C923 0.950 . S
H947 C925 0.950 . S
C948 C949 1.349 . S
C948 C950 1.327 . S
C948 H973 0.950 . S
C949 C948 1.349 . S
C949 C965 1.349 . S
C950 C948 1.327 . S
C950 C969 1.429 . S
C950 H974 0.950 . S
C951 C968 1.574 . S
C951 C970 1.368 . S
C951 H975 0.949 . S
H952 C956 0.949 . S
C953 C954 1.349 . S
C953 C955 1.327 . S
C953 H976 0.950 . S
C954 C953 1.349 . S
C954 C966 1.349 . S
C955 C953 1.327 . S
C955 C971 1.429 . S
C955 H977 0.950 . S
C956 H952 0.949 . S
C956 C964 1.574 . S
C956 C972 1.368 . S
H957 C965 0.950 . S
H958 C963 0.950 . S
H959 C964 0.949 . S
H960 C966 0.950 . S
H961 C967 0.950 . S
H962 C968 0.949 . S
C963 H958 0.950 . S
C963 C965 1.327 . S
C963 C969 1.429 . S
C964 C956 1.574 . S
C964 H959 0.949 . S
C964 C970 1.368 . S
C965 C949 1.349 . S
C965 H957 0.950 . S
C965 C963 1.327 . S
C966 C954 1.349 . S
C966 H960 0.950 . S
C966 C967 1.327 . S
C967 H961 0.950 . S
C967 C966 1.327 . S
C967 C971 1.429 . S
C968 C951 1.574 . S
C968 H962 0.949 . S
C968 C972 1.368 . S
C969 C950 1.429 . S
C969 C963 1.429 . S
C969 C970 1.523 . S
C970 C951 1.368 . S
C970 C964 1.368 . S
C970 C969 1.523 . S
C971 C955 1.429 . S
C971 C967 1.429 . S
C971 C972 1.523 . S
C972 C956 1.368 . S
C972 C968 1.368 . S
C972 C971 1.523 . S
H973 C948 0.950 . S
H974 C950 0.950 . S
H975 C951 0.949 . S
H976 C953 0.950 . S
H977 C955 0.950 . S
C978 C979 1.349 . S
C978 C980 1.327 . S
C978 H1003 0.950 . S
C979 C978 1.349 . S
C979 C995 1.349 . S
C980 C978 1.327 . S
C980 C999 1.429 . S
C980 H1004 0.950 . S
C981 C998 1.574 . S
C981 C1000 1.368 . S
C981 H1005 0.949 . S
H982 C986 0.949 . S
C983 C984 1.349 . S
C983 C985 1.327 . S
C983 H1006 0.950 . S
C984 C983 1.349 . S
C984 C996 1.349 . S
C985 C983 1.327 . S
C985 C1001 1.429 1_554 S
C985 H1007 0.950 . S
C986 H982 0.949 . S
C986 C994 1.574 . S
C986 C1002 1.368 . S
H987 C995 0.950 . S
H988 C993 0.950 . S
H989 C994 0.949 . S
H990 C996 0.950 . S
H991 C997 0.950 . S
H992 C998 0.949 . S
C993 H988 0.950 . S
C993 C995 1.327 . S
C993 C999 1.429 . S
C994 C986 1.574 . S
C994 H989 0.949 . S
C994 C1000 1.368 . S
C995 C979 1.349 . S
C995 H987 0.950 . S
C995 C993 1.327 . S
C996 C984 1.349 . S
C996 H990 0.950 . S
C996 C997 1.327 1_554 S
C997 H991 0.950 . S
C997 C996 1.327 1_556 S
C997 C1001 1.429 . S
C998 C981 1.574 . S
C998 H992 0.949 . S
C998 C1002 1.368 . S
C999 C980 1.429 . S
C999 C993 1.429 . S
C999 C1000 1.523 . S
C1000 C981 1.368 . S
C1000 C994 1.368 . S
C1000 C999 1.523 . S
C1001 C985 1.429 1_556 S
C1001 C997 1.429 . S
C1001 C1002 1.523 . S
C1002 C986 1.368 . S
C1002 C998 1.368 . S
C1002 C1001 1.523 . S
H1003 C978 0.950 . S
H1004 C980 0.950 . S
H1005 C981 0.949 . S
H1006 C983 0.950 . S
H1007 C985 0.950 . S
C1008 C1009 1.349 . S
C1008 C1010 1.327 . S
C1008 H1033 0.950 . S
C1009 C1008 1.349 . S
C1009 C1025 1.349 . S
C1010 C1008 1.327 . S
C1010 C1029 1.429 . S
C1010 H1034 0.950 . S
C1011 C1028 1.574 . S
C1011 C1030 1.368 . S
C1011 H1035 0.949 . S
H1012 C1016 0.949 . S
C1013 C1014 1.349 . S
C1013 C1015 1.327 . S
C1013 H1036 0.950 . S
C1014 C1013 1.349 . S
C1014 C1026 1.349 . S
C1015 C1013 1.327 . S
C1015 C1031 1.429 . S
C1015 H1037 0.950 . S
C1016 H1012 0.949 . S
C1016 C1024 1.574 . S
C1016 C1032 1.368 . S
H1017 C1025 0.950 1_545 S
H1018 C1023 0.950 . S
H1019 C1024 0.949 . S
H1020 C1026 0.950 . S
H1021 C1027 0.950 . S
H1022 C1028 0.949 . S
C1023 H1018 0.950 . S
C1023 C1025 1.327 . S
C1023 C1029 1.429 . S
C1024 C1016 1.574 . S
C1024 H1019 0.949 . S
C1024 C1030 1.368 . S
C1025 C1009 1.349 . S
C1025 H1017 0.950 1_565 S
C1025 C1023 1.327 . S
C1026 C1014 1.349 . S
C1026 H1020 0.950 . S
C1026 C1027 1.327 . S
C1027 H1021 0.950 . S
C1027 C1026 1.327 . S
C1027 C1031 1.429 . S
C1028 C1011 1.574 . S
C1028 H1022 0.949 . S
C1028 C1032 1.368 . S
C1029 C1010 1.429 . S
C1029 C1023 1.429 . S
C1029 C1030 1.523 . S
C1030 C1011 1.368 . S
C1030 C1024 1.368 . S
C1030 C1029 1.523 . S
C1031 C1015 1.429 . S
C1031 C1027 1.429 . S
C1031 C1032 1.523 . S
C1032 C1016 1.368 . S
C1032 C1028 1.368 . S
C1032 C1031 1.523 . S
H1033 C1008 0.950 . S
H1034 C1010 0.950 . S
H1035 C1011 0.949 . S
H1036 C1013 0.950 . S
H1037 C1015 0.950 . S
C1038 C1039 1.349 . S
C1038 C1040 1.327 . S
C1038 H1063 0.950 . S
C1039 C1038 1.349 . S
C1039 C1055 1.349 . S
C1040 C1038 1.327 . S
C1040 C1059 1.429 . S
C1040 H1064 0.950 . S
C1041 C1058 1.574 . S
C1041 C1060 1.368 . S
C1041 H1065 0.949 . S
H1042 C1046 0.949 . S
C1043 C1044 1.349 . S
C1043 C1045 1.327 . S
C1043 H1066 0.950 . S
C1044 C1043 1.349 . S
C1044 C1056 1.349 . S
C1045 C1043 1.327 . S
C1045 C1061 1.429 . S
C1045 H1067 0.950 . S
C1046 H1042 0.949 . S
C1046 C1054 1.574 . S
C1046 C1062 1.368 . S
H1047 C1055 0.950 . S
H1048 C1053 0.950 . S
H1049 C1054 0.949 . S
H1050 C1056 0.950 . S
H1051 C1057 0.950 . S
H1052 C1058 0.949 . S
C1053 H1048 0.950 . S
C1053 C1055 1.327 . S
C1053 C1059 1.429 . S
C1054 C1046 1.574 . S
C1054 H1049 0.949 . S
C1054 C1060 1.368 . S
C1055 C1039 1.349 . S
C1055 H1047 0.950 . S
C1055 C1053 1.327 . S
C1056 C1044 1.349 . S
C1056 H1050 0.950 . S
C1056 C1057 1.327 . S
C1057 H1051 0.950 . S
C1057 C1056 1.327 . S
C1057 C1061 1.429 . S
C1058 C1041 1.574 . S
C1058 H1052 0.949 . S
C1058 C1062 1.368 . S
C1059 C1040 1.429 . S
C1059 C1053 1.429 . S
C1059 C1060 1.523 . S
C1060 C1041 1.368 . S
C1060 C1054 1.368 . S
C1060 C1059 1.523 . S
C1061 C1045 1.429 . S
C1061 C1057 1.429 . S
C1061 C1062 1.523 . S
C1062 C1046 1.368 . S
C1062 C1058 1.368 . S
C1062 C1061 1.523 . S
H1063 C1038 0.950 . S
H1064 C1040 0.950 . S
H1065 C1041 0.949 . S
H1066 C1043 0.950 . S
H1067 C1045 0.950 . S
C1068 C1069 1.349 . S
C1068 C1070 1.327 . S
C1068 H1093 0.950 . S
C1069 C1068 1.349 . S
C1069 C1085 1.349 . S
C1070 C1068 1.327 . S
C1070 C1089 1.429 . S
C1070 H1094 0.950 . S
C1071 C1088 1.574 . S
C1071 C1090 1.368 . S
C1071 H1095 0.949 . S
H1072 C1076 0.949 . S
C1073 C1074 1.349 . S
C1073 C1075 1.327 . S
C1073 H1096 0.950 . S
C1074 C1073 1.349 . S
C1074 C1086 1.349 . S
C1075 C1073 1.327 . S
C1075 C1091 1.429 . S
C1075 H1097 0.950 . S
C1076 H1072 0.949 . S
C1076 C1084 1.574 . S
C1076 C1092 1.368 . S
H1077 C1085 0.950 . S
H1078 C1083 0.950 . S
H1079 C1084 0.949 . S
H1080 C1086 0.950 . S
H1081 C1087 0.950 . S
H1082 C1088 0.949 . S
C1083 H1078 0.950 . S
C1083 C1085 1.327 . S
C1083 C1089 1.429 . S
C1084 C1076 1.574 . S
C1084 H1079 0.949 . S
C1084 C1090 1.368 . S
C1085 C1069 1.349 . S
C1085 H1077 0.950 . S
C1085 C1083 1.327 . S
C1086 C1074 1.349 . S
C1086 H1080 0.950 . S
C1086 C1087 1.327 . S
C1087 H1081 0.950 . S
C1087 C1086 1.327 . S
C1087 C1091 1.429 . S
C1088 C1071 1.574 . S
C1088 H1082 0.949 . S
C1088 C1092 1.368 . S
C1089 C1070 1.429 . S
C1089 C1083 1.429 . S
C1089 C1090 1.523 . S
C1090 C1071 1.368 . S
C1090 C1084 1.368 . S
C1090 C1089 1.523 . S
C1091 C1075 1.429 . S
C1091 C1087 1.429 . S
C1091 C1092 1.523 . S
C1092 C1076 1.368 . S
C1092 C1088 1.368 . S
C1092 C1091 1.523 . S
H1093 C1068 0.950 . S
H1094 C1070 0.950 . S
H1095 C1071 0.949 . S
H1096 C1073 0.950 . S
H1097 C1075 0.950 . S
C1098 C1099 1.349 . S
C1098 C1100 1.327 . S
C1098 H1123 0.950 . S
C1099 C1098 1.349 . S
C1099 C1115 1.349 . S
C1100 C1098 1.327 . S
C1100 C1119 1.429 . S
C1100 H1124 0.950 . S
C1101 C1118 1.574 . S
C1101 C1120 1.368 . S
C1101 H1125 0.949 . S
H1102 C1106 0.949 . S
C1103 C1104 1.349 . S
C1103 C1105 1.327 . S
C1103 H1126 0.950 . S
C1104 C1103 1.349 . S
C1104 C1116 1.349 . S
C1105 C1103 1.327 . S
C1105 C1121 1.429 . S
C1105 H1127 0.950 . S
C1106 H1102 0.949 . S
C1106 C1114 1.574 . S
C1106 C1122 1.368 . S
H1107 C1115 0.950 . S
H1108 C1113 0.950 . S
H1109 C1114 0.949 . S
H1110 C1116 0.950 . S
H1111 C1117 0.950 . S
H1112 C1118 0.949 . S
C1113 H1108 0.950 . S
C1113 C1115 1.327 . S
C1113 C1119 1.429 . S
C1114 C1106 1.574 . S
C1114 H1109 0.949 . S
C1114 C1120 1.368 . S
C1115 C1099 1.349 . S
C1115 H1107 0.950 . S
C1115 C1113 1.327 . S
C1116 C1104 1.349 . S
C1116 H1110 0.950 . S
C1116 C1117 1.327 . S
C1117 H1111 0.950 . S
C1117 C1116 1.327 . S
C1117 C1121 1.429 . S
C1118 C1101 1.574 . S
C1118 H1112 0.949 . S
C1118 C1122 1.368 . S
C1119 C1100 1.429 . S
C1119 C1113 1.429 . S
C1119 C1120 1.523 . S
C1120 C1101 1.368 . S
C1120 C1114 1.368 . S
C1120 C1119 1.523 . S
C1121 C1105 1.429 . S
C1121 C1117 1.429 . S
C1121 C1122 1.523 . S
C1122 C1106 1.368 . S
C1122 C1118 1.368 . S
C1122 C1121 1.523 . S
H1123 C1098 0.950 . S
H1124 C1100 0.950 . S
H1125 C1101 0.949 . S
H1126 C1103 0.950 . S
H1127 C1105 0.950 . S
C1128 C1129 1.349 . S
C1128 C1130 1.327 . S
C1128 H1153 0.950 . S
C1129 C1128 1.349 . S
C1129 C1145 1.349 . S
C1130 C1128 1.327 . S
C1130 C1149 1.429 . S
C1130 H1154 0.950 . S
C1131 C1148 1.574 . S
C1131 C1150 1.368 . S
C1131 H1155 0.949 . S
H1132 C1136 0.949 . S
C1133 C1134 1.349 . S
C1133 C1135 1.327 . S
C1133 H1156 0.950 . S
C1134 C1133 1.349 . S
C1134 C1146 1.349 . S
C1135 C1133 1.327 . S
C1135 C1151 1.429 . S
C1135 H1157 0.950 . S
C1136 H1132 0.949 . S
C1136 C1144 1.574 . S
C1136 C1152 1.368 . S
H1137 C1145 0.950 . S
H1138 C1143 0.950 . S
H1139 C1144 0.949 . S
H1140 C1146 0.950 . S
H1141 C1147 0.950 . S
H1142 C1148 0.949 . S
C1143 H1138 0.950 . S
C1143 C1145 1.327 . S
C1143 C1149 1.429 . S
C1144 C1136 1.574 . S
C1144 H1139 0.949 . S
C1144 C1150 1.368 . S
C1145 C1129 1.349 . S
C1145 H1137 0.950 . S
C1145 C1143 1.327 . S
C1146 C1134 1.349 . S
C1146 H1140 0.950 . S
C1146 C1147 1.327 . S
C1147 H1141 0.950 . S
C1147 C1146 1.327 . S
C1147 C1151 1.429 . S
C1148 C1131 1.574 . S
C1148 H1142 0.949 . S
C1148 C1152 1.368 . S
C1149 C1130 1.429 . S
C1149 C1143 1.429 . S
C1149 C1150 1.523 . S
C1150 C1131 1.368 . S
C1150 C1144 1.368 . S
C1150 C1149 1.523 . S
C1151 C1135 1.429 . S
C1151 C1147 1.429 . S
C1151 C1152 1.523 . S
C1152 C1136 1.368 . S
C1152 C1148 1.368 . S
C1152 C1151 1.523 . S
H1153 C1128 0.950 . S
H1154 C1130 0.950 . S
H1155 C1131 0.949 . S
H1156 C1133 0.950 . S
H1157 C1135 0.950 . S
C1158 C1159 1.349 . S
C1158 C1160 1.327 . S
C1158 H1183 0.950 . S
C1159 C1158 1.349 . S
C1159 C1175 1.349 . S
C1160 C1158 1.327 . S
C1160 C1179 1.429 . S
C1160 H1184 0.950 . S
C1161 C1178 1.574 . S
C1161 C1180 1.368 . S
C1161 H1185 0.949 . S
H1162 C1166 0.949 . S
C1163 C1164 1.349 . S
C1163 C1165 1.327 . S
C1163 H1186 0.950 . S
C1164 C1163 1.349 . S
C1164 C1176 1.349 . S
C1165 C1163 1.327 . S
C1165 C1181 1.429 . S
C1165 H1187 0.950 . S
C1166 H1162 0.949 . S
C1166 C1174 1.574 . S
C1166 C1182 1.368 . S
H1167 C1175 0.950 . S
H1168 C1173 0.950 . S
H1169 C1174 0.949 . S
H1170 C1176 0.950 . S
H1171 C1177 0.950 . S
H1172 C1178 0.949 . S
C1173 H1168 0.950 . S
C1173 C1175 1.327 . S
C1173 C1179 1.429 . S
C1174 C1166 1.574 . S
C1174 H1169 0.949 . S
C1174 C1180 1.368 . S
C1175 C1159 1.349 . S
C1175 H1167 0.950 . S
C1175 C1173 1.327 . S
C1176 C1164 1.349 . S
C1176 H1170 0.950 . S
C1176 C1177 1.327 . S
C1177 H1171 0.950 . S
C1177 C1176 1.327 . S
C1177 C1181 1.429 . S
C1178 C1161 1.574 . S
C1178 H1172 0.949 . S
C1178 C1182 1.368 . S
C1179 C1160 1.429 . S
C1179 C1173 1.429 . S
C1179 C1180 1.523 . S
C1180 C1161 1.368 . S
C1180 C1174 1.368 . S
C1180 C1179 1.523 . S
C1181 C1165 1.429 . S
C1181 C1177 1.429 . S
C1181 C1182 1.523 . S
C1182 C1166 1.368 . S
C1182 C1178 1.368 . S
C1182 C1181 1.523 . S
H1183 C1158 0.950 . S
H1184 C1160 0.950 . S
H1185 C1161 0.949 . S
H1186 C1163 0.950 . S
H1187 C1165 0.950 . S
C1188 C1189 1.349 . S
C1188 C1190 1.327 . S
C1188 H1213 0.950 . S
C1189 C1188 1.349 . S
C1189 C1205 1.349 . S
C1190 C1188 1.327 . S
C1190 C1209 1.429 . S
C1190 H1214 0.950 . S
C1191 C1208 1.574 1_554 S
C1191 C1210 1.368 . S
C1191 H1215 0.949 . S
H1192 C1196 0.949 1_556 S
C1193 C1194 1.349 . S
C1193 C1195 1.327 . S
C1193 H1216 0.950 . S
C1194 C1193 1.349 . S
C1194 C1206 1.349 . S
C1195 C1193 1.327 . S
C1195 C1211 1.429 . S
C1195 H1217 0.950 . S
C1196 H1192 0.949 1_554 S
C1196 C1204 1.574 . S
C1196 C1212 1.368 1_554 S
H1197 C1205 0.950 . S
H1198 C1203 0.950 . S
H1199 C1204 0.949 . S
H1200 C1206 0.950 . S
H1201 C1207 0.950 . S
H1202 C1208 0.949 . S
C1203 H1198 0.950 . S
C1203 C1205 1.327 . S
C1203 C1209 1.429 . S
C1204 C1196 1.574 . S
C1204 H1199 0.949 . S
C1204 C1210 1.368 . S
C1205 C1189 1.349 . S
C1205 H1197 0.950 . S
C1205 C1203 1.327 . S
C1206 C1194 1.349 . S
C1206 H1200 0.950 . S
C1206 C1207 1.327 . S
C1207 H1201 0.950 . S
C1207 C1206 1.327 . S
C1207 C1211 1.429 . S
C1208 C1191 1.574 1_556 S
C1208 H1202 0.949 . S
C1208 C1212 1.368 . S
C1209 C1190 1.429 . S
C1209 C1203 1.429 . S
C1209 C1210 1.523 . S
C1210 C1191 1.368 . S
C1210 C1204 1.368 . S
C1210 C1209 1.523 . S
C1211 C1195 1.429 . S
C1211 C1207 1.429 . S
C1211 C1212 1.523 . S
C1212 C1196 1.368 1_556 S
C1212 C1208 1.368 . S
C1212 C1211 1.523 . S
H1213 C1188 0.950 . S
H1214 C1190 0.950 . S
H1215 C1191 0.949 . S
H1216 C1193 0.950 . S
H1217 C1195 0.950 . S
C1218 C1219 1.349 . S
C1218 C1220 1.327 . S
C1218 H1243 0.950 . S
C1219 C1218 1.349 . S
C1219 C1235 1.349 . S
C1220 C1218 1.327 . S
C1220 C1239 1.429 . S
C1220 H1244 0.950 . S
C1221 C1238 1.574 . S
C1221 C1240 1.368 . S
C1221 H1245 0.949 . S
H1222 C1226 0.949 . S
C1223 C1224 1.349 . S
C1223 C1225 1.327 . S
C1223 H1246 0.950 . S
C1224 C1223 1.349 . S
C1224 C1236 1.349 . S
C1225 C1223 1.327 . S
C1225 C1241 1.429 . S
C1225 H1247 0.950 . S
C1226 H1222 0.949 . S
C1226 C1234 1.574 . S
C1226 C1242 1.368 . S
H1227 C1235 0.950 . S
H1228 C1233 0.950 . S
H1229 C1234 0.949 . S
H1230 C1236 0.950 . S
H1231 C1237 0.950 . S
H1232 C1238 0.949 . S
C1233 H1228 0.950 . S
C1233 C1235 1.327 . S
C1233 C1239 1.429 . S
C1234 C1226 1.574 . S
C1234 H1229 0.949 . S
C1234 C1240 1.368 . S
C1235 C1219 1.349 . S
C1235 H1227 0.950 . S
C1235 C1233 1.327 . S
C1236 C1224 1.349 . S
C1236 H1230 0.950 . S
C1236 C1237 1.327 . S
C1237 H1231 0.950 . S
C1237 C1236 1.327 . S
C1237 C1241 1.429 . S
C1238 C1221 1.574 . S
C1238 H1232 0.949 . S
C1238 C1242 1.368 . S
C1239 C1220 1.429 . S
C1239 C1233 1.429 . S
C1239 C1240 1.523 . S
C1240 C1221 1.368 . S
C1240 C1234 1.368 . S
C1240 C1239 1.523 . S
C1241 C1225 1.429 . S
C1241 C1237 1.429 . S
C1241 C1242 1.523 . S
C1242 C1226 1.368 . S
C1242 C1238 1.368 . S
C1242 C1241 1.523 . S
H1243 C1218 0.950 . S
H1244 C1220 0.950 . S
H1245 C1221 0.949 . S
H1246 C1223 0.950 . S
H1247 C1225 0.950 . S
C534 C519 1.013 . S
C529 C51 1.230 . S
C559 C125 1.362 . S
C564 C449 1.115 . S
C589 C217 2.675 . S
C594 C469 2.704 . S
C619 C291 1.337 . S
C624 C483 1.334 . S
C654 C491 0.736 . S
C649 C347 0.700 . S
C679 C421 0.634 . S
C684 C505 0.710 . S
C709 C143 2.323 . S
C714 C463 1.999 . S
C739 C199 1.446 . S
C744 C477 1.213 . S
C769 C273 0.191 . S
C774 C497 0.192 . S
C804 C511 1.595 . S
C799 C365 1.569 . S
C834 C525 1.704 . S
C829 C439 1.720 . S
C864 C455 2.517 . S
C859 C69 2.475 . S
C889 C63 1.287 . S
C894 C462 1.353 . S
C919 C137 1.460 . S
C924 C476 1.522 . S
C954 C498 1.200 . S
C949 C187 1.172 . S
C979 C261 1.383 . S
C984 C512 1.403 . S
C1014 C526 1.362 . S
C1009 C359 1.259 . S
C1044 C456 0.905 . S
C1039 C433 0.882 . S
C1074 C518 1.560 . S
C1069 C113 1.523 . S
C1099 C211 1.178 . S
C1104 C448 1.236 . S
C1134 C470 1.487 . S
C1129 C285 1.415 . S
C1159 C335 1.235 . S
C1164 C484 1.281 . S
C1189 C409 1.226 . S
C1194 C490 1.257 . S
C1219 C39 1.616 . S
C1224 C504 1.649 . S
