# Generated by pormake.
# Topology pyr, (3,6)-cn, num edge types: 1
# Building blocks:
#     Node 0, Type 0, BuildingBlock: MIDCAF_clean_linker_0, # of connection points: 3
#     Node 1, Type 0, BuildingBlock: MIDCAF_clean_linker_0, # of connection points: 3
#     Node 2, Type 0, BuildingBlock: MIDCAF_clean_linker_0, # of connection points: 3
#     Node 3, Type 0, BuildingBlock: MIDCAF_clean_linker_0, # of connection points: 3
#     Node 4, Type 0, BuildingBlock: MIDCAF_clean_linker_0, # of connection points: 3
#     Node 5, Type 0, BuildingBlock: MIDCAF_clean_linker_0, # of connection points: 3
#     Node 6, Type 0, BuildingBlock: MIDCAF_clean_linker_0, # of connection points: 3
#     Node 7, Type 0, BuildingBlock: MIDCAF_clean_linker_0, # of connection points: 3
#     Node 8, Type 1, BuildingBlock: VOLQOD_clean_sbu_1, # of connection points: 6
#     Node 9, Type 1, BuildingBlock: VOLQOD_clean_sbu_1, # of connection points: 6
#     Node 10, Type 1, BuildingBlock: VOLQOD_clean_sbu_1, # of connection points: 6
#     Node 11, Type 1, BuildingBlock: VOLQOD_clean_sbu_1, # of connection points: 6
#     Edge 12, Type (0, 1), BuildingBlock: XUDNAN_clean_linker_2, # of connection points: 2
#     Edge 13, Type (0, 1), BuildingBlock: XUDNAN_clean_linker_2, # of connection points: 2
#     Edge 14, Type (0, 1), BuildingBlock: XUDNAN_clean_linker_2, # of connection points: 2
#     Edge 15, Type (0, 1), BuildingBlock: XUDNAN_clean_linker_2, # of connection points: 2
#     Edge 16, Type (0, 1), BuildingBlock: XUDNAN_clean_linker_2, # of connection points: 2
#     Edge 17, Type (0, 1), BuildingBlock: XUDNAN_clean_linker_2, # of connection points: 2
#     Edge 18, Type (0, 1), BuildingBlock: XUDNAN_clean_linker_2, # of connection points: 2
#     Edge 19, Type (0, 1), BuildingBlock: XUDNAN_clean_linker_2, # of connection points: 2
#     Edge 20, Type (0, 1), BuildingBlock: XUDNAN_clean_linker_2, # of connection points: 2
#     Edge 21, Type (0, 1), BuildingBlock: XUDNAN_clean_linker_2, # of connection points: 2
#     Edge 22, Type (0, 1), BuildingBlock: XUDNAN_clean_linker_2, # of connection points: 2
#     Edge 23, Type (0, 1), BuildingBlock: XUDNAN_clean_linker_2, # of connection points: 2
#     Edge 24, Type (0, 1), BuildingBlock: XUDNAN_clean_linker_2, # of connection points: 2
#     Edge 25, Type (0, 1), BuildingBlock: XUDNAN_clean_linker_2, # of connection points: 2
#     Edge 26, Type (0, 1), BuildingBlock: XUDNAN_clean_linker_2, # of connection points: 2
#     Edge 27, Type (0, 1), BuildingBlock: XUDNAN_clean_linker_2, # of connection points: 2
#     Edge 28, Type (0, 1), BuildingBlock: XUDNAN_clean_linker_2, # of connection points: 2
#     Edge 29, Type (0, 1), BuildingBlock: XUDNAN_clean_linker_2, # of connection points: 2
#     Edge 30, Type (0, 1), BuildingBlock: XUDNAN_clean_linker_2, # of connection points: 2
#     Edge 31, Type (0, 1), BuildingBlock: XUDNAN_clean_linker_2, # of connection points: 2
#     Edge 32, Type (0, 1), BuildingBlock: XUDNAN_clean_linker_2, # of connection points: 2
#     Edge 33, Type (0, 1), BuildingBlock: XUDNAN_clean_linker_2, # of connection points: 2
#     Edge 34, Type (0, 1), BuildingBlock: XUDNAN_clean_linker_2, # of connection points: 2
#     Edge 35, Type (0, 1), BuildingBlock: XUDNAN_clean_linker_2, # of connection points: 2
# Relax obj value: 0.035
# Max RMSD: 0.119
# Mean RMSD: 0.044
data_MOF--net-pry--node1-VOLQOD_clean_sbu_1--node2-MIDCAF_clean_linker_0--edge1-XUDNAN_clean_linker_2
_symmetry_space_group_name_H-M    P1
_symmetry_Int_Tables_number       1
_symmetry_cell_setting            triclinic
loop_
_symmetry_equiv_pos_as_xyz
'x, y, z'
_cell_length_a     45.205181
_cell_length_b     45.261831
_cell_length_c     45.460369
_cell_angle_alpha  90.000918
_cell_angle_beta   90.054981
_cell_angle_gamma 90.163468
loop_
_atom_site_label
_atom_site_type_symbol
_atom_site_fract_x
_atom_site_fract_y
_atom_site_fract_z
_atom_type_partial_charge
C0 C 0.09082 0.10655 0.22937 0.0
C1 C 0.11111 0.08797 0.24363 0.0
C2 C 0.13691 0.07945 0.22873 0.0
C3 C 0.14287 0.09017 0.20054 0.0
H4 H 0.19671 0.07901 0.12852 0.0
H5 H 0.24074 0.06246 0.10283 0.0
H6 H 0.23673 0.13916 0.04641 0.0
H7 H 0.19216 0.15549 0.07166 0.0
H8 H 0.14817 0.21095 0.09661 0.0
H9 H 0.12361 0.25743 0.08589 0.0
H10 H 0.04139 0.22142 0.1192 0.0
H11 H 0.06667 0.17572 0.13166 0.0
H12 H 0.0812 0.13252 0.19127 0.0
H13 H 0.07082 0.11359 0.24042 0.0
H14 H 0.15276 0.06486 0.2391 0.0
H15 H 0.16335 0.08374 0.19004 0.0
N16 N 0.15532 0.1147 0.14317 0.0
N17 N 0.14919 0.15323 0.10925 0.0
N18 N 0.11617 0.148 0.14873 0.0
C19 C 0.16429 0.12898 0.11843 0.0
C20 C 0.12498 0.1627 0.1242 0.0
C21 C 0.13132 0.12405 0.15846 0.0
C22 C 0.19084 0.11868 0.10228 0.0
C23 C 0.2051 0.09239 0.11062 0.0
C24 C 0.2305 0.08294 0.09597 0.0
C25 C 0.24238 0.09955 0.07266 0.0
C26 C 0.22797 0.12566 0.06406 0.0
C27 C 0.20248 0.1351 0.07867 0.0
C28 C 0.10936 0.18981 0.1151 0.0
C29 C 0.12479 0.21297 0.10143 0.0
C30 C 0.11058 0.23962 0.09514 0.0
C31 C 0.08038 0.24348 0.10175 0.0
C32 C 0.06478 0.21973 0.11446 0.0
C33 C 0.07919 0.19336 0.12139 0.0
C34 C 0.12327 0.10992 0.18676 0.0
C35 C 0.09688 0.11751 0.20127 0.0
C36 C 0.28205 0.93157 0.63896 0.0
C37 C 0.26389 0.92176 0.61585 0.0
C38 C 0.27163 0.89592 0.6006 0.0
C39 C 0.29736 0.88052 0.60795 0.0
H40 H 0.34787 0.80623 0.58697 0.0
H41 H 0.36452 0.76324 0.55946 0.0
H42 H 0.45126 0.77168 0.59872 0.0
H43 H 0.43437 0.81397 0.62695 0.0
H44 H 0.44113 0.85228 0.68483 0.0
H45 H 0.46779 0.86456 0.72976 0.0
H46 H 0.39322 0.91611 0.75947 0.0
H47 H 0.36695 0.90466 0.71424 0.0
H48 H 0.32117 0.92448 0.66428 0.0
H49 H 0.27643 0.95122 0.65133 0.0
H50 H 0.25816 0.88799 0.58251 0.0
H51 H 0.30287 0.86087 0.59552 0.0
N52 N 0.35341 0.85231 0.62111 0.0
N53 N 0.39487 0.84685 0.65165 0.0
N54 N 0.35946 0.88294 0.66229 0.0
C55 C 0.37915 0.8383 0.62764 0.0
C56 C 0.38514 0.86907 0.66914 0.0
C57 C 0.3435 0.8748 0.63827 0.0
C58 C 0.3897 0.81341 0.60936 0.0
C59 C 0.37054 0.79903 0.58961 0.0
C60 C 0.38015 0.77444 0.57369 0.0
C61 C 0.4092 0.76387 0.57698 0.0
C62 C 0.42857 0.77883 0.5961 0.0
C63 C 0.4189 0.8032 0.6122 0.0
C64 C 0.40184 0.87742 0.69592 0.0
C65 C 0.43046 0.86636 0.70087 0.0
C66 C 0.44571 0.87328 0.72672 0.0
C67 C 0.43263 0.89123 0.74829 0.0
C68 C 0.40417 0.90259 0.74314 0.0
C69 C 0.38901 0.89587 0.71722 0.0
C70 C 0.31577 0.89054 0.63086 0.0
C71 C 0.30763 0.9161 0.64645 0.0
C72 C 0.6112 0.28447 0.9214 0.0
C73 C 0.5819 0.27586 0.91533 0.0
C74 C 0.56182 0.29731 0.90538 0.0
C75 C 0.57111 0.32627 0.90019 0.0
H76 H 0.54518 0.41085 0.86052 0.0
H77 H 0.51771 0.43164 0.81935 0.0
H78 H 0.60028 0.45592 0.77753 0.0
H79 H 0.62727 0.43717 0.81972 0.0
H80 H 0.67588 0.45172 0.8765 0.0
H81 H 0.72599 0.46796 0.88687 0.0
H82 H 0.74061 0.38996 0.93952 0.0
H83 H 0.69003 0.37357 0.92945 0.0
H84 H 0.64346 0.31918 0.92031 0.0
H85 H 0.6273 0.26848 0.92893 0.0
H86 H 0.5389 0.29165 0.9012 0.0
H87 H 0.55514 0.34198 0.89183 0.0
N88 N 0.59464 0.38065 0.8771 0.0
N89 N 0.63221 0.41627 0.87451 0.0
N90 N 0.63836 0.37434 0.90423 0.0
C91 C 0.60504 0.40658 0.86625 0.0
C92 C 0.64887 0.40052 0.89381 0.0
C93 C 0.61117 0.36431 0.89601 0.0
C94 C 0.5883 0.42225 0.84318 0.0
C95 C 0.5573 0.42119 0.84271 0.0
C96 C 0.54162 0.43289 0.81894 0.0
C97 C 0.55664 0.44506 0.79461 0.0
C98 C 0.58771 0.4472 0.79584 0.0
C99 C 0.60332 0.43623 0.82001 0.0
C100 C 0.67889 0.41112 0.90187 0.0
C101 C 0.68958 0.43797 0.89042 0.0
C102 C 0.71841 0.44728 0.89626 0.0
C103 C 0.73733 0.43005 0.9137 0.0
C104 C 0.72646 0.40373 0.92607 0.0
C105 C 0.69752 0.3943 0.92016 0.0
C106 C 0.60069 0.33461 0.90503 0.0
C107 C 0.62049 0.31356 0.91639 0.0
C108 C 0.79581 0.61908 0.45824 0.0
C109 C 0.78262 0.59185 0.45099 0.0
C110 C 0.79582 0.57443 0.42897 0.0
C111 C 0.82126 0.58419 0.41435 0.0
H112 H 0.86334 0.57965 0.33079 0.0
H113 H 0.87195 0.56827 0.27873 0.0
H114 H 0.94615 0.62839 0.27798 0.0
H115 H 0.93803 0.63967 0.32948 0.0
H116 H 0.95822 0.67092 0.38956 0.0
H117 H 0.9843 0.71569 0.40394 0.0
H118 H 0.90957 0.74183 0.45705 0.0
H119 H 0.88386 0.69636 0.44348 0.0
H120 H 0.83074 0.64986 0.44995 0.0
H121 H 0.78604 0.63342 0.4746 0.0
H122 H 0.78665 0.5531 0.4231 0.0
H123 H 0.83078 0.57025 0.39747 0.0
N124 N 0.8687 0.61061 0.37939 0.0
N125 N 0.90907 0.6431 0.37692 0.0
N126 N 0.87755 0.64443 0.41769 0.0
C127 C 0.89273 0.6211 0.36466 0.0
C128 C 0.90175 0.65483 0.40337 0.0
C129 C 0.86108 0.6221 0.40602 0.0
C130 C 0.89969 0.61094 0.33434 0.0
C131 C 0.88175 0.59013 0.31964 0.0
C132 C 0.88668 0.58352 0.28988 0.0
C133 C 0.90942 0.59782 0.27433 0.0
C134 C 0.92816 0.61743 0.28937 0.0
C135 C 0.92347 0.62381 0.31898 0.0
C136 C 0.9188 0.68026 0.41506 0.0
C137 C 0.94747 0.68603 0.4046 0.0
C138 C 0.96238 0.7118 0.41275 0.0
C139 C 0.94885 0.73268 0.43123 0.0
C140 C 0.92077 0.72618 0.44293 0.0
C141 C 0.90595 0.70015 0.43504 0.0
C142 C 0.83435 0.61141 0.42166 0.0
C143 C 0.82143 0.62863 0.44392 0.0
C144 C 0.80851 0.94853 0.94002 0.0
C145 C 0.8016 0.93274 0.96575 0.0
C146 C 0.82265 0.91306 0.97727 0.0
C147 C 0.84926 0.90804 0.96252 0.0
H148 H 0.91095 0.84286 0.95371 0.0
H149 H 0.93112 0.79344 0.95952 0.0
H150 H 0.98607 0.80667 0.88295 0.0
H151 H 0.96566 0.85596 0.87673 0.0
H152 H 0.9603 0.91752 0.84105 0.0
H153 H 0.96755 0.93876 0.79239 0.0
H154 H 0.88032 0.9775 0.79644 0.0
H155 H 0.8736 0.95731 0.84549 0.0
H156 H 0.83922 0.95542 0.905 0.0
H157 H 0.79271 0.96364 0.93036 0.0
H158 H 0.81824 0.90096 0.99736 0.0
H159 H 0.86454 0.89205 0.97158 0.0
N160 N 0.89818 0.89055 0.92563 0.0
N161 N 0.92711 0.89683 0.88336 0.0
N162 N 0.88827 0.92954 0.89318 0.0
C163 C 0.92089 0.88152 0.90829 0.0
C164 C 0.911 0.9209 0.8757 0.0
C165 C 0.88188 0.91466 0.91835 0.0
C166 C 0.93632 0.85333 0.91449 0.0
C167 C 0.92764 0.83547 0.93831 0.0
C168 C 0.93932 0.80714 0.94176 0.0
C169 C 0.95994 0.79604 0.92149 0.0
C170 C 0.9698 0.81443 0.89861 0.0
C171 C 0.95817 0.84277 0.89517 0.0
C172 C 0.91635 0.93566 0.84715 0.0
C173 C 0.94278 0.93081 0.83165 0.0
C174 C 0.94684 0.9428 0.80363 0.0
C175 C 0.92443 0.95965 0.79031 0.0
C176 C 0.89825 0.96501 0.80612 0.0
C177 C 0.89434 0.95331 0.83427 0.0
C178 C 0.85551 0.9227 0.93596 0.0
C179 C 0.83518 0.94364 0.92534 0.0
C180 C 0.58247 0.06823 0.3003 0.0
C181 C 0.57015 0.09261 0.28572 0.0
C182 C 0.56533 0.11888 0.30134 0.0
C183 C 0.57373 0.12111 0.3308 0.0
H184 H 0.56846 0.17431 0.40103 0.0
H185 H 0.56057 0.22146 0.42511 0.0
H186 H 0.62069 0.1964 0.49454 0.0
H187 H 0.62872 0.14878 0.47052 0.0
H188 H 0.66306 0.08449 0.46411 0.0
H189 H 0.70994 0.06068 0.47557 0.0
H190 H 0.71594 0.02967 0.38578 0.0
H191 H 0.66866 0.0521 0.37483 0.0
H192 H 0.60171 0.05174 0.34003 0.0
H193 H 0.58651 0.04777 0.28861 0.0
H194 H 0.55564 0.13789 0.29057 0.0
H195 H 0.57052 0.14199 0.34197 0.0
N196 N 0.59258 0.12473 0.39135 0.0
N197 N 0.62798 0.11182 0.42674 0.0
N198 N 0.62208 0.08295 0.38427 0.0
C199 C 0.60616 0.1302 0.41744 0.0
C200 C 0.63599 0.08808 0.41027 0.0
C201 C 0.60022 0.10107 0.37476 0.0
C202 C 0.59942 0.15772 0.4337 0.0
C203 C 0.57993 0.17859 0.42153 0.0
C204 C 0.57553 0.20577 0.43519 0.0
C205 C 0.59034 0.2127 0.46144 0.0
C206 C 0.60901 0.19156 0.47428 0.0
C207 C 0.61361 0.16434 0.46048 0.0
C208 C 0.66224 0.07046 0.4185 0.0
C209 C 0.67419 0.07215 0.44699 0.0
C210 C 0.70118 0.05866 0.45348 0.0
C211 C 0.71704 0.04358 0.43151 0.0
C212 C 0.70431 0.04074 0.40342 0.0
C213 C 0.67714 0.05381 0.39706 0.0
C214 C 0.58756 0.09724 0.34503 0.0
C215 C 0.59128 0.07057 0.32965 0.0
C216 C 0.29735 0.56937 0.11764 0.0
C217 C 0.28049 0.59056 0.1026 0.0
C218 C 0.29418 0.61663 0.0929 0.0
C219 C 0.32391 0.62201 0.09902 0.0
H220 H 0.38047 0.68719 0.0967 0.0
H221 H 0.3956 0.73823 0.08977 0.0
H222 H 0.48141 0.71874 0.12625 0.0
H223 H 0.46624 0.66716 0.134 0.0
H224 H 0.46995 0.58073 0.15749 0.0
H225 H 0.49329 0.55581 0.19903 0.0
H226 H 0.41138 0.56328 0.24799 0.0
H227 H 0.3879 0.58512 0.2054 0.0
H228 H 0.33942 0.55857 0.13651 0.0
H229 H 0.28721 0.54909 0.12533 0.0
H230 H 0.28171 0.63312 0.0809 0.0
H231 H 0.33345 0.6427 0.09168 0.0
N232 N 0.38393 0.63439 0.1145 0.0
N233 N 0.42564 0.62609 0.14391 0.0
N234 N 0.38585 0.59246 0.1445 0.0
C235 C 0.41099 0.64316 0.1241 0.0
C236 C 0.41317 0.60067 0.15404 0.0
C237 C 0.37127 0.60904 0.12429 0.0
C238 C 0.42206 0.673 0.1162 0.0
C239 C 0.40274 0.69342 0.10297 0.0
C240 C 0.41129 0.72275 0.09905 0.0
C241 C 0.43948 0.73224 0.10774 0.0
C242 C 0.45951 0.71174 0.11945 0.0
C243 C 0.45079 0.68233 0.12389 0.0
C244 C 0.4272 0.58451 0.17834 0.0
C245 C 0.45705 0.57641 0.1771 0.0
C246 C 0.47042 0.56244 0.20113 0.0
C247 C 0.45449 0.55738 0.22737 0.0
C248 C 0.42446 0.56571 0.22823 0.0
C249 C 0.4109 0.57859 0.20385 0.0
C250 C 0.34063 0.60154 0.11529 0.0
C251 C 0.32716 0.57489 0.1241 0.0
C252 C 0.07392 0.31095 0.56555 0.0
C253 C 0.05279 0.29765 0.58393 0.0
C254 C 0.04668 0.31059 0.61136 0.0
C255 C 0.06242 0.33552 0.62078 0.0
H256 H 0.07091 0.39684 0.68858 0.0
H257 H 0.06584 0.41219 0.73964 0.0
H258 H 0.15299 0.45137 0.7369 0.0
H259 H 0.15832 0.43587 0.68578 0.0
H260 H 0.19121 0.44053 0.62315 0.0
H261 H 0.23779 0.44841 0.5971 0.0
H262 H 0.20935 0.38831 0.52893 0.0
H263 H 0.16298 0.38024 0.55472 0.0
H264 H 0.10621 0.345 0.56035 0.0
H265 H 0.07872 0.30178 0.54407 0.0
H266 H 0.03063 0.30073 0.62609 0.0
H267 H 0.05787 0.34432 0.64245 0.0
N268 N 0.09973 0.38359 0.64138 0.0
N269 N 0.14238 0.41283 0.63599 0.0
N270 N 0.1273 0.38134 0.5979 0.0
C271 C 0.11885 0.40402 0.65249 0.0
C272 C 0.14665 0.40168 0.60855 0.0
C273 C 0.10379 0.37219 0.61405 0.0
C274 C 0.11508 0.415 0.68301 0.0
C275 C 0.08899 0.40884 0.69873 0.0
C276 C 0.08599 0.41778 0.72799 0.0
C277 C 0.10905 0.43291 0.7423 0.0
C278 C 0.13497 0.43946 0.72653 0.0
C279 C 0.1379 0.43074 0.69716 0.0
C280 C 0.17343 0.40942 0.59131 0.0
C281 C 0.19468 0.42927 0.60243 0.0
C282 C 0.22132 0.43394 0.58744 0.0
C283 C 0.22726 0.41874 0.56115 0.0
C284 C 0.2055 0.4 0.54936 0.0
C285 C 0.17887 0.39546 0.56419 0.0
C286 C 0.08457 0.34802 0.60292 0.0
C287 C 0.08959 0.33584 0.57489 0.0
O288 O 0.97927 0.07963 0.52998 0.0
Zn289 Zn 0.96956 0.03643 0.52614 0.0
O290 O 0.00219 0.01379 0.50992 0.0
Zn291 Zn 0.99153 0.00012 0.47073 0.0
Zn292 Zn 0.03654 0.03961 0.50729 0.0
Zn293 Zn 0.01075 0.97955 0.53515 0.0
O294 O 0.99767 0.9565 0.46774 0.0
O295 O 0.00327 0.9407 0.51372 0.0
O296 O 0.93293 0.03183 0.50169 0.0
O297 O 0.94818 0.00657 0.46268 0.0
O298 O 0.01634 0.01945 0.43915 0.0
O299 O 0.05046 0.04294 0.4655 0.0
O300 O 0.07018 0.02357 0.53102 0.0
O301 O 0.96036 0.02226 0.56671 0.0
O302 O 0.05389 0.98014 0.54723 0.0
O303 O 0.98683 0.98145 0.57287 0.0
C304 C 0.00356 0.09381 0.52841 0.0
C305 C 0.00039 0.9356 0.48627 0.0
C306 C 0.03993 0.03483 0.4408 0.0
C307 C 0.92775 0.01931 0.47714 0.0
C308 C 0.07433 0.99946 0.54482 0.0
C309 C 0.9683 0.00038 0.58238 0.0
O310 O 0.02746 0.08093 0.52107 0.0
O311 O 0.51206 0.05601 0.96276 0.0
Zn312 Zn 0.49373 0.01816 0.97738 0.0
O313 O 0.51648 0.00179 0.01016 0.0
Zn314 Zn 0.5294 0.96187 0.00057 0.0
Zn315 Zn 0.55115 0.0269 0.0176 0.0
Zn316 Zn 0.49153 -0.00019 0.04516 0.0
O317 O 0.5118 0.9314 0.02762 0.0
O318 O 0.4848 0.95792 0.05848 0.0
O319 O 0.49199 0.98957 0.9435 0.0
O320 O 0.51759 0.95092 0.95937 0.0
O321 O 0.57338 0.95854 0.00369 0.0
O322 O 0.5894 0.00417 0.01237 0.0
O323 O 0.55039 0.04223 0.0591 0.0
O324 O 0.45202 0.02811 0.98975 0.0
O325 O 0.51017 0.02184 0.07867 0.0
O326 O 0.45163 0.01773 0.03747 0.0
C327 C 0.53462 0.0711 0.9704 0.0
C328 C 0.49442 0.9331 0.04954 0.0
C329 C 0.59439 0.97684 0.00783 0.0
C330 C 0.50266 0.96387 0.93945 0.0
C331 C 0.53312 0.03805 0.08082 0.0
C332 C 0.43879 0.02744 0.01448 0.0
O333 O 0.55158 0.06256 0.99108 0.0
O334 O 0.52012 0.50858 0.57942 0.0
Zn335 Zn 0.52436 0.52201 0.53686 0.0
O336 O 0.5082 0.49274 0.50902 0.0
Zn337 Zn 0.53911 0.47936 0.48203 0.0
Zn338 Zn 0.49347 0.45916 0.53096 0.0
Zn339 Zn 0.47519 0.50921 0.48654 0.0
O340 O 0.52808 0.48745 0.43986 0.0
O341 O 0.48303 0.50678 0.44294 0.0
O342 O 0.56771 0.53014 0.52834 0.0
O343 O 0.57674 0.50169 0.48953 0.0
O344 O 0.54781 0.43567 0.48708 0.0
O345 O 0.51779 0.42334 0.52375 0.0
O346 O 0.45144 0.44944 0.52097 0.0
O347 O 0.50215 0.56053 0.53263 0.0
O348 O 0.43656 0.48806 0.49477 0.0
O349 O 0.46966 0.55191 0.49685 0.0
C350 C 0.5067 0.48636 0.5904 0.0
C351 C 0.50505 0.49813 0.42779 0.0
C352 C 0.53801 0.4168 0.5055 0.0
C353 C 0.58516 0.52071 0.50842 0.0
C354 C 0.43123 0.46367 0.50769 0.0
C355 C 0.48144 0.56917 0.51565 0.0
O356 O 0.49497 0.46676 0.57407 0.0
O357 O 0.96206 0.51728 0.06611 0.0
Zn358 Zn 0.97642 0.49434 0.0302 0.0
O359 O 0.00759 0.51594 0.00854 0.0
Zn360 Zn 0.99542 0.52306 0.96807 0.0
Zn361 Zn 0.01404 0.55397 0.02735 0.0
Zn362 Zn 0.04471 0.49346 0.00803 0.0
O363 O 0.02303 0.50439 0.93914 0.0
O364 O 0.05886 0.48538 0.9665 0.0
O365 O 0.94103 0.4862 0.00348 0.0
O366 O 0.9554 0.50597 0.96109 0.0
O367 O 0.99384 0.56639 0.95825 0.0
O368 O 0.00709 0.58801 -3e-05 0.0
O369 O 0.05547 0.55721 0.04239 0.0
O370 O 0.99227 0.45512 0.04431 0.0
O371 O 0.07739 0.51534 0.02954 0.0
O372 O 0.03857 0.45409 0.02771 0.0
C373 C 0.9681 0.54337 0.07487 0.0
C374 C 0.04744 0.49067 0.94142 0.0
C375 C 0.99914 0.58959 0.97318 0.0
C376 C 0.93633 0.49217 0.97644 0.0
C377 C 0.07813 0.54061 0.0419 0.0
C378 C 0.01704 0.44206 0.0413 0.0
O379 O 0.98694 0.5594 0.06153 0.0
H380 H 0.06015 0.06658 0.26895 0.0
H381 H 0.15124 0.09008 0.28836 0.0
H382 H 0.1431 0.07809 0.3407 0.0
H383 H 0.02845 0.09629 0.33424 0.0
H384 H 0.00168 0.06706 0.33875 0.0
H385 H 0.01484 0.07648 0.30257 0.0
H386 H 0.03106 0.02225 0.29423 0.0
H387 H 0.01784 0.01263 0.33036 0.0
H388 H 0.0556 0.00493 0.32028 0.0
H389 H 0.12447 0.06654 0.39105 0.0
H390 H 0.09736 0.053 0.43612 0.0
H391 H 0.01861 0.03543 0.3841 0.0
C392 C 0.07837 0.06908 0.28425 0.0
C393 C 0.10636 0.07914 0.27465 0.0
C394 C 0.12975 0.08201 0.29522 0.0
C395 C 0.1253 0.07543 0.32499 0.0
C396 C 0.0974 0.06579 0.33378 0.0
C397 C 0.07439 0.06232 0.31403 0.0
C398 C 0.04657 0.05165 0.32932 0.0
C399 C 0.02141 0.07422 0.32602 0.0
C400 C 0.03723 0.02105 0.31786 0.0
C401 C 0.05747 0.05002 0.36079 0.0
C402 C 0.08681 0.0584 0.36285 0.0
C403 C 0.10155 0.05969 0.38972 0.0
C404 C 0.08592 0.05207 0.4152 0.0
C405 C 0.05591 0.04304 0.41363 0.0
C406 C 0.0416 0.04196 0.38598 0.0
H407 H 0.43374 0.94329 0.7794 0.0
H408 H 0.4662 0.85308 0.78119 0.0
H409 H 0.49016 0.86278 0.829 0.0
H410 H 0.49717 0.97782 0.8147 0.0
H411 H 0.47479 0.0034 0.8353 0.0
H412 H 0.46219 0.99005 0.8001 0.0
H413 H 0.41347 0.97166 0.82405 0.0
H414 H 0.42592 0.98493 0.85929 0.0
H415 H 0.41518 0.94679 0.85498 0.0
H416 H 0.50837 0.88148 0.87775 0.0
H417 H 0.51921 0.9077 0.92411 0.0
H418 H 0.47337 0.98514 0.89098 0.0
C419 C 0.44588 0.92554 0.78979 0.0
C420 C 0.44817 0.89745 0.77641 0.0
C421 C 0.46456 0.87495 0.7907 0.0
C422 C 0.47811 0.88018 0.81795 0.0
C423 C 0.47508 0.90801 0.83064 0.0
C424 C 0.45939 0.93031 0.81703 0.0
C425 C 0.45839 0.95784 0.83589 0.0
C426 C 0.47408 0.98381 0.82058 0.0
C427 C 0.42634 0.96576 0.84403 0.0
C428 C 0.4756 0.94738 0.86244 0.0
C429 C 0.48524 0.91866 0.85889 0.0
C430 C 0.50107 0.90403 0.88074 0.0
C431 C 0.50709 0.91913 0.907 0.0
C432 C 0.49714 0.9485 0.91124 0.0
C433 C 0.48135 0.96274 0.88848 0.0
H434 H 0.56995 0.48863 0.75368 0.0
H435 H 0.50706 0.41811 0.772 0.0
H436 H 0.48319 0.42691 0.72445 0.0
H437 H 0.52006 0.53624 0.70908 0.0
H438 H 0.54904 0.54551 0.68345 0.0
H439 H 0.55796 0.53793 0.72136 0.0
H440 H 0.59482 0.49749 0.7048 0.0
H441 H 0.586 0.5049 0.66693 0.0
H442 H 0.58202 0.46799 0.68132 0.0
H443 H 0.47003 0.43808 0.67308 0.0
H444 H 0.46907 0.45033 0.62041 0.0
H445 H 0.54186 0.51187 0.63315 0.0
C446 C 0.55095 0.47522 0.74797 0.0
C447 C 0.54032 0.45288 0.76713 0.0
C448 C 0.51528 0.43599 0.75847 0.0
C449 C 0.50158 0.44068 0.73127 0.0
C450 C 0.51313 0.46225 0.71273 0.0
C451 C 0.53724 0.47929 0.72063 0.0
C452 C 0.54725 0.49868 0.69526 0.0
C453 C 0.54333 0.53154 0.70274 0.0
C454 C 0.57942 0.49183 0.68657 0.0
C455 C 0.52567 0.48898 0.67157 0.0
C456 C 0.50588 0.46834 0.68238 0.0
C457 C 0.48511 0.45453 0.66442 0.0
C458 C 0.48486 0.46155 0.63447 0.0
C459 C 0.50537 0.4821 0.62264 0.0
C460 C 0.52562 0.49643 0.64163 0.0
H461 H 0.91427 0.5462 0.24231 0.0
H462 H 0.91254 0.64164 0.23389 0.0
H463 H 0.92222 0.63726 0.18074 0.0
H464 H 0.97368 0.53466 0.19435 0.0
H465 H 0.95967 0.50105 0.17818 0.0
H466 H 0.94898 0.51114 0.21494 0.0
H467 H 0.89374 0.50816 0.19999 0.0
H468 H 0.90429 0.49798 0.16312 0.0
H469 H 0.88069 0.52945 0.1691 0.0
H470 H 0.93705 0.62356 0.13055 0.0
H471 H 0.95627 0.60109 0.08516 0.0
H472 H 0.94817 0.51399 0.12432 0.0
C473 C 0.91529 0.56605 0.22904 0.0
C474 C 0.91268 0.59428 0.24209 0.0
C475 C 0.91467 0.61985 0.22427 0.0
C476 C 0.91997 0.61758 0.19406 0.0
C477 C 0.92312 0.58955 0.18192 0.0
C478 C 0.92076 0.56417 0.19869 0.0
C479 C 0.9273 0.53695 0.18028 0.0
C480 C 0.954 0.51996 0.19268 0.0
C481 C 0.89987 0.51695 0.17799 0.0
C482 C 0.93451 0.55114 0.15087 0.0
C483 C 0.93162 0.58149 0.15238 0.0
C484 C 0.93897 0.59979 0.12889 0.0
C485 C 0.94998 0.58682 0.10325 0.0
C486 C 0.9535 0.55581 0.10116 0.0
C487 C 0.94513 0.5377 0.12512 0.0
H488 H 0.29203 0.07611 0.0982 0.0
H489 H 0.25529 0.1012 0.01358 0.0
H490 H 0.30146 0.08534 0.98922 0.0
H491 H 0.36621 0.0991 0.08415 0.0
H492 H 0.38263 0.06859 0.10367 0.0
H493 H 0.34671 0.08197 0.11426 0.0
H494 H 0.32479 0.0294 0.10759 0.0
H495 H 0.36065 0.01585 0.097 0.0
H496 H 0.32936 0.01058 0.07295 0.0
H497 H 0.35201 0.06678 0.97425 0.0
H498 H 0.40278 0.04718 0.96989 0.0
H499 H 0.40537 0.03337 0.06442 0.0
C500 C 0.2935 0.07799 0.0745 0.0
C501 C 0.26998 0.08988 0.0578 0.0
C502 C 0.27312 0.09247 0.02688 0.0
C503 C 0.29918 0.08336 0.01283 0.0
C504 C 0.32187 0.07167 0.03 0.0
C505 C 0.31924 0.06896 0.06016 0.0
C506 C 0.34685 0.05585 0.07366 0.0
C507 C 0.36146 0.07769 0.0952 0.0
C508 C 0.33999 0.02616 0.08868 0.0
C509 C 0.36549 0.05162 0.04638 0.0
C510 C 0.35074 0.06087 0.02141 0.0
C511 C 0.36374 0.0594 0.99366 0.0
C512 C 0.39259 0.04824 0.99142 0.0
C513 C 0.40811 0.03865 0.01679 0.0
C514 C 0.39416 0.04036 0.04455 0.0
H515 H 0.20831 0.90075 0.60295 0.0
H516 H 0.25992 0.98154 0.6089 0.0
H517 H 0.21632 0.01038 0.59344 0.0
H518 H 0.16763 0.92029 0.53869 0.0
H519 H 0.1336 0.90334 0.55075 0.0
H520 H 0.16853 0.88916 0.56342 0.0
H521 H 0.15168 0.89599 0.61747 0.0
H522 H 0.11669 0.91024 0.60495 0.0
H523 H 0.13928 0.93176 0.62969 0.0
H524 H 0.16825 0.03007 0.57493 0.0
H525 H 0.1182 0.03967 0.55564 0.0
H526 H 0.09733 0.94619 0.56253 0.0
C527 C 0.21039 0.92451 0.60098 0.0
C528 C 0.23744 0.93895 0.60718 0.0
C529 C 0.23928 0.97009 0.60461 0.0
C530 C 0.2147 0.98663 0.59574 0.0
C531 C 0.18841 0.97171 0.58973 0.0
C532 C 0.18601 0.94139 0.59235 0.0
C533 C 0.15527 0.93079 0.58416 0.0
C534 C 0.15634 0.90965 0.55768 0.0
C535 C 0.13982 0.91635 0.61065 0.0
C536 C 0.14091 0.95987 0.5761 0.0
C537 C 0.16043 0.98318 0.57949 0.0
C538 C 0.15267 0.01205 0.5724 0.0
C539 C 0.12421 0.01725 0.56139 0.0
C540 C 0.1038 0.9937 0.55769 0.0
C541 C 0.11229 0.9647 0.56543 0.0
H542 H 0.77029 0.43018 0.96482 0.0
H543 H 0.77501 0.45027 0.87155 0.0
H544 H 0.82649 0.46716 0.87769 0.0
H545 H 0.81259 0.49214 0.98944 0.0
H546 H 0.83139 0.47242 0.01835 0.0
H547 H 0.79508 0.4608 0.00673 0.0
H548 H 0.81496 0.40819 0.99636 0.0
H549 H 0.85134 0.41963 0.00804 0.0
H550 H 0.84614 0.40356 0.97212 0.0
H551 H 0.87626 0.48304 0.89356 0.0
H552 H 0.9225 0.49709 0.91827 0.0
H553 H 0.88675 0.46663 0.00173 0.0
C554 C 0.78232 0.43783 0.94568 0.0
C555 C 0.76862 0.4391 0.91772 0.0
C556 C 0.78494 0.44954 0.89323 0.0
C557 C 0.81423 0.459 0.89645 0.0
C558 C 0.82696 0.45781 0.9243 0.0
C559 C 0.81168 0.44747 0.94851 0.0
C560 C 0.8306 0.44924 0.97606 0.0
C561 C 0.81657 0.46988 0.99899 0.0
C562 C 0.83608 0.41831 0.98889 0.0
C563 C 0.85877 0.46241 0.96348 0.0
C564 C 0.85608 0.46704 0.93356 0.0
C565 C 0.87874 0.47943 0.91697 0.0
C566 C 0.90493 0.4874 0.9313 0.0
C567 C 0.90837 0.483 0.96201 0.0
C568 C 0.88491 0.47019 0.97824 0.0
H569 H 0.73553 0.56157 0.42689 0.0
H570 H 0.76666 0.59989 0.50894 0.0
H571 H 0.71968 0.58589 0.53277 0.0
H572 H 0.66053 0.58246 0.43309 0.0
H573 H 0.64614 0.54859 0.41782 0.0
H574 H 0.68228 0.56154 0.40725 0.0
H575 H 0.70518 0.5117 0.42352 0.0
H576 H 0.66907 0.49852 0.43401 0.0
H577 H 0.69886 0.49843 0.46038 0.0
H578 H 0.66803 0.56949 0.54708 0.0
H579 H 0.61719 0.54943 0.55123 0.0
H580 H 0.62183 0.51927 0.46072 0.0
C581 C 0.73282 0.56663 0.45 0.0
C582 C 0.75491 0.58205 0.4659 0.0
C583 C 0.74996 0.58863 0.49602 0.0
C584 C 0.7234 0.58057 0.50986 0.0
C585 C 0.70207 0.56564 0.49343 0.0
C586 C 0.70664 0.55847 0.46424 0.0
C587 C 0.68029 0.54225 0.45145 0.0
C588 C 0.6665 0.55977 0.4259 0.0
C589 C 0.68887 0.51086 0.44178 0.0
C590 C 0.66007 0.54163 0.47794 0.0
C591 C 0.6729 0.55536 0.50192 0.0
C592 C 0.65787 0.55843 0.52852 0.0
C593 C 0.629 0.54706 0.53066 0.0
C594 C 0.61563 0.53257 0.50641 0.0
C595 C 0.63155 0.52985 0.4798 0.0
H596 H 0.09111 0.28344 0.057 0.0
H597 H 0.03626 0.26971 0.13435 0.0
H598 H 0.0123 0.31765 0.1257 0.0
H599 H 0.10467 0.3599 0.07118 0.0
H600 H 0.10461 0.37017 0.03287 0.0
H601 H 0.11565 0.33352 0.04358 0.0
H602 H 0.07599 0.31117 0.00881 0.0
H603 H 0.06479 0.34777 0.99803 0.0
H604 H 0.03791 0.32223 0.01267 0.0
H605 H 0.99448 0.36757 0.10891 0.0
H606 H 0.98666 0.417 0.08706 0.0
H607 H 0.0563 0.39974 0.02373 0.0
C608 C 0.07422 0.29042 0.07233 0.0
C609 C 0.0655 0.27234 0.09622 0.0
C610 C 0.04294 0.28254 0.11539 0.0
C611 C 0.02929 0.30994 0.11083 0.0
C612 C 0.03863 0.32716 0.08722 0.0
C613 C 0.06076 0.31792 0.06846 0.0
C614 C 0.06785 0.34126 0.04567 0.0
C615 C 0.10011 0.35184 0.04852 0.0
C616 C 0.06123 0.32993 0.01445 0.0
C617 C 0.04635 0.36516 0.05467 0.0
C618 C 0.02939 0.35646 0.07843 0.0
C619 C 0.00769 0.37468 0.09036 0.0
C620 C 0.00337 0.40265 0.07779 0.0
C621 C 0.021 0.41223 0.05386 0.0
C622 C 0.04269 0.39313 0.0422 0.0
H623 H 0.59698 0.23583 0.95854 0.0
H624 H 0.54581 0.24466 0.87812 0.0
H625 H 0.52951 0.19288 0.88266 0.0
H626 H 0.62147 0.16053 0.94493 0.0
H627 H 0.61896 0.14993 0.98307 0.0
H628 H 0.62696 0.18773 0.9734 0.0
H629 H 0.58215 0.2052 0.0043 0.0
H630 H 0.57404 0.1675 0.01409 0.0
H631 H 0.54601 0.18993 0.99695 0.0
H632 H 0.51738 0.1408 0.89662 0.0
H633 H 0.51045 0.09165 0.91911 0.0
H634 H 0.571 0.11592 0.98937 0.0
C635 C 0.58261 0.2268 0.9417 0.0
C636 C 0.57251 0.24447 0.9181 0.0
C637 C 0.55341 0.23182 0.89673 0.0
C638 C 0.54421 0.20233 0.89895 0.0
C639 C 0.55447 0.18563 0.92253 0.0
C640 C 0.57331 0.19733 0.94349 0.0
C641 C 0.58071 0.17468 0.96689 0.0
C642 C 0.614 0.16781 0.96707 0.0
C643 C 0.57008 0.18495 0.99735 0.0
C644 C 0.56284 0.14853 0.95593 0.0
C645 C 0.5479 0.15533 0.9303 0.0
C646 C 0.52913 0.13512 0.91657 0.0
C647 C 0.52531 0.10727 0.92954 0.0
C648 C 0.54029 0.09985 0.95591 0.0
C649 C 0.55952 0.12075 0.96902 0.0
H650 H 0.94971 0.76651 0.48204 0.0
H651 H 0.97878 0.76609 0.39096 0.0
H652 H 0.99943 0.81594 0.39721 0.0
H653 H 0.92575 0.84041 0.48254 0.0
H654 H 0.93764 0.84826 0.51959 0.0
H655 H 0.92797 0.81107 0.50928 0.0
H656 H 0.97941 0.79289 0.52661 0.0
H657 H 0.98925 0.83008 0.53698 0.0
H658 H 0.01234 0.8098 0.51181 0.0
H659 H 0.01237 0.86705 0.41107 0.0
H660 H 0.01754 0.91688 0.43224 0.0
H661 H 0.98062 0.88545 0.51465 0.0
C662 C 0.96067 0.77678 0.4635 0.0
C663 C 0.96292 0.76207 0.4361 0.0
C664 C 0.97739 0.77643 0.41239 0.0
C665 C 0.98909 0.80489 0.41565 0.0
C666 C 0.98624 0.81881 0.44277 0.0
C667 C 0.97252 0.80531 0.46636 0.0
C668 C 0.97096 0.82604 0.49256 0.0
C669 C 0.93866 0.83178 0.50151 0.0
C670 C 0.98907 0.81398 0.51853 0.0
C671 C 0.98523 0.85351 0.47967 0.0
C672 C 0.99403 0.84867 0.45096 0.0
C673 C 0.00599 0.87105 0.43366 0.0
C674 C 0.00872 0.89929 0.44585 0.0
C675 C 0.99967 0.90495 0.47512 0.0
C676 C 0.98823 0.8816 0.4924 0.0
H677 H 0.44465 0.71959 0.59824 0.0
H678 H 0.3957 0.74651 0.52052 0.0
H679 H 0.41019 0.70024 0.49571 0.0
H680 H 0.50613 0.6857 0.55887 0.0
H681 H 0.51016 0.65651 0.58554 0.0
H682 H 0.49648 0.69211 0.5968 0.0
H683 H 0.44965 0.66715 0.61848 0.0
H684 H 0.46312 0.63152 0.60722 0.0
H685 H 0.42717 0.64383 0.59528 0.0
H686 H 0.4279 0.64991 0.48045 0.0
H687 H 0.44871 0.5998 0.47528 0.0
H688 H 0.48807 0.60721 0.56214 0.0
C689 C 0.4374 0.71612 0.57579 0.0
C690 C 0.41899 0.73676 0.56136 0.0
C691 C 0.40948 0.73089 0.53221 0.0
C692 C 0.41777 0.70477 0.51785 0.0
C693 C 0.43578 0.68488 0.53284 0.0
C694 C 0.44565 0.69035 0.56108 0.0
C695 C 0.46434 0.66516 0.57256 0.0
C696 C 0.49617 0.67549 0.5788 0.0
C697 C 0.45021 0.65109 0.6 0.0
C698 C 0.46314 0.64446 0.54648 0.0
C699 C 0.44654 0.65622 0.52379 0.0
C700 C 0.44119 0.64059 0.49794 0.0
C701 C 0.45303 0.61213 0.49525 0.0
C702 C 0.47016 0.59968 0.51823 0.0
C703 C 0.47543 0.61626 0.54403 0.0
H704 H 0.95116 0.93201 0.74341 0.0
H705 H 0.90578 0.01285 0.76792 0.0
H706 H 0.90998 0.03065 0.71686 0.0
H707 H 0.00375 0.96697 0.69506 0.0
H708 H 0.00404 0.93675 0.66925 0.0
H709 H 0.99639 0.92986 0.70751 0.0
H710 H 0.94698 0.90447 0.69315 0.0
H711 H 0.95436 0.91149 0.65485 0.0
H712 H 0.92043 0.92434 0.67119 0.0
H713 H 0.91886 0.03965 0.66342 0.0
H714 H 0.93475 0.04097 0.61169 0.0
H715 H 0.97668 0.95534 0.62236 0.0
C716 C 0.94238 0.95362 0.73822 0.0
C717 C 0.92795 0.97092 0.75978 0.0
C718 C 0.91641 0.99889 0.75177 0.0
C719 C 0.91881 0.00928 0.72283 0.0
C720 C 0.93299 0.99156 0.70219 0.0
C721 C 0.94483 0.96446 0.70954 0.0
C722 C 0.95973 0.95016 0.68333 0.0
C723 C 0.99295 0.94568 0.68914 0.0
C724 C 0.94445 0.92088 0.67516 0.0
C725 C 0.9545 0.97354 0.66011 0.0
C726 C 0.93879 0.99709 0.67143 0.0
C727 C 0.93122 0.02138 0.65429 0.0
C728 C 0.94031 0.02184 0.62488 0.0
C729 C 0.95704 0.99826 0.61289 0.0
C730 C 0.96395 0.9737 0.6308 0.0
H731 H 0.53951 0.05017 0.2554 0.0
H732 H 0.5887 0.13179 0.24423 0.0
H733 H 0.58302 0.12779 0.19029 0.0
H734 H 0.56909 0.01233 0.19452 0.0
H735 H 0.53496 0.9944 0.18425 0.0
H736 H 0.54142 0.00455 0.222 0.0
H737 H 0.49281 0.03481 0.22238 0.0
H738 H 0.48611 0.0246 0.18464 0.0
H739 H 0.48713 0.06304 0.19499 0.0
H740 H 0.57609 0.1124 0.13781 0.0
H741 H 0.56445 0.08891 0.09006 0.0
H742 H 0.51753 0.01873 0.13556 0.0
C743 C 0.54878 0.0673 0.24153 0.0
C744 C 0.56446 0.09131 0.25378 0.0
C745 C 0.57632 0.11341 0.23513 0.0
C746 C 0.57332 0.11125 0.20455 0.0
C747 C 0.55807 0.08708 0.1931 0.0
C748 C 0.54562 0.06571 0.211 0.0
C749 C 0.53064 0.04179 0.19309 0.0
C750 C 0.54489 0.01149 0.19881 0.0
C751 C 0.49719 0.04103 0.19914 0.0
C752 C 0.53717 0.05272 0.16232 0.0
C753 C 0.55313 0.0788 0.1628 0.0
C754 C 0.56321 0.09222 0.1371 0.0
C755 C 0.55664 0.07867 0.11015 0.0
C756 C 0.5399 0.05221 0.1092 0.0
C757 C 0.52996 0.03922 0.13565 0.0
H758 H 0.42917 0.52506 0.27274 0.0
H759 H 0.51335 0.56185 0.24392 0.0
H760 H 0.53651 0.54426 0.28946 0.0
H761 H 0.43618 0.55195 0.34452 0.0
H762 H 0.41767 0.52105 0.36154 0.0
H763 H 0.40882 0.53116 0.3243 0.0
H764 H 0.42115 0.47805 0.30694 0.0
H765 H 0.43011 0.46777 0.34419 0.0
H766 H 0.45686 0.46253 0.3153 0.0
H767 H 0.55014 0.52557 0.33978 0.0
H768 H 0.5517 0.51233 0.39255 0.0
H769 H 0.45738 0.49463 0.39088 0.0
C770 C 0.45247 0.52962 0.2757 0.0
C771 C 0.46922 0.54482 0.2541 0.0
C772 C 0.49987 0.54957 0.25932 0.0
C773 C 0.51334 0.53981 0.28537 0.0
C774 C 0.49589 0.52569 0.30634 0.0
C775 C 0.46604 0.52094 0.30193 0.0
C776 C 0.45141 0.50858 0.32926 0.0
C777 C 0.4271 0.52944 0.34057 0.0
C778 C 0.43917 0.47738 0.32357 0.0
C779 C 0.4776 0.50778 0.34998 0.0
C780 C 0.50323 0.51693 0.33609 0.0
C781 C 0.53023 0.5183 0.35086 0.0
C782 C 0.53092 0.51068 0.38076 0.0
C783 C 0.50464 0.50258 0.39566 0.0
C784 C 0.47776 0.50083 0.37996 0.0
H785 H 0.06121 0.45779 0.76968 0.0
H786 H 0.15037 0.42652 0.78597 0.0
H787 H 0.14485 0.43847 0.83878 0.0
H788 H 0.06338 0.51864 0.82123 0.0
H789 H 0.02537 0.51389 0.83223 0.0
H790 H 0.03679 0.50349 0.79574 0.0
H791 H 0.01624 0.45065 0.80425 0.0
H792 H 0.00483 0.46087 0.84078 0.0
H793 H 0.02889 0.42964 0.8355 0.0
H794 H 0.12853 0.45195 0.89034 0.0
H795 H 0.10358 0.468 0.93601 0.0
H796 H 0.02548 0.49086 0.88526 0.0
C797 C 0.07957 0.45343 0.78437 0.0
C798 C 0.10622 0.44121 0.77376 0.0
C799 C 0.12986 0.43616 0.7936 0.0
C800 C 0.12688 0.44272 0.82363 0.0
C801 C 0.10018 0.4545 0.8334 0.0
C802 C 0.07703 0.46 0.8143 0.0
C803 C 0.05064 0.47272 0.8303 0.0
C804 C 0.04365 0.50404 0.81921 0.0
C805 C 0.02356 0.45224 0.82754 0.0
C806 C 0.06244 0.47327 0.86144 0.0
C807 C 0.09101 0.46263 0.86285 0.0
C808 C 0.10621 0.46049 0.88947 0.0
C809 C 0.09183 0.46959 0.9153 0.0
C810 C 0.06261 0.48081 0.91426 0.0
C811 C 0.04788 0.4826 0.88687 0.0
H812 H 0.76709 0.98241 0.97289 0.0
H813 H 0.76771 0.88753 0.98715 0.0
H814 H 0.71604 0.88962 0.00398 0.0
H815 H 0.71747 0.00121 0.03507 0.0
H816 H 0.69887 0.02961 0.01438 0.0
H817 H 0.73715 0.0214 0.00701 0.0
H818 H 0.72444 0.01237 0.95215 0.0
H819 H 0.68617 0.02039 0.95935 0.0
H820 H 0.69628 0.98572 0.94268 0.0
H821 H 0.66318 0.90058 0.01333 0.0
H822 H 0.61255 0.92024 0.01686 0.0
H823 H 0.64547 0.00819 0.99689 0.0
C824 C 0.75648 0.96214 0.97994 0.0
C825 C 0.77161 0.93483 0.97891 0.0
C826 C 0.75689 0.90881 0.98832 0.0
C827 C 0.72744 0.90973 0.99777 0.0
C828 C 0.71302 0.93685 0.99788 0.0
C829 C 0.72705 0.96265 0.98948 0.0
C830 C 0.70588 0.98857 0.98992 0.0
C831 C 0.71542 0.01155 0.01298 0.0
C832 C 0.70303 0.00257 0.9592 0.0
C833 C 0.67756 0.97308 0.99896 0.0
C834 C 0.68228 0.94329 0.00361 0.0
C835 C 0.65925 0.92395 0.01022 0.0
C836 C 0.63055 0.93531 0.012 0.0
C837 C 0.6251 0.96576 0.00728 0.0
C838 C 0.64903 0.98491 0.00105 0.0
H839 H 0.75994 0.06998 0.46538 0.0
H840 H 0.74395 0.99354 0.4097 0.0
H841 H 0.79644 0.97949 0.4145 0.0
H842 H 0.83066 0.08799 0.4395 0.0
H843 H 0.84543 0.09804 0.47497 0.0
H844 H 0.80645 0.10181 0.4678 0.0
H845 H 0.79431 0.06875 0.51279 0.0
H846 H 0.83326 0.06524 0.52039 0.0
H847 H 0.81078 0.03263 0.51559 0.0
H848 H 0.8515 0.97576 0.4228 0.0
H849 H 0.90378 0.97953 0.43845 0.0
H850 H 0.88235 0.05644 0.49126 0.0
C851 C 0.76713 0.04986 0.45473 0.0
C852 C 0.74768 0.033 0.437 0.0
C853 C 0.75845 0.00718 0.42298 0.0
C854 C 0.78821 0.99891 0.42567 0.0
C855 C 0.80682 0.01645 0.4428 0.0
C856 C 0.79657 0.04108 0.4575 0.0
C857 C 0.82103 0.05615 0.47463 0.0
C858 C 0.82619 0.08787 0.46355 0.0
C859 C 0.81445 0.05564 0.50782 0.0
C860 C 0.84675 0.03632 0.46701 0.0
C861 C 0.8382 0.01369 0.44843 0.0
C862 C 0.8584 0.9932 0.4376 0.0
C863 C 0.88805 0.99564 0.44644 0.0
C864 C 0.89704 0.01819 0.46615 0.0
C865 C 0.87607 0.03881 0.47638 0.0
H866 H 0.25135 0.54263 0.07906 0.0
H867 H 0.23731 0.62976 0.11617 0.0
H868 H 0.18369 0.62501 0.10707 0.0
H869 H 0.19925 0.54973 0.02118 0.0
H870 H 0.18652 0.51198 0.02264 0.0
H871 H 0.22358 0.52102 0.03413 0.0
H872 H 0.21378 0.49683 0.08486 0.0
H873 H 0.17667 0.48764 0.07349 0.0
H874 H 0.18268 0.50885 0.10653 0.0
H875 H 0.13261 0.61222 0.09219 0.0
H876 H 0.08637 0.59254 0.07142 0.0
H877 H 0.13284 0.51361 0.04293 0.0
C878 C 0.23684 0.56044 0.08563 0.0
C879 C 0.24831 0.58657 0.09831 0.0
C880 C 0.22886 0.60968 0.10625 0.0
C881 C 0.19842 0.60712 0.10132 0.0
C882 C 0.18781 0.58131 0.08839 0.0
C883 C 0.20631 0.55835 0.08061 0.0
C884 C 0.18919 0.53372 0.06563 0.0
C885 C 0.2003 0.52884 0.03402 0.0
C886 C 0.19067 0.50506 0.08371 0.0
C887 C 0.1583 0.54667 0.0659 0.0
C888 C 0.15806 0.57401 0.07938 0.0
C889 C 0.13242 0.59075 0.08172 0.0
C890 C 0.10625 0.57935 0.06977 0.0
C891 C 0.10588 0.55148 0.05551 0.0
C892 C 0.13231 0.53489 0.0538 0.0
H893 H 0.26087 0.46832 0.55003 0.0
H894 H 0.26085 0.37278 0.54204 0.0
H895 H 0.31171 0.37449 0.52256 0.0
H896 H 0.30572 0.48296 0.48321 0.0
H897 H 0.3251 0.51342 0.5001 0.0
H898 H 0.28763 0.50503 0.51084 0.0
H899 H 0.30427 0.50088 0.56524 0.0
H900 H 0.34171 0.50924 0.55469 0.0
H901 H 0.33371 0.47585 0.57482 0.0
H902 H 0.36409 0.38571 0.51034 0.0
H903 H 0.4143 0.40625 0.50328 0.0
H904 H 0.3802 0.49474 0.51616 0.0
C905 C 0.27149 0.44784 0.54379 0.0
C906 C 0.2569 0.42043 0.54735 0.0
C907 C 0.27147 0.39405 0.53904 0.0
C908 C 0.30037 0.39479 0.52804 0.0
C909 C 0.31427 0.42211 0.5251 0.0
C910 C 0.30027 0.44821 0.53239 0.0
C911 C 0.32074 0.47446 0.52831 0.0
C912 C 0.3091 0.49519 0.50417 0.0
C913 C 0.32538 0.49107 0.5575 0.0
C914 C 0.34872 0.45891 0.51857 0.0
C915 C 0.34443 0.4287 0.51682 0.0
C916 C 0.3676 0.40936 0.51095 0.0
C917 C 0.396 0.42117 0.50707 0.0
C918 C 0.40084 0.45201 0.50869 0.0
C919 C 0.37682 0.47113 0.51399 0.0
H920 H 0.97521 0.76396 0.97055 0.0
H921 H 0.96511 0.75712 0.87582 0.0
H922 H 0.97683 0.70399 0.87839 0.0
H923 H 0.0358 0.71067 0.97755 0.0
H924 H 0.02192 0.69602 0.01174 0.0
H925 H 0.01508 0.73402 0.00214 0.0
H926 H 0.95873 0.72537 0.0084 0.0
H927 H 0.96537 0.68736 0.01789 0.0
H928 H 0.94088 0.69626 0.98787 0.0
H929 H 0.98542 0.65095 0.89164 0.0
H930 H 0.99253 0.60201 0.91453 0.0
H931 H 0.99736 0.64352 0.00055 0.0
C932 C 0.97571 0.75133 0.95033 0.0
C933 C 0.96942 0.76472 0.92297 0.0
C934 C 0.97037 0.74745 0.89697 0.0
C935 C 0.97684 0.71722 0.89821 0.0
C936 C 0.98247 0.70463 0.92558 0.0
C937 C 0.98223 0.72115 0.95115 0.0
C938 C 0.98802 0.70204 0.97785 0.0
C939 C 0.01693 0.71124 0.99322 0.0
C940 C 0.96168 0.70281 0.99925 0.0
C941 C 0.99094 0.67209 0.96334 0.0
C942 C 0.98775 0.67407 0.93318 0.0
C943 C 0.98829 0.64915 0.9152 0.0
C944 C 0.99223 0.62144 0.92842 0.0
C945 C 0.99564 0.61893 0.95931 0.0
C946 C 0.99515 0.6447 0.97686 0.0
H947 H 0.48307 0.75872 0.07514 0.0
H948 H 0.41151 0.77684 0.1358 0.0
H949 H 0.42034 0.83051 0.13033 0.0
H950 H 0.53137 0.82128 0.09654 0.0
H951 H 0.54281 0.82825 0.0592 0.0
H952 H 0.53314 0.7913 0.07049 0.0
H953 H 0.49452 0.78831 0.02842 0.0
H954 H 0.50395 0.82525 0.0171 0.0
H955 H 0.46615 0.81611 0.02589 0.0
H956 H 0.4347 0.88172 0.11606 0.0
H957 H 0.45267 0.92759 0.09285 0.0
H958 H 0.51392 0.87643 0.03986 0.0
C959 C 0.46979 0.7741 0.08769 0.0
C960 C 0.44685 0.76395 0.10612 0.0
C961 C 0.42929 0.78445 0.12172 0.0
C962 C 0.43419 0.81486 0.1188 0.0
C963 C 0.45664 0.82432 0.10005 0.0
C964 C 0.47416 0.80461 0.08471 0.0
C965 C 0.49523 0.82069 0.0643 0.0
C966 C 0.52755 0.81504 0.07317 0.0
C967 C 0.48961 0.81208 0.03202 0.0
C968 C 0.48643 0.85241 0.07021 0.0
C969 C 0.46441 0.854 0.09118 0.0
C970 C 0.4521 0.88082 0.09975 0.0
C971 C 0.46245 0.90676 0.0864 0.0
C972 C 0.4847 0.90568 0.06449 0.0
C973 C 0.49692 0.87807 0.05654 0.0
H974 H 0.07957 0.24963 0.55936 0.0
H975 H 0.9944 0.2814 0.58962 0.0
H976 H 0.97184 0.23313 0.57694 0.0
H977 H 0.05212 0.20617 0.49771 0.0
H978 H 0.07893 0.17728 0.50317 0.0
H979 H 0.08777 0.21474 0.51339 0.0
H980 H 0.09997 0.19737 0.56636 0.0
H981 H 0.09109 0.15991 0.55635 0.0
H982 H 0.07256 0.17709 0.58696 0.0
H983 H 0.95917 0.18071 0.56215 0.0
H984 H 0.95743 0.12822 0.54745 0.0
H985 H 0.05124 0.13142 0.52701 0.0
C986 C 0.05605 0.24667 0.56282 0.0
C987 C 0.03866 0.26933 0.57525 0.0
C988 C 0.00813 0.26428 0.5802 0.0
C989 C 0.99512 0.23702 0.57294 0.0
C990 C 0.013 0.21511 0.56082 0.0
C991 C 0.0428 0.21967 0.55582 0.0
C992 C 0.05745 0.19227 0.54365 0.0
C993 C 0.06979 0.19796 0.51264 0.0
C994 C 0.08169 0.181 0.56459 0.0
C995 C 0.03128 0.17141 0.54278 0.0
C996 C 0.0058 0.185 0.55261 0.0
C997 C 0.97896 0.16989 0.5543 0.0
C998 C 0.97822 0.14007 0.54589 0.0
C999 C 0.0042 0.12563 0.53604 0.0
C1000 C 0.03096 0.14173 0.53435 0.0
H1001 H 0.59186 0.26627 0.43387 0.0
H1002 H 0.57953 0.2254 0.51931 0.0
H1003 H 0.56917 0.27445 0.54096 0.0
H1004 H 0.62626 0.33518 0.46077 0.0
H1005 H 0.60789 0.35741 0.43343 0.0
H1006 H 0.61715 0.31955 0.42541 0.0
H1007 H 0.56232 0.30871 0.41249 0.0
H1008 H 0.5529 0.34645 0.4205 0.0
H1009 H 0.53395 0.31678 0.43913 0.0
H1010 H 0.55471 0.32659 0.55181 0.0
H1011 H 0.53911 0.37878 0.55188 0.0
H1012 H 0.56227 0.38604 0.45953 0.0
C1013 C 0.58725 0.26772 0.4572 0.0
C1014 C 0.5864 0.24214 0.47498 0.0
C1015 C 0.58052 0.24482 0.50543 0.0
C1016 C 0.57457 0.27253 0.51786 0.0
C1017 C 0.57503 0.29726 0.49957 0.0
C1018 C 0.58151 0.29516 0.46995 0.0
C1019 C 0.57919 0.32486 0.45482 0.0
C1020 C 0.60943 0.33484 0.44291 0.0
C1021 C 0.55569 0.32414 0.4303 0.0
C1022 C 0.56949 0.34389 0.48037 0.0
C1023 C 0.56736 0.32755 0.506 0.0
C1024 C 0.55676 0.33974 0.53203 0.0
C1025 C 0.54784 0.36933 0.5318 0.0
C1026 C 0.54972 0.38643 0.50575 0.0
C1027 C 0.56114 0.37362 0.47987 0.0
loop_
_geom_bond_atom_site_label_1
_geom_bond_atom_site_label_2
_geom_bond_distance
_geom_bond_site_symmetry_2
_ccdc_geom_bond_type
C0 C1 1.384 . S
C0 H13 0.947 . S
C0 C35 1.382 . S
C1 C0 1.384 . S
C1 C2 1.378 . S
C2 C1 1.378 . S
C2 C3 1.378 . S
C2 H14 0.952 . S
C3 C2 1.378 . S
C3 H15 0.950 . S
C3 C34 1.383 . S
H4 C23 0.947 . S
H5 C24 0.946 . S
H6 C26 0.953 . S
H7 C27 0.945 . S
H8 C29 0.952 . S
H9 C30 0.949 . S
H10 C32 0.950 . S
H11 C33 0.948 . S
H12 C35 0.951 . S
H13 C0 0.947 . S
H14 C2 0.952 . S
H15 C3 0.950 . S
N16 C19 1.382 . S
N16 C21 1.363 . S
N17 C19 1.371 . S
N17 C20 1.372 . S
N18 C20 1.361 . S
N18 C21 1.377 . S
C19 N16 1.382 . S
C19 N17 1.371 . S
C19 C22 1.480 . S
C20 N17 1.372 . S
C20 N18 1.361 . S
C20 C28 1.457 . S
C21 N16 1.363 . S
C21 N18 1.377 . S
C21 C34 1.479 . S
C22 C19 1.480 . S
C22 C23 1.383 . S
C22 C27 1.385 . S
C23 H4 0.947 . S
C23 C22 1.383 . S
C23 C24 1.388 . S
C24 H5 0.946 . S
C24 C23 1.388 . S
C24 C25 1.384 . S
C25 C24 1.384 . S
C25 C26 1.377 . S
C26 H6 0.953 . S
C26 C25 1.377 . S
C26 C27 1.369 . S
C27 H7 0.945 . S
C27 C22 1.385 . S
C27 C26 1.369 . S
C28 C20 1.457 . S
C28 C29 1.372 . S
C28 C33 1.364 . S
C29 H8 0.952 . S
C29 C28 1.372 . S
C29 C30 1.389 . S
C30 H9 0.949 . S
C30 C29 1.389 . S
C30 C31 1.387 . S
C31 C30 1.387 . S
C31 C32 1.372 . S
C32 H10 0.950 . S
C32 C31 1.372 . S
C32 C33 1.379 . S
C33 H11 0.948 . S
C33 C28 1.364 . S
C33 C32 1.379 . S
C34 C3 1.383 . S
C34 C21 1.479 . S
C34 C35 1.398 . S
C35 C0 1.382 . S
C35 H12 0.951 . S
C35 C34 1.398 . S
C36 C37 1.384 . S
C36 H49 0.947 . S
C36 C71 1.382 . S
C37 C36 1.384 . S
C37 C38 1.378 . S
C38 C37 1.378 . S
C38 C39 1.378 . S
C38 H50 0.952 . S
C39 C38 1.378 . S
C39 H51 0.950 . S
C39 C70 1.383 . S
H40 C59 0.947 . S
H41 C60 0.946 . S
H42 C62 0.953 . S
H43 C63 0.945 . S
H44 C65 0.952 . S
H45 C66 0.949 . S
H46 C68 0.950 . S
H47 C69 0.948 . S
H48 C71 0.951 . S
H49 C36 0.947 . S
H50 C38 0.952 . S
H51 C39 0.950 . S
N52 C55 1.382 . S
N52 C57 1.363 . S
N53 C55 1.371 . S
N53 C56 1.372 . S
N54 C56 1.361 . S
N54 C57 1.377 . S
C55 N52 1.382 . S
C55 N53 1.371 . S
C55 C58 1.480 . S
C56 N53 1.372 . S
C56 N54 1.361 . S
C56 C64 1.457 . S
C57 N52 1.363 . S
C57 N54 1.377 . S
C57 C70 1.479 . S
C58 C55 1.480 . S
C58 C59 1.383 . S
C58 C63 1.385 . S
C59 H40 0.947 . S
C59 C58 1.383 . S
C59 C60 1.388 . S
C60 H41 0.946 . S
C60 C59 1.388 . S
C60 C61 1.384 . S
C61 C60 1.384 . S
C61 C62 1.377 . S
C62 H42 0.953 . S
C62 C61 1.377 . S
C62 C63 1.369 . S
C63 H43 0.945 . S
C63 C58 1.385 . S
C63 C62 1.369 . S
C64 C56 1.457 . S
C64 C65 1.372 . S
C64 C69 1.364 . S
C65 H44 0.952 . S
C65 C64 1.372 . S
C65 C66 1.389 . S
C66 H45 0.949 . S
C66 C65 1.389 . S
C66 C67 1.387 . S
C67 C66 1.387 . S
C67 C68 1.372 . S
C68 H46 0.950 . S
C68 C67 1.372 . S
C68 C69 1.379 . S
C69 H47 0.948 . S
C69 C64 1.364 . S
C69 C68 1.379 . S
C70 C39 1.383 . S
C70 C57 1.479 . S
C70 C71 1.398 . S
C71 C36 1.382 . S
C71 H48 0.951 . S
C71 C70 1.398 . S
C72 C73 1.384 . S
C72 H85 0.947 . S
C72 C107 1.382 . S
C73 C72 1.384 . S
C73 C74 1.378 . S
C74 C73 1.378 . S
C74 C75 1.378 . S
C74 H86 0.952 . S
C75 C74 1.378 . S
C75 H87 0.950 . S
C75 C106 1.383 . S
H76 C95 0.947 . S
H77 C96 0.946 . S
H78 C98 0.953 . S
H79 C99 0.945 . S
H80 C101 0.952 . S
H81 C102 0.949 . S
H82 C104 0.950 . S
H83 C105 0.948 . S
H84 C107 0.951 . S
H85 C72 0.947 . S
H86 C74 0.952 . S
H87 C75 0.950 . S
N88 C91 1.382 . S
N88 C93 1.363 . S
N89 C91 1.371 . S
N89 C92 1.372 . S
N90 C92 1.361 . S
N90 C93 1.377 . S
C91 N88 1.382 . S
C91 N89 1.371 . S
C91 C94 1.480 . S
C92 N89 1.372 . S
C92 N90 1.361 . S
C92 C100 1.457 . S
C93 N88 1.363 . S
C93 N90 1.377 . S
C93 C106 1.479 . S
C94 C91 1.480 . S
C94 C95 1.383 . S
C94 C99 1.385 . S
C95 H76 0.947 . S
C95 C94 1.383 . S
C95 C96 1.388 . S
C96 H77 0.946 . S
C96 C95 1.388 . S
C96 C97 1.384 . S
C97 C96 1.384 . S
C97 C98 1.377 . S
C98 H78 0.953 . S
C98 C97 1.377 . S
C98 C99 1.369 . S
C99 H79 0.945 . S
C99 C94 1.385 . S
C99 C98 1.369 . S
C100 C92 1.457 . S
C100 C101 1.372 . S
C100 C105 1.364 . S
C101 H80 0.952 . S
C101 C100 1.372 . S
C101 C102 1.389 . S
C102 H81 0.949 . S
C102 C101 1.389 . S
C102 C103 1.387 . S
C103 C102 1.387 . S
C103 C104 1.372 . S
C104 H82 0.950 . S
C104 C103 1.372 . S
C104 C105 1.379 . S
C105 H83 0.948 . S
C105 C100 1.364 . S
C105 C104 1.379 . S
C106 C75 1.383 . S
C106 C93 1.479 . S
C106 C107 1.398 . S
C107 C72 1.382 . S
C107 H84 0.951 . S
C107 C106 1.398 . S
C108 C109 1.384 . S
C108 H121 0.947 . S
C108 C143 1.382 . S
C109 C108 1.384 . S
C109 C110 1.378 . S
C110 C109 1.378 . S
C110 C111 1.378 . S
C110 H122 0.952 . S
C111 C110 1.378 . S
C111 H123 0.950 . S
C111 C142 1.383 . S
H112 C131 0.947 . S
H113 C132 0.946 . S
H114 C134 0.953 . S
H115 C135 0.945 . S
H116 C137 0.952 . S
H117 C138 0.949 . S
H118 C140 0.950 . S
H119 C141 0.948 . S
H120 C143 0.951 . S
H121 C108 0.947 . S
H122 C110 0.952 . S
H123 C111 0.950 . S
N124 C127 1.382 . S
N124 C129 1.363 . S
N125 C127 1.371 . S
N125 C128 1.372 . S
N126 C128 1.361 . S
N126 C129 1.377 . S
C127 N124 1.382 . S
C127 N125 1.371 . S
C127 C130 1.480 . S
C128 N125 1.372 . S
C128 N126 1.361 . S
C128 C136 1.457 . S
C129 N124 1.363 . S
C129 N126 1.377 . S
C129 C142 1.479 . S
C130 C127 1.480 . S
C130 C131 1.383 . S
C130 C135 1.385 . S
C131 H112 0.947 . S
C131 C130 1.383 . S
C131 C132 1.388 . S
C132 H113 0.946 . S
C132 C131 1.388 . S
C132 C133 1.384 . S
C133 C132 1.384 . S
C133 C134 1.377 . S
C134 H114 0.953 . S
C134 C133 1.377 . S
C134 C135 1.369 . S
C135 H115 0.945 . S
C135 C130 1.385 . S
C135 C134 1.369 . S
C136 C128 1.457 . S
C136 C137 1.372 . S
C136 C141 1.364 . S
C137 H116 0.952 . S
C137 C136 1.372 . S
C137 C138 1.389 . S
C138 H117 0.949 . S
C138 C137 1.389 . S
C138 C139 1.387 . S
C139 C138 1.387 . S
C139 C140 1.372 . S
C140 H118 0.950 . S
C140 C139 1.372 . S
C140 C141 1.379 . S
C141 H119 0.948 . S
C141 C136 1.364 . S
C141 C140 1.379 . S
C142 C111 1.383 . S
C142 C129 1.479 . S
C142 C143 1.398 . S
C143 C108 1.382 . S
C143 H120 0.951 . S
C143 C142 1.398 . S
C144 C145 1.384 . S
C144 H157 0.947 1_565 S
C144 C179 1.382 . S
C145 C144 1.384 . S
C145 C146 1.378 . S
C146 C145 1.378 . S
C146 C147 1.378 . S
C146 H158 0.952 . S
C147 C146 1.378 . S
C147 H159 0.950 . S
C147 C178 1.383 . S
H148 C167 0.947 . S
H149 C168 0.946 . S
H150 C170 0.953 . S
H151 C171 0.945 . S
H152 C173 0.952 . S
H153 C174 0.949 . S
H154 C176 0.950 1_545 S
H155 C177 0.948 . S
H156 C179 0.951 . S
H157 C144 0.947 1_545 S
H158 C146 0.952 . S
H159 C147 0.950 . S
N160 C163 1.382 . S
N160 C165 1.363 . S
N161 C163 1.371 . S
N161 C164 1.372 . S
N162 C164 1.361 . S
N162 C165 1.377 . S
C163 N160 1.382 . S
C163 N161 1.371 . S
C163 C166 1.480 . S
C164 N161 1.372 . S
C164 N162 1.361 . S
C164 C172 1.457 . S
C165 N160 1.363 . S
C165 N162 1.377 . S
C165 C178 1.479 . S
C166 C163 1.480 . S
C166 C167 1.383 . S
C166 C171 1.385 . S
C167 H148 0.947 . S
C167 C166 1.383 . S
C167 C168 1.388 . S
C168 H149 0.946 . S
C168 C167 1.388 . S
C168 C169 1.384 . S
C169 C168 1.384 . S
C169 C170 1.377 . S
C170 H150 0.953 . S
C170 C169 1.377 . S
C170 C171 1.369 . S
C171 H151 0.945 . S
C171 C166 1.385 . S
C171 C170 1.369 . S
C172 C164 1.457 . S
C172 C173 1.372 . S
C172 C177 1.364 . S
C173 H152 0.952 . S
C173 C172 1.372 . S
C173 C174 1.389 . S
C174 H153 0.949 . S
C174 C173 1.389 . S
C174 C175 1.387 . S
C175 C174 1.387 . S
C175 C176 1.372 . S
C176 H154 0.950 1_565 S
C176 C175 1.372 . S
C176 C177 1.379 . S
C177 H155 0.948 . S
C177 C172 1.364 . S
C177 C176 1.379 . S
C178 C147 1.383 . S
C178 C165 1.479 . S
C178 C179 1.398 . S
C179 C144 1.382 . S
C179 H156 0.951 . S
C179 C178 1.398 . S
C180 C181 1.384 . S
C180 H193 0.947 . S
C180 C215 1.382 . S
C181 C180 1.384 . S
C181 C182 1.378 . S
C182 C181 1.378 . S
C182 C183 1.378 . S
C182 H194 0.952 . S
C183 C182 1.378 . S
C183 H195 0.950 . S
C183 C214 1.383 . S
H184 C203 0.947 . S
H185 C204 0.946 . S
H186 C206 0.953 . S
H187 C207 0.945 . S
H188 C209 0.952 . S
H189 C210 0.949 . S
H190 C212 0.950 . S
H191 C213 0.948 . S
H192 C215 0.951 . S
H193 C180 0.947 . S
H194 C182 0.952 . S
H195 C183 0.950 . S
N196 C199 1.382 . S
N196 C201 1.363 . S
N197 C199 1.371 . S
N197 C200 1.372 . S
N198 C200 1.361 . S
N198 C201 1.377 . S
C199 N196 1.382 . S
C199 N197 1.371 . S
C199 C202 1.480 . S
C200 N197 1.372 . S
C200 N198 1.361 . S
C200 C208 1.457 . S
C201 N196 1.363 . S
C201 N198 1.377 . S
C201 C214 1.479 . S
C202 C199 1.480 . S
C202 C203 1.383 . S
C202 C207 1.385 . S
C203 H184 0.947 . S
C203 C202 1.383 . S
C203 C204 1.388 . S
C204 H185 0.946 . S
C204 C203 1.388 . S
C204 C205 1.384 . S
C205 C204 1.384 . S
C205 C206 1.377 . S
C206 H186 0.953 . S
C206 C205 1.377 . S
C206 C207 1.369 . S
C207 H187 0.945 . S
C207 C202 1.385 . S
C207 C206 1.369 . S
C208 C200 1.457 . S
C208 C209 1.372 . S
C208 C213 1.364 . S
C209 H188 0.952 . S
C209 C208 1.372 . S
C209 C210 1.389 . S
C210 H189 0.949 . S
C210 C209 1.389 . S
C210 C211 1.387 . S
C211 C210 1.387 . S
C211 C212 1.372 . S
C212 H190 0.950 . S
C212 C211 1.372 . S
C212 C213 1.379 . S
C213 H191 0.948 . S
C213 C208 1.364 . S
C213 C212 1.379 . S
C214 C183 1.383 . S
C214 C201 1.479 . S
C214 C215 1.398 . S
C215 C180 1.382 . S
C215 H192 0.951 . S
C215 C214 1.398 . S
C216 C217 1.384 . S
C216 H229 0.947 . S
C216 C251 1.382 . S
C217 C216 1.384 . S
C217 C218 1.378 . S
C218 C217 1.378 . S
C218 C219 1.378 . S
C218 H230 0.952 . S
C219 C218 1.378 . S
C219 H231 0.950 . S
C219 C250 1.383 . S
H220 C239 0.947 . S
H221 C240 0.946 . S
H222 C242 0.953 . S
H223 C243 0.945 . S
H224 C245 0.952 . S
H225 C246 0.949 . S
H226 C248 0.950 . S
H227 C249 0.948 . S
H228 C251 0.951 . S
H229 C216 0.947 . S
H230 C218 0.952 . S
H231 C219 0.950 . S
N232 C235 1.382 . S
N232 C237 1.363 . S
N233 C235 1.371 . S
N233 C236 1.372 . S
N234 C236 1.361 . S
N234 C237 1.377 . S
C235 N232 1.382 . S
C235 N233 1.371 . S
C235 C238 1.480 . S
C236 N233 1.372 . S
C236 N234 1.361 . S
C236 C244 1.457 . S
C237 N232 1.363 . S
C237 N234 1.377 . S
C237 C250 1.479 . S
C238 C235 1.480 . S
C238 C239 1.383 . S
C238 C243 1.385 . S
C239 H220 0.947 . S
C239 C238 1.383 . S
C239 C240 1.388 . S
C240 H221 0.946 . S
C240 C239 1.388 . S
C240 C241 1.384 . S
C241 C240 1.384 . S
C241 C242 1.377 . S
C242 H222 0.953 . S
C242 C241 1.377 . S
C242 C243 1.369 . S
C243 H223 0.945 . S
C243 C238 1.385 . S
C243 C242 1.369 . S
C244 C236 1.457 . S
C244 C245 1.372 . S
C244 C249 1.364 . S
C245 H224 0.952 . S
C245 C244 1.372 . S
C245 C246 1.389 . S
C246 H225 0.949 . S
C246 C245 1.389 . S
C246 C247 1.387 . S
C247 C246 1.387 . S
C247 C248 1.372 . S
C248 H226 0.950 . S
C248 C247 1.372 . S
C248 C249 1.379 . S
C249 H227 0.948 . S
C249 C244 1.364 . S
C249 C248 1.379 . S
C250 C219 1.383 . S
C250 C237 1.479 . S
C250 C251 1.398 . S
C251 C216 1.382 . S
C251 H228 0.951 . S
C251 C250 1.398 . S
C252 C253 1.384 . S
C252 H265 0.947 . S
C252 C287 1.382 . S
C253 C252 1.384 . S
C253 C254 1.378 . S
C254 C253 1.378 . S
C254 C255 1.378 . S
C254 H266 0.952 . S
C255 C254 1.378 . S
C255 H267 0.950 . S
C255 C286 1.383 . S
H256 C275 0.947 . S
H257 C276 0.946 . S
H258 C278 0.953 . S
H259 C279 0.945 . S
H260 C281 0.952 . S
H261 C282 0.949 . S
H262 C284 0.950 . S
H263 C285 0.948 . S
H264 C287 0.951 . S
H265 C252 0.947 . S
H266 C254 0.952 . S
H267 C255 0.950 . S
N268 C271 1.382 . S
N268 C273 1.363 . S
N269 C271 1.371 . S
N269 C272 1.372 . S
N270 C272 1.361 . S
N270 C273 1.377 . S
C271 N268 1.382 . S
C271 N269 1.371 . S
C271 C274 1.480 . S
C272 N269 1.372 . S
C272 N270 1.361 . S
C272 C280 1.457 . S
C273 N268 1.363 . S
C273 N270 1.377 . S
C273 C286 1.479 . S
C274 C271 1.480 . S
C274 C275 1.383 . S
C274 C279 1.385 . S
C275 H256 0.947 . S
C275 C274 1.383 . S
C275 C276 1.388 . S
C276 H257 0.946 . S
C276 C275 1.388 . S
C276 C277 1.384 . S
C277 C276 1.384 . S
C277 C278 1.377 . S
C278 H258 0.953 . S
C278 C277 1.377 . S
C278 C279 1.369 . S
C279 H259 0.945 . S
C279 C274 1.385 . S
C279 C278 1.369 . S
C280 C272 1.457 . S
C280 C281 1.372 . S
C280 C285 1.364 . S
C281 H260 0.952 . S
C281 C280 1.372 . S
C281 C282 1.389 . S
C282 H261 0.949 . S
C282 C281 1.389 . S
C282 C283 1.387 . S
C283 C282 1.387 . S
C283 C284 1.372 . S
C284 H262 0.950 . S
C284 C283 1.372 . S
C284 C285 1.379 . S
C285 H263 0.948 . S
C285 C280 1.364 . S
C285 C284 1.379 . S
C286 C255 1.383 . S
C286 C273 1.479 . S
C286 C287 1.398 . S
C287 C252 1.382 . S
C287 H264 0.951 . S
C287 C286 1.398 . S
O288 Zn289 1.953 . S
O288 C304 1.225 1_655 S
Zn289 O288 1.953 . S
Zn289 O290 1.949 1_655 S
Zn289 O296 1.919 . S
Zn289 O301 1.924 . S
O290 Zn289 1.949 1_455 S
O290 Zn291 1.923 1_445 S
O290 Zn292 1.950 . S
O290 Zn293 1.945 1_545 S
Zn291 O290 1.923 1_665 S
Zn291 O294 1.933 . S
Zn291 O297 1.941 1_565 S
Zn291 O298 1.965 1_665 S
Zn292 O290 1.950 . S
Zn292 O299 1.938 . S
Zn292 O300 1.881 1_545 S
Zn292 O310 1.953 . S
Zn293 O290 1.945 1_565 S
Zn293 O295 1.932 1_455 S
Zn293 O302 1.977 . S
Zn293 O303 1.910 1_455 S
O294 Zn291 1.933 . S
O294 C305 1.226 . S
O295 Zn293 1.932 1_655 S
O295 C305 1.307 . S
O296 Zn289 1.919 . S
O296 C307 1.253 . S
O297 Zn291 1.941 1_545 S
O297 C307 1.283 . S
O298 Zn291 1.965 1_445 S
O298 C306 1.303 . S
O299 Zn292 1.938 . S
O299 C306 1.247 . S
O300 Zn292 1.881 1_565 S
O300 C308 1.341 . S
O301 Zn289 1.924 . S
O301 C309 1.311 1_545 S
O302 Zn293 1.977 . S
O302 C308 1.272 . S
O303 Zn293 1.910 1_655 S
O303 C309 1.231 . S
C304 O288 1.225 1_455 S
C304 O310 1.298 . S
C305 O294 1.226 . S
C305 O295 1.307 . S
C306 O298 1.303 . S
C306 O299 1.247 . S
C307 O296 1.253 . S
C307 O297 1.283 . S
C308 O300 1.341 . S
C308 O302 1.272 . S
C309 O301 1.311 1_565 S
C309 O303 1.231 . S
O310 Zn292 1.953 . S
O310 C304 1.298 . S
O311 Zn312 1.953 . S
O311 C327 1.225 . S
Zn312 O311 1.953 . S
Zn312 O313 1.949 1_556 S
Zn312 O319 1.919 . S
Zn312 O324 1.924 1_556 S
O313 Zn312 1.949 1_554 S
O313 Zn314 1.923 1_545 S
O313 Zn315 1.950 . S
O313 Zn316 1.945 1_545 S
Zn314 O313 1.923 1_565 S
Zn314 O317 1.933 . S
Zn314 O320 1.941 1_554 S
Zn314 O321 1.965 1_554 S
Zn315 O313 1.950 . S
Zn315 O322 1.938 . S
Zn315 O323 1.906 . S
Zn315 O333 1.953 . S
Zn316 O313 1.945 1_565 S
Zn316 O318 1.932 . S
Zn316 O325 1.977 1_565 S
Zn316 O326 1.910 1_565 S
O317 Zn314 1.933 . S
O317 C328 1.226 . S
O318 Zn316 1.932 . S
O318 C328 1.307 . S
O319 Zn312 1.919 . S
O319 C330 1.253 1_545 S
O320 Zn314 1.941 1_556 S
O320 C330 1.283 . S
O321 Zn314 1.965 1_556 S
O321 C329 1.306 . S
O322 Zn315 1.938 . S
O322 C329 1.224 1_544 S
O323 Zn315 1.906 . S
O323 C331 1.304 . S
O324 Zn312 1.924 1_554 S
O324 C332 1.311 . S
O325 Zn316 1.977 1_545 S
O325 C331 1.272 . S
O326 Zn316 1.910 1_545 S
O326 C332 1.231 . S
C327 O311 1.225 . S
C327 O333 1.298 1_556 S
C328 O317 1.226 . S
C328 O318 1.307 . S
C329 O321 1.306 . S
C329 O322 1.224 1_566 S
C330 O319 1.253 1_565 S
C330 O320 1.283 . S
C331 O323 1.304 . S
C331 O325 1.272 . S
C332 O324 1.311 . S
C332 O326 1.231 . S
O333 Zn315 1.953 . S
O333 C327 1.298 1_554 S
O334 Zn335 1.953 . S
O334 C350 1.225 . S
Zn335 O334 1.953 . S
Zn335 O336 1.949 . S
Zn335 O342 1.919 . S
Zn335 O347 1.924 . S
O336 Zn335 1.949 . S
O336 Zn337 1.923 . S
O336 Zn338 1.950 . S
O336 Zn339 1.945 . S
Zn337 O336 1.923 . S
Zn337 O340 1.933 . S
Zn337 O343 1.941 . S
Zn337 O344 1.965 . S
Zn338 O336 1.950 . S
Zn338 O345 1.938 . S
Zn338 O346 1.906 . S
Zn338 O356 1.953 . S
Zn339 O336 1.945 . S
Zn339 O341 1.932 . S
Zn339 O348 1.977 . S
Zn339 O349 1.910 . S
O340 Zn337 1.933 . S
O340 C351 1.226 . S
O341 Zn339 1.932 . S
O341 C351 1.307 . S
O342 Zn335 1.919 . S
O342 C353 1.253 . S
O343 Zn337 1.941 . S
O343 C353 1.283 . S
O344 Zn337 1.965 . S
O344 C352 1.303 . S
O345 Zn338 1.938 . S
O345 C352 1.247 . S
O346 Zn338 1.906 . S
O346 C354 1.304 . S
O347 Zn335 1.924 . S
O347 C355 1.311 . S
O348 Zn339 1.977 . S
O348 C354 1.272 . S
O349 Zn339 1.910 . S
O349 C355 1.231 . S
C350 O334 1.225 . S
C350 O356 1.298 . S
C351 O340 1.226 . S
C351 O341 1.307 . S
C352 O344 1.303 . S
C352 O345 1.247 . S
C353 O342 1.253 . S
C353 O343 1.283 . S
C354 O346 1.304 . S
C354 O348 1.272 . S
C355 O347 1.311 . S
C355 O349 1.231 . S
O356 Zn338 1.953 . S
O356 C350 1.298 . S
O357 Zn358 1.953 . S
O357 C373 1.225 . S
Zn358 O357 1.953 . S
Zn358 O359 1.949 1_655 S
Zn358 O365 1.919 . S
Zn358 O370 1.924 . S
O359 Zn358 1.949 1_455 S
O359 Zn360 1.923 1_454 S
O359 Zn361 1.950 . S
O359 Zn362 1.945 1_554 S
Zn360 O359 1.923 1_656 S
Zn360 O363 1.933 1_655 S
Zn360 O366 1.941 . S
Zn360 O367 1.965 . S
Zn361 O359 1.950 . S
Zn361 O368 1.938 . S
Zn361 O369 1.906 . S
Zn361 O379 1.953 . S
Zn362 O359 1.945 1_556 S
Zn362 O364 1.932 . S
Zn362 O371 1.977 1_556 S
Zn362 O372 1.910 1_556 S
O363 Zn360 1.933 1_455 S
O363 C374 1.226 . S
O364 Zn362 1.932 . S
O364 C374 1.307 . S
O365 Zn358 1.919 . S
O365 C376 1.253 1_554 S
O366 Zn360 1.941 . S
O366 C376 1.283 . S
O367 Zn360 1.965 . S
O367 C375 1.303 . S
O368 Zn361 1.938 . S
O368 C375 1.247 1_454 S
O369 Zn361 1.906 . S
O369 C377 1.304 . S
O370 Zn358 1.924 . S
O370 C378 1.311 1_655 S
O371 Zn362 1.977 1_554 S
O371 C377 1.272 . S
O372 Zn362 1.910 1_554 S
O372 C378 1.231 . S
C373 O357 1.225 . S
C373 O379 1.298 1_655 S
C374 O363 1.226 . S
C374 O364 1.307 . S
C375 O367 1.303 . S
C375 O368 1.247 1_656 S
C376 O365 1.253 1_556 S
C376 O366 1.283 . S
C377 O369 1.304 . S
C377 O371 1.272 . S
C378 O370 1.311 1_455 S
C378 O372 1.231 . S
O379 Zn361 1.953 . S
O379 C373 1.298 1_455 S
H380 C392 0.930 . S
H381 C394 0.930 . S
H382 C395 0.930 . S
H383 C399 0.959 . S
H384 C399 0.959 . S
H385 C399 0.961 . S
H386 C400 0.960 . S
H387 C400 0.979 . S
H388 C400 0.959 . S
H389 C403 0.929 . S
H390 C404 0.931 . S
H391 C406 0.930 . S
C392 H380 0.930 . S
C392 C393 1.399 . S
C392 C397 1.399 . S
C393 C392 1.399 . S
C393 C394 1.376 . S
C394 H381 0.930 . S
C394 C393 1.376 . S
C394 C395 1.388 . S
C395 H382 0.930 . S
C395 C394 1.388 . S
C395 C396 1.390 . S
C396 C395 1.390 . S
C396 C397 1.394 . S
C396 C402 1.465 . S
C397 C392 1.399 . S
C397 C396 1.394 . S
C397 C398 1.516 . S
C398 C397 1.516 . S
C398 C399 1.502 . S
C398 C400 1.561 . S
C398 C401 1.526 . S
C399 H383 0.959 . S
C399 H384 0.959 . S
C399 H385 0.961 . S
C399 C398 1.502 . S
C400 H386 0.960 . S
C400 H387 0.979 . S
C400 H388 0.959 . S
C400 C398 1.561 . S
C401 C398 1.526 . S
C401 C402 1.396 . S
C401 C406 1.390 . S
C402 C396 1.465 . S
C402 C401 1.396 . S
C402 C403 1.399 . S
C403 H389 0.929 . S
C403 C402 1.399 . S
C403 C404 1.385 . S
C404 H390 0.931 . S
C404 C403 1.385 . S
C404 C405 1.389 . S
C405 C404 1.389 . S
C405 C406 1.387 . S
C406 H391 0.930 . S
C406 C401 1.390 . S
C406 C405 1.387 . S
H407 C419 0.930 . S
H408 C421 0.930 . S
H409 C422 0.930 . S
H410 C426 0.959 . S
H411 C426 0.959 . S
H412 C426 0.961 . S
H413 C427 0.960 1_545 S
H414 C427 0.961 1_545 S
H415 C427 0.959 . S
H416 C430 0.929 . S
H417 C431 0.931 . S
H418 C433 0.930 . S
C419 H407 0.930 . S
C419 C420 1.399 . S
C419 C424 1.399 . S
C420 C419 1.399 . S
C420 C421 1.376 . S
C421 H408 0.930 . S
C421 C420 1.376 . S
C421 C422 1.388 . S
C422 H409 0.930 . S
C422 C421 1.388 . S
C422 C423 1.390 . S
C423 C422 1.390 . S
C423 C424 1.394 . S
C423 C429 1.465 . S
C424 C419 1.399 . S
C424 C423 1.394 . S
C424 C425 1.516 . S
C425 C424 1.516 . S
C425 C426 1.502 . S
C425 C427 1.561 . S
C425 C428 1.526 . S
C426 H410 0.959 . S
C426 H411 0.959 . S
C426 H412 0.961 . S
C426 C425 1.502 . S
C427 H413 0.960 1_565 S
C427 H414 0.961 1_565 S
C427 H415 0.959 . S
C427 C425 1.561 . S
C428 C425 1.526 . S
C428 C429 1.396 . S
C428 C433 1.390 . S
C429 C423 1.465 . S
C429 C428 1.396 . S
C429 C430 1.399 . S
C430 H416 0.929 . S
C430 C429 1.399 . S
C430 C431 1.385 . S
C431 H417 0.931 . S
C431 C430 1.385 . S
C431 C432 1.389 . S
C432 C431 1.389 . S
C432 C433 1.387 . S
C433 H418 0.930 . S
C433 C428 1.390 . S
C433 C432 1.387 . S
H434 C446 0.930 . S
H435 C448 0.930 . S
H436 C449 0.930 . S
H437 C453 0.959 . S
H438 C453 0.959 . S
H439 C453 0.961 . S
H440 C454 0.960 . S
H441 C454 0.961 . S
H442 C454 0.959 . S
H443 C457 0.929 . S
H444 C458 0.931 . S
H445 C460 0.930 . S
C446 H434 0.930 . S
C446 C447 1.399 . S
C446 C451 1.399 . S
C447 C446 1.399 . S
C447 C448 1.376 . S
C448 H435 0.930 . S
C448 C447 1.376 . S
C448 C449 1.388 . S
C449 H436 0.930 . S
C449 C448 1.388 . S
C449 C450 1.390 . S
C450 C449 1.390 . S
C450 C451 1.394 . S
C450 C456 1.465 . S
C451 C446 1.399 . S
C451 C450 1.394 . S
C451 C452 1.516 . S
C452 C451 1.516 . S
C452 C453 1.502 . S
C452 C454 1.561 . S
C452 C455 1.526 . S
C453 H437 0.959 . S
C453 H438 0.959 . S
C453 H439 0.961 . S
C453 C452 1.502 . S
C454 H440 0.960 . S
C454 H441 0.961 . S
C454 H442 0.959 . S
C454 C452 1.561 . S
C455 C452 1.526 . S
C455 C456 1.396 . S
C455 C460 1.390 . S
C456 C450 1.465 . S
C456 C455 1.396 . S
C456 C457 1.399 . S
C457 H443 0.929 . S
C457 C456 1.399 . S
C457 C458 1.385 . S
C458 H444 0.931 . S
C458 C457 1.385 . S
C458 C459 1.389 . S
C459 C458 1.389 . S
C459 C460 1.387 . S
C460 H445 0.930 . S
C460 C455 1.390 . S
C460 C459 1.387 . S
H461 C473 0.930 . S
H462 C475 0.930 . S
H463 C476 0.930 . S
H464 C480 0.959 . S
H465 C480 0.959 . S
H466 C480 0.961 . S
H467 C481 0.960 . S
H468 C481 0.961 . S
H469 C481 0.959 . S
H470 C484 0.929 . S
H471 C485 0.931 . S
H472 C487 0.930 . S
C473 H461 0.930 . S
C473 C474 1.399 . S
C473 C478 1.399 . S
C474 C473 1.399 . S
C474 C475 1.376 . S
C475 H462 0.930 . S
C475 C474 1.376 . S
C475 C476 1.388 . S
C476 H463 0.930 . S
C476 C475 1.388 . S
C476 C477 1.390 . S
C477 C476 1.390 . S
C477 C478 1.394 . S
C477 C483 1.465 . S
C478 C473 1.399 . S
C478 C477 1.394 . S
C478 C479 1.516 . S
C479 C478 1.516 . S
C479 C480 1.502 . S
C479 C481 1.561 . S
C479 C482 1.526 . S
C480 H464 0.959 . S
C480 H465 0.959 . S
C480 H466 0.961 . S
C480 C479 1.502 . S
C481 H467 0.960 . S
C481 H468 0.961 . S
C481 H469 0.959 . S
C481 C479 1.561 . S
C482 C479 1.526 . S
C482 C483 1.396 . S
C482 C487 1.390 . S
C483 C477 1.465 . S
C483 C482 1.396 . S
C483 C484 1.399 . S
C484 H470 0.929 . S
C484 C483 1.399 . S
C484 C485 1.385 . S
C485 H471 0.931 . S
C485 C484 1.385 . S
C485 C486 1.389 . S
C486 C485 1.389 . S
C486 C487 1.387 . S
C487 H472 0.930 . S
C487 C482 1.390 . S
C487 C486 1.387 . S
H488 C500 0.930 . S
H489 C502 0.930 . S
H490 C503 0.930 . S
H491 C507 0.959 . S
H492 C507 0.959 . S
H493 C507 0.961 . S
H494 C508 0.960 . S
H495 C508 0.961 . S
H496 C508 0.959 . S
H497 C511 0.929 . S
H498 C512 0.943 . S
H499 C514 0.930 . S
C500 H488 0.930 . S
C500 C501 1.399 . S
C500 C505 1.399 . S
C501 C500 1.399 . S
C501 C502 1.376 . S
C502 H489 0.930 . S
C502 C501 1.376 . S
C502 C503 1.388 . S
C503 H490 0.930 . S
C503 C502 1.388 . S
C503 C504 1.390 . S
C504 C503 1.390 . S
C504 C505 1.394 . S
C504 C510 1.465 . S
C505 C500 1.399 . S
C505 C504 1.394 . S
C505 C506 1.516 . S
C506 C505 1.516 . S
C506 C507 1.502 . S
C506 C508 1.561 . S
C506 C509 1.526 . S
C507 H491 0.959 . S
C507 H492 0.959 . S
C507 H493 0.961 . S
C507 C506 1.502 . S
C508 H494 0.960 . S
C508 H495 0.961 . S
C508 H496 0.959 . S
C508 C506 1.561 . S
C509 C506 1.526 . S
C509 C510 1.396 . S
C509 C514 1.390 . S
C510 C504 1.465 . S
C510 C509 1.396 . S
C510 C511 1.399 . S
C511 H497 0.929 . S
C511 C510 1.399 . S
C511 C512 1.385 . S
C512 H498 0.943 . S
C512 C511 1.385 . S
C512 C513 1.389 . S
C513 C512 1.389 . S
C513 C514 1.387 . S
C514 H499 0.930 . S
C514 C509 1.390 . S
C514 C513 1.387 . S
H515 C527 0.930 . S
H516 C529 0.930 . S
H517 C530 0.930 . S
H518 C534 0.959 . S
H519 C534 0.959 . S
H520 C534 0.961 . S
H521 C535 0.960 . S
H522 C535 0.961 . S
H523 C535 0.959 . S
H524 C538 0.951 . S
H525 C539 0.931 1_545 S
H526 C541 0.930 . S
C527 H515 0.930 . S
C527 C528 1.399 . S
C527 C532 1.399 . S
C528 C527 1.399 . S
C528 C529 1.376 . S
C529 H516 0.930 . S
C529 C528 1.376 . S
C529 C530 1.388 . S
C530 H517 0.930 . S
C530 C529 1.388 . S
C530 C531 1.390 . S
C531 C530 1.390 . S
C531 C532 1.394 . S
C531 C537 1.465 . S
C532 C527 1.399 . S
C532 C531 1.394 . S
C532 C533 1.516 . S
C533 C532 1.516 . S
C533 C534 1.502 . S
C533 C535 1.561 . S
C533 C536 1.526 . S
C534 H518 0.959 . S
C534 H519 0.959 . S
C534 H520 0.961 . S
C534 C533 1.502 . S
C535 H521 0.960 . S
C535 H522 0.961 . S
C535 H523 0.959 . S
C535 C533 1.561 . S
C536 C533 1.526 . S
C536 C537 1.396 . S
C536 C541 1.390 . S
C537 C531 1.465 . S
C537 C536 1.396 . S
C537 C538 1.399 . S
C538 H524 0.951 . S
C538 C537 1.399 . S
C538 C539 1.385 . S
C539 H525 0.931 1_565 S
C539 C538 1.385 . S
C539 C540 1.389 . S
C540 C539 1.389 . S
C540 C541 1.387 . S
C541 H526 0.930 . S
C541 C536 1.390 . S
C541 C540 1.387 . S
H542 C554 0.930 . S
H543 C556 0.930 . S
H544 C557 0.930 . S
H545 C561 0.959 . S
H546 C561 0.959 . S
H547 C561 0.961 . S
H548 C562 0.960 . S
H549 C562 0.961 . S
H550 C562 0.959 . S
H551 C565 0.929 . S
H552 C566 0.931 . S
H553 C568 0.930 . S
C554 H542 0.930 . S
C554 C555 1.399 . S
C554 C559 1.399 . S
C555 C554 1.399 . S
C555 C556 1.376 . S
C556 H543 0.930 . S
C556 C555 1.376 . S
C556 C557 1.388 . S
C557 H544 0.930 . S
C557 C556 1.388 . S
C557 C558 1.390 . S
C558 C557 1.390 . S
C558 C559 1.394 . S
C558 C564 1.465 . S
C559 C554 1.399 . S
C559 C558 1.394 . S
C559 C560 1.516 . S
C560 C559 1.516 . S
C560 C561 1.502 1_556 S
C560 C562 1.561 . S
C560 C563 1.526 . S
C561 H545 0.959 . S
C561 H546 0.959 . S
C561 H547 0.961 . S
C561 C560 1.502 1_554 S
C562 H548 0.960 . S
C562 H549 0.961 . S
C562 H550 0.959 . S
C562 C560 1.561 . S
C563 C560 1.526 . S
C563 C564 1.396 . S
C563 C568 1.390 . S
C564 C558 1.465 . S
C564 C563 1.396 . S
C564 C565 1.399 . S
C565 H551 0.929 . S
C565 C564 1.399 . S
C565 C566 1.385 . S
C566 H552 0.931 . S
C566 C565 1.385 . S
C566 C567 1.389 . S
C567 C566 1.389 . S
C567 C568 1.387 . S
C568 H553 0.930 . S
C568 C563 1.390 . S
C568 C567 1.387 . S
H569 C581 0.930 . S
H570 C583 0.930 . S
H571 C584 0.930 . S
H572 C588 0.959 . S
H573 C588 0.959 . S
H574 C588 0.961 . S
H575 C589 0.960 . S
H576 C589 0.961 . S
H577 C589 0.959 . S
H578 C592 0.929 . S
H579 C593 0.931 . S
H580 C595 0.930 . S
C581 H569 0.930 . S
C581 C582 1.399 . S
C581 C586 1.399 . S
C582 C581 1.399 . S
C582 C583 1.376 . S
C583 H570 0.930 . S
C583 C582 1.376 . S
C583 C584 1.388 . S
C584 H571 0.930 . S
C584 C583 1.388 . S
C584 C585 1.390 . S
C585 C584 1.390 . S
C585 C586 1.394 . S
C585 C591 1.465 . S
C586 C581 1.399 . S
C586 C585 1.394 . S
C586 C587 1.516 . S
C587 C586 1.516 . S
C587 C588 1.502 . S
C587 C589 1.561 . S
C587 C590 1.526 . S
C588 H572 0.959 . S
C588 H573 0.959 . S
C588 H574 0.961 . S
C588 C587 1.502 . S
C589 H575 0.960 . S
C589 H576 0.961 . S
C589 H577 0.959 . S
C589 C587 1.561 . S
C590 C587 1.526 . S
C590 C591 1.396 . S
C590 C595 1.390 . S
C591 C585 1.465 . S
C591 C590 1.396 . S
C591 C592 1.399 . S
C592 H578 0.929 . S
C592 C591 1.399 . S
C592 C593 1.385 . S
C593 H579 0.931 . S
C593 C592 1.385 . S
C593 C594 1.389 . S
C594 C593 1.389 . S
C594 C595 1.387 . S
C595 H580 0.930 . S
C595 C590 1.390 . S
C595 C594 1.387 . S
H596 C608 0.930 . S
H597 C610 0.930 . S
H598 C611 0.930 . S
H599 C615 0.959 . S
H600 C615 0.959 . S
H601 C615 0.961 . S
H602 C616 0.960 . S
H603 C616 0.961 1_556 S
H604 C616 0.959 . S
H605 C619 0.929 . S
H606 C620 0.931 . S
H607 C622 0.930 . S
C608 H596 0.930 . S
C608 C609 1.399 . S
C608 C613 1.399 . S
C609 C608 1.399 . S
C609 C610 1.376 . S
C610 H597 0.930 . S
C610 C609 1.376 . S
C610 C611 1.388 . S
C611 H598 0.930 . S
C611 C610 1.388 . S
C611 C612 1.390 . S
C612 C611 1.390 . S
C612 C613 1.394 . S
C612 C618 1.465 . S
C613 C608 1.399 . S
C613 C612 1.394 . S
C613 C614 1.516 . S
C614 C613 1.516 . S
C614 C615 1.502 . S
C614 C616 1.561 . S
C614 C617 1.526 . S
C615 H599 0.959 . S
C615 H600 0.959 . S
C615 H601 0.961 . S
C615 C614 1.502 . S
C616 H602 0.960 . S
C616 H603 0.961 1_554 S
C616 H604 0.959 . S
C616 C614 1.561 . S
C617 C614 1.526 . S
C617 C618 1.396 . S
C617 C622 1.390 . S
C618 C612 1.465 . S
C618 C617 1.396 . S
C618 C619 1.399 . S
C619 H605 0.929 . S
C619 C618 1.399 . S
C619 C620 1.385 . S
C620 H606 0.931 . S
C620 C619 1.385 . S
C620 C621 1.389 . S
C621 C620 1.389 . S
C621 C622 1.387 . S
C622 H607 0.930 . S
C622 C617 1.390 . S
C622 C621 1.387 . S
H623 C635 0.930 . S
H624 C637 0.930 . S
H625 C638 0.930 . S
H626 C642 0.966 . S
H627 C642 0.959 . S
H628 C642 0.961 . S
H629 C643 0.960 . S
H630 C643 0.961 . S
H631 C643 0.959 . S
H632 C646 0.929 . S
H633 C647 0.931 . S
H634 C649 0.930 1_554 S
C635 H623 0.930 . S
C635 C636 1.399 . S
C635 C640 1.399 . S
C636 C635 1.399 . S
C636 C637 1.376 . S
C637 H624 0.930 . S
C637 C636 1.376 . S
C637 C638 1.388 . S
C638 H625 0.930 . S
C638 C637 1.388 . S
C638 C639 1.390 . S
C639 C638 1.390 . S
C639 C640 1.394 . S
C639 C645 1.465 . S
C640 C635 1.399 . S
C640 C639 1.394 . S
C640 C641 1.516 . S
C641 C640 1.516 . S
C641 C642 1.502 1_556 S
C641 C643 1.561 1_556 S
C641 C644 1.526 . S
C642 H626 0.966 . S
C642 H627 0.959 . S
C642 H628 0.961 . S
C642 C641 1.502 1_554 S
C643 H629 0.960 . S
C643 H630 0.961 . S
C643 H631 0.959 . S
C643 C641 1.561 1_554 S
C644 C641 1.526 . S
C644 C645 1.396 . S
C644 C649 1.390 . S
C645 C639 1.465 . S
C645 C644 1.396 . S
C645 C646 1.399 . S
C646 H632 0.929 . S
C646 C645 1.399 . S
C646 C647 1.385 . S
C647 H633 0.931 . S
C647 C646 1.385 . S
C647 C648 1.389 . S
C648 C647 1.389 . S
C648 C649 1.387 . S
C649 H634 0.930 1_556 S
C649 C644 1.390 . S
C649 C648 1.387 . S
H650 C662 0.930 . S
H651 C664 0.930 . S
H652 C665 0.930 . S
H653 C669 0.959 . S
H654 C669 0.959 . S
H655 C669 0.961 . S
H656 C670 0.960 . S
H657 C670 0.961 . S
H658 C670 0.959 . S
H659 C673 0.947 . S
H660 C674 0.931 1_455 S
H661 C676 0.930 . S
C662 H650 0.930 . S
C662 C663 1.399 . S
C662 C667 1.399 . S
C663 C662 1.399 . S
C663 C664 1.376 . S
C664 H651 0.930 . S
C664 C663 1.376 . S
C664 C665 1.388 . S
C665 H652 0.930 . S
C665 C664 1.388 . S
C665 C666 1.390 . S
C666 C665 1.390 . S
C666 C667 1.394 . S
C666 C672 1.465 . S
C667 C662 1.399 . S
C667 C666 1.394 . S
C667 C668 1.516 . S
C668 C667 1.516 . S
C668 C669 1.502 . S
C668 C670 1.561 . S
C668 C671 1.526 . S
C669 H653 0.959 . S
C669 H654 0.959 . S
C669 H655 0.961 . S
C669 C668 1.502 . S
C670 H656 0.960 . S
C670 H657 0.961 . S
C670 H658 0.959 . S
C670 C668 1.561 . S
C671 C668 1.526 . S
C671 C672 1.396 . S
C671 C676 1.390 . S
C672 C666 1.465 . S
C672 C671 1.396 . S
C672 C673 1.399 . S
C673 H659 0.947 . S
C673 C672 1.399 . S
C673 C674 1.385 . S
C674 H660 0.931 1_655 S
C674 C673 1.385 . S
C674 C675 1.389 . S
C675 C674 1.389 . S
C675 C676 1.387 . S
C676 H661 0.930 . S
C676 C671 1.390 . S
C676 C675 1.387 . S
H677 C689 0.930 . S
H678 C691 0.930 . S
H679 C692 0.930 . S
H680 C696 0.959 . S
H681 C696 0.959 . S
H682 C696 0.961 . S
H683 C697 0.960 . S
H684 C697 0.961 . S
H685 C697 0.959 . S
H686 C700 0.929 . S
H687 C701 0.931 . S
H688 C703 0.930 . S
C689 H677 0.930 . S
C689 C690 1.399 . S
C689 C694 1.399 . S
C690 C689 1.399 . S
C690 C691 1.376 . S
C691 H678 0.930 . S
C691 C690 1.376 . S
C691 C692 1.388 . S
C692 H679 0.930 . S
C692 C691 1.388 . S
C692 C693 1.390 . S
C693 C692 1.390 . S
C693 C694 1.394 . S
C693 C699 1.465 . S
C694 C689 1.399 . S
C694 C693 1.394 . S
C694 C695 1.516 . S
C695 C694 1.516 . S
C695 C696 1.502 . S
C695 C697 1.561 . S
C695 C698 1.526 . S
C696 H680 0.959 . S
C696 H681 0.959 . S
C696 H682 0.961 . S
C696 C695 1.502 . S
C697 H683 0.960 . S
C697 H684 0.961 . S
C697 H685 0.959 . S
C697 C695 1.561 . S
C698 C695 1.526 . S
C698 C699 1.396 . S
C698 C703 1.390 . S
C699 C693 1.465 . S
C699 C698 1.396 . S
C699 C700 1.399 . S
C700 H686 0.929 . S
C700 C699 1.399 . S
C700 C701 1.385 . S
C701 H687 0.931 . S
C701 C700 1.385 . S
C701 C702 1.389 . S
C702 C701 1.389 . S
C702 C703 1.387 . S
C703 H688 0.930 . S
C703 C698 1.390 . S
C703 C702 1.387 . S
H704 C716 0.930 . S
H705 C718 0.930 . S
H706 C719 0.930 . S
H707 C723 0.959 . S
H708 C723 0.959 . S
H709 C723 0.961 . S
H710 C724 0.960 . S
H711 C724 0.961 . S
H712 C724 0.959 . S
H713 C727 0.929 . S
H714 C728 0.931 . S
H715 C730 0.930 . S
C716 H704 0.930 . S
C716 C717 1.399 . S
C716 C721 1.399 . S
C717 C716 1.399 . S
C717 C718 1.376 1_565 S
C718 H705 0.930 . S
C718 C717 1.376 1_545 S
C718 C719 1.388 . S
C719 H706 0.930 . S
C719 C718 1.388 . S
C719 C720 1.390 . S
C720 C719 1.390 . S
C720 C721 1.394 1_545 S
C720 C726 1.465 . S
C721 C716 1.399 . S
C721 C720 1.394 1_565 S
C721 C722 1.516 . S
C722 C721 1.516 . S
C722 C723 1.502 1_655 S
C722 C724 1.561 . S
C722 C725 1.526 . S
C723 H707 0.959 . S
C723 H708 0.959 . S
C723 H709 0.961 . S
C723 C722 1.502 1_455 S
C724 H710 0.960 . S
C724 H711 0.961 . S
C724 H712 0.959 . S
C724 C722 1.561 . S
C725 C722 1.526 . S
C725 C726 1.396 1_565 S
C725 C730 1.390 . S
C726 C720 1.465 . S
C726 C725 1.396 1_545 S
C726 C727 1.399 . S
C727 H713 0.929 . S
C727 C726 1.399 . S
C727 C728 1.385 . S
C728 H714 0.931 . S
C728 C727 1.385 . S
C728 C729 1.389 . S
C729 C728 1.389 . S
C729 C730 1.387 1_545 S
C730 H715 0.930 . S
C730 C725 1.390 . S
C730 C729 1.387 1_565 S
H731 C743 0.930 1_565 S
H732 C745 0.930 . S
H733 C746 0.930 . S
H734 C750 0.959 . S
H735 C750 0.959 . S
H736 C750 0.961 . S
H737 C751 0.960 . S
H738 C751 0.961 . S
H739 C751 0.959 . S
H740 C754 0.929 . S
H741 C755 0.931 . S
H742 C757 0.930 . S
C743 H731 0.930 1_545 S
C743 C744 1.399 . S
C743 C748 1.399 . S
C744 C743 1.399 . S
C744 C745 1.376 . S
C745 H732 0.930 . S
C745 C744 1.376 . S
C745 C746 1.388 . S
C746 H733 0.930 . S
C746 C745 1.388 . S
C746 C747 1.390 . S
C747 C746 1.390 . S
C747 C748 1.394 . S
C747 C753 1.465 . S
C748 C743 1.399 . S
C748 C747 1.394 . S
C748 C749 1.516 1_545 S
C749 C748 1.516 1_565 S
C749 C750 1.502 . S
C749 C751 1.561 . S
C749 C752 1.526 1_565 S
C750 H734 0.959 . S
C750 H735 0.959 . S
C750 H736 0.961 . S
C750 C749 1.502 . S
C751 H737 0.960 . S
C751 H738 0.961 . S
C751 H739 0.959 . S
C751 C749 1.561 . S
C752 C749 1.526 1_545 S
C752 C753 1.396 . S
C752 C757 1.390 1_545 S
C753 C747 1.465 . S
C753 C752 1.396 . S
C753 C754 1.399 . S
C754 H740 0.929 . S
C754 C753 1.399 . S
C754 C755 1.385 . S
C755 H741 0.931 . S
C755 C754 1.385 . S
C755 C756 1.389 . S
C756 C755 1.389 . S
C756 C757 1.387 1_545 S
C757 H742 0.930 . S
C757 C752 1.390 1_565 S
C757 C756 1.387 1_565 S
H758 C770 0.930 . S
H759 C772 0.930 . S
H760 C773 0.930 . S
H761 C777 0.959 . S
H762 C777 0.959 . S
H763 C777 0.961 . S
H764 C778 0.960 . S
H765 C778 0.961 . S
H766 C778 0.959 . S
H767 C781 0.929 . S
H768 C782 0.931 . S
H769 C784 0.930 . S
C770 H758 0.930 . S
C770 C771 1.399 . S
C770 C775 1.399 . S
C771 C770 1.399 . S
C771 C772 1.376 . S
C772 H759 0.930 . S
C772 C771 1.376 . S
C772 C773 1.388 . S
C773 H760 0.930 . S
C773 C772 1.388 . S
C773 C774 1.390 . S
C774 C773 1.390 . S
C774 C775 1.394 . S
C774 C780 1.465 . S
C775 C770 1.399 . S
C775 C774 1.394 . S
C775 C776 1.516 . S
C776 C775 1.516 . S
C776 C777 1.502 . S
C776 C778 1.561 . S
C776 C779 1.526 . S
C777 H761 0.959 . S
C777 H762 0.959 . S
C777 H763 0.961 . S
C777 C776 1.502 . S
C778 H764 0.960 . S
C778 H765 0.961 . S
C778 H766 0.959 . S
C778 C776 1.561 . S
C779 C776 1.526 . S
C779 C780 1.396 . S
C779 C784 1.390 . S
C780 C774 1.465 . S
C780 C779 1.396 . S
C780 C781 1.399 . S
C781 H767 0.929 . S
C781 C780 1.399 . S
C781 C782 1.385 . S
C782 H768 0.931 . S
C782 C781 1.385 . S
C782 C783 1.389 . S
C783 C782 1.389 . S
C783 C784 1.387 . S
C784 H769 0.930 . S
C784 C779 1.390 . S
C784 C783 1.387 . S
H785 C797 0.930 . S
H786 C799 0.930 . S
H787 C800 0.930 . S
H788 C804 0.976 . S
H789 C804 0.959 . S
H790 C804 0.961 . S
H791 C805 0.974 . S
H792 C805 0.984 . S
H793 C805 0.937 1_455 S
H794 C808 0.929 . S
H795 C809 0.931 . S
H796 C811 0.930 . S
C797 H785 0.930 . S
C797 C798 1.399 . S
C797 C802 1.399 . S
C798 C797 1.399 . S
C798 C799 1.376 . S
C799 H786 0.930 . S
C799 C798 1.376 . S
C799 C800 1.388 . S
C800 H787 0.930 . S
C800 C799 1.388 . S
C800 C801 1.390 . S
C801 C800 1.390 . S
C801 C802 1.394 . S
C801 C807 1.465 . S
C802 C797 1.399 . S
C802 C801 1.394 . S
C802 C803 1.516 . S
C803 C802 1.516 . S
C803 C804 1.502 1_455 S
C803 C805 1.548 1_455 S
C803 C806 1.526 . S
C804 H788 0.976 . S
C804 H789 0.959 . S
C804 H790 0.961 . S
C804 C803 1.502 1_655 S
C805 H791 0.974 . S
C805 H792 0.984 . S
C805 H793 0.937 1_655 S
C805 C803 1.548 1_655 S
C806 C803 1.526 . S
C806 C807 1.396 . S
C806 C811 1.390 . S
C807 C801 1.465 . S
C807 C806 1.396 . S
C807 C808 1.399 . S
C808 H794 0.929 . S
C808 C807 1.399 . S
C808 C809 1.385 . S
C809 H795 0.931 . S
C809 C808 1.385 . S
C809 C810 1.389 . S
C810 C809 1.389 . S
C810 C811 1.387 . S
C811 H796 0.930 . S
C811 C806 1.390 . S
C811 C810 1.387 . S
H812 C824 0.930 1_545 S
H813 C826 0.930 1_554 S
H814 C827 0.930 . S
H815 C831 0.959 . S
H816 C831 0.959 . S
H817 C831 0.961 . S
H818 C832 0.963 . S
H819 C832 0.961 1_545 S
H820 C832 0.959 . S
H821 C835 0.929 . S
H822 C836 0.931 . S
H823 C838 0.930 . S
C824 H812 0.930 1_565 S
C824 C825 1.399 . S
C824 C829 1.399 . S
C825 C824 1.399 . S
C825 C826 1.376 . S
C826 H813 0.930 1_556 S
C826 C825 1.376 . S
C826 C827 1.388 1_556 S
C827 H814 0.930 . S
C827 C826 1.388 1_554 S
C827 C828 1.390 1_554 S
C828 C827 1.390 1_556 S
C828 C829 1.394 . S
C828 C834 1.465 . S
C829 C824 1.399 . S
C829 C828 1.394 . S
C829 C830 1.516 1_565 S
C830 C829 1.516 1_545 S
C830 C831 1.502 . S
C830 C832 1.561 1_545 S
C830 C833 1.526 1_545 S
C831 H815 0.959 . S
C831 H816 0.959 . S
C831 H817 0.961 . S
C831 C830 1.502 . S
C832 H818 0.963 . S
C832 H819 0.961 1_565 S
C832 H820 0.959 . S
C832 C830 1.561 1_565 S
C833 C830 1.526 1_565 S
C833 C834 1.396 . S
C833 C838 1.390 1_565 S
C834 C828 1.465 . S
C834 C833 1.396 . S
C834 C835 1.399 1_556 S
C835 H821 0.929 . S
C835 C834 1.399 1_554 S
C835 C836 1.385 . S
C836 H822 0.931 . S
C836 C835 1.385 . S
C836 C837 1.389 1_554 S
C837 C836 1.389 1_556 S
C837 C838 1.387 1_565 S
C838 H823 0.930 . S
C838 C833 1.390 1_545 S
C838 C837 1.387 1_545 S
H839 C851 0.930 . S
H840 C853 0.930 1_565 S
H841 C854 0.930 . S
H842 C858 0.959 . S
H843 C858 0.959 . S
H844 C858 0.961 . S
H845 C859 0.960 . S
H846 C859 0.961 . S
H847 C859 0.959 . S
H848 C862 0.929 . S
H849 C863 0.931 . S
H850 C865 0.930 . S
C851 H839 0.930 . S
C851 C852 1.399 . S
C851 C856 1.399 . S
C852 C851 1.399 . S
C852 C853 1.376 . S
C853 H840 0.930 1_545 S
C853 C852 1.376 . S
C853 C854 1.388 1_545 S
C854 H841 0.930 . S
C854 C853 1.388 1_565 S
C854 C855 1.390 1_565 S
C855 C854 1.390 1_545 S
C855 C856 1.394 . S
C855 C861 1.465 . S
C856 C851 1.399 . S
C856 C855 1.394 . S
C856 C857 1.516 . S
C857 C856 1.516 . S
C857 C858 1.502 . S
C857 C859 1.561 . S
C857 C860 1.526 . S
C858 H842 0.959 . S
C858 H843 0.959 . S
C858 H844 0.961 . S
C858 C857 1.502 . S
C859 H845 0.960 . S
C859 H846 0.961 . S
C859 H847 0.959 . S
C859 C857 1.561 . S
C860 C857 1.526 . S
C860 C861 1.396 . S
C860 C865 1.390 . S
C861 C855 1.465 . S
C861 C860 1.396 . S
C861 C862 1.399 1_545 S
C862 H848 0.929 . S
C862 C861 1.399 1_565 S
C862 C863 1.385 . S
C863 H849 0.931 . S
C863 C862 1.385 . S
C863 C864 1.389 1_565 S
C864 C863 1.389 1_545 S
C864 C865 1.387 . S
C865 H850 0.930 . S
C865 C860 1.390 . S
C865 C864 1.387 . S
H866 C878 0.930 . S
H867 C880 0.930 . S
H868 C881 0.930 . S
H869 C885 0.959 . S
H870 C885 0.959 . S
H871 C885 0.961 . S
H872 C886 0.960 . S
H873 C886 0.961 . S
H874 C886 0.959 . S
H875 C889 0.929 . S
H876 C890 0.931 . S
H877 C892 0.913 1_556 S
C878 H866 0.930 . S
C878 C879 1.399 . S
C878 C883 1.399 . S
C879 C878 1.399 . S
C879 C880 1.376 . S
C880 H867 0.930 . S
C880 C879 1.376 . S
C880 C881 1.388 . S
C881 H868 0.930 . S
C881 C880 1.388 . S
C881 C882 1.390 . S
C882 C881 1.390 . S
C882 C883 1.394 . S
C882 C888 1.465 . S
C883 C878 1.399 . S
C883 C882 1.394 . S
C883 C884 1.516 . S
C884 C883 1.516 . S
C884 C885 1.502 1_554 S
C884 C886 1.561 . S
C884 C887 1.526 . S
C885 H869 0.959 . S
C885 H870 0.959 . S
C885 H871 0.961 . S
C885 C884 1.502 1_556 S
C886 H872 0.960 . S
C886 H873 0.961 . S
C886 H874 0.959 . S
C886 C884 1.561 . S
C887 C884 1.526 . S
C887 C888 1.396 . S
C887 C892 1.390 . S
C888 C882 1.465 . S
C888 C887 1.396 . S
C888 C889 1.399 . S
C889 H875 0.929 . S
C889 C888 1.399 . S
C889 C890 1.385 . S
C890 H876 0.931 . S
C890 C889 1.385 . S
C890 C891 1.389 . S
C891 C890 1.389 . S
C891 C892 1.387 . S
C892 H877 0.913 1_554 S
C892 C887 1.390 . S
C892 C891 1.387 . S
H893 C905 0.930 . S
H894 C907 0.930 . S
H895 C908 0.930 . S
H896 C912 0.959 . S
H897 C912 0.959 . S
H898 C912 0.961 . S
H899 C913 0.960 . S
H900 C913 0.961 . S
H901 C913 0.959 . S
H902 C916 0.929 . S
H903 C917 0.931 . S
H904 C919 0.930 . S
C905 H893 0.930 . S
C905 C906 1.399 . S
C905 C910 1.399 . S
C906 C905 1.399 . S
C906 C907 1.376 . S
C907 H894 0.930 . S
C907 C906 1.376 . S
C907 C908 1.388 . S
C908 H895 0.930 . S
C908 C907 1.388 . S
C908 C909 1.390 . S
C909 C908 1.390 . S
C909 C910 1.394 . S
C909 C915 1.465 . S
C910 C905 1.399 . S
C910 C909 1.394 . S
C910 C911 1.516 . S
C911 C910 1.516 . S
C911 C912 1.502 . S
C911 C913 1.561 . S
C911 C914 1.526 . S
C912 H896 0.959 . S
C912 H897 0.959 . S
C912 H898 0.961 . S
C912 C911 1.502 . S
C913 H899 0.960 . S
C913 H900 0.961 . S
C913 H901 0.959 . S
C913 C911 1.561 . S
C914 C911 1.526 . S
C914 C915 1.396 . S
C914 C919 1.390 . S
C915 C909 1.465 . S
C915 C914 1.396 . S
C915 C916 1.399 . S
C916 H902 0.929 . S
C916 C915 1.399 . S
C916 C917 1.385 . S
C917 H903 0.931 . S
C917 C916 1.385 . S
C917 C918 1.389 . S
C918 C917 1.389 . S
C918 C919 1.387 . S
C919 H904 0.930 . S
C919 C914 1.390 . S
C919 C918 1.387 . S
H920 C932 0.930 1_554 S
H921 C934 0.930 . S
H922 C935 0.930 . S
H923 C939 0.959 . S
H924 C939 0.959 . S
H925 C939 0.961 . S
H926 C940 0.960 . S
H927 C940 0.961 . S
H928 C940 0.959 . S
H929 C943 0.929 . S
H930 C944 0.931 . S
H931 C946 0.930 . S
C932 H920 0.930 1_556 S
C932 C933 1.399 . S
C932 C937 1.399 . S
C933 C932 1.399 . S
C933 C934 1.376 . S
C934 H921 0.930 . S
C934 C933 1.376 . S
C934 C935 1.388 . S
C935 H922 0.930 . S
C935 C934 1.388 . S
C935 C936 1.390 . S
C936 C935 1.390 . S
C936 C937 1.394 . S
C936 C942 1.465 . S
C937 C932 1.399 . S
C937 C936 1.394 . S
C937 C938 1.516 1_556 S
C938 C937 1.516 1_554 S
C938 C939 1.502 1_655 S
C938 C940 1.561 . S
C938 C941 1.526 1_554 S
C939 H923 0.959 . S
C939 H924 0.959 . S
C939 H925 0.961 . S
C939 C938 1.502 1_455 S
C940 H926 0.960 . S
C940 H927 0.961 . S
C940 H928 0.959 . S
C940 C938 1.561 . S
C941 C938 1.526 1_556 S
C941 C942 1.396 . S
C941 C946 1.390 1_556 S
C942 C936 1.465 . S
C942 C941 1.396 . S
C942 C943 1.399 . S
C943 H929 0.929 . S
C943 C942 1.399 . S
C943 C944 1.385 . S
C944 H930 0.931 . S
C944 C943 1.385 . S
C944 C945 1.389 . S
C945 C944 1.389 . S
C945 C946 1.387 1_556 S
C946 H931 0.930 . S
C946 C941 1.390 1_554 S
C946 C945 1.387 1_554 S
H947 C959 0.930 . S
H948 C961 0.930 . S
H949 C962 0.930 . S
H950 C966 0.959 . S
H951 C966 0.959 . S
H952 C966 0.961 . S
H953 C967 0.960 . S
H954 C967 0.961 . S
H955 C967 0.959 . S
H956 C970 0.929 . S
H957 C971 0.931 . S
H958 C973 0.930 . S
C959 H947 0.930 . S
C959 C960 1.399 . S
C959 C964 1.399 . S
C960 C959 1.399 . S
C960 C961 1.376 . S
C961 H948 0.930 . S
C961 C960 1.376 . S
C961 C962 1.388 . S
C962 H949 0.930 . S
C962 C961 1.388 . S
C962 C963 1.390 . S
C963 C962 1.390 . S
C963 C964 1.394 . S
C963 C969 1.465 . S
C964 C959 1.399 . S
C964 C963 1.394 . S
C964 C965 1.516 . S
C965 C964 1.516 . S
C965 C966 1.502 . S
C965 C967 1.561 . S
C965 C968 1.526 . S
C966 H950 0.959 . S
C966 H951 0.959 . S
C966 H952 0.961 . S
C966 C965 1.502 . S
C967 H953 0.960 . S
C967 H954 0.961 . S
C967 H955 0.959 . S
C967 C965 1.561 . S
C968 C965 1.526 . S
C968 C969 1.396 . S
C968 C973 1.390 . S
C969 C963 1.465 . S
C969 C968 1.396 . S
C969 C970 1.399 . S
C970 H956 0.929 . S
C970 C969 1.399 . S
C970 C971 1.385 . S
C971 H957 0.931 . S
C971 C970 1.385 . S
C971 C972 1.389 . S
C972 C971 1.389 . S
C972 C973 1.387 . S
C973 H958 0.930 . S
C973 C968 1.390 . S
C973 C972 1.387 . S
H974 C986 0.930 . S
H975 C988 0.930 . S
H976 C989 0.930 . S
H977 C993 0.959 . S
H978 C993 0.959 . S
H979 C993 0.961 . S
H980 C994 0.960 . S
H981 C994 0.961 . S
H982 C994 0.959 . S
H983 C997 0.929 . S
H984 C998 0.931 . S
H985 C1000 0.930 . S
C986 H974 0.930 . S
C986 C987 1.399 . S
C986 C991 1.399 . S
C987 C986 1.399 . S
C987 C988 1.376 . S
C988 H975 0.930 . S
C988 C987 1.376 . S
C988 C989 1.388 . S
C989 H976 0.930 . S
C989 C988 1.388 . S
C989 C990 1.390 . S
C990 C989 1.390 . S
C990 C991 1.394 . S
C990 C996 1.465 . S
C991 C986 1.399 . S
C991 C990 1.394 . S
C991 C992 1.516 . S
C992 C991 1.516 . S
C992 C993 1.502 . S
C992 C994 1.561 . S
C992 C995 1.526 . S
C993 H977 0.959 . S
C993 H978 0.959 . S
C993 H979 0.961 . S
C993 C992 1.502 . S
C994 H980 0.960 . S
C994 H981 0.961 . S
C994 H982 0.959 . S
C994 C992 1.561 . S
C995 C992 1.526 . S
C995 C996 1.396 . S
C995 C1000 1.390 . S
C996 C990 1.465 . S
C996 C995 1.396 . S
C996 C997 1.399 . S
C997 H983 0.929 . S
C997 C996 1.399 . S
C997 C998 1.385 . S
C998 H984 0.931 . S
C998 C997 1.385 . S
C998 C999 1.389 . S
C999 C998 1.389 . S
C999 C1000 1.387 . S
C1000 H985 0.930 . S
C1000 C995 1.390 . S
C1000 C999 1.387 . S
H1001 C1013 0.930 . S
H1002 C1015 0.930 . S
H1003 C1016 0.930 . S
H1004 C1020 0.959 . S
H1005 C1020 0.959 . S
H1006 C1020 0.961 . S
H1007 C1021 0.960 . S
H1008 C1021 0.961 . S
H1009 C1021 0.959 . S
H1010 C1024 0.929 . S
H1011 C1025 0.931 . S
H1012 C1027 0.930 . S
C1013 H1001 0.930 . S
C1013 C1014 1.399 . S
C1013 C1018 1.399 . S
C1014 C1013 1.399 . S
C1014 C1015 1.376 . S
C1015 H1002 0.930 . S
C1015 C1014 1.376 . S
C1015 C1016 1.388 . S
C1016 H1003 0.930 . S
C1016 C1015 1.388 . S
C1016 C1017 1.390 . S
C1017 C1016 1.390 . S
C1017 C1018 1.394 . S
C1017 C1023 1.465 . S
C1018 C1013 1.399 . S
C1018 C1017 1.394 . S
C1018 C1019 1.516 . S
C1019 C1018 1.516 . S
C1019 C1020 1.502 . S
C1019 C1021 1.561 . S
C1019 C1022 1.526 . S
C1020 H1004 0.959 . S
C1020 H1005 0.959 . S
C1020 H1006 0.961 . S
C1020 C1019 1.502 . S
C1021 H1007 0.960 . S
C1021 H1008 0.961 . S
C1021 H1009 0.959 . S
C1021 C1019 1.561 . S
C1022 C1019 1.526 . S
C1022 C1023 1.396 . S
C1022 C1027 1.390 . S
C1023 C1017 1.465 . S
C1023 C1022 1.396 . S
C1023 C1024 1.399 . S
C1024 H1010 0.929 . S
C1024 C1023 1.399 . S
C1024 C1025 1.385 . S
C1025 H1011 0.931 . S
C1025 C1024 1.385 . S
C1025 C1026 1.389 . S
C1026 C1025 1.389 . S
C1026 C1027 1.387 . S
C1027 H1012 0.930 . S
C1027 C1022 1.390 . S
C1027 C1026 1.387 . S
C393 C1 1.559 . S
C405 C306 1.595 . S
C420 C67 1.557 . S
C432 C330 1.598 . S
C459 C350 1.434 . S
C447 C97 1.356 . S
C474 C133 1.438 . S
C486 C373 1.465 . S
C513 C332 1.674 . S
C501 C25 1.691 . S
C540 C308 1.629 . S
C528 C37 1.693 . S
C567 C376 1.589 . S
C555 C103 1.593 . S
C594 C353 1.526 . S
C582 C109 1.629 . S
C609 C31 1.375 . S
C621 C378 1.397 . S
C648 C327 1.642 . S
C636 C73 1.601 . S
C663 C139 1.652 . S
C675 C305 1.651 . S
C690 C61 1.371 . S
C702 C355 1.308 . S
C729 C309 1.724 1_545 S
C717 C175 1.703 . S
C744 C181 1.594 . S
C756 C331 1.632 . S
C771 C247 1.814 . S
C783 C351 1.829 . S
C798 C277 1.790 . S
C810 C374 1.829 . S
C825 C145 1.604 . S
C837 C329 1.577 . S
C864 C307 1.642 . S
C852 C211 1.608 . S
C891 C377 1.504 . S
C879 C217 1.512 . S
C918 C354 1.577 . S
C906 C283 1.573 . S
C933 C169 1.922 . S
C945 C375 1.909 . S
C972 C328 1.607 . S
C960 C241 1.601 . S
C999 C304 1.598 . S
C987 C253 1.629 . S
C1014 C205 1.892 . S
C1026 C352 1.869 . S
