# Generated by pormake.
# Topology zzz, (3,6)-cn, num edge types: 1
# Building blocks:
#     Node 0, Type 0, BuildingBlock: MIDCAF_clean_linker_0, # of connection points: 3
#     Node 1, Type 0, BuildingBlock: MIDCAF_clean_linker_0, # of connection points: 3
#     Node 2, Type 0, BuildingBlock: MIDCAF_clean_linker_0, # of connection points: 3
#     Node 3, Type 0, BuildingBlock: MIDCAF_clean_linker_0, # of connection points: 3
#     Node 4, Type 0, BuildingBlock: MIDCAF_clean_linker_0, # of connection points: 3
#     Node 5, Type 0, BuildingBlock: MIDCAF_clean_linker_0, # of connection points: 3
#     Node 6, Type 0, BuildingBlock: MIDCAF_clean_linker_0, # of connection points: 3
#     Node 7, Type 0, BuildingBlock: MIDCAF_clean_linker_0, # of connection points: 3
#     Node 8, Type 1, BuildingBlock: BETDEL_clean_sbu_0, # of connection points: 6
#     Node 9, Type 1, BuildingBlock: BETDEL_clean_sbu_0, # of connection points: 6
#     Node 10, Type 1, BuildingBlock: BETDEL_clean_sbu_0, # of connection points: 6
#     Node 11, Type 1, BuildingBlock: BETDEL_clean_sbu_0, # of connection points: 6
#     Edge 12, Type (0, 1), BuildingBlock: XUDNAN_clean_linker_2, # of connection points: 2
#     Edge 13, Type (0, 1), BuildingBlock: XUDNAN_clean_linker_2, # of connection points: 2
#     Edge 14, Type (0, 1), BuildingBlock: XUDNAN_clean_linker_2, # of connection points: 2
#     Edge 15, Type (0, 1), BuildingBlock: XUDNAN_clean_linker_2, # of connection points: 2
#     Edge 16, Type (0, 1), BuildingBlock: XUDNAN_clean_linker_2, # of connection points: 2
#     Edge 17, Type (0, 1), BuildingBlock: XUDNAN_clean_linker_2, # of connection points: 2
#     Edge 18, Type (0, 1), BuildingBlock: XUDNAN_clean_linker_2, # of connection points: 2
#     Edge 19, Type (0, 1), BuildingBlock: XUDNAN_clean_linker_2, # of connection points: 2
#     Edge 20, Type (0, 1), BuildingBlock: XUDNAN_clean_linker_2, # of connection points: 2
#     Edge 21, Type (0, 1), BuildingBlock: XUDNAN_clean_linker_2, # of connection points: 2
#     Edge 22, Type (0, 1), BuildingBlock: XUDNAN_clean_linker_2, # of connection points: 2
#     Edge 23, Type (0, 1), BuildingBlock: XUDNAN_clean_linker_2, # of connection points: 2
#     Edge 24, Type (0, 1), BuildingBlock: XUDNAN_clean_linker_2, # of connection points: 2
#     Edge 25, Type (0, 1), BuildingBlock: XUDNAN_clean_linker_2, # of connection points: 2
#     Edge 26, Type (0, 1), BuildingBlock: XUDNAN_clean_linker_2, # of connection points: 2
#     Edge 27, Type (0, 1), BuildingBlock: XUDNAN_clean_linker_2, # of connection points: 2
#     Edge 28, Type (0, 1), BuildingBlock: XUDNAN_clean_linker_2, # of connection points: 2
#     Edge 29, Type (0, 1), BuildingBlock: XUDNAN_clean_linker_2, # of connection points: 2
#     Edge 30, Type (0, 1), BuildingBlock: XUDNAN_clean_linker_2, # of connection points: 2
#     Edge 31, Type (0, 1), BuildingBlock: XUDNAN_clean_linker_2, # of connection points: 2
#     Edge 32, Type (0, 1), BuildingBlock: XUDNAN_clean_linker_2, # of connection points: 2
#     Edge 33, Type (0, 1), BuildingBlock: XUDNAN_clean_linker_2, # of connection points: 2
#     Edge 34, Type (0, 1), BuildingBlock: XUDNAN_clean_linker_2, # of connection points: 2
#     Edge 35, Type (0, 1), BuildingBlock: XUDNAN_clean_linker_2, # of connection points: 2
# Relax obj value: 0.337
# Max RMSD: 0.229
# Mean RMSD: 0.211
data_MOF--net-zzz--node1-BETDEL_clean_sbu_0--node2-MIDCAF_clean_linker_0--edge1-XUDNAN_clean_linker_2
_symmetry_space_group_name_H-M    P1
_symmetry_Int_Tables_number       1
_symmetry_cell_setting            triclinic
loop_
_symmetry_equiv_pos_as_xyz
'x, y, z'
_cell_length_a     56.48419
_cell_length_b     55.979573
_cell_length_c     19.884564
_cell_angle_alpha  90.764004
_cell_angle_beta   89.661166
_cell_angle_gamma 95.867972
loop_
_atom_site_label
_atom_site_type_symbol
_atom_site_fract_x
_atom_site_fract_y
_atom_site_fract_z
_atom_type_partial_charge
C0 C 0.80268 0.47647 0.29371 0.0
C1 C 0.80673 0.50155 0.30177 0.0
C2 C 0.79153 0.51593 0.26819 0.0
C3 C 0.77467 0.50567 0.22182 0.0
H4 H 0.70354 0.50001 0.1023 0.0
H5 H 0.66807 0.51162 0.04604 0.0
H6 H 0.68541 0.47094 0.86963 0.0
H7 H 0.72068 0.45986 0.92434 0.0
H8 H 0.78017 0.45359 0.912 0.0
H9 H 0.81691 0.44436 0.85765 0.0
H10 H 0.83577 0.40701 0.03533 0.0
H11 H 0.79943 0.41715 0.09052 0.0
H12 H 0.78472 0.44709 0.23853 0.0
H13 H 0.81393 0.4647 0.31813 0.0
H14 H 0.79375 0.53528 0.27433 0.0
H15 H 0.76485 0.51737 0.19212 0.0
N16 N 0.74317 0.47894 0.11484 0.0
N17 N 0.75045 0.45665 0.01681 0.0
N18 N 0.77566 0.45597 0.1091 0.0
C19 C 0.73663 0.47125 0.05134 0.0
C20 C 0.76987 0.44883 0.04566 0.0
C21 C 0.76267 0.47098 0.14407 0.0
C22 C 0.71513 0.479 0.01811 0.0
C23 C 0.69984 0.49368 0.05138 0.0
C24 C 0.67943 0.50024 0.01922 0.0
C25 C 0.67391 0.49237 0.95302 0.0
C26 C 0.68927 0.47779 0.92 0.0
C27 C 0.70953 0.47125 0.9519 0.0
C28 C 0.78722 0.43651 0.0059 0.0
C29 C 0.79174 0.44266 0.9385 0.0
C30 C 0.81286 0.43732 0.90732 0.0
C31 C 0.82962 0.42548 0.94284 0.0
C32 C 0.82357 0.41677 0.00733 0.0
C33 C 0.80267 0.42242 0.03876 0.0
C34 C 0.77274 0.48088 0.20838 0.0
C35 C 0.78589 0.4663 0.24769 0.0
C36 C 0.96521 0.80103 0.24262 0.0
C37 C 0.97643 0.80334 0.3056 0.0
C38 C 0.9931 0.78731 0.3219 0.0
C39 C 1.00033 0.77119 0.27346 0.0
H40 H 0.97504 0.70239 0.07831 0.0
H41 H 0.96647 0.66503 0.01387 0.0
H42 H 0.03444 0.67773 0.91331 0.0
H43 H 0.04307 0.71497 0.97732 0.0
H44 H 0.05102 0.8171 0.13071 0.0
H45 H 0.06823 0.85321 0.07511 0.0
H46 H 0.07122 0.81382 0.88797 0.0
H47 H 0.05335 0.77731 0.94315 0.0
H48 H 0.96513 0.78502 0.1441 0.0
H49 H 0.95217 0.813 0.22892 0.0
H50 H 1.00222 0.78879 0.36977 0.0
H51 H 0.01505 0.76092 0.28467 0.0
N52 N 1.00109 0.74093 0.12233 0.0
N53 N 0.03072 0.75254 0.0417 0.0
N54 N 0.02169 0.77944 0.12656 0.0
C55 C 0.01418 0.73551 0.06723 0.0
C56 C 0.03459 0.77456 0.07152 0.0
C57 C 0.00512 0.76292 0.15225 0.0
C58 C 0.00967 0.71182 0.03264 0.0
C59 C 0.98829 0.69709 0.04309 0.0
C60 C 0.98333 0.67573 0.00605 0.0
C61 C 0.99977 0.66847 0.95854 0.0
C62 C 0.02152 0.68271 0.95005 0.0
C63 C 0.02635 0.70418 0.98637 0.0
C64 C 0.05029 0.79438 0.041 0.0
C65 C 0.05571 0.81585 0.07797 0.0
C66 C 0.06566 0.83657 0.04639 0.0
C67 C 0.07078 0.83621 0.97746 0.0
C68 C 0.06746 0.81438 0.94142 0.0
C69 C 0.05723 0.79354 0.973 0.0
C70 C 0.99074 0.77061 0.20854 0.0
C71 C 0.97233 0.78477 0.19446 0.0
C72 C 0.71925 0.99054 0.24261 0.0
C73 C 0.72143 0.0043 0.30243 0.0
C74 C 0.74287 0.01908 0.31354 0.0
C75 C 0.76036 0.02206 0.26308 0.0
H76 H 0.84101 0.0209 0.12051 0.0
H77 H 0.88003 0.01784 0.06716 0.0
H78 H 0.84627 0.00966 0.87292 0.0
H79 H 0.80768 0.0132 0.92566 0.0
H80 H 0.76572 0.05194 0.90867 0.0
H81 H 0.73584 0.0695 0.84224 0.0
H82 H 0.69886 0.08668 0.02456 0.0
H83 H 0.72833 0.06879 0.09079 0.0
H84 H 0.73347 0.98437 0.14452 0.0
H85 H 0.70305 0.97915 0.23148 0.0
H86 H 0.74548 0.02958 0.3595 0.0
H87 H 0.77547 0.03539 0.27027 0.0
N88 N 0.79004 0.01459 0.1167 0.0
N89 N 0.78522 0.03773 0.02026 0.0
N90 N 0.75603 0.03504 0.10409 0.0
C91 C 0.79839 0.02334 0.05612 0.0
C92 C 0.76419 0.04392 0.04451 0.0
C93 C 0.7686 0.02046 0.14029 0.0
C94 C 0.82135 0.01737 0.02721 0.0
C95 C 0.84195 0.01791 0.06667 0.0
C96 C 0.86424 0.01631 0.03611 0.0
C97 C 0.8662 0.01351 0.96582 0.0
C98 C 0.84536 0.01156 0.92714 0.0
C99 C 0.82326 0.01372 0.95736 0.0
C100 C 0.74908 0.05849 0.00482 0.0
C101 C 0.75151 0.05995 0.9346 0.0
C102 C 0.73445 0.07013 0.89656 0.0
C103 C 0.71481 0.07914 0.92823 0.0
C104 C 0.71354 0.07944 0.99874 0.0
C105 C 0.73044 0.06918 0.03661 0.0
C106 C 0.75697 0.00999 0.20112 0.0
C107 C 0.73681 0.99339 0.19261 0.0
C108 C 0.44396 0.70911 0.92908 0.0
C109 C 0.43501 0.68747 0.95922 0.0
C110 C 0.43262 0.68659 0.02938 0.0
C111 C 0.44218 0.70592 0.06908 0.0
H112 H 0.47311 0.80833 0.02837 0.0
H113 H 0.48654 0.84414 0.96609 0.0
H114 H 0.55958 0.8337 0.00983 0.0
H115 H 0.54585 0.79773 0.07454 0.0
H116 H 0.47871 0.71641 0.25464 0.0
H117 H 0.4955 0.68665 0.32284 0.0
H118 H 0.56616 0.71367 0.25911 0.0
H119 H 0.54921 0.74361 0.18852 0.0
H120 H 0.46213 0.74415 0.94401 0.0
H121 H 0.44584 0.71016 0.8749 0.0
H122 H 0.42581 0.67007 0.05371 0.0
H123 H 0.44222 0.7039 0.12319 0.0
N124 N 0.48041 0.76391 0.05492 0.0
N125 N 0.51062 0.76659 0.1369 0.0
N126 N 0.48199 0.73307 0.13165 0.0
C127 C 0.49962 0.77643 0.08435 0.0
C128 C 0.50136 0.74489 0.16142 0.0
C129 C 0.47151 0.74223 0.07832 0.0
C130 C 0.50844 0.80003 0.05573 0.0
C131 C 0.49206 0.81374 0.02539 0.0
C132 C 0.49978 0.83422 0.98913 0.0
C133 C 0.52418 0.84151 0.9813 0.0
C134 C 0.54065 0.82856 0.01472 0.0
C135 C 0.53282 0.808 0.05186 0.0
C136 C 0.51263 0.73224 0.21575 0.0
C137 C 0.49789 0.71646 0.25612 0.0
C138 C 0.50744 0.69933 0.29495 0.0
C139 C 0.53199 0.69769 0.29511 0.0
C140 C 0.54711 0.71464 0.25935 0.0
C141 C 0.53745 0.73185 0.21961 0.0
C142 C 0.45406 0.7264 0.03898 0.0
C143 C 0.45327 0.72856 0.96875 0.0
C144 C 0.22987 0.5152 0.80611 0.0
C145 C 0.21158 0.49638 0.81426 0.0
C146 C 0.21257 0.48107 0.86947 0.0
C147 C 0.23053 0.48547 0.91771 0.0
H148 H 0.33058 0.50963 0.99258 0.0
H149 H 0.3692 0.50502 0.04465 0.0
H150 H 0.33528 0.49936 0.23962 0.0
H151 H 0.29705 0.50451 0.18811 0.0
H152 H 0.25167 0.53975 0.20645 0.0
H153 H 0.21956 0.5564 0.2691 0.0
H154 H 0.19736 0.58945 0.08861 0.0
H155 H 0.22907 0.57251 0.02535 0.0
H156 H 0.26019 0.53563 0.85045 0.0
H157 H 0.22951 0.52749 0.76461 0.0
H158 H 0.19887 0.46633 0.8769 0.0
H159 H 0.22982 0.47454 0.9624 0.0
N160 N 0.28003 0.50704 0.99721 0.0
N161 N 0.27676 0.53092 0.09481 0.0
N162 N 0.2486 0.53125 0.00936 0.0
C163 C 0.28866 0.51518 0.05837 0.0
C164 C 0.25693 0.53928 0.06999 0.0
C165 C 0.2598 0.51516 0.97299 0.0
C166 C 0.31088 0.50753 0.08637 0.0
C167 C 0.33135 0.50676 0.04626 0.0
C168 C 0.35342 0.50424 0.07606 0.0
C169 C 0.35523 0.50183 0.14621 0.0
C170 C 0.33443 0.50093 0.18546 0.0
C171 C 0.31256 0.50401 0.15598 0.0
C172 C 0.24258 0.55458 0.11096 0.0
C173 C 0.24056 0.55136 0.18074 0.0
C174 C 0.22228 0.56089 0.21659 0.0
C175 C 0.20627 0.5742 0.18331 0.0
C176 C 0.20977 0.57947 0.11515 0.0
C177 C 0.22775 0.56963 0.07907 0.0
C178 C 0.24775 0.50529 0.91183 0.0
C179 C 0.24762 0.51975 0.85482 0.0
C180 C 0.00463 0.21009 0.80296 0.0
C181 C 0.02899 0.21173 0.78781 0.0
C182 C 0.04415 0.23092 0.81466 0.0
C183 C 0.03536 0.24683 0.86157 0.0
H184 H 0.99734 0.32585 0.99123 0.0
H185 H 0.00498 0.36422 0.0509 0.0
H186 H 0.04579 0.33021 0.1991 0.0
H187 H 0.03632 0.29172 0.14179 0.0
H188 H 0.95085 0.20911 0.01763 0.0
H189 H 0.93982 0.17249 0.08096 0.0
H190 H 0.98316 0.20136 0.2467 0.0
H191 H 0.99393 0.23823 0.184 0.0
H192 H 0.97727 0.2231 0.86353 0.0
H193 H 0.99261 0.19555 0.78224 0.0
H194 H 0.06303 0.23245 0.80345 0.0
H195 H 0.04773 0.26012 0.88642 0.0
N196 N 0.01254 0.27561 0.97042 0.0
N197 N 0.99429 0.26658 0.07539 0.0
N198 N 0.98992 0.23861 0.98706 0.0
C199 C 0.00744 0.28224 0.03479 0.0
C200 C 0.98517 0.24483 0.05122 0.0
C201 C 0.00365 0.2536 0.94648 0.0
C202 C 0.01625 0.30601 0.06219 0.0
C203 C 0.00829 0.32685 0.03593 0.0
C204 C 0.01278 0.34885 0.07026 0.0
C205 C 0.02575 0.35049 0.13089 0.0
C206 C 0.03508 0.3297 0.15406 0.0
C207 C 0.03 0.30765 0.12078 0.0
C208 C 0.97343 0.22635 0.09576 0.0
C209 C 0.95733 0.20797 0.06855 0.0
C210 C 0.95094 0.18708 0.10474 0.0
C211 C 0.96088 0.18415 0.16813 0.0
C212 C 0.97537 0.2033 0.19766 0.0
C213 C 0.98141 0.2244 0.16197 0.0
C214 C 0.01135 0.24361 0.88177 0.0
C215 C 0.99587 0.22594 0.84917 0.0
C216 C 0.31985 0.96397 0.82702 0.0
C217 C 0.32901 0.9878 0.81362 0.0
C218 C 0.31942 0.00644 0.8501 0.0
C219 C 0.30238 1.00118 0.90135 0.0
H220 H 0.21742 0.99247 0.00732 0.0
H221 H 0.17985 1.00174 0.06052 0.0
H222 H 0.20628 0.9826 0.25361 0.0
H223 H 0.24315 0.97351 0.20179 0.0
H224 H 0.27878 0.93684 0.2142 0.0
H225 H 0.30662 0.91981 0.28859 0.0
H226 H 0.35262 0.90881 0.1191 0.0
H227 H 0.32476 0.92523 0.04466 0.0
H228 H 0.29751 0.94018 0.88875 0.0
H229 H 0.32684 0.94892 0.80192 0.0
H230 H 0.32568 0.02503 0.84089 0.0
H231 H 0.29663 0.01572 0.93184 0.0
N232 N 0.2636 0.97987 0.00725 0.0
N233 N 0.26645 0.95729 0.10558 0.0
N234 N 0.29425 0.95477 0.0197 0.0
C235 C 0.25494 0.97297 0.0694 0.0
C236 C 0.28602 0.94807 0.08119 0.0
C237 C 0.28341 0.97053 0.9824 0.0
C238 C 0.23324 0.98186 0.09988 0.0
C239 C 0.21526 0.99058 0.0612 0.0
C240 C 0.19374 0.99583 0.09164 0.0
C241 C 0.18986 0.99235 0.16112 0.0
C242 C 0.20834 0.98481 0.19977 0.0
C243 C 0.22962 0.97969 0.16978 0.0
C244 C 0.29986 0.93305 0.1237 0.0
C245 C 0.2945 0.93019 0.19245 0.0
C246 C 0.31044 0.92043 0.23516 0.0
C247 C 0.33199 0.91335 0.20991 0.0
C248 C 0.33615 0.91398 0.14022 0.0
C249 C 0.32024 0.92371 0.09755 0.0
C250 C 0.29462 0.97723 0.91684 0.0
C251 C 0.3029 0.95884 0.87737 0.0
C252 C 0.44704 0.30527 0.18968 0.0
C253 C 0.46571 0.302 0.23427 0.0
C254 C 0.47515 0.27967 0.23391 0.0
C255 C 0.46734 0.26181 0.18734 0.0
H256 H 0.42632 0.17909 0.10528 0.0
H257 H 0.44186 0.14499 0.15826 0.0
H258 H 0.50557 0.1564 0.03688 0.0
H259 H 0.48979 0.19073 0.98382 0.0
H260 H 0.4839 0.26408 0.88808 0.0
H261 H 0.48373 0.29892 0.81542 0.0
H262 H 0.4069 0.29218 0.82342 0.0
H263 H 0.40735 0.2578 0.89758 0.0
H264 H 0.42644 0.29123 0.10519 0.0
H265 H 0.43867 0.32182 0.18984 0.0
H266 H 0.48972 0.27636 0.26645 0.0
H267 H 0.47602 0.24542 0.18595 0.0
N268 N 0.45028 0.22646 0.08525 0.0
N269 N 0.45017 0.22207 0.96723 0.0
N270 N 0.44478 0.25933 0.01845 0.0
C271 C 0.45152 0.21233 0.02964 0.0
C272 C 0.4462 0.24566 0.96209 0.0
C273 C 0.44696 0.24993 0.08005 0.0
C274 C 0.45681 0.18741 0.04027 0.0
C275 C 0.44314 0.17356 0.08765 0.0
C276 C 0.4521 0.15403 0.11814 0.0
C277 C 0.47513 0.14818 0.10262 0.0
C278 C 0.48787 0.16065 0.05047 0.0
C279 C 0.47873 0.18008 0.01934 0.0
C280 C 0.44562 0.25807 0.89746 0.0
C281 C 0.46699 0.26929 0.87115 0.0
C282 C 0.46685 0.28941 0.82995 0.0
C283 C 0.4453 0.29872 0.81471 0.0
C284 C 0.42384 0.28581 0.83528 0.0
C285 C 0.42402 0.26582 0.87671 0.0
C286 C 0.4504 0.26609 0.13889 0.0
C287 C 0.43975 0.28764 0.1417 0.0
Dy288 Dy 0.03832 0.9973 0.60721 0.0
C289 C 0.99035 0.03723 0.39093 0.0
C290 C 0.05878 0.97877 0.71653 0.0
Dy291 Dy 0.0104 0.01883 0.50087 0.0
O292 O 0.07014 0.9871 0.66359 0.0
O293 O 0.03633 0.98143 0.7107 0.0
O294 O 0.05888 0.97966 0.52697 0.0
O295 O 0.0479 0.01354 0.50924 0.0
C296 C 0.05815 0.99661 0.48348 0.0
C297 C 0.99143 0.02059 0.62479 0.0
O298 O 0.00385 0.97946 0.47365 0.0
O299 O 0.01424 0.96509 0.5767 0.0
O300 O 0.97858 0.02719 0.44108 0.0
O301 O 0.01297 0.03639 0.39999 0.0
O302 O 0.99079 0.03746 0.58111 0.0
O303 O 1.0008 1.00305 0.59924 0.0
O304 O 0.04429 0.03659 0.63561 0.0
O305 O 0.0342 0.0512 0.53245 0.0
C306 C 0.00458 0.96161 0.51656 0.0
C307 C 0.04332 0.05458 0.59329 0.0
Dy308 Dy 0.51275 0.98595 0.51259 0.0
C309 C 0.57058 0.05527 0.67292 0.0
C310 C 0.47719 0.95906 0.4466 0.0
Dy311 Dy 0.53756 0.0256 0.60392 0.0
O312 O 0.49782 0.95181 0.45949 0.0
O313 O 0.47644 0.98096 0.46786 0.0
O314 O 0.54756 0.9728 0.48029 0.0
O315 O 0.54624 0.00879 0.50858 0.0
C316 C 0.56005 0.99307 0.49441 0.0
C317 C 0.49014 0.01751 0.62227 0.0
O318 O 0.5309 0.04786 0.51475 0.0
O319 O 0.50712 0.01905 0.45345 0.0
O320 O 0.55473 0.03993 0.70045 0.0
O321 O 0.56812 0.05452 0.60824 0.0
O322 O 0.50214 0.03822 0.63441 0.0
O323 O 0.50438 1.00221 0.60853 0.0
O324 O 0.51732 0.9658 0.60725 0.0
O325 O 0.5489 0.99154 0.64737 0.0
C326 C 0.51719 0.04135 0.4624 0.0
C327 C 0.5356 0.97057 0.64857 0.0
Dy328 Dy 0.4936 0.518 0.61942 0.0
C329 C 0.5315 0.45302 0.4403 0.0
C330 C 0.47472 0.54386 0.71936 0.0
Dy331 Dy 0.51947 0.48864 0.52463 0.0
O332 O 0.4626 0.52804 0.68143 0.0
O333 O 0.49718 0.54503 0.70379 0.0
O334 O 0.47651 0.53452 0.53242 0.0
O335 O 0.483 0.49836 0.52606 0.0
C336 C 0.47549 0.51547 0.49468 0.0
C337 C 0.54594 0.50554 0.63019 0.0
O338 O 0.52689 0.52486 0.47742 0.0
O339 O 0.52208 0.54479 0.57809 0.0
O340 O 0.53927 0.457 0.50098 0.0
O341 O 0.51817 0.46964 0.42394 0.0
O342 O 0.55424 0.50351 0.5695 0.0
O343 O 0.52417 0.49763 0.63202 0.0
O344 O 0.48037 0.48188 0.66045 0.0
O345 O 0.49775 0.45926 0.57918 0.0
C346 C 0.52949 0.54471 0.51482 0.0
C347 C 0.4842 0.46089 0.63313 0.0
Dy348 Dy 1.00085 0.49485 0.593 0.0
C349 C 0.05106 0.55284 0.39649 0.0
C350 C 0.97307 0.47109 0.68839 0.0
Dy351 Dy 0.02261 0.52994 0.49196 0.0
O352 O 0.97178 0.46681 0.62429 0.0
O353 O 0.98972 0.48831 0.70087 0.0
O354 O 0.01742 0.46473 0.54237 0.0
O355 O 0.0069 0.49286 0.48432 0.0
C356 C 0.0174 0.47398 0.48281 0.0
C357 C 0.00452 0.55023 0.60023 0.0
O358 O 0.98603 0.52612 0.45034 0.0
O359 O 0.9689 0.51029 0.54846 0.0
O360 O 0.044 0.5628 0.45129 0.0
O361 O 0.042 0.53061 0.39317 0.0
O362 O 0.0039 0.55901 0.54025 0.0
O363 O 0.01618 0.53214 0.60059 0.0
O364 O 0.03831 0.49651 0.63113 0.0
O365 O 0.05471 0.516 0.53728 0.0
C366 C 0.96708 0.51973 0.48795 0.0
C367 C 0.057 0.5046 0.59441 0.0
H368 H 0.16528 0.96282 0.25161 0.0
H369 H 0.16222 0.02989 0.14707 0.0
H370 H 0.126 0.03719 0.2123 0.0
H371 H 0.10075 0.94657 0.2651 0.0
H372 H 0.10316 0.93401 0.34747 0.0
H373 H 0.12729 0.93331 0.28801 0.0
H374 H 0.15629 0.95511 0.37479 0.0
H375 H 0.13228 0.95595 0.43435 0.0
H376 H 0.14965 0.9834 0.41082 0.0
H377 H 0.09209 0.0387 0.29848 0.0
H378 H 0.06341 0.03362 0.39337 0.0
H379 H 0.08895 0.96524 0.43897 0.0
C380 C 0.15689 0.97897 0.2419 0.0
C381 C 0.16667 0.99585 0.19437 0.0
C382 C 0.15497 0.01662 0.18279 0.0
C383 C 0.13444 0.02094 0.21984 0.0
C384 C 0.12566 0.00416 0.26763 0.0
C385 C 0.13644 0.98345 0.27804 0.0
C386 C 0.12429 0.96865 0.33399 0.0
C387 C 0.11321 0.94419 0.30701 0.0
C388 C 0.14166 0.96561 0.3919 0.0
C389 C 0.10529 0.98449 0.35488 0.0
C390 C 0.1062 0.00486 0.31593 0.0
C391 C 0.09107 0.02266 0.32856 0.0
C392 C 0.07483 0.01963 0.38254 0.0
C393 C 0.07383 0.99897 0.42327 0.0
C394 C 0.0891 0.98112 0.40838 0.0
H395 H 0.45685 0.10478 0.15695 0.0
H396 H 0.51983 0.15617 0.15446 0.0
H397 H 0.53766 0.13368 0.24334 0.0
H398 H 0.45398 0.09686 0.33165 0.0
H399 H 0.44481 0.06506 0.32878 0.0
H400 H 0.43756 0.08376 0.26046 0.0
H401 H 0.45827 0.05697 0.17597 0.0
H402 H 0.46533 0.03799 0.24397 0.0
H403 H 0.48869 0.05132 0.1901 0.0
H404 H 0.54674 0.10877 0.34114 0.0
H405 H 0.54878 0.07985 0.43279 0.0
H406 H 0.48093 0.04303 0.37045 0.0
C407 C 0.47458 0.11101 0.17426 0.0
C408 C 0.48701 0.13217 0.14811 0.0
C409 C 0.51013 0.13979 0.17246 0.0
C410 C 0.52034 0.12724 0.2235 0.0
C411 C 0.50738 0.10689 0.24937 0.0
C412 C 0.4852 0.0985 0.22482 0.0
C413 C 0.47492 0.07638 0.26265 0.0
C414 C 0.45143 0.08079 0.29797 0.0
C415 C 0.47161 0.05436 0.21535 0.0
C416 C 0.49455 0.07404 0.31325 0.0
C417 C 0.51302 0.09195 0.30481 0.0
C418 C 0.53256 0.09445 0.34762 0.0
C419 C 0.53346 0.07802 0.39991 0.0
C420 C 0.51507 0.05912 0.4087 0.0
C421 C 0.49538 0.05714 0.36456 0.0
H422 H 0.37047 0.47244 0.24383 0.0
H423 H 0.39256 0.53578 0.12711 0.0
H424 H 0.4288 0.54333 0.19609 0.0
H425 H 0.38722 0.49507 0.39871 0.0
H426 H 0.3984 0.46848 0.43103 0.0
H427 H 0.37605 0.46582 0.36661 0.0
H428 H 0.40318 0.44223 0.2905 0.0
H429 H 0.42561 0.44466 0.35507 0.0
H430 H 0.43299 0.45511 0.27147 0.0
H431 H 0.45768 0.54862 0.29061 0.0
H432 H 0.48024 0.54844 0.39664 0.0
H433 H 0.44274 0.47963 0.44711 0.0
C434 C 0.38334 0.48747 0.23168 0.0
C435 C 0.37881 0.50345 0.17981 0.0
C436 C 0.39586 0.5231 0.16579 0.0
C437 C 0.41646 0.52758 0.20491 0.0
C438 C 0.42008 0.51191 0.25692 0.0
C439 C 0.40432 0.49188 0.26937 0.0
C440 C 0.41185 0.47866 0.33068 0.0
C441 C 0.39221 0.47692 0.38494 0.0
C442 C 0.41882 0.45368 0.31072 0.0
C443 C 0.43346 0.49516 0.35298 0.0
C444 C 0.4379 0.5142 0.30946 0.0
C445 C 0.45495 0.53338 0.32369 0.0
C446 C 0.46767 0.53316 0.38396 0.0
C447 C 0.4637 0.51371 0.42858 0.0
C448 C 0.44668 0.49426 0.41239 0.0
H449 H 0.02722 0.35493 0.26913 0.0
H450 H 0.02874 0.39765 0.08792 0.0
H451 H 0.02837 0.43433 0.15794 0.0
H452 H 0.98954 0.38688 0.36481 0.0
H453 H 0.00506 0.38449 0.44298 0.0
H454 H 0.00644 0.36177 0.37867 0.0
H455 H 0.05252 0.36857 0.37907 0.0
H456 H 0.05132 0.39121 0.44391 0.0
H457 H 0.06713 0.39835 0.36658 0.0
H458 H 0.0238 0.46601 0.24901 0.0
H459 H 0.01861 0.48989 0.35282 0.0
H460 H 0.02458 0.42667 0.4726 0.0
C461 C 0.0282 0.37193 0.24354 0.0
C462 C 0.02794 0.37311 0.17243 0.0
C463 C 0.02848 0.39599 0.14207 0.0
C464 C 0.02848 0.41702 0.1815 0.0
C465 C 0.02842 0.41503 0.25131 0.0
C466 C 0.0287 0.39307 0.28193 0.0
C467 C 0.02824 0.3956 0.35779 0.0
C468 C 0.006 0.38134 0.38778 0.0
C469 C 0.05117 0.38798 0.38864 0.0
C470 C 0.02708 0.42237 0.36524 0.0
C471 C 0.0271 0.43332 0.30333 0.0
C472 C 0.02432 0.4577 0.29773 0.0
C473 C 0.02143 0.47115 0.35691 0.0
C474 C 0.02169 0.46025 0.4207 0.0
C475 C 0.02479 0.43561 0.4246 0.0
H476 H 0.88151 0.98371 0.86677 0.0
H477 H 0.90372 0.04757 0.98526 0.0
H478 H 0.94051 0.05413 0.9172 0.0
H479 H 0.94268 0.9646 0.84194 0.0
H480 H 0.93608 0.95382 0.75761 0.0
H481 H 0.91278 0.95274 0.82021 0.0
H482 H 0.88781 0.97701 0.74229 0.0
H483 H 0.91103 0.97828 0.67975 0.0
H484 H 0.90055 0.00565 0.7114 0.0
H485 H 0.97111 0.05754 0.82467 0.0
H486 H 0.99575 0.0549 0.722 0.0
H487 H 0.9563 0.98694 0.66898 0.0
C488 C 0.89441 0.99875 0.87928 0.0
C489 C 0.88982 0.01508 0.93159 0.0
C490 C 0.90702 0.03465 0.94617 0.0
C491 C 0.92792 0.03857 0.90753 0.0
C492 C 0.93164 0.02249 0.85528 0.0
C493 C 0.91561 1.00266 0.84198 0.0
C494 C 0.92344 0.98866 0.78126 0.0
C495 C 0.92908 0.96346 0.80149 0.0
C496 C 0.90458 0.98734 0.72539 0.0
C497 C 0.94586 0.0042 0.76092 0.0
C498 C 0.95022 0.02368 0.80425 0.0
C499 C 0.96832 0.04198 0.79171 0.0
C500 C 0.98222 0.04037 0.73339 0.0
C501 C 0.97833 0.0204 0.68917 0.0
C502 C 0.96014 1.00193 0.70355 0.0
H503 H 0.50527 0.85144 0.85954 0.0
H504 H 0.56065 0.87779 1.00014 0.0
H505 H 0.57162 0.91263 0.92658 0.0
H506 H 0.53658 0.87028 0.70621 0.0
H507 H 0.51003 0.87841 0.66629 0.0
H508 H 0.50799 0.85485 0.72755 0.0
H509 H 0.4779 0.87717 0.7971 0.0
H510 H 0.47983 0.90075 0.7361 0.0
H511 H 0.48596 0.90786 0.82335 0.0
H512 H 0.57463 0.94611 0.8395 0.0
H513 H 0.56944 0.97476 0.74841 0.0
H514 H 0.51143 0.92613 0.66761 0.0
C515 C 0.5197 0.86452 0.87519 0.0
C516 C 0.53199 0.86191 0.93604 0.0
C517 C 0.55108 0.87926 0.95361 0.0
C518 C 0.55736 0.89916 0.91222 0.0
C519 C 0.5445 0.90135 0.85323 0.0
C520 C 0.52612 0.88439 0.83478 0.0
C521 C 0.51439 0.89117 0.7705 0.0
C522 C 0.51744 0.87257 0.71432 0.0
C523 C 0.48796 0.89444 0.78251 0.0
C524 C 0.52875 0.91485 0.75595 0.0
C525 C 0.54617 0.92041 0.80382 0.0
C526 C 0.56114 0.94181 0.80158 0.0
C527 C 0.55805 0.95799 0.74955 0.0
C528 C 0.54005 0.95275 0.70056 0.0
C529 C 0.52545 0.93072 0.70385 0.0
H530 H 0.66902 0.5042 0.82041 0.0
H531 H 0.62901 0.49399 0.00657 0.0
H532 H 0.59207 0.50033 0.94613 0.0
H533 H 0.63412 0.54942 0.74766 0.0
H534 H 0.63633 0.53719 0.6638 0.0
H535 H 0.65984 0.53469 0.72338 0.0
H536 H 0.65566 0.48851 0.70532 0.0
H537 H 0.63217 0.49087 0.64583 0.0
H538 H 0.62705 0.47166 0.71758 0.0
H539 H 0.55877 0.50374 0.86219 0.0
H540 H 0.53249 0.50412 0.76293 0.0
H541 H 0.59453 0.51169 0.63251 0.0
C542 C 0.65255 0.50348 0.84877 0.0
C543 C 0.652 0.49859 0.91844 0.0
C544 C 0.63002 0.49804 0.95348 0.0
C545 C 0.6089 0.50152 0.91945 0.0
C546 C 0.61004 0.50572 0.85043 0.0
C547 C 0.63137 0.50687 0.81565 0.0
C548 C 0.62773 0.51014 0.74106 0.0
C549 C 0.64025 0.5343 0.71762 0.0
C550 C 0.63614 0.48904 0.70007 0.0
C551 C 0.60094 0.51003 0.73886 0.0
C552 C 0.59101 0.50769 0.80246 0.0
C553 C 0.5664 0.50587 0.81233 0.0
C554 C 0.55161 0.50609 0.75571 0.0
C555 C 0.56148 0.50801 0.69014 0.0
C556 C 0.58647 0.51043 0.68205 0.0
H557 H 0.02773 0.6327 0.9239 0.0
H558 H 0.95832 0.657 0.89035 0.0
H559 H 0.94983 0.62511 0.80446 0.0
H560 H 0.04137 0.62155 0.75867 0.0
H561 H 0.05595 0.59486 0.77255 0.0
H562 H 0.05523 0.61711 0.83838 0.0
H563 H 0.03572 0.58477 0.91907 0.0
H564 H 0.03646 0.56235 0.85333 0.0
H565 H 0.00871 0.56693 0.89436 0.0
H566 H 0.95177 0.59601 0.70938 0.0
H567 H 0.96291 0.56934 0.6168 0.0
H568 H 0.02977 0.56142 0.71536 0.0
C569 C 0.01055 0.63092 0.89945 0.0
C570 C 0.99363 0.64725 0.91398 0.0
C571 C 0.97139 0.64448 0.88078 0.0
C572 C 0.96643 0.62645 0.83179 0.0
C573 C 0.98372 0.61103 0.81741 0.0
C574 C 0.00518 0.61278 0.85104 0.0
C575 C 0.0213 0.59497 0.82284 0.0
C576 C 0.04484 0.6079 0.79654 0.0
C577 C 0.02581 0.57614 0.87555 0.0
C578 C 0.00604 0.58382 0.76587 0.0
C579 C 0.98435 0.59326 0.76399 0.0
C580 C 0.96835 0.58794 0.71147 0.0
C581 C 0.97481 0.57287 0.65912 0.0
C582 C 0.99686 0.56303 0.66023 0.0
C583 C 0.01245 0.56813 0.71489 0.0
H584 H 0.99789 0.15963 0.19999 0.0
H585 H 0.92083 0.15425 0.20011 0.0
H586 H 0.91948 0.1131 0.24646 0.0
H587 H 1.00292 0.09747 0.15027 0.0
H588 H 0.02867 0.09533 0.20211 0.0
H589 H 0.02324 0.1238 0.16724 0.0
H590 H 0.02448 0.14313 0.28668 0.0
H591 H 0.03029 0.11487 0.3216 0.0
H592 H 0.00531 0.12966 0.35161 0.0
H593 H 0.9273 0.07405 0.30265 0.0
H594 H 0.94341 0.0409 0.36333 0.0
H595 H 0.01516 0.07133 0.31628 0.0
C596 C 0.98074 0.14979 0.21016 0.0
C597 C 0.95945 0.16005 0.19787 0.0
C598 C 0.93729 0.1466 0.21006 0.0
C599 C 0.9364 0.12327 0.2359 0.0
C600 C 0.95783 0.11363 0.24748 0.0
C601 C 0.97956 0.12647 0.23447 0.0
C602 C 1.00007 0.11246 0.25217 0.0
C603 C 0.01457 0.10694 0.18918 0.0
C604 C 0.01596 0.12582 0.30623 0.0
C605 C 0.98659 0.08995 0.27941 0.0
C606 C 0.96223 0.09081 0.27612 0.0
C607 C 0.9463 0.07295 0.30422 0.0
C608 C 0.95557 0.05417 0.33832 0.0
C609 C 0.98046 0.05344 0.34338 0.0
C610 C 0.99604 0.07112 0.31165 0.0
H611 H 0.34548 0.94057 0.31938 0.0
H612 H 0.36442 0.87976 0.2008 0.0
H613 H 0.4027 0.88126 0.26138 0.0
H614 H 0.3979 0.97284 0.30907 0.0
H615 H 0.3985 0.98577 0.39262 0.0
H616 H 0.3705 0.97635 0.35342 0.0
H617 H 0.35817 0.94858 0.45365 0.0
H618 H 0.38602 0.95835 0.49415 0.0
H619 H 0.37753 0.92679 0.47974 0.0
H620 H 0.4415 0.89397 0.32127 0.0
H621 H 0.47659 0.9164 0.37609 0.0
H622 H 0.43162 0.96921 0.45106 0.0
C623 C 0.35707 0.92674 0.30851 0.0
C624 C 0.35185 0.90986 0.25601 0.0
C625 C 0.36805 0.89278 0.24117 0.0
C626 C 0.38977 0.89344 0.27548 0.0
C627 C 0.39488 0.91118 0.32471 0.0
C628 C 0.37877 0.92731 0.34182 0.0
C629 C 0.38953 0.94668 0.38932 0.0
C630 C 0.38909 0.97188 0.35925 0.0
C631 C 0.37708 0.94498 0.45831 0.0
C632 C 0.41457 0.9397 0.39356 0.0
C633 C 0.41729 0.91889 0.3574 0.0
C634 C 0.43944 0.91003 0.35071 0.0
C635 C 0.45925 0.92288 0.38157 0.0
C636 C 0.45667 0.9445 0.41713 0.0
C637 C 0.43404 0.95272 0.42388 0.0
H638 H 0.47 0.35032 0.20476 0.0
H639 H 0.48713 0.3003 0.3585 0.0
H640 H 0.51058 0.3333 0.41838 0.0
H641 H 0.52395 0.38837 0.20355 0.0
H642 H 0.51005 0.41582 0.19675 0.0
H643 H 0.49548 0.38817 0.16288 0.0
H644 H 0.45785 0.39329 0.2349 0.0
H645 H 0.47203 0.4213 0.26735 0.0
H646 H 0.4608 0.39804 0.32443 0.0
H647 H 0.53334 0.37115 0.45928 0.0
H648 H 0.54649 0.41282 0.4932 0.0
H649 H 0.5109 0.43884 0.31999 0.0
C650 C 0.47821 0.34615 0.25161 0.0
C651 C 0.477 0.32236 0.27576 0.0
C652 C 0.48836 0.31808 0.3373 0.0
C653 C 0.50171 0.33675 0.37193 0.0
C654 C 0.50314 0.35971 0.34525 0.0
C655 C 0.49108 0.36463 0.28775 0.0
C656 C 0.49395 0.39123 0.27276 0.0
C657 C 0.50661 0.39617 0.20495 0.0
C658 C 0.46973 0.40157 0.27504 0.0
C659 C 0.50961 0.40047 0.33088 0.0
C660 C 0.51512 0.38189 0.37117 0.0
C661 C 0.52911 0.38587 0.42832 0.0
C662 C 0.53667 0.40961 0.44679 0.0
C663 C 0.52972 0.42899 0.40903 0.0
C664 C 0.5167 0.42433 0.34918 0.0
H665 H 0.17024 0.53987 0.1998 0.0
H666 H 0.19048 0.6157 0.23421 0.0
H667 H 0.15052 0.61989 0.28399 0.0
H668 H 0.10892 0.54522 0.15336 0.0
H669 H 0.09793 0.51764 0.19389 0.0
H670 H 0.1277 0.52118 0.15987 0.0
H671 H 0.14475 0.51144 0.27614 0.0
H672 H 0.11505 0.50755 0.31007 0.0
H673 H 0.13723 0.52859 0.34919 0.0
H674 H 0.1093 0.61424 0.3385 0.0
H675 H 0.07086 0.59956 0.39199 0.0
H676 H 0.07755 0.52813 0.31213 0.0
C677 C 0.16616 0.55733 0.21794 0.0
C678 C 0.18318 0.57744 0.21445 0.0
C679 C 0.17748 0.60014 0.23746 0.0
C680 C 0.15489 0.60263 0.26526 0.0
C681 C 0.13835 0.58232 0.26804 0.0
C682 C 0.14376 0.56015 0.24454 0.0
C683 C 0.12331 0.54094 0.25424 0.0
C684 C 0.11391 0.53065 0.18628 0.0
C685 C 0.13052 0.52097 0.30015 0.0
C686 C 0.1056 0.55555 0.28833 0.0
C687 C 0.11448 0.57939 0.29597 0.0
C688 C 0.10199 0.59574 0.3316 0.0
C689 C 0.08019 0.5873 0.36159 0.0
C690 C 0.07118 0.56286 0.35504 0.0
C691 C 0.08374 0.54705 0.3164 0.0
H692 H 0.04234 0.87197 0.97165 0.0
H693 H 0.11022 0.85138 0.90186 0.0
H694 H 0.11742 0.8898 0.84018 0.0
H695 H 0.02646 0.89542 0.81864 0.0
H696 H 0.01103 0.91903 0.8556 0.0
H697 H 0.01321 0.89181 0.90106 0.0
H698 H 0.03227 0.91672 0.00138 0.0
H699 H 0.03036 0.94406 0.95573 0.0
H700 H 0.05863 0.93713 0.98774 0.0
H701 H 0.11559 0.92918 0.78047 0.0
H702 H 0.10305 0.96326 0.71649 0.0
H703 H 0.0355 0.95678 0.82271 0.0
C704 C 0.05896 0.87587 0.94454 0.0
C705 C 0.07599 0.85915 0.94216 0.0
C706 C 0.09716 0.86424 0.90451 0.0
C707 C 0.1014 0.88601 0.8699 0.0
C708 C 0.08416 0.90221 0.87324 0.0
C709 C 0.06323 0.89721 0.90907 0.0
C710 C 0.0463 0.91606 0.89855 0.0
C711 C 0.02288 0.90491 0.86654 0.0
C712 C 0.04163 0.92928 0.96481 0.0
C713 C 0.06074 0.93234 0.85017 0.0
C714 C 0.08273 0.92435 0.83718 0.0
C715 C 0.09854 0.93571 0.79079 0.0
C716 C 0.09132 0.95511 0.75492 0.0
C717 C 0.06838 0.96265 0.76508 0.0
C718 C 0.05327 0.95159 0.81476 0.0
H719 H 0.66808 0.06545 0.95328 0.0
H720 H 0.71513 0.1047 0.81077 0.0
H721 H 0.68078 0.10878 0.7366 0.0
H722 H 0.63593 0.03114 0.83929 0.0
H723 H 0.6076 0.0307 0.88171 0.0
H724 H 0.63463 0.03522 0.92929 0.0
H725 H 0.62184 0.07504 0.97863 0.0
H726 H 0.59456 0.07057 0.93137 0.0
H727 H 0.61396 0.098 0.92264 0.0
H728 H 0.6429 0.10294 0.67111 0.0
H729 H 0.60497 0.08691 0.61841 0.0
H730 H 0.58275 0.05168 0.80449 0.0
C731 C 0.67104 0.07581 0.90785 0.0
C732 C 0.6942 0.08506 0.88815 0.0
C733 C 0.69749 0.09756 0.82685 0.0
C734 C 0.67807 0.10011 0.78475 0.0
C735 C 0.65553 0.09017 0.80497 0.0
C736 C 0.65193 0.0784 0.86539 0.0
C737 C 0.62669 0.06667 0.8719 0.0
C738 C 0.62621 0.03933 0.88103 0.0
C739 C 0.61348 0.07827 0.92956 0.0
C740 C 0.6169 0.07266 0.80431 0.0
C741 C 0.63364 0.08666 0.76694 0.0
C742 C 0.62947 0.09247 0.70042 0.0
C743 C 0.60792 0.08326 0.6709 0.0
C744 C 0.59096 0.06829 0.7078 0.0
C745 C 0.59525 0.0635 0.77576 0.0
H746 H 0.4709 0.67212 0.88674 0.0
H747 H 0.39825 0.65114 0.94951 0.0
H748 H 0.40021 0.61102 0.89565 0.0
H749 H 0.46977 0.64021 0.72688 0.0
H750 H 0.49966 0.63223 0.73677 0.0
H751 H 0.49117 0.65947 0.7748 0.0
H752 H 0.5049 0.64544 0.89076 0.0
H753 H 0.51298 0.61795 0.85335 0.0
H754 H 0.49234 0.61693 0.92297 0.0
H755 H 0.41095 0.5731 0.83353 0.0
H756 H 0.42949 0.54095 0.77153 0.0
H757 H 0.49597 0.5869 0.76113 0.0
C758 C 0.45516 0.65932 0.88746 0.0
C759 C 0.43419 0.66478 0.92033 0.0
C760 C 0.41428 0.64729 0.92313 0.0
C761 C 0.41532 0.62453 0.89305 0.0
C762 C 0.43654 0.61959 0.8619 0.0
C763 C 0.45609 0.63655 0.85929 0.0
C764 C 0.4773 0.62664 0.82676 0.0
C765 C 0.48491 0.64045 0.76248 0.0
C766 C 0.4981 0.62675 0.87644 0.0
C767 C 0.46667 0.60141 0.81081 0.0
C768 C 0.4431 0.59762 0.8308 0.0
C769 C 0.42944 0.57583 0.81829 0.0
C770 C 0.44009 0.55768 0.7834 0.0
C771 C 0.46419 0.56144 0.76272 0.0
C772 C 0.47765 0.58341 0.77764 0.0
H773 H 0.84513 0.41929 0.81237 0.0
H774 H 0.87045 0.43416 0.01596 0.0
H775 H 0.91134 0.44204 0.97337 0.0
H776 H 0.89967 0.39277 0.7478 0.0
H777 H 0.89766 0.4068 0.66724 0.0
H778 H 0.87099 0.3978 0.7146 0.0
H779 H 0.85901 0.4412 0.70864 0.0
H780 H 0.88565 0.45035 0.66188 0.0
H781 H 0.87938 0.46583 0.739 0.0
H782 H 0.94784 0.45572 0.90851 0.0
H783 H 0.97801 0.47128 0.82487 0.0
H784 H 0.92976 0.44691 0.6636 0.0
C785 C 0.85936 0.4236 0.84814 0.0
C786 C 0.85449 0.42582 0.91763 0.0
C787 C 0.87365 0.4317 0.9627 0.0
C788 C 0.89701 0.43639 0.93896 0.0
C789 C 0.90105 0.43493 0.87004 0.0
C790 C 0.88284 0.42833 0.82525 0.0
C791 C 0.89163 0.43027 0.75322 0.0
C792 C 0.88988 0.40543 0.71869 0.0
C793 C 0.87812 0.44797 0.7134 0.0
C794 C 0.91731 0.44002 0.76463 0.0
C795 C 0.92246 0.4424 0.83239 0.0
C796 C 0.94427 0.45335 0.8553 0.0
C797 C 0.96123 0.46222 0.80763 0.0
C798 C 0.95624 0.45992 0.73818 0.0
C799 C 0.93419 0.44833 0.71653 0.0
H800 H 0.02723 0.1659 0.82993 0.0
H801 H 0.05144 0.21201 0.66491 0.0
H802 H 0.06292 0.17649 0.60089 0.0
H803 H 0.0737 0.12347 0.81158 0.0
H804 H 0.05306 0.09807 0.83394 0.0
H805 H 0.04948 0.12739 0.86882 0.0
H806 H 0.00626 0.12438 0.82357 0.0
H807 H 0.00976 0.09508 0.78929 0.0
H808 H 1.00102 0.11824 0.73537 0.0
H809 H 0.06566 0.13529 0.54959 0.0
H810 H 0.06149 0.09229 0.51695 0.0
H811 H 0.03819 0.07342 0.71914 0.0
C812 C 0.03543 0.1685 0.78082 0.0
C813 C 0.03854 0.1915 0.75193 0.0
C814 C 0.04913 0.19444 0.68767 0.0
C815 C 0.05567 0.17441 0.65122 0.0
C816 C 0.05189 0.15178 0.68063 0.0
C817 C 0.04233 0.14882 0.74447 0.0
C818 C 0.03877 0.12258 0.76346 0.0
C819 C 0.05471 0.11759 0.82298 0.0
C820 C 0.01239 0.11462 0.77877 0.0
C821 C 0.0469 0.11105 0.69929 0.0
C822 C 0.05451 0.12818 0.65217 0.0
C823 C 0.06037 0.12176 0.58664 0.0
C824 C 0.05792 0.09732 0.56854 0.0
C825 C 0.04994 0.07958 0.61593 0.0
C826 C 0.04501 0.08656 0.68253 0.0
H827 H 0.36671 0.0241 0.81892 0.0
H828 H 0.33881 0.96207 0.69927 0.0
H829 H 0.37641 0.96385 0.6363 0.0
H830 H 0.39906 0.05501 0.67234 0.0
H831 H 0.42309 0.06773 0.72509 0.0
H832 H 0.39336 0.0625 0.759 0.0
H833 H 0.4091 0.03708 0.85355 0.0
H834 H 0.43876 0.04187 0.81942 0.0
H835 H 0.425 0.01173 0.83155 0.0
H836 H 0.41946 0.96688 0.6041 0.0
H837 H 0.46227 0.9772 0.58363 0.0
H838 H 0.46064 0.04228 0.70293 0.0
C839 C 0.36809 0.01132 0.77817 0.0
C840 C 0.34975 0.99242 0.76614 0.0
C841 C 0.35271 0.97613 0.71204 0.0
C842 C 0.37402 0.97708 0.67528 0.0
C843 C 0.39207 0.99505 0.69093 0.0
C844 C 0.38906 0.01248 0.73913 0.0
C845 C 0.41143 0.02999 0.74509 0.0
C846 C 0.40643 0.05531 0.72412 0.0
C847 C 0.42166 0.03016 0.81665 0.0
C848 C 0.42771 0.01905 0.69468 0.0
C849 C 0.4162 0.99865 0.66496 0.0
C850 C 0.42831 0.9835 0.62414 0.0
C851 C 0.45264 0.98964 0.61204 0.0
C852 C 0.46448 0.01132 0.63764 0.0
C853 C 0.4518 0.02615 0.67999 0.0
H854 H 0.47376 0.32046 0.71392 0.0
H855 H 0.41777 0.33353 0.85619 0.0
H856 H 0.4202 0.37569 0.82129 0.0
H857 H 0.50886 0.3755 0.74092 0.0
H858 H 0.51782 0.37966 0.65435 0.0
H859 H 0.51041 0.34983 0.68591 0.0
H860 H 0.47896 0.34119 0.592 0.0
H861 H 0.48645 0.37099 0.56001 0.0
H862 H 0.45608 0.36108 0.58232 0.0
H863 H 0.43113 0.41744 0.77922 0.0
H864 H 0.4482 0.45521 0.72685 0.0
H865 H 0.49655 0.41527 0.6103 0.0
C866 C 0.46179 0.3321 0.73703 0.0
C867 C 0.44535 0.32344 0.7873 0.0
C868 C 0.43011 0.33942 0.81647 0.0
C869 C 0.43148 0.36354 0.79737 0.0
C870 C 0.44808 0.37155 0.74859 0.0
C871 C 0.46279 0.35629 0.71814 0.0
C872 C 0.4796 0.36976 0.66855 0.0
C873 C 0.50571 0.36862 0.68867 0.0
C874 C 0.47498 0.36019 0.59645 0.0
C875 C 0.47233 0.39499 0.67709 0.0
C876 C 0.45412 0.39564 0.7235 0.0
C877 C 0.44519 0.41712 0.74212 0.0
C878 C 0.45506 0.43851 0.71232 0.0
C879 C 0.47359 0.43826 0.66414 0.0
C880 C 0.48219 0.4161 0.64633 0.0
H881 H 0.16412 0.48948 0.84884 0.0
H882 H 0.21158 0.49935 0.67685 0.0
H883 H 0.17689 0.49999 0.60209 0.0
H884 H 0.11601 0.45121 0.76244 0.0
H885 H 0.09283 0.46479 0.80701 0.0
H886 H 0.12124 0.46302 0.84643 0.0
H887 H 0.12539 0.50904 0.86685 0.0
H888 H 0.0971 0.51098 0.82718 0.0
H889 H 0.12328 0.52874 0.79662 0.0
H890 H 0.13773 0.50261 0.54738 0.0
H891 H 0.09642 0.50647 0.51476 0.0
H892 H 0.07337 0.49455 0.72147 0.0
C893 C 0.16718 0.49115 0.79522 0.0
C894 C 0.19062 0.4942 0.76859 0.0
C895 C 0.19385 0.49704 0.69837 0.0
C896 C 0.17424 0.49733 0.65552 0.0
C897 C 0.15144 0.49474 0.68352 0.0
C898 C 0.14776 0.49158 0.75167 0.0
C899 C 0.12142 0.49052 0.76908 0.0
C900 C 0.11234 0.46592 0.79794 0.0
C901 C 0.11652 0.51104 0.81781 0.0
C902 C 0.11092 0.49396 0.70018 0.0
C903 C 0.12863 0.49624 0.65168 0.0
C904 C 0.1237 0.50063 0.58479 0.0
C905 C 0.1001 0.5029 0.56687 0.0
C906 C 0.08154 0.50079 0.61548 0.0
C907 C 0.08707 0.49598 0.683 0.0
H908 H 0.97804 0.85006 0.26702 0.0
H909 H 0.97079 0.80486 0.4429 0.0
H910 H 0.97297 0.84113 0.51602 0.0
H911 H 0.02082 0.89197 0.33231 0.0
H912 H 0.01024 0.91777 0.29358 0.0
H913 H 0.00436 0.88859 0.25477 0.0
H914 H 0.95912 0.89283 0.25617 0.0
H915 H 0.96485 0.92221 0.29448 0.0
H916 H 0.9447 0.89957 0.33429 0.0
H917 H 0.9807 0.88185 0.56956 0.0
H918 H 0.99301 0.92402 0.60049 0.0
H919 H 0.99529 0.94299 0.3894 0.0
C920 C 0.97599 0.84777 0.32081 0.0
C921 C 0.97385 0.82463 0.34935 0.0
C922 C 0.97225 0.82241 0.42009 0.0
C923 C 0.9734 0.8429 0.46189 0.0
C924 C 0.97614 0.86545 0.43212 0.0
C925 C 0.97725 0.86801 0.36314 0.0
C926 C 0.98244 0.89417 0.34398 0.0
C927 C 0.00585 0.89835 0.30382 0.0
C928 C 0.96153 0.9027 0.30492 0.0
C929 C 0.98472 0.90591 0.41301 0.0
C930 C 0.98077 0.88903 0.4631 0.0
C931 C 0.98345 0.89526 0.53082 0.0
C932 C 0.99057 0.91928 0.54782 0.0
C933 C 0.99501 0.93686 0.49736 0.0
C934 C 0.99165 0.93007 0.42913 0.0
H935 H 0.68591 0.96831 0.33626 0.0
H936 H 0.70797 0.04426 0.36784 0.0
H937 H 0.67064 0.04864 0.42862 0.0
H938 H 0.62654 0.97507 0.29966 0.0
H939 H 0.61407 0.94822 0.34126 0.0
H940 H 0.64392 0.95001 0.30819 0.0
H941 H 0.65986 0.94023 0.42548 0.0
H942 H 0.62999 0.93824 0.45889 0.0
H943 H 0.65313 0.95837 0.49731 0.0
H944 H 0.62898 0.04621 0.47366 0.0
H945 H 0.58676 0.03643 0.50436 0.0
H946 H 0.59105 0.96221 0.44488 0.0
C947 C 0.68311 0.98581 0.35676 0.0
C948 C 0.70026 0.00586 0.34749 0.0
C949 C 0.69563 0.02841 0.37538 0.0
C950 C 0.67428 0.03117 0.40965 0.0
C951 C 0.65757 0.01124 0.41612 0.0
C952 C 0.6618 0.98892 0.39106 0.0
C953 C 0.64024 0.97076 0.40132 0.0
C954 C 0.63063 0.96041 0.33358 0.0
C955 C 0.64616 0.95071 0.44857 0.0
C956 C 0.62305 0.98652 0.43436 0.0
C957 C 0.63349 0.00978 0.44279 0.0
C958 C 0.62078 0.02794 0.46855 0.0
C959 C 0.59679 0.02221 0.48613 0.0
C960 C 0.5857 0.99851 0.47831 0.0
C961 C 0.59912 0.98043 0.45238 0.0
H962 H 0.52305 0.65072 0.25981 0.0
H963 H 0.55962 0.69818 0.4079 0.0
H964 H 0.56794 0.66286 0.47479 0.0
H965 H 0.49404 0.61089 0.36906 0.0
H966 H 0.4968 0.58423 0.31897 0.0
H967 H 0.49704 0.61283 0.27891 0.0
H968 H 0.53766 0.60671 0.22321 0.0
H969 H 0.53744 0.57803 0.26352 0.0
H970 H 0.56232 0.60053 0.27512 0.0
H971 H 0.56554 0.62315 0.53419 0.0
H972 H 0.55544 0.58216 0.5776 0.0
H973 H 0.52312 0.56 0.38672 0.0
C974 C 0.5335 0.65354 0.30526 0.0
C975 C 0.54097 0.67701 0.32872 0.0
C976 C 0.55414 0.68026 0.38889 0.0
C977 C 0.55885 0.66032 0.42708 0.0
C978 C 0.55063 0.63734 0.40354 0.0
C979 C 0.53861 0.63385 0.34327 0.0
C980 C 0.53018 0.60755 0.33131 0.0
C981 C 0.5029 0.60367 0.3242 0.0
C982 C 0.54265 0.59762 0.26963 0.0
C983 C 0.53833 0.59684 0.39568 0.0
C984 C 0.55018 0.61429 0.4366 0.0
C985 C 0.55691 0.60924 0.50181 0.0
C986 C 0.55106 0.58593 0.52611 0.0
C987 C 0.53885 0.56787 0.4851 0.0
C988 C 0.53301 0.57329 0.41849 0.0
H989 H 0.829 0.48562 0.41439 0.0
H990 H 0.83584 0.54112 0.26285 0.0
H991 H 0.87608 0.55449 0.30323 0.0
H992 H 0.86595 0.51994 0.54698 0.0
H993 H 0.87896 0.49345 0.57273 0.0
H994 H 0.84908 0.49089 0.54021 0.0
H995 H 0.86091 0.46029 0.45041 0.0
H996 H 0.89083 0.46299 0.48218 0.0
H997 H 0.8856 0.46862 0.39472 0.0
H998 H 0.91758 0.55764 0.34594 0.0
H999 H 0.95669 0.55241 0.39506 0.0
H1000 H 0.92382 0.49515 0.51994 0.0
C1001 C 0.83872 0.50094 0.39064 0.0
C1002 C 0.82895 0.51238 0.33555 0.0
C1003 C 0.84245 0.53234 0.30604 0.0
C1004 C 0.86552 0.53998 0.3283 0.0
C1005 C 0.87493 0.52768 0.3806 0.0
C1006 C 0.86186 0.50881 0.41222 0.0
C1007 C 0.8769 0.49743 0.46361 0.0
C1008 C 0.86714 0.50063 0.53513 0.0
C1009 C 0.87866 0.47076 0.44667 0.0
C1010 C 0.90067 0.5123 0.454 0.0
C1011 C 0.89905 0.52973 0.40613 0.0
C1012 C 0.91898 0.5444 0.38448 0.0
C1013 C 0.94115 0.54118 0.41236 0.0
C1014 C 0.94328 0.52351 0.46165 0.0
C1015 C 0.92267 0.50911 0.48326 0.0
loop_
_geom_bond_atom_site_label_1
_geom_bond_atom_site_label_2
_geom_bond_distance
_geom_bond_site_symmetry_2
_ccdc_geom_bond_type
C0 C1 1.384 . S
C0 H13 0.947 . S
C0 C35 1.382 . S
C1 C0 1.384 . S
C1 C2 1.378 . S
C2 C1 1.378 . S
C2 C3 1.378 . S
C2 H14 0.952 . S
C3 C2 1.378 . S
C3 H15 0.950 . S
C3 C34 1.383 . S
H4 C23 0.947 . S
H5 C24 0.946 . S
H6 C26 0.953 . S
H7 C27 0.945 . S
H8 C29 0.952 . S
H9 C30 0.949 . S
H10 C32 0.950 . S
H11 C33 0.948 . S
H12 C35 0.951 . S
H13 C0 0.947 . S
H14 C2 0.952 . S
H15 C3 0.950 . S
N16 C19 1.382 . S
N16 C21 1.363 . S
N17 C19 1.371 1_556 S
N17 C20 1.372 . S
N18 C20 1.361 1_554 S
N18 C21 1.377 . S
C19 N16 1.382 . S
C19 N17 1.371 1_554 S
C19 C22 1.480 1_554 S
C20 N17 1.372 . S
C20 N18 1.361 1_556 S
C20 C28 1.457 . S
C21 N16 1.363 . S
C21 N18 1.377 . S
C21 C34 1.479 . S
C22 C19 1.480 1_556 S
C22 C23 1.383 1_556 S
C22 C27 1.385 . S
C23 H4 0.947 . S
C23 C22 1.383 1_554 S
C23 C24 1.388 . S
C24 H5 0.946 . S
C24 C23 1.388 . S
C24 C25 1.384 1_554 S
C25 C24 1.384 1_556 S
C25 C26 1.377 . S
C26 H6 0.953 . S
C26 C25 1.377 . S
C26 C27 1.369 . S
C27 H7 0.945 . S
C27 C22 1.385 . S
C27 C26 1.369 . S
C28 C20 1.457 . S
C28 C29 1.372 . S
C28 C33 1.364 . S
C29 H8 0.952 . S
C29 C28 1.372 . S
C29 C30 1.389 . S
C30 H9 0.949 . S
C30 C29 1.389 . S
C30 C31 1.387 . S
C31 C30 1.387 . S
C31 C32 1.372 . S
C32 H10 0.950 . S
C32 C31 1.372 . S
C32 C33 1.379 . S
C33 H11 0.948 . S
C33 C28 1.364 . S
C33 C32 1.379 . S
C34 C3 1.383 . S
C34 C21 1.479 . S
C34 C35 1.398 . S
C35 C0 1.382 . S
C35 H12 0.951 . S
C35 C34 1.398 . S
C36 C37 1.384 . S
C36 H49 0.947 . S
C36 C71 1.382 . S
C37 C36 1.384 . S
C37 C38 1.378 . S
C38 C37 1.378 . S
C38 C39 1.378 . S
C38 H50 0.952 . S
C39 C38 1.378 . S
C39 H51 0.950 . S
C39 C70 1.383 . S
H40 C59 0.947 . S
H41 C60 0.946 . S
H42 C62 0.953 . S
H43 C63 0.945 . S
H44 C65 0.952 . S
H45 C66 0.949 . S
H46 C68 0.950 . S
H47 C69 0.948 . S
H48 C71 0.951 . S
H49 C36 0.947 . S
H50 C38 0.952 . S
H51 C39 0.950 . S
N52 C55 1.382 1_554 S
N52 C57 1.363 . S
N53 C55 1.371 . S
N53 C56 1.372 . S
N54 C56 1.361 1_554 S
N54 C57 1.377 . S
C55 N52 1.382 1_556 S
C55 N53 1.371 . S
C55 C58 1.480 . S
C56 N53 1.372 . S
C56 N54 1.361 1_556 S
C56 C64 1.457 . S
C57 N52 1.363 . S
C57 N54 1.377 . S
C57 C70 1.479 . S
C58 C55 1.480 . S
C58 C59 1.383 1_556 S
C58 C63 1.385 . S
C59 H40 0.947 . S
C59 C58 1.383 1_554 S
C59 C60 1.388 . S
C60 H41 0.946 . S
C60 C59 1.388 . S
C60 C61 1.384 1_554 S
C61 C60 1.384 1_556 S
C61 C62 1.377 . S
C62 H42 0.953 . S
C62 C61 1.377 . S
C62 C63 1.369 . S
C63 H43 0.945 . S
C63 C58 1.385 . S
C63 C62 1.369 . S
C64 C56 1.457 . S
C64 C65 1.372 . S
C64 C69 1.364 . S
C65 H44 0.952 . S
C65 C64 1.372 . S
C65 C66 1.389 . S
C66 H45 0.949 . S
C66 C65 1.389 . S
C66 C67 1.387 . S
C67 C66 1.387 . S
C67 C68 1.372 . S
C68 H46 0.950 . S
C68 C67 1.372 . S
C68 C69 1.379 . S
C69 H47 0.948 . S
C69 C64 1.364 . S
C69 C68 1.379 . S
C70 C39 1.383 . S
C70 C57 1.479 . S
C70 C71 1.398 . S
C71 C36 1.382 . S
C71 H48 0.951 . S
C71 C70 1.398 . S
C72 C73 1.384 1_565 S
C72 H85 0.947 . S
C72 C107 1.382 1_565 S
C73 C72 1.384 1_545 S
C73 C74 1.378 . S
C74 C73 1.378 . S
C74 C75 1.378 . S
C74 H86 0.952 . S
C75 C74 1.378 . S
C75 H87 0.950 . S
C75 C106 1.383 . S
H76 C95 0.947 . S
H77 C96 0.954 . S
H78 C98 0.953 . S
H79 C99 0.945 . S
H80 C101 0.947 1_565 S
H81 C102 0.957 . S
H82 C104 0.950 . S
H83 C105 0.948 . S
H84 C107 0.951 1_565 S
H85 C72 0.947 . S
H86 C74 0.952 . S
H87 C75 0.950 . S
N88 C91 1.382 . S
N88 C93 1.363 . S
N89 C91 1.371 1_556 S
N89 C92 1.372 . S
N90 C92 1.361 1_554 S
N90 C93 1.377 . S
C91 N88 1.382 . S
C91 N89 1.371 1_554 S
C91 C94 1.480 1_554 S
C92 N89 1.372 . S
C92 N90 1.361 1_556 S
C92 C100 1.457 . S
C93 N88 1.363 . S
C93 N90 1.377 . S
C93 C106 1.479 . S
C94 C91 1.480 1_556 S
C94 C95 1.383 1_556 S
C94 C99 1.385 . S
C95 H76 0.947 . S
C95 C94 1.383 1_554 S
C95 C96 1.383 1_545 S
C96 H77 0.954 . S
C96 C95 1.383 1_565 S
C96 C97 1.382 1_564 S
C97 C96 1.382 1_546 S
C97 C98 1.377 . S
C98 H78 0.953 . S
C98 C97 1.377 . S
C98 C99 1.369 . S
C99 H79 0.945 . S
C99 C94 1.385 . S
C99 C98 1.369 . S
C100 C92 1.457 . S
C100 C101 1.377 . S
C100 C105 1.364 . S
C101 H80 0.947 1_545 S
C101 C100 1.377 . S
C101 C102 1.392 1_545 S
C102 H81 0.957 . S
C102 C101 1.392 1_565 S
C102 C103 1.379 1_565 S
C103 C102 1.379 1_545 S
C103 C104 1.372 . S
C104 H82 0.950 . S
C104 C103 1.372 . S
C104 C105 1.379 . S
C105 H83 0.948 . S
C105 C100 1.364 . S
C105 C104 1.379 . S
C106 C75 1.383 . S
C106 C93 1.479 . S
C106 C107 1.398 . S
C107 C72 1.382 1_545 S
C107 H84 0.951 1_545 S
C107 C106 1.398 . S
C108 C109 1.384 . S
C108 H121 0.947 . S
C108 C143 1.382 . S
C109 C108 1.384 . S
C109 C110 1.378 . S
C110 C109 1.378 . S
C110 C111 1.378 . S
C110 H122 0.952 . S
C111 C110 1.378 . S
C111 H123 0.950 . S
C111 C142 1.383 . S
H112 C131 0.947 . S
H113 C132 0.946 . S
H114 C134 0.953 . S
H115 C135 0.945 . S
H116 C137 0.952 . S
H117 C138 0.949 . S
H118 C140 0.950 . S
H119 C141 0.948 . S
H120 C143 0.951 1_554 S
H121 C108 0.947 . S
H122 C110 0.952 . S
H123 C111 0.950 . S
N124 C127 1.377 1_556 S
N124 C129 1.361 1_556 S
N125 C127 1.371 . S
N125 C128 1.372 . S
N126 C128 1.361 . S
N126 C129 1.377 . S
C127 N124 1.377 1_554 S
C127 N125 1.371 . S
C127 C130 1.480 . S
C128 N125 1.372 . S
C128 N126 1.361 . S
C128 C136 1.457 . S
C129 N124 1.361 1_554 S
C129 N126 1.377 . S
C129 C142 1.479 1_554 S
C130 C127 1.480 . S
C130 C131 1.383 1_554 S
C130 C135 1.385 . S
C131 H112 0.947 . S
C131 C130 1.383 1_556 S
C131 C132 1.388 . S
C132 H113 0.946 . S
C132 C131 1.388 . S
C132 C133 1.384 1_556 S
C133 C132 1.384 1_554 S
C133 C134 1.377 . S
C134 H114 0.953 . S
C134 C133 1.377 . S
C134 C135 1.369 . S
C135 H115 0.945 . S
C135 C130 1.385 . S
C135 C134 1.369 . S
C136 C128 1.457 . S
C136 C137 1.372 . S
C136 C141 1.364 . S
C137 H116 0.952 . S
C137 C136 1.372 . S
C137 C138 1.389 . S
C138 H117 0.949 . S
C138 C137 1.389 . S
C138 C139 1.387 . S
C139 C138 1.387 . S
C139 C140 1.372 . S
C140 H118 0.950 . S
C140 C139 1.372 . S
C140 C141 1.379 . S
C141 H119 0.948 . S
C141 C136 1.364 . S
C141 C140 1.379 . S
C142 C111 1.383 . S
C142 C129 1.479 1_556 S
C142 C143 1.398 . S
C143 C108 1.382 . S
C143 H120 0.951 1_556 S
C143 C142 1.398 . S
C144 C145 1.384 . S
C144 H157 0.947 . S
C144 C179 1.382 . S
C145 C144 1.384 . S
C145 C146 1.378 . S
C146 C145 1.378 . S
C146 C147 1.378 . S
C146 H158 0.952 . S
C147 C146 1.378 . S
C147 H159 0.950 . S
C147 C178 1.383 . S
H148 C167 0.947 . S
H149 C168 0.946 . S
H150 C170 0.953 . S
H151 C171 0.945 . S
H152 C173 0.952 . S
H153 C174 0.949 . S
H154 C176 0.950 . S
H155 C177 0.948 . S
H156 C179 0.951 . S
H157 C144 0.947 . S
H158 C146 0.952 . S
H159 C147 0.950 . S
N160 C163 1.382 . S
N160 C165 1.363 . S
N161 C163 1.371 . S
N161 C164 1.372 . S
N162 C164 1.361 . S
N162 C165 1.377 . S
C163 N160 1.382 . S
C163 N161 1.371 . S
C163 C166 1.480 . S
C164 N161 1.372 . S
C164 N162 1.361 . S
C164 C172 1.457 . S
C165 N160 1.363 . S
C165 N162 1.377 . S
C165 C178 1.479 1_554 S
C166 C163 1.480 . S
C166 C167 1.383 . S
C166 C171 1.385 . S
C167 H148 0.947 . S
C167 C166 1.383 . S
C167 C168 1.388 . S
C168 H149 0.946 . S
C168 C167 1.388 . S
C168 C169 1.384 . S
C169 C168 1.384 . S
C169 C170 1.377 . S
C170 H150 0.953 . S
C170 C169 1.377 . S
C170 C171 1.369 . S
C171 H151 0.945 . S
C171 C166 1.385 . S
C171 C170 1.369 . S
C172 C164 1.457 . S
C172 C173 1.372 . S
C172 C177 1.364 . S
C173 H152 0.952 . S
C173 C172 1.372 . S
C173 C174 1.389 . S
C174 H153 0.949 . S
C174 C173 1.389 . S
C174 C175 1.387 . S
C175 C174 1.387 . S
C175 C176 1.372 . S
C176 H154 0.950 . S
C176 C175 1.372 . S
C176 C177 1.379 . S
C177 H155 0.948 . S
C177 C172 1.364 . S
C177 C176 1.379 . S
C178 C147 1.383 . S
C178 C165 1.479 1_556 S
C178 C179 1.398 . S
C179 C144 1.382 . S
C179 H156 0.951 . S
C179 C178 1.398 . S
C180 C181 1.384 . S
C180 H193 0.947 . S
C180 C215 1.382 . S
C181 C180 1.384 . S
C181 C182 1.378 . S
C182 C181 1.378 . S
C182 C183 1.378 . S
C182 H194 0.952 . S
C183 C182 1.378 . S
C183 H195 0.950 . S
C183 C214 1.383 . S
H184 C203 0.947 . S
H185 C204 0.946 . S
H186 C206 0.953 . S
H187 C207 0.945 . S
H188 C209 0.952 . S
H189 C210 0.949 . S
H190 C212 0.950 . S
H191 C213 0.948 . S
H192 C215 0.951 . S
H193 C180 0.947 . S
H194 C182 0.952 . S
H195 C183 0.950 . S
N196 C199 1.382 . S
N196 C201 1.363 . S
N197 C199 1.371 . S
N197 C200 1.372 . S
N198 C200 1.361 . S
N198 C201 1.377 . S
C199 N196 1.382 . S
C199 N197 1.371 . S
C199 C202 1.480 . S
C200 N197 1.372 . S
C200 N198 1.361 . S
C200 C208 1.457 . S
C201 N196 1.363 . S
C201 N198 1.377 . S
C201 C214 1.479 1_554 S
C202 C199 1.480 . S
C202 C203 1.383 . S
C202 C207 1.385 . S
C203 H184 0.947 . S
C203 C202 1.383 . S
C203 C204 1.388 . S
C204 H185 0.946 . S
C204 C203 1.388 . S
C204 C205 1.384 . S
C205 C204 1.384 . S
C205 C206 1.377 . S
C206 H186 0.953 . S
C206 C205 1.377 . S
C206 C207 1.369 . S
C207 H187 0.945 . S
C207 C202 1.385 . S
C207 C206 1.369 . S
C208 C200 1.457 . S
C208 C209 1.372 . S
C208 C213 1.364 . S
C209 H188 0.952 . S
C209 C208 1.372 . S
C209 C210 1.389 . S
C210 H189 0.949 . S
C210 C209 1.389 . S
C210 C211 1.387 . S
C211 C210 1.387 . S
C211 C212 1.372 . S
C212 H190 0.950 . S
C212 C211 1.372 . S
C212 C213 1.379 . S
C213 H191 0.948 . S
C213 C208 1.364 . S
C213 C212 1.379 . S
C214 C183 1.383 . S
C214 C201 1.479 1_556 S
C214 C215 1.398 . S
C215 C180 1.382 . S
C215 H192 0.951 . S
C215 C214 1.398 . S
C216 C217 1.383 . S
C216 H229 0.948 1_545 S
C216 C251 1.381 . S
C217 C216 1.383 . S
C217 C218 1.378 . S
C218 C217 1.378 . S
C218 C219 1.378 . S
C218 H230 0.952 . S
C219 C218 1.378 . S
C219 H231 0.950 . S
C219 C250 1.383 . S
H220 C239 0.947 . S
H221 C240 0.948 . S
H222 C242 0.953 . S
H223 C243 0.945 . S
H224 C245 0.951 1_565 S
H225 C246 0.954 . S
H226 C248 0.950 . S
H227 C249 0.948 . S
H228 C251 0.949 1_565 S
H229 C216 0.948 1_565 S
H230 C218 0.952 . S
H231 C219 0.950 . S
N232 C235 1.382 . S
N232 C237 1.363 . S
N233 C235 1.371 . S
N233 C236 1.372 . S
N234 C236 1.361 . S
N234 C237 1.377 . S
C235 N232 1.382 . S
C235 N233 1.371 . S
C235 C238 1.480 . S
C236 N233 1.372 . S
C236 N234 1.361 . S
C236 C244 1.457 . S
C237 N232 1.363 . S
C237 N234 1.377 . S
C237 C250 1.479 1_554 S
C238 C235 1.480 . S
C238 C239 1.383 . S
C238 C243 1.385 . S
C239 H220 0.947 . S
C239 C238 1.383 . S
C239 C240 1.388 1_545 S
C240 H221 0.948 . S
C240 C239 1.388 1_565 S
C240 C241 1.382 1_565 S
C241 C240 1.382 1_545 S
C241 C242 1.377 . S
C242 H222 0.953 . S
C242 C241 1.377 . S
C242 C243 1.369 . S
C243 H223 0.945 . S
C243 C238 1.385 . S
C243 C242 1.369 . S
C244 C236 1.457 . S
C244 C245 1.378 . S
C244 C249 1.364 . S
C245 H224 0.951 1_545 S
C245 C244 1.378 . S
C245 C246 1.381 1_545 S
C246 H225 0.954 . S
C246 C245 1.381 1_565 S
C246 C247 1.387 1_565 S
C247 C246 1.387 1_545 S
C247 C248 1.372 . S
C248 H226 0.950 . S
C248 C247 1.372 . S
C248 C249 1.379 . S
C249 H227 0.948 . S
C249 C244 1.364 . S
C249 C248 1.379 . S
C250 C219 1.383 . S
C250 C237 1.479 1_556 S
C250 C251 1.400 . S
C251 C216 1.381 . S
C251 H228 0.949 1_545 S
C251 C250 1.400 . S
C252 C253 1.384 . S
C252 H265 0.947 . S
C252 C287 1.382 . S
C253 C252 1.384 . S
C253 C254 1.378 . S
C254 C253 1.378 . S
C254 C255 1.378 . S
C254 H266 0.952 . S
C255 C254 1.378 . S
C255 H267 0.950 . S
C255 C286 1.383 . S
H256 C275 0.947 . S
H257 C276 0.946 . S
H258 C278 0.953 . S
H259 C279 0.945 1_556 S
H260 C281 0.952 . S
H261 C282 0.949 . S
H262 C284 0.950 . S
H263 C285 0.948 . S
H264 C287 0.951 . S
H265 C252 0.947 . S
H266 C254 0.952 . S
H267 C255 0.950 . S
N268 C271 1.382 . S
N268 C273 1.363 . S
N269 C271 1.371 1_556 S
N269 C272 1.372 . S
N270 C272 1.361 1_554 S
N270 C273 1.377 . S
C271 N268 1.382 . S
C271 N269 1.371 1_554 S
C271 C274 1.480 . S
C272 N269 1.372 . S
C272 N270 1.361 1_556 S
C272 C280 1.457 . S
C273 N268 1.363 . S
C273 N270 1.377 . S
C273 C286 1.479 . S
C274 C271 1.480 . S
C274 C275 1.383 . S
C274 C279 1.385 . S
C275 H256 0.947 . S
C275 C274 1.383 . S
C275 C276 1.388 . S
C276 H257 0.946 . S
C276 C275 1.388 . S
C276 C277 1.384 . S
C277 C276 1.384 . S
C277 C278 1.377 . S
C278 H258 0.953 . S
C278 C277 1.377 . S
C278 C279 1.369 . S
C279 H259 0.945 1_554 S
C279 C274 1.385 . S
C279 C278 1.369 . S
C280 C272 1.457 . S
C280 C281 1.372 . S
C280 C285 1.364 . S
C281 H260 0.952 . S
C281 C280 1.372 . S
C281 C282 1.389 . S
C282 H261 0.949 . S
C282 C281 1.389 . S
C282 C283 1.387 . S
C283 C282 1.387 . S
C283 C284 1.372 . S
C284 H262 0.950 . S
C284 C283 1.372 . S
C284 C285 1.379 . S
C285 H263 0.948 . S
C285 C280 1.364 . S
C285 C284 1.379 . S
C286 C255 1.383 . S
C286 C273 1.479 . S
C286 C287 1.398 . S
C287 C252 1.382 . S
C287 H264 0.951 . S
C287 C286 1.398 . S
Dy288 O292 2.398 . S
Dy288 O293 2.491 1_455 S
Dy288 O294 2.403 . S
Dy288 O295 2.664 1_565 S
Dy288 O299 2.326 . S
Dy288 O303 2.310 1_455 S
Dy288 O304 2.351 1_565 S
C289 O300 1.185 1_455 S
C289 O301 1.355 . S
C290 O292 1.185 . S
C290 O293 1.355 1_455 S
Dy291 O295 2.310 1_655 S
Dy291 O298 2.351 1_545 S
Dy291 O300 2.398 . S
Dy291 O301 2.491 1_655 S
Dy291 O302 2.403 . S
Dy291 O303 2.664 1_545 S
Dy291 O305 2.326 1_655 S
O292 Dy288 2.398 . S
O292 C290 1.185 . S
O293 Dy288 2.491 1_655 S
O293 C290 1.355 1_655 S
O294 Dy288 2.403 . S
O294 C296 1.254 . S
O295 Dy288 2.664 1_545 S
O295 Dy291 2.310 1_455 S
O295 C296 1.268 1_545 S
C296 O294 1.254 . S
C296 O295 1.268 1_565 S
C297 O302 1.254 . S
C297 O303 1.268 1_545 S
O298 Dy291 2.351 1_565 S
O298 C306 1.249 . S
O299 Dy288 2.326 . S
O299 C306 1.267 1_455 S
O300 C289 1.185 1_655 S
O300 Dy291 2.398 . S
O301 C289 1.355 . S
O301 Dy291 2.491 1_455 S
O302 Dy291 2.403 . S
O302 C297 1.254 . S
O303 Dy288 2.310 1_655 S
O303 Dy291 2.664 1_565 S
O303 C297 1.268 1_565 S
O304 Dy288 2.351 1_545 S
O304 C307 1.249 . S
O305 Dy291 2.326 1_455 S
O305 C307 1.267 . S
C306 O298 1.249 . S
C306 O299 1.267 1_655 S
C307 O304 1.249 . S
C307 O305 1.267 . S
Dy308 O312 2.398 . S
Dy308 O313 2.491 . S
Dy308 O314 2.403 . S
Dy308 O315 2.664 . S
Dy308 O319 2.326 1_565 S
Dy308 O323 2.310 1_565 S
Dy308 O324 2.351 . S
C309 O320 1.185 . S
C309 O321 1.355 . S
C310 O312 1.185 . S
C310 O313 1.355 . S
Dy311 O315 2.310 1_545 S
Dy311 O318 2.351 . S
Dy311 O320 2.398 . S
Dy311 O321 2.491 . S
Dy311 O322 2.403 . S
Dy311 O323 2.664 . S
Dy311 O325 2.326 1_545 S
O312 Dy308 2.398 . S
O312 C310 1.185 . S
O313 Dy308 2.491 . S
O313 C310 1.355 . S
O314 Dy308 2.403 . S
O314 C316 1.254 . S
O315 Dy308 2.664 . S
O315 Dy311 2.310 1_565 S
O315 C316 1.268 . S
C316 O314 1.254 . S
C316 O315 1.268 . S
C317 O322 1.254 . S
C317 O323 1.268 . S
O318 Dy311 2.351 . S
O318 C326 1.249 . S
O319 Dy308 2.326 1_545 S
O319 C326 1.267 . S
O320 C309 1.185 . S
O320 Dy311 2.398 . S
O321 C309 1.355 . S
O321 Dy311 2.491 . S
O322 Dy311 2.403 . S
O322 C317 1.254 . S
O323 Dy308 2.310 1_545 S
O323 Dy311 2.664 . S
O323 C317 1.268 . S
O324 Dy308 2.351 . S
O324 C327 1.249 . S
O325 Dy311 2.326 1_565 S
O325 C327 1.267 . S
C326 O318 1.249 . S
C326 O319 1.267 . S
C327 O324 1.249 . S
C327 O325 1.267 . S
Dy328 O332 2.398 . S
Dy328 O333 2.491 . S
Dy328 O334 2.403 . S
Dy328 O335 2.664 . S
Dy328 O339 2.326 . S
Dy328 O343 2.310 . S
Dy328 O344 2.351 . S
C329 O340 1.185 . S
C329 O341 1.355 . S
C330 O332 1.185 . S
C330 O333 1.355 . S
Dy331 O335 2.310 . S
Dy331 O338 2.351 . S
Dy331 O340 2.398 . S
Dy331 O341 2.491 . S
Dy331 O342 2.403 . S
Dy331 O343 2.664 . S
Dy331 O345 2.326 . S
O332 Dy328 2.398 . S
O332 C330 1.185 . S
O333 Dy328 2.491 . S
O333 C330 1.355 . S
O334 Dy328 2.403 . S
O334 C336 1.254 . S
O335 Dy328 2.664 . S
O335 Dy331 2.310 . S
O335 C336 1.268 . S
C336 O334 1.254 . S
C336 O335 1.268 . S
C337 O342 1.254 . S
C337 O343 1.268 . S
O338 Dy331 2.351 . S
O338 C346 1.249 . S
O339 Dy328 2.326 . S
O339 C346 1.267 . S
O340 C329 1.185 . S
O340 Dy331 2.398 . S
O341 C329 1.355 . S
O341 Dy331 2.491 . S
O342 Dy331 2.403 . S
O342 C337 1.254 . S
O343 Dy328 2.310 . S
O343 Dy331 2.664 . S
O343 C337 1.268 . S
O344 Dy328 2.351 . S
O344 C347 1.249 . S
O345 Dy331 2.326 . S
O345 C347 1.267 . S
C346 O338 1.249 . S
C346 O339 1.267 . S
C347 O344 1.249 . S
C347 O345 1.267 . S
Dy348 O352 2.398 . S
Dy348 O353 2.491 . S
Dy348 O354 2.403 1_655 S
Dy348 O355 2.664 1_655 S
Dy348 O359 2.326 . S
Dy348 O363 2.310 . S
Dy348 O364 2.351 1_655 S
C349 O360 1.185 . S
C349 O361 1.355 . S
C350 O352 1.185 . S
C350 O353 1.355 . S
Dy351 O355 2.310 . S
Dy351 O358 2.351 1_455 S
Dy351 O360 2.398 . S
Dy351 O361 2.491 . S
Dy351 O362 2.403 . S
Dy351 O363 2.664 1_455 S
Dy351 O365 2.326 . S
O352 Dy348 2.398 . S
O352 C350 1.185 . S
O353 Dy348 2.491 . S
O353 C350 1.355 . S
O354 Dy348 2.403 1_455 S
O354 C356 1.254 . S
O355 Dy348 2.664 1_455 S
O355 Dy351 2.310 . S
O355 C356 1.268 . S
C356 O354 1.254 . S
C356 O355 1.268 . S
C357 O362 1.254 1_655 S
C357 O363 1.268 . S
O358 Dy351 2.351 1_655 S
O358 C366 1.249 . S
O359 Dy348 2.326 . S
O359 C366 1.267 . S
O360 C349 1.185 . S
O360 Dy351 2.398 . S
O361 C349 1.355 . S
O361 Dy351 2.491 . S
O362 Dy351 2.403 . S
O362 C357 1.254 1_455 S
O363 Dy348 2.310 . S
O363 Dy351 2.664 1_655 S
O363 C357 1.268 . S
O364 Dy348 2.351 1_455 S
O364 C367 1.249 . S
O365 Dy351 2.326 . S
O365 C367 1.267 . S
C366 O358 1.249 . S
C366 O359 1.267 . S
C367 O364 1.249 . S
C367 O365 1.267 . S
H368 C380 0.930 . S
H369 C382 0.930 . S
H370 C383 0.930 . S
H371 C387 0.959 . S
H372 C387 0.959 . S
H373 C387 0.961 . S
H374 C388 0.960 . S
H375 C388 0.961 . S
H376 C388 0.959 . S
H377 C391 0.929 . S
H378 C392 0.931 . S
H379 C394 0.930 . S
C380 H368 0.930 . S
C380 C381 1.399 1_565 S
C380 C385 1.399 . S
C381 C380 1.399 1_545 S
C381 C382 1.376 . S
C382 H369 0.930 . S
C382 C381 1.376 . S
C382 C383 1.388 . S
C383 H370 0.930 . S
C383 C382 1.388 . S
C383 C384 1.390 . S
C384 C383 1.390 . S
C384 C385 1.394 1_545 S
C384 C390 1.465 . S
C385 C380 1.399 . S
C385 C384 1.394 1_565 S
C385 C386 1.516 . S
C386 C385 1.516 . S
C386 C387 1.502 . S
C386 C388 1.561 . S
C386 C389 1.526 . S
C387 H371 0.959 . S
C387 H372 0.959 . S
C387 H373 0.961 . S
C387 C386 1.502 . S
C388 H374 0.960 . S
C388 H375 0.961 . S
C388 H376 0.959 . S
C388 C386 1.561 . S
C389 C386 1.526 . S
C389 C390 1.396 1_565 S
C389 C394 1.390 . S
C390 C384 1.465 . S
C390 C389 1.396 1_545 S
C390 C391 1.399 . S
C391 H377 0.929 . S
C391 C390 1.399 . S
C391 C392 1.385 . S
C392 H378 0.931 . S
C392 C391 1.385 . S
C392 C393 1.389 1_545 S
C393 C392 1.389 1_565 S
C393 C394 1.387 . S
C394 H379 0.930 . S
C394 C389 1.390 . S
C394 C393 1.387 . S
H395 C407 0.930 . S
H396 C409 0.930 . S
H397 C410 0.930 . S
H398 C414 0.959 . S
H399 C414 0.959 . S
H400 C414 0.961 . S
H401 C415 0.960 . S
H402 C415 0.961 . S
H403 C415 0.959 . S
H404 C418 0.929 . S
H405 C419 0.931 . S
H406 C421 0.930 . S
C407 H395 0.930 . S
C407 C408 1.399 . S
C407 C412 1.399 . S
C408 C407 1.399 . S
C408 C409 1.376 . S
C409 H396 0.930 . S
C409 C408 1.376 . S
C409 C410 1.388 . S
C410 H397 0.930 . S
C410 C409 1.388 . S
C410 C411 1.390 . S
C411 C410 1.390 . S
C411 C412 1.394 . S
C411 C417 1.465 . S
C412 C407 1.399 . S
C412 C411 1.394 . S
C412 C413 1.516 . S
C413 C412 1.516 . S
C413 C414 1.502 . S
C413 C415 1.561 . S
C413 C416 1.526 . S
C414 H398 0.959 . S
C414 H399 0.959 . S
C414 H400 0.961 . S
C414 C413 1.502 . S
C415 H401 0.960 . S
C415 H402 0.961 . S
C415 H403 0.959 . S
C415 C413 1.561 . S
C416 C413 1.526 . S
C416 C417 1.396 . S
C416 C421 1.390 . S
C417 C411 1.465 . S
C417 C416 1.396 . S
C417 C418 1.399 . S
C418 H404 0.929 . S
C418 C417 1.399 . S
C418 C419 1.385 . S
C419 H405 0.931 . S
C419 C418 1.385 . S
C419 C420 1.389 . S
C420 C419 1.389 . S
C420 C421 1.387 . S
C421 H406 0.930 . S
C421 C416 1.390 . S
C421 C420 1.387 . S
H422 C434 0.930 . S
H423 C436 0.930 . S
H424 C437 0.930 . S
H425 C441 0.959 . S
H426 C441 0.959 . S
H427 C441 0.961 . S
H428 C442 0.960 . S
H429 C442 0.961 . S
H430 C442 0.959 . S
H431 C445 0.929 . S
H432 C446 0.931 . S
H433 C448 0.930 . S
C434 H422 0.930 . S
C434 C435 1.399 . S
C434 C439 1.399 . S
C435 C434 1.399 . S
C435 C436 1.376 . S
C436 H423 0.930 . S
C436 C435 1.376 . S
C436 C437 1.388 . S
C437 H424 0.930 . S
C437 C436 1.388 . S
C437 C438 1.390 . S
C438 C437 1.390 . S
C438 C439 1.394 . S
C438 C444 1.465 . S
C439 C434 1.399 . S
C439 C438 1.394 . S
C439 C440 1.516 . S
C440 C439 1.516 . S
C440 C441 1.502 . S
C440 C442 1.561 . S
C440 C443 1.526 . S
C441 H425 0.959 . S
C441 H426 0.959 . S
C441 H427 0.961 . S
C441 C440 1.502 . S
C442 H428 0.960 . S
C442 H429 0.961 . S
C442 H430 0.959 . S
C442 C440 1.561 . S
C443 C440 1.526 . S
C443 C444 1.396 . S
C443 C448 1.390 . S
C444 C438 1.465 . S
C444 C443 1.396 . S
C444 C445 1.399 . S
C445 H431 0.929 . S
C445 C444 1.399 . S
C445 C446 1.385 . S
C446 H432 0.931 . S
C446 C445 1.385 . S
C446 C447 1.389 . S
C447 C446 1.389 . S
C447 C448 1.387 . S
C448 H433 0.930 . S
C448 C443 1.390 . S
C448 C447 1.387 . S
H449 C461 0.930 . S
H450 C463 0.930 . S
H451 C464 0.930 . S
H452 C468 0.959 . S
H453 C468 0.959 . S
H454 C468 0.961 . S
H455 C469 0.960 . S
H456 C469 0.961 . S
H457 C469 0.959 . S
H458 C472 0.929 . S
H459 C473 0.931 . S
H460 C475 0.930 . S
C461 H449 0.930 . S
C461 C462 1.399 . S
C461 C466 1.399 . S
C462 C461 1.399 . S
C462 C463 1.376 . S
C463 H450 0.930 . S
C463 C462 1.376 . S
C463 C464 1.388 . S
C464 H451 0.930 . S
C464 C463 1.388 . S
C464 C465 1.390 . S
C465 C464 1.390 . S
C465 C466 1.394 . S
C465 C471 1.465 . S
C466 C461 1.399 . S
C466 C465 1.394 . S
C466 C467 1.516 . S
C467 C466 1.516 . S
C467 C468 1.502 . S
C467 C469 1.561 . S
C467 C470 1.526 . S
C468 H452 0.959 . S
C468 H453 0.959 . S
C468 H454 0.961 . S
C468 C467 1.502 . S
C469 H455 0.960 . S
C469 H456 0.961 . S
C469 H457 0.959 . S
C469 C467 1.561 . S
C470 C467 1.526 . S
C470 C471 1.396 . S
C470 C475 1.390 . S
C471 C465 1.465 . S
C471 C470 1.396 . S
C471 C472 1.399 . S
C472 H458 0.929 . S
C472 C471 1.399 . S
C472 C473 1.385 . S
C473 H459 0.931 . S
C473 C472 1.385 . S
C473 C474 1.389 . S
C474 C473 1.389 . S
C474 C475 1.387 . S
C475 H460 0.930 . S
C475 C470 1.390 . S
C475 C474 1.387 . S
H476 C488 0.930 . S
H477 C490 0.930 . S
H478 C491 0.930 . S
H479 C495 0.959 . S
H480 C495 0.959 . S
H481 C495 0.961 . S
H482 C496 0.960 . S
H483 C496 0.961 . S
H484 C496 0.959 . S
H485 C499 0.929 . S
H486 C500 0.931 . S
H487 C502 0.930 . S
C488 H476 0.930 . S
C488 C489 1.399 1_565 S
C488 C493 1.399 . S
C489 C488 1.399 1_545 S
C489 C490 1.376 . S
C490 H477 0.930 . S
C490 C489 1.376 . S
C490 C491 1.388 . S
C491 H478 0.930 . S
C491 C490 1.388 . S
C491 C492 1.390 . S
C492 C491 1.390 . S
C492 C493 1.394 1_545 S
C492 C498 1.465 . S
C493 C488 1.399 . S
C493 C492 1.394 1_565 S
C493 C494 1.516 . S
C494 C493 1.516 . S
C494 C495 1.502 . S
C494 C496 1.561 . S
C494 C497 1.526 . S
C495 H479 0.959 . S
C495 H480 0.959 . S
C495 H481 0.961 . S
C495 C494 1.502 . S
C496 H482 0.960 . S
C496 H483 0.961 . S
C496 H484 0.959 . S
C496 C494 1.561 . S
C497 C494 1.526 . S
C497 C498 1.396 1_565 S
C497 C502 1.390 . S
C498 C492 1.465 . S
C498 C497 1.396 1_545 S
C498 C499 1.399 . S
C499 H485 0.929 . S
C499 C498 1.399 . S
C499 C500 1.385 . S
C500 H486 0.931 . S
C500 C499 1.385 . S
C500 C501 1.389 . S
C501 C500 1.389 . S
C501 C502 1.387 1_545 S
C502 H487 0.930 . S
C502 C497 1.390 . S
C502 C501 1.387 1_565 S
H503 C515 0.930 . S
H504 C517 0.930 1_554 S
H505 C518 0.930 . S
H506 C522 0.959 . S
H507 C522 0.959 . S
H508 C522 0.961 . S
H509 C523 0.960 . S
H510 C523 0.961 . S
H511 C523 0.959 . S
H512 C526 0.929 . S
H513 C527 0.931 . S
H514 C529 0.930 . S
C515 H503 0.930 . S
C515 C516 1.399 . S
C515 C520 1.399 . S
C516 C515 1.399 . S
C516 C517 1.376 . S
C517 H504 0.930 1_556 S
C517 C516 1.376 . S
C517 C518 1.388 . S
C518 H505 0.930 . S
C518 C517 1.388 . S
C518 C519 1.390 . S
C519 C518 1.390 . S
C519 C520 1.394 . S
C519 C525 1.465 . S
C520 C515 1.399 . S
C520 C519 1.394 . S
C520 C521 1.516 . S
C521 C520 1.516 . S
C521 C522 1.502 . S
C521 C523 1.561 . S
C521 C524 1.526 . S
C522 H506 0.959 . S
C522 H507 0.959 . S
C522 H508 0.961 . S
C522 C521 1.502 . S
C523 H509 0.960 . S
C523 H510 0.961 . S
C523 H511 0.959 . S
C523 C521 1.561 . S
C524 C521 1.526 . S
C524 C525 1.396 . S
C524 C529 1.390 . S
C525 C519 1.465 . S
C525 C524 1.396 . S
C525 C526 1.399 . S
C526 H512 0.929 . S
C526 C525 1.399 . S
C526 C527 1.385 . S
C527 H513 0.931 . S
C527 C526 1.385 . S
C527 C528 1.389 . S
C528 C527 1.389 . S
C528 C529 1.387 . S
C529 H514 0.930 . S
C529 C524 1.390 . S
C529 C528 1.387 . S
H530 C542 0.930 . S
H531 C544 0.930 . S
H532 C545 0.930 . S
H533 C549 0.959 . S
H534 C549 0.959 . S
H535 C549 0.961 . S
H536 C550 0.960 . S
H537 C550 0.961 . S
H538 C550 0.959 . S
H539 C553 0.929 . S
H540 C554 0.931 . S
H541 C556 0.930 . S
C542 H530 0.930 . S
C542 C543 1.399 . S
C542 C547 1.399 . S
C543 C542 1.399 . S
C543 C544 1.376 . S
C544 H531 0.930 . S
C544 C543 1.376 . S
C544 C545 1.388 . S
C545 H532 0.930 . S
C545 C544 1.388 . S
C545 C546 1.390 . S
C546 C545 1.390 . S
C546 C547 1.394 . S
C546 C552 1.465 . S
C547 C542 1.399 . S
C547 C546 1.394 . S
C547 C548 1.516 . S
C548 C547 1.516 . S
C548 C549 1.502 . S
C548 C550 1.561 . S
C548 C551 1.526 . S
C549 H533 0.959 . S
C549 H534 0.959 . S
C549 H535 0.961 . S
C549 C548 1.502 . S
C550 H536 0.960 . S
C550 H537 0.961 . S
C550 H538 0.959 . S
C550 C548 1.561 . S
C551 C548 1.526 . S
C551 C552 1.396 . S
C551 C556 1.390 . S
C552 C546 1.465 . S
C552 C551 1.396 . S
C552 C553 1.399 . S
C553 H539 0.929 . S
C553 C552 1.399 . S
C553 C554 1.385 . S
C554 H540 0.931 . S
C554 C553 1.385 . S
C554 C555 1.389 . S
C555 C554 1.389 . S
C555 C556 1.387 . S
C556 H541 0.930 . S
C556 C551 1.390 . S
C556 C555 1.387 . S
H557 C569 0.930 . S
H558 C571 0.930 . S
H559 C572 0.930 . S
H560 C576 0.959 1_455 S
H561 C576 0.959 1_455 S
H562 C576 0.961 . S
H563 C577 0.960 . S
H564 C577 0.961 . S
H565 C577 0.959 . S
H566 C580 0.929 . S
H567 C581 0.931 . S
H568 C583 0.930 . S
C569 H557 0.930 . S
C569 C570 1.399 . S
C569 C574 1.399 . S
C570 C569 1.399 . S
C570 C571 1.376 . S
C571 H558 0.930 . S
C571 C570 1.376 . S
C571 C572 1.388 . S
C572 H559 0.930 . S
C572 C571 1.388 . S
C572 C573 1.390 . S
C573 C572 1.390 . S
C573 C574 1.394 . S
C573 C579 1.465 . S
C574 C569 1.399 . S
C574 C573 1.394 . S
C574 C575 1.516 . S
C575 C574 1.516 . S
C575 C576 1.502 . S
C575 C577 1.561 . S
C575 C578 1.526 . S
C576 H560 0.959 1_655 S
C576 H561 0.959 1_655 S
C576 H562 0.961 . S
C576 C575 1.502 . S
C577 H563 0.960 . S
C577 H564 0.961 . S
C577 H565 0.959 . S
C577 C575 1.561 . S
C578 C575 1.526 . S
C578 C579 1.396 . S
C578 C583 1.390 . S
C579 C573 1.465 . S
C579 C578 1.396 . S
C579 C580 1.399 . S
C580 H566 0.929 . S
C580 C579 1.399 . S
C580 C581 1.385 . S
C581 H567 0.931 . S
C581 C580 1.385 . S
C581 C582 1.389 . S
C582 C581 1.389 . S
C582 C583 1.387 . S
C583 H568 0.930 . S
C583 C578 1.390 . S
C583 C582 1.387 . S
H584 C596 0.930 . S
H585 C598 0.930 . S
H586 C599 0.930 . S
H587 C603 0.959 . S
H588 C603 0.959 . S
H589 C603 0.961 . S
H590 C604 0.960 . S
H591 C604 0.961 . S
H592 C604 0.959 . S
H593 C607 0.929 . S
H594 C608 0.931 . S
H595 C610 0.930 . S
C596 H584 0.930 . S
C596 C597 1.399 . S
C596 C601 1.399 . S
C597 C596 1.399 . S
C597 C598 1.376 . S
C598 H585 0.930 . S
C598 C597 1.376 . S
C598 C599 1.388 . S
C599 H586 0.930 . S
C599 C598 1.388 . S
C599 C600 1.390 . S
C600 C599 1.390 . S
C600 C601 1.394 . S
C600 C606 1.465 . S
C601 C596 1.399 . S
C601 C600 1.394 . S
C601 C602 1.516 . S
C602 C601 1.516 . S
C602 C603 1.502 . S
C602 C604 1.561 . S
C602 C605 1.526 . S
C603 H587 0.959 . S
C603 H588 0.959 . S
C603 H589 0.961 . S
C603 C602 1.502 . S
C604 H590 0.960 . S
C604 H591 0.961 . S
C604 H592 0.959 . S
C604 C602 1.561 . S
C605 C602 1.526 . S
C605 C606 1.396 . S
C605 C610 1.390 . S
C606 C600 1.465 . S
C606 C605 1.396 . S
C606 C607 1.399 . S
C607 H593 0.929 . S
C607 C606 1.399 . S
C607 C608 1.385 . S
C608 H594 0.931 . S
C608 C607 1.385 . S
C608 C609 1.389 . S
C609 C608 1.389 . S
C609 C610 1.387 . S
C610 H595 0.930 . S
C610 C605 1.390 . S
C610 C609 1.387 . S
H611 C623 0.930 . S
H612 C625 0.930 . S
H613 C626 0.930 . S
H614 C630 0.959 . S
H615 C630 0.959 . S
H616 C630 0.961 . S
H617 C631 0.960 . S
H618 C631 0.961 . S
H619 C631 0.959 1_565 S
H620 C634 0.929 . S
H621 C635 0.931 . S
H622 C637 0.957 . S
C623 H611 0.930 . S
C623 C624 1.399 1_545 S
C623 C628 1.399 . S
C624 C623 1.399 1_565 S
C624 C625 1.376 . S
C625 H612 0.930 . S
C625 C624 1.376 . S
C625 C626 1.388 . S
C626 H613 0.930 . S
C626 C625 1.388 . S
C626 C627 1.390 . S
C627 C626 1.390 . S
C627 C628 1.394 1_565 S
C627 C633 1.465 . S
C628 C623 1.399 . S
C628 C627 1.394 1_545 S
C628 C629 1.516 . S
C629 C628 1.516 . S
C629 C630 1.502 . S
C629 C631 1.561 . S
C629 C632 1.507 1_545 S
C630 H614 0.959 . S
C630 H615 0.959 . S
C630 H616 0.961 . S
C630 C629 1.502 . S
C631 H617 0.960 . S
C631 H618 0.961 . S
C631 H619 0.959 1_545 S
C631 C629 1.561 . S
C632 C629 1.507 1_565 S
C632 C633 1.417 . S
C632 C637 1.395 1_565 S
C633 C627 1.465 . S
C633 C632 1.417 . S
C633 C634 1.399 . S
C634 H620 0.929 . S
C634 C633 1.399 . S
C634 C635 1.385 . S
C635 H621 0.931 . S
C635 C634 1.385 . S
C635 C636 1.389 . S
C636 C635 1.389 . S
C636 C637 1.358 1_565 S
C637 H622 0.957 . S
C637 C632 1.395 1_545 S
C637 C636 1.358 1_545 S
H638 C650 0.930 . S
H639 C652 0.930 . S
H640 C653 0.930 . S
H641 C657 0.959 . S
H642 C657 0.959 . S
H643 C657 0.961 . S
H644 C658 0.960 . S
H645 C658 0.961 . S
H646 C658 0.959 . S
H647 C661 0.929 . S
H648 C662 0.931 . S
H649 C664 0.930 . S
C650 H638 0.930 . S
C650 C651 1.399 . S
C650 C655 1.399 . S
C651 C650 1.399 . S
C651 C652 1.376 . S
C652 H639 0.930 . S
C652 C651 1.376 . S
C652 C653 1.388 . S
C653 H640 0.930 . S
C653 C652 1.388 . S
C653 C654 1.390 . S
C654 C653 1.390 . S
C654 C655 1.394 . S
C654 C660 1.465 . S
C655 C650 1.399 . S
C655 C654 1.394 . S
C655 C656 1.516 . S
C656 C655 1.516 . S
C656 C657 1.502 . S
C656 C658 1.561 . S
C656 C659 1.526 . S
C657 H641 0.959 . S
C657 H642 0.959 . S
C657 H643 0.961 . S
C657 C656 1.502 . S
C658 H644 0.960 . S
C658 H645 0.961 . S
C658 H646 0.959 . S
C658 C656 1.561 . S
C659 C656 1.526 . S
C659 C660 1.396 . S
C659 C664 1.390 . S
C660 C654 1.465 . S
C660 C659 1.396 . S
C660 C661 1.399 . S
C661 H647 0.929 . S
C661 C660 1.399 . S
C661 C662 1.385 . S
C662 H648 0.931 . S
C662 C661 1.385 . S
C662 C663 1.389 . S
C663 C662 1.389 . S
C663 C664 1.387 . S
C664 H649 0.930 . S
C664 C659 1.390 . S
C664 C663 1.387 . S
H665 C677 0.930 . S
H666 C679 0.930 . S
H667 C680 0.930 . S
H668 C684 0.959 . S
H669 C684 0.959 . S
H670 C684 0.961 . S
H671 C685 0.960 . S
H672 C685 0.961 . S
H673 C685 0.959 . S
H674 C688 0.929 . S
H675 C689 0.931 . S
H676 C691 0.930 . S
C677 H665 0.930 . S
C677 C678 1.399 . S
C677 C682 1.399 . S
C678 C677 1.399 . S
C678 C679 1.376 . S
C679 H666 0.930 . S
C679 C678 1.376 . S
C679 C680 1.388 . S
C680 H667 0.930 . S
C680 C679 1.388 . S
C680 C681 1.390 . S
C681 C680 1.390 . S
C681 C682 1.394 . S
C681 C687 1.465 . S
C682 C677 1.399 . S
C682 C681 1.394 . S
C682 C683 1.516 . S
C683 C682 1.516 . S
C683 C684 1.502 . S
C683 C685 1.561 . S
C683 C686 1.526 . S
C684 H668 0.959 . S
C684 H669 0.959 . S
C684 H670 0.961 . S
C684 C683 1.502 . S
C685 H671 0.960 . S
C685 H672 0.961 . S
C685 H673 0.959 . S
C685 C683 1.561 . S
C686 C683 1.526 . S
C686 C687 1.396 . S
C686 C691 1.390 . S
C687 C681 1.465 . S
C687 C686 1.396 . S
C687 C688 1.399 . S
C688 H674 0.929 . S
C688 C687 1.399 . S
C688 C689 1.385 . S
C689 H675 0.931 . S
C689 C688 1.385 . S
C689 C690 1.389 . S
C690 C689 1.389 . S
C690 C691 1.387 . S
C691 H676 0.930 . S
C691 C686 1.390 . S
C691 C690 1.387 . S
H692 C704 0.930 . S
H693 C706 0.930 . S
H694 C707 0.930 . S
H695 C711 0.959 . S
H696 C711 0.959 . S
H697 C711 0.961 . S
H698 C712 0.958 1_655 S
H699 C712 0.975 . S
H700 C712 0.964 . S
H701 C715 0.929 . S
H702 C716 0.931 . S
H703 C718 0.930 1_455 S
C704 H692 0.930 . S
C704 C705 1.399 . S
C704 C709 1.399 . S
C705 C704 1.399 . S
C705 C706 1.376 . S
C706 H693 0.930 . S
C706 C705 1.376 . S
C706 C707 1.388 . S
C707 H694 0.930 . S
C707 C706 1.388 . S
C707 C708 1.390 . S
C708 C707 1.390 . S
C708 C709 1.394 . S
C708 C714 1.465 . S
C709 C704 1.399 . S
C709 C708 1.394 . S
C709 C710 1.516 . S
C710 C709 1.516 . S
C710 C711 1.502 . S
C710 C712 1.545 1_655 S
C710 C713 1.526 . S
C711 H695 0.959 . S
C711 H696 0.959 . S
C711 H697 0.961 . S
C711 C710 1.502 . S
C712 H698 0.958 1_455 S
C712 H699 0.975 . S
C712 H700 0.964 . S
C712 C710 1.545 1_455 S
C713 C710 1.526 . S
C713 C714 1.396 . S
C713 C718 1.390 . S
C714 C708 1.465 . S
C714 C713 1.396 . S
C714 C715 1.399 . S
C715 H701 0.929 . S
C715 C714 1.399 . S
C715 C716 1.385 . S
C716 H702 0.931 . S
C716 C715 1.385 . S
C716 C717 1.389 . S
C717 C716 1.389 . S
C717 C718 1.387 . S
C718 H703 0.930 1_655 S
C718 C713 1.390 . S
C718 C717 1.387 . S
H719 C731 0.930 . S
H720 C733 0.930 . S
H721 C734 0.930 . S
H722 C738 0.959 . S
H723 C738 0.959 . S
H724 C738 0.961 . S
H725 C739 0.960 . S
H726 C739 0.961 . S
H727 C739 0.959 1_545 S
H728 C742 0.929 . S
H729 C743 0.931 . S
H730 C745 0.930 . S
C731 H719 0.930 . S
C731 C732 1.399 1_565 S
C731 C736 1.399 . S
C732 C731 1.399 1_545 S
C732 C733 1.376 . S
C733 H720 0.930 . S
C733 C732 1.376 . S
C733 C734 1.388 . S
C734 H721 0.930 . S
C734 C733 1.388 . S
C734 C735 1.390 . S
C735 C734 1.390 . S
C735 C736 1.394 1_545 S
C735 C741 1.465 . S
C736 C731 1.399 . S
C736 C735 1.394 1_565 S
C736 C737 1.516 . S
C737 C736 1.516 . S
C737 C738 1.502 . S
C737 C739 1.561 . S
C737 C740 1.523 1_565 S
C738 H722 0.959 . S
C738 H723 0.959 . S
C738 H724 0.961 . S
C738 C737 1.502 . S
C739 H725 0.960 . S
C739 H726 0.961 . S
C739 H727 0.959 1_565 S
C739 C737 1.561 . S
C740 C737 1.523 1_545 S
C740 C741 1.399 . S
C740 C745 1.390 1_545 S
C741 C735 1.465 . S
C741 C740 1.399 . S
C741 C742 1.399 . S
C742 H728 0.929 . S
C742 C741 1.399 . S
C742 C743 1.385 . S
C743 H729 0.931 . S
C743 C742 1.385 . S
C743 C744 1.389 . S
C744 C743 1.389 . S
C744 C745 1.387 1_545 S
C745 H730 0.930 . S
C745 C740 1.390 1_565 S
C745 C744 1.387 1_565 S
H746 C758 0.930 . S
H747 C760 0.930 . S
H748 C761 0.930 . S
H749 C765 0.959 . S
H750 C765 0.959 . S
H751 C765 0.961 . S
H752 C766 0.960 . S
H753 C766 0.961 . S
H754 C766 0.959 . S
H755 C769 0.929 . S
H756 C770 0.931 . S
H757 C772 0.930 . S
C758 H746 0.930 . S
C758 C759 1.399 . S
C758 C763 1.399 . S
C759 C758 1.399 . S
C759 C760 1.376 . S
C760 H747 0.930 . S
C760 C759 1.376 . S
C760 C761 1.388 . S
C761 H748 0.930 . S
C761 C760 1.388 . S
C761 C762 1.390 . S
C762 C761 1.390 . S
C762 C763 1.394 . S
C762 C768 1.465 . S
C763 C758 1.399 . S
C763 C762 1.394 . S
C763 C764 1.516 . S
C764 C763 1.516 . S
C764 C765 1.502 . S
C764 C766 1.561 . S
C764 C767 1.526 . S
C765 H749 0.959 . S
C765 H750 0.959 . S
C765 H751 0.961 . S
C765 C764 1.502 . S
C766 H752 0.960 . S
C766 H753 0.961 . S
C766 H754 0.959 . S
C766 C764 1.561 . S
C767 C764 1.526 . S
C767 C768 1.396 . S
C767 C772 1.390 . S
C768 C762 1.465 . S
C768 C767 1.396 . S
C768 C769 1.399 . S
C769 H755 0.929 . S
C769 C768 1.399 . S
C769 C770 1.385 . S
C770 H756 0.931 . S
C770 C769 1.385 . S
C770 C771 1.389 . S
C771 C770 1.389 . S
C771 C772 1.387 . S
C772 H757 0.930 . S
C772 C767 1.390 . S
C772 C771 1.387 . S
H773 C785 0.930 . S
H774 C787 0.930 . S
H775 C788 0.930 . S
H776 C792 0.959 . S
H777 C792 0.959 . S
H778 C792 0.961 . S
H779 C793 0.960 . S
H780 C793 0.961 . S
H781 C793 0.959 . S
H782 C796 0.929 . S
H783 C797 0.931 . S
H784 C799 0.930 . S
C785 H773 0.930 . S
C785 C786 1.399 . S
C785 C790 1.399 . S
C786 C785 1.399 . S
C786 C787 1.376 . S
C787 H774 0.930 . S
C787 C786 1.376 . S
C787 C788 1.388 . S
C788 H775 0.930 . S
C788 C787 1.388 . S
C788 C789 1.390 . S
C789 C788 1.390 . S
C789 C790 1.394 . S
C789 C795 1.465 . S
C790 C785 1.399 . S
C790 C789 1.394 . S
C790 C791 1.516 . S
C791 C790 1.516 . S
C791 C792 1.502 . S
C791 C793 1.561 . S
C791 C794 1.526 . S
C792 H776 0.959 . S
C792 H777 0.959 . S
C792 H778 0.961 . S
C792 C791 1.502 . S
C793 H779 0.960 . S
C793 H780 0.961 . S
C793 H781 0.959 . S
C793 C791 1.561 . S
C794 C791 1.526 . S
C794 C795 1.396 . S
C794 C799 1.390 . S
C795 C789 1.465 . S
C795 C794 1.396 . S
C795 C796 1.399 . S
C796 H782 0.929 . S
C796 C795 1.399 . S
C796 C797 1.385 . S
C797 H783 0.931 . S
C797 C796 1.385 . S
C797 C798 1.389 . S
C798 C797 1.389 . S
C798 C799 1.387 . S
C799 H784 0.930 . S
C799 C794 1.390 . S
C799 C798 1.387 . S
H800 C812 0.930 . S
H801 C814 0.930 . S
H802 C815 0.930 . S
H803 C819 0.959 . S
H804 C819 0.959 . S
H805 C819 0.961 . S
H806 C820 0.960 . S
H807 C820 0.961 . S
H808 C820 0.959 . S
H809 C823 0.929 . S
H810 C824 0.931 . S
H811 C826 0.930 . S
C812 H800 0.930 . S
C812 C813 1.399 . S
C812 C817 1.399 . S
C813 C812 1.399 . S
C813 C814 1.376 . S
C814 H801 0.930 . S
C814 C813 1.376 . S
C814 C815 1.388 . S
C815 H802 0.930 . S
C815 C814 1.388 . S
C815 C816 1.390 . S
C816 C815 1.390 . S
C816 C817 1.394 . S
C816 C822 1.465 . S
C817 C812 1.399 . S
C817 C816 1.394 . S
C817 C818 1.516 . S
C818 C817 1.516 . S
C818 C819 1.502 . S
C818 C820 1.561 . S
C818 C821 1.526 . S
C819 H803 0.959 . S
C819 H804 0.959 . S
C819 H805 0.961 . S
C819 C818 1.502 . S
C820 H806 0.960 . S
C820 H807 0.961 . S
C820 H808 0.959 . S
C820 C818 1.561 . S
C821 C818 1.526 . S
C821 C822 1.396 . S
C821 C826 1.390 . S
C822 C816 1.465 . S
C822 C821 1.396 . S
C822 C823 1.399 . S
C823 H809 0.929 . S
C823 C822 1.399 . S
C823 C824 1.385 . S
C824 H810 0.931 . S
C824 C823 1.385 . S
C824 C825 1.389 . S
C825 C824 1.389 . S
C825 C826 1.387 . S
C826 H811 0.930 . S
C826 C821 1.390 . S
C826 C825 1.387 . S
H827 C839 0.930 . S
H828 C841 0.930 . S
H829 C842 0.930 . S
H830 C846 0.959 . S
H831 C846 0.959 . S
H832 C846 0.961 . S
H833 C847 0.960 . S
H834 C847 0.961 . S
H835 C847 0.959 . S
H836 C850 0.929 . S
H837 C851 0.931 . S
H838 C853 0.930 . S
C839 H827 0.930 . S
C839 C840 1.399 1_545 S
C839 C844 1.399 . S
C840 C839 1.399 1_565 S
C840 C841 1.376 . S
C841 H828 0.930 . S
C841 C840 1.376 . S
C841 C842 1.388 . S
C842 H829 0.930 . S
C842 C841 1.388 . S
C842 C843 1.390 . S
C843 C842 1.390 . S
C843 C844 1.394 1_565 S
C843 C849 1.465 . S
C844 C839 1.399 . S
C844 C843 1.394 1_545 S
C844 C845 1.516 . S
C845 C844 1.516 . S
C845 C846 1.502 . S
C845 C847 1.561 . S
C845 C848 1.526 . S
C846 H830 0.959 . S
C846 H831 0.959 . S
C846 H832 0.961 . S
C846 C845 1.502 . S
C847 H833 0.960 . S
C847 H834 0.961 . S
C847 H835 0.959 . S
C847 C845 1.561 . S
C848 C845 1.526 . S
C848 C849 1.396 1_545 S
C848 C853 1.390 . S
C849 C843 1.465 . S
C849 C848 1.396 1_565 S
C849 C850 1.399 . S
C850 H836 0.929 . S
C850 C849 1.399 . S
C850 C851 1.385 . S
C851 H837 0.931 . S
C851 C850 1.385 . S
C851 C852 1.389 1_565 S
C852 C851 1.389 1_545 S
C852 C853 1.387 . S
C853 H838 0.930 . S
C853 C848 1.390 . S
C853 C852 1.387 . S
H854 C866 0.930 . S
H855 C868 0.930 . S
H856 C869 0.930 . S
H857 C873 0.959 . S
H858 C873 0.959 . S
H859 C873 0.961 . S
H860 C874 0.960 . S
H861 C874 0.961 . S
H862 C874 0.959 . S
H863 C877 0.929 . S
H864 C878 0.931 . S
H865 C880 0.930 . S
C866 H854 0.930 . S
C866 C867 1.399 . S
C866 C871 1.399 . S
C867 C866 1.399 . S
C867 C868 1.376 . S
C868 H855 0.930 . S
C868 C867 1.376 . S
C868 C869 1.388 . S
C869 H856 0.930 . S
C869 C868 1.388 . S
C869 C870 1.390 . S
C870 C869 1.390 . S
C870 C871 1.394 . S
C870 C876 1.465 . S
C871 C866 1.399 . S
C871 C870 1.394 . S
C871 C872 1.516 . S
C872 C871 1.516 . S
C872 C873 1.502 . S
C872 C874 1.561 . S
C872 C875 1.526 . S
C873 H857 0.959 . S
C873 H858 0.959 . S
C873 H859 0.961 . S
C873 C872 1.502 . S
C874 H860 0.960 . S
C874 H861 0.961 . S
C874 H862 0.959 . S
C874 C872 1.561 . S
C875 C872 1.526 . S
C875 C876 1.396 . S
C875 C880 1.390 . S
C876 C870 1.465 . S
C876 C875 1.396 . S
C876 C877 1.399 . S
C877 H863 0.929 . S
C877 C876 1.399 . S
C877 C878 1.385 . S
C878 H864 0.931 . S
C878 C877 1.385 . S
C878 C879 1.389 . S
C879 C878 1.389 . S
C879 C880 1.387 . S
C880 H865 0.930 . S
C880 C875 1.390 . S
C880 C879 1.387 . S
H881 C893 0.930 . S
H882 C895 0.930 . S
H883 C896 0.930 . S
H884 C900 0.959 . S
H885 C900 0.959 . S
H886 C900 0.961 . S
H887 C901 0.960 . S
H888 C901 0.961 . S
H889 C901 0.959 . S
H890 C904 0.929 . S
H891 C905 0.931 . S
H892 C907 0.930 . S
C893 H881 0.930 . S
C893 C894 1.399 . S
C893 C898 1.399 . S
C894 C893 1.399 . S
C894 C895 1.376 . S
C895 H882 0.930 . S
C895 C894 1.376 . S
C895 C896 1.388 . S
C896 H883 0.930 . S
C896 C895 1.388 . S
C896 C897 1.390 . S
C897 C896 1.390 . S
C897 C898 1.394 . S
C897 C903 1.465 . S
C898 C893 1.399 . S
C898 C897 1.394 . S
C898 C899 1.516 . S
C899 C898 1.516 . S
C899 C900 1.502 . S
C899 C901 1.561 . S
C899 C902 1.526 . S
C900 H884 0.959 . S
C900 H885 0.959 . S
C900 H886 0.961 . S
C900 C899 1.502 . S
C901 H887 0.960 . S
C901 H888 0.961 . S
C901 H889 0.959 . S
C901 C899 1.561 . S
C902 C899 1.526 . S
C902 C903 1.396 . S
C902 C907 1.390 . S
C903 C897 1.465 . S
C903 C902 1.396 . S
C903 C904 1.399 . S
C904 H890 0.929 . S
C904 C903 1.399 . S
C904 C905 1.385 . S
C905 H891 0.931 . S
C905 C904 1.385 . S
C905 C906 1.389 . S
C906 C905 1.389 . S
C906 C907 1.387 . S
C907 H892 0.930 . S
C907 C902 1.390 . S
C907 C906 1.387 . S
H908 C920 0.930 . S
H909 C922 0.930 . S
H910 C923 0.930 . S
H911 C927 0.980 . S
H912 C927 0.959 . S
H913 C927 0.961 . S
H914 C928 0.960 . S
H915 C928 0.961 . S
H916 C928 0.959 . S
H917 C931 0.929 . S
H918 C932 0.931 . S
H919 C934 0.930 . S
C920 H908 0.930 . S
C920 C921 1.399 . S
C920 C925 1.399 . S
C921 C920 1.399 . S
C921 C922 1.376 . S
C922 H909 0.930 . S
C922 C921 1.376 . S
C922 C923 1.388 . S
C923 H910 0.930 . S
C923 C922 1.388 . S
C923 C924 1.390 . S
C924 C923 1.390 . S
C924 C925 1.394 . S
C924 C930 1.465 . S
C925 C920 1.399 . S
C925 C924 1.394 . S
C925 C926 1.516 . S
C926 C925 1.516 . S
C926 C927 1.502 . S
C926 C928 1.561 . S
C926 C929 1.526 . S
C927 H911 0.980 . S
C927 H912 0.959 . S
C927 H913 0.961 . S
C927 C926 1.502 . S
C928 H914 0.960 . S
C928 H915 0.961 . S
C928 H916 0.959 . S
C928 C926 1.561 . S
C929 C926 1.526 . S
C929 C930 1.396 . S
C929 C934 1.390 . S
C930 C924 1.465 . S
C930 C929 1.396 . S
C930 C931 1.399 . S
C931 H917 0.929 . S
C931 C930 1.399 . S
C931 C932 1.385 . S
C932 H918 0.931 . S
C932 C931 1.385 . S
C932 C933 1.389 . S
C933 C932 1.389 . S
C933 C934 1.387 . S
C934 H919 0.930 . S
C934 C929 1.390 . S
C934 C933 1.387 . S
H935 C947 0.930 . S
H936 C949 0.930 . S
H937 C950 0.930 . S
H938 C954 0.959 . S
H939 C954 0.959 . S
H940 C954 0.961 . S
H941 C955 0.960 . S
H942 C955 0.961 . S
H943 C955 0.959 . S
H944 C958 0.929 . S
H945 C959 0.931 . S
H946 C961 0.930 . S
C947 H935 0.930 . S
C947 C948 1.399 1_565 S
C947 C952 1.399 . S
C948 C947 1.399 1_545 S
C948 C949 1.376 . S
C949 H936 0.930 . S
C949 C948 1.376 . S
C949 C950 1.388 . S
C950 H937 0.930 . S
C950 C949 1.388 . S
C950 C951 1.390 . S
C951 C950 1.390 . S
C951 C952 1.394 1_545 S
C951 C957 1.465 . S
C952 C947 1.399 . S
C952 C951 1.394 1_565 S
C952 C953 1.516 . S
C953 C952 1.516 . S
C953 C954 1.502 . S
C953 C955 1.561 . S
C953 C956 1.526 . S
C954 H938 0.959 . S
C954 H939 0.959 . S
C954 H940 0.961 . S
C954 C953 1.502 . S
C955 H941 0.960 . S
C955 H942 0.961 . S
C955 H943 0.959 . S
C955 C953 1.561 . S
C956 C953 1.526 . S
C956 C957 1.396 1_565 S
C956 C961 1.390 . S
C957 C951 1.465 . S
C957 C956 1.396 1_545 S
C957 C958 1.399 . S
C958 H944 0.929 . S
C958 C957 1.399 . S
C958 C959 1.385 . S
C959 H945 0.931 . S
C959 C958 1.385 . S
C959 C960 1.389 1_545 S
C960 C959 1.389 1_565 S
C960 C961 1.387 . S
C961 H946 0.930 . S
C961 C956 1.390 . S
C961 C960 1.387 . S
H962 C974 0.930 . S
H963 C976 0.930 . S
H964 C977 0.930 . S
H965 C981 0.959 . S
H966 C981 0.959 . S
H967 C981 0.961 . S
H968 C982 0.960 . S
H969 C982 0.961 . S
H970 C982 0.959 . S
H971 C985 0.929 . S
H972 C986 0.931 . S
H973 C988 0.930 . S
C974 H962 0.930 . S
C974 C975 1.399 . S
C974 C979 1.399 . S
C975 C974 1.399 . S
C975 C976 1.376 . S
C976 H963 0.930 . S
C976 C975 1.376 . S
C976 C977 1.388 . S
C977 H964 0.930 . S
C977 C976 1.388 . S
C977 C978 1.390 . S
C978 C977 1.390 . S
C978 C979 1.394 . S
C978 C984 1.465 . S
C979 C974 1.399 . S
C979 C978 1.394 . S
C979 C980 1.516 . S
C980 C979 1.516 . S
C980 C981 1.502 . S
C980 C982 1.561 . S
C980 C983 1.526 . S
C981 H965 0.959 . S
C981 H966 0.959 . S
C981 H967 0.961 . S
C981 C980 1.502 . S
C982 H968 0.960 . S
C982 H969 0.961 . S
C982 H970 0.959 . S
C982 C980 1.561 . S
C983 C980 1.526 . S
C983 C984 1.396 . S
C983 C988 1.390 . S
C984 C978 1.465 . S
C984 C983 1.396 . S
C984 C985 1.399 . S
C985 H971 0.929 . S
C985 C984 1.399 . S
C985 C986 1.385 . S
C986 H972 0.931 . S
C986 C985 1.385 . S
C986 C987 1.389 . S
C987 C986 1.389 . S
C987 C988 1.387 . S
C988 H973 0.930 . S
C988 C983 1.390 . S
C988 C987 1.387 . S
H989 C1001 0.930 . S
H990 C1003 0.930 . S
H991 C1004 0.930 . S
H992 C1008 0.959 . S
H993 C1008 0.959 . S
H994 C1008 0.961 . S
H995 C1009 0.960 . S
H996 C1009 0.961 . S
H997 C1009 0.959 . S
H998 C1012 0.929 . S
H999 C1013 0.931 . S
H1000 C1015 0.930 . S
C1001 H989 0.930 . S
C1001 C1002 1.399 . S
C1001 C1006 1.399 . S
C1002 C1001 1.399 . S
C1002 C1003 1.376 . S
C1003 H990 0.930 . S
C1003 C1002 1.376 . S
C1003 C1004 1.388 . S
C1004 H991 0.930 . S
C1004 C1003 1.388 . S
C1004 C1005 1.390 . S
C1005 C1004 1.390 . S
C1005 C1006 1.394 . S
C1005 C1011 1.465 . S
C1006 C1001 1.399 . S
C1006 C1005 1.394 . S
C1006 C1007 1.516 . S
C1007 C1006 1.516 . S
C1007 C1008 1.502 . S
C1007 C1009 1.561 . S
C1007 C1010 1.526 . S
C1008 H992 0.959 . S
C1008 H993 0.959 . S
C1008 H994 0.961 . S
C1008 C1007 1.502 . S
C1009 H995 0.960 . S
C1009 H996 0.961 . S
C1009 H997 0.959 . S
C1009 C1007 1.561 . S
C1010 C1007 1.526 . S
C1010 C1011 1.396 . S
C1010 C1015 1.390 . S
C1011 C1005 1.465 . S
C1011 C1010 1.396 . S
C1011 C1012 1.399 . S
C1012 H998 0.929 . S
C1012 C1011 1.399 . S
C1012 C1013 1.385 . S
C1013 H999 0.931 . S
C1013 C1012 1.385 . S
C1013 C1014 1.389 . S
C1014 C1013 1.389 . S
C1014 C1015 1.387 . S
C1015 H1000 0.930 . S
C1015 C1010 1.390 . S
C1015 C1014 1.387 . S
C381 C241 1.642 . S
C393 C296 1.787 . S
C420 C326 2.412 . S
C408 C277 2.214 . S
C447 C336 1.838 . S
C435 C169 1.769 . S
C474 C356 1.764 . S
C462 C205 1.686 . S
C501 C297 1.769 . S
C489 C97 1.634 . S
C516 C133 2.340 1_556 S
C528 C327 2.376 . S
C543 C25 1.817 . S
C555 C337 1.856 . S
C570 C61 1.594 . S
C582 C357 1.767 . S
C609 C289 0.835 . S
C597 C211 0.870 . S
C636 C310 0.389 . S
C624 C247 0.409 1_565 S
C663 C329 1.082 . S
C651 C253 1.096 . S
C678 C175 0.708 . S
C690 C349 0.572 . S
C705 C67 0.867 . S
C717 C290 0.814 1_655 S
C744 C309 0.234 . S
C732 C103 0.454 . S
C771 C330 1.098 . S
C759 C109 1.075 . S
C786 C31 0.629 . S
C798 C350 0.578 . S
C813 C181 2.307 . S
C825 C307 2.453 . S
C840 C217 1.775 1_565 S
C852 C317 2.009 . S
C879 C347 2.674 . S
C867 C283 2.311 . S
C906 C367 2.515 . S
C894 C145 2.348 . S
C921 C37 2.289 . S
C933 C306 2.477 . S
C960 C316 2.006 . S
C948 C73 1.820 . S
C987 C346 2.679 . S
C975 C139 2.412 . S
C1002 C1 2.330 . S
C1014 C366 2.541 . S
