# Generated by pormake.
# Topology apo, (3,6)-cn, num edge types: 1
# Building blocks:
#     Node 0, Type 0, BuildingBlock: KAKCAD_clean_linker_0, # of connection points: 3
#     Node 1, Type 0, BuildingBlock: KAKCAD_clean_linker_0, # of connection points: 3
#     Node 2, Type 0, BuildingBlock: KAKCAD_clean_linker_0, # of connection points: 3
#     Node 3, Type 0, BuildingBlock: KAKCAD_clean_linker_0, # of connection points: 3
#     Node 4, Type 0, BuildingBlock: KAKCAD_clean_linker_0, # of connection points: 3
#     Node 5, Type 0, BuildingBlock: KAKCAD_clean_linker_0, # of connection points: 3
#     Node 6, Type 0, BuildingBlock: KAKCAD_clean_linker_0, # of connection points: 3
#     Node 7, Type 0, BuildingBlock: KAKCAD_clean_linker_0, # of connection points: 3
#     Node 8, Type 1, BuildingBlock: KUMBUR_clean_sbu_1, # of connection points: 6
#     Node 9, Type 1, BuildingBlock: KUMBUR_clean_sbu_1, # of connection points: 6
#     Node 10, Type 1, BuildingBlock: KUMBUR_clean_sbu_1, # of connection points: 6
#     Node 11, Type 1, BuildingBlock: KUMBUR_clean_sbu_1, # of connection points: 6
#     Edge 12, Type (0, 1), BuildingBlock: TEMPAE_clean_linker_10, # of connection points: 2
#     Edge 13, Type (0, 1), BuildingBlock: TEMPAE_clean_linker_10, # of connection points: 2
#     Edge 14, Type (0, 1), BuildingBlock: TEMPAE_clean_linker_10, # of connection points: 2
#     Edge 15, Type (0, 1), BuildingBlock: TEMPAE_clean_linker_10, # of connection points: 2
#     Edge 16, Type (0, 1), BuildingBlock: TEMPAE_clean_linker_10, # of connection points: 2
#     Edge 17, Type (0, 1), BuildingBlock: TEMPAE_clean_linker_10, # of connection points: 2
#     Edge 18, Type (0, 1), BuildingBlock: TEMPAE_clean_linker_10, # of connection points: 2
#     Edge 19, Type (0, 1), BuildingBlock: TEMPAE_clean_linker_10, # of connection points: 2
#     Edge 20, Type (0, 1), BuildingBlock: TEMPAE_clean_linker_10, # of connection points: 2
#     Edge 21, Type (0, 1), BuildingBlock: TEMPAE_clean_linker_10, # of connection points: 2
#     Edge 22, Type (0, 1), BuildingBlock: TEMPAE_clean_linker_10, # of connection points: 2
#     Edge 23, Type (0, 1), BuildingBlock: TEMPAE_clean_linker_10, # of connection points: 2
#     Edge 24, Type (0, 1), BuildingBlock: TEMPAE_clean_linker_10, # of connection points: 2
#     Edge 25, Type (0, 1), BuildingBlock: TEMPAE_clean_linker_10, # of connection points: 2
#     Edge 26, Type (0, 1), BuildingBlock: TEMPAE_clean_linker_10, # of connection points: 2
#     Edge 27, Type (0, 1), BuildingBlock: TEMPAE_clean_linker_10, # of connection points: 2
#     Edge 28, Type (0, 1), BuildingBlock: TEMPAE_clean_linker_10, # of connection points: 2
#     Edge 29, Type (0, 1), BuildingBlock: TEMPAE_clean_linker_10, # of connection points: 2
#     Edge 30, Type (0, 1), BuildingBlock: TEMPAE_clean_linker_10, # of connection points: 2
#     Edge 31, Type (0, 1), BuildingBlock: TEMPAE_clean_linker_10, # of connection points: 2
#     Edge 32, Type (0, 1), BuildingBlock: TEMPAE_clean_linker_10, # of connection points: 2
#     Edge 33, Type (0, 1), BuildingBlock: TEMPAE_clean_linker_10, # of connection points: 2
#     Edge 34, Type (0, 1), BuildingBlock: TEMPAE_clean_linker_10, # of connection points: 2
#     Edge 35, Type (0, 1), BuildingBlock: TEMPAE_clean_linker_10, # of connection points: 2
# Relax obj value: 0.009
# Max RMSD: 0.097
# Mean RMSD: 0.076
data_MOF--net-apo--node1-KUMBUR_clean_sbu_1--node2-KAKCAD_clean_linker_0--edge1-TEMPAE_clean_linker_10
_symmetry_space_group_name_H-M    P1
_symmetry_Int_Tables_number       1
_symmetry_cell_setting            triclinic
loop_
_symmetry_equiv_pos_as_xyz
'x, y, z'
_cell_length_a     29.658872
_cell_length_b     52.857022
_cell_length_c     64.665092
_cell_angle_alpha  89.952066
_cell_angle_beta   89.959199
_cell_angle_gamma 90.145552
loop_
_atom_site_label
_atom_site_type_symbol
_atom_site_fract_x
_atom_site_fract_y
_atom_site_fract_z
_atom_type_partial_charge
C0 C 0.28997 0.46077 0.36307 0.0
C1 C 0.3349 0.46909 0.36452 0.0
C2 C 0.27483 0.44028 0.37489 0.0
C3 C 0.30419 0.42777 0.38852 0.0
C4 C 0.34899 0.43627 0.39016 0.0
C5 C 0.36421 0.45666 0.37824 0.0
C6 C 0.28794 0.406 0.40104 0.0
C7 C 0.26111 0.38708 0.39199 0.0
C8 C 0.24397 0.36679 0.4038 0.0
C9 C 0.25446 0.36576 0.42504 0.0
C10 C 0.28258 0.38406 0.43412 0.0
C11 C 0.29905 0.40412 0.42206 0.0
C12 C 0.29507 0.38226 0.45624 0.0
C13 C 0.26186 0.37873 0.47143 0.0
C14 C 0.34039 0.38436 0.46228 0.0
C15 C 0.35234 0.38294 0.48314 0.0
C16 C 0.31912 0.37974 0.49848 0.0
C17 C 0.21639 0.34647 0.39378 0.0
C18 C 0.18862 0.35197 0.37673 0.0
C19 C 0.21867 0.32122 0.40067 0.0
C20 C 0.19456 0.30208 0.39061 0.0
C21 C 0.16838 0.30742 0.37299 0.0
C22 C 0.1656 0.33274 0.36631 0.0
C23 C 0.27369 0.37769 0.49233 0.0
H24 H 0.26667 0.46985 0.35254 0.0
H25 H 0.23998 0.43435 0.37347 0.0
H26 H 0.37246 0.42694 0.40046 0.0
H27 H 0.3989 0.46279 0.37984 0.0
H28 H 0.25473 0.38794 0.37552 0.0
H29 H 0.31963 0.41865 0.42922 0.0
H30 H 0.24123 0.35061 0.43457 0.0
H31 H 0.22662 0.37732 0.46718 0.0
H32 H 0.36669 0.38682 0.45081 0.0
H33 H 0.38769 0.38411 0.4872 0.0
H34 H 0.18483 0.37117 0.37118 0.0
H35 H 0.23993 0.31597 0.41356 0.0
H36 H 0.24703 0.37573 0.50367 0.0
H37 H 0.14653 0.33783 0.35268 0.0
H38 H 0.19693 0.28302 0.39664 0.0
C39 C 0.21703 0.04473 0.86046 0.0
C40 C 0.17479 0.03358 0.86423 0.0
C41 C 0.23204 0.06503 0.87248 0.0
C42 C 0.20492 0.07487 0.88841 0.0
C43 C 0.16286 0.06343 0.89234 0.0
C44 C 0.14808 0.04295 0.88045 0.0
C45 C 0.21968 0.09751 0.9004 0.0
C46 C 0.24251 0.11742 0.89051 0.0
C47 C 0.25564 0.13918 0.90142 0.0
C48 C 0.24433 0.1413 0.92248 0.0
C49 C 0.2213 0.12162 0.93276 0.0
C50 C 0.20998 0.09962 0.92159 0.0
C51 C 0.20859 0.12393 0.95504 0.0
C52 C 0.23655 0.13677 0.96921 0.0
C53 C 0.16826 0.11301 0.96238 0.0
C54 C 0.15697 0.11415 0.98331 0.0
C55 C 0.18514 0.12671 0.99737 0.0
C56 C 0.28051 0.15972 0.89051 0.0
C57 C 0.31451 0.15372 0.87618 0.0
C58 C 0.26954 0.18529 0.8937 0.0
C59 C 0.29111 0.20433 0.88231 0.0
C60 C 0.32404 0.1982 0.86749 0.0
C61 C 0.33595 0.1727 0.86479 0.0
C62 C 0.2247 0.13834 0.99013 0.0
H63 H 0.23857 0.03767 0.84823 0.0
H64 H 0.26498 0.07301 0.86926 0.0
H65 H 0.14071 0.07071 0.90424 0.0
H66 H 0.11514 0.0349 0.88356 0.0
H67 H 0.24901 0.11634 0.87404 0.0
H68 H 0.19402 0.08388 0.92946 0.0
H69 H 0.25341 0.15834 0.93079 0.0
H70 H 0.26814 0.14513 0.9643 0.0
H71 H 0.14511 0.1036 0.95196 0.0
H72 H 0.12598 0.1053 0.98852 0.0
H73 H 0.32446 0.13425 0.87367 0.0
H74 H 0.24326 0.19055 0.90449 0.0
H75 H 0.24706 0.14801 1.00077 0.0
H76 H 0.36185 0.1674 0.85382 0.0
H77 H 0.28097 0.22379 0.88465 0.0
C78 C 0.79677 0.04573 0.64846 0.0
C79 C 0.83913 0.03507 0.64411 0.0
C80 C 0.78079 0.0662 0.63697 0.0
C81 C 0.80703 0.07686 0.62104 0.0
C82 C 0.84931 0.06613 0.61664 0.0
C83 C 0.86496 0.04538 0.6279 0.0
C84 C 0.79037 0.09912 0.60917 0.0
C85 C 0.7653 0.11811 0.61905 0.0
C86 C 0.74803 0.13889 0.60798 0.0
C87 C 0.75752 0.14083 0.58667 0.0
C88 C 0.78419 0.12252 0.57676 0.0
C89 C 0.79976 0.10161 0.588 0.0
C90 C 0.79699 0.1252 0.55473 0.0
C91 C 0.76413 0.12857 0.53941 0.0
C92 C 0.84248 0.12348 0.5489 0.0
C93 C 0.85497 0.12505 0.52811 0.0
C94 C 0.82216 0.12792 0.51258 0.0
C95 C 0.72159 0.15874 0.61907 0.0
C96 C 0.69358 0.15212 0.63586 0.0
C97 C 0.7258 0.18451 0.61378 0.0
C98 C 0.70379 0.20312 0.6254 0.0
C99 C 0.67779 0.19635 0.64266 0.0
C100 C 0.67245 0.17075 0.64768 0.0
C101 C 0.77651 0.12968 0.51854 0.0
H102 H 0.77611 0.03856 0.66098 0.0
H103 H 0.74772 0.07363 0.64058 0.0
H104 H 0.87077 0.07394 0.60467 0.0
H105 H 0.8974 0.03744 0.62385 0.0
H106 H 0.76032 0.11703 0.63561 0.0
H107 H 0.81874 0.08707 0.58004 0.0
H108 H 0.74483 0.15668 0.5778 0.0
H109 H 0.72878 0.12969 0.54354 0.0
H110 H 0.8685 0.12111 0.56049 0.0
H111 H 0.89048 0.12425 0.52429 0.0
H112 H 0.68834 0.13252 0.6401 0.0
H113 H 0.74735 0.19045 0.60116 0.0
H114 H 0.75012 0.13147 0.50708 0.0
H115 H 0.65214 0.16517 0.66086 0.0
H116 H 0.70835 0.22286 0.62135 0.0
C117 C 0.70943 0.46319 0.14528 0.0
C118 C 0.66278 0.46792 0.14671 0.0
C119 C 0.72565 0.44305 0.13345 0.0
C120 C 0.69572 0.42759 0.12239 0.0
C121 C 0.64934 0.43246 0.12338 0.0
C122 C 0.63298 0.4522 0.13558 0.0
C123 C 0.7127 0.40601 0.11019 0.0
C124 C 0.73797 0.38706 0.1198 0.0
C125 C 0.75393 0.36611 0.10857 0.0
C126 C 0.74284 0.36428 0.08739 0.0
C127 C 0.7169 0.38311 0.07746 0.0
C128 C 0.70268 0.40411 0.08912 0.0
C129 C 0.70422 0.38092 0.05509 0.0
C130 C 0.73193 0.36803 0.04093 0.0
C131 C 0.66405 0.3918 0.04761 0.0
C132 C 0.65261 0.39042 0.02669 0.0
C133 C 0.67996 0.37722 0.01259 0.0
C134 C 0.78121 0.34614 0.11922 0.0
C135 C 0.80876 0.3524 0.1362 0.0
C136 C 0.77918 0.32061 0.11305 0.0
C137 C 0.80326 0.30198 0.12374 0.0
C138 C 0.82905 0.30815 0.14133 0.0
C139 C 0.83152 0.33372 0.14729 0.0
C140 C 0.71959 0.36581 0.02014 0.0
H141 H 0.73363 0.47512 0.15317 0.0
H142 H 0.76164 0.43968 0.13276 0.0
H143 H 0.62566 0.42057 0.11509 0.0
H144 H 0.59685 0.45474 0.13657 0.0
H145 H 0.74389 0.38847 0.13629 0.0
H146 H 0.68425 0.4194 0.08189 0.0
H147 H 0.75426 0.3481 0.07867 0.0
H148 H 0.76353 0.35971 0.04572 0.0
H149 H 0.64087 0.40135 0.05788 0.0
H150 H 0.62225 0.39992 0.02169 0.0
H151 H 0.81266 0.37181 0.14121 0.0
H152 H 0.75821 0.31472 0.10024 0.0
H153 H 0.74127 0.35487 0.01012 0.0
H154 H 0.85023 0.33948 0.16085 0.0
H155 H 0.80119 0.2827 0.11822 0.0
C156 C 0.678 0.55612 0.65316 0.0
C157 C 0.68212 0.53148 0.64524 0.0
C158 C 0.69115 0.57698 0.64141 0.0
C159 C 0.70862 0.57379 0.62138 0.0
C160 C 0.71221 0.54923 0.61326 0.0
C161 C 0.69919 0.52826 0.6251 0.0
C162 C 0.72287 0.59626 0.60921 0.0
C163 C 0.74729 0.61565 0.61883 0.0
C164 C 0.75679 0.6385 0.60855 0.0
C165 C 0.74417 0.64089 0.58762 0.0
C166 C 0.72136 0.62111 0.57733 0.0
C167 C 0.71027 0.59903 0.58846 0.0
C168 C 0.70826 0.62345 0.55511 0.0
C169 C 0.69426 0.64673 0.54673 0.0
C170 C 0.70919 0.60214 0.54211 0.0
C171 C 0.69598 0.60393 0.52145 0.0
C172 C 0.6823 0.62721 0.51299 0.0
C173 C 0.77809 0.6599 0.62016 0.0
C174 C 0.76959 0.66284 0.64144 0.0
C175 C 0.80671 0.67753 0.61039 0.0
C176 C 0.82602 0.69749 0.62161 0.0
C177 C 0.81813 0.70002 0.64301 0.0
C178 C 0.79001 0.68214 0.65272 0.0
C179 C 0.68169 0.64861 0.52592 0.0
H180 H 0.66393 0.55936 0.66839 0.0
H181 H 0.68708 0.59571 0.64793 0.0
H182 H 0.72578 0.54621 0.5979 0.0
H183 H 0.70308 0.50952 0.61859 0.0
H184 H 0.75865 0.61281 0.63457 0.0
H185 H 0.69045 0.58426 0.5812 0.0
H186 H 0.75171 0.6582 0.57937 0.0
H187 H 0.69243 0.66351 0.55628 0.0
H188 H 0.7204 0.58395 0.54782 0.0
H189 H 0.69623 0.5869 0.51215 0.0
H190 H 0.74683 0.6503 0.64961 0.0
H191 H 0.81463 0.6759 0.59411 0.0
H192 H 0.6719 0.66693 0.51994 0.0
H193 H 0.78373 0.68275 0.6692 0.0
H194 H 0.84687 0.71098 0.61338 0.0
C195 C 0.77797 0.86858 0.02075 0.0
C196 C 0.82243 0.87344 0.01426 0.0
C197 C 0.7661 0.87077 0.04162 0.0
C198 C 0.79829 0.87822 0.05634 0.0
C199 C 0.84281 0.88285 0.04987 0.0
C200 C 0.85482 0.88035 0.02907 0.0
C201 C 0.78531 0.88183 0.07831 0.0
C202 C 0.76056 0.86314 0.08892 0.0
C203 C 0.74896 0.86634 0.10988 0.0
C204 C 0.76134 0.88897 0.11986 0.0
C205 C 0.78669 0.90761 0.10962 0.0
C206 C 0.79851 0.90388 0.08883 0.0
C207 C 0.80264 0.93032 0.12105 0.0
C208 C 0.77386 0.94312 0.13477 0.0
C209 C 0.84753 0.93856 0.11911 0.0
C210 C 0.86356 0.95878 0.13095 0.0
C211 C 0.83503 0.97129 0.14498 0.0
C212 C 0.72629 0.84568 0.1218 0.0
C213 C 0.69377 0.82984 0.11261 0.0
C214 C 0.73761 0.84149 0.14265 0.0
C215 C 0.71673 0.82238 0.15405 0.0
C216 C 0.68466 0.80629 0.14488 0.0
C217 C 0.6734 0.8103 0.12397 0.0
C218 C 0.78986 0.96338 0.14659 0.0
H219 H 0.75237 0.8631 0.00968 0.0
H220 H 0.7315 0.86722 0.04617 0.0
H221 H 0.86838 0.88845 0.06093 0.0
H222 H 0.88921 0.88443 0.02449 0.0
H223 H 0.75205 0.8457 0.08102 0.0
H224 H 0.81751 0.91836 0.08071 0.0
H225 H 0.75224 0.89189 0.1359 0.0
H226 H 0.73893 0.93744 0.13641 0.0
H227 H 0.87073 0.92886 0.1089 0.0
H228 H 0.89869 0.96414 0.12952 0.0
H229 H 0.68381 0.83257 0.09666 0.0
H230 H 0.76314 0.85281 0.15025 0.0
H231 H 0.7668 0.97289 0.15698 0.0
H232 H 0.64922 0.79819 0.11625 0.0
H233 H 0.72577 0.82037 0.17019 0.0
C234 C 0.1523 0.94327 0.35959 0.0
C235 C 0.16393 0.96811 0.36511 0.0
C236 C 0.16806 0.92283 0.37115 0.0
C237 C 0.19517 0.92688 0.38864 0.0
C238 C 0.20643 0.95173 0.39434 0.0
C239 C 0.19129 0.9722 0.38253 0.0
C240 C 0.21165 0.90504 0.40076 0.0
C241 C 0.23289 0.88488 0.39067 0.0
C242 C 0.24657 0.86331 0.40166 0.0
C243 C 0.23852 0.86205 0.42307 0.0
C244 C 0.21718 0.88216 0.4334 0.0
C245 C 0.20443 0.90376 0.42216 0.0
C246 C 0.20607 0.88024 0.45572 0.0
C247 C 0.18501 0.85842 0.46359 0.0
C248 C 0.21483 0.90058 0.46912 0.0
C249 C 0.20277 0.89912 0.48998 0.0
C250 C 0.18122 0.87742 0.49781 0.0
C251 C 0.2684 0.84208 0.3905 0.0
C252 C 0.25146 0.83413 0.37128 0.0
C253 C 0.30697 0.8302 0.39853 0.0
C254 C 0.32861 0.8111 0.38733 0.0
C255 C 0.31191 0.80341 0.36797 0.0
C256 C 0.27297 0.81508 0.36014 0.0
C257 C 0.17248 0.85708 0.48441 0.0
H258 H 0.13145 0.93965 0.34615 0.0
H259 H 0.15872 0.90382 0.36654 0.0
H260 H 0.22742 0.95527 0.40774 0.0
H261 H 0.2005 0.99123 0.38711 0.0
H262 H 0.23917 0.88616 0.37418 0.0
H263 H 0.18702 0.91909 0.42988 0.0
H264 H 0.2483 0.84531 0.43164 0.0
H265 H 0.17745 0.84257 0.45356 0.0
H266 H 0.23117 0.91758 0.46346 0.0
H267 H 0.20979 0.91511 0.49996 0.0
H268 H 0.2215 0.84271 0.36479 0.0
H269 H 0.32097 0.83605 0.41324 0.0
H270 H 0.15636 0.84002 0.49008 0.0
H271 H 0.25951 0.8098 0.34519 0.0
H272 H 0.35834 0.80231 0.39385 0.0
C273 C 0.28116 0.63553 0.98952 0.0
C274 C 0.32373 0.62734 0.99636 0.0
C275 C 0.26932 0.63383 0.96864 0.0
C276 C 0.29982 0.62398 0.95411 0.0
C277 C 0.34254 0.61602 0.96095 0.0
C278 C 0.35429 0.61761 0.98181 0.0
C279 C 0.28721 0.62176 0.93193 0.0
C280 C 0.26288 0.64108 0.92195 0.0
C281 C 0.25271 0.63934 0.90077 0.0
C282 C 0.26633 0.61786 0.88965 0.0
C283 C 0.29033 0.59837 0.89939 0.0
C284 C 0.30047 0.60043 0.9205 0.0
C285 C 0.3061 0.57621 0.88738 0.0
C286 C 0.27685 0.56343 0.87387 0.0
C287 C 0.35085 0.56793 0.88919 0.0
C288 C 0.36623 0.54743 0.87758 0.0
C289 C 0.33704 0.53447 0.86406 0.0
C290 C 0.22974 0.66041 0.88992 0.0
C291 C 0.19003 0.67109 0.8979 0.0
C292 C 0.24743 0.66979 0.87127 0.0
C293 C 0.22582 0.68936 0.86073 0.0
C294 C 0.18579 0.69986 0.86851 0.0
C295 C 0.16803 0.69052 0.8872 0.0
C296 C 0.29205 0.54268 0.86244 0.0
H297 H 0.25702 0.64345 1.00027 0.0
H298 H 0.23604 0.63995 0.96395 0.0
H299 H 0.36714 0.60868 0.95014 0.0
H300 H 0.38718 0.61093 0.98657 0.0
H301 H 0.25343 0.65794 0.93042 0.0
H302 H 0.31832 0.58515 0.92809 0.0
H303 H 0.25885 0.61649 0.87328 0.0
H304 H 0.24204 0.56929 0.87234 0.0
H305 H 0.37429 0.57766 0.89929 0.0
H306 H 0.40132 0.5421 0.87894 0.0
H307 H 0.17563 0.66413 0.91222 0.0
H308 H 0.27822 0.66206 0.86487 0.0
H309 H 0.26835 0.53296 0.85248 0.0
H310 H 0.13733 0.69837 0.89359 0.0
H311 H 0.24008 0.69602 0.84629 0.0
Tb312 Tb 0.06206 0.1411 0.23645 0.0
C313 C 0.86342 0.11489 0.25786 0.0
N314 N 0.88175 0.13842 0.25885 0.0
C315 C 0.81647 0.15572 0.24218 0.0
C316 C 0.82119 0.11073 0.24845 0.0
C317 C 0.85876 0.15881 0.2514 0.0
C318 C 0.7977 0.13154 0.24056 0.0
C319 C 0.87025 0.0701 0.26503 0.0
C320 C 0.88781 0.09489 0.26591 0.0
C321 C 0.82847 0.06574 0.25543 0.0
C322 C 0.80399 0.08601 0.24715 0.0
Tb323 Tb 0.95158 0.14137 0.27354 0.0
N324 N 0.92843 0.09986 0.27486 0.0
C325 C 0.89478 0.05055 0.27423 0.0
C326 C 0.94988 0.08125 0.28566 0.0
C327 C 0.9343 0.05625 0.28497 0.0
H328 H 0.87258 0.17753 0.25298 0.0
H329 H 0.95224 0.04151 0.29316 0.0
H330 H 0.12841 0.0943 0.25275 0.0
H331 H 0.09304 0.24018 0.22255 0.0
H332 H 0.9778 0.08556 0.29556 0.0
H333 H 0.88257 0.03122 0.27384 0.0
H334 H 0.04706 0.20142 0.2239 0.0
H335 H 0.79837 0.172 0.23637 0.0
H336 H 0.8145 0.04681 0.25458 0.0
H337 H 0.77172 0.08238 0.23987 0.0
H338 H 0.20552 0.08995 0.26641 0.0
H339 H 0.76504 0.12918 0.23331 0.0
H340 H 0.17239 0.23934 0.23435 0.0
N341 N 0.13265 0.13423 0.24925 0.0
C342 C 0.15992 0.15492 0.24978 0.0
C343 C 0.19297 0.10839 0.26199 0.0
C344 C 0.2049 0.15317 0.25663 0.0
C345 C 0.14884 0.111 0.25471 0.0
C346 C 0.22108 0.12959 0.26307 0.0
N347 N 0.0987 0.17899 0.23731 0.0
C348 C 0.08102 0.20086 0.2296 0.0
C349 C 0.17049 0.1996 0.24252 0.0
C350 C 0.14279 0.1779 0.24307 0.0
C351 C 0.1522 0.22225 0.23509 0.0
C352 C 0.10732 0.22284 0.22854 0.0
H353 H 0.25542 0.12745 0.26849 0.0
H354 H 0.26701 0.17392 0.26182 0.0
H355 H 0.23697 0.21452 0.2493 0.0
O356 O 0.05863 0.14947 0.2047 0.0
O357 O 0.06781 0.16298 0.26541 0.0
O358 O 0.99528 0.17441 0.27473 0.0
O359 O 0.10776 0.12328 0.21636 0.0
O360 O 0.00132 0.16067 0.22569 0.0
O361 O 0.95892 0.17492 0.25366 0.0
O362 O 0.94713 0.13661 0.30638 0.0
O363 O 0.94715 0.12587 0.24205 0.0
O364 O 0.01669 0.10827 0.23585 0.0
O365 O 0.90417 0.16283 0.28957 0.0
O366 O 0.0154 0.12507 0.28483 0.0
O367 O 0.04972 0.10822 0.25597 0.0
C368 C 0.0391 0.17552 0.2771 0.0
C369 C 0.08244 0.11726 0.18224 0.0
C370 C 0.08805 0.10958 0.14521 0.0
C371 C 0.06572 0.08634 0.14793 0.0
C372 C 0.06065 0.0939 0.18478 0.0
C373 C 0.05257 0.07847 0.16768 0.0
C374 C 0.09652 0.12496 0.16247 0.0
C375 C 0.97207 0.17632 0.23412 0.0
C376 C 0.09088 0.13385 0.19998 0.0
C377 C 0.23236 0.17488 0.25658 0.0
C378 C 0.21527 0.198 0.24943 0.0
C379 C 0.97267 0.10865 0.23336 0.0
C380 C 0.89342 0.16249 0.32655 0.0
C381 C 0.8816 0.1609 0.36392 0.0
C382 C 0.85555 0.18297 0.36262 0.0
C383 C 0.86689 0.1845 0.32572 0.0
C384 C 0.90045 0.1505 0.3458 0.0
C385 C 0.8481 0.19459 0.34363 0.0
C386 C 0.04373 0.10914 0.27608 0.0
C387 C 0.91561 0.15367 0.3074 0.0
H388 H 0.05929 0.07408 0.13484 0.0
H389 H 0.0503 0.08755 0.19996 0.0
H390 H 0.03647 0.06029 0.16979 0.0
H391 H 0.11367 0.14295 0.16049 0.0
H392 H 0.84064 0.19113 0.37639 0.0
H393 H 0.86116 0.19425 0.31122 0.0
H394 H 0.92095 0.13359 0.34678 0.0
H395 H 0.82794 0.2116 0.3428 0.0
Tb396 Tb 0.45501 0.3672 0.73661 0.0
C397 C 0.65529 0.38263 0.75986 0.0
N398 N 0.6322 0.36039 0.75942 0.0
C399 C 0.69302 0.34074 0.74106 0.0
C400 C 0.69793 0.38496 0.75043 0.0
C401 C 0.6506 0.33943 0.75046 0.0
C402 C 0.71673 0.36363 0.74096 0.0
C403 C 0.65711 0.42696 0.76934 0.0
C404 C 0.63479 0.40339 0.76895 0.0
C405 C 0.69953 0.42949 0.75984 0.0
C406 C 0.71988 0.40854 0.75041 0.0
Tb407 Tb 0.56291 0.36057 0.77478 0.0
N408 N 0.59306 0.4004 0.77745 0.0
C409 C 0.63643 0.44716 0.77955 0.0
C410 C 0.57496 0.41937 0.78907 0.0
C411 C 0.59561 0.44318 0.78983 0.0
H412 H 0.63283 0.32158 0.75078 0.0
H413 H 0.58044 0.45831 0.79868 0.0
H414 H 0.39014 0.41269 0.75555 0.0
H415 H 0.42202 0.26903 0.71868 0.0
H416 H 0.54558 0.41613 0.79844 0.0
H417 H 0.65244 0.46559 0.78023 0.0
H418 H 0.46577 0.30855 0.71836 0.0
H419 H 0.70738 0.32411 0.73389 0.0
H420 H 0.71701 0.44751 0.75983 0.0
H421 H 0.75256 0.41077 0.74312 0.0
H422 H 0.31351 0.41634 0.77018 0.0
H423 H 0.74944 0.36463 0.73353 0.0
H424 H 0.34546 0.26831 0.73394 0.0
N425 N 0.38444 0.3732 0.74974 0.0
C426 C 0.35725 0.35247 0.75011 0.0
C427 C 0.32547 0.39823 0.76465 0.0
C428 C 0.31307 0.35374 0.75801 0.0
C429 C 0.36905 0.39604 0.75656 0.0
C430 C 0.29739 0.37698 0.76545 0.0
N431 N 0.41723 0.32947 0.73533 0.0
C432 C 0.43375 0.30826 0.72608 0.0
C433 C 0.34709 0.30791 0.74247 0.0
C434 C 0.37408 0.32987 0.74249 0.0
C435 C 0.36507 0.28563 0.73425 0.0
C436 C 0.40839 0.28591 0.72576 0.0
H437 H 0.26364 0.37875 0.77169 0.0
H438 H 0.25209 0.33237 0.76432 0.0
H439 H 0.28189 0.29225 0.75071 0.0
O440 O 0.45692 0.36268 0.70419 0.0
O441 O 0.44406 0.34698 0.76611 0.0
O442 O 0.51321 0.33011 0.77465 0.0
O443 O 0.41631 0.39159 0.71819 0.0
O444 O 0.51376 0.34543 0.72576 0.0
O445 O 0.54813 0.32814 0.75483 0.0
O446 O 0.56923 0.36338 0.80761 0.0
O447 O 0.57233 0.37741 0.7439 0.0
O448 O 0.5051 0.3973 0.73877 0.0
O449 O 0.6081 0.33636 0.78963 0.0
O450 O 0.50238 0.38022 0.7866 0.0
O451 O 0.47121 0.39835 0.75743 0.0
C452 C 0.46932 0.3314 0.77694 0.0
C453 C 0.38962 0.3741 0.68697 0.0
C454 C 0.35893 0.373 0.65204 0.0
C455 C 0.31693 0.36566 0.66011 0.0
C456 C 0.34732 0.36673 0.69472 0.0
C457 C 0.31133 0.36237 0.68133 0.0
C458 C 0.39547 0.3769 0.6655 0.0
C459 C 0.54021 0.32873 0.73479 0.0
C460 C 0.42704 0.38027 0.70107 0.0
C461 C 0.28612 0.33183 0.75823 0.0
C462 C 0.3031 0.30897 0.7505 0.0
C463 C 0.54804 0.39474 0.73468 0.0
C464 C 0.62219 0.33581 0.82645 0.0
C465 C 0.63491 0.33529 0.86382 0.0
C466 C 0.66658 0.3158 0.86104 0.0
C467 C 0.65383 0.31623 0.82425 0.0
C468 C 0.61296 0.34549 0.84635 0.0
C469 C 0.67586 0.30639 0.84143 0.0
C470 C 0.47446 0.3962 0.77761 0.0
C471 C 0.59943 0.34556 0.80776 0.0
H472 H 0.28845 0.36249 0.64993 0.0
H473 H 0.34169 0.36481 0.71109 0.0
H474 H 0.27883 0.35677 0.68746 0.0
H475 H 0.42785 0.38284 0.65936 0.0
H476 H 0.68469 0.30798 0.8741 0.0
H477 H 0.66173 0.30845 0.80919 0.0
H478 H 0.58857 0.36054 0.84827 0.0
H479 H 0.70032 0.29141 0.83953 0.0
Tb480 Tb 0.05369 0.85963 0.73612 0.0
C481 C 0.85325 0.84368 0.76006 0.0
N482 N 0.87607 0.86601 0.75988 0.0
C483 C 0.81388 0.88618 0.74291 0.0
C484 C 0.81001 0.84161 0.75119 0.0
C485 C 0.85696 0.88722 0.75163 0.0
C486 C 0.79032 0.86327 0.74263 0.0
C487 C 0.85252 0.79892 0.7682 0.0
C488 C 0.87443 0.82262 0.76838 0.0
C489 C 0.80941 0.79671 0.75937 0.0
C490 C 0.78818 0.81801 0.75093 0.0
Tb491 Tb 0.94604 0.86558 0.77453 0.0
N492 N 0.91676 0.82536 0.77631 0.0
C493 C 0.87451 0.77818 0.77701 0.0
C494 C 0.93676 0.80553 0.78622 0.0
C495 C 0.91651 0.7816 0.78632 0.0
H496 H 0.8745 0.90509 0.75219 0.0
H497 H 0.93301 0.76588 0.7939 0.0
H498 H 0.1236 0.81521 0.75227 0.0
H499 H 0.07784 0.95964 0.7209 0.0
H500 H 0.96745 0.80797 0.79472 0.0
H501 H 0.85888 0.75963 0.77716 0.0
H502 H 0.03683 0.91944 0.72018 0.0
H503 H 0.79884 0.90307 0.73645 0.0
H504 H 0.79216 0.77862 0.75902 0.0
H505 H 0.75496 0.816 0.74415 0.0
H506 H 0.20205 0.81253 0.76483 0.0
H507 H 0.75705 0.86249 0.73575 0.0
H508 H 0.15597 0.96125 0.73418 0.0
N509 N 0.1261 0.85487 0.74727 0.0
C510 C 0.15195 0.87611 0.74742 0.0
C511 C 0.18828 0.83058 0.76011 0.0
C512 C 0.19699 0.87552 0.75431 0.0
C513 C 0.14366 0.83219 0.75326 0.0
C514 C 0.21503 0.85236 0.76073 0.0
N515 N 0.08889 0.89833 0.73477 0.0
C516 C 0.06979 0.91976 0.72691 0.0
C517 C 0.15815 0.92119 0.74109 0.0
C518 C 0.1328 0.89859 0.74088 0.0
C519 C 0.1377 0.94347 0.73423 0.0
C520 C 0.09352 0.94267 0.72686 0.0
H521 H 0.24956 0.85108 0.76609 0.0
H522 H 0.257 0.89795 0.75998 0.0
H523 H 0.22292 0.93798 0.74847 0.0
O524 O 0.05086 0.86478 0.70373 0.0
O525 O 0.06474 0.88011 0.7653 0.0
O526 O 0.99506 0.89656 0.77378 0.0
O527 O 0.08988 0.83476 0.71713 0.0
O528 O 0.9935 0.87999 0.72522 0.0
O529 O 0.95951 0.89757 0.75408 0.0
O530 O 0.9394 0.86217 0.80743 0.0
O531 O 0.93706 0.84799 0.744 0.0
O532 O 0.00519 0.82889 0.73963 0.0
O533 O 0.90203 0.89004 0.78966 0.0
O534 O 0.00738 0.84726 0.78659 0.0
O535 O 0.04182 0.82885 0.75818 0.0
C536 C 0.03918 0.89599 0.77565 0.0
C537 C 0.11679 0.85206 0.68573 0.0
C538 C 0.14348 0.85734 0.65029 0.0
C539 C 0.18805 0.85784 0.65753 0.0
C540 C 0.1617 0.85291 0.69267 0.0
C541 C 0.19701 0.85583 0.67862 0.0
C542 C 0.10778 0.85465 0.66444 0.0
C543 C 0.96619 0.89649 0.73398 0.0
C544 C 0.07952 0.84666 0.70022 0.0
C545 C 0.22237 0.89799 0.75466 0.0
C546 C 0.20296 0.92079 0.74811 0.0
C547 C 0.96254 0.83106 0.73504 0.0
C548 C 0.88792 0.89078 0.82638 0.0
C549 C 0.87557 0.89215 0.86371 0.0
C550 C 0.84686 0.91295 0.86101 0.0
C551 C 0.85876 0.91158 0.82417 0.0
C552 C 0.89598 0.88085 0.84632 0.0
C553 C 0.8384 0.9225 0.84136 0.0
C554 C 0.03621 0.83114 0.77834 0.0
C555 C 0.91035 0.88061 0.80772 0.0
H556 H 0.21594 0.85981 0.6468 0.0
H557 H 0.16971 0.8508 0.70889 0.0
H558 H 0.2315 0.85621 0.68408 0.0
H559 H 0.07334 0.85382 0.65886 0.0
H560 H 0.8307 0.92175 0.87421 0.0
H561 H 0.85184 0.91964 0.8091 0.0
H562 H 0.91836 0.86487 0.84836 0.0
H563 H 0.81612 0.93852 0.83945 0.0
Tb564 Tb 0.44977 0.64454 0.23454 0.0
C565 C 0.64701 0.66119 0.25965 0.0
N566 N 0.62366 0.63901 0.25955 0.0
C567 C 0.68534 0.61827 0.24273 0.0
C568 C 0.69006 0.66295 0.25055 0.0
C569 C 0.6425 0.61751 0.25177 0.0
C570 C 0.70914 0.64111 0.24201 0.0
C571 C 0.64881 0.706 0.26764 0.0
C572 C 0.62651 0.68242 0.26814 0.0
C573 C 0.69175 0.70788 0.25854 0.0
C574 C 0.71236 0.68641 0.25007 0.0
Tb575 Tb 0.55483 0.63987 0.27506 0.0
N576 N 0.58445 0.67998 0.2765 0.0
C577 C 0.62732 0.72698 0.27631 0.0
C578 C 0.56455 0.70017 0.28596 0.0
C579 C 0.58524 0.72398 0.28569 0.0
H580 H 0.62479 0.59968 0.25268 0.0
H581 H 0.56893 0.73997 0.29296 0.0
H582 H 0.38107 0.68875 0.25354 0.0
H583 H 0.41593 0.55042 0.20664 0.0
H584 H 0.53342 0.69816 0.29427 0.0
H585 H 0.64324 0.74545 0.27617 0.0
H586 H 0.46125 0.58905 0.21191 0.0
H587 H 0.70002 0.60122 0.23639 0.0
H588 H 0.70933 0.72587 0.25799 0.0
H589 H 0.74546 0.68819 0.2431 0.0
H590 H 0.30333 0.69139 0.26639 0.0
H591 H 0.74224 0.64165 0.23491 0.0
H592 H 0.33748 0.5484 0.21966 0.0
N593 N 0.37817 0.64921 0.24742 0.0
C594 C 0.35056 0.62878 0.24553 0.0
C595 C 0.31641 0.6735 0.26092 0.0
C596 C 0.30506 0.62967 0.25183 0.0
C597 C 0.36109 0.67174 0.25415 0.0
C598 C 0.28837 0.65228 0.25999 0.0
N599 N 0.41061 0.60787 0.22933 0.0
C600 C 0.42775 0.58805 0.21831 0.0
C601 C 0.33945 0.58614 0.23266 0.0
C602 C 0.36718 0.60747 0.23589 0.0
C603 C 0.35758 0.56522 0.22235 0.0
C604 C 0.40188 0.56626 0.21503 0.0
H605 H 0.25356 0.65381 0.26491 0.0
H606 H 0.24235 0.60862 0.25388 0.0
H607 H 0.27271 0.57034 0.2373 0.0
O608 O 0.45778 0.64186 0.202 0.0
O609 O 0.44887 0.61248 0.25635 0.0
O610 O 0.48838 0.62629 0.28509 0.0
O611 O 0.41369 0.66926 0.21558 0.0
O612 O 0.51156 0.62436 0.22576 0.0
O613 O 0.54091 0.60664 0.25585 0.0
O614 O 0.58148 0.64656 0.30488 0.0
O615 O 0.56435 0.65522 0.24371 0.0
O616 O 0.49751 0.67529 0.23954 0.0
O617 O 0.5854 0.60921 0.29053 0.0
O618 O 0.49446 0.65921 0.28652 0.0
O619 O 0.45736 0.6749 0.25758 0.0
C620 C 0.45942 0.61093 0.2761 0.0
C621 C 0.39016 0.65199 0.18397 0.0
C622 C 0.36374 0.64597 0.14867 0.0
C623 C 0.31931 0.64407 0.15595 0.0
C624 C 0.34531 0.64981 0.19096 0.0
C625 C 0.31024 0.64582 0.17702 0.0
C626 C 0.39929 0.64977 0.1627 0.0
C627 C 0.53296 0.60624 0.23578 0.0
C628 C 0.42661 0.65861 0.19855 0.0
C629 C 0.27735 0.60832 0.24908 0.0
C630 C 0.29457 0.58656 0.23957 0.0
C631 C 0.54022 0.67311 0.23527 0.0
C632 C 0.61776 0.61337 0.32505 0.0
C633 C 0.63187 0.6136 0.36225 0.0
C634 C 0.6606 0.59276 0.35983 0.0
C635 C 0.64668 0.59254 0.32303 0.0
C636 C 0.61072 0.62413 0.34478 0.0
C637 C 0.66813 0.58242 0.34032 0.0
C638 C 0.46394 0.67382 0.27774 0.0
C639 C 0.59446 0.62319 0.30659 0.0
H640 H 0.29161 0.64127 0.14526 0.0
H641 H 0.33702 0.6518 0.20715 0.0
H642 H 0.27586 0.64445 0.18254 0.0
H643 H 0.43356 0.65169 0.15705 0.0
H644 H 0.67723 0.58449 0.37313 0.0
H645 H 0.6528 0.58409 0.30803 0.0
H646 H 0.58827 0.64013 0.34661 0.0
H647 H 0.69043 0.56638 0.33863 0.0
C648 C 0.17778 0.00769 0.34488 0.0
C649 C 0.14747 0.98965 0.35262 0.0
C650 C 0.16273 0.02762 0.33232 0.0
C651 C 0.11618 0.02976 0.32779 0.0
C652 C 0.08537 0.01177 0.33586 0.0
C653 C 0.10148 0.99178 0.34804 0.0
C654 C 0.19664 0.04616 0.32364 0.0
C655 C 0.03542 0.0136 0.33158 0.0
C656 C 0.06973 0.09321 0.31045 0.0
C657 C 0.06482 0.08944 0.28912 0.0
C658 C 0.08685 0.07402 0.32321 0.0
C659 C 0.09964 0.05061 0.31438 0.0
C660 C 0.09532 0.04682 0.29281 0.0
C661 C 0.07759 0.06621 0.28047 0.0
C662 C 0.09039 0.07861 0.34619 0.0
C663 C 0.10883 0.02217 0.28281 0.0
H664 H 0.21342 0.00584 0.34828 0.0
H665 H 0.07805 0.97788 0.35416 0.0
H666 H 0.19503 0.04611 0.30649 0.0
H667 H 0.18843 0.06561 0.32883 0.0
H668 H 0.23168 0.04168 0.32845 0.0
H669 H 0.01582 0.99861 0.33963 0.0
H670 H 0.02257 0.03233 0.33656 0.0
H671 H 0.02913 0.012 0.31472 0.0
H672 H 0.05965 0.11108 0.31721 0.0
H673 H 0.07289 0.06295 0.26406 0.0
H674 H 0.12569 0.07592 0.35137 0.0
H675 H 0.06929 0.06465 0.35465 0.0
H676 H 0.07938 0.09795 0.35059 0.0
H677 H 0.14467 0.01798 0.2863 0.0
H678 H 0.10437 0.0225 0.26575 0.0
H679 H 0.08836 0.00642 0.28924 0.0
C680 C 0.33871 0.50907 0.83115 0.0
C681 C 0.35381 0.51277 0.85151 0.0
C682 C 0.35539 0.48919 0.81898 0.0
C683 C 0.38883 0.47297 0.82716 0.0
C684 C 0.40395 0.4764 0.84772 0.0
C685 C 0.38584 0.49601 0.85971 0.0
C686 C 0.33769 0.48578 0.79726 0.0
C687 C 0.44024 0.45981 0.85686 0.0
C688 C 0.41632 0.40919 0.80315 0.0
C689 C 0.4525 0.41559 0.7903 0.0
C690 C 0.39377 0.42792 0.81454 0.0
C691 C 0.40977 0.45321 0.81394 0.0
C692 C 0.44673 0.45956 0.80104 0.0
C693 C 0.46642 0.44081 0.78873 0.0
C694 C 0.35271 0.42073 0.82705 0.0
C695 C 0.46608 0.48602 0.80053 0.0
H696 H 0.31449 0.52204 0.82449 0.0
H697 H 0.39707 0.49826 0.87555 0.0
H698 H 0.3648 0.4899 0.78592 0.0
H699 H 0.32697 0.46588 0.79481 0.0
H700 H 0.30871 0.49842 0.79393 0.0
H701 H 0.4483 0.46496 0.87309 0.0
H702 H 0.42954 0.4397 0.85646 0.0
H703 H 0.47146 0.46141 0.84746 0.0
H704 H 0.40486 0.3897 0.80377 0.0
H705 H 0.49367 0.44571 0.77827 0.0
H706 H 0.32411 0.43332 0.82306 0.0
H707 H 0.35972 0.42325 0.84376 0.0
H708 H 0.34226 0.4008 0.82435 0.0
H709 H 0.44075 0.4994 0.79432 0.0
H710 H 0.49697 0.48728 0.79084 0.0
H711 H 0.47455 0.49229 0.81644 0.0
C712 C 0.64351 0.4894 0.64903 0.0
C713 C 0.66777 0.50942 0.65795 0.0
C714 C 0.62692 0.46944 0.6612 0.0
C715 C 0.63447 0.46963 0.68282 0.0
C716 C 0.66012 0.48933 0.69183 0.0
C717 C 0.67665 0.50891 0.67928 0.0
C718 C 0.59987 0.44865 0.65105 0.0
C719 C 0.66875 0.49019 0.71485 0.0
C720 C 0.54821 0.43631 0.71648 0.0
C721 C 0.57044 0.41372 0.72141 0.0
C722 C 0.5688 0.45464 0.70397 0.0
C723 C 0.61271 0.45028 0.69619 0.0
C724 C 0.63544 0.42755 0.70116 0.0
C725 C 0.61386 0.40944 0.71361 0.0
C726 C 0.54355 0.47872 0.69913 0.0
C727 C 0.6823 0.42226 0.69318 0.0
H728 H 0.63611 0.48975 0.63262 0.0
H729 H 0.69615 0.52404 0.68623 0.0
H730 H 0.61302 0.42985 0.65568 0.0
H731 H 0.56429 0.44967 0.65629 0.0
H732 H 0.60052 0.45002 0.63391 0.0
H733 H 0.6913 0.5061 0.71928 0.0
H734 H 0.63632 0.49232 0.72322 0.0
H735 H 0.68415 0.47221 0.72012 0.0
H736 H 0.51468 0.4398 0.7225 0.0
H737 H 0.63082 0.39181 0.71703 0.0
H738 H 0.53903 0.48062 0.68218 0.0
H739 H 0.56331 0.49535 0.70442 0.0
H740 H 0.50982 0.47928 0.7066 0.0
H741 H 0.68185 0.4215 0.67603 0.0
H742 H 0.69597 0.40412 0.69916 0.0
H743 H 0.70556 0.43777 0.69767 0.0
C744 C 0.84076 0.99367 0.17914 0.0
C745 C 0.85269 0.99214 0.15816 0.0
C746 C 0.85857 0.0127 0.19193 0.0
C747 C 0.88894 0.03069 0.18354 0.0
C748 C 0.90043 0.02953 0.1623 0.0
C749 C 0.88231 0.01025 0.14991 0.0
C750 C 0.84509 0.01347 0.21444 0.0
C751 C 0.93271 0.04828 0.15272 0.0
C752 C 0.90919 0.09294 0.21148 0.0
C753 C 0.95088 0.08855 0.221 0.0
C754 C 0.88825 0.07415 0.19951 0.0
C755 C 0.90955 0.05041 0.19701 0.0
C756 C 0.95129 0.04573 0.20693 0.0
C757 C 0.97147 0.06488 0.21879 0.0
C758 C 0.84381 0.07992 0.18919 0.0
C759 C 0.97474 0.02054 0.20493 0.0
H760 H 0.81823 0.97962 0.1857 0.0
H761 H 0.89125 0.00941 0.13367 0.0
H762 H 0.87547 0.01316 0.22444 0.0
H763 H 0.82699 0.03136 0.21767 0.0
H764 H 0.82284 0.99738 0.2188 0.0
H765 H 0.93381 0.04676 0.13559 0.0
H766 H 0.92342 0.06793 0.15696 0.0
H767 H 0.96701 0.0447 0.15876 0.0
H768 H 0.89322 0.11125 0.2131 0.0
H769 H 0.00336 0.06128 0.22643 0.0
H770 H 0.81804 0.06581 0.19391 0.0
H771 H 0.8476 0.07854 0.17216 0.0
H772 H 0.8312 0.09911 0.1931 0.0
H773 H 0.95183 0.00507 0.20994 0.0
H774 H 0.0061 0.0196 0.21428 0.0
H775 H 0.98347 0.01703 0.1885 0.0
C776 C 0.82752 0.99473 0.66413 0.0
C777 C 0.8567 0.01367 0.65673 0.0
C778 C 0.84352 0.97501 0.67665 0.0
C779 C 0.88993 0.97392 0.68158 0.0
C780 C 0.91972 0.99263 0.67388 0.0
C781 C 0.9027 0.01239 0.66174 0.0
C782 C 0.8107 0.95551 0.6848 0.0
C783 C 0.96957 0.99192 0.67865 0.0
C784 C 0.92902 0.93848 0.72927 0.0
C785 C 0.94494 0.91585 0.7207 0.0
C786 C 0.91011 0.95733 0.71675 0.0
C787 C 0.90742 0.9535 0.69513 0.0
C788 C 0.92298 0.93058 0.6864 0.0
C789 C 0.94155 0.912 0.69931 0.0
C790 C 0.89371 0.98151 0.72661 0.0
C791 C 0.92067 0.92584 0.6634 0.0
H792 H 0.79209 0.99524 0.66009 0.0
H793 H 0.92546 0.02712 0.65647 0.0
H794 H 0.82098 0.93632 0.67975 0.0
H795 H 0.81107 0.95557 0.70196 0.0
H796 H 0.77565 0.959 0.67949 0.0
H797 H 0.98844 0.00742 0.67088 0.0
H798 H 0.97492 0.99348 0.69558 0.0
H799 H 0.98402 0.97356 0.67366 0.0
H800 H 0.93189 0.94166 0.74578 0.0
H801 H 0.95357 0.89447 0.69261 0.0
H802 H 0.85798 0.98492 0.7224 0.0
H803 H 0.91364 0.99777 0.72071 0.0
H804 H 0.89651 0.98108 0.74374 0.0
H805 H 0.88527 0.92725 0.65801 0.0
H806 H 0.93396 0.90693 0.6591 0.0
H807 H 0.94037 0.94051 0.65504 0.0
C808 C 0.60601 0.50207 0.15427 0.0
C809 C 0.6452 0.48887 0.15993 0.0
C810 C 0.58809 0.52107 0.16696 0.0
C811 C 0.61068 0.52774 0.18544 0.0
C812 C 0.65082 0.51507 0.19101 0.0
C813 C 0.66715 0.49553 0.17841 0.0
C814 C 0.54476 0.5339 0.16065 0.0
C815 C 0.67645 0.52209 0.21036 0.0
C816 C 0.5829 0.59249 0.20723 0.0
C817 C 0.55398 0.58616 0.22353 0.0
C818 C 0.60285 0.57359 0.19512 0.0
C819 C 0.59205 0.54789 0.19897 0.0
C820 C 0.56254 0.54151 0.21543 0.0
C821 C 0.54449 0.56079 0.22781 0.0
C822 C 0.63538 0.58112 0.17822 0.0
C823 C 0.54909 0.51441 0.21959 0.0
H824 H 0.58921 0.49765 0.13985 0.0
H825 H 0.69688 0.48526 0.18326 0.0
H826 H 0.51958 0.53245 0.17331 0.0
H827 H 0.55099 0.55432 0.15787 0.0
H828 H 0.53001 0.52555 0.14641 0.0
H829 H 0.70886 0.51172 0.2117 0.0
H830 H 0.68361 0.54271 0.21051 0.0
H831 H 0.65567 0.51782 0.2242 0.0
H832 H 0.59041 0.61224 0.20419 0.0
H833 H 0.52174 0.55612 0.2404 0.0
H834 H 0.62149 0.57572 0.16293 0.0
H835 H 0.66774 0.57089 0.18017 0.0
H836 H 0.64235 0.60179 0.17815 0.0
H837 H 0.53232 0.50637 0.20573 0.0
H838 H 0.52579 0.51266 0.23298 0.0
H839 H 0.57943 0.50278 0.22266 0.0
C840 C 0.32553 0.51244 0.34922 0.0
C841 C 0.35134 0.4904 0.35151 0.0
C842 C 0.34079 0.53266 0.33692 0.0
C843 C 0.38273 0.53072 0.32656 0.0
C844 C 0.40876 0.50844 0.32872 0.0
C845 C 0.39282 0.48861 0.34121 0.0
C846 C 0.31216 0.55613 0.33509 0.0
C847 C 0.45354 0.50556 0.31786 0.0
C848 C 0.40996 0.57248 0.28024 0.0
C849 C 0.43783 0.59103 0.28907 0.0
C850 C 0.39054 0.55323 0.29234 0.0
C851 C 0.40004 0.55212 0.31377 0.0
C852 C 0.42791 0.57083 0.32285 0.0
C853 C 0.44623 0.59009 0.31044 0.0
C854 C 0.36065 0.53377 0.2821 0.0
C855 C 0.43907 0.57026 0.34563 0.0
H856 H 0.29362 0.51401 0.3573 0.0
H857 H 0.41261 0.47149 0.34269 0.0
H858 H 0.33149 0.5729 0.34041 0.0
H859 H 0.30319 0.55944 0.31866 0.0
H860 H 0.2806 0.55475 0.34428 0.0
H861 H 0.46936 0.4869 0.32092 0.0
H862 H 0.449 0.50774 0.30092 0.0
H863 H 0.47707 0.52065 0.32298 0.0
H864 H 0.40396 0.5726 0.26378 0.0
H865 H 0.46771 0.60425 0.31753 0.0
H866 H 0.32772 0.53264 0.2902 0.0
H867 H 0.3765 0.51483 0.2832 0.0
H868 H 0.35443 0.53813 0.26554 0.0
H869 H 0.40759 0.57068 0.3549 0.0
H870 H 0.46073 0.58642 0.35036 0.0
H871 H 0.4568 0.5524 0.34947 0.0
C872 C 0.13833 0.99112 0.8598 0.0
C873 C 0.15805 0.01269 0.85095 0.0
C874 C 0.1211 0.9716 0.84737 0.0
C875 C 0.12318 0.97387 0.82557 0.0
C876 C 0.14345 0.9955 0.81654 0.0
C877 C 0.16084 0.0146 0.82935 0.0
C878 C 0.10017 0.94868 0.85756 0.0
C879 C 0.14563 0.99878 0.79336 0.0
C880 C 0.10709 0.91456 0.7931 0.0
C881 C 0.0612 0.91608 0.78803 0.0
C882 C 0.12794 0.93337 0.8051 0.0
C883 C 0.10223 0.95416 0.81224 0.0
C884 C 0.05603 0.95593 0.80697 0.0
C885 C 0.03608 0.93686 0.795 0.0
C886 C 0.17729 0.93082 0.81038 0.0
C887 C 0.02753 0.97791 0.81411 0.0
H888 H 0.13654 0.98947 0.8765 0.0
H889 H 0.17558 0.03139 0.82245 0.0
H890 H 0.06402 0.9473 0.85329 0.0
H891 H 0.11687 0.93122 0.85196 0.0
H892 H 0.10279 0.94935 0.87469 0.0
H893 H 0.16427 0.01617 0.78879 0.0
H894 H 0.16224 0.98221 0.78613 0.0
H895 H 0.11097 0.99984 0.78697 0.0
H896 H 0.12667 0.89847 0.78797 0.0
H897 H 0.00065 0.93832 0.79109 0.0
H898 H 0.1814 0.92949 0.8274 0.0
H899 H 0.19607 0.94784 0.80516 0.0
H900 H 0.19277 0.91386 0.80315 0.0
H901 H 0.0257 0.97807 0.83125 0.0
H902 H 0.99265 0.97706 0.80789 0.0
H903 H 0.04318 0.99604 0.80922 0.0
C904 C 0.16981 0.14974 0.03048 0.0
C905 C 0.17361 0.12691 0.01963 0.0
C906 C 0.15654 0.14997 0.05136 0.0
C907 C 0.14815 0.12675 0.06166 0.0
C908 C 0.1532 0.10364 0.05084 0.0
C909 C 0.16539 0.10403 0.0299 0.0
C910 C 0.15082 0.17499 0.06226 0.0
C911 C 0.14535 0.07846 0.06133 0.0
C912 C 0.14921 0.12054 0.12018 0.0
C913 C 0.10321 0.11731 0.12436 0.0
C914 C 0.16441 0.12476 0.09988 0.0
C915 C 0.13266 0.12629 0.08356 0.0
C916 C 0.08597 0.12466 0.08802 0.0
C917 C 0.07183 0.11982 0.10835 0.0
C918 C 0.21446 0.12606 0.09573 0.0
C919 C 0.05099 0.12693 0.07117 0.0
H920 H 0.17604 0.16743 0.02245 0.0
H921 H 0.16876 0.08638 0.02151 0.0
H922 H 0.11699 0.17604 0.06955 0.0
H923 H 0.17611 0.17673 0.07481 0.0
H924 H 0.1549 0.19132 0.05159 0.0
H925 H 0.15283 0.06223 0.05099 0.0
H926 H 0.16681 0.07694 0.07532 0.0
H927 H 0.10973 0.077 0.06644 0.0
H928 H 0.17338 0.11854 0.13264 0.0
H929 H 0.03623 0.11757 0.11172 0.0
H930 H 0.22277 0.14305 0.0864 0.0
H931 H 0.22487 0.10928 0.08661 0.0
H932 H 0.23451 0.12656 0.11023 0.0
H933 H 0.05782 0.14382 0.06146 0.0
H934 H 0.01627 0.12834 0.07752 0.0
H935 H 0.05264 0.1101 0.06096 0.0
C936 C 0.36637 0.39416 0.52861 0.0
C937 C 0.33162 0.37878 0.52078 0.0
C938 C 0.3773 0.39402 0.54974 0.0
C939 C 0.35241 0.37846 0.56343 0.0
C940 C 0.31786 0.3626 0.55563 0.0
C941 C 0.30821 0.36278 0.53441 0.0
C942 C 0.41475 0.41093 0.55748 0.0
C943 C 0.29028 0.34587 0.56977 0.0
C944 C 0.39121 0.36147 0.61765 0.0
C945 C 0.36339 0.37708 0.62956 0.0
C946 C 0.38977 0.36251 0.59593 0.0
C947 C 0.36016 0.37977 0.58612 0.0
C948 C 0.33431 0.3967 0.59822 0.0
C949 C 0.33599 0.395 0.61982 0.0
C950 C 0.4178 0.34415 0.58356 0.0
C951 C 0.30288 0.41564 0.58837 0.0
H952 H 0.3844 0.40682 0.51832 0.0
H953 H 0.28206 0.35039 0.52853 0.0
H954 H 0.40094 0.42511 0.5684 0.0
H955 H 0.43995 0.39958 0.5661 0.0
H956 H 0.43219 0.42106 0.54471 0.0
H957 H 0.26553 0.33409 0.56117 0.0
H958 H 0.31274 0.33318 0.57872 0.0
H959 H 0.27164 0.3577 0.58107 0.0
H960 H 0.41224 0.34756 0.62529 0.0
H961 H 0.31475 0.40715 0.62916 0.0
H962 H 0.43545 0.35406 0.57076 0.0
H963 H 0.39542 0.3297 0.5765 0.0
H964 H 0.44317 0.33432 0.59329 0.0
H965 H 0.32089 0.42676 0.57636 0.0
H966 H 0.28839 0.42895 0.59987 0.0
H967 H 0.27479 0.40551 0.58062 0.0
C968 C 0.70042 0.37247 0.97492 0.0
C969 C 0.66711 0.3751 0.99023 0.0
C970 C 0.68899 0.36832 0.95415 0.0
C971 C 0.64307 0.36802 0.9482 0.0
C972 C 0.60929 0.37235 0.96321 0.0
C973 C 0.62157 0.37519 0.98406 0.0
C974 C 0.72617 0.36327 0.93871 0.0
C975 C 0.56001 0.37311 0.9574 0.0
C976 C 0.62927 0.37054 0.8898 0.0
C977 C 0.62646 0.34468 0.88512 0.0
C978 C 0.63119 0.37878 0.91049 0.0
C979 C 0.63086 0.36067 0.92668 0.0
C980 C 0.62423 0.33479 0.92198 0.0
C981 C 0.62165 0.32719 0.90128 0.0
C982 C 0.63642 0.40664 0.91496 0.0
C983 C 0.62373 0.31478 0.93867 0.0
H984 H 0.73572 0.3733 0.97909 0.0
H985 H 0.59511 0.37682 0.99551 0.0
H986 H 0.72146 0.34426 0.93175 0.0
H987 H 0.72478 0.3773 0.92597 0.0
H988 H 0.7602 0.36409 0.94585 0.0
H989 H 0.53913 0.38173 0.9698 0.0
H990 H 0.55504 0.384 0.9429 0.0
H991 H 0.54756 0.35361 0.95466 0.0
H992 H 0.63273 0.38417 0.87736 0.0
H993 H 0.61843 0.30723 0.89768 0.0
H994 H 0.67188 0.41072 0.91929 0.0
H995 H 0.61482 0.41229 0.92819 0.0
H996 H 0.62767 0.41844 0.90133 0.0
H997 H 0.65776 0.31343 0.94572 0.0
H998 H 0.61424 0.29586 0.93258 0.0
H999 H 0.5998 0.31991 0.95114 0.0
C1000 C 0.81219 0.14511 0.47661 0.0
C1001 C 0.83559 0.12931 0.49033 0.0
C1002 C 0.82461 0.14688 0.45573 0.0
C1003 C 0.86204 0.13295 0.44834 0.0
C1004 C 0.88591 0.11696 0.46202 0.0
C1005 C 0.87215 0.11514 0.48278 0.0
C1006 C 0.79791 0.16401 0.4416 0.0
C1007 C 0.92643 0.10214 0.45483 0.0
C1008 C 0.86296 0.12763 0.38985 0.0
C1009 C 0.8876 0.14929 0.38451 0.0
C1010 C 0.85711 0.12081 0.41071 0.0
C1011 C 0.87658 0.13601 0.42642 0.0
C1012 C 0.90498 0.1565 0.42089 0.0
C1013 C 0.90987 0.16301 0.39997 0.0
C1014 C 0.82673 0.09877 0.41595 0.0
C1015 C 0.92699 0.17296 0.43708 0.0
H1016 H 0.78453 0.15655 0.48223 0.0
H1017 H 0.89009 0.1025 0.49307 0.0
H1018 H 0.81987 0.17945 0.43575 0.0
H1019 H 0.78566 0.15321 0.428 0.0
H1020 H 0.76843 0.17259 0.44952 0.0
H1021 H 0.93976 0.08944 0.46707 0.0
H1022 H 0.9177 0.0906 0.44108 0.0
H1023 H 0.95362 0.1154 0.4501 0.0
H1024 H 0.84535 0.11724 0.37786 0.0
H1025 H 0.92871 0.17986 0.39575 0.0
H1026 H 0.79413 0.10602 0.42191 0.0
H1027 H 0.84185 0.08693 0.42829 0.0
H1028 H 0.81987 0.08668 0.40226 0.0
H1029 H 0.90108 0.18513 0.44441 0.0
H1030 H 0.9535 0.18538 0.43035 0.0
H1031 H 0.94227 0.16122 0.44944 0.0
C1032 C 0.80748 0.88427 0.97726 0.0
C1033 C 0.83466 0.87228 0.992 0.0
C1034 C 0.81952 0.8845 0.95628 0.0
C1035 C 0.8595 0.87218 0.94981 0.0
C1036 C 0.88663 0.85958 0.96456 0.0
C1037 C 0.87405 0.85994 0.98553 0.0
C1038 C 0.78991 0.89847 0.9411 0.0
C1039 C 0.92925 0.84609 0.95825 0.0
C1040 C 0.86104 0.86097 0.89186 0.0
C1041 C 0.88291 0.88292 0.88499 0.0
C1042 C 0.85609 0.85609 0.91313 0.0
C1043 C 0.87341 0.87364 0.92769 0.0
C1044 C 0.89899 0.89463 0.9207 0.0
C1045 C 0.90325 0.89906 0.89941 0.0
C1046 C 0.82902 0.83336 0.91996 0.0
C1047 C 0.91829 0.91376 0.93561 0.0
H1048 H 0.77733 0.8941 0.98224 0.0
H1049 H 0.89497 0.8505 0.99688 0.0
H1050 H 0.80939 0.91396 0.93367 0.0
H1051 H 0.77869 0.88547 0.92866 0.0
H1052 H 0.75963 0.90674 0.94859 0.0
H1053 H 0.94463 0.83551 0.9713 0.0
H1054 H 0.92214 0.83266 0.94547 0.0
H1055 H 0.95422 0.86002 0.9524 0.0
H1056 H 0.84487 0.84868 0.88066 0.0
H1057 H 0.91986 0.91614 0.894 0.0
H1058 H 0.79536 0.83964 0.92539 0.0
H1059 H 0.84575 0.82365 0.93308 0.0
H1060 H 0.82413 0.81958 0.90718 0.0
H1061 H 0.89054 0.92546 0.94198 0.0
H1062 H 0.94305 0.92655 0.928 0.0
H1063 H 0.93501 0.90421 0.94881 0.0
C1064 C 0.692 0.61458 0.47584 0.0
C1065 C 0.66925 0.62903 0.49074 0.0
C1066 C 0.67952 0.61529 0.45495 0.0
C1067 C 0.64394 0.63131 0.44854 0.0
C1068 C 0.62128 0.64635 0.46335 0.0
C1069 C 0.63394 0.64488 0.48429 0.0
C1070 C 0.7044 0.59873 0.43973 0.0
C1071 C 0.58333 0.66372 0.45714 0.0
C1072 C 0.65149 0.64306 0.39089 0.0
C1073 C 0.62441 0.62341 0.38335 0.0
C1074 C 0.65495 0.64753 0.41227 0.0
C1075 C 0.63095 0.63184 0.42628 0.0
C1076 C 0.60024 0.6136 0.41851 0.0
C1077 C 0.59756 0.60951 0.3971 0.0
C1078 C 0.68758 0.66739 0.41989 0.0
C1079 C 0.57363 0.59662 0.43281 0.0
H1080 H 0.71997 0.60271 0.48047 0.0
H1081 H 0.61563 0.65588 0.49565 0.0
H1082 H 0.68035 0.58579 0.4319 0.0
H1083 H 0.72042 0.61059 0.42761 0.0
H1084 H 0.73095 0.58714 0.44725 0.0
H1085 H 0.5719 0.67583 0.47015 0.0
H1086 H 0.59402 0.67608 0.44414 0.0
H1087 H 0.55424 0.65234 0.45164 0.0
H1088 H 0.67252 0.65363 0.38021 0.0
H1089 H 0.57686 0.5942 0.39118 0.0
H1090 H 0.7184 0.65801 0.42585 0.0
H1091 H 0.67268 0.67835 0.43281 0.0
H1092 H 0.69764 0.68069 0.40739 0.0
H1093 H 0.59626 0.58184 0.43917 0.0
H1094 H 0.54537 0.58708 0.42464 0.0
H1095 H 0.5598 0.60744 0.44605 0.0
C1096 C 0.30433 0.62292 0.03391 0.0
C1097 C 0.33612 0.62895 0.01861 0.0
C1098 C 0.31481 0.62525 0.05495 0.0
C1099 C 0.35826 0.6337 0.06089 0.0
C1100 C 0.39099 0.6391 0.04558 0.0
C1101 C 0.37949 0.63673 0.0246 0.0
C1102 C 0.27902 0.61915 0.07084 0.0
C1103 C 0.43778 0.64787 0.05136 0.0
C1104 C 0.35839 0.66461 0.11361 0.0
C1105 C 0.37171 0.6445 0.12625 0.0
C1106 C 0.35678 0.66183 0.09207 0.0
C1107 C 0.36811 0.63824 0.08311 0.0
C1108 C 0.38414 0.61834 0.09582 0.0
C1109 C 0.38576 0.62175 0.11735 0.0
C1110 C 0.3401 0.68361 0.07904 0.0
C1111 C 0.39641 0.59289 0.08693 0.0
H1112 H 0.27109 0.61637 0.02943 0.0
H1113 H 0.40419 0.64159 0.01288 0.0
H1114 H 0.29178 0.60484 0.08193 0.0
H1115 H 0.27073 0.63641 0.07983 0.0
H1116 H 0.24754 0.61183 0.06369 0.0
H1117 H 0.4599 0.65032 0.03762 0.0
H1118 H 0.43582 0.66617 0.0597 0.0
H1119 H 0.45364 0.63403 0.062 0.0
H1120 H 0.34729 0.68212 0.12067 0.0
H1121 H 0.39552 0.60617 0.1273 0.0
H1122 H 0.30646 0.67887 0.0726 0.0
H1123 H 0.36316 0.68697 0.0658 0.0
H1124 H 0.33717 0.70138 0.08809 0.0
H1125 H 0.36508 0.58231 0.08323 0.0
H1126 H 0.41645 0.58142 0.098 0.0
H1127 H 0.41586 0.59502 0.07238 0.0
C1128 C 0.20006 0.88251 0.53525 0.0
C1129 C 0.16874 0.87577 0.52 0.0
C1130 C 0.18973 0.87993 0.55631 0.0
C1131 C 0.14686 0.87056 0.56231 0.0
C1132 C 0.11456 0.86444 0.54699 0.0
C1133 C 0.12599 0.86698 0.52599 0.0
C1134 C 0.22524 0.88656 0.57215 0.0
C1135 C 0.06823 0.85491 0.55278 0.0
C1136 C 0.14948 0.83929 0.61496 0.0
C1137 C 0.13542 0.85905 0.62781 0.0
C1138 C 0.1503 0.84222 0.59341 0.0
C1139 C 0.13747 0.86566 0.58458 0.0
C1140 C 0.12061 0.88515 0.59748 0.0
C1141 C 0.11972 0.88157 0.61903 0.0
C1142 C 0.16772 0.82081 0.58021 0.0
C1143 C 0.10661 0.91041 0.58873 0.0
H1144 H 0.23324 0.88912 0.53068 0.0
H1145 H 0.10146 0.86212 0.51421 0.0
H1146 H 0.21172 0.90053 0.58332 0.0
H1147 H 0.23459 0.86939 0.58104 0.0
H1148 H 0.25622 0.89452 0.56497 0.0
H1149 H 0.04658 0.85163 0.53902 0.0
H1150 H 0.0711 0.83693 0.56153 0.0
H1151 H 0.05131 0.86876 0.56305 0.0
H1152 H 0.16161 0.8219 0.62188 0.0
H1153 H 0.10919 0.89688 0.62907 0.0
H1154 H 0.20086 0.82615 0.57351 0.0
H1155 H 0.1444 0.8171 0.56715 0.0
H1156 H 0.17192 0.80305 0.5892 0.0
H1157 H 0.13719 0.92165 0.58498 0.0
H1158 H 0.08597 0.92136 0.5999 0.0
H1159 H 0.08715 0.908 0.57421 0.0
C1160 C 0.16499 0.2625 0.35987 0.0
C1161 C 0.14559 0.28671 0.36113 0.0
C1162 C 0.14538 0.24332 0.34784 0.0
C1163 C 0.10634 0.24863 0.33608 0.0
C1164 C 0.08611 0.27278 0.33744 0.0
C1165 C 0.10539 0.29131 0.35025 0.0
C1166 C 0.16738 0.21759 0.34717 0.0
C1167 C 0.04508 0.2794 0.32472 0.0
C1168 C 0.09172 0.21036 0.28699 0.0
C1169 C 0.05667 0.19389 0.29226 0.0
C1170 C 0.10773 0.22846 0.30099 0.0
C1171 C 0.08892 0.22964 0.32109 0.0
C1172 C 0.05371 0.21279 0.32667 0.0
C1173 C 0.03752 0.19533 0.31204 0.0
C1174 C 0.14431 0.24657 0.29414 0.0
C1175 C 0.03375 0.21287 0.34815 0.0
H1176 H 0.19636 0.25858 0.36779 0.0
H1177 H 0.08913 0.30956 0.35144 0.0
H1178 H 0.14179 0.20248 0.34942 0.0
H1179 H 0.18304 0.21457 0.33179 0.0
H1180 H 0.19391 0.21549 0.35917 0.0
H1181 H 0.03299 0.29892 0.32776 0.0
H1182 H 0.0532 0.2777 0.30802 0.0
H1183 H 0.01723 0.26596 0.32803 0.0
H1184 H 0.1057 0.20968 0.2717 0.0
H1185 H 0.0104 0.18248 0.31617 0.0
H1186 H 0.17467 0.24419 0.30393 0.0
H1187 H 0.13266 0.26637 0.29605 0.0
H1188 H 0.15418 0.2437 0.27775 0.0
H1189 H 0.06033 0.20816 0.35958 0.0
H1190 H 0.00566 0.19906 0.34981 0.0
H1191 H 0.02102 0.23198 0.35206 0.0
C1192 C 0.35882 0.24125 0.86304 0.0
C1193 C 0.34499 0.21817 0.8544 0.0
C1194 C 0.37859 0.26018 0.85073 0.0
C1195 C 0.38447 0.25595 0.82927 0.0
C1196 C 0.37042 0.23274 0.82046 0.0
C1197 C 0.35088 0.21415 0.83312 0.0
C1198 C 0.39345 0.28464 0.86069 0.0
C1199 C 0.3761 0.22754 0.79764 0.0
C1200 C 0.40059 0.31276 0.79391 0.0
C1201 C 0.44729 0.3124 0.79052 0.0
C1202 C 0.3796 0.29442 0.80637 0.0
C1203 C 0.40609 0.2756 0.81608 0.0
C1204 C 0.45335 0.27543 0.81309 0.0
C1205 C 0.47332 0.29373 0.8003 0.0
C1206 C 0.32903 0.29507 0.80901 0.0
C1207 C 0.48288 0.25588 0.82339 0.0
H1208 H 0.35476 0.24438 0.8795 0.0
H1209 H 0.33965 0.19651 0.82629 0.0
H1210 H 0.43008 0.28761 0.85813 0.0
H1211 H 0.37566 0.30081 0.85343 0.0
H1212 H 0.38673 0.28493 0.87759 0.0
H1213 H 0.36284 0.20865 0.79316 0.0
H1214 H 0.35837 0.2422 0.78846 0.0
H1215 H 0.41232 0.22852 0.79341 0.0
H1216 H 0.3803 0.32741 0.78692 0.0
H1217 H 0.50951 0.29333 0.798 0.0
H1218 H 0.32022 0.29603 0.82566 0.0
H1219 H 0.31401 0.27741 0.80278 0.0
H1220 H 0.31346 0.31144 0.80096 0.0
H1221 H 0.47914 0.2571 0.84043 0.0
H1222 H 0.51908 0.25833 0.81943 0.0
H1223 H 0.47215 0.2366 0.81871 0.0
C1224 C 0.62229 0.2309 0.64911 0.0
C1225 C 0.65801 0.21595 0.65611 0.0
C1226 C 0.60264 0.24914 0.66208 0.0
C1227 C 0.62014 0.25289 0.68225 0.0
C1228 C 0.65677 0.238 0.6892 0.0
C1229 C 0.67487 0.21944 0.67612 0.0
C1230 C 0.56291 0.26418 0.6543 0.0
C1231 C 0.6771 0.24183 0.71038 0.0
C1232 C 0.59426 0.31619 0.7074 0.0
C1233 C 0.56123 0.30932 0.72178 0.0
C1234 C 0.61484 0.29786 0.69489 0.0
C1235 C 0.60011 0.27236 0.69608 0.0
C1236 C 0.56615 0.2655 0.71048 0.0
C1237 C 0.54807 0.28401 0.72363 0.0
C1238 C 0.65247 0.30574 0.68052 0.0
C1239 C 0.54817 0.2388 0.71167 0.0
H1240 H 0.60928 0.22799 0.63363 0.0
H1241 H 0.70266 0.20782 0.6814 0.0
H1242 H 0.53423 0.26241 0.66525 0.0
H1243 H 0.57196 0.28452 0.65343 0.0
H1244 H 0.55161 0.25788 0.63875 0.0
H1245 H 0.7068 0.22949 0.71305 0.0
H1246 H 0.68762 0.26186 0.7123 0.0
H1247 H 0.6516 0.23773 0.72248 0.0
H1248 H 0.60464 0.33584 0.70628 0.0
H1249 H 0.52251 0.27887 0.73488 0.0
H1250 H 0.64179 0.30314 0.66423 0.0
H1251 H 0.68247 0.29361 0.68305 0.0
H1252 H 0.66247 0.32582 0.68276 0.0
H1253 H 0.53463 0.23307 0.69637 0.0
H1254 H 0.52098 0.23675 0.72339 0.0
H1255 H 0.57573 0.22549 0.71557 0.0
C1256 C 0.8334 0.26368 0.15552 0.0
C1257 C 0.85204 0.28809 0.15383 0.0
C1258 C 0.85355 0.24506 0.16794 0.0
C1259 C 0.8925 0.25114 0.17955 0.0
C1260 C 0.91177 0.27555 0.17788 0.0
C1261 C 0.89186 0.29353 0.16479 0.0
C1262 C 0.83257 0.21902 0.16898 0.0
C1263 C 0.95326 0.28277 0.19009 0.0
C1264 C 0.91985 0.21308 0.22785 0.0
C1265 C 0.95194 0.19588 0.22041 0.0
C1266 C 0.89926 0.23064 0.21458 0.0
C1267 C 0.91291 0.23204 0.19362 0.0
C1268 C 0.94654 0.21547 0.18619 0.0
C1269 C 0.96501 0.19734 0.19953 0.0
C1270 C 0.86286 0.24771 0.22299 0.0
C1271 C 0.96297 0.21678 0.1641 0.0
H1272 H 0.80235 0.25913 0.14754 0.0
H1273 H 0.90767 0.31192 0.16326 0.0
H1274 H 0.85819 0.20437 0.16551 0.0
H1275 H 0.81995 0.21537 0.18486 0.0
H1276 H 0.80411 0.2168 0.15796 0.0
H1277 H 0.96412 0.30257 0.18708 0.0
H1278 H 0.94649 0.28066 0.20688 0.0
H1279 H 0.9815 0.2699 0.18621 0.0
H1280 H 0.91065 0.21288 0.24405 0.0
H1281 H 0.99014 0.18444 0.19354 0.0
H1282 H 0.83186 0.2459 0.2135 0.0
H1283 H 0.87401 0.26773 0.22204 0.0
H1284 H 0.85427 0.24326 0.23932 0.0
H1285 H 0.93494 0.2121 0.15341 0.0
H1286 H 0.99131 0.20357 0.1611 0.0
H1287 H 0.97433 0.23627 0.16036 0.0
C1288 C 0.88159 0.73086 0.65013 0.0
C1289 C 0.83904 0.72093 0.65536 0.0
C1290 C 0.90193 0.74988 0.66213 0.0
C1291 C 0.88017 0.75846 0.68029 0.0
C1292 C 0.8374 0.74864 0.6857 0.0
C1293 C 0.8169 0.73058 0.67291 0.0
C1294 C 0.94699 0.76052 0.65551 0.0
C1295 C 0.81365 0.75679 0.70529 0.0
C1296 C 0.95279 0.78698 0.72262 0.0
C1297 C 0.94173 0.81261 0.72106 0.0
C1298 C 0.93276 0.76909 0.70951 0.0
C1299 C 0.90239 0.77728 0.694 0.0
C1300 C 0.89194 0.80333 0.69214 0.0
C1301 C 0.91106 0.82066 0.70603 0.0
C1302 C 0.94337 0.7414 0.71253 0.0
C1303 C 0.86109 0.81291 0.67532 0.0
H1304 H 0.89962 0.72352 0.63688 0.0
H1305 H 0.78343 0.72394 0.67687 0.0
H1306 H 0.94635 0.78151 0.6559 0.0
H1307 H 0.97355 0.75423 0.6664 0.0
H1308 H 0.95654 0.75435 0.63969 0.0
H1309 H 0.78145 0.74644 0.70778 0.0
H1310 H 0.83581 0.75352 0.71885 0.0
H1311 H 0.80633 0.77734 0.70473 0.0
H1312 H 0.97624 0.78087 0.73447 0.0
H1313 H 0.90293 0.8406 0.70485 0.0
H1314 H 0.95936 0.73365 0.6984 0.0
H1315 H 0.91173 0.73061 0.71517 0.0
H1316 H 0.96633 0.73814 0.72583 0.0
H1317 H 0.87424 0.80709 0.65998 0.0
H1318 H 0.85776 0.83384 0.67556 0.0
H1319 H 0.82707 0.80442 0.67704 0.0
C1320 C 0.68839 0.77278 0.17249 0.0
C1321 C 0.66343 0.78551 0.15723 0.0
C1322 C 0.66848 0.75429 0.18513 0.0
C1323 C 0.62278 0.74763 0.18205 0.0
C1324 C 0.59764 0.7597 0.16628 0.0
C1325 C 0.61807 0.7787 0.15423 0.0
C1326 C 0.69619 0.74221 0.20206 0.0
C1327 C 0.549 0.75276 0.16229 0.0
C1328 C 0.5858 0.68429 0.20436 0.0
C1329 C 0.56188 0.69195 0.22189 0.0
C1330 C 0.60473 0.70227 0.19089 0.0
C1331 C 0.6012 0.72836 0.19566 0.0
C1332 C 0.57796 0.73603 0.21375 0.0
C1333 C 0.55769 0.71769 0.22643 0.0
C1334 C 0.62788 0.69338 0.17142 0.0
C1335 C 0.57502 0.76353 0.21986 0.0
H1336 H 0.72372 0.77728 0.17465 0.0
H1337 H 0.59814 0.78852 0.14273 0.0
H1338 H 0.67962 0.74515 0.21726 0.0
H1339 H 0.69835 0.72149 0.19956 0.0
H1340 H 0.73095 0.75003 0.20282 0.0
H1341 H 0.53526 0.7624 0.14838 0.0
H1342 H 0.54565 0.73201 0.16018 0.0
H1343 H 0.52807 0.75804 0.17582 0.0
H1344 H 0.58853 0.66428 0.2009 0.0
H1345 H 0.53932 0.72342 0.24015 0.0
H1346 H 0.66371 0.69943 0.17147 0.0
H1347 H 0.61173 0.70218 0.15772 0.0
H1348 H 0.62653 0.67248 0.16969 0.0
H1349 H 0.60941 0.77167 0.22128 0.0
H1350 H 0.55704 0.76621 0.23478 0.0
H1351 H 0.55719 0.77442 0.20771 0.0
C1352 C 0.3099 0.76507 0.34527 0.0
C1353 C 0.33511 0.78357 0.35571 0.0
C1354 C 0.33099 0.74696 0.33279 0.0
C1355 C 0.37847 0.74726 0.33077 0.0
C1356 C 0.40427 0.76558 0.3415 0.0
C1357 C 0.38225 0.78356 0.35385 0.0
C1358 C 0.30243 0.72762 0.3216 0.0
C1359 C 0.45502 0.76645 0.33965 0.0
C1360 C 0.43478 0.68714 0.31212 0.0
C1361 C 0.44147 0.69251 0.29112 0.0
C1362 C 0.41467 0.70489 0.32527 0.0
C1363 C 0.40098 0.72853 0.31718 0.0
C1364 C 0.40796 0.7341 0.29599 0.0
C1365 C 0.42832 0.71603 0.28322 0.0
C1366 C 0.408 0.69833 0.3478 0.0
C1367 C 0.39386 0.75913 0.28682 0.0
H1368 H 0.27352 0.76475 0.34689 0.0
H1369 H 0.40188 0.79798 0.36167 0.0
H1370 H 0.3078 0.72925 0.30466 0.0
H1371 H 0.31267 0.70825 0.3262 0.0
H1372 H 0.26589 0.72992 0.32487 0.0
H1373 H 0.47026 0.78134 0.34956 0.0
H1374 H 0.46961 0.7479 0.34402 0.0
H1375 H 0.46476 0.77014 0.32335 0.0
H1376 H 0.4451 0.66895 0.31826 0.0
H1377 H 0.43444 0.72043 0.26708 0.0
H1378 H 0.37164 0.69916 0.35178 0.0
H1379 H 0.42563 0.71237 0.35767 0.0
H1380 H 0.42082 0.67916 0.35166 0.0
H1381 H 0.35694 0.76164 0.28864 0.0
H1382 H 0.40239 0.76063 0.27013 0.0
H1383 H 0.41056 0.77489 0.29518 0.0
C1384 C 0.11613 0.71886 0.85304 0.0
C1385 C 0.1626 0.72026 0.85687 0.0
C1386 C 0.09448 0.73721 0.84087 0.0
C1387 C 0.11989 0.75751 0.8325 0.0
C1388 C 0.16659 0.75934 0.83677 0.0
C1389 C 0.18739 0.74066 0.84885 0.0
C1390 C 0.04468 0.73452 0.83653 0.0
C1391 C 0.19477 0.78079 0.82825 0.0
C1392 C 0.0761 0.79 0.78414 0.0
C1393 C 0.05807 0.81245 0.79218 0.0
C1394 C 0.09659 0.77208 0.79707 0.0
C1395 C 0.09808 0.77637 0.81867 0.0
C1396 C 0.07919 0.79875 0.82695 0.0
C1397 C 0.05964 0.81658 0.8136 0.0
C1398 C 0.11663 0.74853 0.78761 0.0
C1399 C 0.07951 0.80381 0.84992 0.0
H1400 H 0.09695 0.70299 0.85906 0.0
H1401 H 0.22322 0.74195 0.85199 0.0
H1402 H 0.02672 0.75214 0.84082 0.0
H1403 H 0.03928 0.73152 0.81973 0.0
H1404 H 0.02929 0.71842 0.84508 0.0
H1405 H 0.23035 0.77991 0.83355 0.0
H1406 H 0.19434 0.78027 0.81109 0.0
H1407 H 0.18031 0.79922 0.83303 0.0
H1408 H 0.0738 0.78621 0.76772 0.0
H1409 H 0.04547 0.83378 0.81997 0.0
H1410 H 0.09961 0.73149 0.79396 0.0
H1411 H 0.15287 0.74713 0.79169 0.0
H1412 H 0.11348 0.74828 0.7705 0.0
H1413 H 0.06079 0.78862 0.85812 0.0
H1414 H 0.06398 0.8223 0.85387 0.0
H1415 H 0.11462 0.80361 0.85582 0.0
loop_
_geom_bond_atom_site_label_1
_geom_bond_atom_site_label_2
_geom_bond_distance
_geom_bond_site_symmetry_2
_ccdc_geom_bond_type
C0 C1 1.386 . S
C0 C2 1.397 . S
C0 H24 0.931 . S
C1 C0 1.386 . S
C1 C5 1.397 . S
C2 C0 1.397 . S
C2 C3 1.384 . S
C2 H25 0.930 . S
C3 C2 1.384 . S
C3 C4 1.377 . S
C3 C6 1.481 . S
C4 C3 1.377 . S
C4 C5 1.389 . S
C4 H26 0.929 . S
C5 C1 1.397 . S
C5 C4 1.389 . S
C5 H27 0.931 . S
C6 C3 1.481 . S
C6 C7 1.387 . S
C6 C11 1.390 . S
C7 C6 1.387 . S
C7 C8 1.401 . S
C7 H28 0.930 . S
C8 C7 1.401 . S
C8 C9 1.376 . S
C8 C17 1.511 . S
C9 C8 1.376 . S
C9 C10 1.392 . S
C9 H30 0.931 . S
C10 C9 1.392 . S
C10 C11 1.361 . S
C10 C12 1.500 . S
C11 C6 1.390 . S
C11 C10 1.361 . S
C11 H29 0.931 . S
C12 C10 1.500 . S
C12 C13 1.371 . S
C12 C14 1.365 . S
C13 C12 1.371 . S
C13 C23 1.386 . S
C13 H31 0.931 . S
C14 C12 1.365 . S
C14 C15 1.409 . S
C14 H32 0.929 . S
C15 C14 1.409 . S
C15 C16 1.380 . S
C15 H33 0.930 . S
C16 C15 1.380 . S
C16 C23 1.357 . S
C17 C8 1.511 . S
C17 C18 1.341 . S
C17 C19 1.371 . S
C18 C17 1.341 . S
C18 C22 1.394 . S
C18 H34 0.930 . S
C19 C17 1.371 . S
C19 C20 1.392 . S
C19 H35 0.931 . S
C20 C19 1.392 . S
C20 C21 1.331 . S
C20 H38 0.932 . S
C21 C20 1.331 . S
C21 C22 1.336 . S
C22 C18 1.394 . S
C22 C21 1.336 . S
C22 H37 0.929 . S
C23 C13 1.386 . S
C23 C16 1.357 . S
C23 H36 0.928 . S
H24 C0 0.931 . S
H25 C2 0.930 . S
H26 C4 0.929 . S
H27 C5 0.931 . S
H28 C7 0.930 . S
H29 C11 0.931 . S
H30 C9 0.931 . S
H31 C13 0.931 . S
H32 C14 0.929 . S
H33 C15 0.930 . S
H34 C18 0.930 . S
H35 C19 0.931 . S
H36 C23 0.928 . S
H37 C22 0.929 . S
H38 C20 0.932 . S
C39 C40 1.386 . S
C39 C41 1.397 . S
C39 H63 0.931 . S
C40 C39 1.386 . S
C40 C44 1.397 . S
C41 C39 1.397 . S
C41 C42 1.384 . S
C41 H64 0.930 . S
C42 C41 1.384 . S
C42 C43 1.377 . S
C42 C45 1.481 . S
C43 C42 1.377 . S
C43 C44 1.389 . S
C43 H65 0.929 . S
C44 C40 1.397 . S
C44 C43 1.389 . S
C44 H66 0.931 . S
C45 C42 1.481 . S
C45 C46 1.387 . S
C45 C50 1.390 . S
C46 C45 1.387 . S
C46 C47 1.401 . S
C46 H67 0.930 . S
C47 C46 1.401 . S
C47 C48 1.376 . S
C47 C56 1.511 . S
C48 C47 1.376 . S
C48 C49 1.392 . S
C48 H69 0.931 . S
C49 C48 1.392 . S
C49 C50 1.361 . S
C49 C51 1.500 . S
C50 C45 1.390 . S
C50 C49 1.361 . S
C50 H68 0.931 . S
C51 C49 1.500 . S
C51 C52 1.371 . S
C51 C53 1.365 . S
C52 C51 1.371 . S
C52 C62 1.386 . S
C52 H70 0.931 . S
C53 C51 1.365 . S
C53 C54 1.409 . S
C53 H71 0.929 . S
C54 C53 1.409 . S
C54 C55 1.380 . S
C54 H72 0.930 . S
C55 C54 1.380 . S
C55 C62 1.357 . S
C56 C47 1.511 . S
C56 C57 1.341 . S
C56 C58 1.371 . S
C57 C56 1.341 . S
C57 C61 1.394 . S
C57 H73 0.930 . S
C58 C56 1.371 . S
C58 C59 1.392 . S
C58 H74 0.931 . S
C59 C58 1.392 . S
C59 C60 1.331 . S
C59 H77 0.932 . S
C60 C59 1.331 . S
C60 C61 1.336 . S
C61 C57 1.394 . S
C61 C60 1.336 . S
C61 H76 0.929 . S
C62 C52 1.386 . S
C62 C55 1.357 . S
C62 H75 0.928 . S
H63 C39 0.931 . S
H64 C41 0.930 . S
H65 C43 0.929 . S
H66 C44 0.931 . S
H67 C46 0.930 . S
H68 C50 0.931 . S
H69 C48 0.931 . S
H70 C52 0.931 . S
H71 C53 0.929 . S
H72 C54 0.930 . S
H73 C57 0.930 . S
H74 C58 0.931 . S
H75 C62 0.928 . S
H76 C61 0.929 . S
H77 C59 0.932 . S
C78 C79 1.386 . S
C78 C80 1.397 . S
C78 H102 0.931 . S
C79 C78 1.386 . S
C79 C83 1.397 . S
C80 C78 1.397 . S
C80 C81 1.384 . S
C80 H103 0.930 . S
C81 C80 1.384 . S
C81 C82 1.377 . S
C81 C84 1.481 . S
C82 C81 1.377 . S
C82 C83 1.389 . S
C82 H104 0.929 . S
C83 C79 1.397 . S
C83 C82 1.389 . S
C83 H105 0.931 . S
C84 C81 1.481 . S
C84 C85 1.387 . S
C84 C89 1.390 . S
C85 C84 1.387 . S
C85 C86 1.401 . S
C85 H106 0.930 . S
C86 C85 1.401 . S
C86 C87 1.376 . S
C86 C95 1.511 . S
C87 C86 1.376 . S
C87 C88 1.392 . S
C87 H108 0.931 . S
C88 C87 1.392 . S
C88 C89 1.361 . S
C88 C90 1.500 . S
C89 C84 1.390 . S
C89 C88 1.361 . S
C89 H107 0.931 . S
C90 C88 1.500 . S
C90 C91 1.371 . S
C90 C92 1.365 . S
C91 C90 1.371 . S
C91 C101 1.386 . S
C91 H109 0.931 . S
C92 C90 1.365 . S
C92 C93 1.409 . S
C92 H110 0.929 . S
C93 C92 1.409 . S
C93 C94 1.380 . S
C93 H111 0.930 . S
C94 C93 1.380 . S
C94 C101 1.357 . S
C95 C86 1.511 . S
C95 C96 1.341 . S
C95 C97 1.371 . S
C96 C95 1.341 . S
C96 C100 1.394 . S
C96 H112 0.930 . S
C97 C95 1.371 . S
C97 C98 1.392 . S
C97 H113 0.931 . S
C98 C97 1.392 . S
C98 C99 1.331 . S
C98 H116 0.932 . S
C99 C98 1.331 . S
C99 C100 1.336 . S
C100 C96 1.394 . S
C100 C99 1.336 . S
C100 H115 0.929 . S
C101 C91 1.386 . S
C101 C94 1.357 . S
C101 H114 0.928 . S
H102 C78 0.931 . S
H103 C80 0.930 . S
H104 C82 0.929 . S
H105 C83 0.931 . S
H106 C85 0.930 . S
H107 C89 0.931 . S
H108 C87 0.931 . S
H109 C91 0.931 . S
H110 C92 0.929 . S
H111 C93 0.930 . S
H112 C96 0.930 . S
H113 C97 0.931 . S
H114 C101 0.928 . S
H115 C100 0.929 . S
H116 C98 0.932 . S
C117 C118 1.386 . S
C117 C119 1.397 . S
C117 H141 0.931 . S
C118 C117 1.386 . S
C118 C122 1.397 . S
C119 C117 1.397 . S
C119 C120 1.384 . S
C119 H142 0.930 . S
C120 C119 1.384 . S
C120 C121 1.377 . S
C120 C123 1.481 . S
C121 C120 1.377 . S
C121 C122 1.389 . S
C121 H143 0.929 . S
C122 C118 1.397 . S
C122 C121 1.389 . S
C122 H144 0.931 . S
C123 C120 1.481 . S
C123 C124 1.387 . S
C123 C128 1.390 . S
C124 C123 1.387 . S
C124 C125 1.401 . S
C124 H145 0.930 . S
C125 C124 1.401 . S
C125 C126 1.376 . S
C125 C134 1.511 . S
C126 C125 1.376 . S
C126 C127 1.392 . S
C126 H147 0.931 . S
C127 C126 1.392 . S
C127 C128 1.361 . S
C127 C129 1.500 . S
C128 C123 1.390 . S
C128 C127 1.361 . S
C128 H146 0.931 . S
C129 C127 1.500 . S
C129 C130 1.371 . S
C129 C131 1.365 . S
C130 C129 1.371 . S
C130 C140 1.386 . S
C130 H148 0.931 . S
C131 C129 1.365 . S
C131 C132 1.409 . S
C131 H149 0.929 . S
C132 C131 1.409 . S
C132 C133 1.380 . S
C132 H150 0.930 . S
C133 C132 1.380 . S
C133 C140 1.357 . S
C134 C125 1.511 . S
C134 C135 1.341 . S
C134 C136 1.371 . S
C135 C134 1.341 . S
C135 C139 1.394 . S
C135 H151 0.930 . S
C136 C134 1.371 . S
C136 C137 1.392 . S
C136 H152 0.931 . S
C137 C136 1.392 . S
C137 C138 1.331 . S
C137 H155 0.932 . S
C138 C137 1.331 . S
C138 C139 1.336 . S
C139 C135 1.394 . S
C139 C138 1.336 . S
C139 H154 0.929 . S
C140 C130 1.386 . S
C140 C133 1.357 . S
C140 H153 0.928 . S
H141 C117 0.931 . S
H142 C119 0.930 . S
H143 C121 0.929 . S
H144 C122 0.931 . S
H145 C124 0.930 . S
H146 C128 0.931 . S
H147 C126 0.931 . S
H148 C130 0.931 . S
H149 C131 0.929 . S
H150 C132 0.930 . S
H151 C135 0.930 . S
H152 C136 0.931 . S
H153 C140 0.928 . S
H154 C139 0.929 . S
H155 C137 0.932 . S
C156 C157 1.386 . S
C156 C158 1.397 . S
C156 H180 0.931 . S
C157 C156 1.386 . S
C157 C161 1.397 . S
C158 C156 1.397 . S
C158 C159 1.384 . S
C158 H181 0.930 . S
C159 C158 1.384 . S
C159 C160 1.377 . S
C159 C162 1.481 . S
C160 C159 1.377 . S
C160 C161 1.389 . S
C160 H182 0.929 . S
C161 C157 1.397 . S
C161 C160 1.389 . S
C161 H183 0.931 . S
C162 C159 1.481 . S
C162 C163 1.387 . S
C162 C167 1.390 . S
C163 C162 1.387 . S
C163 C164 1.401 . S
C163 H184 0.930 . S
C164 C163 1.401 . S
C164 C165 1.376 . S
C164 C173 1.511 . S
C165 C164 1.376 . S
C165 C166 1.392 . S
C165 H186 0.931 . S
C166 C165 1.392 . S
C166 C167 1.361 . S
C166 C168 1.500 . S
C167 C162 1.390 . S
C167 C166 1.361 . S
C167 H185 0.931 . S
C168 C166 1.500 . S
C168 C169 1.371 . S
C168 C170 1.365 . S
C169 C168 1.371 . S
C169 C179 1.386 . S
C169 H187 0.931 . S
C170 C168 1.365 . S
C170 C171 1.409 . S
C170 H188 0.929 . S
C171 C170 1.409 . S
C171 C172 1.380 . S
C171 H189 0.930 . S
C172 C171 1.380 . S
C172 C179 1.357 . S
C173 C164 1.511 . S
C173 C174 1.341 . S
C173 C175 1.371 . S
C174 C173 1.341 . S
C174 C178 1.394 . S
C174 H190 0.930 . S
C175 C173 1.371 . S
C175 C176 1.392 . S
C175 H191 0.931 . S
C176 C175 1.392 . S
C176 C177 1.331 . S
C176 H194 0.932 . S
C177 C176 1.331 . S
C177 C178 1.336 . S
C178 C174 1.394 . S
C178 C177 1.336 . S
C178 H193 0.929 . S
C179 C169 1.386 . S
C179 C172 1.357 . S
C179 H192 0.928 . S
H180 C156 0.931 . S
H181 C158 0.930 . S
H182 C160 0.929 . S
H183 C161 0.931 . S
H184 C163 0.930 . S
H185 C167 0.931 . S
H186 C165 0.931 . S
H187 C169 0.931 . S
H188 C170 0.929 . S
H189 C171 0.930 . S
H190 C174 0.930 . S
H191 C175 0.931 . S
H192 C179 0.928 . S
H193 C178 0.929 . S
H194 C176 0.932 . S
C195 C196 1.386 . S
C195 C197 1.397 . S
C195 H219 0.931 . S
C196 C195 1.386 . S
C196 C200 1.397 . S
C197 C195 1.397 . S
C197 C198 1.384 . S
C197 H220 0.930 . S
C198 C197 1.384 . S
C198 C199 1.377 . S
C198 C201 1.481 . S
C199 C198 1.377 . S
C199 C200 1.389 . S
C199 H221 0.929 . S
C200 C196 1.397 . S
C200 C199 1.389 . S
C200 H222 0.931 . S
C201 C198 1.481 . S
C201 C202 1.387 . S
C201 C206 1.390 . S
C202 C201 1.387 . S
C202 C203 1.401 . S
C202 H223 0.930 . S
C203 C202 1.401 . S
C203 C204 1.376 . S
C203 C212 1.511 . S
C204 C203 1.376 . S
C204 C205 1.392 . S
C204 H225 0.931 . S
C205 C204 1.392 . S
C205 C206 1.361 . S
C205 C207 1.500 . S
C206 C201 1.390 . S
C206 C205 1.361 . S
C206 H224 0.931 . S
C207 C205 1.500 . S
C207 C208 1.371 . S
C207 C209 1.365 . S
C208 C207 1.371 . S
C208 C218 1.386 . S
C208 H226 0.931 . S
C209 C207 1.365 . S
C209 C210 1.409 . S
C209 H227 0.929 . S
C210 C209 1.409 . S
C210 C211 1.380 . S
C210 H228 0.930 . S
C211 C210 1.380 . S
C211 C218 1.357 . S
C212 C203 1.511 . S
C212 C213 1.341 . S
C212 C214 1.371 . S
C213 C212 1.341 . S
C213 C217 1.394 . S
C213 H229 0.930 . S
C214 C212 1.371 . S
C214 C215 1.392 . S
C214 H230 0.931 . S
C215 C214 1.392 . S
C215 C216 1.331 . S
C215 H233 0.932 . S
C216 C215 1.331 . S
C216 C217 1.336 . S
C217 C213 1.394 . S
C217 C216 1.336 . S
C217 H232 0.929 . S
C218 C208 1.386 . S
C218 C211 1.357 . S
C218 H231 0.928 . S
H219 C195 0.931 . S
H220 C197 0.930 . S
H221 C199 0.929 . S
H222 C200 0.931 . S
H223 C202 0.930 . S
H224 C206 0.931 . S
H225 C204 0.931 . S
H226 C208 0.931 . S
H227 C209 0.929 . S
H228 C210 0.930 . S
H229 C213 0.930 . S
H230 C214 0.931 . S
H231 C218 0.928 . S
H232 C217 0.929 . S
H233 C215 0.932 . S
C234 C235 1.386 . S
C234 C236 1.397 . S
C234 H258 0.931 . S
C235 C234 1.386 . S
C235 C239 1.397 . S
C236 C234 1.397 . S
C236 C237 1.384 . S
C236 H259 0.930 . S
C237 C236 1.384 . S
C237 C238 1.377 . S
C237 C240 1.481 . S
C238 C237 1.377 . S
C238 C239 1.389 . S
C238 H260 0.929 . S
C239 C235 1.397 . S
C239 C238 1.389 . S
C239 H261 0.931 . S
C240 C237 1.481 . S
C240 C241 1.387 . S
C240 C245 1.390 . S
C241 C240 1.387 . S
C241 C242 1.401 . S
C241 H262 0.930 . S
C242 C241 1.401 . S
C242 C243 1.376 . S
C242 C251 1.511 . S
C243 C242 1.376 . S
C243 C244 1.392 . S
C243 H264 0.931 . S
C244 C243 1.392 . S
C244 C245 1.361 . S
C244 C246 1.500 . S
C245 C240 1.390 . S
C245 C244 1.361 . S
C245 H263 0.931 . S
C246 C244 1.500 . S
C246 C247 1.371 . S
C246 C248 1.365 . S
C247 C246 1.371 . S
C247 C257 1.386 . S
C247 H265 0.931 . S
C248 C246 1.365 . S
C248 C249 1.409 . S
C248 H266 0.929 . S
C249 C248 1.409 . S
C249 C250 1.380 . S
C249 H267 0.930 . S
C250 C249 1.380 . S
C250 C257 1.357 . S
C251 C242 1.511 . S
C251 C252 1.341 . S
C251 C253 1.371 . S
C252 C251 1.341 . S
C252 C256 1.394 . S
C252 H268 0.930 . S
C253 C251 1.371 . S
C253 C254 1.392 . S
C253 H269 0.931 . S
C254 C253 1.392 . S
C254 C255 1.331 . S
C254 H272 0.932 . S
C255 C254 1.331 . S
C255 C256 1.336 . S
C256 C252 1.394 . S
C256 C255 1.336 . S
C256 H271 0.929 . S
C257 C247 1.386 . S
C257 C250 1.357 . S
C257 H270 0.928 . S
H258 C234 0.931 . S
H259 C236 0.930 . S
H260 C238 0.929 . S
H261 C239 0.931 . S
H262 C241 0.930 . S
H263 C245 0.931 . S
H264 C243 0.931 . S
H265 C247 0.931 . S
H266 C248 0.929 . S
H267 C249 0.930 . S
H268 C252 0.930 . S
H269 C253 0.931 . S
H270 C257 0.928 . S
H271 C256 0.929 . S
H272 C254 0.932 . S
C273 C274 1.386 . S
C273 C275 1.397 . S
C273 H297 0.931 . S
C274 C273 1.386 . S
C274 C278 1.397 . S
C275 C273 1.397 . S
C275 C276 1.384 . S
C275 H298 0.930 . S
C276 C275 1.384 . S
C276 C277 1.377 . S
C276 C279 1.481 . S
C277 C276 1.377 . S
C277 C278 1.389 . S
C277 H299 0.929 . S
C278 C274 1.397 . S
C278 C277 1.389 . S
C278 H300 0.931 . S
C279 C276 1.481 . S
C279 C280 1.387 . S
C279 C284 1.390 . S
C280 C279 1.387 . S
C280 C281 1.401 . S
C280 H301 0.930 . S
C281 C280 1.401 . S
C281 C282 1.376 . S
C281 C290 1.511 . S
C282 C281 1.376 . S
C282 C283 1.392 . S
C282 H303 0.931 . S
C283 C282 1.392 . S
C283 C284 1.361 . S
C283 C285 1.500 . S
C284 C279 1.390 . S
C284 C283 1.361 . S
C284 H302 0.931 . S
C285 C283 1.500 . S
C285 C286 1.371 . S
C285 C287 1.365 . S
C286 C285 1.371 . S
C286 C296 1.386 . S
C286 H304 0.931 . S
C287 C285 1.365 . S
C287 C288 1.409 . S
C287 H305 0.929 . S
C288 C287 1.409 . S
C288 C289 1.380 . S
C288 H306 0.930 . S
C289 C288 1.380 . S
C289 C296 1.357 . S
C290 C281 1.511 . S
C290 C291 1.341 . S
C290 C292 1.371 . S
C291 C290 1.341 . S
C291 C295 1.394 . S
C291 H307 0.930 . S
C292 C290 1.371 . S
C292 C293 1.392 . S
C292 H308 0.931 . S
C293 C292 1.392 . S
C293 C294 1.331 . S
C293 H311 0.932 . S
C294 C293 1.331 . S
C294 C295 1.336 . S
C295 C291 1.394 . S
C295 C294 1.336 . S
C295 H310 0.929 . S
C296 C286 1.386 . S
C296 C289 1.357 . S
C296 H309 0.928 . S
H297 C273 0.931 . S
H298 C275 0.930 . S
H299 C277 0.929 . S
H300 C278 0.931 . S
H301 C280 0.930 . S
H302 C284 0.931 . S
H303 C282 0.931 . S
H304 C286 0.931 . S
H305 C287 0.929 . S
H306 C288 0.930 . S
H307 C291 0.930 . S
H308 C292 0.931 . S
H309 C296 0.928 . S
H310 C295 0.929 . S
H311 C293 0.932 . S
Tb312 N341 2.617 . S
Tb312 N347 2.572 . S
Tb312 O356 2.465 . S
Tb312 O357 2.387 . S
Tb312 O359 2.428 . S
Tb312 O360 2.308 . S
Tb312 O364 2.349 . S
Tb312 O367 2.393 . S
Tb312 C376 2.802 . S
C313 N314 1.379 . S
C313 C316 1.416 . S
C313 C320 1.424 . S
N314 C313 1.379 . S
N314 C317 1.334 . S
N314 Tb323 2.617 . S
C315 C317 1.390 . S
C315 C318 1.339 . S
C315 H335 0.930 . S
C316 C313 1.416 . S
C316 C318 1.416 . S
C316 C322 1.448 . S
C317 N314 1.334 . S
C317 C315 1.390 . S
C317 H328 0.930 . S
C318 C315 1.339 . S
C318 C316 1.416 . S
C318 H339 0.930 . S
C319 C320 1.413 . S
C319 C321 1.427 . S
C319 C325 1.416 . S
C320 C313 1.424 . S
C320 C319 1.413 . S
C320 N324 1.361 . S
C321 C319 1.427 . S
C321 C322 1.328 . S
C321 H336 0.929 . S
C322 C316 1.448 . S
C322 C321 1.328 . S
C322 H337 0.930 . S
Tb323 N314 2.617 . S
Tb323 N324 2.572 . S
Tb323 O358 2.332 1_655 S
Tb323 O361 2.393 . S
Tb323 O362 2.465 . S
Tb323 O363 2.387 . S
Tb323 O365 2.428 . S
Tb323 O366 2.308 1_655 S
Tb323 C387 2.802 . S
N324 C320 1.361 . S
N324 Tb323 2.572 . S
N324 C326 1.340 . S
C325 C319 1.416 . S
C325 C327 1.332 . S
C325 H333 0.931 . S
C326 N324 1.340 . S
C326 C327 1.407 . S
C326 H332 0.930 . S
C327 C325 1.332 . S
C327 C326 1.407 . S
C327 H329 0.929 . S
H328 C317 0.930 . S
H329 C327 0.929 . S
H330 C345 0.930 . S
H331 C352 0.929 . S
H332 C326 0.930 . S
H333 C325 0.931 . S
H334 C348 0.930 . S
H335 C315 0.930 . S
H336 C321 0.929 . S
H337 C322 0.930 . S
H338 C343 0.930 . S
H339 C318 0.930 . S
H340 C351 0.931 . S
N341 Tb312 2.617 . S
N341 C342 1.379 . S
N341 C345 1.334 . S
C342 N341 1.379 . S
C342 C344 1.416 . S
C342 C350 1.424 . S
C343 H338 0.930 . S
C343 C345 1.390 . S
C343 C346 1.339 . S
C344 C342 1.416 . S
C344 C346 1.416 . S
C344 C377 1.448 . S
C345 H330 0.930 . S
C345 N341 1.334 . S
C345 C343 1.390 . S
C346 C343 1.339 . S
C346 C344 1.416 . S
C346 H353 0.930 . S
N347 Tb312 2.572 . S
N347 C348 1.340 . S
N347 C350 1.361 . S
C348 H334 0.930 . S
C348 N347 1.340 . S
C348 C352 1.407 . S
C349 C350 1.413 . S
C349 C351 1.416 . S
C349 C378 1.427 . S
C350 C342 1.424 . S
C350 N347 1.361 . S
C350 C349 1.413 . S
C351 H340 0.931 . S
C351 C349 1.416 . S
C351 C352 1.332 . S
C352 H331 0.929 . S
C352 C348 1.407 . S
C352 C351 1.332 . S
H353 C346 0.930 . S
H354 C377 0.930 . S
H355 C378 0.929 . S
O356 Tb312 2.465 . S
O356 C376 1.264 . S
O357 Tb312 2.387 . S
O357 C368 1.264 . S
O358 Tb323 2.332 1_455 S
O358 C368 1.266 . S
O359 Tb312 2.428 . S
O359 C376 1.256 . S
O360 Tb312 2.308 . S
O360 C375 1.266 1_455 S
O361 Tb323 2.393 . S
O361 C375 1.248 . S
O362 Tb323 2.465 . S
O362 C387 1.264 . S
O363 Tb323 2.387 . S
O363 C379 1.264 . S
O364 Tb312 2.349 . S
O364 C379 1.243 1_455 S
O365 Tb323 2.428 . S
O365 C387 1.256 . S
O366 Tb323 2.308 1_455 S
O366 C386 1.266 . S
O367 Tb312 2.393 . S
O367 C386 1.248 . S
C368 O357 1.264 . S
C368 O358 1.266 . S
C369 C372 1.399 . S
C369 C374 1.383 . S
C369 C376 1.496 . S
C370 C371 1.399 . S
C370 C374 1.389 . S
C371 C370 1.399 . S
C371 C373 1.380 . S
C371 H388 0.929 . S
C372 C369 1.399 . S
C372 C373 1.392 . S
C372 H389 0.929 . S
C373 C371 1.380 . S
C373 C372 1.392 . S
C373 H390 0.929 . S
C374 C369 1.383 . S
C374 C370 1.389 . S
C374 H391 0.931 . S
C375 O360 1.266 1_655 S
C375 O361 1.248 . S
C376 Tb312 2.802 . S
C376 O356 1.264 . S
C376 O359 1.256 . S
C376 C369 1.496 . S
C377 C344 1.448 . S
C377 H354 0.930 . S
C377 C378 1.328 . S
C378 C349 1.427 . S
C378 H355 0.929 . S
C378 C377 1.328 . S
C379 O363 1.264 . S
C379 O364 1.243 1_655 S
C380 C383 1.399 . S
C380 C384 1.383 . S
C380 C387 1.496 . S
C381 C382 1.399 . S
C381 C384 1.389 . S
C382 C381 1.399 . S
C382 C385 1.380 . S
C382 H392 0.929 . S
C383 C380 1.399 . S
C383 C385 1.392 . S
C383 H393 0.929 . S
C384 C380 1.383 . S
C384 C381 1.389 . S
C384 H394 0.931 . S
C385 C382 1.380 . S
C385 C383 1.392 . S
C385 H395 0.929 . S
C386 O366 1.266 . S
C386 O367 1.248 . S
C387 Tb323 2.802 . S
C387 O362 1.264 . S
C387 O365 1.256 . S
C387 C380 1.496 . S
H388 C371 0.929 . S
H389 C372 0.929 . S
H390 C373 0.929 . S
H391 C374 0.931 . S
H392 C382 0.929 . S
H393 C383 0.929 . S
H394 C384 0.931 . S
H395 C385 0.929 . S
Tb396 N425 2.617 . S
Tb396 N431 2.572 . S
Tb396 O440 2.465 . S
Tb396 O441 2.387 . S
Tb396 O443 2.428 . S
Tb396 O444 2.308 . S
Tb396 O448 2.349 . S
Tb396 O451 2.393 . S
Tb396 C460 2.802 . S
C397 N398 1.379 . S
C397 C400 1.416 . S
C397 C404 1.424 . S
N398 C397 1.379 . S
N398 C401 1.334 . S
N398 Tb407 2.617 . S
C399 C401 1.390 . S
C399 C402 1.339 . S
C399 H419 0.930 . S
C400 C397 1.416 . S
C400 C402 1.416 . S
C400 C406 1.448 . S
C401 N398 1.334 . S
C401 C399 1.390 . S
C401 H412 0.930 . S
C402 C399 1.339 . S
C402 C400 1.416 . S
C402 H423 0.930 . S
C403 C404 1.413 . S
C403 C405 1.427 . S
C403 C409 1.416 . S
C404 C397 1.424 . S
C404 C403 1.413 . S
C404 N408 1.361 . S
C405 C403 1.427 . S
C405 C406 1.328 . S
C405 H420 0.929 . S
C406 C400 1.448 . S
C406 C405 1.328 . S
C406 H421 0.930 . S
Tb407 N398 2.617 . S
Tb407 N408 2.572 . S
Tb407 O442 2.349 . S
Tb407 O445 2.393 . S
Tb407 O446 2.465 . S
Tb407 O447 2.387 . S
Tb407 O449 2.428 . S
Tb407 O450 2.308 . S
Tb407 C471 2.802 . S
N408 C404 1.361 . S
N408 Tb407 2.572 . S
N408 C410 1.340 . S
C409 C403 1.416 . S
C409 C411 1.332 . S
C409 H417 0.931 . S
C410 N408 1.340 . S
C410 C411 1.407 . S
C410 H416 0.930 . S
C411 C409 1.332 . S
C411 C410 1.407 . S
C411 H413 0.929 . S
H412 C401 0.930 . S
H413 C411 0.929 . S
H414 C429 0.930 . S
H415 C436 0.929 . S
H416 C410 0.930 . S
H417 C409 0.931 . S
H418 C432 0.930 . S
H419 C399 0.930 . S
H420 C405 0.929 . S
H421 C406 0.930 . S
H422 C427 0.930 . S
H423 C402 0.930 . S
H424 C435 0.931 . S
N425 Tb396 2.617 . S
N425 C426 1.379 . S
N425 C429 1.334 . S
C426 N425 1.379 . S
C426 C428 1.416 . S
C426 C434 1.424 . S
C427 H422 0.930 . S
C427 C429 1.390 . S
C427 C430 1.339 . S
C428 C426 1.416 . S
C428 C430 1.416 . S
C428 C461 1.448 . S
C429 H414 0.930 . S
C429 N425 1.334 . S
C429 C427 1.390 . S
C430 C427 1.339 . S
C430 C428 1.416 . S
C430 H437 0.930 . S
N431 Tb396 2.572 . S
N431 C432 1.340 . S
N431 C434 1.361 . S
C432 H418 0.930 . S
C432 N431 1.340 . S
C432 C436 1.407 . S
C433 C434 1.413 . S
C433 C435 1.416 . S
C433 C462 1.427 . S
C434 C426 1.424 . S
C434 N431 1.361 . S
C434 C433 1.413 . S
C435 H424 0.931 . S
C435 C433 1.416 . S
C435 C436 1.332 . S
C436 H415 0.929 . S
C436 C432 1.407 . S
C436 C435 1.332 . S
H437 C430 0.930 . S
H438 C461 0.930 . S
H439 C462 0.929 . S
O440 Tb396 2.465 . S
O440 C460 1.264 . S
O441 Tb396 2.387 . S
O441 C452 1.264 . S
O442 Tb407 2.349 . S
O442 C452 1.243 . S
O443 Tb396 2.428 . S
O443 C460 1.256 . S
O444 Tb396 2.308 . S
O444 C459 1.266 . S
O445 Tb407 2.393 . S
O445 C459 1.248 . S
O446 Tb407 2.465 . S
O446 C471 1.264 . S
O447 Tb407 2.387 . S
O447 C463 1.264 . S
O448 Tb396 2.349 . S
O448 C463 1.243 . S
O449 Tb407 2.428 . S
O449 C471 1.256 . S
O450 Tb407 2.308 . S
O450 C470 1.266 . S
O451 Tb396 2.393 . S
O451 C470 1.248 . S
C452 O441 1.264 . S
C452 O442 1.243 . S
C453 C456 1.399 . S
C453 C458 1.383 . S
C453 C460 1.496 . S
C454 C455 1.399 . S
C454 C458 1.389 . S
C455 C454 1.399 . S
C455 C457 1.380 . S
C455 H472 0.929 . S
C456 C453 1.399 . S
C456 C457 1.392 . S
C456 H473 0.929 . S
C457 C455 1.380 . S
C457 C456 1.392 . S
C457 H474 0.929 . S
C458 C453 1.383 . S
C458 C454 1.389 . S
C458 H475 0.931 . S
C459 O444 1.266 . S
C459 O445 1.248 . S
C460 Tb396 2.802 . S
C460 O440 1.264 . S
C460 O443 1.256 . S
C460 C453 1.496 . S
C461 C428 1.448 . S
C461 H438 0.930 . S
C461 C462 1.328 . S
C462 C433 1.427 . S
C462 H439 0.929 . S
C462 C461 1.328 . S
C463 O447 1.264 . S
C463 O448 1.243 . S
C464 C467 1.399 . S
C464 C468 1.383 . S
C464 C471 1.496 . S
C465 C466 1.399 . S
C465 C468 1.389 . S
C466 C465 1.399 . S
C466 C469 1.380 . S
C466 H476 0.929 . S
C467 C464 1.399 . S
C467 C469 1.392 . S
C467 H477 0.929 . S
C468 C464 1.383 . S
C468 C465 1.389 . S
C468 H478 0.931 . S
C469 C466 1.380 . S
C469 C467 1.392 . S
C469 H479 0.929 . S
C470 O450 1.266 . S
C470 O451 1.248 . S
C471 Tb407 2.802 . S
C471 O446 1.264 . S
C471 O449 1.256 . S
C471 C464 1.496 . S
H472 C455 0.929 . S
H473 C456 0.929 . S
H474 C457 0.929 . S
H475 C458 0.931 . S
H476 C466 0.929 . S
H477 C467 0.929 . S
H478 C468 0.931 . S
H479 C469 0.929 . S
Tb480 N509 2.617 . S
Tb480 N515 2.572 . S
Tb480 O524 2.465 . S
Tb480 O525 2.387 . S
Tb480 O527 2.428 . S
Tb480 O528 2.308 . S
Tb480 O532 2.349 . S
Tb480 O535 2.393 . S
Tb480 C544 2.802 . S
C481 N482 1.379 . S
C481 C484 1.416 . S
C481 C488 1.424 . S
N482 C481 1.379 . S
N482 C485 1.334 . S
N482 Tb491 2.617 . S
C483 C485 1.390 . S
C483 C486 1.339 . S
C483 H503 0.930 . S
C484 C481 1.416 . S
C484 C486 1.416 . S
C484 C490 1.448 . S
C485 N482 1.334 . S
C485 C483 1.390 . S
C485 H496 0.930 . S
C486 C483 1.339 . S
C486 C484 1.416 . S
C486 H507 0.930 . S
C487 C488 1.413 . S
C487 C489 1.427 . S
C487 C493 1.416 . S
C488 C481 1.424 . S
C488 C487 1.413 . S
C488 N492 1.361 . S
C489 C487 1.427 . S
C489 C490 1.328 . S
C489 H504 0.929 . S
C490 C484 1.448 . S
C490 C489 1.328 . S
C490 H505 0.930 . S
Tb491 N482 2.617 . S
Tb491 N492 2.572 . S
Tb491 O526 2.349 1_655 S
Tb491 O529 2.393 . S
Tb491 O530 2.465 . S
Tb491 O531 2.387 . S
Tb491 O533 2.428 . S
Tb491 O534 2.308 1_655 S
Tb491 C555 2.802 . S
N492 C488 1.361 . S
N492 Tb491 2.572 . S
N492 C494 1.340 . S
C493 C487 1.416 . S
C493 C495 1.332 . S
C493 H501 0.931 . S
C494 N492 1.340 . S
C494 C495 1.407 . S
C494 H500 0.930 . S
C495 C493 1.332 . S
C495 C494 1.407 . S
C495 H497 0.929 . S
H496 C485 0.930 . S
H497 C495 0.929 . S
H498 C513 0.930 . S
H499 C520 0.929 . S
H500 C494 0.930 . S
H501 C493 0.931 . S
H502 C516 0.930 . S
H503 C483 0.930 . S
H504 C489 0.929 . S
H505 C490 0.930 . S
H506 C511 0.930 . S
H507 C486 0.930 . S
H508 C519 0.931 . S
N509 Tb480 2.617 . S
N509 C510 1.379 . S
N509 C513 1.334 . S
C510 N509 1.379 . S
C510 C512 1.416 . S
C510 C518 1.424 . S
C511 H506 0.930 . S
C511 C513 1.390 . S
C511 C514 1.339 . S
C512 C510 1.416 . S
C512 C514 1.416 . S
C512 C545 1.448 . S
C513 H498 0.930 . S
C513 N509 1.334 . S
C513 C511 1.390 . S
C514 C511 1.339 . S
C514 C512 1.416 . S
C514 H521 0.930 . S
N515 Tb480 2.572 . S
N515 C516 1.340 . S
N515 C518 1.361 . S
C516 H502 0.930 . S
C516 N515 1.340 . S
C516 C520 1.407 . S
C517 C518 1.413 . S
C517 C519 1.416 . S
C517 C546 1.427 . S
C518 C510 1.424 . S
C518 N515 1.361 . S
C518 C517 1.413 . S
C519 H508 0.931 . S
C519 C517 1.416 . S
C519 C520 1.332 . S
C520 H499 0.929 . S
C520 C516 1.407 . S
C520 C519 1.332 . S
H521 C514 0.930 . S
H522 C545 0.930 . S
H523 C546 0.929 . S
O524 Tb480 2.465 . S
O524 C544 1.264 . S
O525 Tb480 2.387 . S
O525 C536 1.264 . S
O526 Tb491 2.349 1_455 S
O526 C536 1.243 . S
O527 Tb480 2.428 . S
O527 C544 1.256 . S
O528 Tb480 2.308 . S
O528 C543 1.266 1_455 S
O529 Tb491 2.393 . S
O529 C543 1.248 . S
O530 Tb491 2.465 . S
O530 C555 1.264 . S
O531 Tb491 2.387 . S
O531 C547 1.264 . S
O532 Tb480 2.349 . S
O532 C547 1.243 1_455 S
O533 Tb491 2.428 . S
O533 C555 1.256 . S
O534 Tb491 2.308 1_455 S
O534 C554 1.266 . S
O535 Tb480 2.393 . S
O535 C554 1.248 . S
C536 O525 1.264 . S
C536 O526 1.243 . S
C537 C540 1.399 . S
C537 C542 1.383 . S
C537 C544 1.496 . S
C538 C539 1.399 . S
C538 C542 1.389 . S
C539 C538 1.399 . S
C539 C541 1.380 . S
C539 H556 0.929 . S
C540 C537 1.399 . S
C540 C541 1.392 . S
C540 H557 0.929 . S
C541 C539 1.380 . S
C541 C540 1.392 . S
C541 H558 0.929 . S
C542 C537 1.383 . S
C542 C538 1.389 . S
C542 H559 0.931 . S
C543 O528 1.266 1_655 S
C543 O529 1.248 . S
C544 Tb480 2.802 . S
C544 O524 1.264 . S
C544 O527 1.256 . S
C544 C537 1.496 . S
C545 C512 1.448 . S
C545 H522 0.930 . S
C545 C546 1.328 . S
C546 C517 1.427 . S
C546 H523 0.929 . S
C546 C545 1.328 . S
C547 O531 1.264 . S
C547 O532 1.243 1_655 S
C548 C551 1.399 . S
C548 C552 1.383 . S
C548 C555 1.496 . S
C549 C550 1.399 . S
C549 C552 1.389 . S
C550 C549 1.399 . S
C550 C553 1.380 . S
C550 H560 0.929 . S
C551 C548 1.399 . S
C551 C553 1.392 . S
C551 H561 0.929 . S
C552 C548 1.383 . S
C552 C549 1.389 . S
C552 H562 0.931 . S
C553 C550 1.380 . S
C553 C551 1.392 . S
C553 H563 0.929 . S
C554 O534 1.266 . S
C554 O535 1.248 . S
C555 Tb491 2.802 . S
C555 O530 1.264 . S
C555 O533 1.256 . S
C555 C548 1.496 . S
H556 C539 0.929 . S
H557 C540 0.929 . S
H558 C541 0.929 . S
H559 C542 0.931 . S
H560 C550 0.929 . S
H561 C551 0.929 . S
H562 C552 0.931 . S
H563 C553 0.929 . S
Tb564 N593 2.617 . S
Tb564 N599 2.572 . S
Tb564 O608 2.465 . S
Tb564 O609 2.387 . S
Tb564 O611 2.428 . S
Tb564 O612 2.308 . S
Tb564 O616 2.349 . S
Tb564 O619 2.393 . S
Tb564 C628 2.802 . S
C565 N566 1.379 . S
C565 C568 1.416 . S
C565 C572 1.424 . S
N566 C565 1.379 . S
N566 C569 1.334 . S
N566 Tb575 2.617 . S
C567 C569 1.390 . S
C567 C570 1.339 . S
C567 H587 0.930 . S
C568 C565 1.416 . S
C568 C570 1.416 . S
C568 C574 1.448 . S
C569 N566 1.334 . S
C569 C567 1.390 . S
C569 H580 0.930 . S
C570 C567 1.339 . S
C570 C568 1.416 . S
C570 H591 0.930 . S
C571 C572 1.413 . S
C571 C573 1.427 . S
C571 C577 1.416 . S
C572 C565 1.424 . S
C572 C571 1.413 . S
C572 N576 1.361 . S
C573 C571 1.427 . S
C573 C574 1.328 . S
C573 H588 0.929 . S
C574 C568 1.448 . S
C574 C573 1.328 . S
C574 H589 0.930 . S
Tb575 N566 2.617 . S
Tb575 N576 2.572 . S
Tb575 O610 2.349 . S
Tb575 O613 2.393 . S
Tb575 O614 2.465 . S
Tb575 O615 2.387 . S
Tb575 O617 2.428 . S
Tb575 O618 2.308 . S
Tb575 C639 2.802 . S
N576 C572 1.361 . S
N576 Tb575 2.572 . S
N576 C578 1.340 . S
C577 C571 1.416 . S
C577 C579 1.332 . S
C577 H585 0.931 . S
C578 N576 1.340 . S
C578 C579 1.407 . S
C578 H584 0.930 . S
C579 C577 1.332 . S
C579 C578 1.407 . S
C579 H581 0.929 . S
H580 C569 0.930 . S
H581 C579 0.929 . S
H582 C597 0.930 . S
H583 C604 0.929 . S
H584 C578 0.930 . S
H585 C577 0.931 . S
H586 C600 0.930 . S
H587 C567 0.930 . S
H588 C573 0.929 . S
H589 C574 0.930 . S
H590 C595 0.930 . S
H591 C570 0.930 . S
H592 C603 0.931 . S
N593 Tb564 2.617 . S
N593 C594 1.379 . S
N593 C597 1.334 . S
C594 N593 1.379 . S
C594 C596 1.416 . S
C594 C602 1.424 . S
C595 H590 0.930 . S
C595 C597 1.390 . S
C595 C598 1.339 . S
C596 C594 1.416 . S
C596 C598 1.416 . S
C596 C629 1.448 . S
C597 H582 0.930 . S
C597 N593 1.334 . S
C597 C595 1.390 . S
C598 C595 1.339 . S
C598 C596 1.416 . S
C598 H605 0.930 . S
N599 Tb564 2.572 . S
N599 C600 1.340 . S
N599 C602 1.361 . S
C600 H586 0.930 . S
C600 N599 1.340 . S
C600 C604 1.407 . S
C601 C602 1.413 . S
C601 C603 1.416 . S
C601 C630 1.427 . S
C602 C594 1.424 . S
C602 N599 1.361 . S
C602 C601 1.413 . S
C603 H592 0.931 . S
C603 C601 1.416 . S
C603 C604 1.332 . S
C604 H583 0.929 . S
C604 C600 1.407 . S
C604 C603 1.332 . S
H605 C598 0.930 . S
H606 C629 0.930 . S
H607 C630 0.929 . S
O608 Tb564 2.465 . S
O608 C628 1.264 . S
O609 Tb564 2.387 . S
O609 C620 1.264 . S
O610 Tb575 2.349 . S
O610 C620 1.243 . S
O611 Tb564 2.428 . S
O611 C628 1.256 . S
O612 Tb564 2.308 . S
O612 C627 1.266 . S
O613 Tb575 2.393 . S
O613 C627 1.248 . S
O614 Tb575 2.465 . S
O614 C639 1.264 . S
O615 Tb575 2.387 . S
O615 C631 1.264 . S
O616 Tb564 2.349 . S
O616 C631 1.243 . S
O617 Tb575 2.428 . S
O617 C639 1.256 . S
O618 Tb575 2.308 . S
O618 C638 1.266 . S
O619 Tb564 2.393 . S
O619 C638 1.248 . S
C620 O609 1.264 . S
C620 O610 1.243 . S
C621 C624 1.399 . S
C621 C626 1.383 . S
C621 C628 1.496 . S
C622 C623 1.399 . S
C622 C626 1.389 . S
C623 C622 1.399 . S
C623 C625 1.380 . S
C623 H640 0.929 . S
C624 C621 1.399 . S
C624 C625 1.392 . S
C624 H641 0.929 . S
C625 C623 1.380 . S
C625 C624 1.392 . S
C625 H642 0.929 . S
C626 C621 1.383 . S
C626 C622 1.389 . S
C626 H643 0.931 . S
C627 O612 1.266 . S
C627 O613 1.248 . S
C628 Tb564 2.802 . S
C628 O608 1.264 . S
C628 O611 1.256 . S
C628 C621 1.496 . S
C629 C596 1.448 . S
C629 H606 0.930 . S
C629 C630 1.328 . S
C630 C601 1.427 . S
C630 H607 0.929 . S
C630 C629 1.328 . S
C631 O615 1.264 . S
C631 O616 1.243 . S
C632 C635 1.399 . S
C632 C636 1.383 . S
C632 C639 1.496 . S
C633 C634 1.399 . S
C633 C636 1.389 . S
C634 C633 1.399 . S
C634 C637 1.380 . S
C634 H644 0.929 . S
C635 C632 1.399 . S
C635 C637 1.392 . S
C635 H645 0.929 . S
C636 C632 1.383 . S
C636 C633 1.389 . S
C636 H646 0.931 . S
C637 C634 1.380 . S
C637 C635 1.392 . S
C637 H647 0.929 . S
C638 O618 1.266 . S
C638 O619 1.248 . S
C639 Tb575 2.802 . S
C639 O614 1.264 . S
C639 O617 1.256 . S
C639 C632 1.496 . S
H640 C623 0.929 . S
H641 C624 0.929 . S
H642 C625 0.929 . S
H643 C626 0.931 . S
H644 C634 0.929 . S
H645 C635 0.929 . S
H646 C636 0.931 . S
H647 C637 0.929 . S
C648 C649 1.391 1_545 S
C648 C650 1.394 . S
C648 H664 0.931 . S
C649 C648 1.391 1_565 S
C649 C653 1.376 . S
C650 C648 1.394 . S
C650 C651 1.369 . S
C650 C654 1.531 . S
C651 C650 1.369 . S
C651 C652 1.410 . S
C651 C659 1.503 . S
C652 C651 1.410 . S
C652 C653 1.392 1_545 S
C652 C655 1.511 . S
C653 C649 1.376 . S
C653 C652 1.392 1_565 S
C653 H665 0.929 . S
C654 C650 1.531 . S
C654 H666 0.960 . S
C654 H667 0.962 . S
C654 H668 0.960 . S
C655 C652 1.511 . S
C655 H669 0.960 . S
C655 H670 0.961 . S
C655 H671 0.961 1_545 S
C656 C657 1.370 . S
C656 C658 1.363 . S
C656 H672 0.931 . S
C657 C656 1.370 . S
C657 C661 1.408 . S
C658 C656 1.363 . S
C658 C659 1.370 . S
C658 C662 1.524 . S
C659 C651 1.503 . S
C659 C658 1.370 . S
C659 C660 1.403 . S
C660 C659 1.403 . S
C660 C661 1.404 . S
C660 C663 1.539 . S
C661 C657 1.408 . S
C661 C660 1.404 . S
C661 H673 0.930 . S
C662 C658 1.524 . S
C662 H674 0.956 . S
C662 H675 0.961 . S
C662 H676 0.961 . S
C663 C660 1.539 . S
C663 H677 0.958 . S
C663 H678 0.961 . S
C663 H679 0.960 . S
H664 C648 0.931 . S
H665 C653 0.929 . S
H666 C654 0.960 . S
H667 C654 0.962 . S
H668 C654 0.960 . S
H669 C655 0.960 . S
H670 C655 0.961 . S
H671 C655 0.961 1_565 S
H672 C656 0.931 . S
H673 C661 0.930 . S
H674 C662 0.956 . S
H675 C662 0.961 . S
H676 C662 0.961 . S
H677 C663 0.958 . S
H678 C663 0.961 . S
H679 C663 0.960 . S
C680 C681 1.391 . S
C680 C682 1.394 . S
C680 H696 0.931 . S
C681 C680 1.391 . S
C681 C685 1.376 . S
C682 C680 1.394 . S
C682 C683 1.369 . S
C682 C686 1.531 . S
C683 C682 1.369 . S
C683 C684 1.410 . S
C683 C691 1.503 . S
C684 C683 1.410 . S
C684 C685 1.392 . S
C684 C687 1.511 . S
C685 C681 1.376 . S
C685 C684 1.392 . S
C685 H697 0.929 . S
C686 C682 1.531 . S
C686 H698 0.960 . S
C686 H699 0.962 . S
C686 H700 0.960 . S
C687 C684 1.511 . S
C687 H701 0.961 . S
C687 H702 0.961 . S
C687 H703 0.961 . S
C688 C689 1.370 . S
C688 C690 1.363 . S
C688 H704 0.931 . S
C689 C688 1.370 . S
C689 C693 1.408 . S
C690 C688 1.363 . S
C690 C691 1.370 . S
C690 C694 1.524 . S
C691 C683 1.503 . S
C691 C690 1.370 . S
C691 C692 1.403 . S
C692 C691 1.403 . S
C692 C693 1.404 . S
C692 C695 1.539 . S
C693 C689 1.408 . S
C693 C692 1.404 . S
C693 H705 0.930 . S
C694 C690 1.524 . S
C694 H706 0.956 . S
C694 H707 0.961 . S
C694 H708 0.961 . S
C695 C692 1.539 . S
C695 H709 0.958 . S
C695 H710 0.961 . S
C695 H711 0.960 . S
H696 C680 0.931 . S
H697 C685 0.929 . S
H698 C686 0.960 . S
H699 C686 0.962 . S
H700 C686 0.960 . S
H701 C687 0.961 . S
H702 C687 0.961 . S
H703 C687 0.961 . S
H704 C688 0.931 . S
H705 C693 0.930 . S
H706 C694 0.956 . S
H707 C694 0.961 . S
H708 C694 0.961 . S
H709 C695 0.958 . S
H710 C695 0.961 . S
H711 C695 0.960 . S
C712 C713 1.391 . S
C712 C714 1.394 . S
C712 H728 0.931 . S
C713 C712 1.391 . S
C713 C717 1.376 . S
C714 C712 1.394 . S
C714 C715 1.369 . S
C714 C718 1.531 . S
C715 C714 1.369 . S
C715 C716 1.410 . S
C715 C723 1.503 . S
C716 C715 1.410 . S
C716 C717 1.392 . S
C716 C719 1.511 . S
C717 C713 1.376 . S
C717 C716 1.392 . S
C717 H729 0.929 . S
C718 C714 1.531 . S
C718 H730 0.960 . S
C718 H731 0.962 . S
C718 H732 0.960 . S
C719 C716 1.511 . S
C719 H733 0.961 . S
C719 H734 0.961 . S
C719 H735 0.961 . S
C720 C721 1.370 . S
C720 C722 1.363 . S
C720 H736 0.931 . S
C721 C720 1.370 . S
C721 C725 1.408 . S
C722 C720 1.363 . S
C722 C723 1.370 . S
C722 C726 1.524 . S
C723 C715 1.503 . S
C723 C722 1.370 . S
C723 C724 1.403 . S
C724 C723 1.403 . S
C724 C725 1.404 . S
C724 C727 1.539 . S
C725 C721 1.408 . S
C725 C724 1.404 . S
C725 H737 0.930 . S
C726 C722 1.524 . S
C726 H738 0.956 . S
C726 H739 0.961 . S
C726 H740 0.961 . S
C727 C724 1.539 . S
C727 H741 0.958 . S
C727 H742 0.961 . S
C727 H743 0.960 . S
H728 C712 0.931 . S
H729 C717 0.929 . S
H730 C718 0.960 . S
H731 C718 0.962 . S
H732 C718 0.960 . S
H733 C719 0.961 . S
H734 C719 0.961 . S
H735 C719 0.961 . S
H736 C720 0.931 . S
H737 C725 0.930 . S
H738 C726 0.956 . S
H739 C726 0.961 . S
H740 C726 0.961 . S
H741 C727 0.958 . S
H742 C727 0.961 . S
H743 C727 0.960 . S
C744 C745 1.391 . S
C744 C746 1.394 1_565 S
C744 H760 0.931 . S
C745 C744 1.391 . S
C745 C749 1.376 1_565 S
C746 C744 1.394 1_545 S
C746 C747 1.369 . S
C746 C750 1.531 . S
C747 C746 1.369 . S
C747 C748 1.410 . S
C747 C755 1.503 . S
C748 C747 1.410 . S
C748 C749 1.392 . S
C748 C751 1.511 . S
C749 C745 1.376 1_545 S
C749 C748 1.392 . S
C749 H761 0.933 . S
C750 C746 1.531 . S
C750 H762 0.960 . S
C750 H763 0.962 . S
C750 H764 0.960 1_545 S
C751 C748 1.511 . S
C751 H765 0.961 . S
C751 H766 0.961 . S
C751 H767 0.961 . S
C752 C753 1.370 . S
C752 C754 1.363 . S
C752 H768 0.931 . S
C753 C752 1.370 . S
C753 C757 1.408 . S
C754 C752 1.363 . S
C754 C755 1.370 . S
C754 C758 1.524 . S
C755 C747 1.503 . S
C755 C754 1.370 . S
C755 C756 1.403 . S
C756 C755 1.403 . S
C756 C757 1.404 . S
C756 C759 1.539 . S
C757 C753 1.408 . S
C757 C756 1.404 . S
C757 H769 0.930 . S
C758 C754 1.524 . S
C758 H770 0.956 . S
C758 H771 0.961 . S
C758 H772 0.961 . S
C759 C756 1.539 . S
C759 H773 0.958 . S
C759 H774 0.961 . S
C759 H775 0.960 . S
H760 C744 0.931 . S
H761 C749 0.933 . S
H762 C750 0.960 . S
H763 C750 0.962 . S
H764 C750 0.960 1_565 S
H765 C751 0.961 . S
H766 C751 0.961 . S
H767 C751 0.961 . S
H768 C752 0.931 . S
H769 C757 0.930 . S
H770 C758 0.956 . S
H771 C758 0.961 . S
H772 C758 0.961 . S
H773 C759 0.958 . S
H774 C759 0.961 . S
H775 C759 0.960 . S
C776 C777 1.391 1_565 S
C776 C778 1.394 . S
C776 H792 0.931 . S
C777 C776 1.391 1_545 S
C777 C781 1.376 . S
C778 C776 1.394 . S
C778 C779 1.369 . S
C778 C782 1.531 . S
C779 C778 1.369 . S
C779 C780 1.410 . S
C779 C787 1.503 . S
C780 C779 1.410 . S
C780 C781 1.392 1_565 S
C780 C783 1.511 . S
C781 C777 1.376 . S
C781 C780 1.392 1_545 S
C781 H793 0.929 . S
C782 C778 1.531 . S
C782 H794 0.960 . S
C782 H795 0.962 . S
C782 H796 0.960 . S
C783 C780 1.511 . S
C783 H797 0.961 1_565 S
C783 H798 0.961 . S
C783 H799 0.961 . S
C784 C785 1.370 . S
C784 C786 1.363 . S
C784 H800 0.931 . S
C785 C784 1.370 . S
C785 C789 1.408 . S
C786 C784 1.363 . S
C786 C787 1.370 . S
C786 C790 1.524 . S
C787 C779 1.503 . S
C787 C786 1.370 . S
C787 C788 1.403 . S
C788 C787 1.403 . S
C788 C789 1.404 . S
C788 C791 1.539 . S
C789 C785 1.408 . S
C789 C788 1.404 . S
C789 H801 0.930 . S
C790 C786 1.524 . S
C790 H802 0.956 . S
C790 H803 0.961 . S
C790 H804 0.961 . S
C791 C788 1.539 . S
C791 H805 0.958 . S
C791 H806 0.961 . S
C791 H807 0.960 . S
H792 C776 0.931 . S
H793 C781 0.929 . S
H794 C782 0.960 . S
H795 C782 0.962 . S
H796 C782 0.960 . S
H797 C783 0.961 1_545 S
H798 C783 0.961 . S
H799 C783 0.961 . S
H800 C784 0.931 . S
H801 C789 0.930 . S
H802 C790 0.956 . S
H803 C790 0.961 . S
H804 C790 0.961 . S
H805 C791 0.958 . S
H806 C791 0.961 . S
H807 C791 0.960 . S
C808 C809 1.391 . S
C808 C810 1.394 . S
C808 H824 0.931 . S
C809 C808 1.391 . S
C809 C813 1.376 . S
C810 C808 1.394 . S
C810 C811 1.369 . S
C810 C814 1.531 . S
C811 C810 1.369 . S
C811 C812 1.410 . S
C811 C819 1.503 . S
C812 C811 1.410 . S
C812 C813 1.392 . S
C812 C815 1.511 . S
C813 C809 1.376 . S
C813 C812 1.392 . S
C813 H825 0.929 . S
C814 C810 1.531 . S
C814 H826 0.960 . S
C814 H827 0.962 . S
C814 H828 0.960 . S
C815 C812 1.511 . S
C815 H829 0.961 . S
C815 H830 0.961 . S
C815 H831 0.961 . S
C816 C817 1.370 . S
C816 C818 1.363 . S
C816 H832 0.931 . S
C817 C816 1.370 . S
C817 C821 1.408 . S
C818 C816 1.363 . S
C818 C819 1.370 . S
C818 C822 1.524 . S
C819 C811 1.503 . S
C819 C818 1.370 . S
C819 C820 1.403 . S
C820 C819 1.403 . S
C820 C821 1.404 . S
C820 C823 1.539 . S
C821 C817 1.408 . S
C821 C820 1.404 . S
C821 H833 0.930 . S
C822 C818 1.524 . S
C822 H834 0.956 . S
C822 H835 0.961 . S
C822 H836 0.961 . S
C823 C820 1.539 . S
C823 H837 0.958 . S
C823 H838 0.961 . S
C823 H839 0.960 . S
H824 C808 0.931 . S
H825 C813 0.929 . S
H826 C814 0.960 . S
H827 C814 0.962 . S
H828 C814 0.960 . S
H829 C815 0.961 . S
H830 C815 0.961 . S
H831 C815 0.961 . S
H832 C816 0.931 . S
H833 C821 0.930 . S
H834 C822 0.956 . S
H835 C822 0.961 . S
H836 C822 0.961 . S
H837 C823 0.958 . S
H838 C823 0.961 . S
H839 C823 0.960 . S
C840 C841 1.391 . S
C840 C842 1.394 . S
C840 H856 0.931 . S
C841 C840 1.391 . S
C841 C845 1.376 . S
C842 C840 1.394 . S
C842 C843 1.369 . S
C842 C846 1.531 . S
C843 C842 1.369 . S
C843 C844 1.410 . S
C843 C851 1.503 . S
C844 C843 1.410 . S
C844 C845 1.392 . S
C844 C847 1.511 . S
C845 C841 1.376 . S
C845 C844 1.392 . S
C845 H857 0.929 . S
C846 C842 1.531 . S
C846 H858 0.960 . S
C846 H859 0.962 . S
C846 H860 0.960 . S
C847 C844 1.511 . S
C847 H861 0.961 . S
C847 H862 0.961 . S
C847 H863 0.961 . S
C848 C849 1.370 . S
C848 C850 1.363 . S
C848 H864 0.931 . S
C849 C848 1.370 . S
C849 C853 1.408 . S
C850 C848 1.363 . S
C850 C851 1.370 . S
C850 C854 1.524 . S
C851 C843 1.503 . S
C851 C850 1.370 . S
C851 C852 1.403 . S
C852 C851 1.403 . S
C852 C853 1.404 . S
C852 C855 1.539 . S
C853 C849 1.408 . S
C853 C852 1.404 . S
C853 H865 0.930 . S
C854 C850 1.524 . S
C854 H866 0.956 . S
C854 H867 0.961 . S
C854 H868 0.961 . S
C855 C852 1.539 . S
C855 H869 0.958 . S
C855 H870 0.961 . S
C855 H871 0.960 . S
H856 C840 0.931 . S
H857 C845 0.929 . S
H858 C846 0.960 . S
H859 C846 0.962 . S
H860 C846 0.960 . S
H861 C847 0.961 . S
H862 C847 0.961 . S
H863 C847 0.961 . S
H864 C848 0.931 . S
H865 C853 0.930 . S
H866 C854 0.956 . S
H867 C854 0.961 . S
H868 C854 0.961 . S
H869 C855 0.958 . S
H870 C855 0.961 . S
H871 C855 0.960 . S
C872 C873 1.391 1_565 S
C872 C874 1.394 . S
C872 H888 0.931 . S
C873 C872 1.391 1_545 S
C873 C877 1.376 . S
C874 C872 1.394 . S
C874 C875 1.369 . S
C874 C878 1.531 . S
C875 C874 1.369 . S
C875 C876 1.410 . S
C875 C883 1.503 . S
C876 C875 1.410 . S
C876 C877 1.392 1_565 S
C876 C879 1.511 1_565 S
C877 C873 1.376 . S
C877 C876 1.392 1_545 S
C877 H889 0.929 . S
C878 C874 1.531 . S
C878 H890 0.960 . S
C878 H891 0.962 . S
C878 H892 0.960 . S
C879 C876 1.511 1_545 S
C879 H893 0.961 . S
C879 H894 0.961 1_545 S
C879 H895 0.961 . S
C880 C881 1.370 . S
C880 C882 1.363 . S
C880 H896 0.931 . S
C881 C880 1.370 . S
C881 C885 1.408 . S
C882 C880 1.363 . S
C882 C883 1.370 . S
C882 C886 1.524 . S
C883 C875 1.503 . S
C883 C882 1.370 . S
C883 C884 1.403 . S
C884 C883 1.403 . S
C884 C885 1.404 . S
C884 C887 1.539 . S
C885 C881 1.408 . S
C885 C884 1.404 . S
C885 H897 0.954 . S
C886 C882 1.524 . S
C886 H898 0.956 . S
C886 H899 0.961 . S
C886 H900 0.961 . S
C887 C884 1.539 . S
C887 H901 0.958 . S
C887 H902 0.961 1_455 S
C887 H903 0.960 . S
H888 C872 0.931 . S
H889 C877 0.929 . S
H890 C878 0.960 . S
H891 C878 0.962 . S
H892 C878 0.960 . S
H893 C879 0.961 . S
H894 C879 0.961 1_565 S
H895 C879 0.961 . S
H896 C880 0.931 . S
H897 C885 0.954 . S
H898 C886 0.956 . S
H899 C886 0.961 . S
H900 C886 0.961 . S
H901 C887 0.958 . S
H902 C887 0.961 1_655 S
H903 C887 0.960 . S
C904 C905 1.391 . S
C904 C906 1.394 . S
C904 H920 0.931 . S
C905 C904 1.391 . S
C905 C909 1.376 . S
C906 C904 1.394 . S
C906 C907 1.369 . S
C906 C910 1.531 . S
C907 C906 1.369 . S
C907 C908 1.410 . S
C907 C915 1.503 . S
C908 C907 1.410 . S
C908 C909 1.392 . S
C908 C911 1.511 . S
C909 C905 1.376 . S
C909 C908 1.392 . S
C909 H921 0.929 . S
C910 C906 1.531 . S
C910 H922 0.960 . S
C910 H923 0.962 . S
C910 H924 0.960 . S
C911 C908 1.511 . S
C911 H925 0.961 . S
C911 H926 0.961 . S
C911 H927 0.961 . S
C912 C913 1.370 . S
C912 C914 1.363 . S
C912 H928 0.931 . S
C913 C912 1.370 . S
C913 C917 1.408 . S
C914 C912 1.363 . S
C914 C915 1.370 . S
C914 C918 1.524 . S
C915 C907 1.503 . S
C915 C914 1.370 . S
C915 C916 1.403 . S
C916 C915 1.403 . S
C916 C917 1.404 . S
C916 C919 1.539 . S
C917 C913 1.408 . S
C917 C916 1.404 . S
C917 H929 0.930 . S
C918 C914 1.524 . S
C918 H930 0.956 . S
C918 H931 0.961 . S
C918 H932 0.961 . S
C919 C916 1.539 . S
C919 H933 0.958 . S
C919 H934 0.961 . S
C919 H935 0.960 . S
H920 C904 0.931 . S
H921 C909 0.929 . S
H922 C910 0.960 . S
H923 C910 0.962 . S
H924 C910 0.960 . S
H925 C911 0.961 . S
H926 C911 0.961 . S
H927 C911 0.961 . S
H928 C912 0.931 . S
H929 C917 0.930 . S
H930 C918 0.956 . S
H931 C918 0.961 . S
H932 C918 0.961 . S
H933 C919 0.958 . S
H934 C919 0.961 . S
H935 C919 0.960 . S
C936 C937 1.391 . S
C936 C938 1.394 . S
C936 H952 0.931 . S
C937 C936 1.391 . S
C937 C941 1.376 . S
C938 C936 1.394 . S
C938 C939 1.369 . S
C938 C942 1.531 . S
C939 C938 1.369 . S
C939 C940 1.410 . S
C939 C947 1.503 . S
C940 C939 1.410 . S
C940 C941 1.392 . S
C940 C943 1.511 . S
C941 C937 1.376 . S
C941 C940 1.392 . S
C941 H953 0.929 . S
C942 C938 1.531 . S
C942 H954 0.960 . S
C942 H955 0.962 . S
C942 H956 0.960 . S
C943 C940 1.511 . S
C943 H957 0.961 . S
C943 H958 0.961 . S
C943 H959 0.961 . S
C944 C945 1.370 . S
C944 C946 1.363 . S
C944 H960 0.931 . S
C945 C944 1.370 . S
C945 C949 1.408 . S
C946 C944 1.363 . S
C946 C947 1.370 . S
C946 C950 1.524 . S
C947 C939 1.503 . S
C947 C946 1.370 . S
C947 C948 1.403 . S
C948 C947 1.403 . S
C948 C949 1.404 . S
C948 C951 1.539 . S
C949 C945 1.408 . S
C949 C948 1.404 . S
C949 H961 0.930 . S
C950 C946 1.524 . S
C950 H962 0.956 . S
C950 H963 0.961 . S
C950 H964 0.961 . S
C951 C948 1.539 . S
C951 H965 0.958 . S
C951 H966 0.961 . S
C951 H967 0.960 . S
H952 C936 0.931 . S
H953 C941 0.929 . S
H954 C942 0.960 . S
H955 C942 0.962 . S
H956 C942 0.960 . S
H957 C943 0.961 . S
H958 C943 0.961 . S
H959 C943 0.961 . S
H960 C944 0.931 . S
H961 C949 0.930 . S
H962 C950 0.956 . S
H963 C950 0.961 . S
H964 C950 0.961 . S
H965 C951 0.958 . S
H966 C951 0.961 . S
H967 C951 0.960 . S
C968 C969 1.391 . S
C968 C970 1.394 . S
C968 H984 0.931 . S
C969 C968 1.391 . S
C969 C973 1.376 . S
C970 C968 1.394 . S
C970 C971 1.369 . S
C970 C974 1.531 . S
C971 C970 1.369 . S
C971 C972 1.410 . S
C971 C979 1.503 . S
C972 C971 1.410 . S
C972 C973 1.392 . S
C972 C975 1.511 . S
C973 C969 1.376 . S
C973 C972 1.392 . S
C973 H985 0.929 . S
C974 C970 1.531 . S
C974 H986 0.960 . S
C974 H987 0.962 . S
C974 H988 0.960 . S
C975 C972 1.511 . S
C975 H989 0.961 . S
C975 H990 0.961 . S
C975 H991 0.961 . S
C976 C977 1.370 . S
C976 C978 1.363 . S
C976 H992 0.931 . S
C977 C976 1.370 . S
C977 C981 1.408 . S
C978 C976 1.363 . S
C978 C979 1.370 . S
C978 C982 1.524 . S
C979 C971 1.503 . S
C979 C978 1.370 . S
C979 C980 1.403 . S
C980 C979 1.403 . S
C980 C981 1.404 . S
C980 C983 1.539 . S
C981 C977 1.408 . S
C981 C980 1.404 . S
C981 H993 0.930 . S
C982 C978 1.524 . S
C982 H994 0.956 . S
C982 H995 0.961 . S
C982 H996 0.961 . S
C983 C980 1.539 . S
C983 H997 0.958 . S
C983 H998 0.961 . S
C983 H999 0.960 . S
H984 C968 0.931 . S
H985 C973 0.929 . S
H986 C974 0.960 . S
H987 C974 0.962 . S
H988 C974 0.960 . S
H989 C975 0.961 . S
H990 C975 0.961 . S
H991 C975 0.961 . S
H992 C976 0.931 . S
H993 C981 0.930 . S
H994 C982 0.956 . S
H995 C982 0.961 . S
H996 C982 0.961 . S
H997 C983 0.958 . S
H998 C983 0.961 . S
H999 C983 0.960 . S
C1000 C1001 1.391 . S
C1000 C1002 1.394 . S
C1000 H1016 0.931 . S
C1001 C1000 1.391 . S
C1001 C1005 1.376 . S
C1002 C1000 1.394 . S
C1002 C1003 1.369 . S
C1002 C1006 1.531 . S
C1003 C1002 1.369 . S
C1003 C1004 1.410 . S
C1003 C1011 1.503 . S
C1004 C1003 1.410 . S
C1004 C1005 1.392 . S
C1004 C1007 1.511 . S
C1005 C1001 1.376 . S
C1005 C1004 1.392 . S
C1005 H1017 0.929 . S
C1006 C1002 1.531 . S
C1006 H1018 0.960 . S
C1006 H1019 0.962 . S
C1006 H1020 0.960 . S
C1007 C1004 1.511 . S
C1007 H1021 0.961 . S
C1007 H1022 0.961 . S
C1007 H1023 0.961 . S
C1008 C1009 1.370 . S
C1008 C1010 1.363 . S
C1008 H1024 0.931 . S
C1009 C1008 1.370 . S
C1009 C1013 1.408 . S
C1010 C1008 1.363 . S
C1010 C1011 1.370 . S
C1010 C1014 1.524 . S
C1011 C1003 1.503 . S
C1011 C1010 1.370 . S
C1011 C1012 1.403 . S
C1012 C1011 1.403 . S
C1012 C1013 1.404 . S
C1012 C1015 1.539 . S
C1013 C1009 1.408 . S
C1013 C1012 1.404 . S
C1013 H1025 0.930 . S
C1014 C1010 1.524 . S
C1014 H1026 0.956 . S
C1014 H1027 0.961 . S
C1014 H1028 0.961 . S
C1015 C1012 1.539 . S
C1015 H1029 0.958 . S
C1015 H1030 0.961 . S
C1015 H1031 0.960 . S
H1016 C1000 0.931 . S
H1017 C1005 0.929 . S
H1018 C1006 0.960 . S
H1019 C1006 0.962 . S
H1020 C1006 0.960 . S
H1021 C1007 0.961 . S
H1022 C1007 0.961 . S
H1023 C1007 0.961 . S
H1024 C1008 0.931 . S
H1025 C1013 0.930 . S
H1026 C1014 0.956 . S
H1027 C1014 0.961 . S
H1028 C1014 0.961 . S
H1029 C1015 0.958 . S
H1030 C1015 0.961 . S
H1031 C1015 0.960 . S
C1032 C1033 1.391 . S
C1032 C1034 1.394 . S
C1032 H1048 0.931 . S
C1033 C1032 1.391 . S
C1033 C1037 1.376 . S
C1034 C1032 1.394 . S
C1034 C1035 1.369 . S
C1034 C1038 1.531 . S
C1035 C1034 1.369 . S
C1035 C1036 1.410 . S
C1035 C1043 1.503 . S
C1036 C1035 1.410 . S
C1036 C1037 1.392 . S
C1036 C1039 1.511 . S
C1037 C1033 1.376 . S
C1037 C1036 1.392 . S
C1037 H1049 0.929 . S
C1038 C1034 1.531 . S
C1038 H1050 0.960 . S
C1038 H1051 0.962 . S
C1038 H1052 0.960 . S
C1039 C1036 1.511 . S
C1039 H1053 0.961 . S
C1039 H1054 0.961 . S
C1039 H1055 0.961 . S
C1040 C1041 1.370 . S
C1040 C1042 1.363 . S
C1040 H1056 0.931 . S
C1041 C1040 1.370 . S
C1041 C1045 1.408 . S
C1042 C1040 1.363 . S
C1042 C1043 1.370 . S
C1042 C1046 1.524 . S
C1043 C1035 1.503 . S
C1043 C1042 1.370 . S
C1043 C1044 1.403 . S
C1044 C1043 1.403 . S
C1044 C1045 1.404 . S
C1044 C1047 1.539 . S
C1045 C1041 1.408 . S
C1045 C1044 1.404 . S
C1045 H1057 0.930 . S
C1046 C1042 1.524 . S
C1046 H1058 0.956 . S
C1046 H1059 0.961 . S
C1046 H1060 0.961 . S
C1047 C1044 1.539 . S
C1047 H1061 0.958 . S
C1047 H1062 0.961 . S
C1047 H1063 0.960 . S
H1048 C1032 0.931 . S
H1049 C1037 0.929 . S
H1050 C1038 0.960 . S
H1051 C1038 0.962 . S
H1052 C1038 0.960 . S
H1053 C1039 0.961 . S
H1054 C1039 0.961 . S
H1055 C1039 0.961 . S
H1056 C1040 0.931 . S
H1057 C1045 0.930 . S
H1058 C1046 0.956 . S
H1059 C1046 0.961 . S
H1060 C1046 0.961 . S
H1061 C1047 0.958 . S
H1062 C1047 0.961 . S
H1063 C1047 0.960 . S
C1064 C1065 1.391 . S
C1064 C1066 1.394 . S
C1064 H1080 0.931 . S
C1065 C1064 1.391 . S
C1065 C1069 1.376 . S
C1066 C1064 1.394 . S
C1066 C1067 1.369 . S
C1066 C1070 1.531 . S
C1067 C1066 1.369 . S
C1067 C1068 1.410 . S
C1067 C1075 1.503 . S
C1068 C1067 1.410 . S
C1068 C1069 1.392 . S
C1068 C1071 1.511 . S
C1069 C1065 1.376 . S
C1069 C1068 1.392 . S
C1069 H1081 0.929 . S
C1070 C1066 1.531 . S
C1070 H1082 0.960 . S
C1070 H1083 0.962 . S
C1070 H1084 0.960 . S
C1071 C1068 1.511 . S
C1071 H1085 0.961 . S
C1071 H1086 0.961 . S
C1071 H1087 0.961 . S
C1072 C1073 1.370 . S
C1072 C1074 1.363 . S
C1072 H1088 0.931 . S
C1073 C1072 1.370 . S
C1073 C1077 1.408 . S
C1074 C1072 1.363 . S
C1074 C1075 1.370 . S
C1074 C1078 1.524 . S
C1075 C1067 1.503 . S
C1075 C1074 1.370 . S
C1075 C1076 1.403 . S
C1076 C1075 1.403 . S
C1076 C1077 1.404 . S
C1076 C1079 1.539 . S
C1077 C1073 1.408 . S
C1077 C1076 1.404 . S
C1077 H1089 0.930 . S
C1078 C1074 1.524 . S
C1078 H1090 0.956 . S
C1078 H1091 0.961 . S
C1078 H1092 0.961 . S
C1079 C1076 1.539 . S
C1079 H1093 0.958 . S
C1079 H1094 0.961 . S
C1079 H1095 0.960 . S
H1080 C1064 0.931 . S
H1081 C1069 0.929 . S
H1082 C1070 0.960 . S
H1083 C1070 0.962 . S
H1084 C1070 0.960 . S
H1085 C1071 0.961 . S
H1086 C1071 0.961 . S
H1087 C1071 0.961 . S
H1088 C1072 0.931 . S
H1089 C1077 0.930 . S
H1090 C1078 0.956 . S
H1091 C1078 0.961 . S
H1092 C1078 0.961 . S
H1093 C1079 0.958 . S
H1094 C1079 0.961 . S
H1095 C1079 0.960 . S
C1096 C1097 1.391 . S
C1096 C1098 1.394 . S
C1096 H1112 0.931 . S
C1097 C1096 1.391 . S
C1097 C1101 1.376 . S
C1098 C1096 1.394 . S
C1098 C1099 1.369 . S
C1098 C1102 1.531 . S
C1099 C1098 1.369 . S
C1099 C1100 1.410 . S
C1099 C1107 1.503 . S
C1100 C1099 1.410 . S
C1100 C1101 1.392 . S
C1100 C1103 1.511 . S
C1101 C1097 1.376 . S
C1101 C1100 1.392 . S
C1101 H1113 0.929 . S
C1102 C1098 1.531 . S
C1102 H1114 0.960 . S
C1102 H1115 0.962 . S
C1102 H1116 0.960 . S
C1103 C1100 1.511 . S
C1103 H1117 0.961 . S
C1103 H1118 0.961 . S
C1103 H1119 0.961 . S
C1104 C1105 1.370 . S
C1104 C1106 1.363 . S
C1104 H1120 0.931 . S
C1105 C1104 1.370 . S
C1105 C1109 1.408 . S
C1106 C1104 1.363 . S
C1106 C1107 1.370 . S
C1106 C1110 1.524 . S
C1107 C1099 1.503 . S
C1107 C1106 1.370 . S
C1107 C1108 1.403 . S
C1108 C1107 1.403 . S
C1108 C1109 1.404 . S
C1108 C1111 1.539 . S
C1109 C1105 1.408 . S
C1109 C1108 1.404 . S
C1109 H1121 0.930 . S
C1110 C1106 1.524 . S
C1110 H1122 0.956 . S
C1110 H1123 0.961 . S
C1110 H1124 0.961 . S
C1111 C1108 1.539 . S
C1111 H1125 0.958 . S
C1111 H1126 0.961 . S
C1111 H1127 0.960 . S
H1112 C1096 0.931 . S
H1113 C1101 0.929 . S
H1114 C1102 0.960 . S
H1115 C1102 0.962 . S
H1116 C1102 0.960 . S
H1117 C1103 0.961 . S
H1118 C1103 0.961 . S
H1119 C1103 0.961 . S
H1120 C1104 0.931 . S
H1121 C1109 0.930 . S
H1122 C1110 0.956 . S
H1123 C1110 0.961 . S
H1124 C1110 0.961 . S
H1125 C1111 0.958 . S
H1126 C1111 0.961 . S
H1127 C1111 0.960 . S
C1128 C1129 1.391 . S
C1128 C1130 1.394 . S
C1128 H1144 0.931 . S
C1129 C1128 1.391 . S
C1129 C1133 1.376 . S
C1130 C1128 1.394 . S
C1130 C1131 1.369 . S
C1130 C1134 1.531 . S
C1131 C1130 1.369 . S
C1131 C1132 1.410 . S
C1131 C1139 1.503 . S
C1132 C1131 1.410 . S
C1132 C1133 1.392 . S
C1132 C1135 1.511 . S
C1133 C1129 1.376 . S
C1133 C1132 1.392 . S
C1133 H1145 0.929 . S
C1134 C1130 1.531 . S
C1134 H1146 0.960 . S
C1134 H1147 0.962 . S
C1134 H1148 0.960 . S
C1135 C1132 1.511 . S
C1135 H1149 0.961 . S
C1135 H1150 0.961 . S
C1135 H1151 0.961 . S
C1136 C1137 1.370 . S
C1136 C1138 1.363 . S
C1136 H1152 0.931 . S
C1137 C1136 1.370 . S
C1137 C1141 1.408 . S
C1138 C1136 1.363 . S
C1138 C1139 1.370 . S
C1138 C1142 1.524 . S
C1139 C1131 1.503 . S
C1139 C1138 1.370 . S
C1139 C1140 1.403 . S
C1140 C1139 1.403 . S
C1140 C1141 1.404 . S
C1140 C1143 1.539 . S
C1141 C1137 1.408 . S
C1141 C1140 1.404 . S
C1141 H1153 0.930 . S
C1142 C1138 1.524 . S
C1142 H1154 0.956 . S
C1142 H1155 0.961 . S
C1142 H1156 0.961 . S
C1143 C1140 1.539 . S
C1143 H1157 0.958 . S
C1143 H1158 0.961 . S
C1143 H1159 0.960 . S
H1144 C1128 0.931 . S
H1145 C1133 0.929 . S
H1146 C1134 0.960 . S
H1147 C1134 0.962 . S
H1148 C1134 0.960 . S
H1149 C1135 0.961 . S
H1150 C1135 0.961 . S
H1151 C1135 0.961 . S
H1152 C1136 0.931 . S
H1153 C1141 0.930 . S
H1154 C1142 0.956 . S
H1155 C1142 0.961 . S
H1156 C1142 0.961 . S
H1157 C1143 0.958 . S
H1158 C1143 0.961 . S
H1159 C1143 0.960 . S
C1160 C1161 1.391 . S
C1160 C1162 1.394 . S
C1160 H1176 0.931 . S
C1161 C1160 1.391 . S
C1161 C1165 1.376 . S
C1162 C1160 1.394 . S
C1162 C1163 1.369 . S
C1162 C1166 1.531 . S
C1163 C1162 1.369 . S
C1163 C1164 1.410 . S
C1163 C1171 1.503 . S
C1164 C1163 1.410 . S
C1164 C1165 1.392 . S
C1164 C1167 1.511 . S
C1165 C1161 1.376 . S
C1165 C1164 1.392 . S
C1165 H1177 0.929 . S
C1166 C1162 1.531 . S
C1166 H1178 0.960 . S
C1166 H1179 0.962 . S
C1166 H1180 0.960 . S
C1167 C1164 1.511 . S
C1167 H1181 0.961 . S
C1167 H1182 0.961 . S
C1167 H1183 0.961 . S
C1168 C1169 1.370 . S
C1168 C1170 1.363 . S
C1168 H1184 0.931 . S
C1169 C1168 1.370 . S
C1169 C1173 1.408 . S
C1170 C1168 1.363 . S
C1170 C1171 1.370 . S
C1170 C1174 1.524 . S
C1171 C1163 1.503 . S
C1171 C1170 1.370 . S
C1171 C1172 1.403 . S
C1172 C1171 1.403 . S
C1172 C1173 1.404 . S
C1172 C1175 1.539 . S
C1173 C1169 1.408 . S
C1173 C1172 1.404 . S
C1173 H1185 0.930 . S
C1174 C1170 1.524 . S
C1174 H1186 0.956 . S
C1174 H1187 0.961 . S
C1174 H1188 0.961 . S
C1175 C1172 1.539 . S
C1175 H1189 0.958 . S
C1175 H1190 0.961 . S
C1175 H1191 0.960 . S
H1176 C1160 0.931 . S
H1177 C1165 0.929 . S
H1178 C1166 0.960 . S
H1179 C1166 0.962 . S
H1180 C1166 0.960 . S
H1181 C1167 0.961 . S
H1182 C1167 0.961 . S
H1183 C1167 0.961 . S
H1184 C1168 0.931 . S
H1185 C1173 0.930 . S
H1186 C1174 0.956 . S
H1187 C1174 0.961 . S
H1188 C1174 0.961 . S
H1189 C1175 0.958 . S
H1190 C1175 0.961 . S
H1191 C1175 0.960 . S
C1192 C1193 1.391 . S
C1192 C1194 1.394 . S
C1192 H1208 0.931 . S
C1193 C1192 1.391 . S
C1193 C1197 1.376 . S
C1194 C1192 1.394 . S
C1194 C1195 1.369 . S
C1194 C1198 1.531 . S
C1195 C1194 1.369 . S
C1195 C1196 1.410 . S
C1195 C1203 1.503 . S
C1196 C1195 1.410 . S
C1196 C1197 1.392 . S
C1196 C1199 1.511 . S
C1197 C1193 1.376 . S
C1197 C1196 1.392 . S
C1197 H1209 0.929 . S
C1198 C1194 1.531 . S
C1198 H1210 0.960 . S
C1198 H1211 0.962 . S
C1198 H1212 0.960 . S
C1199 C1196 1.511 . S
C1199 H1213 0.961 . S
C1199 H1214 0.961 . S
C1199 H1215 0.961 . S
C1200 C1201 1.370 . S
C1200 C1202 1.363 . S
C1200 H1216 0.931 . S
C1201 C1200 1.370 . S
C1201 C1205 1.408 . S
C1202 C1200 1.363 . S
C1202 C1203 1.370 . S
C1202 C1206 1.524 . S
C1203 C1195 1.503 . S
C1203 C1202 1.370 . S
C1203 C1204 1.403 . S
C1204 C1203 1.403 . S
C1204 C1205 1.404 . S
C1204 C1207 1.539 . S
C1205 C1201 1.408 . S
C1205 C1204 1.404 . S
C1205 H1217 0.930 . S
C1206 C1202 1.524 . S
C1206 H1218 0.956 . S
C1206 H1219 0.961 . S
C1206 H1220 0.961 . S
C1207 C1204 1.539 . S
C1207 H1221 0.958 . S
C1207 H1222 0.961 . S
C1207 H1223 0.960 . S
H1208 C1192 0.931 . S
H1209 C1197 0.929 . S
H1210 C1198 0.960 . S
H1211 C1198 0.962 . S
H1212 C1198 0.960 . S
H1213 C1199 0.961 . S
H1214 C1199 0.961 . S
H1215 C1199 0.961 . S
H1216 C1200 0.931 . S
H1217 C1205 0.930 . S
H1218 C1206 0.956 . S
H1219 C1206 0.961 . S
H1220 C1206 0.961 . S
H1221 C1207 0.958 . S
H1222 C1207 0.961 . S
H1223 C1207 0.960 . S
C1224 C1225 1.391 . S
C1224 C1226 1.394 . S
C1224 H1240 0.931 . S
C1225 C1224 1.391 . S
C1225 C1229 1.376 . S
C1226 C1224 1.394 . S
C1226 C1227 1.369 . S
C1226 C1230 1.531 . S
C1227 C1226 1.369 . S
C1227 C1228 1.410 . S
C1227 C1235 1.503 . S
C1228 C1227 1.410 . S
C1228 C1229 1.392 . S
C1228 C1231 1.511 . S
C1229 C1225 1.376 . S
C1229 C1228 1.392 . S
C1229 H1241 0.929 . S
C1230 C1226 1.531 . S
C1230 H1242 0.960 . S
C1230 H1243 0.962 . S
C1230 H1244 0.960 . S
C1231 C1228 1.511 . S
C1231 H1245 0.961 . S
C1231 H1246 0.961 . S
C1231 H1247 0.961 . S
C1232 C1233 1.370 . S
C1232 C1234 1.363 . S
C1232 H1248 0.931 . S
C1233 C1232 1.370 . S
C1233 C1237 1.408 . S
C1234 C1232 1.363 . S
C1234 C1235 1.370 . S
C1234 C1238 1.524 . S
C1235 C1227 1.503 . S
C1235 C1234 1.370 . S
C1235 C1236 1.403 . S
C1236 C1235 1.403 . S
C1236 C1237 1.404 . S
C1236 C1239 1.539 . S
C1237 C1233 1.408 . S
C1237 C1236 1.404 . S
C1237 H1249 0.930 . S
C1238 C1234 1.524 . S
C1238 H1250 0.956 . S
C1238 H1251 0.961 . S
C1238 H1252 0.961 . S
C1239 C1236 1.539 . S
C1239 H1253 0.958 . S
C1239 H1254 0.961 . S
C1239 H1255 0.960 . S
H1240 C1224 0.931 . S
H1241 C1229 0.929 . S
H1242 C1230 0.960 . S
H1243 C1230 0.962 . S
H1244 C1230 0.960 . S
H1245 C1231 0.961 . S
H1246 C1231 0.961 . S
H1247 C1231 0.961 . S
H1248 C1232 0.931 . S
H1249 C1237 0.930 . S
H1250 C1238 0.956 . S
H1251 C1238 0.961 . S
H1252 C1238 0.961 . S
H1253 C1239 0.958 . S
H1254 C1239 0.961 . S
H1255 C1239 0.960 . S
C1256 C1257 1.391 . S
C1256 C1258 1.394 . S
C1256 H1272 0.931 . S
C1257 C1256 1.391 . S
C1257 C1261 1.376 . S
C1258 C1256 1.394 . S
C1258 C1259 1.369 . S
C1258 C1262 1.531 . S
C1259 C1258 1.369 . S
C1259 C1260 1.410 . S
C1259 C1267 1.503 . S
C1260 C1259 1.410 . S
C1260 C1261 1.392 . S
C1260 C1263 1.511 . S
C1261 C1257 1.376 . S
C1261 C1260 1.392 . S
C1261 H1273 0.929 . S
C1262 C1258 1.531 . S
C1262 H1274 0.960 . S
C1262 H1275 0.962 . S
C1262 H1276 0.960 . S
C1263 C1260 1.511 . S
C1263 H1277 0.961 . S
C1263 H1278 0.961 . S
C1263 H1279 0.961 . S
C1264 C1265 1.370 . S
C1264 C1266 1.363 . S
C1264 H1280 0.931 . S
C1265 C1264 1.370 . S
C1265 C1269 1.408 . S
C1266 C1264 1.363 . S
C1266 C1267 1.370 . S
C1266 C1270 1.524 . S
C1267 C1259 1.503 . S
C1267 C1266 1.370 . S
C1267 C1268 1.403 . S
C1268 C1267 1.403 . S
C1268 C1269 1.404 . S
C1268 C1271 1.539 . S
C1269 C1265 1.408 . S
C1269 C1268 1.404 . S
C1269 H1281 0.930 1_655 S
C1270 C1266 1.524 . S
C1270 H1282 0.956 . S
C1270 H1283 0.961 . S
C1270 H1284 0.961 . S
C1271 C1268 1.539 . S
C1271 H1285 0.958 . S
C1271 H1286 0.961 1_655 S
C1271 H1287 0.960 . S
H1272 C1256 0.931 . S
H1273 C1261 0.929 . S
H1274 C1262 0.960 . S
H1275 C1262 0.962 . S
H1276 C1262 0.960 . S
H1277 C1263 0.961 . S
H1278 C1263 0.961 . S
H1279 C1263 0.961 . S
H1280 C1264 0.931 . S
H1281 C1269 0.930 1_455 S
H1282 C1270 0.956 . S
H1283 C1270 0.961 . S
H1284 C1270 0.961 . S
H1285 C1271 0.958 . S
H1286 C1271 0.961 1_455 S
H1287 C1271 0.960 . S
C1288 C1289 1.391 . S
C1288 C1290 1.394 . S
C1288 H1304 0.931 . S
C1289 C1288 1.391 . S
C1289 C1293 1.376 . S
C1290 C1288 1.394 . S
C1290 C1291 1.369 . S
C1290 C1294 1.531 . S
C1291 C1290 1.369 . S
C1291 C1292 1.410 . S
C1291 C1299 1.503 . S
C1292 C1291 1.410 . S
C1292 C1293 1.392 . S
C1292 C1295 1.511 . S
C1293 C1289 1.376 . S
C1293 C1292 1.392 . S
C1293 H1305 0.929 . S
C1294 C1290 1.531 . S
C1294 H1306 0.960 . S
C1294 H1307 0.962 . S
C1294 H1308 0.960 . S
C1295 C1292 1.511 . S
C1295 H1309 0.961 . S
C1295 H1310 0.961 . S
C1295 H1311 0.961 . S
C1296 C1297 1.370 . S
C1296 C1298 1.363 . S
C1296 H1312 0.931 . S
C1297 C1296 1.370 . S
C1297 C1301 1.408 . S
C1298 C1296 1.363 . S
C1298 C1299 1.370 . S
C1298 C1302 1.524 . S
C1299 C1291 1.503 . S
C1299 C1298 1.370 . S
C1299 C1300 1.403 . S
C1300 C1299 1.403 . S
C1300 C1301 1.404 . S
C1300 C1303 1.539 . S
C1301 C1297 1.408 . S
C1301 C1300 1.404 . S
C1301 H1313 0.930 . S
C1302 C1298 1.524 . S
C1302 H1314 0.956 . S
C1302 H1315 0.961 . S
C1302 H1316 0.961 . S
C1303 C1300 1.539 . S
C1303 H1317 0.958 . S
C1303 H1318 0.961 . S
C1303 H1319 0.960 . S
H1304 C1288 0.931 . S
H1305 C1293 0.929 . S
H1306 C1294 0.960 . S
H1307 C1294 0.962 . S
H1308 C1294 0.960 . S
H1309 C1295 0.961 . S
H1310 C1295 0.961 . S
H1311 C1295 0.961 . S
H1312 C1296 0.931 . S
H1313 C1301 0.930 . S
H1314 C1302 0.956 . S
H1315 C1302 0.961 . S
H1316 C1302 0.961 . S
H1317 C1303 0.958 . S
H1318 C1303 0.961 . S
H1319 C1303 0.960 . S
C1320 C1321 1.391 . S
C1320 C1322 1.394 . S
C1320 H1336 0.931 . S
C1321 C1320 1.391 . S
C1321 C1325 1.376 . S
C1322 C1320 1.394 . S
C1322 C1323 1.369 . S
C1322 C1326 1.531 . S
C1323 C1322 1.369 . S
C1323 C1324 1.410 . S
C1323 C1331 1.503 . S
C1324 C1323 1.410 . S
C1324 C1325 1.392 . S
C1324 C1327 1.511 . S
C1325 C1321 1.376 . S
C1325 C1324 1.392 . S
C1325 H1337 0.929 . S
C1326 C1322 1.531 . S
C1326 H1338 0.960 . S
C1326 H1339 0.962 . S
C1326 H1340 0.960 . S
C1327 C1324 1.511 . S
C1327 H1341 0.961 . S
C1327 H1342 0.961 . S
C1327 H1343 0.961 . S
C1328 C1329 1.370 . S
C1328 C1330 1.363 . S
C1328 H1344 0.931 . S
C1329 C1328 1.370 . S
C1329 C1333 1.408 . S
C1330 C1328 1.363 . S
C1330 C1331 1.370 . S
C1330 C1334 1.524 . S
C1331 C1323 1.503 . S
C1331 C1330 1.370 . S
C1331 C1332 1.403 . S
C1332 C1331 1.403 . S
C1332 C1333 1.404 . S
C1332 C1335 1.539 . S
C1333 C1329 1.408 . S
C1333 C1332 1.404 . S
C1333 H1345 0.930 . S
C1334 C1330 1.524 . S
C1334 H1346 0.956 . S
C1334 H1347 0.961 . S
C1334 H1348 0.961 . S
C1335 C1332 1.539 . S
C1335 H1349 0.958 . S
C1335 H1350 0.961 . S
C1335 H1351 0.960 . S
H1336 C1320 0.931 . S
H1337 C1325 0.929 . S
H1338 C1326 0.960 . S
H1339 C1326 0.962 . S
H1340 C1326 0.960 . S
H1341 C1327 0.961 . S
H1342 C1327 0.961 . S
H1343 C1327 0.961 . S
H1344 C1328 0.931 . S
H1345 C1333 0.930 . S
H1346 C1334 0.956 . S
H1347 C1334 0.961 . S
H1348 C1334 0.961 . S
H1349 C1335 0.958 . S
H1350 C1335 0.961 . S
H1351 C1335 0.960 . S
C1352 C1353 1.391 . S
C1352 C1354 1.394 . S
C1352 H1368 0.931 . S
C1353 C1352 1.391 . S
C1353 C1357 1.376 . S
C1354 C1352 1.394 . S
C1354 C1355 1.369 . S
C1354 C1358 1.531 . S
C1355 C1354 1.369 . S
C1355 C1356 1.410 . S
C1355 C1363 1.503 . S
C1356 C1355 1.410 . S
C1356 C1357 1.392 . S
C1356 C1359 1.511 . S
C1357 C1353 1.376 . S
C1357 C1356 1.392 . S
C1357 H1369 0.929 . S
C1358 C1354 1.531 . S
C1358 H1370 0.960 . S
C1358 H1371 0.962 . S
C1358 H1372 0.960 . S
C1359 C1356 1.511 . S
C1359 H1373 0.961 . S
C1359 H1374 0.961 . S
C1359 H1375 0.961 . S
C1360 C1361 1.370 . S
C1360 C1362 1.363 . S
C1360 H1376 0.931 . S
C1361 C1360 1.370 . S
C1361 C1365 1.408 . S
C1362 C1360 1.363 . S
C1362 C1363 1.370 . S
C1362 C1366 1.524 . S
C1363 C1355 1.503 . S
C1363 C1362 1.370 . S
C1363 C1364 1.403 . S
C1364 C1363 1.403 . S
C1364 C1365 1.404 . S
C1364 C1367 1.539 . S
C1365 C1361 1.408 . S
C1365 C1364 1.404 . S
C1365 H1377 0.930 . S
C1366 C1362 1.524 . S
C1366 H1378 0.956 . S
C1366 H1379 0.961 . S
C1366 H1380 0.961 . S
C1367 C1364 1.539 . S
C1367 H1381 0.958 . S
C1367 H1382 0.961 . S
C1367 H1383 0.960 . S
H1368 C1352 0.931 . S
H1369 C1357 0.929 . S
H1370 C1358 0.960 . S
H1371 C1358 0.962 . S
H1372 C1358 0.960 . S
H1373 C1359 0.961 . S
H1374 C1359 0.961 . S
H1375 C1359 0.961 . S
H1376 C1360 0.931 . S
H1377 C1365 0.930 . S
H1378 C1366 0.956 . S
H1379 C1366 0.961 . S
H1380 C1366 0.961 . S
H1381 C1367 0.958 . S
H1382 C1367 0.961 . S
H1383 C1367 0.960 . S
C1384 C1385 1.391 . S
C1384 C1386 1.394 . S
C1384 H1400 0.931 . S
C1385 C1384 1.391 . S
C1385 C1389 1.376 . S
C1386 C1384 1.394 . S
C1386 C1387 1.369 . S
C1386 C1390 1.531 . S
C1387 C1386 1.369 . S
C1387 C1388 1.410 . S
C1387 C1395 1.503 . S
C1388 C1387 1.410 . S
C1388 C1389 1.392 . S
C1388 C1391 1.511 . S
C1389 C1385 1.376 . S
C1389 C1388 1.392 . S
C1389 H1401 0.929 . S
C1390 C1386 1.531 . S
C1390 H1402 0.960 . S
C1390 H1403 0.962 . S
C1390 H1404 0.960 . S
C1391 C1388 1.511 . S
C1391 H1405 0.961 . S
C1391 H1406 0.961 . S
C1391 H1407 0.961 . S
C1392 C1393 1.370 . S
C1392 C1394 1.363 . S
C1392 H1408 0.931 . S
C1393 C1392 1.370 . S
C1393 C1397 1.408 . S
C1394 C1392 1.363 . S
C1394 C1395 1.370 . S
C1394 C1398 1.524 . S
C1395 C1387 1.503 . S
C1395 C1394 1.370 . S
C1395 C1396 1.403 . S
C1396 C1395 1.403 . S
C1396 C1397 1.404 . S
C1396 C1399 1.539 . S
C1397 C1393 1.408 . S
C1397 C1396 1.404 . S
C1397 H1409 0.930 . S
C1398 C1394 1.524 . S
C1398 H1410 0.956 . S
C1398 H1411 0.961 . S
C1398 H1412 0.961 . S
C1399 C1396 1.539 . S
C1399 H1413 0.958 . S
C1399 H1414 0.961 . S
C1399 H1415 0.960 . S
H1400 C1384 0.931 . S
H1401 C1389 0.929 . S
H1402 C1390 0.960 . S
H1403 C1390 0.962 . S
H1404 C1390 0.960 . S
H1405 C1391 0.961 . S
H1406 C1391 0.961 . S
H1407 C1391 0.961 . S
H1408 C1392 0.931 . S
H1409 C1397 0.930 . S
H1410 C1398 0.956 . S
H1411 C1398 0.961 . S
H1412 C1398 0.961 . S
H1413 C1399 0.958 . S
H1414 C1399 0.961 . S
H1415 C1399 0.960 . S
C649 C235 1.468 . S
C657 C386 1.457 . S
C689 C470 1.462 . S
C681 C289 1.464 . S
C721 C463 1.469 . S
C713 C157 1.478 . S
C745 C211 1.454 . S
C753 C379 1.474 . S
C785 C543 1.472 . S
C777 C79 1.483 . S
C817 C627 1.461 . S
C809 C118 1.472 . S
C841 C1 1.473 . S
C849 C620 1.469 . S
C873 C40 1.464 . S
C881 C536 1.478 . S
C913 C370 1.351 . S
C905 C55 1.500 1_554 S
C945 C454 1.312 . S
C937 C16 1.520 . S
C977 C465 1.394 . S
C969 C133 1.527 1_556 S
C1009 C381 1.402 . S
C1001 C94 1.525 . S
C1041 C549 1.341 . S
C1033 C196 1.514 1_556 S
C1065 C172 1.511 . S
C1073 C633 1.345 . S
C1105 C622 1.423 . S
C1097 C274 1.537 1_554 S
C1129 C250 1.536 . S
C1137 C538 1.422 . S
C1169 C368 1.576 . S
C1161 C21 1.583 . S
C1201 C452 1.583 . S
C1193 C60 1.584 . S
C1225 C99 1.562 . S
C1233 C459 1.551 . S
C1265 C375 1.562 . S
C1257 C138 1.574 . S
C1297 C547 1.583 . S
C1289 C177 1.573 . S
C1321 C216 1.567 . S
C1329 C631 1.588 . S
C1353 C255 1.557 . S
C1361 C638 1.556 . S
C1385 C294 1.575 . S
C1393 C554 1.568 . S
