# Generated by pormake.
# Topology eea, (3,6)-cn, num edge types: 1
# Building blocks:
#     Node 0, Type 0, BuildingBlock: PAMTOO_clean_linker_0, # of connection points: 3
#     Node 1, Type 0, BuildingBlock: PAMTOO_clean_linker_0, # of connection points: 3
#     Node 2, Type 0, BuildingBlock: PAMTOO_clean_linker_0, # of connection points: 3
#     Node 3, Type 0, BuildingBlock: PAMTOO_clean_linker_0, # of connection points: 3
#     Node 4, Type 0, BuildingBlock: PAMTOO_clean_linker_0, # of connection points: 3
#     Node 5, Type 0, BuildingBlock: PAMTOO_clean_linker_0, # of connection points: 3
#     Node 6, Type 0, BuildingBlock: PAMTOO_clean_linker_0, # of connection points: 3
#     Node 7, Type 0, BuildingBlock: PAMTOO_clean_linker_0, # of connection points: 3
#     Node 8, Type 0, BuildingBlock: PAMTOO_clean_linker_0, # of connection points: 3
#     Node 9, Type 0, BuildingBlock: PAMTOO_clean_linker_0, # of connection points: 3
#     Node 10, Type 0, BuildingBlock: PAMTOO_clean_linker_0, # of connection points: 3
#     Node 11, Type 0, BuildingBlock: PAMTOO_clean_linker_0, # of connection points: 3
#     Node 12, Type 0, BuildingBlock: PAMTOO_clean_linker_0, # of connection points: 3
#     Node 13, Type 0, BuildingBlock: PAMTOO_clean_linker_0, # of connection points: 3
#     Node 14, Type 0, BuildingBlock: PAMTOO_clean_linker_0, # of connection points: 3
#     Node 15, Type 0, BuildingBlock: PAMTOO_clean_linker_0, # of connection points: 3
#     Node 16, Type 0, BuildingBlock: PAMTOO_clean_linker_0, # of connection points: 3
#     Node 17, Type 0, BuildingBlock: PAMTOO_clean_linker_0, # of connection points: 3
#     Node 18, Type 1, BuildingBlock: KUMBUR_clean_sbu_0, # of connection points: 6
#     Node 19, Type 1, BuildingBlock: KUMBUR_clean_sbu_0, # of connection points: 6
#     Node 20, Type 1, BuildingBlock: KUMBUR_clean_sbu_0, # of connection points: 6
#     Node 21, Type 1, BuildingBlock: KUMBUR_clean_sbu_0, # of connection points: 6
#     Node 22, Type 1, BuildingBlock: KUMBUR_clean_sbu_0, # of connection points: 6
#     Node 23, Type 1, BuildingBlock: KUMBUR_clean_sbu_0, # of connection points: 6
#     Node 24, Type 1, BuildingBlock: KUMBUR_clean_sbu_0, # of connection points: 6
#     Node 25, Type 1, BuildingBlock: KUMBUR_clean_sbu_0, # of connection points: 6
#     Node 26, Type 1, BuildingBlock: KUMBUR_clean_sbu_0, # of connection points: 6
#     Edge 27, Type (0, 1), BuildingBlock: TEMPAE_clean_linker_10, # of connection points: 2
#     Edge 28, Type (0, 1), BuildingBlock: TEMPAE_clean_linker_10, # of connection points: 2
#     Edge 29, Type (0, 1), BuildingBlock: TEMPAE_clean_linker_10, # of connection points: 2
#     Edge 30, Type (0, 1), BuildingBlock: TEMPAE_clean_linker_10, # of connection points: 2
#     Edge 31, Type (0, 1), BuildingBlock: TEMPAE_clean_linker_10, # of connection points: 2
#     Edge 32, Type (0, 1), BuildingBlock: TEMPAE_clean_linker_10, # of connection points: 2
#     Edge 33, Type (0, 1), BuildingBlock: TEMPAE_clean_linker_10, # of connection points: 2
#     Edge 34, Type (0, 1), BuildingBlock: TEMPAE_clean_linker_10, # of connection points: 2
#     Edge 35, Type (0, 1), BuildingBlock: TEMPAE_clean_linker_10, # of connection points: 2
#     Edge 36, Type (0, 1), BuildingBlock: TEMPAE_clean_linker_10, # of connection points: 2
#     Edge 37, Type (0, 1), BuildingBlock: TEMPAE_clean_linker_10, # of connection points: 2
#     Edge 38, Type (0, 1), BuildingBlock: TEMPAE_clean_linker_10, # of connection points: 2
#     Edge 39, Type (0, 1), BuildingBlock: TEMPAE_clean_linker_10, # of connection points: 2
#     Edge 40, Type (0, 1), BuildingBlock: TEMPAE_clean_linker_10, # of connection points: 2
#     Edge 41, Type (0, 1), BuildingBlock: TEMPAE_clean_linker_10, # of connection points: 2
#     Edge 42, Type (0, 1), BuildingBlock: TEMPAE_clean_linker_10, # of connection points: 2
#     Edge 43, Type (0, 1), BuildingBlock: TEMPAE_clean_linker_10, # of connection points: 2
#     Edge 44, Type (0, 1), BuildingBlock: TEMPAE_clean_linker_10, # of connection points: 2
#     Edge 45, Type (0, 1), BuildingBlock: TEMPAE_clean_linker_10, # of connection points: 2
#     Edge 46, Type (0, 1), BuildingBlock: TEMPAE_clean_linker_10, # of connection points: 2
#     Edge 47, Type (0, 1), BuildingBlock: TEMPAE_clean_linker_10, # of connection points: 2
#     Edge 48, Type (0, 1), BuildingBlock: TEMPAE_clean_linker_10, # of connection points: 2
#     Edge 49, Type (0, 1), BuildingBlock: TEMPAE_clean_linker_10, # of connection points: 2
#     Edge 50, Type (0, 1), BuildingBlock: TEMPAE_clean_linker_10, # of connection points: 2
#     Edge 51, Type (0, 1), BuildingBlock: TEMPAE_clean_linker_10, # of connection points: 2
#     Edge 52, Type (0, 1), BuildingBlock: TEMPAE_clean_linker_10, # of connection points: 2
#     Edge 53, Type (0, 1), BuildingBlock: TEMPAE_clean_linker_10, # of connection points: 2
#     Edge 54, Type (0, 1), BuildingBlock: TEMPAE_clean_linker_10, # of connection points: 2
#     Edge 55, Type (0, 1), BuildingBlock: TEMPAE_clean_linker_10, # of connection points: 2
#     Edge 56, Type (0, 1), BuildingBlock: TEMPAE_clean_linker_10, # of connection points: 2
#     Edge 57, Type (0, 1), BuildingBlock: TEMPAE_clean_linker_10, # of connection points: 2
#     Edge 58, Type (0, 1), BuildingBlock: TEMPAE_clean_linker_10, # of connection points: 2
#     Edge 59, Type (0, 1), BuildingBlock: TEMPAE_clean_linker_10, # of connection points: 2
#     Edge 60, Type (0, 1), BuildingBlock: TEMPAE_clean_linker_10, # of connection points: 2
#     Edge 61, Type (0, 1), BuildingBlock: TEMPAE_clean_linker_10, # of connection points: 2
#     Edge 62, Type (0, 1), BuildingBlock: TEMPAE_clean_linker_10, # of connection points: 2
#     Edge 63, Type (0, 1), BuildingBlock: TEMPAE_clean_linker_10, # of connection points: 2
#     Edge 64, Type (0, 1), BuildingBlock: TEMPAE_clean_linker_10, # of connection points: 2
#     Edge 65, Type (0, 1), BuildingBlock: TEMPAE_clean_linker_10, # of connection points: 2
#     Edge 66, Type (0, 1), BuildingBlock: TEMPAE_clean_linker_10, # of connection points: 2
#     Edge 67, Type (0, 1), BuildingBlock: TEMPAE_clean_linker_10, # of connection points: 2
#     Edge 68, Type (0, 1), BuildingBlock: TEMPAE_clean_linker_10, # of connection points: 2
#     Edge 69, Type (0, 1), BuildingBlock: TEMPAE_clean_linker_10, # of connection points: 2
#     Edge 70, Type (0, 1), BuildingBlock: TEMPAE_clean_linker_10, # of connection points: 2
#     Edge 71, Type (0, 1), BuildingBlock: TEMPAE_clean_linker_10, # of connection points: 2
#     Edge 72, Type (0, 1), BuildingBlock: TEMPAE_clean_linker_10, # of connection points: 2
#     Edge 73, Type (0, 1), BuildingBlock: TEMPAE_clean_linker_10, # of connection points: 2
#     Edge 74, Type (0, 1), BuildingBlock: TEMPAE_clean_linker_10, # of connection points: 2
#     Edge 75, Type (0, 1), BuildingBlock: TEMPAE_clean_linker_10, # of connection points: 2
#     Edge 76, Type (0, 1), BuildingBlock: TEMPAE_clean_linker_10, # of connection points: 2
#     Edge 77, Type (0, 1), BuildingBlock: TEMPAE_clean_linker_10, # of connection points: 2
#     Edge 78, Type (0, 1), BuildingBlock: TEMPAE_clean_linker_10, # of connection points: 2
#     Edge 79, Type (0, 1), BuildingBlock: TEMPAE_clean_linker_10, # of connection points: 2
#     Edge 80, Type (0, 1), BuildingBlock: TEMPAE_clean_linker_10, # of connection points: 2
# Relax obj value: 0.023
# Max RMSD: 0.165
# Mean RMSD: 0.119
data_MOF--net-eea--node1-KUMBUR_clean_sbu_0--node2-PAMTOO_clean_linker_0--edge1-TEMPAE_clean_linker_10
_symmetry_space_group_name_H-M    P1
_symmetry_Int_Tables_number       1
_symmetry_cell_setting            triclinic
loop_
_symmetry_equiv_pos_as_xyz
'x, y, z'
_cell_length_a     54.577556
_cell_length_b     56.374125
_cell_length_c     67.053954
_cell_angle_alpha  89.983373
_cell_angle_beta   89.951138
_cell_angle_gamma 120.00296
loop_
_atom_site_label
_atom_site_type_symbol
_atom_site_fract_x
_atom_site_fract_y
_atom_site_fract_z
_atom_type_partial_charge
H0 H 0.23967 0.0688 0.43663 0.0
H1 H 0.237 0.14377 0.43257 0.0
H2 H 0.20919 0.08798 0.38326 0.0
H3 H 0.23967 0.14898 0.37106 0.0
C4 C 0.23687 0.15666 0.38567 0.0
O5 O 0.21656 0.13479 0.3965 0.0
H6 H 0.2575 0.16654 0.39367 0.0
C7 C 0.23434 0.08222 0.4285 0.0
C8 C 0.22336 0.0751 0.40909 0.0
C9 C 0.23977 0.10715 0.43706 0.0
C10 C 0.23334 0.12462 0.42616 0.0
C11 C 0.22251 0.11772 0.40681 0.0
C12 C 0.21769 0.09313 0.39824 0.0
H13 H 0.96663 0.16699 0.43868 0.0
H14 H 0.88949 0.09001 0.43547 0.0
H15 H 0.93586 0.12606 0.38195 0.0
H16 H 0.87369 0.08921 0.37368 0.0
C17 C 0.86858 0.07988 0.3888 0.0
O18 O 0.89293 0.08282 0.39744 0.0
H19 H 0.86015 0.0908 0.39786 0.0
C20 C 0.95123 0.15035 0.42966 0.0
C21 C 0.9549 0.15027 0.40876 0.0
C22 C 0.92732 0.12935 0.43933 0.0
C23 C 0.9077 0.10674 0.42822 0.0
C24 C 0.9114 0.10546 0.40771 0.0
C25 C 0.93445 0.12729 0.39796 0.0
H26 H 0.84849 0.78509 0.43604 0.0
H27 H 0.93 0.79071 0.43357 0.0
H28 H 0.90303 0.82174 0.38508 0.0
H29 H 0.93317 0.79227 0.37234 0.0
C30 C 0.94594 0.7952 0.386 0.0
O31 O 0.94353 0.81354 0.39841 0.0
H32 H 0.93723 0.77495 0.39352 0.0
C33 C 0.86844 0.79189 0.42845 0.0
C34 C 0.87309 0.80453 0.40957 0.0
C35 C 0.88872 0.78677 0.4373 0.0
C36 C 0.91405 0.79438 0.42701 0.0
C37 C 0.91906 0.80673 0.40818 0.0
C38 C 0.8987 0.81189 0.39954 0.0
H39 H 0.07799 0.2361 0.5989 0.0
H40 H 0.14422 0.2153 0.5981 0.0
H41 H 0.08956 0.19469 0.64861 0.0
H42 H 0.14962 0.21885 0.66008 0.0
C43 C 0.15816 0.21519 0.64607 0.0
O44 O 0.13567 0.19712 0.63432 0.0
H45 H 0.17049 0.23526 0.63832 0.0
C46 C 0.08878 0.2263 0.60542 0.0
C47 C 0.07972 0.21393 0.6243 0.0
C48 C 0.11176 0.22681 0.59529 0.0
C49 C 0.12665 0.21577 0.60516 0.0
C50 C 0.11934 0.20527 0.62456 0.0
C51 C 0.09558 0.20381 0.63392 0.0
H52 H 0.78856 0.8449 0.59331 0.0
H53 H 0.80924 0.92972 0.59439 0.0
H54 H 0.82941 0.89541 0.64412 0.0
H55 H 0.80531 0.92893 0.65728 0.0
C56 C 0.80669 0.93918 0.64281 0.0
O57 O 0.82648 0.93749 0.63095 0.0
H58 H 0.78542 0.92852 0.63566 0.0
C59 C 0.79788 0.8648 0.60031 0.0
C60 C 0.81023 0.86793 0.6192 0.0
C61 C 0.79739 0.88687 0.5907 0.0
C62 C 0.80885 0.91202 0.60097 0.0
C63 C 0.81944 0.91464 0.62033 0.0
C64 C 0.8209 0.89298 0.62918 0.0
H65 H 0.16703 0.94225 0.58653 0.0
H66 H 0.08683 0.86791 0.59218 0.0
H67 H 0.11733 0.92619 0.64006 0.0
H68 H 0.08781 0.86932 0.65409 0.0
C69 C 0.07502 0.85895 0.64062 0.0
O70 O 0.0758 0.87863 0.62791 0.0
H71 H 0.0846 0.8478 0.63327 0.0
C72 C 0.14809 0.9293 0.59509 0.0
C73 C 0.14498 0.93754 0.61428 0.0
C74 C 0.1274 0.90424 0.58697 0.0
C75 C 0.10298 0.88736 0.59816 0.0
C76 C 0.09927 0.89539 0.61718 0.0
C77 C 0.12016 0.92048 0.62517 0.0
H78 H 0.9131 0.40551 0.77168 0.0
H79 H 0.90465 0.47737 0.7666 0.0
H80 H 0.86716 0.41391 0.72267 0.0
H81 H 0.88487 0.46657 0.70396 0.0
C82 C 0.89093 0.47871 0.71798 0.0
O83 O 0.87555 0.4619 0.73361 0.0
H84 H 0.91404 0.48695 0.72021 0.0
C85 C 0.90541 0.41732 0.76383 0.0
C86 C 0.88978 0.40677 0.74622 0.0
C87 C 0.91074 0.44266 0.77154 0.0
C88 C 0.90023 0.45746 0.76129 0.0
C89 C 0.88453 0.447 0.74377 0.0
C90 C 0.87897 0.42156 0.73641 0.0
H91 H 0.63428 0.49603 0.77441 0.0
H92 H 0.55703 0.41953 0.77045 0.0
H93 H 0.60495 0.45496 0.71749 0.0
H94 H 0.54263 0.41809 0.7085 0.0
C95 C 0.53729 0.40911 0.72372 0.0
O96 O 0.56149 0.41204 0.73264 0.0
H97 H 0.52898 0.42045 0.73239 0.0
C98 C 0.61922 0.47956 0.76517 0.0
C99 C 0.6236 0.47946 0.74433 0.0
C100 C 0.59489 0.45874 0.77459 0.0
C101 C 0.57553 0.43614 0.76338 0.0
C102 C 0.57981 0.4347 0.74298 0.0
C103 C 0.60325 0.45643 0.73343 0.0
H104 H 0.51515 0.11674 0.76756 0.0
H105 H 0.59672 0.12233 0.76516 0.0
H106 H 0.57006 0.15396 0.71691 0.0
H107 H 0.60135 0.12627 0.70382 0.0
C108 C 0.61364 0.12852 0.71762 0.0
O109 O 0.61078 0.14625 0.73041 0.0
H110 H 0.60469 0.10793 0.72462 0.0
C111 C 0.53496 0.12313 0.7599 0.0
C112 C 0.53976 0.13602 0.74112 0.0
C113 C 0.55528 0.11814 0.7689 0.0
C114 C 0.58089 0.1263 0.75877 0.0
C115 C 0.58606 0.13892 0.74002 0.0
C116 C 0.5656 0.14386 0.73128 0.0
H117 H 0.73817 0.56599 0.92938 0.0
H118 H 0.81127 0.55606 0.93193 0.0
H119 H 0.75298 0.52906 0.98098 0.0
H120 H 0.8139 0.55579 0.99346 0.0
C121 C 0.82296 0.5528 0.97945 0.0
O122 O 0.80092 0.53448 0.96748 0.0
H123 H 0.83486 0.57305 0.97189 0.0
C124 C 0.75063 0.55887 0.93723 0.0
C125 C 0.74187 0.54673 0.95623 0.0
C126 C 0.77542 0.56215 0.92821 0.0
C127 C 0.79186 0.55332 0.93847 0.0
C128 C 0.78405 0.54186 0.95757 0.0
C129 C 0.75902 0.5384 0.96636 0.0
H130 H 0.44851 0.17597 0.9287 0.0
H131 H 0.46562 0.25972 0.92833 0.0
H132 H 0.49015 0.22926 0.97812 0.0
H133 H 0.46398 0.26145 0.99098 0.0
C134 C 0.4649 0.27127 0.97639 0.0
O135 O 0.48462 0.26963 0.96444 0.0
H136 H 0.4435 0.26024 0.96946 0.0
C137 C 0.45733 0.19609 0.9353 0.0
C138 C 0.47072 0.20054 0.9539 0.0
C139 C 0.45536 0.21722 0.92542 0.0
C140 C 0.4663 0.24269 0.93517 0.0
C141 C 0.47785 0.24651 0.9543 0.0
C142 C 0.4808 0.22584 0.96339 0.0
H143 H 0.84039 0.27715 0.92402 0.0
H144 H 0.75924 0.2034 0.92836 0.0
H145 H 0.7873 0.26285 0.97539 0.0
H146 H 0.75813 0.2064 0.99022 0.0
C147 C 0.74605 0.19553 0.97663 0.0
O148 O 0.74682 0.21468 0.96338 0.0
H149 H 0.75633 0.1846 0.96995 0.0
C150 C 0.82077 0.26451 0.93198 0.0
C151 C 0.81637 0.27329 0.95058 0.0
C152 C 0.80034 0.23939 0.92373 0.0
C153 C 0.77521 0.22292 0.93437 0.0
C154 C 0.77057 0.23137 0.95294 0.0
C155 C 0.79094 0.25665 0.96091 0.0
H156 H 0.57589 0.73786 0.1045 0.0
H157 H 0.57051 0.81134 0.09983 0.0
H158 H 0.5408 0.75332 0.05187 0.0
H159 H 0.56985 0.81214 0.03801 0.0
C160 C 0.56792 0.82122 0.05224 0.0
O161 O 0.54828 0.80047 0.06422 0.0
H162 H 0.58899 0.83183 0.05964 0.0
C163 C 0.56977 0.75065 0.09627 0.0
C164 C 0.55754 0.74239 0.07729 0.0
C165 C 0.57458 0.77549 0.10458 0.0
C166 C 0.56692 0.79206 0.09372 0.0
C167 C 0.55482 0.78402 0.07477 0.0
C168 C 0.54992 0.75917 0.06664 0.0
H169 H 0.28916 0.84648 0.09868 0.0
H170 H 0.21753 0.76466 0.09634 0.0
H171 H 0.27601 0.79499 0.04759 0.0
H172 H 0.2145 0.75957 0.03431 0.0
C173 C 0.20612 0.74998 0.0491 0.0
O174 O 0.22859 0.75383 0.0609 0.0
H175 H 0.19499 0.76001 0.05591 0.0
C176 C 0.27728 0.82697 0.09114 0.0
C177 C 0.2863 0.82333 0.07225 0.0
C178 C 0.2525 0.80605 0.10007 0.0
C179 C 0.23656 0.78123 0.08977 0.0
C180 C 0.24481 0.77755 0.0708 0.0
C181 C 0.26967 0.79842 0.06213 0.0
H182 H 0.1749 0.44438 0.10159 0.0
H183 H 0.25747 0.45221 0.09873 0.0
H184 H 0.22918 0.48284 0.05082 0.0
H185 H 0.26174 0.45638 0.03745 0.0
C186 C 0.27431 0.45904 0.05118 0.0
O187 O 0.27083 0.47634 0.06405 0.0
H188 H 0.266 0.43851 0.05818 0.0
C189 C 0.19474 0.45125 0.09384 0.0
C190 C 0.1991 0.46419 0.0751 0.0
C191 C 0.21559 0.44689 0.10269 0.0
C192 C 0.24125 0.45568 0.09245 0.0
C193 C 0.246 0.46833 0.07373 0.0
C194 C 0.22503 0.47266 0.06515 0.0
H195 H 0.40563 0.89445 0.26068 0.0
H196 H 0.47923 0.88528 0.2631 0.0
H197 H 0.42042 0.85685 0.31186 0.0
H198 H 0.48105 0.88407 0.32448 0.0
C199 C 0.49038 0.88119 0.31057 0.0
O200 O 0.46862 0.86293 0.29841 0.0
H201 H 0.50242 0.90148 0.30309 0.0
C202 C 0.41817 0.88734 0.26842 0.0
C203 C 0.40935 0.87479 0.28729 0.0
C204 C 0.44318 0.89109 0.25946 0.0
C205 C 0.45965 0.88219 0.2696 0.0
C206 C 0.4517 0.87027 0.28855 0.0
C207 C 0.42653 0.86645 0.29732 0.0
H208 H 0.13014 0.51596 0.25724 0.0
H209 H 0.13438 0.59417 0.26102 0.0
H210 H 0.1496 0.55918 0.31312 0.0
H211 H 0.11834 0.59006 0.32197 0.0
C212 C 0.12403 0.60198 0.30783 0.0
O213 O 0.14631 0.60083 0.29905 0.0
H214 H 0.10519 0.59282 0.29788 0.0
C215 C 0.13378 0.5337 0.26587 0.0
C216 C 0.14024 0.53496 0.28622 0.0
C217 C 0.13165 0.5549 0.25657 0.0
C218 C 0.13602 0.57762 0.2679 0.0
C219 C 0.14244 0.57904 0.28824 0.0
C220 C 0.14477 0.55789 0.29735 0.0
H221 H 0.50444 0.6064 0.2577 0.0
H222 H 0.4239 0.53226 0.26351 0.0
H223 H 0.45243 0.5931 0.30953 0.0
H224 H 0.42231 0.53766 0.32533 0.0
C225 C 0.41034 0.52632 0.31184 0.0
O226 O 0.41145 0.54501 0.29799 0.0
H227 H 0.42055 0.51501 0.30575 0.0
C228 C 0.48532 0.59359 0.26613 0.0
C229 C 0.48127 0.60288 0.28463 0.0
C230 C 0.46488 0.56817 0.25827 0.0
C231 C 0.43976 0.55214 0.26905 0.0
C232 C 0.4353 0.56117 0.28745 0.0
C233 C 0.45591 0.58657 0.29514 0.0
Tb234 Tb 0.5014 0.99617 0.99066 0.0
C235 C 0.55362 0.08399 0.05648 0.0
C236 C 0.60286 0.09665 0.05786 0.0
C237 C 0.58868 0.12948 0.06779 0.0
C238 C 0.57452 0.07768 0.05302 0.0
C239 C 0.56025 0.10967 0.06445 0.0
C240 C 0.60997 0.1229 0.06463 0.0
C241 C 0.51021 0.0925 0.06845 0.0
N242 N 0.52647 0.0638 0.05402 0.0
C243 C 0.50479 0.06721 0.06086 0.0
C244 C 0.53807 0.11402 0.06991 0.0
Tb245 Tb 0.51912 0.02301 0.04128 0.0
N246 N 0.56662 0.05194 0.04684 0.0
C247 C 0.58621 0.04354 0.04605 0.0
C248 C 0.62287 0.08816 0.0568 0.0
C249 C 0.61454 0.06153 0.05079 0.0
H250 H 0.48317 0.05071 0.05983 0.0
H251 H 0.62986 0.05471 0.05004 0.0
H252 H 0.6317 0.1379 0.06813 0.0
H253 H 0.4929 0.09533 0.07323 0.0
H254 H 0.58038 0.02305 0.04162 0.0
H255 H 0.38997 0.96303 0.98442 0.0
H256 H 0.64461 0.1017 0.06119 0.0
H257 H 0.53735 0.9664 0.97535 0.0
H258 H 0.44033 0.99636 0.98945 0.0
H259 H 0.52703 0.92016 0.96522 0.0
H260 H 0.59428 0.14945 0.07371 0.0
H261 H 0.37472 0.91461 0.97713 0.0
H262 H 0.38805 0.87845 0.9709 0.0
H263 H 0.54225 0.13346 0.07606 0.0
H264 H 0.42542 0.86666 0.96583 0.0
N265 N 0.45392 0.96714 0.98559 0.0
C266 C 0.43422 0.97538 0.98626 0.0
C267 C 0.39694 0.92913 0.97945 0.0
C268 C 0.41727 0.92105 0.97788 0.0
C269 C 0.4055 0.95648 0.98345 0.0
C270 C 0.44593 0.94087 0.98082 0.0
H271 H 0.47743 0.8822 0.96342 0.0
N272 N 0.49406 0.95451 0.97982 0.0
C273 C 0.50987 0.92383 0.96881 0.0
C274 C 0.46677 0.93426 0.9779 0.0
C275 C 0.51564 0.95002 0.97447 0.0
C276 C 0.48185 0.90243 0.96787 0.0
C277 C 0.45984 0.90763 0.97206 0.0
O278 O 0.52558 0.00812 0.96424 0.0
O279 O 0.53202 0.02682 0.01048 0.0
O280 O 0.51494 0.05366 0.02389 0.0
O281 O 0.4895 0.02761 0.99611 0.0
O282 O 0.54728 0.01242 0.98884 0.0
O283 O 0.48823 0.01159 0.96691 0.0
O284 O 0.49462 0.00936 0.06755 0.0
O285 O 0.48837 0.99303 0.0213 0.0
O286 O 0.50307 0.96529 0.00906 0.0
O287 O 0.53231 0.99253 0.03475 0.0
O288 O 0.47337 0.00723 0.0431 0.0
O289 O 0.53131 0.00513 0.06393 0.0
C290 C 0.55465 0.02979 1.00317 0.0
C291 C 0.50032 0.00384 0.93464 0.0
C292 C 0.50442 0.01169 0.89855 0.0
C293 C 0.51141 0.02179 0.91822 0.0
C294 C 0.48598 0.98349 0.89563 0.0
C295 C 0.48182 0.97588 0.93127 0.0
C296 C 0.47473 0.9658 0.91189 0.0
C297 C 0.49978 0.04982 0.00749 0.0
C298 C 0.50851 0.01439 0.95513 0.0
C299 C 0.43126 0.88736 0.97008 0.0
C300 C 0.40999 0.89408 0.97296 0.0
C301 C 0.46576 0.99017 0.02857 0.0
C302 C 0.51979 0.01142 0.0967 0.0
C303 C 0.50868 0.99266 0.11264 0.0
C304 C 0.51679 1.0015 0.13249 0.0
C305 C 0.53586 0.02946 0.13603 0.0
C306 C 0.53903 0.03902 0.1007 0.0
C307 C 0.54691 0.04798 0.12024 0.0
C308 C 0.52014 0.96949 0.02425 0.0
C309 C 0.51126 0.00205 0.07602 0.0
H310 H 0.52575 0.04344 0.92074 0.0
H311 H 0.47991 0.97515 0.88073 0.0
H312 H 0.47286 0.96182 0.94358 0.0
H313 H 0.46042 0.94416 0.90946 0.0
H314 H 0.49411 0.97123 0.10954 0.0
H315 H 0.54206 0.03714 0.15106 0.0
H316 H 0.548 0.05368 0.08878 0.0
H317 H 0.56162 0.0694 0.12316 0.0
Tb318 Tb 0.02851 0.51216 0.99074 0.0
C319 C 0.93577 0.4701 0.05414 0.0
C320 C 0.92356 0.50574 0.05676 0.0
C321 C 0.8883 0.45867 0.06434 0.0
C322 C 0.94322 0.49731 0.0518 0.0
C323 C 0.9085 0.45066 0.06098 0.0
C324 C 0.89589 0.48621 0.06239 0.0
C325 C 0.92447 0.4179 0.06397 0.0
N326 N 0.95605 0.46318 0.05152 0.0
C327 C 0.95131 0.43798 0.05754 0.0
C328 C 0.90278 0.42409 0.0653 0.0
Tb329 Tb 0.99876 0.49714 0.03992 0.0
N330 N 0.97027 0.51579 0.04636 0.0
C331 C 0.97911 0.54327 0.04694 0.0
C332 C 0.9326 0.53367 0.0569 0.0
C333 C 0.96044 0.55247 0.05195 0.0
H334 H 0.96792 0.43294 0.05672 0.0
H335 H 0.96767 0.57419 0.05217 0.0
H336 H 0.88046 0.49233 0.06592 0.0
H337 H 0.92059 0.39771 0.06799 0.0
H338 H 1.00029 0.55874 0.04333 0.0
H339 H 0.06089 0.43649 0.98111 0.0
H340 H 0.91851 0.541 0.06144 0.0
H341 H 0.06228 0.57862 0.9801 0.0
H342 H 0.02671 0.45243 0.98565 0.0
H343 H 0.11152 0.61521 0.97361 0.0
H344 H 0.86716 0.44397 0.06936 0.0
H345 H 0.11194 0.47001 0.97782 0.0
H346 H 0.15073 0.51933 0.97569 0.0
H347 H 0.88209 0.40859 0.07053 0.0
H348 H 0.16462 0.56814 0.97381 0.0
N349 N 0.05806 0.49481 0.98543 0.0
C350 C 0.04887 0.4674 0.98415 0.0
C351 C 0.09704 0.47719 0.97986 0.0
C352 C 0.10616 0.50521 0.98015 0.0
C353 C 0.06822 0.45821 0.98162 0.0
C354 C 0.08585 0.51341 0.98277 0.0
H355 H 0.15005 0.60413 0.97274 0.0
N356 N 0.07306 0.54737 0.98336 0.0
C357 C 0.1068 0.59434 0.97595 0.0
C358 C 0.09368 0.54072 0.98178 0.0
C359 C 0.07894 0.57358 0.97953 0.0
C360 C 0.12851 0.58802 0.97553 0.0
C361 C 0.122 0.56083 0.97806 0.0
O362 O 0.02161 0.5289 0.96477 0.0
O363 O 0.99464 0.50833 0.00986 0.0
O364 O 0.96948 0.4619 0.02177 0.0
O365 O 0.99385 0.46921 0.99151 0.0
O366 O 0.01173 0.54046 0.9906 0.0
O367 O 0.01545 0.48797 0.96481 0.0
O368 O 0.0352 0.51297 0.05803 0.0
O369 O 0.03036 0.49817 0.02028 0.0
O370 O 0.05879 0.54177 0.01168 0.0
O371 O 0.02848 0.54147 0.03605 0.0
O372 O 1.01005 0.46492 0.03807 0.0
O373 O 0.99418 0.49389 0.07125 0.0
C374 C 0.9922 0.52817 1.00374 0.0
C375 C 0.02936 0.51241 0.93445 0.0
C376 C 0.02501 0.50918 0.89821 0.0
C377 C 0.01251 0.50419 0.91724 0.0
C378 C 0.05465 0.52247 0.89663 0.0
C379 C 0.05887 0.52549 0.93256 0.0
C380 C 0.07142 0.53049 0.91375 0.0
C381 C 0.97229 0.45419 1.00363 0.0
C382 C 0.01566 0.50736 0.95409 0.0
C383 C 0.14264 0.55298 0.97641 0.0
C384 C 0.13473 0.52519 0.97745 0.0
C385 C 0.03052 0.47677 0.02553 0.0
C386 C 0.02991 0.49041 0.08859 0.0
C387 C 0.04281 0.50336 0.10655 0.0
C388 C 0.05173 0.49041 0.12032 0.0
C389 C 0.04818 0.46456 0.11566 0.0
C390 C 0.02596 0.46431 0.08445 0.0
C391 C 0.03534 0.45163 0.09783 0.0
C392 C 0.05321 0.55345 0.02667 0.0
C393 C 0.02105 0.5047 0.0745 0.0
H394 H 0.98969 0.49423 0.91868 0.0
H395 H 0.06484 0.52629 0.88218 0.0
H396 H 0.07224 0.53189 0.94551 0.0
H397 H 0.09422 0.54058 0.91243 0.0
H398 H 0.04537 0.52329 0.10996 0.0
H399 H 0.05533 0.45433 0.12581 0.0
H400 H 0.01559 0.45348 0.07107 0.0
H401 H 0.03252 0.43165 0.0944 0.0
Tb402 Tb 0.52229 0.50481 0.03798 0.0
C403 C 0.4748 0.54669 0.97396 0.0
C404 C 0.42559 0.51134 0.97191 0.0
C405 C 0.43919 0.55853 0.96457 0.0
C406 C 0.45403 0.51955 0.97637 0.0
C407 C 0.4677 0.56629 0.96742 0.0
C408 C 0.41818 0.53107 0.96671 0.0
C409 C 0.51756 0.59869 0.96387 0.0
N410 N 0.50219 0.55337 0.97625 0.0
C411 C 0.52354 0.57847 0.97011 0.0
C412 C 0.48952 0.59276 0.96293 0.0
Tb413 Tb 0.50959 0.51936 0.98805 0.0
N414 N 0.46197 0.50092 0.98134 0.0
C415 C 0.44246 0.47348 0.98035 0.0
C416 C 0.40563 0.48344 0.97181 0.0
C417 C 0.41413 0.46446 0.97591 0.0
H418 H 0.5453 0.58331 0.97079 0.0
H419 H 0.39889 0.44276 0.97548 0.0
H420 H 0.39637 0.52513 0.96359 0.0
H421 H 0.53458 0.61882 0.95976 0.0
H422 H 0.44784 0.45794 0.98316 0.0
H423 H 0.63294 0.57957 0.04851 0.0
H424 H 0.38383 0.47629 0.96778 0.0
H425 H 0.48629 0.43849 0.04896 0.0
H426 H 0.58259 0.56419 0.04315 0.0
H427 H 0.49683 0.40154 0.05635 0.0
H428 H 0.43329 0.57337 0.95982 0.0
H429 H 0.64856 0.54562 0.05303 0.0
H430 H 0.63557 0.49614 0.05615 0.0
H431 H 0.48492 0.60839 0.9579 0.0
H432 H 0.59848 0.44754 0.05818 0.0
N433 N 0.56949 0.52167 0.04419 0.0
C434 C 0.5889 0.54903 0.04522 0.0
C435 C 0.62635 0.53868 0.05068 0.0
C436 C 0.60622 0.51075 0.05066 0.0
C437 C 0.61759 0.5579 0.04821 0.0
C438 C 0.57761 0.50287 0.04756 0.0
H439 H 0.54654 0.41203 0.0585 0.0
N440 N 0.52962 0.46941 0.04649 0.0
C441 C 0.51394 0.42232 0.05418 0.0
C442 C 0.55692 0.4757 0.04869 0.0
C443 C 0.50804 0.4433 0.05009 0.0
C444 C 0.54204 0.42831 0.05532 0.0
C445 C 0.56396 0.45538 0.05294 0.0
O446 O 0.49682 0.48899 0.06357 0.0
O447 O 0.49295 0.50843 0.01804 0.0
O448 O 0.51679 0.55489 0.00583 0.0
O449 O 0.5329 0.54779 0.03644 0.0
O450 O 0.47644 0.47634 0.03742 0.0
O451 O 0.53341 0.52954 0.06363 0.0
O452 O 0.52921 0.50257 0.97034 0.0
O453 O 0.53933 0.51843 0.0085 0.0
O454 O 0.52257 0.4751 0.01759 0.0
O455 O 0.4933 0.47521 0.99253 0.0
O456 O 0.55437 0.55109 0.99003 0.0
O457 O 0.5095 0.52279 0.95665 0.0
C458 C 0.46989 0.48845 0.02397 0.0
C459 C 0.52006 0.50585 0.09433 0.0
C460 C 0.51548 0.50779 0.13047 0.0
C461 C 0.50926 0.51268 0.11103 0.0
C462 C 0.53274 0.49603 0.13292 0.0
C463 C 0.53737 0.49432 0.09714 0.0
C464 C 0.54362 0.48941 0.11634 0.0
C465 C 0.52726 0.5627 0.024 0.0
C466 C 0.51281 0.51068 0.07419 0.0
C467 C 0.59254 0.46287 0.05514 0.0
C468 C 0.61366 0.49054 0.05401 0.0
C469 C 0.56196 0.53942 1.00319 0.0
C470 C 0.5488 0.52497 0.93989 0.0
C471 C 0.54954 0.51142 0.92246 0.0
C472 C 0.57258 0.5242 0.90913 0.0
C473 C 0.59523 0.55034 0.91385 0.0
C474 C 0.57135 0.55137 0.94391 0.0
C475 C 0.59454 0.56376 0.9311 0.0
C476 C 0.50549 0.46343 1.00233 0.0
C477 C 0.52453 0.51118 0.95368 0.0
H478 H 0.49578 0.5215 0.10886 0.0
H479 H 0.53823 0.49235 0.14767 0.0
H480 H 0.54605 0.48911 0.08458 0.0
H481 H 0.55703 0.48053 0.11838 0.0
H482 H 0.53194 0.49124 0.91908 0.0
H483 H 0.61351 0.56045 0.90415 0.0
H484 H 0.57122 0.56265 0.95679 0.0
H485 H 0.61198 0.58398 0.93449 0.0
Tb486 Tb 0.16714 0.32652 0.32442 0.0
C487 C 0.21041 0.41657 0.38834 0.0
C488 C 0.26015 0.43192 0.39206 0.0
C489 C 0.24283 0.46332 0.39881 0.0
C490 C 0.23252 0.41151 0.38683 0.0
C491 C 0.2151 0.44229 0.39484 0.0
C492 C 0.26533 0.45809 0.39751 0.0
C493 C 0.16445 0.42324 0.39584 0.0
N494 N 0.18393 0.39547 0.38496 0.0
C495 C 0.16093 0.398 0.38972 0.0
C496 C 0.19168 0.44565 0.39807 0.0
Tb497 Tb 0.18009 0.35493 0.37469 0.0
N498 N 0.22655 0.38591 0.38167 0.0
C499 C 0.24729 0.37902 0.38251 0.0
C500 C 0.28145 0.42505 0.39251 0.0
C501 C 0.27499 0.39849 0.38771 0.0
H502 H 0.1398 0.38072 0.38827 0.0
H503 H 0.2913 0.39291 0.38818 0.0
H504 H 0.2865 0.47416 0.40131 0.0
H505 H 0.14617 0.42535 0.39894 0.0
H506 H 0.24278 0.35858 0.37902 0.0
H507 H 0.05619 0.29024 0.31112 0.0
H508 H 0.30273 0.43986 0.39712 0.0
H509 H 0.20566 0.29762 0.31355 0.0
H510 H 0.10577 0.32488 0.31767 0.0
H511 H 0.19738 0.25121 0.30629 0.0
H512 H 0.24694 0.48332 0.40363 0.0
H513 H 0.04241 0.24145 0.30756 0.0
H514 H 0.05741 0.20588 0.30545 0.0
H515 H 0.19436 0.46509 0.40304 0.0
H516 H 0.096 0.19521 0.30402 0.0
N517 N 0.12042 0.29619 0.31777 0.0
C518 C 0.10035 0.3038 0.31587 0.0
C519 C 0.06434 0.25663 0.31025 0.0
C520 C 0.08521 0.24918 0.31113 0.0
C521 C 0.07207 0.28416 0.31217 0.0
C522 C 0.11341 0.26978 0.31464 0.0
H523 H 0.14844 0.21212 0.30397 0.0
N524 N 0.16183 0.2848 0.31576 0.0
C525 C 0.17961 0.25448 0.30834 0.0
C526 C 0.13494 0.26383 0.31357 0.0
C527 C 0.18422 0.28076 0.31235 0.0
C528 C 0.15196 0.23244 0.30711 0.0
C529 C 0.12917 0.23705 0.30936 0.0
O530 O 0.19256 0.33687 0.29865 0.0
O531 O 0.19578 0.35795 0.34465 0.0
O532 O 0.17658 0.38436 0.35555 0.0
O533 O 0.15381 0.35745 0.32741 0.0
O534 O 0.21318 0.34358 0.32463 0.0
O535 O 0.15598 0.3419 0.29955 0.0
O536 O 0.15235 0.33857 0.39913 0.0
O537 O 0.15174 0.32414 0.35418 0.0
O538 O 0.16739 0.29672 0.34492 0.0
O539 O 0.19524 0.32539 0.37054 0.0
O540 O 0.13383 0.33728 0.37436 0.0
O541 O 0.19355 0.34271 0.40032 0.0
C542 C 0.21913 0.36122 0.3386 0.0
C543 C 0.16892 0.33248 0.26817 0.0
C544 C 0.17158 0.33987 0.23203 0.0
C545 C 0.17819 0.35034 0.25163 0.0
C546 C 0.15528 0.31134 0.22934 0.0
C547 C 0.15266 0.30417 0.26503 0.0
C548 C 0.14588 0.2937 0.24573 0.0
C549 C 0.16248 0.3797 0.33858 0.0
C550 C 0.1765 0.34357 0.28857 0.0
C551 C 0.10097 0.21603 0.30704 0.0
C552 C 0.079 0.2221 0.30788 0.0
C553 C 0.12808 0.32024 0.35995 0.0
C554 C 0.1735 0.34626 0.43085 0.0
C555 C 0.16851 0.32856 0.44714 0.0
C556 C 0.16801 0.33716 0.46695 0.0
C557 C 0.17256 0.36392 0.46976 0.0
C558 C 0.1794 0.37306 0.43445 0.0
C559 C 0.17878 0.38175 0.45373 0.0
C560 C 0.184 0.30193 0.36058 0.0
C561 C 0.17046 0.33601 0.41018 0.0
H562 H 0.19087 0.37224 0.25402 0.0
H563 H 0.14947 0.30264 0.21452 0.0
H564 H 0.14522 0.29014 0.27747 0.0
H565 H 0.13327 0.2718 0.24345 0.0
H566 H 0.16491 0.3082 0.44417 0.0
H567 H 0.17093 0.37129 0.4843 0.0
H568 H 0.18384 0.38718 0.42239 0.0
H569 H 0.18258 0.40229 0.45624 0.0
Tb570 Tb 0.6953 0.83969 0.32401 0.0
C571 C 0.60018 0.79746 0.38646 0.0
C572 C 0.58761 0.83275 0.38965 0.0
C573 C 0.55279 0.78548 0.39718 0.0
C574 C 0.60726 0.82448 0.38446 0.0
C575 C 0.57309 0.77771 0.39331 0.0
C576 C 0.56011 0.81302 0.39549 0.0
C577 C 0.58965 0.74527 0.39518 0.0
N578 N 0.62072 0.79103 0.38338 0.0
C579 C 0.61635 0.76577 0.38881 0.0
C580 C 0.56775 0.75113 0.3971 0.0
Tb581 Tb 0.66396 0.82599 0.37339 0.0
N582 N 0.63409 0.84296 0.37888 0.0
C583 C 0.64284 0.87036 0.37889 0.0
C584 C 0.59656 0.8607 0.38965 0.0
C585 C 0.62421 0.87956 0.3841 0.0
H586 H 0.63334 0.76124 0.38769 0.0
H587 H 0.63132 0.90126 0.38406 0.0
H588 H 0.54462 0.81895 0.39928 0.0
H589 H 0.58607 0.72506 0.39878 0.0
H590 H 0.66417 0.88543 0.37487 0.0
H591 H 0.72866 0.76402 0.31998 0.0
H592 H 0.5825 0.86797 0.39438 0.0
H593 H 0.72678 0.90246 0.30548 0.0
H594 H 0.69444 0.77993 0.32328 0.0
H595 H 0.77521 0.93842 0.29625 0.0
H596 H 0.53178 0.77057 0.40229 0.0
H597 H 0.77936 0.79733 0.31478 0.0
H598 H 0.81767 0.84634 0.30971 0.0
H599 H 0.5472 0.73534 0.40234 0.0
H600 H 0.83062 0.89434 0.30374 0.0
N601 N 0.72537 0.82236 0.32074 0.0
C602 C 0.71642 0.79493 0.32108 0.0
C603 C 0.76447 0.80458 0.3165 0.0
C604 C 0.77334 0.83247 0.31513 0.0
C605 C 0.73583 0.78571 0.31926 0.0
C606 C 0.75296 0.84072 0.31712 0.0
H607 H 0.81478 0.9289 0.29831 0.0
N608 N 0.7392 0.87362 0.31394 0.0
C609 C 0.77136 0.91862 0.30133 0.0
C610 C 0.76024 0.8675 0.31382 0.0
C611 C 0.74398 0.89823 0.30655 0.0
C612 C 0.79365 0.91321 0.30261 0.0
C613 C 0.78808 0.8871 0.30832 0.0
O614 O 0.68504 0.85218 0.2972 0.0
O615 O 0.66194 0.83686 0.34292 0.0
O616 O 0.63341 0.79288 0.35436 0.0
O617 O 0.66197 0.79627 0.32718 0.0
O618 O 0.67746 0.867 0.32198 0.0
O619 O 0.6812 0.81243 0.29976 0.0
O620 O 0.67691 0.81342 0.39882 0.0
O621 O 0.69802 0.82982 0.35473 0.0
O622 O 0.72407 0.87492 0.342 0.0
O623 O 0.69656 0.86977 0.37033 0.0
O624 O 0.68073 0.7979 0.37424 0.0
O625 O 0.67613 0.85121 0.39895 0.0
C626 C 0.65881 0.85591 0.33585 0.0
C627 C 0.6926 0.83332 0.2681 0.0
C628 C 0.68752 0.8297 0.23188 0.0
C629 C 0.67558 0.82648 0.25102 0.0
C630 C 0.71687 0.84015 0.23016 0.0
C631 C 0.72168 0.84318 0.26603 0.0
C632 C 0.73375 0.84672 0.24716 0.0
C633 C 0.63838 0.78307 0.33784 0.0
C634 C 0.67959 0.82985 0.28787 0.0
C635 C 0.80899 0.87952 0.30767 0.0
C636 C 0.8016 0.85219 0.31103 0.0
C637 C 0.70069 0.81031 0.3614 0.0
C638 C 0.66894 0.82799 0.42979 0.0
C639 C 0.68704 0.84106 0.44596 0.0
C640 C 0.67804 0.83252 0.46578 0.0
C641 C 0.65004 0.81091 0.4688 0.0
C642 C 0.64096 0.80753 0.43341 0.0
C643 C 0.6316 0.79908 0.45279 0.0
C644 C 0.71897 0.88418 0.35872 0.0
C645 C 0.68052 0.83425 0.40941 0.0
H646 H 0.65298 0.81821 0.2527 0.0
H647 H 0.72685 0.84339 0.21568 0.0
H648 H 0.73505 0.84806 0.27892 0.0
H649 H 0.75627 0.85457 0.2457 0.0
H650 H 0.7082 0.85758 0.4428 0.0
H651 H 0.64218 0.80245 0.48342 0.0
H652 H 0.62647 0.79753 0.42137 0.0
H653 H 0.61013 0.78272 0.4554 0.0
Tb654 Tb 0.19518 0.84183 0.36979 0.0
C655 C 0.14389 0.88344 0.30743 0.0
C656 C 0.09439 0.84938 0.30462 0.0
C657 C 0.10985 0.89719 0.29786 0.0
C658 C 0.12243 0.85669 0.30943 0.0
C659 C 0.138 0.90401 0.3014 0.0
C660 C 0.08809 0.86984 0.2993 0.0
C661 C 0.18832 0.93577 0.30066 0.0
N662 N 0.17081 0.88893 0.31031 0.0
C663 C 0.1931 0.9145 0.30622 0.0
C664 C 0.16063 0.93058 0.29844 0.0
Tb665 Tb 0.17647 0.85298 0.3202 0.0
N666 N 0.12943 0.83753 0.31451 0.0
C667 C 0.10927 0.81035 0.31434 0.0
C668 C 0.07379 0.82163 0.30447 0.0
C669 C 0.08123 0.80205 0.30947 0.0
H670 H 0.21459 0.91876 0.30793 0.0
H671 H 0.06542 0.78051 0.30937 0.0
H672 H 0.06659 0.86466 0.29583 0.0
H673 H 0.20601 0.95612 0.29802 0.0
H674 H 0.11454 0.79483 0.31798 0.0
H675 H 0.30731 0.91451 0.37514 0.0
H676 H 0.05227 0.81507 0.30004 0.0
H677 H 0.15821 0.7771 0.38473 0.0
H678 H 0.25721 0.90024 0.37049 0.0
H679 H 0.16752 0.74006 0.39429 0.0
H680 H 0.10482 0.91272 0.29334 0.0
H681 H 0.32148 0.88002 0.38223 0.0
H682 H 0.30707 0.83062 0.38812 0.0
H683 H 0.157 0.94702 0.29392 0.0
H684 H 0.26895 0.78293 0.39313 0.0
N685 N 0.24259 0.85763 0.37431 0.0
C686 C 0.2628 0.88478 0.37354 0.0
C687 C 0.29935 0.87351 0.38 0.0
C688 C 0.27855 0.84591 0.38156 0.0
C689 C 0.29141 0.89305 0.37614 0.0
C690 C 0.25003 0.83864 0.37884 0.0
H691 H 0.21674 0.74897 0.3957 0.0
N692 N 0.20169 0.80656 0.38017 0.0
C693 C 0.18497 0.76022 0.39076 0.0
C694 C 0.22878 0.81205 0.38179 0.0
C695 C 0.17978 0.7813 0.38541 0.0
C696 C 0.21277 0.7653 0.39148 0.0
C697 C 0.23515 0.79163 0.38734 0.0
O698 O 0.17174 0.83085 0.39649 0.0
O699 O 0.16382 0.84287 0.35082 0.0
O700 O 0.17768 0.88436 0.33981 0.0
O701 O 0.20848 0.88531 0.36419 0.0
O702 O 0.14919 0.81386 0.37242 0.0
O703 O 0.20932 0.87031 0.39333 0.0
O704 O 0.20008 0.86494 0.29356 0.0
O705 O 0.20753 0.85133 0.33906 0.0
O706 O 0.192 0.80916 0.35083 0.0
O707 O 0.16268 0.80926 0.32554 0.0
O708 O 0.22249 0.88081 0.31791 0.0
O709 O 0.16333 0.82481 0.29648 0.0
C710 C 0.14131 0.82387 0.35826 0.0
C711 C 0.19794 0.851 0.42563 0.0
C712 C 0.19402 0.85469 0.4617 0.0
C713 C 0.18651 0.85755 0.4421 0.0
C714 C 0.21307 0.84498 0.46445 0.0
C715 C 0.21707 0.84165 0.42876 0.0
C716 C 0.22453 0.83862 0.44808 0.0
C717 C 0.1954 0.89653 0.35475 0.0
C718 C 0.18931 0.85364 0.40536 0.0
C719 C 0.26356 0.79837 0.38908 0.0
C720 C 0.28526 0.82551 0.38624 0.0
C721 C 0.2302 0.87012 0.33169 0.0
C722 C 0.17436 0.84449 0.26426 0.0
C723 C 0.18727 0.83986 0.24772 0.0
C724 C 0.17972 0.84286 0.22818 0.0
C725 C 0.15896 0.85039 0.22546 0.0
C726 C 0.15366 0.85187 0.26116 0.0
C727 C 0.14602 0.8548 0.24187 0.0
C728 C 0.17449 0.79734 0.33572 0.0
C729 C 0.18312 0.84203 0.28455 0.0
H730 H 0.17205 0.86518 0.43959 0.0
H731 H 0.21893 0.84202 0.47929 0.0
H732 H 0.22619 0.83665 0.41633 0.0
H733 H 0.23918 0.83121 0.45038 0.0
H734 H 0.20343 0.83433 0.25007 0.0
H735 H 0.15246 0.85252 0.21062 0.0
H736 H 0.14339 0.85538 0.27358 0.0
H737 H 0.12998 0.86048 0.23963 0.0
Tb738 Tb 0.83257 0.65807 0.65632 0.0
C739 C 0.88229 0.74643 0.72105 0.0
C740 C 0.93162 0.75935 0.72254 0.0
C741 C 0.91729 0.79247 0.73135 0.0
C742 C 0.90325 0.74004 0.71806 0.0
C743 C 0.88887 0.77241 0.72834 0.0
C744 C 0.93866 0.78588 0.72857 0.0
C745 C 0.8388 0.75521 0.73238 0.0
N746 N 0.85513 0.7261 0.71886 0.0
C747 C 0.83343 0.72964 0.72544 0.0
C748 C 0.86664 0.77687 0.73347 0.0
Tb749 Tb 0.84799 0.68498 0.70705 0.0
N750 N 0.89543 0.71404 0.71261 0.0
C751 C 0.91507 0.70568 0.71237 0.0
C752 C 0.95177 0.751 0.72182 0.0
C753 C 0.94345 0.72405 0.71672 0.0
H754 H 0.81184 0.71297 0.72461 0.0
H755 H 0.95886 0.71731 0.71632 0.0
H756 H 0.96039 0.80113 0.7318 0.0
H757 H 0.82147 0.75815 0.73691 0.0
H758 H 0.90926 0.68495 0.70861 0.0
H759 H 0.72069 0.62321 0.64945 0.0
H760 H 0.97359 0.7649 0.72582 0.0
H761 H 0.86811 0.63 0.63732 0.0
H762 H 0.77096 0.65732 0.6536 0.0
H763 H 0.85851 0.58385 0.62747 0.0
H764 H 0.92286 0.81267 0.73673 0.0
H765 H 0.70576 0.57425 0.64518 0.0
H766 H 0.71974 0.53826 0.64026 0.0
H767 H 0.87078 0.79656 0.73908 0.0
H768 H 0.7576 0.52738 0.63425 0.0
N769 N 0.785 0.62818 0.65181 0.0
C770 C 0.76508 0.63617 0.65152 0.0
C771 C 0.728 0.58918 0.64689 0.0
C772 C 0.74858 0.58137 0.6459 0.0
C773 C 0.73637 0.61682 0.64918 0.0
C774 C 0.77722 0.6017 0.64813 0.0
H775 H 0.80962 0.54448 0.62891 0.0
N776 N 0.82533 0.61657 0.64514 0.0
C777 C 0.84136 0.58683 0.63241 0.0
C778 C 0.79826 0.59562 0.64469 0.0
C779 C 0.84671 0.61293 0.63794 0.0
C780 C 0.81376 0.56463 0.63335 0.0
C781 C 0.79165 0.56901 0.63901 0.0
O782 O 0.85711 0.67079 0.63003 0.0
O783 O 0.86206 0.68907 0.67648 0.0
O784 O 0.84349 0.71502 0.68925 0.0
O785 O 0.81952 0.68885 0.66119 0.0
O786 O 0.87858 0.67542 0.65516 0.0
O787 O 0.81929 0.67332 0.63253 0.0
O788 O 0.82306 0.67266 0.73318 0.0
O789 O 0.81878 0.65416 0.68685 0.0
O790 O 0.83857 0.62884 0.67377 0.0
O791 O 0.86102 0.6541 0.70252 0.0
O792 O 0.8019 0.66771 0.70772 0.0
O793 O 0.8598 0.66824 0.7307 0.0
C794 C 0.88515 0.69262 0.66956 0.0
C795 C 0.83179 0.66607 0.60036 0.0
C796 C 0.83308 0.67451 0.5644 0.0
C797 C 0.84066 0.68437 0.58411 0.0
C798 C 0.81676 0.64601 0.56137 0.0
C799 C 0.81518 0.63787 0.59688 0.0
C800 C 0.80785 0.62793 0.57749 0.0
C801 C 0.82886 0.71094 0.67259 0.0
C802 C 0.8398 0.67662 0.62085 0.0
C803 C 0.76318 0.5481 0.63828 0.0
C804 C 0.74163 0.55429 0.64171 0.0
C805 C 0.7955 0.65031 0.6935 0.0
C806 C 0.84779 0.67597 0.76291 0.0
C807 C 0.83715 0.65775 0.77919 0.0
C808 C 0.84528 0.66739 0.79889 0.0
C809 C 0.86382 0.69558 0.80193 0.0
C810 C 0.86655 0.70383 0.76643 0.0
C811 C 0.87438 0.71357 0.78581 0.0
C812 C 0.85303 0.63285 0.69045 0.0
C813 C 0.83955 0.66574 0.74236 0.0
H814 H 0.85307 0.7062 0.58686 0.0
H815 H 0.81105 0.6376 0.54647 0.0
H816 H 0.80785 0.62351 0.60911 0.0
H817 H 0.79521 0.60609 0.57494 0.0
H818 H 0.82299 0.63612 0.77648 0.0
H819 H 0.87002 0.70383 0.81683 0.0
H820 H 0.87525 0.71808 0.75426 0.0
H821 H 0.88872 0.73517 0.78835 0.0
Tb822 Tb 0.36166 0.17207 0.65687 0.0
C823 C 0.26585 0.12668 0.71861 0.0
C824 C 0.25353 0.16196 0.72335 0.0
C825 C 0.21827 0.11428 0.72915 0.0
C826 C 0.27319 0.15389 0.71773 0.0
C827 C 0.23848 0.10657 0.72471 0.0
C828 C 0.22585 0.14196 0.72861 0.0
C829 C 0.25432 0.07351 0.72438 0.0
N830 N 0.2862 0.1202 0.71485 0.0
C831 C 0.28131 0.09432 0.71881 0.0
C832 C 0.23266 0.07957 0.72705 0.0
Tb833 Tb 0.32983 0.15572 0.70612 0.0
N834 N 0.30015 0.1726 0.71261 0.0
C835 C 0.30903 0.20001 0.71352 0.0
C836 C 0.26258 0.18991 0.72424 0.0
C837 C 0.29038 0.209 0.71918 0.0
H838 H 0.29817 0.08969 0.71724 0.0
H839 H 0.29757 0.23069 0.71984 0.0
H840 H 0.21036 0.14776 0.73273 0.0
H841 H 0.25034 0.05291 0.72685 0.0
H842 H 0.33047 0.21521 0.70987 0.0
H843 H 0.3963 0.09756 0.65029 0.0
H844 H 0.24846 0.19698 0.72923 0.0
H845 H 0.39276 0.23586 0.64024 0.0
H846 H 0.36159 0.11276 0.65425 0.0
H847 H 0.44114 0.27264 0.63174 0.0
H848 H 0.19706 0.09912 0.73373 0.0
H849 H 0.44696 0.13152 0.64569 0.0
H850 H 0.48486 0.18091 0.64156 0.0
H851 H 0.21188 0.06352 0.73165 0.0
H852 H 0.49731 0.22902 0.63691 0.0
N853 N 0.39215 0.15539 0.6526 0.0
C854 C 0.38353 0.12803 0.65226 0.0
C855 C 0.43182 0.13844 0.64761 0.0
C856 C 0.44036 0.16629 0.64686 0.0
C857 C 0.40322 0.11921 0.65006 0.0
C858 C 0.41969 0.17411 0.64921 0.0
H859 H 0.481 0.26346 0.63287 0.0
N860 N 0.40546 0.20678 0.64731 0.0
C861 C 0.43742 0.2526 0.63606 0.0
C862 C 0.42669 0.20095 0.64667 0.0
C863 C 0.41007 0.23175 0.64087 0.0
C864 C 0.45988 0.24738 0.63681 0.0
C865 C 0.45452 0.22105 0.64159 0.0
O866 O 0.35148 0.18566 0.63055 0.0
O867 O 0.32829 0.16839 0.67612 0.0
O868 O 0.29946 0.12421 0.686 0.0
O869 O 0.32863 0.12837 0.65907 0.0
O870 O 0.34383 0.19945 0.65595 0.0
O871 O 0.34729 0.14568 0.63211 0.0
O872 O 0.34185 0.14115 0.73089 0.0
O873 O 0.3641 0.16065 0.68721 0.0
O874 O 0.39026 0.20632 0.67569 0.0
O875 O 0.36285 0.19963 0.70439 0.0
O876 O 0.34674 0.12772 0.7058 0.0
O877 O 0.34128 0.17901 0.73267 0.0
C878 C 0.32519 0.18778 0.66976 0.0
C879 C 0.35834 0.16747 0.60079 0.0
C880 C 0.35225 0.16256 0.56468 0.0
C881 C 0.34072 0.15915 0.58397 0.0
C882 C 0.38177 0.17464 0.56254 0.0
C883 C 0.38763 0.17909 0.59832 0.0
C884 C 0.39926 0.18276 0.57928 0.0
C885 C 0.30472 0.11493 0.66934 0.0
C886 C 0.3457 0.16356 0.62074 0.0
C887 C 0.47568 0.21382 0.64052 0.0
C888 C 0.46858 0.18643 0.64313 0.0
C889 C 0.36685 0.14089 0.69319 0.0
C890 C 0.33263 0.15326 0.7625 0.0
C891 C 0.34911 0.16731 0.77914 0.0
C892 C 0.33986 0.15751 0.79873 0.0
C893 C 0.31317 0.13357 0.801 0.0
C894 C 0.30575 0.13041 0.76544 0.0
C895 C 0.29611 0.12067 0.78455 0.0
C896 C 0.38523 0.21466 0.69286 0.0
C897 C 0.34505 0.1611 0.74238 0.0
H898 H 0.31802 0.14963 0.58597 0.0
H899 H 0.39139 0.17802 0.54791 0.0
H900 H 0.40151 0.18527 0.61102 0.0
H901 H 0.42193 0.19193 0.57749 0.0
H902 H 0.36929 0.18555 0.7765 0.0
H903 H 0.30535 0.12408 0.81536 0.0
H904 H 0.29243 0.11952 0.75307 0.0
H905 H 0.27562 0.10251 0.78659 0.0
Tb906 Tb 0.86072 0.1716 0.70628 0.0
C907 C 0.81369 0.21274 0.64096 0.0
C908 C 0.7645 0.17731 0.63887 0.0
C909 C 0.77822 0.22427 0.63054 0.0
C910 C 0.79288 0.18565 0.64365 0.0
C911 C 0.80668 0.23212 0.63375 0.0
C912 C 0.75717 0.19688 0.63302 0.0
C913 C 0.85659 0.26441 0.63029 0.0
N914 N 0.84107 0.21953 0.64365 0.0
C915 C 0.8625 0.24444 0.63731 0.0
C916 C 0.82857 0.25844 0.62895 0.0
Tb917 Tb 0.84827 0.18582 0.65622 0.0
N918 N 0.80072 0.16715 0.64923 0.0
C919 C 0.7812 0.13969 0.64863 0.0
C920 C 0.74451 0.14942 0.63914 0.0
C921 C 0.75293 0.13056 0.64391 0.0
H922 H 0.88426 0.24935 0.63826 0.0
H923 H 0.73766 0.10885 0.64381 0.0
H924 H 0.7354 0.19085 0.62964 0.0
H925 H 0.87367 0.28439 0.62595 0.0
H926 H 0.78651 0.12424 0.65207 0.0
H927 H 0.97083 0.24743 0.71747 0.0
H928 H 0.72276 0.14215 0.63491 0.0
H929 H 0.82539 0.10522 0.71714 0.0
H930 H 0.92036 0.23139 0.71188 0.0
H931 H 0.83655 0.0687 0.72467 0.0
H932 H 0.77239 0.23895 0.62528 0.0
H933 H 0.98714 0.21398 0.72197 0.0
H934 H 0.97484 0.16468 0.72508 0.0
H935 H 0.82404 0.27388 0.62338 0.0
H936 H 0.93823 0.1159 0.72698 0.0
N937 N 0.90792 0.18903 0.71279 0.0
C938 C 0.92699 0.21646 0.71396 0.0
C939 C 0.96488 0.20676 0.71956 0.0
C940 C 0.94506 0.17874 0.71944 0.0
C941 C 0.95574 0.2257 0.71709 0.0
C942 C 0.91638 0.17049 0.71621 0.0
H943 H 0.88646 0.07987 0.72709 0.0
N944 N 0.86858 0.13655 0.71487 0.0
C945 C 0.85347 0.08959 0.72256 0.0
C946 C 0.89597 0.14322 0.71723 0.0
C947 C 0.84722 0.11032 0.71839 0.0
C948 C 0.88168 0.09596 0.72386 0.0
C949 C 0.90336 0.12316 0.72155 0.0
O950 O 0.83553 0.15555 0.73197 0.0
O951 O 0.83137 0.17462 0.68609 0.0
O952 O 0.85391 0.22095 0.67387 0.0
O953 O 0.87047 0.21438 0.70448 0.0
O954 O 0.81489 0.14285 0.70568 0.0
O955 O 0.87125 0.19665 0.7317 0.0
O956 O 0.86959 0.17029 0.63906 0.0
O957 O 0.87803 0.18552 0.67694 0.0
O958 O 0.86161 0.14208 0.68594 0.0
O959 O 0.83233 0.14177 0.66075 0.0
O960 O 0.89272 0.21828 0.6586 0.0
O961 O 0.84742 0.18763 0.62473 0.0
C962 C 0.80833 0.15469 0.69202 0.0
C963 C 0.85884 0.17351 0.7626 0.0
C964 C 0.85707 0.17898 0.79864 0.0
C965 C 0.85003 0.18269 0.77911 0.0
C966 C 0.87304 0.16589 0.80131 0.0
C967 C 0.87485 0.16066 0.76563 0.0
C968 C 0.88188 0.15687 0.7849 0.0
C969 C 0.86414 0.2289 0.69212 0.0
C970 C 0.85108 0.17757 0.7424 0.0
C971 C 0.93202 0.13103 0.72389 0.0
C972 C 0.95286 0.1588 0.72284 0.0
C973 C 0.90046 0.20684 0.67185 0.0
C974 C 0.88751 0.19151 0.608 0.0
C975 C 0.88725 0.17865 0.58995 0.0
C976 C 0.9098 0.19171 0.57628 0.0
C977 C 0.9329 0.21749 0.58117 0.0
C978 C 0.9106 0.2175 0.6123 0.0
C979 C 0.93322 0.23024 0.59904 0.0
C980 C 0.84477 0.13028 0.67059 0.0
C981 C 0.86377 0.17735 0.62216 0.0
H982 H 0.838 0.19298 0.77671 0.0
H983 H 0.87844 0.1623 0.81612 0.0
H984 H 0.88187 0.15349 0.7532 0.0
H985 H 0.89414 0.1468 0.78712 0.0
H986 H 0.8693 0.15875 0.58642 0.0
H987 H 0.9508 0.22781 0.57115 0.0
H988 H 0.91137 0.22815 0.62578 0.0
H989 H 0.95105 0.25014 0.60262 0.0
C990 C 0.31435 0.85197 0.04279 0.0
C991 C 0.31284 0.84578 0.06321 0.0
C992 C 0.33882 0.87407 0.03447 0.0
C993 C 0.36231 0.89049 0.04685 0.0
C994 C 0.36117 0.88392 0.06735 0.0
C995 C 0.3366 0.86163 0.07522 0.0
C996 C 0.33944 0.88007 0.01249 0.0
C997 C 0.38573 0.90086 0.08112 0.0
C998 C 0.43689 0.93877 0.0282 0.0
C999 C 0.43837 0.96426 0.02975 0.0
C1000 C 0.41163 0.91433 0.03229 0.0
C1001 C 0.38757 0.91548 0.03886 0.0
C1002 C 0.38875 0.94114 0.03988 0.0
C1003 C 0.41415 0.96519 0.03533 0.0
C1004 C 0.41125 0.88746 0.03058 0.0
C1005 C 0.36367 0.94337 0.04684 0.0
H1006 H 0.29612 0.83999 0.03337 0.0
H1007 H 0.33596 0.85668 0.0909 0.0
H1008 H 0.34381 0.90133 0.01022 0.0
H1009 H 0.35681 0.87845 0.00522 0.0
H1010 H 0.31924 0.86576 0.00495 0.0
H1011 H 0.38174 0.8927 0.09658 0.0
H1012 H 0.40516 0.90153 0.07545 0.0
H1013 H 0.38992 0.92226 0.08153 0.0
H1014 H 0.45564 0.93785 0.02451 0.0
H1015 H 0.41537 0.98491 0.03679 0.0
H1016 H 0.39163 0.87187 0.0231 0.0
H1017 H 0.41159 0.87968 0.04572 0.0
H1018 H 0.42978 0.88963 0.02211 0.0
H1019 H 0.34448 0.92915 0.03828 0.0
H1020 H 0.36725 0.96449 0.04522 0.0
H1021 H 0.35936 0.93735 0.06277 0.0
C1022 C 0.17064 0.4649 0.04546 0.0
C1023 C 0.1763 0.46831 0.06604 0.0
C1024 C 0.14817 0.46713 0.03709 0.0
C1025 C 0.13067 0.47274 0.04953 0.0
C1026 C 0.13659 0.47677 0.07022 0.0
C1027 C 0.15934 0.47473 0.07815 0.0
C1028 C 0.14297 0.46324 0.01492 0.0
C1029 C 0.11848 0.48271 0.0841 0.0
C1030 C 0.08342 0.49935 0.02947 0.0
C1031 C 0.05677 0.4755 0.02911 0.0
C1032 C 0.10787 0.49858 0.03505 0.0
C1033 C 0.10555 0.47348 0.0412 0.0
C1034 C 0.07869 0.44927 0.04069 0.0
C1035 C 0.05471 0.45058 0.03462 0.0
C1036 C 0.13599 0.52487 0.03504 0.0
C1037 C 0.07508 0.4221 0.04727 0.0
H1038 H 0.18333 0.45977 0.03591 0.0
H1039 H 0.16377 0.47812 0.09396 0.0
H1040 H 0.12094 0.44679 0.01195 0.0
H1041 H 0.14556 0.48236 0.00822 0.0
H1042 H 0.15772 0.45795 0.00734 0.0
H1043 H 0.12614 0.48586 0.09975 0.0
H1044 H 0.11811 0.50128 0.07907 0.0
H1045 H 0.09635 0.46544 0.08377 0.0
H1046 H 0.08519 0.51884 0.02587 0.0
H1047 H 0.0341 0.43216 0.03471 0.0
H1048 H 0.15219 0.52192 0.02722 0.0
H1049 H 0.14328 0.53091 0.05061 0.0
H1050 H 0.13474 0.54192 0.02771 0.0
H1051 H 0.08997 0.41765 0.03903 0.0
H1052 H 0.05319 0.40493 0.04487 0.0
H1053 H 0.0802 0.42301 0.06336 0.0
C1054 C 0.57544 0.71064 0.06875 0.0
C1055 C 0.55335 0.71652 0.06852 0.0
C1056 C 0.57169 0.68598 0.06094 0.0
C1057 C 0.5451 0.66665 0.05291 0.0
C1058 C 0.52278 0.67259 0.05247 0.0
C1059 C 0.52723 0.69758 0.06019 0.0
C1060 C 0.5961 0.68051 0.06143 0.0
C1061 C 0.49407 0.65234 0.04418 0.0
C1062 C 0.54137 0.61169 0.01829 0.0
C1063 C 0.53226 0.58941 0.03129 0.0
C1064 C 0.54558 0.63698 0.02509 0.0
C1065 C 0.5405 0.63996 0.04539 0.0
C1066 C 0.53138 0.61751 0.05861 0.0
C1067 C 0.52753 0.59252 0.05141 0.0
C1068 C 0.55571 0.66056 0.0106 0.0
C1069 C 0.52552 0.61982 0.08033 0.0
H1070 H 0.59576 0.72546 0.07495 0.0
H1071 H 0.51009 0.70206 0.06013 0.0
H1072 H 0.59044 0.66216 0.07068 0.0
H1073 H 0.60061 0.67611 0.04616 0.0
H1074 H 0.61567 0.69807 0.06757 0.0
H1075 H 0.4791 0.66027 0.04464 0.0
H1076 H 0.49614 0.64726 0.02852 0.0
H1077 H 0.48487 0.63299 0.05285 0.0
H1078 H 0.54583 0.60956 1.00292 0.0
H1079 H 0.52031 0.57524 0.06148 0.0
H1080 H 0.57633 0.67778 0.01562 0.0
H1081 H 0.54052 0.6682 0.01017 0.0
H1082 H 0.55824 0.65471 0.99523 0.0
H1083 H 0.54494 0.63604 0.08763 0.0
H1084 H 0.5182 0.60031 0.08858 0.0
H1085 H 0.50912 0.62588 0.08164 0.0
C1086 C 0.86702 0.3053 0.95952 0.0
C1087 C 0.83883 0.29945 0.9593 0.0
C1088 C 0.88876 0.33023 0.96704 0.0
C1089 C 0.88224 0.35 0.97435 0.0
C1090 C 0.85377 0.34414 0.97432 0.0
C1091 C 0.83237 0.31883 0.96692 0.0
C1092 C 0.91873 0.33546 0.96708 0.0
C1093 C 0.84601 0.36477 0.98183 0.0
C1094 C 0.93489 0.4053 0.00916 0.0
C1095 C 0.94963 0.42743 0.99613 0.0
C1096 C 0.91284 0.38006 1.00233 0.0
C1097 C 0.90529 0.37684 0.9819 0.0
C1098 C 0.92021 0.39912 0.96862 0.0
C1099 C 0.94232 0.42408 0.97587 0.0
C1100 C 0.89784 0.35675 0.01695 0.0
C1101 C 0.9127 0.39663 0.94676 0.0
H1102 H 0.87206 0.29021 0.95388 0.0
H1103 H 0.81064 0.31446 0.96665 0.0
H1104 H 0.93238 0.35363 0.95776 0.0
H1105 H 0.92738 0.34005 0.98246 0.0
H1106 H 0.92016 0.31771 0.96133 0.0
H1107 H 0.8229 0.35704 0.9809 0.0
H1108 H 0.85279 0.37011 0.99757 0.0
H1109 H 0.8573 0.38393 0.97298 0.0
H1110 H 0.94098 0.40749 0.02465 0.0
H1111 H 0.95357 0.44118 0.96572 0.0
H1112 H 0.9005 0.33925 0.01236 0.0
H1113 H 0.87482 0.34944 0.01695 0.0
H1114 H 0.90595 0.36274 0.0324 0.0
H1115 H 0.91533 0.38017 0.93984 0.0
H1116 H 0.926 0.416 0.93847 0.0
H1117 H 0.89016 0.39081 0.94502 0.0
C1118 C 0.69149 0.53674 0.95314 0.0
C1119 C 0.71508 0.54333 0.96526 0.0
C1120 C 0.66696 0.53559 0.96089 0.0
C1121 C 0.66551 0.54064 0.98142 0.0
C1122 C 0.68874 0.54631 0.99393 0.0
C1123 C 0.71324 0.5477 0.98572 0.0
C1124 C 0.64277 0.52954 0.94695 0.0
C1125 C 0.68779 0.55118 0.01598 0.0
C1126 C 0.61343 0.56465 0.99474 0.0
C1127 C 0.58937 0.54013 1.00041 0.0
C1128 C 0.63865 0.56529 0.98924 0.0
C1129 C 0.63997 0.5408 0.98949 0.0
C1130 C 0.61601 0.51614 0.99589 0.0
C1131 C 0.59091 0.51602 1.00086 0.0
C1132 C 0.66349 0.59199 0.98231 0.0
C1133 C 0.6164 0.48958 0.99672 0.0
H1134 H 0.69219 0.53258 0.93744 0.0
H1135 H 0.73123 0.55292 0.99527 0.0
H1136 H 0.62309 0.5113 0.95222 0.0
H1137 H 0.6388 0.54701 0.94686 0.0
H1138 H 0.64702 0.52577 0.9314 0.0
H1139 H 0.70785 0.55616 0.02363 0.0
H1140 H 0.68346 0.5682 0.01845 0.0
H1141 H 0.67025 0.53261 0.023 0.0
H1142 H 0.61223 0.58326 0.99402 0.0
H1143 H 0.57229 0.49682 0.00456 0.0
H1144 H 0.66756 0.59045 0.96628 0.0
H1145 H 0.68285 0.5963 0.99063 0.0
H1146 H 0.65981 0.60953 0.98429 0.0
H1147 H 0.61671 0.48249 0.98134 0.0
H1148 H 0.59761 0.47322 0.00461 0.0
H1149 H 0.63576 0.49258 0.00437 0.0
C1150 C 0.501 0.18465 0.97029 0.0
C1151 C 0.47433 0.17876 0.96333 0.0
C1152 C 0.50523 0.16396 0.97819 0.0
C1153 C 0.48215 0.13685 0.97933 0.0
C1154 C 0.45501 0.13092 0.9728 0.0
C1155 C 0.45146 0.15197 0.96476 0.0
C1156 C 0.53453 0.17095 0.98483 0.0
C1157 C 0.42985 0.1023 0.97403 0.0
C1158 C 0.49749 0.07831 0.98017 0.0
C1159 C 0.49519 0.07204 1.00054 0.0
C1160 C 0.49345 0.09948 0.97307 0.0
C1161 C 0.48663 0.11449 0.9867 0.0
C1162 C 0.48407 0.10809 0.00728 0.0
C1163 C 0.48844 0.08691 0.01394 0.0
C1164 C 0.49666 0.10589 0.95103 0.0
C1165 C 0.47645 0.1234 0.02222 0.0
H1166 H 0.51873 0.20535 0.96901 0.0
H1167 H 0.43077 0.1475 0.95958 0.0
H1168 H 0.53404 0.1647 1.00058 0.0
H1169 H 0.54207 0.15945 0.9757 0.0
H1170 H 0.55002 0.19319 0.98347 0.0
H1171 H 0.40993 0.1014 0.9692 0.0
H1172 H 0.43349 0.08829 0.96448 0.0
H1173 H 0.42711 0.09452 0.98955 0.0
H1174 H 0.50291 0.06691 0.96979 0.0
H1175 H 0.48579 0.08154 0.02953 0.0
H1176 H 0.51336 0.12751 0.94858 0.0
H1177 H 0.47666 0.10352 0.94496 0.0
H1178 H 0.50227 0.0924 0.94247 0.0
H1179 H 0.49212 0.14561 0.02157 0.0
H1180 H 0.47566 0.1161 0.03773 0.0
H1181 H 0.45552 0.12095 0.01846 0.0
C1182 C 0.69552 0.16123 0.96707 0.0
C1183 C 0.71599 0.17434 0.98195 0.0
C1184 C 0.66849 0.13919 0.97174 0.0
C1185 C 0.66198 0.12966 0.99169 0.0
C1186 C 0.68252 0.14321 0.00675 0.0
C1187 C 0.70919 0.16532 1.00171 0.0
C1188 C 0.64726 0.12546 0.95519 0.0
C1189 C 0.67669 0.13389 0.02812 0.0
C1190 C 0.58434 0.08114 0.00475 0.0
C1191 C 0.58235 0.05549 1.00264 0.0
C1192 C 0.61026 0.10553 1.00187 0.0
C1193 C 0.63467 0.10421 0.99644 0.0
C1194 C 0.63278 0.07828 0.99471 0.0
C1195 C 0.60663 0.0543 0.99767 0.0
C1196 C 0.61126 0.13264 1.004 0.0
C1197 C 0.65827 0.07581 0.98929 0.0
H1198 H 0.7009 0.16782 0.95171 0.0
H1199 H 0.7251 0.17513 0.0132 0.0
H1200 H 0.64315 0.10425 0.95309 0.0
H1201 H 0.62684 0.12403 0.95921 0.0
H1202 H 0.65472 0.13661 0.94081 0.0
H1203 H 0.69516 0.14604 0.03798 0.0
H1204 H 0.65864 0.13581 0.03369 0.0
H1205 H 0.67079 0.11202 0.02912 0.0
H1206 H 0.5655 0.08218 0.00811 0.0
H1207 H 0.60504 0.03446 0.99584 0.0
H1208 H 0.61573 0.14296 0.98927 0.0
H1209 H 0.62862 0.14629 0.0142 0.0
H1210 H 0.59106 0.13022 0.00982 0.0
H1211 H 0.66579 0.08435 0.97415 0.0
H1212 H 0.65358 0.05423 0.98949 0.0
H1213 H 0.67583 0.08788 0.99983 0.0
C1214 C 0.8567 0.53642 0.96862 0.0
C1215 C 0.84376 0.54307 0.98401 0.0
C1216 C 0.87904 0.53129 0.97261 0.0
C1217 C 0.88905 0.5333 0.99242 0.0
C1218 C 0.87542 0.53929 0.00801 0.0
C1219 C 0.85305 0.54405 1.00364 0.0
C1220 C 0.89272 0.52486 0.95549 0.0
C1221 C 0.88513 0.54167 0.02928 0.0
C1222 C 0.93889 0.50555 0.00426 0.0
C1223 C 0.96554 0.52929 1.00276 0.0
C1224 C 0.91378 0.50651 1.00136 0.0
C1225 C 0.91531 0.53175 0.99656 0.0
C1226 C 0.94225 0.55579 0.99534 0.0
C1227 C 0.96691 0.55421 0.99832 0.0
C1228 C 0.88567 0.48038 1.00296 0.0
C1229 C 0.94509 0.58324 0.9906 0.0
H1230 H 0.84991 0.53606 0.95338 0.0
H1231 H 0.84339 0.54951 0.01558 0.0
H1232 H 0.91466 0.54201 0.95337 0.0
H1233 H 0.89402 0.50625 0.95886 0.0
H1234 H 0.88096 0.52158 0.9413 0.0
H1235 H 0.87258 0.54674 0.0397 0.0
H1236 H 0.88325 0.522 0.03401 0.0
H1237 H 0.9077 0.5578 0.03042 0.0
H1238 H 0.93769 0.48611 0.0073 0.0
H1239 H 0.98747 0.57257 0.997 0.0
H1240 H 0.87494 0.4754 0.98825 0.0
H1241 H 0.87171 0.48303 0.01366 0.0
H1242 H 0.88799 0.46279 0.00791 0.0
H1243 H 0.93606 0.58258 0.97566 0.0
H1244 H 0.96746 0.60011 0.99077 0.0
H1245 H 0.93295 0.58803 1.00158 0.0
C1246 C 0.48441 0.31967 0.96379 0.0
C1247 C 0.47248 0.30059 0.97935 0.0
C1248 C 0.49039 0.34675 0.96627 0.0
C1249 C 0.48347 0.35459 0.98452 0.0
C1250 C 0.47074 0.33521 1.00008 0.0
C1251 C 0.46537 0.3084 0.99728 0.0
C1252 C 0.50423 0.36698 0.94945 0.0
C1253 C 0.46273 0.34279 0.01966 0.0
C1254 C 0.52075 0.42876 1.00063 0.0
C1255 C 0.5005 0.43633 0.99612 0.0
C1256 C 0.51581 0.40245 0.9964 0.0
C1257 C 0.48988 0.38317 0.98755 0.0
C1258 C 0.46965 0.39089 0.98245 0.0
C1259 C 0.47531 0.41753 0.98669 0.0
C1260 C 0.53804 0.39511 1.00191 0.0
C1261 C 0.44162 0.37072 0.97321 0.0
H1262 H 0.48914 0.31343 0.94969 0.0
H1263 H 0.45544 0.29342 0.00909 0.0
H1264 H 0.49053 0.37533 0.9448 0.0
H1265 H 0.52456 0.38452 0.9546 0.0
H1266 H 0.50843 0.35763 0.93626 0.0
H1267 H 0.45238 0.32511 0.03006 0.0
H1268 H 0.48186 0.35935 0.02701 0.0
H1269 H 0.4481 0.35077 0.01697 0.0
H1270 H 0.54046 0.44339 0.00769 0.0
H1271 H 0.4596 0.42327 0.98326 0.0
H1272 H 0.54312 0.38626 0.98885 0.0
H1273 H 0.52979 0.37932 0.01381 0.0
H1274 H 0.55786 0.4131 0.00734 0.0
H1275 H 0.44503 0.36167 0.95954 0.0
H1276 H 0.42877 0.38033 0.96929 0.0
H1277 H 0.42933 0.35366 0.98378 0.0
C1278 C 0.16961 0.71044 0.02889 0.0
C1279 C 0.18483 0.71987 0.04673 0.0
C1280 C 0.14826 0.68299 0.02667 0.0
C1281 C 0.14187 0.66448 0.04274 0.0
C1282 C 0.15706 0.67389 0.06086 0.0
C1283 C 0.17811 0.70157 0.06273 0.0
C1284 C 0.13237 0.67385 0.00718 0.0
C1285 C 0.15103 0.65474 0.07825 0.0
C1286 C 0.06946 0.5998 0.04164 0.0
C1287 C 0.07585 0.58104 0.03278 0.0
C1288 C 0.09084 0.6269 0.04542 0.0
C1289 C 0.11929 0.63528 0.04045 0.0
C1290 C 0.12595 0.61603 0.03229 0.0
C1291 C 0.10417 0.58921 0.02855 0.0
C1292 C 0.08284 0.64686 0.05399 0.0
C1293 C 0.15596 0.62394 0.0269 0.0
H1294 H 0.17427 0.7247 0.01668 0.0
H1295 H 0.18928 0.70894 0.07674 0.0
H1296 H 0.13513 0.65734 1.00048 0.0
H1297 H 0.10939 0.66525 0.00985 0.0
H1298 H 0.13963 0.69087 0.99624 0.0
H1299 H 0.16509 0.66513 0.09117 0.0
H1300 H 0.12873 0.64605 0.08312 0.0
H1301 H 0.1538 0.63732 0.07364 0.0
H1302 H 0.04767 0.59367 0.04492 0.0
H1303 H 0.10933 0.57467 0.02199 0.0
H1304 H 0.08745 0.66322 0.04293 0.0
H1305 H 0.09566 0.65691 0.06745 0.0
H1306 H 0.06007 0.6368 0.05806 0.0
H1307 H 0.1634 0.63885 0.01441 0.0
H1308 H 0.15786 0.60599 0.0223 0.0
H1309 H 0.17025 0.63406 0.03973 0.0
C1310 C 0.32546 0.47623 0.06102 0.0
C1311 C 0.30523 0.46986 0.04601 0.0
C1312 C 0.35325 0.48231 0.05638 0.0
C1313 C 0.36094 0.48157 0.03625 0.0
C1314 C 0.34076 0.47603 0.02104 0.0
C1315 C 0.31327 0.47024 0.02608 0.0
C1316 C 0.37399 0.48828 0.07312 0.0
C1317 C 0.34777 0.47497 0.99946 0.0
C1318 C 0.43953 0.51062 0.02381 0.0
C1319 C 0.44193 0.48699 0.02461 0.0
C1320 C 0.41325 0.50922 0.02702 0.0
C1321 C 0.38885 0.48363 0.03138 0.0
C1322 C 0.39121 0.4597 0.03169 0.0
C1323 C 0.41766 0.46173 0.02847 0.0
C1324 C 0.41185 0.53525 0.0264 0.0
C1325 C 0.36587 0.4319 0.0359 0.0
H1326 H 0.31926 0.47558 0.07647 0.0
H1327 H 0.29768 0.46502 0.0144 0.0
H1328 H 0.37856 0.47125 0.07445 0.0
H1329 H 0.3943 0.5072 0.06986 0.0
H1330 H 0.36579 0.49076 0.08768 0.0
H1331 H 0.33018 0.47143 0.98931 0.0
H1332 H 0.36682 0.4945 0.99521 0.0
H1333 H 0.35263 0.45825 0.99728 0.0
H1334 H 0.45834 0.5303 0.02122 0.0
H1335 H 0.4195 0.44346 0.02926 0.0
H1336 H 0.40736 0.53996 0.04158 0.0
H1337 H 0.39437 0.5327 0.01657 0.0
H1338 H 0.43193 0.55297 0.02099 0.0
H1339 H 0.35777 0.4316 0.05113 0.0
H1340 H 0.37095 0.41517 0.03474 0.0
H1341 H 0.34858 0.42766 0.02527 0.0
C1342 C 0.54441 0.84829 0.06259 0.0
C1343 C 0.55912 0.8422 0.04819 0.0
C1344 C 0.5372 0.86858 0.05912 0.0
C1345 C 0.54571 0.8837 0.04111 0.0
C1346 C 0.56112 0.87807 0.02672 0.0
C1347 C 0.56765 0.85737 0.03046 0.0
C1348 C 0.52054 0.87388 0.07472 0.0
C1349 C 0.57097 0.89412 0.0075 0.0
C1350 C 0.50773 0.92056 0.02316 0.0
C1351 C 0.52627 0.94752 0.02931 0.0
C1352 C 0.51361 0.89951 0.02711 0.0
C1353 C 0.53874 0.90563 0.03737 0.0
C1354 C 0.5574 0.93275 0.04382 0.0
C1355 C 0.55082 0.95336 0.03984 0.0
C1356 C 0.49301 0.8708 0.02019 0.0
C1357 C 0.58456 0.94009 0.05461 0.0
H1358 H 0.53848 0.83716 0.07658 0.0
H1359 H 0.57966 0.85314 0.01957 0.0
H1360 H 0.53302 0.89526 0.08019 0.0
H1361 H 0.50082 0.87151 0.06807 0.0
H1362 H 0.51482 0.85977 0.08766 0.0
H1363 H 0.58277 0.88719 0.99787 0.0
H1364 H 0.55256 0.89206 0.99902 0.0
H1365 H 0.58487 0.91621 0.01081 0.0
H1366 H 0.48849 0.91583 0.01527 0.0
H1367 H 0.56523 0.97415 0.0446 0.0
H1368 H 0.48618 0.85644 0.03301 0.0
H1369 H 0.5035 0.86394 0.00931 0.0
H1370 H 0.47395 0.86935 0.01303 0.0
H1371 H 0.57992 0.92764 0.06837 0.0
H1372 H 0.59667 0.96211 0.05873 0.0
H1373 H 0.59812 0.93531 0.04503 0.0
C1374 C 0.99383 0.20017 0.40775 0.0
C1375 C 0.97968 0.17422 0.39855 0.0
C1376 C 0.01815 0.22218 0.39938 0.0
C1377 C 0.02745 0.21944 0.38026 0.0
C1378 C 0.01256 0.19401 0.37021 0.0
C1379 C 0.98962 0.17157 0.37972 0.0
C1380 C 0.0341 0.2483 0.41134 0.0
C1381 C 0.02064 0.18999 0.34946 0.0
C1382 C 0.07561 0.29064 0.35952 0.0
C1383 C 0.10229 0.29304 0.36133 0.0
C1384 C 0.05084 0.26565 0.36341 0.0
C1385 C 0.05291 0.24337 0.37128 0.0
C1386 C 0.07991 0.24566 0.37294 0.0
C1387 C 0.1042 0.2703 0.36756 0.0
C1388 C 0.02254 0.2634 0.35948 0.0
C1389 C 0.0834 0.22273 0.38144 0.0
H1390 H 0.98621 0.20376 0.42165 0.0
H1391 H 0.97976 0.15199 0.3722 0.0
H1392 H 0.05725 0.25626 0.41059 0.0
H1393 H 0.03 0.26421 0.40517 0.0
H1394 H 0.02762 0.24522 0.42728 0.0
H1395 H 1.00146 0.17609 0.34072 0.0
H1396 H 0.03267 0.20953 0.34117 0.0
H1397 H 0.03376 0.18008 0.35047 0.0
H1398 H 0.07412 0.30832 0.35491 0.0
H1399 H 0.12482 0.27234 0.36964 0.0
H1400 H 0.01415 0.26711 0.37347 0.0
H1401 H 1.007 0.24262 0.354 0.0
H1402 H 0.02435 0.27875 0.34831 0.0
H1403 H 0.07183 0.21552 0.39579 0.0
H1404 H 0.10596 0.22901 0.38397 0.0
H1405 H 0.07434 0.2052 0.37096 0.0
C1406 C 0.83435 0.81644 0.41232 0.0
C1407 C 0.85072 0.80912 0.40037 0.0
C1408 C 0.81155 0.81835 0.40437 0.0
C1409 C 0.80497 0.81324 0.38382 0.0
C1410 C 0.82215 0.80708 0.37148 0.0
C1411 C 0.84468 0.80498 0.37988 0.0
C1412 C 0.79386 0.82493 0.41816 0.0
C1413 C 0.81633 0.80208 0.34946 0.0
C1414 C 0.7277 0.78707 0.37064 0.0
C1415 C 0.72803 0.81103 0.36462 0.0
C1416 C 0.75268 0.78739 0.37623 0.0
C1417 C 0.77886 0.81232 0.37576 0.0
C1418 C 0.77945 0.83648 0.36905 0.0
C1419 C 0.75398 0.83565 0.36395 0.0
C1420 C 0.75085 0.76116 0.38341 0.0
C1421 C 0.80684 0.8634 0.36783 0.0
H1422 H 0.83914 0.82038 0.42806 0.0
H1423 H 0.85696 0.79919 0.37044 0.0
H1424 H 0.79284 0.8429 0.41249 0.0
H1425 H 0.77187 0.80738 0.41862 0.0
H1426 H 0.80232 0.82935 0.4336 0.0
H1427 H 0.83207 0.79829 0.34174 0.0
H1428 H 0.79494 0.78415 0.34708 0.0
H1429 H 0.81664 0.82006 0.34249 0.0
H1430 H 0.70763 0.76807 0.37142 0.0
H1431 H 0.75435 0.85439 0.3598 0.0
H1432 H 0.75734 0.76334 0.39929 0.0
H1433 H 0.76559 0.75691 0.37478 0.0
H1434 H 0.72914 0.74328 0.38202 0.0
H1435 H 0.81453 0.87105 0.38309 0.0
H1436 H 0.8043 0.8792 0.35966 0.0
H1437 H 0.82334 0.86068 0.36025 0.0
C1438 C 0.20342 0.02446 0.41076 0.0
C1439 C 0.2184 0.04905 0.40013 0.0
C1440 C 0.19927 0.99971 0.40279 0.0
C1441 C 0.21079 0.99968 0.38386 0.0
C1442 C 0.22582 0.02445 0.37301 0.0
C1443 C 0.22926 0.04884 0.38122 0.0
C1444 C 0.1827 0.97364 0.41466 0.0
C1445 C 0.23874 0.02526 0.35292 0.0
C1446 C 0.22331 0.94033 0.37359 0.0
C1447 C 0.20005 0.92341 0.36156 0.0
C1448 C 0.2274 0.96553 0.38057 0.0
C1449 C 0.20752 0.97375 0.37565 0.0
C1450 C 0.1841 0.95683 0.36338 0.0
C1451 C 0.18073 0.93192 0.3564 0.0
C1452 C 0.25287 0.98322 0.39338 0.0
C1453 C 0.16223 0.96468 0.35799 0.0
H1454 H 0.19482 0.02459 0.42532 0.0
H1455 H 0.24108 0.06792 0.37308 0.0
H1456 H 0.16475 0.95816 0.40566 0.0
H1457 H 0.1964 0.96489 0.4183 0.0
H1458 H 0.17425 0.97702 0.42879 0.0
H1459 H 0.24939 0.04611 0.34626 0.0
H1460 H 0.25447 0.01839 0.35445 0.0
H1461 H 0.2222 0.01096 0.34246 0.0
H1462 H 0.23839 0.93394 0.37754 0.0
H1463 H 0.16254 0.91884 0.34725 0.0
H1464 H 0.24589 0.98557 0.40843 0.0
H1465 H 0.26518 0.00401 0.3868 0.0
H1466 H 0.26705 0.97449 0.39505 0.0
H1467 H 0.15177 0.96622 0.37173 0.0
H1468 H 0.14575 0.94961 0.3478 0.0
H1469 H 0.17253 0.9851 0.35072 0.0
C1470 C 0.53241 0.63575 0.29191 0.0
C1471 C 0.50403 0.62926 0.293 0.0
C1472 C 0.55435 0.66078 0.29913 0.0
C1473 C 0.54785 0.67993 0.3077 0.0
C1474 C 0.51924 0.67346 0.30902 0.0
C1475 C 0.49766 0.64817 0.30172 0.0
C1476 C 0.58451 0.66671 0.2976 0.0
C1477 C 0.51147 0.69335 0.31804 0.0
C1478 C 0.60236 0.73364 0.34251 0.0
C1479 C 0.61571 0.75661 0.33008 0.0
C1480 C 0.58004 0.70868 0.33551 0.0
C1481 C 0.57104 0.70656 0.31546 0.0
C1482 C 0.58478 0.72967 0.30272 0.0
C1483 C 0.60706 0.75441 0.31018 0.0
C1484 C 0.56628 0.68451 0.34955 0.0
C1485 C 0.57589 0.72829 0.28125 0.0
H1486 H 0.53749 0.62107 0.2855 0.0
H1487 H 0.47583 0.64341 0.30247 0.0
H1488 H 0.5973 0.68562 0.28874 0.0
H1489 H 0.59411 0.67037 0.31266 0.0
H1490 H 0.58601 0.64968 0.2905 0.0
H1491 H 0.48827 0.68529 0.31796 0.0
H1492 H 0.51914 0.69801 0.33365 0.0
H1493 H 0.52198 0.71295 0.30965 0.0
H1494 H 0.60983 0.7349 0.35756 0.0
H1495 H 0.61743 0.7722 0.30054 0.0
H1496 H 0.56913 0.66759 0.34379 0.0
H1497 H 0.54319 0.67672 0.35041 0.0
H1498 H 0.57523 0.68978 0.36484 0.0
H1499 H 0.57828 0.71237 0.27321 0.0
H1500 H 0.58852 0.74814 0.27337 0.0
H1501 H 0.55321 0.7223 0.28052 0.0
C1502 C 0.38081 0.87592 0.31671 0.0
C1503 C 0.38249 0.87106 0.29633 0.0
C1504 C 0.35631 0.87458 0.32487 0.0
C1505 C 0.33285 0.86827 0.31241 0.0
C1506 C 0.33409 0.86246 0.292 0.0
C1507 C 0.3587 0.86376 0.28428 0.0
C1508 C 0.35566 0.88026 0.34678 0.0
C1509 C 0.30966 0.8556 0.27811 0.0
C1510 C 0.25836 0.84572 0.33133 0.0
C1511 C 0.25729 0.87 0.32971 0.0
C1512 C 0.28333 0.84516 0.32702 0.0
C1513 C 0.30761 0.86927 0.32019 0.0
C1514 C 0.30679 0.89397 0.31896 0.0
C1515 C 0.28169 0.894 0.32371 0.0
C1516 C 0.28324 0.81846 0.32898 0.0
C1517 C 0.33205 0.92017 0.31175 0.0
H1518 H 0.39899 0.88163 0.32619 0.0
H1519 H 0.35938 0.85928 0.26864 0.0
H1520 H 0.3508 0.89699 0.34888 0.0
H1521 H 0.33861 0.86172 0.35417 0.0
H1522 H 0.37602 0.88605 0.35431 0.0
H1523 H 0.31359 0.85083 0.26277 0.0
H1524 H 0.29006 0.83776 0.2839 0.0
H1525 H 0.3058 0.87313 0.27732 0.0
H1526 H 0.23951 0.8269 0.33537 0.0
H1527 H 0.28088 0.91275 0.32221 0.0
H1528 H 0.30255 0.82165 0.3368 0.0
H1529 H 0.28325 0.81032 0.31392 0.0
H1530 H 0.26438 0.80281 0.33725 0.0
H1531 H 0.35112 0.92459 0.32049 0.0
H1532 H 0.32869 0.93799 0.31291 0.0
H1533 H 0.33644 0.91783 0.29593 0.0
C1534 C 0.1655 0.5172 0.30722 0.0
C1535 C 0.14205 0.51208 0.29558 0.0
C1536 C 0.16847 0.49551 0.31471 0.0
C1537 C 0.14737 0.46816 0.31056 0.0
C1538 C 0.12324 0.46291 0.29931 0.0
C1539 C 0.12092 0.48495 0.29192 0.0
C1540 C 0.1945 0.50183 0.32664 0.0
C1541 C 0.10013 0.43402 0.29479 0.0
C1542 C 0.16729 0.41259 0.31222 0.0
C1543 C 0.15735 0.40127 0.33109 0.0
C1544 C 0.16424 0.43448 0.30533 0.0
C1545 C 0.15073 0.44498 0.31762 0.0
C1546 C 0.14014 0.43311 0.33654 0.0
C1547 C 0.14348 0.41126 0.34299 0.0
C1548 C 0.17578 0.44659 0.28505 0.0
C1549 C 0.12531 0.44349 0.34997 0.0
H1550 H 0.18194 0.53817 0.30993 0.0
H1551 H 0.10259 0.48097 0.28313 0.0
H1552 H 0.18831 0.49153 0.34137 0.0
H1553 H 0.20669 0.49375 0.31877 0.0
H1554 H 0.20854 0.52417 0.32904 0.0
H1555 H 0.08227 0.43346 0.28646 0.0
H1556 H 0.10884 0.42341 0.28581 0.0
H1557 H 0.09183 0.42228 0.30885 0.0
H1558 H 0.17802 0.40472 0.30306 0.0
H1559 H 0.1348 0.40168 0.35719 0.0
H1560 H 0.19191 0.46858 0.2866 0.0
H1561 H 0.15858 0.44538 0.27553 0.0
H1562 H 0.18557 0.43594 0.27733 0.0
H1563 H 0.13958 0.46551 0.3533 0.0
H1564 H 0.11848 0.43207 0.36429 0.0
H1565 H 0.10644 0.44168 0.34231 0.0
C1566 C 0.36024 0.49107 0.30219 0.0
C1567 C 0.38011 0.50554 0.31715 0.0
C1568 C 0.3331 0.46934 0.30697 0.0
C1569 C 0.3258 0.46155 0.32719 0.0
C1570 C 0.34564 0.47657 0.34233 0.0
C1571 C 0.37249 0.49833 0.33714 0.0
C1572 C 0.31262 0.45401 0.29033 0.0
C1573 C 0.33886 0.46916 0.364 0.0
C1574 C 0.24777 0.41267 0.33894 0.0
C1575 C 0.24651 0.38722 0.3384 0.0
C1576 C 0.27358 0.4372 0.33605 0.0
C1577 C 0.29859 0.43617 0.33223 0.0
C1578 C 0.29742 0.41047 0.33223 0.0
C1579 C 0.27139 0.38637 0.33514 0.0
C1580 C 0.27379 0.46405 0.33629 0.0
C1581 C 0.32356 0.40834 0.3286 0.0
H1582 H 0.36624 0.49632 0.2867 0.0
H1583 H 0.3879 0.50926 0.34874 0.0
H1584 H 0.30897 0.43282 0.28953 0.0
H1585 H 0.29188 0.45249 0.29332 0.0
H1586 H 0.32054 0.46401 0.27561 0.0
H1587 H 0.35693 0.48221 0.37395 0.0
H1588 H 0.32059 0.47152 0.36835 0.0
H1589 H 0.33284 0.44744 0.36639 0.0
H1590 H 0.22848 0.41341 0.34098 0.0
H1591 H 0.27036 0.36666 0.33455 0.0
H1592 H 0.27812 0.47288 0.32104 0.0
H1593 H 0.29088 0.47898 0.34613 0.0
H1594 H 0.25331 0.46161 0.34149 0.0
H1595 H 0.33174 0.41571 0.31335 0.0
H1596 H 0.31937 0.38701 0.33016 0.0
H1597 H 0.34046 0.42157 0.33926 0.0
C1598 C 0.5243 0.8649 0.3001 0.0
C1599 C 0.51106 0.87141 0.31536 0.0
C1600 C 0.54649 0.85966 0.30432 0.0
C1601 C 0.55603 0.86142 0.32425 0.0
C1602 C 0.54209 0.86726 0.33969 0.0
C1603 C 0.51987 0.87213 0.33508 0.0
C1604 C 0.56051 0.85337 0.28735 0.0
C1605 C 0.55127 0.86933 0.36106 0.0
C1606 C 0.6055 0.83337 0.33637 0.0
C1607 C 0.63219 0.85708 0.33508 0.0
C1608 C 0.58047 0.83445 0.33337 0.0
C1609 C 0.58215 0.85977 0.32865 0.0
C1610 C 0.60913 0.88379 0.32765 0.0
C1611 C 0.63371 0.88208 0.3307 0.0
C1612 C 0.5523 0.80834 0.33471 0.0
C1613 C 0.61212 0.91132 0.32301 0.0
H1614 H 0.51785 0.86473 0.28479 0.0
H1615 H 0.50995 0.87745 0.34692 0.0
H1616 H 0.58252 0.87052 0.28547 0.0
H1617 H 0.56169 0.8347 0.29074 0.0
H1618 H 0.54907 0.85027 0.27303 0.0
H1619 H 0.53871 0.87459 0.37132 0.0
H1620 H 0.54892 0.84947 0.36581 0.0
H1621 H 0.57391 0.88522 0.36245 0.0
H1622 H 0.60415 0.81386 0.33923 0.0
H1623 H 0.65431 0.9004 0.32947 0.0
H1624 H 0.54194 0.80343 0.31987 0.0
H1625 H 0.5381 0.81095 0.34519 0.0
H1626 H 0.55448 0.79071 0.33979 0.0
H1627 H 0.60346 0.91089 0.30796 0.0
H1628 H 0.6345 0.92816 0.32345 0.0
H1629 H 0.59974 0.91596 0.33387 0.0
C1630 C 0.12373 0.63846 0.32937 0.0
C1631 C 0.13216 0.63133 0.3117 0.0
C1632 C 0.13037 0.66557 0.33292 0.0
C1633 C 0.14577 0.68595 0.31841 0.0
C1634 C 0.15401 0.67878 0.30041 0.0
C1635 C 0.14677 0.65145 0.29716 0.0
C1636 C 0.1209 0.67241 0.35218 0.0
C1637 C 0.17063 0.69999 0.28467 0.0
C1638 C 0.14268 0.75178 0.32004 0.0
C1639 C 0.16757 0.76926 0.33039 0.0
C1640 C 0.13532 0.72459 0.31596 0.0
C1641 C 0.15352 0.71485 0.32218 0.0
C1642 C 0.179 0.73263 0.33225 0.0
C1643 C 0.18567 0.75958 0.33627 0.0
C1644 C 0.10783 0.70613 0.30537 0.0
C1645 C 0.19911 0.72314 0.33897 0.0
H1646 H 0.11187 0.62278 0.34041 0.0
H1647 H 0.15269 0.6458 0.28327 0.0
H1648 H 0.13955 0.6878 0.36066 0.0
H1649 H 0.10752 0.68164 0.34893 0.0
H1650 H 0.10869 0.6541 0.36177 0.0
H1651 H 0.17555 0.69106 0.27155 0.0
H1652 H 0.15854 0.70985 0.27952 0.0
H1653 H 0.19078 0.71633 0.29108 0.0
H1654 H 0.12859 0.75913 0.31552 0.0
H1655 H 0.20517 0.77311 0.34404 0.0
H1656 H 0.09402 0.68844 0.31505 0.0
H1657 H 0.11193 0.69778 0.29159 0.0
H1658 H 0.09624 0.71696 0.3013 0.0
H1659 H 0.18842 0.70622 0.34991 0.0
H1660 H 0.21853 0.73986 0.34598 0.0
H1661 H 0.20537 0.71501 0.32607 0.0
C1662 C 0.8537 0.03077 0.37996 0.0
C1663 C 0.8464 0.0499 0.3869 0.0
C1664 C 0.83291 0.00325 0.3768 0.0
C1665 C 0.80406 0.99476 0.38026 0.0
C1666 C 0.7966 0.01398 0.38735 0.0
C1667 C 0.81784 0.0413 0.39054 0.0
C1668 C 0.84176 0.98342 0.36924 0.0
C1669 C 0.76609 0.0059 0.39097 0.0
C1670 C 0.74946 0.93362 0.35064 0.0
C1671 C 0.73966 0.91248 0.3647 0.0
C1672 C 0.77029 0.96043 0.35554 0.0
C1673 C 0.78155 0.96632 0.3751 0.0
C1674 C 0.77126 0.94509 0.38954 0.0
C1675 C 0.75024 0.91838 0.38419 0.0
C1676 C 0.78028 0.98241 0.33972 0.0
C1677 C 0.78278 0.95048 0.41052 0.0
H1678 H 0.87568 0.03744 0.37676 0.0
H1679 H 0.81205 0.05611 0.39556 0.0
H1680 H 0.83295 0.96504 0.37897 0.0
H1681 H 0.83313 0.97637 0.35405 0.0
H1682 H 0.86513 0.99273 0.36863 0.0
H1683 H 0.76392 0.02286 0.39751 0.0
H1684 H 0.75427 0.99967 0.37669 0.0
H1685 H 0.75595 0.988 0.40115 0.0
H1686 H 0.74046 0.9293 0.33584 0.0
H1687 H 0.7426 0.90199 0.39509 0.0
H1688 H 0.80334 0.99137 0.33722 0.0
H1689 H 0.77678 0.99922 0.34476 0.0
H1690 H 0.76921 0.97445 0.32527 0.0
H1691 H 0.80583 0.95793 0.41018 0.0
H1692 H 0.77227 0.93189 0.42005 0.0
H1693 H 0.77995 0.96681 0.41747 0.0
C1694 C 0.99701 0.81159 0.3955 0.0
C1695 C 0.97654 0.80492 0.38062 0.0
C1696 C 0.02455 0.81709 0.39072 0.0
C1697 C 0.03172 0.81543 0.37061 0.0
C1698 C 0.0112 0.80931 0.35555 0.0
C1699 C 0.984 0.8042 0.36071 0.0
C1700 C 0.04566 0.82362 0.40731 0.0
C1701 C 0.01769 0.80749 0.33398 0.0
C1702 C 0.11012 0.84512 0.35766 0.0
C1703 C 0.11308 0.82182 0.3588 0.0
C1704 C 0.0837 0.84335 0.36084 0.0
C1705 C 0.05968 0.81771 0.36563 0.0
C1706 C 0.06255 0.79407 0.36636 0.0
C1707 C 0.08917 0.79648 0.36312 0.0
C1708 C 0.08176 0.86908 0.35973 0.0
C1709 C 0.03757 0.76623 0.37101 0.0
H1710 H 0.99121 0.81177 0.41094 0.0
H1711 H 0.9682 0.7988 0.34916 0.0
H1712 H 0.05051 0.80679 0.40877 0.0
H1713 H 0.06578 0.84259 0.40376 0.0
H1714 H 0.03767 0.82634 0.42188 0.0
H1715 H 0.99887 0.8005 0.32423 0.0
H1716 H 0.03429 0.82799 0.32883 0.0
H1717 H 0.02589 0.79313 0.33226 0.0
H1718 H 0.12858 0.86491 0.35492 0.0
H1719 H 0.09144 0.77848 0.36424 0.0
H1720 H 0.07657 0.87379 0.37468 0.0
H1721 H 0.06449 0.86607 0.34949 0.0
H1722 H 0.10182 0.88699 0.35449 0.0
H1723 H 0.02954 0.76629 0.38621 0.0
H1724 H 0.04302 0.74972 0.37021 0.0
H1725 H 0.02009 0.76138 0.3604 0.0
C1726 C 0.2348 0.19287 0.36493 0.0
C1727 C 0.2281 0.17788 0.38273 0.0
C1728 C 0.2277 0.21337 0.36213 0.0
C1729 C 0.2136 0.21901 0.37755 0.0
C1730 C 0.20715 0.20422 0.39569 0.0
C1731 C 0.21485 0.18409 0.39817 0.0
C1732 C 0.23528 0.22901 0.34269 0.0
C1733 C 0.1919 0.20949 0.41238 0.0
C1734 C 0.21627 0.28768 0.37611 0.0
C1735 C 0.19074 0.28066 0.36654 0.0
C1736 C 0.22387 0.26773 0.38005 0.0
C1737 C 0.20526 0.24014 0.37453 0.0
C1738 C 0.17899 0.23285 0.3655 0.0
C1739 C 0.17211 0.25322 0.36156 0.0
C1740 C 0.25219 0.27632 0.38951 0.0
C1741 C 0.15841 0.20366 0.35958 0.0
H1742 H 0.24566 0.18854 0.35318 0.0
H1743 H 0.21034 0.17304 0.41217 0.0
H1744 H 0.2158 0.22582 0.33511 0.0
H1745 H 0.24859 0.25129 0.34559 0.0
H1746 H 0.24688 0.22261 0.33241 0.0
H1747 H 0.18833 0.19611 0.42551 0.0
H1748 H 0.20426 0.23118 0.41721 0.0
H1749 H 0.17111 0.20598 0.40702 0.0
H1750 H 0.23076 0.30889 0.37989 0.0
H1751 H 0.15216 0.24766 0.35438 0.0
H1752 H 0.26547 0.27235 0.37902 0.0
H1753 H 0.24936 0.26403 0.40313 0.0
H1754 H 0.26374 0.29837 0.39357 0.0
H1755 H 0.16788 0.19708 0.34769 0.0
H1756 H 0.13809 0.20116 0.35397 0.0
H1757 H 0.15392 0.18976 0.37249 0.0
C1758 C 0.66452 0.52883 0.74411 0.0
C1759 C 0.6489 0.50339 0.73429 0.0
C1760 C 0.6889 0.55074 0.73569 0.0
C1761 C 0.69681 0.54871 0.71596 0.0
C1762 C 0.68081 0.52385 0.70543 0.0
C1763 C 0.65784 0.50132 0.7149 0.0
C1764 C 0.70618 0.57608 0.74821 0.0
C1765 C 0.68788 0.52096 0.68413 0.0
C1766 C 0.7432 0.62085 0.69624 0.0
C1767 C 0.76987 0.62306 0.69561 0.0
C1768 C 0.71883 0.59574 0.70056 0.0
C1769 C 0.72152 0.573 0.70655 0.0
C1770 C 0.74858 0.57515 0.70579 0.0
C1771 C 0.77225 0.59994 0.69978 0.0
C1772 C 0.69035 0.59392 0.69908 0.0
C1773 C 0.75333 0.55198 0.71193 0.0
H1774 H 0.65806 0.53233 0.75849 0.0
H1775 H 0.64712 0.48222 0.70683 0.0
H1776 H 0.72919 0.58477 0.74557 0.0
H1777 H 0.70065 0.59192 0.74427 0.0
H1778 H 0.70198 0.57167 0.76439 0.0
H1779 H 0.67038 0.50269 0.67677 0.0
H1780 H 0.69252 0.53943 0.67534 0.0
H1781 H 0.70701 0.51885 0.68383 0.0
H1782 H 0.74135 0.63876 0.69307 0.0
H1783 H 0.79293 0.60168 0.69964 0.0
H1784 H 0.68447 0.59865 0.71376 0.0
H1785 H 0.67363 0.5731 0.69454 0.0
H1786 H 0.69088 0.60897 0.68813 0.0
H1787 H 0.73651 0.53691 0.72189 0.0
H1788 H 0.77402 0.56002 0.71961 0.0
H1789 H 0.75416 0.54119 0.69834 0.0
C1790 C 0.51166 0.13685 0.71131 0.0
C1791 C 0.51736 0.14057 0.73187 0.0
C1792 C 0.48909 0.13884 0.70287 0.0
C1793 C 0.47147 0.14439 0.71524 0.0
C1794 C 0.4777 0.14908 0.73585 0.0
C1795 C 0.50061 0.14739 0.74383 0.0
C1796 C 0.4837 0.13442 0.68076 0.0
C1797 C 0.45952 0.15496 0.74968 0.0
C1798 C 0.42011 0.16658 0.69591 0.0
C1799 C 0.3943 0.14179 0.69623 0.0
C1800 C 0.44568 0.16755 0.70087 0.0
C1801 C 0.44534 0.14334 0.70712 0.0
C1802 C 0.41933 0.11822 0.7072 0.0
C1803 C 0.39424 0.11777 0.70172 0.0
C1804 C 0.47289 0.19467 0.70003 0.0
C1805 C 0.41776 0.09193 0.71392 0.0
H1806 H 0.52426 0.13148 0.70185 0.0
H1807 H 0.50516 0.15111 0.75961 0.0
H1808 H 0.46238 0.11653 0.67806 0.0
H1809 H 0.48405 0.15256 0.67402 0.0
H1810 H 0.49964 0.13093 0.67305 0.0
H1811 H 0.46762 0.15893 0.76522 0.0
H1812 H 0.45842 0.17301 0.74429 0.0
H1813 H 0.43761 0.13728 0.74978 0.0
H1814 H 0.42029 0.18534 0.69216 0.0
H1815 H 0.37429 0.09862 0.70222 0.0
H1816 H 0.48967 0.19239 0.69246 0.0
H1817 H 0.48027 0.202 0.71541 0.0
H1818 H 0.47023 0.21052 0.69205 0.0
H1819 H 0.43282 0.08821 0.70523 0.0
H1820 H 0.39619 0.07393 0.71222 0.0
H1821 H 0.42399 0.09367 0.72984 0.0
C1822 C 0.85873 0.36004 0.73192 0.0
C1823 C 0.88566 0.38075 0.73777 0.0
C1824 C 0.85466 0.33516 0.72423 0.0
C1825 C 0.87817 0.33117 0.72211 0.0
C1826 C 0.90548 0.35222 0.72772 0.0
C1827 C 0.90886 0.37671 0.7356 0.0
C1828 C 0.82519 0.31302 0.71862 0.0
C1829 C 0.93112 0.34888 0.72542 0.0
C1830 C 0.86647 0.25897 0.72019 0.0
C1831 C 0.86799 0.2552 0.69965 0.0
C1832 C 0.86939 0.28347 0.72769 0.0
C1833 C 0.87423 0.30482 0.71432 0.0
C1834 C 0.87589 0.30119 0.69358 0.0
C1835 C 0.87269 0.27637 0.68652 0.0
C1836 C 0.86721 0.28647 0.7499 0.0
C1837 C 0.88137 0.3236 0.67886 0.0
H1838 H 0.84077 0.36313 0.73371 0.0
H1839 H 0.92976 0.39289 0.73989 0.0
H1840 H 0.82462 0.30742 0.7027 0.0
H1841 H 0.81911 0.29431 0.72756 0.0
H1842 H 0.8092 0.31943 0.72107 0.0
H1843 H 0.95097 0.36751 0.73 0.0
H1844 H 0.9285 0.33136 0.73457 0.0
H1845 H 0.93328 0.3442 0.70966 0.0
H1846 H 0.86254 0.24258 0.73046 0.0
H1847 H 0.87441 0.27382 0.67074 0.0
H1848 H 0.85015 0.29118 0.75313 0.0
H1849 H 0.88726 0.30384 0.75558 0.0
H1850 H 0.86273 0.26768 0.75823 0.0
H1851 H 0.86494 0.32958 0.68037 0.0
H1852 H 0.88151 0.31728 0.66318 0.0
H1853 H 0.90208 0.34205 0.6821 0.0
C1854 C 0.19658 0.97047 0.62021 0.0
C1855 C 0.16822 0.9635 0.62292 0.0
C1856 C 0.21892 0.99521 0.6275 0.0
C1857 C 0.2129 0.01352 0.63795 0.0
C1858 C 0.18435 0.00653 0.64099 0.0
C1859 C 0.16235 0.98161 0.63346 0.0
C1860 C 0.24901 1.00174 0.62401 0.0
C1861 C 0.17707 0.02545 0.65213 0.0
C1862 C 0.27007 0.06494 0.67253 0.0
C1863 C 0.28201 0.08889 0.66108 0.0
C1864 C 0.24732 0.0404 0.66532 0.0
C1865 C 0.23655 0.03971 0.64598 0.0
C1866 C 0.249 0.06381 0.63416 0.0
C1867 C 0.27165 0.08813 0.64185 0.0
C1868 C 0.23493 0.0152 0.67838 0.0
C1869 C 0.23831 0.06393 0.61343 0.0
H1870 H 0.20137 0.95641 0.61244 0.0
H1871 H 0.14056 0.97653 0.6355 0.0
H1872 H 0.2609 0.0214 0.61582 0.0
H1873 H 0.25983 0.00428 0.6385 0.0
H1874 H 0.25013 0.98551 0.61536 0.0
H1875 H 0.15386 0.01706 0.65328 0.0
H1876 H 0.18606 0.02914 0.6674 0.0
H1877 H 0.18664 0.0456 0.64449 0.0
H1878 H 0.27889 0.06516 0.68696 0.0
H1879 H 0.28098 0.10671 0.63298 0.0
H1880 H 0.23736 0.99888 0.67102 0.0
H1881 H 0.21194 0.00714 0.68051 0.0
H1882 H 0.24519 0.01939 0.69326 0.0
H1883 H 0.24003 0.04869 0.60397 0.0
H1884 H 0.25023 0.08435 0.60618 0.0
H1885 H 0.2156 0.05787 0.61405 0.0
C1886 C 0.03017 0.20598 0.62156 0.0
C1887 C 0.05362 0.21172 0.63356 0.0
C1888 C 1.00591 0.2051 0.62953 0.0
C1889 C 1.00465 0.20967 0.65017 0.0
C1890 C 0.02784 0.21477 0.66254 0.0
C1891 C 0.05205 0.21579 0.6541 0.0
C1892 C 0.98172 0.1996 0.61576 0.0
C1893 C 0.02709 0.21927 0.68466 0.0
C1894 C 0.95211 0.23284 0.66397 0.0
C1895 C 0.92812 0.20805 0.66925 0.0
C1896 C 0.97757 0.2339 0.6586 0.0
C1897 C 0.97913 0.20953 0.65853 0.0
C1898 C 0.95525 0.18461 0.66462 0.0
C1899 C 0.92996 0.18411 0.66952 0.0
C1900 C 1.00236 0.26088 0.65207 0.0
C1901 C 0.95589 0.15815 0.66505 0.0
H1902 H 0.03073 0.20212 0.60578 0.0
H1903 H 0.06997 0.22035 0.66355 0.0
H1904 H 0.96201 0.18126 0.62086 0.0
H1905 H 0.97788 0.21715 0.61611 0.0
H1906 H 0.98589 0.19627 0.60008 0.0
H1907 H 0.04714 0.2239 0.69217 0.0
H1908 H 0.02303 0.23641 0.68743 0.0
H1909 H 1.00946 0.20069 0.6916 0.0
H1910 H 0.95066 0.25133 0.66343 0.0
H1911 H 0.91141 0.16472 0.67297 0.0
H1912 H 1.00635 0.25999 0.63593 0.0
H1913 H 0.02178 0.26489 0.66018 0.0
H1914 H 0.99865 0.2783 0.65463 0.0
H1915 H 0.95624 0.15142 0.64956 0.0
H1916 H 0.93717 0.14154 0.67284 0.0
H1917 H 0.9753 0.16113 0.67259 0.0
C1918 C 0.83744 0.84913 0.63644 0.0
C1919 C 0.81183 0.84488 0.62846 0.0
C1920 C 0.83978 0.82723 0.64416 0.0
C1921 C 0.81585 0.80054 0.64403 0.0
C1922 C 0.78975 0.79625 0.63644 0.0
C1923 C 0.78808 0.81849 0.62868 0.0
C1924 C 0.86799 0.83252 0.65204 0.0
C1925 C 0.76372 0.76812 0.63626 0.0
C1926 C 0.82849 0.74025 0.6451 0.0
C1927 C 0.82432 0.73307 0.66532 0.0
C1928 C 0.82571 0.76215 0.63794 0.0
C1929 C 0.81834 0.77699 0.65135 0.0
C1930 C 0.81359 0.76945 0.67172 0.0
C1931 C 0.81663 0.74751 0.67844 0.0
C1932 C 0.83113 0.76969 0.61613 0.0
C1933 C 0.80537 0.78456 0.68641 0.0
H1934 H 0.85586 0.8695 0.63612 0.0
H1935 H 0.76816 0.81526 0.62274 0.0
H1936 H 0.86572 0.82526 0.66768 0.0
H1937 H 0.87555 0.82086 0.64312 0.0
H1938 H 0.88434 0.85458 0.65154 0.0
H1939 H 0.74479 0.76845 0.63054 0.0
H1940 H 0.76752 0.75416 0.62677 0.0
H1941 H 0.75911 0.75938 0.65154 0.0
H1942 H 0.83462 0.72916 0.63495 0.0
H1943 H 0.81244 0.74135 0.69386 0.0
H1944 H 0.84892 0.79101 0.61454 0.0
H1945 H 0.81223 0.7689 0.60929 0.0
H1946 H 0.83634 0.75585 0.60766 0.0
H1947 H 0.82197 0.8065 0.68688 0.0
H1948 H 0.80232 0.776 0.70173 0.0
H1949 H 0.78547 0.78361 0.68155 0.0
C1950 C 0.03815 0.83028 0.66634 0.0
C1951 C 0.04494 0.8381 0.64635 0.0
C1952 C 0.01151 0.80838 0.67178 0.0
C1953 C 0.99102 0.79376 0.6569 0.0
C1954 C 0.99744 0.80223 0.63672 0.0
C1955 C 0.02439 0.82414 0.63167 0.0
C1956 C 1.00577 0.80019 0.69339 0.0
C1957 C 0.97626 0.7874 0.62034 0.0
C1958 C 0.93722 0.71822 0.66456 0.0
C1959 C 0.91245 0.7188 0.66899 0.0
C1960 C 0.963 0.74248 0.66128 0.0
C1961 C 0.96406 0.76811 0.6621 0.0
C1962 C 0.93916 0.76886 0.66702 0.0
C1963 C 0.9136 0.74417 0.67025 0.0
C1964 C 0.98899 0.7406 0.65638 0.0
C1965 C 0.93924 0.79561 0.66817 0.0
H1966 H 0.05408 0.84078 0.67773 0.0
H1967 H 0.02972 0.82988 0.61617 0.0
H1968 H 0.98625 0.79998 0.69824 0.0
H1969 H 1.00233 0.77918 0.69524 0.0
H1970 H 0.02343 0.81425 0.70328 0.0
H1971 H 0.98349 0.79792 0.60571 0.0
H1972 H 0.97266 0.76629 0.61885 0.0
H1973 H 0.95562 0.78567 0.62412 0.0
H1974 H 0.93628 0.6986 0.66335 0.0
H1975 H 0.89438 0.74473 0.67316 0.0
H1976 H 1.00645 0.75361 0.66674 0.0
H1977 H 0.99629 0.74836 0.64106 0.0
H1978 H 0.98497 0.71927 0.65735 0.0
H1979 H 0.95668 0.81029 0.6779 0.0
H1980 H 0.91893 0.7929 0.67402 0.0
H1981 H 0.94294 0.80489 0.65309 0.0
C1982 C 0.19175 0.19881 0.63518 0.0
C1983 C 0.17822 0.20464 0.65062 0.0
C1984 C 0.21369 0.19316 0.63924 0.0
C1985 C 0.22261 0.19373 0.65921 0.0
C1986 C 0.20822 0.19865 0.67483 0.0
C1987 C 0.18627 0.20399 0.67037 0.0
C1988 C 0.22819 0.18783 0.62209 0.0
C1989 C 0.21673 0.19938 0.69625 0.0
C1990 C 0.27191 0.16517 0.67004 0.0
C1991 C 0.29859 0.18897 0.66939 0.0
C1992 C 0.24691 0.16636 0.66733 0.0
C1993 C 0.24863 0.19191 0.66352 0.0
C1994 C 0.27559 0.21601 0.66321 0.0
C1995 C 0.30014 0.21419 0.66597 0.0
C1996 C 0.21877 0.14014 0.66792 0.0
C1997 C 0.27859 0.24377 0.65953 0.0
H1998 H 0.18582 0.19962 0.61988 0.0
H1999 H 0.17606 0.2087 0.68236 0.0
H2000 H 0.25024 0.20508 0.62072 0.0
H2001 H 0.22929 0.16899 0.6249 0.0
H2002 H 0.21716 0.18555 0.6077 0.0
H2003 H 0.20347 0.20346 0.70671 0.0
H2004 H 0.21485 0.17947 0.70024 0.0
H2005 H 0.23915 0.21556 0.69822 0.0
H2006 H 0.27054 0.14551 0.67212 0.0
H2007 H 0.32074 0.23259 0.66524 0.0
H2008 H 0.20913 0.13573 0.65284 0.0
H2009 H 0.20399 0.14227 0.67813 0.0
H2010 H 0.22084 0.1224 0.67286 0.0
H2011 H 0.27038 0.24427 0.6445 0.0
H2012 H 0.30092 0.26062 0.66053 0.0
H2013 H 0.26583 0.24765 0.67056 0.0
C2014 C 0.80657 0.97577 0.66399 0.0
C2015 C 0.81449 0.96851 0.64615 0.0
C2016 C 0.81175 0.00247 0.66708 0.0
C2017 C 0.82511 0.02234 0.6519 0.0
C2018 C 0.83297 0.0151 0.63377 0.0
C2019 C 0.82718 0.98811 0.63099 0.0
C2020 C 0.80274 0.00938 0.68652 0.0
C2021 C 0.84748 0.03586 0.61735 0.0
C2022 C 0.81579 0.08466 0.6542 0.0
C2023 C 0.8404 0.1034 0.66427 0.0
C2024 C 0.81074 0.05827 0.6497 0.0
C2025 C 0.831 0.05075 0.65518 0.0
C2026 C 0.85637 0.07 0.66467 0.0
C2027 C 0.86071 0.09606 0.66914 0.0
C2028 C 0.78329 0.03814 0.63974 0.0
C2029 C 0.87863 0.06289 0.6706 0.0
H2030 H 0.79606 0.9604 0.67549 0.0
H2031 H 0.83256 0.98233 0.61694 0.0
H2032 H 0.82141 0.02598 0.69427 0.0
H2033 H 0.78791 0.01704 0.68357 0.0
H2034 H 0.79225 0.99144 0.69669 0.0
H2035 H 0.8526 0.02703 0.60427 0.0
H2036 H 0.83377 0.04403 0.61233 0.0
H2037 H 0.86737 0.05344 0.62305 0.0
H2038 H 0.80005 0.09024 0.65043 0.0
H2039 H 0.88002 0.11065 0.67666 0.0
H2040 H 0.7707 0.02067 0.64993 0.0
H2041 H 0.78756 0.0297 0.62608 0.0
H2042 H 0.77036 0.04759 0.63562 0.0
H2043 H 0.87003 0.04675 0.68225 0.0
H2044 H 0.89805 0.08087 0.67652 0.0
H2045 H 0.8845 0.05457 0.65761 0.0
C2046 C 0.48674 0.37041 0.72729 0.0
C2047 C 0.5149 0.37914 0.72209 0.0
C2048 C 0.46518 0.34318 0.7242 0.0
C2049 C 0.47188 0.32415 0.71562 0.0
C2050 C 0.5004 0.33271 0.71073 0.0
C2051 C 0.52151 0.36014 0.71387 0.0
C2052 C 0.43507 0.33504 0.72943 0.0
C2053 C 0.50847 0.3131 0.7016 0.0
C2054 C 0.41793 0.2476 0.71849 0.0
C2055 C 0.40602 0.24268 0.69939 0.0
C2056 C 0.4394 0.27402 0.72408 0.0
C2057 C 0.44882 0.29598 0.71028 0.0
C2058 C 0.43618 0.29107 0.69117 0.0
C2059 C 0.41494 0.26453 0.68601 0.0
C2060 C 0.4524 0.27834 0.74455 0.0
C2061 C 0.44519 0.31381 0.67605 0.0
H2062 H 0.48145 0.38509 0.7334 0.0
H2063 H 0.54317 0.36691 0.70957 0.0
H2064 H 0.42216 0.32962 0.71564 0.0
H2065 H 0.42561 0.31663 0.73913 0.0
H2066 H 0.4336 0.35171 0.73717 0.0
H2067 H 0.53175 0.32232 0.70008 0.0
H2068 H 0.5002 0.29429 0.71083 0.0
H2069 H 0.49878 0.30676 0.6866 0.0
H2070 H 0.41101 0.23064 0.72884 0.0
H2071 H 0.40503 0.26091 0.67153 0.0
H2072 H 0.45048 0.29454 0.75256 0.0
H2073 H 0.47531 0.28545 0.74316 0.0
H2074 H 0.44229 0.25934 0.75368 0.0
H2075 H 0.44238 0.33051 0.68232 0.0
H2076 H 0.43297 0.30663 0.66194 0.0
H2077 H 0.46798 0.32267 0.67252 0.0
C2078 C 0.65241 0.13798 0.69281 0.0
C2079 C 0.64442 0.13849 0.71262 0.0
C2080 C 0.67975 0.14314 0.688 0.0
C2081 C 0.69981 0.14896 0.70335 0.0
C2082 C 0.69216 0.15051 0.72335 0.0
C2083 C 0.66453 0.14503 0.72776 0.0
C2084 C 0.68675 0.14125 0.66655 0.0
C2085 C 0.7128 0.15679 0.74021 0.0
C2086 C 0.7561 0.12835 0.69673 0.0
C2087 C 0.78046 0.15341 0.69256 0.0
C2088 C 0.72975 0.12661 0.6997 0.0
C2089 C 0.7276 0.15064 0.69879 0.0
C2090 C 0.75209 0.176 0.69415 0.0
C2091 C 0.77826 0.17711 0.69121 0.0
C2092 C 0.70427 0.09904 0.70424 0.0
C2093 C 0.7509 0.20212 0.69292 0.0
H2094 H 0.63689 0.1326 0.68105 0.0
H2095 H 0.65833 0.14504 0.74312 0.0
H2096 H 0.70559 0.16074 0.66198 0.0
H2097 H 0.69196 0.12468 0.66491 0.0
H2098 H 0.66904 0.13701 0.65629 0.0
H2099 H 0.70463 0.15979 0.75461 0.0
H2100 H 0.71717 0.13967 0.74196 0.0
H2101 H 0.73322 0.17551 0.7368 0.0
H2102 H 0.75779 0.11003 0.69793 0.0
H2103 H 0.79713 0.19664 0.68838 0.0
H2104 H 0.68705 0.09455 0.69348 0.0
H2105 H 0.69613 0.0993 0.71936 0.0
H2106 H 0.70921 0.08218 0.70357 0.0
H2107 H 0.73367 0.19944 0.68276 0.0
H2108 H 0.77114 0.21966 0.68753 0.0
H2109 H 0.74612 0.20721 0.70787 0.0
C2110 C 0.85907 0.49694 0.70796 0.0
C2111 C 0.88482 0.50181 0.71606 0.0
C2112 C 0.85347 0.51846 0.70523 0.0
C2113 C 0.87417 0.54541 0.71076 0.0
C2114 C 0.89982 0.55023 0.7196 0.0
C2115 C 0.90477 0.52829 0.72225 0.0
C2116 C 0.82579 0.5125 0.69591 0.0
C2117 C 0.92238 0.57869 0.72565 0.0
C2118 C 0.87333 0.60326 0.6826 0.0
C2119 C 0.85996 0.61181 0.69623 0.0
C2120 C 0.87832 0.58183 0.68725 0.0
C2121 C 0.86977 0.56876 0.70605 0.0
C2122 C 0.85678 0.5778 0.72009 0.0
C2123 C 0.85215 0.59942 0.71502 0.0
C2124 C 0.89247 0.573 0.67193 0.0
C2125 C 0.84719 0.56424 0.74021 0.0
H2126 H 0.84356 0.47633 0.70344 0.0
H2127 H 0.92451 0.53193 0.72878 0.0
H2128 H 0.8151 0.52072 0.70542 0.0
H2129 H 0.82984 0.5229 0.68123 0.0
H2130 H 0.81121 0.49022 0.69369 0.0
H2131 H 0.94042 0.57873 0.73335 0.0
H2132 H 0.93054 0.59193 0.71223 0.0
H2133 H 0.91332 0.58799 0.73568 0.0
H2134 H 0.88015 0.61353 0.66836 0.0
H2135 H 0.8417 0.60613 0.72549 0.0
H2136 H 0.8781 0.55131 0.66775 0.0
H2137 H 0.91187 0.57435 0.67833 0.0
H2138 H 0.89831 0.58571 0.65819 0.0
H2139 H 0.83075 0.54243 0.73823 0.0
H2140 H 0.83836 0.57436 0.74966 0.0
H2141 H 0.86515 0.56458 0.74821 0.0
C2142 C 0.45212 0.92945 0.23618 0.0
C2143 C 0.45254 0.90515 0.2398 0.0
C2144 C 0.46165 0.94347 0.21797 0.0
C2145 C 0.47168 0.93287 0.20289 0.0
C2146 C 0.47167 0.90805 0.20629 0.0
C2147 C 0.46226 0.89458 0.22475 0.0
C2148 C 0.46162 0.97002 0.21507 0.0
C2149 C 0.48189 0.89591 0.19053 0.0
C2150 C 0.47684 0.96167 0.15059 0.0
C2151 C 0.50549 0.98204 0.14966 0.0
C2152 C 0.46568 0.94485 0.16754 0.0
C2153 C 0.48353 0.94859 0.18401 0.0
C2154 C 0.51261 0.96849 0.18288 0.0
C2155 C 0.52323 0.98479 0.16572 0.0
C2156 C 0.43461 0.92366 0.16808 0.0
C2157 C 0.53242 0.97319 0.20006 0.0
H2158 H 0.44497 0.93791 0.24782 0.0
H2159 H 0.46235 0.87565 0.22738 0.0
H2160 H 0.48361 0.98704 0.21284 0.0
H2161 H 0.44947 0.96886 0.20149 0.0
H2162 H 0.4523 0.97505 0.228 0.0
H2163 H 0.47915 0.87578 0.1951 0.0
H2164 H 0.47023 0.89324 0.1764 0.0
H2165 H 0.50463 0.9101 0.1874 0.0
H2166 H 0.4629 0.95945 0.13835 0.0
H2167 H 0.54552 1.00002 0.16498 0.0
H2168 H 0.42381 0.92937 0.17955 0.0
H2169 H 0.4317 0.90339 0.17235 0.0
H2170 H 0.42412 0.92167 0.15349 0.0
H2171 H 0.52559 0.98016 0.21334 0.0
H2172 H 0.55467 0.98876 0.19654 0.0
H2173 H 0.53165 0.95377 0.20417 0.0
C2174 C 0.13636 0.5432 0.22142 0.0
C2175 C 0.12363 0.55232 0.23525 0.0
C2176 C 0.12613 0.53649 0.20188 0.0
C2177 C 0.10261 0.539 0.19606 0.0
C2178 C 0.09081 0.54986 0.20958 0.0
C2179 C 0.1015 0.55643 0.22907 0.0
C2180 C 0.13942 0.52515 0.18787 0.0
C2181 C 0.06578 0.55292 0.20388 0.0
C2182 C 0.08459 0.53131 0.14086 0.0
C2183 C 0.06412 0.50343 0.13975 0.0
C2184 C 0.09692 0.54347 0.15918 0.0
C2185 C 0.08852 0.52731 0.17672 0.0
C2186 C 0.06741 0.49932 0.17571 0.0
C2187 C 0.05547 0.48774 0.15725 0.0
C2188 C 0.11935 0.57338 0.15972 0.0
C2189 C 0.05777 0.48142 0.19411 0.0
H2190 H 0.15378 0.54044 0.2261 0.0
H2191 H 0.09154 0.56337 0.23977 0.0
H2192 H 0.12434 0.50313 0.1851 0.0
H2193 H 0.14414 0.5358 0.17327 0.0
H2194 H 0.15929 0.52715 0.19398 0.0
H2195 H 0.06154 0.56497 0.21506 0.0
H2196 H 0.06929 0.56304 0.18913 0.0
H2197 H 0.04665 0.53235 0.20262 0.0
H2198 H 0.09144 0.54347 0.12733 0.0
H2199 H 0.03926 0.46632 0.1565 0.0
H2200 H 0.13987 0.57544 0.16424 0.0
H2201 H 0.11384 0.58436 0.17099 0.0
H2202 H 0.12211 0.58352 0.14502 0.0
H2203 H 0.07581 0.4802 0.2006 0.0
H2204 H 0.04045 0.46029 0.19086 0.0
H2205 H 0.05029 0.49049 0.2056 0.0
C2206 C 0.49734 0.56214 0.23499 0.0
C2207 C 0.47035 0.55826 0.23909 0.0
C2208 C 0.5032 0.55351 0.21689 0.0
C2209 C 0.4815 0.54042 0.20252 0.0
C2210 C 0.45411 0.53615 0.2066 0.0
C2211 C 0.44887 0.54515 0.22483 0.0
C2212 C 0.53268 0.5584 0.21316 0.0
C2213 C 0.43041 0.52217 0.19168 0.0
C2214 C 0.50618 0.5409 0.14938 0.0
C2215 C 0.50451 0.51529 0.14826 0.0
C2216 C 0.49794 0.54905 0.16675 0.0
C2217 C 0.48764 0.53108 0.18334 0.0
C2218 C 0.48496 0.50482 0.18201 0.0
C2219 C 0.49349 0.49728 0.16452 0.0
C2220 C 0.50126 0.57727 0.16761 0.0
C2221 C 0.47383 0.48497 0.19928 0.0
H2222 H 0.51393 0.57175 0.24606 0.0
H2223 H 0.42803 0.54229 0.22779 0.0
H2224 H 0.53193 0.53857 0.21077 0.0
H2225 H 0.54154 0.57076 0.19942 0.0
H2226 H 0.54727 0.56922 0.22575 0.0
H2227 H 0.41023 0.52007 0.19722 0.0
H2228 H 0.43624 0.53399 0.17754 0.0
H2229 H 0.42695 0.50149 0.18816 0.0
H2230 H 0.51489 0.55499 0.13693 0.0
H2231 H 0.49175 0.4773 0.16361 0.0
H2232 H 0.51747 0.58982 0.17889 0.0
H2233 H 0.48111 0.57593 0.17232 0.0
H2234 H 0.50774 0.58803 0.15302 0.0
H2235 H 0.48861 0.49347 0.21207 0.0
H2236 H 0.47124 0.46469 0.19538 0.0
H2237 H 0.45311 0.482 0.2043 0.0
C2238 C 0.91939 0.46632 0.80464 0.0
C2239 C 0.9275 0.45365 0.79013 0.0
C2240 C 0.93471 0.47617 0.82245 0.0
C2241 C 0.95858 0.47312 0.82586 0.0
C2242 C 0.967 0.46055 0.81121 0.0
C2243 C 0.95144 0.45109 0.7935 0.0
C2244 C 0.9252 0.4896 0.8377 0.0
C2245 C 0.99235 0.45694 0.8143 0.0
C2246 C 0.01435 0.51808 0.86361 0.0
C2247 C 1.00724 0.50036 0.88 0.0
C2248 C 0.99832 0.50969 0.84603 0.0
C2249 C 0.97473 0.48287 0.84479 0.0
C2250 C 0.9672 0.46502 0.86138 0.0
C2251 C 0.98351 0.47402 0.87883 0.0
C2252 C 1.00682 0.52938 0.82871 0.0
C2253 C 0.94231 0.43621 0.86056 0.0
H2254 H 0.90074 0.46811 0.80224 0.0
H2255 H 0.95816 0.44179 0.7822 0.0
H2256 H 0.91946 0.47773 0.85181 0.0
H2257 H 0.94277 0.5105 0.84113 0.0
H2258 H 0.90669 0.4911 0.83253 0.0
H2259 H 0.99603 0.44664 0.80147 0.0
H2260 H 0.01161 0.47717 0.81659 0.0
H2261 H 0.98936 0.4446 0.82793 0.0
H2262 H 0.03247 0.53859 0.86458 0.0
H2263 H 0.97812 0.46019 0.8914 0.0
H2264 H 0.98873 0.53188 0.82407 0.0
H2265 H 0.01267 0.52103 0.81573 0.0
H2266 H 0.02502 0.54987 0.83237 0.0
H2267 H 0.92282 0.43658 0.85645 0.0
H2268 H 0.93865 0.42526 0.87499 0.0
H2269 H 0.94596 0.4244 0.84885 0.0
C2270 C 0.61064 0.47163 0.81013 0.0
C2271 C 0.58898 0.46184 0.79585 0.0
C2272 C 0.60641 0.47853 0.82945 0.0
C2273 C 0.57986 0.47558 0.83465 0.0
C2274 C 0.55742 0.46418 0.82068 0.0
C2275 C 0.56225 0.45746 0.80145 0.0
C2276 C 0.63085 0.49044 0.84392 0.0
C2277 C 0.52878 0.46065 0.82561 0.0
C2278 C 0.5656 0.48331 0.88931 0.0
C2279 C 0.57299 0.51098 0.89002 0.0
C2280 C 0.56738 0.47129 0.87136 0.0
C2281 C 0.57664 0.48731 0.85374 0.0
C2282 C 0.58351 0.51508 0.85434 0.0
C2283 C 0.58158 0.52651 0.87242 0.0
C2284 C 0.55986 0.44164 0.8713 0.0
C2285 C 0.59326 0.53287 0.83589 0.0
H2286 H 0.63122 0.47463 0.806 0.0
H2287 H 0.54545 0.4501 0.79048 0.0
H2288 H 0.63804 0.51243 0.8464 0.0
H2289 H 0.62411 0.47999 0.85858 0.0
H2290 H 0.64909 0.4887 0.83839 0.0
H2291 H 0.51269 0.44845 0.81413 0.0
H2292 H 0.52128 0.45046 0.84029 0.0
H2293 H 0.53049 0.48107 0.82665 0.0
H2294 H 0.55911 0.47124 0.90289 0.0
H2295 H 0.58682 0.54777 0.87278 0.0
H2296 H 0.57879 0.44014 0.86736 0.0
H2297 H 0.54355 0.43012 0.85982 0.0
H2298 H 0.55181 0.43164 0.88601 0.0
H2299 H 0.61305 0.53434 0.83015 0.0
H2300 H 0.59725 0.55391 0.8388 0.0
H2301 H 0.57711 0.52353 0.82397 0.0
C2302 C 0.57083 0.11228 0.80313 0.0
C2303 C 0.54945 0.10401 0.78869 0.0
C2304 C 0.56552 0.09901 0.82175 0.0
C2305 C 0.53811 0.07701 0.82615 0.0
C2306 C 0.5164 0.0687 0.81172 0.0
C2307 C 0.52236 0.08213 0.79319 0.0
C2308 C 0.5893 0.10839 0.83665 0.0
C2309 C 0.48686 0.04537 0.81577 0.0
C2310 C 0.52655 0.02265 0.86455 0.0
C2311 C 0.51584 0.03016 0.8809 0.0
C2312 C 0.53485 0.03828 0.84695 0.0
C2313 C 0.53217 0.06195 0.84553 0.0
C2314 C 0.52226 0.07017 0.86223 0.0
C2315 C 0.51436 0.05425 0.87976 0.0
C2316 C 0.54568 0.02896 0.82966 0.0
C2317 C 0.5189 0.09514 0.8613 0.0
H2318 H 0.59174 0.12935 0.79997 0.0
H2319 H 0.50578 0.07516 0.78208 0.0
H2320 H 0.58338 0.11449 0.85077 0.0
H2321 H 0.59309 0.09127 0.84021 0.0
H2322 H 0.60934 0.12596 0.83105 0.0
H2323 H 0.47207 0.04213 0.80334 0.0
H2324 H 0.48738 0.02614 0.81813 0.0
H2325 H 0.47841 0.0494 0.82962 0.0
H2326 H 0.52808 0.00423 0.86544 0.0
H2327 H 0.50593 0.06006 0.8923 0.0
H2328 H 0.5663 0.046 0.8244 0.0
H2329 H 0.53066 0.02291 0.817 0.0
H2330 H 0.54839 0.01127 0.83363 0.0
H2331 H 0.5389 0.11323 0.85629 0.0
H2332 H 0.51279 0.09986 0.87594 0.0
H2333 H 0.50238 0.09176 0.85021 0.0
C2334 C 0.14817 0.24997 0.56766 0.0
C2335 C 0.12034 0.23942 0.57479 0.0
C2336 C 0.15649 0.26259 0.54885 0.0
C2337 C 0.13723 0.26675 0.53729 0.0
C2338 C 0.10909 0.25596 0.54417 0.0
C2339 C 0.10078 0.24155 0.56229 0.0
C2340 C 0.18622 0.27178 0.54183 0.0
C2341 C 0.08764 0.26002 0.53269 0.0
C2342 C 0.17135 0.32963 0.50381 0.0
C2343 C 0.16197 0.31855 0.48466 0.0
C2344 C 0.16306 0.3131 0.52092 0.0
C2345 C 0.14695 0.28426 0.51898 0.0
C2346 C 0.13933 0.27262 0.49965 0.0
C2347 C 0.14609 0.28984 0.48287 0.0
C2348 C 0.17127 0.32688 0.54109 0.0
C2349 C 0.12362 0.24205 0.4963 0.0
H2350 H 0.164 0.24901 0.57676 0.0
H2351 H 0.07882 0.23234 0.56666 0.0
H2352 H 0.18887 0.27538 0.52551 0.0
H2353 H 0.20124 0.29094 0.54968 0.0
H2354 H 0.19219 0.25619 0.54576 0.0
H2355 H 0.06942 0.25646 0.54219 0.0
H2356 H 0.09733 0.28102 0.52641 0.0
H2357 H 0.07934 0.24527 0.52016 0.0
H2358 H 0.18495 0.35148 0.50572 0.0
H2359 H 0.13836 0.28047 0.46844 0.0
H2360 H 0.19015 0.32645 0.54667 0.0
H2361 H 0.15397 0.31626 0.55214 0.0
H2362 H 0.1767 0.34866 0.54026 0.0
H2363 H 0.12468 0.2304 0.50929 0.0
H2364 H 0.13235 0.23692 0.48307 0.0
H2365 H 0.10111 0.2351 0.493 0.0
C2366 C 0.77252 0.89952 0.56439 0.0
C2367 C 0.78384 0.8831 0.57057 0.0
C2368 C 0.75851 0.89514 0.54607 0.0
C2369 C 0.75355 0.87239 0.53422 0.0
C2370 C 0.76511 0.8559 0.54012 0.0
C2371 C 0.78114 0.86226 0.55765 0.0
C2372 C 0.74866 0.91479 0.53994 0.0
C2373 C 0.76023 0.83109 0.52829 0.0
C2374 C 0.68721 0.84328 0.50253 0.0
C2375 C 0.69784 0.84498 0.48314 0.0
C2376 C 0.70501 0.85165 0.51922 0.0
C2377 C 0.73467 0.86455 0.51651 0.0
C2378 C 0.74588 0.86857 0.49696 0.0
C2379 C 0.72739 0.85782 0.48066 0.0
C2380 C 0.69165 0.84605 0.5397 0.0
C2381 C 0.7773 0.8837 0.49285 0.0
H2382 H 0.77386 0.91562 0.57389 0.0
H2383 H 0.791 0.85026 0.56126 0.0
H2384 H 0.74387 0.91378 0.52378 0.0
H2385 H 0.72945 0.91025 0.54857 0.0
H2386 H 0.76507 0.93614 0.54362 0.0
H2387 H 0.76315 0.81641 0.53764 0.0
H2388 H 0.73866 0.82011 0.52179 0.0
H2389 H 0.77578 0.83773 0.51593 0.0
H2390 H 0.66479 0.83493 0.50497 0.0
H2391 H 0.73654 0.85927 0.46609 0.0
H2392 H 0.69155 0.86457 0.54511 0.0
H2393 H 0.70345 0.84075 0.55061 0.0
H2394 H 0.66935 0.82902 0.53938 0.0
H2395 H 0.79003 0.89633 0.50563 0.0
H2396 H 0.7821 0.8973 0.47968 0.0
H2397 H 0.78411 0.86871 0.48905 0.0
C2398 C 0.14251 0.91373 0.55117 0.0
C2399 C 0.13236 0.89534 0.56725 0.0
C2400 C 0.15032 0.90669 0.53313 0.0
C2401 C 0.14818 0.8807 0.53118 0.0
C2402 C 0.1369 0.86165 0.54709 0.0
C2403 C 0.12902 0.86917 0.56492 0.0
C2404 C 0.16189 0.92745 0.51645 0.0
C2405 C 0.13443 0.83381 0.54565 0.0
C2406 C 0.15368 0.85501 0.47975 0.0
C2407 C 0.18219 0.8618 0.47927 0.0
C2408 C 0.1423 0.86119 0.49646 0.0
C2409 C 0.15978 0.87429 0.51315 0.0
C2410 C 0.18858 0.88133 0.51271 0.0
C2411 C 0.19944 0.87514 0.49577 0.0
C2412 C 0.11155 0.85352 0.49633 0.0
C2413 C 0.20795 0.89534 0.53018 0.0
H2414 H 0.1448 0.93387 0.55285 0.0
H2415 H 0.12143 0.85498 0.57736 0.0
H2416 H 0.18459 0.93431 0.51409 0.0
H2417 H 0.1507 0.91807 0.5023 0.0
H2418 H 0.15984 0.94572 0.51965 0.0
H2419 H 0.12322 0.82062 0.55868 0.0
H2420 H 0.12299 0.8232 0.53187 0.0
H2421 H 0.15588 0.83625 0.54477 0.0
H2422 H 0.14009 0.84442 0.46719 0.0
H2423 H 0.2216 0.88095 0.49542 0.0
H2424 H 0.10965 0.87195 0.49904 0.0
H2425 H 0.1001 0.83884 0.50857 0.0
H2426 H 0.10099 0.8441 0.48199 0.0
H2427 H 0.20908 0.91521 0.53321 0.0
H2428 H 0.22974 0.89919 0.52756 0.0
H2429 H 0.19939 0.88256 0.54378 0.0
C2430 C 0.57996 0.76616 0.1403 0.0
C2431 C 0.58869 0.78448 0.12421 0.0
C2432 C 0.59449 0.77376 0.15852 0.0
C2433 C 0.61849 0.80019 0.16057 0.0
C2434 C 0.62694 0.81903 0.14454 0.0
C2435 C 0.61184 0.81097 0.12655 0.0
C2436 C 0.58464 0.75324 0.17538 0.0
C2437 C 0.65258 0.84731 0.14611 0.0
C2438 C 0.64734 0.82769 0.21221 0.0
C2439 C 0.66949 0.82191 0.21374 0.0
C2440 C 0.63036 0.82053 0.19507 0.0
C2441 C 0.63584 0.80754 0.17902 0.0
C2442 C 0.65809 0.80161 0.18047 0.0
C2443 C 0.67451 0.80871 0.19785 0.0
C2444 C 0.60666 0.82698 0.19408 0.0
C2445 C 0.66464 0.78783 0.16364 0.0
H2446 H 0.56185 0.74577 0.13857 0.0
H2447 H 0.61878 0.82507 0.11406 0.0
H2448 H 0.60095 0.74751 0.17856 0.0
H2449 H 0.58175 0.76243 0.18918 0.0
H2450 H 0.56442 0.73432 0.17187 0.0
H2451 H 0.65533 0.86003 0.13272 0.0
H2452 H 0.65089 0.85803 0.15944 0.0
H2453 H 0.67186 0.84562 0.14795 0.0
H2454 H 0.64352 0.83817 0.22431 0.0
H2455 H 0.69121 0.80369 0.19904 0.0
H2456 H 0.58628 0.80799 0.19118 0.0
H2457 H 0.61036 0.8412 0.18152 0.0
H2458 H 0.60466 0.83644 0.20806 0.0
H2459 H 0.64592 0.7675 0.16051 0.0
H2460 H 0.6829 0.78495 0.16705 0.0
H2461 H 0.66942 0.80023 0.14983 0.0
C2462 C 0.26242 0.82452 0.13511 0.0
C2463 C 0.24287 0.81045 0.11983 0.0
C2464 C 0.25367 0.82972 0.15351 0.0
C2465 C 0.22463 0.82047 0.15679 0.0
C2466 C 0.20473 0.80578 0.14161 0.0
C2467 C 0.21408 0.80107 0.12331 0.0
C2468 C 0.27553 0.84548 0.16931 0.0
C2469 C 0.17356 0.79552 0.14453 0.0
C2470 C 0.19591 0.81461 0.20942 0.0
C2471 C 0.19316 0.83801 0.21054 0.0
C2472 C 0.20668 0.80888 0.19217 0.0
C2473 C 0.21508 0.8271 0.17574 0.0
C2474 C 0.21318 0.8512 0.17706 0.0
C2475 C 0.20217 0.8563 0.19441 0.0
C2476 C 0.20824 0.78291 0.19129 0.0
C2477 C 0.2222 0.87131 0.15997 0.0
H2478 H 0.28464 0.83149 0.13268 0.0
H2479 H 0.19884 0.79054 0.11155 0.0
H2480 H 0.27572 0.86484 0.17268 0.0
H2481 H 0.27006 0.83345 0.18334 0.0
H2482 H 0.29716 0.85053 0.16466 0.0
H2483 H 0.16066 0.78324 0.13165 0.0
H2484 H 0.16584 0.78272 0.15818 0.0
H2485 H 0.17007 0.81313 0.14663 0.0
H2486 H 0.18877 0.80031 0.2218 0.0
H2487 H 0.20047 0.87463 0.19532 0.0
H2488 H 0.22992 0.78766 0.18718 0.0
H2489 H 0.19373 0.76921 0.17957 0.0
H2490 H 0.20239 0.77168 0.20571 0.0
H2491 H 0.24434 0.87799 0.15562 0.0
H2492 H 0.22069 0.88973 0.16375 0.0
H2493 H 0.20869 0.86127 0.14678 0.0
C2494 C 0.23189 0.44162 0.13681 0.0
C2495 C 0.21032 0.43278 0.12246 0.0
C2496 C 0.22721 0.42826 0.15534 0.0
C2497 C 0.20026 0.40553 0.15975 0.0
C2498 C 0.17833 0.39668 0.14545 0.0
C2499 C 0.18364 0.41028 0.12701 0.0
C2500 C 0.2512 0.4383 0.17012 0.0
C2501 C 0.14928 0.37255 0.1495 0.0
C2502 C 0.19228 0.35172 0.19757 0.0
C2503 C 0.18128 0.35829 0.21425 0.0
C2504 C 0.19933 0.36739 0.18001 0.0
C2505 C 0.19516 0.39022 0.17896 0.0
C2506 C 0.18486 0.3975 0.19596 0.0
C2507 C 0.17815 0.38152 0.21342 0.0
C2508 C 0.21057 0.35907 0.16238 0.0
C2509 C 0.18 0.42159 0.19546 0.0
H2510 H 0.25246 0.45918 0.13361 0.0
H2511 H 0.16692 0.40291 0.11598 0.0
H2512 H 0.2449 0.44359 0.18444 0.0
H2513 H 0.25608 0.42179 0.17331 0.0
H2514 H 0.27073 0.45656 0.16461 0.0
H2515 H 0.13418 0.36895 0.13721 0.0
H2516 H 0.15073 0.35376 0.15156 0.0
H2517 H 0.14061 0.37589 0.16352 0.0
H2518 H 0.19517 0.33405 0.1982 0.0
H2519 H 0.16949 0.38662 0.22619 0.0
H2520 H 0.23084 0.37667 0.1572 0.0
H2521 H 0.1954 0.35289 0.14981 0.0
H2522 H 0.21408 0.34175 0.16596 0.0
H2523 H 0.19947 0.4403 0.19051 0.0
H2524 H 0.1736 0.42561 0.21024 0.0
H2525 H 0.16316 0.41765 0.1845 0.0
C2526 C 0.78386 0.59959 0.90413 0.0
C2527 C 0.78446 0.57549 0.90828 0.0
C2528 C 0.79284 0.61279 0.88559 0.0
C2529 C 0.80256 0.6016 0.87073 0.0
C2530 C 0.80281 0.57703 0.8747 0.0
C2531 C 0.7939 0.56435 0.89346 0.0
C2532 C 0.79251 0.63909 0.88208 0.0
C2533 C 0.81278 0.56431 0.85921 0.0
C2534 C 0.8061 0.62797 0.81781 0.0
C2535 C 0.83461 0.64854 0.81641 0.0
C2536 C 0.7955 0.61185 0.83514 0.0
C2537 C 0.81382 0.61648 0.85148 0.0
C2538 C 0.84281 0.63653 0.84985 0.0
C2539 C 0.85284 0.65216 0.83235 0.0
C2540 C 0.76451 0.59051 0.83622 0.0
C2541 C 0.86311 0.64213 0.86687 0.0
H2542 H 0.77693 0.6085 0.91558 0.0
H2543 H 0.79411 0.54557 0.8965 0.0
H2544 H 0.81439 0.6561 0.87942 0.0
H2545 H 0.77997 0.63722 0.86856 0.0
H2546 H 0.78345 0.64462 0.8949 0.0
H2547 H 0.8104 0.5445 0.86427 0.0
H2548 H 0.80067 0.56084 0.84519 0.0
H2549 H 0.83538 0.5785 0.85567 0.0
H2550 H 0.79181 0.6251 0.80564 0.0
H2551 H 0.87503 0.66757 0.83125 0.0
H2552 H 0.7539 0.5966 0.84757 0.0
H2553 H 0.76191 0.57051 0.84095 0.0
H2554 H 0.75362 0.58778 0.8217 0.0
H2555 H 0.8566 0.6497 0.87998 0.0
H2556 H 0.88523 0.65759 0.86292 0.0
H2557 H 0.86255 0.62297 0.87145 0.0
C2558 C 0.4286 0.2276 0.89918 0.0
C2559 C 0.4412 0.21231 0.90545 0.0
C2560 C 0.4146 0.22256 0.8808 0.0
C2561 C 0.41108 0.20031 0.86897 0.0
C2562 C 0.42357 0.18474 0.87507 0.0
C2563 C 0.43943 0.19168 0.8927 0.0
C2564 C 0.4031 0.24083 0.87447 0.0
C2565 C 0.41935 0.16004 0.86339 0.0
C2566 C 0.34625 0.16666 0.83584 0.0
C2567 C 0.35821 0.17103 0.81662 0.0
C2568 C 0.36319 0.17581 0.85295 0.0
C2569 C 0.39287 0.19203 0.85093 0.0
C2570 C 0.40507 0.19896 0.83169 0.0
C2571 C 0.38783 0.1875 0.81486 0.0
C2572 C 0.34918 0.16734 0.87318 0.0
C2573 C 0.43641 0.2181 0.82877 0.0
H2574 H 0.429 0.2433 0.90866 0.0
H2575 H 0.44999 0.18039 0.89651 0.0
H2576 H 0.40205 0.24208 0.85801 0.0
H2577 H 0.38149 0.23269 0.88062 0.0
H2578 H 0.41636 0.26189 0.88044 0.0
H2579 H 0.42743 0.14815 0.87148 0.0
H2580 H 0.39653 0.14625 0.86021 0.0
H2581 H 0.43051 0.16661 0.84889 0.0
H2582 H 0.32355 0.15558 0.8378 0.0
H2583 H 0.39804 0.19126 0.80048 0.0
H2584 H 0.35011 0.18526 0.88072 0.0
H2585 H 0.36038 0.15973 0.88276 0.0
H2586 H 0.32662 0.15106 0.87209 0.0
H2587 H 0.4449 0.23472 0.84006 0.0
H2588 H 0.44107 0.22752 0.81367 0.0
H2589 H 0.44783 0.20657 0.83033 0.0
C2590 C 0.8176 0.24834 0.88835 0.0
C2591 C 0.80592 0.23005 0.9044 0.0
C2592 C 0.82472 0.24032 0.87044 0.0
C2593 C 0.82016 0.21339 0.86857 0.0
C2594 C 0.80773 0.19463 0.88454 0.0
C2595 C 0.80071 0.20317 0.90225 0.0
C2596 C 0.83771 0.26085 0.8537 0.0
C2597 C 0.80265 0.16578 0.88316 0.0
C2598 C 0.82036 0.18486 0.81717 0.0
C2599 C 0.84777 0.1886 0.81624 0.0
C2600 C 0.81114 0.19309 0.834 0.0
C2601 C 0.82973 0.20526 0.85033 0.0
C2602 C 0.85751 0.20937 0.84939 0.0
C2603 C 0.8662 0.20108 0.83236 0.0
C2604 C 0.7814 0.18845 0.83443 0.0
C2605 C 0.87801 0.22234 0.86646 0.0
H2606 H 0.82132 0.26903 0.88984 0.0
H2607 H 0.79196 0.18903 0.91467 0.0
H2608 H 0.8596 0.2652 0.85085 0.0
H2609 H 0.82552 0.25231 0.83974 0.0
H2610 H 0.83841 0.28047 0.85711 0.0
H2611 H 0.79146 0.15329 0.89647 0.0
H2612 H 0.78997 0.15546 0.8697 0.0
H2613 H 0.82318 0.16634 0.88164 0.0
H2614 H 0.80587 0.17497 0.80489 0.0
H2615 H 0.88756 0.20449 0.83163 0.0
H2616 H 0.78187 0.20806 0.83727 0.0
H2617 H 0.76934 0.17433 0.84682 0.0
H2618 H 0.7699 0.17961 0.82026 0.0
H2619 H 0.88124 0.24304 0.86958 0.0
H2620 H 0.89892 0.22424 0.86333 0.0
H2621 H 0.86916 0.20992 0.88018 0.0
C2622 C 0.24479 0.09672 0.47269 0.0
C2623 C 0.25356 0.11552 0.45688 0.0
C2624 C 0.25902 0.10393 0.49105 0.0
C2625 C 0.28269 0.13048 0.49357 0.0
C2626 C 0.29119 0.14974 0.47783 0.0
C2627 C 0.27648 0.14204 0.45968 0.0
C2628 C 0.24916 0.08293 0.50758 0.0
C2629 C 0.31645 0.1782 0.4799 0.0
C2630 C 0.31069 0.15804 0.54537 0.0
C2631 C 0.33367 0.15348 0.5468 0.0
C2632 C 0.29353 0.15019 0.52828 0.0
C2633 C 0.29963 0.13767 0.51222 0.0
C2634 C 0.32254 0.1327 0.51368 0.0
C2635 C 0.33919 0.14055 0.53097 0.0
C2636 C 0.26919 0.15571 0.52728 0.0
C2637 C 0.32973 0.1194 0.49686 0.0
H2638 H 0.22687 0.0763 0.47064 0.0
H2639 H 0.28356 0.15653 0.44743 0.0
H2640 H 0.26579 0.07766 0.51085 0.0
H2641 H 0.24557 0.09149 0.52145 0.0
H2642 H 0.22933 0.06383 0.50368 0.0
H2643 H 0.31936 0.19119 0.46664 0.0
H2644 H 0.31408 0.18843 0.49329 0.0
H2645 H 0.3359 0.17688 0.48196 0.0
H2646 H 0.30645 0.16827 0.55743 0.0
H2647 H 0.35656 0.13648 0.53211 0.0
H2648 H 0.24924 0.13651 0.52387 0.0
H2649 H 0.27284 0.17036 0.51503 0.0
H2650 H 0.26639 0.16433 0.54143 0.0
H2651 H 0.31123 0.09908 0.49337 0.0
H2652 H 0.34801 0.11663 0.50047 0.0
H2653 H 0.33484 0.13212 0.48319 0.0
C2654 C 0.94429 0.1418 0.47465 0.0
C2655 C 0.92214 0.13219 0.46077 0.0
C2656 C 0.94067 0.14831 0.49425 0.0
C2657 C 0.91427 0.14517 0.50012 0.0
C2658 C 0.89138 0.13403 0.48651 0.0
C2659 C 0.89558 0.12766 0.46701 0.0
C2660 C 0.96556 0.15992 0.50833 0.0
C2661 C 0.8629 0.13036 0.49216 0.0
C2662 C 0.90181 0.15136 0.55538 0.0
C2663 C 0.90933 0.17902 0.55673 0.0
C2664 C 0.90292 0.13984 0.53701 0.0
C2665 C 0.91161 0.15636 0.51963 0.0
C2666 C 0.91855 0.18411 0.52088 0.0
C2667 C 0.91732 0.19506 0.53937 0.0
C2668 C 0.89539 0.11019 0.53628 0.0
C2669 C 0.92768 0.20241 0.50269 0.0
H2670 H 0.96473 0.14493 0.47001 0.0
H2671 H 0.87842 0.12044 0.45633 0.0
H2672 H 0.97275 0.18181 0.51125 0.0
H2673 H 0.95931 0.14906 0.52286 0.0
H2674 H 0.98367 0.15843 0.50221 0.0
H2675 H 0.84647 0.11849 0.48079 0.0
H2676 H 0.85582 0.11976 0.50674 0.0
H2677 H 0.86466 0.15075 0.49377 0.0
H2678 H 0.89579 0.13892 0.56878 0.0
H2679 H 0.92268 0.21632 0.54026 0.0
H2680 H 0.91421 0.10883 0.53177 0.0
H2681 H 0.87878 0.09901 0.5249 0.0
H2682 H 0.88772 0.09976 0.55089 0.0
H2683 H 0.94734 0.20415 0.49643 0.0
H2684 H 0.93164 0.22332 0.50611 0.0
H2685 H 0.9112 0.19333 0.49096 0.0
C2686 C 0.87118 0.78025 0.4727 0.0
C2687 C 0.88291 0.77268 0.45702 0.0
C2688 C 0.86433 0.76625 0.49105 0.0
C2689 C 0.86906 0.74393 0.49375 0.0
C2690 C 0.88141 0.73654 0.4781 0.0
C2691 C 0.88828 0.75105 0.45999 0.0
C2692 C 0.85152 0.77501 0.5074 0.0
C2693 C 0.88657 0.71273 0.48027 0.0
C2694 C 0.86928 0.7165 0.54579 0.0
C2695 C 0.84198 0.69353 0.54693 0.0
C2696 C 0.87824 0.73345 0.52878 0.0
C2697 C 0.85954 0.72724 0.51244 0.0
C2698 C 0.83179 0.70447 0.51369 0.0
C2699 C 0.82333 0.68806 0.5309 0.0
C2700 C 0.90791 0.75768 0.52812 0.0
C2701 C 0.81113 0.69708 0.49666 0.0
H2702 H 0.86731 0.79717 0.47061 0.0
H2703 H 0.89706 0.74489 0.44788 0.0
H2704 H 0.82962 0.75835 0.5105 0.0
H2705 H 0.86378 0.77883 0.52138 0.0
H2706 H 0.85088 0.79382 0.50342 0.0
H2707 H 0.89754 0.71041 0.4671 0.0
H2708 H 0.89949 0.71542 0.49374 0.0
H2709 H 0.86608 0.69348 0.48226 0.0
H2710 H 0.88395 0.72083 0.55798 0.0
H2711 H 0.80199 0.67077 0.53176 0.0
H2712 H 0.90738 0.77662 0.5245 0.0
H2713 H 0.92014 0.75467 0.51615 0.0
H2714 H 0.91927 0.76074 0.54247 0.0
H2715 H 0.80805 0.71462 0.49307 0.0
H2716 H 0.79019 0.67897 0.50008 0.0
H2717 H 0.81978 0.6926 0.4831 0.0
loop_
_geom_bond_atom_site_label_1
_geom_bond_atom_site_label_2
_geom_bond_distance
_geom_bond_site_symmetry_2
_ccdc_geom_bond_type
H0 C7 0.929 . S
H1 C10 0.930 . S
H2 C12 0.929 . S
H3 C4 0.969 . S
C4 H3 0.969 . S
C4 O5 1.550 . S
C4 H6 0.973 . S
O5 C4 1.550 . S
O5 C11 1.412 . S
H6 C4 0.973 . S
C7 H0 0.929 . S
C7 C8 1.400 . S
C7 C9 1.364 . S
C8 C7 1.400 . S
C8 C12 1.377 . S
C9 C7 1.364 . S
C9 C10 1.374 . S
C10 H1 0.930 . S
C10 C9 1.374 . S
C10 C11 1.383 . S
C11 O5 1.412 . S
C11 C10 1.383 . S
C11 C12 1.394 . S
C12 H2 0.929 . S
C12 C8 1.377 . S
C12 C11 1.394 . S
H13 C20 0.929 . S
H14 C23 0.930 . S
H15 C25 0.929 . S
H16 C17 0.969 . S
C17 H16 0.969 . S
C17 O18 1.550 . S
C17 H19 0.973 . S
O18 C17 1.550 . S
O18 C24 1.412 . S
H19 C17 0.973 . S
C20 H13 0.929 . S
C20 C21 1.400 . S
C20 C22 1.364 . S
C21 C20 1.400 . S
C21 C25 1.377 . S
C22 C20 1.364 . S
C22 C23 1.374 . S
C23 H14 0.930 . S
C23 C22 1.374 . S
C23 C24 1.383 . S
C24 O18 1.412 . S
C24 C23 1.383 . S
C24 C25 1.394 . S
C25 H15 0.929 . S
C25 C21 1.377 . S
C25 C24 1.394 . S
H26 C33 0.929 . S
H27 C36 0.930 . S
H28 C38 0.929 . S
H29 C30 0.969 . S
C30 H29 0.969 . S
C30 O31 1.550 . S
C30 H32 0.973 . S
O31 C30 1.550 . S
O31 C37 1.412 . S
H32 C30 0.973 . S
C33 H26 0.929 . S
C33 C34 1.400 . S
C33 C35 1.364 . S
C34 C33 1.400 . S
C34 C38 1.377 . S
C35 C33 1.364 . S
C35 C36 1.374 . S
C36 H27 0.930 . S
C36 C35 1.374 . S
C36 C37 1.383 . S
C37 O31 1.412 . S
C37 C36 1.383 . S
C37 C38 1.394 . S
C38 H28 0.929 . S
C38 C34 1.377 . S
C38 C37 1.394 . S
H39 C46 0.929 . S
H40 C49 0.930 . S
H41 C51 0.929 . S
H42 C43 0.969 . S
C43 H42 0.969 . S
C43 O44 1.550 . S
C43 H45 0.973 . S
O44 C43 1.550 . S
O44 C50 1.412 . S
H45 C43 0.973 . S
C46 H39 0.929 . S
C46 C47 1.400 . S
C46 C48 1.364 . S
C47 C46 1.400 . S
C47 C51 1.377 . S
C48 C46 1.364 . S
C48 C49 1.374 . S
C49 H40 0.930 . S
C49 C48 1.374 . S
C49 C50 1.383 . S
C50 O44 1.412 . S
C50 C49 1.383 . S
C50 C51 1.394 . S
C51 H41 0.929 . S
C51 C47 1.377 . S
C51 C50 1.394 . S
H52 C59 0.929 . S
H53 C62 0.930 . S
H54 C64 0.929 . S
H55 C56 0.969 . S
C56 H55 0.969 . S
C56 O57 1.550 . S
C56 H58 0.973 . S
O57 C56 1.550 . S
O57 C63 1.412 . S
H58 C56 0.973 . S
C59 H52 0.929 . S
C59 C60 1.400 . S
C59 C61 1.364 . S
C60 C59 1.400 . S
C60 C64 1.377 . S
C61 C59 1.364 . S
C61 C62 1.374 . S
C62 H53 0.930 . S
C62 C61 1.374 . S
C62 C63 1.383 . S
C63 O57 1.412 . S
C63 C62 1.383 . S
C63 C64 1.394 . S
C64 H54 0.929 . S
C64 C60 1.377 . S
C64 C63 1.394 . S
H65 C72 0.929 . S
H66 C75 0.930 . S
H67 C77 0.929 . S
H68 C69 0.969 . S
C69 H68 0.969 . S
C69 O70 1.550 . S
C69 H71 0.973 . S
O70 C69 1.550 . S
O70 C76 1.412 . S
H71 C69 0.973 . S
C72 H65 0.929 . S
C72 C73 1.400 . S
C72 C74 1.364 . S
C73 C72 1.400 . S
C73 C77 1.377 . S
C74 C72 1.364 . S
C74 C75 1.374 . S
C75 H66 0.930 . S
C75 C74 1.374 . S
C75 C76 1.383 . S
C76 O70 1.412 . S
C76 C75 1.383 . S
C76 C77 1.394 . S
C77 H67 0.929 . S
C77 C73 1.377 . S
C77 C76 1.394 . S
H78 C85 0.929 . S
H79 C88 0.930 . S
H80 C90 0.929 . S
H81 C82 0.969 . S
C82 H81 0.969 . S
C82 O83 1.550 . S
C82 H84 0.973 . S
O83 C82 1.550 . S
O83 C89 1.412 . S
H84 C82 0.973 . S
C85 H78 0.929 . S
C85 C86 1.400 . S
C85 C87 1.364 . S
C86 C85 1.400 . S
C86 C90 1.377 . S
C87 C85 1.364 . S
C87 C88 1.374 . S
C88 H79 0.930 . S
C88 C87 1.374 . S
C88 C89 1.383 . S
C89 O83 1.412 . S
C89 C88 1.383 . S
C89 C90 1.394 . S
C90 H80 0.929 . S
C90 C86 1.377 . S
C90 C89 1.394 . S
H91 C98 0.929 . S
H92 C101 0.930 . S
H93 C103 0.929 . S
H94 C95 0.969 . S
C95 H94 0.969 . S
C95 O96 1.550 . S
C95 H97 0.973 . S
O96 C95 1.550 . S
O96 C102 1.412 . S
H97 C95 0.973 . S
C98 H91 0.929 . S
C98 C99 1.400 . S
C98 C100 1.364 . S
C99 C98 1.400 . S
C99 C103 1.377 . S
C100 C98 1.364 . S
C100 C101 1.374 . S
C101 H92 0.930 . S
C101 C100 1.374 . S
C101 C102 1.383 . S
C102 O96 1.412 . S
C102 C101 1.383 . S
C102 C103 1.394 . S
C103 H93 0.929 . S
C103 C99 1.377 . S
C103 C102 1.394 . S
H104 C111 0.929 . S
H105 C114 0.930 . S
H106 C116 0.929 . S
H107 C108 0.969 . S
C108 H107 0.969 . S
C108 O109 1.550 . S
C108 H110 0.973 . S
O109 C108 1.550 . S
O109 C115 1.412 . S
H110 C108 0.973 . S
C111 H104 0.929 . S
C111 C112 1.400 . S
C111 C113 1.364 . S
C112 C111 1.400 . S
C112 C116 1.377 . S
C113 C111 1.364 . S
C113 C114 1.374 . S
C114 H105 0.930 . S
C114 C113 1.374 . S
C114 C115 1.383 . S
C115 O109 1.412 . S
C115 C114 1.383 . S
C115 C116 1.394 . S
C116 H106 0.929 . S
C116 C112 1.377 . S
C116 C115 1.394 . S
H117 C124 0.929 . S
H118 C127 0.930 . S
H119 C129 0.929 . S
H120 C121 0.969 . S
C121 H120 0.969 . S
C121 O122 1.550 . S
C121 H123 0.973 . S
O122 C121 1.550 . S
O122 C128 1.412 . S
H123 C121 0.973 . S
C124 H117 0.929 . S
C124 C125 1.400 . S
C124 C126 1.364 . S
C125 C124 1.400 . S
C125 C129 1.377 . S
C126 C124 1.364 . S
C126 C127 1.374 . S
C127 H118 0.930 . S
C127 C126 1.374 . S
C127 C128 1.383 . S
C128 O122 1.412 . S
C128 C127 1.383 . S
C128 C129 1.394 . S
C129 H119 0.929 . S
C129 C125 1.377 . S
C129 C128 1.394 . S
H130 C137 0.929 . S
H131 C140 0.930 . S
H132 C142 0.929 . S
H133 C134 0.969 . S
C134 H133 0.969 . S
C134 O135 1.550 . S
C134 H136 0.973 . S
O135 C134 1.550 . S
O135 C141 1.412 . S
H136 C134 0.973 . S
C137 H130 0.929 . S
C137 C138 1.400 . S
C137 C139 1.364 . S
C138 C137 1.400 . S
C138 C142 1.377 . S
C139 C137 1.364 . S
C139 C140 1.374 . S
C140 H131 0.930 . S
C140 C139 1.374 . S
C140 C141 1.383 . S
C141 O135 1.412 . S
C141 C140 1.383 . S
C141 C142 1.394 . S
C142 H132 0.929 . S
C142 C138 1.377 . S
C142 C141 1.394 . S
H143 C150 0.929 . S
H144 C153 0.930 . S
H145 C155 0.929 . S
H146 C147 0.969 . S
C147 H146 0.969 . S
C147 O148 1.550 . S
C147 H149 0.973 . S
O148 C147 1.550 . S
O148 C154 1.412 . S
H149 C147 0.973 . S
C150 H143 0.929 . S
C150 C151 1.400 . S
C150 C152 1.364 . S
C151 C150 1.400 . S
C151 C155 1.377 . S
C152 C150 1.364 . S
C152 C153 1.374 . S
C153 H144 0.930 . S
C153 C152 1.374 . S
C153 C154 1.383 . S
C154 O148 1.412 . S
C154 C153 1.383 . S
C154 C155 1.394 . S
C155 H145 0.929 . S
C155 C151 1.377 . S
C155 C154 1.394 . S
H156 C163 0.929 . S
H157 C166 0.930 . S
H158 C168 0.929 . S
H159 C160 0.969 . S
C160 H159 0.969 . S
C160 O161 1.550 . S
C160 H162 0.973 . S
O161 C160 1.550 . S
O161 C167 1.412 . S
H162 C160 0.973 . S
C163 H156 0.929 . S
C163 C164 1.400 . S
C163 C165 1.364 . S
C164 C163 1.400 . S
C164 C168 1.377 . S
C165 C163 1.364 . S
C165 C166 1.374 . S
C166 H157 0.930 . S
C166 C165 1.374 . S
C166 C167 1.383 . S
C167 O161 1.412 . S
C167 C166 1.383 . S
C167 C168 1.394 . S
C168 H158 0.929 . S
C168 C164 1.377 . S
C168 C167 1.394 . S
H169 C176 0.929 . S
H170 C179 0.930 . S
H171 C181 0.929 . S
H172 C173 0.969 . S
C173 H172 0.969 . S
C173 O174 1.550 . S
C173 H175 0.973 . S
O174 C173 1.550 . S
O174 C180 1.412 . S
H175 C173 0.973 . S
C176 H169 0.929 . S
C176 C177 1.400 . S
C176 C178 1.364 . S
C177 C176 1.400 . S
C177 C181 1.377 . S
C178 C176 1.364 . S
C178 C179 1.374 . S
C179 H170 0.930 . S
C179 C178 1.374 . S
C179 C180 1.383 . S
C180 O174 1.412 . S
C180 C179 1.383 . S
C180 C181 1.394 . S
C181 H171 0.929 . S
C181 C177 1.377 . S
C181 C180 1.394 . S
H182 C189 0.929 . S
H183 C192 0.930 . S
H184 C194 0.929 . S
H185 C186 0.969 . S
C186 H185 0.969 . S
C186 O187 1.550 . S
C186 H188 0.973 . S
O187 C186 1.550 . S
O187 C193 1.412 . S
H188 C186 0.973 . S
C189 H182 0.929 . S
C189 C190 1.400 . S
C189 C191 1.364 . S
C190 C189 1.400 . S
C190 C194 1.377 . S
C191 C189 1.364 . S
C191 C192 1.374 . S
C192 H183 0.930 . S
C192 C191 1.374 . S
C192 C193 1.383 . S
C193 O187 1.412 . S
C193 C192 1.383 . S
C193 C194 1.394 . S
C194 H184 0.929 . S
C194 C190 1.377 . S
C194 C193 1.394 . S
H195 C202 0.929 . S
H196 C205 0.930 . S
H197 C207 0.929 . S
H198 C199 0.969 . S
C199 H198 0.969 . S
C199 O200 1.550 . S
C199 H201 0.973 . S
O200 C199 1.550 . S
O200 C206 1.412 . S
H201 C199 0.973 . S
C202 H195 0.929 . S
C202 C203 1.400 . S
C202 C204 1.364 . S
C203 C202 1.400 . S
C203 C207 1.377 . S
C204 C202 1.364 . S
C204 C205 1.374 . S
C205 H196 0.930 . S
C205 C204 1.374 . S
C205 C206 1.383 . S
C206 O200 1.412 . S
C206 C205 1.383 . S
C206 C207 1.394 . S
C207 H197 0.929 . S
C207 C203 1.377 . S
C207 C206 1.394 . S
H208 C215 0.929 . S
H209 C218 0.930 . S
H210 C220 0.929 . S
H211 C212 0.969 . S
C212 H211 0.969 . S
C212 O213 1.550 . S
C212 H214 0.973 . S
O213 C212 1.550 . S
O213 C219 1.412 . S
H214 C212 0.973 . S
C215 H208 0.929 . S
C215 C216 1.400 . S
C215 C217 1.364 . S
C216 C215 1.400 . S
C216 C220 1.377 . S
C217 C215 1.364 . S
C217 C218 1.374 . S
C218 H209 0.930 . S
C218 C217 1.374 . S
C218 C219 1.383 . S
C219 O213 1.412 . S
C219 C218 1.383 . S
C219 C220 1.394 . S
C220 H210 0.929 . S
C220 C216 1.377 . S
C220 C219 1.394 . S
H221 C228 0.929 . S
H222 C231 0.930 . S
H223 C233 0.929 . S
H224 C225 0.969 . S
C225 H224 0.969 . S
C225 O226 1.550 . S
C225 H227 0.973 . S
O226 C225 1.550 . S
O226 C232 1.412 . S
H227 C225 0.973 . S
C228 H221 0.929 . S
C228 C229 1.400 . S
C228 C230 1.364 . S
C229 C228 1.400 . S
C229 C233 1.377 . S
C230 C228 1.364 . S
C230 C231 1.374 . S
C231 H222 0.930 . S
C231 C230 1.374 . S
C231 C232 1.383 . S
C232 O226 1.412 . S
C232 C231 1.383 . S
C232 C233 1.394 . S
C233 H223 0.929 . S
C233 C229 1.377 . S
C233 C232 1.394 . S
Tb234 N265 2.660 . S
Tb234 N272 2.600 . S
Tb234 O278 2.546 . S
Tb234 O279 2.610 1_566 S
Tb234 O281 2.320 1_565 S
Tb234 O282 2.552 1_565 S
Tb234 O283 2.413 1_565 S
Tb234 O285 2.362 1_556 S
Tb234 O286 2.423 . S
Tb234 C298 2.831 1_565 S
C235 C238 1.432 . S
C235 C239 1.414 . S
C235 N242 1.359 . S
C236 C238 1.417 . S
C236 C240 1.432 . S
C236 C248 1.410 . S
C237 C239 1.444 . S
C237 C240 1.317 . S
C237 H260 0.929 . S
C238 C235 1.432 . S
C238 C236 1.417 . S
C238 N246 1.360 . S
C239 C235 1.414 . S
C239 C237 1.444 . S
C239 C244 1.385 . S
C240 C236 1.432 . S
C240 C237 1.317 . S
C240 H252 0.930 . S
C241 C243 1.392 . S
C241 C244 1.370 . S
C241 H253 0.931 . S
N242 C235 1.359 . S
N242 C243 1.327 . S
N242 Tb245 2.600 . S
C243 C241 1.392 . S
C243 N242 1.327 . S
C243 H250 0.930 . S
C244 C239 1.385 . S
C244 C241 1.370 . S
C244 H263 0.930 . S
Tb245 N242 2.600 . S
Tb245 N246 2.660 . S
Tb245 O279 2.362 . S
Tb245 O280 2.421 . S
Tb245 O284 2.546 . S
Tb245 O285 2.610 1_545 S
Tb245 O287 2.320 1_545 S
Tb245 O288 2.552 1_545 S
Tb245 O289 2.413 1_545 S
Tb245 C309 2.833 . S
N246 C238 1.360 . S
N246 Tb245 2.660 . S
N246 C247 1.305 . S
C247 N246 1.305 . S
C247 C249 1.407 . S
C247 H254 0.930 . S
C248 C236 1.410 . S
C248 C249 1.345 . S
C248 H256 0.930 . S
C249 C247 1.407 . S
C249 C248 1.345 . S
C249 H251 0.930 . S
H250 C243 0.930 . S
H251 C249 0.930 . S
H252 C240 0.930 . S
H253 C241 0.931 . S
H254 C247 0.930 . S
H255 C269 0.930 . S
H256 C248 0.930 . S
H257 C275 0.930 . S
H258 C266 0.930 . S
H259 C273 0.931 . S
H260 C237 0.929 . S
H261 C267 0.930 . S
H262 C300 0.930 . S
H263 C244 0.930 . S
H264 C299 0.929 . S
N265 Tb234 2.660 . S
N265 C266 1.305 . S
N265 C270 1.360 . S
C266 H258 0.930 . S
C266 N265 1.305 . S
C266 C269 1.407 . S
C267 H261 0.930 . S
C267 C268 1.410 . S
C267 C269 1.345 . S
C268 C267 1.410 . S
C268 C270 1.417 . S
C268 C300 1.432 . S
C269 H255 0.930 . S
C269 C266 1.407 . S
C269 C267 1.345 . S
C270 N265 1.360 . S
C270 C268 1.417 . S
C270 C274 1.432 . S
H271 C276 0.930 . S
N272 Tb234 2.600 . S
N272 C274 1.359 . S
N272 C275 1.327 . S
C273 H259 0.931 . S
C273 C275 1.392 . S
C273 C276 1.370 . S
C274 C270 1.432 . S
C274 N272 1.359 . S
C274 C277 1.414 . S
C275 H257 0.930 . S
C275 N272 1.327 . S
C275 C273 1.392 . S
C276 H271 0.930 . S
C276 C273 1.370 . S
C276 C277 1.385 . S
C277 C274 1.414 . S
C277 C276 1.385 . S
C277 C299 1.444 . S
O278 Tb234 2.546 . S
O278 C298 1.224 1_565 S
O279 Tb234 2.610 1_544 S
O279 Tb245 2.362 . S
O279 C290 1.283 1_554 S
O280 Tb245 2.421 . S
O280 C297 1.262 . S
O281 Tb234 2.320 1_545 S
O281 C297 1.260 1_556 S
O282 Tb234 2.552 1_545 S
O282 C290 1.243 . S
O283 Tb234 2.413 1_545 S
O283 C298 1.279 . S
O284 Tb245 2.546 . S
O284 C309 1.251 . S
O285 Tb234 2.362 1_554 S
O285 Tb245 2.610 1_565 S
O285 C301 1.283 . S
O286 Tb234 2.423 . S
O286 C308 1.258 1_556 S
O287 Tb245 2.320 1_565 S
O287 C308 1.260 . S
O288 Tb245 2.552 1_565 S
O288 C301 1.243 . S
O289 Tb245 2.413 1_565 S
O289 C309 1.256 1_565 S
C290 O279 1.283 1_556 S
C290 O282 1.243 . S
C291 C293 1.382 . S
C291 C295 1.393 1_545 S
C291 C298 1.505 . S
C292 C293 1.400 . S
C292 C294 1.384 . S
C293 C291 1.382 . S
C293 C292 1.400 . S
C293 H310 0.930 . S
C294 C292 1.384 . S
C294 C296 1.392 1_545 S
C294 H311 0.931 . S
C295 C291 1.393 1_565 S
C295 C296 1.401 . S
C295 H312 0.930 . S
C296 C294 1.392 1_565 S
C296 C295 1.401 . S
C296 H313 0.930 . S
C297 O280 1.262 . S
C297 O281 1.260 1_554 S
C298 Tb234 2.831 1_545 S
C298 O278 1.224 1_545 S
C298 O283 1.279 . S
C298 C291 1.505 . S
C299 H264 0.929 . S
C299 C277 1.444 . S
C299 C300 1.317 . S
C300 H262 0.930 . S
C300 C268 1.432 . S
C300 C299 1.317 . S
C301 O285 1.283 . S
C301 O288 1.243 . S
C302 C303 1.339 1_545 S
C302 C306 1.430 . S
C302 C309 1.507 . S
C303 C302 1.339 1_565 S
C303 C304 1.400 . S
C303 H314 0.930 . S
C304 C303 1.400 . S
C304 C305 1.384 . S
C305 C304 1.384 . S
C305 C307 1.392 1_565 S
C305 H315 0.931 . S
C306 C302 1.430 . S
C306 C307 1.401 . S
C306 H316 0.930 . S
C307 C305 1.392 1_545 S
C307 C306 1.401 . S
C307 H317 0.930 . S
C308 O286 1.258 1_554 S
C308 O287 1.260 . S
C309 Tb245 2.833 . S
C309 O284 1.251 . S
C309 O289 1.256 1_545 S
C309 C302 1.507 . S
H310 C293 0.930 . S
H311 C294 0.931 . S
H312 C295 0.930 . S
H313 C296 0.930 . S
H314 C303 0.930 . S
H315 C305 0.931 . S
H316 C306 0.930 . S
H317 C307 0.930 . S
Tb318 N349 2.660 . S
Tb318 N356 2.600 . S
Tb318 O362 2.546 . S
Tb318 O363 2.610 1_456 S
Tb318 O365 2.320 1_455 S
Tb318 O366 2.552 1_455 S
Tb318 O367 2.413 . S
Tb318 O369 2.362 1_556 S
Tb318 O370 2.396 1_556 S
Tb318 C382 2.833 . S
C319 C322 1.432 . S
C319 C323 1.414 . S
C319 N326 1.359 . S
C320 C322 1.417 . S
C320 C324 1.432 . S
C320 C332 1.410 . S
C321 C323 1.444 . S
C321 C324 1.317 . S
C321 H344 0.929 . S
C322 C319 1.432 . S
C322 C320 1.417 . S
C322 N330 1.360 . S
C323 C319 1.414 . S
C323 C321 1.444 . S
C323 C328 1.385 . S
C324 C320 1.432 . S
C324 C321 1.317 . S
C324 H336 0.930 . S
C325 C327 1.392 . S
C325 C328 1.370 . S
C325 H337 0.931 . S
N326 C319 1.359 . S
N326 C327 1.327 . S
N326 Tb329 2.600 . S
C327 C325 1.392 . S
C327 N326 1.327 . S
C327 H334 0.930 . S
C328 C323 1.385 . S
C328 C325 1.370 . S
C328 H347 0.930 . S
Tb329 N326 2.600 . S
Tb329 N330 2.660 . S
Tb329 O363 2.362 . S
Tb329 O364 2.421 . S
Tb329 O368 2.546 . S
Tb329 O369 2.610 1_655 S
Tb329 O371 2.320 1_655 S
Tb329 O372 2.552 1_655 S
Tb329 O373 2.413 1_655 S
Tb329 C393 2.833 . S
N330 C322 1.360 . S
N330 Tb329 2.660 . S
N330 C331 1.305 . S
C331 N330 1.305 . S
C331 C333 1.407 . S
C331 H338 0.930 . S
C332 C320 1.410 . S
C332 C333 1.345 . S
C332 H340 0.930 . S
C333 C331 1.407 . S
C333 C332 1.345 . S
C333 H335 0.930 . S
H334 C327 0.930 . S
H335 C333 0.930 . S
H336 C324 0.930 . S
H337 C325 0.931 . S
H338 C331 0.930 . S
H339 C353 0.930 . S
H340 C332 0.930 . S
H341 C359 0.930 . S
H342 C350 0.930 . S
H343 C357 0.931 . S
H344 C321 0.929 . S
H345 C351 0.930 . S
H346 C384 0.930 . S
H347 C328 0.930 . S
H348 C383 0.929 . S
N349 Tb318 2.660 . S
N349 C350 1.305 . S
N349 C354 1.360 . S
C350 H342 0.930 . S
C350 N349 1.305 . S
C350 C353 1.407 . S
C351 H345 0.930 . S
C351 C352 1.410 . S
C351 C353 1.345 . S
C352 C351 1.410 . S
C352 C354 1.417 . S
C352 C384 1.432 . S
C353 H339 0.930 . S
C353 C350 1.407 . S
C353 C351 1.345 . S
C354 N349 1.360 . S
C354 C352 1.417 . S
C354 C358 1.432 . S
H355 C360 0.930 . S
N356 Tb318 2.600 . S
N356 C358 1.359 . S
N356 C359 1.327 . S
C357 H343 0.931 . S
C357 C359 1.392 . S
C357 C360 1.370 . S
C358 C354 1.432 . S
C358 N356 1.359 . S
C358 C361 1.414 . S
C359 H341 0.930 . S
C359 N356 1.327 . S
C359 C357 1.392 . S
C360 H355 0.930 . S
C360 C357 1.370 . S
C360 C361 1.385 . S
C361 C358 1.414 . S
C361 C360 1.385 . S
C361 C383 1.444 . S
O362 Tb318 2.546 . S
O362 C382 1.251 . S
O363 Tb318 2.610 1_654 S
O363 Tb329 2.362 . S
O363 C374 1.283 1_554 S
O364 Tb329 2.421 . S
O364 C381 1.262 . S
O365 Tb318 2.320 1_655 S
O365 C381 1.260 1_556 S
O366 Tb318 2.552 1_655 S
O366 C374 1.243 . S
O367 Tb318 2.413 . S
O367 C382 1.256 . S
O368 Tb329 2.546 . S
O368 C393 1.251 . S
O369 Tb318 2.362 1_554 S
O369 Tb329 2.610 1_455 S
O369 C385 1.283 . S
O370 Tb318 2.396 1_554 S
O370 C392 1.311 . S
O371 Tb329 2.320 1_455 S
O371 C392 1.260 . S
O372 Tb329 2.552 1_455 S
O372 C385 1.243 . S
O373 Tb329 2.413 1_455 S
O373 C393 1.256 1_455 S
C374 O363 1.283 1_556 S
C374 O366 1.243 . S
C375 C377 1.382 1_455 S
C375 C379 1.393 . S
C375 C382 1.500 . S
C376 C377 1.400 . S
C376 C378 1.384 . S
C377 C375 1.382 1_655 S
C377 C376 1.400 . S
C377 H394 0.930 . S
C378 C376 1.384 . S
C378 C380 1.392 1_655 S
C378 H395 0.931 . S
C379 C375 1.393 . S
C379 C380 1.401 . S
C379 H396 0.930 . S
C380 C378 1.392 1_455 S
C380 C379 1.401 . S
C380 H397 0.930 . S
C381 O364 1.262 . S
C381 O365 1.260 1_554 S
C382 Tb318 2.833 . S
C382 O362 1.251 . S
C382 O367 1.256 . S
C382 C375 1.500 . S
C383 H348 0.929 . S
C383 C361 1.444 . S
C383 C384 1.317 . S
C384 H346 0.930 . S
C384 C352 1.432 . S
C384 C383 1.317 . S
C385 O369 1.283 . S
C385 O372 1.243 . S
C386 C387 1.382 . S
C386 C390 1.393 1_455 S
C386 C393 1.500 1_455 S
C387 C386 1.382 . S
C387 C388 1.400 . S
C387 H398 0.930 . S
C388 C387 1.400 . S
C388 C389 1.384 . S
C389 C388 1.384 . S
C389 C391 1.392 1_455 S
C389 H399 0.931 . S
C390 C386 1.393 1_655 S
C390 C391 1.401 . S
C390 H400 0.930 . S
C391 C389 1.392 1_655 S
C391 C390 1.401 . S
C391 H401 0.930 . S
C392 O370 1.311 . S
C392 O371 1.260 . S
C393 Tb329 2.833 . S
C393 O368 1.251 . S
C393 O373 1.256 1_655 S
C393 C386 1.500 1_655 S
H394 C377 0.930 . S
H395 C378 0.931 . S
H396 C379 0.930 . S
H397 C380 0.930 . S
H398 C387 0.930 . S
H399 C389 0.931 . S
H400 C390 0.930 . S
H401 C391 0.930 . S
Tb402 N433 2.660 . S
Tb402 N440 2.600 . S
Tb402 O446 2.546 . S
Tb402 O447 2.610 . S
Tb402 O449 2.320 . S
Tb402 O450 2.552 . S
Tb402 O451 2.413 . S
Tb402 O453 2.362 . S
Tb402 O454 2.421 . S
Tb402 C466 2.833 . S
C403 C406 1.432 . S
C403 C407 1.414 . S
C403 N410 1.359 . S
C404 C406 1.417 . S
C404 C408 1.432 . S
C404 C416 1.410 . S
C405 C407 1.444 . S
C405 C408 1.317 . S
C405 H428 0.929 . S
C406 C403 1.432 . S
C406 C404 1.417 . S
C406 N414 1.360 . S
C407 C403 1.414 . S
C407 C405 1.444 . S
C407 C412 1.385 . S
C408 C404 1.432 . S
C408 C405 1.317 . S
C408 H420 0.930 . S
C409 C411 1.392 . S
C409 C412 1.370 . S
C409 H421 0.931 . S
N410 C403 1.359 . S
N410 C411 1.327 . S
N410 Tb413 2.600 . S
C411 C409 1.392 . S
C411 N410 1.327 . S
C411 H418 0.930 . S
C412 C407 1.385 . S
C412 C409 1.370 . S
C412 H431 0.930 . S
Tb413 N410 2.600 . S
Tb413 N414 2.660 . S
Tb413 O447 2.362 1_556 S
Tb413 O448 2.421 1_556 S
Tb413 O452 2.546 . S
Tb413 O453 2.610 1_556 S
Tb413 O455 2.320 . S
Tb413 O456 2.552 . S
Tb413 O457 2.413 . S
Tb413 C477 2.833 . S
N414 C406 1.360 . S
N414 Tb413 2.660 . S
N414 C415 1.305 . S
C415 N414 1.305 . S
C415 C417 1.407 . S
C415 H422 0.930 . S
C416 C404 1.410 . S
C416 C417 1.345 . S
C416 H424 0.930 . S
C417 C415 1.407 . S
C417 C416 1.345 . S
C417 H419 0.930 . S
H418 C411 0.930 . S
H419 C417 0.930 . S
H420 C408 0.930 . S
H421 C409 0.931 . S
H422 C415 0.930 . S
H423 C437 0.930 . S
H424 C416 0.930 . S
H425 C443 0.930 . S
H426 C434 0.930 . S
H427 C441 0.931 . S
H428 C405 0.929 . S
H429 C435 0.930 . S
H430 C468 0.930 . S
H431 C412 0.930 . S
H432 C467 0.929 . S
N433 Tb402 2.660 . S
N433 C434 1.305 . S
N433 C438 1.360 . S
C434 H426 0.930 . S
C434 N433 1.305 . S
C434 C437 1.407 . S
C435 H429 0.930 . S
C435 C436 1.410 . S
C435 C437 1.345 . S
C436 C435 1.410 . S
C436 C438 1.417 . S
C436 C468 1.432 . S
C437 H423 0.930 . S
C437 C434 1.407 . S
C437 C435 1.345 . S
C438 N433 1.360 . S
C438 C436 1.417 . S
C438 C442 1.432 . S
H439 C444 0.930 . S
N440 Tb402 2.600 . S
N440 C442 1.359 . S
N440 C443 1.327 . S
C441 H427 0.931 . S
C441 C443 1.392 . S
C441 C444 1.370 . S
C442 C438 1.432 . S
C442 N440 1.359 . S
C442 C445 1.414 . S
C443 H425 0.930 . S
C443 N440 1.327 . S
C443 C441 1.392 . S
C444 H439 0.930 . S
C444 C441 1.370 . S
C444 C445 1.385 . S
C445 C442 1.414 . S
C445 C444 1.385 . S
C445 C467 1.444 . S
O446 Tb402 2.546 . S
O446 C466 1.251 . S
O447 Tb402 2.610 . S
O447 Tb413 2.362 1_554 S
O447 C458 1.283 . S
O448 Tb413 2.421 1_554 S
O448 C465 1.262 . S
O449 Tb402 2.320 . S
O449 C465 1.260 . S
O450 Tb402 2.552 . S
O450 C458 1.243 . S
O451 Tb402 2.413 . S
O451 C466 1.256 . S
O452 Tb413 2.546 . S
O452 C477 1.251 . S
O453 Tb402 2.362 . S
O453 Tb413 2.610 1_554 S
O453 C469 1.283 1_554 S
O454 Tb402 2.421 . S
O454 C476 1.262 . S
O455 Tb413 2.320 . S
O455 C476 1.260 1_556 S
O456 Tb413 2.552 . S
O456 C469 1.243 . S
O457 Tb413 2.413 . S
O457 C477 1.256 . S
C458 O447 1.283 . S
C458 O450 1.243 . S
C459 C461 1.382 . S
C459 C463 1.393 . S
C459 C466 1.500 . S
C460 C461 1.400 . S
C460 C462 1.384 . S
C461 C459 1.382 . S
C461 C460 1.400 . S
C461 H478 0.930 . S
C462 C460 1.384 . S
C462 C464 1.392 . S
C462 H479 0.931 . S
C463 C459 1.393 . S
C463 C464 1.401 . S
C463 H480 0.930 . S
C464 C462 1.392 . S
C464 C463 1.401 . S
C464 H481 0.930 . S
C465 O448 1.262 . S
C465 O449 1.260 . S
C466 Tb402 2.833 . S
C466 O446 1.251 . S
C466 O451 1.256 . S
C466 C459 1.500 . S
C467 H432 0.929 . S
C467 C445 1.444 . S
C467 C468 1.317 . S
C468 H430 0.930 . S
C468 C436 1.432 . S
C468 C467 1.317 . S
C469 O453 1.283 1_556 S
C469 O456 1.243 . S
C470 C471 1.382 . S
C470 C474 1.393 . S
C470 C477 1.500 . S
C471 C470 1.382 . S
C471 C472 1.400 . S
C471 H482 0.930 . S
C472 C471 1.400 . S
C472 C473 1.384 . S
C473 C472 1.384 . S
C473 C475 1.392 . S
C473 H483 0.931 . S
C474 C470 1.393 . S
C474 C475 1.401 . S
C474 H484 0.930 . S
C475 C473 1.392 . S
C475 C474 1.401 . S
C475 H485 0.930 . S
C476 O454 1.262 . S
C476 O455 1.260 1_554 S
C477 Tb413 2.833 . S
C477 O452 1.251 . S
C477 O457 1.256 . S
C477 C470 1.500 . S
H478 C461 0.930 . S
H479 C462 0.931 . S
H480 C463 0.930 . S
H481 C464 0.930 . S
H482 C471 0.930 . S
H483 C473 0.931 . S
H484 C474 0.930 . S
H485 C475 0.930 . S
Tb486 N517 2.660 . S
Tb486 N524 2.600 . S
Tb486 O530 2.546 . S
Tb486 O531 2.610 . S
Tb486 O533 2.320 . S
Tb486 O534 2.552 . S
Tb486 O535 2.413 . S
Tb486 O537 2.362 . S
Tb486 O538 2.421 . S
Tb486 C550 2.833 . S
C487 C490 1.432 . S
C487 C491 1.414 . S
C487 N494 1.359 . S
C488 C490 1.417 . S
C488 C492 1.432 . S
C488 C500 1.410 . S
C489 C491 1.444 . S
C489 C492 1.317 . S
C489 H512 0.929 . S
C490 C487 1.432 . S
C490 C488 1.417 . S
C490 N498 1.360 . S
C491 C487 1.414 . S
C491 C489 1.444 . S
C491 C496 1.385 . S
C492 C488 1.432 . S
C492 C489 1.317 . S
C492 H504 0.930 . S
C493 C495 1.392 . S
C493 C496 1.370 . S
C493 H505 0.931 . S
N494 C487 1.359 . S
N494 C495 1.327 . S
N494 Tb497 2.600 . S
C495 C493 1.392 . S
C495 N494 1.327 . S
C495 H502 0.930 . S
C496 C491 1.385 . S
C496 C493 1.370 . S
C496 H515 0.930 . S
Tb497 N494 2.600 . S
Tb497 N498 2.660 . S
Tb497 O531 2.362 . S
Tb497 O532 2.421 . S
Tb497 O536 2.546 . S
Tb497 O537 2.610 . S
Tb497 O539 2.320 . S
Tb497 O540 2.552 . S
Tb497 O541 2.413 . S
Tb497 C561 2.833 . S
N498 C490 1.360 . S
N498 Tb497 2.660 . S
N498 C499 1.305 . S
C499 N498 1.305 . S
C499 C501 1.407 . S
C499 H506 0.930 . S
C500 C488 1.410 . S
C500 C501 1.345 . S
C500 H508 0.930 . S
C501 C499 1.407 . S
C501 C500 1.345 . S
C501 H503 0.930 . S
H502 C495 0.930 . S
H503 C501 0.930 . S
H504 C492 0.930 . S
H505 C493 0.931 . S
H506 C499 0.930 . S
H507 C521 0.930 . S
H508 C500 0.930 . S
H509 C527 0.930 . S
H510 C518 0.930 . S
H511 C525 0.931 . S
H512 C489 0.929 . S
H513 C519 0.930 . S
H514 C552 0.930 . S
H515 C496 0.930 . S
H516 C551 0.929 . S
N517 Tb486 2.660 . S
N517 C518 1.305 . S
N517 C522 1.360 . S
C518 H510 0.930 . S
C518 N517 1.305 . S
C518 C521 1.407 . S
C519 H513 0.930 . S
C519 C520 1.410 . S
C519 C521 1.345 . S
C520 C519 1.410 . S
C520 C522 1.417 . S
C520 C552 1.432 . S
C521 H507 0.930 . S
C521 C518 1.407 . S
C521 C519 1.345 . S
C522 N517 1.360 . S
C522 C520 1.417 . S
C522 C526 1.432 . S
H523 C528 0.930 . S
N524 Tb486 2.600 . S
N524 C526 1.359 . S
N524 C527 1.327 . S
C525 H511 0.931 . S
C525 C527 1.392 . S
C525 C528 1.370 . S
C526 C522 1.432 . S
C526 N524 1.359 . S
C526 C529 1.414 . S
C527 H509 0.930 . S
C527 N524 1.327 . S
C527 C525 1.392 . S
C528 H523 0.930 . S
C528 C525 1.370 . S
C528 C529 1.385 . S
C529 C526 1.414 . S
C529 C528 1.385 . S
C529 C551 1.444 . S
O530 Tb486 2.546 . S
O530 C550 1.251 . S
O531 Tb486 2.610 . S
O531 Tb497 2.362 . S
O531 C542 1.283 . S
O532 Tb497 2.421 . S
O532 C549 1.262 . S
O533 Tb486 2.320 . S
O533 C549 1.260 . S
O534 Tb486 2.552 . S
O534 C542 1.243 . S
O535 Tb486 2.413 . S
O535 C550 1.256 . S
O536 Tb497 2.546 . S
O536 C561 1.251 . S
O537 Tb486 2.362 . S
O537 Tb497 2.610 . S
O537 C553 1.283 . S
O538 Tb486 2.421 . S
O538 C560 1.262 . S
O539 Tb497 2.320 . S
O539 C560 1.260 . S
O540 Tb497 2.552 . S
O540 C553 1.243 . S
O541 Tb497 2.413 . S
O541 C561 1.256 . S
C542 O531 1.283 . S
C542 O534 1.243 . S
C543 C545 1.382 . S
C543 C547 1.393 . S
C543 C550 1.500 . S
C544 C545 1.400 . S
C544 C546 1.384 . S
C545 C543 1.382 . S
C545 C544 1.400 . S
C545 H562 0.930 . S
C546 C544 1.384 . S
C546 C548 1.392 . S
C546 H563 0.931 . S
C547 C543 1.393 . S
C547 C548 1.401 . S
C547 H564 0.930 . S
C548 C546 1.392 . S
C548 C547 1.401 . S
C548 H565 0.930 . S
C549 O532 1.262 . S
C549 O533 1.260 . S
C550 Tb486 2.833 . S
C550 O530 1.251 . S
C550 O535 1.256 . S
C550 C543 1.500 . S
C551 H516 0.929 . S
C551 C529 1.444 . S
C551 C552 1.317 . S
C552 H514 0.930 . S
C552 C520 1.432 . S
C552 C551 1.317 . S
C553 O537 1.283 . S
C553 O540 1.243 . S
C554 C555 1.382 . S
C554 C558 1.393 . S
C554 C561 1.500 . S
C555 C554 1.382 . S
C555 C556 1.400 . S
C555 H566 0.930 . S
C556 C555 1.400 . S
C556 C557 1.384 . S
C557 C556 1.384 . S
C557 C559 1.392 . S
C557 H567 0.931 . S
C558 C554 1.393 . S
C558 C559 1.401 . S
C558 H568 0.930 . S
C559 C557 1.392 . S
C559 C558 1.401 . S
C559 H569 0.930 . S
C560 O538 1.262 . S
C560 O539 1.260 . S
C561 Tb497 2.833 . S
C561 O536 1.251 . S
C561 O541 1.256 . S
C561 C554 1.500 . S
H562 C545 0.930 . S
H563 C546 0.931 . S
H564 C547 0.930 . S
H565 C548 0.930 . S
H566 C555 0.930 . S
H567 C557 0.931 . S
H568 C558 0.930 . S
H569 C559 0.930 . S
Tb570 N601 2.660 . S
Tb570 N608 2.600 . S
Tb570 O614 2.546 . S
Tb570 O615 2.610 . S
Tb570 O617 2.320 . S
Tb570 O618 2.552 . S
Tb570 O619 2.413 . S
Tb570 O621 2.362 . S
Tb570 O622 2.421 . S
Tb570 C634 2.833 . S
C571 C574 1.432 . S
C571 C575 1.414 . S
C571 N578 1.359 . S
C572 C574 1.417 . S
C572 C576 1.432 . S
C572 C584 1.410 . S
C573 C575 1.444 . S
C573 C576 1.317 . S
C573 H596 0.929 . S
C574 C571 1.432 . S
C574 C572 1.417 . S
C574 N582 1.360 . S
C575 C571 1.414 . S
C575 C573 1.444 . S
C575 C580 1.385 . S
C576 C572 1.432 . S
C576 C573 1.317 . S
C576 H588 0.930 . S
C577 C579 1.392 . S
C577 C580 1.370 . S
C577 H589 0.931 . S
N578 C571 1.359 . S
N578 C579 1.327 . S
N578 Tb581 2.600 . S
C579 C577 1.392 . S
C579 N578 1.327 . S
C579 H586 0.930 . S
C580 C575 1.385 . S
C580 C577 1.370 . S
C580 H599 0.930 . S
Tb581 N578 2.600 . S
Tb581 N582 2.660 . S
Tb581 O615 2.362 . S
Tb581 O616 2.421 . S
Tb581 O620 2.546 . S
Tb581 O621 2.610 . S
Tb581 O623 2.320 . S
Tb581 O624 2.552 . S
Tb581 O625 2.413 . S
Tb581 C645 2.833 . S
N582 C574 1.360 . S
N582 Tb581 2.660 . S
N582 C583 1.305 . S
C583 N582 1.305 . S
C583 C585 1.407 . S
C583 H590 0.930 . S
C584 C572 1.410 . S
C584 C585 1.345 . S
C584 H592 0.930 . S
C585 C583 1.407 . S
C585 C584 1.345 . S
C585 H587 0.930 . S
H586 C579 0.930 . S
H587 C585 0.930 . S
H588 C576 0.930 . S
H589 C577 0.931 . S
H590 C583 0.930 . S
H591 C605 0.930 . S
H592 C584 0.930 . S
H593 C611 0.930 . S
H594 C602 0.930 . S
H595 C609 0.931 . S
H596 C573 0.929 . S
H597 C603 0.930 . S
H598 C636 0.930 . S
H599 C580 0.930 . S
H600 C635 0.929 . S
N601 Tb570 2.660 . S
N601 C602 1.305 . S
N601 C606 1.360 . S
C602 H594 0.930 . S
C602 N601 1.305 . S
C602 C605 1.407 . S
C603 H597 0.930 . S
C603 C604 1.410 . S
C603 C605 1.345 . S
C604 C603 1.410 . S
C604 C606 1.417 . S
C604 C636 1.432 . S
C605 H591 0.930 . S
C605 C602 1.407 . S
C605 C603 1.345 . S
C606 N601 1.360 . S
C606 C604 1.417 . S
C606 C610 1.432 . S
H607 C612 0.930 . S
N608 Tb570 2.600 . S
N608 C610 1.359 . S
N608 C611 1.327 . S
C609 H595 0.931 . S
C609 C611 1.392 . S
C609 C612 1.370 . S
C610 C606 1.432 . S
C610 N608 1.359 . S
C610 C613 1.414 . S
C611 H593 0.930 . S
C611 N608 1.327 . S
C611 C609 1.392 . S
C612 H607 0.930 . S
C612 C609 1.370 . S
C612 C613 1.385 . S
C613 C610 1.414 . S
C613 C612 1.385 . S
C613 C635 1.444 . S
O614 Tb570 2.546 . S
O614 C634 1.251 . S
O615 Tb570 2.610 . S
O615 Tb581 2.362 . S
O615 C626 1.283 . S
O616 Tb581 2.421 . S
O616 C633 1.262 . S
O617 Tb570 2.320 . S
O617 C633 1.260 . S
O618 Tb570 2.552 . S
O618 C626 1.243 . S
O619 Tb570 2.413 . S
O619 C634 1.256 . S
O620 Tb581 2.546 . S
O620 C645 1.251 . S
O621 Tb570 2.362 . S
O621 Tb581 2.610 . S
O621 C637 1.283 . S
O622 Tb570 2.421 . S
O622 C644 1.262 . S
O623 Tb581 2.320 . S
O623 C644 1.260 . S
O624 Tb581 2.552 . S
O624 C637 1.243 . S
O625 Tb581 2.413 . S
O625 C645 1.256 . S
C626 O615 1.283 . S
C626 O618 1.243 . S
C627 C629 1.382 . S
C627 C631 1.393 . S
C627 C634 1.500 . S
C628 C629 1.400 . S
C628 C630 1.384 . S
C629 C627 1.382 . S
C629 C628 1.400 . S
C629 H646 0.930 . S
C630 C628 1.384 . S
C630 C632 1.392 . S
C630 H647 0.931 . S
C631 C627 1.393 . S
C631 C632 1.401 . S
C631 H648 0.930 . S
C632 C630 1.392 . S
C632 C631 1.401 . S
C632 H649 0.930 . S
C633 O616 1.262 . S
C633 O617 1.260 . S
C634 Tb570 2.833 . S
C634 O614 1.251 . S
C634 O619 1.256 . S
C634 C627 1.500 . S
C635 H600 0.929 . S
C635 C613 1.444 . S
C635 C636 1.317 . S
C636 H598 0.930 . S
C636 C604 1.432 . S
C636 C635 1.317 . S
C637 O621 1.283 . S
C637 O624 1.243 . S
C638 C639 1.382 . S
C638 C642 1.393 . S
C638 C645 1.500 . S
C639 C638 1.382 . S
C639 C640 1.400 . S
C639 H650 0.930 . S
C640 C639 1.400 . S
C640 C641 1.384 . S
C641 C640 1.384 . S
C641 C643 1.392 . S
C641 H651 0.931 . S
C642 C638 1.393 . S
C642 C643 1.401 . S
C642 H652 0.930 . S
C643 C641 1.392 . S
C643 C642 1.401 . S
C643 H653 0.930 . S
C644 O622 1.262 . S
C644 O623 1.260 . S
C645 Tb581 2.833 . S
C645 O620 1.251 . S
C645 O625 1.256 . S
C645 C638 1.500 . S
H646 C629 0.930 . S
H647 C630 0.931 . S
H648 C631 0.930 . S
H649 C632 0.930 . S
H650 C639 0.930 . S
H651 C641 0.931 . S
H652 C642 0.930 . S
H653 C643 0.930 . S
Tb654 N685 2.660 . S
Tb654 N692 2.600 . S
Tb654 O698 2.546 . S
Tb654 O699 2.610 . S
Tb654 O701 2.320 . S
Tb654 O702 2.552 . S
Tb654 O703 2.413 . S
Tb654 O705 2.362 . S
Tb654 O706 2.421 . S
Tb654 C718 2.833 . S
C655 C658 1.432 . S
C655 C659 1.414 . S
C655 N662 1.359 . S
C656 C658 1.417 . S
C656 C660 1.432 . S
C656 C668 1.410 . S
C657 C659 1.444 . S
C657 C660 1.317 . S
C657 H680 0.929 . S
C658 C655 1.432 . S
C658 C656 1.417 . S
C658 N666 1.360 . S
C659 C655 1.414 . S
C659 C657 1.444 . S
C659 C664 1.385 . S
C660 C656 1.432 . S
C660 C657 1.317 . S
C660 H672 0.930 . S
C661 C663 1.392 . S
C661 C664 1.370 . S
C661 H673 0.931 . S
N662 C655 1.359 . S
N662 C663 1.327 . S
N662 Tb665 2.600 . S
C663 C661 1.392 . S
C663 N662 1.327 . S
C663 H670 0.930 . S
C664 C659 1.385 . S
C664 C661 1.370 . S
C664 H683 0.930 . S
Tb665 N662 2.600 . S
Tb665 N666 2.660 . S
Tb665 O699 2.362 . S
Tb665 O700 2.421 . S
Tb665 O704 2.546 . S
Tb665 O705 2.610 . S
Tb665 O707 2.320 . S
Tb665 O708 2.552 . S
Tb665 O709 2.413 . S
Tb665 C729 2.833 . S
N666 C658 1.360 . S
N666 Tb665 2.660 . S
N666 C667 1.305 . S
C667 N666 1.305 . S
C667 C669 1.407 . S
C667 H674 0.930 . S
C668 C656 1.410 . S
C668 C669 1.345 . S
C668 H676 0.930 . S
C669 C667 1.407 . S
C669 C668 1.345 . S
C669 H671 0.930 . S
H670 C663 0.930 . S
H671 C669 0.930 . S
H672 C660 0.930 . S
H673 C661 0.931 . S
H674 C667 0.930 . S
H675 C689 0.930 . S
H676 C668 0.930 . S
H677 C695 0.930 . S
H678 C686 0.930 . S
H679 C693 0.931 . S
H680 C657 0.929 . S
H681 C687 0.930 . S
H682 C720 0.930 . S
H683 C664 0.930 . S
H684 C719 0.929 . S
N685 Tb654 2.660 . S
N685 C686 1.305 . S
N685 C690 1.360 . S
C686 H678 0.930 . S
C686 N685 1.305 . S
C686 C689 1.407 . S
C687 H681 0.930 . S
C687 C688 1.410 . S
C687 C689 1.345 . S
C688 C687 1.410 . S
C688 C690 1.417 . S
C688 C720 1.432 . S
C689 H675 0.930 . S
C689 C686 1.407 . S
C689 C687 1.345 . S
C690 N685 1.360 . S
C690 C688 1.417 . S
C690 C694 1.432 . S
H691 C696 0.930 . S
N692 Tb654 2.600 . S
N692 C694 1.359 . S
N692 C695 1.327 . S
C693 H679 0.931 . S
C693 C695 1.392 . S
C693 C696 1.370 . S
C694 C690 1.432 . S
C694 N692 1.359 . S
C694 C697 1.414 . S
C695 H677 0.930 . S
C695 N692 1.327 . S
C695 C693 1.392 . S
C696 H691 0.930 . S
C696 C693 1.370 . S
C696 C697 1.385 . S
C697 C694 1.414 . S
C697 C696 1.385 . S
C697 C719 1.444 . S
O698 Tb654 2.546 . S
O698 C718 1.251 . S
O699 Tb654 2.610 . S
O699 Tb665 2.362 . S
O699 C710 1.283 . S
O700 Tb665 2.421 . S
O700 C717 1.262 . S
O701 Tb654 2.320 . S
O701 C717 1.260 . S
O702 Tb654 2.552 . S
O702 C710 1.243 . S
O703 Tb654 2.413 . S
O703 C718 1.256 . S
O704 Tb665 2.546 . S
O704 C729 1.251 . S
O705 Tb654 2.362 . S
O705 Tb665 2.610 . S
O705 C721 1.283 . S
O706 Tb654 2.421 . S
O706 C728 1.262 . S
O707 Tb665 2.320 . S
O707 C728 1.260 . S
O708 Tb665 2.552 . S
O708 C721 1.243 . S
O709 Tb665 2.413 . S
O709 C729 1.256 . S
C710 O699 1.283 . S
C710 O702 1.243 . S
C711 C713 1.382 . S
C711 C715 1.393 . S
C711 C718 1.500 . S
C712 C713 1.400 . S
C712 C714 1.384 . S
C713 C711 1.382 . S
C713 C712 1.400 . S
C713 H730 0.930 . S
C714 C712 1.384 . S
C714 C716 1.392 . S
C714 H731 0.931 . S
C715 C711 1.393 . S
C715 C716 1.401 . S
C715 H732 0.930 . S
C716 C714 1.392 . S
C716 C715 1.401 . S
C716 H733 0.930 . S
C717 O700 1.262 . S
C717 O701 1.260 . S
C718 Tb654 2.833 . S
C718 O698 1.251 . S
C718 O703 1.256 . S
C718 C711 1.500 . S
C719 H684 0.929 . S
C719 C697 1.444 . S
C719 C720 1.317 . S
C720 H682 0.930 . S
C720 C688 1.432 . S
C720 C719 1.317 . S
C721 O705 1.283 . S
C721 O708 1.243 . S
C722 C723 1.382 . S
C722 C726 1.393 . S
C722 C729 1.500 . S
C723 C722 1.382 . S
C723 C724 1.400 . S
C723 H734 0.930 . S
C724 C723 1.400 . S
C724 C725 1.384 . S
C725 C724 1.384 . S
C725 C727 1.392 . S
C725 H735 0.931 . S
C726 C722 1.393 . S
C726 C727 1.401 . S
C726 H736 0.930 . S
C727 C725 1.392 . S
C727 C726 1.401 . S
C727 H737 0.930 . S
C728 O706 1.262 . S
C728 O707 1.260 . S
C729 Tb665 2.833 . S
C729 O704 1.251 . S
C729 O709 1.256 . S
C729 C722 1.500 . S
H730 C713 0.930 . S
H731 C714 0.931 . S
H732 C715 0.930 . S
H733 C716 0.930 . S
H734 C723 0.930 . S
H735 C725 0.931 . S
H736 C726 0.930 . S
H737 C727 0.930 . S
Tb738 N769 2.660 . S
Tb738 N776 2.600 . S
Tb738 O782 2.546 . S
Tb738 O783 2.610 . S
Tb738 O785 2.320 . S
Tb738 O786 2.552 . S
Tb738 O787 2.413 . S
Tb738 O789 2.362 . S
Tb738 O790 2.421 . S
Tb738 C802 2.833 . S
C739 C742 1.432 . S
C739 C743 1.414 . S
C739 N746 1.359 . S
C740 C742 1.417 . S
C740 C744 1.432 . S
C740 C752 1.410 . S
C741 C743 1.444 . S
C741 C744 1.317 . S
C741 H764 0.929 . S
C742 C739 1.432 . S
C742 C740 1.417 . S
C742 N750 1.360 . S
C743 C739 1.414 . S
C743 C741 1.444 . S
C743 C748 1.385 . S
C744 C740 1.432 . S
C744 C741 1.317 . S
C744 H756 0.930 . S
C745 C747 1.392 . S
C745 C748 1.370 . S
C745 H757 0.931 . S
N746 C739 1.359 . S
N746 C747 1.327 . S
N746 Tb749 2.600 . S
C747 C745 1.392 . S
C747 N746 1.327 . S
C747 H754 0.930 . S
C748 C743 1.385 . S
C748 C745 1.370 . S
C748 H767 0.930 . S
Tb749 N746 2.600 . S
Tb749 N750 2.660 . S
Tb749 O783 2.362 . S
Tb749 O784 2.421 . S
Tb749 O788 2.546 . S
Tb749 O789 2.610 . S
Tb749 O791 2.320 . S
Tb749 O792 2.552 . S
Tb749 O793 2.413 . S
Tb749 C813 2.833 . S
N750 C742 1.360 . S
N750 Tb749 2.660 . S
N750 C751 1.305 . S
C751 N750 1.305 . S
C751 C753 1.407 . S
C751 H758 0.930 . S
C752 C740 1.410 . S
C752 C753 1.345 . S
C752 H760 0.930 . S
C753 C751 1.407 . S
C753 C752 1.345 . S
C753 H755 0.930 . S
H754 C747 0.930 . S
H755 C753 0.930 . S
H756 C744 0.930 . S
H757 C745 0.931 . S
H758 C751 0.930 . S
H759 C773 0.930 . S
H760 C752 0.930 . S
H761 C779 0.930 . S
H762 C770 0.930 . S
H763 C777 0.931 . S
H764 C741 0.929 . S
H765 C771 0.930 . S
H766 C804 0.930 . S
H767 C748 0.930 . S
H768 C803 0.929 . S
N769 Tb738 2.660 . S
N769 C770 1.305 . S
N769 C774 1.360 . S
C770 H762 0.930 . S
C770 N769 1.305 . S
C770 C773 1.407 . S
C771 H765 0.930 . S
C771 C772 1.410 . S
C771 C773 1.345 . S
C772 C771 1.410 . S
C772 C774 1.417 . S
C772 C804 1.432 . S
C773 H759 0.930 . S
C773 C770 1.407 . S
C773 C771 1.345 . S
C774 N769 1.360 . S
C774 C772 1.417 . S
C774 C778 1.432 . S
H775 C780 0.930 . S
N776 Tb738 2.600 . S
N776 C778 1.359 . S
N776 C779 1.327 . S
C777 H763 0.931 . S
C777 C779 1.392 . S
C777 C780 1.370 . S
C778 C774 1.432 . S
C778 N776 1.359 . S
C778 C781 1.414 . S
C779 H761 0.930 . S
C779 N776 1.327 . S
C779 C777 1.392 . S
C780 H775 0.930 . S
C780 C777 1.370 . S
C780 C781 1.385 . S
C781 C778 1.414 . S
C781 C780 1.385 . S
C781 C803 1.444 . S
O782 Tb738 2.546 . S
O782 C802 1.251 . S
O783 Tb738 2.610 . S
O783 Tb749 2.362 . S
O783 C794 1.283 . S
O784 Tb749 2.421 . S
O784 C801 1.262 . S
O785 Tb738 2.320 . S
O785 C801 1.260 . S
O786 Tb738 2.552 . S
O786 C794 1.243 . S
O787 Tb738 2.413 . S
O787 C802 1.256 . S
O788 Tb749 2.546 . S
O788 C813 1.251 . S
O789 Tb738 2.362 . S
O789 Tb749 2.610 . S
O789 C805 1.283 . S
O790 Tb738 2.421 . S
O790 C812 1.262 . S
O791 Tb749 2.320 . S
O791 C812 1.260 . S
O792 Tb749 2.552 . S
O792 C805 1.243 . S
O793 Tb749 2.413 . S
O793 C813 1.256 . S
C794 O783 1.283 . S
C794 O786 1.243 . S
C795 C797 1.382 . S
C795 C799 1.393 . S
C795 C802 1.500 . S
C796 C797 1.400 . S
C796 C798 1.384 . S
C797 C795 1.382 . S
C797 C796 1.400 . S
C797 H814 0.930 . S
C798 C796 1.384 . S
C798 C800 1.392 . S
C798 H815 0.931 . S
C799 C795 1.393 . S
C799 C800 1.401 . S
C799 H816 0.930 . S
C800 C798 1.392 . S
C800 C799 1.401 . S
C800 H817 0.930 . S
C801 O784 1.262 . S
C801 O785 1.260 . S
C802 Tb738 2.833 . S
C802 O782 1.251 . S
C802 O787 1.256 . S
C802 C795 1.500 . S
C803 H768 0.929 . S
C803 C781 1.444 . S
C803 C804 1.317 . S
C804 H766 0.930 . S
C804 C772 1.432 . S
C804 C803 1.317 . S
C805 O789 1.283 . S
C805 O792 1.243 . S
C806 C807 1.382 . S
C806 C810 1.393 . S
C806 C813 1.500 . S
C807 C806 1.382 . S
C807 C808 1.400 . S
C807 H818 0.930 . S
C808 C807 1.400 . S
C808 C809 1.384 . S
C809 C808 1.384 . S
C809 C811 1.392 . S
C809 H819 0.931 . S
C810 C806 1.393 . S
C810 C811 1.401 . S
C810 H820 0.930 . S
C811 C809 1.392 . S
C811 C810 1.401 . S
C811 H821 0.930 . S
C812 O790 1.262 . S
C812 O791 1.260 . S
C813 Tb749 2.833 . S
C813 O788 1.251 . S
C813 O793 1.256 . S
C813 C806 1.500 . S
H814 C797 0.930 . S
H815 C798 0.931 . S
H816 C799 0.930 . S
H817 C800 0.930 . S
H818 C807 0.930 . S
H819 C809 0.931 . S
H820 C810 0.930 . S
H821 C811 0.930 . S
Tb822 N853 2.660 . S
Tb822 N860 2.600 . S
Tb822 O866 2.546 . S
Tb822 O867 2.610 . S
Tb822 O869 2.320 . S
Tb822 O870 2.552 . S
Tb822 O871 2.413 . S
Tb822 O873 2.362 . S
Tb822 O874 2.421 . S
Tb822 C886 2.833 . S
C823 C826 1.432 . S
C823 C827 1.414 . S
C823 N830 1.359 . S
C824 C826 1.417 . S
C824 C828 1.432 . S
C824 C836 1.410 . S
C825 C827 1.444 . S
C825 C828 1.317 . S
C825 H848 0.929 . S
C826 C823 1.432 . S
C826 C824 1.417 . S
C826 N834 1.360 . S
C827 C823 1.414 . S
C827 C825 1.444 . S
C827 C832 1.385 . S
C828 C824 1.432 . S
C828 C825 1.317 . S
C828 H840 0.930 . S
C829 C831 1.392 . S
C829 C832 1.370 . S
C829 H841 0.931 . S
N830 C823 1.359 . S
N830 C831 1.327 . S
N830 Tb833 2.600 . S
C831 C829 1.392 . S
C831 N830 1.327 . S
C831 H838 0.930 . S
C832 C827 1.385 . S
C832 C829 1.370 . S
C832 H851 0.930 . S
Tb833 N830 2.600 . S
Tb833 N834 2.660 . S
Tb833 O867 2.362 . S
Tb833 O868 2.421 . S
Tb833 O872 2.546 . S
Tb833 O873 2.610 . S
Tb833 O875 2.320 . S
Tb833 O876 2.552 . S
Tb833 O877 2.413 . S
Tb833 C897 2.833 . S
N834 C826 1.360 . S
N834 Tb833 2.660 . S
N834 C835 1.305 . S
C835 N834 1.305 . S
C835 C837 1.407 . S
C835 H842 0.930 . S
C836 C824 1.410 . S
C836 C837 1.345 . S
C836 H844 0.930 . S
C837 C835 1.407 . S
C837 C836 1.345 . S
C837 H839 0.930 . S
H838 C831 0.930 . S
H839 C837 0.930 . S
H840 C828 0.930 . S
H841 C829 0.931 . S
H842 C835 0.930 . S
H843 C857 0.930 . S
H844 C836 0.930 . S
H845 C863 0.930 . S
H846 C854 0.930 . S
H847 C861 0.931 . S
H848 C825 0.929 . S
H849 C855 0.930 . S
H850 C888 0.930 . S
H851 C832 0.930 . S
H852 C887 0.929 . S
N853 Tb822 2.660 . S
N853 C854 1.305 . S
N853 C858 1.360 . S
C854 H846 0.930 . S
C854 N853 1.305 . S
C854 C857 1.407 . S
C855 H849 0.930 . S
C855 C856 1.410 . S
C855 C857 1.345 . S
C856 C855 1.410 . S
C856 C858 1.417 . S
C856 C888 1.432 . S
C857 H843 0.930 . S
C857 C854 1.407 . S
C857 C855 1.345 . S
C858 N853 1.360 . S
C858 C856 1.417 . S
C858 C862 1.432 . S
H859 C864 0.930 . S
N860 Tb822 2.600 . S
N860 C862 1.359 . S
N860 C863 1.327 . S
C861 H847 0.931 . S
C861 C863 1.392 . S
C861 C864 1.370 . S
C862 C858 1.432 . S
C862 N860 1.359 . S
C862 C865 1.414 . S
C863 H845 0.930 . S
C863 N860 1.327 . S
C863 C861 1.392 . S
C864 H859 0.930 . S
C864 C861 1.370 . S
C864 C865 1.385 . S
C865 C862 1.414 . S
C865 C864 1.385 . S
C865 C887 1.444 . S
O866 Tb822 2.546 . S
O866 C886 1.251 . S
O867 Tb822 2.610 . S
O867 Tb833 2.362 . S
O867 C878 1.283 . S
O868 Tb833 2.421 . S
O868 C885 1.262 . S
O869 Tb822 2.320 . S
O869 C885 1.260 . S
O870 Tb822 2.552 . S
O870 C878 1.243 . S
O871 Tb822 2.413 . S
O871 C886 1.256 . S
O872 Tb833 2.546 . S
O872 C897 1.251 . S
O873 Tb822 2.362 . S
O873 Tb833 2.610 . S
O873 C889 1.283 . S
O874 Tb822 2.421 . S
O874 C896 1.262 . S
O875 Tb833 2.320 . S
O875 C896 1.260 . S
O876 Tb833 2.552 . S
O876 C889 1.243 . S
O877 Tb833 2.413 . S
O877 C897 1.256 . S
C878 O867 1.283 . S
C878 O870 1.243 . S
C879 C881 1.382 . S
C879 C883 1.393 . S
C879 C886 1.500 . S
C880 C881 1.400 . S
C880 C882 1.384 . S
C881 C879 1.382 . S
C881 C880 1.400 . S
C881 H898 0.930 . S
C882 C880 1.384 . S
C882 C884 1.392 . S
C882 H899 0.931 . S
C883 C879 1.393 . S
C883 C884 1.401 . S
C883 H900 0.930 . S
C884 C882 1.392 . S
C884 C883 1.401 . S
C884 H901 0.930 . S
C885 O868 1.262 . S
C885 O869 1.260 . S
C886 Tb822 2.833 . S
C886 O866 1.251 . S
C886 O871 1.256 . S
C886 C879 1.500 . S
C887 H852 0.929 . S
C887 C865 1.444 . S
C887 C888 1.317 . S
C888 H850 0.930 . S
C888 C856 1.432 . S
C888 C887 1.317 . S
C889 O873 1.283 . S
C889 O876 1.243 . S
C890 C891 1.382 . S
C890 C894 1.393 . S
C890 C897 1.500 . S
C891 C890 1.382 . S
C891 C892 1.400 . S
C891 H902 0.930 . S
C892 C891 1.400 . S
C892 C893 1.384 . S
C893 C892 1.384 . S
C893 C895 1.392 . S
C893 H903 0.931 . S
C894 C890 1.393 . S
C894 C895 1.401 . S
C894 H904 0.930 . S
C895 C893 1.392 . S
C895 C894 1.401 . S
C895 H905 0.930 . S
C896 O874 1.262 . S
C896 O875 1.260 . S
C897 Tb833 2.833 . S
C897 O872 1.251 . S
C897 O877 1.256 . S
C897 C890 1.500 . S
H898 C881 0.930 . S
H899 C882 0.931 . S
H900 C883 0.930 . S
H901 C884 0.930 . S
H902 C891 0.930 . S
H903 C893 0.931 . S
H904 C894 0.930 . S
H905 C895 0.930 . S
Tb906 N937 2.660 . S
Tb906 N944 2.600 . S
Tb906 O950 2.546 . S
Tb906 O951 2.610 . S
Tb906 O953 2.320 . S
Tb906 O954 2.552 . S
Tb906 O955 2.413 . S
Tb906 O957 2.362 . S
Tb906 O958 2.421 . S
Tb906 C970 2.833 . S
C907 C910 1.432 . S
C907 C911 1.414 . S
C907 N914 1.359 . S
C908 C910 1.417 . S
C908 C912 1.432 . S
C908 C920 1.410 . S
C909 C911 1.444 . S
C909 C912 1.317 . S
C909 H932 0.929 . S
C910 C907 1.432 . S
C910 C908 1.417 . S
C910 N918 1.360 . S
C911 C907 1.414 . S
C911 C909 1.444 . S
C911 C916 1.385 . S
C912 C908 1.432 . S
C912 C909 1.317 . S
C912 H924 0.930 . S
C913 C915 1.392 . S
C913 C916 1.370 . S
C913 H925 0.931 . S
N914 C907 1.359 . S
N914 C915 1.327 . S
N914 Tb917 2.600 . S
C915 C913 1.392 . S
C915 N914 1.327 . S
C915 H922 0.930 . S
C916 C911 1.385 . S
C916 C913 1.370 . S
C916 H935 0.930 . S
Tb917 N914 2.600 . S
Tb917 N918 2.660 . S
Tb917 O951 2.362 . S
Tb917 O952 2.421 . S
Tb917 O956 2.546 . S
Tb917 O957 2.610 . S
Tb917 O959 2.320 . S
Tb917 O960 2.552 . S
Tb917 O961 2.413 . S
Tb917 C981 2.833 . S
N918 C910 1.360 . S
N918 Tb917 2.660 . S
N918 C919 1.305 . S
C919 N918 1.305 . S
C919 C921 1.407 . S
C919 H926 0.930 . S
C920 C908 1.410 . S
C920 C921 1.345 . S
C920 H928 0.930 . S
C921 C919 1.407 . S
C921 C920 1.345 . S
C921 H923 0.930 . S
H922 C915 0.930 . S
H923 C921 0.930 . S
H924 C912 0.930 . S
H925 C913 0.931 . S
H926 C919 0.930 . S
H927 C941 0.930 . S
H928 C920 0.930 . S
H929 C947 0.930 . S
H930 C938 0.930 . S
H931 C945 0.931 . S
H932 C909 0.929 . S
H933 C939 0.930 1_455 S
H934 C972 0.930 1_455 S
H935 C916 0.930 . S
H936 C971 0.929 . S
N937 Tb906 2.660 . S
N937 C938 1.305 . S
N937 C942 1.360 . S
C938 H930 0.930 . S
C938 N937 1.305 . S
C938 C941 1.407 . S
C939 H933 0.930 1_655 S
C939 C940 1.410 . S
C939 C941 1.345 . S
C940 C939 1.410 . S
C940 C942 1.417 . S
C940 C972 1.432 . S
C941 H927 0.930 . S
C941 C938 1.407 . S
C941 C939 1.345 . S
C942 N937 1.360 . S
C942 C940 1.417 . S
C942 C946 1.432 . S
H943 C948 0.930 . S
N944 Tb906 2.600 . S
N944 C946 1.359 . S
N944 C947 1.327 . S
C945 H931 0.931 . S
C945 C947 1.392 . S
C945 C948 1.370 . S
C946 C942 1.432 . S
C946 N944 1.359 . S
C946 C949 1.414 . S
C947 H929 0.930 . S
C947 N944 1.327 . S
C947 C945 1.392 . S
C948 H943 0.930 . S
C948 C945 1.370 . S
C948 C949 1.385 . S
C949 C946 1.414 . S
C949 C948 1.385 . S
C949 C971 1.444 . S
O950 Tb906 2.546 . S
O950 C970 1.251 . S
O951 Tb906 2.610 . S
O951 Tb917 2.362 . S
O951 C962 1.283 . S
O952 Tb917 2.421 . S
O952 C969 1.262 . S
O953 Tb906 2.320 . S
O953 C969 1.260 . S
O954 Tb906 2.552 . S
O954 C962 1.243 . S
O955 Tb906 2.413 . S
O955 C970 1.256 . S
O956 Tb917 2.546 . S
O956 C981 1.251 . S
O957 Tb906 2.362 . S
O957 Tb917 2.610 . S
O957 C973 1.283 . S
O958 Tb906 2.421 . S
O958 C980 1.262 . S
O959 Tb917 2.320 . S
O959 C980 1.260 . S
O960 Tb917 2.552 . S
O960 C973 1.243 . S
O961 Tb917 2.413 . S
O961 C981 1.256 . S
C962 O951 1.283 . S
C962 O954 1.243 . S
C963 C965 1.382 . S
C963 C967 1.393 . S
C963 C970 1.500 . S
C964 C965 1.400 . S
C964 C966 1.384 . S
C965 C963 1.382 . S
C965 C964 1.400 . S
C965 H982 0.930 . S
C966 C964 1.384 . S
C966 C968 1.392 . S
C966 H983 0.931 . S
C967 C963 1.393 . S
C967 C968 1.401 . S
C967 H984 0.930 . S
C968 C966 1.392 . S
C968 C967 1.401 . S
C968 H985 0.930 . S
C969 O952 1.262 . S
C969 O953 1.260 . S
C970 Tb906 2.833 . S
C970 O950 1.251 . S
C970 O955 1.256 . S
C970 C963 1.500 . S
C971 H936 0.929 . S
C971 C949 1.444 . S
C971 C972 1.317 . S
C972 H934 0.930 1_655 S
C972 C940 1.432 . S
C972 C971 1.317 . S
C973 O957 1.283 . S
C973 O960 1.243 . S
C974 C975 1.382 . S
C974 C978 1.393 . S
C974 C981 1.500 . S
C975 C974 1.382 . S
C975 C976 1.400 . S
C975 H986 0.930 . S
C976 C975 1.400 . S
C976 C977 1.384 . S
C977 C976 1.384 . S
C977 C979 1.392 . S
C977 H987 0.931 . S
C978 C974 1.393 . S
C978 C979 1.401 . S
C978 H988 0.930 . S
C979 C977 1.392 . S
C979 C978 1.401 . S
C979 H989 0.930 . S
C980 O958 1.262 . S
C980 O959 1.260 . S
C981 Tb917 2.833 . S
C981 O956 1.251 . S
C981 O961 1.256 . S
C981 C974 1.500 . S
H982 C965 0.930 . S
H983 C966 0.931 . S
H984 C967 0.930 . S
H985 C968 0.930 . S
H986 C975 0.930 . S
H987 C977 0.931 . S
H988 C978 0.930 . S
H989 C979 0.930 . S
C990 C991 1.391 . S
C990 C992 1.394 . S
C990 H1006 0.931 . S
C991 C990 1.391 . S
C991 C995 1.376 . S
C992 C990 1.394 . S
C992 C993 1.369 . S
C992 C996 1.531 . S
C993 C992 1.369 . S
C993 C994 1.410 . S
C993 C1001 1.503 . S
C994 C993 1.410 . S
C994 C995 1.392 . S
C994 C997 1.511 . S
C995 C991 1.376 . S
C995 C994 1.392 . S
C995 H1007 0.929 . S
C996 C992 1.531 . S
C996 H1008 0.960 . S
C996 H1009 0.962 . S
C996 H1010 0.960 . S
C997 C994 1.511 . S
C997 H1011 0.961 . S
C997 H1012 0.961 . S
C997 H1013 0.961 . S
C998 C999 1.370 . S
C998 C1000 1.363 . S
C998 H1014 0.931 . S
C999 C998 1.370 . S
C999 C1003 1.408 . S
C1000 C998 1.363 . S
C1000 C1001 1.370 . S
C1000 C1004 1.524 . S
C1001 C993 1.503 . S
C1001 C1000 1.370 . S
C1001 C1002 1.403 . S
C1002 C1001 1.403 . S
C1002 C1003 1.404 . S
C1002 C1005 1.539 . S
C1003 C999 1.408 . S
C1003 C1002 1.404 . S
C1003 H1015 0.930 . S
C1004 C1000 1.524 . S
C1004 H1016 0.956 . S
C1004 H1017 0.961 . S
C1004 H1018 0.961 . S
C1005 C1002 1.539 . S
C1005 H1019 0.958 . S
C1005 H1020 0.961 . S
C1005 H1021 0.960 . S
H1006 C990 0.931 . S
H1007 C995 0.929 . S
H1008 C996 0.960 . S
H1009 C996 0.962 . S
H1010 C996 0.960 . S
H1011 C997 0.961 . S
H1012 C997 0.961 . S
H1013 C997 0.961 . S
H1014 C998 0.931 . S
H1015 C1003 0.930 . S
H1016 C1004 0.956 . S
H1017 C1004 0.961 . S
H1018 C1004 0.961 . S
H1019 C1005 0.958 . S
H1020 C1005 0.961 . S
H1021 C1005 0.960 . S
C1022 C1023 1.391 . S
C1022 C1024 1.394 . S
C1022 H1038 0.931 . S
C1023 C1022 1.391 . S
C1023 C1027 1.376 . S
C1024 C1022 1.394 . S
C1024 C1025 1.369 . S
C1024 C1028 1.531 . S
C1025 C1024 1.369 . S
C1025 C1026 1.410 . S
C1025 C1033 1.503 . S
C1026 C1025 1.410 . S
C1026 C1027 1.392 . S
C1026 C1029 1.511 . S
C1027 C1023 1.376 . S
C1027 C1026 1.392 . S
C1027 H1039 0.929 . S
C1028 C1024 1.531 . S
C1028 H1040 0.960 . S
C1028 H1041 0.962 . S
C1028 H1042 0.960 . S
C1029 C1026 1.511 . S
C1029 H1043 0.961 . S
C1029 H1044 0.961 . S
C1029 H1045 0.961 . S
C1030 C1031 1.370 . S
C1030 C1032 1.363 . S
C1030 H1046 0.931 . S
C1031 C1030 1.370 . S
C1031 C1035 1.408 . S
C1032 C1030 1.363 . S
C1032 C1033 1.370 . S
C1032 C1036 1.524 . S
C1033 C1025 1.503 . S
C1033 C1032 1.370 . S
C1033 C1034 1.403 . S
C1034 C1033 1.403 . S
C1034 C1035 1.404 . S
C1034 C1037 1.539 . S
C1035 C1031 1.408 . S
C1035 C1034 1.404 . S
C1035 H1047 0.930 . S
C1036 C1032 1.524 . S
C1036 H1048 0.956 . S
C1036 H1049 0.961 . S
C1036 H1050 0.961 . S
C1037 C1034 1.539 . S
C1037 H1051 0.958 . S
C1037 H1052 0.961 . S
C1037 H1053 0.960 . S
H1038 C1022 0.931 . S
H1039 C1027 0.929 . S
H1040 C1028 0.960 . S
H1041 C1028 0.962 . S
H1042 C1028 0.960 . S
H1043 C1029 0.961 . S
H1044 C1029 0.961 . S
H1045 C1029 0.961 . S
H1046 C1030 0.931 . S
H1047 C1035 0.930 . S
H1048 C1036 0.956 . S
H1049 C1036 0.961 . S
H1050 C1036 0.961 . S
H1051 C1037 0.958 . S
H1052 C1037 0.961 . S
H1053 C1037 0.960 . S
C1054 C1055 1.391 . S
C1054 C1056 1.394 . S
C1054 H1070 0.931 . S
C1055 C1054 1.391 . S
C1055 C1059 1.376 . S
C1056 C1054 1.394 . S
C1056 C1057 1.369 . S
C1056 C1060 1.531 . S
C1057 C1056 1.369 . S
C1057 C1058 1.410 . S
C1057 C1065 1.503 . S
C1058 C1057 1.410 . S
C1058 C1059 1.392 . S
C1058 C1061 1.511 . S
C1059 C1055 1.376 . S
C1059 C1058 1.392 . S
C1059 H1071 0.929 . S
C1060 C1056 1.531 . S
C1060 H1072 0.960 . S
C1060 H1073 0.962 . S
C1060 H1074 0.960 . S
C1061 C1058 1.511 . S
C1061 H1075 0.961 . S
C1061 H1076 0.961 . S
C1061 H1077 0.961 . S
C1062 C1063 1.370 . S
C1062 C1064 1.363 . S
C1062 H1078 0.931 . S
C1063 C1062 1.370 . S
C1063 C1067 1.408 . S
C1064 C1062 1.363 . S
C1064 C1065 1.370 . S
C1064 C1068 1.524 . S
C1065 C1057 1.503 . S
C1065 C1064 1.370 . S
C1065 C1066 1.403 . S
C1066 C1065 1.403 . S
C1066 C1067 1.404 . S
C1066 C1069 1.539 . S
C1067 C1063 1.408 . S
C1067 C1066 1.404 . S
C1067 H1079 0.930 . S
C1068 C1064 1.524 . S
C1068 H1080 0.956 . S
C1068 H1081 0.961 . S
C1068 H1082 0.961 1_554 S
C1069 C1066 1.539 . S
C1069 H1083 0.958 . S
C1069 H1084 0.961 . S
C1069 H1085 0.960 . S
H1070 C1054 0.931 . S
H1071 C1059 0.929 . S
H1072 C1060 0.960 . S
H1073 C1060 0.962 . S
H1074 C1060 0.960 . S
H1075 C1061 0.961 . S
H1076 C1061 0.961 . S
H1077 C1061 0.961 . S
H1078 C1062 0.931 . S
H1079 C1067 0.930 . S
H1080 C1068 0.956 . S
H1081 C1068 0.961 . S
H1082 C1068 0.961 1_556 S
H1083 C1069 0.958 . S
H1084 C1069 0.961 . S
H1085 C1069 0.960 . S
C1086 C1087 1.391 . S
C1086 C1088 1.394 . S
C1086 H1102 0.931 . S
C1087 C1086 1.391 . S
C1087 C1091 1.376 . S
C1088 C1086 1.394 . S
C1088 C1089 1.369 . S
C1088 C1092 1.531 . S
C1089 C1088 1.369 . S
C1089 C1090 1.410 . S
C1089 C1097 1.503 . S
C1090 C1089 1.410 . S
C1090 C1091 1.392 . S
C1090 C1093 1.511 . S
C1091 C1087 1.376 . S
C1091 C1090 1.392 . S
C1091 H1103 0.929 . S
C1092 C1088 1.531 . S
C1092 H1104 0.960 . S
C1092 H1105 0.962 . S
C1092 H1106 0.960 . S
C1093 C1090 1.511 . S
C1093 H1107 0.961 . S
C1093 H1108 0.961 . S
C1093 H1109 0.961 . S
C1094 C1095 1.370 1_554 S
C1094 C1096 1.363 1_554 S
C1094 H1110 0.931 . S
C1095 C1094 1.370 1_556 S
C1095 C1099 1.408 . S
C1096 C1094 1.363 1_556 S
C1096 C1097 1.370 . S
C1096 C1100 1.524 1_556 S
C1097 C1089 1.503 . S
C1097 C1096 1.370 . S
C1097 C1098 1.403 . S
C1098 C1097 1.403 . S
C1098 C1099 1.404 . S
C1098 C1101 1.539 . S
C1099 C1095 1.408 . S
C1099 C1098 1.404 . S
C1099 H1111 0.930 . S
C1100 C1096 1.524 1_554 S
C1100 H1112 0.956 . S
C1100 H1113 0.961 . S
C1100 H1114 0.961 . S
C1101 C1098 1.539 . S
C1101 H1115 0.958 . S
C1101 H1116 0.961 . S
C1101 H1117 0.960 . S
H1102 C1086 0.931 . S
H1103 C1091 0.929 . S
H1104 C1092 0.960 . S
H1105 C1092 0.962 . S
H1106 C1092 0.960 . S
H1107 C1093 0.961 . S
H1108 C1093 0.961 . S
H1109 C1093 0.961 . S
H1110 C1094 0.931 . S
H1111 C1099 0.930 . S
H1112 C1100 0.956 . S
H1113 C1100 0.961 . S
H1114 C1100 0.961 . S
H1115 C1101 0.958 . S
H1116 C1101 0.961 . S
H1117 C1101 0.960 . S
C1118 C1119 1.391 . S
C1118 C1120 1.394 . S
C1118 H1134 0.931 . S
C1119 C1118 1.391 . S
C1119 C1123 1.376 . S
C1120 C1118 1.394 . S
C1120 C1121 1.369 . S
C1120 C1124 1.531 . S
C1121 C1120 1.369 . S
C1121 C1122 1.410 . S
C1121 C1129 1.503 . S
C1122 C1121 1.410 . S
C1122 C1123 1.392 . S
C1122 C1125 1.511 1_556 S
C1123 C1119 1.376 . S
C1123 C1122 1.392 . S
C1123 H1135 0.929 . S
C1124 C1120 1.531 . S
C1124 H1136 0.960 . S
C1124 H1137 0.962 . S
C1124 H1138 0.960 . S
C1125 C1122 1.511 1_554 S
C1125 H1139 0.961 . S
C1125 H1140 0.961 . S
C1125 H1141 0.961 . S
C1126 C1127 1.370 . S
C1126 C1128 1.363 . S
C1126 H1142 0.931 . S
C1127 C1126 1.370 . S
C1127 C1131 1.408 . S
C1128 C1126 1.363 . S
C1128 C1129 1.370 . S
C1128 C1132 1.524 . S
C1129 C1121 1.503 . S
C1129 C1128 1.370 . S
C1129 C1130 1.403 . S
C1130 C1129 1.403 . S
C1130 C1131 1.404 . S
C1130 C1133 1.539 . S
C1131 C1127 1.408 . S
C1131 C1130 1.404 . S
C1131 H1143 0.930 . S
C1132 C1128 1.524 . S
C1132 H1144 0.956 . S
C1132 H1145 0.961 . S
C1132 H1146 0.961 . S
C1133 C1130 1.539 . S
C1133 H1147 0.958 . S
C1133 H1148 0.961 . S
C1133 H1149 0.960 . S
H1134 C1118 0.931 . S
H1135 C1123 0.929 . S
H1136 C1124 0.960 . S
H1137 C1124 0.962 . S
H1138 C1124 0.960 . S
H1139 C1125 0.961 . S
H1140 C1125 0.961 . S
H1141 C1125 0.961 . S
H1142 C1126 0.931 . S
H1143 C1131 0.930 . S
H1144 C1132 0.956 . S
H1145 C1132 0.961 . S
H1146 C1132 0.961 . S
H1147 C1133 0.958 . S
H1148 C1133 0.961 . S
H1149 C1133 0.960 . S
C1150 C1151 1.391 . S
C1150 C1152 1.394 . S
C1150 H1166 0.931 . S
C1151 C1150 1.391 . S
C1151 C1155 1.376 . S
C1152 C1150 1.394 . S
C1152 C1153 1.369 . S
C1152 C1156 1.531 . S
C1153 C1152 1.369 . S
C1153 C1154 1.410 . S
C1153 C1161 1.503 . S
C1154 C1153 1.410 . S
C1154 C1155 1.392 . S
C1154 C1157 1.511 . S
C1155 C1151 1.376 . S
C1155 C1154 1.392 . S
C1155 H1167 0.929 . S
C1156 C1152 1.531 . S
C1156 H1168 0.960 1_556 S
C1156 H1169 0.962 . S
C1156 H1170 0.939 1_556 S
C1157 C1154 1.511 . S
C1157 H1171 0.961 . S
C1157 H1172 0.961 . S
C1157 H1173 0.961 . S
C1158 C1159 1.370 . S
C1158 C1160 1.363 . S
C1158 H1174 0.931 . S
C1159 C1158 1.370 . S
C1159 C1163 1.408 1_556 S
C1160 C1158 1.363 . S
C1160 C1161 1.370 . S
C1160 C1164 1.524 . S
C1161 C1153 1.503 . S
C1161 C1160 1.370 . S
C1161 C1162 1.403 1_556 S
C1162 C1161 1.403 1_554 S
C1162 C1163 1.404 . S
C1162 C1165 1.539 . S
C1163 C1159 1.408 1_554 S
C1163 C1162 1.404 . S
C1163 H1175 0.930 . S
C1164 C1160 1.524 . S
C1164 H1176 0.956 . S
C1164 H1177 0.961 . S
C1164 H1178 0.961 . S
C1165 C1162 1.539 . S
C1165 H1179 0.958 . S
C1165 H1180 0.961 . S
C1165 H1181 0.960 . S
H1166 C1150 0.931 . S
H1167 C1155 0.929 . S
H1168 C1156 0.960 1_554 S
H1169 C1156 0.962 . S
H1170 C1156 0.939 1_554 S
H1171 C1157 0.961 . S
H1172 C1157 0.961 . S
H1173 C1157 0.961 . S
H1174 C1158 0.931 . S
H1175 C1163 0.930 . S
H1176 C1164 0.956 . S
H1177 C1164 0.961 . S
H1178 C1164 0.961 . S
H1179 C1165 0.958 . S
H1180 C1165 0.961 . S
H1181 C1165 0.960 . S
C1182 C1183 1.391 . S
C1182 C1184 1.394 . S
C1182 H1198 0.931 . S
C1183 C1182 1.391 . S
C1183 C1187 1.376 . S
C1184 C1182 1.394 . S
C1184 C1185 1.369 . S
C1184 C1188 1.531 . S
C1185 C1184 1.369 . S
C1185 C1186 1.410 . S
C1185 C1193 1.503 . S
C1186 C1185 1.410 . S
C1186 C1187 1.392 . S
C1186 C1189 1.511 . S
C1187 C1183 1.376 . S
C1187 C1186 1.392 . S
C1187 H1199 0.929 . S
C1188 C1184 1.531 . S
C1188 H1200 0.960 . S
C1188 H1201 0.962 . S
C1188 H1202 0.960 . S
C1189 C1186 1.511 . S
C1189 H1203 0.961 . S
C1189 H1204 0.961 . S
C1189 H1205 0.961 . S
C1190 C1191 1.370 1_554 S
C1190 C1192 1.363 . S
C1190 H1206 0.931 . S
C1191 C1190 1.370 1_556 S
C1191 C1195 1.408 . S
C1192 C1190 1.363 . S
C1192 C1193 1.370 1_554 S
C1192 C1196 1.524 . S
C1193 C1185 1.503 . S
C1193 C1192 1.370 1_556 S
C1193 C1194 1.403 . S
C1194 C1193 1.403 . S
C1194 C1195 1.404 . S
C1194 C1197 1.539 . S
C1195 C1191 1.408 . S
C1195 C1194 1.404 . S
C1195 H1207 0.930 . S
C1196 C1192 1.524 . S
C1196 H1208 0.956 . S
C1196 H1209 0.961 . S
C1196 H1210 0.961 . S
C1197 C1194 1.539 . S
C1197 H1211 0.958 . S
C1197 H1212 0.961 . S
C1197 H1213 0.960 . S
H1198 C1182 0.931 . S
H1199 C1187 0.929 . S
H1200 C1188 0.960 . S
H1201 C1188 0.962 . S
H1202 C1188 0.960 . S
H1203 C1189 0.961 . S
H1204 C1189 0.961 . S
H1205 C1189 0.961 . S
H1206 C1190 0.931 . S
H1207 C1195 0.930 . S
H1208 C1196 0.956 . S
H1209 C1196 0.961 . S
H1210 C1196 0.961 . S
H1211 C1197 0.958 . S
H1212 C1197 0.961 . S
H1213 C1197 0.960 . S
C1214 C1215 1.391 . S
C1214 C1216 1.394 . S
C1214 H1230 0.931 . S
C1215 C1214 1.391 . S
C1215 C1219 1.376 . S
C1216 C1214 1.394 . S
C1216 C1217 1.369 . S
C1216 C1220 1.531 . S
C1217 C1216 1.369 . S
C1217 C1218 1.410 . S
C1217 C1225 1.503 . S
C1218 C1217 1.410 . S
C1218 C1219 1.392 . S
C1218 C1221 1.511 . S
C1219 C1215 1.376 . S
C1219 C1218 1.392 . S
C1219 H1231 0.929 . S
C1220 C1216 1.531 . S
C1220 H1232 0.960 . S
C1220 H1233 0.962 . S
C1220 H1234 0.960 . S
C1221 C1218 1.511 . S
C1221 H1235 0.961 . S
C1221 H1236 0.961 . S
C1221 H1237 0.961 . S
C1222 C1223 1.370 1_554 S
C1222 C1224 1.355 1_554 S
C1222 H1238 0.931 . S
C1223 C1222 1.370 1_556 S
C1223 C1227 1.408 . S
C1224 C1222 1.355 1_556 S
C1224 C1225 1.398 . S
C1224 C1228 1.505 1_556 S
C1225 C1217 1.503 . S
C1225 C1224 1.398 . S
C1225 C1226 1.403 . S
C1226 C1225 1.403 . S
C1226 C1227 1.404 . S
C1226 C1229 1.539 . S
C1227 C1223 1.408 . S
C1227 C1226 1.404 . S
C1227 H1239 0.930 . S
C1228 C1224 1.505 1_554 S
C1228 H1240 0.956 . S
C1228 H1241 0.961 . S
C1228 H1242 0.961 . S
C1229 C1226 1.539 . S
C1229 H1243 0.958 . S
C1229 H1244 0.961 . S
C1229 H1245 0.960 . S
H1230 C1214 0.931 . S
H1231 C1219 0.929 . S
H1232 C1220 0.960 . S
H1233 C1220 0.962 . S
H1234 C1220 0.960 . S
H1235 C1221 0.961 . S
H1236 C1221 0.961 . S
H1237 C1221 0.961 . S
H1238 C1222 0.931 . S
H1239 C1227 0.930 . S
H1240 C1228 0.956 . S
H1241 C1228 0.961 . S
H1242 C1228 0.961 . S
H1243 C1229 0.958 . S
H1244 C1229 0.961 . S
H1245 C1229 0.960 . S
C1246 C1247 1.391 . S
C1246 C1248 1.394 . S
C1246 H1262 0.931 . S
C1247 C1246 1.391 . S
C1247 C1251 1.376 . S
C1248 C1246 1.394 . S
C1248 C1249 1.369 . S
C1248 C1252 1.531 . S
C1249 C1248 1.369 . S
C1249 C1250 1.410 . S
C1249 C1257 1.503 . S
C1250 C1249 1.410 . S
C1250 C1251 1.392 . S
C1250 C1253 1.511 1_556 S
C1251 C1247 1.376 . S
C1251 C1250 1.392 . S
C1251 H1263 0.929 . S
C1252 C1248 1.531 . S
C1252 H1264 0.960 . S
C1252 H1265 0.962 . S
C1252 H1266 0.960 . S
C1253 C1250 1.511 1_554 S
C1253 H1267 0.961 . S
C1253 H1268 0.961 . S
C1253 H1269 0.961 . S
C1254 C1255 1.370 1_554 S
C1254 C1256 1.363 1_554 S
C1254 H1270 0.931 . S
C1255 C1254 1.370 1_556 S
C1255 C1259 1.408 . S
C1256 C1254 1.363 1_556 S
C1256 C1257 1.370 . S
C1256 C1260 1.524 1_556 S
C1257 C1249 1.503 . S
C1257 C1256 1.370 . S
C1257 C1258 1.403 . S
C1258 C1257 1.403 . S
C1258 C1259 1.404 . S
C1258 C1261 1.539 . S
C1259 C1255 1.408 . S
C1259 C1258 1.404 . S
C1259 H1271 0.930 . S
C1260 C1256 1.524 1_554 S
C1260 H1272 0.956 1_554 S
C1260 H1273 0.961 . S
C1260 H1274 0.961 . S
C1261 C1258 1.539 . S
C1261 H1275 0.958 . S
C1261 H1276 0.961 . S
C1261 H1277 0.960 . S
H1262 C1246 0.931 . S
H1263 C1251 0.929 . S
H1264 C1252 0.960 . S
H1265 C1252 0.962 . S
H1266 C1252 0.960 . S
H1267 C1253 0.961 . S
H1268 C1253 0.961 . S
H1269 C1253 0.961 . S
H1270 C1254 0.931 . S
H1271 C1259 0.930 . S
H1272 C1260 0.956 1_556 S
H1273 C1260 0.961 . S
H1274 C1260 0.961 . S
H1275 C1261 0.958 . S
H1276 C1261 0.961 . S
H1277 C1261 0.960 . S
C1278 C1279 1.391 . S
C1278 C1280 1.394 . S
C1278 H1294 0.931 . S
C1279 C1278 1.391 . S
C1279 C1283 1.376 . S
C1280 C1278 1.394 . S
C1280 C1281 1.369 . S
C1280 C1284 1.531 . S
C1281 C1280 1.369 . S
C1281 C1282 1.410 . S
C1281 C1289 1.503 . S
C1282 C1281 1.410 . S
C1282 C1283 1.392 . S
C1282 C1285 1.511 . S
C1283 C1279 1.376 . S
C1283 C1282 1.392 . S
C1283 H1295 0.929 . S
C1284 C1280 1.531 . S
C1284 H1296 0.960 . S
C1284 H1297 0.962 . S
C1284 H1298 0.960 . S
C1285 C1282 1.511 . S
C1285 H1299 0.961 . S
C1285 H1300 0.961 . S
C1285 H1301 0.961 . S
C1286 C1287 1.370 . S
C1286 C1288 1.363 . S
C1286 H1302 0.931 . S
C1287 C1286 1.370 . S
C1287 C1291 1.408 . S
C1288 C1286 1.363 . S
C1288 C1289 1.370 . S
C1288 C1292 1.524 . S
C1289 C1281 1.503 . S
C1289 C1288 1.370 . S
C1289 C1290 1.403 . S
C1290 C1289 1.403 . S
C1290 C1291 1.404 . S
C1290 C1293 1.539 . S
C1291 C1287 1.408 . S
C1291 C1290 1.404 . S
C1291 H1303 0.930 . S
C1292 C1288 1.524 . S
C1292 H1304 0.956 . S
C1292 H1305 0.961 . S
C1292 H1306 0.961 . S
C1293 C1290 1.539 . S
C1293 H1307 0.958 1_554 S
C1293 H1308 0.961 . S
C1293 H1309 0.960 . S
H1294 C1278 0.931 . S
H1295 C1283 0.929 . S
H1296 C1284 0.960 . S
H1297 C1284 0.962 . S
H1298 C1284 0.960 . S
H1299 C1285 0.961 . S
H1300 C1285 0.961 . S
H1301 C1285 0.961 . S
H1302 C1286 0.931 . S
H1303 C1291 0.930 . S
H1304 C1292 0.956 . S
H1305 C1292 0.961 . S
H1306 C1292 0.961 . S
H1307 C1293 0.958 1_556 S
H1308 C1293 0.961 . S
H1309 C1293 0.960 . S
C1310 C1311 1.391 . S
C1310 C1312 1.394 . S
C1310 H1326 0.931 . S
C1311 C1310 1.391 . S
C1311 C1315 1.376 . S
C1312 C1310 1.394 . S
C1312 C1313 1.369 . S
C1312 C1316 1.531 . S
C1313 C1312 1.369 . S
C1313 C1314 1.410 . S
C1313 C1321 1.503 . S
C1314 C1313 1.410 . S
C1314 C1315 1.392 . S
C1314 C1317 1.511 . S
C1315 C1311 1.376 . S
C1315 C1314 1.392 . S
C1315 H1327 0.929 . S
C1316 C1312 1.531 . S
C1316 H1328 0.960 . S
C1316 H1329 0.962 . S
C1316 H1330 0.960 . S
C1317 C1314 1.511 . S
C1317 H1331 0.961 . S
C1317 H1332 0.961 . S
C1317 H1333 0.961 . S
C1318 C1319 1.370 . S
C1318 C1320 1.363 . S
C1318 H1334 0.931 . S
C1319 C1318 1.370 . S
C1319 C1323 1.408 . S
C1320 C1318 1.363 . S
C1320 C1321 1.370 . S
C1320 C1324 1.524 . S
C1321 C1313 1.503 . S
C1321 C1320 1.370 . S
C1321 C1322 1.403 . S
C1322 C1321 1.403 . S
C1322 C1323 1.404 . S
C1322 C1325 1.539 . S
C1323 C1319 1.408 . S
C1323 C1322 1.404 . S
C1323 H1335 0.930 . S
C1324 C1320 1.524 . S
C1324 H1336 0.956 . S
C1324 H1337 0.961 . S
C1324 H1338 0.961 . S
C1325 C1322 1.539 . S
C1325 H1339 0.958 . S
C1325 H1340 0.961 1_554 S
C1325 H1341 0.960 . S
H1326 C1310 0.931 . S
H1327 C1315 0.929 . S
H1328 C1316 0.960 . S
H1329 C1316 0.962 . S
H1330 C1316 0.960 . S
H1331 C1317 0.961 . S
H1332 C1317 0.961 . S
H1333 C1317 0.961 . S
H1334 C1318 0.931 . S
H1335 C1323 0.930 . S
H1336 C1324 0.956 . S
H1337 C1324 0.961 . S
H1338 C1324 0.961 . S
H1339 C1325 0.958 . S
H1340 C1325 0.961 1_556 S
H1341 C1325 0.960 . S
C1342 C1343 1.391 . S
C1342 C1344 1.394 . S
C1342 H1358 0.931 . S
C1343 C1342 1.391 . S
C1343 C1347 1.376 . S
C1344 C1342 1.394 . S
C1344 C1345 1.369 . S
C1344 C1348 1.531 . S
C1345 C1344 1.369 . S
C1345 C1346 1.410 . S
C1345 C1353 1.503 . S
C1346 C1345 1.410 . S
C1346 C1347 1.392 . S
C1346 C1349 1.511 . S
C1347 C1343 1.376 . S
C1347 C1346 1.392 . S
C1347 H1359 0.929 . S
C1348 C1344 1.531 . S
C1348 H1360 0.960 . S
C1348 H1361 0.962 . S
C1348 H1362 0.960 . S
C1349 C1346 1.511 . S
C1349 H1363 0.961 1_554 S
C1349 H1364 0.963 . S
C1349 H1365 0.961 1_554 S
C1350 C1351 1.370 . S
C1350 C1352 1.363 . S
C1350 H1366 0.931 . S
C1351 C1350 1.370 . S
C1351 C1355 1.408 . S
C1352 C1350 1.363 . S
C1352 C1353 1.370 . S
C1352 C1356 1.524 . S
C1353 C1345 1.503 . S
C1353 C1352 1.370 . S
C1353 C1354 1.403 . S
C1354 C1353 1.403 . S
C1354 C1355 1.404 . S
C1354 C1357 1.539 . S
C1355 C1351 1.408 . S
C1355 C1354 1.404 . S
C1355 H1367 0.930 . S
C1356 C1352 1.524 . S
C1356 H1368 0.956 . S
C1356 H1369 0.961 . S
C1356 H1370 0.961 . S
C1357 C1354 1.539 . S
C1357 H1371 0.958 . S
C1357 H1372 0.961 . S
C1357 H1373 0.960 . S
H1358 C1342 0.931 . S
H1359 C1347 0.929 . S
H1360 C1348 0.960 . S
H1361 C1348 0.962 . S
H1362 C1348 0.960 . S
H1363 C1349 0.961 1_556 S
H1364 C1349 0.963 . S
H1365 C1349 0.961 1_556 S
H1366 C1350 0.931 . S
H1367 C1355 0.930 . S
H1368 C1356 0.956 . S
H1369 C1356 0.961 . S
H1370 C1356 0.961 . S
H1371 C1357 0.958 . S
H1372 C1357 0.961 . S
H1373 C1357 0.960 . S
C1374 C1375 1.391 . S
C1374 C1376 1.394 . S
C1374 H1390 0.931 . S
C1375 C1374 1.391 . S
C1375 C1379 1.376 . S
C1376 C1374 1.394 . S
C1376 C1377 1.369 . S
C1376 C1380 1.531 . S
C1377 C1376 1.369 . S
C1377 C1378 1.410 . S
C1377 C1385 1.503 1_655 S
C1378 C1377 1.410 . S
C1378 C1379 1.392 . S
C1378 C1381 1.511 1_655 S
C1379 C1375 1.376 . S
C1379 C1378 1.392 . S
C1379 H1391 0.929 . S
C1380 C1376 1.531 . S
C1380 H1392 0.960 1_655 S
C1380 H1393 0.962 . S
C1380 H1394 0.960 . S
C1381 C1378 1.511 1_455 S
C1381 H1395 0.961 . S
C1381 H1396 0.961 . S
C1381 H1397 0.961 . S
C1382 C1383 1.370 . S
C1382 C1384 1.363 . S
C1382 H1398 0.931 . S
C1383 C1382 1.370 . S
C1383 C1387 1.408 . S
C1384 C1382 1.363 . S
C1384 C1385 1.370 . S
C1384 C1388 1.524 1_455 S
C1385 C1377 1.503 1_455 S
C1385 C1384 1.370 . S
C1385 C1386 1.403 . S
C1386 C1385 1.403 . S
C1386 C1387 1.404 . S
C1386 C1389 1.539 . S
C1387 C1383 1.408 . S
C1387 C1386 1.404 . S
C1387 H1399 0.930 . S
C1388 C1384 1.524 1_655 S
C1388 H1400 0.956 . S
C1388 H1401 0.961 . S
C1388 H1402 0.961 . S
C1389 C1386 1.539 . S
C1389 H1403 0.958 . S
C1389 H1404 0.961 . S
C1389 H1405 0.960 . S
H1390 C1374 0.931 . S
H1391 C1379 0.929 . S
H1392 C1380 0.960 1_455 S
H1393 C1380 0.962 . S
H1394 C1380 0.960 . S
H1395 C1381 0.961 . S
H1396 C1381 0.961 . S
H1397 C1381 0.961 . S
H1398 C1382 0.931 . S
H1399 C1387 0.930 . S
H1400 C1388 0.956 . S
H1401 C1388 0.961 . S
H1402 C1388 0.961 . S
H1403 C1389 0.958 . S
H1404 C1389 0.961 . S
H1405 C1389 0.960 . S
C1406 C1407 1.391 . S
C1406 C1408 1.394 . S
C1406 H1422 0.931 . S
C1407 C1406 1.391 . S
C1407 C1411 1.376 . S
C1408 C1406 1.394 . S
C1408 C1409 1.369 . S
C1408 C1412 1.531 . S
C1409 C1408 1.369 . S
C1409 C1410 1.410 . S
C1409 C1417 1.503 . S
C1410 C1409 1.410 . S
C1410 C1411 1.392 . S
C1410 C1413 1.511 . S
C1411 C1407 1.376 . S
C1411 C1410 1.392 . S
C1411 H1423 0.929 . S
C1412 C1408 1.531 . S
C1412 H1424 0.960 . S
C1412 H1425 0.962 . S
C1412 H1426 0.960 . S
C1413 C1410 1.511 . S
C1413 H1427 0.961 . S
C1413 H1428 0.961 . S
C1413 H1429 0.961 . S
C1414 C1415 1.370 . S
C1414 C1416 1.363 . S
C1414 H1430 0.931 . S
C1415 C1414 1.370 . S
C1415 C1419 1.408 . S
C1416 C1414 1.363 . S
C1416 C1417 1.370 . S
C1416 C1420 1.524 . S
C1417 C1409 1.503 . S
C1417 C1416 1.370 . S
C1417 C1418 1.403 . S
C1418 C1417 1.403 . S
C1418 C1419 1.404 . S
C1418 C1421 1.539 . S
C1419 C1415 1.408 . S
C1419 C1418 1.404 . S
C1419 H1431 0.930 . S
C1420 C1416 1.524 . S
C1420 H1432 0.956 . S
C1420 H1433 0.961 . S
C1420 H1434 0.961 . S
C1421 C1418 1.539 . S
C1421 H1435 0.958 . S
C1421 H1436 0.961 . S
C1421 H1437 0.960 . S
H1422 C1406 0.931 . S
H1423 C1411 0.929 . S
H1424 C1412 0.960 . S
H1425 C1412 0.962 . S
H1426 C1412 0.960 . S
H1427 C1413 0.961 . S
H1428 C1413 0.961 . S
H1429 C1413 0.961 . S
H1430 C1414 0.931 . S
H1431 C1419 0.930 . S
H1432 C1420 0.956 . S
H1433 C1420 0.961 . S
H1434 C1420 0.961 . S
H1435 C1421 0.958 . S
H1436 C1421 0.961 . S
H1437 C1421 0.960 . S
C1438 C1439 1.391 . S
C1438 C1440 1.394 . S
C1438 H1454 0.931 . S
C1439 C1438 1.391 . S
C1439 C1443 1.376 . S
C1440 C1438 1.394 . S
C1440 C1441 1.369 . S
C1440 C1444 1.531 . S
C1441 C1440 1.369 . S
C1441 C1442 1.410 . S
C1441 C1449 1.503 1_545 S
C1442 C1441 1.410 . S
C1442 C1443 1.392 . S
C1442 C1445 1.511 . S
C1443 C1439 1.376 . S
C1443 C1442 1.392 . S
C1443 H1455 0.929 . S
C1444 C1440 1.531 . S
C1444 H1456 0.960 1_545 S
C1444 H1457 0.962 . S
C1444 H1458 0.960 . S
C1445 C1442 1.511 . S
C1445 H1459 0.961 . S
C1445 H1460 0.961 . S
C1445 H1461 0.961 . S
C1446 C1447 1.370 . S
C1446 C1448 1.363 . S
C1446 H1462 0.931 . S
C1447 C1446 1.370 . S
C1447 C1451 1.408 . S
C1448 C1446 1.363 . S
C1448 C1449 1.370 . S
C1448 C1452 1.524 1_565 S
C1449 C1441 1.503 1_565 S
C1449 C1448 1.370 . S
C1449 C1450 1.403 . S
C1450 C1449 1.403 . S
C1450 C1451 1.404 . S
C1450 C1453 1.539 . S
C1451 C1447 1.408 . S
C1451 C1450 1.404 . S
C1451 H1463 0.930 . S
C1452 C1448 1.524 1_545 S
C1452 H1464 0.956 . S
C1452 H1465 0.961 . S
C1452 H1466 0.961 . S
C1453 C1450 1.539 . S
C1453 H1467 0.958 . S
C1453 H1468 0.961 . S
C1453 H1469 0.960 . S
H1454 C1438 0.931 . S
H1455 C1443 0.929 . S
H1456 C1444 0.960 1_565 S
H1457 C1444 0.962 . S
H1458 C1444 0.960 . S
H1459 C1445 0.961 . S
H1460 C1445 0.961 . S
H1461 C1445 0.961 . S
H1462 C1446 0.931 . S
H1463 C1451 0.930 . S
H1464 C1452 0.956 . S
H1465 C1452 0.961 . S
H1466 C1452 0.961 . S
H1467 C1453 0.958 . S
H1468 C1453 0.961 . S
H1469 C1453 0.960 . S
C1470 C1471 1.391 . S
C1470 C1472 1.394 . S
C1470 H1486 0.931 . S
C1471 C1470 1.391 . S
C1471 C1475 1.376 . S
C1472 C1470 1.394 . S
C1472 C1473 1.369 . S
C1472 C1476 1.531 . S
C1473 C1472 1.369 . S
C1473 C1474 1.410 . S
C1473 C1481 1.503 . S
C1474 C1473 1.410 . S
C1474 C1475 1.392 . S
C1474 C1477 1.511 . S
C1475 C1471 1.376 . S
C1475 C1474 1.392 . S
C1475 H1487 0.929 . S
C1476 C1472 1.531 . S
C1476 H1488 0.960 . S
C1476 H1489 0.962 . S
C1476 H1490 0.960 . S
C1477 C1474 1.511 . S
C1477 H1491 0.961 . S
C1477 H1492 0.961 . S
C1477 H1493 0.961 . S
C1478 C1479 1.370 . S
C1478 C1480 1.363 . S
C1478 H1494 0.931 . S
C1479 C1478 1.370 . S
C1479 C1483 1.408 . S
C1480 C1478 1.363 . S
C1480 C1481 1.370 . S
C1480 C1484 1.524 . S
C1481 C1473 1.503 . S
C1481 C1480 1.370 . S
C1481 C1482 1.403 . S
C1482 C1481 1.403 . S
C1482 C1483 1.404 . S
C1482 C1485 1.539 . S
C1483 C1479 1.408 . S
C1483 C1482 1.404 . S
C1483 H1495 0.930 . S
C1484 C1480 1.524 . S
C1484 H1496 0.956 . S
C1484 H1497 0.961 . S
C1484 H1498 0.961 . S
C1485 C1482 1.539 . S
C1485 H1499 0.958 . S
C1485 H1500 0.961 . S
C1485 H1501 0.960 . S
H1486 C1470 0.931 . S
H1487 C1475 0.929 . S
H1488 C1476 0.960 . S
H1489 C1476 0.962 . S
H1490 C1476 0.960 . S
H1491 C1477 0.961 . S
H1492 C1477 0.961 . S
H1493 C1477 0.961 . S
H1494 C1478 0.931 . S
H1495 C1483 0.930 . S
H1496 C1484 0.956 . S
H1497 C1484 0.961 . S
H1498 C1484 0.961 . S
H1499 C1485 0.958 . S
H1500 C1485 0.961 . S
H1501 C1485 0.960 . S
C1502 C1503 1.391 . S
C1502 C1504 1.394 . S
C1502 H1518 0.931 . S
C1503 C1502 1.391 . S
C1503 C1507 1.376 . S
C1504 C1502 1.394 . S
C1504 C1505 1.369 . S
C1504 C1508 1.531 . S
C1505 C1504 1.369 . S
C1505 C1506 1.410 . S
C1505 C1513 1.503 . S
C1506 C1505 1.410 . S
C1506 C1507 1.392 . S
C1506 C1509 1.511 . S
C1507 C1503 1.376 . S
C1507 C1506 1.392 . S
C1507 H1519 0.929 . S
C1508 C1504 1.531 . S
C1508 H1520 0.960 . S
C1508 H1521 0.962 . S
C1508 H1522 0.960 . S
C1509 C1506 1.511 . S
C1509 H1523 0.961 . S
C1509 H1524 0.961 . S
C1509 H1525 0.961 . S
C1510 C1511 1.370 . S
C1510 C1512 1.363 . S
C1510 H1526 0.931 . S
C1511 C1510 1.370 . S
C1511 C1515 1.408 . S
C1512 C1510 1.363 . S
C1512 C1513 1.370 . S
C1512 C1516 1.524 . S
C1513 C1505 1.503 . S
C1513 C1512 1.370 . S
C1513 C1514 1.403 . S
C1514 C1513 1.403 . S
C1514 C1515 1.404 . S
C1514 C1517 1.539 . S
C1515 C1511 1.408 . S
C1515 C1514 1.404 . S
C1515 H1527 0.930 . S
C1516 C1512 1.524 . S
C1516 H1528 0.956 . S
C1516 H1529 0.961 . S
C1516 H1530 0.961 . S
C1517 C1514 1.539 . S
C1517 H1531 0.958 . S
C1517 H1532 0.961 . S
C1517 H1533 0.960 . S
H1518 C1502 0.931 . S
H1519 C1507 0.929 . S
H1520 C1508 0.960 . S
H1521 C1508 0.962 . S
H1522 C1508 0.960 . S
H1523 C1509 0.961 . S
H1524 C1509 0.961 . S
H1525 C1509 0.961 . S
H1526 C1510 0.931 . S
H1527 C1515 0.930 . S
H1528 C1516 0.956 . S
H1529 C1516 0.961 . S
H1530 C1516 0.961 . S
H1531 C1517 0.958 . S
H1532 C1517 0.961 . S
H1533 C1517 0.960 . S
C1534 C1535 1.391 . S
C1534 C1536 1.394 . S
C1534 H1550 0.931 . S
C1535 C1534 1.391 . S
C1535 C1539 1.376 . S
C1536 C1534 1.394 . S
C1536 C1537 1.369 . S
C1536 C1540 1.531 . S
C1537 C1536 1.369 . S
C1537 C1538 1.410 . S
C1537 C1545 1.503 . S
C1538 C1537 1.410 . S
C1538 C1539 1.392 . S
C1538 C1541 1.511 . S
C1539 C1535 1.376 . S
C1539 C1538 1.392 . S
C1539 H1551 0.929 . S
C1540 C1536 1.531 . S
C1540 H1552 0.960 . S
C1540 H1553 0.962 . S
C1540 H1554 0.960 . S
C1541 C1538 1.511 . S
C1541 H1555 0.961 . S
C1541 H1556 0.961 . S
C1541 H1557 0.961 . S
C1542 C1543 1.370 . S
C1542 C1544 1.363 . S
C1542 H1558 0.931 . S
C1543 C1542 1.370 . S
C1543 C1547 1.408 . S
C1544 C1542 1.363 . S
C1544 C1545 1.370 . S
C1544 C1548 1.524 . S
C1545 C1537 1.503 . S
C1545 C1544 1.370 . S
C1545 C1546 1.403 . S
C1546 C1545 1.403 . S
C1546 C1547 1.404 . S
C1546 C1549 1.539 . S
C1547 C1543 1.408 . S
C1547 C1546 1.404 . S
C1547 H1559 0.930 . S
C1548 C1544 1.524 . S
C1548 H1560 0.956 . S
C1548 H1561 0.961 . S
C1548 H1562 0.961 . S
C1549 C1546 1.539 . S
C1549 H1563 0.958 . S
C1549 H1564 0.961 . S
C1549 H1565 0.960 . S
H1550 C1534 0.931 . S
H1551 C1539 0.929 . S
H1552 C1540 0.960 . S
H1553 C1540 0.962 . S
H1554 C1540 0.960 . S
H1555 C1541 0.961 . S
H1556 C1541 0.961 . S
H1557 C1541 0.961 . S
H1558 C1542 0.931 . S
H1559 C1547 0.930 . S
H1560 C1548 0.956 . S
H1561 C1548 0.961 . S
H1562 C1548 0.961 . S
H1563 C1549 0.958 . S
H1564 C1549 0.961 . S
H1565 C1549 0.960 . S
C1566 C1567 1.391 . S
C1566 C1568 1.394 . S
C1566 H1582 0.931 . S
C1567 C1566 1.391 . S
C1567 C1571 1.376 . S
C1568 C1566 1.394 . S
C1568 C1569 1.369 . S
C1568 C1572 1.531 . S
C1569 C1568 1.369 . S
C1569 C1570 1.410 . S
C1569 C1577 1.503 . S
C1570 C1569 1.410 . S
C1570 C1571 1.392 . S
C1570 C1573 1.511 . S
C1571 C1567 1.376 . S
C1571 C1570 1.392 . S
C1571 H1583 0.929 . S
C1572 C1568 1.531 . S
C1572 H1584 0.960 . S
C1572 H1585 0.962 . S
C1572 H1586 0.960 . S
C1573 C1570 1.511 . S
C1573 H1587 0.961 . S
C1573 H1588 0.961 . S
C1573 H1589 0.961 . S
C1574 C1575 1.370 . S
C1574 C1576 1.363 . S
C1574 H1590 0.931 . S
C1575 C1574 1.370 . S
C1575 C1579 1.408 . S
C1576 C1574 1.363 . S
C1576 C1577 1.370 . S
C1576 C1580 1.524 . S
C1577 C1569 1.503 . S
C1577 C1576 1.370 . S
C1577 C1578 1.403 . S
C1578 C1577 1.403 . S
C1578 C1579 1.404 . S
C1578 C1581 1.539 . S
C1579 C1575 1.408 . S
C1579 C1578 1.404 . S
C1579 H1591 0.930 . S
C1580 C1576 1.524 . S
C1580 H1592 0.956 . S
C1580 H1593 0.961 . S
C1580 H1594 0.961 . S
C1581 C1578 1.539 . S
C1581 H1595 0.958 . S
C1581 H1596 0.961 . S
C1581 H1597 0.960 . S
H1582 C1566 0.931 . S
H1583 C1571 0.929 . S
H1584 C1572 0.960 . S
H1585 C1572 0.962 . S
H1586 C1572 0.960 . S
H1587 C1573 0.961 . S
H1588 C1573 0.961 . S
H1589 C1573 0.961 . S
H1590 C1574 0.931 . S
H1591 C1579 0.930 . S
H1592 C1580 0.956 . S
H1593 C1580 0.961 . S
H1594 C1580 0.961 . S
H1595 C1581 0.958 . S
H1596 C1581 0.961 . S
H1597 C1581 0.960 . S
C1598 C1599 1.391 . S
C1598 C1600 1.394 . S
C1598 H1614 0.931 . S
C1599 C1598 1.391 . S
C1599 C1603 1.376 . S
C1600 C1598 1.394 . S
C1600 C1601 1.369 . S
C1600 C1604 1.531 . S
C1601 C1600 1.369 . S
C1601 C1602 1.410 . S
C1601 C1609 1.503 . S
C1602 C1601 1.410 . S
C1602 C1603 1.392 . S
C1602 C1605 1.511 . S
C1603 C1599 1.376 . S
C1603 C1602 1.392 . S
C1603 H1615 0.929 . S
C1604 C1600 1.531 . S
C1604 H1616 0.960 . S
C1604 H1617 0.962 . S
C1604 H1618 0.960 . S
C1605 C1602 1.511 . S
C1605 H1619 0.961 . S
C1605 H1620 0.961 . S
C1605 H1621 0.961 . S
C1606 C1607 1.370 . S
C1606 C1608 1.363 . S
C1606 H1622 0.931 . S
C1607 C1606 1.370 . S
C1607 C1611 1.408 . S
C1608 C1606 1.363 . S
C1608 C1609 1.370 . S
C1608 C1612 1.524 . S
C1609 C1601 1.503 . S
C1609 C1608 1.370 . S
C1609 C1610 1.403 . S
C1610 C1609 1.403 . S
C1610 C1611 1.404 . S
C1610 C1613 1.539 . S
C1611 C1607 1.408 . S
C1611 C1610 1.404 . S
C1611 H1623 0.930 . S
C1612 C1608 1.524 . S
C1612 H1624 0.956 . S
C1612 H1625 0.961 . S
C1612 H1626 0.961 . S
C1613 C1610 1.539 . S
C1613 H1627 0.958 . S
C1613 H1628 0.961 . S
C1613 H1629 0.960 . S
H1614 C1598 0.931 . S
H1615 C1603 0.929 . S
H1616 C1604 0.960 . S
H1617 C1604 0.962 . S
H1618 C1604 0.960 . S
H1619 C1605 0.961 . S
H1620 C1605 0.961 . S
H1621 C1605 0.961 . S
H1622 C1606 0.931 . S
H1623 C1611 0.930 . S
H1624 C1612 0.956 . S
H1625 C1612 0.961 . S
H1626 C1612 0.961 . S
H1627 C1613 0.958 . S
H1628 C1613 0.961 . S
H1629 C1613 0.960 . S
C1630 C1631 1.391 . S
C1630 C1632 1.394 . S
C1630 H1646 0.931 . S
C1631 C1630 1.391 . S
C1631 C1635 1.376 . S
C1632 C1630 1.394 . S
C1632 C1633 1.369 . S
C1632 C1636 1.531 . S
C1633 C1632 1.369 . S
C1633 C1634 1.410 . S
C1633 C1641 1.503 . S
C1634 C1633 1.410 . S
C1634 C1635 1.392 . S
C1634 C1637 1.511 . S
C1635 C1631 1.376 . S
C1635 C1634 1.392 . S
C1635 H1647 0.929 . S
C1636 C1632 1.531 . S
C1636 H1648 0.960 . S
C1636 H1649 0.962 . S
C1636 H1650 0.960 . S
C1637 C1634 1.511 . S
C1637 H1651 0.961 . S
C1637 H1652 0.961 . S
C1637 H1653 0.961 . S
C1638 C1639 1.370 . S
C1638 C1640 1.363 . S
C1638 H1654 0.931 . S
C1639 C1638 1.370 . S
C1639 C1643 1.408 . S
C1640 C1638 1.363 . S
C1640 C1641 1.370 . S
C1640 C1644 1.524 . S
C1641 C1633 1.503 . S
C1641 C1640 1.370 . S
C1641 C1642 1.403 . S
C1642 C1641 1.403 . S
C1642 C1643 1.404 . S
C1642 C1645 1.539 . S
C1643 C1639 1.408 . S
C1643 C1642 1.404 . S
C1643 H1655 0.930 . S
C1644 C1640 1.524 . S
C1644 H1656 0.956 . S
C1644 H1657 0.961 . S
C1644 H1658 0.961 . S
C1645 C1642 1.539 . S
C1645 H1659 0.958 . S
C1645 H1660 0.961 . S
C1645 H1661 0.960 . S
H1646 C1630 0.931 . S
H1647 C1635 0.929 . S
H1648 C1636 0.960 . S
H1649 C1636 0.962 . S
H1650 C1636 0.960 . S
H1651 C1637 0.961 . S
H1652 C1637 0.961 . S
H1653 C1637 0.961 . S
H1654 C1638 0.931 . S
H1655 C1643 0.930 . S
H1656 C1644 0.956 . S
H1657 C1644 0.961 . S
H1658 C1644 0.961 . S
H1659 C1645 0.958 . S
H1660 C1645 0.961 . S
H1661 C1645 0.960 . S
C1662 C1663 1.391 . S
C1662 C1664 1.394 1_545 S
C1662 H1678 0.931 . S
C1663 C1662 1.391 . S
C1663 C1667 1.376 . S
C1664 C1662 1.394 1_565 S
C1664 C1665 1.369 . S
C1664 C1668 1.531 . S
C1665 C1664 1.369 . S
C1665 C1666 1.410 . S
C1665 C1673 1.503 . S
C1666 C1665 1.410 . S
C1666 C1667 1.392 1_565 S
C1666 C1669 1.511 . S
C1667 C1663 1.376 . S
C1667 C1666 1.392 1_545 S
C1667 H1679 0.929 . S
C1668 C1664 1.531 . S
C1668 H1680 0.960 . S
C1668 H1681 0.962 . S
C1668 H1682 0.960 . S
C1669 C1666 1.511 . S
C1669 H1683 0.961 . S
C1669 H1684 0.961 . S
C1669 H1685 0.961 . S
C1670 C1671 1.370 . S
C1670 C1672 1.363 . S
C1670 H1686 0.931 . S
C1671 C1670 1.370 . S
C1671 C1675 1.408 . S
C1672 C1670 1.363 . S
C1672 C1673 1.370 . S
C1672 C1676 1.524 . S
C1673 C1665 1.503 . S
C1673 C1672 1.370 . S
C1673 C1674 1.403 . S
C1674 C1673 1.403 . S
C1674 C1675 1.404 . S
C1674 C1677 1.539 . S
C1675 C1671 1.408 . S
C1675 C1674 1.404 . S
C1675 H1687 0.930 . S
C1676 C1672 1.524 . S
C1676 H1688 0.956 . S
C1676 H1689 0.961 . S
C1676 H1690 0.961 . S
C1677 C1674 1.539 . S
C1677 H1691 0.958 . S
C1677 H1692 0.961 . S
C1677 H1693 0.960 . S
H1678 C1662 0.931 . S
H1679 C1667 0.929 . S
H1680 C1668 0.960 . S
H1681 C1668 0.962 . S
H1682 C1668 0.960 . S
H1683 C1669 0.961 . S
H1684 C1669 0.961 . S
H1685 C1669 0.961 . S
H1686 C1670 0.931 . S
H1687 C1675 0.930 . S
H1688 C1676 0.956 . S
H1689 C1676 0.961 . S
H1690 C1676 0.961 . S
H1691 C1677 0.958 . S
H1692 C1677 0.961 . S
H1693 C1677 0.960 . S
C1694 C1695 1.391 1_455 S
C1694 C1696 1.394 . S
C1694 H1710 0.931 1_455 S
C1695 C1694 1.391 1_655 S
C1695 C1699 1.376 1_655 S
C1696 C1694 1.394 . S
C1696 C1697 1.369 . S
C1696 C1700 1.531 . S
C1697 C1696 1.369 . S
C1697 C1698 1.410 . S
C1697 C1705 1.503 . S
C1698 C1697 1.410 . S
C1698 C1699 1.392 . S
C1698 C1701 1.511 . S
C1699 C1695 1.376 1_455 S
C1699 C1698 1.392 . S
C1699 H1711 0.929 . S
C1700 C1696 1.531 . S
C1700 H1712 0.960 . S
C1700 H1713 0.962 . S
C1700 H1714 0.960 . S
C1701 C1698 1.511 . S
C1701 H1715 0.961 . S
C1701 H1716 0.961 . S
C1701 H1717 0.961 . S
C1702 C1703 1.370 . S
C1702 C1704 1.363 . S
C1702 H1718 0.931 . S
C1703 C1702 1.370 . S
C1703 C1707 1.408 . S
C1704 C1702 1.363 . S
C1704 C1705 1.370 . S
C1704 C1708 1.524 . S
C1705 C1697 1.503 . S
C1705 C1704 1.370 . S
C1705 C1706 1.403 . S
C1706 C1705 1.403 . S
C1706 C1707 1.404 . S
C1706 C1709 1.539 . S
C1707 C1703 1.408 . S
C1707 C1706 1.404 . S
C1707 H1719 0.930 . S
C1708 C1704 1.524 . S
C1708 H1720 0.956 . S
C1708 H1721 0.961 . S
C1708 H1722 0.961 . S
C1709 C1706 1.539 . S
C1709 H1723 0.958 . S
C1709 H1724 0.961 . S
C1709 H1725 0.960 . S
H1710 C1694 0.931 1_655 S
H1711 C1699 0.929 . S
H1712 C1700 0.960 . S
H1713 C1700 0.962 . S
H1714 C1700 0.960 . S
H1715 C1701 0.961 . S
H1716 C1701 0.961 . S
H1717 C1701 0.961 . S
H1718 C1702 0.931 . S
H1719 C1707 0.930 . S
H1720 C1708 0.956 . S
H1721 C1708 0.961 . S
H1722 C1708 0.961 . S
H1723 C1709 0.958 . S
H1724 C1709 0.961 . S
H1725 C1709 0.960 . S
C1726 C1727 1.391 . S
C1726 C1728 1.394 . S
C1726 H1742 0.931 . S
C1727 C1726 1.391 . S
C1727 C1731 1.376 . S
C1728 C1726 1.394 . S
C1728 C1729 1.369 . S
C1728 C1732 1.531 . S
C1729 C1728 1.369 . S
C1729 C1730 1.410 . S
C1729 C1737 1.503 . S
C1730 C1729 1.410 . S
C1730 C1731 1.392 . S
C1730 C1733 1.511 . S
C1731 C1727 1.376 . S
C1731 C1730 1.392 . S
C1731 H1743 0.929 . S
C1732 C1728 1.531 . S
C1732 H1744 0.960 . S
C1732 H1745 0.962 . S
C1732 H1746 0.960 . S
C1733 C1730 1.511 . S
C1733 H1747 0.961 . S
C1733 H1748 0.961 . S
C1733 H1749 0.961 . S
C1734 C1735 1.370 . S
C1734 C1736 1.363 . S
C1734 H1750 0.931 . S
C1735 C1734 1.370 . S
C1735 C1739 1.408 . S
C1736 C1734 1.363 . S
C1736 C1737 1.370 . S
C1736 C1740 1.524 . S
C1737 C1729 1.503 . S
C1737 C1736 1.370 . S
C1737 C1738 1.403 . S
C1738 C1737 1.403 . S
C1738 C1739 1.404 . S
C1738 C1741 1.539 . S
C1739 C1735 1.408 . S
C1739 C1738 1.404 . S
C1739 H1751 0.930 . S
C1740 C1736 1.524 . S
C1740 H1752 0.956 . S
C1740 H1753 0.961 . S
C1740 H1754 0.961 . S
C1741 C1738 1.539 . S
C1741 H1755 0.958 . S
C1741 H1756 0.961 . S
C1741 H1757 0.960 . S
H1742 C1726 0.931 . S
H1743 C1731 0.929 . S
H1744 C1732 0.960 . S
H1745 C1732 0.962 . S
H1746 C1732 0.960 . S
H1747 C1733 0.961 . S
H1748 C1733 0.961 . S
H1749 C1733 0.961 . S
H1750 C1734 0.931 . S
H1751 C1739 0.930 . S
H1752 C1740 0.956 . S
H1753 C1740 0.961 . S
H1754 C1740 0.961 . S
H1755 C1741 0.958 . S
H1756 C1741 0.961 . S
H1757 C1741 0.960 . S
C1758 C1759 1.391 . S
C1758 C1760 1.394 . S
C1758 H1774 0.931 . S
C1759 C1758 1.391 . S
C1759 C1763 1.376 . S
C1760 C1758 1.394 . S
C1760 C1761 1.369 . S
C1760 C1764 1.531 . S
C1761 C1760 1.369 . S
C1761 C1762 1.410 . S
C1761 C1769 1.503 . S
C1762 C1761 1.410 . S
C1762 C1763 1.392 . S
C1762 C1765 1.511 . S
C1763 C1759 1.376 . S
C1763 C1762 1.392 . S
C1763 H1775 0.929 . S
C1764 C1760 1.531 . S
C1764 H1776 0.960 . S
C1764 H1777 0.962 . S
C1764 H1778 0.960 . S
C1765 C1762 1.511 . S
C1765 H1779 0.961 . S
C1765 H1780 0.961 . S
C1765 H1781 0.961 . S
C1766 C1767 1.370 . S
C1766 C1768 1.363 . S
C1766 H1782 0.931 . S
C1767 C1766 1.370 . S
C1767 C1771 1.408 . S
C1768 C1766 1.363 . S
C1768 C1769 1.370 . S
C1768 C1772 1.524 . S
C1769 C1761 1.503 . S
C1769 C1768 1.370 . S
C1769 C1770 1.403 . S
C1770 C1769 1.403 . S
C1770 C1771 1.404 . S
C1770 C1773 1.539 . S
C1771 C1767 1.408 . S
C1771 C1770 1.404 . S
C1771 H1783 0.930 . S
C1772 C1768 1.524 . S
C1772 H1784 0.956 . S
C1772 H1785 0.961 . S
C1772 H1786 0.961 . S
C1773 C1770 1.539 . S
C1773 H1787 0.958 . S
C1773 H1788 0.961 . S
C1773 H1789 0.960 . S
H1774 C1758 0.931 . S
H1775 C1763 0.929 . S
H1776 C1764 0.960 . S
H1777 C1764 0.962 . S
H1778 C1764 0.960 . S
H1779 C1765 0.961 . S
H1780 C1765 0.961 . S
H1781 C1765 0.961 . S
H1782 C1766 0.931 . S
H1783 C1771 0.930 . S
H1784 C1772 0.956 . S
H1785 C1772 0.961 . S
H1786 C1772 0.961 . S
H1787 C1773 0.958 . S
H1788 C1773 0.961 . S
H1789 C1773 0.960 . S
C1790 C1791 1.391 . S
C1790 C1792 1.394 . S
C1790 H1806 0.931 . S
C1791 C1790 1.391 . S
C1791 C1795 1.376 . S
C1792 C1790 1.394 . S
C1792 C1793 1.369 . S
C1792 C1796 1.531 . S
C1793 C1792 1.369 . S
C1793 C1794 1.410 . S
C1793 C1801 1.503 . S
C1794 C1793 1.410 . S
C1794 C1795 1.392 . S
C1794 C1797 1.511 . S
C1795 C1791 1.376 . S
C1795 C1794 1.392 . S
C1795 H1807 0.929 . S
C1796 C1792 1.531 . S
C1796 H1808 0.960 . S
C1796 H1809 0.962 . S
C1796 H1810 0.960 . S
C1797 C1794 1.511 . S
C1797 H1811 0.961 . S
C1797 H1812 0.961 . S
C1797 H1813 0.961 . S
C1798 C1799 1.370 . S
C1798 C1800 1.363 . S
C1798 H1814 0.931 . S
C1799 C1798 1.370 . S
C1799 C1803 1.408 . S
C1800 C1798 1.363 . S
C1800 C1801 1.370 . S
C1800 C1804 1.524 . S
C1801 C1793 1.503 . S
C1801 C1800 1.370 . S
C1801 C1802 1.403 . S
C1802 C1801 1.403 . S
C1802 C1803 1.404 . S
C1802 C1805 1.539 . S
C1803 C1799 1.408 . S
C1803 C1802 1.404 . S
C1803 H1815 0.930 . S
C1804 C1800 1.524 . S
C1804 H1816 0.956 . S
C1804 H1817 0.961 . S
C1804 H1818 0.961 . S
C1805 C1802 1.539 . S
C1805 H1819 0.958 . S
C1805 H1820 0.961 . S
C1805 H1821 0.960 . S
H1806 C1790 0.931 . S
H1807 C1795 0.929 . S
H1808 C1796 0.960 . S
H1809 C1796 0.962 . S
H1810 C1796 0.960 . S
H1811 C1797 0.961 . S
H1812 C1797 0.961 . S
H1813 C1797 0.961 . S
H1814 C1798 0.931 . S
H1815 C1803 0.930 . S
H1816 C1804 0.956 . S
H1817 C1804 0.961 . S
H1818 C1804 0.961 . S
H1819 C1805 0.958 . S
H1820 C1805 0.961 . S
H1821 C1805 0.960 . S
C1822 C1823 1.391 . S
C1822 C1824 1.394 . S
C1822 H1838 0.931 . S
C1823 C1822 1.391 . S
C1823 C1827 1.376 . S
C1824 C1822 1.394 . S
C1824 C1825 1.369 . S
C1824 C1828 1.531 . S
C1825 C1824 1.369 . S
C1825 C1826 1.410 . S
C1825 C1833 1.503 . S
C1826 C1825 1.410 . S
C1826 C1827 1.392 . S
C1826 C1829 1.511 . S
C1827 C1823 1.376 . S
C1827 C1826 1.392 . S
C1827 H1839 0.929 . S
C1828 C1824 1.531 . S
C1828 H1840 0.960 . S
C1828 H1841 0.962 . S
C1828 H1842 0.960 . S
C1829 C1826 1.511 . S
C1829 H1843 0.961 . S
C1829 H1844 0.961 . S
C1829 H1845 0.961 . S
C1830 C1831 1.370 . S
C1830 C1832 1.363 . S
C1830 H1846 0.931 . S
C1831 C1830 1.370 . S
C1831 C1835 1.408 . S
C1832 C1830 1.363 . S
C1832 C1833 1.370 . S
C1832 C1836 1.524 . S
C1833 C1825 1.503 . S
C1833 C1832 1.370 . S
C1833 C1834 1.403 . S
C1834 C1833 1.403 . S
C1834 C1835 1.404 . S
C1834 C1837 1.539 . S
C1835 C1831 1.408 . S
C1835 C1834 1.404 . S
C1835 H1847 0.930 . S
C1836 C1832 1.524 . S
C1836 H1848 0.956 . S
C1836 H1849 0.961 . S
C1836 H1850 0.961 . S
C1837 C1834 1.539 . S
C1837 H1851 0.958 . S
C1837 H1852 0.961 . S
C1837 H1853 0.960 . S
H1838 C1822 0.931 . S
H1839 C1827 0.929 . S
H1840 C1828 0.960 . S
H1841 C1828 0.962 . S
H1842 C1828 0.960 . S
H1843 C1829 0.961 . S
H1844 C1829 0.961 . S
H1845 C1829 0.961 . S
H1846 C1830 0.931 . S
H1847 C1835 0.930 . S
H1848 C1836 0.956 . S
H1849 C1836 0.961 . S
H1850 C1836 0.961 . S
H1851 C1837 0.958 . S
H1852 C1837 0.961 . S
H1853 C1837 0.960 . S
C1854 C1855 1.391 . S
C1854 C1856 1.394 . S
C1854 H1870 0.931 . S
C1855 C1854 1.391 . S
C1855 C1859 1.376 . S
C1856 C1854 1.394 . S
C1856 C1857 1.369 . S
C1856 C1860 1.531 . S
C1857 C1856 1.369 . S
C1857 C1858 1.410 . S
C1857 C1865 1.503 1_565 S
C1858 C1857 1.410 . S
C1858 C1859 1.392 . S
C1858 C1861 1.511 1_565 S
C1859 C1855 1.376 . S
C1859 C1858 1.392 . S
C1859 H1871 0.929 . S
C1860 C1856 1.531 . S
C1860 H1872 0.960 . S
C1860 H1873 0.962 . S
C1860 H1874 0.960 . S
C1861 C1858 1.511 1_545 S
C1861 H1875 0.961 . S
C1861 H1876 0.961 . S
C1861 H1877 0.961 . S
C1862 C1863 1.370 . S
C1862 C1864 1.363 . S
C1862 H1878 0.931 . S
C1863 C1862 1.370 . S
C1863 C1867 1.408 . S
C1864 C1862 1.363 . S
C1864 C1865 1.370 . S
C1864 C1868 1.524 1_545 S
C1865 C1857 1.503 1_545 S
C1865 C1864 1.370 . S
C1865 C1866 1.403 . S
C1866 C1865 1.403 . S
C1866 C1867 1.404 . S
C1866 C1869 1.539 . S
C1867 C1863 1.408 . S
C1867 C1866 1.404 . S
C1867 H1879 0.930 . S
C1868 C1864 1.524 1_565 S
C1868 H1880 0.956 . S
C1868 H1881 0.961 . S
C1868 H1882 0.961 . S
C1869 C1866 1.539 . S
C1869 H1883 0.958 . S
C1869 H1884 0.961 . S
C1869 H1885 0.960 . S
H1870 C1854 0.931 . S
H1871 C1859 0.929 . S
H1872 C1860 0.960 . S
H1873 C1860 0.962 . S
H1874 C1860 0.960 . S
H1875 C1861 0.961 . S
H1876 C1861 0.961 . S
H1877 C1861 0.961 . S
H1878 C1862 0.931 . S
H1879 C1867 0.930 . S
H1880 C1868 0.956 . S
H1881 C1868 0.961 . S
H1882 C1868 0.961 . S
H1883 C1869 0.958 . S
H1884 C1869 0.961 . S
H1885 C1869 0.960 . S
C1886 C1887 1.391 . S
C1886 C1888 1.394 . S
C1886 H1902 0.931 . S
C1887 C1886 1.391 . S
C1887 C1891 1.376 . S
C1888 C1886 1.394 . S
C1888 C1889 1.369 . S
C1888 C1892 1.531 1_455 S
C1889 C1888 1.369 . S
C1889 C1890 1.410 . S
C1889 C1897 1.503 1_455 S
C1890 C1889 1.410 . S
C1890 C1891 1.392 . S
C1890 C1893 1.511 . S
C1891 C1887 1.376 . S
C1891 C1890 1.392 . S
C1891 H1903 0.929 . S
C1892 C1888 1.531 1_655 S
C1892 H1904 0.960 . S
C1892 H1905 0.962 . S
C1892 H1906 0.960 . S
C1893 C1890 1.511 . S
C1893 H1907 0.961 . S
C1893 H1908 0.961 . S
C1893 H1909 0.961 . S
C1894 C1895 1.370 . S
C1894 C1896 1.363 . S
C1894 H1910 0.931 . S
C1895 C1894 1.370 . S
C1895 C1899 1.408 . S
C1896 C1894 1.363 . S
C1896 C1897 1.370 . S
C1896 C1900 1.524 1_655 S
C1897 C1889 1.503 1_655 S
C1897 C1896 1.370 . S
C1897 C1898 1.403 . S
C1898 C1897 1.403 . S
C1898 C1899 1.404 . S
C1898 C1901 1.539 . S
C1899 C1895 1.408 . S
C1899 C1898 1.404 . S
C1899 H1911 0.930 . S
C1900 C1896 1.524 1_455 S
C1900 H1912 0.956 . S
C1900 H1913 0.961 . S
C1900 H1914 0.961 . S
C1901 C1898 1.539 . S
C1901 H1915 0.958 . S
C1901 H1916 0.961 . S
C1901 H1917 0.960 . S
H1902 C1886 0.931 . S
H1903 C1891 0.929 . S
H1904 C1892 0.960 . S
H1905 C1892 0.962 . S
H1906 C1892 0.960 . S
H1907 C1893 0.961 . S
H1908 C1893 0.961 . S
H1909 C1893 0.961 . S
H1910 C1894 0.931 . S
H1911 C1899 0.930 . S
H1912 C1900 0.956 . S
H1913 C1900 0.961 . S
H1914 C1900 0.961 . S
H1915 C1901 0.958 . S
H1916 C1901 0.961 . S
H1917 C1901 0.960 . S
C1918 C1919 1.391 . S
C1918 C1920 1.394 . S
C1918 H1934 0.931 . S
C1919 C1918 1.391 . S
C1919 C1923 1.376 . S
C1920 C1918 1.394 . S
C1920 C1921 1.369 . S
C1920 C1924 1.531 . S
C1921 C1920 1.369 . S
C1921 C1922 1.410 . S
C1921 C1929 1.503 . S
C1922 C1921 1.410 . S
C1922 C1923 1.392 . S
C1922 C1925 1.511 . S
C1923 C1919 1.376 . S
C1923 C1922 1.392 . S
C1923 H1935 0.929 . S
C1924 C1920 1.531 . S
C1924 H1936 0.960 . S
C1924 H1937 0.962 . S
C1924 H1938 0.960 . S
C1925 C1922 1.511 . S
C1925 H1939 0.961 . S
C1925 H1940 0.961 . S
C1925 H1941 0.961 . S
C1926 C1927 1.370 . S
C1926 C1928 1.363 . S
C1926 H1942 0.931 . S
C1927 C1926 1.370 . S
C1927 C1931 1.408 . S
C1928 C1926 1.363 . S
C1928 C1929 1.370 . S
C1928 C1932 1.524 . S
C1929 C1921 1.503 . S
C1929 C1928 1.370 . S
C1929 C1930 1.403 . S
C1930 C1929 1.403 . S
C1930 C1931 1.404 . S
C1930 C1933 1.539 . S
C1931 C1927 1.408 . S
C1931 C1930 1.404 . S
C1931 H1943 0.930 . S
C1932 C1928 1.524 . S
C1932 H1944 0.956 . S
C1932 H1945 0.961 . S
C1932 H1946 0.961 . S
C1933 C1930 1.539 . S
C1933 H1947 0.958 . S
C1933 H1948 0.961 . S
C1933 H1949 0.960 . S
H1934 C1918 0.931 . S
H1935 C1923 0.929 . S
H1936 C1924 0.960 . S
H1937 C1924 0.962 . S
H1938 C1924 0.960 . S
H1939 C1925 0.961 . S
H1940 C1925 0.961 . S
H1941 C1925 0.961 . S
H1942 C1926 0.931 . S
H1943 C1931 0.930 . S
H1944 C1932 0.956 . S
H1945 C1932 0.961 . S
H1946 C1932 0.961 . S
H1947 C1933 0.958 . S
H1948 C1933 0.961 . S
H1949 C1933 0.960 . S
C1950 C1951 1.391 . S
C1950 C1952 1.394 1_455 S
C1950 H1966 0.931 . S
C1951 C1950 1.391 . S
C1951 C1955 1.376 1_455 S
C1952 C1950 1.394 1_655 S
C1952 C1953 1.369 . S
C1952 C1956 1.531 . S
C1953 C1952 1.369 . S
C1953 C1954 1.410 . S
C1953 C1961 1.503 . S
C1954 C1953 1.410 . S
C1954 C1955 1.392 . S
C1954 C1957 1.511 . S
C1955 C1951 1.376 1_655 S
C1955 C1954 1.392 . S
C1955 H1967 0.929 1_655 S
C1956 C1952 1.531 . S
C1956 H1968 0.960 . S
C1956 H1969 0.962 . S
C1956 H1970 0.960 . S
C1957 C1954 1.511 . S
C1957 H1971 0.961 . S
C1957 H1972 0.961 . S
C1957 H1973 0.961 . S
C1958 C1959 1.370 . S
C1958 C1960 1.363 . S
C1958 H1974 0.931 . S
C1959 C1958 1.370 . S
C1959 C1963 1.408 . S
C1960 C1958 1.363 . S
C1960 C1961 1.370 . S
C1960 C1964 1.524 . S
C1961 C1953 1.503 . S
C1961 C1960 1.370 . S
C1961 C1962 1.403 . S
C1962 C1961 1.403 . S
C1962 C1963 1.404 . S
C1962 C1965 1.539 . S
C1963 C1959 1.408 . S
C1963 C1962 1.404 . S
C1963 H1975 0.930 . S
C1964 C1960 1.524 . S
C1964 H1976 0.956 . S
C1964 H1977 0.961 . S
C1964 H1978 0.961 . S
C1965 C1962 1.539 . S
C1965 H1979 0.958 . S
C1965 H1980 0.961 . S
C1965 H1981 0.960 . S
H1966 C1950 0.931 . S
H1967 C1955 0.929 1_455 S
H1968 C1956 0.960 . S
H1969 C1956 0.962 . S
H1970 C1956 0.960 . S
H1971 C1957 0.961 . S
H1972 C1957 0.961 . S
H1973 C1957 0.961 . S
H1974 C1958 0.931 . S
H1975 C1963 0.930 . S
H1976 C1964 0.956 . S
H1977 C1964 0.961 . S
H1978 C1964 0.961 . S
H1979 C1965 0.958 . S
H1980 C1965 0.961 . S
H1981 C1965 0.960 . S
C1982 C1983 1.391 . S
C1982 C1984 1.394 . S
C1982 H1998 0.931 . S
C1983 C1982 1.391 . S
C1983 C1987 1.376 . S
C1984 C1982 1.394 . S
C1984 C1985 1.369 . S
C1984 C1988 1.531 . S
C1985 C1984 1.369 . S
C1985 C1986 1.410 . S
C1985 C1993 1.503 . S
C1986 C1985 1.410 . S
C1986 C1987 1.392 . S
C1986 C1989 1.511 . S
C1987 C1983 1.376 . S
C1987 C1986 1.392 . S
C1987 H1999 0.929 . S
C1988 C1984 1.531 . S
C1988 H2000 0.960 . S
C1988 H2001 0.962 . S
C1988 H2002 0.960 . S
C1989 C1986 1.511 . S
C1989 H2003 0.961 . S
C1989 H2004 0.961 . S
C1989 H2005 0.961 . S
C1990 C1991 1.370 . S
C1990 C1992 1.363 . S
C1990 H2006 0.931 . S
C1991 C1990 1.370 . S
C1991 C1995 1.408 . S
C1992 C1990 1.363 . S
C1992 C1993 1.370 . S
C1992 C1996 1.524 . S
C1993 C1985 1.503 . S
C1993 C1992 1.370 . S
C1993 C1994 1.403 . S
C1994 C1993 1.403 . S
C1994 C1995 1.404 . S
C1994 C1997 1.539 . S
C1995 C1991 1.408 . S
C1995 C1994 1.404 . S
C1995 H2007 0.930 . S
C1996 C1992 1.524 . S
C1996 H2008 0.956 . S
C1996 H2009 0.961 . S
C1996 H2010 0.961 . S
C1997 C1994 1.539 . S
C1997 H2011 0.958 . S
C1997 H2012 0.961 . S
C1997 H2013 0.960 . S
H1998 C1982 0.931 . S
H1999 C1987 0.929 . S
H2000 C1988 0.960 . S
H2001 C1988 0.962 . S
H2002 C1988 0.960 . S
H2003 C1989 0.961 . S
H2004 C1989 0.961 . S
H2005 C1989 0.961 . S
H2006 C1990 0.931 . S
H2007 C1995 0.930 . S
H2008 C1996 0.956 . S
H2009 C1996 0.961 . S
H2010 C1996 0.961 . S
H2011 C1997 0.958 . S
H2012 C1997 0.961 . S
H2013 C1997 0.960 . S
C2014 C2015 1.391 . S
C2014 C2016 1.394 1_565 S
C2014 H2030 0.931 . S
C2015 C2014 1.391 . S
C2015 C2019 1.376 1_565 S
C2016 C2014 1.394 1_545 S
C2016 C2017 1.369 . S
C2016 C2020 1.531 . S
C2017 C2016 1.369 . S
C2017 C2018 1.410 . S
C2017 C2025 1.503 . S
C2018 C2017 1.410 . S
C2018 C2019 1.392 . S
C2018 C2021 1.511 . S
C2019 C2015 1.376 1_545 S
C2019 C2018 1.392 . S
C2019 H2031 0.929 . S
C2020 C2016 1.531 . S
C2020 H2032 0.960 . S
C2020 H2033 0.962 . S
C2020 H2034 0.960 . S
C2021 C2018 1.511 . S
C2021 H2035 0.961 . S
C2021 H2036 0.961 . S
C2021 H2037 0.961 . S
C2022 C2023 1.370 . S
C2022 C2024 1.363 . S
C2022 H2038 0.931 . S
C2023 C2022 1.370 . S
C2023 C2027 1.408 . S
C2024 C2022 1.363 . S
C2024 C2025 1.370 . S
C2024 C2028 1.524 . S
C2025 C2017 1.503 . S
C2025 C2024 1.370 . S
C2025 C2026 1.403 . S
C2026 C2025 1.403 . S
C2026 C2027 1.404 . S
C2026 C2029 1.539 . S
C2027 C2023 1.408 . S
C2027 C2026 1.404 . S
C2027 H2039 0.930 . S
C2028 C2024 1.524 . S
C2028 H2040 0.956 . S
C2028 H2041 0.961 . S
C2028 H2042 0.961 . S
C2029 C2026 1.539 . S
C2029 H2043 0.958 . S
C2029 H2044 0.961 . S
C2029 H2045 0.960 . S
H2030 C2014 0.931 . S
H2031 C2019 0.929 . S
H2032 C2020 0.960 . S
H2033 C2020 0.962 . S
H2034 C2020 0.960 . S
H2035 C2021 0.961 . S
H2036 C2021 0.961 . S
H2037 C2021 0.961 . S
H2038 C2022 0.931 . S
H2039 C2027 0.930 . S
H2040 C2028 0.956 . S
H2041 C2028 0.961 . S
H2042 C2028 0.961 . S
H2043 C2029 0.958 . S
H2044 C2029 0.961 . S
H2045 C2029 0.960 . S
C2046 C2047 1.391 . S
C2046 C2048 1.394 . S
C2046 H2062 0.931 . S
C2047 C2046 1.391 . S
C2047 C2051 1.376 . S
C2048 C2046 1.394 . S
C2048 C2049 1.369 . S
C2048 C2052 1.531 . S
C2049 C2048 1.369 . S
C2049 C2050 1.410 . S
C2049 C2057 1.503 . S
C2050 C2049 1.410 . S
C2050 C2051 1.392 . S
C2050 C2053 1.511 . S
C2051 C2047 1.376 . S
C2051 C2050 1.392 . S
C2051 H2063 0.929 . S
C2052 C2048 1.531 . S
C2052 H2064 0.960 . S
C2052 H2065 0.962 . S
C2052 H2066 0.960 . S
C2053 C2050 1.511 . S
C2053 H2067 0.961 . S
C2053 H2068 0.961 . S
C2053 H2069 0.961 . S
C2054 C2055 1.370 . S
C2054 C2056 1.363 . S
C2054 H2070 0.931 . S
C2055 C2054 1.370 . S
C2055 C2059 1.408 . S
C2056 C2054 1.363 . S
C2056 C2057 1.370 . S
C2056 C2060 1.524 . S
C2057 C2049 1.503 . S
C2057 C2056 1.370 . S
C2057 C2058 1.403 . S
C2058 C2057 1.403 . S
C2058 C2059 1.404 . S
C2058 C2061 1.539 . S
C2059 C2055 1.408 . S
C2059 C2058 1.404 . S
C2059 H2071 0.930 . S
C2060 C2056 1.524 . S
C2060 H2072 0.956 . S
C2060 H2073 0.961 . S
C2060 H2074 0.961 . S
C2061 C2058 1.539 . S
C2061 H2075 0.958 . S
C2061 H2076 0.961 . S
C2061 H2077 0.960 . S
H2062 C2046 0.931 . S
H2063 C2051 0.929 . S
H2064 C2052 0.960 . S
H2065 C2052 0.962 . S
H2066 C2052 0.960 . S
H2067 C2053 0.961 . S
H2068 C2053 0.961 . S
H2069 C2053 0.961 . S
H2070 C2054 0.931 . S
H2071 C2059 0.930 . S
H2072 C2060 0.956 . S
H2073 C2060 0.961 . S
H2074 C2060 0.961 . S
H2075 C2061 0.958 . S
H2076 C2061 0.961 . S
H2077 C2061 0.960 . S
C2078 C2079 1.391 . S
C2078 C2080 1.394 . S
C2078 H2094 0.931 . S
C2079 C2078 1.391 . S
C2079 C2083 1.376 . S
C2080 C2078 1.394 . S
C2080 C2081 1.369 . S
C2080 C2084 1.531 . S
C2081 C2080 1.369 . S
C2081 C2082 1.410 . S
C2081 C2089 1.503 . S
C2082 C2081 1.410 . S
C2082 C2083 1.392 . S
C2082 C2085 1.511 . S
C2083 C2079 1.376 . S
C2083 C2082 1.392 . S
C2083 H2095 0.929 . S
C2084 C2080 1.531 . S
C2084 H2096 0.960 . S
C2084 H2097 0.962 . S
C2084 H2098 0.960 . S
C2085 C2082 1.511 . S
C2085 H2099 0.961 . S
C2085 H2100 0.961 . S
C2085 H2101 0.961 . S
C2086 C2087 1.370 . S
C2086 C2088 1.363 . S
C2086 H2102 0.931 . S
C2087 C2086 1.370 . S
C2087 C2091 1.408 . S
C2088 C2086 1.363 . S
C2088 C2089 1.370 . S
C2088 C2092 1.524 . S
C2089 C2081 1.503 . S
C2089 C2088 1.370 . S
C2089 C2090 1.403 . S
C2090 C2089 1.403 . S
C2090 C2091 1.404 . S
C2090 C2093 1.539 . S
C2091 C2087 1.408 . S
C2091 C2090 1.404 . S
C2091 H2103 0.930 . S
C2092 C2088 1.524 . S
C2092 H2104 0.956 . S
C2092 H2105 0.961 . S
C2092 H2106 0.961 . S
C2093 C2090 1.539 . S
C2093 H2107 0.958 . S
C2093 H2108 0.961 . S
C2093 H2109 0.960 . S
H2094 C2078 0.931 . S
H2095 C2083 0.929 . S
H2096 C2084 0.960 . S
H2097 C2084 0.962 . S
H2098 C2084 0.960 . S
H2099 C2085 0.961 . S
H2100 C2085 0.961 . S
H2101 C2085 0.961 . S
H2102 C2086 0.931 . S
H2103 C2091 0.930 . S
H2104 C2092 0.956 . S
H2105 C2092 0.961 . S
H2106 C2092 0.961 . S
H2107 C2093 0.958 . S
H2108 C2093 0.961 . S
H2109 C2093 0.960 . S
C2110 C2111 1.391 . S
C2110 C2112 1.394 . S
C2110 H2126 0.931 . S
C2111 C2110 1.391 . S
C2111 C2115 1.376 . S
C2112 C2110 1.394 . S
C2112 C2113 1.369 . S
C2112 C2116 1.531 . S
C2113 C2112 1.369 . S
C2113 C2114 1.410 . S
C2113 C2121 1.503 . S
C2114 C2113 1.410 . S
C2114 C2115 1.392 . S
C2114 C2117 1.511 . S
C2115 C2111 1.376 . S
C2115 C2114 1.392 . S
C2115 H2127 0.929 . S
C2116 C2112 1.531 . S
C2116 H2128 0.960 . S
C2116 H2129 0.962 . S
C2116 H2130 0.960 . S
C2117 C2114 1.511 . S
C2117 H2131 0.961 . S
C2117 H2132 0.961 . S
C2117 H2133 0.961 . S
C2118 C2119 1.370 . S
C2118 C2120 1.363 . S
C2118 H2134 0.931 . S
C2119 C2118 1.370 . S
C2119 C2123 1.408 . S
C2120 C2118 1.363 . S
C2120 C2121 1.370 . S
C2120 C2124 1.524 . S
C2121 C2113 1.503 . S
C2121 C2120 1.370 . S
C2121 C2122 1.403 . S
C2122 C2121 1.403 . S
C2122 C2123 1.404 . S
C2122 C2125 1.539 . S
C2123 C2119 1.408 . S
C2123 C2122 1.404 . S
C2123 H2135 0.930 . S
C2124 C2120 1.524 . S
C2124 H2136 0.956 . S
C2124 H2137 0.961 . S
C2124 H2138 0.961 . S
C2125 C2122 1.539 . S
C2125 H2139 0.958 . S
C2125 H2140 0.961 . S
C2125 H2141 0.960 . S
H2126 C2110 0.931 . S
H2127 C2115 0.929 . S
H2128 C2116 0.960 . S
H2129 C2116 0.962 . S
H2130 C2116 0.960 . S
H2131 C2117 0.961 . S
H2132 C2117 0.961 . S
H2133 C2117 0.961 . S
H2134 C2118 0.931 . S
H2135 C2123 0.930 . S
H2136 C2124 0.956 . S
H2137 C2124 0.961 . S
H2138 C2124 0.961 . S
H2139 C2125 0.958 . S
H2140 C2125 0.961 . S
H2141 C2125 0.960 . S
C2142 C2143 1.391 . S
C2142 C2144 1.394 . S
C2142 H2158 0.931 . S
C2143 C2142 1.391 . S
C2143 C2147 1.376 . S
C2144 C2142 1.394 . S
C2144 C2145 1.369 . S
C2144 C2148 1.531 . S
C2145 C2144 1.369 . S
C2145 C2146 1.410 . S
C2145 C2153 1.503 . S
C2146 C2145 1.410 . S
C2146 C2147 1.392 . S
C2146 C2149 1.511 . S
C2147 C2143 1.376 . S
C2147 C2146 1.392 . S
C2147 H2159 0.929 . S
C2148 C2144 1.531 . S
C2148 H2160 0.960 . S
C2148 H2161 0.962 . S
C2148 H2162 0.960 . S
C2149 C2146 1.511 . S
C2149 H2163 0.961 . S
C2149 H2164 0.961 . S
C2149 H2165 0.961 . S
C2150 C2151 1.370 . S
C2150 C2152 1.363 . S
C2150 H2166 0.931 . S
C2151 C2150 1.370 . S
C2151 C2155 1.408 . S
C2152 C2150 1.363 . S
C2152 C2153 1.370 . S
C2152 C2156 1.524 . S
C2153 C2145 1.503 . S
C2153 C2152 1.370 . S
C2153 C2154 1.403 . S
C2154 C2153 1.403 . S
C2154 C2155 1.404 . S
C2154 C2157 1.539 . S
C2155 C2151 1.408 . S
C2155 C2154 1.404 . S
C2155 H2167 0.930 . S
C2156 C2152 1.524 . S
C2156 H2168 0.956 . S
C2156 H2169 0.961 . S
C2156 H2170 0.961 . S
C2157 C2154 1.539 . S
C2157 H2171 0.958 . S
C2157 H2172 0.961 . S
C2157 H2173 0.960 . S
H2158 C2142 0.931 . S
H2159 C2147 0.929 . S
H2160 C2148 0.960 . S
H2161 C2148 0.962 . S
H2162 C2148 0.960 . S
H2163 C2149 0.961 . S
H2164 C2149 0.961 . S
H2165 C2149 0.961 . S
H2166 C2150 0.931 . S
H2167 C2155 0.930 . S
H2168 C2156 0.956 . S
H2169 C2156 0.961 . S
H2170 C2156 0.961 . S
H2171 C2157 0.958 . S
H2172 C2157 0.961 . S
H2173 C2157 0.960 . S
C2174 C2175 1.391 . S
C2174 C2176 1.394 . S
C2174 H2190 0.931 . S
C2175 C2174 1.391 . S
C2175 C2179 1.376 . S
C2176 C2174 1.394 . S
C2176 C2177 1.369 . S
C2176 C2180 1.531 . S
C2177 C2176 1.369 . S
C2177 C2178 1.410 . S
C2177 C2185 1.503 . S
C2178 C2177 1.410 . S
C2178 C2179 1.392 . S
C2178 C2181 1.511 . S
C2179 C2175 1.376 . S
C2179 C2178 1.392 . S
C2179 H2191 0.929 . S
C2180 C2176 1.531 . S
C2180 H2192 0.960 . S
C2180 H2193 0.962 . S
C2180 H2194 0.960 . S
C2181 C2178 1.511 . S
C2181 H2195 0.961 . S
C2181 H2196 0.961 . S
C2181 H2197 0.961 . S
C2182 C2183 1.370 . S
C2182 C2184 1.363 . S
C2182 H2198 0.931 . S
C2183 C2182 1.370 . S
C2183 C2187 1.408 . S
C2184 C2182 1.363 . S
C2184 C2185 1.370 . S
C2184 C2188 1.524 . S
C2185 C2177 1.503 . S
C2185 C2184 1.370 . S
C2185 C2186 1.403 . S
C2186 C2185 1.403 . S
C2186 C2187 1.404 . S
C2186 C2189 1.539 . S
C2187 C2183 1.408 . S
C2187 C2186 1.404 . S
C2187 H2199 0.930 . S
C2188 C2184 1.524 . S
C2188 H2200 0.956 . S
C2188 H2201 0.961 . S
C2188 H2202 0.961 . S
C2189 C2186 1.539 . S
C2189 H2203 0.958 . S
C2189 H2204 0.961 . S
C2189 H2205 0.960 . S
H2190 C2174 0.931 . S
H2191 C2179 0.929 . S
H2192 C2180 0.960 . S
H2193 C2180 0.962 . S
H2194 C2180 0.960 . S
H2195 C2181 0.961 . S
H2196 C2181 0.961 . S
H2197 C2181 0.961 . S
H2198 C2182 0.931 . S
H2199 C2187 0.930 . S
H2200 C2188 0.956 . S
H2201 C2188 0.961 . S
H2202 C2188 0.961 . S
H2203 C2189 0.958 . S
H2204 C2189 0.961 . S
H2205 C2189 0.960 . S
C2206 C2207 1.391 . S
C2206 C2208 1.394 . S
C2206 H2222 0.931 . S
C2207 C2206 1.391 . S
C2207 C2211 1.376 . S
C2208 C2206 1.394 . S
C2208 C2209 1.369 . S
C2208 C2212 1.531 . S
C2209 C2208 1.369 . S
C2209 C2210 1.410 . S
C2209 C2217 1.503 . S
C2210 C2209 1.410 . S
C2210 C2211 1.392 . S
C2210 C2213 1.511 . S
C2211 C2207 1.376 . S
C2211 C2210 1.392 . S
C2211 H2223 0.929 . S
C2212 C2208 1.531 . S
C2212 H2224 0.960 . S
C2212 H2225 0.962 . S
C2212 H2226 0.960 . S
C2213 C2210 1.511 . S
C2213 H2227 0.961 . S
C2213 H2228 0.961 . S
C2213 H2229 0.961 . S
C2214 C2215 1.370 . S
C2214 C2216 1.363 . S
C2214 H2230 0.931 . S
C2215 C2214 1.370 . S
C2215 C2219 1.408 . S
C2216 C2214 1.363 . S
C2216 C2217 1.370 . S
C2216 C2220 1.524 . S
C2217 C2209 1.503 . S
C2217 C2216 1.370 . S
C2217 C2218 1.403 . S
C2218 C2217 1.403 . S
C2218 C2219 1.404 . S
C2218 C2221 1.539 . S
C2219 C2215 1.408 . S
C2219 C2218 1.404 . S
C2219 H2231 0.930 . S
C2220 C2216 1.524 . S
C2220 H2232 0.956 . S
C2220 H2233 0.961 . S
C2220 H2234 0.961 . S
C2221 C2218 1.539 . S
C2221 H2235 0.958 . S
C2221 H2236 0.961 . S
C2221 H2237 0.960 . S
H2222 C2206 0.931 . S
H2223 C2211 0.929 . S
H2224 C2212 0.960 . S
H2225 C2212 0.962 . S
H2226 C2212 0.960 . S
H2227 C2213 0.961 . S
H2228 C2213 0.961 . S
H2229 C2213 0.961 . S
H2230 C2214 0.931 . S
H2231 C2219 0.930 . S
H2232 C2220 0.956 . S
H2233 C2220 0.961 . S
H2234 C2220 0.961 . S
H2235 C2221 0.958 . S
H2236 C2221 0.961 . S
H2237 C2221 0.960 . S
C2238 C2239 1.391 . S
C2238 C2240 1.394 . S
C2238 H2254 0.931 . S
C2239 C2238 1.391 . S
C2239 C2243 1.376 . S
C2240 C2238 1.394 . S
C2240 C2241 1.369 . S
C2240 C2244 1.531 . S
C2241 C2240 1.369 . S
C2241 C2242 1.410 . S
C2241 C2249 1.503 . S
C2242 C2241 1.410 . S
C2242 C2243 1.392 . S
C2242 C2245 1.511 . S
C2243 C2239 1.376 . S
C2243 C2242 1.392 . S
C2243 H2255 0.929 . S
C2244 C2240 1.531 . S
C2244 H2256 0.960 . S
C2244 H2257 0.962 . S
C2244 H2258 0.960 . S
C2245 C2242 1.511 . S
C2245 H2259 0.961 . S
C2245 H2260 0.961 . S
C2245 H2261 0.961 . S
C2246 C2247 1.370 . S
C2246 C2248 1.363 . S
C2246 H2262 0.931 . S
C2247 C2246 1.370 . S
C2247 C2251 1.408 . S
C2248 C2246 1.363 . S
C2248 C2249 1.370 . S
C2248 C2252 1.524 . S
C2249 C2241 1.503 . S
C2249 C2248 1.370 . S
C2249 C2250 1.403 . S
C2250 C2249 1.403 . S
C2250 C2251 1.404 . S
C2250 C2253 1.539 . S
C2251 C2247 1.408 . S
C2251 C2250 1.404 . S
C2251 H2263 0.930 . S
C2252 C2248 1.524 . S
C2252 H2264 0.956 . S
C2252 H2265 0.961 . S
C2252 H2266 0.961 . S
C2253 C2250 1.539 . S
C2253 H2267 0.958 . S
C2253 H2268 0.961 . S
C2253 H2269 0.960 . S
H2254 C2238 0.931 . S
H2255 C2243 0.929 . S
H2256 C2244 0.960 . S
H2257 C2244 0.962 . S
H2258 C2244 0.960 . S
H2259 C2245 0.961 . S
H2260 C2245 0.961 . S
H2261 C2245 0.961 . S
H2262 C2246 0.931 . S
H2263 C2251 0.930 . S
H2264 C2252 0.956 . S
H2265 C2252 0.961 . S
H2266 C2252 0.961 . S
H2267 C2253 0.958 . S
H2268 C2253 0.961 . S
H2269 C2253 0.960 . S
C2270 C2271 1.391 . S
C2270 C2272 1.394 . S
C2270 H2286 0.931 . S
C2271 C2270 1.391 . S
C2271 C2275 1.376 . S
C2272 C2270 1.394 . S
C2272 C2273 1.369 . S
C2272 C2276 1.531 . S
C2273 C2272 1.369 . S
C2273 C2274 1.410 . S
C2273 C2281 1.503 . S
C2274 C2273 1.410 . S
C2274 C2275 1.392 . S
C2274 C2277 1.511 . S
C2275 C2271 1.376 . S
C2275 C2274 1.392 . S
C2275 H2287 0.929 . S
C2276 C2272 1.531 . S
C2276 H2288 0.960 . S
C2276 H2289 0.962 . S
C2276 H2290 0.960 . S
C2277 C2274 1.511 . S
C2277 H2291 0.961 . S
C2277 H2292 0.961 . S
C2277 H2293 0.961 . S
C2278 C2279 1.370 . S
C2278 C2280 1.363 . S
C2278 H2294 0.931 . S
C2279 C2278 1.370 . S
C2279 C2283 1.408 . S
C2280 C2278 1.363 . S
C2280 C2281 1.370 . S
C2280 C2284 1.524 . S
C2281 C2273 1.503 . S
C2281 C2280 1.370 . S
C2281 C2282 1.403 . S
C2282 C2281 1.403 . S
C2282 C2283 1.404 . S
C2282 C2285 1.539 . S
C2283 C2279 1.408 . S
C2283 C2282 1.404 . S
C2283 H2295 0.930 . S
C2284 C2280 1.524 . S
C2284 H2296 0.956 . S
C2284 H2297 0.961 . S
C2284 H2298 0.961 . S
C2285 C2282 1.539 . S
C2285 H2299 0.958 . S
C2285 H2300 0.961 . S
C2285 H2301 0.960 . S
H2286 C2270 0.931 . S
H2287 C2275 0.929 . S
H2288 C2276 0.960 . S
H2289 C2276 0.962 . S
H2290 C2276 0.960 . S
H2291 C2277 0.961 . S
H2292 C2277 0.961 . S
H2293 C2277 0.961 . S
H2294 C2278 0.931 . S
H2295 C2283 0.930 . S
H2296 C2284 0.956 . S
H2297 C2284 0.961 . S
H2298 C2284 0.961 . S
H2299 C2285 0.958 . S
H2300 C2285 0.961 . S
H2301 C2285 0.960 . S
C2302 C2303 1.391 . S
C2302 C2304 1.394 . S
C2302 H2318 0.931 . S
C2303 C2302 1.391 . S
C2303 C2307 1.376 . S
C2304 C2302 1.394 . S
C2304 C2305 1.369 . S
C2304 C2308 1.531 . S
C2305 C2304 1.369 . S
C2305 C2306 1.410 . S
C2305 C2313 1.503 . S
C2306 C2305 1.410 . S
C2306 C2307 1.392 . S
C2306 C2309 1.511 . S
C2307 C2303 1.376 . S
C2307 C2306 1.392 . S
C2307 H2319 0.929 . S
C2308 C2304 1.531 . S
C2308 H2320 0.960 . S
C2308 H2321 0.962 . S
C2308 H2322 0.960 . S
C2309 C2306 1.511 . S
C2309 H2323 0.961 . S
C2309 H2324 0.961 . S
C2309 H2325 0.961 . S
C2310 C2311 1.370 . S
C2310 C2312 1.363 . S
C2310 H2326 0.931 . S
C2311 C2310 1.370 . S
C2311 C2315 1.408 . S
C2312 C2310 1.363 . S
C2312 C2313 1.370 . S
C2312 C2316 1.524 . S
C2313 C2305 1.503 . S
C2313 C2312 1.370 . S
C2313 C2314 1.403 . S
C2314 C2313 1.403 . S
C2314 C2315 1.404 . S
C2314 C2317 1.539 . S
C2315 C2311 1.408 . S
C2315 C2314 1.404 . S
C2315 H2327 0.930 . S
C2316 C2312 1.524 . S
C2316 H2328 0.956 . S
C2316 H2329 0.961 . S
C2316 H2330 0.961 . S
C2317 C2314 1.539 . S
C2317 H2331 0.958 . S
C2317 H2332 0.961 . S
C2317 H2333 0.960 . S
H2318 C2302 0.931 . S
H2319 C2307 0.929 . S
H2320 C2308 0.960 . S
H2321 C2308 0.962 . S
H2322 C2308 0.960 . S
H2323 C2309 0.961 . S
H2324 C2309 0.961 . S
H2325 C2309 0.961 . S
H2326 C2310 0.931 . S
H2327 C2315 0.930 . S
H2328 C2316 0.956 . S
H2329 C2316 0.961 . S
H2330 C2316 0.961 . S
H2331 C2317 0.958 . S
H2332 C2317 0.961 . S
H2333 C2317 0.960 . S
C2334 C2335 1.391 . S
C2334 C2336 1.394 . S
C2334 H2350 0.931 . S
C2335 C2334 1.391 . S
C2335 C2339 1.376 . S
C2336 C2334 1.394 . S
C2336 C2337 1.369 . S
C2336 C2340 1.531 . S
C2337 C2336 1.369 . S
C2337 C2338 1.410 . S
C2337 C2345 1.503 . S
C2338 C2337 1.410 . S
C2338 C2339 1.392 . S
C2338 C2341 1.511 . S
C2339 C2335 1.376 . S
C2339 C2338 1.392 . S
C2339 H2351 0.929 . S
C2340 C2336 1.531 . S
C2340 H2352 0.960 . S
C2340 H2353 0.962 . S
C2340 H2354 0.960 . S
C2341 C2338 1.511 . S
C2341 H2355 0.961 . S
C2341 H2356 0.961 . S
C2341 H2357 0.961 . S
C2342 C2343 1.370 . S
C2342 C2344 1.363 . S
C2342 H2358 0.931 . S
C2343 C2342 1.370 . S
C2343 C2347 1.408 . S
C2344 C2342 1.363 . S
C2344 C2345 1.370 . S
C2344 C2348 1.524 . S
C2345 C2337 1.503 . S
C2345 C2344 1.370 . S
C2345 C2346 1.403 . S
C2346 C2345 1.403 . S
C2346 C2347 1.404 . S
C2346 C2349 1.539 . S
C2347 C2343 1.408 . S
C2347 C2346 1.404 . S
C2347 H2359 0.930 . S
C2348 C2344 1.524 . S
C2348 H2360 0.956 . S
C2348 H2361 0.961 . S
C2348 H2362 0.961 . S
C2349 C2346 1.539 . S
C2349 H2363 0.958 . S
C2349 H2364 0.961 . S
C2349 H2365 0.960 . S
H2350 C2334 0.931 . S
H2351 C2339 0.929 . S
H2352 C2340 0.960 . S
H2353 C2340 0.962 . S
H2354 C2340 0.960 . S
H2355 C2341 0.961 . S
H2356 C2341 0.961 . S
H2357 C2341 0.961 . S
H2358 C2342 0.931 . S
H2359 C2347 0.930 . S
H2360 C2348 0.956 . S
H2361 C2348 0.961 . S
H2362 C2348 0.961 . S
H2363 C2349 0.958 . S
H2364 C2349 0.961 . S
H2365 C2349 0.960 . S
C2366 C2367 1.391 . S
C2366 C2368 1.394 . S
C2366 H2382 0.931 . S
C2367 C2366 1.391 . S
C2367 C2371 1.376 . S
C2368 C2366 1.394 . S
C2368 C2369 1.369 . S
C2368 C2372 1.531 . S
C2369 C2368 1.369 . S
C2369 C2370 1.410 . S
C2369 C2377 1.503 . S
C2370 C2369 1.410 . S
C2370 C2371 1.392 . S
C2370 C2373 1.511 . S
C2371 C2367 1.376 . S
C2371 C2370 1.392 . S
C2371 H2383 0.929 . S
C2372 C2368 1.531 . S
C2372 H2384 0.960 . S
C2372 H2385 0.962 . S
C2372 H2386 0.960 . S
C2373 C2370 1.511 . S
C2373 H2387 0.961 . S
C2373 H2388 0.961 . S
C2373 H2389 0.961 . S
C2374 C2375 1.370 . S
C2374 C2376 1.363 . S
C2374 H2390 0.931 . S
C2375 C2374 1.370 . S
C2375 C2379 1.408 . S
C2376 C2374 1.363 . S
C2376 C2377 1.370 . S
C2376 C2380 1.524 . S
C2377 C2369 1.503 . S
C2377 C2376 1.370 . S
C2377 C2378 1.403 . S
C2378 C2377 1.403 . S
C2378 C2379 1.404 . S
C2378 C2381 1.539 . S
C2379 C2375 1.408 . S
C2379 C2378 1.404 . S
C2379 H2391 0.930 . S
C2380 C2376 1.524 . S
C2380 H2392 0.956 . S
C2380 H2393 0.961 . S
C2380 H2394 0.961 . S
C2381 C2378 1.539 . S
C2381 H2395 0.958 . S
C2381 H2396 0.961 . S
C2381 H2397 0.960 . S
H2382 C2366 0.931 . S
H2383 C2371 0.929 . S
H2384 C2372 0.960 . S
H2385 C2372 0.962 . S
H2386 C2372 0.960 . S
H2387 C2373 0.961 . S
H2388 C2373 0.961 . S
H2389 C2373 0.961 . S
H2390 C2374 0.931 . S
H2391 C2379 0.930 . S
H2392 C2380 0.956 . S
H2393 C2380 0.961 . S
H2394 C2380 0.961 . S
H2395 C2381 0.958 . S
H2396 C2381 0.961 . S
H2397 C2381 0.960 . S
C2398 C2399 1.391 . S
C2398 C2400 1.394 . S
C2398 H2414 0.931 . S
C2399 C2398 1.391 . S
C2399 C2403 1.376 . S
C2400 C2398 1.394 . S
C2400 C2401 1.369 . S
C2400 C2404 1.531 . S
C2401 C2400 1.369 . S
C2401 C2402 1.410 . S
C2401 C2409 1.503 . S
C2402 C2401 1.410 . S
C2402 C2403 1.392 . S
C2402 C2405 1.511 . S
C2403 C2399 1.376 . S
C2403 C2402 1.392 . S
C2403 H2415 0.929 . S
C2404 C2400 1.531 . S
C2404 H2416 0.960 . S
C2404 H2417 0.962 . S
C2404 H2418 0.960 . S
C2405 C2402 1.511 . S
C2405 H2419 0.961 . S
C2405 H2420 0.961 . S
C2405 H2421 0.961 . S
C2406 C2407 1.370 . S
C2406 C2408 1.363 . S
C2406 H2422 0.931 . S
C2407 C2406 1.370 . S
C2407 C2411 1.408 . S
C2408 C2406 1.363 . S
C2408 C2409 1.370 . S
C2408 C2412 1.524 . S
C2409 C2401 1.503 . S
C2409 C2408 1.370 . S
C2409 C2410 1.403 . S
C2410 C2409 1.403 . S
C2410 C2411 1.404 . S
C2410 C2413 1.539 . S
C2411 C2407 1.408 . S
C2411 C2410 1.404 . S
C2411 H2423 0.930 . S
C2412 C2408 1.524 . S
C2412 H2424 0.956 . S
C2412 H2425 0.961 . S
C2412 H2426 0.961 . S
C2413 C2410 1.539 . S
C2413 H2427 0.958 . S
C2413 H2428 0.961 . S
C2413 H2429 0.960 . S
H2414 C2398 0.931 . S
H2415 C2403 0.929 . S
H2416 C2404 0.960 . S
H2417 C2404 0.962 . S
H2418 C2404 0.960 . S
H2419 C2405 0.961 . S
H2420 C2405 0.961 . S
H2421 C2405 0.961 . S
H2422 C2406 0.931 . S
H2423 C2411 0.930 . S
H2424 C2412 0.956 . S
H2425 C2412 0.961 . S
H2426 C2412 0.961 . S
H2427 C2413 0.958 . S
H2428 C2413 0.961 . S
H2429 C2413 0.960 . S
C2430 C2431 1.391 . S
C2430 C2432 1.394 . S
C2430 H2446 0.931 . S
C2431 C2430 1.391 . S
C2431 C2435 1.376 . S
C2432 C2430 1.394 . S
C2432 C2433 1.369 . S
C2432 C2436 1.531 . S
C2433 C2432 1.369 . S
C2433 C2434 1.410 . S
C2433 C2441 1.503 . S
C2434 C2433 1.410 . S
C2434 C2435 1.392 . S
C2434 C2437 1.511 . S
C2435 C2431 1.376 . S
C2435 C2434 1.392 . S
C2435 H2447 0.929 . S
C2436 C2432 1.531 . S
C2436 H2448 0.960 . S
C2436 H2449 0.962 . S
C2436 H2450 0.960 . S
C2437 C2434 1.511 . S
C2437 H2451 0.961 . S
C2437 H2452 0.961 . S
C2437 H2453 0.961 . S
C2438 C2439 1.370 . S
C2438 C2440 1.363 . S
C2438 H2454 0.931 . S
C2439 C2438 1.370 . S
C2439 C2443 1.408 . S
C2440 C2438 1.363 . S
C2440 C2441 1.370 . S
C2440 C2444 1.524 . S
C2441 C2433 1.503 . S
C2441 C2440 1.370 . S
C2441 C2442 1.403 . S
C2442 C2441 1.403 . S
C2442 C2443 1.404 . S
C2442 C2445 1.539 . S
C2443 C2439 1.408 . S
C2443 C2442 1.404 . S
C2443 H2455 0.930 . S
C2444 C2440 1.524 . S
C2444 H2456 0.956 . S
C2444 H2457 0.961 . S
C2444 H2458 0.961 . S
C2445 C2442 1.539 . S
C2445 H2459 0.958 . S
C2445 H2460 0.961 . S
C2445 H2461 0.960 . S
H2446 C2430 0.931 . S
H2447 C2435 0.929 . S
H2448 C2436 0.960 . S
H2449 C2436 0.962 . S
H2450 C2436 0.960 . S
H2451 C2437 0.961 . S
H2452 C2437 0.961 . S
H2453 C2437 0.961 . S
H2454 C2438 0.931 . S
H2455 C2443 0.930 . S
H2456 C2444 0.956 . S
H2457 C2444 0.961 . S
H2458 C2444 0.961 . S
H2459 C2445 0.958 . S
H2460 C2445 0.961 . S
H2461 C2445 0.960 . S
C2462 C2463 1.391 . S
C2462 C2464 1.394 . S
C2462 H2478 0.931 . S
C2463 C2462 1.391 . S
C2463 C2467 1.376 . S
C2464 C2462 1.394 . S
C2464 C2465 1.369 . S
C2464 C2468 1.531 . S
C2465 C2464 1.369 . S
C2465 C2466 1.410 . S
C2465 C2473 1.503 . S
C2466 C2465 1.410 . S
C2466 C2467 1.392 . S
C2466 C2469 1.511 . S
C2467 C2463 1.376 . S
C2467 C2466 1.392 . S
C2467 H2479 0.929 . S
C2468 C2464 1.531 . S
C2468 H2480 0.960 . S
C2468 H2481 0.962 . S
C2468 H2482 0.960 . S
C2469 C2466 1.511 . S
C2469 H2483 0.961 . S
C2469 H2484 0.961 . S
C2469 H2485 0.961 . S
C2470 C2471 1.370 . S
C2470 C2472 1.363 . S
C2470 H2486 0.931 . S
C2471 C2470 1.370 . S
C2471 C2475 1.408 . S
C2472 C2470 1.363 . S
C2472 C2473 1.370 . S
C2472 C2476 1.524 . S
C2473 C2465 1.503 . S
C2473 C2472 1.370 . S
C2473 C2474 1.403 . S
C2474 C2473 1.403 . S
C2474 C2475 1.404 . S
C2474 C2477 1.539 . S
C2475 C2471 1.408 . S
C2475 C2474 1.404 . S
C2475 H2487 0.930 . S
C2476 C2472 1.524 . S
C2476 H2488 0.956 . S
C2476 H2489 0.961 . S
C2476 H2490 0.961 . S
C2477 C2474 1.539 . S
C2477 H2491 0.958 . S
C2477 H2492 0.961 . S
C2477 H2493 0.960 . S
H2478 C2462 0.931 . S
H2479 C2467 0.929 . S
H2480 C2468 0.960 . S
H2481 C2468 0.962 . S
H2482 C2468 0.960 . S
H2483 C2469 0.961 . S
H2484 C2469 0.961 . S
H2485 C2469 0.961 . S
H2486 C2470 0.931 . S
H2487 C2475 0.930 . S
H2488 C2476 0.956 . S
H2489 C2476 0.961 . S
H2490 C2476 0.961 . S
H2491 C2477 0.958 . S
H2492 C2477 0.961 . S
H2493 C2477 0.960 . S
C2494 C2495 1.391 . S
C2494 C2496 1.394 . S
C2494 H2510 0.931 . S
C2495 C2494 1.391 . S
C2495 C2499 1.376 . S
C2496 C2494 1.394 . S
C2496 C2497 1.369 . S
C2496 C2500 1.531 . S
C2497 C2496 1.369 . S
C2497 C2498 1.410 . S
C2497 C2505 1.503 . S
C2498 C2497 1.410 . S
C2498 C2499 1.392 . S
C2498 C2501 1.511 . S
C2499 C2495 1.376 . S
C2499 C2498 1.392 . S
C2499 H2511 0.929 . S
C2500 C2496 1.531 . S
C2500 H2512 0.960 . S
C2500 H2513 0.962 . S
C2500 H2514 0.960 . S
C2501 C2498 1.511 . S
C2501 H2515 0.961 . S
C2501 H2516 0.961 . S
C2501 H2517 0.961 . S
C2502 C2503 1.370 . S
C2502 C2504 1.363 . S
C2502 H2518 0.931 . S
C2503 C2502 1.370 . S
C2503 C2507 1.408 . S
C2504 C2502 1.363 . S
C2504 C2505 1.370 . S
C2504 C2508 1.524 . S
C2505 C2497 1.503 . S
C2505 C2504 1.370 . S
C2505 C2506 1.403 . S
C2506 C2505 1.403 . S
C2506 C2507 1.404 . S
C2506 C2509 1.539 . S
C2507 C2503 1.408 . S
C2507 C2506 1.404 . S
C2507 H2519 0.930 . S
C2508 C2504 1.524 . S
C2508 H2520 0.956 . S
C2508 H2521 0.961 . S
C2508 H2522 0.961 . S
C2509 C2506 1.539 . S
C2509 H2523 0.958 . S
C2509 H2524 0.961 . S
C2509 H2525 0.960 . S
H2510 C2494 0.931 . S
H2511 C2499 0.929 . S
H2512 C2500 0.960 . S
H2513 C2500 0.962 . S
H2514 C2500 0.960 . S
H2515 C2501 0.961 . S
H2516 C2501 0.961 . S
H2517 C2501 0.961 . S
H2518 C2502 0.931 . S
H2519 C2507 0.930 . S
H2520 C2508 0.956 . S
H2521 C2508 0.961 . S
H2522 C2508 0.961 . S
H2523 C2509 0.958 . S
H2524 C2509 0.961 . S
H2525 C2509 0.960 . S
C2526 C2527 1.391 . S
C2526 C2528 1.394 . S
C2526 H2542 0.931 . S
C2527 C2526 1.391 . S
C2527 C2531 1.376 . S
C2528 C2526 1.394 . S
C2528 C2529 1.369 . S
C2528 C2532 1.531 . S
C2529 C2528 1.369 . S
C2529 C2530 1.410 . S
C2529 C2537 1.503 . S
C2530 C2529 1.410 . S
C2530 C2531 1.392 . S
C2530 C2533 1.511 . S
C2531 C2527 1.376 . S
C2531 C2530 1.392 . S
C2531 H2543 0.929 . S
C2532 C2528 1.531 . S
C2532 H2544 0.960 . S
C2532 H2545 0.962 . S
C2532 H2546 0.960 . S
C2533 C2530 1.511 . S
C2533 H2547 0.961 . S
C2533 H2548 0.961 . S
C2533 H2549 0.961 . S
C2534 C2535 1.370 . S
C2534 C2536 1.363 . S
C2534 H2550 0.931 . S
C2535 C2534 1.370 . S
C2535 C2539 1.408 . S
C2536 C2534 1.363 . S
C2536 C2537 1.370 . S
C2536 C2540 1.524 . S
C2537 C2529 1.503 . S
C2537 C2536 1.370 . S
C2537 C2538 1.403 . S
C2538 C2537 1.403 . S
C2538 C2539 1.404 . S
C2538 C2541 1.539 . S
C2539 C2535 1.408 . S
C2539 C2538 1.404 . S
C2539 H2551 0.930 . S
C2540 C2536 1.524 . S
C2540 H2552 0.956 . S
C2540 H2553 0.961 . S
C2540 H2554 0.961 . S
C2541 C2538 1.539 . S
C2541 H2555 0.958 . S
C2541 H2556 0.961 . S
C2541 H2557 0.960 . S
H2542 C2526 0.931 . S
H2543 C2531 0.929 . S
H2544 C2532 0.960 . S
H2545 C2532 0.962 . S
H2546 C2532 0.960 . S
H2547 C2533 0.961 . S
H2548 C2533 0.961 . S
H2549 C2533 0.961 . S
H2550 C2534 0.931 . S
H2551 C2539 0.930 . S
H2552 C2540 0.956 . S
H2553 C2540 0.961 . S
H2554 C2540 0.961 . S
H2555 C2541 0.958 . S
H2556 C2541 0.961 . S
H2557 C2541 0.960 . S
C2558 C2559 1.391 . S
C2558 C2560 1.394 . S
C2558 H2574 0.931 . S
C2559 C2558 1.391 . S
C2559 C2563 1.376 . S
C2560 C2558 1.394 . S
C2560 C2561 1.369 . S
C2560 C2564 1.531 . S
C2561 C2560 1.369 . S
C2561 C2562 1.410 . S
C2561 C2569 1.503 . S
C2562 C2561 1.410 . S
C2562 C2563 1.392 . S
C2562 C2565 1.511 . S
C2563 C2559 1.376 . S
C2563 C2562 1.392 . S
C2563 H2575 0.929 . S
C2564 C2560 1.531 . S
C2564 H2576 0.960 . S
C2564 H2577 0.962 . S
C2564 H2578 0.960 . S
C2565 C2562 1.511 . S
C2565 H2579 0.961 . S
C2565 H2580 0.961 . S
C2565 H2581 0.961 . S
C2566 C2567 1.370 . S
C2566 C2568 1.363 . S
C2566 H2582 0.931 . S
C2567 C2566 1.370 . S
C2567 C2571 1.408 . S
C2568 C2566 1.363 . S
C2568 C2569 1.370 . S
C2568 C2572 1.524 . S
C2569 C2561 1.503 . S
C2569 C2568 1.370 . S
C2569 C2570 1.403 . S
C2570 C2569 1.403 . S
C2570 C2571 1.404 . S
C2570 C2573 1.539 . S
C2571 C2567 1.408 . S
C2571 C2570 1.404 . S
C2571 H2583 0.930 . S
C2572 C2568 1.524 . S
C2572 H2584 0.956 . S
C2572 H2585 0.961 . S
C2572 H2586 0.961 . S
C2573 C2570 1.539 . S
C2573 H2587 0.958 . S
C2573 H2588 0.961 . S
C2573 H2589 0.960 . S
H2574 C2558 0.931 . S
H2575 C2563 0.929 . S
H2576 C2564 0.960 . S
H2577 C2564 0.962 . S
H2578 C2564 0.960 . S
H2579 C2565 0.961 . S
H2580 C2565 0.961 . S
H2581 C2565 0.961 . S
H2582 C2566 0.931 . S
H2583 C2571 0.930 . S
H2584 C2572 0.956 . S
H2585 C2572 0.961 . S
H2586 C2572 0.961 . S
H2587 C2573 0.958 . S
H2588 C2573 0.961 . S
H2589 C2573 0.960 . S
C2590 C2591 1.391 . S
C2590 C2592 1.394 . S
C2590 H2606 0.931 . S
C2591 C2590 1.391 . S
C2591 C2595 1.376 . S
C2592 C2590 1.394 . S
C2592 C2593 1.369 . S
C2592 C2596 1.531 . S
C2593 C2592 1.369 . S
C2593 C2594 1.410 . S
C2593 C2601 1.503 . S
C2594 C2593 1.410 . S
C2594 C2595 1.392 . S
C2594 C2597 1.511 . S
C2595 C2591 1.376 . S
C2595 C2594 1.392 . S
C2595 H2607 0.929 . S
C2596 C2592 1.531 . S
C2596 H2608 0.960 . S
C2596 H2609 0.962 . S
C2596 H2610 0.960 . S
C2597 C2594 1.511 . S
C2597 H2611 0.961 . S
C2597 H2612 0.961 . S
C2597 H2613 0.961 . S
C2598 C2599 1.370 . S
C2598 C2600 1.363 . S
C2598 H2614 0.931 . S
C2599 C2598 1.370 . S
C2599 C2603 1.408 . S
C2600 C2598 1.363 . S
C2600 C2601 1.370 . S
C2600 C2604 1.524 . S
C2601 C2593 1.503 . S
C2601 C2600 1.370 . S
C2601 C2602 1.403 . S
C2602 C2601 1.403 . S
C2602 C2603 1.404 . S
C2602 C2605 1.539 . S
C2603 C2599 1.408 . S
C2603 C2602 1.404 . S
C2603 H2615 0.930 . S
C2604 C2600 1.524 . S
C2604 H2616 0.956 . S
C2604 H2617 0.961 . S
C2604 H2618 0.961 . S
C2605 C2602 1.539 . S
C2605 H2619 0.958 . S
C2605 H2620 0.961 . S
C2605 H2621 0.960 . S
H2606 C2590 0.931 . S
H2607 C2595 0.929 . S
H2608 C2596 0.960 . S
H2609 C2596 0.962 . S
H2610 C2596 0.960 . S
H2611 C2597 0.961 . S
H2612 C2597 0.961 . S
H2613 C2597 0.961 . S
H2614 C2598 0.931 . S
H2615 C2603 0.930 . S
H2616 C2604 0.956 . S
H2617 C2604 0.961 . S
H2618 C2604 0.961 . S
H2619 C2605 0.958 . S
H2620 C2605 0.961 . S
H2621 C2605 0.960 . S
C2622 C2623 1.391 . S
C2622 C2624 1.394 . S
C2622 H2638 0.931 . S
C2623 C2622 1.391 . S
C2623 C2627 1.376 . S
C2624 C2622 1.394 . S
C2624 C2625 1.369 . S
C2624 C2628 1.531 . S
C2625 C2624 1.369 . S
C2625 C2626 1.410 . S
C2625 C2633 1.503 . S
C2626 C2625 1.410 . S
C2626 C2627 1.392 . S
C2626 C2629 1.511 . S
C2627 C2623 1.376 . S
C2627 C2626 1.392 . S
C2627 H2639 0.929 . S
C2628 C2624 1.531 . S
C2628 H2640 0.960 . S
C2628 H2641 0.962 . S
C2628 H2642 0.960 . S
C2629 C2626 1.511 . S
C2629 H2643 0.961 . S
C2629 H2644 0.961 . S
C2629 H2645 0.961 . S
C2630 C2631 1.370 . S
C2630 C2632 1.363 . S
C2630 H2646 0.931 . S
C2631 C2630 1.370 . S
C2631 C2635 1.408 . S
C2632 C2630 1.363 . S
C2632 C2633 1.370 . S
C2632 C2636 1.524 . S
C2633 C2625 1.503 . S
C2633 C2632 1.370 . S
C2633 C2634 1.403 . S
C2634 C2633 1.403 . S
C2634 C2635 1.404 . S
C2634 C2637 1.539 . S
C2635 C2631 1.408 . S
C2635 C2634 1.404 . S
C2635 H2647 0.930 . S
C2636 C2632 1.524 . S
C2636 H2648 0.956 . S
C2636 H2649 0.961 . S
C2636 H2650 0.961 . S
C2637 C2634 1.539 . S
C2637 H2651 0.958 . S
C2637 H2652 0.961 . S
C2637 H2653 0.960 . S
H2638 C2622 0.931 . S
H2639 C2627 0.929 . S
H2640 C2628 0.960 . S
H2641 C2628 0.962 . S
H2642 C2628 0.960 . S
H2643 C2629 0.961 . S
H2644 C2629 0.961 . S
H2645 C2629 0.961 . S
H2646 C2630 0.931 . S
H2647 C2635 0.930 . S
H2648 C2636 0.956 . S
H2649 C2636 0.961 . S
H2650 C2636 0.961 . S
H2651 C2637 0.958 . S
H2652 C2637 0.961 . S
H2653 C2637 0.960 . S
C2654 C2655 1.391 . S
C2654 C2656 1.394 . S
C2654 H2670 0.931 . S
C2655 C2654 1.391 . S
C2655 C2659 1.376 . S
C2656 C2654 1.394 . S
C2656 C2657 1.369 . S
C2656 C2660 1.531 . S
C2657 C2656 1.369 . S
C2657 C2658 1.410 . S
C2657 C2665 1.503 . S
C2658 C2657 1.410 . S
C2658 C2659 1.392 . S
C2658 C2661 1.511 . S
C2659 C2655 1.376 . S
C2659 C2658 1.392 . S
C2659 H2671 0.929 . S
C2660 C2656 1.531 . S
C2660 H2672 0.960 . S
C2660 H2673 0.962 . S
C2660 H2674 0.960 . S
C2661 C2658 1.511 . S
C2661 H2675 0.961 . S
C2661 H2676 0.961 . S
C2661 H2677 0.961 . S
C2662 C2663 1.370 . S
C2662 C2664 1.363 . S
C2662 H2678 0.931 . S
C2663 C2662 1.370 . S
C2663 C2667 1.408 . S
C2664 C2662 1.363 . S
C2664 C2665 1.370 . S
C2664 C2668 1.524 . S
C2665 C2657 1.503 . S
C2665 C2664 1.370 . S
C2665 C2666 1.403 . S
C2666 C2665 1.403 . S
C2666 C2667 1.404 . S
C2666 C2669 1.539 . S
C2667 C2663 1.408 . S
C2667 C2666 1.404 . S
C2667 H2679 0.930 . S
C2668 C2664 1.524 . S
C2668 H2680 0.956 . S
C2668 H2681 0.961 . S
C2668 H2682 0.961 . S
C2669 C2666 1.539 . S
C2669 H2683 0.958 . S
C2669 H2684 0.961 . S
C2669 H2685 0.960 . S
H2670 C2654 0.931 . S
H2671 C2659 0.929 . S
H2672 C2660 0.960 . S
H2673 C2660 0.962 . S
H2674 C2660 0.960 . S
H2675 C2661 0.961 . S
H2676 C2661 0.961 . S
H2677 C2661 0.961 . S
H2678 C2662 0.931 . S
H2679 C2667 0.930 . S
H2680 C2668 0.956 . S
H2681 C2668 0.961 . S
H2682 C2668 0.961 . S
H2683 C2669 0.958 . S
H2684 C2669 0.961 . S
H2685 C2669 0.960 . S
C2686 C2687 1.391 . S
C2686 C2688 1.394 . S
C2686 H2702 0.931 . S
C2687 C2686 1.391 . S
C2687 C2691 1.376 . S
C2688 C2686 1.394 . S
C2688 C2689 1.369 . S
C2688 C2692 1.531 . S
C2689 C2688 1.369 . S
C2689 C2690 1.410 . S
C2689 C2697 1.503 . S
C2690 C2689 1.410 . S
C2690 C2691 1.392 . S
C2690 C2693 1.511 . S
C2691 C2687 1.376 . S
C2691 C2690 1.392 . S
C2691 H2703 0.929 . S
C2692 C2688 1.531 . S
C2692 H2704 0.960 . S
C2692 H2705 0.962 . S
C2692 H2706 0.960 . S
C2693 C2690 1.511 . S
C2693 H2707 0.961 . S
C2693 H2708 0.961 . S
C2693 H2709 0.961 . S
C2694 C2695 1.370 . S
C2694 C2696 1.363 . S
C2694 H2710 0.931 . S
C2695 C2694 1.370 . S
C2695 C2699 1.408 . S
C2696 C2694 1.363 . S
C2696 C2697 1.370 . S
C2696 C2700 1.524 . S
C2697 C2689 1.503 . S
C2697 C2696 1.370 . S
C2697 C2698 1.403 . S
C2698 C2697 1.403 . S
C2698 C2699 1.404 . S
C2698 C2701 1.539 . S
C2699 C2695 1.408 . S
C2699 C2698 1.404 . S
C2699 H2711 0.930 . S
C2700 C2696 1.524 . S
C2700 H2712 0.956 . S
C2700 H2713 0.961 . S
C2700 H2714 0.961 . S
C2701 C2698 1.539 . S
C2701 H2715 0.958 . S
C2701 H2716 0.961 . S
C2701 H2717 0.960 . S
H2702 C2686 0.931 . S
H2703 C2691 0.929 . S
H2704 C2692 0.960 . S
H2705 C2692 0.962 . S
H2706 C2692 0.960 . S
H2707 C2693 0.961 . S
H2708 C2693 0.961 . S
H2709 C2693 0.961 . S
H2710 C2694 0.931 . S
H2711 C2699 0.930 . S
H2712 C2700 0.956 . S
H2713 C2700 0.961 . S
H2714 C2700 0.961 . S
H2715 C2701 0.958 . S
H2716 C2701 0.961 . S
H2717 C2701 0.960 . S
C991 C177 1.442 . S
C999 C301 1.384 . S
C1023 C190 1.469 . S
C1031 C385 1.419 . S
C1055 C164 1.436 . S
C1063 C465 1.448 . S
C1087 C151 1.418 . S
C1095 C381 1.430 1_556 S
C1127 C469 1.380 . S
C1119 C125 1.438 . S
C1151 C138 1.414 . S
C1159 C297 1.395 1_556 S
C1191 C290 1.429 . S
C1183 C147 1.420 . S
C1223 C374 1.457 . S
C1215 C121 1.443 . S
C1247 C134 1.430 . S
C1255 C476 1.474 1_556 S
C1279 C173 1.469 . S
C1287 C392 1.462 . S
C1311 C186 1.418 . S
C1319 C458 1.421 . S
C1351 C308 1.420 . S
C1343 C160 1.399 . S
C1383 C553 1.385 . S
C1375 C21 1.443 . S
C1407 C34 1.476 . S
C1415 C637 1.421 . S
C1439 C8 1.444 . S
C1447 C717 1.448 . S
C1471 C229 1.420 . S
C1479 C633 1.431 . S
C1503 C203 1.426 . S
C1511 C721 1.369 . S
C1535 C216 1.412 . S
C1543 C549 1.394 . S
C1567 C225 1.413 . S
C1575 C542 1.428 . S
C1599 C199 1.432 . S
C1607 C626 1.458 . S
C1639 C728 1.495 . S
C1631 C212 1.480 . S
C1663 C17 1.417 . S
C1671 C644 1.461 . S
C1703 C710 1.428 . S
C1695 C30 1.438 . S
C1727 C4 1.454 . S
C1735 C560 1.439 . S
C1767 C805 1.382 . S
C1759 C99 1.441 . S
C1791 C112 1.482 . S
C1799 C889 1.436 . S
C1831 C969 1.439 . S
C1823 C86 1.457 . S
C1863 C885 1.430 . S
C1855 C73 1.419 . S
C1895 C973 1.382 . S
C1887 C47 1.439 . S
C1919 C60 1.413 . S
C1927 C801 1.395 . S
C1951 C69 1.464 . S
C1959 C794 1.447 . S
C1983 C43 1.482 . S
C1991 C878 1.479 . S
C2023 C980 1.485 . S
C2015 C56 1.498 . S
C2047 C95 1.424 . S
C2055 C896 1.442 . S
C2079 C108 1.406 . S
C2087 C962 1.406 . S
C2111 C82 1.422 . S
C2119 C812 1.446 . S
C2143 C204 1.570 . S
C2151 C304 1.441 . S
C2183 C388 1.451 . S
C2175 C217 1.610 . S
C2207 C230 1.577 . S
C2215 C460 1.370 . S
C2239 C87 1.573 . S
C2247 C376 1.412 . S
C2271 C100 1.567 . S
C2279 C472 1.420 . S
C2311 C292 1.375 . S
C2303 C113 1.512 . S
C2335 C48 1.556 . S
C2343 C556 1.453 . S
C2367 C61 1.616 . S
C2375 C640 1.490 . S
C2399 C74 1.546 . S
C2407 C712 1.387 . S
C2431 C165 1.571 . S
C2439 C628 1.393 . S
C2471 C724 1.423 . S
C2463 C178 1.562 . S
C2495 C191 1.520 . S
C2503 C544 1.383 . S
C2527 C126 1.561 . S
C2535 C808 1.424 . S
C2559 C139 1.619 . S
C2567 C892 1.491 . S
C2599 C964 1.384 . S
C2591 C152 1.546 . S
C2623 C9 1.588 . S
C2631 C880 1.370 . S
C2655 C22 1.569 . S
C2663 C976 1.420 . S
C2687 C35 1.509 . S
C2695 C796 1.363 . S
