# Generated by pormake.
# Topology ctn, (3,4)-cn, num edge types: 1
# Building blocks:
#     Node 0, Type 0, BuildingBlock: PAMTOO_clean_linker_0, # of connection points: 3
#     Node 1, Type 0, BuildingBlock: PAMTOO_clean_linker_0, # of connection points: 3
#     Node 2, Type 0, BuildingBlock: PAMTOO_clean_linker_0, # of connection points: 3
#     Node 3, Type 0, BuildingBlock: PAMTOO_clean_linker_0, # of connection points: 3
#     Node 4, Type 0, BuildingBlock: PAMTOO_clean_linker_0, # of connection points: 3
#     Node 5, Type 0, BuildingBlock: PAMTOO_clean_linker_0, # of connection points: 3
#     Node 6, Type 0, BuildingBlock: PAMTOO_clean_linker_0, # of connection points: 3
#     Node 7, Type 0, BuildingBlock: PAMTOO_clean_linker_0, # of connection points: 3
#     Node 8, Type 0, BuildingBlock: PAMTOO_clean_linker_0, # of connection points: 3
#     Node 9, Type 0, BuildingBlock: PAMTOO_clean_linker_0, # of connection points: 3
#     Node 10, Type 0, BuildingBlock: PAMTOO_clean_linker_0, # of connection points: 3
#     Node 11, Type 0, BuildingBlock: PAMTOO_clean_linker_0, # of connection points: 3
#     Node 12, Type 0, BuildingBlock: PAMTOO_clean_linker_0, # of connection points: 3
#     Node 13, Type 0, BuildingBlock: PAMTOO_clean_linker_0, # of connection points: 3
#     Node 14, Type 0, BuildingBlock: PAMTOO_clean_linker_0, # of connection points: 3
#     Node 15, Type 0, BuildingBlock: PAMTOO_clean_linker_0, # of connection points: 3
#     Node 16, Type 1, BuildingBlock: KUFVIS_clean_sbu_0, # of connection points: 4
#     Node 17, Type 1, BuildingBlock: KUFVIS_clean_sbu_0, # of connection points: 4
#     Node 18, Type 1, BuildingBlock: KUFVIS_clean_sbu_0, # of connection points: 4
#     Node 19, Type 1, BuildingBlock: KUFVIS_clean_sbu_0, # of connection points: 4
#     Node 20, Type 1, BuildingBlock: KUFVIS_clean_sbu_0, # of connection points: 4
#     Node 21, Type 1, BuildingBlock: KUFVIS_clean_sbu_0, # of connection points: 4
#     Node 22, Type 1, BuildingBlock: KUFVIS_clean_sbu_0, # of connection points: 4
#     Node 23, Type 1, BuildingBlock: KUFVIS_clean_sbu_0, # of connection points: 4
#     Node 24, Type 1, BuildingBlock: KUFVIS_clean_sbu_0, # of connection points: 4
#     Node 25, Type 1, BuildingBlock: KUFVIS_clean_sbu_0, # of connection points: 4
#     Node 26, Type 1, BuildingBlock: KUFVIS_clean_sbu_0, # of connection points: 4
#     Node 27, Type 1, BuildingBlock: KUFVIS_clean_sbu_0, # of connection points: 4
#     Edge 28, Type (0, 1), BuildingBlock: TEMPAE_clean_linker_10, # of connection points: 2
#     Edge 29, Type (0, 1), BuildingBlock: TEMPAE_clean_linker_10, # of connection points: 2
#     Edge 30, Type (0, 1), BuildingBlock: TEMPAE_clean_linker_10, # of connection points: 2
#     Edge 31, Type (0, 1), BuildingBlock: TEMPAE_clean_linker_10, # of connection points: 2
#     Edge 32, Type (0, 1), BuildingBlock: TEMPAE_clean_linker_10, # of connection points: 2
#     Edge 33, Type (0, 1), BuildingBlock: TEMPAE_clean_linker_10, # of connection points: 2
#     Edge 34, Type (0, 1), BuildingBlock: TEMPAE_clean_linker_10, # of connection points: 2
#     Edge 35, Type (0, 1), BuildingBlock: TEMPAE_clean_linker_10, # of connection points: 2
#     Edge 36, Type (0, 1), BuildingBlock: TEMPAE_clean_linker_10, # of connection points: 2
#     Edge 37, Type (0, 1), BuildingBlock: TEMPAE_clean_linker_10, # of connection points: 2
#     Edge 38, Type (0, 1), BuildingBlock: TEMPAE_clean_linker_10, # of connection points: 2
#     Edge 39, Type (0, 1), BuildingBlock: TEMPAE_clean_linker_10, # of connection points: 2
#     Edge 40, Type (0, 1), BuildingBlock: TEMPAE_clean_linker_10, # of connection points: 2
#     Edge 41, Type (0, 1), BuildingBlock: TEMPAE_clean_linker_10, # of connection points: 2
#     Edge 42, Type (0, 1), BuildingBlock: TEMPAE_clean_linker_10, # of connection points: 2
#     Edge 43, Type (0, 1), BuildingBlock: TEMPAE_clean_linker_10, # of connection points: 2
#     Edge 44, Type (0, 1), BuildingBlock: TEMPAE_clean_linker_10, # of connection points: 2
#     Edge 45, Type (0, 1), BuildingBlock: TEMPAE_clean_linker_10, # of connection points: 2
#     Edge 46, Type (0, 1), BuildingBlock: TEMPAE_clean_linker_10, # of connection points: 2
#     Edge 47, Type (0, 1), BuildingBlock: TEMPAE_clean_linker_10, # of connection points: 2
#     Edge 48, Type (0, 1), BuildingBlock: TEMPAE_clean_linker_10, # of connection points: 2
#     Edge 49, Type (0, 1), BuildingBlock: TEMPAE_clean_linker_10, # of connection points: 2
#     Edge 50, Type (0, 1), BuildingBlock: TEMPAE_clean_linker_10, # of connection points: 2
#     Edge 51, Type (0, 1), BuildingBlock: TEMPAE_clean_linker_10, # of connection points: 2
#     Edge 52, Type (0, 1), BuildingBlock: TEMPAE_clean_linker_10, # of connection points: 2
#     Edge 53, Type (0, 1), BuildingBlock: TEMPAE_clean_linker_10, # of connection points: 2
#     Edge 54, Type (0, 1), BuildingBlock: TEMPAE_clean_linker_10, # of connection points: 2
#     Edge 55, Type (0, 1), BuildingBlock: TEMPAE_clean_linker_10, # of connection points: 2
#     Edge 56, Type (0, 1), BuildingBlock: TEMPAE_clean_linker_10, # of connection points: 2
#     Edge 57, Type (0, 1), BuildingBlock: TEMPAE_clean_linker_10, # of connection points: 2
#     Edge 58, Type (0, 1), BuildingBlock: TEMPAE_clean_linker_10, # of connection points: 2
#     Edge 59, Type (0, 1), BuildingBlock: TEMPAE_clean_linker_10, # of connection points: 2
#     Edge 60, Type (0, 1), BuildingBlock: TEMPAE_clean_linker_10, # of connection points: 2
#     Edge 61, Type (0, 1), BuildingBlock: TEMPAE_clean_linker_10, # of connection points: 2
#     Edge 62, Type (0, 1), BuildingBlock: TEMPAE_clean_linker_10, # of connection points: 2
#     Edge 63, Type (0, 1), BuildingBlock: TEMPAE_clean_linker_10, # of connection points: 2
#     Edge 64, Type (0, 1), BuildingBlock: TEMPAE_clean_linker_10, # of connection points: 2
#     Edge 65, Type (0, 1), BuildingBlock: TEMPAE_clean_linker_10, # of connection points: 2
#     Edge 66, Type (0, 1), BuildingBlock: TEMPAE_clean_linker_10, # of connection points: 2
#     Edge 67, Type (0, 1), BuildingBlock: TEMPAE_clean_linker_10, # of connection points: 2
#     Edge 68, Type (0, 1), BuildingBlock: TEMPAE_clean_linker_10, # of connection points: 2
#     Edge 69, Type (0, 1), BuildingBlock: TEMPAE_clean_linker_10, # of connection points: 2
#     Edge 70, Type (0, 1), BuildingBlock: TEMPAE_clean_linker_10, # of connection points: 2
#     Edge 71, Type (0, 1), BuildingBlock: TEMPAE_clean_linker_10, # of connection points: 2
#     Edge 72, Type (0, 1), BuildingBlock: TEMPAE_clean_linker_10, # of connection points: 2
#     Edge 73, Type (0, 1), BuildingBlock: TEMPAE_clean_linker_10, # of connection points: 2
#     Edge 74, Type (0, 1), BuildingBlock: TEMPAE_clean_linker_10, # of connection points: 2
#     Edge 75, Type (0, 1), BuildingBlock: TEMPAE_clean_linker_10, # of connection points: 2
# Relax obj value: 0.075
# Max RMSD: 0.178
# Mean RMSD: 0.121
data_MOF--net-ctn--node1-KUFVIS_clean_sbu_0--node2-PAMTOO_clean_linker_0--edge1-TEMPAE_clean_linker_10
_symmetry_space_group_name_H-M    P1
_symmetry_Int_Tables_number       1
_symmetry_cell_setting            triclinic
loop_
_symmetry_equiv_pos_as_xyz
'x, y, z'
_cell_length_a     53.433352
_cell_length_b     53.717352
_cell_length_c     54.921683
_cell_angle_alpha  85.782252
_cell_angle_beta   92.429023
_cell_angle_gamma 98.958623
loop_
_atom_site_label
_atom_site_type_symbol
_atom_site_fract_x
_atom_site_fract_y
_atom_site_fract_z
_atom_type_partial_charge
H0 H 0.01735 0.08843 0.06972 0.0
H1 H 0.05383 0.02237 0.08163 0.0
H2 H 0.0715 0.07344 0.01873 0.0
H3 H 0.06983 0.02178 0.00864 0.0
C4 C 0.07575 0.01334 0.02666 0.0
O5 O 0.08172 0.03209 0.04282 0.0
H6 H 0.05967 0.99936 0.0338 0.0
C7 C 0.03076 0.07691 0.06411 0.0
C8 C 0.04376 0.0837 0.04228 0.0
C9 C 0.03412 0.05478 0.07833 0.0
C10 C 0.05092 0.0394 0.07073 0.0
C11 C 0.06452 0.04626 0.04936 0.0
C12 C 0.06086 0.0683 0.03518 0.0
H13 H 0.34554 0.66054 0.23819 0.0
H14 H 0.317 0.69276 0.17034 0.0
H15 H 0.38168 0.73243 0.20683 0.0
H16 H 0.3512 0.76722 0.18561 0.0
C17 C 0.33837 0.75453 0.1738 0.0
O18 O 0.34985 0.73396 0.16965 0.0
H19 H 0.32048 0.74837 0.18379 0.0
C20 C 0.34698 0.67531 0.22358 0.0
C21 C 0.36634 0.69631 0.22485 0.0
C22 C 0.3288 0.67377 0.20416 0.0
C23 C 0.33066 0.69335 0.18552 0.0
C24 C 0.34971 0.7143 0.18657 0.0
C25 C 0.36762 0.71563 0.20597 0.0
H26 H 0.96788 0.53045 0.08519 0.0
H27 H 0.94816 0.49687 0.01661 0.0
H28 H 0.00677 0.47154 0.06322 0.0
H29 H 0.01715 0.47833 0.01188 0.0
C30 C 0.99856 0.46925 0.00432 0.0
O31 O 0.98085 0.46487 0.02239 0.0
H32 H 0.99228 0.4825 0.98964 0.0
C33 C 0.9705 0.51689 0.07221 0.0
C34 C 0.9895 0.50144 0.07687 0.0
C35 C 0.95557 0.51567 0.05034 0.0
C36 C 0.95961 0.49838 0.03335 0.0
C37 C 0.97795 0.48243 0.03814 0.0
C38 C 0.99275 0.48405 0.05976 0.0
H39 H 0.70372 0.8521 0.25015 0.0
H40 H 0.66637 0.78546 0.21661 0.0
H41 H 0.73629 0.82458 0.18892 0.0
H42 H 0.69489 0.80675 0.15432 0.0
C43 C 0.6918 0.78677 0.16203 0.0
O44 O 0.70202 0.78499 0.18547 0.0
H45 H 0.67097 0.78049 0.16246 0.0
C46 C 0.70258 0.8389 0.23602 0.0
C47 C 0.72226 0.8414 0.21932 0.0
C48 C 0.68205 0.81894 0.23534 0.0
C49 C 0.68183 0.80101 0.21776 0.0
C50 C 0.70161 0.80298 0.20141 0.0
C51 C 0.7215 0.82319 0.20206 0.0
H52 H 0.09633 0.95619 0.53016 0.0
H53 H 0.02606 0.93842 0.48896 0.0
H54 H 0.07576 0.00728 0.47108 0.0
H55 H 0.02349 0.01221 0.47109 0.0
C56 C 0.01484 0.99457 0.46258 0.0
O57 O 0.0331 0.97956 0.45964 0.0
H58 H 1.00017 0.98435 0.475 0.0
C59 C 0.08341 0.96084 0.51537 0.0
C60 C 0.08882 0.98394 0.50137 0.0
C61 C 0.06069 0.94432 0.51115 0.0
C62 C 0.04358 0.95094 0.49251 0.0
C63 C 0.04918 0.97356 0.47806 0.0
C64 C 0.07173 0.98984 0.48242 0.0
H65 H 0.17494 0.73684 0.83213 0.0
H66 H 0.20094 0.67447 0.80102 0.0
H67 H 0.24391 0.71126 0.85949 0.0
H68 H 0.276 0.69808 0.82325 0.0
C69 C 0.26299 0.68266 0.81474 0.0
O70 O 0.24192 0.67572 0.82887 0.0
H71 H 0.25726 0.69021 0.79625 0.0
C72 C 0.18853 0.72389 0.83173 0.0
C73 C 0.2096 0.7263 0.84811 0.0
C74 C 0.18502 0.70533 0.81459 0.0
C75 C 0.20312 0.68895 0.814 0.0
C76 C 0.22426 0.69111 0.83017 0.0
C77 C 0.2273 0.70955 0.84735 0.0
H78 H 0.96235 0.55622 0.52935 0.0
H79 H 0.97646 0.51758 0.46637 0.0
H80 H 0.03181 0.57787 0.49096 0.0
H81 H 0.02615 0.576 0.43678 0.0
C82 C 0.0194 0.55541 0.43581 0.0
O83 O 0.02115 0.54347 0.4588 0.0
H84 H 0.99925 0.55318 0.42912 0.0
C85 C 0.97437 0.55366 0.5146 0.0
C86 C 0.99792 0.56934 0.51213 0.0
C87 C 0.96615 0.53496 0.49817 0.0
C88 C 0.98232 0.53165 0.47946 0.0
C89 C 1.0059 0.54703 0.4769 0.0
C90 C 0.01358 0.56601 0.49307 0.0
H91 H 0.79069 0.83661 0.85478 0.0
H92 H 0.8545 0.80904 0.82629 0.0
H93 H 0.81985 0.86512 0.78435 0.0
H94 H 0.83609 0.83057 0.75298 0.0
C95 C 0.84846 0.82113 0.76628 0.0
O96 O 0.85497 0.83648 0.78541 0.0
H97 H 0.8376 0.80267 0.77298 0.0
C98 C 0.80423 0.83695 0.84063 0.0
C99 C 0.80316 0.85375 0.81963 0.0
C100 C 0.82241 0.82027 0.84328 0.0
C101 C 0.83997 0.8211 0.82472 0.0
C102 C 0.83886 0.83717 0.80366 0.0
C103 C 0.82064 0.85336 0.80115 0.0
H104 H 0.27996 0.33233 0.35425 0.0
H105 H 0.34455 0.30368 0.32908 0.0
H106 H 0.31457 0.36241 0.28634 0.0
H107 H 0.32945 0.32618 0.25561 0.0
C108 C 0.34173 0.31665 0.26894 0.0
O109 O 0.3479 0.33173 0.28833 0.0
H110 H 0.33088 0.29809 0.27535 0.0
C111 C 0.29434 0.33285 0.34085 0.0
C112 C 0.29441 0.3496 0.31968 0.0
C113 C 0.31272 0.31655 0.34481 0.0
C114 C 0.33083 0.31662 0.32695 0.0
C115 C 0.33104 0.3328 0.30584 0.0
C116 C 0.31338 0.34957 0.30253 0.0
H117 H 0.47186 0.02929 0.58688 0.0
H118 H 0.44641 0.98999 0.52255 0.0
H119 H 0.50853 0.96806 0.56666 0.0
H120 H 0.51568 0.97177 0.51456 0.0
C121 C 0.49641 0.96324 0.50815 0.0
O122 O 0.4802 0.95902 0.52749 0.0
H123 H 0.48947 0.97694 0.49427 0.0
C124 C 0.47352 0.0147 0.57468 0.0
C125 C 0.49231 0.99905 0.57946 0.0
C126 C 0.45681 0.01159 0.55418 0.0
C127 C 0.45909 0.99263 0.53839 0.0
C128 C 0.47798 0.97723 0.54276 0.0
C129 C 0.49435 0.98039 0.56327 0.0
H130 H 0.2042 0.35859 0.74581 0.0
H131 H 0.17241 0.28502 0.72241 0.0
H132 H 0.23726 0.32666 0.68748 0.0
H133 H 0.19339 0.30297 0.65693 0.0
C134 C 0.19283 0.28373 0.66618 0.0
O135 O 0.20536 0.285 0.68867 0.0
H136 H 0.17256 0.27577 0.66885 0.0
C137 C 0.2042 0.34342 0.73393 0.0
C138 C 0.22349 0.34529 0.71684 0.0
C139 C 0.18532 0.32191 0.73623 0.0
C140 C 0.18599 0.3022 0.72073 0.0
C141 C 0.20462 0.30416 0.70319 0.0
C142 C 0.2231 0.32561 0.70121 0.0
H143 H 0.8451 0.16448 0.74476 0.0
H144 H 0.81503 0.19501 0.67687 0.0
H145 H 0.88075 0.23551 0.71113 0.0
H146 H 0.84964 0.26978 0.68955 0.0
C147 C 0.83678 0.25681 0.67802 0.0
O148 O 0.84818 0.23604 0.67444 0.0
H149 H 0.81887 0.25098 0.68803 0.0
C150 C 0.84623 0.17891 0.72983 0.0
C151 C 0.86565 0.19993 0.73027 0.0
C152 C 0.82764 0.1769 0.71081 0.0
C153 C 0.82908 0.19599 0.69173 0.0
C154 C 0.84825 0.21692 0.6919 0.0
C155 C 0.86658 0.21874 0.71093 0.0
H156 H 0.51898 0.58892 0.56882 0.0
H157 H 0.55527 0.52279 0.58124 0.0
H158 H 0.57258 0.57299 0.51769 0.0
H159 H 0.57027 0.52101 0.50826 0.0
C160 C 0.57643 0.51284 0.5263 0.0
O161 O 0.58276 0.53185 0.54214 0.0
H162 H 0.56041 0.49905 0.53382 0.0
C163 C 0.5323 0.57728 0.56326 0.0
C164 C 0.54511 0.58372 0.54127 0.0
C165 C 0.53571 0.55529 0.57771 0.0
C166 C 0.55236 0.53972 0.57019 0.0
C167 C 0.56577 0.54624 0.54866 0.0
C168 C 0.56209 0.56814 0.53427 0.0
H169 H 0.59411 0.45197 0.03439 0.0
H170 H 0.52567 0.43682 0.98987 0.0
H171 H 0.57715 0.50553 0.97608 0.0
H172 H 0.5253 0.51174 0.97204 0.0
C173 C 0.51664 0.49387 0.96394 0.0
O174 O 0.5349 0.47867 0.9617 0.0
H175 H 0.50181 0.48407 0.97643 0.0
C176 C 0.58196 0.45732 0.01921 0.0
C177 C 0.58836 0.48075 0.00608 0.0
C178 C 0.55921 0.44141 0.01369 0.0
C179 C 0.54316 0.44893 0.99447 0.0
C180 C 0.54982 0.47191 0.98081 0.0
C181 C 0.5723 0.4877 0.98665 0.0
H182 H 0.67166 0.23512 0.334 0.0
H183 H 0.69691 0.17283 0.30203 0.0
H184 H 0.741 0.20936 0.36 0.0
H185 H 0.77218 0.19649 0.32275 0.0
C186 C 0.7591 0.18087 0.31461 0.0
O187 O 0.73836 0.17394 0.32917 0.0
H188 H 0.75293 0.18816 0.29616 0.0
C189 C 0.6852 0.22215 0.33329 0.0
C190 C 0.70655 0.22448 0.34932 0.0
C191 C 0.68134 0.20367 0.31607 0.0
C192 C 0.69936 0.18727 0.31507 0.0
C193 C 0.72077 0.18934 0.33089 0.0
C194 C 0.72418 0.20771 0.34814 0.0
H195 H 0.46242 0.05622 0.02992 0.0
H196 H 0.4775 0.01783 0.96712 0.0
H197 H 0.53268 0.07769 0.99285 0.0
H198 H 0.52862 0.07574 0.93839 0.0
C199 C 0.52136 0.05526 0.9374 0.0
O200 O 0.52252 0.04337 0.96049 0.0
H201 H 0.50133 0.05349 0.93043 0.0
C202 C 0.47468 0.05369 0.01537 0.0
C203 C 0.49833 0.06924 0.01337 0.0
C204 C 0.46667 0.03515 0.99873 0.0
C205 C 0.48317 0.03182 0.98032 0.0
C206 C 0.50689 0.04705 0.97823 0.0
C207 C 0.51434 0.06594 0.99458 0.0
Mn208 Mn 0.25631 0.88422 1.00098 0.0
Mn209 Mn 0.25475 0.91473 0.94517 0.0
C210 C 0.2374 0.863 0.96786 0.0
C211 C 0.27586 0.86063 0.03157 0.0
C212 C 0.22089 0.92284 0.98606 0.0
O213 O 0.28403 0.9148 1.00401 0.0
O214 O 0.28307 0.93191 0.96534 0.0
C215 C 0.30342 0.90543 0.92647 0.0
N216 N 0.27775 0.90377 0.92406 0.0
C217 C 0.27749 0.88732 0.88447 0.0
C218 C 0.30393 0.88892 0.88648 0.0
C219 C 0.31693 0.89785 0.90765 0.0
C220 C 0.26503 0.89483 0.90395 0.0
H221 H 0.31351 0.91256 0.94259 0.0
C222 C 0.29277 0.93107 0.98708 0.0
O223 O 0.25914 0.87449 0.03648 0.0
O224 O 0.28159 0.86074 0.00881 0.0
N225 N 0.22856 0.89964 0.92369 0.0
C226 C 0.20295 0.89749 0.92545 0.0
C227 C 0.18708 0.88793 0.90618 0.0
C228 C 0.19773 0.8811 0.88516 0.0
C229 C 0.22415 0.88343 0.88381 0.0
C230 C 0.23897 0.89271 0.90373 0.0
H231 H 0.1947 0.90313 0.94139 0.0
O232 O 0.23111 0.85518 0.99003 0.0
O233 O 0.25424 0.88321 0.96578 0.0
O234 O 0.22853 0.90655 1.00147 0.0
O235 O 0.22989 0.92765 0.96478 0.0
C236 C 0.23637 0.87693 0.86349 0.0
C237 C 0.26299 0.87854 0.86394 0.0
H238 H 0.31443 0.88322 0.87193 0.0
H239 H 0.33733 0.89908 0.90936 0.0
H240 H 0.16671 0.88608 0.9074 0.0
H241 H 0.18543 0.87392 0.87024 0.0
H242 H 0.22544 0.87047 0.84749 0.0
H243 H 0.27211 0.87292 0.84843 0.0
Mn244 Mn 0.15168 0.50761 0.25944 0.0
Mn245 Mn 0.13552 0.56619 0.25594 0.0
C246 C 0.17698 0.54127 0.23884 0.0
C247 C 0.17352 0.47607 0.2782 0.0
C248 C 0.1106 0.52539 0.22382 0.0
O249 O 0.12675 0.50493 0.28728 0.0
O250 O 0.11667 0.54416 0.28168 0.0
C251 C 0.15677 0.58136 0.30428 0.0
N252 N 0.15511 0.58591 0.27959 0.0
C253 C 0.18072 0.62673 0.28175 0.0
C254 C 0.18268 0.62253 0.30722 0.0
C255 C 0.17079 0.59966 0.31851 0.0
C256 C 0.16687 0.60761 0.26851 0.0
H257 H 0.14735 0.56397 0.31306 0.0
C258 C 0.11434 0.52216 0.29274 0.0
O259 O 0.15395 0.47055 0.26368 0.0
O260 O 0.17966 0.49965 0.28266 0.0
N261 N 0.15215 0.59009 0.2321 0.0
C262 C 0.14939 0.59062 0.2073 0.0
C263 C 0.16011 0.61219 0.19319 0.0
C264 C 0.17317 0.63309 0.20474 0.0
C265 C 0.1761 0.63195 0.23027 0.0
C266 C 0.16504 0.60996 0.24336 0.0
H267 H 0.13884 0.57483 0.1984 0.0
O268 O 0.17736 0.51816 0.23363 0.0
O269 O 0.16157 0.54415 0.25576 0.0
O270 O 0.12229 0.50783 0.23344 0.0
O271 O 0.11462 0.54786 0.2307 0.0
C272 C 0.18936 0.65184 0.24328 0.0
C273 C 0.19193 0.64911 0.26897 0.0
H274 H 0.1933 0.63669 0.31826 0.0
H275 H 0.17223 0.59627 0.33815 0.0
H276 H 0.15795 0.61288 0.17348 0.0
H277 H 0.18094 0.64989 0.19379 0.0
H278 H 0.19784 0.66926 0.23372 0.0
H279 H 0.20255 0.66436 0.27872 0.0
Mn280 Mn 0.77883 0.64294 0.01713 0.0
Mn281 Mn 0.72493 0.65925 0.99014 0.0
C282 C 0.74004 0.61596 0.02182 0.0
C283 C 0.81547 0.62331 0.01761 0.0
C284 C 0.74905 0.68166 0.03622 0.0
O285 O 0.79256 0.67127 0.99124 0.0
O286 O 0.75503 0.6779 0.97409 0.0
C287 C 0.72838 0.63892 0.94192 0.0
N288 N 0.71506 0.64056 0.96218 0.0
C289 C 0.67703 0.61829 0.94422 0.0
C290 C 0.69031 0.61629 0.92314 0.0
C291 C 0.71616 0.62645 0.92208 0.0
C292 C 0.69041 0.63023 0.96366 0.0
H293 H 0.74809 0.64725 0.94088 0.0
C294 C 0.7792 0.68227 0.97509 0.0
O295 O 0.81363 0.64126 0.03167 0.0
O296 O 0.79653 0.61754 1.0024 0.0
N297 N 0.69363 0.64306 1.00338 0.0
C298 C 0.68378 0.64636 0.02518 0.0
C299 C 0.65789 0.63831 0.02891 0.0
C300 C 0.64237 0.62729 0.01009 0.0
C301 C 0.65307 0.62337 0.98807 0.0
C302 C 0.67893 0.63197 0.98535 0.0
H303 H 0.69541 0.6558 0.03933 0.0
O304 O 0.75881 0.61456 0.03738 0.0
O305 O 0.74439 0.63299 1.00382 0.0
O306 O 0.7675 0.66905 0.03841 0.0
O307 O 0.73272 0.67958 0.01861 0.0
C308 C 0.63898 0.61189 0.96848 0.0
C309 C 0.65103 0.60905 0.94669 0.0
H310 H 0.68085 0.60703 0.90765 0.0
H311 H 0.72653 0.62501 0.90587 0.0
H312 H 0.64978 0.64115 0.04603 0.0
H313 H 0.62226 0.62179 0.01282 0.0
H314 H 0.6189 0.60511 0.97 0.0
H315 H 0.64009 0.59989 0.9319 0.0
Mn316 Mn 0.88825 0.01982 0.26179 0.0
Mn317 Mn 0.9126 0.96511 0.26602 0.0
C318 C 0.86546 0.9838 0.24602 0.0
C319 C 0.86519 0.04882 0.2769 0.0
C320 C 0.92941 0.00809 0.22871 0.0
O321 O 0.91591 0.02585 0.28862 0.0
O322 O 0.93004 0.98841 0.2898 0.0
C323 C 0.89586 0.94655 0.31572 0.0
N324 N 0.89667 0.94289 0.2915 0.0
C325 C 0.87593 0.89996 0.29767 0.0
C326 C 0.87491 0.90322 0.32269 0.0
C327 C 0.88477 0.92668 0.33172 0.0
C328 C 0.88683 0.92057 0.28256 0.0
H329 H 0.90373 0.96444 0.32278 0.0
C330 C 0.93045 0.01041 0.29739 0.0
O331 O 0.8824 0.0556 0.26075 0.0
O332 O 0.86172 0.02517 0.28479 0.0
N333 N 0.89752 0.94027 0.24444 0.0
C334 C 0.89879 0.94072 0.21969 0.0
C335 C 0.8894 0.91883 0.20767 0.0
C336 C 0.8793 0.89664 0.22128 0.0
C337 C 0.87806 0.89669 0.24672 0.0
C338 C 0.88751 0.91911 0.25765 0.0
H339 H 0.90712 0.95757 0.20924 0.0
O340 O 0.86105 0.00613 0.2381 0.0
O341 O 0.88305 0.9831 0.26307 0.0
O342 O 0.91474 0.02283 0.23521 0.0
O343 O 0.93026 0.9862 0.23911 0.0
C344 C 0.86799 0.87536 0.26172 0.0
C345 C 0.86661 0.87708 0.28712 0.0
H346 H 0.86655 0.88787 0.33511 0.0
H347 H 0.88404 0.92936 0.351 0.0
H348 H 0.89031 0.91895 0.18802 0.0
H349 H 0.8725 0.87968 0.21197 0.0
H350 H 0.86105 0.85756 0.2539 0.0
H351 H 0.85836 0.8607 0.29837 0.0
Mn352 Mn 0.28289 0.14243 0.52106 0.0
Mn353 Mn 0.23339 0.16328 0.48954 0.0
C354 C 0.24311 0.11708 0.52048 0.0
C355 C 0.31877 0.12166 0.52388 0.0
C356 C 0.25246 0.18114 0.53913 0.0
O357 O 0.30036 0.17197 0.49868 0.0
O358 O 0.26576 0.18188 0.47751 0.0
C359 C 0.24199 0.14583 0.44111 0.0
N360 N 0.22639 0.14676 0.45988 0.0
C361 C 0.19039 0.12627 0.43737 0.0
C362 C 0.20604 0.12505 0.41776 0.0
C363 C 0.23201 0.13469 0.41973 0.0
C364 C 0.20156 0.13696 0.45843 0.0
H365 H 0.26184 0.15369 0.44244 0.0
C366 C 0.28963 0.1848 0.48191 0.0
O367 O 0.31541 0.13811 0.53909 0.0
O368 O 0.30178 0.1179 0.50638 0.0
N369 N 0.20028 0.14756 0.49864 0.0
C370 C 0.18798 0.14986 0.51939 0.0
C371 C 0.1617 0.14211 0.52016 0.0
C372 C 0.14832 0.13245 0.49949 0.0
C373 C 0.16147 0.12961 0.47856 0.0
C374 C 0.18762 0.13785 0.47881 0.0
H375 H 0.19802 0.15819 0.535 0.0
O376 O 0.26004 0.11356 0.5375 0.0
O377 O 0.25001 0.13507 0.5038 0.0
O378 O 0.26984 0.1673 0.54254 0.0
O379 O 0.23846 0.18135 0.51974 0.0
C380 C 0.14962 0.11946 0.45728 0.0
C381 C 0.16413 0.11745 0.43683 0.0
H382 H 0.19833 0.11679 0.40111 0.0
H383 H 0.24421 0.13385 0.40467 0.0
H384 H 0.15167 0.14413 0.53644 0.0
H385 H 0.12794 0.12719 0.49995 0.0
H386 H 0.12938 0.11298 0.4565 0.0
H387 H 0.15487 0.10926 0.42072 0.0
Mn388 Mn 0.39109 0.52089 0.76205 0.0
Mn389 Mn 0.41406 0.46549 0.76507 0.0
C390 C 0.36778 0.48583 0.74502 0.0
C391 C 0.36851 0.54999 0.77763 0.0
C392 C 0.43219 0.50915 0.72891 0.0
O393 O 0.41845 0.52555 0.78933 0.0
O394 O 0.43168 0.48774 0.78966 0.0
C395 C 0.39624 0.44595 0.81418 0.0
N396 N 0.39733 0.44291 0.78986 0.0
C397 C 0.37558 0.40025 0.79476 0.0
C398 C 0.37426 0.40287 0.81987 0.0
C399 C 0.38449 0.42589 0.82959 0.0
C400 C 0.38712 0.42104 0.78026 0.0
H401 H 0.40438 0.4635 0.82177 0.0
C402 C 0.43248 0.50953 0.79787 0.0
O403 O 0.38608 0.55686 0.76186 0.0
O404 O 0.36444 0.52619 0.78493 0.0
N405 N 0.39877 0.44154 0.7427 0.0
C406 C 0.40045 0.44259 0.71795 0.0
C407 C 0.39086 0.42119 0.7053 0.0
C408 C 0.38012 0.39883 0.71828 0.0
C409 C 0.37844 0.39826 0.74373 0.0
C410 C 0.38813 0.42022 0.7553 0.0
H411 H 0.40928 0.45955 0.70799 0.0
O412 O 0.36401 0.50851 0.73769 0.0
O413 O 0.38504 0.48421 0.76228 0.0
O414 O 0.41787 0.52405 0.73574 0.0
O415 O 0.43247 0.48694 0.73878 0.0
C416 C 0.36771 0.37673 0.75811 0.0
C417 C 0.36595 0.37783 0.78355 0.0
H418 H 0.3654 0.38736 0.83185 0.0
H419 H 0.38353 0.42808 0.84895 0.0
H420 H 0.39211 0.42179 0.68565 0.0
H421 H 0.37317 0.38222 0.70849 0.0
H422 H 0.36056 0.35926 0.74978 0.0
H423 H 0.3572 0.36131 0.79433 0.0
Mn424 Mn 0.75629 0.38306 0.50175 0.0
Mn425 Mn 0.75506 0.41285 0.44556 0.0
C426 C 0.73732 0.36146 0.46886 0.0
C427 C 0.77545 0.35978 0.53288 0.0
C428 C 0.72103 0.42163 0.48601 0.0
O429 O 0.78416 0.41352 0.50456 0.0
O430 O 0.78315 0.43034 0.4658 0.0
C431 C 0.80398 0.40327 0.42767 0.0
N432 N 0.77833 0.40164 0.42492 0.0
C433 C 0.77859 0.38494 0.3855 0.0
C434 C 0.80501 0.38649 0.38786 0.0
C435 C 0.81774 0.39554 0.40912 0.0
C436 C 0.76587 0.39259 0.40474 0.0
H437 H 0.81386 0.41049 0.44385 0.0
C438 C 0.79285 0.4297 0.48755 0.0
O439 O 0.75883 0.37391 0.53736 0.0
O440 O 0.78131 0.3594 0.5102 0.0
N441 N 0.72914 0.39756 0.42393 0.0
C442 C 0.7035 0.39555 0.42533 0.0
C443 C 0.68789 0.38605 0.40586 0.0
C444 C 0.69881 0.37912 0.38504 0.0
C445 C 0.72525 0.38124 0.3841 0.0
C446 C 0.73981 0.39052 0.40417 0.0
H447 H 0.69504 0.40127 0.44111 0.0
O448 O 0.73093 0.35402 0.49108 0.0
O449 O 0.75434 0.38152 0.46655 0.0
O450 O 0.72875 0.4057 0.50174 0.0
O451 O 0.72992 0.42598 0.46466 0.0
C452 C 0.73774 0.37455 0.36404 0.0
C453 C 0.76436 0.37608 0.36485 0.0
H454 H 0.8157 0.38069 0.37352 0.0
H455 H 0.83812 0.39674 0.4111 0.0
H456 H 0.66749 0.38434 0.40678 0.0
H457 H 0.68671 0.37202 0.36997 0.0
H458 H 0.72704 0.36807 0.34793 0.0
H459 H 0.77368 0.37035 0.34952 0.0
Mn460 Mn 0.65324 0.00534 0.76288 0.0
Mn461 Mn 0.63508 0.06302 0.76141 0.0
C462 C 0.6783 0.04056 0.74445 0.0
C463 C 0.67527 0.97347 0.78058 0.0
C464 C 0.61278 0.02355 0.7268 0.0
O465 O 0.62715 1.00039 0.78989 0.0
O466 O 0.61596 0.03926 0.78573 0.0
C467 C 0.65406 0.07619 0.81103 0.0
N468 N 0.65321 0.08193 0.78646 0.0
C469 C 0.67759 0.12298 0.79107 0.0
C470 C 0.67873 0.11754 0.81642 0.0
C471 C 0.66704 0.09398 0.82643 0.0
C472 C 0.66477 0.10434 0.77662 0.0
H473 H 0.64481 0.05824 0.81882 0.0
C474 C 0.61397 0.01683 0.79579 0.0
O475 O 0.65659 0.96863 0.76491 0.0
O476 O 0.68043 0.99659 0.78682 0.0
N477 N 0.65183 0.0885 0.73904 0.0
C478 C 0.64987 0.09031 0.71418 0.0
C479 C 0.6603 0.1128 0.7013 0.0
C480 C 0.67231 0.13327 0.71411 0.0
C481 C 0.67454 0.1308 0.73967 0.0
C482 C 0.66372 0.10796 0.75151 0.0
H483 H 0.64015 0.07482 0.7043 0.0
O484 O 0.67973 0.01796 0.73835 0.0
O485 O 0.66211 0.04208 0.76112 0.0
O486 O 0.62486 0.00613 0.73599 0.0
O487 O 0.61564 0.04556 0.73475 0.0
C488 C 0.68685 0.15017 0.7539 0.0
C489 C 0.68863 0.14615 0.77955 0.0
H490 H 0.68854 0.1313 0.82838 0.0
H491 H 0.66783 0.08963 0.84598 0.0
H492 H 0.65873 0.11451 0.68156 0.0
H493 H 0.67981 0.15077 0.7041 0.0
H494 H 0.6952 0.16816 0.74529 0.0
H495 H 0.6985 0.16103 0.79024 0.0
Mn496 Mn 0.02034 0.27177 0.89109 0.0
Mn497 Mn 0.96155 0.26331 0.91351 0.0
C498 C 0.98668 0.24815 0.87087 0.0
C499 C 0.05333 0.29146 0.86645 0.0
C500 C 1.00232 0.23384 0.93391 0.0
O501 O 0.02299 0.3007 0.91391 0.0
O502 O 0.9837 0.2916 0.92875 0.0
C503 C 0.94658 0.31178 0.89344 0.0
N504 N 0.94202 0.28606 0.89593 0.0
C505 C 0.90209 0.28506 0.8738 0.0
C506 C 0.90631 0.31153 0.87108 0.0
C507 C 0.92872 0.32493 0.88083 0.0
C508 C 0.9207 0.27298 0.88631 0.0
H509 H 0.96366 0.32219 0.90108 0.0
C510 C 1.00573 0.30501 0.92782 0.0
O511 O 0.05735 0.27721 0.88584 0.0
O512 O 0.03024 0.29583 0.86218 0.0
N513 N 0.93772 0.23702 0.90028 0.0
C514 C 0.9372 0.21154 0.90333 0.0
C515 C 0.91621 0.19538 0.89428 0.0
C516 C 0.89584 0.20557 0.88256 0.0
C517 C 0.89687 0.23185 0.87951 0.0
C518 C 0.91831 0.247 0.88881 0.0
H519 H 0.95262 0.20362 0.91269 0.0
O520 O 0.0098 0.24438 0.86838 0.0
O521 O 0.98372 0.26542 0.88546 0.0
O522 O 0.01955 0.24559 0.92021 0.0
O523 O 0.9796 0.23852 0.93267 0.0
C524 C 0.87745 0.24362 0.86765 0.0
C525 C 0.88018 0.27019 0.86456 0.0
H526 H 0.89251 0.32174 0.86146 0.0
H527 H 0.93215 0.34536 0.87876 0.0
H528 H 0.9156 0.17511 0.89658 0.0
H529 H 0.87953 0.19302 0.87593 0.0
H530 H 0.86042 0.23242 0.86063 0.0
H531 H 0.86533 0.279 0.85501 0.0
Mn532 Mn 0.51619 0.76952 0.38797 0.0
Mn533 Mn 0.4575 0.75808 0.41058 0.0
C534 C 0.48361 0.74424 0.36797 0.0
C535 C 0.54781 0.79124 0.36281 0.0
C536 C 0.50011 0.73106 0.43099 0.0
O537 O 0.51729 0.7983 0.41069 0.0
O538 O 0.4783 0.78723 0.42583 0.0
C539 C 0.43996 0.80535 0.39051 0.0
N540 N 0.43672 0.77964 0.39297 0.0
C541 C 0.39682 0.77662 0.37056 0.0
C542 C 0.39967 0.80306 0.36786 0.0
C543 C 0.42141 0.81748 0.37777 0.0
C544 C 0.41606 0.76559 0.38322 0.0
H545 H 0.45652 0.81654 0.39824 0.0
C546 C 0.4998 0.80164 0.42478 0.0
O547 O 0.55322 0.77766 0.38225 0.0
O548 O 0.52413 0.79358 0.35882 0.0
N549 N 0.43496 0.73082 0.39733 0.0
C550 C 0.43582 0.70556 0.40029 0.0
C551 C 0.41575 0.68849 0.39092 0.0
C552 C 0.39486 0.69755 0.37899 0.0
C553 C 0.39442 0.72363 0.37612 0.0
C554 C 0.41503 0.73973 0.38569 0.0
H555 H 0.45168 0.6985 0.40976 0.0
O556 O 0.50709 0.74171 0.36542 0.0
O557 O 0.47975 0.76118 0.38257 0.0
O558 O 0.51697 0.74362 0.4173 0.0
O559 O 0.47699 0.73451 0.42967 0.0
C560 C 0.37436 0.73431 0.36414 0.0
C561 C 0.37569 0.76078 0.36113 0.0
H562 H 0.38534 0.81248 0.35814 0.0
H563 H 0.42378 0.83789 0.37572 0.0
H564 H 0.41627 0.66839 0.39311 0.0
H565 H 0.37928 0.6843 0.37205 0.0
H566 H 0.35789 0.72235 0.35701 0.0
H567 H 0.36037 0.76875 0.35148 0.0
Mn568 Mn 0.02222 0.74679 0.64609 0.0
Mn569 Mn 0.98893 0.69325 0.6716 0.0
C570 C 0.02188 0.70854 0.62847 0.0
C571 C 0.02581 0.78397 0.62065 0.0
C572 C 0.04021 0.71672 0.69148 0.0
O573 O 0.99856 0.7603 0.66843 0.0
O574 O 0.97715 0.72341 0.68338 0.0
C575 C 0.93893 0.69849 0.64806 0.0
N576 N 0.95799 0.68463 0.6533 0.0
C577 C 0.9342 0.64851 0.63516 0.0
C578 C 0.91427 0.66235 0.6296 0.0
C579 C 0.91673 0.68752 0.63592 0.0
C580 C 0.95605 0.66062 0.64682 0.0
H581 H 0.94063 0.71772 0.6532 0.0
C582 C 0.98136 0.74758 0.6817 0.0
O583 O 0.041 0.78139 0.63938 0.0
O584 O 0.00823 0.76495 0.61668 0.0
N585 N 0.99748 0.66217 0.66219 0.0
C586 C 0.01889 0.65185 0.66792 0.0
C587 C 0.01945 0.62662 0.66321 0.0
C588 C 0.99791 0.61221 0.65298 0.0
C589 C 0.9763 0.6234 0.64669 0.0
C590 C 0.97682 0.64857 0.65191 0.0
H591 H 0.03527 0.66267 0.67635 0.0
O592 O 0.03994 0.72736 0.62433 0.0
O593 O 1.00419 0.71267 0.6426 0.0
O594 O 0.04327 0.73544 0.67569 0.0
O595 O 0.02053 0.69986 0.69171 0.0
C596 C 0.95416 0.61052 0.63572 0.0
C597 C 0.93326 0.62316 0.62966 0.0
H598 H 0.89701 0.65386 0.62045 0.0
H599 H 0.90144 0.69834 0.63167 0.0
H600 H 0.03628 0.61816 0.66787 0.0
H601 H 0.99822 0.59257 0.64997 0.0
H602 H 0.95307 0.59095 0.63166 0.0
H603 H 0.91652 0.61319 0.62084 0.0
Mn604 Mn 0.51718 0.24484 0.14892 0.0
Mn605 Mn 0.48441 0.19079 0.17393 0.0
C606 C 0.5178 0.20682 0.13121 0.0
C607 C 0.52045 0.28199 0.12349 0.0
C608 C 0.53521 0.2149 0.19438 0.0
O609 O 0.49295 0.25781 0.17105 0.0
O610 O 0.47194 0.22062 0.18574 0.0
C611 C 0.4345 0.19541 0.14991 0.0
N612 N 0.45378 0.18186 0.15526 0.0
C613 C 0.43088 0.14572 0.13642 0.0
C614 C 0.41073 0.15925 0.13074 0.0
C615 C 0.41263 0.18427 0.13737 0.0
C616 C 0.45237 0.15799 0.14852 0.0
H617 H 0.43577 0.21453 0.15525 0.0
C618 C 0.47579 0.2448 0.18416 0.0
O619 O 0.53547 0.27968 0.1424 0.0
O620 O 0.50317 0.26276 0.11939 0.0
N621 N 0.49364 0.16002 0.16444 0.0
C622 C 0.51521 0.15003 0.17033 0.0
C623 C 0.51632 0.125 0.16532 0.0
C624 C 0.49516 0.11043 0.15463 0.0
C625 C 0.47338 0.12129 0.14821 0.0
C626 C 0.47334 0.14628 0.15375 0.0
H627 H 0.5313 0.16097 0.17908 0.0
O628 O 0.53562 0.22592 0.12733 0.0
O629 O 0.49976 0.21055 0.14515 0.0
O630 O 0.53812 0.23373 0.1787 0.0
O631 O 0.51576 0.19777 0.19437 0.0
C632 C 0.45161 0.10824 0.13678 0.0
C633 C 0.43051 0.12056 0.13059 0.0
H634 H 0.39374 0.15063 0.12127 0.0
H635 H 0.39717 0.19484 0.13303 0.0
H636 H 0.53329 0.1168 0.17009 0.0
H637 H 0.4959 0.09092 0.15137 0.0
H638 H 0.45096 0.0888 0.13245 0.0
H639 H 0.41406 0.11047 0.12143 0.0
C640 C 0.20824 0.77112 0.85718 0.0
C641 C 0.21325 0.74695 0.86526 0.0
C642 C 0.21072 0.79074 0.87301 0.0
C643 C 0.21902 0.78644 0.89756 0.0
C644 C 0.22421 0.76207 0.90588 0.0
C645 C 0.22128 0.74264 0.88965 0.0
C646 C 0.20523 0.81615 0.86271 0.0
C647 C 0.23285 0.75654 0.93197 0.0
C648 C 0.25131 0.84103 0.93361 0.0
C649 C 0.23171 0.84555 0.94804 0.0
C650 C 0.24719 0.8225 0.91651 0.0
C651 C 0.22308 0.80745 0.91439 0.0
C652 C 0.20311 0.81213 0.92877 0.0
C653 C 0.2077 0.83105 0.94555 0.0
C654 C 0.26876 0.81876 0.90097 0.0
C655 C 0.17697 0.79698 0.92655 0.0
H656 H 0.2026 0.77491 0.83824 0.0
H657 H 0.22494 0.72396 0.89614 0.0
H658 H 0.20085 0.82825 0.87695 0.0
H659 H 0.22212 0.82576 0.85287 0.0
H660 H 0.18908 0.814 0.84922 0.0
H661 H 0.23549 0.7365 0.93576 0.0
H662 H 0.25106 0.76878 0.93597 0.0
H663 H 0.21876 0.76094 0.94465 0.0
H664 H 0.27015 0.85151 0.93619 0.0
H665 H 0.19262 0.8343 0.95696 0.0
H666 H 0.26315 0.82125 0.88136 0.0
H667 H 0.27306 0.79924 0.90442 0.0
H668 H 0.28627 0.83225 0.90461 0.0
H669 H 0.16956 0.79901 0.90743 0.0
H670 H 0.16342 0.80303 0.93885 0.0
H671 H 0.17791 0.77664 0.93094 0.0
C672 C 0.05837 0.55731 0.41085 0.0
C673 C 0.03473 0.54437 0.41802 0.0
C674 C 0.07136 0.54896 0.39206 0.0
C675 C 0.06054 0.52701 0.38027 0.0
C676 C 0.03754 0.51287 0.38871 0.0
C677 C 0.02489 0.52174 0.40751 0.0
C678 C 0.09589 0.56458 0.38378 0.0
C679 C 0.02552 0.48922 0.37693 0.0
C680 C 0.07681 0.5314 0.31354 0.0
C681 C 0.09749 0.51816 0.3139 0.0
C682 C 0.06372 0.53309 0.33477 0.0
C683 C 0.07144 0.52125 0.3571 0.0
C684 C 0.0911 0.50625 0.35728 0.0
C685 C 0.10394 0.50485 0.3356 0.0
C686 C 0.04274 0.54908 0.33355 0.0
C687 C 0.0997 0.49306 0.38062 0.0
H688 H 0.06618 0.5746 0.41924 0.0
H689 H 0.00677 0.51154 0.41334 0.0
H690 H 0.11066 0.55238 0.38247 0.0
H691 H 0.09292 0.57367 0.36529 0.0
H692 H 0.10305 0.57959 0.39632 0.0
H693 H 0.01002 0.47832 0.38796 0.0
H694 H 0.01751 0.49441 0.35863 0.0
H695 H 0.03989 0.47689 0.3743 0.0
H696 H 0.07159 0.54154 0.29675 0.0
H697 H 0.12 0.49472 0.33603 0.0
H698 H 0.04882 0.56613 0.34384 0.0
H699 H 0.02553 0.53846 0.34218 0.0
H700 H 0.03765 0.55527 0.31448 0.0
H701 H 0.11084 0.5072 0.39216 0.0
H702 H 0.11177 0.47873 0.37707 0.0
H703 H 0.08319 0.48371 0.39121 0.0
C704 C 0.81542 0.80634 0.88789 0.0
C705 C 0.82232 0.80109 0.86461 0.0
C706 C 0.8129 0.78756 0.9073 0.0
C707 C 0.81781 0.76295 0.90358 0.0
C708 C 0.82649 0.75802 0.88069 0.0
C709 C 0.82828 0.77692 0.86148 0.0
C710 C 0.80334 0.79362 0.9313 0.0
C711 C 0.83224 0.73219 0.87592 0.0
C712 C 0.816 0.71394 0.95831 0.0
C713 C 0.79095 0.7015 0.95624 0.0
C714 C 0.82538 0.7338 0.94114 0.0
C715 C 0.80925 0.74144 0.92169 0.0
C716 C 0.78427 0.72846 0.91926 0.0
C717 C 0.77562 0.70867 0.93626 0.0
C718 C 0.85233 0.74687 0.944 0.0
C719 C 0.76628 0.73577 0.8989 0.0
H720 H 0.81139 0.82501 0.89087 0.0
H721 H 0.8333 0.77224 0.84366 0.0
H722 H 0.7836 0.78385 0.93353 0.0
H723 H 0.81499 0.78667 0.94678 0.0
H724 H 0.80351 0.81421 0.9324 0.0
H725 H 0.84314 0.73263 0.85907 0.0
H726 H 0.84316 0.72445 0.89155 0.0
H727 H 0.81422 0.71904 0.87375 0.0
H728 H 0.82803 0.7086 0.97357 0.0
H729 H 0.75635 0.69906 0.93402 0.0
H730 H 0.85239 0.76672 0.94835 0.0
H731 H 0.8623 0.74738 0.92662 0.0
H732 H 0.86307 0.73741 0.95874 0.0
H733 H 0.76387 0.75583 0.89975 0.0
H734 H 0.74729 0.72396 0.89982 0.0
H735 H 0.77421 0.73387 0.88091 0.0
C736 C 0.98186 0.98522 0.42898 0.0
C737 C 1.00291 1.00113 0.43804 0.0
C738 C 0.97109 0.99048 0.40577 0.0
C739 C 0.98181 0.01206 0.39115 0.0
C740 C 1.00304 0.02827 0.4003 0.0
C741 C 0.01345 0.02251 0.42361 0.0
C742 C 0.94857 0.97258 0.39665 0.0
C743 C 0.01508 0.05133 0.38527 0.0
C744 C 0.96841 0.00446 0.32367 0.0
C745 C 0.94687 0.0163 0.31927 0.0
C746 C 0.98099 0.0044 0.34658 0.0
C747 C 0.97176 0.01638 0.3657 0.0
C748 C 0.95121 0.03004 0.36086 0.0
C749 C 0.93902 0.02992 0.33761 0.0
C750 C 1.003 0.98986 0.35078 0.0
C751 C 0.94092 0.0432 0.38071 0.0
H752 H 0.97396 0.96852 0.44003 0.0
H753 H 0.02996 0.03462 0.43054 0.0
H754 H 0.93274 0.9831 0.39103 0.0
H755 H 0.95374 0.96373 0.38032 0.0
H756 H 0.94175 0.95736 0.4107 0.0
H757 H 0.03034 0.06295 0.39566 0.0
H758 H 0.02329 0.04548 0.36877 0.0
H759 H 1.00057 0.06323 0.37892 0.0
H760 H 0.9747 0.99407 0.30948 0.0
H761 H 0.92229 0.03896 0.33439 0.0
H762 H 0.99713 0.97255 0.36274 0.0
H763 H 0.01909 1.0013 0.36021 0.0
H764 H 0.0097 0.98418 0.33344 0.0
H765 H 0.93091 0.02887 0.39397 0.0
H766 H 0.9274 0.05583 0.3733 0.0
H767 H 0.95656 0.05448 0.39088 0.0
C768 C 0.22679 0.27797 0.6374 0.0
C769 C 0.20497 0.26765 0.6501 0.0
C770 C 0.2371 0.26396 0.62076 0.0
C771 C 0.22537 0.23897 0.61686 0.0
C772 C 0.20409 0.22806 0.63064 0.0
C773 C 0.1942 0.24251 0.64716 0.0
C774 C 0.25987 0.27627 0.60658 0.0
C775 C 0.19106 0.20147 0.62717 0.0
C776 C 0.22926 0.21366 0.55454 0.0
C777 C 0.24712 0.19707 0.55885 0.0
C778 C 0.22247 0.22765 0.57312 0.0
C779 C 0.23372 0.22512 0.59679 0.0
C780 C 0.25218 0.20888 0.60124 0.0
C781 C 0.25868 0.19506 0.58223 0.0
C782 C 0.20278 0.2448 0.5675 0.0
C783 C 0.26463 0.20569 0.62621 0.0
H784 H 0.23531 0.29732 0.63997 0.0
H785 H 0.17754 0.2344 0.65726 0.0
H786 H 0.27464 0.2638 0.60759 0.0
H787 H 0.25423 0.27926 0.58704 0.0
H788 H 0.26825 0.29481 0.61342 0.0
H789 H 0.17613 0.19503 0.64069 0.0
H790 H 0.18218 0.20053 0.60856 0.0
H791 H 0.20507 0.18817 0.62874 0.0
H792 H 0.22021 0.21554 0.5366 0.0
H793 H 0.27245 0.18231 0.58584 0.0
H794 H 0.21051 0.26433 0.57213 0.0
H795 H 0.18601 0.23834 0.57887 0.0
H796 H 0.19641 0.24527 0.54798 0.0
H797 H 0.27319 0.22436 0.63254 0.0
H798 H 0.2796 0.19345 0.6264 0.0
H799 H 0.25016 0.19719 0.63954 0.0
C800 C 0.5044 0.5261 0.60308 0.0
C801 C 0.52158 0.54858 0.60052 0.0
C802 C 0.48999 0.5201 0.62413 0.0
C803 C 0.49337 0.53666 0.64336 0.0
C804 C 0.51114 0.55915 0.64101 0.0
C805 C 0.52476 0.56502 0.61945 0.0
C806 C 0.47082 0.49625 0.62562 0.0
C807 C 0.51583 0.57698 0.66129 0.0
C808 C 0.44059 0.53344 0.68861 0.0
C809 C 0.44853 0.51741 0.70773 0.0
C810 C 0.45495 0.5398 0.66755 0.0
C811 C 0.47818 0.5305 0.66584 0.0
C812 C 0.48664 0.51492 0.68543 0.0
C813 C 0.47154 0.50826 0.70595 0.0
C814 C 0.44491 0.55593 0.64683 0.0
C815 C 0.5116 0.50518 0.68467 0.0
H816 H 0.50183 0.51352 0.5883 0.0
H817 H 0.53813 0.58237 0.61744 0.0
H818 H 0.47547 0.48369 0.64156 0.0
H819 H 0.45169 0.50097 0.62837 0.0
H820 H 0.47009 0.48569 0.60889 0.0
H821 H 0.53104 0.59313 0.65701 0.0
H822 H 0.4982 0.58452 0.66466 0.0
H823 H 0.52125 0.56668 0.67848 0.0
H824 H 0.42268 0.54032 0.68975 0.0
H825 H 0.47783 0.49595 0.72073 0.0
H826 H 0.44236 0.54541 0.63003 0.0
H827 H 0.45874 0.57324 0.64282 0.0
H828 H 0.42649 0.56158 0.65097 0.0
H829 H 0.51105 0.49258 0.66948 0.0
H830 H 0.51617 0.49452 0.70198 0.0
H831 H 0.52715 0.52116 0.68113 0.0
C832 C 0.8094 0.26047 0.63983 0.0
C833 C 0.83066 0.27019 0.65391 0.0
C834 C 0.8018 0.27403 0.61866 0.0
C835 C 0.81589 0.29782 0.6114 0.0
C836 C 0.83817 0.30704 0.6249 0.0
C837 C 0.84532 0.29307 0.64598 0.0
C838 C 0.77803 0.26345 0.60473 0.0
C839 C 0.85379 0.33222 0.61773 0.0
C840 C 0.80334 0.32786 0.54783 0.0
C841 C 0.78657 0.34438 0.55282 0.0
C842 C 0.81319 0.31263 0.56669 0.0
C843 C 0.80611 0.314 0.59107 0.0
C844 C 0.78939 0.33084 0.59619 0.0
C845 C 0.77984 0.34578 0.57704 0.0
C846 C 0.83097 0.29493 0.56053 0.0
C847 C 0.78139 0.33295 0.62192 0.0
H848 H 0.79824 0.24264 0.64589 0.0
H849 H 0.86193 0.30045 0.65675 0.0
H850 H 0.76317 0.27545 0.60658 0.0
H851 H 0.78175 0.26369 0.58499 0.0
H852 H 0.77053 0.2438 0.61143 0.0
H853 H 0.87175 0.33563 0.62877 0.0
H854 H 0.85838 0.33334 0.59814 0.0
H855 H 0.84269 0.34761 0.62029 0.0
H856 H 0.80861 0.32665 0.52917 0.0
H857 H 0.76692 0.35849 0.58108 0.0
H858 H 0.82265 0.27515 0.56586 0.0
H859 H 0.84916 0.29906 0.57103 0.0
H860 H 0.83498 0.29642 0.54074 0.0
H861 H 0.77162 0.31438 0.62937 0.0
H862 H 0.76847 0.34715 0.62286 0.0
H863 H 0.79832 0.3383 0.63391 0.0
C864 C 0.53596 1.00262 0.59907 0.0
C865 C 0.50979 1.00193 0.60133 0.0
C866 C 0.55272 0.00508 0.61952 0.0
C867 C 0.5431 0.00652 0.64294 0.0
C868 C 0.51663 0.00547 0.64538 0.0
C869 C 0.50035 1.00342 0.62454 0.0
C870 C 0.5808 0.00663 0.61596 0.0
C871 C 0.50552 0.00661 0.67002 0.0
C872 C 0.58569 0.99406 0.69892 0.0
C873 C 0.59492 0.01868 0.70543 0.0
C874 C 0.56859 0.98974 0.67883 0.0
C875 C 0.56086 0.01052 0.66463 0.0
C876 C 0.5703 0.03537 0.67099 0.0
C877 C 0.58694 0.03911 0.69133 0.0
C878 C 0.55867 0.96294 0.67288 0.0
C879 C 0.56297 0.05811 0.65619 0.0
H880 H 0.5434 1.00166 0.58116 0.0
H881 H 0.48012 1.00257 0.62646 0.0
H882 H 0.5909 0.02504 0.62165 0.0
H883 H 0.58837 0.99161 0.62764 0.0
H884 H 0.5852 0.00469 0.59667 0.0
H885 H 0.48448 0.00421 0.66905 0.0
H886 H 0.51148 0.99166 0.68301 0.0
H887 H 0.5128 0.02503 0.67758 0.0
H888 H 0.59158 0.97813 0.70969 0.0
H889 H 0.59393 0.05826 0.69601 0.0
H890 H 0.56408 0.95979 0.6542 0.0
H891 H 0.53766 0.95962 0.67311 0.0
H892 H 0.56605 0.94884 0.68596 0.0
H893 H 0.56816 0.05771 0.63689 0.0
H894 H 0.57235 0.07621 0.66327 0.0
H895 H 0.54215 0.05763 0.65632 0.0
C896 C 0.90908 0.21414 0.74871 0.0
C897 C 0.88365 0.20329 0.75175 0.0
C898 C 0.92556 0.21938 0.76897 0.0
C899 C 0.91651 0.21349 0.79291 0.0
C900 C 0.89124 0.20146 0.79605 0.0
C901 C 0.87508 0.1968 0.77553 0.0
C902 C 0.9525 0.23184 0.76474 0.0
C903 C 0.88074 0.1946 0.82108 0.0
C904 C 0.96567 0.21372 0.84534 0.0
C905 C 0.96674 0.23815 0.85308 0.0
C906 C 0.94893 0.20512 0.82621 0.0
C907 C 0.93301 0.22143 0.81449 0.0
C908 C 0.93373 0.24597 0.82263 0.0
C909 C 0.95092 0.25416 0.84149 0.0
C910 C 0.94882 0.17888 0.81806 0.0
C911 C 0.91684 0.26384 0.81096 0.0
H912 H 0.91607 0.21882 0.73045 0.0
H913 H 0.85541 0.18883 0.77825 0.0
H914 H 0.95554 0.25096 0.77177 0.0
H915 H 0.96596 0.22081 0.77491 0.0
H916 H 0.9571 0.23369 0.74509 0.0
H917 H 0.86275 0.1811 0.82054 0.0
H918 H 0.89459 0.18623 0.83348 0.0
H919 H 0.87691 0.21202 0.8288 0.0
H920 H 0.97827 0.20149 0.854 0.0
H921 H 0.95251 0.27342 0.84671 0.0
H922 H 0.95511 0.18008 0.79896 0.0
H923 H 0.9293 0.1682 0.81834 0.0
H924 H 0.96145 0.16813 0.82979 0.0
H925 H 0.92134 0.26816 0.79142 0.0
H926 H 0.91899 0.28188 0.82007 0.0
H927 H 0.89671 0.25483 0.8117 0.0
C928 C 0.51423 0.92234 0.50746 0.0
C929 C 0.49816 0.93872 0.49689 0.0
C930 C 0.51662 0.89981 0.49679 0.0
C931 C 0.50247 0.89342 0.47512 0.0
C932 C 0.48598 0.90982 0.46457 0.0
C933 C 0.48394 0.93218 0.47565 0.0
C934 C 0.53421 0.88279 0.50876 0.0
C935 C 0.47041 0.9037 0.44159 0.0
C936 C 0.52098 0.84558 0.43363 0.0
C937 C 0.5031 0.82418 0.43958 0.0
C938 C 0.52156 0.86806 0.44556 0.0
C939 C 0.50397 0.86913 0.46395 0.0
C940 C 0.4867 0.84723 0.47076 0.0
C941 C 0.48645 0.82515 0.45852 0.0
C942 C 0.54031 0.89097 0.43777 0.0
C943 C 0.46775 0.84736 0.49039 0.0
H944 H 0.52507 0.92731 0.524 0.0
H945 H 0.47134 0.94472 0.46757 0.0
H946 H 0.52333 0.864 0.51409 0.0
H947 H 0.54851 0.87979 0.49564 0.0
H948 H 0.54426 0.89068 0.52527 0.0
H949 H 0.45897 0.9187 0.43536 0.0
H950 H 0.48301 0.90118 0.42671 0.0
H951 H 0.45739 0.88564 0.44479 0.0
H952 H 0.53385 0.84513 0.419 0.0
H953 H 0.47267 0.8087 0.46348 0.0
H954 H 0.55109 0.89881 0.45391 0.0
H955 H 0.53 0.90591 0.42915 0.0
H956 H 0.55393 0.88662 0.42455 0.0
H957 H 0.47754 0.85435 0.50734 0.0
H958 H 0.45683 0.82832 0.49476 0.0
H959 H 0.45421 0.86043 0.48431 0.0
C960 C 0.14101 0.30649 0.75101 0.0
C961 C 0.16547 0.31978 0.75516 0.0
C962 C 0.12262 0.30338 0.76902 0.0
C963 C 0.12838 0.31458 0.79154 0.0
C964 C 0.1526 0.32882 0.79557 0.0
C965 C 0.17095 0.3308 0.77764 0.0
C966 C 0.09725 0.28747 0.76419 0.0
C967 C 0.15936 0.34157 0.81909 0.0
C968 C 0.0724 0.31943 0.83105 0.0
C969 C 0.07346 0.29913 0.84844 0.0
C970 C 0.09063 0.32525 0.81285 0.0
C971 C 0.10974 0.30983 0.81151 0.0
C972 C 0.11084 0.28937 0.8291 0.0
C973 C 0.09298 0.28455 0.84753 0.0
C974 C 0.08935 0.34776 0.79497 0.0
C975 C 0.13039 0.27199 0.82801 0.0
H976 H 0.13614 0.29833 0.73366 0.0
H977 H 0.18978 0.34062 0.7816 0.0
H978 H 0.09432 0.27118 0.77796 0.0
H979 H 0.08175 0.29867 0.76602 0.0
H980 H 0.09565 0.28016 0.74569 0.0
H981 H 0.17779 0.35439 0.81824 0.0
H982 H 0.1444 0.35264 0.82335 0.0
H983 H 0.16055 0.32711 0.8344 0.0
H984 H 0.05735 0.33074 0.83169 0.0
H985 H 0.09372 0.26861 0.86071 0.0
H986 H 0.08519 0.34138 0.77628 0.0
H987 H 0.10795 0.36028 0.79466 0.0
H988 H 0.07455 0.35891 0.79954 0.0
H989 H 0.12855 0.26327 0.81018 0.0
H990 H 0.12843 0.25667 0.84285 0.0
H991 H 0.14975 0.28286 0.82938 0.0
C992 C 0.53852 0.62918 0.53556 0.0
C993 C 0.54017 0.60629 0.52539 0.0
C994 C 0.53277 0.65025 0.52089 0.0
C995 C 0.52839 0.64839 0.49542 0.0
C996 C 0.53031 0.62542 0.48501 0.0
C997 C 0.53625 0.60471 0.50009 0.0
C998 C 0.53116 0.67444 0.53268 0.0
C999 C 0.52561 0.62257 0.45798 0.0
C1000 C 0.48888 0.69326 0.46046 0.0
C1001 C 0.50749 0.7107 0.44847 0.0
C1002 C 0.49544 0.67307 0.47591 0.0
C1003 C 0.52126 0.67026 0.47971 0.0
C1004 C 0.54018 0.68804 0.46809 0.0
C1005 C 0.53308 0.70795 0.45257 0.0
C1006 C 0.47466 0.65446 0.48783 0.0
C1007 C 0.56793 0.68585 0.47181 0.0
H1008 H 0.54181 0.63064 0.55505 0.0
H1009 H 0.53718 0.58701 0.49213 0.0
H1010 H 0.54435 0.69025 0.52392 0.0
H1011 H 0.51175 0.67927 0.52995 0.0
H1012 H 0.53583 0.67306 0.55259 0.0
H1013 H 0.52834 0.60364 0.45266 0.0
H1014 H 0.50596 0.62554 0.45271 0.0
H1015 H 0.5386 0.63714 0.4474 0.0
H1016 H 0.46905 0.69505 0.45742 0.0
H1017 H 0.54766 0.7213 0.44352 0.0
H1018 H 0.47769 0.65353 0.50796 0.0
H1019 H 0.47518 0.63528 0.48181 0.0
H1020 H 0.45553 0.6595 0.48335 0.0
H1021 H 0.57324 0.68544 0.49157 0.0
H1022 H 0.58037 0.70172 0.46219 0.0
H1023 H 0.57163 0.66786 0.46503 0.0
C1024 C 0.87095 0.81399 0.7286 0.0
C1025 C 0.87166 0.81577 0.75397 0.0
C1026 C 0.89063 0.8055 0.71696 0.0
C1027 C 0.91156 0.79846 0.73103 0.0
C1028 C 0.91282 0.80105 0.75658 0.0
C1029 C 0.8927 0.80938 0.76779 0.0
C1030 C 0.88831 0.80273 0.68976 0.0
C1031 C 0.93481 0.79387 0.77224 0.0
C1032 C 0.943 0.74715 0.70648 0.0
C1033 C 0.96444 0.76098 0.69519 0.0
C1034 C 0.92599 0.75912 0.71843 0.0
C1035 C 0.93047 0.7857 0.71942 0.0
C1036 C 0.95229 0.79984 0.70853 0.0
C1037 C 0.96896 0.78734 0.69643 0.0
C1038 C 0.90287 0.74328 0.72957 0.0
C1039 C 0.95781 0.82818 0.70941 0.0
H1040 H 0.85448 0.81843 0.71792 0.0
H1041 H 0.89308 0.81021 0.78746 0.0
H1042 H 0.90593 0.81191 0.6808 0.0
H1043 H 0.88567 0.78241 0.68619 0.0
H1044 H 0.87207 0.81109 0.68114 0.0
H1045 H 0.93454 0.79989 0.79114 0.0
H1046 H 0.9341 0.77307 0.77319 0.0
H1047 H 0.95305 0.80245 0.76406 0.0
H1048 H 0.93913 0.72681 0.70562 0.0
H1049 H 0.98545 0.79824 0.68787 0.0
H1050 H 0.88544 0.74904 0.72068 0.0
H1051 H 0.9024 0.74641 0.74927 0.0
H1052 H 0.90239 0.72277 0.72763 0.0
H1053 H 0.94252 0.83689 0.69943 0.0
H1054 H 0.9762 0.83631 0.7012 0.0
H1055 H 0.95816 0.83343 0.7286 0.0
C1056 C 0.03135 0.91477 0.53827 0.0
C1057 C 0.05456 0.92042 0.52656 0.0
C1058 C 0.02552 0.89252 0.5534 0.0
C1059 C 0.04311 0.87524 0.55645 0.0
C1060 C 0.06637 0.88067 0.54423 0.0
C1061 C 0.07194 0.90334 0.52967 0.0
C1062 C 1.00079 0.88776 0.56652 0.0
C1063 C 0.08543 0.86255 0.54661 0.0
C1064 C 0.04209 0.82992 0.61309 0.0
C1065 C 0.02896 0.80746 0.60443 0.0
C1066 C 0.04626 0.85222 0.59783 0.0
C1067 C 0.03762 0.85195 0.5731 0.0
C1068 C 0.02422 0.82933 0.56427 0.0
C1069 C 0.01978 0.80741 0.58014 0.0
C1070 C 0.06008 0.87604 0.60815 0.0
C1071 C 0.01513 0.82813 0.53792 0.0
H1072 H 0.01798 0.92808 0.53602 0.0
H1073 H 0.0898 0.90761 0.52044 0.0
H1074 H 0.98967 0.86948 0.56171 0.0
H1075 H 1.00461 0.88641 0.58655 0.0
H1076 H 0.98906 0.90293 0.562 0.0
H1077 H 0.10198 0.8689 0.5349 0.0
H1078 H 0.09237 0.86056 0.56587 0.0
H1079 H 0.07631 0.84355 0.54155 0.0
H1080 H 0.04908 0.8301 0.63191 0.0
H1081 H 0.00976 0.79005 0.57333 0.0
H1082 H 0.04853 0.89152 0.60495 0.0
H1083 H 0.07816 0.88219 0.59868 0.0
H1084 H 0.06438 0.87343 0.62806 0.0
H1085 H 1.0024 0.84234 0.53325 0.0
H1086 H 1.00483 0.80918 0.53396 0.0
H1087 H 0.03155 0.8328 0.52581 0.0
C1088 C 0.13923 0.70838 0.80431 0.0
C1089 C 0.16291 0.70396 0.7969 0.0
C1090 C 0.11887 0.70961 0.78747 0.0
C1091 C 0.122 0.70579 0.76264 0.0
C1092 C 0.14547 0.70026 0.75517 0.0
C1093 C 0.16569 0.6996 0.77233 0.0
C1094 C 0.09423 0.71572 0.79617 0.0
C1095 C 0.14943 0.69568 0.72891 0.0
C1096 C 0.0623 0.6906 0.72277 0.0
C1097 C 0.06085 0.714 0.71003 0.0
C1098 C 0.08228 0.68754 0.73967 0.0
C1099 C 0.10099 0.7085 0.74436 0.0
C1100 C 0.09945 0.73225 0.73182 0.0
C1101 C 0.07955 0.73466 0.71468 0.0
C1102 C 0.08347 0.66182 0.75235 0.0
C1103 C 0.11877 0.75518 0.73663 0.0
H1104 H 0.13664 0.7112 0.82332 0.0
H1105 H 0.18391 0.69641 0.7663 0.0
H1106 H 0.09004 0.73362 0.78665 0.0
H1107 H 0.07838 0.7007 0.79162 0.0
H1108 H 0.09471 0.71773 0.81618 0.0
H1109 H 0.16812 0.68976 0.72641 0.0
H1110 H 0.13429 0.68087 0.72242 0.0
H1111 H 0.14823 0.71319 0.71718 0.0
H1112 H 0.04804 0.67448 0.71926 0.0
H1113 H 0.07854 0.75285 0.70506 0.0
H1114 H 0.08255 0.66276 0.77239 0.0
H1115 H 0.10178 0.65568 0.74879 0.0
H1116 H 0.06779 0.6473 0.74624 0.0
H1117 H 0.11914 0.75891 0.75626 0.0
H1118 H 0.11471 0.77236 0.7256 0.0
H1119 H 0.13797 0.75166 0.73237 0.0
C1120 C 0.01237 0.61453 0.52147 0.0
C1121 C 1.00575 0.5891 0.52965 0.0
C1122 C 0.01685 0.63357 0.53814 0.0
C1123 C 0.01491 0.62697 0.56356 0.0
C1124 C 0.00976 0.60112 0.57178 0.0
C1125 C 1.00492 0.58259 0.55477 0.0
C1126 C 0.02278 0.66081 0.52851 0.0
C1127 C 0.00794 0.59284 0.59847 0.0
C1128 C 0.04142 0.67612 0.60862 0.0
C1129 C 0.01971 0.68621 0.61376 0.0
C1130 C 0.04016 0.65666 0.59257 0.0
C1131 C 0.01661 0.64709 0.58131 0.0
C1132 C 0.9946 0.65714 0.58666 0.0
C1133 C 0.99653 0.67689 0.60241 0.0
C1134 C 0.06408 0.64659 0.58735 0.0
C1135 C 0.96904 0.64727 0.57544 0.0
H1136 H 0.01302 0.61959 0.50201 0.0
H1137 H 1.00005 0.5629 0.56114 0.0
H1138 H 0.00698 0.67095 0.5324 0.0
H1139 H 0.0401 0.67028 0.53789 0.0
H1140 H 0.02566 0.66269 0.50851 0.0
H1141 H 0.01057 0.57278 0.60212 0.0
H1142 H 0.02216 0.60473 0.60964 0.0
H1143 H 0.98878 0.59472 0.60426 0.0
H1144 H 0.05948 0.68368 0.61699 0.0
H1145 H 0.97997 0.68546 0.60544 0.0
H1146 H 0.0678 0.64952 0.56754 0.0
H1147 H 0.06174 0.62595 0.59216 0.0
H1148 H 0.08085 0.65589 0.59769 0.0
H1149 H 0.95367 0.65663 0.58194 0.0
H1150 H 0.96438 0.62663 0.57994 0.0
H1151 H 0.96954 0.65028 0.55525 0.0
C1152 C 0.74012 0.8867 0.22611 0.0
C1153 C 0.74395 0.86252 0.22045 0.0
C1154 C 0.76062 0.90633 0.22849 0.0
C1155 C 0.78557 0.90181 0.22486 0.0
C1156 C 0.78938 0.87783 0.21802 0.0
C1157 C 0.76866 0.85842 0.21628 0.0
C1158 C 0.7556 0.93177 0.23534 0.0
C1159 C 0.81543 0.87211 0.21361 0.0
C1160 C 0.83699 0.95919 0.21615 0.0
C1161 C 0.84719 0.96136 0.23995 0.0
C1162 C 0.81734 0.93952 0.21077 0.0
C1163 C 0.80765 0.92173 0.2297 0.0
C1164 C 0.81828 0.92367 0.25368 0.0
C1165 C 0.83755 0.94375 0.25859 0.0
C1166 C 0.8065 0.93818 0.18499 0.0
C1167 C 0.80883 0.90489 0.27432 0.0
H1168 H 0.72107 0.89031 0.2288 0.0
H1169 H 0.77203 0.8398 0.21226 0.0
H1170 H 0.76419 0.94684 0.22196 0.0
H1171 H 0.73502 0.93268 0.23609 0.0
H1172 H 0.76458 0.93588 0.25348 0.0
H1173 H 0.81472 0.85508 0.20313 0.0
H1174 H 0.82701 0.88828 0.20364 0.0
H1175 H 0.82492 0.86853 0.23151 0.0
H1176 H 0.84412 0.97314 0.20183 0.0
H1177 H 0.84462 0.94608 0.27719 0.0
H1178 H 0.78626 0.9407 0.18465 0.0
H1179 H 0.80727 0.91932 0.17834 0.0
H1180 H 0.8168 0.95284 0.17218 0.0
H1181 H 0.78857 0.90567 0.27729 0.0
H1182 H 0.81974 0.90851 0.29171 0.0
H1183 H 0.8102 0.88545 0.2695 0.0
C1184 C 0.76573 0.14243 0.29327 0.0
C1185 C 0.77282 0.15868 0.31203 0.0
C1186 C 0.77987 0.12324 0.28909 0.0
C1187 C 0.8015 0.12008 0.30418 0.0
C1188 C 0.80792 0.13566 0.32396 0.0
C1189 C 0.79345 0.15472 0.32768 0.0
C1190 C 0.77225 0.10701 0.2679 0.0
C1191 C 0.83068 0.13285 0.34058 0.0
C1192 C 0.8299 0.05939 0.30132 0.0
C1193 C 0.84959 0.06713 0.28501 0.0
C1194 C 0.81427 0.07644 0.30801 0.0
C1195 C 0.8184 0.10183 0.29815 0.0
C1196 C 0.83851 0.10979 0.28199 0.0
C1197 C 0.85382 0.0924 0.27565 0.0
C1198 C 0.79309 0.06721 0.32533 0.0
C1199 C 0.84364 0.13666 0.27107 0.0
H1200 H 0.74958 0.14531 0.28136 0.0
H1201 H 0.79873 0.16709 0.34239 0.0
H1202 H 0.78712 0.11084 0.25403 0.0
H1203 H 0.77057 0.08671 0.27412 0.0
H1204 H 0.75395 0.11059 0.25903 0.0
H1205 H 0.8319 0.14496 0.35628 0.0
H1206 H 0.82999 0.1129 0.34771 0.0
H1207 H 0.84825 0.13809 0.33011 0.0
H1208 H 0.82647 0.03992 0.30864 0.0
H1209 H 0.86897 0.09859 0.26305 0.0
H1210 H 0.77457 0.06905 0.31602 0.0
H1211 H 0.79494 0.07902 0.34124 0.0
H1212 H 0.79292 0.04718 0.33208 0.0
H1213 H 0.82684 0.14118 0.26005 0.0
H1214 H 0.86033 0.14 0.25921 0.0
H1215 H 0.84699 0.14997 0.28581 0.0
C1216 C 0.43693 0.99421 0.99533 0.0
C1217 C 0.44087 0.01984 1.00021 0.0
C1218 C 0.41251 0.98001 0.99538 0.0
C1219 C 0.39148 0.99159 1.0007 0.0
C1220 C 0.3954 0.01718 0.00647 0.0
C1221 C 0.41997 0.03102 0.00596 0.0
C1222 C 0.40911 0.9528 0.98897 0.0
C1223 C 0.37353 0.03019 0.01237 0.0
C1224 C 0.32809 0.96427 0.97238 0.0
C1225 C 0.31677 0.94847 0.99172 0.0
C1226 C 0.35214 0.97865 0.97526 0.0
C1227 C 0.36525 0.97756 0.99813 0.0
C1228 C 0.35362 0.96249 0.01804 0.0
C1229 C 0.32956 0.94802 0.01459 0.0
C1230 C 0.36387 0.99436 0.95349 0.0
C1231 C 0.36689 0.96116 0.04281 0.0
H1232 H 0.45294 0.98522 0.99132 0.0
H1233 H 0.42264 0.05088 0.00941 0.0
H1234 H 0.39875 0.94039 1.00348 0.0
H1235 H 0.39753 0.95057 0.97179 0.0
H1236 H 0.42749 0.94622 0.9865 0.0
H1237 H 0.38001 0.0493 0.01889 0.0
H1238 H 0.36113 0.03212 0.99584 0.0
H1239 H 0.36182 0.01872 0.02658 0.0
H1240 H 0.31853 0.96488 0.9546 0.0
H1241 H 0.32106 0.93594 0.02967 0.0
H1242 H 0.38148 0.98746 0.94884 0.0
H1243 H 0.3692 0.01434 0.95795 0.0
H1244 H 0.35089 0.9937 0.93713 0.0
H1245 H 0.3842 0.95234 0.04161 0.0
H1246 H 0.3546 0.95002 0.05683 0.0
H1247 H 0.37301 0.98046 0.04894 0.0
C1248 C 0.2667 0.37366 0.29118 0.0
C1249 C 0.27479 0.36691 0.31516 0.0
C1250 C 0.24956 0.39095 0.2864 0.0
C1251 C 0.23924 0.40123 0.30603 0.0
C1252 C 0.24639 0.39379 0.33031 0.0
C1253 C 0.2643 0.37711 0.33457 0.0
C1254 C 0.24292 0.39864 0.2602 0.0
C1255 C 0.23535 0.40371 0.35183 0.0
C1256 C 0.21548 0.46443 0.29272 0.0
C1257 C 0.1896 0.45691 0.28739 0.0
C1258 C 0.23172 0.44656 0.29909 0.0
C1259 C 0.22177 0.42046 0.30098 0.0
C1260 C 0.19542 0.41283 0.29667 0.0
C1261 C 0.17975 0.4311 0.2895 0.0
C1262 C 0.25973 0.4556 0.3028 0.0
C1263 C 0.18383 0.38533 0.29925 0.0
H1264 H 0.27378 0.36548 0.27592 0.0
H1265 H 0.27038 0.37249 0.35318 0.0
H1266 H 0.22223 0.39372 0.25661 0.0
H1267 H 0.24785 0.41942 0.25682 0.0
H1268 H 0.25298 0.38938 0.24697 0.0
H1269 H 0.24091 0.3943 0.36948 0.0
H1270 H 0.24188 0.4243 0.35229 0.0
H1271 H 0.21435 0.40089 0.34998 0.0
H1272 H 0.2233 0.48432 0.2909 0.0
H1273 H 0.15975 0.42516 0.28552 0.0
H1274 H 0.27044 0.44775 0.28907 0.0
H1275 H 0.26639 0.4487 0.32109 0.0
H1276 H 0.26442 0.47653 0.30109 0.0
H1277 H 0.19086 0.37498 0.28486 0.0
H1278 H 0.1628 0.3827 0.29773 0.0
H1279 H 0.1896 0.37664 0.31716 0.0
C1280 C 0.10871 0.02808 0.50828 0.0
C1281 C 0.11145 1.00271 0.50711 0.0
C1282 C 0.12967 0.04663 0.51226 0.0
C1283 C 0.15429 0.0399 0.51477 0.0
C1284 C 0.1571 0.01406 0.51474 0.0
C1285 C 0.13562 0.99574 0.51091 0.0
C1286 C 0.12516 0.07353 0.51241 0.0
C1287 C 0.18282 0.00584 0.51833 0.0
C1288 C 0.21108 0.08895 0.49636 0.0
C1289 C 0.21952 0.09861 0.51876 0.0
C1290 C 0.18964 0.07021 0.49476 0.0
C1291 C 0.17704 0.05994 0.51628 0.0
C1292 C 0.18601 0.06913 0.53908 0.0
C1293 C 0.20707 0.08841 0.54003 0.0
C1294 C 0.18045 0.0614 0.47002 0.0
C1295 C 0.17335 0.05858 0.56248 0.0
H1296 H 0.09 0.03353 0.50588 0.0
H1297 H 0.13782 0.97608 0.51021 0.0
H1298 H 0.13922 0.08476 0.52425 0.0
H1299 H 0.12654 0.08196 0.49342 0.0
H1300 H 0.10588 0.07465 0.51864 0.0
H1301 H 0.18158 0.98495 0.51987 0.0
H1302 H 0.19483 0.01352 0.50271 0.0
H1303 H 0.19249 0.01352 0.53507 0.0
H1304 H 0.22151 0.09579 0.48011 0.0
H1305 H 0.21396 0.09541 0.55748 0.0
H1306 H 0.16049 0.0644 0.46657 0.0
H1307 H 0.18086 0.04086 0.46958 0.0
H1308 H 0.19212 0.07149 0.45502 0.0
H1309 H 0.15353 0.06245 0.56192 0.0
H1310 H 0.18337 0.06683 0.57884 0.0
H1311 H 0.17258 0.03776 0.56442 0.0
C1312 C 0.80864 0.13141 0.72055 0.0
C1313 C 0.80561 0.15608 0.71201 0.0
C1314 C 0.78757 0.11234 0.72376 0.0
C1315 C 0.76283 0.11802 0.71831 0.0
C1316 C 0.75984 0.14255 0.70853 0.0
C1317 C 0.78114 0.16127 0.70577 0.0
C1318 C 0.79173 0.08626 0.73358 0.0
C1319 C 0.7341 0.1497 0.70228 0.0
C1320 C 0.70778 0.06387 0.71344 0.0
C1321 C 0.69829 0.06171 0.73702 0.0
C1322 C 0.7286 0.08227 0.70694 0.0
C1323 C 0.74015 0.0989 0.72446 0.0
C1324 C 0.73041 0.09686 0.74824 0.0
C1325 C 0.70999 0.07794 0.75435 0.0
C1326 C 0.73852 0.08365 0.68148 0.0
C1327 C 0.7418 0.11445 0.76736 0.0
H1328 H 0.82751 0.12706 0.725 0.0
H1329 H 0.77842 0.18031 0.69954 0.0
H1330 H 0.78172 0.07184 0.72165 0.0
H1331 H 0.81214 0.0843 0.73497 0.0
H1332 H 0.78369 0.0821 0.752 0.0
H1333 H 0.7352 0.16662 0.68922 0.0
H1334 H 0.72116 0.13399 0.69432 0.0
H1335 H 0.72594 0.15425 0.71929 0.0
H1336 H 0.69909 0.05093 0.70017 0.0
H1337 H 0.70349 0.07549 0.77292 0.0
H1338 H 0.7586 0.08055 0.6824 0.0
H1339 H 0.73801 0.10274 0.67245 0.0
H1340 H 0.7274 0.06944 0.66997 0.0
H1341 H 0.76191 0.11225 0.77123 0.0
H1342 H 0.73153 0.11087 0.78474 0.0
H1343 H 0.74147 0.13434 0.76044 0.0
C1344 C 0.41122 0.01769 0.54896 0.0
C1345 C 0.43696 0.0281 0.54924 0.0
C1346 C 0.39222 0.0331 0.54462 0.0
C1347 C 0.39909 0.05953 0.53969 0.0
C1348 C 0.42515 0.07003 0.5395 0.0
C1349 C 0.44374 0.05425 0.54463 0.0
C1350 C 0.36475 0.02112 0.54571 0.0
C1351 C 0.43342 0.09793 0.53372 0.0
C1352 C 0.34855 0.095 0.50801 0.0
C1353 C 0.34006 0.10669 0.52745 0.0
C1354 C 0.36816 0.08016 0.51158 0.0
C1355 C 0.37902 0.0762 0.5353 0.0
C1356 C 0.37037 0.08789 0.55499 0.0
C1357 C 0.35133 0.10324 0.55077 0.0
C1358 C 0.37724 0.06869 0.48993 0.0
C1359 C 0.38083 0.0837 0.58069 0.0
H1360 H 0.40597 0.99748 0.55262 0.0
H1361 H 0.46365 0.06229 0.54466 0.0
H1362 H 0.35516 0.02983 0.55969 0.0
H1363 H 0.35486 0.02462 0.52792 0.0
H1364 H 0.36254 1.00041 0.55023 0.0
H1365 H 0.45436 0.10296 0.53311 0.0
H1366 H 0.425 0.10386 0.51582 0.0
H1367 H 0.42646 0.10887 0.54768 0.0
H1368 H 0.34 0.09764 0.48994 0.0
H1369 H 0.34471 0.11198 0.56595 0.0
H1370 H 0.37338 0.04779 0.49247 0.0
H1371 H 0.39805 0.07418 0.48849 0.0
H1372 H 0.3679 0.07469 0.47249 0.0
H1373 H 0.37773 0.06322 0.58636 0.0
H1374 H 0.37187 0.09383 0.59406 0.0
H1375 H 0.40158 0.09018 0.58144 0.0
C1376 C 0.62362 0.51259 0.52176 0.0
C1377 C 0.59878 0.49944 0.5225 0.0
C1378 C 0.64409 0.50038 0.51662 0.0
C1379 C 0.63957 0.47456 0.51148 0.0
C1380 C 0.61449 0.4613 0.51192 0.0
C1381 C 0.59445 0.4739 0.51736 0.0
C1382 C 0.67052 0.5152 0.51642 0.0
C1383 C 0.60874 0.43388 0.50622 0.0
C1384 C 0.68759 0.44896 0.47453 0.0
C1385 C 0.7005 0.43555 0.49264 0.0
C1386 C 0.66786 0.46178 0.48042 0.0
C1387 C 0.66094 0.4615 0.50507 0.0
C1388 C 0.67407 0.4483 0.52347 0.0
C1389 C 0.69355 0.43539 0.51705 0.0
C1390 C 0.65419 0.47537 0.46018 0.0
C1391 C 0.66746 0.44771 0.54999 0.0
H1392 H 0.62704 0.5325 0.52506 0.0
H1393 H 0.57522 0.46383 0.51731 0.0
H1394 H 0.68327 0.50561 0.52912 0.0
H1395 H 0.67823 0.516 0.49789 0.0
H1396 H 0.67102 0.53481 0.52179 0.0
H1397 H 0.58828 0.42618 0.50764 0.0
H1398 H 0.61462 0.43173 0.48745 0.0
H1399 H 0.61973 0.42235 0.51893 0.0
H1400 H 0.69265 0.44916 0.45561 0.0
H1401 H 0.70343 0.42524 0.53123 0.0
H1402 H 0.65557 0.49563 0.46366 0.0
H1403 H 0.63376 0.46734 0.4597 0.0
H1404 H 0.66196 0.47397 0.44197 0.0
H1405 H 0.66904 0.46726 0.5558 0.0
H1406 H 0.67993 0.43724 0.56219 0.0
H1407 H 0.64752 0.43866 0.55241 0.0
C1408 C 0.70556 0.2693 0.35867 0.0
C1409 C 0.71061 0.24509 0.36653 0.0
C1410 C 0.70848 0.28889 0.37454 0.0
C1411 C 0.71725 0.28452 0.39894 0.0
C1412 C 0.72241 0.2601 0.40706 0.0
C1413 C 0.71906 0.24069 0.39078 0.0
C1414 C 0.70285 0.31432 0.36444 0.0
C1415 C 0.73143 0.25445 0.43301 0.0
C1416 C 0.75059 0.33898 0.43461 0.0
C1417 C 0.73126 0.34382 0.44923 0.0
C1418 C 0.74605 0.32037 0.41761 0.0
C1419 C 0.7218 0.30552 0.4158 0.0
C1420 C 0.70212 0.31045 0.43042 0.0
C1421 C 0.70713 0.32947 0.44707 0.0
C1422 C 0.76729 0.31639 0.40178 0.0
C1423 C 0.67586 0.29549 0.42857 0.0
H1424 H 0.69956 0.27314 0.33984 0.0
H1425 H 0.72274 0.22198 0.39712 0.0
H1426 H 0.68594 0.31215 0.35184 0.0
H1427 H 0.69955 0.32672 0.37882 0.0
H1428 H 0.71917 0.32358 0.35359 0.0
H1429 H 0.73392 0.23436 0.43669 0.0
H1430 H 0.7498 0.26654 0.43677 0.0
H1431 H 0.71764 0.25898 0.44594 0.0
H1432 H 0.76953 0.34931 0.43696 0.0
H1433 H 0.69226 0.33295 0.45862 0.0
H1434 H 0.76139 0.3188 0.38223 0.0
H1435 H 0.77149 0.29683 0.40522 0.0
H1436 H 0.78494 0.32978 0.40513 0.0
H1437 H 0.66812 0.29767 0.40959 0.0
H1438 H 0.66263 0.30158 0.44119 0.0
H1439 H 0.6767 0.2751 0.43279 0.0
C1440 C 0.52768 0.01925 0.91225 0.0
C1441 C 0.53641 0.04354 0.91983 0.0
C1442 C 0.53979 0.00931 0.89371 0.0
C1443 C 0.56101 0.02411 0.88242 0.0
C1444 C 0.57067 0.04811 0.89102 0.0
C1445 C 0.55829 0.05748 0.90964 0.0
C1446 C 0.52907 0.98357 0.88535 0.0
C1447 C 0.59327 0.06455 0.87959 0.0
C1448 C 0.60539 1.00136 0.83927 0.0
C1449 C 0.59698 0.01162 0.81675 0.0
C1450 C 0.59277 1.00357 0.86088 0.0
C1451 C 0.57132 0.01626 0.85978 0.0
C1452 C 0.56154 0.02453 0.83674 0.0
C1453 C 0.57452 0.02217 0.81558 0.0
C1454 C 0.60364 0.99419 0.885 0.0
C1455 C 0.53861 0.03791 0.83454 0.0
H1456 H 0.51083 0.00842 0.92026 0.0
H1457 H 0.56519 0.07619 0.91559 0.0
H1458 H 0.51941 0.9857 0.8672 0.0
H1459 H 0.54446 0.97227 0.88328 0.0
H1460 H 0.51515 0.97296 0.89827 0.0
H1461 H 0.59969 0.08172 0.88965 0.0
H1462 H 0.60931 0.05377 0.87903 0.0
H1463 H 0.58828 0.07055 0.86046 0.0
H1464 H 0.62291 0.99346 0.84029 0.0
H1465 H 0.56796 0.03009 0.79817 0.0
H1466 H 0.58833 0.98485 0.8971 0.0
H1467 H 0.61406 0.01047 0.89438 0.0
H1468 H 0.61698 0.98071 0.88257 0.0
H1469 H 0.52289 0.02715 0.8453 0.0
H1470 H 0.53178 0.04061 0.81528 0.0
H1471 H 0.54349 0.05675 0.84204 0.0
C1472 C 0.29021 0.28486 0.37578 0.0
C1473 C 0.31285 0.29884 0.36712 0.0
C1474 C 0.2903 0.26701 0.39586 0.0
C1475 C 0.3136 0.263 0.4077 0.0
C1476 C 0.33647 0.27741 0.39937 0.0
C1477 C 0.33583 0.2951 0.37922 0.0
C1478 C 0.26544 0.25205 0.40411 0.0
C1479 C 0.36166 0.27388 0.41153 0.0
C1480 C 0.30549 0.22981 0.47112 0.0
C1481 C 0.30445 0.20449 0.46605 0.0
C1482 C 0.3103 0.24934 0.45263 0.0
C1483 C 0.31381 0.24332 0.42843 0.0
C1484 C 0.31467 0.21787 0.4237 0.0
C1485 C 0.30987 0.19875 0.44257 0.0
C1486 C 0.30939 0.27616 0.4586 0.0
C1487 C 0.31844 0.21054 0.39826 0.0
H1488 H 0.27241 0.28734 0.36642 0.0
H1489 H 0.35341 0.30605 0.3729 0.0
H1490 H 0.26554 0.23162 0.40234 0.0
H1491 H 0.26288 0.25459 0.42366 0.0
H1492 H 0.24894 0.25776 0.39333 0.0
H1493 H 0.37768 0.28709 0.40335 0.0
H1494 H 0.3614 0.27681 0.4313 0.0
H1495 H 0.36514 0.25424 0.40994 0.0
H1496 H 0.30054 0.23417 0.48911 0.0
H1497 H 0.30833 0.17911 0.43848 0.0
H1498 H 0.29146 0.282 0.451 0.0
H1499 H 0.32526 0.28928 0.45014 0.0
H1500 H 0.31029 0.2782 0.47862 0.0
H1501 H 0.30124 0.21263 0.3867 0.0
H1502 H 0.32192 0.19068 0.39818 0.0
H1503 H 0.33461 0.22317 0.38975 0.0
C1504 C 0.48338 0.4843 0.93056 0.0
C1505 C 0.50494 0.49987 0.93912 0.0
C1506 C 0.47262 0.48921 0.90725 0.0
C1507 C 0.48388 0.51006 0.89202 0.0
C1508 C 0.50569 0.52586 0.90062 0.0
C1509 C 0.51605 0.52048 0.92405 0.0
C1510 C 0.44946 0.47177 0.89875 0.0
C1511 C 0.51835 0.54813 0.88492 0.0
C1512 C 0.46956 0.50155 0.82471 0.0
C1513 C 0.4488 0.51452 0.82005 0.0
C1514 C 0.4821 0.50122 0.84765 0.0
C1515 C 0.47365 0.51409 0.86655 0.0
C1516 C 0.45384 0.52867 0.86151 0.0
C1517 C 0.44167 0.52879 0.83824 0.0
C1518 C 0.50331 0.48568 0.85206 0.0
C1519 C 0.44437 0.54276 0.88113 0.0
H1520 H 0.475 0.46818 0.9421 0.0
H1521 H 0.53294 0.53232 0.93059 0.0
H1522 H 0.43404 0.48278 0.89298 0.0
H1523 H 0.45402 0.4622 0.88263 0.0
H1524 H 0.44234 0.4571 0.91319 0.0
H1525 H 0.53426 0.55942 0.89481 0.0
H1526 H 0.52581 0.5414 0.86845 0.0
H1527 H 0.50436 0.56061 0.87852 0.0
H1528 H 0.47533 0.49065 0.81066 0.0
H1529 H 0.42556 0.53871 0.83484 0.0
H1530 H 0.49691 0.46888 0.8645 0.0
H1531 H 0.51994 0.49676 0.86107 0.0
H1532 H 0.50942 0.4791 0.83486 0.0
H1533 H 0.43424 0.52901 0.89482 0.0
H1534 H 0.43119 0.55568 0.87361 0.0
H1535 H 0.46047 0.5539 0.89084 0.0
C1536 C 0.72595 0.78072 0.13352 0.0
C1537 C 0.70383 0.77067 0.14589 0.0
C1538 C 0.73631 0.76654 0.11706 0.0
C1539 C 0.72437 0.74165 0.11306 0.0
C1540 C 0.7028 0.73099 0.12657 0.0
C1541 C 0.69286 0.74561 0.14289 0.0
C1542 C 0.75937 0.77859 0.10317 0.0
C1543 C 0.68956 0.7045 0.123 0.0
C1544 C 0.72779 0.71581 0.05097 0.0
C1545 C 0.74507 0.69866 0.05547 0.0
C1546 C 0.72151 0.73032 0.06936 0.0
C1547 C 0.73269 0.72771 0.09305 0.0
C1548 C 0.75079 0.71108 0.09761 0.0
C1549 C 0.75682 0.69679 0.07875 0.0
C1550 C 0.70228 0.74794 0.06357 0.0
C1551 C 0.76314 0.70778 0.12262 0.0
H1552 H 0.7347 0.79996 0.13621 0.0
H1553 H 0.67602 0.7377 0.1528 0.0
H1554 H 0.77392 0.76587 0.10429 0.0
H1555 H 0.75399 0.78175 0.08357 0.0
H1556 H 0.76792 0.79701 0.11014 0.0
H1557 H 0.67443 0.69823 0.13636 0.0
H1558 H 0.68089 0.70363 0.1043 0.0
H1559 H 0.7034 0.69102 0.12478 0.0
H1560 H 0.7187 0.71764 0.03304 0.0
H1561 H 0.77011 0.68356 0.08249 0.0
H1562 H 0.71027 0.76733 0.06841 0.0
H1563 H 0.68528 0.74167 0.07466 0.0
H1564 H 0.69621 0.74866 0.04397 0.0
H1565 H 0.77146 0.72642 0.12919 0.0
H1566 H 0.77826 0.69573 0.12274 0.0
H1567 H 0.74864 0.69897 0.13579 0.0
C1568 C 1.00307 0.02506 0.10354 0.0
C1569 C 0.01984 0.04782 0.10103 0.0
C1570 C 0.9884 0.0189 0.12442 0.0
C1571 C 0.99109 0.03562 0.1435 0.0
C1572 C 0.00848 0.05839 0.14122 0.0
C1573 C 0.02237 0.06438 0.11985 0.0
C1574 C 0.96968 0.99474 0.12585 0.0
C1575 C 0.01244 0.0764 0.16136 0.0
C1576 C 0.93761 0.03179 0.18807 0.0
C1577 C 0.94572 0.01623 0.20749 0.0
C1578 C 0.9521 0.03815 0.1671 0.0
C1579 C 0.97564 0.02932 0.16579 0.0
C1580 C 0.98423 0.01418 0.18566 0.0
C1581 C 0.96901 0.00752 0.20609 0.0
C1582 C 0.94195 0.05381 0.14609 0.0
C1583 C 0.0095 0.00495 0.18532 0.0
H1584 H 1.00098 0.01239 0.08886 0.0
H1585 H 0.03543 0.08195 0.11788 0.0
H1586 H 0.97433 0.98245 0.14199 0.0
H1587 H 0.95032 0.99907 0.12821 0.0
H1588 H 0.96949 0.98405 0.10926 0.0
H1589 H 0.02741 0.09279 0.15717 0.0
H1590 H 0.99452 0.08358 0.16437 0.0
H1591 H 0.0178 0.06637 0.17873 0.0
H1592 H 0.91949 0.03835 0.18894 0.0
H1593 H 0.97544 0.99559 0.22111 0.0
H1594 H 0.93995 0.04314 0.12938 0.0
H1595 H 0.95546 0.07137 0.14212 0.0
H1596 H 0.92324 0.05902 0.14988 0.0
H1597 H 0.00946 0.99234 0.17021 0.0
H1598 H 0.01403 0.99448 0.20274 0.0
H1599 H 0.02481 0.02118 0.18191 0.0
C1600 C 0.34663 0.79163 0.14264 0.0
C1601 C 0.33214 0.76847 0.15003 0.0
C1602 C 0.33931 0.80612 0.12197 0.0
C1603 C 0.31703 0.79715 0.10835 0.0
C1604 C 0.30311 0.77312 0.11505 0.0
C1605 C 0.31088 0.75904 0.13581 0.0
C1606 C 0.35476 0.83154 0.1154 0.0
C1607 C 0.27935 0.76279 0.10097 0.0
C1608 C 0.28053 0.8456 0.07545 0.0
C1609 C 0.28719 0.84491 0.05111 0.0
C1610 C 0.29025 0.83028 0.09418 0.0
C1611 C 0.30709 0.81378 0.0885 0.0
C1612 C 0.31412 0.81314 0.064 0.0
C1613 C 0.3041 0.82873 0.04557 0.0
C1614 C 0.2823 0.83161 0.12006 0.0
C1615 C 0.33204 0.79583 0.05723 0.0
H1616 H 0.36324 0.7988 0.15352 0.0
H1617 H 0.29985 0.741 0.14147 0.0
H1618 H 0.35929 0.83327 0.09576 0.0
H1619 H 0.34356 0.84671 0.11848 0.0
H1620 H 0.37275 0.83476 0.12641 0.0
H1621 H 0.27198 0.74296 0.1072 0.0
H1622 H 0.26441 0.77458 0.10325 0.0
H1623 H 0.28302 0.76362 0.08118 0.0
H1624 H 0.2675 0.85805 0.07991 0.0
H1625 H 0.30932 0.82806 0.02681 0.0
H1626 H 0.29924 0.83674 0.1321 0.0
H1627 H 0.27265 0.81283 0.12709 0.0
H1628 H 0.26929 0.84565 0.12147 0.0
H1629 H 0.35023 0.79977 0.06778 0.0
H1630 H 0.33603 0.79792 0.03744 0.0
H1631 H 0.32385 0.77589 0.06207 0.0
C1632 C 0.03276 0.50452 0.09721 0.0
C1633 C 0.00651 0.50365 0.09916 0.0
C1634 C 0.04923 0.50661 0.11786 0.0
C1635 C 0.0393 0.50762 0.14122 0.0
C1636 C 0.01277 0.50637 0.14338 0.0
C1637 C 0.99672 0.50461 0.12232 0.0
C1638 C 0.07738 0.50835 0.11457 0.0
C1639 C 1.00135 0.50713 0.16793 0.0
C1640 C 0.08254 0.49553 0.19686 0.0
C1641 C 0.09191 0.52022 0.20309 0.0
C1642 C 0.065 0.49105 0.17711 0.0
C1643 C 0.0569 0.51172 0.16302 0.0
C1644 C 0.06629 0.53661 0.16925 0.0
C1645 C 0.08344 0.54053 0.18918 0.0
C1646 C 0.05521 0.4642 0.17125 0.0
C1647 C 0.05855 0.55926 0.15459 0.0
H1648 H 0.04052 0.50408 0.07936 0.0
H1649 H 0.97645 0.50367 0.12402 0.0
H1650 H 0.08729 0.52683 0.12027 0.0
H1651 H 0.08498 0.49343 0.12637 0.0
H1652 H 0.08202 0.5064 0.09534 0.0
H1653 H 0.9803 0.50442 0.16677 0.0
H1654 H 0.00743 0.49223 0.1809 0.0
H1655 H 0.00826 0.52557 0.17563 0.0
H1656 H 0.0888 0.47969 0.20746 0.0
H1657 H 0.0905 0.55973 0.19362 0.0
H1658 H 0.06091 0.46096 0.15269 0.0
H1659 H 0.03419 0.46083 0.1712 0.0
H1660 H 0.06246 0.45019 0.18452 0.0
H1661 H 0.064 0.5592 0.13533 0.0
H1662 H 0.06746 0.57741 0.16188 0.0
H1663 H 0.03766 0.55831 0.15453 0.0
C1664 C 0.40929 0.71045 0.24436 0.0
C1665 C 0.3839 0.69915 0.24673 0.0
C1666 C 0.42526 0.71544 0.26501 0.0
C1667 C 0.41575 0.70877 0.28869 0.0
C1668 C 0.3906 0.69614 0.29115 0.0
C1669 C 0.37492 0.6918 0.27025 0.0
C1670 C 0.45209 0.7286 0.2615 0.0
C1671 C 0.37964 0.68838 0.31587 0.0
C1672 C 0.4641 0.70965 0.34189 0.0
C1673 C 0.46419 0.73382 0.34992 0.0
C1674 C 0.44789 0.70086 0.32245 0.0
C1675 C 0.43155 0.71673 0.31069 0.0
C1676 C 0.43124 0.74096 0.31916 0.0
C1677 C 0.44788 0.74935 0.33835 0.0
C1678 C 0.44877 0.67491 0.31402 0.0
C1679 C 0.41386 0.75835 0.30748 0.0
H1680 H 0.41664 0.71575 0.22632 0.0
H1681 H 0.35528 0.68345 0.27249 0.0
H1682 H 0.45443 0.74755 0.26884 0.0
H1683 H 0.46565 0.71778 0.27179 0.0
H1684 H 0.45715 0.73094 0.24196 0.0
H1685 H 0.36236 0.67398 0.31475 0.0
H1686 H 0.39368 0.68076 0.32861 0.0
H1687 H 0.37439 0.70525 0.32353 0.0
H1688 H 0.47706 0.69781 0.35054 0.0
H1689 H 0.4487 0.76844 0.34382 0.0
H1690 H 0.45552 0.6766 0.29506 0.0
H1691 H 0.42947 0.66373 0.31381 0.0
H1692 H 0.4615 0.66439 0.32588 0.0
H1693 H 0.41863 0.76315 0.28806 0.0
H1694 H 0.41521 0.77617 0.31686 0.0
H1695 H 0.39393 0.74871 0.30782 0.0
C1696 C 0.01908 0.42976 0.00493 0.0
C1697 C 1.00179 0.44464 0.99397 0.0
C1698 C 0.02244 0.40694 0.99533 0.0
C1699 C 0.00798 0.39869 0.97439 0.0
C1700 C 0.99031 0.4136 0.96342 0.0
C1701 C 0.98736 0.4363 0.97341 0.0
C1702 C 0.0413 0.39157 0.00771 0.0
C1703 C 0.97433 0.40545 0.94123 0.0
C1704 C 0.02687 0.34939 0.93485 0.0
C1705 C 0.00974 0.32786 0.94217 0.0
C1706 C 0.02725 0.3724 0.9458 0.0
C1707 C 0.01022 0.37387 0.9646 0.0
C1708 C 0.99395 0.35182 0.97295 0.0
C1709 C 0.99388 0.32921 0.96165 0.0
C1710 C 0.04497 0.39543 0.93642 0.0
C1711 C 0.97564 0.35237 0.99306 0.0
H1712 H 0.03005 0.43607 0.021 0.0
H1713 H 0.97378 0.44765 0.96509 0.0
H1714 H 0.03138 0.37282 0.01451 0.0
H1715 H 0.05527 0.38821 0.9944 0.0
H1716 H 0.05167 0.40099 0.02332 0.0
H1717 H 0.96206 0.41953 0.93442 0.0
H1718 H 0.9867 0.4025 0.92631 0.0
H1719 H 0.9621 0.38716 0.94571 0.0
H1720 H 0.03908 0.34863 0.91974 0.0
H1721 H 0.98071 0.31266 0.96763 0.0
H1722 H 0.05573 0.40479 0.95183 0.0
H1723 H 0.0338 0.40926 0.927 0.0
H1724 H 0.05862 0.39074 0.92341 0.0
H1725 H 0.98573 0.36092 0.00921 0.0
H1726 H 0.9658 0.33321 0.99885 0.0
H1727 H 0.96115 0.36428 0.98666 0.0
C1728 C 0.65351 0.8383 0.26156 0.0
C1729 C 0.6614 0.81664 0.25338 0.0
C1730 C 0.63505 0.83648 0.27937 0.0
C1731 C 0.6236 0.8124 0.2889 0.0
C1732 C 0.63094 0.79045 0.28033 0.0
C1733 C 0.64988 0.79282 0.26294 0.0
C1734 C 0.62804 0.86036 0.28825 0.0
C1735 C 0.61894 0.76438 0.28973 0.0
C1736 C 0.5931 0.80245 0.35096 0.0
C1737 C 0.56725 0.80045 0.34442 0.0
C1738 C 0.6117 0.80752 0.33315 0.0
C1739 C 0.60425 0.81002 0.30813 0.0
C1740 C 0.57819 0.80884 0.3015 0.0
C1741 C 0.56003 0.80435 0.31975 0.0
C1742 C 0.63928 0.80931 0.34107 0.0
C1743 C 0.56938 0.81096 0.27505 0.0
H1744 H 0.66177 0.85682 0.25403 0.0
H1745 H 0.65597 0.77591 0.2572 0.0
H1746 H 0.60751 0.86083 0.28482 0.0
H1747 H 0.6317 0.86073 0.30827 0.0
H1748 H 0.63886 0.87766 0.27919 0.0
H1749 H 0.62572 0.74922 0.28027 0.0
H1750 H 0.62329 0.76155 0.30957 0.0
H1751 H 0.59801 0.76237 0.28729 0.0
H1752 H 0.59879 0.7995 0.37001 0.0
H1753 H 0.54006 0.80255 0.31455 0.0
H1754 H 0.65035 0.82676 0.33261 0.0
H1755 H 0.64716 0.79305 0.33477 0.0
H1756 H 0.64206 0.80933 0.36124 0.0
H1757 H 0.57944 0.82838 0.2656 0.0
H1758 H 0.54864 0.81118 0.27298 0.0
H1759 H 0.57399 0.79471 0.26567 0.0
C1760 C 0.03508 0.10541 1.0014 0.0
C1761 C 0.03895 0.10653 0.02675 0.0
C1762 C 0.02931 0.12641 0.98665 0.0
C1763 C 0.02756 0.14922 0.99745 0.0
C1764 C 0.03181 0.15058 0.02298 0.0
C1765 C 0.03736 0.12922 0.03731 0.0
C1766 C 0.02474 0.12409 0.95953 0.0
C1767 C 0.03041 0.17459 0.03518 0.0
C1768 C 0.03419 0.20952 0.95563 0.0
C1769 C 0.00881 0.21299 0.95128 0.0
C1770 C 0.04056 0.18913 0.97091 0.0
C1771 C 0.02113 0.17157 0.98201 0.0
C1772 C 0.99551 0.1751 0.97798 0.0
C1773 C 0.98967 0.19579 0.96278 0.0
C1774 C 0.06812 0.18621 0.97492 0.0
C1775 C 0.9742 0.15672 0.98935 0.0
H1776 H 0.03596 0.08785 0.99314 0.0
H1777 H 0.0406 0.13032 0.05685 0.0
H1778 H 1.0053 0.12769 0.95418 0.0
H1779 H 0.03815 0.13851 0.94924 0.0
H1780 H 0.02698 0.10512 0.95394 0.0
H1781 H 0.03465 0.17272 0.05515 0.0
H1782 H 0.04403 0.19033 0.02691 0.0
H1783 H 0.01119 0.17987 0.0322 0.0
H1784 H 0.04917 0.22269 0.94697 0.0
H1785 H 0.97001 0.19816 0.95952 0.0
H1786 H 0.07147 0.16822 0.96787 0.0
H1787 H 0.07312 0.18531 0.99474 0.0
H1788 H 0.08102 0.20198 0.9657 0.0
H1789 H 0.97433 0.13762 0.98298 0.0
H1790 H 0.95533 0.16234 0.98475 0.0
H1791 H 0.97695 0.15532 0.00951 0.0
C1792 C 0.38582 0.30452 0.27067 0.0
C1793 C 0.36512 0.31156 0.25675 0.0
C1794 C 0.40603 0.29632 0.25948 0.0
C1795 C 0.40523 0.29455 0.23381 0.0
C1796 C 0.38466 0.30227 0.21966 0.0
C1797 C 0.36487 0.3106 0.2313 0.0
C1798 C 0.42764 0.2884 0.27524 0.0
C1799 C 0.38282 0.30042 0.19232 0.0
C1800 C 0.46319 0.28412 0.19965 0.0
C1801 C 0.45855 0.25787 0.19762 0.0
C1802 C 0.44636 0.29633 0.21187 0.0
C1803 C 0.42424 0.28203 0.22205 0.0
C1804 C 0.41961 0.25556 0.22022 0.0
C1805 C 0.43679 0.24385 0.20818 0.0
C1806 C 0.45208 0.32456 0.21365 0.0
C1807 C 0.39616 0.23956 0.23055 0.0
H1808 H 0.38584 0.30473 0.2904 0.0
H1809 H 0.34868 0.31555 0.22051 0.0
H1810 H 0.42672 0.2676 0.27554 0.0
H1811 H 0.44609 0.29708 0.26757 0.0
H1812 H 0.42705 0.29376 0.29434 0.0
H1813 H 0.36683 0.3092 0.18372 0.0
H1814 H 0.40067 0.30971 0.18385 0.0
H1815 H 0.38005 0.28026 0.18812 0.0
H1816 H 0.47994 0.29516 0.19167 0.0
H1817 H 0.43282 0.22361 0.20669 0.0
H1818 H 0.45218 0.32914 0.23303 0.0
H1819 H 0.43701 0.33371 0.20379 0.0
H1820 H 0.47063 0.33282 0.20586 0.0
H1821 H 0.39533 0.24199 0.25037 0.0
H1822 H 0.39555 0.21915 0.22796 0.0
H1823 H 0.37896 0.24577 0.22159 0.0
C1824 C 0.56891 0.39987 0.03224 0.0
C1825 C 0.55193 0.4173 0.02847 0.0
C1826 C 0.56256 0.37731 0.04677 0.0
C1827 C 0.53889 0.37234 0.05829 0.0
C1828 C 0.52161 0.38986 0.05441 0.0
C1829 C 0.52825 0.41202 0.03933 0.0
C1830 C 0.58131 0.35891 0.05002 0.0
C1831 C 0.49644 0.38557 0.06676 0.0
C1832 C 0.51486 0.30492 0.08265 0.0
C1833 C 0.52359 0.30533 0.10708 0.0
C1834 C 0.51956 0.32662 0.06654 0.0
C1835 C 0.53276 0.34938 0.07524 0.0
C1836 C 0.54084 0.35005 0.10011 0.0
C1837 C 0.53643 0.32796 0.11563 0.0
C1838 C 0.51107 0.325 0.04006 0.0
C1839 C 0.55445 0.37404 0.11028 0.0
H1840 H 0.58715 0.40388 0.02368 0.0
H1841 H 0.51519 0.42561 0.03658 0.0
H1842 H 0.58785 0.35729 0.06943 0.0
H1843 H 0.57208 0.33985 0.04525 0.0
H1844 H 0.59814 0.36478 0.03857 0.0
H1845 H 0.48487 0.40067 0.06134 0.0
H1846 H 0.48545 0.36714 0.06222 0.0
H1847 H 0.49964 0.38484 0.08688 0.0
H1848 H 0.50508 0.28742 0.07593 0.0
H1849 H 0.54305 0.32841 0.13455 0.0
H1850 H 0.52781 0.32909 0.02832 0.0
H1851 H 0.49873 0.33943 0.03471 0.0
H1852 H 0.50054 0.30609 0.03629 0.0
H1853 H 0.57286 0.37985 0.10132 0.0
H1854 H 0.55809 0.3718 0.13033 0.0
H1855 H 0.5431 0.38958 0.10633 0.0
C1856 C 0.63542 0.20681 0.30651 0.0
C1857 C 0.65896 0.20241 0.29871 0.0
C1858 C 0.6148 0.20806 0.28999 0.0
C1859 C 0.61752 0.20431 0.26506 0.0
C1860 C 0.64086 0.19885 0.25719 0.0
C1861 C 0.66134 0.19814 0.27405 0.0
C1862 C 0.5903 0.21408 0.29911 0.0
C1863 C 0.64441 0.19437 0.23082 0.0
C1864 C 0.55745 0.18895 0.22572 0.0
C1865 C 0.55583 0.21233 0.213 0.0
C1866 C 0.57754 0.18598 0.24251 0.0
C1867 C 0.59622 0.207 0.2471 0.0
C1868 C 0.59447 0.23074 0.23464 0.0
C1869 C 0.57445 0.23307 0.21762 0.0
C1870 C 0.57893 0.16027 0.25513 0.0
C1871 C 0.61375 0.25373 0.23933 0.0
H1872 H 0.63315 0.20958 0.32559 0.0
H1873 H 0.67944 0.19499 0.26771 0.0
H1874 H 0.58595 0.232 0.28974 0.0
H1875 H 0.5744 0.19905 0.29472 0.0
H1876 H 0.59109 0.21602 0.31914 0.0
H1877 H 0.66308 0.18857 0.22797 0.0
H1878 H 0.62922 0.17952 0.2245 0.0
H1879 H 0.64293 0.21189 0.21919 0.0
H1880 H 0.54326 0.17276 0.22224 0.0
H1881 H 0.57332 0.25125 0.20802 0.0
H1882 H 0.57842 0.16123 0.27521 0.0
H1883 H 0.59714 0.15412 0.2512 0.0
H1884 H 0.56312 0.14575 0.24928 0.0
H1885 H 0.61442 0.25734 0.259 0.0
H1886 H 0.60944 0.27093 0.2285 0.0
H1887 H 0.63291 0.25036 0.23474 0.0
C1888 C 0.50465 0.08197 0.05621 0.0
C1889 C 0.50585 0.08879 0.03116 0.0
C1890 C 0.50881 0.10028 0.07347 0.0
C1891 C 0.51365 0.12623 0.06555 0.0
C1892 C 0.51601 0.13317 0.04022 0.0
C1893 C 0.51221 0.11434 0.02331 0.0
C1894 C 0.50654 0.09167 0.10005 0.0
C1895 C 0.52164 0.16054 0.03093 0.0
C1896 C 0.49344 0.17507 0.1046 0.0
C1897 C 0.51629 0.18463 0.11639 0.0
C1898 C 0.49221 0.15558 0.08862 0.0
C1899 C 0.5146 0.14606 0.08352 0.0
C1900 C 0.53781 0.15586 0.09525 0.0
C1901 C 0.53837 0.17504 0.1115 0.0
C1902 C 0.46698 0.14545 0.07689 0.0
C1903 C 0.56211 0.14635 0.09032 0.0
H1904 H 0.49995 0.06218 0.06232 0.0
H1905 H 0.51311 0.11965 1.0039 0.0
H1906 H 0.48724 0.09337 0.10557 0.0
H1907 H 0.50926 0.07162 0.10357 0.0
H1908 H 0.52049 0.10349 0.11154 0.0
H1909 H 0.52493 0.16273 0.011 0.0
H1910 H 0.50548 0.17029 0.03461 0.0
H1911 H 0.5386 0.17018 0.04071 0.0
H1912 H 0.4766 0.18326 0.10744 0.0
H1913 H 0.55618 0.18281 0.12021 0.0
H1914 H 0.46262 0.12474 0.08111 0.0
H1915 H 0.46784 0.14876 0.05675 0.0
H1916 H 0.45125 0.15439 0.08325 0.0
H1917 H 0.56006 0.12568 0.09484 0.0
H1918 H 0.57853 0.15574 0.10106 0.0
H1919 H 0.56621 0.14967 0.07061 0.0
C1920 C 0.24113 0.39121 0.72172 0.0
C1921 C 0.2449 0.36687 0.71647 0.0
C1922 C 0.2617 0.4108 0.72406 0.0
C1923 C 0.28664 0.40616 0.7206 0.0
C1924 C 0.29033 0.3822 0.71361 0.0
C1925 C 0.2696 0.3628 0.71211 0.0
C1926 C 0.25681 0.43623 0.73106 0.0
C1927 C 0.31631 0.37636 0.70908 0.0
C1928 C 0.33925 0.46281 0.7141 0.0
C1929 C 0.34912 0.46399 0.73811 0.0
C1930 C 0.31927 0.44377 0.70793 0.0
C1931 C 0.30886 0.42563 0.72627 0.0
C1932 C 0.31912 0.42659 0.75046 0.0
C1933 C 0.33878 0.44603 0.75615 0.0
C1934 C 0.30894 0.44339 0.68194 0.0
C1935 C 0.30894 0.4074 0.7705 0.0
H1936 H 0.22213 0.39493 0.72442 0.0
H1937 H 0.27306 0.34411 0.70841 0.0
H1938 H 0.26523 0.43985 0.74952 0.0
H1939 H 0.26602 0.45144 0.71816 0.0
H1940 H 0.23625 0.43743 0.73123 0.0
H1941 H 0.32833 0.39282 0.70002 0.0
H1942 H 0.32538 0.37154 0.7269 0.0
H1943 H 0.31542 0.35997 0.69769 0.0
H1944 H 0.34694 0.47702 0.70023 0.0
H1945 H 0.34561 0.44761 0.77492 0.0
H1946 H 0.31968 0.45829 0.66967 0.0
H1947 H 0.28878 0.44621 0.68136 0.0
H1948 H 0.30958 0.42473 0.67479 0.0
H1949 H 0.28866 0.40844 0.77312 0.0
H1950 H 0.31949 0.41035 0.78817 0.0
H1951 H 0.31011 0.38807 0.76523 0.0
C1952 C 0.26991 0.64449 0.79313 0.0
C1953 C 0.2766 0.66038 0.81224 0.0
C1954 C 0.28398 0.62521 0.78909 0.0
C1955 C 0.30513 0.6216 0.80469 0.0
C1956 C 0.31111 0.63679 0.8248 0.0
C1957 C 0.29672 0.65595 0.82837 0.0
C1958 C 0.27684 0.6094 0.76752 0.0
C1959 C 0.33334 0.63347 0.84197 0.0
C1960 C 0.33293 0.5606 0.80162 0.0
C1961 C 0.35309 0.56839 0.78585 0.0
C1962 C 0.31736 0.57773 0.80825 0.0
C1963 C 0.32203 0.60326 0.79886 0.0
C1964 C 0.34263 0.61129 0.78329 0.0
C1965 C 0.35787 0.59381 0.77701 0.0
C1966 C 0.29566 0.56843 0.82495 0.0
C1967 C 0.34834 0.63831 0.77289 0.0
H1968 H 0.25414 0.64773 0.78085 0.0
H1969 H 0.30168 0.66804 0.84335 0.0
H1970 H 0.29215 0.6133 0.75409 0.0
H1971 H 0.27479 0.58902 0.77345 0.0
H1972 H 0.25886 0.61333 0.75821 0.0
H1973 H 0.3342 0.64529 0.85784 0.0
H1974 H 0.33229 0.61339 0.84882 0.0
H1975 H 0.35125 0.63872 0.83202 0.0
H1976 H 0.32907 0.54101 0.80853 0.0
H1977 H 0.37339 0.60005 0.76483 0.0
H1978 H 0.27742 0.57054 0.81519 0.0
H1979 H 0.29712 0.58002 0.841 0.0
H1980 H 0.29517 0.54831 0.8315 0.0
H1981 H 0.33194 0.64321 0.76147 0.0
H1982 H 0.36541 0.64169 0.76152 0.0
H1983 H 0.35136 0.65132 0.78788 0.0
C1984 C 0.93664 0.49381 0.49534 0.0
C1985 C 0.94047 0.51947 0.50009 0.0
C1986 C 0.91229 0.47948 0.49559 0.0
C1987 C 0.89122 0.49095 0.50098 0.0
C1988 C 0.89504 0.51656 0.5067 0.0
C1989 C 0.91955 0.53054 0.50601 0.0
C1990 C 0.90901 0.45225 0.48925 0.0
C1991 C 0.87312 0.52946 0.51268 0.0
C1992 C 0.82793 0.46315 0.47277 0.0
C1993 C 0.81674 0.44729 0.49214 0.0
C1994 C 0.85187 0.47774 0.47562 0.0
C1995 C 0.86503 0.47679 0.49848 0.0
C1996 C 0.85352 0.46167 0.51842 0.0
C1997 C 0.82955 0.44699 0.515 0.0
C1998 C 0.86347 0.49351 0.45383 0.0
C1999 C 0.86683 0.46047 0.54318 0.0
H2000 H 0.95268 0.48493 0.49121 0.0
H2001 H 0.92214 0.55041 0.5094 0.0
H2002 H 0.8987 0.43984 0.50379 0.0
H2003 H 0.89742 0.44993 0.47208 0.0
H2004 H 0.92742 0.44574 0.4868 0.0
H2005 H 0.87954 0.54857 0.51922 0.0
H2006 H 0.86068 0.53136 0.49617 0.0
H2007 H 0.86147 0.51793 0.5269 0.0
H2008 H 0.81834 0.46365 0.455 0.0
H2009 H 0.82115 0.43488 0.53011 0.0
H2010 H 0.88112 0.48672 0.44912 0.0
H2011 H 0.86871 0.5135 0.45828 0.0
H2012 H 0.85044 0.49278 0.4375 0.0
H2013 H 0.88417 0.4517 0.54198 0.0
H2014 H 0.85459 0.44933 0.55724 0.0
H2015 H 0.87289 0.4798 0.54924 0.0
C2016 C 0.78922 0.89496 0.8036 0.0
C2017 C 0.7836 0.87121 0.81645 0.0
C2018 C 0.77079 0.91091 0.79897 0.0
C2019 C 0.74613 0.90353 0.80804 0.0
C2020 C 0.74049 0.88009 0.82181 0.0
C2021 C 0.7591 0.86412 0.82555 0.0
C2022 C 0.77762 0.93553 0.78389 0.0
C2023 C 0.71466 0.87172 0.83233 0.0
C2024 C 0.7071 0.95718 0.81022 0.0
C2025 C 0.69148 0.95419 0.78912 0.0
C2026 C 0.72412 0.94017 0.81724 0.0
C2027 C 0.72617 0.92009 0.80241 0.0
C2028 C 0.7101 0.91677 0.78131 0.0
C2029 C 0.69275 0.93362 0.77512 0.0
C2030 C 0.74029 0.94401 0.84025 0.0
C2031 C 0.71199 0.89606 0.76463 0.0
H2032 H 0.80813 0.90118 0.79699 0.0
H2033 H 0.75415 0.84581 0.83519 0.0
H2034 H 0.76474 0.93601 0.76753 0.0
H2035 H 0.77511 0.95161 0.79462 0.0
H2036 H 0.79748 0.93835 0.77777 0.0
H2037 H 0.71389 0.85405 0.84433 0.0
H2038 H 0.70937 0.88674 0.84305 0.0
H2039 H 0.70021 0.86847 0.81734 0.0
H2040 H 0.70616 0.97296 0.82119 0.0
H2041 H 0.68092 0.93128 0.75868 0.0
H2042 H 0.76045 0.94959 0.83553 0.0
H2043 H 0.73891 0.92609 0.85189 0.0
H2044 H 0.73467 0.95884 0.85103 0.0
H2045 H 0.73114 0.89897 0.75684 0.0
H2046 H 0.69765 0.89549 0.74935 0.0
H2047 H 0.70948 0.87742 0.77507 0.0
C2048 C 0.63512 0.49176 0.01581 0.0
C2049 C 0.61091 0.49881 0.01329 0.0
C2050 C 0.65662 0.50977 0.0205 0.0
C2051 C 0.65376 0.53534 0.02266 0.0
C2052 C 0.62902 0.54181 0.02216 0.0
C2053 C 0.60804 0.52362 0.01715 0.0
C2054 C 0.68242 0.50155 0.02261 0.0
C2055 C 0.62398 0.56799 0.02588 0.0
C2056 C 0.70742 0.58523 0.04445 0.0
C2057 C 0.71762 0.59584 0.02225 0.0
C2058 C 0.68707 0.56508 0.04502 0.0
C2059 C 0.67646 0.55555 0.02283 0.0
C2060 C 0.68708 0.56599 1.00043 0.0
C2061 C 0.7079 0.58549 1.0005 0.0
C2062 C 0.67668 0.5542 0.0693 0.0
C2063 C 0.67623 0.55675 0.9763 0.0
H2064 H 0.63733 0.4724 0.01328 0.0
H2065 H 0.58924 0.52897 0.01599 0.0
H2066 H 0.69336 0.50892 0.00621 0.0
H2067 H 0.69323 0.50943 0.03873 0.0
H2068 H 0.68111 0.48066 0.02427 0.0
H2069 H 0.60833 0.56709 0.03876 0.0
H2070 H 0.64071 0.58039 0.0331 0.0
H2071 H 0.61744 0.57639 0.00818 0.0
H2072 H 0.71538 0.59271 0.06138 0.0
H2073 H 0.71676 0.59256 0.98347 0.0
H2074 H 0.67532 0.53331 0.07056 0.0
H2075 H 0.65725 0.55865 0.0709 0.0
H2076 H 0.68859 0.56183 0.08493 0.0
H2077 H 0.6772 0.53636 0.97562 0.0
H2078 H 0.68644 0.56707 0.9605 0.0
H2079 H 0.65593 0.55902 0.97438 0.0
C2080 C 0.28241 0.65832 0.19747 0.0
C2081 C 0.30666 0.65301 0.20457 0.0
C2082 C 0.26092 0.63977 0.19982 0.0
C2083 C 0.26344 0.61535 0.2102 0.0
C2084 C 0.28798 0.60942 0.21627 0.0
C2085 C 0.30928 0.62829 0.21336 0.0
C2086 C 0.23548 0.64717 0.19262 0.0
C2087 C 0.29166 0.58338 0.22663 0.0
C2088 C 0.21001 0.57798 0.24741 0.0
C2089 C 0.19765 0.56141 0.23066 0.0
C2090 C 0.23089 0.59607 0.2407 0.0
C2091 C 0.24046 0.59688 0.21694 0.0
C2092 C 0.22833 0.57982 0.20005 0.0
C2093 C 0.20702 0.5623 0.20712 0.0
C2094 C 0.2429 0.61415 0.25916 0.0
C2095 C 0.23808 0.57989 0.17466 0.0
H2096 H 0.27993 0.67735 0.19099 0.0
H2097 H 0.32796 0.62376 0.21836 0.0
H2098 H 0.22196 0.63107 0.1861 0.0
H2099 H 0.22772 0.65394 0.20883 0.0
H2100 H 0.23711 0.66282 0.1781 0.0
H2101 H 0.31197 0.581 0.22788 0.0
H2102 H 0.28388 0.57993 0.24519 0.0
H2103 H 0.28117 0.56879 0.21517 0.0
H2104 H 0.20365 0.57645 0.26599 0.0
H2105 H 0.19783 0.54907 0.19432 0.0
H2106 H 0.24299 0.6339 0.2516 0.0
H2107 H 0.26291 0.61156 0.26305 0.0
H2108 H 0.23279 0.61147 0.27664 0.0
H2109 H 0.23781 0.59867 0.16488 0.0
H2110 H 0.22667 0.56529 0.16376 0.0
H2111 H 0.25807 0.57648 0.17574 0.0
C2112 C 0.91753 0.53381 0.06245 0.0
C2113 C 0.93577 0.53237 0.04517 0.0
C2114 C 0.89822 0.54878 0.05744 0.0
C2115 C 0.89739 0.56323 0.0348 0.0
C2116 C 0.91609 0.56219 0.01748 0.0
C2117 C 0.93481 0.54659 0.02275 0.0
C2118 C 0.87844 0.54882 0.07626 0.0
C2119 C 0.91639 0.57767 0.99339 0.0
C2120 C 0.83463 0.58421 0.01233 0.0
C2121 C 0.83715 0.60874 0.02032 0.0
C2122 C 0.85403 0.56926 0.01687 0.0
C2123 C 0.87686 0.57921 0.0292 0.0
C2124 C 0.8798 0.60427 0.0366 0.0
C2125 C 0.85984 0.61857 0.03237 0.0
C2126 C 0.84978 0.54252 0.00907 0.0
C2127 C 0.90397 0.61593 0.04924 0.0
H2128 H 0.91802 0.52271 0.07972 0.0
H2129 H 0.94897 0.54574 0.0094 0.0
H2130 H 0.87872 0.56826 0.08192 0.0
H2131 H 0.8593 0.54255 0.06821 0.0
H2132 H 0.88145 0.53626 0.09276 0.0
H2133 H 0.93269 0.57549 0.98226 0.0
H2134 H 0.8986 0.57197 0.98271 0.0
H2135 H 0.91733 0.59796 0.99662 0.0
H2136 H 0.81709 0.57633 1.00324 0.0
H2137 H 0.862 0.63751 0.03857 0.0
H2138 H 0.85089 0.52911 0.0253 0.0
H2139 H 0.86485 0.53982 0.99668 0.0
H2140 H 0.83107 0.5376 0.99958 0.0
H2141 H 0.90665 0.60539 0.06706 0.0
H2142 H 0.90393 0.63609 0.05251 0.0
H2143 H 0.9205 0.61459 0.03809 0.0
C2144 C 0.12328 0.01202 0.02563 0.0
C2145 C 0.09814 0.99994 0.0229 0.0
C2146 C 0.1438 0.99981 0.02061 0.0
C2147 C 0.13912 0.9752 0.01206 0.0
C2148 C 0.11379 0.96308 0.00901 0.0
C2149 C 0.09368 0.9756 0.01442 0.0
C2150 C 0.1705 0.01339 0.02418 0.0
C2151 C 0.10789 0.93702 0.99962 0.0
C2152 C 0.18957 0.95279 0.97562 0.0
C2153 C 0.20033 0.93665 0.99295 0.0
C2154 C 0.16987 0.96558 0.98165 0.0
C2155 C 0.16063 0.96233 0.00565 0.0
C2156 C 0.17152 0.94629 0.02331 0.0
C2157 C 0.19115 0.93362 0.01676 0.0
C2158 C 0.15873 0.98238 0.96221 0.0
C2159 C 0.16231 0.94235 0.04912 0.0
H2160 H 0.12695 0.03108 0.03157 0.0
H2161 H 0.0743 0.96644 0.01172 0.0
H2162 H 0.18158 1.00166 0.0366 0.0
H2163 H 0.18008 0.0164 0.00644 0.0
H2164 H 0.171 0.032 0.03191 0.0
H2165 H 0.0872 0.93003 0.99862 0.0
H2166 H 0.11553 0.93723 0.98112 0.0
H2167 H 0.11723 0.92346 0.01164 0.0
H2168 H 0.19637 0.95529 0.95715 0.0
H2169 H 0.19928 0.9213 0.03036 0.0
H2170 H 0.16028 1.00182 0.96828 0.0
H2171 H 0.13827 0.97532 0.95921 0.0
H2172 H 0.16829 0.98325 0.94452 0.0
H2173 H 0.16382 0.9608 0.05737 0.0
H2174 H 0.1732 0.92985 0.06089 0.0
H2175 H 0.142 0.93386 0.049 0.0
loop_
_geom_bond_atom_site_label_1
_geom_bond_atom_site_label_2
_geom_bond_distance
_geom_bond_site_symmetry_2
_ccdc_geom_bond_type
H0 C7 0.929 1_655 S
H1 C10 0.930 . S
H2 C12 0.929 1_556 S
H3 C4 0.969 . S
C4 H3 0.969 . S
C4 O5 1.550 1_565 S
C4 H6 0.973 . S
O5 C4 1.550 1_545 S
O5 C11 1.412 . S
H6 C4 0.973 . S
C7 H0 0.929 1_455 S
C7 C8 1.400 . S
C7 C9 1.364 . S
C8 C7 1.400 . S
C8 C12 1.377 . S
C9 C7 1.364 . S
C9 C10 1.374 . S
C10 H1 0.930 . S
C10 C9 1.374 . S
C10 C11 1.383 . S
C11 O5 1.412 . S
C11 C10 1.383 . S
C11 C12 1.394 . S
C12 H2 0.929 1_554 S
C12 C8 1.377 . S
C12 C11 1.394 . S
H13 C20 0.929 . S
H14 C23 0.930 . S
H15 C25 0.929 . S
H16 C17 0.969 . S
C17 H16 0.969 . S
C17 O18 1.550 . S
C17 H19 0.973 . S
O18 C17 1.550 . S
O18 C24 1.412 . S
H19 C17 0.973 . S
C20 H13 0.929 . S
C20 C21 1.400 . S
C20 C22 1.364 . S
C21 C20 1.400 . S
C21 C25 1.377 . S
C22 C20 1.364 . S
C22 C23 1.374 . S
C23 H14 0.930 . S
C23 C22 1.374 . S
C23 C24 1.383 . S
C24 O18 1.412 . S
C24 C23 1.383 . S
C24 C25 1.394 . S
C25 H15 0.929 . S
C25 C21 1.377 . S
C25 C24 1.394 . S
H26 C33 0.929 . S
H27 C36 0.930 . S
H28 C38 0.913 1_455 S
H29 C30 0.969 . S
C30 H29 0.969 . S
C30 O31 1.550 . S
C30 H32 0.973 . S
O31 C30 1.550 . S
O31 C37 1.412 . S
H32 C30 0.973 . S
C33 H26 0.929 . S
C33 C34 1.400 . S
C33 C35 1.364 . S
C34 C33 1.400 . S
C34 C38 1.383 . S
C35 C33 1.364 . S
C35 C36 1.374 . S
C36 H27 0.930 . S
C36 C35 1.374 . S
C36 C37 1.383 . S
C37 O31 1.412 . S
C37 C36 1.383 . S
C37 C38 1.404 . S
C38 H28 0.913 1_655 S
C38 C34 1.383 . S
C38 C37 1.404 . S
H39 C46 0.929 . S
H40 C49 0.930 . S
H41 C51 0.929 . S
H42 C43 0.969 . S
C43 H42 0.969 . S
C43 O44 1.550 . S
C43 H45 0.973 . S
O44 C43 1.550 . S
O44 C50 1.412 . S
H45 C43 0.973 . S
C46 H39 0.929 . S
C46 C47 1.400 . S
C46 C48 1.364 . S
C47 C46 1.400 . S
C47 C51 1.377 . S
C48 C46 1.364 . S
C48 C49 1.374 . S
C49 H40 0.930 . S
C49 C48 1.374 . S
C49 C50 1.383 . S
C50 O44 1.412 . S
C50 C49 1.383 . S
C50 C51 1.394 . S
C51 H41 0.929 . S
C51 C47 1.377 . S
C51 C50 1.394 . S
H52 C59 0.929 . S
H53 C62 0.930 . S
H54 C64 0.929 . S
H55 C56 0.969 1_655 S
C56 H55 0.969 1_455 S
C56 O57 1.550 . S
C56 H58 0.973 . S
O57 C56 1.550 . S
O57 C63 1.412 . S
H58 C56 0.973 . S
C59 H52 0.929 . S
C59 C60 1.400 . S
C59 C61 1.364 . S
C60 C59 1.400 . S
C60 C64 1.377 1_565 S
C61 C59 1.364 . S
C61 C62 1.374 . S
C62 H53 0.930 . S
C62 C61 1.374 . S
C62 C63 1.383 . S
C63 O57 1.412 . S
C63 C62 1.383 . S
C63 C64 1.394 1_565 S
C64 H54 0.929 . S
C64 C60 1.377 1_545 S
C64 C63 1.394 1_545 S
H65 C72 0.929 . S
H66 C75 0.930 . S
H67 C77 0.929 . S
H68 C69 0.969 . S
C69 H68 0.969 . S
C69 O70 1.550 . S
C69 H71 0.973 . S
O70 C69 1.550 . S
O70 C76 1.412 . S
H71 C69 0.973 . S
C72 H65 0.929 . S
C72 C73 1.400 . S
C72 C74 1.364 . S
C73 C72 1.400 . S
C73 C77 1.377 . S
C74 C72 1.364 . S
C74 C75 1.374 . S
C75 H66 0.930 . S
C75 C74 1.374 . S
C75 C76 1.383 . S
C76 O70 1.412 . S
C76 C75 1.383 . S
C76 C77 1.394 . S
C77 H67 0.929 . S
C77 C73 1.377 . S
C77 C76 1.394 . S
H78 C85 0.929 . S
H79 C88 0.930 . S
H80 C90 0.929 . S
H81 C82 0.969 . S
C82 H81 0.969 . S
C82 O83 1.550 . S
C82 H84 0.973 . S
O83 C82 1.550 . S
O83 C89 1.412 . S
H84 C82 0.973 . S
C85 H78 0.929 . S
C85 C86 1.400 . S
C85 C87 1.364 . S
C86 C85 1.400 . S
C86 C90 1.377 1_655 S
C87 C85 1.364 . S
C87 C88 1.374 . S
C88 H79 0.930 . S
C88 C87 1.374 . S
C88 C89 1.383 1_655 S
C89 O83 1.412 . S
C89 C88 1.383 1_455 S
C89 C90 1.394 . S
C90 H80 0.929 . S
C90 C86 1.377 1_455 S
C90 C89 1.394 . S
H91 C98 0.929 . S
H92 C101 0.930 . S
H93 C103 0.929 . S
H94 C95 0.969 . S
C95 H94 0.969 . S
C95 O96 1.550 . S
C95 H97 0.973 . S
O96 C95 1.550 . S
O96 C102 1.412 . S
H97 C95 0.973 . S
C98 H91 0.929 . S
C98 C99 1.400 . S
C98 C100 1.364 . S
C99 C98 1.400 . S
C99 C103 1.377 . S
C100 C98 1.364 . S
C100 C101 1.374 . S
C101 H92 0.930 . S
C101 C100 1.374 . S
C101 C102 1.383 . S
C102 O96 1.412 . S
C102 C101 1.383 . S
C102 C103 1.394 . S
C103 H93 0.929 . S
C103 C99 1.377 . S
C103 C102 1.394 . S
H104 C111 0.929 . S
H105 C114 0.930 . S
H106 C116 0.929 . S
H107 C108 0.969 . S
C108 H107 0.969 . S
C108 O109 1.550 . S
C108 H110 0.973 . S
O109 C108 1.550 . S
O109 C115 1.412 . S
H110 C108 0.973 . S
C111 H104 0.929 . S
C111 C112 1.400 . S
C111 C113 1.364 . S
C112 C111 1.400 . S
C112 C116 1.377 . S
C113 C111 1.364 . S
C113 C114 1.374 . S
C114 H105 0.930 . S
C114 C113 1.374 . S
C114 C115 1.383 . S
C115 O109 1.412 . S
C115 C114 1.383 . S
C115 C116 1.394 . S
C116 H106 0.929 . S
C116 C112 1.377 . S
C116 C115 1.394 . S
H117 C124 0.912 1_545 S
H118 C127 0.930 . S
H119 C129 0.929 . S
H120 C121 0.969 . S
C121 H120 0.969 . S
C121 O122 1.550 . S
C121 H123 0.973 . S
O122 C121 1.550 . S
O122 C128 1.412 . S
H123 C121 0.973 . S
C124 H117 0.912 1_565 S
C124 C125 1.400 . S
C124 C126 1.364 . S
C125 C124 1.400 . S
C125 C129 1.377 . S
C126 C124 1.364 . S
C126 C127 1.374 . S
C127 H118 0.930 . S
C127 C126 1.374 . S
C127 C128 1.383 . S
C128 O122 1.412 . S
C128 C127 1.383 . S
C128 C129 1.394 . S
C129 H119 0.929 . S
C129 C125 1.377 . S
C129 C128 1.394 . S
H130 C137 0.929 . S
H131 C140 0.930 . S
H132 C142 0.929 . S
H133 C134 0.969 . S
C134 H133 0.969 . S
C134 O135 1.550 . S
C134 H136 0.973 . S
O135 C134 1.550 . S
O135 C141 1.412 . S
H136 C134 0.973 . S
C137 H130 0.929 . S
C137 C138 1.400 . S
C137 C139 1.364 . S
C138 C137 1.400 . S
C138 C142 1.377 . S
C139 C137 1.364 . S
C139 C140 1.374 . S
C140 H131 0.930 . S
C140 C139 1.374 . S
C140 C141 1.383 . S
C141 O135 1.412 . S
C141 C140 1.383 . S
C141 C142 1.394 . S
C142 H132 0.929 . S
C142 C138 1.377 . S
C142 C141 1.394 . S
H143 C150 0.929 . S
H144 C153 0.930 . S
H145 C155 0.929 . S
H146 C147 0.969 . S
C147 H146 0.969 . S
C147 O148 1.550 . S
C147 H149 0.973 . S
O148 C147 1.550 . S
O148 C154 1.412 . S
H149 C147 0.973 . S
C150 H143 0.929 . S
C150 C151 1.400 . S
C150 C152 1.364 . S
C151 C150 1.400 . S
C151 C155 1.377 . S
C152 C150 1.364 . S
C152 C153 1.374 . S
C153 H144 0.930 . S
C153 C152 1.374 . S
C153 C154 1.383 . S
C154 O148 1.412 . S
C154 C153 1.383 . S
C154 C155 1.394 . S
C155 H145 0.929 . S
C155 C151 1.377 . S
C155 C154 1.394 . S
H156 C163 0.929 . S
H157 C166 0.930 . S
H158 C168 0.929 . S
H159 C160 0.969 . S
C160 H159 0.969 . S
C160 O161 1.550 . S
C160 H162 0.973 . S
O161 C160 1.550 . S
O161 C167 1.412 . S
H162 C160 0.973 . S
C163 H156 0.929 . S
C163 C164 1.400 . S
C163 C165 1.364 . S
C164 C163 1.400 . S
C164 C168 1.377 . S
C165 C163 1.364 . S
C165 C166 1.374 . S
C166 H157 0.930 . S
C166 C165 1.374 . S
C166 C167 1.383 . S
C167 O161 1.412 . S
C167 C166 1.383 . S
C167 C168 1.394 . S
C168 H158 0.929 . S
C168 C164 1.377 . S
C168 C167 1.394 . S
H169 C176 0.929 1_554 S
H170 C179 0.930 . S
H171 C181 0.929 . S
H172 C173 0.969 . S
C173 H172 0.969 . S
C173 O174 1.550 . S
C173 H175 0.973 . S
O174 C173 1.550 . S
O174 C180 1.412 . S
H175 C173 0.973 . S
C176 H169 0.929 1_556 S
C176 C177 1.400 . S
C176 C178 1.364 . S
C177 C176 1.400 . S
C177 C181 1.377 . S
C178 C176 1.364 . S
C178 C179 1.374 . S
C179 H170 0.930 . S
C179 C178 1.374 . S
C179 C180 1.383 . S
C180 O174 1.412 . S
C180 C179 1.383 . S
C180 C181 1.394 . S
C181 H171 0.929 . S
C181 C177 1.377 . S
C181 C180 1.394 . S
H182 C189 0.929 . S
H183 C192 0.930 . S
H184 C194 0.929 . S
H185 C186 0.969 . S
C186 H185 0.969 . S
C186 O187 1.550 . S
C186 H188 0.973 . S
O187 C186 1.550 . S
O187 C193 1.412 . S
H188 C186 0.973 . S
C189 H182 0.929 . S
C189 C190 1.400 . S
C189 C191 1.364 . S
C190 C189 1.400 . S
C190 C194 1.377 . S
C191 C189 1.364 . S
C191 C192 1.374 . S
C192 H183 0.930 . S
C192 C191 1.374 . S
C192 C193 1.383 . S
C193 O187 1.412 . S
C193 C192 1.383 . S
C193 C194 1.394 . S
C194 H184 0.929 . S
C194 C190 1.377 . S
C194 C193 1.394 . S
H195 C202 0.929 . S
H196 C205 0.930 . S
H197 C207 0.929 . S
H198 C199 0.969 . S
C199 H198 0.969 . S
C199 O200 1.550 . S
C199 H201 0.973 . S
O200 C199 1.550 . S
O200 C206 1.412 . S
H201 C199 0.973 . S
C202 H195 0.929 . S
C202 C203 1.400 . S
C202 C204 1.364 1_554 S
C203 C202 1.400 . S
C203 C207 1.377 1_554 S
C204 C202 1.364 1_556 S
C204 C205 1.374 . S
C205 H196 0.930 . S
C205 C204 1.374 . S
C205 C206 1.383 . S
C206 O200 1.412 . S
C206 C205 1.383 . S
C206 C207 1.394 . S
C207 H197 0.929 . S
C207 C203 1.377 1_556 S
C207 C206 1.394 . S
Mn208 O213 2.095 . S
Mn208 O223 2.162 . S
Mn208 O224 2.297 . S
Mn208 O232 2.385 1_554 S
Mn208 O233 2.209 1_554 S
Mn208 O234 2.094 . S
Mn209 O214 2.121 . S
Mn209 N216 2.257 . S
Mn209 N225 2.282 . S
Mn209 O233 2.215 . S
Mn209 O235 2.117 . S
C210 O232 1.234 . S
C210 O233 1.283 . S
C211 O223 1.281 . S
C211 O224 1.236 . S
C212 O234 1.240 1_556 S
C212 O235 1.264 . S
O213 Mn208 2.095 . S
O213 C222 1.250 1_554 S
O214 Mn209 2.121 . S
O214 C222 1.258 . S
C215 N216 1.326 . S
C215 C219 1.460 . S
C215 H221 0.929 . S
N216 Mn209 2.257 . S
N216 C215 1.326 . S
N216 C220 1.362 . S
C217 C218 1.258 . S
C217 C220 1.431 . S
C217 C237 1.449 . S
C218 C217 1.258 . S
C218 C219 1.477 . S
C218 H238 0.931 . S
C219 C215 1.460 . S
C219 C218 1.477 . S
C219 H239 0.930 . S
C220 N216 1.362 . S
C220 C217 1.431 . S
C220 C230 1.476 . S
H221 C215 0.929 . S
C222 O213 1.250 1_556 S
C222 O214 1.258 . S
O223 Mn208 2.162 . S
O223 C211 1.281 . S
O224 Mn208 2.297 . S
O224 C211 1.236 . S
N225 Mn209 2.282 . S
N225 C226 1.328 . S
N225 C230 1.318 . S
C226 N225 1.328 . S
C226 C227 1.457 . S
C226 H231 0.929 . S
C227 C226 1.457 . S
C227 C228 1.291 . S
C227 H240 0.931 . S
C228 C227 1.291 . S
C228 C229 1.373 . S
C228 H241 0.929 . S
C229 C228 1.373 . S
C229 C230 1.396 . S
C229 C236 1.403 . S
C230 C220 1.476 . S
C230 N225 1.318 . S
C230 C229 1.396 . S
H231 C226 0.929 . S
O232 Mn208 2.385 1_556 S
O232 C210 1.234 . S
O233 Mn208 2.209 1_556 S
O233 Mn209 2.215 . S
O233 C210 1.283 . S
O234 Mn208 2.094 . S
O234 C212 1.240 1_554 S
O235 Mn209 2.117 . S
O235 C212 1.264 . S
C236 C229 1.403 . S
C236 C237 1.399 . S
C236 H242 0.929 . S
C237 C217 1.449 . S
C237 C236 1.399 . S
C237 H243 0.930 . S
H238 C218 0.931 . S
H239 C219 0.930 . S
H240 C227 0.931 . S
H241 C228 0.929 . S
H242 C236 0.929 . S
H243 C237 0.930 . S
Mn244 O249 2.095 . S
Mn244 O259 2.162 . S
Mn244 O260 2.297 . S
Mn244 O268 2.385 . S
Mn244 O269 2.209 . S
Mn244 O270 2.094 . S
Mn245 O250 2.121 . S
Mn245 N252 2.257 . S
Mn245 N261 2.282 . S
Mn245 O269 2.215 . S
Mn245 O271 2.117 . S
C246 O268 1.234 . S
C246 O269 1.283 . S
C247 O259 1.281 . S
C247 O260 1.236 . S
C248 O270 1.240 . S
C248 O271 1.264 . S
O249 Mn244 2.095 . S
O249 C258 1.250 . S
O250 Mn245 2.121 . S
O250 C258 1.258 . S
C251 N252 1.326 . S
C251 C255 1.460 . S
C251 H257 0.929 . S
N252 Mn245 2.257 . S
N252 C251 1.326 . S
N252 C256 1.362 . S
C253 C254 1.258 . S
C253 C256 1.431 . S
C253 C273 1.449 . S
C254 C253 1.258 . S
C254 C255 1.477 . S
C254 H274 0.931 . S
C255 C251 1.460 . S
C255 C254 1.477 . S
C255 H275 0.930 . S
C256 N252 1.362 . S
C256 C253 1.431 . S
C256 C266 1.476 . S
H257 C251 0.929 . S
C258 O249 1.250 . S
C258 O250 1.258 . S
O259 Mn244 2.162 . S
O259 C247 1.281 . S
O260 Mn244 2.297 . S
O260 C247 1.236 . S
N261 Mn245 2.282 . S
N261 C262 1.328 . S
N261 C266 1.318 . S
C262 N261 1.328 . S
C262 C263 1.457 . S
C262 H267 0.929 . S
C263 C262 1.457 . S
C263 C264 1.291 . S
C263 H276 0.931 . S
C264 C263 1.291 . S
C264 C265 1.373 . S
C264 H277 0.929 . S
C265 C264 1.373 . S
C265 C266 1.396 . S
C265 C272 1.403 . S
C266 C256 1.476 . S
C266 N261 1.318 . S
C266 C265 1.396 . S
H267 C262 0.929 . S
O268 Mn244 2.385 . S
O268 C246 1.234 . S
O269 Mn244 2.209 . S
O269 Mn245 2.215 . S
O269 C246 1.283 . S
O270 Mn244 2.094 . S
O270 C248 1.240 . S
O271 Mn245 2.117 . S
O271 C248 1.264 . S
C272 C265 1.403 . S
C272 C273 1.399 . S
C272 H278 0.929 . S
C273 C253 1.449 . S
C273 C272 1.399 . S
C273 H279 0.930 . S
H274 C254 0.931 . S
H275 C255 0.930 . S
H276 C263 0.931 . S
H277 C264 0.929 . S
H278 C272 0.929 . S
H279 C273 0.930 . S
Mn280 O285 2.095 . S
Mn280 O295 2.162 . S
Mn280 O296 2.297 . S
Mn280 O304 2.385 . S
Mn280 O305 2.209 . S
Mn280 O306 2.094 . S
Mn281 O286 2.121 1_554 S
Mn281 N288 2.257 1_554 S
Mn281 N297 2.282 . S
Mn281 O305 2.215 . S
Mn281 O307 2.117 . S
C282 O304 1.234 . S
C282 O305 1.283 . S
C283 O295 1.281 . S
C283 O296 1.236 . S
C284 O306 1.240 . S
C284 O307 1.264 . S
O285 Mn280 2.095 . S
O285 C294 1.250 1_554 S
O286 Mn281 2.121 1_556 S
O286 C294 1.258 . S
C287 N288 1.326 . S
C287 C291 1.460 . S
C287 H293 0.929 . S
N288 Mn281 2.257 1_556 S
N288 C287 1.326 . S
N288 C292 1.362 . S
C289 C290 1.258 . S
C289 C292 1.431 . S
C289 C309 1.449 . S
C290 C289 1.258 . S
C290 C291 1.477 . S
C290 H310 0.931 . S
C291 C287 1.460 . S
C291 C290 1.477 . S
C291 H311 0.930 . S
C292 N288 1.362 . S
C292 C289 1.431 . S
C292 C302 1.476 1_556 S
H293 C287 0.929 . S
C294 O285 1.250 1_556 S
C294 O286 1.258 . S
O295 Mn280 2.162 . S
O295 C283 1.281 . S
O296 Mn280 2.297 . S
O296 C283 1.236 . S
N297 Mn281 2.282 . S
N297 C298 1.328 . S
N297 C302 1.318 . S
C298 N297 1.328 . S
C298 C299 1.457 . S
C298 H303 0.929 . S
C299 C298 1.457 . S
C299 C300 1.291 . S
C299 H312 0.931 . S
C300 C299 1.291 . S
C300 C301 1.373 . S
C300 H313 0.929 . S
C301 C300 1.373 . S
C301 C302 1.396 . S
C301 C308 1.403 1_554 S
C302 C292 1.476 1_554 S
C302 N297 1.318 . S
C302 C301 1.396 . S
H303 C298 0.929 . S
O304 Mn280 2.385 . S
O304 C282 1.234 . S
O305 Mn280 2.209 . S
O305 Mn281 2.215 . S
O305 C282 1.283 . S
O306 Mn280 2.094 . S
O306 C284 1.240 . S
O307 Mn281 2.117 . S
O307 C284 1.264 . S
C308 C301 1.403 1_556 S
C308 C309 1.399 . S
C308 H314 0.929 . S
C309 C289 1.449 . S
C309 C308 1.399 . S
C309 H315 0.930 . S
H310 C290 0.931 . S
H311 C291 0.930 . S
H312 C299 0.931 . S
H313 C300 0.929 . S
H314 C308 0.929 . S
H315 C309 0.930 . S
Mn316 O321 2.095 . S
Mn316 O331 2.162 . S
Mn316 O332 2.297 . S
Mn316 O340 2.385 . S
Mn316 O341 2.209 1_545 S
Mn316 O342 2.094 . S
Mn317 O322 2.121 . S
Mn317 N324 2.257 . S
Mn317 N333 2.282 . S
Mn317 O341 2.215 . S
Mn317 O343 2.117 1_565 S
C318 O340 1.234 1_565 S
C318 O341 1.283 . S
C319 O331 1.281 . S
C319 O332 1.236 . S
C320 O342 1.240 . S
C320 O343 1.264 . S
O321 Mn316 2.095 . S
O321 C330 1.250 . S
O322 Mn317 2.121 . S
O322 C330 1.258 1_565 S
C323 N324 1.326 . S
C323 C327 1.460 . S
C323 H329 0.929 . S
N324 Mn317 2.257 . S
N324 C323 1.326 . S
N324 C328 1.362 . S
C325 C326 1.258 . S
C325 C328 1.431 . S
C325 C345 1.449 . S
C326 C325 1.258 . S
C326 C327 1.477 . S
C326 H346 0.931 . S
C327 C323 1.460 . S
C327 C326 1.477 . S
C327 H347 0.930 . S
C328 N324 1.362 . S
C328 C325 1.431 . S
C328 C338 1.476 . S
H329 C323 0.929 . S
C330 O321 1.250 . S
C330 O322 1.258 1_545 S
O331 Mn316 2.162 . S
O331 C319 1.281 . S
O332 Mn316 2.297 . S
O332 C319 1.236 . S
N333 Mn317 2.282 . S
N333 C334 1.328 . S
N333 C338 1.318 . S
C334 N333 1.328 . S
C334 C335 1.457 . S
C334 H339 0.929 . S
C335 C334 1.457 . S
C335 C336 1.291 . S
C335 H348 0.931 . S
C336 C335 1.291 . S
C336 C337 1.373 . S
C336 H349 0.929 . S
C337 C336 1.373 . S
C337 C338 1.396 . S
C337 C344 1.403 . S
C338 C328 1.476 . S
C338 N333 1.318 . S
C338 C337 1.396 . S
H339 C334 0.929 . S
O340 Mn316 2.385 . S
O340 C318 1.234 1_545 S
O341 Mn316 2.209 1_565 S
O341 Mn317 2.215 . S
O341 C318 1.283 . S
O342 Mn316 2.094 . S
O342 C320 1.240 . S
O343 Mn317 2.117 1_545 S
O343 C320 1.264 . S
C344 C337 1.403 . S
C344 C345 1.399 . S
C344 H350 0.929 . S
C345 C325 1.449 . S
C345 C344 1.399 . S
C345 H351 0.930 . S
H346 C326 0.931 . S
H347 C327 0.930 . S
H348 C335 0.931 . S
H349 C336 0.929 . S
H350 C344 0.929 . S
H351 C345 0.930 . S
Mn352 O357 2.095 . S
Mn352 O367 2.162 . S
Mn352 O368 2.297 . S
Mn352 O376 2.385 . S
Mn352 O377 2.209 . S
Mn352 O378 2.094 . S
Mn353 O358 2.121 . S
Mn353 N360 2.257 . S
Mn353 N369 2.282 . S
Mn353 O377 2.215 . S
Mn353 O379 2.117 . S
C354 O376 1.234 . S
C354 O377 1.283 . S
C355 O367 1.281 . S
C355 O368 1.236 . S
C356 O378 1.240 . S
C356 O379 1.264 . S
O357 Mn352 2.095 . S
O357 C366 1.250 . S
O358 Mn353 2.121 . S
O358 C366 1.258 . S
C359 N360 1.326 . S
C359 C363 1.460 . S
C359 H365 0.929 . S
N360 Mn353 2.257 . S
N360 C359 1.326 . S
N360 C364 1.362 . S
C361 C362 1.258 . S
C361 C364 1.431 . S
C361 C381 1.449 . S
C362 C361 1.258 . S
C362 C363 1.477 . S
C362 H382 0.931 . S
C363 C359 1.460 . S
C363 C362 1.477 . S
C363 H383 0.930 . S
C364 N360 1.362 . S
C364 C361 1.431 . S
C364 C374 1.476 . S
H365 C359 0.929 . S
C366 O357 1.250 . S
C366 O358 1.258 . S
O367 Mn352 2.162 . S
O367 C355 1.281 . S
O368 Mn352 2.297 . S
O368 C355 1.236 . S
N369 Mn353 2.282 . S
N369 C370 1.328 . S
N369 C374 1.318 . S
C370 N369 1.328 . S
C370 C371 1.457 . S
C370 H375 0.929 . S
C371 C370 1.457 . S
C371 C372 1.291 . S
C371 H384 0.931 . S
C372 C371 1.291 . S
C372 C373 1.373 . S
C372 H385 0.929 . S
C373 C372 1.373 . S
C373 C374 1.396 . S
C373 C380 1.403 . S
C374 C364 1.476 . S
C374 N369 1.318 . S
C374 C373 1.396 . S
H375 C370 0.929 . S
O376 Mn352 2.385 . S
O376 C354 1.234 . S
O377 Mn352 2.209 . S
O377 Mn353 2.215 . S
O377 C354 1.283 . S
O378 Mn352 2.094 . S
O378 C356 1.240 . S
O379 Mn353 2.117 . S
O379 C356 1.264 . S
C380 C373 1.403 . S
C380 C381 1.399 . S
C380 H386 0.929 . S
C381 C361 1.449 . S
C381 C380 1.399 . S
C381 H387 0.930 . S
H382 C362 0.931 . S
H383 C363 0.930 . S
H384 C371 0.931 . S
H385 C372 0.929 . S
H386 C380 0.929 . S
H387 C381 0.930 . S
Mn388 O393 2.095 . S
Mn388 O403 2.162 . S
Mn388 O404 2.297 . S
Mn388 O412 2.385 . S
Mn388 O413 2.209 . S
Mn388 O414 2.094 . S
Mn389 O394 2.121 . S
Mn389 N396 2.257 . S
Mn389 N405 2.282 . S
Mn389 O413 2.215 . S
Mn389 O415 2.117 . S
C390 O412 1.234 . S
C390 O413 1.283 . S
C391 O403 1.281 . S
C391 O404 1.236 . S
C392 O414 1.240 . S
C392 O415 1.264 . S
O393 Mn388 2.095 . S
O393 C402 1.250 . S
O394 Mn389 2.121 . S
O394 C402 1.258 . S
C395 N396 1.326 . S
C395 C399 1.460 . S
C395 H401 0.929 . S
N396 Mn389 2.257 . S
N396 C395 1.326 . S
N396 C400 1.362 . S
C397 C398 1.258 . S
C397 C400 1.431 . S
C397 C417 1.449 . S
C398 C397 1.258 . S
C398 C399 1.477 . S
C398 H418 0.931 . S
C399 C395 1.460 . S
C399 C398 1.477 . S
C399 H419 0.930 . S
C400 N396 1.362 . S
C400 C397 1.431 . S
C400 C410 1.476 . S
H401 C395 0.929 . S
C402 O393 1.250 . S
C402 O394 1.258 . S
O403 Mn388 2.162 . S
O403 C391 1.281 . S
O404 Mn388 2.297 . S
O404 C391 1.236 . S
N405 Mn389 2.282 . S
N405 C406 1.328 . S
N405 C410 1.318 . S
C406 N405 1.328 . S
C406 C407 1.457 . S
C406 H411 0.929 . S
C407 C406 1.457 . S
C407 C408 1.291 . S
C407 H420 0.931 . S
C408 C407 1.291 . S
C408 C409 1.373 . S
C408 H421 0.929 . S
C409 C408 1.373 . S
C409 C410 1.396 . S
C409 C416 1.403 . S
C410 C400 1.476 . S
C410 N405 1.318 . S
C410 C409 1.396 . S
H411 C406 0.929 . S
O412 Mn388 2.385 . S
O412 C390 1.234 . S
O413 Mn388 2.209 . S
O413 Mn389 2.215 . S
O413 C390 1.283 . S
O414 Mn388 2.094 . S
O414 C392 1.240 . S
O415 Mn389 2.117 . S
O415 C392 1.264 . S
C416 C409 1.403 . S
C416 C417 1.399 . S
C416 H422 0.929 . S
C417 C397 1.449 . S
C417 C416 1.399 . S
C417 H423 0.930 . S
H418 C398 0.931 . S
H419 C399 0.930 . S
H420 C407 0.931 . S
H421 C408 0.929 . S
H422 C416 0.929 . S
H423 C417 0.930 . S
Mn424 O429 2.095 . S
Mn424 O439 2.162 . S
Mn424 O440 2.297 . S
Mn424 O448 2.385 . S
Mn424 O449 2.209 . S
Mn424 O450 2.094 . S
Mn425 O430 2.121 . S
Mn425 N432 2.257 . S
Mn425 N441 2.282 . S
Mn425 O449 2.215 . S
Mn425 O451 2.117 . S
C426 O448 1.234 . S
C426 O449 1.283 . S
C427 O439 1.281 . S
C427 O440 1.236 . S
C428 O450 1.240 . S
C428 O451 1.264 . S
O429 Mn424 2.095 . S
O429 C438 1.250 . S
O430 Mn425 2.121 . S
O430 C438 1.258 . S
C431 N432 1.326 . S
C431 C435 1.460 . S
C431 H437 0.929 . S
N432 Mn425 2.257 . S
N432 C431 1.326 . S
N432 C436 1.362 . S
C433 C434 1.258 . S
C433 C436 1.431 . S
C433 C453 1.449 . S
C434 C433 1.258 . S
C434 C435 1.477 . S
C434 H454 0.931 . S
C435 C431 1.460 . S
C435 C434 1.477 . S
C435 H455 0.930 . S
C436 N432 1.362 . S
C436 C433 1.431 . S
C436 C446 1.476 . S
H437 C431 0.929 . S
C438 O429 1.250 . S
C438 O430 1.258 . S
O439 Mn424 2.162 . S
O439 C427 1.281 . S
O440 Mn424 2.297 . S
O440 C427 1.236 . S
N441 Mn425 2.282 . S
N441 C442 1.328 . S
N441 C446 1.318 . S
C442 N441 1.328 . S
C442 C443 1.457 . S
C442 H447 0.929 . S
C443 C442 1.457 . S
C443 C444 1.291 . S
C443 H456 0.931 . S
C444 C443 1.291 . S
C444 C445 1.373 . S
C444 H457 0.929 . S
C445 C444 1.373 . S
C445 C446 1.396 . S
C445 C452 1.403 . S
C446 C436 1.476 . S
C446 N441 1.318 . S
C446 C445 1.396 . S
H447 C442 0.929 . S
O448 Mn424 2.385 . S
O448 C426 1.234 . S
O449 Mn424 2.209 . S
O449 Mn425 2.215 . S
O449 C426 1.283 . S
O450 Mn424 2.094 . S
O450 C428 1.240 . S
O451 Mn425 2.117 . S
O451 C428 1.264 . S
C452 C445 1.403 . S
C452 C453 1.399 . S
C452 H458 0.929 . S
C453 C433 1.449 . S
C453 C452 1.399 . S
C453 H459 0.930 . S
H454 C434 0.931 . S
H455 C435 0.930 . S
H456 C443 0.931 . S
H457 C444 0.929 . S
H458 C452 0.929 . S
H459 C453 0.930 . S
Mn460 O465 2.095 . S
Mn460 O475 2.162 . S
Mn460 O476 2.297 . S
Mn460 O484 2.385 1_565 S
Mn460 O485 2.209 1_565 S
Mn460 O486 2.094 . S
Mn461 O466 2.121 . S
Mn461 N468 2.257 . S
Mn461 N477 2.282 . S
Mn461 O485 2.215 . S
Mn461 O487 2.117 . S
C462 O484 1.234 . S
C462 O485 1.283 . S
C463 O475 1.281 . S
C463 O476 1.236 . S
C464 O486 1.240 . S
C464 O487 1.264 1_565 S
O465 Mn460 2.095 . S
O465 C474 1.250 1_565 S
O466 Mn461 2.121 . S
O466 C474 1.258 . S
C467 N468 1.326 . S
C467 C471 1.460 . S
C467 H473 0.929 . S
N468 Mn461 2.257 . S
N468 C467 1.326 . S
N468 C472 1.362 . S
C469 C470 1.258 . S
C469 C472 1.431 . S
C469 C489 1.449 . S
C470 C469 1.258 . S
C470 C471 1.477 . S
C470 H490 0.931 . S
C471 C467 1.460 . S
C471 C470 1.477 . S
C471 H491 0.930 . S
C472 N468 1.362 . S
C472 C469 1.431 . S
C472 C482 1.476 . S
H473 C467 0.929 . S
C474 O465 1.250 1_545 S
C474 O466 1.258 . S
O475 Mn460 2.162 . S
O475 C463 1.281 . S
O476 Mn460 2.297 . S
O476 C463 1.236 . S
N477 Mn461 2.282 . S
N477 C478 1.328 . S
N477 C482 1.318 . S
C478 N477 1.328 . S
C478 C479 1.457 . S
C478 H483 0.929 . S
C479 C478 1.457 . S
C479 C480 1.291 . S
C479 H492 0.931 . S
C480 C479 1.291 . S
C480 C481 1.373 . S
C480 H493 0.929 . S
C481 C480 1.373 . S
C481 C482 1.396 . S
C481 C488 1.403 . S
C482 C472 1.476 . S
C482 N477 1.318 . S
C482 C481 1.396 . S
H483 C478 0.929 . S
O484 Mn460 2.385 1_545 S
O484 C462 1.234 . S
O485 Mn460 2.209 1_545 S
O485 Mn461 2.215 . S
O485 C462 1.283 . S
O486 Mn460 2.094 . S
O486 C464 1.240 . S
O487 Mn461 2.117 . S
O487 C464 1.264 1_545 S
C488 C481 1.403 . S
C488 C489 1.399 . S
C488 H494 0.929 . S
C489 C469 1.449 . S
C489 C488 1.399 . S
C489 H495 0.930 . S
H490 C470 0.931 . S
H491 C471 0.930 . S
H492 C479 0.931 . S
H493 C480 0.929 . S
H494 C488 0.929 . S
H495 C489 0.930 . S
Mn496 O501 2.095 . S
Mn496 O511 2.162 . S
Mn496 O512 2.297 . S
Mn496 O520 2.385 1_455 S
Mn496 O521 2.209 1_455 S
Mn496 O522 2.094 . S
Mn497 O502 2.121 . S
Mn497 N504 2.257 . S
Mn497 N513 2.282 . S
Mn497 O521 2.215 . S
Mn497 O523 2.117 . S
C498 O520 1.234 . S
C498 O521 1.283 . S
C499 O511 1.281 . S
C499 O512 1.236 . S
C500 O522 1.240 1_655 S
C500 O523 1.264 . S
O501 Mn496 2.095 . S
O501 C510 1.250 1_455 S
O502 Mn497 2.121 . S
O502 C510 1.258 . S
C503 N504 1.326 . S
C503 C507 1.460 . S
C503 H509 0.929 . S
N504 Mn497 2.257 . S
N504 C503 1.326 . S
N504 C508 1.362 . S
C505 C506 1.258 . S
C505 C508 1.431 . S
C505 C525 1.449 . S
C506 C505 1.258 . S
C506 C507 1.477 . S
C506 H526 0.931 . S
C507 C503 1.460 . S
C507 C506 1.477 . S
C507 H527 0.930 . S
C508 N504 1.362 . S
C508 C505 1.431 . S
C508 C518 1.476 . S
H509 C503 0.929 . S
C510 O501 1.250 1_655 S
C510 O502 1.258 . S
O511 Mn496 2.162 . S
O511 C499 1.281 . S
O512 Mn496 2.297 . S
O512 C499 1.236 . S
N513 Mn497 2.282 . S
N513 C514 1.328 . S
N513 C518 1.318 . S
C514 N513 1.328 . S
C514 C515 1.457 . S
C514 H519 0.929 . S
C515 C514 1.457 . S
C515 C516 1.291 . S
C515 H528 0.931 . S
C516 C515 1.291 . S
C516 C517 1.373 . S
C516 H529 0.929 . S
C517 C516 1.373 . S
C517 C518 1.396 . S
C517 C524 1.403 . S
C518 C508 1.476 . S
C518 N513 1.318 . S
C518 C517 1.396 . S
H519 C514 0.929 . S
O520 Mn496 2.385 1_655 S
O520 C498 1.234 . S
O521 Mn496 2.209 1_655 S
O521 Mn497 2.215 . S
O521 C498 1.283 . S
O522 Mn496 2.094 . S
O522 C500 1.240 1_455 S
O523 Mn497 2.117 . S
O523 C500 1.264 . S
C524 C517 1.403 . S
C524 C525 1.399 . S
C524 H530 0.929 . S
C525 C505 1.449 . S
C525 C524 1.399 . S
C525 H531 0.930 . S
H526 C506 0.931 . S
H527 C507 0.930 . S
H528 C515 0.931 . S
H529 C516 0.929 . S
H530 C524 0.929 . S
H531 C525 0.930 . S
Mn532 O537 2.095 . S
Mn532 O547 2.162 . S
Mn532 O548 2.297 . S
Mn532 O556 2.385 . S
Mn532 O557 2.209 . S
Mn532 O558 2.094 . S
Mn533 O538 2.121 . S
Mn533 N540 2.257 . S
Mn533 N549 2.282 . S
Mn533 O557 2.215 . S
Mn533 O559 2.117 . S
C534 O556 1.234 . S
C534 O557 1.283 . S
C535 O547 1.281 . S
C535 O548 1.236 . S
C536 O558 1.240 . S
C536 O559 1.264 . S
O537 Mn532 2.095 . S
O537 C546 1.250 . S
O538 Mn533 2.121 . S
O538 C546 1.258 . S
C539 N540 1.326 . S
C539 C543 1.460 . S
C539 H545 0.929 . S
N540 Mn533 2.257 . S
N540 C539 1.326 . S
N540 C544 1.362 . S
C541 C542 1.258 . S
C541 C544 1.431 . S
C541 C561 1.449 . S
C542 C541 1.258 . S
C542 C543 1.477 . S
C542 H562 0.931 . S
C543 C539 1.460 . S
C543 C542 1.477 . S
C543 H563 0.930 . S
C544 N540 1.362 . S
C544 C541 1.431 . S
C544 C554 1.476 . S
H545 C539 0.929 . S
C546 O537 1.250 . S
C546 O538 1.258 . S
O547 Mn532 2.162 . S
O547 C535 1.281 . S
O548 Mn532 2.297 . S
O548 C535 1.236 . S
N549 Mn533 2.282 . S
N549 C550 1.328 . S
N549 C554 1.318 . S
C550 N549 1.328 . S
C550 C551 1.457 . S
C550 H555 0.929 . S
C551 C550 1.457 . S
C551 C552 1.291 . S
C551 H564 0.931 . S
C552 C551 1.291 . S
C552 C553 1.373 . S
C552 H565 0.929 . S
C553 C552 1.373 . S
C553 C554 1.396 . S
C553 C560 1.403 . S
C554 C544 1.476 . S
C554 N549 1.318 . S
C554 C553 1.396 . S
H555 C550 0.929 . S
O556 Mn532 2.385 . S
O556 C534 1.234 . S
O557 Mn532 2.209 . S
O557 Mn533 2.215 . S
O557 C534 1.283 . S
O558 Mn532 2.094 . S
O558 C536 1.240 . S
O559 Mn533 2.117 . S
O559 C536 1.264 . S
C560 C553 1.403 . S
C560 C561 1.399 . S
C560 H566 0.929 . S
C561 C541 1.449 . S
C561 C560 1.399 . S
C561 H567 0.930 . S
H562 C542 0.931 . S
H563 C543 0.930 . S
H564 C551 0.931 . S
H565 C552 0.929 . S
H566 C560 0.929 . S
H567 C561 0.930 . S
Mn568 O573 2.095 . S
Mn568 O583 2.162 . S
Mn568 O584 2.297 . S
Mn568 O592 2.385 . S
Mn568 O593 2.209 . S
Mn568 O594 2.094 . S
Mn569 O574 2.121 1_455 S
Mn569 N576 2.257 1_455 S
Mn569 N585 2.282 . S
Mn569 O593 2.215 . S
Mn569 O595 2.117 . S
C570 O592 1.234 . S
C570 O593 1.283 . S
C571 O583 1.281 . S
C571 O584 1.236 . S
C572 O594 1.240 . S
C572 O595 1.264 . S
O573 Mn568 2.095 . S
O573 C582 1.250 1_455 S
O574 Mn569 2.121 1_655 S
O574 C582 1.258 . S
C575 N576 1.326 . S
C575 C579 1.460 . S
C575 H581 0.929 . S
N576 Mn569 2.257 1_655 S
N576 C575 1.326 . S
N576 C580 1.362 . S
C577 C578 1.258 . S
C577 C580 1.431 . S
C577 C597 1.449 . S
C578 C577 1.258 . S
C578 C579 1.477 . S
C578 H598 0.931 . S
C579 C575 1.460 . S
C579 C578 1.477 . S
C579 H599 0.930 . S
C580 N576 1.362 . S
C580 C577 1.431 . S
C580 C590 1.476 . S
H581 C575 0.929 . S
C582 O573 1.250 1_655 S
C582 O574 1.258 . S
O583 Mn568 2.162 . S
O583 C571 1.281 . S
O584 Mn568 2.297 . S
O584 C571 1.236 . S
N585 Mn569 2.282 . S
N585 C586 1.328 . S
N585 C590 1.318 1_455 S
C586 N585 1.328 . S
C586 C587 1.457 . S
C586 H591 0.929 . S
C587 C586 1.457 . S
C587 C588 1.291 . S
C587 H600 0.931 . S
C588 C587 1.291 . S
C588 C589 1.373 . S
C588 H601 0.929 . S
C589 C588 1.373 . S
C589 C590 1.396 1_455 S
C589 C596 1.403 1_455 S
C590 C580 1.476 . S
C590 N585 1.318 1_655 S
C590 C589 1.396 1_655 S
H591 C586 0.929 . S
O592 Mn568 2.385 . S
O592 C570 1.234 . S
O593 Mn568 2.209 . S
O593 Mn569 2.215 . S
O593 C570 1.283 . S
O594 Mn568 2.094 . S
O594 C572 1.240 . S
O595 Mn569 2.117 . S
O595 C572 1.264 . S
C596 C589 1.403 1_655 S
C596 C597 1.399 . S
C596 H602 0.929 . S
C597 C577 1.449 . S
C597 C596 1.399 . S
C597 H603 0.930 . S
H598 C578 0.931 . S
H599 C579 0.930 . S
H600 C587 0.931 . S
H601 C588 0.929 . S
H602 C596 0.929 . S
H603 C597 0.930 . S
Mn604 O609 2.095 . S
Mn604 O619 2.162 . S
Mn604 O620 2.297 . S
Mn604 O628 2.385 . S
Mn604 O629 2.209 . S
Mn604 O630 2.094 . S
Mn605 O610 2.121 . S
Mn605 N612 2.257 . S
Mn605 N621 2.282 . S
Mn605 O629 2.215 . S
Mn605 O631 2.117 . S
C606 O628 1.234 . S
C606 O629 1.283 . S
C607 O619 1.281 . S
C607 O620 1.236 . S
C608 O630 1.240 . S
C608 O631 1.264 . S
O609 Mn604 2.095 . S
O609 C618 1.250 . S
O610 Mn605 2.121 . S
O610 C618 1.258 . S
C611 N612 1.326 . S
C611 C615 1.460 . S
C611 H617 0.929 . S
N612 Mn605 2.257 . S
N612 C611 1.326 . S
N612 C616 1.362 . S
C613 C614 1.258 . S
C613 C616 1.431 . S
C613 C633 1.449 . S
C614 C613 1.258 . S
C614 C615 1.477 . S
C614 H634 0.931 . S
C615 C611 1.460 . S
C615 C614 1.477 . S
C615 H635 0.930 . S
C616 N612 1.362 . S
C616 C613 1.431 . S
C616 C626 1.476 . S
H617 C611 0.929 . S
C618 O609 1.250 . S
C618 O610 1.258 . S
O619 Mn604 2.162 . S
O619 C607 1.281 . S
O620 Mn604 2.297 . S
O620 C607 1.236 . S
N621 Mn605 2.282 . S
N621 C622 1.328 . S
N621 C626 1.318 . S
C622 N621 1.328 . S
C622 C623 1.457 . S
C622 H627 0.929 . S
C623 C622 1.457 . S
C623 C624 1.291 . S
C623 H636 0.931 . S
C624 C623 1.291 . S
C624 C625 1.373 . S
C624 H637 0.929 . S
C625 C624 1.373 . S
C625 C626 1.396 . S
C625 C632 1.403 . S
C626 C616 1.476 . S
C626 N621 1.318 . S
C626 C625 1.396 . S
H627 C622 0.929 . S
O628 Mn604 2.385 . S
O628 C606 1.234 . S
O629 Mn604 2.209 . S
O629 Mn605 2.215 . S
O629 C606 1.283 . S
O630 Mn604 2.094 . S
O630 C608 1.240 . S
O631 Mn605 2.117 . S
O631 C608 1.264 . S
C632 C625 1.403 . S
C632 C633 1.399 . S
C632 H638 0.929 . S
C633 C613 1.449 . S
C633 C632 1.399 . S
C633 H639 0.930 . S
H634 C614 0.931 . S
H635 C615 0.930 . S
H636 C623 0.931 . S
H637 C624 0.929 . S
H638 C632 0.929 . S
H639 C633 0.930 . S
C640 C641 1.391 . S
C640 C642 1.394 . S
C640 H656 0.931 . S
C641 C640 1.391 . S
C641 C645 1.376 . S
C642 C640 1.394 . S
C642 C643 1.369 . S
C642 C646 1.531 . S
C643 C642 1.369 . S
C643 C644 1.410 . S
C643 C651 1.503 . S
C644 C643 1.410 . S
C644 C645 1.392 . S
C644 C647 1.511 . S
C645 C641 1.376 . S
C645 C644 1.392 . S
C645 H657 0.929 . S
C646 C642 1.531 . S
C646 H658 0.960 . S
C646 H659 0.962 . S
C646 H660 0.960 . S
C647 C644 1.511 . S
C647 H661 0.961 . S
C647 H662 0.961 . S
C647 H663 0.961 . S
C648 C649 1.370 . S
C648 C650 1.363 . S
C648 H664 0.931 . S
C649 C648 1.370 . S
C649 C653 1.408 . S
C650 C648 1.363 . S
C650 C651 1.370 . S
C650 C654 1.524 . S
C651 C643 1.503 . S
C651 C650 1.370 . S
C651 C652 1.403 . S
C652 C651 1.403 . S
C652 C653 1.404 . S
C652 C655 1.539 . S
C653 C649 1.408 . S
C653 C652 1.404 . S
C653 H665 0.930 . S
C654 C650 1.524 . S
C654 H666 0.956 . S
C654 H667 0.961 . S
C654 H668 0.961 . S
C655 C652 1.539 . S
C655 H669 0.958 . S
C655 H670 0.961 . S
C655 H671 0.960 . S
H656 C640 0.931 . S
H657 C645 0.929 . S
H658 C646 0.960 . S
H659 C646 0.962 . S
H660 C646 0.960 . S
H661 C647 0.961 . S
H662 C647 0.961 . S
H663 C647 0.961 . S
H664 C648 0.931 . S
H665 C653 0.930 . S
H666 C654 0.956 . S
H667 C654 0.961 . S
H668 C654 0.961 . S
H669 C655 0.958 . S
H670 C655 0.961 . S
H671 C655 0.960 . S
C672 C673 1.391 . S
C672 C674 1.394 . S
C672 H688 0.931 . S
C673 C672 1.391 . S
C673 C677 1.376 . S
C674 C672 1.394 . S
C674 C675 1.369 . S
C674 C678 1.531 . S
C675 C674 1.369 . S
C675 C676 1.410 . S
C675 C683 1.503 . S
C676 C675 1.410 . S
C676 C677 1.392 . S
C676 C679 1.511 . S
C677 C673 1.376 . S
C677 C676 1.392 . S
C677 H689 0.929 . S
C678 C674 1.531 . S
C678 H690 0.960 . S
C678 H691 0.962 . S
C678 H692 0.960 . S
C679 C676 1.511 . S
C679 H693 0.961 . S
C679 H694 0.961 . S
C679 H695 0.961 . S
C680 C681 1.370 . S
C680 C682 1.363 . S
C680 H696 0.931 . S
C681 C680 1.370 . S
C681 C685 1.408 . S
C682 C680 1.363 . S
C682 C683 1.370 . S
C682 C686 1.524 . S
C683 C675 1.503 . S
C683 C682 1.370 . S
C683 C684 1.403 . S
C684 C683 1.403 . S
C684 C685 1.404 . S
C684 C687 1.539 . S
C685 C681 1.408 . S
C685 C684 1.404 . S
C685 H697 0.930 . S
C686 C682 1.524 . S
C686 H698 0.956 . S
C686 H699 0.961 . S
C686 H700 0.961 . S
C687 C684 1.539 . S
C687 H701 0.958 . S
C687 H702 0.961 . S
C687 H703 0.960 . S
H688 C672 0.931 . S
H689 C677 0.929 . S
H690 C678 0.960 . S
H691 C678 0.962 . S
H692 C678 0.960 . S
H693 C679 0.961 . S
H694 C679 0.961 . S
H695 C679 0.961 . S
H696 C680 0.931 . S
H697 C685 0.930 . S
H698 C686 0.956 . S
H699 C686 0.961 . S
H700 C686 0.961 . S
H701 C687 0.958 . S
H702 C687 0.961 . S
H703 C687 0.960 . S
C704 C705 1.391 . S
C704 C706 1.394 . S
C704 H720 0.931 . S
C705 C704 1.391 . S
C705 C709 1.376 . S
C706 C704 1.394 . S
C706 C707 1.369 . S
C706 C710 1.531 . S
C707 C706 1.369 . S
C707 C708 1.410 . S
C707 C715 1.503 . S
C708 C707 1.410 . S
C708 C709 1.392 . S
C708 C711 1.511 . S
C709 C705 1.376 . S
C709 C708 1.392 . S
C709 H721 0.929 . S
C710 C706 1.531 . S
C710 H722 0.960 . S
C710 H723 0.962 . S
C710 H724 0.960 . S
C711 C708 1.511 . S
C711 H725 0.961 . S
C711 H726 0.961 . S
C711 H727 0.961 . S
C712 C713 1.370 . S
C712 C714 1.363 . S
C712 H728 0.931 . S
C713 C712 1.370 . S
C713 C717 1.408 . S
C714 C712 1.363 . S
C714 C715 1.370 . S
C714 C718 1.524 . S
C715 C707 1.503 . S
C715 C714 1.370 . S
C715 C716 1.403 . S
C716 C715 1.403 . S
C716 C717 1.404 . S
C716 C719 1.539 . S
C717 C713 1.408 . S
C717 C716 1.404 . S
C717 H729 0.930 . S
C718 C714 1.524 . S
C718 H730 0.956 . S
C718 H731 0.961 . S
C718 H732 0.961 . S
C719 C716 1.539 . S
C719 H733 0.958 . S
C719 H734 0.961 . S
C719 H735 0.960 . S
H720 C704 0.931 . S
H721 C709 0.929 . S
H722 C710 0.960 . S
H723 C710 0.962 . S
H724 C710 0.960 . S
H725 C711 0.961 . S
H726 C711 0.961 . S
H727 C711 0.961 . S
H728 C712 0.931 . S
H729 C717 0.930 . S
H730 C718 0.956 . S
H731 C718 0.961 . S
H732 C718 0.961 . S
H733 C719 0.958 . S
H734 C719 0.961 . S
H735 C719 0.960 . S
C736 C737 1.391 . S
C736 C738 1.394 . S
C736 H752 0.931 . S
C737 C736 1.391 . S
C737 C741 1.376 1_565 S
C738 C736 1.394 . S
C738 C739 1.369 . S
C738 C742 1.531 . S
C739 C738 1.369 . S
C739 C740 1.410 1_565 S
C739 C747 1.503 1_565 S
C740 C739 1.410 1_545 S
C740 C741 1.392 . S
C740 C743 1.511 . S
C741 C737 1.376 1_545 S
C741 C740 1.392 . S
C741 H753 0.929 . S
C742 C738 1.531 . S
C742 H754 0.960 . S
C742 H755 0.962 . S
C742 H756 0.960 . S
C743 C740 1.511 . S
C743 H757 0.961 . S
C743 H758 0.961 . S
C743 H759 0.961 . S
C744 C745 1.370 . S
C744 C746 1.363 . S
C744 H760 0.931 . S
C745 C744 1.370 . S
C745 C749 1.408 . S
C746 C744 1.363 . S
C746 C747 1.370 . S
C746 C750 1.524 . S
C747 C739 1.503 1_545 S
C747 C746 1.370 . S
C747 C748 1.403 1_545 S
C748 C747 1.403 1_565 S
C748 C749 1.404 1_565 S
C748 C751 1.539 . S
C749 C745 1.408 . S
C749 C748 1.404 1_545 S
C749 H761 0.930 1_545 S
C750 C746 1.524 . S
C750 H762 0.956 . S
C750 H763 0.961 . S
C750 H764 0.961 . S
C751 C748 1.539 . S
C751 H765 0.958 . S
C751 H766 0.961 . S
C751 H767 0.960 . S
H752 C736 0.931 . S
H753 C741 0.929 . S
H754 C742 0.960 . S
H755 C742 0.962 . S
H756 C742 0.960 . S
H757 C743 0.961 . S
H758 C743 0.961 . S
H759 C743 0.961 . S
H760 C744 0.931 . S
H761 C749 0.930 1_565 S
H762 C750 0.956 . S
H763 C750 0.961 . S
H764 C750 0.961 . S
H765 C751 0.958 . S
H766 C751 0.961 . S
H767 C751 0.960 . S
C768 C769 1.391 . S
C768 C770 1.394 . S
C768 H784 0.931 . S
C769 C768 1.391 . S
C769 C773 1.376 . S
C770 C768 1.394 . S
C770 C771 1.369 . S
C770 C774 1.531 . S
C771 C770 1.369 . S
C771 C772 1.410 . S
C771 C779 1.503 . S
C772 C771 1.410 . S
C772 C773 1.392 . S
C772 C775 1.511 . S
C773 C769 1.376 . S
C773 C772 1.392 . S
C773 H785 0.929 . S
C774 C770 1.531 . S
C774 H786 0.960 . S
C774 H787 0.962 . S
C774 H788 0.960 . S
C775 C772 1.511 . S
C775 H789 0.961 . S
C775 H790 0.961 . S
C775 H791 0.961 . S
C776 C777 1.370 . S
C776 C778 1.363 . S
C776 H792 0.931 . S
C777 C776 1.370 . S
C777 C781 1.408 . S
C778 C776 1.363 . S
C778 C779 1.370 . S
C778 C782 1.524 . S
C779 C771 1.503 . S
C779 C778 1.370 . S
C779 C780 1.403 . S
C780 C779 1.403 . S
C780 C781 1.404 . S
C780 C783 1.539 . S
C781 C777 1.408 . S
C781 C780 1.404 . S
C781 H793 0.930 . S
C782 C778 1.524 . S
C782 H794 0.956 . S
C782 H795 0.961 . S
C782 H796 0.961 . S
C783 C780 1.539 . S
C783 H797 0.958 . S
C783 H798 0.961 . S
C783 H799 0.960 . S
H784 C768 0.931 . S
H785 C773 0.929 . S
H786 C774 0.960 . S
H787 C774 0.962 . S
H788 C774 0.960 . S
H789 C775 0.961 . S
H790 C775 0.961 . S
H791 C775 0.961 . S
H792 C776 0.931 . S
H793 C781 0.930 . S
H794 C782 0.956 . S
H795 C782 0.961 . S
H796 C782 0.961 . S
H797 C783 0.958 . S
H798 C783 0.961 . S
H799 C783 0.960 . S
C800 C801 1.391 . S
C800 C802 1.394 . S
C800 H816 0.931 . S
C801 C800 1.391 . S
C801 C805 1.376 . S
C802 C800 1.394 . S
C802 C803 1.369 . S
C802 C806 1.531 . S
C803 C802 1.369 . S
C803 C804 1.410 . S
C803 C811 1.503 . S
C804 C803 1.410 . S
C804 C805 1.392 . S
C804 C807 1.511 . S
C805 C801 1.376 . S
C805 C804 1.392 . S
C805 H817 0.929 . S
C806 C802 1.531 . S
C806 H818 0.960 . S
C806 H819 0.962 . S
C806 H820 0.960 . S
C807 C804 1.511 . S
C807 H821 0.961 . S
C807 H822 0.961 . S
C807 H823 0.961 . S
C808 C809 1.370 . S
C808 C810 1.363 . S
C808 H824 0.931 . S
C809 C808 1.370 . S
C809 C813 1.408 . S
C810 C808 1.363 . S
C810 C811 1.370 . S
C810 C814 1.524 . S
C811 C803 1.503 . S
C811 C810 1.370 . S
C811 C812 1.403 . S
C812 C811 1.403 . S
C812 C813 1.404 . S
C812 C815 1.539 . S
C813 C809 1.408 . S
C813 C812 1.404 . S
C813 H825 0.930 . S
C814 C810 1.524 . S
C814 H826 0.956 . S
C814 H827 0.961 . S
C814 H828 0.961 . S
C815 C812 1.539 . S
C815 H829 0.958 . S
C815 H830 0.961 . S
C815 H831 0.960 . S
H816 C800 0.931 . S
H817 C805 0.929 . S
H818 C806 0.960 . S
H819 C806 0.962 . S
H820 C806 0.960 . S
H821 C807 0.961 . S
H822 C807 0.961 . S
H823 C807 0.961 . S
H824 C808 0.931 . S
H825 C813 0.930 . S
H826 C814 0.956 . S
H827 C814 0.961 . S
H828 C814 0.961 . S
H829 C815 0.958 . S
H830 C815 0.961 . S
H831 C815 0.960 . S
C832 C833 1.391 . S
C832 C834 1.394 . S
C832 H848 0.931 . S
C833 C832 1.391 . S
C833 C837 1.376 . S
C834 C832 1.394 . S
C834 C835 1.369 . S
C834 C838 1.531 . S
C835 C834 1.369 . S
C835 C836 1.410 . S
C835 C843 1.503 . S
C836 C835 1.410 . S
C836 C837 1.392 . S
C836 C839 1.511 . S
C837 C833 1.376 . S
C837 C836 1.392 . S
C837 H849 0.929 . S
C838 C834 1.531 . S
C838 H850 0.960 . S
C838 H851 0.962 . S
C838 H852 0.960 . S
C839 C836 1.511 . S
C839 H853 0.961 . S
C839 H854 0.961 . S
C839 H855 0.961 . S
C840 C841 1.370 . S
C840 C842 1.363 . S
C840 H856 0.931 . S
C841 C840 1.370 . S
C841 C845 1.408 . S
C842 C840 1.363 . S
C842 C843 1.370 . S
C842 C846 1.524 . S
C843 C835 1.503 . S
C843 C842 1.370 . S
C843 C844 1.403 . S
C844 C843 1.403 . S
C844 C845 1.404 . S
C844 C847 1.539 . S
C845 C841 1.408 . S
C845 C844 1.404 . S
C845 H857 0.930 . S
C846 C842 1.524 . S
C846 H858 0.956 . S
C846 H859 0.961 . S
C846 H860 0.961 . S
C847 C844 1.539 . S
C847 H861 0.958 . S
C847 H862 0.961 . S
C847 H863 0.960 . S
H848 C832 0.931 . S
H849 C837 0.929 . S
H850 C838 0.960 . S
H851 C838 0.962 . S
H852 C838 0.960 . S
H853 C839 0.961 . S
H854 C839 0.961 . S
H855 C839 0.961 . S
H856 C840 0.931 . S
H857 C845 0.930 . S
H858 C846 0.956 . S
H859 C846 0.961 . S
H860 C846 0.961 . S
H861 C847 0.958 . S
H862 C847 0.961 . S
H863 C847 0.960 . S
C864 C865 1.391 . S
C864 C866 1.394 . S
C864 H880 0.931 . S
C865 C864 1.391 . S
C865 C869 1.376 . S
C866 C864 1.394 . S
C866 C867 1.369 . S
C866 C870 1.531 . S
C867 C866 1.369 . S
C867 C868 1.410 . S
C867 C875 1.503 . S
C868 C867 1.410 . S
C868 C869 1.392 . S
C868 C871 1.511 . S
C869 C865 1.376 . S
C869 C868 1.392 . S
C869 H881 0.929 . S
C870 C866 1.531 . S
C870 H882 0.976 . S
C870 H883 0.962 . S
C870 H884 0.960 . S
C871 C868 1.511 . S
C871 H885 0.961 . S
C871 H886 0.961 . S
C871 H887 0.961 1_565 S
C872 C873 1.370 . S
C872 C874 1.363 . S
C872 H888 0.931 . S
C873 C872 1.370 . S
C873 C877 1.408 1_565 S
C874 C872 1.363 . S
C874 C875 1.370 . S
C874 C878 1.524 . S
C875 C867 1.503 . S
C875 C874 1.370 . S
C875 C876 1.403 1_565 S
C876 C875 1.403 1_545 S
C876 C877 1.404 . S
C876 C879 1.539 . S
C877 C873 1.408 1_545 S
C877 C876 1.404 . S
C877 H889 0.930 . S
C878 C874 1.524 . S
C878 H890 0.956 . S
C878 H891 0.961 . S
C878 H892 0.961 . S
C879 C876 1.539 . S
C879 H893 0.958 . S
C879 H894 0.961 . S
C879 H895 0.960 . S
H880 C864 0.931 . S
H881 C869 0.929 . S
H882 C870 0.976 . S
H883 C870 0.962 . S
H884 C870 0.960 . S
H885 C871 0.961 . S
H886 C871 0.961 . S
H887 C871 0.961 1_545 S
H888 C872 0.931 . S
H889 C877 0.930 . S
H890 C878 0.956 . S
H891 C878 0.961 . S
H892 C878 0.961 . S
H893 C879 0.958 . S
H894 C879 0.961 . S
H895 C879 0.960 . S
C896 C897 1.391 . S
C896 C898 1.394 . S
C896 H912 0.931 . S
C897 C896 1.391 . S
C897 C901 1.376 . S
C898 C896 1.394 . S
C898 C899 1.369 . S
C898 C902 1.531 . S
C899 C898 1.369 . S
C899 C900 1.410 . S
C899 C907 1.503 . S
C900 C899 1.410 . S
C900 C901 1.392 . S
C900 C903 1.511 . S
C901 C897 1.376 . S
C901 C900 1.392 . S
C901 H913 0.929 . S
C902 C898 1.531 . S
C902 H914 0.960 . S
C902 H915 0.962 . S
C902 H916 0.960 . S
C903 C900 1.511 . S
C903 H917 0.961 . S
C903 H918 0.961 . S
C903 H919 0.961 . S
C904 C905 1.370 . S
C904 C906 1.363 . S
C904 H920 0.931 . S
C905 C904 1.370 . S
C905 C909 1.408 . S
C906 C904 1.363 . S
C906 C907 1.370 . S
C906 C910 1.524 . S
C907 C899 1.503 . S
C907 C906 1.370 . S
C907 C908 1.403 . S
C908 C907 1.403 . S
C908 C909 1.404 . S
C908 C911 1.539 . S
C909 C905 1.408 . S
C909 C908 1.404 . S
C909 H921 0.930 . S
C910 C906 1.524 . S
C910 H922 0.956 . S
C910 H923 0.961 . S
C910 H924 0.961 . S
C911 C908 1.539 . S
C911 H925 0.958 . S
C911 H926 0.961 . S
C911 H927 0.960 . S
H912 C896 0.931 . S
H913 C901 0.929 . S
H914 C902 0.960 . S
H915 C902 0.962 . S
H916 C902 0.960 . S
H917 C903 0.961 . S
H918 C903 0.961 . S
H919 C903 0.961 . S
H920 C904 0.931 . S
H921 C909 0.930 . S
H922 C910 0.956 . S
H923 C910 0.961 . S
H924 C910 0.961 . S
H925 C911 0.958 . S
H926 C911 0.961 . S
H927 C911 0.960 . S
C928 C929 1.391 . S
C928 C930 1.394 . S
C928 H944 0.931 . S
C929 C928 1.391 . S
C929 C933 1.376 . S
C930 C928 1.394 . S
C930 C931 1.369 . S
C930 C934 1.531 . S
C931 C930 1.369 . S
C931 C932 1.410 . S
C931 C939 1.503 . S
C932 C931 1.410 . S
C932 C933 1.392 . S
C932 C935 1.511 . S
C933 C929 1.376 . S
C933 C932 1.392 . S
C933 H945 0.929 . S
C934 C930 1.531 . S
C934 H946 0.960 . S
C934 H947 0.962 . S
C934 H948 0.960 . S
C935 C932 1.511 . S
C935 H949 0.961 . S
C935 H950 0.961 . S
C935 H951 0.961 . S
C936 C937 1.370 . S
C936 C938 1.363 . S
C936 H952 0.931 . S
C937 C936 1.370 . S
C937 C941 1.408 . S
C938 C936 1.363 . S
C938 C939 1.370 . S
C938 C942 1.524 . S
C939 C931 1.503 . S
C939 C938 1.370 . S
C939 C940 1.403 . S
C940 C939 1.403 . S
C940 C941 1.404 . S
C940 C943 1.539 . S
C941 C937 1.408 . S
C941 C940 1.404 . S
C941 H953 0.930 . S
C942 C938 1.524 . S
C942 H954 0.956 . S
C942 H955 0.961 . S
C942 H956 0.961 . S
C943 C940 1.539 . S
C943 H957 0.958 . S
C943 H958 0.961 . S
C943 H959 0.960 . S
H944 C928 0.931 . S
H945 C933 0.929 . S
H946 C934 0.960 . S
H947 C934 0.962 . S
H948 C934 0.960 . S
H949 C935 0.961 . S
H950 C935 0.961 . S
H951 C935 0.961 . S
H952 C936 0.931 . S
H953 C941 0.930 . S
H954 C942 0.956 . S
H955 C942 0.961 . S
H956 C942 0.961 . S
H957 C943 0.958 . S
H958 C943 0.961 . S
H959 C943 0.960 . S
C960 C961 1.391 . S
C960 C962 1.394 . S
C960 H976 0.931 . S
C961 C960 1.391 . S
C961 C965 1.376 . S
C962 C960 1.394 . S
C962 C963 1.369 . S
C962 C966 1.531 . S
C963 C962 1.369 . S
C963 C964 1.410 . S
C963 C971 1.503 . S
C964 C963 1.410 . S
C964 C965 1.392 . S
C964 C967 1.511 . S
C965 C961 1.376 . S
C965 C964 1.392 . S
C965 H977 0.929 . S
C966 C962 1.531 . S
C966 H978 0.960 . S
C966 H979 0.962 . S
C966 H980 0.960 . S
C967 C964 1.511 . S
C967 H981 0.961 . S
C967 H982 0.961 . S
C967 H983 0.961 . S
C968 C969 1.370 . S
C968 C970 1.363 . S
C968 H984 0.931 . S
C969 C968 1.370 . S
C969 C973 1.408 . S
C970 C968 1.363 . S
C970 C971 1.370 . S
C970 C974 1.524 . S
C971 C963 1.503 . S
C971 C970 1.370 . S
C971 C972 1.403 . S
C972 C971 1.403 . S
C972 C973 1.404 . S
C972 C975 1.539 . S
C973 C969 1.408 . S
C973 C972 1.404 . S
C973 H985 0.930 . S
C974 C970 1.524 . S
C974 H986 0.956 . S
C974 H987 0.961 . S
C974 H988 0.961 . S
C975 C972 1.539 . S
C975 H989 0.958 . S
C975 H990 0.961 . S
C975 H991 0.960 . S
H976 C960 0.931 . S
H977 C965 0.929 . S
H978 C966 0.960 . S
H979 C966 0.962 . S
H980 C966 0.960 . S
H981 C967 0.961 . S
H982 C967 0.961 . S
H983 C967 0.961 . S
H984 C968 0.931 . S
H985 C973 0.930 . S
H986 C974 0.956 . S
H987 C974 0.961 . S
H988 C974 0.961 . S
H989 C975 0.958 . S
H990 C975 0.961 . S
H991 C975 0.960 . S
C992 C993 1.391 . S
C992 C994 1.394 . S
C992 H1008 0.931 . S
C993 C992 1.391 . S
C993 C997 1.376 . S
C994 C992 1.394 . S
C994 C995 1.369 . S
C994 C998 1.531 . S
C995 C994 1.369 . S
C995 C996 1.410 . S
C995 C1003 1.503 . S
C996 C995 1.410 . S
C996 C997 1.392 . S
C996 C999 1.511 . S
C997 C993 1.376 . S
C997 C996 1.392 . S
C997 H1009 0.929 . S
C998 C994 1.531 . S
C998 H1010 0.960 . S
C998 H1011 0.962 . S
C998 H1012 0.960 . S
C999 C996 1.511 . S
C999 H1013 0.961 . S
C999 H1014 0.961 . S
C999 H1015 0.961 . S
C1000 C1001 1.370 . S
C1000 C1002 1.363 . S
C1000 H1016 0.931 . S
C1001 C1000 1.370 . S
C1001 C1005 1.408 . S
C1002 C1000 1.363 . S
C1002 C1003 1.370 . S
C1002 C1006 1.524 . S
C1003 C995 1.503 . S
C1003 C1002 1.370 . S
C1003 C1004 1.403 . S
C1004 C1003 1.403 . S
C1004 C1005 1.404 . S
C1004 C1007 1.539 . S
C1005 C1001 1.408 . S
C1005 C1004 1.404 . S
C1005 H1017 0.930 . S
C1006 C1002 1.524 . S
C1006 H1018 0.956 . S
C1006 H1019 0.961 . S
C1006 H1020 0.961 . S
C1007 C1004 1.539 . S
C1007 H1021 0.958 . S
C1007 H1022 0.961 . S
C1007 H1023 0.960 . S
H1008 C992 0.931 . S
H1009 C997 0.929 . S
H1010 C998 0.960 . S
H1011 C998 0.962 . S
H1012 C998 0.960 . S
H1013 C999 0.961 . S
H1014 C999 0.961 . S
H1015 C999 0.961 . S
H1016 C1000 0.931 . S
H1017 C1005 0.930 . S
H1018 C1006 0.956 . S
H1019 C1006 0.961 . S
H1020 C1006 0.961 . S
H1021 C1007 0.958 . S
H1022 C1007 0.961 . S
H1023 C1007 0.960 . S
C1024 C1025 1.391 . S
C1024 C1026 1.394 . S
C1024 H1040 0.931 . S
C1025 C1024 1.391 . S
C1025 C1029 1.376 . S
C1026 C1024 1.394 . S
C1026 C1027 1.369 . S
C1026 C1030 1.531 . S
C1027 C1026 1.369 . S
C1027 C1028 1.410 . S
C1027 C1035 1.503 . S
C1028 C1027 1.410 . S
C1028 C1029 1.392 . S
C1028 C1031 1.511 . S
C1029 C1025 1.376 . S
C1029 C1028 1.392 . S
C1029 H1041 0.929 . S
C1030 C1026 1.531 . S
C1030 H1042 0.960 . S
C1030 H1043 0.962 . S
C1030 H1044 0.960 . S
C1031 C1028 1.511 . S
C1031 H1045 0.961 . S
C1031 H1046 0.961 . S
C1031 H1047 0.961 . S
C1032 C1033 1.370 . S
C1032 C1034 1.363 . S
C1032 H1048 0.931 . S
C1033 C1032 1.370 . S
C1033 C1037 1.408 . S
C1034 C1032 1.363 . S
C1034 C1035 1.370 . S
C1034 C1038 1.524 . S
C1035 C1027 1.503 . S
C1035 C1034 1.370 . S
C1035 C1036 1.403 . S
C1036 C1035 1.403 . S
C1036 C1037 1.404 . S
C1036 C1039 1.539 . S
C1037 C1033 1.408 . S
C1037 C1036 1.404 . S
C1037 H1049 0.930 . S
C1038 C1034 1.524 . S
C1038 H1050 0.956 . S
C1038 H1051 0.961 . S
C1038 H1052 0.961 . S
C1039 C1036 1.539 . S
C1039 H1053 0.958 . S
C1039 H1054 0.961 . S
C1039 H1055 0.960 . S
H1040 C1024 0.931 . S
H1041 C1029 0.929 . S
H1042 C1030 0.960 . S
H1043 C1030 0.962 . S
H1044 C1030 0.960 . S
H1045 C1031 0.961 . S
H1046 C1031 0.961 . S
H1047 C1031 0.961 . S
H1048 C1032 0.931 . S
H1049 C1037 0.930 . S
H1050 C1038 0.956 . S
H1051 C1038 0.961 . S
H1052 C1038 0.961 . S
H1053 C1039 0.958 . S
H1054 C1039 0.961 . S
H1055 C1039 0.960 . S
C1056 C1057 1.391 . S
C1056 C1058 1.394 . S
C1056 H1072 0.931 . S
C1057 C1056 1.391 . S
C1057 C1061 1.376 . S
C1058 C1056 1.394 . S
C1058 C1059 1.369 . S
C1058 C1062 1.531 . S
C1059 C1058 1.369 . S
C1059 C1060 1.410 . S
C1059 C1067 1.503 . S
C1060 C1059 1.410 . S
C1060 C1061 1.392 . S
C1060 C1063 1.511 . S
C1061 C1057 1.376 . S
C1061 C1060 1.392 . S
C1061 H1073 0.929 . S
C1062 C1058 1.531 . S
C1062 H1074 0.960 . S
C1062 H1075 0.962 . S
C1062 H1076 0.985 . S
C1063 C1060 1.511 . S
C1063 H1077 0.961 . S
C1063 H1078 0.961 . S
C1063 H1079 0.961 . S
C1064 C1065 1.370 . S
C1064 C1066 1.363 . S
C1064 H1080 0.931 . S
C1065 C1064 1.370 . S
C1065 C1069 1.408 . S
C1066 C1064 1.363 . S
C1066 C1067 1.370 . S
C1066 C1070 1.524 . S
C1067 C1059 1.503 . S
C1067 C1066 1.370 . S
C1067 C1068 1.403 . S
C1068 C1067 1.403 . S
C1068 C1069 1.404 . S
C1068 C1071 1.539 1_455 S
C1069 C1065 1.408 . S
C1069 C1068 1.404 . S
C1069 H1081 0.930 1_455 S
C1070 C1066 1.524 . S
C1070 H1082 0.956 . S
C1070 H1083 0.961 . S
C1070 H1084 0.961 . S
C1071 C1068 1.539 1_655 S
C1071 H1085 0.958 . S
C1071 H1086 0.961 . S
C1071 H1087 0.960 . S
H1072 C1056 0.931 . S
H1073 C1061 0.929 . S
H1074 C1062 0.960 . S
H1075 C1062 0.962 . S
H1076 C1062 0.985 . S
H1077 C1063 0.961 . S
H1078 C1063 0.961 . S
H1079 C1063 0.961 . S
H1080 C1064 0.931 . S
H1081 C1069 0.930 1_655 S
H1082 C1070 0.956 . S
H1083 C1070 0.961 . S
H1084 C1070 0.961 . S
H1085 C1071 0.958 . S
H1086 C1071 0.961 . S
H1087 C1071 0.960 . S
C1088 C1089 1.391 . S
C1088 C1090 1.394 . S
C1088 H1104 0.931 . S
C1089 C1088 1.391 . S
C1089 C1093 1.376 . S
C1090 C1088 1.394 . S
C1090 C1091 1.369 . S
C1090 C1094 1.531 . S
C1091 C1090 1.369 . S
C1091 C1092 1.410 . S
C1091 C1099 1.503 . S
C1092 C1091 1.410 . S
C1092 C1093 1.392 . S
C1092 C1095 1.511 . S
C1093 C1089 1.376 . S
C1093 C1092 1.392 . S
C1093 H1105 0.929 . S
C1094 C1090 1.531 . S
C1094 H1106 0.960 . S
C1094 H1107 0.962 . S
C1094 H1108 0.960 . S
C1095 C1092 1.511 . S
C1095 H1109 0.961 . S
C1095 H1110 0.961 . S
C1095 H1111 0.961 . S
C1096 C1097 1.370 . S
C1096 C1098 1.363 . S
C1096 H1112 0.931 . S
C1097 C1096 1.370 . S
C1097 C1101 1.408 . S
C1098 C1096 1.363 . S
C1098 C1099 1.370 . S
C1098 C1102 1.524 . S
C1099 C1091 1.503 . S
C1099 C1098 1.370 . S
C1099 C1100 1.403 . S
C1100 C1099 1.403 . S
C1100 C1101 1.404 . S
C1100 C1103 1.539 . S
C1101 C1097 1.408 . S
C1101 C1100 1.404 . S
C1101 H1113 0.930 . S
C1102 C1098 1.524 . S
C1102 H1114 0.956 . S
C1102 H1115 0.961 . S
C1102 H1116 0.961 . S
C1103 C1100 1.539 . S
C1103 H1117 0.958 . S
C1103 H1118 0.961 . S
C1103 H1119 0.960 . S
H1104 C1088 0.931 . S
H1105 C1093 0.929 . S
H1106 C1094 0.960 . S
H1107 C1094 0.962 . S
H1108 C1094 0.960 . S
H1109 C1095 0.961 . S
H1110 C1095 0.961 . S
H1111 C1095 0.961 . S
H1112 C1096 0.931 . S
H1113 C1101 0.930 . S
H1114 C1102 0.956 . S
H1115 C1102 0.961 . S
H1116 C1102 0.961 . S
H1117 C1103 0.958 . S
H1118 C1103 0.961 . S
H1119 C1103 0.960 . S
C1120 C1121 1.391 . S
C1120 C1122 1.394 . S
C1120 H1136 0.931 . S
C1121 C1120 1.391 . S
C1121 C1125 1.376 1_655 S
C1122 C1120 1.394 . S
C1122 C1123 1.369 . S
C1122 C1126 1.531 . S
C1123 C1122 1.369 . S
C1123 C1124 1.410 1_655 S
C1123 C1131 1.503 1_655 S
C1124 C1123 1.410 1_455 S
C1124 C1125 1.392 . S
C1124 C1127 1.511 . S
C1125 C1121 1.376 1_455 S
C1125 C1124 1.392 . S
C1125 H1137 0.929 . S
C1126 C1122 1.531 . S
C1126 H1138 0.960 . S
C1126 H1139 0.962 . S
C1126 H1140 0.960 . S
C1127 C1124 1.511 . S
C1127 H1141 0.961 . S
C1127 H1142 0.961 . S
C1127 H1143 0.961 . S
C1128 C1129 1.370 . S
C1128 C1130 1.363 . S
C1128 H1144 0.931 . S
C1129 C1128 1.370 . S
C1129 C1133 1.408 . S
C1130 C1128 1.363 . S
C1130 C1131 1.370 . S
C1130 C1134 1.524 . S
C1131 C1123 1.503 1_455 S
C1131 C1130 1.370 . S
C1131 C1132 1.403 1_455 S
C1132 C1131 1.403 1_655 S
C1132 C1133 1.404 1_655 S
C1132 C1135 1.539 . S
C1133 C1129 1.408 . S
C1133 C1132 1.404 1_455 S
C1133 H1145 0.938 . S
C1134 C1130 1.524 . S
C1134 H1146 0.956 1_455 S
C1134 H1147 0.961 . S
C1134 H1148 0.961 . S
C1135 C1132 1.539 . S
C1135 H1149 0.958 . S
C1135 H1150 0.961 1_655 S
C1135 H1151 0.960 . S
H1136 C1120 0.931 . S
H1137 C1125 0.929 . S
H1138 C1126 0.960 . S
H1139 C1126 0.962 . S
H1140 C1126 0.960 . S
H1141 C1127 0.961 . S
H1142 C1127 0.961 . S
H1143 C1127 0.961 . S
H1144 C1128 0.931 . S
H1145 C1133 0.938 . S
H1146 C1134 0.956 1_655 S
H1147 C1134 0.961 . S
H1148 C1134 0.961 . S
H1149 C1135 0.958 . S
H1150 C1135 0.961 1_455 S
H1151 C1135 0.960 . S
C1152 C1153 1.391 . S
C1152 C1154 1.394 . S
C1152 H1168 0.931 . S
C1153 C1152 1.391 . S
C1153 C1157 1.376 . S
C1154 C1152 1.394 . S
C1154 C1155 1.369 . S
C1154 C1158 1.531 . S
C1155 C1154 1.369 . S
C1155 C1156 1.410 . S
C1155 C1163 1.503 . S
C1156 C1155 1.410 . S
C1156 C1157 1.392 . S
C1156 C1159 1.511 . S
C1157 C1153 1.376 . S
C1157 C1156 1.392 . S
C1157 H1169 0.929 . S
C1158 C1154 1.531 . S
C1158 H1170 0.960 . S
C1158 H1171 0.962 . S
C1158 H1172 0.960 . S
C1159 C1156 1.511 . S
C1159 H1173 0.961 . S
C1159 H1174 0.961 . S
C1159 H1175 0.961 . S
C1160 C1161 1.370 . S
C1160 C1162 1.363 . S
C1160 H1176 0.931 . S
C1161 C1160 1.370 . S
C1161 C1165 1.408 . S
C1162 C1160 1.363 . S
C1162 C1163 1.370 . S
C1162 C1166 1.524 . S
C1163 C1155 1.503 . S
C1163 C1162 1.370 . S
C1163 C1164 1.403 . S
C1164 C1163 1.403 . S
C1164 C1165 1.404 . S
C1164 C1167 1.539 . S
C1165 C1161 1.408 . S
C1165 C1164 1.404 . S
C1165 H1177 0.930 . S
C1166 C1162 1.524 . S
C1166 H1178 0.956 . S
C1166 H1179 0.961 . S
C1166 H1180 0.961 . S
C1167 C1164 1.539 . S
C1167 H1181 0.958 . S
C1167 H1182 0.961 . S
C1167 H1183 0.960 . S
H1168 C1152 0.931 . S
H1169 C1157 0.929 . S
H1170 C1158 0.960 . S
H1171 C1158 0.962 . S
H1172 C1158 0.960 . S
H1173 C1159 0.961 . S
H1174 C1159 0.961 . S
H1175 C1159 0.961 . S
H1176 C1160 0.931 . S
H1177 C1165 0.930 . S
H1178 C1166 0.956 . S
H1179 C1166 0.961 . S
H1180 C1166 0.961 . S
H1181 C1167 0.958 . S
H1182 C1167 0.961 . S
H1183 C1167 0.960 . S
C1184 C1185 1.391 . S
C1184 C1186 1.394 . S
C1184 H1200 0.931 . S
C1185 C1184 1.391 . S
C1185 C1189 1.376 . S
C1186 C1184 1.394 . S
C1186 C1187 1.369 . S
C1186 C1190 1.531 . S
C1187 C1186 1.369 . S
C1187 C1188 1.410 . S
C1187 C1195 1.503 . S
C1188 C1187 1.410 . S
C1188 C1189 1.392 . S
C1188 C1191 1.511 . S
C1189 C1185 1.376 . S
C1189 C1188 1.392 . S
C1189 H1201 0.929 . S
C1190 C1186 1.531 . S
C1190 H1202 0.960 . S
C1190 H1203 0.962 . S
C1190 H1204 0.960 . S
C1191 C1188 1.511 . S
C1191 H1205 0.961 . S
C1191 H1206 0.961 . S
C1191 H1207 0.961 . S
C1192 C1193 1.370 . S
C1192 C1194 1.363 . S
C1192 H1208 0.931 . S
C1193 C1192 1.370 . S
C1193 C1197 1.408 . S
C1194 C1192 1.363 . S
C1194 C1195 1.370 . S
C1194 C1198 1.524 . S
C1195 C1187 1.503 . S
C1195 C1194 1.370 . S
C1195 C1196 1.403 . S
C1196 C1195 1.403 . S
C1196 C1197 1.404 . S
C1196 C1199 1.539 . S
C1197 C1193 1.408 . S
C1197 C1196 1.404 . S
C1197 H1209 0.930 . S
C1198 C1194 1.524 . S
C1198 H1210 0.956 . S
C1198 H1211 0.961 . S
C1198 H1212 0.961 . S
C1199 C1196 1.539 . S
C1199 H1213 0.958 . S
C1199 H1214 0.961 . S
C1199 H1215 0.960 . S
H1200 C1184 0.931 . S
H1201 C1189 0.929 . S
H1202 C1190 0.960 . S
H1203 C1190 0.962 . S
H1204 C1190 0.960 . S
H1205 C1191 0.961 . S
H1206 C1191 0.961 . S
H1207 C1191 0.961 . S
H1208 C1192 0.931 . S
H1209 C1197 0.930 . S
H1210 C1198 0.956 . S
H1211 C1198 0.961 . S
H1212 C1198 0.961 . S
H1213 C1199 0.958 . S
H1214 C1199 0.961 . S
H1215 C1199 0.960 . S
C1216 C1217 1.392 1_565 S
C1216 C1218 1.392 1_556 S
C1216 H1232 0.932 1_556 S
C1217 C1216 1.392 1_545 S
C1217 C1221 1.376 . S
C1218 C1216 1.392 1_554 S
C1218 C1219 1.369 . S
C1218 C1222 1.531 . S
C1219 C1218 1.369 . S
C1219 C1220 1.410 1_564 S
C1219 C1227 1.503 . S
C1220 C1219 1.410 1_546 S
C1220 C1221 1.392 . S
C1220 C1223 1.511 . S
C1221 C1217 1.376 . S
C1221 C1220 1.392 . S
C1221 H1233 0.929 . S
C1222 C1218 1.531 . S
C1222 H1234 0.960 . S
C1222 H1235 0.962 1_554 S
C1222 H1236 0.960 . S
C1223 C1220 1.511 . S
C1223 H1237 0.961 . S
C1223 H1238 0.961 . S
C1223 H1239 0.961 1_556 S
C1224 C1225 1.370 . S
C1224 C1226 1.363 . S
C1224 H1240 0.931 . S
C1225 C1224 1.370 . S
C1225 C1229 1.408 1_556 S
C1226 C1224 1.363 . S
C1226 C1227 1.369 1_556 S
C1226 C1230 1.524 . S
C1227 C1219 1.503 . S
C1227 C1226 1.369 1_554 S
C1227 C1228 1.404 . S
C1228 C1227 1.404 . S
C1228 C1229 1.404 . S
C1228 C1231 1.539 . S
C1229 C1225 1.408 1_554 S
C1229 C1228 1.404 . S
C1229 H1241 0.930 . S
C1230 C1226 1.524 . S
C1230 H1242 0.956 . S
C1230 H1243 0.961 . S
C1230 H1244 0.961 . S
C1231 C1228 1.539 . S
C1231 H1245 0.958 . S
C1231 H1246 0.961 . S
C1231 H1247 0.960 . S
H1232 C1216 0.932 1_554 S
H1233 C1221 0.929 . S
H1234 C1222 0.960 . S
H1235 C1222 0.962 1_556 S
H1236 C1222 0.960 . S
H1237 C1223 0.961 . S
H1238 C1223 0.961 . S
H1239 C1223 0.961 1_554 S
H1240 C1224 0.931 . S
H1241 C1229 0.930 . S
H1242 C1230 0.956 . S
H1243 C1230 0.961 . S
H1244 C1230 0.961 . S
H1245 C1231 0.958 . S
H1246 C1231 0.961 . S
H1247 C1231 0.960 . S
C1248 C1249 1.391 . S
C1248 C1250 1.394 . S
C1248 H1264 0.931 . S
C1249 C1248 1.391 . S
C1249 C1253 1.376 . S
C1250 C1248 1.394 . S
C1250 C1251 1.369 . S
C1250 C1254 1.531 . S
C1251 C1250 1.369 . S
C1251 C1252 1.410 . S
C1251 C1259 1.503 . S
C1252 C1251 1.410 . S
C1252 C1253 1.392 . S
C1252 C1255 1.511 . S
C1253 C1249 1.376 . S
C1253 C1252 1.392 . S
C1253 H1265 0.929 . S
C1254 C1250 1.531 . S
C1254 H1266 0.960 . S
C1254 H1267 0.962 . S
C1254 H1268 0.960 . S
C1255 C1252 1.511 . S
C1255 H1269 0.961 . S
C1255 H1270 0.961 . S
C1255 H1271 0.961 . S
C1256 C1257 1.370 . S
C1256 C1258 1.363 . S
C1256 H1272 0.931 . S
C1257 C1256 1.370 . S
C1257 C1261 1.408 . S
C1258 C1256 1.363 . S
C1258 C1259 1.370 . S
C1258 C1262 1.524 . S
C1259 C1251 1.503 . S
C1259 C1258 1.370 . S
C1259 C1260 1.403 . S
C1260 C1259 1.403 . S
C1260 C1261 1.404 . S
C1260 C1263 1.539 . S
C1261 C1257 1.408 . S
C1261 C1260 1.404 . S
C1261 H1273 0.930 . S
C1262 C1258 1.524 . S
C1262 H1274 0.956 . S
C1262 H1275 0.961 . S
C1262 H1276 0.961 . S
C1263 C1260 1.539 . S
C1263 H1277 0.958 . S
C1263 H1278 0.961 . S
C1263 H1279 0.960 . S
H1264 C1248 0.931 . S
H1265 C1253 0.929 . S
H1266 C1254 0.960 . S
H1267 C1254 0.962 . S
H1268 C1254 0.960 . S
H1269 C1255 0.961 . S
H1270 C1255 0.961 . S
H1271 C1255 0.961 . S
H1272 C1256 0.931 . S
H1273 C1261 0.930 . S
H1274 C1262 0.956 . S
H1275 C1262 0.961 . S
H1276 C1262 0.961 . S
H1277 C1263 0.958 . S
H1278 C1263 0.961 . S
H1279 C1263 0.960 . S
C1280 C1281 1.391 . S
C1280 C1282 1.394 . S
C1280 H1296 0.931 . S
C1281 C1280 1.391 . S
C1281 C1285 1.376 . S
C1282 C1280 1.394 . S
C1282 C1283 1.369 . S
C1282 C1286 1.531 . S
C1283 C1282 1.369 . S
C1283 C1284 1.410 . S
C1283 C1291 1.503 . S
C1284 C1283 1.410 . S
C1284 C1285 1.392 . S
C1284 C1287 1.511 . S
C1285 C1281 1.376 . S
C1285 C1284 1.392 . S
C1285 H1297 0.929 1_545 S
C1286 C1282 1.531 . S
C1286 H1298 0.960 . S
C1286 H1299 0.962 . S
C1286 H1300 0.960 . S
C1287 C1284 1.511 . S
C1287 H1301 0.961 1_545 S
C1287 H1302 0.961 . S
C1287 H1303 0.961 1_545 S
C1288 C1289 1.370 . S
C1288 C1290 1.363 . S
C1288 H1304 0.931 . S
C1289 C1288 1.370 . S
C1289 C1293 1.408 . S
C1290 C1288 1.363 . S
C1290 C1291 1.370 . S
C1290 C1294 1.524 . S
C1291 C1283 1.503 . S
C1291 C1290 1.370 . S
C1291 C1292 1.403 . S
C1292 C1291 1.403 . S
C1292 C1293 1.404 . S
C1292 C1295 1.539 . S
C1293 C1289 1.408 . S
C1293 C1292 1.404 . S
C1293 H1305 0.930 . S
C1294 C1290 1.524 . S
C1294 H1306 0.956 . S
C1294 H1307 0.961 . S
C1294 H1308 0.961 . S
C1295 C1292 1.539 . S
C1295 H1309 0.958 . S
C1295 H1310 0.961 . S
C1295 H1311 0.960 . S
H1296 C1280 0.931 . S
H1297 C1285 0.929 1_565 S
H1298 C1286 0.960 . S
H1299 C1286 0.962 . S
H1300 C1286 0.960 . S
H1301 C1287 0.961 1_565 S
H1302 C1287 0.961 . S
H1303 C1287 0.961 1_565 S
H1304 C1288 0.931 . S
H1305 C1293 0.930 . S
H1306 C1294 0.956 . S
H1307 C1294 0.961 . S
H1308 C1294 0.961 . S
H1309 C1295 0.958 . S
H1310 C1295 0.961 . S
H1311 C1295 0.960 . S
C1312 C1313 1.391 . S
C1312 C1314 1.394 . S
C1312 H1328 0.931 . S
C1313 C1312 1.391 . S
C1313 C1317 1.376 . S
C1314 C1312 1.394 . S
C1314 C1315 1.369 . S
C1314 C1318 1.531 . S
C1315 C1314 1.369 . S
C1315 C1316 1.410 . S
C1315 C1323 1.503 . S
C1316 C1315 1.410 . S
C1316 C1317 1.392 . S
C1316 C1319 1.511 . S
C1317 C1313 1.376 . S
C1317 C1316 1.392 . S
C1317 H1329 0.929 . S
C1318 C1314 1.531 . S
C1318 H1330 0.960 . S
C1318 H1331 0.962 . S
C1318 H1332 0.960 . S
C1319 C1316 1.511 . S
C1319 H1333 0.961 . S
C1319 H1334 0.961 . S
C1319 H1335 0.961 . S
C1320 C1321 1.370 . S
C1320 C1322 1.363 . S
C1320 H1336 0.931 . S
C1321 C1320 1.370 . S
C1321 C1325 1.408 . S
C1322 C1320 1.363 . S
C1322 C1323 1.370 . S
C1322 C1326 1.524 . S
C1323 C1315 1.503 . S
C1323 C1322 1.370 . S
C1323 C1324 1.403 . S
C1324 C1323 1.403 . S
C1324 C1325 1.404 . S
C1324 C1327 1.539 . S
C1325 C1321 1.408 . S
C1325 C1324 1.404 . S
C1325 H1337 0.930 . S
C1326 C1322 1.524 . S
C1326 H1338 0.956 . S
C1326 H1339 0.961 . S
C1326 H1340 0.961 . S
C1327 C1324 1.539 . S
C1327 H1341 0.958 . S
C1327 H1342 0.961 . S
C1327 H1343 0.960 . S
H1328 C1312 0.931 . S
H1329 C1317 0.929 . S
H1330 C1318 0.960 . S
H1331 C1318 0.962 . S
H1332 C1318 0.960 . S
H1333 C1319 0.961 . S
H1334 C1319 0.961 . S
H1335 C1319 0.961 . S
H1336 C1320 0.931 . S
H1337 C1325 0.930 . S
H1338 C1326 0.956 . S
H1339 C1326 0.961 . S
H1340 C1326 0.961 . S
H1341 C1327 0.958 . S
H1342 C1327 0.961 . S
H1343 C1327 0.960 . S
C1344 C1345 1.391 1_565 S
C1344 C1346 1.394 1_565 S
C1344 H1360 0.931 . S
C1345 C1344 1.391 1_545 S
C1345 C1349 1.376 . S
C1346 C1344 1.394 1_545 S
C1346 C1347 1.369 . S
C1346 C1350 1.531 1_545 S
C1347 C1346 1.369 . S
C1347 C1348 1.410 . S
C1347 C1355 1.503 . S
C1348 C1347 1.410 . S
C1348 C1349 1.392 . S
C1348 C1351 1.511 . S
C1349 C1345 1.376 . S
C1349 C1348 1.392 . S
C1349 H1361 0.929 . S
C1350 C1346 1.531 1_565 S
C1350 H1362 0.960 1_565 S
C1350 H1363 0.962 . S
C1350 H1364 0.960 . S
C1351 C1348 1.511 . S
C1351 H1365 0.961 . S
C1351 H1366 0.961 . S
C1351 H1367 0.961 . S
C1352 C1353 1.370 . S
C1352 C1354 1.363 . S
C1352 H1368 0.931 . S
C1353 C1352 1.370 . S
C1353 C1357 1.408 . S
C1354 C1352 1.363 . S
C1354 C1355 1.370 . S
C1354 C1358 1.524 . S
C1355 C1347 1.503 . S
C1355 C1354 1.370 . S
C1355 C1356 1.403 . S
C1356 C1355 1.403 . S
C1356 C1357 1.404 . S
C1356 C1359 1.539 . S
C1357 C1353 1.408 . S
C1357 C1356 1.404 . S
C1357 H1369 0.930 . S
C1358 C1354 1.524 . S
C1358 H1370 0.956 . S
C1358 H1371 0.961 . S
C1358 H1372 0.961 . S
C1359 C1356 1.539 . S
C1359 H1373 0.958 . S
C1359 H1374 0.961 . S
C1359 H1375 0.960 . S
H1360 C1344 0.931 . S
H1361 C1349 0.929 . S
H1362 C1350 0.960 1_545 S
H1363 C1350 0.962 . S
H1364 C1350 0.960 . S
H1365 C1351 0.961 . S
H1366 C1351 0.961 . S
H1367 C1351 0.961 . S
H1368 C1352 0.931 . S
H1369 C1357 0.930 . S
H1370 C1358 0.956 . S
H1371 C1358 0.961 . S
H1372 C1358 0.961 . S
H1373 C1359 0.958 . S
H1374 C1359 0.961 . S
H1375 C1359 0.960 . S
C1376 C1377 1.391 . S
C1376 C1378 1.394 . S
C1376 H1392 0.931 . S
C1377 C1376 1.391 . S
C1377 C1381 1.376 . S
C1378 C1376 1.394 . S
C1378 C1379 1.369 . S
C1378 C1382 1.531 . S
C1379 C1378 1.369 . S
C1379 C1380 1.410 . S
C1379 C1387 1.503 . S
C1380 C1379 1.410 . S
C1380 C1381 1.392 . S
C1380 C1383 1.511 . S
C1381 C1377 1.376 . S
C1381 C1380 1.392 . S
C1381 H1393 0.929 . S
C1382 C1378 1.531 . S
C1382 H1394 0.960 . S
C1382 H1395 0.962 . S
C1382 H1396 0.960 . S
C1383 C1380 1.511 . S
C1383 H1397 0.961 . S
C1383 H1398 0.961 . S
C1383 H1399 0.961 . S
C1384 C1385 1.370 . S
C1384 C1386 1.363 . S
C1384 H1400 0.931 . S
C1385 C1384 1.370 . S
C1385 C1389 1.408 . S
C1386 C1384 1.363 . S
C1386 C1387 1.370 . S
C1386 C1390 1.524 . S
C1387 C1379 1.503 . S
C1387 C1386 1.370 . S
C1387 C1388 1.403 . S
C1388 C1387 1.403 . S
C1388 C1389 1.404 . S
C1388 C1391 1.539 . S
C1389 C1385 1.408 . S
C1389 C1388 1.404 . S
C1389 H1401 0.930 . S
C1390 C1386 1.524 . S
C1390 H1402 0.956 . S
C1390 H1403 0.961 . S
C1390 H1404 0.961 . S
C1391 C1388 1.539 . S
C1391 H1405 0.958 . S
C1391 H1406 0.961 . S
C1391 H1407 0.960 . S
H1392 C1376 0.931 . S
H1393 C1381 0.929 . S
H1394 C1382 0.960 . S
H1395 C1382 0.962 . S
H1396 C1382 0.960 . S
H1397 C1383 0.961 . S
H1398 C1383 0.961 . S
H1399 C1383 0.961 . S
H1400 C1384 0.931 . S
H1401 C1389 0.930 . S
H1402 C1390 0.956 . S
H1403 C1390 0.961 . S
H1404 C1390 0.961 . S
H1405 C1391 0.958 . S
H1406 C1391 0.961 . S
H1407 C1391 0.960 . S
C1408 C1409 1.391 . S
C1408 C1410 1.394 . S
C1408 H1424 0.931 . S
C1409 C1408 1.391 . S
C1409 C1413 1.376 . S
C1410 C1408 1.394 . S
C1410 C1411 1.369 . S
C1410 C1414 1.531 . S
C1411 C1410 1.369 . S
C1411 C1412 1.410 . S
C1411 C1419 1.503 . S
C1412 C1411 1.410 . S
C1412 C1413 1.392 . S
C1412 C1415 1.511 . S
C1413 C1409 1.376 . S
C1413 C1412 1.392 . S
C1413 H1425 0.929 . S
C1414 C1410 1.531 . S
C1414 H1426 0.960 . S
C1414 H1427 0.962 . S
C1414 H1428 0.960 . S
C1415 C1412 1.511 . S
C1415 H1429 0.961 . S
C1415 H1430 0.961 . S
C1415 H1431 0.961 . S
C1416 C1417 1.370 . S
C1416 C1418 1.363 . S
C1416 H1432 0.931 . S
C1417 C1416 1.370 . S
C1417 C1421 1.408 . S
C1418 C1416 1.363 . S
C1418 C1419 1.370 . S
C1418 C1422 1.524 . S
C1419 C1411 1.503 . S
C1419 C1418 1.370 . S
C1419 C1420 1.403 . S
C1420 C1419 1.403 . S
C1420 C1421 1.404 . S
C1420 C1423 1.539 . S
C1421 C1417 1.408 . S
C1421 C1420 1.404 . S
C1421 H1433 0.930 . S
C1422 C1418 1.524 . S
C1422 H1434 0.956 . S
C1422 H1435 0.961 . S
C1422 H1436 0.961 . S
C1423 C1420 1.539 . S
C1423 H1437 0.958 . S
C1423 H1438 0.961 . S
C1423 H1439 0.960 . S
H1424 C1408 0.931 . S
H1425 C1413 0.929 . S
H1426 C1414 0.960 . S
H1427 C1414 0.962 . S
H1428 C1414 0.960 . S
H1429 C1415 0.961 . S
H1430 C1415 0.961 . S
H1431 C1415 0.961 . S
H1432 C1416 0.931 . S
H1433 C1421 0.930 . S
H1434 C1422 0.956 . S
H1435 C1422 0.961 . S
H1436 C1422 0.961 . S
H1437 C1423 0.958 . S
H1438 C1423 0.961 . S
H1439 C1423 0.960 . S
C1440 C1441 1.391 . S
C1440 C1442 1.394 . S
C1440 H1456 0.931 . S
C1441 C1440 1.391 . S
C1441 C1445 1.376 . S
C1442 C1440 1.394 . S
C1442 C1443 1.369 . S
C1442 C1446 1.531 . S
C1443 C1442 1.369 . S
C1443 C1444 1.410 . S
C1443 C1451 1.503 . S
C1444 C1443 1.410 . S
C1444 C1445 1.392 . S
C1444 C1447 1.511 . S
C1445 C1441 1.376 . S
C1445 C1444 1.392 . S
C1445 H1457 0.929 . S
C1446 C1442 1.531 . S
C1446 H1458 0.960 1_545 S
C1446 H1459 0.962 . S
C1446 H1460 0.960 1_545 S
C1447 C1444 1.511 . S
C1447 H1461 0.961 . S
C1447 H1462 0.961 . S
C1447 H1463 0.961 . S
C1448 C1449 1.370 . S
C1448 C1450 1.363 . S
C1448 H1464 0.931 . S
C1449 C1448 1.370 . S
C1449 C1453 1.408 1_545 S
C1450 C1448 1.363 . S
C1450 C1451 1.370 . S
C1450 C1454 1.524 . S
C1451 C1443 1.503 . S
C1451 C1450 1.370 . S
C1451 C1452 1.403 1_545 S
C1452 C1451 1.403 1_565 S
C1452 C1453 1.404 . S
C1452 C1455 1.539 . S
C1453 C1449 1.408 1_565 S
C1453 C1452 1.404 . S
C1453 H1465 0.930 . S
C1454 C1450 1.524 . S
C1454 H1466 0.956 . S
C1454 H1467 0.961 . S
C1454 H1468 0.961 . S
C1455 C1452 1.539 . S
C1455 H1469 0.958 . S
C1455 H1470 0.961 . S
C1455 H1471 0.960 . S
H1456 C1440 0.931 . S
H1457 C1445 0.929 . S
H1458 C1446 0.960 1_565 S
H1459 C1446 0.962 . S
H1460 C1446 0.960 1_565 S
H1461 C1447 0.961 . S
H1462 C1447 0.961 . S
H1463 C1447 0.961 . S
H1464 C1448 0.931 . S
H1465 C1453 0.930 . S
H1466 C1454 0.956 . S
H1467 C1454 0.961 . S
H1468 C1454 0.961 . S
H1469 C1455 0.958 . S
H1470 C1455 0.961 . S
H1471 C1455 0.960 . S
C1472 C1473 1.391 . S
C1472 C1474 1.394 . S
C1472 H1488 0.931 . S
C1473 C1472 1.391 . S
C1473 C1477 1.376 . S
C1474 C1472 1.394 . S
C1474 C1475 1.369 . S
C1474 C1478 1.531 . S
C1475 C1474 1.369 . S
C1475 C1476 1.410 . S
C1475 C1483 1.503 . S
C1476 C1475 1.410 . S
C1476 C1477 1.392 . S
C1476 C1479 1.511 . S
C1477 C1473 1.376 . S
C1477 C1476 1.392 . S
C1477 H1489 0.929 . S
C1478 C1474 1.531 . S
C1478 H1490 0.960 . S
C1478 H1491 0.962 . S
C1478 H1492 0.960 . S
C1479 C1476 1.511 . S
C1479 H1493 0.961 . S
C1479 H1494 0.961 . S
C1479 H1495 0.961 . S
C1480 C1481 1.370 . S
C1480 C1482 1.363 . S
C1480 H1496 0.931 . S
C1481 C1480 1.370 . S
C1481 C1485 1.408 . S
C1482 C1480 1.363 . S
C1482 C1483 1.370 . S
C1482 C1486 1.524 . S
C1483 C1475 1.503 . S
C1483 C1482 1.370 . S
C1483 C1484 1.403 . S
C1484 C1483 1.403 . S
C1484 C1485 1.404 . S
C1484 C1487 1.539 . S
C1485 C1481 1.408 . S
C1485 C1484 1.404 . S
C1485 H1497 0.930 . S
C1486 C1482 1.524 . S
C1486 H1498 0.956 . S
C1486 H1499 0.961 . S
C1486 H1500 0.961 . S
C1487 C1484 1.539 . S
C1487 H1501 0.958 . S
C1487 H1502 0.961 . S
C1487 H1503 0.960 . S
H1488 C1472 0.931 . S
H1489 C1477 0.929 . S
H1490 C1478 0.960 . S
H1491 C1478 0.962 . S
H1492 C1478 0.960 . S
H1493 C1479 0.961 . S
H1494 C1479 0.961 . S
H1495 C1479 0.961 . S
H1496 C1480 0.931 . S
H1497 C1485 0.930 . S
H1498 C1486 0.956 . S
H1499 C1486 0.961 . S
H1500 C1486 0.961 . S
H1501 C1487 0.958 . S
H1502 C1487 0.961 . S
H1503 C1487 0.960 . S
C1504 C1505 1.391 . S
C1504 C1506 1.394 . S
C1504 H1520 0.931 . S
C1505 C1504 1.391 . S
C1505 C1509 1.376 . S
C1506 C1504 1.394 . S
C1506 C1507 1.369 . S
C1506 C1510 1.531 . S
C1507 C1506 1.369 . S
C1507 C1508 1.410 . S
C1507 C1515 1.503 . S
C1508 C1507 1.410 . S
C1508 C1509 1.392 . S
C1508 C1511 1.511 . S
C1509 C1505 1.376 . S
C1509 C1508 1.392 . S
C1509 H1521 0.929 . S
C1510 C1506 1.531 . S
C1510 H1522 0.960 . S
C1510 H1523 0.962 . S
C1510 H1524 0.960 . S
C1511 C1508 1.511 . S
C1511 H1525 0.961 . S
C1511 H1526 0.961 . S
C1511 H1527 0.961 . S
C1512 C1513 1.370 . S
C1512 C1514 1.363 . S
C1512 H1528 0.931 . S
C1513 C1512 1.370 . S
C1513 C1517 1.408 . S
C1514 C1512 1.363 . S
C1514 C1515 1.370 . S
C1514 C1518 1.524 . S
C1515 C1507 1.503 . S
C1515 C1514 1.370 . S
C1515 C1516 1.403 . S
C1516 C1515 1.403 . S
C1516 C1517 1.404 . S
C1516 C1519 1.539 . S
C1517 C1513 1.408 . S
C1517 C1516 1.404 . S
C1517 H1529 0.930 . S
C1518 C1514 1.524 . S
C1518 H1530 0.956 . S
C1518 H1531 0.961 . S
C1518 H1532 0.961 . S
C1519 C1516 1.539 . S
C1519 H1533 0.958 . S
C1519 H1534 0.961 . S
C1519 H1535 0.960 . S
H1520 C1504 0.931 . S
H1521 C1509 0.929 . S
H1522 C1510 0.960 . S
H1523 C1510 0.962 . S
H1524 C1510 0.960 . S
H1525 C1511 0.961 . S
H1526 C1511 0.961 . S
H1527 C1511 0.961 . S
H1528 C1512 0.931 . S
H1529 C1517 0.930 . S
H1530 C1518 0.956 . S
H1531 C1518 0.961 . S
H1532 C1518 0.961 . S
H1533 C1519 0.958 . S
H1534 C1519 0.961 . S
H1535 C1519 0.960 . S
C1536 C1537 1.391 . S
C1536 C1538 1.394 . S
C1536 H1552 0.931 . S
C1537 C1536 1.391 . S
C1537 C1541 1.376 . S
C1538 C1536 1.394 . S
C1538 C1539 1.369 . S
C1538 C1542 1.531 . S
C1539 C1538 1.369 . S
C1539 C1540 1.410 . S
C1539 C1547 1.503 . S
C1540 C1539 1.410 . S
C1540 C1541 1.392 . S
C1540 C1543 1.511 . S
C1541 C1537 1.376 . S
C1541 C1540 1.392 . S
C1541 H1553 0.929 . S
C1542 C1538 1.531 . S
C1542 H1554 0.960 . S
C1542 H1555 0.962 . S
C1542 H1556 0.960 . S
C1543 C1540 1.511 . S
C1543 H1557 0.961 . S
C1543 H1558 0.961 . S
C1543 H1559 0.961 . S
C1544 C1545 1.370 . S
C1544 C1546 1.363 . S
C1544 H1560 0.931 . S
C1545 C1544 1.370 . S
C1545 C1549 1.408 . S
C1546 C1544 1.363 . S
C1546 C1547 1.370 . S
C1546 C1550 1.524 . S
C1547 C1539 1.503 . S
C1547 C1546 1.370 . S
C1547 C1548 1.403 . S
C1548 C1547 1.403 . S
C1548 C1549 1.404 . S
C1548 C1551 1.539 . S
C1549 C1545 1.408 . S
C1549 C1548 1.404 . S
C1549 H1561 0.930 . S
C1550 C1546 1.524 . S
C1550 H1562 0.956 . S
C1550 H1563 0.961 . S
C1550 H1564 0.961 . S
C1551 C1548 1.539 . S
C1551 H1565 0.958 . S
C1551 H1566 0.961 . S
C1551 H1567 0.960 . S
H1552 C1536 0.931 . S
H1553 C1541 0.929 . S
H1554 C1542 0.960 . S
H1555 C1542 0.962 . S
H1556 C1542 0.960 . S
H1557 C1543 0.961 . S
H1558 C1543 0.961 . S
H1559 C1543 0.961 . S
H1560 C1544 0.931 . S
H1561 C1549 0.930 . S
H1562 C1550 0.956 . S
H1563 C1550 0.961 . S
H1564 C1550 0.961 . S
H1565 C1551 0.958 . S
H1566 C1551 0.961 . S
H1567 C1551 0.960 . S
C1568 C1569 1.391 . S
C1568 C1570 1.394 . S
C1568 H1584 0.931 1_545 S
C1569 C1568 1.391 . S
C1569 C1573 1.376 1_655 S
C1570 C1568 1.394 . S
C1570 C1571 1.369 . S
C1570 C1574 1.531 1_545 S
C1571 C1570 1.369 . S
C1571 C1572 1.410 . S
C1571 C1579 1.503 . S
C1572 C1571 1.410 . S
C1572 C1573 1.389 1_655 S
C1572 C1575 1.511 . S
C1573 C1569 1.376 1_455 S
C1573 C1572 1.389 1_455 S
C1573 H1585 0.932 . S
C1574 C1570 1.531 1_565 S
C1574 H1586 0.960 . S
C1574 H1587 0.962 . S
C1574 H1588 0.960 . S
C1575 C1572 1.511 . S
C1575 H1589 0.961 . S
C1575 H1590 0.961 . S
C1575 H1591 0.961 1_655 S
C1576 C1577 1.370 . S
C1576 C1578 1.363 . S
C1576 H1592 0.931 . S
C1577 C1576 1.370 . S
C1577 C1581 1.408 . S
C1578 C1576 1.363 . S
C1578 C1579 1.370 . S
C1578 C1582 1.524 . S
C1579 C1571 1.503 . S
C1579 C1578 1.370 . S
C1579 C1580 1.403 . S
C1580 C1579 1.403 . S
C1580 C1581 1.404 . S
C1580 C1583 1.539 . S
C1581 C1577 1.408 . S
C1581 C1580 1.404 . S
C1581 H1593 0.930 . S
C1582 C1578 1.524 . S
C1582 H1594 0.956 . S
C1582 H1595 0.961 . S
C1582 H1596 0.961 . S
C1583 C1580 1.539 . S
C1583 H1597 0.958 1_545 S
C1583 H1598 0.961 . S
C1583 H1599 0.960 . S
H1584 C1568 0.931 1_565 S
H1585 C1573 0.932 . S
H1586 C1574 0.960 . S
H1587 C1574 0.962 . S
H1588 C1574 0.960 . S
H1589 C1575 0.961 . S
H1590 C1575 0.961 . S
H1591 C1575 0.961 1_455 S
H1592 C1576 0.931 . S
H1593 C1581 0.930 . S
H1594 C1582 0.956 . S
H1595 C1582 0.961 . S
H1596 C1582 0.961 . S
H1597 C1583 0.958 1_565 S
H1598 C1583 0.961 . S
H1599 C1583 0.960 . S
C1600 C1601 1.391 . S
C1600 C1602 1.394 . S
C1600 H1616 0.931 . S
C1601 C1600 1.391 . S
C1601 C1605 1.376 . S
C1602 C1600 1.394 . S
C1602 C1603 1.369 . S
C1602 C1606 1.531 . S
C1603 C1602 1.369 . S
C1603 C1604 1.410 . S
C1603 C1611 1.503 . S
C1604 C1603 1.410 . S
C1604 C1605 1.392 . S
C1604 C1607 1.511 . S
C1605 C1601 1.376 . S
C1605 C1604 1.392 . S
C1605 H1617 0.929 . S
C1606 C1602 1.531 . S
C1606 H1618 0.960 . S
C1606 H1619 0.962 . S
C1606 H1620 0.960 . S
C1607 C1604 1.511 . S
C1607 H1621 0.961 . S
C1607 H1622 0.961 . S
C1607 H1623 0.961 . S
C1608 C1609 1.370 . S
C1608 C1610 1.363 . S
C1608 H1624 0.931 . S
C1609 C1608 1.370 . S
C1609 C1613 1.408 . S
C1610 C1608 1.363 . S
C1610 C1611 1.370 . S
C1610 C1614 1.524 . S
C1611 C1603 1.503 . S
C1611 C1610 1.370 . S
C1611 C1612 1.403 . S
C1612 C1611 1.403 . S
C1612 C1613 1.404 . S
C1612 C1615 1.539 . S
C1613 C1609 1.408 . S
C1613 C1612 1.404 . S
C1613 H1625 0.930 . S
C1614 C1610 1.524 . S
C1614 H1626 0.956 . S
C1614 H1627 0.961 . S
C1614 H1628 0.961 . S
C1615 C1612 1.539 . S
C1615 H1629 0.958 . S
C1615 H1630 0.961 . S
C1615 H1631 0.960 . S
H1616 C1600 0.931 . S
H1617 C1605 0.929 . S
H1618 C1606 0.960 . S
H1619 C1606 0.962 . S
H1620 C1606 0.960 . S
H1621 C1607 0.961 . S
H1622 C1607 0.961 . S
H1623 C1607 0.961 . S
H1624 C1608 0.931 . S
H1625 C1613 0.930 . S
H1626 C1614 0.956 . S
H1627 C1614 0.961 . S
H1628 C1614 0.961 . S
H1629 C1615 0.958 . S
H1630 C1615 0.961 . S
H1631 C1615 0.960 . S
C1632 C1633 1.391 . S
C1632 C1634 1.394 . S
C1632 H1648 0.931 . S
C1633 C1632 1.391 . S
C1633 C1637 1.376 . S
C1634 C1632 1.394 . S
C1634 C1635 1.369 . S
C1634 C1638 1.531 . S
C1635 C1634 1.369 . S
C1635 C1636 1.410 . S
C1635 C1643 1.503 . S
C1636 C1635 1.410 . S
C1636 C1637 1.392 . S
C1636 C1639 1.511 . S
C1637 C1633 1.376 . S
C1637 C1636 1.392 . S
C1637 H1649 0.929 1_455 S
C1638 C1634 1.531 . S
C1638 H1650 0.960 . S
C1638 H1651 0.962 . S
C1638 H1652 0.960 . S
C1639 C1636 1.511 . S
C1639 H1653 0.961 1_455 S
C1639 H1654 0.961 . S
C1639 H1655 0.961 . S
C1640 C1641 1.370 . S
C1640 C1642 1.363 . S
C1640 H1656 0.931 . S
C1641 C1640 1.370 . S
C1641 C1645 1.408 . S
C1642 C1640 1.363 . S
C1642 C1643 1.370 . S
C1642 C1646 1.524 . S
C1643 C1635 1.503 . S
C1643 C1642 1.370 . S
C1643 C1644 1.403 . S
C1644 C1643 1.403 . S
C1644 C1645 1.404 . S
C1644 C1647 1.539 . S
C1645 C1641 1.408 . S
C1645 C1644 1.404 . S
C1645 H1657 0.930 . S
C1646 C1642 1.524 . S
C1646 H1658 0.956 . S
C1646 H1659 0.961 . S
C1646 H1660 0.961 . S
C1647 C1644 1.539 . S
C1647 H1661 0.958 . S
C1647 H1662 0.961 . S
C1647 H1663 0.960 . S
H1648 C1632 0.931 . S
H1649 C1637 0.929 1_655 S
H1650 C1638 0.960 . S
H1651 C1638 0.962 . S
H1652 C1638 0.960 . S
H1653 C1639 0.961 1_655 S
H1654 C1639 0.961 . S
H1655 C1639 0.961 . S
H1656 C1640 0.931 . S
H1657 C1645 0.930 . S
H1658 C1646 0.956 . S
H1659 C1646 0.961 . S
H1660 C1646 0.961 . S
H1661 C1647 0.958 . S
H1662 C1647 0.961 . S
H1663 C1647 0.960 . S
C1664 C1665 1.391 . S
C1664 C1666 1.394 . S
C1664 H1680 0.931 . S
C1665 C1664 1.391 . S
C1665 C1669 1.376 . S
C1666 C1664 1.394 . S
C1666 C1667 1.369 . S
C1666 C1670 1.531 . S
C1667 C1666 1.369 . S
C1667 C1668 1.410 . S
C1667 C1675 1.503 . S
C1668 C1667 1.410 . S
C1668 C1669 1.392 . S
C1668 C1671 1.511 . S
C1669 C1665 1.376 . S
C1669 C1668 1.392 . S
C1669 H1681 0.929 . S
C1670 C1666 1.531 . S
C1670 H1682 0.960 . S
C1670 H1683 0.962 . S
C1670 H1684 0.960 . S
C1671 C1668 1.511 . S
C1671 H1685 0.961 . S
C1671 H1686 0.961 . S
C1671 H1687 0.961 . S
C1672 C1673 1.370 . S
C1672 C1674 1.363 . S
C1672 H1688 0.931 . S
C1673 C1672 1.370 . S
C1673 C1677 1.408 . S
C1674 C1672 1.363 . S
C1674 C1675 1.370 . S
C1674 C1678 1.524 . S
C1675 C1667 1.503 . S
C1675 C1674 1.370 . S
C1675 C1676 1.403 . S
C1676 C1675 1.403 . S
C1676 C1677 1.404 . S
C1676 C1679 1.539 . S
C1677 C1673 1.408 . S
C1677 C1676 1.404 . S
C1677 H1689 0.930 . S
C1678 C1674 1.524 . S
C1678 H1690 0.956 . S
C1678 H1691 0.961 . S
C1678 H1692 0.961 . S
C1679 C1676 1.539 . S
C1679 H1693 0.958 . S
C1679 H1694 0.961 . S
C1679 H1695 0.960 . S
H1680 C1664 0.931 . S
H1681 C1669 0.929 . S
H1682 C1670 0.960 . S
H1683 C1670 0.962 . S
H1684 C1670 0.960 . S
H1685 C1671 0.961 . S
H1686 C1671 0.961 . S
H1687 C1671 0.961 . S
H1688 C1672 0.931 . S
H1689 C1677 0.930 . S
H1690 C1678 0.956 . S
H1691 C1678 0.961 . S
H1692 C1678 0.961 . S
H1693 C1679 0.958 . S
H1694 C1679 0.961 . S
H1695 C1679 0.960 . S
C1696 C1697 1.357 1_455 S
C1696 C1698 1.405 1_554 S
C1696 H1712 0.959 . S
C1697 C1696 1.357 1_655 S
C1697 C1701 1.353 1_554 S
C1698 C1696 1.405 1_556 S
C1698 C1699 1.369 1_455 S
C1698 C1702 1.531 . S
C1699 C1698 1.369 1_655 S
C1699 C1700 1.410 . S
C1699 C1707 1.503 . S
C1700 C1699 1.410 . S
C1700 C1701 1.392 . S
C1700 C1703 1.511 . S
C1701 C1697 1.353 1_556 S
C1701 C1700 1.392 . S
C1701 H1713 0.929 . S
C1702 C1698 1.531 . S
C1702 H1714 0.960 . S
C1702 H1715 0.962 . S
C1702 H1716 0.960 1_556 S
C1703 C1700 1.511 . S
C1703 H1717 0.961 . S
C1703 H1718 0.961 . S
C1703 H1719 0.961 . S
C1704 C1705 1.370 1_455 S
C1704 C1706 1.363 . S
C1704 H1720 0.931 . S
C1705 C1704 1.370 1_655 S
C1705 C1709 1.408 . S
C1706 C1704 1.363 . S
C1706 C1707 1.370 1_455 S
C1706 C1710 1.524 . S
C1707 C1699 1.503 . S
C1707 C1706 1.370 1_655 S
C1707 C1708 1.403 . S
C1708 C1707 1.403 . S
C1708 C1709 1.404 . S
C1708 C1711 1.539 . S
C1709 C1705 1.408 . S
C1709 C1708 1.404 . S
C1709 H1721 0.930 . S
C1710 C1706 1.524 . S
C1710 H1722 0.956 . S
C1710 H1723 0.954 1_455 S
C1710 H1724 0.961 . S
C1711 C1708 1.539 . S
C1711 H1725 0.958 . S
C1711 H1726 0.961 . S
C1711 H1727 0.960 . S
H1712 C1696 0.959 . S
H1713 C1701 0.929 . S
H1714 C1702 0.960 . S
H1715 C1702 0.962 . S
H1716 C1702 0.960 1_554 S
H1717 C1703 0.961 . S
H1718 C1703 0.961 . S
H1719 C1703 0.961 . S
H1720 C1704 0.931 . S
H1721 C1709 0.930 . S
H1722 C1710 0.956 . S
H1723 C1710 0.954 1_655 S
H1724 C1710 0.961 . S
H1725 C1711 0.958 . S
H1726 C1711 0.961 . S
H1727 C1711 0.960 . S
C1728 C1729 1.391 . S
C1728 C1730 1.394 . S
C1728 H1744 0.931 . S
C1729 C1728 1.391 . S
C1729 C1733 1.376 . S
C1730 C1728 1.394 . S
C1730 C1731 1.369 . S
C1730 C1734 1.531 . S
C1731 C1730 1.369 . S
C1731 C1732 1.410 . S
C1731 C1739 1.503 . S
C1732 C1731 1.410 . S
C1732 C1733 1.392 . S
C1732 C1735 1.511 . S
C1733 C1729 1.376 . S
C1733 C1732 1.392 . S
C1733 H1745 0.929 . S
C1734 C1730 1.531 . S
C1734 H1746 0.960 . S
C1734 H1747 0.962 . S
C1734 H1748 0.960 . S
C1735 C1732 1.511 . S
C1735 H1749 0.961 . S
C1735 H1750 0.961 . S
C1735 H1751 0.961 . S
C1736 C1737 1.370 . S
C1736 C1738 1.363 . S
C1736 H1752 0.931 . S
C1737 C1736 1.370 . S
C1737 C1741 1.408 . S
C1738 C1736 1.363 . S
C1738 C1739 1.370 . S
C1738 C1742 1.524 . S
C1739 C1731 1.503 . S
C1739 C1738 1.370 . S
C1739 C1740 1.403 . S
C1740 C1739 1.403 . S
C1740 C1741 1.404 . S
C1740 C1743 1.539 . S
C1741 C1737 1.408 . S
C1741 C1740 1.404 . S
C1741 H1753 0.930 . S
C1742 C1738 1.524 . S
C1742 H1754 0.956 . S
C1742 H1755 0.961 . S
C1742 H1756 0.961 . S
C1743 C1740 1.539 . S
C1743 H1757 0.958 . S
C1743 H1758 0.961 . S
C1743 H1759 0.960 . S
H1744 C1728 0.931 . S
H1745 C1733 0.929 . S
H1746 C1734 0.960 . S
H1747 C1734 0.962 . S
H1748 C1734 0.960 . S
H1749 C1735 0.961 . S
H1750 C1735 0.961 . S
H1751 C1735 0.961 . S
H1752 C1736 0.931 . S
H1753 C1741 0.930 . S
H1754 C1742 0.956 . S
H1755 C1742 0.961 . S
H1756 C1742 0.961 . S
H1757 C1743 0.958 . S
H1758 C1743 0.961 . S
H1759 C1743 0.960 . S
C1760 C1761 1.391 . S
C1760 C1762 1.394 . S
C1760 H1776 0.931 . S
C1761 C1760 1.391 . S
C1761 C1765 1.375 1_456 S
C1762 C1760 1.394 . S
C1762 C1763 1.369 . S
C1762 C1766 1.531 . S
C1763 C1762 1.369 . S
C1763 C1764 1.410 1_455 S
C1763 C1771 1.503 . S
C1764 C1763 1.410 1_655 S
C1764 C1765 1.393 1_556 S
C1764 C1767 1.511 1_556 S
C1765 C1761 1.375 1_654 S
C1765 C1764 1.393 1_554 S
C1765 H1777 0.929 . S
C1766 C1762 1.531 . S
C1766 H1778 0.960 . S
C1766 H1779 0.962 . S
C1766 H1780 0.960 . S
C1767 C1764 1.511 1_554 S
C1767 H1781 0.961 . S
C1767 H1782 0.961 1_554 S
C1767 H1783 0.961 1_554 S
C1768 C1769 1.360 1_455 S
C1768 C1770 1.363 . S
C1768 H1784 0.931 . S
C1769 C1768 1.360 1_655 S
C1769 C1773 1.416 . S
C1770 C1768 1.363 . S
C1770 C1771 1.370 . S
C1770 C1774 1.524 . S
C1771 C1763 1.503 . S
C1771 C1770 1.370 . S
C1771 C1772 1.403 1_455 S
C1772 C1771 1.403 1_655 S
C1772 C1773 1.404 . S
C1772 C1775 1.539 . S
C1773 C1769 1.416 . S
C1773 C1772 1.404 . S
C1773 H1785 0.930 . S
C1774 C1770 1.524 . S
C1774 H1786 0.956 . S
C1774 H1787 0.961 . S
C1774 H1788 0.961 . S
C1775 C1772 1.539 . S
C1775 H1789 0.958 . S
C1775 H1790 0.961 . S
C1775 H1791 0.960 . S
H1776 C1760 0.931 . S
H1777 C1765 0.929 . S
H1778 C1766 0.960 . S
H1779 C1766 0.962 . S
H1780 C1766 0.960 . S
H1781 C1767 0.961 . S
H1782 C1767 0.961 1_556 S
H1783 C1767 0.961 1_556 S
H1784 C1768 0.931 . S
H1785 C1773 0.930 . S
H1786 C1774 0.956 . S
H1787 C1774 0.961 . S
H1788 C1774 0.961 . S
H1789 C1775 0.958 . S
H1790 C1775 0.961 . S
H1791 C1775 0.960 . S
C1792 C1793 1.391 . S
C1792 C1794 1.394 . S
C1792 H1808 0.931 . S
C1793 C1792 1.391 . S
C1793 C1797 1.376 . S
C1794 C1792 1.394 . S
C1794 C1795 1.369 . S
C1794 C1798 1.531 . S
C1795 C1794 1.369 . S
C1795 C1796 1.410 . S
C1795 C1803 1.503 . S
C1796 C1795 1.410 . S
C1796 C1797 1.392 . S
C1796 C1799 1.511 . S
C1797 C1793 1.376 . S
C1797 C1796 1.392 . S
C1797 H1809 0.929 . S
C1798 C1794 1.531 . S
C1798 H1810 0.960 . S
C1798 H1811 0.962 . S
C1798 H1812 0.960 . S
C1799 C1796 1.511 . S
C1799 H1813 0.961 . S
C1799 H1814 0.961 . S
C1799 H1815 0.961 . S
C1800 C1801 1.370 . S
C1800 C1802 1.363 . S
C1800 H1816 0.931 . S
C1801 C1800 1.370 . S
C1801 C1805 1.408 . S
C1802 C1800 1.363 . S
C1802 C1803 1.370 . S
C1802 C1806 1.524 . S
C1803 C1795 1.503 . S
C1803 C1802 1.370 . S
C1803 C1804 1.403 . S
C1804 C1803 1.403 . S
C1804 C1805 1.404 . S
C1804 C1807 1.539 . S
C1805 C1801 1.408 . S
C1805 C1804 1.404 . S
C1805 H1817 0.930 . S
C1806 C1802 1.524 . S
C1806 H1818 0.956 . S
C1806 H1819 0.961 . S
C1806 H1820 0.961 . S
C1807 C1804 1.539 . S
C1807 H1821 0.958 . S
C1807 H1822 0.961 . S
C1807 H1823 0.960 . S
H1808 C1792 0.931 . S
H1809 C1797 0.929 . S
H1810 C1798 0.960 . S
H1811 C1798 0.962 . S
H1812 C1798 0.960 . S
H1813 C1799 0.961 . S
H1814 C1799 0.961 . S
H1815 C1799 0.961 . S
H1816 C1800 0.931 . S
H1817 C1805 0.930 . S
H1818 C1806 0.956 . S
H1819 C1806 0.961 . S
H1820 C1806 0.961 . S
H1821 C1807 0.958 . S
H1822 C1807 0.961 . S
H1823 C1807 0.960 . S
C1824 C1825 1.391 . S
C1824 C1826 1.394 . S
C1824 H1840 0.931 . S
C1825 C1824 1.391 . S
C1825 C1829 1.376 . S
C1826 C1824 1.394 . S
C1826 C1827 1.369 . S
C1826 C1830 1.531 . S
C1827 C1826 1.369 . S
C1827 C1828 1.410 . S
C1827 C1835 1.503 . S
C1828 C1827 1.410 . S
C1828 C1829 1.392 . S
C1828 C1831 1.511 . S
C1829 C1825 1.376 . S
C1829 C1828 1.392 . S
C1829 H1841 0.929 1_554 S
C1830 C1826 1.531 . S
C1830 H1842 0.960 . S
C1830 H1843 0.962 . S
C1830 H1844 0.960 . S
C1831 C1828 1.511 . S
C1831 H1845 0.961 . S
C1831 H1846 0.961 . S
C1831 H1847 0.961 . S
C1832 C1833 1.370 . S
C1832 C1834 1.363 . S
C1832 H1848 0.931 . S
C1833 C1832 1.370 . S
C1833 C1837 1.408 . S
C1834 C1832 1.363 . S
C1834 C1835 1.370 . S
C1834 C1838 1.524 . S
C1835 C1827 1.503 . S
C1835 C1834 1.370 . S
C1835 C1836 1.403 . S
C1836 C1835 1.403 . S
C1836 C1837 1.404 . S
C1836 C1839 1.539 . S
C1837 C1833 1.408 . S
C1837 C1836 1.404 . S
C1837 H1849 0.930 . S
C1838 C1834 1.524 . S
C1838 H1850 0.956 . S
C1838 H1851 0.961 . S
C1838 H1852 0.961 . S
C1839 C1836 1.539 . S
C1839 H1853 0.958 . S
C1839 H1854 0.961 . S
C1839 H1855 0.960 . S
H1840 C1824 0.931 . S
H1841 C1829 0.929 1_556 S
H1842 C1830 0.960 . S
H1843 C1830 0.962 . S
H1844 C1830 0.960 . S
H1845 C1831 0.961 . S
H1846 C1831 0.961 . S
H1847 C1831 0.961 . S
H1848 C1832 0.931 . S
H1849 C1837 0.930 . S
H1850 C1838 0.956 . S
H1851 C1838 0.961 . S
H1852 C1838 0.961 . S
H1853 C1839 0.958 . S
H1854 C1839 0.961 . S
H1855 C1839 0.960 . S
C1856 C1857 1.391 . S
C1856 C1858 1.394 . S
C1856 H1872 0.931 . S
C1857 C1856 1.391 . S
C1857 C1861 1.376 . S
C1858 C1856 1.394 . S
C1858 C1859 1.369 . S
C1858 C1862 1.531 . S
C1859 C1858 1.369 . S
C1859 C1860 1.410 . S
C1859 C1867 1.503 . S
C1860 C1859 1.410 . S
C1860 C1861 1.392 . S
C1860 C1863 1.511 . S
C1861 C1857 1.376 . S
C1861 C1860 1.392 . S
C1861 H1873 0.929 . S
C1862 C1858 1.531 . S
C1862 H1874 0.960 . S
C1862 H1875 0.962 . S
C1862 H1876 0.960 . S
C1863 C1860 1.511 . S
C1863 H1877 0.961 . S
C1863 H1878 0.961 . S
C1863 H1879 0.961 . S
C1864 C1865 1.370 . S
C1864 C1866 1.363 . S
C1864 H1880 0.931 . S
C1865 C1864 1.370 . S
C1865 C1869 1.408 . S
C1866 C1864 1.363 . S
C1866 C1867 1.370 . S
C1866 C1870 1.524 . S
C1867 C1859 1.503 . S
C1867 C1866 1.370 . S
C1867 C1868 1.403 . S
C1868 C1867 1.403 . S
C1868 C1869 1.404 . S
C1868 C1871 1.539 . S
C1869 C1865 1.408 . S
C1869 C1868 1.404 . S
C1869 H1881 0.930 . S
C1870 C1866 1.524 . S
C1870 H1882 0.956 . S
C1870 H1883 0.961 . S
C1870 H1884 0.961 . S
C1871 C1868 1.539 . S
C1871 H1885 0.958 . S
C1871 H1886 0.961 . S
C1871 H1887 0.960 . S
H1872 C1856 0.931 . S
H1873 C1861 0.929 . S
H1874 C1862 0.960 . S
H1875 C1862 0.962 . S
H1876 C1862 0.960 . S
H1877 C1863 0.961 . S
H1878 C1863 0.961 . S
H1879 C1863 0.961 . S
H1880 C1864 0.931 . S
H1881 C1869 0.930 . S
H1882 C1870 0.956 . S
H1883 C1870 0.961 . S
H1884 C1870 0.961 . S
H1885 C1871 0.958 . S
H1886 C1871 0.961 . S
H1887 C1871 0.960 . S
C1888 C1889 1.391 . S
C1888 C1890 1.394 . S
C1888 H1904 0.931 . S
C1889 C1888 1.391 . S
C1889 C1893 1.376 . S
C1890 C1888 1.394 . S
C1890 C1891 1.369 . S
C1890 C1894 1.531 . S
C1891 C1890 1.369 . S
C1891 C1892 1.410 . S
C1891 C1899 1.503 . S
C1892 C1891 1.410 . S
C1892 C1893 1.392 . S
C1892 C1895 1.511 . S
C1893 C1889 1.376 . S
C1893 C1892 1.392 . S
C1893 H1905 0.929 . S
C1894 C1890 1.531 . S
C1894 H1906 0.960 . S
C1894 H1907 0.962 . S
C1894 H1908 0.960 . S
C1895 C1892 1.511 . S
C1895 H1909 0.961 . S
C1895 H1910 0.961 . S
C1895 H1911 0.961 . S
C1896 C1897 1.370 . S
C1896 C1898 1.363 . S
C1896 H1912 0.931 . S
C1897 C1896 1.370 . S
C1897 C1901 1.408 . S
C1898 C1896 1.363 . S
C1898 C1899 1.370 . S
C1898 C1902 1.524 . S
C1899 C1891 1.503 . S
C1899 C1898 1.370 . S
C1899 C1900 1.403 . S
C1900 C1899 1.403 . S
C1900 C1901 1.404 . S
C1900 C1903 1.539 . S
C1901 C1897 1.408 . S
C1901 C1900 1.404 . S
C1901 H1913 0.930 . S
C1902 C1898 1.524 . S
C1902 H1914 0.956 . S
C1902 H1915 0.961 . S
C1902 H1916 0.961 . S
C1903 C1900 1.539 . S
C1903 H1917 0.958 . S
C1903 H1918 0.961 . S
C1903 H1919 0.960 . S
H1904 C1888 0.931 . S
H1905 C1893 0.929 . S
H1906 C1894 0.960 . S
H1907 C1894 0.962 . S
H1908 C1894 0.960 . S
H1909 C1895 0.961 . S
H1910 C1895 0.961 . S
H1911 C1895 0.961 . S
H1912 C1896 0.931 . S
H1913 C1901 0.930 . S
H1914 C1902 0.956 . S
H1915 C1902 0.961 . S
H1916 C1902 0.961 . S
H1917 C1903 0.958 . S
H1918 C1903 0.961 . S
H1919 C1903 0.960 . S
C1920 C1921 1.391 . S
C1920 C1922 1.394 . S
C1920 H1936 0.931 . S
C1921 C1920 1.391 . S
C1921 C1925 1.376 . S
C1922 C1920 1.394 . S
C1922 C1923 1.369 . S
C1922 C1926 1.531 . S
C1923 C1922 1.369 . S
C1923 C1924 1.410 . S
C1923 C1931 1.503 . S
C1924 C1923 1.410 . S
C1924 C1925 1.392 . S
C1924 C1927 1.511 . S
C1925 C1921 1.376 . S
C1925 C1924 1.392 . S
C1925 H1937 0.929 . S
C1926 C1922 1.531 . S
C1926 H1938 0.960 . S
C1926 H1939 0.962 . S
C1926 H1940 0.960 . S
C1927 C1924 1.511 . S
C1927 H1941 0.961 . S
C1927 H1942 0.961 . S
C1927 H1943 0.961 . S
C1928 C1929 1.370 . S
C1928 C1930 1.363 . S
C1928 H1944 0.931 . S
C1929 C1928 1.370 . S
C1929 C1933 1.408 . S
C1930 C1928 1.363 . S
C1930 C1931 1.370 . S
C1930 C1934 1.524 . S
C1931 C1923 1.503 . S
C1931 C1930 1.370 . S
C1931 C1932 1.403 . S
C1932 C1931 1.403 . S
C1932 C1933 1.404 . S
C1932 C1935 1.539 . S
C1933 C1929 1.408 . S
C1933 C1932 1.404 . S
C1933 H1945 0.930 . S
C1934 C1930 1.524 . S
C1934 H1946 0.956 . S
C1934 H1947 0.961 . S
C1934 H1948 0.961 . S
C1935 C1932 1.539 . S
C1935 H1949 0.958 . S
C1935 H1950 0.961 . S
C1935 H1951 0.960 . S
H1936 C1920 0.931 . S
H1937 C1925 0.929 . S
H1938 C1926 0.960 . S
H1939 C1926 0.962 . S
H1940 C1926 0.960 . S
H1941 C1927 0.961 . S
H1942 C1927 0.961 . S
H1943 C1927 0.961 . S
H1944 C1928 0.931 . S
H1945 C1933 0.930 . S
H1946 C1934 0.956 . S
H1947 C1934 0.961 . S
H1948 C1934 0.961 . S
H1949 C1935 0.958 . S
H1950 C1935 0.961 . S
H1951 C1935 0.960 . S
C1952 C1953 1.391 . S
C1952 C1954 1.394 . S
C1952 H1968 0.931 . S
C1953 C1952 1.391 . S
C1953 C1957 1.376 . S
C1954 C1952 1.394 . S
C1954 C1955 1.369 . S
C1954 C1958 1.531 . S
C1955 C1954 1.369 . S
C1955 C1956 1.410 . S
C1955 C1963 1.503 . S
C1956 C1955 1.410 . S
C1956 C1957 1.392 . S
C1956 C1959 1.511 . S
C1957 C1953 1.376 . S
C1957 C1956 1.392 . S
C1957 H1969 0.929 . S
C1958 C1954 1.531 . S
C1958 H1970 0.960 . S
C1958 H1971 0.962 . S
C1958 H1972 0.960 . S
C1959 C1956 1.511 . S
C1959 H1973 0.961 . S
C1959 H1974 0.961 . S
C1959 H1975 0.961 . S
C1960 C1961 1.370 . S
C1960 C1962 1.363 . S
C1960 H1976 0.931 . S
C1961 C1960 1.370 . S
C1961 C1965 1.408 . S
C1962 C1960 1.363 . S
C1962 C1963 1.370 . S
C1962 C1966 1.524 . S
C1963 C1955 1.503 . S
C1963 C1962 1.370 . S
C1963 C1964 1.403 . S
C1964 C1963 1.403 . S
C1964 C1965 1.404 . S
C1964 C1967 1.539 . S
C1965 C1961 1.408 . S
C1965 C1964 1.404 . S
C1965 H1977 0.930 . S
C1966 C1962 1.524 . S
C1966 H1978 0.956 . S
C1966 H1979 0.961 . S
C1966 H1980 0.961 . S
C1967 C1964 1.539 . S
C1967 H1981 0.958 . S
C1967 H1982 0.961 . S
C1967 H1983 0.960 . S
H1968 C1952 0.931 . S
H1969 C1957 0.929 . S
H1970 C1958 0.960 . S
H1971 C1958 0.962 . S
H1972 C1958 0.960 . S
H1973 C1959 0.961 . S
H1974 C1959 0.961 . S
H1975 C1959 0.961 . S
H1976 C1960 0.931 . S
H1977 C1965 0.930 . S
H1978 C1966 0.956 . S
H1979 C1966 0.961 . S
H1980 C1966 0.961 . S
H1981 C1967 0.958 . S
H1982 C1967 0.961 . S
H1983 C1967 0.960 . S
C1984 C1985 1.391 . S
C1984 C1986 1.394 . S
C1984 H2000 0.931 . S
C1985 C1984 1.391 . S
C1985 C1989 1.376 . S
C1986 C1984 1.394 . S
C1986 C1987 1.369 . S
C1986 C1990 1.531 . S
C1987 C1986 1.369 . S
C1987 C1988 1.410 . S
C1987 C1995 1.503 . S
C1988 C1987 1.410 . S
C1988 C1989 1.392 . S
C1988 C1991 1.511 . S
C1989 C1985 1.376 . S
C1989 C1988 1.392 . S
C1989 H2001 0.929 . S
C1990 C1986 1.531 . S
C1990 H2002 0.960 . S
C1990 H2003 0.962 . S
C1990 H2004 0.960 . S
C1991 C1988 1.511 . S
C1991 H2005 0.961 . S
C1991 H2006 0.961 . S
C1991 H2007 0.961 . S
C1992 C1993 1.370 . S
C1992 C1994 1.363 . S
C1992 H2008 0.931 . S
C1993 C1992 1.370 . S
C1993 C1997 1.408 . S
C1994 C1992 1.363 . S
C1994 C1995 1.370 . S
C1994 C1998 1.524 . S
C1995 C1987 1.503 . S
C1995 C1994 1.370 . S
C1995 C1996 1.403 . S
C1996 C1995 1.403 . S
C1996 C1997 1.404 . S
C1996 C1999 1.539 . S
C1997 C1993 1.408 . S
C1997 C1996 1.404 . S
C1997 H2009 0.930 . S
C1998 C1994 1.524 . S
C1998 H2010 0.956 . S
C1998 H2011 0.961 . S
C1998 H2012 0.961 . S
C1999 C1996 1.539 . S
C1999 H2013 0.958 . S
C1999 H2014 0.961 . S
C1999 H2015 0.960 . S
H2000 C1984 0.931 . S
H2001 C1989 0.929 . S
H2002 C1990 0.960 . S
H2003 C1990 0.962 . S
H2004 C1990 0.960 . S
H2005 C1991 0.961 . S
H2006 C1991 0.961 . S
H2007 C1991 0.961 . S
H2008 C1992 0.931 . S
H2009 C1997 0.930 . S
H2010 C1998 0.956 . S
H2011 C1998 0.961 . S
H2012 C1998 0.961 . S
H2013 C1999 0.958 . S
H2014 C1999 0.961 . S
H2015 C1999 0.960 . S
C2016 C2017 1.391 . S
C2016 C2018 1.394 . S
C2016 H2032 0.931 . S
C2017 C2016 1.391 . S
C2017 C2021 1.376 . S
C2018 C2016 1.394 . S
C2018 C2019 1.369 . S
C2018 C2022 1.531 . S
C2019 C2018 1.369 . S
C2019 C2020 1.410 . S
C2019 C2027 1.503 . S
C2020 C2019 1.410 . S
C2020 C2021 1.392 . S
C2020 C2023 1.511 . S
C2021 C2017 1.376 . S
C2021 C2020 1.392 . S
C2021 H2033 0.929 . S
C2022 C2018 1.531 . S
C2022 H2034 0.960 . S
C2022 H2035 0.962 . S
C2022 H2036 0.960 . S
C2023 C2020 1.511 . S
C2023 H2037 0.961 . S
C2023 H2038 0.961 . S
C2023 H2039 0.961 . S
C2024 C2025 1.370 . S
C2024 C2026 1.363 . S
C2024 H2040 0.931 . S
C2025 C2024 1.370 . S
C2025 C2029 1.408 . S
C2026 C2024 1.363 . S
C2026 C2027 1.370 . S
C2026 C2030 1.524 . S
C2027 C2019 1.503 . S
C2027 C2026 1.370 . S
C2027 C2028 1.403 . S
C2028 C2027 1.403 . S
C2028 C2029 1.404 . S
C2028 C2031 1.539 . S
C2029 C2025 1.408 . S
C2029 C2028 1.404 . S
C2029 H2041 0.930 . S
C2030 C2026 1.524 . S
C2030 H2042 0.956 . S
C2030 H2043 0.961 . S
C2030 H2044 0.961 . S
C2031 C2028 1.539 . S
C2031 H2045 0.958 . S
C2031 H2046 0.961 . S
C2031 H2047 0.960 . S
H2032 C2016 0.931 . S
H2033 C2021 0.929 . S
H2034 C2022 0.960 . S
H2035 C2022 0.962 . S
H2036 C2022 0.960 . S
H2037 C2023 0.961 . S
H2038 C2023 0.961 . S
H2039 C2023 0.961 . S
H2040 C2024 0.931 . S
H2041 C2029 0.930 . S
H2042 C2030 0.956 . S
H2043 C2030 0.961 . S
H2044 C2030 0.961 . S
H2045 C2031 0.958 . S
H2046 C2031 0.961 . S
H2047 C2031 0.960 . S
C2048 C2049 1.391 . S
C2048 C2050 1.394 . S
C2048 H2064 0.931 . S
C2049 C2048 1.391 . S
C2049 C2053 1.376 . S
C2050 C2048 1.394 . S
C2050 C2051 1.369 . S
C2050 C2054 1.531 . S
C2051 C2050 1.369 . S
C2051 C2052 1.410 . S
C2051 C2059 1.503 1_556 S
C2052 C2051 1.410 . S
C2052 C2053 1.392 . S
C2052 C2055 1.511 . S
C2053 C2049 1.376 . S
C2053 C2052 1.392 . S
C2053 H2065 0.929 . S
C2054 C2050 1.531 . S
C2054 H2066 0.960 . S
C2054 H2067 0.962 1_556 S
C2054 H2068 0.960 . S
C2055 C2052 1.511 . S
C2055 H2069 0.961 . S
C2055 H2070 0.961 1_556 S
C2055 H2071 0.961 . S
C2056 C2057 1.370 . S
C2056 C2058 1.363 . S
C2056 H2072 0.931 . S
C2057 C2056 1.370 . S
C2057 C2061 1.408 1_554 S
C2058 C2056 1.363 . S
C2058 C2059 1.370 . S
C2058 C2062 1.524 . S
C2059 C2051 1.503 1_554 S
C2059 C2058 1.370 . S
C2059 C2060 1.403 1_554 S
C2060 C2059 1.403 1_556 S
C2060 C2061 1.404 . S
C2060 C2063 1.539 . S
C2061 C2057 1.408 1_556 S
C2061 C2060 1.404 . S
C2061 H2073 0.930 . S
C2062 C2058 1.524 . S
C2062 H2074 0.956 . S
C2062 H2075 0.961 . S
C2062 H2076 0.961 . S
C2063 C2060 1.539 . S
C2063 H2077 0.958 . S
C2063 H2078 0.961 . S
C2063 H2079 0.960 . S
H2064 C2048 0.931 . S
H2065 C2053 0.929 . S
H2066 C2054 0.960 . S
H2067 C2054 0.962 1_554 S
H2068 C2054 0.960 . S
H2069 C2055 0.961 . S
H2070 C2055 0.961 1_554 S
H2071 C2055 0.961 . S
H2072 C2056 0.931 . S
H2073 C2061 0.930 . S
H2074 C2062 0.956 . S
H2075 C2062 0.961 . S
H2076 C2062 0.961 . S
H2077 C2063 0.958 . S
H2078 C2063 0.961 . S
H2079 C2063 0.960 . S
C2080 C2081 1.391 . S
C2080 C2082 1.394 . S
C2080 H2096 0.931 . S
C2081 C2080 1.391 . S
C2081 C2085 1.376 . S
C2082 C2080 1.394 . S
C2082 C2083 1.369 . S
C2082 C2086 1.531 . S
C2083 C2082 1.369 . S
C2083 C2084 1.410 . S
C2083 C2091 1.503 . S
C2084 C2083 1.410 . S
C2084 C2085 1.392 . S
C2084 C2087 1.511 . S
C2085 C2081 1.376 . S
C2085 C2084 1.392 . S
C2085 H2097 0.929 . S
C2086 C2082 1.531 . S
C2086 H2098 0.960 . S
C2086 H2099 0.962 . S
C2086 H2100 0.960 . S
C2087 C2084 1.511 . S
C2087 H2101 0.961 . S
C2087 H2102 0.961 . S
C2087 H2103 0.961 . S
C2088 C2089 1.370 . S
C2088 C2090 1.363 . S
C2088 H2104 0.931 . S
C2089 C2088 1.370 . S
C2089 C2093 1.408 . S
C2090 C2088 1.363 . S
C2090 C2091 1.370 . S
C2090 C2094 1.524 . S
C2091 C2083 1.503 . S
C2091 C2090 1.370 . S
C2091 C2092 1.403 . S
C2092 C2091 1.403 . S
C2092 C2093 1.404 . S
C2092 C2095 1.539 . S
C2093 C2089 1.408 . S
C2093 C2092 1.404 . S
C2093 H2105 0.930 . S
C2094 C2090 1.524 . S
C2094 H2106 0.956 . S
C2094 H2107 0.961 . S
C2094 H2108 0.961 . S
C2095 C2092 1.539 . S
C2095 H2109 0.958 . S
C2095 H2110 0.961 . S
C2095 H2111 0.960 . S
H2096 C2080 0.931 . S
H2097 C2085 0.929 . S
H2098 C2086 0.960 . S
H2099 C2086 0.962 . S
H2100 C2086 0.960 . S
H2101 C2087 0.961 . S
H2102 C2087 0.961 . S
H2103 C2087 0.961 . S
H2104 C2088 0.931 . S
H2105 C2093 0.930 . S
H2106 C2094 0.956 . S
H2107 C2094 0.961 . S
H2108 C2094 0.961 . S
H2109 C2095 0.958 . S
H2110 C2095 0.961 . S
H2111 C2095 0.960 . S
C2112 C2113 1.391 . S
C2112 C2114 1.394 . S
C2112 H2128 0.931 . S
C2113 C2112 1.391 . S
C2113 C2117 1.376 . S
C2114 C2112 1.394 . S
C2114 C2115 1.369 . S
C2114 C2118 1.531 . S
C2115 C2114 1.369 . S
C2115 C2116 1.410 . S
C2115 C2123 1.503 . S
C2116 C2115 1.410 . S
C2116 C2117 1.392 . S
C2116 C2119 1.511 . S
C2117 C2113 1.376 . S
C2117 C2116 1.392 . S
C2117 H2129 0.929 . S
C2118 C2114 1.531 . S
C2118 H2130 0.960 . S
C2118 H2131 0.962 . S
C2118 H2132 0.960 . S
C2119 C2116 1.511 . S
C2119 H2133 0.961 . S
C2119 H2134 0.961 . S
C2119 H2135 0.961 . S
C2120 C2121 1.370 . S
C2120 C2122 1.363 . S
C2120 H2136 0.931 . S
C2121 C2120 1.370 . S
C2121 C2125 1.408 . S
C2122 C2120 1.363 . S
C2122 C2123 1.370 . S
C2122 C2126 1.524 . S
C2123 C2115 1.503 . S
C2123 C2122 1.370 . S
C2123 C2124 1.403 . S
C2124 C2123 1.403 . S
C2124 C2125 1.404 . S
C2124 C2127 1.539 . S
C2125 C2121 1.408 . S
C2125 C2124 1.404 . S
C2125 H2137 0.930 . S
C2126 C2122 1.524 . S
C2126 H2138 0.956 . S
C2126 H2139 0.961 . S
C2126 H2140 0.961 . S
C2127 C2124 1.539 . S
C2127 H2141 0.958 . S
C2127 H2142 0.961 . S
C2127 H2143 0.960 . S
H2128 C2112 0.931 . S
H2129 C2117 0.929 . S
H2130 C2118 0.960 . S
H2131 C2118 0.962 . S
H2132 C2118 0.960 . S
H2133 C2119 0.961 . S
H2134 C2119 0.961 . S
H2135 C2119 0.961 . S
H2136 C2120 0.931 . S
H2137 C2125 0.930 . S
H2138 C2126 0.956 . S
H2139 C2126 0.961 . S
H2140 C2126 0.961 . S
H2141 C2127 0.958 . S
H2142 C2127 0.961 . S
H2143 C2127 0.960 . S
C2144 C2145 1.391 . S
C2144 C2146 1.394 . S
C2144 H2160 0.931 . S
C2145 C2144 1.391 . S
C2145 C2149 1.390 . S
C2146 C2144 1.394 . S
C2146 C2147 1.369 . S
C2146 C2150 1.531 . S
C2147 C2146 1.369 . S
C2147 C2148 1.410 1_554 S
C2147 C2155 1.503 . S
C2148 C2147 1.410 1_556 S
C2148 C2149 1.388 1_556 S
C2148 C2151 1.511 . S
C2149 C2145 1.390 . S
C2149 C2148 1.388 1_554 S
C2149 H2161 0.919 1_554 S
C2150 C2146 1.531 . S
C2150 H2162 0.960 . S
C2150 H2163 0.962 . S
C2150 H2164 0.960 . S
C2151 C2148 1.511 . S
C2151 H2165 0.961 . S
C2151 H2166 0.961 . S
C2151 H2167 0.961 . S
C2152 C2153 1.370 . S
C2152 C2154 1.363 . S
C2152 H2168 0.931 . S
C2153 C2152 1.370 . S
C2153 C2157 1.408 1_554 S
C2154 C2152 1.363 . S
C2154 C2155 1.370 . S
C2154 C2158 1.524 . S
C2155 C2147 1.503 . S
C2155 C2154 1.370 . S
C2155 C2156 1.418 . S
C2156 C2155 1.418 . S
C2156 C2157 1.396 1_554 S
C2156 C2159 1.530 1_554 S
C2157 C2153 1.408 1_556 S
C2157 C2156 1.396 1_556 S
C2157 H2169 0.930 . S
C2158 C2154 1.524 . S
C2158 H2170 0.956 . S
C2158 H2171 0.979 . S
C2158 H2172 0.961 . S
C2159 C2156 1.530 1_556 S
C2159 H2173 0.958 1_556 S
C2159 H2174 0.961 . S
C2159 H2175 0.960 . S
H2160 C2144 0.931 . S
H2161 C2149 0.919 1_556 S
H2162 C2150 0.960 . S
H2163 C2150 0.962 . S
H2164 C2150 0.960 . S
H2165 C2151 0.961 . S
H2166 C2151 0.961 . S
H2167 C2151 0.961 . S
H2168 C2152 0.931 . S
H2169 C2157 0.930 . S
H2170 C2158 0.956 . S
H2171 C2158 0.979 . S
H2172 C2158 0.961 . S
H2173 C2159 0.958 1_554 S
H2174 C2159 0.961 . S
H2175 C2159 0.960 . S
C649 C210 1.666 . S
C641 C73 1.663 . S
C681 C258 1.370 . S
C673 C82 1.339 . S
C705 C100 1.773 . S
C713 C294 1.682 . S
C745 C330 1.392 . S
C737 C56 1.379 1_655 S
C777 C356 1.344 . S
C769 C134 1.332 . S
C809 C392 1.722 . S
C801 C165 1.727 . S
C833 C147 1.161 . S
C841 C427 1.227 . S
C873 C464 1.893 . S
C865 C125 1.907 . S
C897 C151 1.304 . S
C905 C498 1.313 . S
C937 C546 1.465 . S
C929 C121 1.503 . S
C961 C139 1.698 . S
C969 C499 1.697 . S
C1001 C536 1.452 . S
C993 C164 1.456 . S
C1025 C95 1.329 . S
C1033 C582 1.352 . S
C1057 C61 1.562 . S
C1065 C571 1.563 . S
C1089 C74 1.351 . S
C1097 C572 1.367 . S
C1121 C86 1.848 . S
C1129 C570 1.837 . S
C1153 C47 1.290 . S
C1161 C318 1.315 . S
C1185 C186 1.205 . S
C1193 C319 1.251 . S
C1225 C222 1.634 . S
C1217 C204 1.651 . S
C1257 C247 1.862 . S
C1249 C112 1.847 . S
C1281 C60 1.512 1_545 S
C1289 C354 1.517 . S
C1321 C462 1.373 . S
C1313 C152 1.348 . S
C1353 C355 1.920 . S
C1345 C126 1.907 1_545 S
C1385 C428 1.395 . S
C1377 C160 1.360 . S
C1417 C426 1.658 . S
C1409 C190 1.676 . S
C1441 C199 1.333 . S
C1449 C474 1.367 . S
C1473 C113 1.778 . S
C1481 C366 1.697 . S
C1513 C402 1.400 . S
C1505 C173 1.413 . S
C1537 C43 1.331 . S
C1545 C284 1.343 . S
C1577 C320 1.722 . S
C1569 C9 1.727 1_655 S
C1609 C211 1.225 . S
C1601 C17 1.150 . S
C1641 C248 1.895 . S
C1633 C34 1.907 1_455 S
C1665 C21 1.293 . S
C1673 C534 1.317 . S
C1697 C30 1.533 . S
C1705 C510 1.465 . S
C1729 C48 1.704 . S
C1737 C535 1.700 . S
C1761 C8 1.456 1_556 S
C1769 C500 1.455 . S
C1801 C618 1.329 . S
C1793 C108 1.274 . S
C1833 C607 1.560 . S
C1825 C178 1.547 1_554 S
C1865 C608 1.367 . S
C1857 C191 1.349 . S
C1889 C203 1.848 . S
C1897 C606 1.834 . S
C1921 C138 1.320 . S
C1929 C390 1.307 . S
C1961 C391 1.252 . S
C1953 C69 1.136 . S
C1993 C438 1.633 . S
C1985 C87 1.649 . S
C2025 C463 1.860 . S
C2017 C99 1.850 . S
C2049 C177 1.519 . S
C2057 C282 1.521 . S
C2089 C246 1.361 . S
C2081 C22 1.381 . S
C2113 C35 1.907 . S
C2121 C283 1.919 . S
C2153 C212 1.394 1_554 S
C2145 C4 1.363 . S
