# Generated by pormake.
# Topology anh, (6,3)-cn, num edge types: 1
# Building blocks:
#     Node 0, Type 0, BuildingBlock: BETDEL_clean_sbu_0, # of connection points: 6
#     Node 1, Type 0, BuildingBlock: BETDEL_clean_sbu_0, # of connection points: 6
#     Node 2, Type 0, BuildingBlock: BETDEL_clean_sbu_0, # of connection points: 6
#     Node 3, Type 1, BuildingBlock: MIDCAF_clean_linker_0, # of connection points: 3
#     Node 4, Type 1, BuildingBlock: MIDCAF_clean_linker_0, # of connection points: 3
#     Node 5, Type 1, BuildingBlock: MIDCAF_clean_linker_0, # of connection points: 3
#     Node 6, Type 1, BuildingBlock: MIDCAF_clean_linker_0, # of connection points: 3
#     Node 7, Type 1, BuildingBlock: MIDCAF_clean_linker_0, # of connection points: 3
#     Node 8, Type 1, BuildingBlock: MIDCAF_clean_linker_0, # of connection points: 3
#     Edge 9, Type (0, 1), BuildingBlock: OJICUG_clean_linker_0, # of connection points: 2
#     Edge 10, Type (0, 1), BuildingBlock: OJICUG_clean_linker_0, # of connection points: 2
#     Edge 11, Type (0, 1), BuildingBlock: OJICUG_clean_linker_0, # of connection points: 2
#     Edge 12, Type (0, 1), BuildingBlock: OJICUG_clean_linker_0, # of connection points: 2
#     Edge 13, Type (0, 1), BuildingBlock: OJICUG_clean_linker_0, # of connection points: 2
#     Edge 14, Type (0, 1), BuildingBlock: OJICUG_clean_linker_0, # of connection points: 2
#     Edge 15, Type (0, 1), BuildingBlock: OJICUG_clean_linker_0, # of connection points: 2
#     Edge 16, Type (0, 1), BuildingBlock: OJICUG_clean_linker_0, # of connection points: 2
#     Edge 17, Type (0, 1), BuildingBlock: OJICUG_clean_linker_0, # of connection points: 2
#     Edge 18, Type (0, 1), BuildingBlock: OJICUG_clean_linker_0, # of connection points: 2
#     Edge 19, Type (0, 1), BuildingBlock: OJICUG_clean_linker_0, # of connection points: 2
#     Edge 20, Type (0, 1), BuildingBlock: OJICUG_clean_linker_0, # of connection points: 2
#     Edge 21, Type (0, 1), BuildingBlock: OJICUG_clean_linker_0, # of connection points: 2
#     Edge 22, Type (0, 1), BuildingBlock: OJICUG_clean_linker_0, # of connection points: 2
#     Edge 23, Type (0, 1), BuildingBlock: OJICUG_clean_linker_0, # of connection points: 2
#     Edge 24, Type (0, 1), BuildingBlock: OJICUG_clean_linker_0, # of connection points: 2
#     Edge 25, Type (0, 1), BuildingBlock: OJICUG_clean_linker_0, # of connection points: 2
#     Edge 26, Type (0, 1), BuildingBlock: OJICUG_clean_linker_0, # of connection points: 2
# Relax obj value: 0.149
# Max RMSD: 0.167
# Mean RMSD: 0.136
data_MOF--net-anh--node1-BETDEL_clean_sbu_0--node2-MIDCAF_clean_linker_0--edge1-OJICUG_clean_linker_0
_symmetry_space_group_name_H-M    P1
_symmetry_Int_Tables_number       1
_symmetry_cell_setting            triclinic
loop_
_symmetry_equiv_pos_as_xyz
'x, y, z'
_cell_length_a     27.645244
_cell_length_b     27.632738
_cell_length_c     50.098149
_cell_angle_alpha  89.910245
_cell_angle_beta   90.103845
_cell_angle_gamma 119.95609
loop_
_atom_site_label
_atom_site_type_symbol
_atom_site_fract_x
_atom_site_fract_y
_atom_site_fract_z
_atom_type_partial_charge
Dy0 Dy 0.06142 0.48402 0.16186 0.0
C1 C 0.92181 0.57789 0.19068 0.0
C2 C 0.13882 0.45327 0.15201 0.0
Dy3 Dy 0.98873 0.54266 0.16861 0.0
O4 O 0.13663 0.47883 0.17325 0.0
O5 O 0.0984 0.44431 0.13569 0.0
O6 O 0.03115 0.44454 0.20215 0.0
O7 O 0.04017 0.52306 0.19388 0.0
C8 C 0.02318 0.48431 0.21076 0.0
C9 C 1.0027 0.52952 0.11644 0.0
O10 O 0.07501 0.61593 0.17481 0.0
O11 O 0.12571 0.57601 0.15799 0.0
O12 O 0.96286 0.60709 0.17435 0.0
O13 O 0.91825 0.52988 0.19522 0.0
O14 O 0.97378 0.55168 0.12498 0.0
O15 O 1.02099 0.51579 0.13629 0.0
O16 O 0.97599 0.41046 0.15395 0.0
O17 O 0.92504 0.45054 0.17038 0.0
C18 C 0.12278 0.62 0.16674 0.0
C19 C 0.9281 0.40667 0.16164 0.0
Dy20 Dy 0.49253 0.03794 0.49211 0.0
C21 C 0.72626 0.17255 0.52124 0.0
C22 C 0.3835 0.96615 0.48088 0.0
Dy23 Dy 0.62398 0.10755 0.4989 0.0
O24 O 0.40584 0.97529 0.50444 0.0
O25 O 0.42091 0.99623 0.4631 0.0
O26 O 0.48642 0.07162 0.53196 0.0
O27 O 0.55265 0.05685 0.52409 0.0
C28 C 0.53259 0.0759 0.54079 0.0
C29 C 0.59609 0.09487 0.44678 0.0
O30 O 0.60937 0.02064 0.50466 0.0
O31 O 0.5162 0.97017 0.49088 0.0
O32 O 0.71443 0.13352 0.50367 0.0
O33 O 0.68162 0.17495 0.52693 0.0
O34 O 0.64741 0.12251 0.45516 0.0
O35 O 0.56461 0.07728 0.46676 0.0
O36 O 0.50725 0.1242 0.48361 0.0
O37 O 0.59794 0.17317 0.50065 0.0
C38 C 0.56391 0.97278 0.4982 0.0
C39 C 0.55172 0.17141 0.49165 0.0
Dy40 Dy 0.61785 0.61757 0.82485 0.0
C41 C 0.52573 0.38906 0.85169 0.0
C42 C 0.65569 0.72586 0.81063 0.0
Dy43 Dy 0.55846 0.49391 0.83311 0.0
O44 O 0.65624 0.7085 0.83459 0.0
O45 O 0.63448 0.68394 0.79417 0.0
O46 O 0.6593 0.628 0.86469 0.0
O47 O 0.5767 0.56333 0.85889 0.0
C48 C 0.61681 0.58461 0.87505 0.0
C49 C 0.5584 0.52345 0.78219 0.0
O50 O 0.48886 0.50913 0.84452 0.0
O51 O 0.52667 0.59556 0.82414 0.0
O52 O 0.50022 0.40106 0.83332 0.0
O53 O 0.56891 0.43456 0.86004 0.0
O54 O 0.51884 0.47828 0.79293 0.0
O55 O 0.59884 0.54765 0.79826 0.0
O56 O 0.69165 0.60614 0.8175 0.0
O57 O 0.64896 0.51508 0.83314 0.0
C58 C 0.48354 0.5512 0.83519 0.0
C59 C 0.6942 0.56143 0.82512 0.0
C60 C 0.33114 0.86209 0.20693 0.0
C61 C 0.32876 0.83293 0.18353 0.0
C62 C 0.37751 0.85418 0.16776 0.0
C63 C 0.42731 0.90253 0.17555 0.0
H64 H 0.58251 0.12151 0.16568 0.0
H65 H 0.66738 0.20502 0.14986 0.0
H66 H 0.76787 0.16001 0.19857 0.0
H67 H 0.68361 0.07753 0.21424 0.0
H68 H 0.63075 0.06807 0.27887 0.0
H69 H 0.64039 0.08371 0.32662 0.0
H70 H 0.46153 1.01107 0.33381 0.0
H71 H 0.45179 0.99293 0.28576 0.0
H72 H 0.38046 0.92978 0.23329 0.0
H73 H 0.29514 0.84705 0.21988 0.0
H74 H 0.37731 0.83322 0.14949 0.0
H75 H 0.46432 0.91686 0.16337 0.0
N76 N 0.52793 1.0115 0.19477 0.0
N77 N 0.57982 0.05605 0.23338 0.0
N78 N 0.48782 0.98328 0.23754 0.0
C79 C 0.57652 0.05157 0.2064 0.0
C80 C 0.53583 0.02256 0.24908 0.0
C81 C 0.48329 0.97668 0.21055 0.0
C82 C 0.62633 0.09252 0.19096 0.0
C83 C 0.6229 0.12852 0.17218 0.0
C84 C 0.67157 0.17682 0.16346 0.0
C85 C 0.72479 0.18976 0.17306 0.0
C86 C 0.72804 0.1515 0.19048 0.0
C87 C 0.67958 0.10399 0.19945 0.0
C88 C 0.54056 0.02968 0.27846 0.0
C89 C 0.5934 0.05531 0.29059 0.0
C90 C 0.59891 0.06469 0.31805 0.0
C91 C 0.55184 0.04977 0.33418 0.0
C92 C 0.49871 0.02293 0.32212 0.0
C93 C 0.49311 1.01269 0.29455 0.0
C94 C 0.42974 0.9303 0.19949 0.0
C95 C 0.38059 0.90969 0.21476 0.0
C96 C 0.50042 0.37166 0.52415 0.0
C97 C 0.54031 0.37519 0.50569 0.0
C98 C 0.57934 0.42843 0.49568 0.0
C99 C 0.57985 0.47692 0.50483 0.0
H100 H 0.51873 0.63059 0.49688 0.0
H101 H 0.51948 0.71639 0.48272 0.0
H102 H 0.62443 0.80399 0.55009 0.0
H103 H 0.62421 0.71984 0.56378 0.0
H104 H 0.59583 0.65054 0.61852 0.0
H105 H 0.59722 0.64384 0.66718 0.0
H106 H 0.53747 0.46709 0.66081 0.0
H107 H 0.53573 0.47333 0.61245 0.0
H108 H 0.47231 0.41576 0.549 0.0
H109 H 0.47013 0.33172 0.53255 0.0
H110 H 0.61051 0.43273 0.48134 0.0
H111 H 0.61209 0.5174 0.49781 0.0
N112 N 0.55695 0.57074 0.52758 0.0
N113 N 0.56902 0.61232 0.56994 0.0
N114 N 0.55309 0.52129 0.56664 0.0
C115 C 0.56594 0.61558 0.54294 0.0
C116 C 0.56262 0.56554 0.58195 0.0
C117 C 0.55058 0.52328 0.53962 0.0
C118 C 0.5714 0.6681 0.53148 0.0
C119 C 0.54279 0.66854 0.50828 0.0
C120 C 0.54273 0.7176 0.50037 0.0
C121 C 0.57201 0.76746 0.51524 0.0
C122 C 0.60198 0.767 0.53785 0.0
C123 C 0.60157 0.7183 0.54583 0.0
C124 C 0.56529 0.56239 0.61148 0.0
C125 C 0.58306 0.61023 0.62748 0.0
C126 C 0.58425 0.60656 0.65535 0.0
C127 C 0.56713 0.55491 0.66779 0.0
C128 C 0.55023 0.50737 0.6518 0.0
C129 C 0.54948 0.51105 0.62403 0.0
C130 C 0.54196 0.47323 0.5245 0.0
C131 C 0.50162 0.41994 0.53359 0.0
C132 C 0.94553 0.61333 0.85874 0.0
C133 C 0.90898 0.57253 0.84061 0.0
C134 C 0.92309 0.53297 0.83127 0.0
C135 C 0.97112 0.53287 0.84073 0.0
H136 H 0.18288 0.59011 0.83283 0.0
H137 H 0.26813 0.58962 0.81909 0.0
H138 H 0.25877 0.49726 0.89037 0.0
H139 H 0.17451 0.49673 0.90354 0.0
H140 H 0.1077 0.49776 0.95457 0.0
H141 H 0.0895 0.48685 0.00255 0.0
H142 H 1.00847 0.58583 -0.00347 0.0
H143 H 0.02419 0.5942 0.94877 0.0
H144 H 1.01786 0.64254 0.88369 0.0
H145 H 0.93598 0.64405 0.86666 0.0
H146 H 0.89612 0.5011 0.81719 0.0
H147 H 0.97923 0.50021 0.83426 0.0
N148 N 0.08834 0.55736 0.86427 0.0
N149 N 0.11584 0.5445 0.90705 0.0
N150 N 0.04095 0.56057 0.90269 0.0
C151 C 0.1236 0.54828 0.88014 0.0
C152 C 0.07493 0.55072 0.91847 0.0
C153 C 0.04664 0.56344 0.87574 0.0
C154 C 0.17153 0.54351 0.86932 0.0
C155 C 0.19862 0.5689 0.84525 0.0
C156 C 0.24788 0.56913 0.83755 0.0
C157 C 0.27072 0.54335 0.85357 0.0
C158 C 0.24248 0.51685 0.8772 0.0
C159 C 0.19396 0.51692 0.8849 0.0
C160 C 0.06685 0.54634 0.9478 0.0
C161 C 0.08601 0.51715 0.96358 0.0
C162 C 0.07576 0.51108 0.99113 0.0
C163 C 0.04673 0.5347 0.00353 0.0
C164 C 0.02933 0.56542 0.98772 0.0
C165 C 0.03872 0.57066 0.96024 0.0
C166 C 1.00553 0.57175 0.86006 0.0
C167 C 0.99267 0.61255 0.86849 0.0
C168 C 0.13576 0.76557 0.43876 0.0
C169 C 0.16812 0.77509 0.46186 0.0
C170 C 0.15413 0.73048 0.4796 0.0
C171 C 0.11103 0.67682 0.47351 0.0
H172 H 0.98577 0.51068 0.50325 0.0
H173 H 0.93998 0.42825 0.53206 0.0
H174 H 0.91384 0.32264 0.46366 0.0
H175 H 0.95994 0.40393 0.43539 0.0
H176 H 0.93311 0.44655 0.37943 0.0
H177 H 0.92618 0.42845 0.33159 0.0
H178 H 0.04154 0.60349 0.31699 0.0
H179 H 0.04691 0.6219 0.36443 0.0
H180 H 0.07029 0.70556 0.41405 0.0
H181 H 0.14473 0.79928 0.42499 0.0
H182 H 0.17852 0.73621 0.49747 0.0
H183 H 0.10323 0.64294 0.48694 0.0
N184 N 0.02558 0.56508 0.45767 0.0
N185 N 0.98286 0.50266 0.42214 0.0
N186 N 0.03079 0.59881 0.41416 0.0
C187 C 0.9951 0.5118 0.44857 0.0
C188 C 1.00041 0.54591 0.40482 0.0
C189 C 0.04343 0.60883 0.44047 0.0
C190 C 0.97525 0.4637 0.46693 0.0
C191 C 0.97131 0.46982 0.49457 0.0
C192 C 0.94515 0.42268 0.51108 0.0
C193 C 0.92297 0.36877 0.50022 0.0
C194 C 0.931 0.36334 0.47292 0.0
C195 C 0.95671 0.41013 0.45651 0.0
C196 C 0.99102 0.53557 0.37582 0.0
C197 C 0.95635 0.48128 0.36597 0.0
C198 C 0.95257 0.47085 0.33855 0.0
C199 C 0.98365 0.5144 0.32044 0.0
C200 C 1.01637 0.56902 0.33027 0.0
C201 C 1.01977 0.57952 0.35761 0.0
C202 C 0.08145 0.66662 0.44944 0.0
C203 C 0.09296 0.71186 0.43257 0.0
C204 C 0.50533 0.17627 0.80532 0.0
C205 C 0.52429 0.1896 0.83181 0.0
C206 C 0.55865 0.16987 0.84216 0.0
C207 C 0.57728 0.14158 0.82568 0.0
H208 H 0.62521 1.01406 0.81818 0.0
H209 H 0.64294 0.93813 0.82801 0.0
H210 H 0.71957 0.9587 0.75062 0.0
H211 H 0.70116 0.03413 0.74051 0.0
H212 H 0.69035 0.1225 0.69655 0.0
H213 H 0.67986 0.12853 0.64856 0.0
H214 H 0.51925 0.11608 0.66169 0.0
H215 H 0.53196 0.11411 0.70944 0.0
H216 H 0.51045 0.14131 0.76832 0.0
H217 H 0.47947 0.19115 0.79639 0.0
H218 H 0.57345 0.1788 0.86258 0.0
H219 H 0.60618 0.1296 0.83374 0.0
N220 N 0.61423 0.08415 0.78803 0.0
N221 N 0.64039 0.07986 0.74391 0.0
N222 N 0.58943 0.12447 0.75324 0.0
C223 C 0.63984 0.06724 0.77016 0.0
C224 C 0.61536 0.1085 0.73536 0.0
C225 C 0.58909 0.11301 0.77961 0.0
C226 C 0.66071 0.02949 0.77835 0.0
C227 C 0.64693 1.00331 0.80345 0.0
C228 C 0.65732 0.95985 0.80915 0.0
C229 C 0.68191 0.9419 0.78991 0.0
C230 C 0.69953 0.97089 0.76562 0.0
C231 C 0.68909 1.01426 0.7599 0.0
C232 C 0.61183 0.11751 0.70662 0.0
C233 C 0.65332 0.122 0.68905 0.0
C234 C 0.64702 0.12504 0.66154 0.0
C235 C 0.59832 0.12205 0.65102 0.0
C236 C 0.55781 0.11952 0.66885 0.0
C237 C 0.56483 0.11794 0.69633 0.0
C238 C 0.56202 0.13291 0.7986 0.0
C239 C 0.52391 0.14831 0.78897 0.0
C240 C 0.73819 0.61003 0.1441 0.0
C241 C 0.73024 0.58966 0.17042 0.0
C242 C 0.67532 0.55572 0.17974 0.0
C243 C 0.62983 0.53863 0.16241 0.0
H244 H 0.45023 0.44816 0.1546 0.0
H245 H 0.35585 0.42439 0.16738 0.0
H246 H 0.31768 0.43733 0.08479 0.0
H247 H 0.41011 0.45774 0.07201 0.0
H248 H 0.50755 0.43275 0.03152 0.0
H249 H 0.52504 0.44485 0.98372 0.0
H250 H 0.66845 0.60828 -0.00206 0.0
H251 H 0.65277 0.59416 0.04576 0.0
H252 H 0.70126 0.60748 0.10641 0.0
H253 H 0.77964 0.63568 0.13595 0.0
H254 H 0.66768 0.5399 0.2 0.0
H255 H 0.58828 0.50996 0.16972 0.0
N256 N 0.53849 0.50272 0.12335 0.0
N257 N 0.51073 0.48108 0.07862 0.0
N258 N 0.60565 0.53229 0.08934 0.0
C259 C 0.49713 0.47864 0.10479 0.0
C260 C 0.5648 0.50759 0.0708 0.0
C261 C 0.59295 0.52968 0.11567 0.0
C262 C 0.43803 0.4558 0.11238 0.0
C263 C 0.4212 0.44476 0.13916 0.0
C264 C 0.36716 0.43142 0.14647 0.0
C265 C 0.32928 0.43001 0.12721 0.0
C266 C 0.34518 0.43741 0.10022 0.0
C267 C 0.39871 0.44969 0.09288 0.0
C268 C 0.57856 0.51272 0.04221 0.0
C269 C 0.54324 0.47085 0.02434 0.0
C270 C 0.55311 0.47806 -0.00306 0.0
C271 C 0.59763 0.528 0.9868 0.0
C272 C 0.63418 0.56896 0.0049 0.0
C273 C 0.62505 0.5611 0.03235 0.0
C274 C 0.63865 0.55512 0.13548 0.0
C275 C 0.69303 0.59301 0.1269 0.0
C276 C 0.22999 0.46275 0.16414 0.0
C277 C 0.18394 0.44105 0.14684 0.0
H278 H 0.31201 0.47721 0.17134 0.0
C279 C 0.18315 0.41049 0.12439 0.0
H280 H 0.23163 0.4865 0.18164 0.0
C281 C 0.22898 0.4037 0.11877 0.0
C282 C 0.27666 0.42821 0.1353 0.0
H283 H 0.14772 0.39286 0.11092 0.0
H284 H 0.22759 0.38051 0.10111 0.0
C285 C 0.27596 0.45678 0.15836 0.0
C286 C 0.82886 0.21692 0.51516 0.0
C287 C 0.78318 0.21894 0.52601 0.0
H288 H 0.91162 0.26413 0.49952 0.0
C289 C 0.7907 0.27 0.53552 0.0
H290 H 0.82436 0.17782 0.50813 0.0
C291 C 0.84018 0.31952 0.53011 0.0
C292 C 0.88286 0.31835 0.51539 0.0
H293 H 0.75625 0.27256 0.54429 0.0
H294 H 0.84201 0.35868 0.53471 0.0
C295 C 0.87867 0.26639 0.5101 0.0
C296 C 0.66007 0.797 0.77856 0.0
C297 C 0.67023 0.78343 0.80414 0.0
H298 H 0.65562 0.85802 0.75404 0.0
C299 C 0.69001 0.8242 0.82426 0.0
H300 H 0.64475 0.76619 0.76274 0.0
C301 C 0.69662 0.87687 0.81931 0.0
C302 C 0.68355 0.88965 0.79412 0.0
H303 H 0.69851 0.81479 0.84414 0.0
H304 H 0.71045 0.90704 0.83539 0.0
C305 C 0.66664 0.8497 0.77359 0.0
C306 C 0.82346 0.5449 0.20319 0.0
C307 C 0.87584 0.58903 0.19553 0.0
H308 H 0.73529 0.51039 0.20115 0.0
C309 C 0.8803 0.63935 0.18683 0.0
H310 H 0.81899 0.50581 0.21029 0.0
C311 C 0.83217 0.64259 0.18215 0.0
C312 C 0.77906 0.59509 0.18552 0.0
H313 H 0.92045 0.6744 0.18129 0.0
H314 H 0.83652 0.68042 0.17339 0.0
C315 C 0.7753 0.54773 0.19807 0.0
C316 C 0.30823 0.90417 0.44923 0.0
C317 C 0.32556 0.92315 0.47532 0.0
H318 H 0.24479 0.84172 0.42451 0.0
C319 C 0.28846 0.8973 0.49661 0.0
H320 H 0.33625 0.92348 0.43252 0.0
C321 C 0.23584 0.85109 0.49207 0.0
C322 C 0.2196 0.82956 0.46618 0.0
H323 H 0.30077 0.91167 0.51692 0.0
H324 H 0.20859 0.83116 0.50896 0.0
C325 C 0.25572 0.85756 0.44469 0.0
C326 C 0.56243 0.3265 0.86415 0.0
C327 C 0.51739 0.33275 0.85581 0.0
H328 H 0.60012 0.27547 0.86296 0.0
C329 C 0.46884 0.28616 0.84623 0.0
H330 H 0.60026 0.36185 0.8718 0.0
C331 C 0.46805 0.2359 0.84181 0.0
C332 C 0.51643 0.23221 0.84617 0.0
H333 H 0.4332 0.28983 0.8401 0.0
H334 H 0.43142 0.20175 0.83262 0.0
C335 C 0.56214 0.27665 0.8592 0.0
C336 C 0.61644 0.92169 0.50749 0.0
C337 C 0.56623 0.91987 0.50044 0.0
H338 H 0.658 0.876 0.51691 0.0
C339 C 0.5185 0.86705 0.49641 0.0
H340 H 0.65433 0.96129 0.51052 0.0
C341 C 0.52063 0.81762 0.5002 0.0
C342 C 0.57051 0.81962 0.50819 0.0
H343 H 0.47906 0.86374 0.49091 0.0
H344 H 0.48266 0.77783 0.49782 0.0
C345 C 0.61854 0.8725 0.51126 0.0
C346 C 0.75257 0.51494 0.83047 0.0
C347 C 0.74949 0.56373 0.8261 0.0
H348 H 0.80471 0.4793 0.8381 0.0
C349 C 0.79984 0.61503 0.82452 0.0
H350 H 0.71485 0.47461 0.83181 0.0
C351 C 0.85154 0.6177 0.8283 0.0
C352 C 0.85452 0.56909 0.83345 0.0
H353 H 0.79935 0.65353 0.82124 0.0
H354 H 0.88927 0.65811 0.82761 0.0
C355 C 0.80429 0.51755 0.83391 0.0
C356 C 0.17392 0.723 0.17775 0.0
C357 C 0.17544 0.67548 0.16884 0.0
H358 H 0.22005 0.80942 0.18864 0.0
C359 C 0.228 0.68136 0.16299 0.0
H360 H 0.1345 0.72062 0.18227 0.0
C361 C 0.27752 0.73269 0.16679 0.0
C362 C 0.27601 0.77968 0.17661 0.0
H363 H 0.23112 0.64592 0.15606 0.0
H364 H 0.31712 0.73491 0.16296 0.0
C365 C 0.22329 0.77416 0.18154 0.0
C366 C 0.59785 0.27625 0.49611 0.0
C367 C 0.54905 0.22421 0.49232 0.0
H368 H 0.6335 0.36423 0.5029 0.0
C369 C 0.49762 0.2231 0.49092 0.0
H370 H 0.63828 0.27901 0.49724 0.0
C371 C 0.49491 0.27219 0.49435 0.0
C372 C 0.54359 0.32397 0.4989 0.0
H373 H 0.45912 0.18397 0.48809 0.0
H374 H 0.45445 0.26945 0.49384 0.0
C375 C 0.59519 0.3254 0.49917 0.0
C376 C 0.38189 0.50029 0.84796 0.0
C377 C 0.42859 0.54901 0.83825 0.0
H378 H 0.296 0.45966 0.85949 0.0
C379 C 0.42194 0.59509 0.83195 0.0
H380 H 0.38485 0.46361 0.85273 0.0
C381 C 0.37046 0.59293 0.83604 0.0
C382 C 0.32425 0.54461 0.84654 0.0
H383 H 0.4568 0.63331 0.82434 0.0
H384 H 0.36747 0.62978 0.8318 0.0
C385 C 0.33067 0.49807 0.85194 0.0
C386 C 0.87729 0.3008 0.15992 0.0
C387 C 0.8757 0.35081 0.16191 0.0
H388 H 0.83141 0.21112 0.16161 0.0
C389 C 0.82333 0.34692 0.16563 0.0
H390 H 0.91665 0.30189 0.15707 0.0
C391 C 0.77438 0.29483 0.16805 0.0
C392 C 0.77616 0.24484 0.1671 0.0
H393 H 0.82012 0.38431 0.16719 0.0
H394 H 0.73535 0.29391 0.17177 0.0
C395 C 0.82831 0.24861 0.16264 0.0
C396 C 0.06052 0.52451 0.07901 0.0
C397 C 1.01196 0.52345 0.088 0.0
H398 H 0.1107 0.53054 0.04517 0.0
C399 C 0.97333 0.52157 0.06928 0.0
H400 H 0.09104 0.52627 0.09316 0.0
C401 C 0.9837 0.52271 0.04203 0.0
C402 C 0.0338 0.52732 0.0327 0.0
H403 H 0.93521 0.52005 0.07574 0.0
H404 H 0.95257 0.52087 0.02827 0.0
C405 C 0.0716 0.52687 0.05153 0.0
C406 C 0.531 0.03792 0.40979 0.0
C407 C 0.5799 0.08554 0.41843 0.0
H408 H 0.48419 0.98818 0.37629 0.0
C409 C 0.61681 0.123 0.39944 0.0
H410 H 0.50214 1.00823 0.42414 0.0
C411 C 0.60622 0.11237 0.37226 0.0
C412 C 0.5591 0.06315 0.36328 0.0
H413 H 0.65452 0.16038 0.40563 0.0
H414 H 0.63568 0.14258 0.35827 0.0
C415 C 0.52082 0.02658 0.3824 0.0
C416 C 0.51547 0.49828 0.73708 0.0
C417 C 0.56071 0.5346 0.75324 0.0
H418 H 0.48206 0.47655 0.69761 0.0
C419 C 0.60758 0.57961 0.74131 0.0
H420 H 0.47853 0.4635 0.74571 0.0
C421 C 0.6095 0.58723 0.71354 0.0
C422 C 0.56479 0.54963 0.69734 0.0
H423 H 0.64294 0.60831 0.75334 0.0
H424 H 0.64646 0.62154 0.70468 0.0
C425 C 0.51756 0.50558 0.70949 0.0
C426 C 0.58976 0.07597 0.57907 0.0
C427 C 0.55441 0.09332 0.5679 0.0
H428 H 0.62984 0.06968 0.61415 0.0
C429 C 0.53784 0.12479 0.58329 0.0
H430 H 0.60309 0.05161 0.5675 0.0
C431 C 0.55477 0.13703 0.60988 0.0
C432 C 0.58736 0.11667 0.62176 0.0
H433 H 0.51122 0.13932 0.57487 0.0
H434 H 0.54124 0.16143 0.62124 0.0
C435 C 0.60554 0.08692 0.60581 0.0
C436 C 0.66076 0.58638 0.9188 0.0
C437 C 0.61269 0.56744 0.90306 0.0
H438 H 0.69407 0.58681 0.95739 0.0
C439 C 0.56013 0.533 0.91444 0.0
H440 H 0.70181 0.61251 0.91028 0.0
C441 C 0.55544 0.51946 0.94146 0.0
C442 C 0.60336 0.53907 0.95758 0.0
H443 H 0.52239 0.51799 0.90267 0.0
H444 H 0.51398 0.49516 0.9498 0.0
C445 C 0.65619 0.57188 0.94578 0.0
C446 C 1.00102 0.5344 0.24559 0.0
C447 C 1.00629 0.48838 0.23806 0.0
H448 H 0.98746 0.57766 0.2774 0.0
C449 C 0.99865 0.44813 0.25722 0.0
H450 H 1.00654 0.56593 0.23112 0.0
C451 C 0.98886 0.45536 0.28384 0.0
C452 C 0.98599 0.50273 0.29171 0.0
H453 H 1.00247 0.41222 0.25186 0.0
H454 H 0.98626 0.42516 0.29841 0.0
C455 C 0.99053 0.5413 0.27212 0.0
loop_
_geom_bond_atom_site_label_1
_geom_bond_atom_site_label_2
_geom_bond_distance
_geom_bond_site_symmetry_2
_ccdc_geom_bond_type
Dy0 O4 2.398 . S
Dy0 O5 2.491 . S
Dy0 O6 2.403 . S
Dy0 O7 2.664 . S
Dy0 O11 2.326 . S
Dy0 O15 2.310 . S
Dy0 O16 2.351 1_455 S
C1 O12 1.185 . S
C1 O13 1.355 . S
C2 O4 1.185 . S
C2 O5 1.355 . S
Dy3 O7 2.310 1_655 S
Dy3 O10 2.351 1_655 S
Dy3 O12 2.398 . S
Dy3 O13 2.491 . S
Dy3 O14 2.408 . S
Dy3 O15 2.664 1_655 S
Dy3 O17 2.326 . S
O4 Dy0 2.398 . S
O4 C2 1.185 . S
O5 Dy0 2.491 . S
O5 C2 1.355 . S
O6 Dy0 2.403 . S
O6 C8 1.254 . S
O7 Dy0 2.664 . S
O7 Dy3 2.310 1_455 S
O7 C8 1.268 . S
C8 O6 1.254 . S
C8 O7 1.268 . S
C9 O14 1.230 1_455 S
C9 O15 1.268 . S
O10 Dy3 2.351 1_455 S
O10 C18 1.249 . S
O11 Dy0 2.326 . S
O11 C18 1.267 . S
O12 C1 1.185 . S
O12 Dy3 2.398 . S
O13 C1 1.355 . S
O13 Dy3 2.491 . S
O14 Dy3 2.408 . S
O14 C9 1.230 1_655 S
O15 Dy0 2.310 . S
O15 Dy3 2.664 1_455 S
O15 C9 1.268 . S
O16 Dy0 2.351 1_655 S
O16 C19 1.249 . S
O17 Dy3 2.326 . S
O17 C19 1.267 . S
C18 O10 1.249 . S
C18 O11 1.267 . S
C19 O16 1.249 . S
C19 O17 1.267 . S
Dy20 O24 2.398 . S
Dy20 O25 2.491 . S
Dy20 O26 2.403 1_565 S
Dy20 O27 2.664 1_565 S
Dy20 O31 2.326 . S
Dy20 O35 2.310 1_565 S
Dy20 O36 2.351 1_565 S
C21 O32 1.185 . S
C21 O33 1.355 . S
C22 O24 1.185 . S
C22 O25 1.355 . S
Dy23 O27 2.310 . S
Dy23 O30 2.351 1_545 S
Dy23 O32 2.398 . S
Dy23 O33 2.491 . S
Dy23 O34 2.403 . S
Dy23 O35 2.664 . S
Dy23 O37 2.326 . S
O24 Dy20 2.398 . S
O24 C22 1.185 . S
O25 Dy20 2.491 . S
O25 C22 1.355 . S
O26 Dy20 2.403 1_545 S
O26 C28 1.254 . S
O27 Dy20 2.664 1_545 S
O27 Dy23 2.310 . S
O27 C28 1.268 . S
C28 O26 1.254 . S
C28 O27 1.268 . S
C29 O34 1.254 . S
C29 O35 1.268 . S
O30 Dy23 2.351 1_565 S
O30 C38 1.249 . S
O31 Dy20 2.326 . S
O31 C38 1.267 . S
O32 C21 1.185 . S
O32 Dy23 2.398 . S
O33 C21 1.355 . S
O33 Dy23 2.491 . S
O34 Dy23 2.403 . S
O34 C29 1.254 . S
O35 Dy20 2.310 1_545 S
O35 Dy23 2.664 . S
O35 C29 1.268 . S
O36 Dy20 2.351 1_545 S
O36 C39 1.249 . S
O37 Dy23 2.326 . S
O37 C39 1.267 . S
C38 O30 1.249 . S
C38 O31 1.267 . S
C39 O36 1.249 . S
C39 O37 1.267 . S
Dy40 O44 2.398 . S
Dy40 O45 2.491 . S
Dy40 O46 2.403 . S
Dy40 O47 2.664 . S
Dy40 O51 2.326 . S
Dy40 O55 2.310 . S
Dy40 O56 2.351 . S
C41 O52 1.185 . S
C41 O53 1.355 . S
C42 O44 1.185 . S
C42 O45 1.355 . S
Dy43 O47 2.310 . S
Dy43 O50 2.351 . S
Dy43 O52 2.398 . S
Dy43 O53 2.491 . S
Dy43 O54 2.403 . S
Dy43 O55 2.664 . S
Dy43 O57 2.326 . S
O44 Dy40 2.398 . S
O44 C42 1.185 . S
O45 Dy40 2.491 . S
O45 C42 1.355 . S
O46 Dy40 2.403 . S
O46 C48 1.254 . S
O47 Dy40 2.664 . S
O47 Dy43 2.310 . S
O47 C48 1.268 . S
C48 O46 1.254 . S
C48 O47 1.268 . S
C49 O54 1.254 . S
C49 O55 1.268 . S
O50 Dy43 2.351 . S
O50 C58 1.249 . S
O51 Dy40 2.326 . S
O51 C58 1.267 . S
O52 C41 1.185 . S
O52 Dy43 2.398 . S
O53 C41 1.355 . S
O53 Dy43 2.491 . S
O54 Dy43 2.403 . S
O54 C49 1.254 . S
O55 Dy40 2.310 . S
O55 Dy43 2.664 . S
O55 C49 1.268 . S
O56 Dy40 2.351 . S
O56 C59 1.249 . S
O57 Dy43 2.326 . S
O57 C59 1.267 . S
C58 O50 1.249 . S
C58 O51 1.267 . S
C59 O56 1.249 . S
C59 O57 1.267 . S
C60 C61 1.384 . S
C60 H73 0.947 . S
C60 C95 1.382 . S
C61 C60 1.384 . S
C61 C62 1.378 . S
C62 C61 1.378 . S
C62 C63 1.378 . S
C62 H74 0.952 . S
C63 C62 1.378 . S
C63 H75 0.950 . S
C63 C94 1.383 . S
H64 C83 0.947 . S
H65 C84 0.946 . S
H66 C86 0.953 . S
H67 C87 0.945 . S
H68 C89 0.952 . S
H69 C90 0.949 . S
H70 C92 0.950 . S
H71 C93 0.948 . S
H72 C95 0.951 . S
H73 C60 0.947 . S
H74 C62 0.952 . S
H75 C63 0.950 . S
N76 C79 1.382 . S
N76 C81 1.363 1_545 S
N77 C79 1.371 . S
N77 C80 1.372 . S
N78 C80 1.361 1_565 S
N78 C81 1.377 . S
C79 N76 1.382 . S
C79 N77 1.371 . S
C79 C82 1.480 . S
C80 N77 1.372 . S
C80 N78 1.361 1_545 S
C80 C88 1.457 . S
C81 N76 1.363 1_565 S
C81 N78 1.377 . S
C81 C94 1.479 . S
C82 C79 1.480 . S
C82 C83 1.383 . S
C82 C87 1.385 . S
C83 H64 0.947 . S
C83 C82 1.383 . S
C83 C84 1.388 . S
C84 H65 0.946 . S
C84 C83 1.388 . S
C84 C85 1.384 . S
C85 C84 1.384 . S
C85 C86 1.377 . S
C86 H66 0.953 . S
C86 C85 1.377 . S
C86 C87 1.369 . S
C87 H67 0.945 . S
C87 C82 1.385 . S
C87 C86 1.369 . S
C88 C80 1.457 . S
C88 C89 1.372 . S
C88 C93 1.364 1_545 S
C89 H68 0.952 . S
C89 C88 1.372 . S
C89 C90 1.389 . S
C90 H69 0.949 . S
C90 C89 1.389 . S
C90 C91 1.387 . S
C91 C90 1.387 . S
C91 C92 1.372 1_545 S
C92 H70 0.950 . S
C92 C91 1.372 1_565 S
C92 C93 1.379 . S
C93 H71 0.948 . S
C93 C88 1.364 1_565 S
C93 C92 1.379 . S
C94 C63 1.383 . S
C94 C81 1.479 . S
C94 C95 1.398 . S
C95 C60 1.382 . S
C95 H72 0.951 . S
C95 C94 1.398 . S
C96 C97 1.384 . S
C96 H109 0.947 . S
C96 C131 1.382 . S
C97 C96 1.384 . S
C97 C98 1.378 . S
C98 C97 1.378 . S
C98 C99 1.378 . S
C98 H110 0.952 . S
C99 C98 1.378 . S
C99 H111 0.950 . S
C99 C130 1.383 . S
H100 C119 0.947 . S
H101 C120 0.946 . S
H102 C122 0.953 . S
H103 C123 0.945 . S
H104 C125 0.952 . S
H105 C126 0.949 . S
H106 C128 0.950 . S
H107 C129 0.948 . S
H108 C131 0.951 . S
H109 C96 0.947 . S
H110 C98 0.952 . S
H111 C99 0.950 . S
N112 C115 1.382 . S
N112 C117 1.363 . S
N113 C115 1.371 . S
N113 C116 1.372 . S
N114 C116 1.361 . S
N114 C117 1.377 . S
C115 N112 1.382 . S
C115 N113 1.371 . S
C115 C118 1.480 . S
C116 N113 1.372 . S
C116 N114 1.361 . S
C116 C124 1.457 . S
C117 N112 1.363 . S
C117 N114 1.377 . S
C117 C130 1.479 . S
C118 C115 1.480 . S
C118 C119 1.383 . S
C118 C123 1.385 . S
C119 H100 0.947 . S
C119 C118 1.383 . S
C119 C120 1.388 . S
C120 H101 0.946 . S
C120 C119 1.388 . S
C120 C121 1.384 . S
C121 C120 1.384 . S
C121 C122 1.377 . S
C122 H102 0.953 . S
C122 C121 1.377 . S
C122 C123 1.369 . S
C123 H103 0.945 . S
C123 C118 1.385 . S
C123 C122 1.369 . S
C124 C116 1.457 . S
C124 C125 1.372 . S
C124 C129 1.364 . S
C125 H104 0.952 . S
C125 C124 1.372 . S
C125 C126 1.389 . S
C126 H105 0.949 . S
C126 C125 1.389 . S
C126 C127 1.387 . S
C127 C126 1.387 . S
C127 C128 1.372 . S
C128 H106 0.950 . S
C128 C127 1.372 . S
C128 C129 1.379 . S
C129 H107 0.948 . S
C129 C124 1.364 . S
C129 C128 1.379 . S
C130 C99 1.383 . S
C130 C117 1.479 . S
C130 C131 1.398 . S
C131 C96 1.382 . S
C131 H108 0.951 . S
C131 C130 1.398 . S
C132 C133 1.384 . S
C132 H145 0.947 . S
C132 C167 1.382 . S
C133 C132 1.384 . S
C133 C134 1.378 . S
C134 C133 1.378 . S
C134 C135 1.378 . S
C134 H146 0.952 . S
C135 C134 1.378 . S
C135 H147 0.950 . S
C135 C166 1.383 . S
H136 C155 0.947 . S
H137 C156 0.946 . S
H138 C158 0.953 . S
H139 C159 0.945 . S
H140 C161 0.952 . S
H141 C162 0.949 . S
H142 C164 0.953 . S
H143 C165 0.956 . S
H144 C167 0.951 . S
H145 C132 0.947 . S
H146 C134 0.952 . S
H147 C135 0.950 . S
N148 C151 1.382 . S
N148 C153 1.363 . S
N149 C151 1.371 . S
N149 C152 1.372 . S
N150 C152 1.361 . S
N150 C153 1.377 . S
C151 N148 1.382 . S
C151 N149 1.371 . S
C151 C154 1.480 . S
C152 N149 1.372 . S
C152 N150 1.361 . S
C152 C160 1.457 . S
C153 N148 1.363 . S
C153 N150 1.377 . S
C153 C166 1.479 1_455 S
C154 C151 1.480 . S
C154 C155 1.383 . S
C154 C159 1.385 . S
C155 H136 0.947 . S
C155 C154 1.383 . S
C155 C156 1.388 . S
C156 H137 0.946 . S
C156 C155 1.388 . S
C156 C157 1.384 . S
C157 C156 1.384 . S
C157 C158 1.377 . S
C158 H138 0.953 . S
C158 C157 1.377 . S
C158 C159 1.369 . S
C159 H139 0.945 . S
C159 C154 1.385 . S
C159 C158 1.369 . S
C160 C152 1.457 . S
C160 C161 1.372 . S
C160 C165 1.355 1_455 S
C161 H140 0.952 . S
C161 C160 1.372 . S
C161 C162 1.389 . S
C162 H141 0.949 . S
C162 C161 1.389 . S
C162 C163 1.387 1_556 S
C163 C162 1.387 1_554 S
C163 C164 1.369 1_454 S
C164 H142 0.953 . S
C164 C163 1.369 1_656 S
C164 C165 1.379 . S
C165 H143 0.956 . S
C165 C160 1.355 1_655 S
C165 C164 1.379 . S
C166 C135 1.383 . S
C166 C153 1.479 1_655 S
C166 C167 1.398 . S
C167 C132 1.382 . S
C167 H144 0.951 . S
C167 C166 1.398 . S
C168 C169 1.384 . S
C168 H181 0.947 . S
C168 C203 1.382 . S
C169 C168 1.384 . S
C169 C170 1.378 . S
C170 C169 1.378 . S
C170 C171 1.378 . S
C170 H182 0.952 . S
C171 C170 1.378 . S
C171 H183 0.950 . S
C171 C202 1.383 . S
H172 C191 0.947 . S
H173 C192 0.946 . S
H174 C194 0.953 . S
H175 C195 0.945 . S
H176 C197 0.952 . S
H177 C198 0.949 . S
H178 C200 0.950 . S
H179 C201 0.948 . S
H180 C203 0.951 . S
H181 C168 0.947 . S
H182 C170 0.952 . S
H183 C171 0.950 . S
N184 C187 1.382 1_455 S
N184 C189 1.363 . S
N185 C187 1.371 . S
N185 C188 1.372 1_655 S
N186 C188 1.361 . S
N186 C189 1.377 . S
C187 N184 1.382 1_655 S
C187 N185 1.371 . S
C187 C190 1.480 . S
C188 N185 1.372 1_455 S
C188 N186 1.361 . S
C188 C196 1.457 . S
C189 N184 1.363 . S
C189 N186 1.377 . S
C189 C202 1.479 . S
C190 C187 1.480 . S
C190 C191 1.383 . S
C190 C195 1.385 . S
C191 H172 0.947 . S
C191 C190 1.383 . S
C191 C192 1.388 . S
C192 H173 0.946 . S
C192 C191 1.388 . S
C192 C193 1.384 . S
C193 C192 1.384 . S
C193 C194 1.377 . S
C194 H174 0.953 . S
C194 C193 1.377 . S
C194 C195 1.369 . S
C195 H175 0.945 . S
C195 C190 1.385 . S
C195 C194 1.369 . S
C196 C188 1.457 . S
C196 C197 1.372 1_455 S
C196 C201 1.364 . S
C197 H176 0.952 . S
C197 C196 1.372 1_655 S
C197 C198 1.389 . S
C198 H177 0.949 . S
C198 C197 1.389 . S
C198 C199 1.387 1_655 S
C199 C198 1.387 1_455 S
C199 C200 1.372 . S
C200 H178 0.950 . S
C200 C199 1.372 . S
C200 C201 1.379 . S
C201 H179 0.948 . S
C201 C196 1.364 . S
C201 C200 1.379 . S
C202 C171 1.383 . S
C202 C189 1.479 . S
C202 C203 1.398 . S
C203 C168 1.382 . S
C203 H180 0.951 . S
C203 C202 1.398 . S
C204 C205 1.384 . S
C204 H217 0.947 . S
C204 C239 1.382 . S
C205 C204 1.384 . S
C205 C206 1.378 . S
C206 C205 1.378 . S
C206 C207 1.378 . S
C206 H218 0.952 . S
C207 C206 1.378 . S
C207 H219 0.950 . S
C207 C238 1.383 . S
H208 C227 0.947 1_545 S
H209 C228 0.946 . S
H210 C230 0.953 . S
H211 C231 0.945 . S
H212 C233 0.952 1_565 S
H213 C234 0.949 1_565 S
H214 C236 0.950 . S
H215 C237 0.948 . S
H216 C239 0.951 . S
H217 C204 0.947 . S
H218 C206 0.952 . S
H219 C207 0.950 . S
N220 C223 1.382 . S
N220 C225 1.363 . S
N221 C223 1.371 . S
N221 C224 1.372 . S
N222 C224 1.361 . S
N222 C225 1.377 . S
C223 N220 1.382 . S
C223 N221 1.371 . S
C223 C226 1.480 1_545 S
C224 N221 1.372 . S
C224 N222 1.361 . S
C224 C232 1.457 . S
C225 N220 1.363 . S
C225 N222 1.377 . S
C225 C238 1.479 . S
C226 C223 1.480 1_565 S
C226 C227 1.383 . S
C226 C231 1.385 . S
C227 H208 0.947 1_565 S
C227 C226 1.383 . S
C227 C228 1.388 . S
C228 H209 0.946 . S
C228 C227 1.388 . S
C228 C229 1.384 . S
C229 C228 1.384 . S
C229 C230 1.377 . S
C230 H210 0.953 . S
C230 C229 1.377 . S
C230 C231 1.369 . S
C231 H211 0.945 . S
C231 C226 1.385 . S
C231 C230 1.369 . S
C232 C224 1.457 . S
C232 C233 1.372 . S
C232 C237 1.364 . S
C233 H212 0.952 1_545 S
C233 C232 1.372 . S
C233 C234 1.389 . S
C234 H213 0.949 1_545 S
C234 C233 1.389 . S
C234 C235 1.387 . S
C235 C234 1.387 . S
C235 C236 1.372 . S
C236 H214 0.950 . S
C236 C235 1.372 . S
C236 C237 1.379 . S
C237 H215 0.948 . S
C237 C232 1.364 . S
C237 C236 1.379 . S
C238 C207 1.383 . S
C238 C225 1.479 . S
C238 C239 1.398 . S
C239 C204 1.382 . S
C239 H216 0.951 . S
C239 C238 1.398 . S
C240 C241 1.384 . S
C240 H253 0.947 . S
C240 C275 1.382 . S
C241 C240 1.384 . S
C241 C242 1.378 . S
C242 C241 1.378 . S
C242 C243 1.378 . S
C242 H254 0.952 . S
C243 C242 1.378 . S
C243 H255 0.950 . S
C243 C274 1.383 . S
H244 C263 0.947 . S
H245 C264 0.946 . S
H246 C266 0.953 . S
H247 C267 0.945 . S
H248 C269 0.952 . S
H249 C270 0.943 1_556 S
H250 C272 0.937 1_556 S
H251 C273 0.948 . S
H252 C275 0.951 . S
H253 C240 0.947 . S
H254 C242 0.952 . S
H255 C243 0.950 . S
N256 C259 1.382 . S
N256 C261 1.363 . S
N257 C259 1.371 . S
N257 C260 1.372 . S
N258 C260 1.361 . S
N258 C261 1.377 . S
C259 N256 1.382 . S
C259 N257 1.371 . S
C259 C262 1.480 . S
C260 N257 1.372 . S
C260 N258 1.361 . S
C260 C268 1.457 . S
C261 N256 1.363 . S
C261 N258 1.377 . S
C261 C274 1.479 . S
C262 C259 1.480 . S
C262 C263 1.383 . S
C262 C267 1.385 . S
C263 H244 0.947 . S
C263 C262 1.383 . S
C263 C264 1.388 . S
C264 H245 0.946 . S
C264 C263 1.388 . S
C264 C265 1.384 . S
C265 C264 1.384 . S
C265 C266 1.377 . S
C266 H246 0.953 . S
C266 C265 1.377 . S
C266 C267 1.369 . S
C267 H247 0.945 . S
C267 C262 1.385 . S
C267 C266 1.369 . S
C268 C260 1.457 . S
C268 C269 1.372 . S
C268 C273 1.364 . S
C269 H248 0.952 . S
C269 C268 1.372 . S
C269 C270 1.389 . S
C270 H249 0.943 1_554 S
C270 C269 1.389 . S
C270 C271 1.387 1_554 S
C271 C270 1.387 1_556 S
C271 C272 1.372 1_556 S
C272 H250 0.937 1_554 S
C272 C271 1.372 1_554 S
C272 C273 1.379 . S
C273 H251 0.948 . S
C273 C268 1.364 . S
C273 C272 1.379 . S
C274 C243 1.383 . S
C274 C261 1.479 . S
C274 C275 1.398 . S
C275 C240 1.382 . S
C275 H252 0.951 . S
C275 C274 1.398 . S
C276 C277 1.387 . S
C276 H280 0.950 . S
C276 C285 1.390 . S
C277 C276 1.387 . S
C277 C279 1.387 . S
H278 C285 0.950 . S
C279 C277 1.387 . S
C279 C281 1.390 . S
C279 H283 0.950 . S
H280 C276 0.950 . S
C281 C279 1.390 . S
C281 C282 1.387 . S
C281 H284 0.950 . S
C282 C281 1.387 . S
C282 C285 1.387 . S
H283 C279 0.950 . S
H284 C281 0.950 . S
C285 C276 1.390 . S
C285 H278 0.950 . S
C285 C282 1.387 . S
C286 C287 1.387 . S
C286 H290 0.950 . S
C286 C295 1.390 . S
C287 C286 1.387 . S
C287 C289 1.387 . S
H288 C295 0.950 . S
C289 C287 1.387 . S
C289 C291 1.390 . S
C289 H293 0.950 . S
H290 C286 0.950 . S
C291 C289 1.390 . S
C291 C292 1.387 . S
C291 H294 0.950 . S
C292 C291 1.387 . S
C292 C295 1.387 . S
H293 C289 0.950 . S
H294 C291 0.950 . S
C295 C286 1.390 . S
C295 H288 0.950 . S
C295 C292 1.387 . S
C296 C297 1.387 . S
C296 H300 0.950 . S
C296 C305 1.390 . S
C297 C296 1.387 . S
C297 C299 1.387 . S
H298 C305 0.950 . S
C299 C297 1.387 . S
C299 C301 1.390 . S
C299 H303 0.950 . S
H300 C296 0.950 . S
C301 C299 1.390 . S
C301 C302 1.387 . S
C301 H304 0.950 . S
C302 C301 1.387 . S
C302 C305 1.387 . S
H303 C299 0.950 . S
H304 C301 0.950 . S
C305 C296 1.390 . S
C305 H298 0.950 . S
C305 C302 1.387 . S
C306 C307 1.387 . S
C306 H310 0.950 . S
C306 C315 1.390 . S
C307 C306 1.387 . S
C307 C309 1.387 . S
H308 C315 0.950 . S
C309 C307 1.387 . S
C309 C311 1.390 . S
C309 H313 0.950 . S
H310 C306 0.950 . S
C311 C309 1.390 . S
C311 C312 1.387 . S
C311 H314 0.950 . S
C312 C311 1.387 . S
C312 C315 1.387 . S
H313 C309 0.950 . S
H314 C311 0.950 . S
C315 C306 1.390 . S
C315 H308 0.950 . S
C315 C312 1.387 . S
C316 C317 1.387 . S
C316 H320 0.950 . S
C316 C325 1.390 . S
C317 C316 1.387 . S
C317 C319 1.387 . S
H318 C325 0.950 . S
C319 C317 1.387 . S
C319 C321 1.390 . S
C319 H323 0.950 . S
H320 C316 0.950 . S
C321 C319 1.390 . S
C321 C322 1.387 . S
C321 H324 0.950 . S
C322 C321 1.387 . S
C322 C325 1.387 . S
H323 C319 0.950 . S
H324 C321 0.950 . S
C325 C316 1.390 . S
C325 H318 0.950 . S
C325 C322 1.387 . S
C326 C327 1.387 . S
C326 H330 0.950 . S
C326 C335 1.390 . S
C327 C326 1.387 . S
C327 C329 1.387 . S
H328 C335 0.950 . S
C329 C327 1.387 . S
C329 C331 1.390 . S
C329 H333 0.950 . S
H330 C326 0.950 . S
C331 C329 1.390 . S
C331 C332 1.387 . S
C331 H334 0.950 . S
C332 C331 1.387 . S
C332 C335 1.387 . S
H333 C329 0.950 . S
H334 C331 0.950 . S
C335 C326 1.390 . S
C335 H328 0.950 . S
C335 C332 1.387 . S
C336 C337 1.387 . S
C336 H340 0.950 . S
C336 C345 1.390 . S
C337 C336 1.387 . S
C337 C339 1.387 . S
H338 C345 0.950 . S
C339 C337 1.387 . S
C339 C341 1.390 . S
C339 H343 0.950 . S
H340 C336 0.950 . S
C341 C339 1.390 . S
C341 C342 1.387 . S
C341 H344 0.950 . S
C342 C341 1.387 . S
C342 C345 1.387 . S
H343 C339 0.950 . S
H344 C341 0.950 . S
C345 C336 1.390 . S
C345 H338 0.950 . S
C345 C342 1.387 . S
C346 C347 1.387 . S
C346 H350 0.950 . S
C346 C355 1.390 . S
C347 C346 1.387 . S
C347 C349 1.387 . S
H348 C355 0.950 . S
C349 C347 1.387 . S
C349 C351 1.390 . S
C349 H353 0.950 . S
H350 C346 0.950 . S
C351 C349 1.390 . S
C351 C352 1.387 . S
C351 H354 0.950 . S
C352 C351 1.387 . S
C352 C355 1.387 . S
H353 C349 0.950 . S
H354 C351 0.950 . S
C355 C346 1.390 . S
C355 H348 0.950 . S
C355 C352 1.387 . S
C356 C357 1.387 . S
C356 H360 0.950 . S
C356 C365 1.390 . S
C357 C356 1.387 . S
C357 C359 1.387 . S
H358 C365 0.950 . S
C359 C357 1.387 . S
C359 C361 1.390 . S
C359 H363 0.950 . S
H360 C356 0.950 . S
C361 C359 1.390 . S
C361 C362 1.387 . S
C361 H364 0.950 . S
C362 C361 1.387 . S
C362 C365 1.387 . S
H363 C359 0.950 . S
H364 C361 0.950 . S
C365 C356 1.390 . S
C365 H358 0.950 . S
C365 C362 1.387 . S
C366 C367 1.387 . S
C366 H370 0.950 . S
C366 C375 1.390 . S
C367 C366 1.387 . S
C367 C369 1.387 . S
H368 C375 0.950 . S
C369 C367 1.387 . S
C369 C371 1.390 . S
C369 H373 0.950 . S
H370 C366 0.950 . S
C371 C369 1.390 . S
C371 C372 1.387 . S
C371 H374 0.950 . S
C372 C371 1.387 . S
C372 C375 1.387 . S
H373 C369 0.950 . S
H374 C371 0.950 . S
C375 C366 1.390 . S
C375 H368 0.950 . S
C375 C372 1.387 . S
C376 C377 1.387 . S
C376 H380 0.950 . S
C376 C385 1.390 . S
C377 C376 1.387 . S
C377 C379 1.387 . S
H378 C385 0.950 . S
C379 C377 1.387 . S
C379 C381 1.390 . S
C379 H383 0.950 . S
H380 C376 0.950 . S
C381 C379 1.390 . S
C381 C382 1.387 . S
C381 H384 0.950 . S
C382 C381 1.387 . S
C382 C385 1.387 . S
H383 C379 0.950 . S
H384 C381 0.950 . S
C385 C376 1.390 . S
C385 H378 0.950 . S
C385 C382 1.387 . S
C386 C387 1.387 . S
C386 H390 0.950 . S
C386 C395 1.390 . S
C387 C386 1.387 . S
C387 C389 1.387 . S
H388 C395 0.950 . S
C389 C387 1.387 . S
C389 C391 1.390 . S
C389 H393 0.950 . S
H390 C386 0.950 . S
C391 C389 1.390 . S
C391 C392 1.387 . S
C391 H394 0.950 . S
C392 C391 1.387 . S
C392 C395 1.387 . S
H393 C389 0.950 . S
H394 C391 0.950 . S
C395 C386 1.390 . S
C395 H388 0.950 . S
C395 C392 1.387 . S
C396 C397 1.387 . S
C396 H400 0.950 . S
C396 C405 1.390 . S
C397 C396 1.387 . S
C397 C399 1.387 1_455 S
H398 C405 0.950 . S
C399 C397 1.387 1_655 S
C399 C401 1.390 . S
C399 H403 0.950 . S
H400 C396 0.950 . S
C401 C399 1.390 . S
C401 C402 1.387 1_655 S
C401 H404 0.950 . S
C402 C401 1.387 1_455 S
C402 C405 1.387 . S
H403 C399 0.950 . S
H404 C401 0.950 . S
C405 C396 1.390 . S
C405 H398 0.950 . S
C405 C402 1.387 . S
C406 C407 1.387 1_565 S
C406 H410 0.950 . S
C406 C415 1.390 . S
C407 C406 1.387 1_545 S
C407 C409 1.387 . S
H408 C415 0.950 . S
C409 C407 1.387 . S
C409 C411 1.390 . S
C409 H413 0.950 . S
H410 C406 0.950 . S
C411 C409 1.390 . S
C411 C412 1.387 . S
C411 H414 0.950 . S
C412 C411 1.387 . S
C412 C415 1.387 1_545 S
H413 C409 0.950 . S
H414 C411 0.950 . S
C415 C406 1.390 . S
C415 H408 0.950 . S
C415 C412 1.387 1_565 S
C416 C417 1.387 . S
C416 H420 0.950 . S
C416 C425 1.390 . S
C417 C416 1.387 . S
C417 C419 1.387 . S
H418 C425 0.950 . S
C419 C417 1.387 . S
C419 C421 1.390 . S
C419 H423 0.950 . S
H420 C416 0.950 . S
C421 C419 1.390 . S
C421 C422 1.387 . S
C421 H424 0.950 . S
C422 C421 1.387 . S
C422 C425 1.387 . S
H423 C419 0.950 . S
H424 C421 0.950 . S
C425 C416 1.390 . S
C425 H418 0.950 . S
C425 C422 1.387 . S
C426 C427 1.387 1_565 S
C426 H430 0.950 . S
C426 C435 1.390 . S
C427 C426 1.387 1_545 S
C427 C429 1.387 . S
H428 C435 0.952 . S
C429 C427 1.387 . S
C429 C431 1.390 . S
C429 H433 0.950 . S
H430 C426 0.950 . S
C431 C429 1.390 . S
C431 C432 1.387 . S
C431 H434 0.950 . S
C432 C431 1.387 . S
C432 C435 1.385 1_545 S
H433 C429 0.950 . S
H434 C431 0.950 . S
C435 C426 1.390 . S
C435 H428 0.952 . S
C435 C432 1.385 1_565 S
C436 C437 1.387 . S
C436 H440 0.950 . S
C436 C445 1.390 . S
C437 C436 1.387 . S
C437 C439 1.387 . S
H438 C445 0.950 . S
C439 C437 1.387 . S
C439 C441 1.390 . S
C439 H443 0.950 . S
H440 C436 0.950 . S
C441 C439 1.390 . S
C441 C442 1.387 . S
C441 H444 0.950 . S
C442 C441 1.387 . S
C442 C445 1.387 . S
H443 C439 0.950 . S
H444 C441 0.950 . S
C445 C436 1.390 . S
C445 H438 0.950 . S
C445 C442 1.387 . S
C446 C447 1.387 1_655 S
C446 H450 0.950 . S
C446 C455 1.390 . S
C447 C446 1.387 1_455 S
C447 C449 1.387 . S
H448 C455 0.950 . S
C449 C447 1.387 . S
C449 C451 1.390 . S
C449 H453 0.950 . S
H450 C446 0.950 . S
C451 C449 1.390 . S
C451 C452 1.387 . S
C451 H454 0.950 . S
C452 C451 1.387 . S
C452 C455 1.387 1_455 S
H453 C449 0.950 . S
H454 C451 0.950 . S
C455 C446 1.390 . S
C455 H448 0.950 . S
C455 C452 1.387 1_655 S
C277 C2 1.161 . S
C282 C265 1.126 . S
C287 C21 1.116 . S
C292 C193 1.078 . S
C297 C42 1.158 . S
C302 C229 1.125 . S
C307 C1 1.111 . S
C312 C241 1.097 . S
C322 C169 1.140 . S
C317 C22 1.154 . S
C332 C205 1.097 . S
C327 C41 1.111 . S
C337 C38 2.019 . S
C342 C121 1.919 . S
C347 C59 2.050 . S
C352 C133 2.003 . S
C357 C18 2.016 . S
C362 C61 1.955 . S
C372 C97 2.002 . S
C367 C39 2.049 . S
C382 C157 1.917 . S
C377 C58 2.019 . S
C387 C19 2.053 . S
C392 C85 1.962 . S
C402 C163 1.571 . S
C397 C9 1.506 . S
C407 C29 1.507 . S
C412 C91 1.575 . S
C417 C49 1.507 . S
C422 C127 1.572 . S
C432 C235 1.389 . S
C427 C28 1.364 . S
C442 C271 1.388 . S
C437 C48 1.366 . S
C447 C8 1.364 . S
C452 C199 1.383 . S
