# Generated by pormake.
# Topology pts, (4,4)-cn, num edge types: 1
# Building blocks:
#     Node 0, Type 0, BuildingBlock: MIFKUJ_clean_linker_1, # of connection points: 4
#     Node 1, Type 0, BuildingBlock: MIFKUJ_clean_linker_1, # of connection points: 4
#     Node 2, Type 1, BuildingBlock: UXUYUI_clean_sbu_0, # of connection points: 4
#     Node 3, Type 1, BuildingBlock: UXUYUI_clean_sbu_0, # of connection points: 4
#     Edge 4, Type (0, 1), BuildingBlock: XUDNAN_clean_linker_2, # of connection points: 2
#     Edge 5, Type (0, 1), BuildingBlock: XUDNAN_clean_linker_2, # of connection points: 2
#     Edge 6, Type (0, 1), BuildingBlock: XUDNAN_clean_linker_2, # of connection points: 2
#     Edge 7, Type (0, 1), BuildingBlock: XUDNAN_clean_linker_2, # of connection points: 2
#     Edge 8, Type (0, 1), BuildingBlock: XUDNAN_clean_linker_2, # of connection points: 2
#     Edge 9, Type (0, 1), BuildingBlock: XUDNAN_clean_linker_2, # of connection points: 2
#     Edge 10, Type (0, 1), BuildingBlock: XUDNAN_clean_linker_2, # of connection points: 2
#     Edge 11, Type (0, 1), BuildingBlock: XUDNAN_clean_linker_2, # of connection points: 2
# Relax obj value: 0.001
# Max RMSD: 0.016
# Mean RMSD: 0.014
data_MOF--net-pts--node1-UXUYUI_clean_sbu_0--node2-MIFKUJ_clean_linker_1--edge1-XUDNAN_clean_linker_2
_symmetry_space_group_name_H-M    P1
_symmetry_Int_Tables_number       1
_symmetry_cell_setting            triclinic
loop_
_symmetry_equiv_pos_as_xyz
'x, y, z'
_cell_length_a     35.77119
_cell_length_b     35.793282
_cell_length_c     48.967497
_cell_angle_alpha  90.042952
_cell_angle_beta   90.006631
_cell_angle_gamma 89.909299
loop_
_atom_site_label
_atom_site_type_symbol
_atom_site_fract_x
_atom_site_fract_y
_atom_site_fract_z
_atom_type_partial_charge
H0 H 0.57809 0.96073 0.05747 0.0
H1 H 0.63867 0.96324 0.08092 0.0
H2 H 0.65655 0.07433 0.04895 0.0
H3 H 0.59653 0.07134 0.02544 0.0
H4 H 0.51435 0.01016 0.06037 0.0
H5 H 0.60344 0.96587 0.99024 0.0
H6 H 0.66215 0.97278 0.96469 0.0
H7 H 0.62748 0.08276 0.93869 0.0
H8 H 0.56884 0.0756 0.96396 0.0
H9 H 0.45741 0.07519 0.96345 0.0
H10 H 0.39847 0.08226 0.9385 0.0
H11 H 0.36261 0.9742 0.9674 0.0
H12 H 0.42152 0.96746 0.99284 0.0
H13 H 0.51245 0.02138 0.95935 0.0
H14 H 0.42756 0.07042 0.02232 0.0
H15 H 0.37153 0.07797 0.04972 0.0
H16 H 0.39904 0.97731 0.09426 0.0
H17 H 0.45391 0.96839 0.06511 0.0
C18 C 0.58319 0.01557 0.03936 0.0
C19 C 0.59509 0.98562 0.05568 0.0
C20 C 0.62962 0.98717 0.06912 0.0
C21 C 0.65268 0.01881 0.06653 0.0
C22 C 0.63995 0.04919 0.05086 0.0
C23 C 0.60558 0.04759 0.03747 0.0
C24 C 0.54767 0.01349 0.02387 0.0
C25 C 0.51378 0.01152 0.03824 0.0
C26 C 0.54709 0.01703 0.99512 0.0
C27 C 0.58193 0.02027 0.97899 0.0
C28 C 0.60848 0.99134 0.97889 0.0
C29 C 0.64182 0.99524 0.96425 0.0
C30 C 0.64926 0.02834 0.94984 0.0
C31 C 0.62248 0.05709 0.94981 0.0
C32 C 0.58897 0.05296 0.96408 0.0
C33 C 0.44368 0.02089 0.98005 0.0
C34 C 0.43693 0.05296 0.96433 0.0
C35 C 0.40328 0.05705 0.95023 0.0
C36 C 0.37614 0.02879 0.95115 0.0
C37 C 0.38325 0.99627 0.96634 0.0
C38 C 0.4167 0.99248 0.9809 0.0
C39 C 0.47891 0.01763 0.99577 0.0
C40 C 0.51278 0.01878 0.98143 0.0
C41 C 0.47928 0.01449 0.02461 0.0
C42 C 0.44462 0.01834 0.04114 0.0
C43 C 0.42107 0.04933 0.03743 0.0
C44 C 0.38929 0.05403 0.05357 0.0
C45 C 0.38077 0.02843 0.07445 0.0
C46 C 0.40439 0.99734 0.07817 0.0
C47 C 0.43599 0.99236 0.06167 0.0
H48 H 0.05978 0.4431 0.45854 0.0
H49 H 0.0568 0.38144 0.4369 0.0
H50 H 0.95598 0.35718 0.48214 0.0
H51 H 0.95921 0.41861 0.50365 0.0
H52 H 0.01318 0.50226 0.45918 0.0
H53 H 0.07197 0.42694 0.52655 0.0
H54 H 0.07704 0.36764 0.5507 0.0
H55 H 0.96822 0.38624 0.58677 0.0
H56 H 0.96407 0.44648 0.56308 0.0
H57 H 0.96599 0.56941 0.56088 0.0
H58 H 0.96757 0.6301 0.58395 0.0
H59 H 0.06784 0.65868 0.53953 0.0
H60 H 0.06645 0.59785 0.51682 0.0
H61 H 0.01391 0.51188 0.5603 0.0
H62 H 0.96797 0.60089 0.49156 0.0
H63 H 0.9696 0.65249 0.45857 0.0
H64 H 0.06767 0.60404 0.42114 0.0
H65 H 0.06622 0.55303 0.45413 0.0
C66 C 0.01002 0.43523 0.48299 0.0
C67 C 0.03694 0.42453 0.46363 0.0
C68 C 0.03514 0.38934 0.45125 0.0
C69 C 1.00633 0.36428 0.45799 0.0
C70 C 0.97896 0.37549 0.47692 0.0
C71 C 0.98073 0.41064 0.48921 0.0
C72 C 0.01263 0.47192 0.497 0.0
C73 C 0.01372 0.50452 0.48128 0.0
C74 C 0.01336 0.47466 0.52579 0.0
C75 C 0.01753 0.44085 0.54289 0.0
C76 C 0.04943 0.41842 0.53994 0.0
C77 C 0.05209 0.38435 0.55358 0.0
C78 C 0.02273 0.37178 0.57032 0.0
C79 C 0.99142 0.39512 0.57416 0.0
C80 C 0.98894 0.42951 0.56063 0.0
C81 C 0.01569 0.57934 0.53674 0.0
C82 C 0.98843 0.58868 0.55623 0.0
C83 C 0.9894 0.6233 0.56945 0.0
C84 C 0.01765 0.64924 0.56337 0.0
C85 C 0.04535 0.63951 0.54426 0.0
C86 C 0.04454 0.6048 0.53124 0.0
C87 C 0.01406 0.54281 0.52243 0.0
C88 C 0.01314 0.50998 0.5382 0.0
C89 C 0.01487 0.53998 0.49354 0.0
C90 C 0.01697 0.57304 0.4753 0.0
C91 C 0.99018 0.60177 0.47654 0.0
C92 C 0.99112 0.6312 0.4577 0.0
C93 C 0.01854 0.63203 0.43713 0.0
C94 C 0.04586 0.60381 0.43648 0.0
C95 C 0.04508 0.57469 0.45535 0.0
Li96 Li 0.01008 0.04029 0.27984 0.0
Li97 Li 0.01042 0.96984 0.27438 0.0
Li98 Li 0.04559 0.01288 0.24104 0.0
Li99 Li 0.97917 0.01033 0.24326 0.0
C100 C 0.07987 1.00306 0.30081 0.0
N101 N 0.13366 0.99868 0.34124 0.0
C102 C 0.0722 0.9845 0.32528 0.0
C103 C 0.11512 0.01902 0.2968 0.0
C104 C 0.09969 0.98271 0.3455 0.0
C105 C 0.14187 0.01661 0.31751 0.0
C106 C 0.93068 0.00702 0.28293 0.0
C107 C 0.86953 0.97881 0.28367 0.0
N108 N 0.85375 0.01324 0.28121 0.0
C109 C 0.91389 0.04214 0.28058 0.0
C110 C 0.90839 0.97507 0.28461 0.0
C111 C 0.87494 0.0447 0.27967 0.0
C112 C 0.99441 0.1134 0.29964 0.0
N113 N 0.00888 0.0795 0.30651 0.0
C114 C 0.02093 0.10075 0.35195 0.0
C115 C 0.02168 0.0727 0.33215 0.0
C116 C 1.00639 0.13613 0.34544 0.0
C117 C 0.99306 0.1423 0.31883 0.0
H118 H 0.98361 0.11796 0.2793 0.0
H119 H 0.03214 0.04542 0.3374 0.0
C120 C 0.03693 0.89718 0.28388 0.0
N121 N 0.01233 0.9234 0.29282 0.0
C122 C 0.03897 0.86246 0.29676 0.0
C123 C 0.99055 0.88255 0.32796 0.0
C124 C 0.98955 0.91695 0.31452 0.0
C125 C 0.01535 0.8546 0.319 0.0
H126 H 0.05491 0.90331 0.2667 0.0
H127 H 0.97056 0.93855 0.32137 0.0
C128 C 0.03099 0.08831 0.23835 0.0
N129 N 0.07358 0.15238 0.23323 0.0
C130 C 0.02146 0.11551 0.21905 0.0
C131 C 0.06222 0.09383 0.25501 0.0
C132 C 0.04333 0.14766 0.21677 0.0
C133 C 0.08337 0.12635 0.25215 0.0
C134 C 0.9994 0.95332 0.21102 0.0
C135 C 1.00139 0.97278 0.18634 0.0
C136 C 0.9822 0.91833 0.21192 0.0
C137 C 0.98548 0.95709 0.16294 0.0
C138 C 0.9667 0.90356 0.18805 0.0
N139 N 0.9686 0.92311 0.16428 0.0
C140 C 0.12004 0.99597 0.22472 0.0
C141 C 0.08852 0.0405 0.19724 0.0
C142 C 0.15263 1.00011 0.20921 0.0
N143 N 0.08912 0.0166 0.2188 0.0
C144 C 0.12051 0.04589 0.18149 0.0
C145 C 0.15323 0.02591 0.18762 0.0
H146 H 0.11955 0.97676 0.24175 0.0
H147 H 0.06327 0.05569 0.19239 0.0
C148 C 0.93021 0.04506 0.20628 0.0
N149 N 0.93569 0.01266 0.22014 0.0
C150 C 0.90112 0.04822 0.18748 0.0
C151 C 0.88269 0.985 0.19821 0.0
C152 C 0.91231 0.98304 0.21679 0.0
C153 C 0.87725 0.01773 0.1829 0.0
H154 H 0.94881 0.06831 0.20955 0.0
H155 H 0.9171 0.95757 0.2281 0.0
O156 O 0.05347 1.00456 0.28056 0.0
O157 O 0.96877 1.00395 0.28335 0.0
O158 O 0.01001 0.05641 0.24049 0.0
O159 O 0.01427 0.96843 0.23421 0.0
H160 H 0.0451 0.97212 0.32883 0.0
H161 H 0.12186 0.03308 0.27789 0.0
H162 H 0.09399 0.96868 0.36461 0.0
H163 H 0.16919 0.02893 0.3147 0.0
H164 H 0.85192 0.95431 0.28476 0.0
H165 H 0.93079 0.0671 0.27912 0.0
H166 H 0.92095 0.94764 0.28617 0.0
H167 H 0.86155 0.07168 0.27767 0.0
H168 H 0.03178 0.09475 0.37212 0.0
H169 H 0.981 0.1689 0.31302 0.0
H170 H 0.05901 0.84207 0.28944 0.0
H171 H 0.97162 0.87768 0.34483 0.0
H172 H 0.9976 0.11178 0.20579 0.0
H173 H 0.06988 0.07348 0.27019 0.0
H174 H 0.03629 0.16884 0.20188 0.0
H175 H 0.10754 0.13092 0.26499 0.0
H176 H 0.0146 0.99993 0.18537 0.0
H177 H 0.98055 0.90293 0.23091 0.0
H178 H 0.98649 0.97197 0.14373 0.0
H179 H 0.95308 0.87661 0.18845 0.0
H180 H 0.17736 0.9842 0.21452 0.0
H181 H 0.11972 0.06555 0.16469 0.0
H182 H 0.8975 0.07422 0.17648 0.0
H183 H 0.86505 0.96079 0.19522 0.0
Li184 Li 0.97978 0.00959 0.7793 0.0
Li185 Li 0.04675 0.00788 0.77818 0.0
Li186 Li 0.0128 0.04173 0.74257 0.0
Li187 Li 0.01466 0.97129 0.74327 0.0
C188 C 0.99869 0.07834 0.79852 0.0
N189 N 0.96497 0.12979 0.8327 0.0
C190 C 0.0115 0.08292 0.82529 0.0
C191 C 0.969 0.1002 0.78907 0.0
C192 C 0.99401 0.10901 0.84227 0.0
C193 C 0.95225 0.12598 0.80668 0.0
C194 C 0.02752 0.93878 0.80065 0.0
C195 C 0.05977 0.8804 0.80791 0.0
N196 N 0.05792 0.88604 0.83536 0.0
C197 C 0.02573 0.94389 0.82892 0.0
C198 C 0.04453 0.90672 0.79002 0.0
C199 C 0.04137 0.91696 0.84613 0.0
C200 C 0.90198 0.0077 0.79258 0.0
N201 N 0.93721 0.01141 0.80269 0.0
C202 C 0.91334 0.02291 0.84747 0.0
C203 C 0.94331 0.01788 0.82968 0.0
C204 C 0.87669 0.02038 0.83751 0.0
C205 C 0.87105 0.01189 0.80982 0.0
H206 H 0.89789 1.00208 0.7711 0.0
H207 H 0.97152 0.01995 0.83732 0.0
C208 C 0.10272 0.04717 0.80511 0.0
N209 N 0.09094 0.01167 0.80045 0.0
C210 C 0.1334 0.05399 0.82195 0.0
C211 C 0.14013 0.98748 0.82848 0.0
C212 C 0.10974 0.98195 0.81102 0.0
C213 C 0.15208 0.02398 0.83454 0.0
H214 H 0.08808 0.07033 0.79577 0.0
H215 H 0.10128 0.95389 0.80613 0.0
C216 C 0.94735 0.01664 0.71869 0.0
N217 N 0.90163 0.03989 0.67649 0.0
C218 C 0.94889 0.9987 0.69335 0.0
C219 C 0.92216 0.04602 0.72269 0.0
C220 C 0.92566 0.01098 0.67223 0.0
C221 C 0.89939 0.05747 0.70107 0.0
C222 C 0.09372 0.00957 0.73777 0.0
C223 C 0.1111 0.04431 0.73522 0.0
C224 C 0.11538 0.97742 0.74139 0.0
C225 C 0.15006 0.04636 0.73651 0.0
C226 C 0.15426 0.98065 0.74257 0.0
N227 N 0.17064 0.01476 0.74015 0.0
C228 C 0.01947 0.11847 0.72728 0.0
C229 C 0.01023 0.07566 0.69102 0.0
C230 C 0.02171 0.14821 0.70883 0.0
N231 N 0.01359 0.0831 0.7181 0.0
C232 C 0.0117 0.10449 0.67194 0.0
C233 C 0.01794 0.14141 0.68065 0.0
H234 H 0.02328 0.12353 0.74886 0.0
H235 H 1.00697 0.04718 0.68416 0.0
C236 C 0.99018 0.90091 0.72169 0.0
N237 N 0.01539 0.92917 0.71973 0.0
C238 C 0.99029 0.87196 0.70242 0.0
C239 C 0.0426 0.90166 0.68 0.0
C240 C 0.04141 0.92991 0.69955 0.0
C241 C 0.01647 0.87244 0.68097 0.0
H242 H 0.96956 0.90128 0.73784 0.0
H243 H 0.06085 0.95292 0.6983 0.0
O244 O 0.01516 0.05259 0.78169 0.0
O245 O 0.01201 0.96455 0.78346 0.0
O246 O 0.97004 1.00512 0.73956 0.0
O247 O 0.05561 0.00715 0.73747 0.0
H248 H 0.0343 0.06609 0.83302 0.0
H249 H 0.95907 0.09736 0.76834 0.0
H250 H 1.00345 0.11264 0.86309 0.0
H251 H 0.92916 0.14298 0.79964 0.0
H252 H 0.07314 0.85553 0.79998 0.0
H253 H 0.01275 0.96852 0.83749 0.0
H254 H 0.04617 0.90231 0.7682 0.0
H255 H 0.04038 0.92065 0.86804 0.0
H256 H 0.91874 0.02893 0.86879 0.0
H257 H 0.8431 0.00973 0.80145 0.0
H258 H 0.14222 0.08258 0.82506 0.0
H259 H 0.15345 0.96332 0.83755 0.0
H260 H 0.96809 0.9758 0.68991 0.0
H261 H 0.92007 0.05974 0.74229 0.0
H262 H 0.92676 0.99754 0.65245 0.0
H263 H 0.87988 0.08027 0.70386 0.0
H264 H 0.09464 0.06946 0.73258 0.0
H265 H 0.10225 0.95037 0.74366 0.0
H266 H 0.16393 0.07308 0.73472 0.0
H267 H 0.1714 0.95606 0.74555 0.0
H268 H 0.02736 0.17598 0.71653 0.0
H269 H 0.00815 0.09775 0.65054 0.0
H270 H 0.96945 0.85015 0.70381 0.0
H271 H 0.06368 0.90288 0.66416 0.0
H272 H 0.33239 0.97634 0.09662 0.0
H273 H 0.35511 0.09554 0.09402 0.0
H274 H 0.29981 0.10729 0.12258 0.0
H275 H 0.23311 0.98199 0.09456 0.0
H276 H 0.22559 0.94442 0.11842 0.0
H277 H 0.26709 0.94497 0.09761 0.0
H278 H 0.30826 0.941 0.14104 0.0
H279 H 0.26687 0.94035 0.162 0.0
H280 H 0.30234 0.9752 0.16775 0.0
H281 H 0.24116 0.10681 0.14988 0.0
H282 H 0.18393 0.0936 0.17634 0.0
H283 H 0.20065 0.97473 0.16385 0.0
C284 C 0.32607 1.00489 0.1023 0.0
C285 C 0.34802 0.03502 0.09265 0.0
C286 C 0.33835 0.07198 0.10046 0.0
C287 C 0.30712 0.07898 0.11692 0.0
C288 C 0.28599 0.04875 0.12579 0.0
C289 C 0.29516 0.01241 0.11901 0.0
C290 C 0.26771 0.98503 0.13149 0.0
C291 C 0.24716 0.9628 0.10919 0.0
C292 C 0.28748 0.95885 0.15178 0.0
C293 C 0.24152 0.01176 0.14606 0.0
C294 C 0.25259 0.04839 0.14239 0.0
C295 C 0.23232 0.07825 0.15307 0.0
C296 C 0.19981 0.0705 0.16794 0.0
C297 C 0.18801 0.03321 0.17213 0.0
C298 C 0.20933 1.00347 0.16118 0.0
H299 H 0.99898 0.34953 0.62155 0.0
H300 H 0.04957 0.30776 0.54683 0.0
H301 H 0.05447 0.24517 0.56724 0.0
H302 H 0.05272 0.29478 0.6684 0.0
H303 H 0.01431 0.28597 0.69132 0.0
H304 H 0.01495 0.32799 0.67111 0.0
H305 H 0.95007 0.31138 0.65099 0.0
H306 H 0.94912 0.26942 0.67126 0.0
H307 H 0.94338 0.26667 0.63475 0.0
H308 H 0.05591 0.18783 0.59581 0.0
H309 H 0.05066 0.13794 0.63003 0.0
H310 H 0.99475 0.21499 0.68529 0.0
C311 C 0.0108 0.32718 0.60938 0.0
C312 C 0.02442 0.33385 0.58269 0.0
C313 C 0.03985 0.30373 0.56756 0.0
C314 C 0.04251 0.26794 0.57889 0.0
C315 C 0.02927 0.26248 0.60529 0.0
C316 C 0.0134 0.29109 0.6203 0.0
C317 C 1.0009 0.27736 0.64813 0.0
C318 C 0.02198 0.29774 0.67109 0.0
C319 C 0.95834 0.28145 0.65147 0.0
C320 C 0.01242 0.23664 0.64639 0.0
C321 C 0.02887 0.2288 0.62153 0.0
C322 C 0.04261 0.19345 0.61524 0.0
C323 C 0.03919 0.16517 0.6348 0.0
C324 C 0.02176 0.17216 0.66034 0.0
C325 C 0.00837 0.20859 0.66611 0.0
H326 H 0.67316 0.99415 0.11782 0.0
H327 H 0.71732 0.04619 0.04454 0.0
H328 H 0.77927 0.05078 0.06625 0.0
H329 H 0.72476 0.04818 0.16587 0.0
H330 H 0.73301 0.01 0.18909 0.0
H331 H 0.69205 0.00999 0.16771 0.0
H332 H 0.71085 0.94531 0.14826 0.0
H333 H 0.75185 0.94507 0.16964 0.0
H334 H 0.75646 0.9392 0.13323 0.0
H335 H 0.83579 0.05132 0.0959 0.0
H336 H 0.88416 0.04663 0.13161 0.0
H337 H 0.80426 0.99333 0.18569 0.0
C338 C 0.69596 1.0061 0.10622 0.0
C339 C 0.69024 0.02009 0.07952 0.0
C340 C 0.72078 0.03591 0.06518 0.0
C341 C 0.75617 0.03841 0.07726 0.0
C342 C 0.76073 0.02475 0.10365 0.0
C343 C 0.73159 0.00873 0.11796 0.0
C344 C 0.7441 0.99658 0.1462 0.0
C345 C 0.72218 0.01744 0.16853 0.0
C346 C 0.74061 0.95401 0.14952 0.0
C347 C 0.78471 0.00862 0.14556 0.0
C348 C 0.79364 0.02476 0.12079 0.0
C349 C 0.82918 0.0387 0.11538 0.0
C350 C 0.85638 0.03613 0.13586 0.0
C351 C 0.84795 0.01979 0.16148 0.0
C352 C 0.81162 1.00567 0.16624 0.0
H353 H 1.00615 0.66631 0.61753 0.0
H354 H 0.02955 0.71658 0.53874 0.0
H355 H 0.03034 0.77899 0.5602 0.0
H356 H 0.94514 0.73966 0.64268 0.0
H357 H 0.96227 0.73677 0.67723 0.0
H358 H 0.96285 0.69596 0.65566 0.0
H359 H 0.03395 0.6883 0.6641 0.0
H360 H 0.03359 0.72903 0.68571 0.0
H361 H 0.06487 0.72679 0.6569 0.0
H362 H 0.02863 0.83557 0.58986 0.0
H363 H 0.02643 0.88314 0.62618 0.0
H364 H 1.00534 0.79644 0.68623 0.0
C365 C 0.01112 0.69051 0.60478 0.0
C366 C 0.01785 0.68663 0.57646 0.0
C367 C 0.02476 0.71889 0.56051 0.0
C368 C 0.02502 0.75445 0.57248 0.0
C369 C 0.01839 0.75728 0.60043 0.0
C370 C 0.01166 0.72624 0.61643 0.0
C371 C 1.00623 0.73708 0.64612 0.0
C372 C 0.96677 0.72675 0.65599 0.0
C373 C 0.03647 0.71924 0.66427 0.0
C374 C 0.01106 0.77906 0.64428 0.0
C375 C 0.01788 0.79006 0.6177 0.0
C376 C 0.02349 0.82732 0.61078 0.0
C377 C 0.02243 0.8541 0.63161 0.0
C378 C 0.01608 0.84356 0.65914 0.0
C379 C 0.00999 0.80547 0.6654 0.0
H380 H 0.34375 0.98179 0.91386 0.0
H381 H 0.32817 0.08745 0.95572 0.0
H382 H 0.2686 0.09714 0.93104 0.0
H383 H 0.30919 0.01298 0.84898 0.0
H384 H 0.28687 0.96931 0.84066 0.0
H385 H 0.3273 0.96979 0.86257 0.0
H386 H 0.28997 0.93478 0.89996 0.0
H387 H 0.24941 0.93422 0.87816 0.0
H388 H 0.24634 0.95403 0.91194 0.0
H389 H 0.21066 0.09478 0.90262 0.0
H390 H 0.15936 0.08259 0.87047 0.0
H391 H 0.21506 0.98071 0.84404 0.0
C392 C 0.32752 1.00674 0.91794 0.0
C393 C 0.34021 0.03384 0.93672 0.0
C394 C 0.31876 0.06648 0.94132 0.0
C395 C 0.28493 0.07213 0.9275 0.0
C396 C 0.27323 0.04502 0.90896 0.0
C397 C 0.29395 0.0131 0.90397 0.0
C398 C 0.27573 0.98915 0.8822 0.0
C399 C 0.3013 0.98509 0.85712 0.0
C400 C 0.26471 0.95077 0.89376 0.0
C401 C 0.24154 0.0126 0.87577 0.0
C402 C 0.24052 0.04449 0.89163 0.0
C403 C 0.21135 0.07012 0.88983 0.0
C404 C 0.18246 0.06307 0.87123 0.0
C405 C 0.18311 0.03089 0.85426 0.0
C406 C 0.21326 1.00541 0.85673 0.0
H407 H 0.01987 0.34425 0.40456 0.0
H408 H 0.98997 0.29846 0.48368 0.0
H409 H 0.98632 0.23549 0.46339 0.0
H410 H 0.96058 0.28539 0.36434 0.0
H411 H 0.99364 0.28017 0.33682 0.0
H412 H 0.99402 0.32183 0.35747 0.0
H413 H 0.06391 0.31088 0.36887 0.0
H414 H 0.0638 0.26929 0.34815 0.0
H415 H 0.07832 0.26686 0.38335 0.0
H416 H 0.98526 0.17778 0.43466 0.0
H417 H 0.98768 0.12866 0.39941 0.0
H418 H 0.02038 0.21135 0.33913 0.0
C419 C 0.01288 0.32094 0.41767 0.0
C420 C 1.00497 0.32635 0.4457 0.0
C421 C 0.99552 0.29512 0.46207 0.0
C422 C 0.99359 0.2592 0.45078 0.0
C423 C 1.00129 0.25491 0.42308 0.0
C424 C 0.01086 0.28485 0.40673 0.0
C425 C 0.01777 0.2725 0.37755 0.0
C426 C 0.98983 0.29108 0.35789 0.0
C427 C 0.05837 0.28034 0.36899 0.0
C428 C 0.01052 0.23095 0.38008 0.0
C429 C 1.00105 0.22144 0.40652 0.0
C430 C 0.99288 0.18481 0.41391 0.0
C431 C 0.99457 0.15706 0.39375 0.0
C432 C 1.00446 0.16602 0.3665 0.0
C433 C 0.01242 0.20358 0.35968 0.0
H434 H 0.68244 0.98085 0.91309 0.0
H435 H 0.69675 0.08742 0.95395 0.0
H436 H 0.75653 0.09682 0.92961 0.0
H437 H 0.77965 0.95334 0.91302 0.0
H438 H 0.7777 0.93248 0.87954 0.0
H439 H 0.73646 0.93374 0.90063 0.0
H440 H 0.7003 0.96753 0.86199 0.0
H441 H 0.74145 0.96648 0.84081 0.0
H442 H 0.71867 0.01034 0.84804 0.0
H443 H 0.81492 0.09415 0.90175 0.0
H444 H 0.86745 0.08085 0.87043 0.0
H445 H 0.81432 0.97724 0.84599 0.0
C446 C 0.69837 1.006 0.91698 0.0
C447 C 0.68519 0.03343 0.93538 0.0
C448 C 0.70639 0.06624 0.93978 0.0
C449 C 0.74036 0.07174 0.92614 0.0
C450 C 0.75251 0.04429 0.90801 0.0
C451 C 0.73213 0.01216 0.90325 0.0
C452 C 0.75113 0.98753 0.88221 0.0
C453 C 0.76188 0.94953 0.8946 0.0
C454 C 0.72641 0.9827 0.85675 0.0
C455 C 0.78543 0.01079 0.87597 0.0
C456 C 0.78576 0.04328 0.89126 0.0
C457 C 0.81494 0.06889 0.8896 0.0
C458 C 0.84464 0.06107 0.87186 0.0
C459 C 0.84476 0.02812 0.85585 0.0
C460 C 0.81465 1.0028 0.85784 0.0
H461 H 0.00949 0.70815 0.44285 0.0
H462 H 0.02579 0.62091 0.38238 0.0
H463 H 0.02609 0.66826 0.34583 0.0
H464 H 0.94822 0.76646 0.40184 0.0
H465 H 0.96792 0.80968 0.41406 0.0
H466 H 0.96819 0.7689 0.4356 0.0
H467 H 0.03999 0.77453 0.44109 0.0
H468 H 0.03995 0.81529 0.41955 0.0
H469 H 0.06915 0.77587 0.41108 0.0
H470 H 0.02488 0.72438 0.31591 0.0
H471 H 0.0229 0.7864 0.29421 0.0
H472 H 0.00905 0.83807 0.37389 0.0
C473 C 0.0128 0.69908 0.42188 0.0
C474 C 0.01778 0.66089 0.41542 0.0
C475 C 0.02242 0.65007 0.38779 0.0
C476 C 0.02243 0.67671 0.36688 0.0
C477 C 0.01782 0.71411 0.37391 0.0
C478 C 0.01313 0.72541 0.4007 0.0
C479 C 0.00952 0.76755 0.4026 0.0
C480 C 0.97118 0.7788 0.41421 0.0
C481 C 0.04157 0.78429 0.41958 0.0
C482 C 0.01294 0.77806 0.3727 0.0
C483 C 0.01759 0.74675 0.35656 0.0
C484 C 0.02142 0.74917 0.32833 0.0
C485 C 0.02055 0.78459 0.31621 0.0
C486 C 0.01609 0.81725 0.33229 0.0
C487 C 0.01215 0.81372 0.36095 0.0
loop_
_geom_bond_atom_site_label_1
_geom_bond_atom_site_label_2
_geom_bond_distance
_geom_bond_site_symmetry_2
_ccdc_geom_bond_type
H0 C19 0.949 . S
H1 C20 0.950 . S
H2 C22 0.950 . S
H3 C23 0.950 . S
H4 C25 0.945 1_565 S
H5 C28 0.950 . S
H6 C29 0.950 . S
H7 C31 0.951 . S
H8 C32 0.949 . S
H9 C34 0.949 . S
H10 C35 0.950 . S
H11 C37 0.950 . S
H12 C38 0.950 . S
H13 C40 0.950 . S
H14 C43 0.950 . S
H15 C44 0.950 . S
H16 C46 0.951 . S
H17 C47 0.949 . S
C18 C19 1.376 1_545 S
C18 C23 1.386 . S
C18 C24 1.483 . S
C19 H0 0.949 . S
C19 C18 1.376 1_565 S
C19 C20 1.397 . S
C20 H1 0.950 . S
C20 C19 1.397 . S
C20 C21 1.391 1_565 S
C21 C20 1.391 1_545 S
C21 C22 1.405 . S
C22 H2 0.950 . S
C22 C21 1.405 . S
C22 C23 1.367 . S
C23 H3 0.950 . S
C23 C18 1.386 . S
C23 C22 1.367 . S
C24 C18 1.483 . S
C24 C25 1.385 . S
C24 C26 1.403 1_554 S
C25 H4 0.945 1_545 S
C25 C24 1.385 . S
C25 C41 1.414 . S
C26 C24 1.403 1_556 S
C26 C27 1.489 . S
C26 C40 1.411 . S
C27 C26 1.489 . S
C27 C28 1.383 1_545 S
C27 C32 1.382 . S
C28 H5 0.950 . S
C28 C27 1.383 1_565 S
C28 C29 1.395 . S
C29 H6 0.950 . S
C29 C28 1.395 . S
C29 C30 1.288 1_565 S
C30 C29 1.288 1_545 S
C30 C31 1.392 . S
C31 H7 0.951 . S
C31 C30 1.392 . S
C31 C32 1.392 . S
C32 H8 0.949 . S
C32 C27 1.382 . S
C32 C31 1.392 . S
C33 C34 1.376 . S
C33 C38 1.386 1_545 S
C33 C39 1.483 . S
C34 H9 0.949 . S
C34 C33 1.376 . S
C34 C35 1.397 . S
C35 H10 0.950 . S
C35 C34 1.397 . S
C35 C36 1.391 . S
C36 C35 1.391 . S
C36 C37 1.405 1_545 S
C37 H11 0.950 . S
C37 C36 1.405 1_565 S
C37 C38 1.367 . S
C38 H12 0.950 . S
C38 C33 1.386 1_565 S
C38 C37 1.367 . S
C39 C33 1.483 . S
C39 C40 1.382 . S
C39 C41 1.403 1_556 S
C40 H13 0.950 . S
C40 C26 1.411 . S
C40 C39 1.382 . S
C41 C25 1.414 . S
C41 C39 1.403 1_554 S
C41 C42 1.489 . S
C42 C41 1.489 . S
C42 C43 1.383 . S
C42 C47 1.382 1_545 S
C43 H14 0.950 . S
C43 C42 1.383 . S
C43 C44 1.395 . S
C44 H15 0.950 . S
C44 C43 1.395 . S
C44 C45 1.288 . S
C45 C44 1.288 . S
C45 C46 1.392 1_545 S
C46 H16 0.951 . S
C46 C45 1.392 1_565 S
C46 C47 1.392 . S
C47 H17 0.949 . S
C47 C42 1.382 1_565 S
C47 C46 1.392 . S
H48 C67 0.949 . S
H49 C68 0.950 . S
H50 C70 0.950 . S
H51 C71 0.950 . S
H52 C73 0.950 . S
H53 C76 0.950 . S
H54 C77 0.950 . S
H55 C79 0.951 . S
H56 C80 0.949 . S
H57 C82 0.949 . S
H58 C83 0.950 . S
H59 C85 0.950 . S
H60 C86 0.950 . S
H61 C88 0.946 1_655 S
H62 C91 0.950 . S
H63 C92 0.950 . S
H64 C94 0.951 . S
H65 C95 0.949 . S
C66 C67 1.376 . S
C66 C71 1.386 1_455 S
C66 C72 1.483 . S
C67 H48 0.949 . S
C67 C66 1.376 . S
C67 C68 1.397 . S
C68 H49 0.950 . S
C68 C67 1.397 . S
C68 C69 1.391 . S
C69 C68 1.391 . S
C69 C70 1.405 1_455 S
C70 H50 0.950 . S
C70 C69 1.405 1_655 S
C70 C71 1.367 . S
C71 H51 0.950 . S
C71 C66 1.386 1_655 S
C71 C70 1.367 . S
C72 C66 1.483 . S
C72 C73 1.382 . S
C72 C74 1.403 . S
C73 H52 0.950 . S
C73 C72 1.382 . S
C73 C89 1.411 . S
C74 C72 1.403 . S
C74 C75 1.489 . S
C74 C88 1.414 . S
C75 C74 1.489 . S
C75 C76 1.383 . S
C75 C80 1.382 1_455 S
C76 H53 0.950 . S
C76 C75 1.383 . S
C76 C77 1.395 . S
C77 H54 0.950 . S
C77 C76 1.395 . S
C77 C78 1.288 . S
C78 C77 1.288 . S
C78 C79 1.392 1_455 S
C79 H55 0.951 . S
C79 C78 1.392 1_655 S
C79 C80 1.392 . S
C80 H56 0.949 . S
C80 C75 1.382 1_655 S
C80 C79 1.392 . S
C81 C82 1.376 1_455 S
C81 C86 1.386 . S
C81 C87 1.483 . S
C82 H57 0.949 . S
C82 C81 1.376 1_655 S
C82 C83 1.397 . S
C83 H58 0.950 . S
C83 C82 1.397 . S
C83 C84 1.391 1_655 S
C84 C83 1.391 1_455 S
C84 C85 1.405 . S
C85 H59 0.950 . S
C85 C84 1.405 . S
C85 C86 1.367 . S
C86 H60 0.950 . S
C86 C81 1.386 . S
C86 C85 1.367 . S
C87 C81 1.483 . S
C87 C88 1.384 . S
C87 C89 1.403 . S
C88 H61 0.946 1_455 S
C88 C74 1.414 . S
C88 C87 1.384 . S
C89 C73 1.411 . S
C89 C87 1.403 . S
C89 C90 1.489 . S
C90 C89 1.489 . S
C90 C91 1.383 1_455 S
C90 C95 1.382 . S
C91 H62 0.950 . S
C91 C90 1.383 1_655 S
C91 C92 1.395 . S
C92 H63 0.950 . S
C92 C91 1.395 . S
C92 C93 1.288 1_655 S
C93 C92 1.288 1_455 S
C93 C94 1.392 . S
C94 H64 0.951 . S
C94 C93 1.392 . S
C94 C95 1.392 . S
C95 H65 0.949 . S
C95 C90 1.382 . S
C95 C94 1.392 . S
Li96 N113 1.990 . S
Li96 O156 1.956 . S
Li96 O157 1.970 1_455 S
Li96 O158 1.961 . S
Li97 N121 1.990 . S
Li97 O156 1.970 1_565 S
Li97 O157 1.956 1_465 S
Li97 O159 1.961 . S
Li98 N143 1.990 . S
Li98 O156 1.961 . S
Li98 O158 1.956 . S
Li98 O159 1.970 1_545 S
Li99 N149 1.990 . S
Li99 O157 1.961 . S
Li99 O158 1.970 1_655 S
Li99 O159 1.956 1_645 S
C100 C102 1.348 1_545 S
C100 C103 1.356 . S
C100 O156 1.325 . S
N101 C104 1.314 1_545 S
N101 C105 1.279 . S
C102 C100 1.348 1_565 S
C102 C104 1.353 . S
C102 H160 0.929 . S
C103 C100 1.356 . S
C103 C105 1.358 . S
C103 H161 0.930 . S
C104 N101 1.314 1_565 S
C104 C102 1.353 . S
C104 H162 0.930 . S
C105 N101 1.279 . S
C105 C103 1.358 . S
C105 H163 0.930 . S
C106 C109 1.348 . S
C106 C110 1.356 1_545 S
C106 O157 1.325 . S
C107 N108 1.279 1_565 S
C107 C110 1.358 . S
C107 H164 0.930 . S
N108 C107 1.279 1_545 S
N108 C111 1.314 . S
C109 C106 1.348 . S
C109 C111 1.353 . S
C109 H165 0.929 . S
C110 C106 1.356 1_565 S
C110 C107 1.358 . S
C110 H166 0.930 . S
C111 N108 1.314 . S
C111 C109 1.353 . S
C111 H167 0.930 . S
C112 N113 1.314 1_655 S
C112 C117 1.353 . S
C112 H118 0.930 . S
N113 Li96 1.990 . S
N113 C112 1.314 1_455 S
N113 C115 1.279 . S
C114 C115 1.358 . S
C114 C116 1.356 . S
C114 H168 0.930 . S
C115 N113 1.279 . S
C115 C114 1.358 . S
C115 H119 0.930 . S
C116 C114 1.356 . S
C116 C117 1.348 1_455 S
C117 C112 1.353 . S
C117 C116 1.348 1_655 S
C117 H169 0.929 . S
H118 C112 0.930 . S
H119 C115 0.930 . S
C120 N121 1.314 . S
C120 C122 1.353 . S
C120 H126 0.930 . S
N121 Li97 1.990 . S
N121 C120 1.314 . S
N121 C124 1.279 1_455 S
C122 C120 1.353 . S
C122 C125 1.348 . S
C122 H170 0.929 . S
C123 C124 1.358 . S
C123 C125 1.356 1_655 S
C123 H171 0.930 . S
C124 N121 1.279 1_655 S
C124 C123 1.358 . S
C124 H127 0.930 . S
C125 C122 1.348 . S
C125 C123 1.356 1_455 S
H126 C120 0.930 . S
H127 C124 0.930 . S
C128 C130 1.348 1_455 S
C128 C131 1.356 . S
C128 O158 1.325 . S
N129 C132 1.314 1_455 S
N129 C133 1.279 . S
C130 C128 1.348 1_655 S
C130 C132 1.353 . S
C130 H172 0.929 . S
C131 C128 1.356 . S
C131 C133 1.358 . S
C131 H173 0.930 . S
C132 N129 1.314 1_655 S
C132 C130 1.353 . S
C132 H174 0.930 . S
C133 N129 1.279 . S
C133 C131 1.358 . S
C133 H175 0.930 . S
C134 C135 1.348 . S
C134 C136 1.356 1_455 S
C134 O159 1.325 . S
C135 C134 1.348 . S
C135 C137 1.353 . S
C135 H176 0.929 . S
C136 C134 1.356 1_655 S
C136 C138 1.358 . S
C136 H177 0.930 . S
C137 C135 1.353 . S
C137 N139 1.314 . S
C137 H178 0.930 . S
C138 C136 1.358 . S
C138 N139 1.279 1_655 S
C138 H179 0.930 . S
N139 C137 1.314 . S
N139 C138 1.279 1_455 S
C140 C142 1.353 . S
C140 N143 1.314 1_565 S
C140 H146 0.930 . S
C141 N143 1.279 . S
C141 C144 1.358 . S
C141 H147 0.930 . S
C142 C140 1.353 . S
C142 C145 1.348 1_565 S
C142 H180 0.929 . S
N143 Li98 1.990 . S
N143 C140 1.314 1_545 S
N143 C141 1.279 . S
C144 C141 1.358 . S
C144 C145 1.356 . S
C144 H181 0.930 . S
C145 C142 1.348 1_545 S
C145 C144 1.356 . S
H146 C140 0.930 . S
H147 C141 0.930 . S
C148 N149 1.314 . S
C148 C150 1.353 . S
C148 H154 0.930 . S
N149 Li99 1.990 . S
N149 C148 1.314 . S
N149 C152 1.279 1_545 S
C150 C148 1.353 . S
C150 C153 1.348 . S
C150 H182 0.929 . S
C151 C152 1.358 . S
C151 C153 1.356 1_565 S
C151 H183 0.930 . S
C152 N149 1.279 1_565 S
C152 C151 1.358 . S
C152 H155 0.930 . S
C153 C150 1.348 . S
C153 C151 1.356 1_545 S
H154 C148 0.930 . S
H155 C152 0.930 . S
O156 Li96 1.956 . S
O156 Li97 1.970 1_545 S
O156 Li98 1.961 . S
O156 C100 1.325 . S
O157 Li96 1.970 1_655 S
O157 Li97 1.956 1_645 S
O157 Li99 1.961 . S
O157 C106 1.325 . S
O158 Li96 1.961 . S
O158 Li98 1.956 . S
O158 Li99 1.970 1_455 S
O158 C128 1.325 . S
O159 Li97 1.961 . S
O159 Li98 1.970 1_565 S
O159 Li99 1.956 1_465 S
O159 C134 1.325 . S
H160 C102 0.929 . S
H161 C103 0.930 . S
H162 C104 0.930 . S
H163 C105 0.930 . S
H164 C107 0.930 . S
H165 C109 0.929 . S
H166 C110 0.930 . S
H167 C111 0.930 . S
H168 C114 0.930 . S
H169 C117 0.929 . S
H170 C122 0.929 . S
H171 C123 0.930 . S
H172 C130 0.929 . S
H173 C131 0.930 . S
H174 C132 0.930 . S
H175 C133 0.930 . S
H176 C135 0.929 . S
H177 C136 0.930 . S
H178 C137 0.930 . S
H179 C138 0.930 . S
H180 C142 0.929 . S
H181 C144 0.930 . S
H182 C150 0.929 . S
H183 C151 0.930 . S
Li184 N201 1.990 . S
Li184 O244 1.956 1_655 S
Li184 O245 1.970 1_645 S
Li184 O246 1.961 . S
Li185 N209 1.990 . S
Li185 O244 1.970 . S
Li185 O245 1.956 1_545 S
Li185 O247 1.961 . S
Li186 N231 1.990 . S
Li186 O244 1.961 . S
Li186 O246 1.956 1_455 S
Li186 O247 1.970 . S
Li187 N237 1.990 . S
Li187 O245 1.961 . S
Li187 O246 1.970 1_465 S
Li187 O247 1.956 1_565 S
C188 C190 1.348 . S
C188 C191 1.356 1_455 S
C188 O244 1.325 . S
N189 C192 1.314 . S
N189 C193 1.279 1_455 S
C190 C188 1.348 . S
C190 C192 1.353 . S
C190 H248 0.929 . S
C191 C188 1.356 1_655 S
C191 C193 1.358 . S
C191 H249 0.930 . S
C192 N189 1.314 . S
C192 C190 1.353 . S
C192 H250 0.930 . S
C193 N189 1.279 1_655 S
C193 C191 1.358 . S
C193 H251 0.930 . S
C194 C197 1.348 1_455 S
C194 C198 1.356 . S
C194 O245 1.325 . S
C195 N196 1.279 . S
C195 C198 1.358 . S
C195 H252 0.930 . S
N196 C195 1.279 . S
N196 C199 1.314 1_455 S
C197 C194 1.348 1_655 S
C197 C199 1.353 . S
C197 H253 0.929 . S
C198 C194 1.356 . S
C198 C195 1.358 . S
C198 H254 0.930 . S
C199 N196 1.314 1_655 S
C199 C197 1.353 . S
C199 H255 0.930 . S
C200 N201 1.314 1_565 S
C200 C205 1.353 . S
C200 H206 0.930 . S
N201 Li184 1.990 . S
N201 C200 1.314 1_545 S
N201 C203 1.279 . S
C202 C203 1.358 . S
C202 C204 1.356 . S
C202 H256 0.930 . S
C203 N201 1.279 . S
C203 C202 1.358 . S
C203 H207 0.930 . S
C204 C202 1.356 . S
C204 C205 1.348 1_545 S
C205 C200 1.353 . S
C205 C204 1.348 1_565 S
C205 H257 0.929 . S
H206 C200 0.930 . S
H207 C203 0.930 . S
C208 N209 1.314 . S
C208 C210 1.353 . S
C208 H214 0.930 . S
N209 Li185 1.990 . S
N209 C208 1.314 . S
N209 C212 1.279 1_545 S
C210 C208 1.353 . S
C210 C213 1.348 . S
C210 H258 0.929 . S
C211 C212 1.358 . S
C211 C213 1.356 1_565 S
C211 H259 0.930 . S
C212 N209 1.279 1_565 S
C212 C211 1.358 . S
C212 H215 0.930 . S
C213 C210 1.348 . S
C213 C211 1.356 1_545 S
H214 C208 0.930 . S
H215 C212 0.930 . S
C216 C218 1.348 1_545 S
C216 C219 1.356 . S
C216 O246 1.325 . S
N217 C220 1.314 1_545 S
N217 C221 1.279 . S
C218 C216 1.348 1_565 S
C218 C220 1.353 . S
C218 H260 0.929 . S
C219 C216 1.356 . S
C219 C221 1.358 . S
C219 H261 0.930 . S
C220 N217 1.314 1_565 S
C220 C218 1.353 . S
C220 H262 0.930 . S
C221 N217 1.279 . S
C221 C219 1.358 . S
C221 H263 0.930 . S
C222 C223 1.348 . S
C222 C224 1.356 1_545 S
C222 O247 1.325 . S
C223 C222 1.348 . S
C223 C225 1.353 . S
C223 H264 0.929 . S
C224 C222 1.356 1_565 S
C224 C226 1.358 . S
C224 H265 0.930 . S
C225 C223 1.353 . S
C225 N227 1.314 . S
C225 H266 0.930 . S
C226 C224 1.358 . S
C226 N227 1.279 1_565 S
C226 H267 0.930 . S
N227 C225 1.314 . S
N227 C226 1.279 1_545 S
C228 C230 1.353 . S
C228 N231 1.314 . S
C228 H234 0.930 . S
C229 N231 1.279 1_655 S
C229 C232 1.358 . S
C229 H235 0.930 . S
C230 C228 1.353 . S
C230 C233 1.348 . S
C230 H268 0.929 . S
N231 Li186 1.990 . S
N231 C228 1.314 . S
N231 C229 1.279 1_455 S
C232 C229 1.358 . S
C232 C233 1.356 1_655 S
C232 H269 0.930 . S
C233 C230 1.348 . S
C233 C232 1.356 1_455 S
H234 C228 0.930 . S
H235 C229 0.930 . S
C236 N237 1.314 1_655 S
C236 C238 1.353 . S
C236 H242 0.930 . S
N237 Li187 1.990 . S
N237 C236 1.314 1_455 S
N237 C240 1.279 . S
C238 C236 1.353 . S
C238 C241 1.348 1_655 S
C238 H270 0.929 . S
C239 C240 1.358 . S
C239 C241 1.356 . S
C239 H271 0.930 . S
C240 N237 1.279 . S
C240 C239 1.358 . S
C240 H243 0.930 . S
C241 C238 1.348 1_455 S
C241 C239 1.356 . S
H242 C236 0.930 . S
H243 C240 0.930 . S
O244 Li184 1.956 1_455 S
O244 Li185 1.970 . S
O244 Li186 1.961 . S
O244 C188 1.325 . S
O245 Li184 1.970 1_465 S
O245 Li185 1.956 1_565 S
O245 Li187 1.961 . S
O245 C194 1.325 . S
O246 Li184 1.961 . S
O246 Li186 1.956 1_655 S
O246 Li187 1.970 1_645 S
O246 C216 1.325 . S
O247 Li185 1.961 . S
O247 Li186 1.970 . S
O247 Li187 1.956 1_545 S
O247 C222 1.325 . S
H248 C190 0.929 . S
H249 C191 0.930 . S
H250 C192 0.930 . S
H251 C193 0.930 . S
H252 C195 0.930 . S
H253 C197 0.929 . S
H254 C198 0.930 . S
H255 C199 0.930 . S
H256 C202 0.930 . S
H257 C205 0.929 . S
H258 C210 0.929 . S
H259 C211 0.930 . S
H260 C218 0.929 . S
H261 C219 0.930 . S
H262 C220 0.930 . S
H263 C221 0.930 . S
H264 C223 0.929 . S
H265 C224 0.930 . S
H266 C225 0.930 . S
H267 C226 0.930 . S
H268 C230 0.929 . S
H269 C232 0.930 . S
H270 C238 0.929 . S
H271 C239 0.930 . S
H272 C284 0.930 . S
H273 C286 0.930 . S
H274 C287 0.930 . S
H275 C291 0.959 . S
H276 C291 0.959 . S
H277 C291 0.961 . S
H278 C292 0.960 . S
H279 C292 0.961 . S
H280 C292 0.959 . S
H281 C295 0.929 . S
H282 C296 0.931 . S
H283 C298 0.930 . S
C284 H272 0.930 . S
C284 C285 1.399 1_565 S
C284 C289 1.399 . S
C285 C284 1.399 1_545 S
C285 C286 1.376 . S
C286 H273 0.930 . S
C286 C285 1.376 . S
C286 C287 1.388 . S
C287 H274 0.930 . S
C287 C286 1.388 . S
C287 C288 1.390 . S
C288 C287 1.390 . S
C288 C289 1.394 1_545 S
C288 C294 1.465 . S
C289 C284 1.399 . S
C289 C288 1.394 1_565 S
C289 C290 1.516 . S
C290 C289 1.516 . S
C290 C291 1.502 . S
C290 C292 1.561 . S
C290 C293 1.526 . S
C291 H275 0.959 . S
C291 H276 0.959 . S
C291 H277 0.961 . S
C291 C290 1.502 . S
C292 H278 0.960 . S
C292 H279 0.961 . S
C292 H280 0.959 . S
C292 C290 1.561 . S
C293 C290 1.526 . S
C293 C294 1.396 1_565 S
C293 C298 1.390 . S
C294 C288 1.465 . S
C294 C293 1.396 1_545 S
C294 C295 1.399 . S
C295 H281 0.929 . S
C295 C294 1.399 . S
C295 C296 1.385 . S
C296 H282 0.931 . S
C296 C295 1.385 . S
C296 C297 1.389 . S
C297 C296 1.389 . S
C297 C298 1.387 1_545 S
C298 H283 0.930 . S
C298 C293 1.390 . S
C298 C297 1.387 1_565 S
H299 C311 0.930 . S
H300 C313 0.930 . S
H301 C314 0.930 . S
H302 C318 0.959 . S
H303 C318 0.959 . S
H304 C318 0.961 . S
H305 C319 0.960 . S
H306 C319 0.961 . S
H307 C319 0.959 . S
H308 C322 0.929 . S
H309 C323 0.931 . S
H310 C325 0.930 . S
C311 H299 0.930 . S
C311 C312 1.399 . S
C311 C316 1.399 . S
C312 C311 1.399 . S
C312 C313 1.376 . S
C313 H300 0.930 . S
C313 C312 1.376 . S
C313 C314 1.388 . S
C314 H301 0.930 . S
C314 C313 1.388 . S
C314 C315 1.390 . S
C315 C314 1.390 . S
C315 C316 1.394 . S
C315 C321 1.465 . S
C316 C311 1.399 . S
C316 C315 1.394 . S
C316 C317 1.516 . S
C317 C316 1.516 . S
C317 C318 1.502 . S
C317 C319 1.561 1_455 S
C317 C320 1.526 . S
C318 H302 0.959 . S
C318 H303 0.959 . S
C318 H304 0.961 . S
C318 C317 1.502 . S
C319 H305 0.960 . S
C319 H306 0.961 . S
C319 H307 0.959 . S
C319 C317 1.561 1_655 S
C320 C317 1.526 . S
C320 C321 1.396 . S
C320 C325 1.390 . S
C321 C315 1.465 . S
C321 C320 1.396 . S
C321 C322 1.399 . S
C322 H308 0.929 . S
C322 C321 1.399 . S
C322 C323 1.385 . S
C323 H309 0.931 . S
C323 C322 1.385 . S
C323 C324 1.389 . S
C324 C323 1.389 . S
C324 C325 1.387 . S
C325 H310 0.930 . S
C325 C320 1.390 . S
C325 C324 1.387 . S
H326 C338 0.930 . S
H327 C340 0.930 . S
H328 C341 0.930 . S
H329 C345 0.959 . S
H330 C345 0.959 . S
H331 C345 0.961 . S
H332 C346 0.960 . S
H333 C346 0.961 . S
H334 C346 0.959 . S
H335 C349 0.929 . S
H336 C350 0.931 . S
H337 C352 0.930 . S
C338 H326 0.930 . S
C338 C339 1.399 1_565 S
C338 C343 1.399 . S
C339 C338 1.399 1_545 S
C339 C340 1.376 . S
C340 H327 0.930 . S
C340 C339 1.376 . S
C340 C341 1.388 . S
C341 H328 0.930 . S
C341 C340 1.388 . S
C341 C342 1.390 . S
C342 C341 1.390 . S
C342 C343 1.394 1_545 S
C342 C348 1.465 . S
C343 C338 1.399 . S
C343 C342 1.394 1_565 S
C343 C344 1.516 . S
C344 C343 1.516 . S
C344 C345 1.502 . S
C344 C346 1.561 . S
C344 C347 1.526 . S
C345 H329 0.959 . S
C345 H330 0.959 . S
C345 H331 0.961 . S
C345 C344 1.502 . S
C346 H332 0.960 . S
C346 H333 0.961 . S
C346 H334 0.959 . S
C346 C344 1.561 . S
C347 C344 1.526 . S
C347 C348 1.396 1_565 S
C347 C352 1.390 . S
C348 C342 1.465 . S
C348 C347 1.396 1_545 S
C348 C349 1.399 . S
C349 H335 0.929 . S
C349 C348 1.399 . S
C349 C350 1.385 . S
C350 H336 0.931 . S
C350 C349 1.385 . S
C350 C351 1.389 . S
C351 C350 1.389 . S
C351 C352 1.387 1_545 S
C352 H337 0.930 . S
C352 C347 1.390 . S
C352 C351 1.387 1_565 S
H353 C365 0.922 1_655 S
H354 C367 0.930 . S
H355 C368 0.930 . S
H356 C372 0.959 . S
H357 C372 0.959 . S
H358 C372 0.961 . S
H359 C373 0.960 . S
H360 C373 0.961 . S
H361 C373 0.959 . S
H362 C376 0.929 . S
H363 C377 0.931 . S
H364 C379 0.925 1_655 S
C365 H353 0.922 1_455 S
C365 C366 1.405 . S
C365 C370 1.402 . S
C366 C365 1.405 . S
C366 C367 1.376 . S
C367 H354 0.930 . S
C367 C366 1.376 . S
C367 C368 1.388 . S
C368 H355 0.930 . S
C368 C367 1.388 . S
C368 C369 1.390 . S
C369 C368 1.390 . S
C369 C370 1.394 . S
C369 C375 1.465 . S
C370 C365 1.402 . S
C370 C369 1.394 . S
C370 C371 1.516 1_455 S
C371 C370 1.516 1_655 S
C371 C372 1.502 . S
C371 C373 1.561 1_655 S
C371 C374 1.526 1_655 S
C372 H356 0.959 . S
C372 H357 0.959 . S
C372 H358 0.961 . S
C372 C371 1.502 . S
C373 H359 0.960 . S
C373 H360 0.961 . S
C373 H361 0.959 . S
C373 C371 1.561 1_455 S
C374 C371 1.526 1_455 S
C374 C375 1.396 . S
C374 C379 1.391 . S
C375 C369 1.465 . S
C375 C374 1.396 . S
C375 C376 1.399 . S
C376 H362 0.929 . S
C376 C375 1.399 . S
C376 C377 1.385 . S
C377 H363 0.931 . S
C377 C376 1.385 . S
C377 C378 1.389 . S
C378 C377 1.389 . S
C378 C379 1.390 . S
C379 H364 0.925 1_455 S
C379 C374 1.391 . S
C379 C378 1.390 . S
H380 C392 0.930 . S
H381 C394 0.930 . S
H382 C395 0.930 . S
H383 C399 0.959 . S
H384 C399 0.959 . S
H385 C399 0.961 . S
H386 C400 0.960 . S
H387 C400 0.961 . S
H388 C400 0.959 . S
H389 C403 0.929 . S
H390 C404 0.931 . S
H391 C406 0.930 . S
C392 H380 0.930 . S
C392 C393 1.399 1_565 S
C392 C397 1.399 . S
C393 C392 1.399 1_545 S
C393 C394 1.376 . S
C394 H381 0.930 . S
C394 C393 1.376 . S
C394 C395 1.388 . S
C395 H382 0.930 . S
C395 C394 1.388 . S
C395 C396 1.390 . S
C396 C395 1.390 . S
C396 C397 1.394 1_545 S
C396 C402 1.465 . S
C397 C392 1.399 . S
C397 C396 1.394 1_565 S
C397 C398 1.516 . S
C398 C397 1.516 . S
C398 C399 1.502 . S
C398 C400 1.561 . S
C398 C401 1.526 . S
C399 H383 0.959 . S
C399 H384 0.959 . S
C399 H385 0.961 . S
C399 C398 1.502 . S
C400 H386 0.960 . S
C400 H387 0.961 . S
C400 H388 0.959 . S
C400 C398 1.561 . S
C401 C398 1.526 . S
C401 C402 1.396 1_565 S
C401 C406 1.390 . S
C402 C396 1.465 . S
C402 C401 1.396 1_545 S
C402 C403 1.399 . S
C403 H389 0.929 . S
C403 C402 1.399 . S
C403 C404 1.385 . S
C404 H390 0.931 . S
C404 C403 1.385 . S
C404 C405 1.389 . S
C405 C404 1.389 . S
C405 C406 1.387 1_545 S
C406 H391 0.930 . S
C406 C401 1.390 . S
C406 C405 1.387 1_565 S
H407 C419 0.926 1_655 S
H408 C421 0.930 . S
H409 C422 0.930 . S
H410 C426 0.959 . S
H411 C426 0.959 . S
H412 C426 0.961 . S
H413 C427 0.960 . S
H414 C427 0.961 . S
H415 C427 0.959 . S
H416 C430 0.929 . S
H417 C431 0.931 . S
H418 C433 0.930 . S
C419 H407 0.926 1_455 S
C419 C420 1.399 . S
C419 C424 1.399 . S
C420 C419 1.399 . S
C420 C421 1.376 . S
C421 H408 0.930 . S
C421 C420 1.376 . S
C421 C422 1.388 . S
C422 H409 0.930 . S
C422 C421 1.388 . S
C422 C423 1.390 . S
C423 C422 1.390 . S
C423 C424 1.394 . S
C423 C429 1.465 . S
C424 C419 1.399 . S
C424 C423 1.394 . S
C424 C425 1.516 . S
C425 C424 1.516 . S
C425 C426 1.502 1_455 S
C425 C427 1.561 . S
C425 C428 1.526 . S
C426 H410 0.959 . S
C426 H411 0.959 . S
C426 H412 0.961 . S
C426 C425 1.502 1_655 S
C427 H413 0.960 . S
C427 H414 0.961 . S
C427 H415 0.959 . S
C427 C425 1.561 . S
C428 C425 1.526 . S
C428 C429 1.396 . S
C428 C433 1.390 . S
C429 C423 1.465 . S
C429 C428 1.396 . S
C429 C430 1.399 . S
C430 H416 0.929 . S
C430 C429 1.399 . S
C430 C431 1.385 . S
C431 H417 0.931 . S
C431 C430 1.385 . S
C431 C432 1.389 . S
C432 C431 1.389 . S
C432 C433 1.387 . S
C433 H418 0.930 . S
C433 C428 1.390 . S
C433 C432 1.387 . S
H434 C446 0.930 . S
H435 C448 0.930 . S
H436 C449 0.930 . S
H437 C453 0.959 . S
H438 C453 0.959 . S
H439 C453 0.961 . S
H440 C454 0.960 . S
H441 C454 0.961 . S
H442 C454 0.959 . S
H443 C457 0.929 . S
H444 C458 0.931 . S
H445 C460 0.930 . S
C446 H434 0.930 . S
C446 C447 1.399 1_565 S
C446 C451 1.399 . S
C447 C446 1.399 1_545 S
C447 C448 1.376 . S
C448 H435 0.930 . S
C448 C447 1.376 . S
C448 C449 1.388 . S
C449 H436 0.930 . S
C449 C448 1.388 . S
C449 C450 1.390 . S
C450 C449 1.390 . S
C450 C451 1.394 1_545 S
C450 C456 1.465 . S
C451 C446 1.399 . S
C451 C450 1.394 1_565 S
C451 C452 1.516 . S
C452 C451 1.516 . S
C452 C453 1.502 . S
C452 C454 1.561 . S
C452 C455 1.526 . S
C453 H437 0.959 . S
C453 H438 0.959 . S
C453 H439 0.961 . S
C453 C452 1.502 . S
C454 H440 0.960 . S
C454 H441 0.961 . S
C454 H442 0.959 . S
C454 C452 1.561 . S
C455 C452 1.526 . S
C455 C456 1.396 1_565 S
C455 C460 1.390 . S
C456 C450 1.465 . S
C456 C455 1.396 1_545 S
C456 C457 1.399 . S
C457 H443 0.929 . S
C457 C456 1.399 . S
C457 C458 1.385 . S
C458 H444 0.931 . S
C458 C457 1.385 . S
C458 C459 1.389 . S
C459 C458 1.389 . S
C459 C460 1.387 1_545 S
C460 H445 0.930 . S
C460 C455 1.390 . S
C460 C459 1.387 1_565 S
H461 C473 0.930 . S
H462 C475 0.930 . S
H463 C476 0.930 . S
H464 C480 0.959 . S
H465 C480 0.959 . S
H466 C480 0.961 . S
H467 C481 0.960 . S
H468 C481 0.961 . S
H469 C481 0.959 . S
H470 C484 0.929 . S
H471 C485 0.931 . S
H472 C487 0.930 . S
C473 H461 0.930 . S
C473 C474 1.399 1_655 S
C473 C478 1.395 1_655 S
C474 C473 1.399 1_455 S
C474 C475 1.376 . S
C475 H462 0.930 . S
C475 C474 1.376 . S
C475 C476 1.388 . S
C476 H463 0.930 . S
C476 C475 1.388 . S
C476 C477 1.390 . S
C477 C476 1.390 . S
C477 C478 1.409 . S
C477 C483 1.465 . S
C478 C473 1.395 1_455 S
C478 C477 1.409 . S
C478 C479 1.508 1_455 S
C479 C478 1.508 1_655 S
C479 C480 1.502 . S
C479 C481 1.561 1_655 S
C479 C482 1.526 1_655 S
C480 H464 0.959 . S
C480 H465 0.959 . S
C480 H466 0.961 . S
C480 C479 1.502 . S
C481 H467 0.960 . S
C481 H468 0.961 . S
C481 H469 0.959 . S
C481 C479 1.561 1_455 S
C482 C479 1.526 1_455 S
C482 C483 1.396 . S
C482 C487 1.390 1_455 S
C483 C477 1.465 . S
C483 C482 1.396 . S
C483 C484 1.399 . S
C484 H470 0.929 . S
C484 C483 1.399 . S
C484 C485 1.385 . S
C485 H471 0.931 . S
C485 C484 1.385 . S
C485 C486 1.389 . S
C486 C485 1.389 . S
C486 C487 1.387 1_455 S
C487 H472 0.930 . S
C487 C482 1.390 1_655 S
C487 C486 1.387 1_655 S
C297 C145 1.505 . S
C285 C45 1.514 . S
C324 C233 1.509 . S
C312 C78 1.500 . S
C351 C153 1.511 . S
C339 C21 1.505 . S
C378 C241 1.508 . S
C366 C84 1.506 . S
C405 C213 1.511 . S
C393 C36 1.500 . S
C432 C116 1.509 . S
C420 C69 1.500 . S
C459 C204 1.504 . S
C447 C30 1.492 . S
C474 C93 1.491 . S
C486 C125 1.508 . S
