# Generated by pormake.
# Topology pyr, (3,6)-cn, num edge types: 1
# Building blocks:
#     Node 0, Type 0, BuildingBlock: CUQRIR_clean_linker_1, # of connection points: 3
#     Node 1, Type 0, BuildingBlock: CUQRIR_clean_linker_1, # of connection points: 3
#     Node 2, Type 0, BuildingBlock: CUQRIR_clean_linker_1, # of connection points: 3
#     Node 3, Type 0, BuildingBlock: CUQRIR_clean_linker_1, # of connection points: 3
#     Node 4, Type 0, BuildingBlock: CUQRIR_clean_linker_1, # of connection points: 3
#     Node 5, Type 0, BuildingBlock: CUQRIR_clean_linker_1, # of connection points: 3
#     Node 6, Type 0, BuildingBlock: CUQRIR_clean_linker_1, # of connection points: 3
#     Node 7, Type 0, BuildingBlock: CUQRIR_clean_linker_1, # of connection points: 3
#     Node 8, Type 1, BuildingBlock: VOLQOD_clean_sbu_1, # of connection points: 6
#     Node 9, Type 1, BuildingBlock: VOLQOD_clean_sbu_1, # of connection points: 6
#     Node 10, Type 1, BuildingBlock: VOLQOD_clean_sbu_1, # of connection points: 6
#     Node 11, Type 1, BuildingBlock: VOLQOD_clean_sbu_1, # of connection points: 6
#     Edge 12, Type (0, 1), BuildingBlock: MIFKUJ_clean_linker_0, # of connection points: 2
#     Edge 13, Type (0, 1), BuildingBlock: MIFKUJ_clean_linker_0, # of connection points: 2
#     Edge 14, Type (0, 1), BuildingBlock: MIFKUJ_clean_linker_0, # of connection points: 2
#     Edge 15, Type (0, 1), BuildingBlock: MIFKUJ_clean_linker_0, # of connection points: 2
#     Edge 16, Type (0, 1), BuildingBlock: MIFKUJ_clean_linker_0, # of connection points: 2
#     Edge 17, Type (0, 1), BuildingBlock: MIFKUJ_clean_linker_0, # of connection points: 2
#     Edge 18, Type (0, 1), BuildingBlock: MIFKUJ_clean_linker_0, # of connection points: 2
#     Edge 19, Type (0, 1), BuildingBlock: MIFKUJ_clean_linker_0, # of connection points: 2
#     Edge 20, Type (0, 1), BuildingBlock: MIFKUJ_clean_linker_0, # of connection points: 2
#     Edge 21, Type (0, 1), BuildingBlock: MIFKUJ_clean_linker_0, # of connection points: 2
#     Edge 22, Type (0, 1), BuildingBlock: MIFKUJ_clean_linker_0, # of connection points: 2
#     Edge 23, Type (0, 1), BuildingBlock: MIFKUJ_clean_linker_0, # of connection points: 2
#     Edge 24, Type (0, 1), BuildingBlock: MIFKUJ_clean_linker_0, # of connection points: 2
#     Edge 25, Type (0, 1), BuildingBlock: MIFKUJ_clean_linker_0, # of connection points: 2
#     Edge 26, Type (0, 1), BuildingBlock: MIFKUJ_clean_linker_0, # of connection points: 2
#     Edge 27, Type (0, 1), BuildingBlock: MIFKUJ_clean_linker_0, # of connection points: 2
#     Edge 28, Type (0, 1), BuildingBlock: MIFKUJ_clean_linker_0, # of connection points: 2
#     Edge 29, Type (0, 1), BuildingBlock: MIFKUJ_clean_linker_0, # of connection points: 2
#     Edge 30, Type (0, 1), BuildingBlock: MIFKUJ_clean_linker_0, # of connection points: 2
#     Edge 31, Type (0, 1), BuildingBlock: MIFKUJ_clean_linker_0, # of connection points: 2
#     Edge 32, Type (0, 1), BuildingBlock: MIFKUJ_clean_linker_0, # of connection points: 2
#     Edge 33, Type (0, 1), BuildingBlock: MIFKUJ_clean_linker_0, # of connection points: 2
#     Edge 34, Type (0, 1), BuildingBlock: MIFKUJ_clean_linker_0, # of connection points: 2
#     Edge 35, Type (0, 1), BuildingBlock: MIFKUJ_clean_linker_0, # of connection points: 2
# Relax obj value: 0.115
# Max RMSD: 0.211
# Mean RMSD: 0.165
data_MOF--net-pry--node1-VOLQOD_clean_sbu_1--node2-CUQRIR_clean_linker_1--edge1-MIFKUJ_clean_linker_0
_symmetry_space_group_name_H-M    P1
_symmetry_Int_Tables_number       1
_symmetry_cell_setting            triclinic
loop_
_symmetry_equiv_pos_as_xyz
'x, y, z'
_cell_length_a     45.313543
_cell_length_b     45.191608
_cell_length_c     44.691136
_cell_angle_alpha  88.255714
_cell_angle_beta   91.965979
_cell_angle_gamma 93.861177
loop_
_atom_site_label
_atom_site_type_symbol
_atom_site_fract_x
_atom_site_fract_y
_atom_site_fract_z
_atom_type_partial_charge
C0 C 0.13835 0.18353 0.16824 0.0
N1 N 0.1575 0.16216 0.17374 0.0
N2 N 0.14629 0.20039 0.14382 0.0
C3 C 0.11373 0.18974 0.18848 0.0
C4 C 0.17118 0.18855 0.13493 0.0
N5 N 0.17803 0.1655 0.15325 0.0
C6 C 0.18825 0.19865 0.10777 0.0
H7 H 0.09316 0.17706 0.18087 0.0
H8 H 0.1097 0.21369 0.18786 0.0
H9 H 0.11895 0.18268 0.21195 0.0
H10 H 0.20647 0.21494 0.11462 0.0
H11 H 0.1738 0.20931 0.09067 0.0
H12 H 0.1983 0.17967 0.09777 0.0
C13 C 0.38525 0.8639 0.65097 0.0
N14 N 0.38099 0.88431 0.67162 0.0
N15 N 0.40887 0.84826 0.65899 0.0
C16 C 0.36512 0.85798 0.62397 0.0
C17 C 0.41859 0.85979 0.68552 0.0
N18 N 0.40148 0.88166 0.69331 0.0
C19 C 0.4459 0.85105 0.70273 0.0
H20 H 0.36351 0.83404 0.61888 0.0
H21 H 0.37434 0.87062 0.60437 0.0
H22 H 0.34257 0.86517 0.62728 0.0
H23 H 0.46202 0.84253 0.68752 0.0
H24 H 0.43964 0.83325 0.7194 0.0
H25 H 0.45654 0.87021 0.71488 0.0
C26 C 0.58395 0.39657 0.90007 0.0
N27 N 0.60453 0.39257 0.92224 0.0
N28 N 0.59344 0.41844 0.88057 0.0
C29 C 0.55555 0.37759 0.89629 0.0
C30 C 0.62056 0.42763 0.89172 0.0
N31 N 0.62732 0.41175 0.91687 0.0
C32 C 0.64109 0.45071 0.87679 0.0
H33 H 0.56061 0.35549 0.88842 0.0
H34 H 0.53997 0.38783 0.88001 0.0
H35 H 0.54462 0.3742 0.91806 0.0
H36 H 0.63175 0.47269 0.8779 0.0
H37 H 0.6428 0.44566 0.85278 0.0
H38 H 0.66349 0.45224 0.88756 0.0
C39 C 0.87404 0.62394 0.36717 0.0
N40 N 0.89781 0.64302 0.36205 0.0
N41 N 0.86026 0.63135 0.39205 0.0
C42 C 0.86331 0.59906 0.34707 0.0
C43 C 0.87651 0.65564 0.40176 0.0
N44 N 0.89921 0.66279 0.38348 0.0
C45 C 0.87071 0.67203 0.42955 0.0
H46 H 0.83878 0.59739 0.34523 0.0
H47 H 0.87058 0.57787 0.35703 0.0
H48 H 0.87237 0.60199 0.32437 0.0
H49 H 0.85891 0.6572 0.44611 0.0
H50 H 0.85683 0.69073 0.42341 0.0
H51 H 0.89179 0.68137 0.43991 0.0
C52 C 0.88487 0.91772 0.93063 0.0
N53 N 0.90546 0.90984 0.91178 0.0
N54 N 0.87537 0.94462 0.92251 0.0
C55 C 0.87124 0.89759 0.95453 0.0
C56 C 0.8908 0.95271 0.89785 0.0
N57 N 0.90935 0.93169 0.89152 0.0
C58 C 0.88449 0.97882 0.87757 0.0
H59 H 0.8518 0.88469 0.94462 0.0
H60 H 0.86356 0.9107 0.97301 0.0
H61 H 0.88727 0.88181 0.96356 0.0
H62 H 0.90504 0.9883 0.86718 0.0
H63 H 0.87436 0.99622 0.89003 0.0
H64 H 0.86877 0.97123 0.85937 0.0
C65 C 0.66844 0.14828 0.4462 0.0
N66 N 0.6757 0.12509 0.43013 0.0
N67 N 0.64007 0.15457 0.44005 0.0
C68 C 0.68899 0.16491 0.4679 0.0
C69 C 0.63031 0.1344 0.41956 0.0
N70 N 0.65188 0.11616 0.41379 0.0
C71 C 0.60125 0.13516 0.40218 0.0
H72 H 0.70454 0.14982 0.47911 0.0
H73 H 0.67635 0.17548 0.48503 0.0
H74 H 0.70213 0.18257 0.45549 0.0
H75 H 0.59103 0.15659 0.40419 0.0
H76 H 0.58576 0.11713 0.41088 0.0
H77 H 0.60433 0.13137 0.3781 0.0
C78 C 0.39297 0.59875 0.10219 0.0
N79 N 0.41682 0.61409 0.1144 0.0
N80 N 0.38515 0.6109 0.07528 0.0
C81 C 0.37493 0.5744 0.1182 0.0
C82 C 0.40542 0.63402 0.07155 0.0
N83 N 0.42472 0.63599 0.09529 0.0
C84 C 0.40358 0.65732 0.04694 0.0
H85 H 0.36521 0.55801 0.10205 0.0
H86 H 0.35651 0.58416 0.12936 0.0
H87 H 0.38861 0.5629 0.1354 0.0
H88 H 0.39474 0.67739 0.05605 0.0
H89 H 0.38894 0.64936 0.02803 0.0
H90 H 0.42597 0.66361 0.03862 0.0
C91 C 0.08077 0.40252 0.62541 0.0
N92 N 0.10184 0.39525 0.60677 0.0
N93 N 0.08719 0.4299 0.63625 0.0
C94 C 0.0559 0.38151 0.636 0.0
C95 C 0.11324 0.43882 0.62391 0.0
N96 N 0.12223 0.41773 0.60602 0.0
C97 C 0.13072 0.46731 0.63111 0.0
H98 H 0.03727 0.39388 0.64351 0.0
H99 H 0.06411 0.36788 0.65521 0.0
H100 H 0.048 0.36637 0.6179 0.0
H101 H 0.14532 0.46352 0.6511 0.0
H102 H 0.11568 0.4847 0.63637 0.0
H103 H 0.14468 0.47509 0.61213 0.0
O104 O 0.03432 0.07451 0.55179 0.0
Zn105 Zn 0.01561 0.03309 0.54542 0.0
O106 O 0.04116 0.00974 0.52238 0.0
Zn107 Zn 0.0221 0.00196 0.4833 0.0
Zn108 Zn 0.07912 0.03192 0.51674 0.0
Zn109 Zn 0.04815 0.97224 0.54383 0.0
O110 O 0.015 0.95811 0.4782 0.0
O111 O 0.03597 0.93681 0.51833 0.0
O112 O 0.97615 0.03745 0.52366 0.0
O113 O 0.98224 0.01941 0.4788 0.0
O114 O 0.04806 0.01752 0.44967 0.0
O115 O 0.08938 0.03443 0.47331 0.0
O116 O 0.11214 0.01339 0.54043 0.0
O117 O 0.00752 0.01312 0.58553 0.0
O118 O 0.09102 0.97065 0.55724 0.0
O119 O 0.02559 0.9689 0.58203 0.0
C120 C 0.05876 0.08751 0.54382 0.0
C121 C 0.02214 0.93504 0.49306 0.0
C122 C 0.07457 0.02885 0.44918 0.0
C123 C 0.96645 0.03182 0.49718 0.0
C124 C 0.11361 0.98885 0.55503 0.0
C125 C 0.01179 0.98729 0.59639 0.0
O126 O 0.07756 0.07382 0.53 0.0
O127 O 0.51085 0.08744 0.02118 0.0
Zn128 Zn 0.49149 0.04578 0.02691 0.0
O129 O 0.51741 0.02035 0.05072 0.0
Zn130 Zn 0.52685 0.98752 0.02635 0.0
Zn131 Zn 0.55409 0.04288 0.06154 0.0
Zn132 Zn 0.49852 0.00505 0.08767 0.0
O133 O 0.5194 0.94901 0.04888 0.0
O134 O 0.49476 0.95995 0.0888 0.0
O135 O 0.47988 0.02842 0.98618 0.0
O136 O 0.5016 0.98578 0.98856 0.0
O137 O 0.56955 0.99058 0.01461 0.0
O138 O 0.58878 0.02792 0.0416 0.0
O139 O 0.56288 0.04101 0.10564 0.0
O140 O 0.45385 0.04921 0.04898 0.0
O141 O 0.52353 0.01652 0.12477 0.0
O142 O 0.45811 0.02143 0.0907 0.0
C143 C 0.53479 0.0999 0.03208 0.0
C144 C 0.50575 0.94104 0.07252 0.0
C145 C 0.59163 0.00752 0.02315 0.0
C146 C 0.48487 0.0037 0.97495 0.0
C147 C 0.54892 0.0302 0.12809 0.0
C148 C 0.44352 0.0387 0.07358 0.0
O149 O 0.55251 0.08541 0.04858 0.0
O150 O 0.52191 0.51003 0.56442 0.0
Zn151 Zn 0.51857 0.52995 0.52388 0.0
O152 O 0.4931 0.50551 0.49682 0.0
Zn153 Zn 0.51636 0.49428 0.46356 0.0
Zn154 Zn 0.47807 0.46927 0.5179 0.0
Zn155 Zn 0.46 0.52837 0.4819 0.0
O156 O 0.50044 0.51096 0.42448 0.0
O157 O 0.46223 0.53574 0.43718 0.0
O158 O 0.55975 0.53846 0.50822 0.0
O159 O 0.55844 0.51045 0.46814 0.0
O160 O 0.51829 0.45009 0.46156 0.0
O161 O 0.49252 0.43251 0.50026 0.0
O162 O 0.43357 0.46582 0.51644 0.0
O163 O 0.50118 0.56857 0.53081 0.0
O164 O 0.42075 0.50619 0.49093 0.0
O165 O 0.46055 0.56841 0.5016 0.0
C166 C 0.50978 0.48647 0.5762 0.0
C167 C 0.47933 0.52736 0.41747 0.0
C168 C 0.50831 0.4284 0.47793 0.0
C169 C 0.57236 0.52803 0.48619 0.0
C170 C 0.4138 0.48186 0.50499 0.0
C171 C 0.47833 0.58095 0.52077 0.0
O172 O 0.49212 0.46909 0.56114 0.0
O173 O 0.97729 0.53674 0.07147 0.0
Zn174 Zn 0.97723 0.51416 0.03311 0.0
O175 O 0.99775 0.53813 0.00182 0.0
Zn176 Zn 0.96995 0.54708 0.9687 0.0
Zn177 Zn 0.01532 0.57507 0.01851 0.0
Zn178 Zn 0.02917 0.51597 0.98672 0.0
O179 O 0.98295 0.53154 0.92955 0.0
O180 O 0.0228 0.50782 0.94313 0.0
O181 O 0.93479 0.50381 0.02037 0.0
O182 O 0.92936 0.52774 0.97656 0.0
O183 O 0.96705 0.59131 0.96286 0.0
O184 O 1.00004 0.61044 0.99605 0.0
O185 O 0.05976 0.57827 0.01593 0.0
O186 O 0.99686 0.47569 0.04228 0.0
O187 O 0.06874 0.53788 0.99177 0.0
O188 O 0.03256 0.47752 0.00935 0.0
C189 C 0.98971 0.56145 0.07972 0.0
C190 C 0.00408 0.51585 0.92314 0.0
C191 C 0.98085 0.61365 0.97491 0.0
C192 C 0.91882 0.51098 0.99762 0.0
C193 C 0.07776 0.56193 0.00417 0.0
C194 C 0.01874 0.46443 0.03078 0.0
O195 O 0.00528 0.578 0.06189 0.0
H196 H 0.19849 0.15736 0.21831 0.0
H197 H 0.19289 0.12708 0.26468 0.0
H198 H 0.10806 0.0906 0.23117 0.0
H199 H 0.1141 0.12052 0.18485 0.0
H200 H 0.15005 0.13366 0.30327 0.0
H201 H 0.09177 0.02263 0.26245 0.0
H202 H 0.0943 0.9889 0.2204 0.0
H203 H 0.1846 0.02017 0.20704 0.0
H204 H 0.18279 0.05374 0.24928 0.0
H205 H 0.04917 0.02332 0.3929 0.0
H206 H 0.07057 0.03991 0.3453 0.0
H207 H 0.15217 0.06818 0.3917 0.0
H208 H 0.13091 0.05207 0.43943 0.0
H209 H 0.11894 0.02661 0.31444 0.0
H210 H 0.17844 0.13366 0.35924 0.0
H211 H 0.17492 0.16821 0.40051 0.0
H212 H 0.08147 0.14583 0.40416 0.0
H213 H 0.08439 0.11149 0.36268 0.0
C214 C 0.17922 0.14206 0.22063 0.0
C215 C 0.15676 0.1409 0.19827 0.0
C216 C 0.1759 0.125 0.24709 0.0
C217 C 0.15013 0.10645 0.25133 0.0
C218 C 0.12834 0.10433 0.22824 0.0
C219 C 0.13168 0.12142 0.2019 0.0
C220 C 0.14428 0.09196 0.28094 0.0
C221 C 0.14398 0.1101 0.30585 0.0
C222 C 0.1356 0.06138 0.28412 0.0
C223 C 0.13704 0.04089 0.25894 0.0
C224 C 0.11222 0.0222 0.25066 0.0
C225 C 0.11352 0.00312 0.22676 0.0
C226 C 0.13957 0.00244 0.21101 0.0
C227 C 0.16441 0.02078 0.21919 0.0
C228 C 0.16324 0.03987 0.24309 0.0
C229 C 0.07175 0.03286 0.393 0.0
C230 C 0.08818 0.03668 0.42006 0.0
C231 C 0.08399 0.04219 0.36574 0.0
C232 C 0.11282 0.05558 0.36502 0.0
C233 C 0.12973 0.05826 0.39181 0.0
C234 C 0.1175 0.04902 0.41908 0.0
C235 C 0.12443 0.06842 0.33651 0.0
C236 C 0.12563 0.05003 0.31188 0.0
C237 C 0.13386 0.09882 0.33347 0.0
C238 C 0.13174 0.11974 0.35813 0.0
C239 C 0.15715 0.13619 0.36882 0.0
C240 C 0.15525 0.15573 0.39224 0.0
C241 C 0.12801 0.15912 0.40503 0.0
C242 C 0.10258 0.14309 0.39433 0.0
C243 C 0.10435 0.12357 0.37088 0.0
H244 H 0.1266 0.17422 0.42319 0.0
H245 H 0.14051 0.98768 0.1925 0.0
H246 H 0.40249 0.85834 0.74935 0.0
H247 H 0.41041 0.88513 0.79596 0.0
H248 H 0.4124 0.96839 0.74583 0.0
H249 H 0.40589 0.94121 0.69896 0.0
H250 H 0.45591 0.96983 0.78582 0.0
H251 H 0.35336 0.94479 0.78949 0.0
H252 H 0.30714 0.91292 0.78603 0.0
H253 H 0.33679 0.85923 0.86055 0.0
H254 H 0.38358 0.89028 0.86403 0.0
H255 H 0.46336 0.03992 0.92986 0.0
H256 H 0.44277 0.02499 0.88054 0.0
H257 H 0.45409 0.93332 0.90494 0.0
H258 H 0.47505 0.94796 0.95374 0.0
H259 H 0.39756 0.94459 0.87611 0.0
H260 H 0.50366 0.96696 0.86452 0.0
H261 H 0.54919 5e-05 0.8669 0.0
H262 H 0.50916 0.0623 0.80623 0.0
H263 H 0.46322 0.02971 0.80384 0.0
C264 C 0.40461 0.88235 0.7484 0.0
C265 C 0.40366 0.89778 0.72072 0.0
C266 C 0.4088 0.8977 0.77501 0.0
C267 C 0.4116 0.92888 0.77455 0.0
C268 C 0.41016 0.94437 0.74682 0.0
C269 C 0.40617 0.92892 0.72011 0.0
C270 C 0.41757 0.94491 0.80299 0.0
C271 C 0.44269 0.9648 0.80533 0.0
C272 C 0.40044 0.9384 0.82861 0.0
C273 C 0.37212 0.91983 0.82692 0.0
C274 C 0.35014 0.92608 0.80504 0.0
C275 C 0.32382 0.90816 0.80308 0.0
C276 C 0.31901 0.8841 0.82307 0.0
C277 C 0.34054 0.8779 0.84509 0.0
C278 C 0.36698 0.89566 0.84707 0.0
C279 C 0.46127 0.01659 0.92474 0.0
C280 C 0.47101 0.99514 0.94564 0.0
C281 C 0.44954 0.00811 0.89659 0.0
C282 C 0.44693 0.97805 0.88913 0.0
C283 C 0.45582 0.95662 0.91028 0.0
C284 C 0.46798 0.96507 0.93811 0.0
C285 C 0.43623 0.96862 0.85891 0.0
C286 C 0.41027 0.95001 0.85632 0.0
C287 C 0.45227 0.97665 0.83297 0.0
C288 C 0.47991 0.99611 0.83431 0.0
C289 C 0.50448 0.98783 0.85191 0.0
C290 C 0.53038 0.00646 0.85322 0.0
C291 C 0.53203 0.03331 0.83681 0.0
C292 C 0.50782 0.04153 0.81899 0.0
C293 C 0.48186 0.02299 0.81764 0.0
H294 H 0.5521 0.04771 0.83785 0.0
H295 H 0.2986 0.87026 0.82152 0.0
H296 H 0.58176 0.47232 0.85728 0.0
H297 H 0.56551 0.4839 0.80563 0.0
H298 H 0.56047 0.39053 0.7865 0.0
H299 H 0.57906 0.37946 0.83734 0.0
H300 H 0.58507 0.41836 0.74335 0.0
H301 H 0.49725 0.43228 0.79599 0.0
H302 H 0.46693 0.45225 0.83445 0.0
H303 H 0.48755 0.54079 0.80029 0.0
H304 H 0.51833 0.52139 0.76185 0.0
H305 H 0.50175 0.43269 0.60551 0.0
H306 H 0.5137 0.42094 0.65823 0.0
H307 H 0.54388 0.51224 0.6717 0.0
H308 H 0.53242 0.52418 0.61899 0.0
H309 H 0.50489 0.48498 0.71702 0.0
H310 H 0.5939 0.46817 0.66455 0.0
H311 H 0.62173 0.4458 0.62554 0.0
H312 H 0.59462 0.35867 0.65957 0.0
H313 H 0.56627 0.38054 0.69855 0.0
C314 C 0.57722 0.45443 0.84189 0.0
C315 C 0.58137 0.42505 0.85115 0.0
C316 C 0.56759 0.46094 0.81254 0.0
C317 C 0.56124 0.43803 0.79223 0.0
C318 C 0.56509 0.40859 0.80172 0.0
C319 C 0.57533 0.40221 0.83082 0.0
C320 C 0.5519 0.44473 0.76072 0.0
C321 C 0.56719 0.43254 0.73772 0.0
C322 C 0.5289 0.46364 0.75319 0.0
C323 C 0.51032 0.47539 0.77621 0.0
C324 C 0.49549 0.45603 0.79681 0.0
C325 C 0.4782 0.46725 0.81859 0.0
C326 C 0.47538 0.49778 0.81986 0.0
C327 C 0.48978 0.51715 0.7993 0.0
C328 C 0.50713 0.50606 0.77749 0.0
C329 C 0.51083 0.45029 0.61972 0.0
C330 C 0.51629 0.47933 0.6081 0.0
C331 C 0.51765 0.44352 0.64976 0.0
C332 C 0.52969 0.46575 0.66867 0.0
C333 C 0.53455 0.49486 0.65735 0.0
C334 C 0.52816 0.50156 0.62724 0.0
C335 C 0.53799 0.4585 0.70012 0.0
C336 C 0.52259 0.47065 0.72294 0.0
C337 C 0.56048 0.43914 0.70753 0.0
C338 C 0.57771 0.42599 0.68425 0.0
C339 C 0.59367 0.44424 0.66355 0.0
C340 C 0.60957 0.43165 0.64148 0.0
C341 C 0.60987 0.40083 0.64002 0.0
C342 C 0.59433 0.38254 0.6607 0.0
C343 C 0.57836 0.39502 0.6828 0.0
H344 H 0.6222 0.39112 0.62292 0.0
H345 H 0.46198 0.50642 0.83674 0.0
H346 H 0.95031 0.61946 0.35904 0.0
H347 H 0.97635 0.61082 0.31302 0.0
H348 H 0.91038 0.65686 0.2614 0.0
H349 H 0.88525 0.66605 0.30759 0.0
H350 H 0.95708 0.5777 0.27086 0.0
H351 H 0.93193 0.68253 0.19771 0.0
H352 H 0.93466 0.73703 0.20169 0.0
H353 H 0.99999 0.73147 0.27325 0.0
H354 H 0.99714 0.67706 0.27008 0.0
H355 H 0.94805 0.54041 0.11929 0.0
H356 H 0.94052 0.55777 0.16945 0.0
H357 H 0.01525 0.62151 0.16056 0.0
H358 H 0.02219 0.60499 0.10987 0.0
H359 H 0.97414 0.6472 0.18422 0.0
H360 H 0.01827 0.55682 0.20604 0.0
H361 H 0.02605 0.50353 0.2031 0.0
H362 H 0.93976 0.48154 0.23749 0.0
H363 H 0.93127 0.53472 0.24024 0.0
C364 C 0.94224 0.62856 0.33786 0.0
C365 C 0.91618 0.64359 0.3365 0.0
C366 C 0.95685 0.62347 0.31161 0.0
C367 C 0.94545 0.63323 0.28361 0.0
C368 C 0.92009 0.64961 0.28263 0.0
C369 C 0.90567 0.65485 0.30891 0.0
C370 C 0.95769 0.62338 0.25532 0.0
C371 C 0.96106 0.59298 0.25202 0.0
C372 C 0.96362 0.6432 0.23083 0.0
C373 C 0.96415 0.67577 0.2338 0.0
C374 C 0.94671 0.69299 0.21441 0.0
C375 C 0.9482 0.72385 0.21659 0.0
C376 C 0.96734 0.73773 0.23783 0.0
C377 C 0.98488 0.72075 0.25705 0.0
C378 C 0.98319 0.68988 0.25521 0.0
C379 C 0.96299 0.55802 0.12805 0.0
C380 C 0.98574 0.57129 0.11057 0.0
C381 C 0.95877 0.56783 0.15685 0.0
C382 C 0.97759 0.59067 0.16907 0.0
C383 C 0.00042 0.60386 0.15168 0.0
C384 C 0.00439 0.59436 0.1227 0.0
C385 C 0.97274 0.60146 0.19954 0.0
C386 C 0.97055 0.63197 0.20317 0.0
C387 C 0.96907 0.58183 0.22465 0.0
C388 C 0.97405 0.54978 0.22314 0.0
C389 C 0.00086 0.54062 0.21279 0.0
C390 C 0.00541 0.51043 0.21118 0.0
C391 C 0.98339 0.48916 0.22005 0.0
C392 C 0.95679 0.49804 0.23061 0.0
C393 C 0.95211 0.52821 0.23223 0.0
H394 H 0.98695 0.46579 0.21878 0.0
H395 H 0.96865 0.76165 0.23929 0.0
H396 H 0.23359 0.18062 0.17179 0.0
H397 H 0.27779 0.15428 0.16198 0.0
H398 H 0.22269 0.08583 0.11803 0.0
H399 H 0.17849 0.11183 0.12923 0.0
H400 H 0.26773 0.06178 0.14631 0.0
H401 H 0.25604 0.14404 0.07826 0.0
H402 H 0.24891 0.19628 0.06403 0.0
H403 H 0.33147 0.2232 0.10842 0.0
H404 H 0.33886 0.17114 0.12337 0.0
H405 H 0.40216 0.06631 0.03897 0.0
H406 H 0.35508 0.08314 0.05416 0.0
H407 H 0.37174 0.04913 0.14399 0.0
H408 H 0.41862 0.03142 0.1287 0.0
H409 H 0.34417 0.1229 0.091 0.0
H410 H 0.30648 0.03113 0.17824 0.0
H411 H 0.30968 0.97726 0.18706 0.0
H412 H 0.32031 0.96601 0.09307 0.0
H413 H 0.31676 0.01971 0.08364 0.0
C414 C 0.23114 0.15957 0.16071 0.0
C415 C 0.20308 0.148 0.15119 0.0
C416 C 0.25623 0.14465 0.15493 0.0
C417 C 0.25363 0.11838 0.13869 0.0
C418 C 0.22528 0.10606 0.13053 0.0
C419 C 0.20012 0.12081 0.13682 0.0
C420 C 0.28047 0.10525 0.12811 0.0
C421 C 0.28452 0.07512 0.13431 0.0
C422 C 0.30196 0.12244 0.11162 0.0
C423 C 0.29789 0.15371 0.10214 0.0
C424 C 0.27261 0.16112 0.08511 0.0
C425 C 0.26851 0.19069 0.07692 0.0
C426 C 0.28969 0.21305 0.08536 0.0
C427 C 0.31507 0.20586 0.10193 0.0
C428 C 0.31923 0.17632 0.11026 0.0
C429 C 0.39576 0.06217 0.06193 0.0
C430 C 0.41424 0.04754 0.08263 0.0
C431 C 0.3688 0.07188 0.0706 0.0
C432 C 0.35971 0.06734 0.1002 0.0
C433 C 0.37797 0.05248 0.1209 0.0
C434 C 0.40486 0.04246 0.11214 0.0
C435 C 0.3318 0.07942 0.10956 0.0
C436 C 0.32751 0.10946 0.10309 0.0
C437 C 0.3097 0.06187 0.12489 0.0
C438 C 0.31169 0.02951 0.13031 0.0
C439 C 0.30942 0.01714 0.15945 0.0
C440 C 0.3113 0.98664 0.16456 0.0
C441 C 0.3153 0.96824 0.14066 0.0
C442 C 0.31734 0.9803 0.11158 0.0
C443 C 0.31544 0.01078 0.10635 0.0
H444 H 0.31676 0.94463 0.14466 0.0
H445 H 0.28647 0.23594 0.07902 0.0
H446 H 0.37948 0.93761 0.64425 0.0
H447 H 0.33479 0.9638 0.63162 0.0
H448 H 0.28288 0.89704 0.68181 0.0
H449 H 0.32799 0.87199 0.69541 0.0
H450 H 0.29321 0.94199 0.59765 0.0
H451 H 0.21585 0.92044 0.69868 0.0
H452 H 0.21947 0.9189 0.75387 0.0
H453 H 0.29906 0.97601 0.7518 0.0
H454 H 0.29562 0.97842 0.69662 0.0
H455 H 0.12354 0.94218 0.59382 0.0
H456 H 0.17012 0.93067 0.61939 0.0
H457 H 0.21402 0.00803 0.57757 0.0
H458 H 0.16762 0.01972 0.55179 0.0
H459 H 0.20826 0.96266 0.65908 0.0
H460 H 0.28293 0.98906 0.55898 0.0
H461 H 0.27961 0.99076 0.50372 0.0
H462 H 0.20698 0.92466 0.50505 0.0
H463 H 0.21014 0.92229 0.56026 0.0
C464 C 0.35862 0.92955 0.65363 0.0
C465 C 0.35689 0.90332 0.67113 0.0
C466 C 0.3331 0.94421 0.64621 0.0
C467 C 0.30535 0.93247 0.65573 0.0
C468 C 0.30397 0.90699 0.67467 0.0
C469 C 0.32965 0.89267 0.68249 0.0
C470 C 0.27778 0.94436 0.64261 0.0
C471 C 0.27497 0.94718 0.61126 0.0
C472 C 0.25352 0.95032 0.66016 0.0
C473 C 0.25558 0.94941 0.69343 0.0
C474 C 0.23403 0.93284 0.70997 0.0
C475 C 0.23605 0.93181 0.74127 0.0
C476 C 0.25947 0.94735 0.75632 0.0
C477 C 0.28093 0.96398 0.74011 0.0
C478 C 0.27897 0.96515 0.70881 0.0
C479 C 0.14309 0.95677 0.59 0.0
C480 C 0.14186 0.98176 0.57051 0.0
C481 C 0.16963 0.95026 0.60484 0.0
C482 C 0.19552 0.96842 0.60029 0.0
C483 C 0.19432 0.99361 0.58123 0.0
C484 C 0.16777 0.00022 0.56648 0.0
C485 C 0.22404 0.96023 0.6144 0.0
C486 C 0.22686 0.95793 0.64576 0.0
C487 C 0.24846 0.95486 0.59696 0.0
C488 C 0.24656 0.95579 0.56374 0.0
C489 C 0.26632 0.97484 0.54746 0.0
C490 C 0.26446 0.97592 0.51615 0.0
C491 C 0.24302 0.95791 0.50089 0.0
C492 C 0.22348 0.93869 0.5169 0.0
C493 C 0.22527 0.9375 0.5482 0.0
H494 H 0.2416 0.9588 0.47666 0.0
H495 H 0.261 0.9465 0.78055 0.0
H496 H 0.67951 0.39325 0.90134 0.0
H497 H 0.72778 0.4057 0.92603 0.0
H498 H 0.68449 0.44946 0.99525 0.0
H499 H 0.6362 0.43688 0.97019 0.0
H500 H 0.72714 0.48521 0.9708 0.0
H501 H 0.71947 0.38794 0.01261 0.0
H502 H 0.70971 0.33362 0.0132 0.0
H503 H 0.7822 0.32557 0.95522 0.0
H504 H 0.79206 0.37991 0.95379 0.0
H505 H 0.88854 0.47409 0.03757 0.0
H506 H 0.83703 0.45428 0.03324 0.0
H507 H 0.827 0.50059 0.94806 0.0
H508 H 0.87818 0.52079 0.95231 0.0
H509 H 0.80855 0.41888 0.99282 0.0
H510 H 0.75889 0.52446 0.93973 0.0
H511 H 0.76739 0.57884 0.942 0.0
H512 H 0.80719 0.57 0.03012 0.0
H513 H 0.79855 0.5156 0.02857 0.0
C514 C 0.68049 0.40477 0.92228 0.0
C515 C 0.6546 0.4142 0.93411 0.0
C516 C 0.7079 0.41187 0.93638 0.0
C517 C 0.70972 0.42847 0.96254 0.0
C518 C 0.68356 0.43663 0.97512 0.0
C519 C 0.65612 0.42937 0.96102 0.0
C520 C 0.73903 0.43985 0.97467 0.0
C521 C 0.74487 0.47069 0.97591 0.0
C522 C 0.76197 0.42087 0.98192 0.0
C523 C 0.75641 0.38808 0.98297 0.0
C524 C 0.73322 0.37462 0.99981 0.0
C525 C 0.72767 0.34381 0.00031 0.0
C526 C 0.74531 0.32615 0.98424 0.0
C527 C 0.76856 0.33928 0.96767 0.0
C528 C 0.77416 0.3701 0.96703 0.0
C529 C 0.87535 0.48019 0.01796 0.0
C530 C 0.88751 0.49917 0.99534 0.0
C531 C 0.84594 0.46874 0.01551 0.0
C532 C 0.82809 0.4762 0.99051 0.0
C533 C 0.84022 0.49493 0.96781 0.0
C534 C 0.86956 0.5064 0.97024 0.0
C535 C 0.79684 0.46423 0.98774 0.0
C536 C 0.79069 0.43334 0.9882 0.0
C537 C 0.77342 0.48314 0.98259 0.0
C538 C 0.77824 0.51591 0.98393 0.0
C539 C 0.76929 0.53412 0.95967 0.0
C540 C 0.77417 0.56495 0.96081 0.0
C541 C 0.78789 0.57786 0.98615 0.0
C542 C 0.79665 0.55997 0.01046 0.0
C543 C 0.7918 0.52913 0.00945 0.0
H544 H 0.79168 0.60173 0.98697 0.0
H545 H 0.74098 0.3023 0.98464 0.0
H546 H 0.81244 0.66114 0.40273 0.0
H547 H 0.76537 0.64064 0.42253 0.0
H548 H 0.79765 0.55296 0.42452 0.0
H549 H 0.84542 0.57377 0.40595 0.0
H550 H 0.7382 0.5603 0.39602 0.0
H551 H 0.79543 0.58093 0.48697 0.0
H552 H 0.82728 0.61282 0.52026 0.0
H553 H 0.75921 0.67422 0.52323 0.0
H554 H 0.72711 0.64293 0.48952 0.0
H555 H 0.61375 0.49313 0.46672 0.0
H556 H 0.66491 0.50785 0.4546 0.0
H557 H 0.65201 0.5976 0.47939 0.0
H558 H 0.6014 0.58227 0.49358 0.0
H559 H 0.70408 0.58677 0.4955 0.0
H560 H 0.64855 0.57217 0.40318 0.0
H561 H 0.61578 0.54497 0.36669 0.0
H562 H 0.67848 0.47823 0.36222 0.0
H563 H 0.71146 0.50486 0.39898 0.0
C564 C 0.8096 0.63759 0.40788 0.0
C565 C 0.83251 0.61901 0.40317 0.0
C566 C 0.78274 0.6259 0.41897 0.0
C567 C 0.77822 0.59537 0.42513 0.0
C568 C 0.80084 0.5766 0.4199 0.0
C569 C 0.82794 0.58841 0.40923 0.0
C570 C 0.74962 0.5832 0.43671 0.0
C571 C 0.73084 0.56557 0.41797 0.0
C572 C 0.73984 0.59108 0.46489 0.0
C573 C 0.75896 0.60969 0.48551 0.0
C574 C 0.78733 0.60135 0.49452 0.0
C575 C 0.80542 0.6193 0.5135 0.0
C576 C 0.7953 0.64556 0.5238 0.0
C577 C 0.76703 0.65388 0.51521 0.0
C578 C 0.74887 0.63603 0.4962 0.0
C579 C 0.62201 0.51593 0.46983 0.0
C580 C 0.60369 0.53667 0.48084 0.0
C581 C 0.65117 0.5244 0.46269 0.0
C582 C 0.66217 0.55407 0.46518 0.0
C583 C 0.64408 0.57461 0.47711 0.0
C584 C 0.61516 0.56589 0.48517 0.0
C585 C 0.69219 0.56387 0.45472 0.0
C586 C 0.71133 0.58117 0.47362 0.0
C587 C 0.70203 0.5563 0.4263 0.0
C588 C 0.68232 0.54035 0.40405 0.0
C589 C 0.65526 0.5516 0.39455 0.0
C590 C 0.63666 0.5363 0.3738 0.0
C591 C 0.64501 0.50985 0.3622 0.0
C592 C 0.67202 0.4987 0.37126 0.0
C593 C 0.69069 0.51389 0.39203 0.0
H594 H 0.63058 0.49803 0.34615 0.0
H595 H 0.80934 0.65944 0.53849 0.0
H596 H 0.08814 0.20422 0.1305 0.0
H597 H 0.06362 0.2484 0.11294 0.0
H598 H 0.14854 0.29769 0.10949 0.0
H599 H 0.17259 0.25414 0.12967 0.0
H600 H 0.11292 0.33085 0.13129 0.0
H601 H 0.1064 0.2703 0.04487 0.0
H602 H 0.09407 0.22531 0.01589 0.0
H603 H 0.00207 0.23007 0.03396 0.0
H604 H 0.01391 0.2749 0.06339 0.0
H605 H 0.07371 0.44463 0.02654 0.0
H606 H 0.09215 0.39861 0.04748 0.0
H607 H 0.0066 0.37396 0.08339 0.0
H608 H 0.98795 0.42058 0.06302 0.0
H609 H 0.03885 0.32853 0.04686 0.0
H610 H 0.04879 0.39287 0.13193 0.0
H611 H 0.06431 0.4398 0.15646 0.0
H612 H 0.15461 0.42928 0.13508 0.0
H613 H 0.13953 0.38249 0.11001 0.0
C614 C 0.10143 0.2246 0.12617 0.0
C615 C 0.13221 0.22583 0.13135 0.0
C616 C 0.08749 0.24975 0.11575 0.0
C617 C 0.10421 0.27638 0.10934 0.0
C618 C 0.13509 0.27746 0.11419 0.0
C619 C 0.14891 0.2525 0.12532 0.0
C620 C 0.08958 0.30333 0.09834 0.0
C621 C 0.09696 0.33024 0.11263 0.0
C622 C 0.06827 0.3027 0.07431 0.0
C623 C 0.06109 0.27577 0.0566 0.0
C624 C 0.08357 0.26162 0.04285 0.0
C625 C 0.07666 0.23617 0.02631 0.0
C626 C 0.04732 0.22479 0.02316 0.0
C627 C 0.0248 0.23889 0.03646 0.0
C628 C 0.03159 0.26433 0.05305 0.0
C629 C 0.05872 0.42943 0.03881 0.0
C630 C 0.02935 0.4362 0.04312 0.0
C631 C 0.06934 0.40321 0.05079 0.0
C632 C 0.05071 0.38307 0.06693 0.0
C633 C 0.02123 0.38937 0.07094 0.0
C634 C 0.01069 0.41597 0.05942 0.0
C635 C 0.06248 0.35558 0.0797 0.0
C636 C 0.05463 0.32876 0.06569 0.0
C637 C 0.08383 0.35638 0.10348 0.0
C638 C 0.09298 0.38432 0.11886 0.0
C639 C 0.07191 0.40069 0.13223 0.0
C640 C 0.08064 0.42724 0.14628 0.0
C641 C 0.11042 0.43755 0.14726 0.0
C642 C 0.13155 0.42128 0.13428 0.0
C643 C 0.12292 0.39473 0.12018 0.0
H644 H 0.11713 0.45811 0.15813 0.0
H645 H 0.04201 0.20509 0.01034 0.0
H646 H 0.5703 0.37836 0.96923 0.0
H647 H 0.56373 0.32906 0.99376 0.0
H648 H 0.63376 0.29878 0.94171 0.0
H649 H 0.63965 0.34791 0.91689 0.0
H650 H 0.58493 0.26362 0.93534 0.0
H651 H 0.6426 0.30396 0.01679 0.0
H652 H 0.6578 0.34006 0.05553 0.0
H653 H 0.57425 0.32292 0.09744 0.0
H654 H 0.55835 0.28701 0.05865 0.0
H655 H 0.58426 0.13278 0.05126 0.0
H656 H 0.59973 0.18377 0.037 0.0
H657 H 0.51962 0.19027 0.98289 0.0
H658 H 0.5041 0.13887 0.99662 0.0
H659 H 0.5784 0.23644 0.04341 0.0
H660 H 0.53546 0.23109 0.9199 0.0
H661 H 0.52562 0.19399 0.88078 0.0
H662 H 0.59 0.13936 0.92275 0.0
H663 H 0.60051 0.1763 0.96185 0.0
C664 C 0.58473 0.36128 0.96383 0.0
C665 C 0.60546 0.36658 0.94142 0.0
C666 C 0.58106 0.33322 0.97776 0.0
C667 C 0.59822 0.31021 0.96948 0.0
C668 C 0.62025 0.31618 0.94837 0.0
C669 C 0.62385 0.34421 0.93447 0.0
C670 C 0.59102 0.27933 0.98033 0.0
C671 C 0.58362 0.25768 0.95899 0.0
C672 C 0.58968 0.27149 0.01116 0.0
C673 C 0.59918 0.29296 0.03464 0.0
C674 C 0.62736 0.30805 0.03412 0.0
C675 C 0.63612 0.32845 0.05612 0.0
C676 C 0.61698 0.33382 0.0789 0.0
C677 C 0.58905 0.31875 0.07976 0.0
C678 C 0.58016 0.29834 0.05779 0.0
C679 C 0.56978 0.14501 0.0364 0.0
C680 C 0.54301 0.13156 0.02484 0.0
C681 C 0.57865 0.17427 0.02841 0.0
C682 C 0.56103 0.19073 0.00863 0.0
C683 C 0.53379 0.17779 0.99785 0.0
C684 C 0.52491 0.14843 0.00578 0.0
C685 C 0.57178 0.22096 0.99838 0.0
C686 C 0.57978 0.24244 0.01979 0.0
C687 C 0.57442 0.22853 0.96759 0.0
C688 C 0.56852 0.20633 0.94396 0.0
C689 C 0.54758 0.21121 0.9207 0.0
C690 C 0.54188 0.1902 0.89855 0.0
C691 C 0.5571 0.16429 0.89934 0.0
C692 C 0.57814 0.15938 0.92222 0.0
C693 C 0.58396 0.18033 0.94441 0.0
H694 H 0.55263 0.14804 0.88218 0.0
H695 H 0.6238 0.34963 0.09592 0.0
H696 H 0.88298 0.71806 0.37416 0.0
H697 H 0.91189 0.76367 0.38764 0.0
H698 H 0.98714 0.7128 0.41072 0.0
H699 H 0.95754 0.66695 0.39761 0.0
H700 H 0.97414 0.7476 0.45561 0.0
H701 H 0.98782 0.76319 0.34989 0.0
H702 H 0.97183 0.7667 0.29678 0.0
H703 H 0.91655 0.8368 0.31558 0.0
H704 H 0.93193 0.83361 0.36898 0.0
H705 H 0.05077 0.88369 0.50067 0.0
H706 H 0.0374 0.83596 0.47745 0.0
H707 H 0.96023 0.87256 0.43523 0.0
H708 H 0.97449 0.92043 0.45687 0.0
H709 H 0.98303 0.84253 0.39703 0.0
H710 H 0.95963 0.82301 0.5006 0.0
H711 H 0.96993 0.81995 0.55513 0.0
H712 H 0.03601 0.75814 0.54227 0.0
H713 H 0.02633 0.76111 0.48761 0.0
C714 C 0.90599 0.71693 0.38122 0.0
C715 C 0.91832 0.68938 0.38471 0.0
C716 C 0.92253 0.74288 0.38888 0.0
C717 C 0.95182 0.74173 0.39998 0.0
C718 C 0.96464 0.71422 0.40207 0.0
C719 C 0.94796 0.68816 0.39437 0.0
C720 C 0.96758 0.7688 0.41229 0.0
C721 C 0.97674 0.76824 0.44263 0.0
C722 C 0.97005 0.79594 0.39565 0.0
C723 C 0.96096 0.79805 0.36348 0.0
C724 C 0.97213 0.77925 0.34275 0.0
C725 C 0.96318 0.78119 0.31257 0.0
C726 C 0.94316 0.80187 0.30277 0.0
C727 C 0.93207 0.82077 0.32317 0.0
C728 C 0.94095 0.81896 0.3534 0.0
C729 C 0.03094 0.88139 0.48648 0.0
C730 C 0.01368 0.90571 0.48052 0.0
C731 C 0.02322 0.8541 0.4733 0.0
C732 C 0.99759 0.85044 0.45475 0.0
C733 C 0.98022 0.87475 0.44922 0.0
C734 C 0.98832 0.90212 0.4617 0.0
C735 C 0.98866 0.82163 0.44067 0.0
C736 C 0.9809 0.82183 0.40996 0.0
C737 C 0.98666 0.79435 0.4572 0.0
C738 C 0.99253 0.79258 0.49002 0.0
C739 C 0.97652 0.80895 0.5094 0.0
C740 C 0.98221 0.8072 0.54032 0.0
C741 C 0.00369 0.78895 0.55215 0.0
C742 C 0.01944 0.77233 0.53307 0.0
C743 C 0.01385 0.77403 0.50213 0.0
H744 H 0.00806 0.78761 0.57609 0.0
H745 H 0.93628 0.80326 0.27936 0.0
H746 H 0.41929 0.7944 0.68335 0.0
H747 H 0.43384 0.75105 0.65695 0.0
H748 H 0.43428 0.80199 0.57383 0.0
H749 H 0.42149 0.84589 0.60051 0.0
H750 H 0.39615 0.73642 0.58522 0.0
H751 H 0.4922 0.79381 0.58297 0.0
H752 H 0.53383 0.82252 0.60776 0.0
H753 H 0.54869 0.74846 0.66759 0.0
H754 H 0.5068 0.71949 0.64341 0.0
H755 H 0.44536 0.624 0.49444 0.0
H756 H 0.43538 0.6718 0.51509 0.0
H757 H 0.48566 0.65 0.59565 0.0
H758 H 0.49694 0.6032 0.57449 0.0
H759 H 0.49839 0.70373 0.58325 0.0
H760 H 0.40622 0.64558 0.58936 0.0
H761 H 0.36296 0.61462 0.57072 0.0
H762 H 0.33817 0.68583 0.51126 0.0
H763 H 0.38152 0.71709 0.5293 0.0
C764 C 0.42324 0.79649 0.65961 0.0
C765 C 0.41933 0.82342 0.64392 0.0
C766 C 0.43124 0.77173 0.64454 0.0
C767 C 0.43501 0.77345 0.61352 0.0
C768 C 0.43139 0.80033 0.5978 0.0
C769 C 0.424 0.82526 0.61297 0.0
C770 C 0.44189 0.7468 0.59748 0.0
C771 C 0.41852 0.72939 0.58424 0.0
C772 C 0.47091 0.73735 0.59728 0.0
C773 C 0.49617 0.75465 0.61164 0.0
C774 C 0.50414 0.78379 0.60162 0.0
C775 C 0.52783 0.80007 0.61551 0.0
C776 C 0.54383 0.78736 0.6393 0.0
C777 C 0.53624 0.7583 0.64919 0.0
C778 C 0.51254 0.74193 0.6354 0.0
C779 C 0.4543 0.62952 0.51652 0.0
C780 C 0.47193 0.60988 0.53284 0.0
C781 C 0.44846 0.65677 0.5284 0.0
C782 C 0.45938 0.66445 0.55719 0.0
C783 C 0.47705 0.64478 0.57338 0.0
C784 C 0.48343 0.61794 0.56127 0.0
C785 C 0.45258 0.69286 0.57068 0.0
C786 C 0.47596 0.71065 0.58371 0.0
C787 C 0.42337 0.70227 0.5713 0.0
C788 C 0.39729 0.68354 0.56043 0.0
C789 C 0.39166 0.65455 0.57215 0.0
C790 C 0.36711 0.63697 0.56172 0.0
C791 C 0.34788 0.64822 0.53976 0.0
C792 C 0.35312 0.67712 0.52824 0.0
C793 C 0.37766 0.69479 0.53856 0.0
H794 H 0.32888 0.63457 0.53171 0.0
H795 H 0.56217 0.8 0.65002 0.0
H796 H 0.96022 0.96145 0.87701 0.0
H797 H 0.98095 0.96615 0.82678 0.0
H798 H 0.91197 0.90371 0.79399 0.0
H799 H 0.89132 0.89941 0.8442 0.0
H800 H 0.00104 0.92888 0.78434 0.0
H801 H 0.88454 0.93369 0.72901 0.0
H802 H 0.83446 0.94595 0.74237 0.0
H803 H 0.87186 0.00474 0.80941 0.0
H804 H 0.9221 0.99301 0.79631 0.0
H805 H 0.01415 0.9334 0.62595 0.0
H806 H 0.99859 0.92022 0.67672 0.0
H807 H 0.97116 0.00888 0.68667 0.0
H808 H 0.98606 0.02209 0.63579 0.0
H809 H 0.93126 0.97008 0.70843 0.0
H810 H 0.03676 0.98659 0.71802 0.0
H811 H 0.08865 0.97952 0.70666 0.0
H812 H 0.07691 0.88761 0.73373 0.0
H813 H 0.0248 0.89405 0.74486 0.0
C814 C 0.95019 0.94821 0.85911 0.0
C815 C 0.92447 0.93001 0.86405 0.0
C816 C 0.96194 0.95082 0.83058 0.0
C817 C 0.94781 0.93547 0.80667 0.0
C818 C 0.92308 0.91585 0.81213 0.0
C819 C 0.91142 0.91323 0.84068 0.0
C820 C 0.95688 0.94248 0.77561 0.0
C821 C 0.98579 0.93767 0.76763 0.0
C822 C 0.93715 0.95468 0.75412 0.0
C823 C 0.90703 0.96222 0.76187 0.0
C824 C 0.88205 0.94929 0.74654 0.0
C825 C 0.85364 0.95611 0.7541 0.0
C826 C 0.84998 0.976 0.77682 0.0
C827 C 0.87472 0.98921 0.79194 0.0
C828 C 0.90315 0.98244 0.78449 0.0
C829 C 0.00471 0.95009 0.63887 0.0
C830 C 0.00144 0.97885 0.62677 0.0
C831 C 0.99596 0.94254 0.66797 0.0
C832 C 0.98406 0.96367 0.68563 0.0
C833 C 0.9803 0.99221 0.67345 0.0
C834 C 0.98889 0.99974 0.64434 0.0
C835 C 0.97543 0.95615 0.71683 0.0
C836 C 0.94652 0.96094 0.72492 0.0
C837 C 0.99545 0.94464 0.73856 0.0
C838 C 0.02679 0.94073 0.73196 0.0
C839 C 0.04517 0.96482 0.72132 0.0
C840 C 0.07464 0.96093 0.71496 0.0
C841 C 0.08605 0.93311 0.71938 0.0
C842 C 0.06803 0.90914 0.73026 0.0
C843 C 0.03854 0.91289 0.73661 0.0
H844 H 0.10886 0.93015 0.71445 0.0
H845 H 0.82797 0.98124 0.78266 0.0
H846 H 0.6133 0.06935 0.40408 0.0
H847 H 0.60249 0.04628 0.35573 0.0
H848 H 0.67803 0.09621 0.31887 0.0
H849 H 0.68781 0.1202 0.36693 0.0
H850 H 0.6303 0.10693 0.28767 0.0
H851 H 0.67229 0.0185 0.32464 0.0
H852 H 0.68019 0.97667 0.36005 0.0
H853 H 0.58922 0.94509 0.34791 0.0
H854 H 0.58055 0.98704 0.31286 0.0
H855 H 0.60418 0.05456 0.14235 0.0
H856 H 0.6271 0.06153 0.19191 0.0
H857 H 0.54893 0.0206 0.23238 0.0
H858 H 0.52574 0.01307 0.18255 0.0
H859 H 0.60106 0.00313 0.26078 0.0
H860 H 0.55837 0.0941 0.22885 0.0
H861 H 0.54968 0.13631 0.19412 0.0
H862 H 0.64246 0.163 0.19787 0.0
H863 H 0.65176 0.12068 0.23232 0.0
C864 C 0.62808 0.07452 0.38584 0.0
C865 C 0.65126 0.09651 0.38901 0.0
C866 C 0.62202 0.06129 0.35826 0.0
C867 C 0.6394 0.06955 0.33354 0.0
C868 C 0.66426 0.08954 0.33758 0.0
C869 C 0.67009 0.10298 0.36509 0.0
C870 C 0.629 0.06112 0.30286 0.0
C871 C 0.62462 0.08412 0.28167 0.0
C872 C 0.62051 0.03148 0.29526 0.0
C873 C 0.62571 0.00609 0.31623 0.0
C874 C 0.65389 0.00279 0.32967 0.0
C875 C 0.65852 0.97903 0.34967 0.0
C876 C 0.63523 0.95827 0.35624 0.0
C877 C 0.60725 0.9612 0.3428 0.0
C878 C 0.60246 0.98496 0.32284 0.0
C879 C 0.59177 0.0469 0.1617 0.0
C880 C 0.56291 0.03355 0.15842 0.0
C881 C 0.60499 0.05089 0.19006 0.0
C882 C 0.58961 0.04189 0.21583 0.0
C883 C 0.56118 0.0277 0.21274 0.0
C884 C 0.54789 0.0236 0.18427 0.0
C885 C 0.60267 0.04894 0.24589 0.0
C886 C 0.60727 0.02581 0.26687 0.0
C887 C 0.61138 0.07848 0.25347 0.0
C888 C 0.6058 0.10406 0.23292 0.0
C889 C 0.57695 0.10885 0.22209 0.0
C890 C 0.5719 0.13281 0.20249 0.0
C891 C 0.59551 0.15228 0.19373 0.0
C892 C 0.6242 0.14787 0.20464 0.0
C893 C 0.62937 0.12392 0.22422 0.0
H894 H 0.59156 0.17081 0.17855 0.0
H895 H 0.63888 0.93988 0.37171 0.0
H896 H 0.38805 0.62402 0.16417 0.0
H897 H 0.40467 0.61325 0.21597 0.0
H898 H 0.48716 0.58578 0.18414 0.0
H899 H 0.47029 0.59683 0.13218 0.0
H900 H 0.45857 0.54423 0.22271 0.0
H901 H 0.4883 0.64731 0.2205 0.0
H902 H 0.48203 0.70049 0.21049 0.0
H903 H 0.41329 0.69824 0.27445 0.0
H904 H 0.4187 0.64487 0.28441 0.0
H905 H 0.51528 0.5197 0.37073 0.0
H906 H 0.5094 0.53793 0.31907 0.0
H907 H 0.42863 0.57664 0.3408 0.0
H908 H 0.43462 0.55902 0.39276 0.0
H909 H 0.46185 0.61419 0.30639 0.0
H910 H 0.42764 0.51103 0.30403 0.0
H911 H 0.43122 0.45721 0.31262 0.0
H912 H 0.50639 0.45945 0.25645 0.0
H913 H 0.50348 0.5134 0.24783 0.0
C914 C 0.40985 0.61609 0.1685 0.0
C915 C 0.42799 0.61101 0.14466 0.0
C916 C 0.41937 0.61005 0.19791 0.0
C917 C 0.44717 0.59879 0.20384 0.0
C918 C 0.46566 0.59448 0.17997 0.0
C919 C 0.45618 0.60085 0.15051 0.0
C920 C 0.45581 0.58969 0.23481 0.0
C921 C 0.45995 0.55962 0.24096 0.0
C922 C 0.45678 0.60971 0.25858 0.0
C923 C 0.45378 0.64198 0.25305 0.0
C924 C 0.47169 0.65808 0.23228 0.0
C925 C 0.4683 0.68828 0.22662 0.0
C926 C 0.44725 0.70273 0.2418 0.0
C927 C 0.42958 0.68701 0.26271 0.0
C928 C 0.43282 0.65678 0.26839 0.0
C929 C 0.49618 0.53201 0.36456 0.0
C930 C 0.47531 0.53773 0.3859 0.0
C931 C 0.49286 0.5424 0.33498 0.0
C932 C 0.46843 0.55841 0.326 0.0
C933 C 0.44768 0.56437 0.34726 0.0
C934 C 0.45106 0.55413 0.37692 0.0
C935 C 0.46425 0.56861 0.29437 0.0
C936 C 0.46088 0.59887 0.28811 0.0
C937 C 0.46379 0.54873 0.27044 0.0
C938 C 0.46555 0.5163 0.27557 0.0
C939 C 0.44508 0.50009 0.29371 0.0
C940 C 0.44696 0.46956 0.29855 0.0
C941 C 0.46907 0.45494 0.28517 0.0
C942 C 0.4893 0.47082 0.26685 0.0
C943 C 0.48754 0.50136 0.26196 0.0
H944 H 0.47049 0.4313 0.28893 0.0
H945 H 0.44465 0.72611 0.23738 0.0
H946 H 0.10323 0.41458 0.6922 0.0
H947 H 0.08281 0.43128 0.73846 0.0
H948 H 0.02496 0.48649 0.68627 0.0
H949 H 0.04592 0.46971 0.63987 0.0
H950 H 0.05079 0.51485 0.73588 0.0
H951 H 0.99674 0.42356 0.71523 0.0
H952 H 0.99025 0.37098 0.70176 0.0
H953 H 0.03836 0.34597 0.78199 0.0
H954 H 0.04567 0.39848 0.79567 0.0
H955 H 0.97559 0.53643 0.87218 0.0
H956 H 0.98355 0.52333 0.82035 0.0
H957 H 0.0484 0.46293 0.8516 0.0
H958 H 0.04064 0.47573 0.90318 0.0
H959 H 0.01011 0.43877 0.80854 0.0
H960 H 0.0701 0.53034 0.82459 0.0
H961 H 0.07831 0.58302 0.83736 0.0
H962 H 0.0187 0.60728 0.76536 0.0
H963 H 0.00983 0.55463 0.75242 0.0
C964 C 0.08626 0.43039 0.69087 0.0
C965 C 0.07589 0.44095 0.66296 0.0
C966 C 0.07454 0.43981 0.71708 0.0
C967 C 0.05206 0.45978 0.71573 0.0
C968 C 0.0422 0.47098 0.68774 0.0
C969 C 0.05401 0.46147 0.66141 0.0
C970 C 0.03886 0.4684 0.74378 0.0
C971 C 0.04127 0.49833 0.75152 0.0
C972 C 0.0267 0.44675 0.76422 0.0
C973 C 0.02189 0.41502 0.75639 0.0
C974 C 0.0061 0.40688 0.72992 0.0
C975 C 0.00227 0.37708 0.72225 0.0
C976 C 0.01391 0.35515 0.741 0.0
C977 C 0.02935 0.36298 0.76749 0.0
C978 C 0.03333 0.39277 0.77523 0.0
C979 C 0.9914 0.52022 0.86801 0.0
C980 C 0.00757 0.50721 0.89182 0.0
C981 C 0.99598 0.51285 0.8384 0.0
C982 C 0.01669 0.4923 0.83218 0.0
C983 C 0.03229 0.47882 0.85594 0.0
C984 C 0.0279 0.48628 0.88542 0.0
C985 C 0.02287 0.48508 0.801 0.0
C986 C 0.01907 0.45537 0.79266 0.0
C987 C 0.03368 0.50693 0.78003 0.0
C988 C 0.03901 0.53854 0.7878 0.0
C989 C 0.05853 0.54688 0.81167 0.0
C990 C 0.06335 0.57674 0.8189 0.0
C991 C 0.04896 0.59847 0.80225 0.0
C992 C 0.02978 0.59041 0.77828 0.0
C993 C 0.02486 0.56057 0.77098 0.0
H994 H 0.05272 0.62158 0.80788 0.0
H995 H 0.01092 0.33209 0.73502 0.0
H996 H 0.82316 0.93768 0.89312 0.0
H997 H 0.77546 0.95276 0.90957 0.0
H998 H 0.81916 0.99167 0.98779 0.0
H999 H 0.86677 0.97559 0.97141 0.0
H1000 H 0.77189 0.95932 0.00325 0.0
H1001 H 0.79192 0.0348 0.92867 0.0
H1002 H 0.80563 0.0555 0.87901 0.0
H1003 H 0.729 0.00951 0.83879 0.0
H1004 H 0.71506 0.98814 0.88816 0.0
H1005 H 0.6449 0.03056 0.04523 0.0
H1006 H 0.694 0.0232 0.027 0.0
H1007 H 0.6548 0.96836 0.95696 0.0
H1008 H 0.60542 0.97537 0.97518 0.0
H1009 H 0.70039 0.01206 0.93807 0.0
H1010 H 0.68296 0.93464 0.01357 0.0
H1011 H 0.66984 0.91513 0.06385 0.0
H1012 H 0.74284 0.96768 0.10297 0.0
H1013 H 0.75615 0.98785 0.05292 0.0
C1014 C 0.82237 0.94984 0.91355 0.0
C1015 C 0.84819 0.95587 0.93102 0.0
C1016 C 0.7953 0.95853 0.92291 0.0
C1017 C 0.79379 0.97375 0.94971 0.0
C1018 C 0.81984 0.98007 0.96699 0.0
C1019 C 0.84691 0.9711 0.95769 0.0
C1020 C 0.76475 0.98145 0.96044 0.0
C1021 C 0.75652 0.97136 0.98917 0.0
C1022 C 0.74443 0.99664 0.94186 0.0
C1023 C 0.75258 0.00967 0.91212 0.0
C1024 C 0.7781 0.02892 0.90922 0.0
C1025 C 0.7859 0.0408 0.88111 0.0
C1026 C 0.76823 0.03378 0.85575 0.0
C1027 C 0.74268 0.01492 0.85846 0.0
C1028 C 0.7348 0.00294 0.8865 0.0
C1029 C 0.64665 0.017 0.02588 0.0
C1030 C 0.62126 0.00343 0.01171 0.0
C1031 C 0.67473 0.01282 0.01554 0.0
C1032 C 0.67791 0.99518 0.99076 0.0
C1033 C 0.65267 0.98208 0.97613 0.0
C1034 C 0.62455 0.98597 0.98667 0.0
C1035 C 0.70772 0.98976 0.98064 0.0
C1036 C 0.71599 0.00027 0.9521 0.0
C1037 C 0.72822 0.97522 0.99946 0.0
C1038 C 0.72035 0.963 0.02954 0.0
C1039 C 0.69606 0.94224 0.03292 0.0
C1040 C 0.68862 0.93102 0.06137 0.0
C1041 C 0.70544 0.94022 0.0866 0.0
C1042 C 0.7298 0.96061 0.08341 0.0
C1043 C 0.73731 0.97192 0.05501 0.0
H1044 H 0.69965 0.93151 0.1086 0.0
H1045 H 0.77432 0.04299 0.83401 0.0
H1046 H 0.72656 0.15443 0.41442 0.0
H1047 H 0.7764 0.13657 0.42007 0.0
H1048 H 0.73901 0.05141 0.45184 0.0
H1049 H 0.68906 0.06938 0.44533 0.0
H1050 H 0.80364 0.122 0.4691 0.0
H1051 H 0.78666 0.99736 0.43927 0.0
H1052 H 0.75604 0.96584 0.40452 0.0
H1053 H 0.74548 0.04083 0.34473 0.0
H1054 H 0.77648 0.07267 0.3788 0.0
H1055 H 0.92222 0.0472 0.53264 0.0
H1056 H 0.87261 0.06058 0.51705 0.0
H1057 H 0.89249 0.04823 0.42472 0.0
H1058 H 0.94192 0.03383 0.44026 0.0
H1059 H 0.83805 0.02757 0.43382 0.0
H1060 H 0.89419 0.11836 0.45485 0.0
H1061 H 0.92672 0.15297 0.48472 0.0
H1062 H 0.86188 0.15145 0.55268 0.0
H1063 H 0.82911 0.11651 0.52339 0.0
C1064 C 0.72917 0.13179 0.42216 0.0
C1065 C 0.70434 0.11323 0.42969 0.0
C1066 C 0.75752 0.1216 0.42547 0.0
C1067 C 0.76157 0.09265 0.43649 0.0
C1068 C 0.73653 0.0737 0.44295 0.0
C1069 C 0.70807 0.08388 0.43931 0.0
C1070 C 0.792 0.08323 0.44319 0.0
C1071 C 0.81111 0.10136 0.46129 0.0
C1072 C 0.80204 0.05655 0.43266 0.0
C1073 C 0.78369 0.03746 0.41178 0.0
C1074 C 0.77793 0.0071 0.41864 0.0
C1075 C 0.7605 0.98917 0.39906 0.0
C1076 C 0.74879 0.00134 0.37247 0.0
C1077 C 0.75451 0.03145 0.36537 0.0
C1078 C 0.772 0.04945 0.38482 0.0
C1079 C 0.91608 0.0473 0.509 0.0
C1080 C 0.93619 0.0397 0.48768 0.0
C1081 C 0.88768 0.05502 0.5001 0.0
C1082 C 0.87891 0.05593 0.46963 0.0
C1083 C 0.89871 0.04774 0.44834 0.0
C1084 C 0.92704 0.03964 0.45727 0.0
C1085 C 0.84941 0.06619 0.46003 0.0
C1086 C 0.8305 0.04822 0.44151 0.0
C1087 C 0.83975 0.09347 0.46943 0.0
C1088 C 0.85932 0.11462 0.48704 0.0
C1089 C 0.88696 0.12526 0.47625 0.0
C1090 C 0.90543 0.14495 0.49307 0.0
C1091 C 0.8964 0.15435 0.52061 0.0
C1092 C 0.86885 0.14413 0.53136 0.0
C1093 C 0.85031 0.1244 0.51465 0.0
H1094 H 0.91074 0.16959 0.5336 0.0
H1095 H 0.73538 0.98741 0.3573 0.0
H1096 H 0.35975 0.56579 0.04336 0.0
H1097 H 0.30762 0.56024 0.02564 0.0
H1098 H 0.29284 0.6457 0.06092 0.0
H1099 H 0.34456 0.65076 0.07895 0.0
H1100 H 0.25251 0.60349 0.07949 0.0
H1101 H 0.29451 0.63663 0.98615 0.0
H1102 H 0.32846 0.63557 0.94431 0.0
H1103 H 0.29268 0.54806 0.92296 0.0
H1104 H 0.2588 0.54842 0.96498 0.0
H1105 H 0.1057 0.61307 0.02548 0.0
H1106 H 0.15896 0.62453 0.03222 0.0
H1107 H 0.17575 0.54063 0.99479 0.0
H1108 H 0.12269 0.52926 0.98733 0.0
H1109 H 0.21526 0.58335 0.97592 0.0
H1110 H 0.17596 0.54849 0.07025 0.0
H1111 H 0.14247 0.54806 0.11263 0.0
H1112 H 0.17399 0.63723 0.13271 0.0
H1113 H 0.20741 0.63832 0.09017 0.0
C1114 C 0.34526 0.5834 0.04679 0.0
C1115 C 0.3558 0.60874 0.06215 0.0
C1116 C 0.31569 0.58035 0.03667 0.0
C1117 C 0.29647 0.60269 0.04182 0.0
C1118 C 0.30732 0.62828 0.05665 0.0
C1119 C 0.33676 0.63126 0.06674 0.0
C1120 C 0.26455 0.5986 0.03377 0.0
C1121 C 0.24434 0.59958 0.05675 0.0
C1122 C 0.25403 0.59266 0.00426 0.0
C1123 C 0.27431 0.59244 0.9789 0.0
C1124 C 0.29405 0.61706 0.9727 0.0
C1125 C 0.31325 0.6166 0.94891 0.0
C1126 C 0.31278 0.59174 0.93103 0.0
C1127 C 0.29305 0.5673 0.93685 0.0
C1128 C 0.27382 0.56762 0.96063 0.0
C1129 C 0.12072 0.59717 0.01843 0.0
C1130 C 0.10991 0.57011 0.00617 0.0
C1131 C 0.15114 0.60373 0.02234 0.0
C1132 C 0.17126 0.5832 0.01445 0.0
C1133 C 0.1606 0.55675 0.00108 0.0
C1134 C 0.13022 0.55026 0.99696 0.0
C1135 C 0.20328 0.58846 0.02163 0.0
C1136 C 0.22347 0.58752 0.99859 0.0
C1137 C 0.2139 0.59425 0.05116 0.0
C1138 C 0.19394 0.59359 0.07684 0.0
C1139 C 0.17559 0.56808 0.08357 0.0
C1140 C 0.15665 0.56771 0.10764 0.0
C1141 C 0.15604 0.59263 0.1253 0.0
C1142 C 0.17444 0.61796 0.11898 0.0
C1143 C 0.1934 0.61846 0.09491 0.0
H1144 H 0.14135 0.59231 0.14392 0.0
H1145 H 0.32766 0.59143 0.91263 0.0
H1146 H 0.17549 0.42179 0.63444 0.0
H1147 H 0.22372 0.42916 0.6111 0.0
H1148 H 0.18093 0.42029 0.52379 0.0
H1149 H 0.13248 0.41324 0.54741 0.0
H1150 H 0.23624 0.39305 0.52999 0.0
H1151 H 0.19559 0.48646 0.54515 0.0
H1152 H 0.17219 0.52313 0.57469 0.0
H1153 H 0.24744 0.52761 0.63584 0.0
H1154 H 0.27109 0.49058 0.60692 0.0
H1155 H 0.36503 0.51157 0.48723 0.0
H1156 H 0.31321 0.4974 0.49741 0.0
H1157 H 0.33914 0.41731 0.54307 0.0
H1158 H 0.39083 0.43102 0.53272 0.0
H1159 H 0.28859 0.49078 0.5504 0.0
H1160 H 0.28368 0.36301 0.53697 0.0
H1161 H 0.30556 0.32654 0.50587 0.0
H1162 H 0.31943 0.39287 0.43603 0.0
H1163 H 0.29726 0.42962 0.46651 0.0
C1164 C 0.17656 0.42115 0.61031 0.0
C1165 C 0.15055 0.41753 0.59253 0.0
C1166 C 0.20398 0.42524 0.59702 0.0
C1167 C 0.20578 0.42572 0.56572 0.0
C1168 C 0.17994 0.42006 0.54798 0.0
C1169 C 0.15241 0.41605 0.56137 0.0
C1170 C 0.23431 0.43466 0.55176 0.0
C1171 C 0.24774 0.4144 0.53433 0.0
C1172 C 0.24887 0.46282 0.5569 0.0
C1173 C 0.23502 0.48559 0.57398 0.0
C1174 C 0.20708 0.49514 0.56499 0.0
C1175 C 0.19378 0.51601 0.58161 0.0
C1176 C 0.20829 0.52765 0.60716 0.0
C1177 C 0.23621 0.51855 0.61606 0.0
C1178 C 0.24959 0.49765 0.59954 0.0
C1179 C 0.3597 0.49076 0.49913 0.0
C1180 C 0.38216 0.47249 0.50923 0.0
C1181 C 0.33006 0.48272 0.50497 0.0
C1182 C 0.32225 0.45619 0.5208 0.0
C1183 C 0.34455 0.43765 0.53039 0.0
C1184 C 0.37416 0.44565 0.52459 0.0
C1185 C 0.29113 0.44886 0.52919 0.0
C1186 C 0.27714 0.46948 0.54572 0.0
C1187 C 0.27598 0.42118 0.52284 0.0
C1188 C 0.28902 0.39913 0.50416 0.0
C1189 C 0.29127 0.36978 0.51492 0.0
C1190 C 0.30375 0.34906 0.49741 0.0
C1191 C 0.31395 0.3574 0.46903 0.0
C1192 C 0.31161 0.38646 0.45806 0.0
C1193 C 0.29913 0.40726 0.47547 0.0
H1194 H 0.32362 0.34134 0.45552 0.0
H1195 H 0.19794 0.54377 0.62003 0.0
H1196 H 0.9586 0.89288 0.93094 0.0
H1197 H 0.97359 0.84159 0.93554 0.0
H1198 H 0.89036 0.81061 0.8936 0.0
H1199 H 0.87535 0.86184 0.89007 0.0
H1200 H 0.89964 0.78012 0.9428 0.0
H1201 H 0.95748 0.80888 0.85834 0.0
H1202 H 0.99315 0.84036 0.82902 0.0
H1203 H 0.06184 0.82443 0.89497 0.0
H1204 H 0.02645 0.79324 0.92499 0.0
H1205 H 0.9361 0.63018 0.93646 0.0
H1206 H 0.92523 0.68051 0.91993 0.0
H1207 H 0.00056 0.71604 0.97203 0.0
H1208 H 0.01164 0.66587 0.98873 0.0
H1209 H 0.99515 0.74309 0.91447 0.0
H1210 H 0.93533 0.7176 0.00015 0.0
H1211 H 0.89913 0.68631 0.02907 0.0
H1212 H 0.83343 0.69619 0.95857 0.0
H1213 H 0.8694 0.72723 0.92904 0.0
C1214 C 0.94401 0.87499 0.92219 0.0
C1215 C 0.91607 0.88081 0.91002 0.0
C1216 C 0.95248 0.84581 0.92472 0.0
C1217 C 0.93316 0.82221 0.91473 0.0
C1218 C 0.90562 0.8284 0.90147 0.0
C1219 C 0.89711 0.8575 0.89926 0.0
C1220 C 0.94053 0.79098 0.92038 0.0
C1221 C 0.9203 0.77193 0.93604 0.0
C1222 C 0.96777 0.78041 0.91221 0.0
C1223 C 0.98922 0.7989 0.89405 0.0
C1224 C 0.98014 0.81225 0.86672 0.0
C1225 C 0.00032 0.83003 0.84995 0.0
C1226 C 0.02973 0.83444 0.86015 0.0
C1227 C 0.03904 0.82101 0.88711 0.0
C1228 C 0.01893 0.80326 0.904 0.0
C1229 C 0.95046 0.64866 0.94431 0.0
C1230 C 0.9746 0.64399 0.96412 0.0
C1231 C 0.94421 0.67739 0.93483 0.0
C1232 C 0.96203 0.70194 0.94489 0.0
C1233 C 0.98659 0.69735 0.96398 0.0
C1234 C 0.99274 0.66867 0.97365 0.0
C1235 C 0.95422 0.73251 0.93672 0.0
C1236 C 0.97439 0.75136 0.9208 0.0
C1237 C 0.92684 0.74293 0.94444 0.0
C1238 C 0.90515 0.72445 0.96226 0.0
C1239 C 0.91324 0.7129 0.99072 0.0
C1240 C 0.89275 0.69525 0.00724 0.0
C1241 C 0.86403 0.68919 0.99563 0.0
C1242 C 0.8557 0.70086 0.96751 0.0
C1243 C 0.87612 0.71849 0.95088 0.0
H1244 H 0.8482 0.67552 0.00845 0.0
H1245 H 0.04532 0.84821 0.84714 0.0
H1246 H 0.41018 0.67615 0.13404 0.0
H1247 H 0.43181 0.72722 0.13725 0.0
H1248 H 0.49871 0.70728 0.07579 0.0
H1249 H 0.47648 0.65631 0.07233 0.0
H1250 H 0.48333 0.75832 0.15052 0.0
H1251 H 0.5069 0.76049 0.02543 0.0
H1252 H 0.48968 0.73592 0.97879 0.0
H1253 H 0.40328 0.7182 0.01443 0.0
H1254 H 0.42016 0.7422 0.06147 0.0
H1255 H 0.53561 0.89687 0.04994 0.0
H1256 H 0.52951 0.84387 0.06142 0.0
H1257 H 0.46307 0.85928 0.12502 0.0
H1258 H 0.46957 0.91275 0.11413 0.0
H1259 H 0.48181 0.80979 0.05088 0.0
H1260 H 0.4597 0.80157 0.17791 0.0
H1261 H 0.47443 0.82817 0.22401 0.0
H1262 H 0.55557 0.86133 0.18444 0.0
H1263 H 0.54155 0.83459 0.13827 0.0
C1264 C 0.43016 0.68255 0.12219 0.0
C1265 C 0.44189 0.66266 0.10303 0.0
C1266 C 0.44242 0.71166 0.12388 0.0
C1267 C 0.46649 0.72122 0.10628 0.0
C1268 C 0.47981 0.70049 0.08916 0.0
C1269 C 0.46738 0.67143 0.08735 0.0
C1270 C 0.47526 0.75334 0.10311 0.0
C1271 C 0.48293 0.76968 0.12879 0.0
C1272 C 0.47498 0.76809 0.07474 0.0
C1273 C 0.46487 0.75286 0.04698 0.0
C1274 C 0.48428 0.7512 0.02332 0.0
C1275 C 0.4746 0.73731 0.99689 0.0
C1276 C 0.44545 0.72533 0.99374 0.0
C1277 C 0.42592 0.72724 0.01703 0.0
C1278 C 0.43557 0.74082 0.04364 0.0
C1279 C 0.51983 0.8891 0.06657 0.0
C1280 C 0.50286 0.90905 0.08093 0.0
C1281 C 0.51645 0.85875 0.07316 0.0
C1282 C 0.49595 0.84756 0.09416 0.0
C1283 C 0.47939 0.86743 0.10909 0.0
C1284 C 0.48297 0.89796 0.10268 0.0
C1285 C 0.49022 0.81499 0.09826 0.0
C1286 C 0.48278 0.79853 0.07267 0.0
C1287 C 0.49057 0.80035 0.12673 0.0
C1288 C 0.49939 0.81631 0.1545 0.0
C1289 C 0.48073 0.81445 0.17908 0.0
C1290 C 0.48896 0.82956 0.20522 0.0
C1291 C 0.51587 0.84651 0.20711 0.0
C1292 C 0.53467 0.84829 0.1829 0.0
C1293 C 0.52657 0.8332 0.15672 0.0
H1294 H 0.52219 0.85821 0.22736 0.0
H1295 H 0.43796 0.71469 0.97322 0.0
H1296 H 0.08572 0.37351 0.55299 0.0
H1297 H 0.0829 0.3209 0.53978 0.0
H1298 H 0.12099 0.29836 0.62672 0.0
H1299 H 0.12442 0.35105 0.63925 0.0
H1300 H 0.14025 0.26354 0.58629 0.0
H1301 H 0.04621 0.29437 0.61433 0.0
H1302 H 0.00334 0.32532 0.61188 0.0
H1303 H 0.9844 0.30078 0.52081 0.0
H1304 H 0.02734 0.26988 0.52264 0.0
H1305 H 0.03017 0.12194 0.58147 0.0
H1306 H 0.04129 0.17446 0.59156 0.0
H1307 H 0.1124 0.17784 0.52948 0.0
H1308 H 0.10207 0.12523 0.52006 0.0
H1309 H 0.03911 0.22217 0.55859 0.0
H1310 H 0.16699 0.22837 0.55005 0.0
H1311 H 0.20842 0.19625 0.55964 0.0
H1312 H 0.1574 0.14443 0.62407 0.0
H1313 H 0.11584 0.17646 0.61517 0.0
C1314 C 0.09427 0.35724 0.5687 0.0
C1315 C 0.10546 0.36586 0.59691 0.0
C1316 C 0.09244 0.3273 0.56137 0.0
C1317 C 0.10127 0.30563 0.58248 0.0
C1318 C 0.11406 0.31463 0.61008 0.0
C1319 C 0.11608 0.34457 0.61724 0.0
C1320 C 0.09501 0.27356 0.57692 0.0
C1321 C 0.11819 0.25449 0.58004 0.0
C1322 C 0.06605 0.2616 0.56966 0.0
C1323 C 0.04015 0.28006 0.56852 0.0
C1324 C 0.03301 0.29573 0.59372 0.0
C1325 C 0.00868 0.31323 0.59246 0.0
C1326 C 0.99122 0.3151 0.56617 0.0
C1327 C 0.99798 0.29936 0.54114 0.0
C1328 C 0.02228 0.28182 0.54228 0.0
C1329 C 0.04827 0.13383 0.57008 0.0
C1330 C 0.06535 0.11932 0.55012 0.0
C1331 C 0.05455 0.16389 0.5758 0.0
C1332 C 0.07792 0.18008 0.56156 0.0
C1333 C 0.09469 0.16572 0.54127 0.0
C1334 C 0.08867 0.13562 0.53582 0.0
C1335 C 0.08442 0.21207 0.56759 0.0
C1336 C 0.06125 0.23116 0.56459 0.0
C1337 C 0.11321 0.22385 0.57592 0.0
C1338 C 0.1382 0.20464 0.58168 0.0
C1339 C 0.16466 0.21019 0.56634 0.0
C1340 C 0.18816 0.19199 0.57164 0.0
C1341 C 0.1855 0.16826 0.59238 0.0
C1342 C 0.15939 0.16274 0.60793 0.0
C1343 C 0.13584 0.18089 0.60273 0.0
H1344 H 0.20371 0.15418 0.59643 0.0
H1345 H 0.97241 0.32867 0.56523 0.0
H1346 H 0.65922 0.2108 0.42746 0.0
H1347 H 0.63394 0.25559 0.43707 0.0
H1348 H 0.56356 0.20189 0.47893 0.0
H1349 H 0.58892 0.15691 0.46859 0.0
H1350 H 0.54115 0.24228 0.44245 0.0
H1351 H 0.61435 0.24433 0.52093 0.0
H1352 H 0.66418 0.24178 0.54439 0.0
H1353 H 0.69496 0.31865 0.49267 0.0
H1354 H 0.64542 0.32139 0.46852 0.0
H1355 H 0.4856 0.37527 0.50162 0.0
H1356 H 0.50504 0.32634 0.49689 0.0
H1357 H 0.57217 0.36466 0.43865 0.0
H1358 H 0.55279 0.41342 0.44283 0.0
H1359 H 0.59351 0.33015 0.48899 0.0
H1360 H 0.51919 0.32448 0.40844 0.0
H1361 H 0.4685 0.32621 0.38687 0.0
H1362 H 0.43866 0.25514 0.44673 0.0
H1363 H 0.48914 0.25328 0.46896 0.0
C1364 C 0.6386 0.20877 0.43913 0.0
C1365 C 0.62605 0.18075 0.44772 0.0
C1366 C 0.62415 0.23425 0.44462 0.0
C1367 C 0.59705 0.23216 0.45917 0.0
C1368 C 0.5845 0.20404 0.46781 0.0
C1369 C 0.59894 0.17848 0.4621 0.0
C1370 C 0.58161 0.2594 0.46438 0.0
C1371 C 0.55243 0.26129 0.45315 0.0
C1372 C 0.59636 0.28433 0.47812 0.0
C1373 C 0.62619 0.28293 0.49274 0.0
C1374 C 0.63179 0.26057 0.51439 0.0
C1375 C 0.65998 0.25911 0.52784 0.0
C1376 C 0.68274 0.28001 0.51999 0.0
C1377 C 0.67732 0.30246 0.49872 0.0
C1378 C 0.64917 0.304 0.48516 0.0
C1379 C 0.50425 0.37321 0.48748 0.0
C1380 C 0.51767 0.39827 0.47264 0.0
C1381 C 0.51529 0.34526 0.48481 0.0
C1382 C 0.54008 0.34201 0.46753 0.0
C1383 C 0.55307 0.3668 0.45216 0.0
C1384 C 0.54183 0.39461 0.45446 0.0
C1385 C 0.55348 0.31312 0.46645 0.0
C1386 C 0.58222 0.31097 0.47859 0.0
C1387 C 0.53818 0.28789 0.45398 0.0
C1388 C 0.50786 0.289 0.44061 0.0
C1389 C 0.50176 0.30943 0.41722 0.0
C1390 C 0.47308 0.31038 0.40482 0.0
C1391 C 0.45035 0.29086 0.41549 0.0
C1392 C 0.45628 0.27028 0.43852 0.0
C1393 C 0.48492 0.26926 0.45102 0.0
H1394 H 0.42816 0.29162 0.40586 0.0
H1395 H 0.70455 0.27884 0.53043 0.0
loop_
_geom_bond_atom_site_label_1
_geom_bond_atom_site_label_2
_geom_bond_distance
_geom_bond_site_symmetry_2
_ccdc_geom_bond_type
C0 N1 1.317 . S
C0 N2 1.348 . S
C0 C3 1.485 . S
N1 C0 1.317 . S
N1 N5 1.370 . S
N2 C0 1.348 . S
N2 C4 1.346 . S
C3 C0 1.485 . S
C3 H7 0.960 . S
C3 H8 0.961 . S
C3 H9 0.960 . S
C4 N2 1.346 . S
C4 N5 1.307 . S
C4 C6 1.486 . S
N5 N1 1.370 . S
N5 C4 1.307 . S
C6 C4 1.486 . S
C6 H10 0.960 . S
C6 H11 0.960 . S
C6 H12 0.959 . S
H7 C3 0.960 . S
H8 C3 0.961 . S
H9 C3 0.960 . S
H10 C6 0.960 . S
H11 C6 0.960 . S
H12 C6 0.959 . S
C13 N14 1.317 . S
C13 N15 1.348 . S
C13 C16 1.485 . S
N14 C13 1.317 . S
N14 N18 1.370 . S
N15 C13 1.348 . S
N15 C17 1.346 . S
C16 C13 1.485 . S
C16 H20 0.960 . S
C16 H21 0.961 . S
C16 H22 0.960 . S
C17 N15 1.346 . S
C17 N18 1.307 . S
C17 C19 1.486 . S
N18 N14 1.370 . S
N18 C17 1.307 . S
C19 C17 1.486 . S
C19 H23 0.960 . S
C19 H24 0.960 . S
C19 H25 0.959 . S
H20 C16 0.960 . S
H21 C16 0.961 . S
H22 C16 0.960 . S
H23 C19 0.960 . S
H24 C19 0.960 . S
H25 C19 0.959 . S
C26 N27 1.317 . S
C26 N28 1.348 . S
C26 C29 1.485 . S
N27 C26 1.317 . S
N27 N31 1.370 . S
N28 C26 1.348 . S
N28 C30 1.346 . S
C29 C26 1.485 . S
C29 H33 0.960 . S
C29 H34 0.961 . S
C29 H35 0.960 . S
C30 N28 1.346 . S
C30 N31 1.307 . S
C30 C32 1.486 . S
N31 N27 1.370 . S
N31 C30 1.307 . S
C32 C30 1.486 . S
C32 H36 0.960 . S
C32 H37 0.960 . S
C32 H38 0.959 . S
H33 C29 0.960 . S
H34 C29 0.961 . S
H35 C29 0.960 . S
H36 C32 0.960 . S
H37 C32 0.960 . S
H38 C32 0.959 . S
C39 N40 1.317 . S
C39 N41 1.348 . S
C39 C42 1.485 . S
N40 C39 1.317 . S
N40 N44 1.370 . S
N41 C39 1.348 . S
N41 C43 1.346 . S
C42 C39 1.485 . S
C42 H46 0.960 . S
C42 H47 0.961 . S
C42 H48 0.960 . S
C43 N41 1.346 . S
C43 N44 1.307 . S
C43 C45 1.486 . S
N44 N40 1.370 . S
N44 C43 1.307 . S
C45 C43 1.486 . S
C45 H49 0.960 . S
C45 H50 0.960 . S
C45 H51 0.959 . S
H46 C42 0.960 . S
H47 C42 0.961 . S
H48 C42 0.960 . S
H49 C45 0.960 . S
H50 C45 0.960 . S
H51 C45 0.959 . S
C52 N53 1.317 . S
C52 N54 1.348 . S
C52 C55 1.485 . S
N53 C52 1.317 . S
N53 N57 1.370 . S
N54 C52 1.348 . S
N54 C56 1.346 . S
C55 C52 1.485 . S
C55 H59 0.960 . S
C55 H60 0.961 . S
C55 H61 0.960 . S
C56 N54 1.346 . S
C56 N57 1.307 . S
C56 C58 1.486 1_565 S
N57 N53 1.370 . S
N57 C56 1.307 . S
C58 C56 1.486 1_545 S
C58 H62 0.960 . S
C58 H63 0.960 . S
C58 H64 0.959 . S
H59 C55 0.960 . S
H60 C55 0.961 . S
H61 C55 0.960 . S
H62 C58 0.960 . S
H63 C58 0.960 . S
H64 C58 0.959 . S
C65 N66 1.317 . S
C65 N67 1.348 . S
C65 C68 1.485 . S
N66 C65 1.317 . S
N66 N70 1.370 . S
N67 C65 1.348 . S
N67 C69 1.346 . S
C68 C65 1.485 . S
C68 H72 0.960 . S
C68 H73 0.961 . S
C68 H74 0.960 . S
C69 N67 1.346 . S
C69 N70 1.307 . S
C69 C71 1.486 . S
N70 N66 1.370 . S
N70 C69 1.307 . S
C71 C69 1.486 . S
C71 H75 0.960 . S
C71 H76 0.960 . S
C71 H77 0.959 . S
H72 C68 0.960 . S
H73 C68 0.961 . S
H74 C68 0.960 . S
H75 C71 0.960 . S
H76 C71 0.960 . S
H77 C71 0.959 . S
C78 N79 1.317 . S
C78 N80 1.348 . S
C78 C81 1.485 . S
N79 C78 1.317 . S
N79 N83 1.370 . S
N80 C78 1.348 . S
N80 C82 1.346 . S
C81 C78 1.485 . S
C81 H85 0.960 . S
C81 H86 0.961 . S
C81 H87 0.960 . S
C82 N80 1.346 . S
C82 N83 1.307 . S
C82 C84 1.486 . S
N83 N79 1.370 . S
N83 C82 1.307 . S
C84 C82 1.486 . S
C84 H88 0.960 . S
C84 H89 0.960 . S
C84 H90 0.959 . S
H85 C81 0.960 . S
H86 C81 0.961 . S
H87 C81 0.960 . S
H88 C84 0.960 . S
H89 C84 0.960 . S
H90 C84 0.959 . S
C91 N92 1.317 . S
C91 N93 1.348 . S
C91 C94 1.485 . S
N92 C91 1.317 . S
N92 N96 1.370 . S
N93 C91 1.348 . S
N93 C95 1.346 . S
C94 C91 1.485 . S
C94 H98 0.960 . S
C94 H99 0.961 . S
C94 H100 0.960 . S
C95 N93 1.346 . S
C95 N96 1.307 . S
C95 C97 1.486 . S
N96 N92 1.370 . S
N96 C95 1.307 . S
C97 C95 1.486 . S
C97 H101 0.960 . S
C97 H102 0.960 . S
C97 H103 0.959 . S
H98 C94 0.960 . S
H99 C94 0.961 . S
H100 C94 0.960 . S
H101 C97 0.960 . S
H102 C97 0.960 . S
H103 C97 0.959 . S
O104 Zn105 1.953 . S
O104 C120 1.225 . S
Zn105 O104 1.953 . S
Zn105 O106 1.949 . S
Zn105 O112 1.919 1_455 S
Zn105 O117 1.924 . S
O106 Zn105 1.949 . S
O106 Zn107 1.923 1_545 S
O106 Zn108 1.950 . S
O106 Zn109 1.945 1_545 S
Zn107 O106 1.923 1_565 S
Zn107 O110 1.933 . S
Zn107 O113 1.941 1_465 S
Zn107 O114 1.965 1_565 S
Zn108 O106 1.950 . S
Zn108 O115 1.938 . S
Zn108 O116 1.906 . S
Zn108 O126 1.953 . S
Zn109 O106 1.945 1_565 S
Zn109 O111 1.932 . S
Zn109 O118 1.977 . S
Zn109 O119 1.910 . S
O110 Zn107 1.933 . S
O110 C121 1.226 . S
O111 Zn109 1.932 . S
O111 C121 1.307 . S
O112 Zn105 1.919 1_655 S
O112 C123 1.253 . S
O113 Zn107 1.941 1_645 S
O113 C123 1.283 . S
O114 Zn107 1.965 1_545 S
O114 C122 1.303 . S
O115 Zn108 1.938 . S
O115 C122 1.247 . S
O116 Zn108 1.906 . S
O116 C124 1.304 1_545 S
O117 Zn105 1.924 . S
O117 C125 1.310 1_545 S
O118 Zn109 1.977 . S
O118 C124 1.272 . S
O119 Zn109 1.910 . S
O119 C125 1.232 . S
C120 O104 1.225 . S
C120 O126 1.298 . S
C121 O110 1.226 . S
C121 O111 1.307 . S
C122 O114 1.303 . S
C122 O115 1.247 . S
C123 O112 1.253 . S
C123 O113 1.283 . S
C124 O116 1.304 1_565 S
C124 O118 1.272 . S
C125 O117 1.310 1_565 S
C125 O119 1.232 . S
O126 Zn108 1.953 . S
O126 C120 1.298 . S
O127 Zn128 1.953 . S
O127 C143 1.225 . S
Zn128 O127 1.953 . S
Zn128 O129 1.949 . S
Zn128 O135 1.919 1_554 S
Zn128 O140 1.924 . S
O129 Zn128 1.949 . S
O129 Zn130 1.923 1_545 S
O129 Zn131 1.950 . S
O129 Zn132 1.945 . S
Zn130 O129 1.923 1_565 S
Zn130 O133 1.933 . S
Zn130 O136 1.941 1_554 S
Zn130 O137 1.965 . S
Zn131 O129 1.950 . S
Zn131 O138 1.938 . S
Zn131 O139 1.906 . S
Zn131 O149 1.953 . S
Zn132 O129 1.945 . S
Zn132 O134 1.932 1_545 S
Zn132 O141 1.977 . S
Zn132 O142 1.910 . S
O133 Zn130 1.933 . S
O133 C144 1.226 . S
O134 Zn132 1.932 1_565 S
O134 C144 1.307 . S
O135 Zn128 1.919 1_556 S
O135 C146 1.253 1_545 S
O136 Zn130 1.941 1_556 S
O136 C146 1.283 . S
O137 Zn130 1.965 . S
O137 C145 1.303 1_565 S
O138 Zn131 1.938 . S
O138 C145 1.247 . S
O139 Zn131 1.906 . S
O139 C147 1.304 . S
O140 Zn128 1.924 . S
O140 C148 1.311 . S
O141 Zn132 1.977 . S
O141 C147 1.272 . S
O142 Zn132 1.910 . S
O142 C148 1.231 . S
C143 O127 1.225 . S
C143 O149 1.298 . S
C144 O133 1.226 . S
C144 O134 1.307 . S
C145 O137 1.303 1_545 S
C145 O138 1.247 . S
C146 O135 1.253 1_565 S
C146 O136 1.283 . S
C147 O139 1.304 . S
C147 O141 1.272 . S
C148 O140 1.311 . S
C148 O142 1.231 . S
O149 Zn131 1.953 . S
O149 C143 1.298 . S
O150 Zn151 1.953 . S
O150 C166 1.225 . S
Zn151 O150 1.953 . S
Zn151 O152 1.949 . S
Zn151 O158 1.919 . S
Zn151 O163 1.924 . S
O152 Zn151 1.949 . S
O152 Zn153 1.923 . S
O152 Zn154 1.950 . S
O152 Zn155 1.945 . S
Zn153 O152 1.923 . S
Zn153 O156 1.933 . S
Zn153 O159 1.941 . S
Zn153 O160 1.965 . S
Zn154 O152 1.950 . S
Zn154 O161 1.938 . S
Zn154 O162 1.906 . S
Zn154 O172 1.953 . S
Zn155 O152 1.945 . S
Zn155 O157 1.932 . S
Zn155 O164 1.977 . S
Zn155 O165 1.910 . S
O156 Zn153 1.933 . S
O156 C167 1.226 . S
O157 Zn155 1.932 . S
O157 C167 1.307 . S
O158 Zn151 1.919 . S
O158 C169 1.253 . S
O159 Zn153 1.941 . S
O159 C169 1.283 . S
O160 Zn153 1.965 . S
O160 C168 1.303 . S
O161 Zn154 1.938 . S
O161 C168 1.247 . S
O162 Zn154 1.906 . S
O162 C170 1.304 . S
O163 Zn151 1.924 . S
O163 C171 1.311 . S
O164 Zn155 1.977 . S
O164 C170 1.272 . S
O165 Zn155 1.910 . S
O165 C171 1.231 . S
C166 O150 1.225 . S
C166 O172 1.298 . S
C167 O156 1.226 . S
C167 O157 1.307 . S
C168 O160 1.303 . S
C168 O161 1.247 . S
C169 O158 1.253 . S
C169 O159 1.283 . S
C170 O162 1.304 . S
C170 O164 1.272 . S
C171 O163 1.311 . S
C171 O165 1.231 . S
O172 Zn154 1.953 . S
O172 C166 1.298 . S
O173 Zn174 1.953 . S
O173 C189 1.225 . S
Zn174 O173 1.953 . S
Zn174 O175 1.949 1_655 S
Zn174 O181 1.936 . S
Zn174 O186 1.924 . S
O175 Zn174 1.949 1_455 S
O175 Zn176 1.923 1_454 S
O175 Zn177 1.950 . S
O175 Zn178 1.945 1_554 S
Zn176 O175 1.923 1_656 S
Zn176 O179 1.933 1_655 S
Zn176 O182 1.941 . S
Zn176 O183 1.965 . S
Zn177 O175 1.950 . S
Zn177 O184 1.938 . S
Zn177 O185 1.906 . S
Zn177 O195 1.953 . S
Zn178 O175 1.945 1_556 S
Zn178 O180 1.932 . S
Zn178 O187 1.977 1_556 S
Zn178 O188 1.910 1_556 S
O179 Zn176 1.933 1_455 S
O179 C190 1.226 . S
O180 Zn178 1.932 . S
O180 C190 1.307 . S
O181 Zn174 1.936 . S
O181 C192 1.223 1_554 S
O182 Zn176 1.941 . S
O182 C192 1.283 . S
O183 Zn176 1.965 . S
O183 C191 1.303 . S
O184 Zn177 1.938 . S
O184 C191 1.247 1_454 S
O185 Zn177 1.906 . S
O185 C193 1.304 . S
O186 Zn174 1.924 . S
O186 C194 1.311 1_655 S
O187 Zn178 1.977 1_554 S
O187 C193 1.272 . S
O188 Zn178 1.910 1_554 S
O188 C194 1.231 . S
C189 O173 1.225 . S
C189 O195 1.298 1_655 S
C190 O179 1.226 . S
C190 O180 1.307 . S
C191 O183 1.303 . S
C191 O184 1.247 1_656 S
C192 O181 1.223 1_556 S
C192 O182 1.283 . S
C193 O185 1.304 . S
C193 O187 1.272 . S
C194 O186 1.311 1_455 S
C194 O188 1.231 . S
O195 Zn177 1.953 . S
O195 C189 1.298 1_455 S
H196 C214 0.951 . S
H197 C216 0.951 . S
H198 C218 0.950 . S
H199 C219 0.950 . S
H200 C221 0.950 . S
H201 C224 0.950 . S
H202 C225 0.950 . S
H203 C227 0.950 . S
H204 C228 0.950 . S
H205 C229 0.951 . S
H206 C231 0.951 . S
H207 C233 0.950 . S
H208 C234 0.950 . S
H209 C236 0.950 . S
H210 C239 0.950 . S
H211 C240 0.950 . S
H212 C242 0.950 . S
H213 C243 0.950 . S
C214 H196 0.951 . S
C214 C215 1.366 . S
C214 C216 1.388 . S
C215 C214 1.366 . S
C215 C219 1.385 . S
C216 H197 0.951 . S
C216 C214 1.388 . S
C216 C217 1.366 . S
C217 C216 1.366 . S
C217 C218 1.414 . S
C217 C220 1.499 . S
C218 H198 0.950 . S
C218 C217 1.414 . S
C218 C219 1.374 . S
C219 H199 0.950 . S
C219 C215 1.385 . S
C219 C218 1.374 . S
C220 C217 1.499 . S
C220 C221 1.373 . S
C220 C222 1.389 . S
C221 H200 0.950 . S
C221 C220 1.373 . S
C221 C237 1.377 . S
C222 C220 1.389 . S
C222 C223 1.524 . S
C222 C236 1.377 . S
C223 C222 1.524 . S
C223 C224 1.397 . S
C223 C228 1.363 . S
C224 H201 0.950 . S
C224 C223 1.397 . S
C224 C225 1.334 . S
C225 H202 0.950 . S
C225 C224 1.334 . S
C225 C226 1.287 . S
C226 C225 1.287 . S
C226 C227 1.524 . S
C226 H245 0.913 . S
C227 H203 0.950 . S
C227 C226 1.524 . S
C227 C228 1.415 . S
C228 H204 0.950 . S
C228 C223 1.363 . S
C228 C227 1.415 . S
C229 H205 0.951 . S
C229 C230 1.366 . S
C229 C231 1.388 . S
C230 C229 1.366 . S
C230 C234 1.385 . S
C231 H206 0.951 . S
C231 C229 1.388 . S
C231 C232 1.366 . S
C232 C231 1.366 . S
C232 C233 1.414 . S
C232 C235 1.499 . S
C233 H207 0.950 . S
C233 C232 1.414 . S
C233 C234 1.374 . S
C234 H208 0.950 . S
C234 C230 1.385 . S
C234 C233 1.374 . S
C235 C232 1.499 . S
C235 C236 1.373 . S
C235 C237 1.389 . S
C236 H209 0.950 . S
C236 C222 1.377 . S
C236 C235 1.373 . S
C237 C221 1.377 . S
C237 C235 1.389 . S
C237 C238 1.524 . S
C238 C237 1.524 . S
C238 C239 1.397 . S
C238 C243 1.363 . S
C239 H210 0.950 . S
C239 C238 1.397 . S
C239 C240 1.334 . S
C240 H211 0.950 . S
C240 C239 1.334 . S
C240 C241 1.287 . S
C241 C240 1.287 . S
C241 C242 1.524 . S
C241 H244 0.999 . S
C242 H212 0.950 . S
C242 C241 1.524 . S
C242 C243 1.415 . S
C243 H213 0.950 . S
C243 C238 1.363 . S
C243 C242 1.415 . S
H244 C241 0.999 . S
H245 C226 0.913 . S
H246 C264 0.951 . S
H247 C266 0.951 . S
H248 C268 0.950 . S
H249 C269 0.950 . S
H250 C271 0.950 . S
H251 C274 0.950 . S
H252 C275 0.950 . S
H253 C277 0.950 . S
H254 C278 0.950 . S
H255 C279 0.951 1_545 S
H256 C281 0.951 . S
H257 C283 0.950 . S
H258 C284 0.950 . S
H259 C286 0.950 . S
H260 C289 0.950 . S
H261 C290 0.951 1_565 S
H262 C292 0.950 . S
H263 C293 0.950 . S
C264 H246 0.951 . S
C264 C265 1.366 . S
C264 C266 1.388 . S
C265 C264 1.366 . S
C265 C269 1.385 . S
C266 H247 0.951 . S
C266 C264 1.388 . S
C266 C267 1.366 . S
C267 C266 1.366 . S
C267 C268 1.414 . S
C267 C270 1.499 . S
C268 H248 0.950 . S
C268 C267 1.414 . S
C268 C269 1.374 . S
C269 H249 0.950 . S
C269 C265 1.385 . S
C269 C268 1.374 . S
C270 C267 1.499 . S
C270 C271 1.373 . S
C270 C272 1.389 . S
C271 H250 0.950 . S
C271 C270 1.373 . S
C271 C287 1.377 . S
C272 C270 1.389 . S
C272 C273 1.524 . S
C272 C286 1.377 . S
C273 C272 1.524 . S
C273 C274 1.397 . S
C273 C278 1.363 . S
C274 H251 0.950 . S
C274 C273 1.397 . S
C274 C275 1.334 . S
C275 H252 0.950 . S
C275 C274 1.334 . S
C275 C276 1.287 . S
C276 C275 1.287 . S
C276 C277 1.524 . S
C276 H295 0.913 . S
C277 H253 0.950 . S
C277 C276 1.524 . S
C277 C278 1.415 . S
C278 H254 0.950 . S
C278 C273 1.363 . S
C278 C277 1.415 . S
C279 H255 0.951 1_565 S
C279 C280 1.366 . S
C279 C281 1.388 . S
C280 C279 1.366 . S
C280 C284 1.385 . S
C281 H256 0.951 . S
C281 C279 1.388 . S
C281 C282 1.366 . S
C282 C281 1.366 . S
C282 C283 1.414 . S
C282 C285 1.499 . S
C283 H257 0.950 . S
C283 C282 1.414 . S
C283 C284 1.374 . S
C284 H258 0.950 . S
C284 C280 1.385 . S
C284 C283 1.374 . S
C285 C282 1.499 . S
C285 C286 1.373 . S
C285 C287 1.389 . S
C286 H259 0.950 . S
C286 C272 1.377 . S
C286 C285 1.373 . S
C287 C271 1.377 . S
C287 C285 1.389 . S
C287 C288 1.524 . S
C288 C287 1.524 . S
C288 C289 1.397 . S
C288 C293 1.363 1_565 S
C289 H260 0.950 . S
C289 C288 1.397 . S
C289 C290 1.334 1_565 S
C290 H261 0.951 1_545 S
C290 C289 1.334 1_545 S
C290 C291 1.287 . S
C291 C290 1.287 . S
C291 C292 1.524 . S
C291 H294 0.999 . S
C292 H262 0.950 . S
C292 C291 1.524 . S
C292 C293 1.415 . S
C293 H263 0.950 . S
C293 C288 1.363 1_545 S
C293 C292 1.415 . S
H294 C291 0.999 . S
H295 C276 0.913 . S
H296 C314 0.951 . S
H297 C316 0.951 . S
H298 C318 0.950 . S
H299 C319 0.950 . S
H300 C321 0.950 . S
H301 C324 0.950 . S
H302 C325 0.950 . S
H303 C327 0.950 . S
H304 C328 0.950 . S
H305 C329 0.951 . S
H306 C331 0.951 . S
H307 C333 0.950 . S
H308 C334 0.950 . S
H309 C336 0.950 . S
H310 C339 0.950 . S
H311 C340 0.950 . S
H312 C342 0.950 . S
H313 C343 0.950 . S
C314 H296 0.951 . S
C314 C315 1.366 . S
C314 C316 1.388 . S
C315 C314 1.366 . S
C315 C319 1.385 . S
C316 H297 0.951 . S
C316 C314 1.388 . S
C316 C317 1.366 . S
C317 C316 1.366 . S
C317 C318 1.414 . S
C317 C320 1.499 . S
C318 H298 0.950 . S
C318 C317 1.414 . S
C318 C319 1.374 . S
C319 H299 0.950 . S
C319 C315 1.385 . S
C319 C318 1.374 . S
C320 C317 1.499 . S
C320 C321 1.373 . S
C320 C322 1.389 . S
C321 H300 0.950 . S
C321 C320 1.373 . S
C321 C337 1.377 . S
C322 C320 1.389 . S
C322 C323 1.524 . S
C322 C336 1.377 . S
C323 C322 1.524 . S
C323 C324 1.397 . S
C323 C328 1.363 . S
C324 H301 0.950 . S
C324 C323 1.397 . S
C324 C325 1.334 . S
C325 H302 0.950 . S
C325 C324 1.334 . S
C325 C326 1.287 . S
C326 C325 1.287 . S
C326 C327 1.524 . S
C326 H345 0.913 . S
C327 H303 0.950 . S
C327 C326 1.524 . S
C327 C328 1.415 . S
C328 H304 0.950 . S
C328 C323 1.363 . S
C328 C327 1.415 . S
C329 H305 0.951 . S
C329 C330 1.366 . S
C329 C331 1.388 . S
C330 C329 1.366 . S
C330 C334 1.385 . S
C331 H306 0.951 . S
C331 C329 1.388 . S
C331 C332 1.366 . S
C332 C331 1.366 . S
C332 C333 1.414 . S
C332 C335 1.499 . S
C333 H307 0.950 . S
C333 C332 1.414 . S
C333 C334 1.374 . S
C334 H308 0.950 . S
C334 C330 1.385 . S
C334 C333 1.374 . S
C335 C332 1.499 . S
C335 C336 1.373 . S
C335 C337 1.389 . S
C336 H309 0.950 . S
C336 C322 1.377 . S
C336 C335 1.373 . S
C337 C321 1.377 . S
C337 C335 1.389 . S
C337 C338 1.524 . S
C338 C337 1.524 . S
C338 C339 1.397 . S
C338 C343 1.363 . S
C339 H310 0.950 . S
C339 C338 1.397 . S
C339 C340 1.334 . S
C340 H311 0.950 . S
C340 C339 1.334 . S
C340 C341 1.287 . S
C341 C340 1.287 . S
C341 C342 1.524 . S
C341 H344 0.999 . S
C342 H312 0.950 . S
C342 C341 1.524 . S
C342 C343 1.415 . S
C343 H313 0.950 . S
C343 C338 1.363 . S
C343 C342 1.415 . S
H344 C341 0.999 . S
H345 C326 0.913 . S
H346 C364 0.951 . S
H347 C366 0.951 . S
H348 C368 0.950 . S
H349 C369 0.950 . S
H350 C371 0.950 . S
H351 C374 0.950 . S
H352 C375 0.950 . S
H353 C377 0.950 . S
H354 C378 0.950 . S
H355 C379 0.951 . S
H356 C381 0.951 . S
H357 C383 0.950 . S
H358 C384 0.950 1_455 S
H359 C386 0.950 . S
H360 C389 0.950 . S
H361 C390 0.950 1_455 S
H362 C392 0.950 . S
H363 C393 0.950 . S
C364 H346 0.951 . S
C364 C365 1.366 . S
C364 C366 1.388 . S
C365 C364 1.366 . S
C365 C369 1.385 . S
C366 H347 0.951 . S
C366 C364 1.388 . S
C366 C367 1.366 . S
C367 C366 1.366 . S
C367 C368 1.414 . S
C367 C370 1.499 . S
C368 H348 0.950 . S
C368 C367 1.414 . S
C368 C369 1.374 . S
C369 H349 0.950 . S
C369 C365 1.385 . S
C369 C368 1.374 . S
C370 C367 1.499 . S
C370 C371 1.373 . S
C370 C372 1.389 . S
C371 H350 0.950 . S
C371 C370 1.373 . S
C371 C387 1.377 . S
C372 C370 1.389 . S
C372 C373 1.524 . S
C372 C386 1.377 . S
C373 C372 1.524 . S
C373 C374 1.397 . S
C373 C378 1.363 . S
C374 H351 0.950 . S
C374 C373 1.397 . S
C374 C375 1.334 . S
C375 H352 0.950 . S
C375 C374 1.334 . S
C375 C376 1.287 . S
C376 C375 1.287 . S
C376 C377 1.524 . S
C376 H395 0.913 . S
C377 H353 0.950 . S
C377 C376 1.524 . S
C377 C378 1.415 . S
C378 H354 0.950 . S
C378 C373 1.363 . S
C378 C377 1.415 . S
C379 H355 0.951 . S
C379 C380 1.366 . S
C379 C381 1.388 . S
C380 C379 1.366 . S
C380 C384 1.385 . S
C381 H356 0.951 . S
C381 C379 1.388 . S
C381 C382 1.366 . S
C382 C381 1.366 . S
C382 C383 1.414 . S
C382 C385 1.499 . S
C383 H357 0.950 . S
C383 C382 1.414 . S
C383 C384 1.374 . S
C384 H358 0.950 1_655 S
C384 C380 1.385 . S
C384 C383 1.374 . S
C385 C382 1.499 . S
C385 C386 1.373 . S
C385 C387 1.389 . S
C386 H359 0.950 . S
C386 C372 1.377 . S
C386 C385 1.373 . S
C387 C371 1.377 . S
C387 C385 1.389 . S
C387 C388 1.524 . S
C388 C387 1.524 . S
C388 C389 1.397 . S
C388 C393 1.363 . S
C389 H360 0.950 . S
C389 C388 1.397 . S
C389 C390 1.334 . S
C390 H361 0.950 1_655 S
C390 C389 1.334 . S
C390 C391 1.287 . S
C391 C390 1.287 . S
C391 C392 1.524 . S
C391 H394 0.999 . S
C392 H362 0.950 . S
C392 C391 1.524 . S
C392 C393 1.415 . S
C393 H363 0.950 . S
C393 C388 1.363 . S
C393 C392 1.415 . S
H394 C391 0.999 . S
H395 C376 0.913 . S
H396 C414 0.951 . S
H397 C416 0.951 . S
H398 C418 0.950 . S
H399 C419 0.950 . S
H400 C421 0.950 . S
H401 C424 0.950 . S
H402 C425 0.950 . S
H403 C427 0.950 . S
H404 C428 0.950 . S
H405 C429 0.951 . S
H406 C431 0.951 . S
H407 C433 0.950 . S
H408 C434 0.950 . S
H409 C436 0.950 . S
H410 C439 0.950 . S
H411 C440 0.950 . S
H412 C442 0.950 1_565 S
H413 C443 0.950 . S
C414 H396 0.951 . S
C414 C415 1.366 . S
C414 C416 1.388 . S
C415 C414 1.366 . S
C415 C419 1.385 . S
C416 H397 0.951 . S
C416 C414 1.388 . S
C416 C417 1.366 . S
C417 C416 1.366 . S
C417 C418 1.414 . S
C417 C420 1.499 . S
C418 H398 0.950 . S
C418 C417 1.414 . S
C418 C419 1.374 . S
C419 H399 0.950 . S
C419 C415 1.385 . S
C419 C418 1.374 . S
C420 C417 1.499 . S
C420 C421 1.373 . S
C420 C422 1.389 . S
C421 H400 0.950 . S
C421 C420 1.373 . S
C421 C437 1.377 . S
C422 C420 1.389 . S
C422 C423 1.524 . S
C422 C436 1.377 . S
C423 C422 1.524 . S
C423 C424 1.397 . S
C423 C428 1.363 . S
C424 H401 0.950 . S
C424 C423 1.397 . S
C424 C425 1.334 . S
C425 H402 0.950 . S
C425 C424 1.334 . S
C425 C426 1.287 . S
C426 C425 1.287 . S
C426 C427 1.524 . S
C426 H445 0.913 . S
C427 H403 0.950 . S
C427 C426 1.524 . S
C427 C428 1.415 . S
C428 H404 0.950 . S
C428 C423 1.363 . S
C428 C427 1.415 . S
C429 H405 0.951 . S
C429 C430 1.366 . S
C429 C431 1.388 . S
C430 C429 1.366 . S
C430 C434 1.385 . S
C431 H406 0.951 . S
C431 C429 1.388 . S
C431 C432 1.366 . S
C432 C431 1.366 . S
C432 C433 1.414 . S
C432 C435 1.499 . S
C433 H407 0.950 . S
C433 C432 1.414 . S
C433 C434 1.374 . S
C434 H408 0.950 . S
C434 C430 1.385 . S
C434 C433 1.374 . S
C435 C432 1.499 . S
C435 C436 1.373 . S
C435 C437 1.389 . S
C436 H409 0.950 . S
C436 C422 1.377 . S
C436 C435 1.373 . S
C437 C421 1.377 . S
C437 C435 1.389 . S
C437 C438 1.524 . S
C438 C437 1.524 . S
C438 C439 1.397 . S
C438 C443 1.363 . S
C439 H410 0.950 . S
C439 C438 1.397 . S
C439 C440 1.334 . S
C440 H411 0.950 . S
C440 C439 1.334 . S
C440 C441 1.287 1_545 S
C441 C440 1.287 1_565 S
C441 C442 1.524 1_565 S
C441 H444 0.999 . S
C442 H412 0.950 1_545 S
C442 C441 1.524 1_545 S
C442 C443 1.415 . S
C443 H413 0.950 . S
C443 C438 1.363 . S
C443 C442 1.415 . S
H444 C441 0.999 . S
H445 C426 0.913 . S
H446 C464 0.951 . S
H447 C466 0.951 . S
H448 C468 0.950 . S
H449 C469 0.950 . S
H450 C471 0.950 . S
H451 C474 0.950 . S
H452 C475 0.950 . S
H453 C477 0.950 . S
H454 C478 0.950 . S
H455 C479 0.951 . S
H456 C481 0.951 . S
H457 C483 0.950 . S
H458 C484 0.950 . S
H459 C486 0.950 . S
H460 C489 0.950 . S
H461 C490 0.950 1_545 S
H462 C492 0.950 . S
H463 C493 0.950 . S
C464 H446 0.951 . S
C464 C465 1.366 . S
C464 C466 1.388 . S
C465 C464 1.366 . S
C465 C469 1.385 . S
C466 H447 0.951 . S
C466 C464 1.388 . S
C466 C467 1.366 . S
C467 C466 1.366 . S
C467 C468 1.414 . S
C467 C470 1.499 . S
C468 H448 0.950 . S
C468 C467 1.414 . S
C468 C469 1.374 . S
C469 H449 0.950 . S
C469 C465 1.385 . S
C469 C468 1.374 . S
C470 C467 1.499 . S
C470 C471 1.373 . S
C470 C472 1.389 . S
C471 H450 0.950 . S
C471 C470 1.373 . S
C471 C487 1.377 . S
C472 C470 1.389 . S
C472 C473 1.524 . S
C472 C486 1.377 . S
C473 C472 1.524 . S
C473 C474 1.397 . S
C473 C478 1.363 . S
C474 H451 0.950 . S
C474 C473 1.397 . S
C474 C475 1.334 . S
C475 H452 0.950 . S
C475 C474 1.334 . S
C475 C476 1.287 . S
C476 C475 1.287 . S
C476 C477 1.524 . S
C476 H495 0.913 . S
C477 H453 0.950 . S
C477 C476 1.524 . S
C477 C478 1.415 . S
C478 H454 0.950 . S
C478 C473 1.363 . S
C478 C477 1.415 . S
C479 H455 0.951 . S
C479 C480 1.366 . S
C479 C481 1.388 . S
C480 C479 1.366 . S
C480 C484 1.385 . S
C481 H456 0.951 . S
C481 C479 1.388 . S
C481 C482 1.366 . S
C482 C481 1.366 . S
C482 C483 1.414 . S
C482 C485 1.499 . S
C483 H457 0.950 . S
C483 C482 1.414 . S
C483 C484 1.374 . S
C484 H458 0.950 . S
C484 C480 1.385 . S
C484 C483 1.374 . S
C485 C482 1.499 . S
C485 C486 1.373 . S
C485 C487 1.389 . S
C486 H459 0.950 . S
C486 C472 1.377 . S
C486 C485 1.373 . S
C487 C471 1.377 . S
C487 C485 1.389 . S
C487 C488 1.524 . S
C488 C487 1.524 . S
C488 C489 1.397 . S
C488 C493 1.363 . S
C489 H460 0.950 . S
C489 C488 1.397 . S
C489 C490 1.334 . S
C490 H461 0.950 1_565 S
C490 C489 1.334 . S
C490 C491 1.287 . S
C491 C490 1.287 . S
C491 C492 1.524 . S
C491 H494 0.999 . S
C492 H462 0.950 . S
C492 C491 1.524 . S
C492 C493 1.415 . S
C493 H463 0.950 . S
C493 C488 1.363 . S
C493 C492 1.415 . S
H494 C491 0.999 . S
H495 C476 0.913 . S
H496 C514 0.951 . S
H497 C516 0.951 . S
H498 C518 0.950 . S
H499 C519 0.950 . S
H500 C521 0.950 . S
H501 C524 0.950 . S
H502 C525 0.950 . S
H503 C527 0.950 . S
H504 C528 0.950 . S
H505 C529 0.951 . S
H506 C531 0.951 . S
H507 C533 0.950 . S
H508 C534 0.950 . S
H509 C536 0.950 . S
H510 C539 0.950 . S
H511 C540 0.950 . S
H512 C542 0.950 . S
H513 C543 0.950 . S
C514 H496 0.951 . S
C514 C515 1.366 . S
C514 C516 1.388 . S
C515 C514 1.366 . S
C515 C519 1.385 . S
C516 H497 0.951 . S
C516 C514 1.388 . S
C516 C517 1.366 . S
C517 C516 1.366 . S
C517 C518 1.414 . S
C517 C520 1.499 . S
C518 H498 0.950 . S
C518 C517 1.414 . S
C518 C519 1.374 . S
C519 H499 0.950 . S
C519 C515 1.385 . S
C519 C518 1.374 . S
C520 C517 1.499 . S
C520 C521 1.373 . S
C520 C522 1.389 . S
C521 H500 0.950 . S
C521 C520 1.373 . S
C521 C537 1.377 . S
C522 C520 1.389 . S
C522 C523 1.524 . S
C522 C536 1.377 . S
C523 C522 1.524 . S
C523 C524 1.397 . S
C523 C528 1.363 . S
C524 H501 0.950 . S
C524 C523 1.397 . S
C524 C525 1.334 . S
C525 H502 0.950 . S
C525 C524 1.334 . S
C525 C526 1.287 . S
C526 C525 1.287 . S
C526 C527 1.524 . S
C526 H545 0.913 . S
C527 H503 0.950 . S
C527 C526 1.524 . S
C527 C528 1.415 . S
C528 H504 0.950 . S
C528 C523 1.363 . S
C528 C527 1.415 . S
C529 H505 0.951 . S
C529 C530 1.366 . S
C529 C531 1.388 . S
C530 C529 1.366 . S
C530 C534 1.385 . S
C531 H506 0.951 . S
C531 C529 1.388 . S
C531 C532 1.366 . S
C532 C531 1.366 . S
C532 C533 1.414 . S
C532 C535 1.499 . S
C533 H507 0.950 . S
C533 C532 1.414 . S
C533 C534 1.374 . S
C534 H508 0.950 . S
C534 C530 1.385 . S
C534 C533 1.374 . S
C535 C532 1.499 . S
C535 C536 1.373 . S
C535 C537 1.389 . S
C536 H509 0.950 . S
C536 C522 1.377 . S
C536 C535 1.373 . S
C537 C521 1.377 . S
C537 C535 1.389 . S
C537 C538 1.524 . S
C538 C537 1.524 . S
C538 C539 1.397 . S
C538 C543 1.363 . S
C539 H510 0.950 . S
C539 C538 1.397 . S
C539 C540 1.334 . S
C540 H511 0.950 . S
C540 C539 1.334 . S
C540 C541 1.287 . S
C541 C540 1.287 . S
C541 C542 1.524 . S
C541 H544 0.999 . S
C542 H512 0.950 . S
C542 C541 1.524 . S
C542 C543 1.415 . S
C543 H513 0.950 . S
C543 C538 1.363 . S
C543 C542 1.415 . S
H544 C541 0.999 . S
H545 C526 0.913 . S
H546 C564 0.951 . S
H547 C566 0.951 . S
H548 C568 0.950 . S
H549 C569 0.950 . S
H550 C571 0.950 . S
H551 C574 0.950 . S
H552 C575 0.950 . S
H553 C577 0.950 . S
H554 C578 0.950 . S
H555 C579 0.951 . S
H556 C581 0.951 . S
H557 C583 0.950 . S
H558 C584 0.950 . S
H559 C586 0.950 . S
H560 C589 0.950 . S
H561 C590 0.950 . S
H562 C592 0.950 . S
H563 C593 0.950 . S
C564 H546 0.951 . S
C564 C565 1.366 . S
C564 C566 1.388 . S
C565 C564 1.366 . S
C565 C569 1.385 . S
C566 H547 0.951 . S
C566 C564 1.388 . S
C566 C567 1.366 . S
C567 C566 1.366 . S
C567 C568 1.414 . S
C567 C570 1.499 . S
C568 H548 0.950 . S
C568 C567 1.414 . S
C568 C569 1.374 . S
C569 H549 0.950 . S
C569 C565 1.385 . S
C569 C568 1.374 . S
C570 C567 1.499 . S
C570 C571 1.373 . S
C570 C572 1.389 . S
C571 H550 0.950 . S
C571 C570 1.373 . S
C571 C587 1.377 . S
C572 C570 1.389 . S
C572 C573 1.524 . S
C572 C586 1.377 . S
C573 C572 1.524 . S
C573 C574 1.397 . S
C573 C578 1.363 . S
C574 H551 0.950 . S
C574 C573 1.397 . S
C574 C575 1.334 . S
C575 H552 0.950 . S
C575 C574 1.334 . S
C575 C576 1.287 . S
C576 C575 1.287 . S
C576 C577 1.524 . S
C576 H595 0.913 . S
C577 H553 0.950 . S
C577 C576 1.524 . S
C577 C578 1.415 . S
C578 H554 0.950 . S
C578 C573 1.363 . S
C578 C577 1.415 . S
C579 H555 0.951 . S
C579 C580 1.366 . S
C579 C581 1.388 . S
C580 C579 1.366 . S
C580 C584 1.385 . S
C581 H556 0.951 . S
C581 C579 1.388 . S
C581 C582 1.366 . S
C582 C581 1.366 . S
C582 C583 1.414 . S
C582 C585 1.499 . S
C583 H557 0.950 . S
C583 C582 1.414 . S
C583 C584 1.374 . S
C584 H558 0.950 . S
C584 C580 1.385 . S
C584 C583 1.374 . S
C585 C582 1.499 . S
C585 C586 1.373 . S
C585 C587 1.389 . S
C586 H559 0.950 . S
C586 C572 1.377 . S
C586 C585 1.373 . S
C587 C571 1.377 . S
C587 C585 1.389 . S
C587 C588 1.524 . S
C588 C587 1.524 . S
C588 C589 1.397 . S
C588 C593 1.363 . S
C589 H560 0.950 . S
C589 C588 1.397 . S
C589 C590 1.334 . S
C590 H561 0.950 . S
C590 C589 1.334 . S
C590 C591 1.287 . S
C591 C590 1.287 . S
C591 C592 1.524 . S
C591 H594 0.999 . S
C592 H562 0.950 . S
C592 C591 1.524 . S
C592 C593 1.415 . S
C593 H563 0.950 . S
C593 C588 1.363 . S
C593 C592 1.415 . S
H594 C591 0.999 . S
H595 C576 0.913 . S
H596 C614 0.951 . S
H597 C616 0.951 . S
H598 C618 0.950 . S
H599 C619 0.950 . S
H600 C621 0.950 . S
H601 C624 0.950 . S
H602 C625 0.950 . S
H603 C627 0.950 . S
H604 C628 0.965 . S
H605 C629 0.951 . S
H606 C631 0.951 . S
H607 C633 0.950 . S
H608 C634 0.950 1_655 S
H609 C636 0.950 . S
H610 C639 0.950 . S
H611 C640 0.950 . S
H612 C642 0.950 . S
H613 C643 0.950 . S
C614 H596 0.951 . S
C614 C615 1.366 . S
C614 C616 1.388 . S
C615 C614 1.366 . S
C615 C619 1.385 . S
C616 H597 0.951 . S
C616 C614 1.388 . S
C616 C617 1.366 . S
C617 C616 1.366 . S
C617 C618 1.414 . S
C617 C620 1.499 . S
C618 H598 0.950 . S
C618 C617 1.414 . S
C618 C619 1.374 . S
C619 H599 0.950 . S
C619 C615 1.385 . S
C619 C618 1.374 . S
C620 C617 1.499 . S
C620 C621 1.373 . S
C620 C622 1.389 . S
C621 H600 0.950 . S
C621 C620 1.373 . S
C621 C637 1.377 . S
C622 C620 1.389 . S
C622 C623 1.524 . S
C622 C636 1.377 . S
C623 C622 1.524 . S
C623 C624 1.397 . S
C623 C628 1.363 . S
C624 H601 0.950 . S
C624 C623 1.397 . S
C624 C625 1.334 . S
C625 H602 0.950 . S
C625 C624 1.334 . S
C625 C626 1.287 . S
C626 C625 1.287 . S
C626 C627 1.524 1_455 S
C626 H645 0.913 1_455 S
C627 H603 0.950 . S
C627 C626 1.524 1_655 S
C627 C628 1.415 1_655 S
C628 H604 0.965 . S
C628 C623 1.363 . S
C628 C627 1.415 1_455 S
C629 H605 0.951 . S
C629 C630 1.366 . S
C629 C631 1.388 . S
C630 C629 1.366 . S
C630 C634 1.385 . S
C631 H606 0.951 . S
C631 C629 1.388 . S
C631 C632 1.366 . S
C632 C631 1.366 . S
C632 C633 1.414 . S
C632 C635 1.499 . S
C633 H607 0.950 . S
C633 C632 1.414 . S
C633 C634 1.374 . S
C634 H608 0.950 1_455 S
C634 C630 1.385 . S
C634 C633 1.374 . S
C635 C632 1.499 . S
C635 C636 1.373 . S
C635 C637 1.389 . S
C636 H609 0.950 . S
C636 C622 1.377 . S
C636 C635 1.373 . S
C637 C621 1.377 . S
C637 C635 1.389 . S
C637 C638 1.524 . S
C638 C637 1.524 . S
C638 C639 1.397 . S
C638 C643 1.363 . S
C639 H610 0.950 . S
C639 C638 1.397 . S
C639 C640 1.334 . S
C640 H611 0.950 . S
C640 C639 1.334 . S
C640 C641 1.287 . S
C641 C640 1.287 . S
C641 C642 1.524 . S
C641 H644 0.999 . S
C642 H612 0.950 . S
C642 C641 1.524 . S
C642 C643 1.415 . S
C643 H613 0.950 . S
C643 C638 1.363 . S
C643 C642 1.415 . S
H644 C641 0.999 . S
H645 C626 0.913 1_655 S
H646 C664 0.951 . S
H647 C666 0.951 . S
H648 C668 0.950 . S
H649 C669 0.950 . S
H650 C671 0.950 . S
H651 C674 0.950 1_556 S
H652 C675 0.950 . S
H653 C677 0.950 . S
H654 C678 0.950 . S
H655 C679 0.951 . S
H656 C681 0.951 . S
H657 C683 0.950 . S
H658 C684 0.950 . S
H659 C686 0.950 1_554 S
H660 C689 0.950 . S
H661 C690 0.950 . S
H662 C692 0.950 . S
H663 C693 0.950 . S
C664 H646 0.951 . S
C664 C665 1.366 . S
C664 C666 1.388 . S
C665 C664 1.366 . S
C665 C669 1.385 . S
C666 H647 0.951 . S
C666 C664 1.388 . S
C666 C667 1.366 . S
C667 C666 1.366 . S
C667 C668 1.414 . S
C667 C670 1.499 . S
C668 H648 0.950 . S
C668 C667 1.414 . S
C668 C669 1.374 . S
C669 H649 0.950 . S
C669 C665 1.385 . S
C669 C668 1.374 . S
C670 C667 1.499 . S
C670 C671 1.373 . S
C670 C672 1.389 . S
C671 H650 0.950 . S
C671 C670 1.373 . S
C671 C687 1.377 . S
C672 C670 1.389 . S
C672 C673 1.524 1_556 S
C672 C686 1.377 . S
C673 C672 1.524 1_554 S
C673 C674 1.397 . S
C673 C678 1.363 . S
C674 H651 0.950 1_554 S
C674 C673 1.397 . S
C674 C675 1.334 . S
C675 H652 0.950 . S
C675 C674 1.334 . S
C675 C676 1.287 . S
C676 C675 1.287 . S
C676 C677 1.524 . S
C676 H695 0.913 . S
C677 H653 0.950 . S
C677 C676 1.524 . S
C677 C678 1.415 . S
C678 H654 0.950 . S
C678 C673 1.363 . S
C678 C677 1.415 . S
C679 H655 0.951 . S
C679 C680 1.366 1_556 S
C679 C681 1.388 . S
C680 C679 1.366 1_554 S
C680 C684 1.385 . S
C681 H656 0.951 . S
C681 C679 1.388 . S
C681 C682 1.366 . S
C682 C681 1.366 . S
C682 C683 1.414 1_556 S
C682 C685 1.499 . S
C683 H657 0.950 . S
C683 C682 1.414 1_554 S
C683 C684 1.374 . S
C684 H658 0.950 . S
C684 C680 1.385 . S
C684 C683 1.374 . S
C685 C682 1.499 . S
C685 C686 1.373 . S
C685 C687 1.389 . S
C686 H659 0.950 1_556 S
C686 C672 1.377 . S
C686 C685 1.373 . S
C687 C671 1.377 . S
C687 C685 1.389 . S
C687 C688 1.524 . S
C688 C687 1.524 . S
C688 C689 1.397 . S
C688 C693 1.363 . S
C689 H660 0.950 . S
C689 C688 1.397 . S
C689 C690 1.334 . S
C690 H661 0.950 . S
C690 C689 1.334 . S
C690 C691 1.287 . S
C691 C690 1.287 . S
C691 C692 1.524 . S
C691 H694 0.999 . S
C692 H662 0.950 . S
C692 C691 1.524 . S
C692 C693 1.415 . S
C693 H663 0.950 . S
C693 C688 1.363 . S
C693 C692 1.415 . S
H694 C691 0.999 . S
H695 C676 0.913 . S
H696 C714 0.951 . S
H697 C716 0.951 . S
H698 C718 0.950 . S
H699 C719 0.950 . S
H700 C721 0.950 . S
H701 C724 0.950 . S
H702 C725 0.950 . S
H703 C727 0.950 . S
H704 C728 0.950 . S
H705 C729 0.951 . S
H706 C731 0.951 . S
H707 C733 0.950 . S
H708 C734 0.950 . S
H709 C736 0.950 . S
H710 C739 0.950 . S
H711 C740 0.950 . S
H712 C742 0.950 . S
H713 C743 0.950 . S
C714 H696 0.951 . S
C714 C715 1.366 . S
C714 C716 1.388 . S
C715 C714 1.366 . S
C715 C719 1.385 . S
C716 H697 0.951 . S
C716 C714 1.388 . S
C716 C717 1.366 . S
C717 C716 1.366 . S
C717 C718 1.414 . S
C717 C720 1.499 . S
C718 H698 0.950 . S
C718 C717 1.414 . S
C718 C719 1.374 . S
C719 H699 0.950 . S
C719 C715 1.385 . S
C719 C718 1.374 . S
C720 C717 1.499 . S
C720 C721 1.373 . S
C720 C722 1.389 . S
C721 H700 0.950 . S
C721 C720 1.373 . S
C721 C737 1.377 . S
C722 C720 1.389 . S
C722 C723 1.524 . S
C722 C736 1.377 . S
C723 C722 1.524 . S
C723 C724 1.397 . S
C723 C728 1.363 . S
C724 H701 0.950 . S
C724 C723 1.397 . S
C724 C725 1.334 . S
C725 H702 0.950 . S
C725 C724 1.334 . S
C725 C726 1.287 . S
C726 C725 1.287 . S
C726 C727 1.524 . S
C726 H745 0.913 . S
C727 H703 0.950 . S
C727 C726 1.524 . S
C727 C728 1.415 . S
C728 H704 0.950 . S
C728 C723 1.363 . S
C728 C727 1.415 . S
C729 H705 0.951 . S
C729 C730 1.366 . S
C729 C731 1.388 . S
C730 C729 1.366 . S
C730 C734 1.385 1_455 S
C731 H706 0.951 . S
C731 C729 1.388 . S
C731 C732 1.366 1_455 S
C732 C731 1.366 1_655 S
C732 C733 1.414 . S
C732 C735 1.499 . S
C733 H707 0.950 . S
C733 C732 1.414 . S
C733 C734 1.374 . S
C734 H708 0.950 . S
C734 C730 1.385 1_655 S
C734 C733 1.374 . S
C735 C732 1.499 . S
C735 C736 1.373 . S
C735 C737 1.389 . S
C736 H709 0.950 . S
C736 C722 1.377 . S
C736 C735 1.373 . S
C737 C721 1.377 . S
C737 C735 1.389 . S
C737 C738 1.524 . S
C738 C737 1.524 . S
C738 C739 1.397 . S
C738 C743 1.363 1_655 S
C739 H710 0.950 . S
C739 C738 1.397 . S
C739 C740 1.334 . S
C740 H711 0.950 . S
C740 C739 1.334 . S
C740 C741 1.287 1_655 S
C741 C740 1.287 1_455 S
C741 C742 1.524 . S
C741 H744 0.999 . S
C742 H712 0.950 . S
C742 C741 1.524 . S
C742 C743 1.415 . S
C743 H713 0.950 . S
C743 C738 1.363 1_455 S
C743 C742 1.415 . S
H744 C741 0.999 . S
H745 C726 0.913 . S
H746 C764 0.951 . S
H747 C766 0.951 . S
H748 C768 0.950 . S
H749 C769 0.950 . S
H750 C771 0.950 . S
H751 C774 0.950 . S
H752 C775 0.950 . S
H753 C777 0.950 . S
H754 C778 0.950 . S
H755 C779 0.951 . S
H756 C781 0.951 . S
H757 C783 0.950 . S
H758 C784 0.950 . S
H759 C786 0.950 . S
H760 C789 0.950 . S
H761 C790 0.950 . S
H762 C792 0.950 . S
H763 C793 0.950 . S
C764 H746 0.951 . S
C764 C765 1.366 . S
C764 C766 1.388 . S
C765 C764 1.366 . S
C765 C769 1.385 . S
C766 H747 0.951 . S
C766 C764 1.388 . S
C766 C767 1.366 . S
C767 C766 1.366 . S
C767 C768 1.414 . S
C767 C770 1.499 . S
C768 H748 0.950 . S
C768 C767 1.414 . S
C768 C769 1.374 . S
C769 H749 0.950 . S
C769 C765 1.385 . S
C769 C768 1.374 . S
C770 C767 1.499 . S
C770 C771 1.373 . S
C770 C772 1.389 . S
C771 H750 0.950 . S
C771 C770 1.373 . S
C771 C787 1.377 . S
C772 C770 1.389 . S
C772 C773 1.524 . S
C772 C786 1.377 . S
C773 C772 1.524 . S
C773 C774 1.397 . S
C773 C778 1.363 . S
C774 H751 0.950 . S
C774 C773 1.397 . S
C774 C775 1.334 . S
C775 H752 0.950 . S
C775 C774 1.334 . S
C775 C776 1.287 . S
C776 C775 1.287 . S
C776 C777 1.524 . S
C776 H795 0.913 . S
C777 H753 0.950 . S
C777 C776 1.524 . S
C777 C778 1.415 . S
C778 H754 0.950 . S
C778 C773 1.363 . S
C778 C777 1.415 . S
C779 H755 0.951 . S
C779 C780 1.366 . S
C779 C781 1.388 . S
C780 C779 1.366 . S
C780 C784 1.385 . S
C781 H756 0.951 . S
C781 C779 1.388 . S
C781 C782 1.366 . S
C782 C781 1.366 . S
C782 C783 1.414 . S
C782 C785 1.499 . S
C783 H757 0.950 . S
C783 C782 1.414 . S
C783 C784 1.374 . S
C784 H758 0.950 . S
C784 C780 1.385 . S
C784 C783 1.374 . S
C785 C782 1.499 . S
C785 C786 1.373 . S
C785 C787 1.389 . S
C786 H759 0.950 . S
C786 C772 1.377 . S
C786 C785 1.373 . S
C787 C771 1.377 . S
C787 C785 1.389 . S
C787 C788 1.524 . S
C788 C787 1.524 . S
C788 C789 1.397 . S
C788 C793 1.363 . S
C789 H760 0.950 . S
C789 C788 1.397 . S
C789 C790 1.334 . S
C790 H761 0.950 . S
C790 C789 1.334 . S
C790 C791 1.287 . S
C791 C790 1.287 . S
C791 C792 1.524 . S
C791 H794 0.999 . S
C792 H762 0.950 . S
C792 C791 1.524 . S
C792 C793 1.415 . S
C793 H763 0.950 . S
C793 C788 1.363 . S
C793 C792 1.415 . S
H794 C791 0.999 . S
H795 C776 0.913 . S
H796 C814 0.951 1_545 S
H797 C816 0.951 1_545 S
H798 C818 0.950 . S
H799 C819 0.950 . S
H800 C821 0.950 1_455 S
H801 C824 0.950 . S
H802 C825 0.950 . S
H803 C827 0.950 . S
H804 C828 0.950 . S
H805 C829 0.951 . S
H806 C831 0.951 . S
H807 C833 0.950 . S
H808 C834 0.950 . S
H809 C836 0.950 1_545 S
H810 C839 0.950 1_545 S
H811 C840 0.931 1_545 S
H812 C842 0.950 . S
H813 C843 0.950 . S
C814 H796 0.951 1_565 S
C814 C815 1.366 . S
C814 C816 1.388 . S
C815 C814 1.366 . S
C815 C819 1.385 . S
C816 H797 0.951 1_565 S
C816 C814 1.388 . S
C816 C817 1.366 . S
C817 C816 1.366 . S
C817 C818 1.414 . S
C817 C820 1.499 . S
C818 H798 0.950 . S
C818 C817 1.414 . S
C818 C819 1.374 . S
C819 H799 0.950 . S
C819 C815 1.385 . S
C819 C818 1.374 . S
C820 C817 1.499 . S
C820 C821 1.373 . S
C820 C822 1.389 . S
C821 H800 0.950 1_655 S
C821 C820 1.373 . S
C821 C837 1.377 1_655 S
C822 C820 1.389 . S
C822 C823 1.524 . S
C822 C836 1.377 . S
C823 C822 1.524 . S
C823 C824 1.397 . S
C823 C828 1.363 1_565 S
C824 H801 0.950 . S
C824 C823 1.397 . S
C824 C825 1.334 . S
C825 H802 0.950 . S
C825 C824 1.334 . S
C825 C826 1.287 1_565 S
C826 C825 1.287 1_545 S
C826 C827 1.524 . S
C826 H845 0.913 . S
C827 H803 0.950 . S
C827 C826 1.524 . S
C827 C828 1.415 . S
C828 H804 0.950 . S
C828 C823 1.363 1_545 S
C828 C827 1.415 . S
C829 H805 0.951 . S
C829 C830 1.366 . S
C829 C831 1.388 . S
C830 C829 1.366 . S
C830 C834 1.385 1_565 S
C831 H806 0.951 . S
C831 C829 1.388 . S
C831 C832 1.366 1_455 S
C832 C831 1.366 1_655 S
C832 C833 1.414 1_565 S
C832 C835 1.499 . S
C833 H807 0.950 . S
C833 C832 1.414 1_545 S
C833 C834 1.374 1_655 S
C834 H808 0.950 . S
C834 C830 1.385 1_545 S
C834 C833 1.374 1_455 S
C835 C832 1.499 . S
C835 C836 1.373 . S
C835 C837 1.389 1_655 S
C836 H809 0.950 1_565 S
C836 C822 1.377 . S
C836 C835 1.373 . S
C837 C821 1.377 1_455 S
C837 C835 1.389 1_455 S
C837 C838 1.524 . S
C838 C837 1.524 . S
C838 C839 1.397 . S
C838 C843 1.363 . S
C839 H810 0.950 1_565 S
C839 C838 1.397 . S
C839 C840 1.334 . S
C840 H811 0.931 1_565 S
C840 C839 1.334 . S
C840 C841 1.287 . S
C841 C840 1.287 . S
C841 C842 1.524 . S
C841 H844 0.999 . S
C842 H812 0.950 . S
C842 C841 1.524 . S
C842 C843 1.415 . S
C843 H813 0.950 . S
C843 C838 1.363 . S
C843 C842 1.415 . S
H844 C841 0.999 . S
H845 C826 0.913 . S
H846 C864 0.951 . S
H847 C866 0.951 . S
H848 C868 0.950 . S
H849 C869 0.950 . S
H850 C871 0.950 . S
H851 C874 0.950 . S
H852 C875 0.950 . S
H853 C877 0.950 . S
H854 C878 0.950 . S
H855 C879 0.951 . S
H856 C881 0.951 . S
H857 C883 0.950 . S
H858 C884 0.950 . S
H859 C886 0.950 . S
H860 C889 0.950 . S
H861 C890 0.950 . S
H862 C892 0.950 . S
H863 C893 0.950 . S
C864 H846 0.951 . S
C864 C865 1.366 . S
C864 C866 1.388 . S
C865 C864 1.366 . S
C865 C869 1.385 . S
C866 H847 0.951 . S
C866 C864 1.388 . S
C866 C867 1.366 . S
C867 C866 1.366 . S
C867 C868 1.414 . S
C867 C870 1.499 . S
C868 H848 0.950 . S
C868 C867 1.414 . S
C868 C869 1.374 . S
C869 H849 0.950 . S
C869 C865 1.385 . S
C869 C868 1.374 . S
C870 C867 1.499 . S
C870 C871 1.373 . S
C870 C872 1.389 . S
C871 H850 0.950 . S
C871 C870 1.373 . S
C871 C887 1.377 . S
C872 C870 1.389 . S
C872 C873 1.524 . S
C872 C886 1.377 . S
C873 C872 1.524 . S
C873 C874 1.397 . S
C873 C878 1.363 . S
C874 H851 0.950 . S
C874 C873 1.397 . S
C874 C875 1.334 1_545 S
C875 H852 0.950 . S
C875 C874 1.334 1_565 S
C875 C876 1.287 . S
C876 C875 1.287 . S
C876 C877 1.524 1_565 S
C876 H895 0.913 . S
C877 H853 0.950 . S
C877 C876 1.524 1_545 S
C877 C878 1.415 . S
C878 H854 0.950 . S
C878 C873 1.363 . S
C878 C877 1.415 . S
C879 H855 0.951 . S
C879 C880 1.366 . S
C879 C881 1.388 . S
C880 C879 1.366 . S
C880 C884 1.385 . S
C881 H856 0.951 . S
C881 C879 1.388 . S
C881 C882 1.366 . S
C882 C881 1.366 . S
C882 C883 1.414 . S
C882 C885 1.499 . S
C883 H857 0.950 . S
C883 C882 1.414 . S
C883 C884 1.374 . S
C884 H858 0.950 . S
C884 C880 1.385 . S
C884 C883 1.374 . S
C885 C882 1.499 . S
C885 C886 1.373 . S
C885 C887 1.389 . S
C886 H859 0.950 . S
C886 C872 1.377 . S
C886 C885 1.373 . S
C887 C871 1.377 . S
C887 C885 1.389 . S
C887 C888 1.524 . S
C888 C887 1.524 . S
C888 C889 1.397 . S
C888 C893 1.363 . S
C889 H860 0.950 . S
C889 C888 1.397 . S
C889 C890 1.334 . S
C890 H861 0.950 . S
C890 C889 1.334 . S
C890 C891 1.287 . S
C891 C890 1.287 . S
C891 C892 1.524 . S
C891 H894 0.999 . S
C892 H862 0.950 . S
C892 C891 1.524 . S
C892 C893 1.415 . S
C893 H863 0.950 . S
C893 C888 1.363 . S
C893 C892 1.415 . S
H894 C891 0.999 . S
H895 C876 0.913 . S
H896 C914 0.951 . S
H897 C916 0.951 . S
H898 C918 0.950 . S
H899 C919 0.950 . S
H900 C921 0.950 . S
H901 C924 0.950 . S
H902 C925 0.950 . S
H903 C927 0.950 . S
H904 C928 0.950 . S
H905 C929 0.951 . S
H906 C931 0.951 . S
H907 C933 0.950 . S
H908 C934 0.950 . S
H909 C936 0.950 . S
H910 C939 0.950 . S
H911 C940 0.950 . S
H912 C942 0.950 . S
H913 C943 0.950 . S
C914 H896 0.951 . S
C914 C915 1.366 . S
C914 C916 1.388 . S
C915 C914 1.366 . S
C915 C919 1.385 . S
C916 H897 0.951 . S
C916 C914 1.388 . S
C916 C917 1.366 . S
C917 C916 1.366 . S
C917 C918 1.414 . S
C917 C920 1.499 . S
C918 H898 0.950 . S
C918 C917 1.414 . S
C918 C919 1.374 . S
C919 H899 0.950 . S
C919 C915 1.385 . S
C919 C918 1.374 . S
C920 C917 1.499 . S
C920 C921 1.373 . S
C920 C922 1.389 . S
C921 H900 0.950 . S
C921 C920 1.373 . S
C921 C937 1.377 . S
C922 C920 1.389 . S
C922 C923 1.524 . S
C922 C936 1.377 . S
C923 C922 1.524 . S
C923 C924 1.397 . S
C923 C928 1.363 . S
C924 H901 0.950 . S
C924 C923 1.397 . S
C924 C925 1.334 . S
C925 H902 0.950 . S
C925 C924 1.334 . S
C925 C926 1.287 . S
C926 C925 1.287 . S
C926 C927 1.524 . S
C926 H945 0.913 . S
C927 H903 0.950 . S
C927 C926 1.524 . S
C927 C928 1.415 . S
C928 H904 0.950 . S
C928 C923 1.363 . S
C928 C927 1.415 . S
C929 H905 0.951 . S
C929 C930 1.366 . S
C929 C931 1.388 . S
C930 C929 1.366 . S
C930 C934 1.385 . S
C931 H906 0.951 . S
C931 C929 1.388 . S
C931 C932 1.366 . S
C932 C931 1.366 . S
C932 C933 1.414 . S
C932 C935 1.499 . S
C933 H907 0.950 . S
C933 C932 1.414 . S
C933 C934 1.374 . S
C934 H908 0.950 . S
C934 C930 1.385 . S
C934 C933 1.374 . S
C935 C932 1.499 . S
C935 C936 1.373 . S
C935 C937 1.389 . S
C936 H909 0.950 . S
C936 C922 1.377 . S
C936 C935 1.373 . S
C937 C921 1.377 . S
C937 C935 1.389 . S
C937 C938 1.524 . S
C938 C937 1.524 . S
C938 C939 1.397 . S
C938 C943 1.363 . S
C939 H910 0.950 . S
C939 C938 1.397 . S
C939 C940 1.334 . S
C940 H911 0.950 . S
C940 C939 1.334 . S
C940 C941 1.287 . S
C941 C940 1.287 . S
C941 C942 1.524 . S
C941 H944 0.999 . S
C942 H912 0.950 . S
C942 C941 1.524 . S
C942 C943 1.415 . S
C943 H913 0.950 . S
C943 C938 1.363 . S
C943 C942 1.415 . S
H944 C941 0.999 . S
H945 C926 0.913 . S
H946 C964 0.951 . S
H947 C966 0.951 . S
H948 C968 0.950 . S
H949 C969 0.950 . S
H950 C971 0.950 . S
H951 C974 0.950 . S
H952 C975 0.950 . S
H953 C977 0.950 . S
H954 C978 0.950 . S
H955 C979 0.951 . S
H956 C981 0.951 . S
H957 C983 0.950 . S
H958 C984 0.950 . S
H959 C986 0.950 . S
H960 C989 0.950 . S
H961 C990 0.950 . S
H962 C992 0.950 . S
H963 C993 0.950 . S
C964 H946 0.951 . S
C964 C965 1.366 . S
C964 C966 1.388 . S
C965 C964 1.366 . S
C965 C969 1.385 . S
C966 H947 0.951 . S
C966 C964 1.388 . S
C966 C967 1.366 . S
C967 C966 1.366 . S
C967 C968 1.414 . S
C967 C970 1.499 . S
C968 H948 0.950 . S
C968 C967 1.414 . S
C968 C969 1.374 . S
C969 H949 0.950 . S
C969 C965 1.385 . S
C969 C968 1.374 . S
C970 C967 1.499 . S
C970 C971 1.373 . S
C970 C972 1.389 . S
C971 H950 0.950 . S
C971 C970 1.373 . S
C971 C987 1.377 . S
C972 C970 1.389 . S
C972 C973 1.524 . S
C972 C986 1.377 . S
C973 C972 1.524 . S
C973 C974 1.397 . S
C973 C978 1.363 . S
C974 H951 0.950 . S
C974 C973 1.397 . S
C974 C975 1.334 . S
C975 H952 0.950 . S
C975 C974 1.334 . S
C975 C976 1.287 . S
C976 C975 1.287 . S
C976 C977 1.524 . S
C976 H995 0.913 . S
C977 H953 0.950 . S
C977 C976 1.524 . S
C977 C978 1.415 . S
C978 H954 0.950 . S
C978 C973 1.363 . S
C978 C977 1.415 . S
C979 H955 0.951 . S
C979 C980 1.366 . S
C979 C981 1.388 . S
C980 C979 1.366 . S
C980 C984 1.385 . S
C981 H956 0.951 . S
C981 C979 1.388 . S
C981 C982 1.366 . S
C982 C981 1.366 . S
C982 C983 1.414 . S
C982 C985 1.499 . S
C983 H957 0.950 . S
C983 C982 1.414 . S
C983 C984 1.374 . S
C984 H958 0.950 . S
C984 C980 1.385 . S
C984 C983 1.374 . S
C985 C982 1.499 . S
C985 C986 1.373 . S
C985 C987 1.389 . S
C986 H959 0.950 . S
C986 C972 1.377 . S
C986 C985 1.373 . S
C987 C971 1.377 . S
C987 C985 1.389 . S
C987 C988 1.524 . S
C988 C987 1.524 . S
C988 C989 1.397 . S
C988 C993 1.363 . S
C989 H960 0.950 . S
C989 C988 1.397 . S
C989 C990 1.334 . S
C990 H961 0.950 . S
C990 C989 1.334 . S
C990 C991 1.287 . S
C991 C990 1.287 . S
C991 C992 1.524 . S
C991 H994 0.999 . S
C992 H962 0.950 . S
C992 C991 1.524 . S
C992 C993 1.415 . S
C993 H963 0.950 . S
C993 C988 1.363 . S
C993 C992 1.415 . S
H994 C991 0.999 . S
H995 C976 0.913 . S
H996 C1014 0.951 . S
H997 C1016 0.951 . S
H998 C1018 0.950 1_554 S
H999 C1019 0.950 . S
H1000 C1021 0.950 . S
H1001 C1024 0.950 . S
H1002 C1025 0.950 . S
H1003 C1027 0.950 . S
H1004 C1028 0.950 . S
H1005 C1029 0.951 . S
H1006 C1031 0.951 . S
H1007 C1033 0.950 . S
H1008 C1034 0.948 1_565 S
H1009 C1036 0.950 . S
H1010 C1039 0.950 . S
H1011 C1040 0.950 . S
H1012 C1042 0.950 . S
H1013 C1043 0.950 . S
C1014 H996 0.951 . S
C1014 C1015 1.366 . S
C1014 C1016 1.388 . S
C1015 C1014 1.366 . S
C1015 C1019 1.385 . S
C1016 H997 0.951 . S
C1016 C1014 1.388 . S
C1016 C1017 1.366 . S
C1017 C1016 1.366 . S
C1017 C1018 1.414 . S
C1017 C1020 1.499 . S
C1018 H998 0.950 1_556 S
C1018 C1017 1.414 . S
C1018 C1019 1.374 . S
C1019 H999 0.950 . S
C1019 C1015 1.385 . S
C1019 C1018 1.374 . S
C1020 C1017 1.499 . S
C1020 C1021 1.373 1_556 S
C1020 C1022 1.389 1_565 S
C1021 H1000 0.950 . S
C1021 C1020 1.373 1_554 S
C1021 C1037 1.377 . S
C1022 C1020 1.389 1_545 S
C1022 C1023 1.524 . S
C1022 C1036 1.377 . S
C1023 C1022 1.524 . S
C1023 C1024 1.397 . S
C1023 C1028 1.363 . S
C1024 H1001 0.950 . S
C1024 C1023 1.397 . S
C1024 C1025 1.334 . S
C1025 H1002 0.950 . S
C1025 C1024 1.334 . S
C1025 C1026 1.287 . S
C1026 C1025 1.287 . S
C1026 C1027 1.524 . S
C1026 H1045 0.913 . S
C1027 H1003 0.950 . S
C1027 C1026 1.524 . S
C1027 C1028 1.415 . S
C1028 H1004 0.950 . S
C1028 C1023 1.363 . S
C1028 C1027 1.415 . S
C1029 H1005 0.951 . S
C1029 C1030 1.366 . S
C1029 C1031 1.388 . S
C1030 C1029 1.366 . S
C1030 C1034 1.385 1_554 S
C1031 H1006 0.951 . S
C1031 C1029 1.388 . S
C1031 C1032 1.372 . S
C1032 C1031 1.372 . S
C1032 C1033 1.413 1_544 S
C1032 C1035 1.495 1_544 S
C1033 H1007 0.950 . S
C1033 C1032 1.413 1_566 S
C1033 C1034 1.374 1_565 S
C1034 H1008 0.948 1_545 S
C1034 C1030 1.385 1_556 S
C1034 C1033 1.374 1_545 S
C1035 C1032 1.495 1_566 S
C1035 C1036 1.373 1_565 S
C1035 C1037 1.389 1_556 S
C1036 H1009 0.950 . S
C1036 C1022 1.377 . S
C1036 C1035 1.373 1_545 S
C1037 C1021 1.377 . S
C1037 C1035 1.389 1_554 S
C1037 C1038 1.524 . S
C1038 C1037 1.524 . S
C1038 C1039 1.397 . S
C1038 C1043 1.363 . S
C1039 H1010 0.950 . S
C1039 C1038 1.397 . S
C1039 C1040 1.334 . S
C1040 H1011 0.950 . S
C1040 C1039 1.334 . S
C1040 C1041 1.287 . S
C1041 C1040 1.287 . S
C1041 C1042 1.524 . S
C1041 H1044 0.999 . S
C1042 H1012 0.950 . S
C1042 C1041 1.524 . S
C1042 C1043 1.415 . S
C1043 H1013 0.950 . S
C1043 C1038 1.363 . S
C1043 C1042 1.415 . S
H1044 C1041 0.999 . S
H1045 C1026 0.913 . S
H1046 C1064 0.951 . S
H1047 C1066 0.951 . S
H1048 C1068 0.950 . S
H1049 C1069 0.950 . S
H1050 C1071 0.950 . S
H1051 C1074 0.950 . S
H1052 C1075 0.950 . S
H1053 C1077 0.950 . S
H1054 C1078 0.950 . S
H1055 C1079 0.951 . S
H1056 C1081 0.951 . S
H1057 C1083 0.950 . S
H1058 C1084 0.950 . S
H1059 C1086 0.950 . S
H1060 C1089 0.950 . S
H1061 C1090 0.950 . S
H1062 C1092 0.950 . S
H1063 C1093 0.950 . S
C1064 H1046 0.951 . S
C1064 C1065 1.366 . S
C1064 C1066 1.388 . S
C1065 C1064 1.366 . S
C1065 C1069 1.385 . S
C1066 H1047 0.951 . S
C1066 C1064 1.388 . S
C1066 C1067 1.366 . S
C1067 C1066 1.366 . S
C1067 C1068 1.414 . S
C1067 C1070 1.499 . S
C1068 H1048 0.950 . S
C1068 C1067 1.414 . S
C1068 C1069 1.374 . S
C1069 H1049 0.950 . S
C1069 C1065 1.385 . S
C1069 C1068 1.374 . S
C1070 C1067 1.499 . S
C1070 C1071 1.373 . S
C1070 C1072 1.389 . S
C1071 H1050 0.950 . S
C1071 C1070 1.373 . S
C1071 C1087 1.377 . S
C1072 C1070 1.389 . S
C1072 C1073 1.524 . S
C1072 C1086 1.377 . S
C1073 C1072 1.524 . S
C1073 C1074 1.397 . S
C1073 C1078 1.363 . S
C1074 H1051 0.950 . S
C1074 C1073 1.397 . S
C1074 C1075 1.334 1_545 S
C1075 H1052 0.950 . S
C1075 C1074 1.334 1_565 S
C1075 C1076 1.287 . S
C1076 C1075 1.287 . S
C1076 C1077 1.524 1_565 S
C1076 H1095 0.913 . S
C1077 H1053 0.950 . S
C1077 C1076 1.524 1_545 S
C1077 C1078 1.415 . S
C1078 H1054 0.950 . S
C1078 C1073 1.363 . S
C1078 C1077 1.415 . S
C1079 H1055 0.951 . S
C1079 C1080 1.366 . S
C1079 C1081 1.388 . S
C1080 C1079 1.366 . S
C1080 C1084 1.385 . S
C1081 H1056 0.951 . S
C1081 C1079 1.388 . S
C1081 C1082 1.366 . S
C1082 C1081 1.366 . S
C1082 C1083 1.414 . S
C1082 C1085 1.499 . S
C1083 H1057 0.950 . S
C1083 C1082 1.414 . S
C1083 C1084 1.374 . S
C1084 H1058 0.950 . S
C1084 C1080 1.385 . S
C1084 C1083 1.374 . S
C1085 C1082 1.499 . S
C1085 C1086 1.373 . S
C1085 C1087 1.389 . S
C1086 H1059 0.950 . S
C1086 C1072 1.377 . S
C1086 C1085 1.373 . S
C1087 C1071 1.377 . S
C1087 C1085 1.389 . S
C1087 C1088 1.524 . S
C1088 C1087 1.524 . S
C1088 C1089 1.397 . S
C1088 C1093 1.363 . S
C1089 H1060 0.950 . S
C1089 C1088 1.397 . S
C1089 C1090 1.334 . S
C1090 H1061 0.950 . S
C1090 C1089 1.334 . S
C1090 C1091 1.287 . S
C1091 C1090 1.287 . S
C1091 C1092 1.524 . S
C1091 H1094 0.999 . S
C1092 H1062 0.950 . S
C1092 C1091 1.524 . S
C1092 C1093 1.415 . S
C1093 H1063 0.950 . S
C1093 C1088 1.363 . S
C1093 C1092 1.415 . S
H1094 C1091 0.999 . S
H1095 C1076 0.913 . S
H1096 C1114 0.951 . S
H1097 C1116 0.951 . S
H1098 C1118 0.950 . S
H1099 C1119 0.950 . S
H1100 C1121 0.950 . S
H1101 C1124 0.950 1_554 S
H1102 C1125 0.950 . S
H1103 C1127 0.950 . S
H1104 C1128 0.950 . S
H1105 C1129 0.951 . S
H1106 C1131 0.951 . S
H1107 C1133 0.950 . S
H1108 C1134 0.950 . S
H1109 C1136 0.950 . S
H1110 C1139 0.950 . S
H1111 C1140 0.950 . S
H1112 C1142 0.950 . S
H1113 C1143 0.950 . S
C1114 H1096 0.951 . S
C1114 C1115 1.366 . S
C1114 C1116 1.388 . S
C1115 C1114 1.366 . S
C1115 C1119 1.385 . S
C1116 H1097 0.951 . S
C1116 C1114 1.388 . S
C1116 C1117 1.366 . S
C1117 C1116 1.366 . S
C1117 C1118 1.414 . S
C1117 C1120 1.499 . S
C1118 H1098 0.950 . S
C1118 C1117 1.414 . S
C1118 C1119 1.374 . S
C1119 H1099 0.950 . S
C1119 C1115 1.385 . S
C1119 C1118 1.374 . S
C1120 C1117 1.499 . S
C1120 C1121 1.373 . S
C1120 C1122 1.389 . S
C1121 H1100 0.950 . S
C1121 C1120 1.373 . S
C1121 C1137 1.377 . S
C1122 C1120 1.389 . S
C1122 C1123 1.524 . S
C1122 C1136 1.377 . S
C1123 C1122 1.524 . S
C1123 C1124 1.397 1_554 S
C1123 C1128 1.363 . S
C1124 H1101 0.950 1_556 S
C1124 C1123 1.397 1_556 S
C1124 C1125 1.334 . S
C1125 H1102 0.950 . S
C1125 C1124 1.334 . S
C1125 C1126 1.287 . S
C1126 C1125 1.287 . S
C1126 C1127 1.524 . S
C1126 H1145 0.913 . S
C1127 H1103 0.950 . S
C1127 C1126 1.524 . S
C1127 C1128 1.415 1_556 S
C1128 H1104 0.950 . S
C1128 C1123 1.363 . S
C1128 C1127 1.415 1_554 S
C1129 H1105 0.951 . S
C1129 C1130 1.366 . S
C1129 C1131 1.388 . S
C1130 C1129 1.366 . S
C1130 C1134 1.385 . S
C1131 H1106 0.951 . S
C1131 C1129 1.388 . S
C1131 C1132 1.366 . S
C1132 C1131 1.366 . S
C1132 C1133 1.414 . S
C1132 C1135 1.499 . S
C1133 H1107 0.950 . S
C1133 C1132 1.414 . S
C1133 C1134 1.374 . S
C1134 H1108 0.950 . S
C1134 C1130 1.385 . S
C1134 C1133 1.374 . S
C1135 C1132 1.499 . S
C1135 C1136 1.373 . S
C1135 C1137 1.389 . S
C1136 H1109 0.950 . S
C1136 C1122 1.377 . S
C1136 C1135 1.373 . S
C1137 C1121 1.377 . S
C1137 C1135 1.389 . S
C1137 C1138 1.524 . S
C1138 C1137 1.524 . S
C1138 C1139 1.397 . S
C1138 C1143 1.363 . S
C1139 H1110 0.950 . S
C1139 C1138 1.397 . S
C1139 C1140 1.334 . S
C1140 H1111 0.950 . S
C1140 C1139 1.334 . S
C1140 C1141 1.287 . S
C1141 C1140 1.287 . S
C1141 C1142 1.524 . S
C1141 H1144 0.999 . S
C1142 H1112 0.950 . S
C1142 C1141 1.524 . S
C1142 C1143 1.415 . S
C1143 H1113 0.950 . S
C1143 C1138 1.363 . S
C1143 C1142 1.415 . S
H1144 C1141 0.999 . S
H1145 C1126 0.913 . S
H1146 C1164 0.951 . S
H1147 C1166 0.951 . S
H1148 C1168 0.950 . S
H1149 C1169 0.950 . S
H1150 C1171 0.950 . S
H1151 C1174 0.950 . S
H1152 C1175 0.950 . S
H1153 C1177 0.950 . S
H1154 C1178 0.950 . S
H1155 C1179 0.951 . S
H1156 C1181 0.951 . S
H1157 C1183 0.950 . S
H1158 C1184 0.950 . S
H1159 C1186 0.950 . S
H1160 C1189 0.950 . S
H1161 C1190 0.950 . S
H1162 C1192 0.950 . S
H1163 C1193 0.950 . S
C1164 H1146 0.951 . S
C1164 C1165 1.366 . S
C1164 C1166 1.388 . S
C1165 C1164 1.366 . S
C1165 C1169 1.385 . S
C1166 H1147 0.951 . S
C1166 C1164 1.388 . S
C1166 C1167 1.366 . S
C1167 C1166 1.366 . S
C1167 C1168 1.414 . S
C1167 C1170 1.499 . S
C1168 H1148 0.950 . S
C1168 C1167 1.414 . S
C1168 C1169 1.374 . S
C1169 H1149 0.950 . S
C1169 C1165 1.385 . S
C1169 C1168 1.374 . S
C1170 C1167 1.499 . S
C1170 C1171 1.373 . S
C1170 C1172 1.389 . S
C1171 H1150 0.950 . S
C1171 C1170 1.373 . S
C1171 C1187 1.377 . S
C1172 C1170 1.389 . S
C1172 C1173 1.524 . S
C1172 C1186 1.377 . S
C1173 C1172 1.524 . S
C1173 C1174 1.397 . S
C1173 C1178 1.363 . S
C1174 H1151 0.950 . S
C1174 C1173 1.397 . S
C1174 C1175 1.334 . S
C1175 H1152 0.950 . S
C1175 C1174 1.334 . S
C1175 C1176 1.287 . S
C1176 C1175 1.287 . S
C1176 C1177 1.524 . S
C1176 H1195 0.913 . S
C1177 H1153 0.950 . S
C1177 C1176 1.524 . S
C1177 C1178 1.415 . S
C1178 H1154 0.950 . S
C1178 C1173 1.363 . S
C1178 C1177 1.415 . S
C1179 H1155 0.951 . S
C1179 C1180 1.366 . S
C1179 C1181 1.388 . S
C1180 C1179 1.366 . S
C1180 C1184 1.385 . S
C1181 H1156 0.951 . S
C1181 C1179 1.388 . S
C1181 C1182 1.366 . S
C1182 C1181 1.366 . S
C1182 C1183 1.414 . S
C1182 C1185 1.499 . S
C1183 H1157 0.950 . S
C1183 C1182 1.414 . S
C1183 C1184 1.374 . S
C1184 H1158 0.950 . S
C1184 C1180 1.385 . S
C1184 C1183 1.374 . S
C1185 C1182 1.499 . S
C1185 C1186 1.373 . S
C1185 C1187 1.389 . S
C1186 H1159 0.950 . S
C1186 C1172 1.377 . S
C1186 C1185 1.373 . S
C1187 C1171 1.377 . S
C1187 C1185 1.389 . S
C1187 C1188 1.524 . S
C1188 C1187 1.524 . S
C1188 C1189 1.397 . S
C1188 C1193 1.363 . S
C1189 H1160 0.950 . S
C1189 C1188 1.397 . S
C1189 C1190 1.334 . S
C1190 H1161 0.950 . S
C1190 C1189 1.334 . S
C1190 C1191 1.287 . S
C1191 C1190 1.287 . S
C1191 C1192 1.524 . S
C1191 H1194 0.999 . S
C1192 H1162 0.950 . S
C1192 C1191 1.524 . S
C1192 C1193 1.415 . S
C1193 H1163 0.950 . S
C1193 C1188 1.363 . S
C1193 C1192 1.415 . S
H1194 C1191 0.999 . S
H1195 C1176 0.913 . S
H1196 C1214 0.951 . S
H1197 C1216 0.951 . S
H1198 C1218 0.950 . S
H1199 C1219 0.950 . S
H1200 C1221 0.950 . S
H1201 C1224 0.950 . S
H1202 C1225 0.950 . S
H1203 C1227 0.950 . S
H1204 C1228 0.950 . S
H1205 C1229 0.951 . S
H1206 C1231 0.951 . S
H1207 C1233 0.950 1_455 S
H1208 C1234 0.950 1_454 S
H1209 C1236 0.943 1_455 S
H1210 C1239 0.950 . S
H1211 C1240 0.950 . S
H1212 C1242 0.950 . S
H1213 C1243 0.950 . S
C1214 H1196 0.951 . S
C1214 C1215 1.366 . S
C1214 C1216 1.388 . S
C1215 C1214 1.366 . S
C1215 C1219 1.385 . S
C1216 H1197 0.951 . S
C1216 C1214 1.388 . S
C1216 C1217 1.366 . S
C1217 C1216 1.366 . S
C1217 C1218 1.414 . S
C1217 C1220 1.499 . S
C1218 H1198 0.950 . S
C1218 C1217 1.414 . S
C1218 C1219 1.374 . S
C1219 H1199 0.950 . S
C1219 C1215 1.385 . S
C1219 C1218 1.374 . S
C1220 C1217 1.499 . S
C1220 C1221 1.373 . S
C1220 C1222 1.389 . S
C1221 H1200 0.950 . S
C1221 C1220 1.373 . S
C1221 C1237 1.377 . S
C1222 C1220 1.389 . S
C1222 C1223 1.498 1_655 S
C1222 C1236 1.377 . S
C1223 C1222 1.498 1_455 S
C1223 C1224 1.385 1_455 S
C1223 C1228 1.401 . S
C1224 H1201 0.950 . S
C1224 C1223 1.385 1_655 S
C1224 C1225 1.334 1_655 S
C1225 H1202 0.950 . S
C1225 C1224 1.334 1_455 S
C1225 C1226 1.287 . S
C1226 C1225 1.287 . S
C1226 C1227 1.524 . S
C1226 H1245 0.913 . S
C1227 H1203 0.950 . S
C1227 C1226 1.524 . S
C1227 C1228 1.415 . S
C1228 H1204 0.950 . S
C1228 C1223 1.401 . S
C1228 C1227 1.415 . S
C1229 H1205 0.951 . S
C1229 C1230 1.366 . S
C1229 C1231 1.388 . S
C1230 C1229 1.366 . S
C1230 C1234 1.385 . S
C1231 H1206 0.951 . S
C1231 C1229 1.388 . S
C1231 C1232 1.366 . S
C1232 C1231 1.366 . S
C1232 C1233 1.414 . S
C1232 C1235 1.499 . S
C1233 H1207 0.950 1_655 S
C1233 C1232 1.414 . S
C1233 C1234 1.374 . S
C1234 H1208 0.950 1_656 S
C1234 C1230 1.385 . S
C1234 C1233 1.374 . S
C1235 C1232 1.499 . S
C1235 C1236 1.373 . S
C1235 C1237 1.389 . S
C1236 H1209 0.943 1_655 S
C1236 C1222 1.377 . S
C1236 C1235 1.373 . S
C1237 C1221 1.377 . S
C1237 C1235 1.389 . S
C1237 C1238 1.524 . S
C1238 C1237 1.524 . S
C1238 C1239 1.397 1_556 S
C1238 C1243 1.363 . S
C1239 H1210 0.950 . S
C1239 C1238 1.397 1_554 S
C1239 C1240 1.334 . S
C1240 H1211 0.950 . S
C1240 C1239 1.334 . S
C1240 C1241 1.287 . S
C1241 C1240 1.287 . S
C1241 C1242 1.524 . S
C1241 H1244 0.999 . S
C1242 H1212 0.950 . S
C1242 C1241 1.524 . S
C1242 C1243 1.415 1_554 S
C1243 H1213 0.950 . S
C1243 C1238 1.363 . S
C1243 C1242 1.415 1_556 S
H1244 C1241 0.999 . S
H1245 C1226 0.913 . S
H1246 C1264 0.951 . S
H1247 C1266 0.951 . S
H1248 C1268 0.950 . S
H1249 C1269 0.950 . S
H1250 C1271 0.950 . S
H1251 C1274 0.950 . S
H1252 C1275 0.950 . S
H1253 C1277 0.950 . S
H1254 C1278 0.950 . S
H1255 C1279 0.951 . S
H1256 C1281 0.951 . S
H1257 C1283 0.950 . S
H1258 C1284 0.950 . S
H1259 C1286 0.950 . S
H1260 C1289 0.950 . S
H1261 C1290 0.950 . S
H1262 C1292 0.950 . S
H1263 C1293 0.950 . S
C1264 H1246 0.951 . S
C1264 C1265 1.366 . S
C1264 C1266 1.388 . S
C1265 C1264 1.366 . S
C1265 C1269 1.385 . S
C1266 H1247 0.951 . S
C1266 C1264 1.388 . S
C1266 C1267 1.366 . S
C1267 C1266 1.366 . S
C1267 C1268 1.414 . S
C1267 C1270 1.499 . S
C1268 H1248 0.950 . S
C1268 C1267 1.414 . S
C1268 C1269 1.374 . S
C1269 H1249 0.950 . S
C1269 C1265 1.385 . S
C1269 C1268 1.374 . S
C1270 C1267 1.499 . S
C1270 C1271 1.373 . S
C1270 C1272 1.389 . S
C1271 H1250 0.950 . S
C1271 C1270 1.373 . S
C1271 C1287 1.377 . S
C1272 C1270 1.389 . S
C1272 C1273 1.524 . S
C1272 C1286 1.377 . S
C1273 C1272 1.524 . S
C1273 C1274 1.397 . S
C1273 C1278 1.363 . S
C1274 H1251 0.950 . S
C1274 C1273 1.397 . S
C1274 C1275 1.334 . S
C1275 H1252 0.950 . S
C1275 C1274 1.334 . S
C1275 C1276 1.287 1_554 S
C1276 C1275 1.287 1_556 S
C1276 C1277 1.524 . S
C1276 H1295 0.913 . S
C1277 H1253 0.950 . S
C1277 C1276 1.524 . S
C1277 C1278 1.415 1_556 S
C1278 H1254 0.950 . S
C1278 C1273 1.363 . S
C1278 C1277 1.415 1_554 S
C1279 H1255 0.951 . S
C1279 C1280 1.366 . S
C1279 C1281 1.388 . S
C1280 C1279 1.366 . S
C1280 C1284 1.385 . S
C1281 H1256 0.951 . S
C1281 C1279 1.388 . S
C1281 C1282 1.366 . S
C1282 C1281 1.366 . S
C1282 C1283 1.414 . S
C1282 C1285 1.499 . S
C1283 H1257 0.950 . S
C1283 C1282 1.414 . S
C1283 C1284 1.374 . S
C1284 H1258 0.950 . S
C1284 C1280 1.385 . S
C1284 C1283 1.374 . S
C1285 C1282 1.499 . S
C1285 C1286 1.373 . S
C1285 C1287 1.389 . S
C1286 H1259 0.950 . S
C1286 C1272 1.377 . S
C1286 C1285 1.373 . S
C1287 C1271 1.377 . S
C1287 C1285 1.389 . S
C1287 C1288 1.524 . S
C1288 C1287 1.524 . S
C1288 C1289 1.397 . S
C1288 C1293 1.363 . S
C1289 H1260 0.950 . S
C1289 C1288 1.397 . S
C1289 C1290 1.334 . S
C1290 H1261 0.950 . S
C1290 C1289 1.334 . S
C1290 C1291 1.287 . S
C1291 C1290 1.287 . S
C1291 C1292 1.524 . S
C1291 H1294 0.999 . S
C1292 H1262 0.950 . S
C1292 C1291 1.524 . S
C1292 C1293 1.415 . S
C1293 H1263 0.950 . S
C1293 C1288 1.363 . S
C1293 C1292 1.415 . S
H1294 C1291 0.999 . S
H1295 C1276 0.913 . S
H1296 C1314 0.951 . S
H1297 C1316 0.951 . S
H1298 C1318 0.950 . S
H1299 C1319 0.950 . S
H1300 C1321 0.950 . S
H1301 C1324 0.950 . S
H1302 C1325 0.950 1_655 S
H1303 C1327 0.950 . S
H1304 C1328 0.950 . S
H1305 C1329 0.951 . S
H1306 C1331 0.951 . S
H1307 C1333 0.950 . S
H1308 C1334 0.950 . S
H1309 C1336 0.950 . S
H1310 C1339 0.950 . S
H1311 C1340 0.950 . S
H1312 C1342 0.950 . S
H1313 C1343 0.950 . S
C1314 H1296 0.951 . S
C1314 C1315 1.366 . S
C1314 C1316 1.388 . S
C1315 C1314 1.366 . S
C1315 C1319 1.385 . S
C1316 H1297 0.951 . S
C1316 C1314 1.388 . S
C1316 C1317 1.366 . S
C1317 C1316 1.366 . S
C1317 C1318 1.414 . S
C1317 C1320 1.499 . S
C1318 H1298 0.950 . S
C1318 C1317 1.414 . S
C1318 C1319 1.374 . S
C1319 H1299 0.950 . S
C1319 C1315 1.385 . S
C1319 C1318 1.374 . S
C1320 C1317 1.499 . S
C1320 C1321 1.373 . S
C1320 C1322 1.389 . S
C1321 H1300 0.950 . S
C1321 C1320 1.373 . S
C1321 C1337 1.377 . S
C1322 C1320 1.389 . S
C1322 C1323 1.524 . S
C1322 C1336 1.377 . S
C1323 C1322 1.524 . S
C1323 C1324 1.397 . S
C1323 C1328 1.363 . S
C1324 H1301 0.950 . S
C1324 C1323 1.397 . S
C1324 C1325 1.334 . S
C1325 H1302 0.950 1_455 S
C1325 C1324 1.334 . S
C1325 C1326 1.287 1_455 S
C1326 C1325 1.287 1_655 S
C1326 C1327 1.524 . S
C1326 H1345 0.913 . S
C1327 H1303 0.950 . S
C1327 C1326 1.524 . S
C1327 C1328 1.415 1_655 S
C1328 H1304 0.950 . S
C1328 C1323 1.363 . S
C1328 C1327 1.415 1_455 S
C1329 H1305 0.951 . S
C1329 C1330 1.366 . S
C1329 C1331 1.388 . S
C1330 C1329 1.366 . S
C1330 C1334 1.385 . S
C1331 H1306 0.951 . S
C1331 C1329 1.388 . S
C1331 C1332 1.366 . S
C1332 C1331 1.366 . S
C1332 C1333 1.414 . S
C1332 C1335 1.499 . S
C1333 H1307 0.950 . S
C1333 C1332 1.414 . S
C1333 C1334 1.374 . S
C1334 H1308 0.950 . S
C1334 C1330 1.385 . S
C1334 C1333 1.374 . S
C1335 C1332 1.499 . S
C1335 C1336 1.373 . S
C1335 C1337 1.389 . S
C1336 H1309 0.950 . S
C1336 C1322 1.377 . S
C1336 C1335 1.373 . S
C1337 C1321 1.377 . S
C1337 C1335 1.389 . S
C1337 C1338 1.524 . S
C1338 C1337 1.524 . S
C1338 C1339 1.397 . S
C1338 C1343 1.363 . S
C1339 H1310 0.950 . S
C1339 C1338 1.397 . S
C1339 C1340 1.334 . S
C1340 H1311 0.950 . S
C1340 C1339 1.334 . S
C1340 C1341 1.287 . S
C1341 C1340 1.287 . S
C1341 C1342 1.524 . S
C1341 H1344 0.999 . S
C1342 H1312 0.950 . S
C1342 C1341 1.524 . S
C1342 C1343 1.415 . S
C1343 H1313 0.950 . S
C1343 C1338 1.363 . S
C1343 C1342 1.415 . S
H1344 C1341 0.999 . S
H1345 C1326 0.913 . S
H1346 C1364 0.951 . S
H1347 C1366 0.951 . S
H1348 C1368 0.950 . S
H1349 C1369 0.950 . S
H1350 C1371 0.950 . S
H1351 C1374 0.950 . S
H1352 C1375 0.950 . S
H1353 C1377 0.950 . S
H1354 C1378 0.950 . S
H1355 C1379 0.951 . S
H1356 C1381 0.951 . S
H1357 C1383 0.950 . S
H1358 C1384 0.950 . S
H1359 C1386 0.950 . S
H1360 C1389 0.950 . S
H1361 C1390 0.950 . S
H1362 C1392 0.950 . S
H1363 C1393 0.950 . S
C1364 H1346 0.951 . S
C1364 C1365 1.366 . S
C1364 C1366 1.388 . S
C1365 C1364 1.366 . S
C1365 C1369 1.385 . S
C1366 H1347 0.951 . S
C1366 C1364 1.388 . S
C1366 C1367 1.366 . S
C1367 C1366 1.366 . S
C1367 C1368 1.414 . S
C1367 C1370 1.499 . S
C1368 H1348 0.950 . S
C1368 C1367 1.414 . S
C1368 C1369 1.374 . S
C1369 H1349 0.950 . S
C1369 C1365 1.385 . S
C1369 C1368 1.374 . S
C1370 C1367 1.499 . S
C1370 C1371 1.373 . S
C1370 C1372 1.389 . S
C1371 H1350 0.950 . S
C1371 C1370 1.373 . S
C1371 C1387 1.377 . S
C1372 C1370 1.389 . S
C1372 C1373 1.524 . S
C1372 C1386 1.377 . S
C1373 C1372 1.524 . S
C1373 C1374 1.397 . S
C1373 C1378 1.363 . S
C1374 H1351 0.950 . S
C1374 C1373 1.397 . S
C1374 C1375 1.334 . S
C1375 H1352 0.950 . S
C1375 C1374 1.334 . S
C1375 C1376 1.287 . S
C1376 C1375 1.287 . S
C1376 C1377 1.524 . S
C1376 H1395 0.913 . S
C1377 H1353 0.950 . S
C1377 C1376 1.524 . S
C1377 C1378 1.415 . S
C1378 H1354 0.950 . S
C1378 C1373 1.363 . S
C1378 C1377 1.415 . S
C1379 H1355 0.951 . S
C1379 C1380 1.366 . S
C1379 C1381 1.388 . S
C1380 C1379 1.366 . S
C1380 C1384 1.385 . S
C1381 H1356 0.951 . S
C1381 C1379 1.388 . S
C1381 C1382 1.366 . S
C1382 C1381 1.366 . S
C1382 C1383 1.414 . S
C1382 C1385 1.499 . S
C1383 H1357 0.950 . S
C1383 C1382 1.414 . S
C1383 C1384 1.374 . S
C1384 H1358 0.950 . S
C1384 C1380 1.385 . S
C1384 C1383 1.374 . S
C1385 C1382 1.499 . S
C1385 C1386 1.373 . S
C1385 C1387 1.389 . S
C1386 H1359 0.950 . S
C1386 C1372 1.377 . S
C1386 C1385 1.373 . S
C1387 C1371 1.377 . S
C1387 C1385 1.389 . S
C1387 C1388 1.524 . S
C1388 C1387 1.524 . S
C1388 C1389 1.397 . S
C1388 C1393 1.363 . S
C1389 H1360 0.950 . S
C1389 C1388 1.397 . S
C1389 C1390 1.334 . S
C1390 H1361 0.950 . S
C1390 C1389 1.334 . S
C1390 C1391 1.287 . S
C1391 C1390 1.287 . S
C1391 C1392 1.524 . S
C1391 H1394 0.999 . S
C1392 H1362 0.950 . S
C1392 C1391 1.524 . S
C1392 C1393 1.415 . S
C1393 H1363 0.950 . S
C1393 C1388 1.363 . S
C1393 C1392 1.415 . S
H1394 C1391 0.999 . S
H1395 C1376 0.913 . S
C215 N1 1.541 . S
C230 C122 1.551 . S
C265 N18 1.984 . S
C280 C146 1.973 . S
C330 C166 0.856 . S
C315 N28 0.854 . S
C365 N40 1.587 . S
C380 C189 1.618 . S
C430 C148 2.096 . S
C415 N5 2.099 . S
C480 C124 1.740 . S
C465 N14 1.752 . S
C530 C192 1.498 . S
C515 N31 1.496 . S
C580 C169 1.133 . S
C565 N41 1.163 . S
C615 N2 1.307 . S
C630 C194 1.277 . S
C680 C143 1.727 . S
C665 N27 1.702 . S
C715 N44 1.745 . S
C730 C121 1.779 . S
C765 N15 1.191 . S
C780 C171 1.175 . S
C830 C125 1.936 . S
C815 N57 1.934 . S
C865 N70 1.282 . S
C880 C147 1.308 . S
C915 N79 1.580 . S
C930 C167 1.643 . S
C965 N93 1.507 . S
C980 C190 1.528 . S
C1015 N54 1.404 . S
C1030 C145 1.397 . S
C1080 C123 2.042 . S
C1065 N66 2.017 . S
C1130 C193 0.850 . S
C1115 N80 0.856 . S
C1180 C170 1.447 . S
C1165 N96 1.474 . S
C1215 N53 1.791 . S
C1230 C191 1.781 . S
C1280 C144 1.463 . S
C1265 N83 1.429 . S
C1330 C120 1.694 . S
C1315 N92 1.647 . S
C1365 N67 1.645 . S
C1380 C168 1.656 . S
